# Generated by pormake.
# Topology ukf, (4)-cn, num edge types: 1
# Building blocks:
#     Node 0, Type 0, BuildingBlock: NAHDIM_clean_sbu_0, # of connection points: 4
#     Node 1, Type 0, BuildingBlock: NAHDIM_clean_sbu_0, # of connection points: 4
#     Node 2, Type 0, BuildingBlock: NAHDIM_clean_sbu_0, # of connection points: 4
#     Node 3, Type 0, BuildingBlock: NAHDIM_clean_sbu_0, # of connection points: 4
#     Node 4, Type 0, BuildingBlock: NAHDIM_clean_sbu_0, # of connection points: 4
#     Node 5, Type 0, BuildingBlock: NAHDIM_clean_sbu_0, # of connection points: 4
#     Node 6, Type 0, BuildingBlock: NAHDIM_clean_sbu_0, # of connection points: 4
#     Node 7, Type 0, BuildingBlock: NAHDIM_clean_sbu_0, # of connection points: 4
#     Node 8, Type 0, BuildingBlock: NAHDIM_clean_sbu_0, # of connection points: 4
#     Node 9, Type 0, BuildingBlock: NAHDIM_clean_sbu_0, # of connection points: 4
#     Node 10, Type 0, BuildingBlock: NAHDIM_clean_sbu_0, # of connection points: 4
#     Node 11, Type 0, BuildingBlock: NAHDIM_clean_sbu_0, # of connection points: 4
#     Edge 12, Type (0, 0), BuildingBlock: XUDNAN_clean_linker_2, # of connection points: 2
#     Edge 13, Type (0, 0), BuildingBlock: XUDNAN_clean_linker_2, # of connection points: 2
#     Edge 14, Type (0, 0), BuildingBlock: XUDNAN_clean_linker_2, # of connection points: 2
#     Edge 15, Type (0, 0), BuildingBlock: XUDNAN_clean_linker_2, # of connection points: 2
#     Edge 16, Type (0, 0), BuildingBlock: XUDNAN_clean_linker_2, # of connection points: 2
#     Edge 17, Type (0, 0), BuildingBlock: XUDNAN_clean_linker_2, # of connection points: 2
#     Edge 18, Type (0, 0), BuildingBlock: XUDNAN_clean_linker_2, # of connection points: 2
#     Edge 19, Type (0, 0), BuildingBlock: XUDNAN_clean_linker_2, # of connection points: 2
#     Edge 20, Type (0, 0), BuildingBlock: XUDNAN_clean_linker_2, # of connection points: 2
#     Edge 21, Type (0, 0), BuildingBlock: XUDNAN_clean_linker_2, # of connection points: 2
#     Edge 22, Type (0, 0), BuildingBlock: XUDNAN_clean_linker_2, # of connection points: 2
#     Edge 23, Type (0, 0), BuildingBlock: XUDNAN_clean_linker_2, # of connection points: 2
#     Edge 24, Type (0, 0), BuildingBlock: XUDNAN_clean_linker_2, # of connection points: 2
#     Edge 25, Type (0, 0), BuildingBlock: XUDNAN_clean_linker_2, # of connection points: 2
#     Edge 26, Type (0, 0), BuildingBlock: XUDNAN_clean_linker_2, # of connection points: 2
#     Edge 27, Type (0, 0), BuildingBlock: XUDNAN_clean_linker_2, # of connection points: 2
#     Edge 28, Type (0, 0), BuildingBlock: XUDNAN_clean_linker_2, # of connection points: 2
#     Edge 29, Type (0, 0), BuildingBlock: XUDNAN_clean_linker_2, # of connection points: 2
#     Edge 30, Type (0, 0), BuildingBlock: XUDNAN_clean_linker_2, # of connection points: 2
#     Edge 31, Type (0, 0), BuildingBlock: XUDNAN_clean_linker_2, # of connection points: 2
#     Edge 32, Type (0, 0), BuildingBlock: XUDNAN_clean_linker_2, # of connection points: 2
#     Edge 33, Type (0, 0), BuildingBlock: XUDNAN_clean_linker_2, # of connection points: 2
#     Edge 34, Type (0, 0), BuildingBlock: XUDNAN_clean_linker_2, # of connection points: 2
#     Edge 35, Type (0, 0), BuildingBlock: XUDNAN_clean_linker_2, # of connection points: 2
# Relax obj value: 0.169
# Max RMSD: 0.176
# Mean RMSD: 0.169
data_MOF--net-ukf--node1-NAHDIM_clean_sbu_0--edge1-XUDNAN_clean_linker_2
_symmetry_space_group_name_H-M    P1
_symmetry_Int_Tables_number       1
_symmetry_cell_setting            triclinic
loop_
_symmetry_equiv_pos_as_xyz
'x, y, z'
_cell_length_a     32.856683
_cell_length_b     32.431661
_cell_length_c     61.524621
_cell_angle_alpha  90.025733
_cell_angle_beta   90.003646
_cell_angle_gamma 120.38891
loop_
_atom_site_label
_atom_site_type_symbol
_atom_site_fract_x
_atom_site_fract_y
_atom_site_fract_z
_atom_type_partial_charge
C0 C 0.42967 0.3289 0.04592 0.0
O1 O 0.45096 0.32479 0.06314 0.0
O2 O 0.44212 0.22609 0.04393 0.0
Zn3 Zn 0.38476 0.23053 0.05166 0.0
O4 O 0.37866 0.23519 0.08424 0.0
C5 C 0.32517 0.13282 0.04225 0.0
O6 O 0.35874 0.13199 0.05343 0.0
O7 O 0.3957 0.29132 0.03763 0.0
C8 C 0.38662 0.21044 0.09774 0.0
O9 O 0.39827 0.17974 0.09048 0.0
C10 C 0.47999 0.24227 0.0549 0.0
O11 O 0.48336 0.26226 0.07389 0.0
O12 O 0.32757 0.1727 0.03901 0.0
C13 C 0.08784 0.39137 0.38826 0.0
O14 O 0.09324 0.37392 0.40657 0.0
O15 O 0.2285 0.45214 0.36877 0.0
Zn16 Zn 0.17134 0.38806 0.37609 0.0
O17 O 0.17783 0.37173 0.40724 0.0
C18 C 0.20404 0.32833 0.36241 0.0
O19 O 0.23343 0.3537 0.37802 0.0
O20 O 0.11381 0.39544 0.37212 0.0
C21 C 0.18977 0.40071 0.42309 0.0
O22 O 0.19691 0.44387 0.41982 0.0
C23 C 0.22742 0.49005 0.37284 0.0
O24 O 0.18914 0.48654 0.38135 0.0
O25 O 0.17141 0.33679 0.35731 0.0
C26 C 0.83803 0.18813 0.69561 0.0
O27 O 0.84148 0.22274 0.70803 0.0
O28 O 0.75506 0.1788 0.73397 0.0
Zn29 Zn 0.74531 0.1644 0.70197 0.0
O30 O 0.74994 0.22188 0.68737 0.0
C31 C 0.66071 0.08001 0.7138 0.0
O32 O 0.68833 0.08123 0.72954 0.0
O33 O 0.79712 0.15434 0.69043 0.0
C34 C 0.76388 0.2332 0.66787 0.0
O35 O 0.77549 0.20629 0.65658 0.0
C36 C 0.7261 0.18713 0.74396 0.0
O37 O 0.69212 0.18765 0.73292 0.0
O38 O 0.67875 0.10926 0.69811 0.0
C39 C 0.56382 0.66754 0.01814 0.0
O40 O 0.5481 0.68973 0.00593 0.0
O41 O 0.52966 0.74542 0.03611 0.0
Zn42 Zn 0.58686 0.74541 0.04745 0.0
O43 O 0.57961 0.73861 0.0799 0.0
C44 C 0.63697 0.84259 0.04057 0.0
O45 O 0.59882 0.83556 0.05076 0.0
O46 O 0.5853 0.68704 0.03573 0.0
C47 C 0.60532 0.76833 0.09438 0.0
O48 O 0.64267 0.80878 0.08861 0.0
C49 C 0.48842 0.71563 0.04272 0.0
O50 O 0.4828 0.68338 0.05719 0.0
O51 O 0.64319 0.80733 0.03785 0.0
C52 C 0.92885 0.57425 0.36115 0.0
O53 O 0.90022 0.55548 0.34449 0.0
O54 O 0.81298 0.55516 0.36166 0.0
Zn55 Zn 0.87016 0.61502 0.37218 0.0
O56 O 0.85684 0.62479 0.40291 0.0
C57 C 0.85565 0.66398 0.33709 0.0
O58 O 0.83685 0.62134 0.32823 0.0
O59 O 0.92509 0.60383 0.37335 0.0
C60 C 0.82109 0.62844 0.40749 0.0
O61 O 0.79339 0.62693 0.39172 0.0
C62 C 0.79289 0.519 0.37407 0.0
O63 O 0.81076 0.5211 0.39342 0.0
O64 O 0.87754 0.67149 0.35503 0.0
C65 C 0.14232 0.82125 0.69837 0.0
O66 O 0.14108 0.79336 0.71415 0.0
O67 O 0.22983 0.83217 0.73321 0.0
Zn68 Zn 0.23706 0.84559 0.70111 0.0
O69 O 0.23616 0.78947 0.68664 0.0
C70 C 0.31665 0.93534 0.7122 0.0
O71 O 0.28758 0.93233 0.72761 0.0
O72 O 0.18191 0.8503 0.6898 0.0
C73 C 0.27328 0.7921 0.67894 0.0
O74 O 0.31338 0.83285 0.67998 0.0
C75 C 0.26169 0.82865 0.7433 0.0
O76 O 0.29794 0.83274 0.73239 0.0
O77 O 0.30087 0.90479 0.69691 0.0
C78 C 0.65968 0.54849 0.61841 0.0
O79 O 0.66513 0.5207 0.60461 0.0
O80 O 0.76716 0.54791 0.61312 0.0
Zn81 Zn 0.75703 0.60385 0.60977 0.0
O82 O 0.75336 0.61435 0.57792 0.0
C83 C 0.82401 0.66612 0.6422 0.0
O84 O 0.79578 0.6321 0.65562 0.0
O85 O 0.6955 0.58823 0.62371 0.0
C86 C 0.7868 0.61889 0.56591 0.0
O87 O 0.82223 0.61716 0.57485 0.0
C88 C 0.75439 0.52211 0.6301 0.0
O89 O 0.73423 0.53224 0.64602 0.0
O90 O 0.81321 0.6625 0.62219 0.0
C91 C 0.09821 0.67076 0.95603 0.0
O92 O 0.11637 0.68496 0.97551 0.0
O93 O 0.2167 0.74793 0.96403 0.0
Zn94 Zn 0.17663 0.76121 0.94396 0.0
O95 O 0.20841 0.78045 0.91495 0.0
C96 C 0.17046 0.8203 0.97657 0.0
O97 O 0.17447 0.7899 0.98921 0.0
O98 O 0.1162 0.69926 0.9401 0.0
C99 C 0.18586 0.78333 0.89883 0.0
O100 O 0.14279 0.77516 0.9018 0.0
C101 C 0.26135 0.77314 0.96484 0.0
O102 O 0.28348 0.81056 0.95208 0.0
O103 O 0.16814 0.81395 0.95613 0.0
C104 C 0.32881 0.14098 0.29811 0.0
O105 O 0.32521 0.12817 0.27762 0.0
O106 O 0.42354 0.18764 0.26211 0.0
Zn107 Zn 0.42736 0.16865 0.29282 0.0
O108 O 0.47966 0.22288 0.30946 0.0
C109 C 0.48238 0.13194 0.28023 0.0
O110 O 0.50082 0.17428 0.27112 0.0
O111 O 0.36708 0.15332 0.30823 0.0
C112 C 0.51175 0.2627 0.302 0.0
O113 O 0.51206 0.27222 0.28123 0.0
C114 C 0.41278 0.21871 0.25663 0.0
O115 O 0.40471 0.24231 0.27176 0.0
O116 O 0.44511 0.11716 0.29159 0.0
C117 C 0.3283 0.4437 0.62594 0.0
O118 O 0.32207 0.47567 0.6158 0.0
O119 O 0.23865 0.46206 0.62775 0.0
Zn120 Zn 0.23101 0.39781 0.62122 0.0
O121 O 0.22229 0.38845 0.58895 0.0
C122 C 0.14719 0.30512 0.63034 0.0
O123 O 0.1587 0.29138 0.61245 0.0
O124 O 0.29278 0.40286 0.63013 0.0
C125 C 0.23315 0.36219 0.578 0.0
O126 O 0.25023 0.33843 0.58801 0.0
C127 C 0.20992 0.47375 0.63525 0.0
O128 O 0.16649 0.44048 0.63993 0.0
O129 O 0.17383 0.34744 0.63731 0.0
C130 C 0.88104 0.32448 0.95869 0.0
O131 O 0.86051 0.31242 0.97781 0.0
O132 O 0.76212 0.24574 0.96706 0.0
Zn133 Zn 0.80209 0.23417 0.9459 0.0
O134 O 0.77204 0.21914 0.9164 0.0
C135 C 0.765 0.14268 0.96043 0.0
O136 O 0.72838 0.14622 0.95468 0.0
O137 O 0.86415 0.29477 0.94312 0.0
C138 C 0.79423 0.21549 0.90032 0.0
O139 O 0.83575 0.21982 0.90357 0.0
C140 C 0.72107 0.23795 0.96261 0.0
O141 O 0.70367 0.22301 0.94308 0.0
O142 O 0.8061 0.17816 0.95727 0.0
C143 C 0.65231 0.78767 0.29626 0.0
O144 O 0.6182 0.75383 0.28465 0.0
O145 O 0.5826 0.80403 0.25963 0.0
Zn146 Zn 0.58848 0.81963 0.29158 0.0
O147 O 0.53272 0.7677 0.30774 0.0
C148 C 0.60915 0.91451 0.28084 0.0
O149 O 0.63582 0.91035 0.26611 0.0
O150 O 0.6484 0.82305 0.30228 0.0
C151 C 0.51467 0.77814 0.32354 0.0
O152 O 0.53357 0.82301 0.32956 0.0
C153 C 0.55049 0.76511 0.25141 0.0
O154 O 0.51809 0.73245 0.26411 0.0
O155 O 0.5876 0.88111 0.29456 0.0
H156 H 0.20637 0.85842 0.01624 0.0
H157 H 0.15249 0.88543 0.95687 0.0
H158 H 0.17577 0.96643 0.97017 0.0
H159 H 0.17938 0.9324 0.05385 0.0
H160 H 0.23388 0.95266 0.0684 0.0
H161 H 0.20402 0.89398 0.05627 0.0
H162 H 0.28016 0.91444 0.03508 0.0
H163 H 0.31007 0.97307 0.04696 0.0
H164 H 0.30711 0.9665 0.01782 0.0
H165 H 0.21451 0.04796 0.98791 0.0
H166 H 0.26826 0.12295 0.00749 0.0
H167 H 0.29917 0.0422 0.0541 0.0
C168 C 0.19789 0.88068 0.00634 0.0
C169 C 0.17715 0.8655 0.98564 0.0
C170 C 0.16804 0.89629 0.97288 0.0
C171 C 0.18098 0.94226 0.98034 0.0
C172 C 0.20295 0.95678 0.00056 0.0
C173 C 0.21119 0.92673 0.01339 0.0
C174 C 0.24085 0.95253 0.03303 0.0
C175 C 0.21284 0.93165 0.05414 0.0
C176 C 0.28728 0.95158 0.03321 0.0
C177 C 0.24957 0.00226 0.02886 0.0
C178 C 0.22658 0.00394 0.01036 0.0
C179 C 0.23208 0.0469 0.0026 0.0
C180 C 0.26262 0.08929 0.01381 0.0
C181 C 0.28783 0.08826 0.03226 0.0
C182 C 0.28024 0.04403 0.04007 0.0
H183 H 0.26661 0.29955 0.37249 0.0
H184 H 0.15467 0.27289 0.32716 0.0
H185 H 0.16768 0.21316 0.30812 0.0
H186 H 0.3434 0.29576 0.33473 0.0
H187 H 0.36512 0.2673 0.35269 0.0
H188 H 0.34329 0.30375 0.36373 0.0
H189 H 0.28409 0.23272 0.38766 0.0
H190 H 0.30559 0.19588 0.37653 0.0
H191 H 0.24364 0.17638 0.37503 0.0
H192 H 0.19865 0.16188 0.29215 0.0
H193 H 0.24606 0.12647 0.28003 0.0
H194 H 0.33604 0.1863 0.33667 0.0
C195 C 0.24432 0.28081 0.35872 0.0
C196 C 0.20958 0.29091 0.35131 0.0
C197 C 0.18142 0.26565 0.33316 0.0
C198 C 0.18846 0.23155 0.32231 0.0
C199 C 0.2234 0.22282 0.32998 0.0
C200 C 0.25071 0.24672 0.34784 0.0
C201 C 0.28799 0.23346 0.35211 0.0
C202 C 0.33787 0.27769 0.35072 0.0
C203 C 0.27981 0.2081 0.37414 0.0
C204 C 0.27847 0.19937 0.33346 0.0
C205 C 0.24076 0.19315 0.32099 0.0
C206 C 0.22776 0.16595 0.30199 0.0
C207 C 0.25487 0.14587 0.29526 0.0
C208 C 0.29467 0.1533 0.30744 0.0
C209 C 0.30547 0.17922 0.32713 0.0
H210 H 0.92895 0.2586 0.70272 0.0
H211 H 0.84478 0.12626 0.66715 0.0
H212 H 0.91716 0.13725 0.64932 0.0
H213 H 0.0023 0.32289 0.66012 0.0
H214 H 0.05464 0.35596 0.67645 0.0
H215 H 0.99744 0.33427 0.68841 0.0
H216 H 0.01662 0.28954 0.71792 0.0
H217 H 0.07407 0.31124 0.70605 0.0
H218 H 0.03495 0.24797 0.70983 0.0
H219 H 0.99793 0.16742 0.6327 0.0
H220 H 0.07917 0.21435 0.6184 0.0
H221 H 0.10923 0.32671 0.66506 0.0
C222 C 0.92568 0.23132 0.69151 0.0
C223 C 0.88119 0.19145 0.68639 0.0
C224 C 0.87853 0.15698 0.67142 0.0
C225 C 0.91946 0.16288 0.66125 0.0
C226 C 0.96268 0.20323 0.66636 0.0
C227 C 0.96597 0.23671 0.68125 0.0
C228 C 0.01577 0.27878 0.68274 0.0
C229 C 0.01761 0.32572 0.67655 0.0
C230 C 0.03657 0.28205 0.70548 0.0
C231 C 0.03985 0.26456 0.66588 0.0
C232 C 0.00889 0.22061 0.65679 0.0
C233 C 0.0226 0.20155 0.63991 0.0
C234 C 0.06883 0.22851 0.63189 0.0
C235 C 0.10068 0.27418 0.64064 0.0
C236 C 0.08601 0.29175 0.65815 0.0
H237 H 0.61495 0.91053 0.03122 0.0
H238 H 0.72743 0.87824 0.02503 0.0
H239 H 0.77548 0.95423 0.00488 0.0
H240 H 0.62504 0.95494 0.97833 0.0
H241 H 0.61077 -0.00018 0.98595 0.0
H242 H 0.58801 0.94573 0.00159 0.0
H243 H 0.62506 0.99542 0.03659 0.0
H244 H 0.6477 0.04975 0.02109 0.0
H245 H 0.68724 0.03896 0.03716 0.0
H246 H 0.81021 0.0346 0.9847 0.0
H247 H 0.82584 0.10797 0.96488 0.0
H248 H 0.68699 0.08128 0.98301 0.0
C249 C 0.65004 0.91971 0.02602 0.0
C250 C 0.66781 0.88891 0.02991 0.0
C251 C 0.71339 0.90167 0.02231 0.0
C252 C 0.74085 0.94469 0.01091 0.0
C253 C 0.72184 0.97398 0.00709 0.0
C254 C 0.67729 0.96169 0.01437 0.0
C255 C 0.66311 0.99704 0.00705 0.0
C256 C 0.61915 0.97293 0.99236 0.0
C257 C 0.65534 0.02176 0.02664 0.0
C258 C 0.70654 0.03128 0.9944 0.0
C259 C 0.74045 0.01804 0.99477 0.0
C260 C 0.78379 0.04514 0.98428 0.0
C261 C 0.79239 0.08665 0.97309 0.0
C262 C 0.75741 0.09985 0.97225 0.0
C263 C 0.71418 0.07174 0.9831 0.0
H264 H 0.67187 0.71966 0.28259 0.0
H265 H 0.72561 0.84507 0.32386 0.0
H266 H 0.79129 0.83325 0.33537 0.0
H267 H 0.692 0.64958 0.31841 0.0
H268 H 0.70822 0.62097 0.29782 0.0
H269 H 0.66942 0.64303 0.29113 0.0
H270 H 0.72601 0.69431 0.26017 0.0
H271 H 0.76521 0.67253 0.26688 0.0
H272 H 0.78711 0.73592 0.26627 0.0
H273 H 0.84593 0.80198 0.34521 0.0
H274 H 0.88274 0.75343 0.35319 0.0
H275 H 0.79332 0.65002 0.30461 0.0
C276 C 0.69778 0.74518 0.29381 0.0
C277 C 0.69361 0.78333 0.30233 0.0
C278 C 0.72819 0.81567 0.31706 0.0
C279 C 0.76568 0.80931 0.32362 0.0
C280 C 0.7683 0.77082 0.31509 0.0
C281 C 0.73529 0.73948 0.30041 0.0
C282 C 0.74371 0.69901 0.29475 0.0
C283 C 0.70081 0.6503 0.30091 0.0
C284 C 0.75627 0.70056 0.27058 0.0
C285 C 0.78573 0.71142 0.3091 0.0
C286 C 0.79987 0.75326 0.32053 0.0
C287 C 0.83564 0.76964 0.33607 0.0
C288 C 0.85641 0.74183 0.34047 0.0
C289 C 0.84117 0.69801 0.32944 0.0
C290 C 0.80639 0.68365 0.3131 0.0
H291 H 0.8667 0.67188 0.68112 0.0
H292 H 0.88866 0.74494 0.61941 0.0
H293 H 0.97145 0.80119 0.62959 0.0
H294 H 0.9491 0.77936 0.71426 0.0
H295 H 0.96849 0.74527 0.72974 0.0
H296 H 0.90905 0.71675 0.71935 0.0
H297 H 0.92213 0.6534 0.69996 0.0
H298 H 0.98149 0.68178 0.71014 0.0
H299 H 0.9708 0.67278 0.68132 0.0
H300 H 0.05438 0.84201 0.64424 0.0
H301 H 0.13003 0.86292 0.66192 0.0
H302 H 0.05338 0.76232 0.71372 0.0
C303 C 0.88843 0.70063 0.67002 0.0
C304 C 0.87111 0.70419 0.64954 0.0
C305 C 0.9011 0.74166 0.63526 0.0
C306 C 0.94816 0.7739 0.64092 0.0
C307 C 0.9646 0.76837 0.66097 0.0
C308 C 0.93548 0.73283 0.67536 0.0
C309 C 0.9628 0.73102 0.69477 0.0
C310 C 0.94638 0.74388 0.71578 0.0
C311 C 0.95909 0.68185 0.69663 0.0
C312 C 0.01214 0.76968 0.68862 0.0
C313 C 0.01244 0.79149 0.66928 0.0
C314 C 0.05448 0.82579 0.65959 0.0
C315 C 0.09729 0.8374 0.66973 0.0
C316 C 0.09764 0.81433 0.68922 0.0
C317 C 0.05437 0.78092 0.69893 0.0
H318 H 0.629 0.21575 0.95968 0.0
H319 H 0.74747 0.27005 0.00434 0.0
H320 H 0.69807 0.27507 0.03328 0.0
H321 H 0.5831 0.28895 0.97853 0.0
H322 H 0.52236 0.24265 0.97514 0.0
H323 H 0.56727 0.24351 0.95806 0.0
H324 H 0.54105 0.15682 0.96984 0.0
H325 H 0.49627 0.15581 0.98708 0.0
H326 H 0.53942 0.14313 0.99834 0.0
H327 H 0.63566 0.27467 0.05727 0.0
H328 H 0.56534 0.27024 0.07423 0.0
H329 H 0.48807 0.21497 0.01381 0.0
C330 C 0.64469 0.22886 0.97551 0.0
C331 C 0.69211 0.24256 0.97974 0.0
C332 C 0.71119 0.25937 0.00072 0.0
C333 C 0.68342 0.26228 0.01727 0.0
C334 C 0.63667 0.24812 0.01259 0.0
C335 C 0.61749 0.23183 0.99221 0.0
C336 C 0.56639 0.21896 0.99134 0.0
C337 C 0.55939 0.2504 0.97479 0.0
C338 C 0.53388 0.1655 0.98636 0.0
C339 C 0.55986 0.23073 0.01439 0.0
C340 C 0.60074 0.24746 0.02642 0.0
C341 C 0.60339 0.26148 0.04804 0.0
C342 C 0.56328 0.2588 0.05752 0.0
C343 C 0.52119 0.24216 0.04537 0.0
C344 C 0.51957 0.22755 0.0236 0.0
H345 H 0.30457 0.51245 0.34728 0.0
H346 H 0.24353 0.57544 0.38878 0.0
H347 H 0.31188 0.65552 0.38173 0.0
H348 H 0.42696 0.59282 0.36185 0.0
H349 H 0.44847 0.59564 0.33462 0.0
H350 H 0.39572 0.54281 0.34366 0.0
H351 H 0.34947 0.54989 0.31114 0.0
H352 H 0.40206 0.6027 0.302 0.0
H353 H 0.3491 0.60475 0.30711 0.0
H354 H 0.38612 0.7286 0.37012 0.0
H355 H 0.45993 0.79068 0.35319 0.0
H356 H 0.47176 0.68084 0.3182 0.0
C357 C 0.3058 0.54308 0.355 0.0
C358 C 0.26885 0.53772 0.36864 0.0
C359 C 0.27141 0.5787 0.37824 0.0
C360 C 0.31016 0.62433 0.3744 0.0
C361 C 0.34589 0.62843 0.36082 0.0
C362 C 0.34401 0.58902 0.35115 0.0
C363 C 0.38626 0.60363 0.33653 0.0
C364 C 0.41612 0.58247 0.34466 0.0
C365 C 0.37078 0.5894 0.31279 0.0
C366 C 0.41201 0.65738 0.33946 0.0
C367 C 0.38831 0.67085 0.35369 0.0
C368 C 0.40506 0.71855 0.35895 0.0
C369 C 0.44706 0.75353 0.34927 0.0
C370 C 0.47159 0.74065 0.33436 0.0
C371 C 0.4538 0.69184 0.32951 0.0
H372 H 0.73886 0.29377 0.68654 0.0
H373 H 0.79597 0.27027 0.62723 0.0
H374 H 0.80102 0.34258 0.61118 0.0
H375 H 0.66743 0.33398 0.66107 0.0
H376 H 0.67825 0.3778 0.68173 0.0
H377 H 0.68003 0.32477 0.68858 0.0
H378 H 0.7647 0.37709 0.70383 0.0
H379 H 0.76321 0.43031 0.69701 0.0
H380 H 0.80997 0.42204 0.68674 0.0
H381 H 0.79937 0.41739 0.60163 0.0
H382 H 0.79002 0.48818 0.5991 0.0
H383 H 0.7335 0.46159 0.66469 0.0
C384 C 0.75253 0.30378 0.67018 0.0
C385 C 0.76706 0.27638 0.65813 0.0
C386 C 0.78461 0.29072 0.63676 0.0
C387 C 0.78767 0.33174 0.62752 0.0
C388 C 0.773 0.3579 0.63987 0.0
C389 C 0.75573 0.34444 0.66072 0.0
C390 C 0.74177 0.3783 0.6705 0.0
C391 C 0.68872 0.35214 0.67577 0.0
C392 C 0.77171 0.40342 0.69072 0.0
C393 C 0.75369 0.41289 0.65185 0.0
C394 C 0.77182 0.40066 0.63435 0.0
C395 C 0.78524 0.42733 0.61524 0.0
C396 C 0.77981 0.46747 0.61397 0.0
C397 C 0.76099 0.4804 0.63169 0.0
C398 C 0.74796 0.45268 0.65085 0.0
H399 H 0.35744 0.81376 0.96826 0.0
H400 H 0.22508 0.70039 0.99451 0.0
H401 H 0.26885 0.67461 0.01803 0.0
H402 H 0.41569 0.74675 0.96626 0.0
H403 H 0.47257 0.79606 0.97394 0.0
H404 H 0.43102 0.80719 0.95989 0.0
H405 H 0.43618 0.86373 0.99095 0.0
H406 H 0.47792 0.85287 0.00503 0.0
H407 H 0.4247 0.84203 0.01853 0.0
H408 H 0.32672 0.65937 0.03781 0.0
H409 H 0.39504 0.65627 0.05261 0.0
H410 H 0.48923 0.7793 0.01329 0.0
C411 C 0.33765 0.78378 0.97908 0.0
C412 C 0.28785 0.75913 0.97955 0.0
C413 C 0.26327 0.71984 0.99386 0.0
C414 C 0.28778 0.70493 0.00731 0.0
C415 C 0.33683 0.7297 0.00629 0.0
C416 C 0.36154 0.76835 0.9926 0.0
C417 C 0.41415 0.78798 0.99422 0.0
C418 C 0.43453 0.78424 0.97227 0.0
C419 C 0.43973 0.83971 0.00269 0.0
C420 C 0.41507 0.75402 0.0108 0.0
C421 C 0.37016 0.72079 0.01763 0.0
C422 C 0.36211 0.68533 0.03267 0.0
C423 C 0.40111 0.68382 0.04096 0.0
C424 C 0.44743 0.7175 0.03411 0.0
C425 C 0.45427 0.75304 0.01887 0.0
H426 H 0.58576 0.35219 0.29213 0.0
H427 H 0.52414 0.24959 0.34483 0.0
H428 H 0.58921 0.3041 0.36891 0.0
H429 H 0.70609 0.39097 0.30423 0.0
H430 H 0.72756 0.4527 0.29748 0.0
H431 H 0.67548 0.40618 0.28436 0.0
H432 H 0.62814 0.44596 0.297 0.0
H433 H 0.68015 0.49273 0.31008 0.0
H434 H 0.62667 0.45826 0.32548 0.0
H435 H 0.66193 0.36815 0.38698 0.0
H436 H 0.7363 0.43952 0.39831 0.0
H437 H 0.75016 0.50098 0.33411 0.0
C438 C 0.58581 0.34128 0.30876 0.0
C439 C 0.54985 0.29657 0.31657 0.0
C440 C 0.55124 0.28366 0.33846 0.0
C441 C 0.58809 0.31434 0.35228 0.0
C442 C 0.62317 0.35789 0.34402 0.0
C443 C 0.62226 0.37156 0.32284 0.0
C444 C 0.66449 0.42033 0.31805 0.0
C445 C 0.69522 0.41733 0.29996 0.0
C446 C 0.64892 0.45645 0.31232 0.0
C447 C 0.68937 0.43168 0.33982 0.0
C448 C 0.66498 0.39515 0.35455 0.0
C449 C 0.6813 0.39713 0.37564 0.0
C450 C 0.72363 0.43775 0.3819 0.0
C451 C 0.74899 0.47582 0.36712 0.0
C452 C 0.73152 0.47253 0.34581 0.0
H453 H 0.16026 0.51421 0.65207 0.0
H454 H 0.29802 0.54924 0.62736 0.0
H455 H 0.32789 0.63432 0.63465 0.0
H456 H 0.16196 0.62 0.63067 0.0
H457 H 0.13287 0.62667 0.65411 0.0
H458 H 0.1213 0.5682 0.6462 0.0
H459 H 0.14515 0.55546 0.68467 0.0
H460 H 0.15682 0.61385 0.69269 0.0
H461 H 0.2022 0.59851 0.69542 0.0
H462 H 0.34423 0.71497 0.64573 0.0
H463 H 0.34568 0.78679 0.65994 0.0
H464 H 0.19759 0.70043 0.67732 0.0
C465 C 0.19659 0.5398 0.64806 0.0
C466 C 0.2267 0.52492 0.63912 0.0
C467 C 0.27413 0.55961 0.63419 0.0
C468 C 0.29153 0.60814 0.63824 0.0
C469 C 0.26109 0.62158 0.64716 0.0
C470 C 0.21462 0.58859 0.65197 0.0
C471 C 0.18982 0.61271 0.66193 0.0
C472 C 0.14908 0.60653 0.64735 0.0
C473 C 0.17249 0.59402 0.68505 0.0
C474 C 0.22986 0.6642 0.66222 0.0
C475 C 0.27056 0.66847 0.65353 0.0
C476 C 0.31252 0.71221 0.65247 0.0
C477 C 0.31299 0.75279 0.6606 0.0
C478 C 0.27176 0.74929 0.66969 0.0
C479 C 0.22963 0.70435 0.67036 0.0
H480 H 0.4022 0.16306 0.13035 0.0
H481 H 0.37043 0.27582 0.1186 0.0
H482 H 0.37325 0.29057 0.15818 0.0
H483 H 0.3338 0.11769 0.17953 0.0
H484 H 0.37592 0.10513 0.19209 0.0
H485 H 0.36996 0.103 0.16295 0.0
H486 H 0.4594 0.16415 0.15924 0.0
H487 H 0.46558 0.16667 0.18835 0.0
H488 H 0.48426 0.2208 0.17311 0.0
H489 H 0.38123 0.2936 0.19938 0.0
H490 H 0.39248 0.28373 0.23843 0.0
H491 H 0.4197 0.16955 0.2222 0.0
C492 C 0.39556 0.19072 0.13604 0.0
C493 C 0.38606 0.21826 0.12138 0.0
C494 C 0.37765 0.25416 0.12955 0.0
C495 C 0.37925 0.26285 0.15199 0.0
C496 C 0.38919 0.23526 0.16598 0.0
C497 C 0.39703 0.19983 0.15828 0.0
C498 C 0.4075 0.17544 0.17654 0.0
C499 C 0.36953 0.12217 0.17785 0.0
C500 C 0.45714 0.1822 0.17416 0.0
C501 C 0.40477 0.20293 0.19576 0.0
C502 C 0.39403 0.23719 0.18943 0.0
C503 C 0.3896 0.26682 0.20451 0.0
C504 C 0.39612 0.26101 0.22663 0.0
C505 C 0.40707 0.22597 0.23337 0.0
C506 C 0.41153 0.19681 0.21762 0.0
H507 H 0.19505 0.44498 0.46171 0.0
H508 H 0.19726 0.32296 0.43405 0.0
H509 H 0.20859 0.29939 0.47075 0.0
H510 H 0.28295 0.47361 0.50243 0.0
H511 H 0.25355 0.48961 0.5226 0.0
H512 H 0.24565 0.49671 0.49416 0.0
H513 H 0.15498 0.44397 0.49869 0.0
H514 H 0.16261 0.43678 0.52715 0.0
H515 H 0.13035 0.3849 0.5101 0.0
H516 H 0.22252 0.29096 0.51051 0.0
H517 H 0.23351 0.2959 0.55042 0.0
H518 H 0.21898 0.42168 0.55174 0.0
C519 C 0.19794 0.41331 0.46335 0.0
C520 C 0.19545 0.38588 0.44504 0.0
C521 C 0.19897 0.34444 0.44789 0.0
C522 C 0.20553 0.33084 0.46865 0.0
C523 C 0.20802 0.35881 0.48636 0.0
C524 C 0.20394 0.39894 0.48393 0.0
C525 C 0.20711 0.42251 0.50558 0.0
C526 C 0.24986 0.47363 0.50622 0.0
C527 C 0.16101 0.42198 0.51068 0.0
C528 C 0.21395 0.38957 0.52057 0.0
C529 C 0.21465 0.35319 0.50921 0.0
C530 C 0.22172 0.31911 0.5196 0.0
C531 C 0.22804 0.32227 0.54224 0.0
C532 C 0.22682 0.35897 0.55417 0.0
C533 C 0.21963 0.39291 0.54311 0.0
H534 H 0.83263 0.20608 0.86241 0.0
H535 H 0.71227 0.21163 0.88798 0.0
H536 H 0.68188 0.2053 0.8507 0.0
H537 H 0.84939 0.27619 0.81504 0.0
H538 H 0.86517 0.24145 0.79783 0.0
H539 H 0.87698 0.24527 0.82656 0.0
H540 H 0.82939 0.15284 0.82942 0.0
H541 H 0.81767 0.14872 0.80067 0.0
H542 H 0.76943 0.12056 0.81967 0.0
H543 H 0.66572 0.20054 0.81059 0.0
H544 H 0.66332 0.19449 0.77056 0.0
H545 H 0.79399 0.1915 0.77136 0.0
C546 C 0.79975 0.20572 0.86021 0.0
C547 C 0.77485 0.20939 0.87811 0.0
C548 C 0.73195 0.2088 0.87451 0.0
C549 C 0.71442 0.2053 0.8534 0.0
C550 C 0.74012 0.20225 0.8361 0.0
C551 C 0.7817 0.20213 0.83928 0.0
C552 C 0.80258 0.19859 0.81792 0.0
C553 C 0.85142 0.24303 0.81412 0.0
C554 C 0.80488 0.15243 0.81686 0.0
C555 C 0.76637 0.19699 0.80222 0.0
C556 C 0.73066 0.19922 0.81302 0.0
C557 C 0.69341 0.19865 0.80195 0.0
C558 C 0.69245 0.19535 0.77921 0.0
C559 C 0.72847 0.19256 0.76784 0.0
C560 C 0.76591 0.19356 0.77958 0.0
H561 H 0.64626 0.82712 0.12967 0.0
H562 H 0.53217 0.68624 0.1113 0.0
H563 H 0.50616 0.66984 0.14948 0.0
H564 H 0.6724 0.79245 0.18151 0.0
H565 H 0.68441 0.84693 0.1949 0.0
H566 H 0.69498 0.84706 0.16617 0.0
H567 H 0.64086 0.88221 0.15874 0.0
H568 H 0.62995 0.88195 0.18744 0.0
H569 H 0.58117 0.85139 0.16886 0.0
H570 H 0.49113 0.66935 0.18945 0.0
H571 H 0.48929 0.68447 0.22869 0.0
H572 H 0.6129 0.82561 0.2209 0.0
C573 C 0.61605 0.79268 0.13369 0.0
C574 C 0.59133 0.75797 0.11748 0.0
C575 C 0.55174 0.71344 0.12342 0.0
C576 C 0.53663 0.70374 0.14507 0.0
C577 C 0.56147 0.73889 0.1606 0.0
C578 C 0.6004 0.7824 0.15522 0.0
C579 C 0.62034 0.81429 0.17499 0.0
C580 C 0.67103 0.82584 0.17967 0.0
C581 C 0.61791 0.86017 0.17234 0.0
C582 C 0.58641 0.78195 0.19227 0.0
C583 C 0.55274 0.73862 0.18364 0.0
C584 C 0.51739 0.7031 0.19643 0.0
C585 C 0.5166 0.71206 0.21868 0.0
C586 C 0.55092 0.75618 0.22788 0.0
C587 C 0.58616 0.79148 0.2144 0.0
H588 H 0.84985 0.62329 0.53564 0.0
H589 H 0.71986 0.62638 0.5424 0.0
H590 H 0.71615 0.63282 0.50252 0.0
H591 H 0.89843 0.70698 0.4907 0.0
H592 H 0.92325 0.67481 0.47774 0.0
H593 H 0.91673 0.67283 0.50685 0.0
H594 H 0.86808 0.58023 0.50547 0.0
H595 H 0.87443 0.58193 0.47637 0.0
H596 H 0.81645 0.55113 0.4884 0.0
H597 H 0.72523 0.63582 0.4617 0.0
H598 H 0.74607 0.63438 0.42321 0.0
H599 H 0.86984 0.62905 0.44365 0.0
C600 C 0.82078 0.62575 0.52879 0.0
C601 C 0.78521 0.62445 0.54214 0.0
C602 C 0.74758 0.62738 0.53248 0.0
C603 C 0.74519 0.63112 0.50986 0.0
C604 C 0.78072 0.63194 0.49717 0.0
C605 C 0.81781 0.62939 0.5063 0.0
C606 C 0.85063 0.62935 0.48908 0.0
C607 C 0.90019 0.67364 0.49122 0.0
C608 C 0.85247 0.5829 0.48988 0.0
C609 C 0.82596 0.63178 0.4688 0.0
C610 C 0.78584 0.6335 0.47376 0.0
C611 C 0.75672 0.63475 0.45762 0.0
C612 C 0.76884 0.6339 0.43581 0.0
C613 C 0.8096 0.63168 0.43042 0.0
C614 C 0.83855 0.63097 0.44721 0.0
H615 H 0.14656 0.79105 0.86089 0.0
H616 H 0.27233 0.79723 0.88703 0.0
H617 H 0.30572 0.80993 0.85005 0.0
H618 H 0.13925 0.72734 0.81255 0.0
H619 H 0.11965 0.75948 0.79575 0.0
H620 H 0.10621 0.75232 0.82435 0.0
H621 H 0.14586 0.84421 0.8287 0.0
H622 H 0.15921 0.85163 0.80008 0.0
H623 H 0.20585 0.88204 0.81971 0.0
H624 H 0.32436 0.81963 0.81009 0.0
H625 H 0.32788 0.82804 0.77014 0.0
H626 H 0.18999 0.8158 0.77037 0.0
C627 C 0.18125 0.79535 0.85889 0.0
C628 C 0.20682 0.79313 0.87685 0.0
C629 C 0.25209 0.79885 0.87351 0.0
C630 C 0.27134 0.80604 0.85257 0.0
C631 C 0.24496 0.80755 0.83519 0.0
C632 C 0.20101 0.80261 0.83814 0.0
C633 C 0.17972 0.80522 0.81674 0.0
C634 C 0.13348 0.75829 0.81208 0.0
C635 C 0.17224 0.84835 0.81629 0.0
C636 C 0.21844 0.81205 0.80127 0.0
C637 C 0.25576 0.81331 0.81222 0.0
C638 C 0.2954 0.81885 0.80134 0.0
C639 C 0.29701 0.82347 0.77865 0.0
C640 C 0.25922 0.82256 0.76714 0.0
C641 C 0.21948 0.8167 0.77869 0.0
H642 H 0.58679 0.61073 0.04152 0.0
H643 H 0.50198 0.60849 0.98695 0.0
H644 H 0.46253 0.52041 0.9858 0.0
H645 H 0.59645 0.505 0.02457 0.0
H646 H 0.5923 0.48579 0.05238 0.0
H647 H 0.61938 0.54855 0.04617 0.0
H648 H 0.56147 0.555 0.07264 0.0
H649 H 0.53363 0.49228 0.07863 0.0
H650 H 0.4988 0.51691 0.06867 0.0
H651 H 0.42426 0.43212 0.99428 0.0
H652 H 0.39441 0.35173 0.01021 0.0
H653 H 0.5042 0.4135 0.05934 0.0
C654 C 0.56099 0.59192 0.02887 0.0
C655 C 0.54751 0.61651 0.01432 0.0
C656 C 0.51313 0.59045 0.99819 0.0
C657 C 0.49044 0.54037 0.99743 0.0
C658 C 0.50298 0.51709 0.01275 0.0
C659 C 0.53806 0.54215 0.02793 0.0
C660 C 0.54229 0.50897 0.0438 0.0
C661 C 0.59046 0.51227 0.04159 0.0
C662 C 0.5335 0.51889 0.06731 0.0
C663 C 0.50286 0.46141 0.03575 0.0
C664 C 0.48089 0.46658 0.01768 0.0
C665 C 0.44172 0.42758 0.00822 0.0
C666 C 0.42484 0.38215 0.01744 0.0
C667 C 0.44695 0.37637 0.03601 0.0
C668 C 0.48655 0.41662 0.0451 0.0
H669 H 0.96095 0.52481 0.33696 0.0
H670 H 0.96002 0.57521 0.40227 0.0
H671 H 0.9978 0.53146 0.41607 0.0
H672 H 0.93697 0.40856 0.3509 0.0
H673 H 0.97684 0.40658 0.33137 0.0
H674 H 0.95054 0.44266 0.32611 0.0
H675 H 0.03336 0.51758 0.32118 0.0
H676 H 0.0599 0.48156 0.32606 0.0
H677 H 0.07682 0.53401 0.34236 0.0
H678 H 0.02865 0.47694 0.42347 0.0
H679 H 0.06417 0.42589 0.4233 0.0
H680 H 0.05182 0.41513 0.35298 0.0
C681 C 0.96932 0.52712 0.3541 0.0
C682 C 0.95745 0.55339 0.36853 0.0
C683 C 0.96904 0.55565 0.39086 0.0
C684 C 0.99018 0.53059 0.39891 0.0
C685 C 0.00033 0.5041 0.38439 0.0
C686 C 0.99145 0.50309 0.36239 0.0
C687 C 0.0073 0.47281 0.35031 0.0
C688 C 0.96541 0.43013 0.33901 0.0
C689 C 0.0467 0.50332 0.33401 0.0
C690 C 0.02578 0.45647 0.36903 0.0
C691 C 0.02066 0.47442 0.38856 0.0
C692 C 0.0334 0.4631 0.40826 0.0
C693 C 0.05318 0.43369 0.408 0.0
C694 C 0.06081 0.41654 0.38813 0.0
C695 C 0.0465 0.42781 0.36841 0.0
H696 H 0.58977 0.04484 0.68318 0.0
H697 H 0.61602 0.06219 0.75267 0.0
H698 H 0.53161 0.03194 0.7593 0.0
H699 H 0.50141 0.07763 0.68092 0.0
H700 H 0.46475 0.03271 0.66133 0.0
H701 H 0.52747 0.05583 0.66164 0.0
H702 H 0.51341 0.97008 0.66592 0.0
H703 H 0.45066 0.94665 0.66522 0.0
H704 H 0.4767 0.93283 0.68778 0.0
H705 H 0.44624 0.00558 0.75843 0.0
H706 H 0.36148 0.97016 0.7508 0.0
H707 H 0.38794 0.96316 0.68212 0.0
C708 C 0.57749 0.04165 0.69977 0.0
C709 C 0.60931 0.05572 0.71742 0.0
C710 C 0.59215 0.05106 0.73893 0.0
C711 C 0.54435 0.0344 0.74285 0.0
C712 C 0.51403 0.02174 0.72513 0.0
C713 C 0.52953 0.02391 0.70405 0.0
C714 C 0.48886 0.00587 0.68807 0.0
C715 C 0.49608 0.04538 0.67205 0.0
C716 C 0.482 0.9612 0.67604 0.0
C717 C 0.44831 0.99372 0.70349 0.0
C718 C 0.46391 0.00405 0.72473 0.0
C719 C 0.43345 0.99694 0.7419 0.0
C720 C 0.38539 0.9772 0.73735 0.0
C721 C 0.3681 0.96397 0.71586 0.0
C722 C 0.40019 0.97304 0.69869 0.0
H723 H 0.57639 0.46659 0.60934 0.0
H724 H 0.63535 0.5996 0.64551 0.0
H725 H 0.5551 0.57982 0.65622 0.0
H726 H 0.48273 0.47091 0.58731 0.0
H727 H 0.44084 0.40774 0.589 0.0
H728 H 0.50283 0.42846 0.58707 0.0
H729 H 0.49827 0.38301 0.62246 0.0
H730 H 0.43605 0.36209 0.62451 0.0
H731 H 0.47485 0.39409 0.64684 0.0
H732 H 0.46982 0.55265 0.658 0.0
H733 H 0.3847 0.51906 0.6512 0.0
H734 H 0.37979 0.40179 0.61528 0.0
C735 C 0.57253 0.49108 0.61992 0.0
C736 C 0.61215 0.53466 0.62661 0.0
C737 C 0.60555 0.56597 0.64024 0.0
C738 C 0.5601 0.55493 0.64648 0.0
C739 C 0.52173 0.51218 0.63921 0.0
C740 C 0.52744 0.4805 0.62638 0.0
C741 C 0.48025 0.43911 0.61913 0.0
C742 C 0.47646 0.43644 0.59415 0.0
C743 C 0.47187 0.39177 0.62882 0.0
C744 C 0.44715 0.45364 0.62902 0.0
C745 C 0.47187 0.49561 0.64079 0.0
C746 C 0.4499 0.51912 0.64939 0.0
C747 C 0.40168 0.49987 0.64545 0.0
C748 C 0.37597 0.45739 0.63325 0.0
C749 C 0.3986 0.43333 0.62536 0.0
H750 H 0.04909 0.60075 0.98629 0.0
H751 H 0.06901 0.62575 0.91672 0.0
H752 H 0.01822 0.53933 0.91008 0.0
H753 H 0.05088 0.49228 0.98731 0.0
H754 H 0.00539 0.46401 0.00761 0.0
H755 H 0.04226 0.52813 0.00713 0.0
H756 H 0.96834 0.53704 0.0045 0.0
H757 H 0.93122 0.47298 0.00535 0.0
H758 H 0.92583 0.50629 0.9832 0.0
H759 H 0.96945 0.45025 0.91099 0.0
H760 H 0.91691 0.36481 0.9191 0.0
H761 H 0.92658 0.39771 0.98803 0.0
C762 C 0.04235 0.58813 0.96965 0.0
C763 C 0.06312 0.61999 0.95203 0.0
C764 C 0.05337 0.60206 0.93049 0.0
C765 C 0.02481 0.55299 0.92654 0.0
C766 C 0.00596 0.52245 0.94428 0.0
C767 C 0.01359 0.5393 0.96539 0.0
C768 C 0.98851 0.49884 0.98152 0.0
C769 C 0.02389 0.49565 0.99679 0.0
C770 C 0.95125 0.5041 0.99439 0.0
C771 C 0.96581 0.4566 0.96616 0.0
C772 C 0.97676 0.47101 0.94478 0.0
C773 C 0.96032 0.4385 0.92765 0.0
C774 C 0.93072 0.39 0.93246 0.0
C775 C 0.91751 0.37456 0.9542 0.0
C776 C 0.93601 0.40836 0.97125 0.0
H777 H 0.54088 0.92366 0.30259 0.0
H778 H 0.65498 0.99501 0.25596 0.0
H779 H 0.63482 0.05809 0.25125 0.0
H780 H 0.45905 0.94558 0.27481 0.0
H781 H 0.43419 0.95546 0.29901 0.0
H782 H 0.45912 0.91719 0.29999 0.0
H783 H 0.51511 0.96837 0.33109 0.0
H784 H 0.49004 0.00655 0.33036 0.0
H785 H 0.55281 0.03189 0.32733 0.0
H786 H 0.60084 0.1111 0.25025 0.0
H787 H 0.55686 0.15343 0.25388 0.0
H788 H 0.46336 0.04804 0.30092 0.0
C789 C 0.56211 0.95295 0.29164 0.0
C790 C 0.59971 0.95451 0.27969 0.0
C791 C 0.62615 0.99309 0.26532 0.0
C792 C 0.61493 0.02907 0.26251 0.0
C793 C 0.57713 0.02595 0.27417 0.0
C794 C 0.55122 0.98911 0.28854 0.0
C795 C 0.51144 0.99369 0.29855 0.0
C796 C 0.46309 0.9504 0.29274 0.0
C797 C 0.51775 0.00055 0.3233 0.0
C798 C 0.51892 0.03873 0.28742 0.0
C799 C 0.5571 0.05663 0.27347 0.0
C800 C 0.57103 0.0976 0.26119 0.0
C801 C 0.54566 0.12135 0.26338 0.0
C802 C 0.50661 0.10415 0.27771 0.0
C803 C 0.49293 0.06202 0.28979 0.0
loop_
_geom_bond_atom_site_label_1
_geom_bond_atom_site_label_2
_geom_bond_distance
_geom_bond_site_symmetry_2
_ccdc_geom_bond_type
C0 O1 1.160 . S
C0 O7 1.185 . S
O1 C0 1.160 . S
O2 Zn3 1.899 . S
O2 C10 1.284 . S
Zn3 O2 1.899 . S
Zn3 O4 2.032 . S
Zn3 O7 2.086 . S
Zn3 O12 1.977 . S
O4 Zn3 2.032 . S
O4 C8 1.278 . S
C5 O6 1.203 . S
C5 O12 1.267 . S
O6 C5 1.203 . S
O7 C0 1.185 . S
O7 Zn3 2.086 . S
C8 O4 1.278 . S
C8 O9 1.211 . S
O9 C8 1.211 . S
C10 O2 1.284 . S
C10 O11 1.273 . S
O11 C10 1.273 . S
O12 Zn3 1.977 . S
O12 C5 1.267 . S
C13 O14 1.160 . S
C13 O20 1.185 . S
O14 C13 1.160 . S
O15 Zn16 1.899 . S
O15 C23 1.284 . S
Zn16 O15 1.899 . S
Zn16 O17 2.032 . S
Zn16 O20 2.086 . S
Zn16 O25 1.977 . S
O17 Zn16 2.032 . S
O17 C21 1.278 . S
C18 O19 1.203 . S
C18 O25 1.267 . S
O19 C18 1.203 . S
O20 C13 1.185 . S
O20 Zn16 2.086 . S
C21 O17 1.278 . S
C21 O22 1.211 . S
O22 C21 1.211 . S
C23 O15 1.284 . S
C23 O24 1.273 . S
O24 C23 1.273 . S
O25 Zn16 1.977 . S
O25 C18 1.267 . S
C26 O27 1.160 . S
C26 O33 1.185 . S
O27 C26 1.160 . S
O28 Zn29 1.899 . S
O28 C36 1.284 . S
Zn29 O28 1.899 . S
Zn29 O30 2.032 . S
Zn29 O33 2.086 . S
Zn29 O38 1.977 . S
O30 Zn29 2.032 . S
O30 C34 1.278 . S
C31 O32 1.203 . S
C31 O38 1.267 . S
O32 C31 1.203 . S
O33 C26 1.185 . S
O33 Zn29 2.086 . S
C34 O30 1.278 . S
C34 O35 1.211 . S
O35 C34 1.211 . S
C36 O28 1.284 . S
C36 O37 1.273 . S
O37 C36 1.273 . S
O38 Zn29 1.977 . S
O38 C31 1.267 . S
C39 O40 1.160 . S
C39 O46 1.185 . S
O40 C39 1.160 . S
O41 Zn42 1.899 . S
O41 C49 1.284 . S
Zn42 O41 1.899 . S
Zn42 O43 2.032 . S
Zn42 O46 2.086 . S
Zn42 O51 1.977 . S
O43 Zn42 2.032 . S
O43 C47 1.278 . S
C44 O45 1.203 . S
C44 O51 1.267 . S
O45 C44 1.203 . S
O46 C39 1.185 . S
O46 Zn42 2.086 . S
C47 O43 1.278 . S
C47 O48 1.211 . S
O48 C47 1.211 . S
C49 O41 1.284 . S
C49 O50 1.273 . S
O50 C49 1.273 . S
O51 Zn42 1.977 . S
O51 C44 1.267 . S
C52 O53 1.160 . S
C52 O59 1.185 . S
O53 C52 1.160 . S
O54 Zn55 1.899 . S
O54 C62 1.284 . S
Zn55 O54 1.899 . S
Zn55 O56 2.032 . S
Zn55 O59 2.086 . S
Zn55 O64 1.977 . S
O56 Zn55 2.032 . S
O56 C60 1.278 . S
C57 O58 1.203 . S
C57 O64 1.267 . S
O58 C57 1.203 . S
O59 C52 1.185 . S
O59 Zn55 2.086 . S
C60 O56 1.278 . S
C60 O61 1.211 . S
O61 C60 1.211 . S
C62 O54 1.284 . S
C62 O63 1.273 . S
O63 C62 1.273 . S
O64 Zn55 1.977 . S
O64 C57 1.267 . S
C65 O66 1.160 . S
C65 O72 1.185 . S
O66 C65 1.160 . S
O67 Zn68 1.899 . S
O67 C75 1.284 . S
Zn68 O67 1.899 . S
Zn68 O69 2.032 . S
Zn68 O72 2.086 . S
Zn68 O77 1.977 . S
O69 Zn68 2.032 . S
O69 C73 1.278 . S
C70 O71 1.203 . S
C70 O77 1.267 . S
O71 C70 1.203 . S
O72 C65 1.185 . S
O72 Zn68 2.086 . S
C73 O69 1.278 . S
C73 O74 1.211 . S
O74 C73 1.211 . S
C75 O67 1.284 . S
C75 O76 1.273 . S
O76 C75 1.273 . S
O77 Zn68 1.977 . S
O77 C70 1.267 . S
C78 O79 1.160 . S
C78 O85 1.185 . S
O79 C78 1.160 . S
O80 Zn81 1.899 . S
O80 C88 1.284 . S
Zn81 O80 1.899 . S
Zn81 O82 2.032 . S
Zn81 O85 2.086 . S
Zn81 O90 1.977 . S
O82 Zn81 2.032 . S
O82 C86 1.278 . S
C83 O84 1.203 . S
C83 O90 1.267 . S
O84 C83 1.203 . S
O85 C78 1.185 . S
O85 Zn81 2.086 . S
C86 O82 1.278 . S
C86 O87 1.211 . S
O87 C86 1.211 . S
C88 O80 1.284 . S
C88 O89 1.273 . S
O89 C88 1.273 . S
O90 Zn81 1.977 . S
O90 C83 1.267 . S
C91 O92 1.160 . S
C91 O98 1.185 . S
O92 C91 1.160 . S
O93 Zn94 1.899 . S
O93 C101 1.284 . S
Zn94 O93 1.899 . S
Zn94 O95 2.032 . S
Zn94 O98 2.086 . S
Zn94 O103 1.977 . S
O95 Zn94 2.032 . S
O95 C99 1.278 . S
C96 O97 1.203 . S
C96 O103 1.267 . S
O97 C96 1.203 . S
O98 C91 1.185 . S
O98 Zn94 2.086 . S
C99 O95 1.278 . S
C99 O100 1.211 . S
O100 C99 1.211 . S
C101 O93 1.284 . S
C101 O102 1.273 . S
O102 C101 1.273 . S
O103 Zn94 1.977 . S
O103 C96 1.267 . S
C104 O105 1.160 . S
C104 O111 1.185 . S
O105 C104 1.160 . S
O106 Zn107 1.899 . S
O106 C114 1.284 . S
Zn107 O106 1.899 . S
Zn107 O108 2.032 . S
Zn107 O111 2.086 . S
Zn107 O116 1.977 . S
O108 Zn107 2.032 . S
O108 C112 1.278 . S
C109 O110 1.203 . S
C109 O116 1.267 . S
O110 C109 1.203 . S
O111 C104 1.185 . S
O111 Zn107 2.086 . S
C112 O108 1.278 . S
C112 O113 1.211 . S
O113 C112 1.211 . S
C114 O106 1.284 . S
C114 O115 1.273 . S
O115 C114 1.273 . S
O116 Zn107 1.977 . S
O116 C109 1.267 . S
C117 O118 1.160 . S
C117 O124 1.185 . S
O118 C117 1.160 . S
O119 Zn120 1.899 . S
O119 C127 1.284 . S
Zn120 O119 1.899 . S
Zn120 O121 2.032 . S
Zn120 O124 2.086 . S
Zn120 O129 1.977 . S
O121 Zn120 2.032 . S
O121 C125 1.278 . S
C122 O123 1.203 . S
C122 O129 1.267 . S
O123 C122 1.203 . S
O124 C117 1.185 . S
O124 Zn120 2.086 . S
C125 O121 1.278 . S
C125 O126 1.211 . S
O126 C125 1.211 . S
C127 O119 1.284 . S
C127 O128 1.273 . S
O128 C127 1.273 . S
O129 Zn120 1.977 . S
O129 C122 1.267 . S
C130 O131 1.160 . S
C130 O137 1.185 . S
O131 C130 1.160 . S
O132 Zn133 1.899 . S
O132 C140 1.284 . S
Zn133 O132 1.899 . S
Zn133 O134 2.032 . S
Zn133 O137 2.086 . S
Zn133 O142 1.977 . S
O134 Zn133 2.032 . S
O134 C138 1.278 . S
C135 O136 1.203 . S
C135 O142 1.267 . S
O136 C135 1.203 . S
O137 C130 1.185 . S
O137 Zn133 2.086 . S
C138 O134 1.278 . S
C138 O139 1.211 . S
O139 C138 1.211 . S
C140 O132 1.284 . S
C140 O141 1.273 . S
O141 C140 1.273 . S
O142 Zn133 1.977 . S
O142 C135 1.267 . S
C143 O144 1.160 . S
C143 O150 1.185 . S
O144 C143 1.160 . S
O145 Zn146 1.899 . S
O145 C153 1.284 . S
Zn146 O145 1.899 . S
Zn146 O147 2.032 . S
Zn146 O150 2.086 . S
Zn146 O155 1.977 . S
O147 Zn146 2.032 . S
O147 C151 1.278 . S
C148 O149 1.203 . S
C148 O155 1.267 . S
O149 C148 1.203 . S
O150 C143 1.185 . S
O150 Zn146 2.086 . S
C151 O147 1.278 . S
C151 O152 1.211 . S
O152 C151 1.211 . S
C153 O145 1.284 . S
C153 O154 1.273 . S
O154 C153 1.273 . S
O155 Zn146 1.977 . S
O155 C148 1.267 . S
H156 C168 0.955 . S
H157 C170 0.930 . S
H158 C171 0.930 . S
H159 C175 0.959 . S
H160 C175 0.959 . S
H161 C175 0.961 . S
H162 C176 0.960 . S
H163 C176 0.961 . S
H164 C176 0.959 . S
H165 C179 0.929 . S
H166 C180 0.931 . S
H167 C182 0.930 . S
C168 H156 0.955 . S
C168 C169 1.369 1_554 S
C168 C173 1.404 . S
C169 C168 1.369 1_556 S
C169 C170 1.376 . S
C170 H157 0.930 . S
C170 C169 1.376 . S
C170 C171 1.388 . S
C171 H158 0.930 . S
C171 C170 1.388 . S
C171 C172 1.390 . S
C172 C171 1.390 . S
C172 C173 1.394 1_556 S
C172 C178 1.465 1_565 S
C173 C168 1.404 . S
C173 C172 1.394 1_554 S
C173 C174 1.516 . S
C174 C173 1.516 . S
C174 C175 1.502 . S
C174 C176 1.561 . S
C174 C177 1.526 1_565 S
C175 H159 0.959 . S
C175 H160 0.959 . S
C175 H161 0.961 . S
C175 C174 1.502 . S
C176 H162 0.960 . S
C176 H163 0.961 . S
C176 H164 0.959 . S
C176 C174 1.561 . S
C177 C174 1.526 1_545 S
C177 C178 1.396 1_554 S
C177 C182 1.390 . S
C178 C172 1.465 1_545 S
C178 C177 1.396 1_556 S
C178 C179 1.399 . S
C179 H165 0.929 . S
C179 C178 1.399 . S
C179 C180 1.385 . S
C180 H166 0.931 . S
C180 C179 1.385 . S
C180 C181 1.389 1_556 S
C181 C180 1.389 1_554 S
C181 C182 1.387 . S
C182 H167 0.930 . S
C182 C177 1.390 . S
C182 C181 1.387 . S
H183 C195 0.930 . S
H184 C197 0.930 . S
H185 C198 0.930 . S
H186 C202 0.959 . S
H187 C202 0.959 . S
H188 C202 0.961 . S
H189 C203 0.960 . S
H190 C203 0.961 . S
H191 C203 0.959 . S
H192 C206 0.929 . S
H193 C207 0.931 . S
H194 C209 0.930 . S
C195 H183 0.930 . S
C195 C196 1.399 . S
C195 C200 1.399 . S
C196 C195 1.399 . S
C196 C197 1.376 . S
C197 H184 0.930 . S
C197 C196 1.376 . S
C197 C198 1.388 . S
C198 H185 0.930 . S
C198 C197 1.388 . S
C198 C199 1.390 . S
C199 C198 1.390 . S
C199 C200 1.394 . S
C199 C205 1.465 . S
C200 C195 1.399 . S
C200 C199 1.394 . S
C200 C201 1.516 . S
C201 C200 1.516 . S
C201 C202 1.502 . S
C201 C203 1.561 . S
C201 C204 1.526 . S
C202 H186 0.959 . S
C202 H187 0.959 . S
C202 H188 0.961 . S
C202 C201 1.502 . S
C203 H189 0.960 . S
C203 H190 0.961 . S
C203 H191 0.959 . S
C203 C201 1.561 . S
C204 C201 1.526 . S
C204 C205 1.396 . S
C204 C209 1.390 . S
C205 C199 1.465 . S
C205 C204 1.396 . S
C205 C206 1.399 . S
C206 H192 0.929 . S
C206 C205 1.399 . S
C206 C207 1.385 . S
C207 H193 0.931 . S
C207 C206 1.385 . S
C207 C208 1.389 . S
C208 C207 1.389 . S
C208 C209 1.387 . S
C209 H194 0.930 . S
C209 C204 1.390 . S
C209 C208 1.387 . S
H210 C222 0.930 . S
H211 C224 0.930 . S
H212 C225 0.930 . S
H213 C229 0.959 . S
H214 C229 0.959 . S
H215 C229 0.961 1_655 S
H216 C230 0.960 . S
H217 C230 0.961 1_455 S
H218 C230 0.959 . S
H219 C233 0.929 . S
H220 C234 0.931 . S
H221 C236 0.930 . S
C222 H210 0.930 . S
C222 C223 1.399 . S
C222 C227 1.399 . S
C223 C222 1.399 . S
C223 C224 1.376 . S
C224 H211 0.930 . S
C224 C223 1.376 . S
C224 C225 1.388 . S
C225 H212 0.930 . S
C225 C224 1.388 . S
C225 C226 1.390 . S
C226 C225 1.390 . S
C226 C227 1.394 . S
C226 C232 1.465 1_655 S
C227 C222 1.399 . S
C227 C226 1.394 . S
C227 C228 1.500 1_655 S
C228 C227 1.500 1_455 S
C228 C229 1.512 . S
C228 C230 1.561 1_455 S
C228 C231 1.531 . S
C229 H213 0.959 . S
C229 H214 0.959 . S
C229 H215 0.961 1_455 S
C229 C228 1.512 . S
C230 H216 0.960 . S
C230 H217 0.961 1_655 S
C230 H218 0.959 . S
C230 C228 1.561 1_655 S
C231 C228 1.531 . S
C231 C232 1.396 . S
C231 C236 1.390 . S
C232 C226 1.465 1_455 S
C232 C231 1.396 . S
C232 C233 1.399 . S
C233 H219 0.929 . S
C233 C232 1.399 . S
C233 C234 1.385 . S
C234 H220 0.931 . S
C234 C233 1.385 . S
C234 C235 1.389 . S
C235 C234 1.389 . S
C235 C236 1.387 . S
C236 H221 0.930 . S
C236 C231 1.390 . S
C236 C235 1.387 . S
H237 C249 0.930 . S
H238 C251 0.930 . S
H239 C252 0.930 . S
H240 C256 0.959 . S
H241 C256 0.959 1_545 S
H242 C256 0.961 . S
H243 C257 0.960 1_565 S
H244 C257 0.961 . S
H245 C257 0.959 . S
H246 C260 0.936 . S
H247 C261 0.931 . S
H248 C263 0.930 . S
C249 H237 0.930 . S
C249 C250 1.399 . S
C249 C254 1.399 . S
C250 C249 1.399 . S
C250 C251 1.376 . S
C251 H238 0.930 . S
C251 C250 1.376 . S
C251 C252 1.388 . S
C252 H239 0.930 . S
C252 C251 1.388 . S
C252 C253 1.390 . S
C253 C252 1.390 . S
C253 C254 1.394 . S
C253 C259 1.482 1_565 S
C254 C249 1.399 . S
C254 C253 1.394 . S
C254 C255 1.516 1_554 S
C255 C254 1.516 1_556 S
C255 C256 1.502 . S
C255 C257 1.561 1_566 S
C255 C258 1.526 1_565 S
C256 H240 0.959 . S
C256 H241 0.959 1_565 S
C256 H242 0.961 . S
C256 C255 1.502 . S
C257 H243 0.960 1_545 S
C257 H244 0.961 . S
C257 H245 0.959 . S
C257 C255 1.561 1_544 S
C258 C255 1.526 1_545 S
C258 C259 1.379 1_556 S
C258 C263 1.390 . S
C259 C253 1.482 1_545 S
C259 C258 1.379 1_554 S
C259 C260 1.398 . S
C260 H246 0.936 . S
C260 C259 1.398 . S
C260 C261 1.378 1_554 S
C261 H247 0.931 . S
C261 C260 1.378 1_556 S
C261 C262 1.389 . S
C262 C261 1.389 . S
C262 C263 1.387 . S
C263 H248 0.930 . S
C263 C258 1.390 . S
C263 C262 1.387 . S
H264 C276 0.930 . S
H265 C278 0.930 . S
H266 C279 0.930 . S
H267 C283 0.959 . S
H268 C283 0.959 . S
H269 C283 0.961 . S
H270 C284 0.960 . S
H271 C284 0.961 . S
H272 C284 0.959 . S
H273 C287 0.929 . S
H274 C288 0.931 . S
H275 C290 0.930 . S
C276 H264 0.930 . S
C276 C277 1.399 . S
C276 C281 1.399 . S
C277 C276 1.399 . S
C277 C278 1.376 . S
C278 H265 0.930 . S
C278 C277 1.376 . S
C278 C279 1.388 . S
C279 H266 0.930 . S
C279 C278 1.388 . S
C279 C280 1.390 . S
C280 C279 1.390 . S
C280 C281 1.394 . S
C280 C286 1.465 . S
C281 C276 1.399 . S
C281 C280 1.394 . S
C281 C282 1.516 . S
C282 C281 1.516 . S
C282 C283 1.502 . S
C282 C284 1.561 . S
C282 C285 1.526 . S
C283 H267 0.959 . S
C283 H268 0.959 . S
C283 H269 0.961 . S
C283 C282 1.502 . S
C284 H270 0.960 . S
C284 H271 0.961 . S
C284 H272 0.959 . S
C284 C282 1.561 . S
C285 C282 1.526 . S
C285 C286 1.396 . S
C285 C290 1.390 . S
C286 C280 1.465 . S
C286 C285 1.396 . S
C286 C287 1.399 . S
C287 H273 0.929 . S
C287 C286 1.399 . S
C287 C288 1.385 . S
C288 H274 0.931 . S
C288 C287 1.385 . S
C288 C289 1.389 . S
C289 C288 1.389 . S
C289 C290 1.387 . S
C290 H275 0.930 . S
C290 C285 1.390 . S
C290 C289 1.387 . S
H291 C303 0.930 . S
H292 C305 0.930 . S
H293 C306 0.930 . S
H294 C310 0.959 . S
H295 C310 0.967 . S
H296 C310 0.961 . S
H297 C311 0.960 . S
H298 C311 0.961 . S
H299 C311 0.959 . S
H300 C314 0.929 . S
H301 C315 0.931 . S
H302 C317 0.930 . S
C303 H291 0.930 . S
C303 C304 1.399 . S
C303 C308 1.399 . S
C304 C303 1.399 . S
C304 C305 1.376 . S
C305 H292 0.930 . S
C305 C304 1.376 . S
C305 C306 1.388 . S
C306 H293 0.930 . S
C306 C305 1.388 . S
C306 C307 1.390 . S
C307 C306 1.390 . S
C307 C308 1.394 . S
C307 C313 1.465 1_655 S
C308 C303 1.399 . S
C308 C307 1.394 . S
C308 C309 1.516 . S
C309 C308 1.516 . S
C309 C310 1.502 . S
C309 C311 1.561 . S
C309 C312 1.526 1_655 S
C310 H294 0.959 . S
C310 H295 0.967 . S
C310 H296 0.961 . S
C310 C309 1.502 . S
C311 H297 0.960 . S
C311 H298 0.961 . S
C311 H299 0.959 . S
C311 C309 1.561 . S
C312 C309 1.526 1_455 S
C312 C313 1.396 . S
C312 C317 1.390 . S
C313 C307 1.465 1_455 S
C313 C312 1.396 . S
C313 C314 1.399 . S
C314 H300 0.929 . S
C314 C313 1.399 . S
C314 C315 1.385 . S
C315 H301 0.931 . S
C315 C314 1.385 . S
C315 C316 1.389 . S
C316 C315 1.389 . S
C316 C317 1.387 . S
C317 H302 0.930 . S
C317 C312 1.390 . S
C317 C316 1.387 . S
H318 C330 0.930 . S
H319 C332 0.930 . S
H320 C333 0.930 1_554 S
H321 C337 0.959 . S
H322 C337 0.959 . S
H323 C337 0.961 . S
H324 C338 0.960 . S
H325 C338 0.961 . S
H326 C338 0.959 . S
H327 C341 0.929 . S
H328 C342 0.931 . S
H329 C344 0.930 . S
C330 H318 0.930 . S
C330 C331 1.399 . S
C330 C335 1.399 . S
C331 C330 1.399 . S
C331 C332 1.376 . S
C332 H319 0.930 . S
C332 C331 1.376 . S
C332 C333 1.388 . S
C333 H320 0.930 1_556 S
C333 C332 1.388 . S
C333 C334 1.392 . S
C334 C333 1.392 . S
C334 C335 1.400 . S
C334 C340 1.458 1_556 S
C335 C330 1.399 . S
C335 C334 1.400 . S
C335 C336 1.516 . S
C336 C335 1.516 . S
C336 C337 1.502 . S
C336 C338 1.561 1_556 S
C336 C339 1.526 1_556 S
C337 H321 0.959 . S
C337 H322 0.959 . S
C337 H323 0.961 . S
C337 C336 1.502 . S
C338 H324 0.960 . S
C338 H325 0.961 . S
C338 H326 0.959 . S
C338 C336 1.561 1_554 S
C339 C336 1.526 1_554 S
C339 C340 1.396 . S
C339 C344 1.390 . S
C340 C334 1.458 1_554 S
C340 C339 1.396 . S
C340 C341 1.399 . S
C341 H327 0.929 . S
C341 C340 1.399 . S
C341 C342 1.385 . S
C342 H328 0.931 . S
C342 C341 1.385 . S
C342 C343 1.389 . S
C343 C342 1.389 . S
C343 C344 1.387 . S
C344 H329 0.930 . S
C344 C339 1.390 . S
C344 C343 1.387 . S
H345 C357 0.930 . S
H346 C359 0.930 . S
H347 C360 0.930 . S
H348 C364 0.959 . S
H349 C364 0.959 . S
H350 C364 0.961 . S
H351 C365 0.960 . S
H352 C365 0.961 . S
H353 C365 0.959 . S
H354 C368 0.929 . S
H355 C369 0.931 . S
H356 C371 0.930 . S
C357 H345 0.930 . S
C357 C358 1.399 . S
C357 C362 1.399 . S
C358 C357 1.399 . S
C358 C359 1.376 . S
C359 H346 0.930 . S
C359 C358 1.376 . S
C359 C360 1.388 . S
C360 H347 0.930 . S
C360 C359 1.388 . S
C360 C361 1.390 . S
C361 C360 1.390 . S
C361 C362 1.394 . S
C361 C367 1.465 . S
C362 C357 1.399 . S
C362 C361 1.394 . S
C362 C363 1.516 . S
C363 C362 1.516 . S
C363 C364 1.502 . S
C363 C365 1.561 . S
C363 C366 1.526 . S
C364 H348 0.959 . S
C364 H349 0.959 . S
C364 H350 0.961 . S
C364 C363 1.502 . S
C365 H351 0.960 . S
C365 H352 0.961 . S
C365 H353 0.959 . S
C365 C363 1.561 . S
C366 C363 1.526 . S
C366 C367 1.396 . S
C366 C371 1.390 . S
C367 C361 1.465 . S
C367 C366 1.396 . S
C367 C368 1.399 . S
C368 H354 0.929 . S
C368 C367 1.399 . S
C368 C369 1.385 . S
C369 H355 0.931 . S
C369 C368 1.385 . S
C369 C370 1.389 . S
C370 C369 1.389 . S
C370 C371 1.387 . S
C371 H356 0.930 . S
C371 C366 1.390 . S
C371 C370 1.387 . S
H372 C384 0.930 . S
H373 C386 0.930 . S
H374 C387 0.930 . S
H375 C391 0.959 . S
H376 C391 0.959 . S
H377 C391 0.961 . S
H378 C392 0.960 . S
H379 C392 0.961 . S
H380 C392 0.959 . S
H381 C395 0.929 . S
H382 C396 0.931 . S
H383 C398 0.930 . S
C384 H372 0.930 . S
C384 C385 1.399 . S
C384 C389 1.399 . S
C385 C384 1.399 . S
C385 C386 1.376 . S
C386 H373 0.930 . S
C386 C385 1.376 . S
C386 C387 1.388 . S
C387 H374 0.930 . S
C387 C386 1.388 . S
C387 C388 1.390 . S
C388 C387 1.390 . S
C388 C389 1.394 . S
C388 C394 1.465 . S
C389 C384 1.399 . S
C389 C388 1.394 . S
C389 C390 1.516 . S
C390 C389 1.516 . S
C390 C391 1.502 . S
C390 C392 1.561 . S
C390 C393 1.526 . S
C391 H375 0.959 . S
C391 H376 0.959 . S
C391 H377 0.961 . S
C391 C390 1.502 . S
C392 H378 0.960 . S
C392 H379 0.961 . S
C392 H380 0.959 . S
C392 C390 1.561 . S
C393 C390 1.526 . S
C393 C394 1.396 . S
C393 C398 1.390 . S
C394 C388 1.465 . S
C394 C393 1.396 . S
C394 C395 1.399 . S
C395 H381 0.929 . S
C395 C394 1.399 . S
C395 C396 1.385 . S
C396 H382 0.931 . S
C396 C395 1.385 . S
C396 C397 1.389 . S
C397 C396 1.389 . S
C397 C398 1.387 . S
C398 H383 0.930 . S
C398 C393 1.390 . S
C398 C397 1.387 . S
H399 C411 0.930 . S
H400 C413 0.930 . S
H401 C414 0.930 . S
H402 C418 0.959 . S
H403 C418 0.959 . S
H404 C418 0.961 . S
H405 C419 0.969 . S
H406 C419 0.961 . S
H407 C419 0.959 . S
H408 C422 0.929 . S
H409 C423 0.931 . S
H410 C425 0.930 . S
C411 H399 0.930 . S
C411 C412 1.399 . S
C411 C416 1.399 . S
C412 C411 1.399 . S
C412 C413 1.376 . S
C413 H400 0.930 . S
C413 C412 1.376 . S
C413 C414 1.388 1_556 S
C414 H401 0.930 . S
C414 C413 1.388 1_554 S
C414 C415 1.390 . S
C415 C414 1.390 . S
C415 C416 1.394 1_554 S
C415 C421 1.465 . S
C416 C411 1.399 . S
C416 C415 1.394 1_556 S
C416 C417 1.516 . S
C417 C416 1.516 . S
C417 C418 1.502 . S
C417 C419 1.561 1_556 S
C417 C420 1.526 1_556 S
C418 H402 0.959 . S
C418 H403 0.959 . S
C418 H404 0.961 . S
C418 C417 1.502 . S
C419 H405 0.969 . S
C419 H406 0.961 . S
C419 H407 0.959 . S
C419 C417 1.561 1_554 S
C420 C417 1.526 1_554 S
C420 C421 1.396 . S
C420 C425 1.390 . S
C421 C415 1.465 . S
C421 C420 1.396 . S
C421 C422 1.399 . S
C422 H408 0.929 . S
C422 C421 1.399 . S
C422 C423 1.385 . S
C423 H409 0.931 . S
C423 C422 1.385 . S
C423 C424 1.389 . S
C424 C423 1.389 . S
C424 C425 1.387 . S
C425 H410 0.930 . S
C425 C420 1.390 . S
C425 C424 1.387 . S
H426 C438 0.930 . S
H427 C440 0.930 . S
H428 C441 0.930 . S
H429 C445 0.959 . S
H430 C445 0.959 . S
H431 C445 0.961 . S
H432 C446 0.960 . S
H433 C446 0.961 . S
H434 C446 0.959 . S
H435 C449 0.929 . S
H436 C450 0.931 . S
H437 C452 0.930 . S
C438 H426 0.930 . S
C438 C439 1.399 . S
C438 C443 1.399 . S
C439 C438 1.399 . S
C439 C440 1.376 . S
C440 H427 0.930 . S
C440 C439 1.376 . S
C440 C441 1.388 . S
C441 H428 0.930 . S
C441 C440 1.388 . S
C441 C442 1.390 . S
C442 C441 1.390 . S
C442 C443 1.394 . S
C442 C448 1.465 . S
C443 C438 1.399 . S
C443 C442 1.394 . S
C443 C444 1.516 . S
C444 C443 1.516 . S
C444 C445 1.502 . S
C444 C446 1.561 . S
C444 C447 1.526 . S
C445 H429 0.959 . S
C445 H430 0.959 . S
C445 H431 0.961 . S
C445 C444 1.502 . S
C446 H432 0.960 . S
C446 H433 0.961 . S
C446 H434 0.959 . S
C446 C444 1.561 . S
C447 C444 1.526 . S
C447 C448 1.396 . S
C447 C452 1.390 . S
C448 C442 1.465 . S
C448 C447 1.396 . S
C448 C449 1.399 . S
C449 H435 0.929 . S
C449 C448 1.399 . S
C449 C450 1.385 . S
C450 H436 0.931 . S
C450 C449 1.385 . S
C450 C451 1.389 . S
C451 C450 1.389 . S
C451 C452 1.387 . S
C452 H437 0.930 . S
C452 C447 1.390 . S
C452 C451 1.387 . S
H453 C465 0.930 . S
H454 C467 0.930 . S
H455 C468 0.930 . S
H456 C472 0.959 . S
H457 C472 0.959 . S
H458 C472 0.961 . S
H459 C473 0.960 . S
H460 C473 0.961 . S
H461 C473 0.959 . S
H462 C476 0.929 . S
H463 C477 0.931 . S
H464 C479 0.930 . S
C465 H453 0.930 . S
C465 C466 1.399 . S
C465 C470 1.399 . S
C466 C465 1.399 . S
C466 C467 1.376 . S
C467 H454 0.930 . S
C467 C466 1.376 . S
C467 C468 1.388 . S
C468 H455 0.930 . S
C468 C467 1.388 . S
C468 C469 1.390 . S
C469 C468 1.390 . S
C469 C470 1.394 . S
C469 C475 1.465 . S
C470 C465 1.399 . S
C470 C469 1.394 . S
C470 C471 1.516 . S
C471 C470 1.516 . S
C471 C472 1.502 . S
C471 C473 1.561 . S
C471 C474 1.526 . S
C472 H456 0.959 . S
C472 H457 0.959 . S
C472 H458 0.961 . S
C472 C471 1.502 . S
C473 H459 0.960 . S
C473 H460 0.961 . S
C473 H461 0.959 . S
C473 C471 1.561 . S
C474 C471 1.526 . S
C474 C475 1.396 . S
C474 C479 1.390 . S
C475 C469 1.465 . S
C475 C474 1.396 . S
C475 C476 1.399 . S
C476 H462 0.929 . S
C476 C475 1.399 . S
C476 C477 1.385 . S
C477 H463 0.931 . S
C477 C476 1.385 . S
C477 C478 1.389 . S
C478 C477 1.389 . S
C478 C479 1.387 . S
C479 H464 0.930 . S
C479 C474 1.390 . S
C479 C478 1.387 . S
H480 C492 0.930 . S
H481 C494 0.930 . S
H482 C495 0.930 . S
H483 C499 0.959 . S
H484 C499 0.959 . S
H485 C499 0.961 . S
H486 C500 0.960 . S
H487 C500 0.961 . S
H488 C500 0.959 . S
H489 C503 0.929 . S
H490 C504 0.931 . S
H491 C506 0.930 . S
C492 H480 0.930 . S
C492 C493 1.399 . S
C492 C497 1.399 . S
C493 C492 1.399 . S
C493 C494 1.376 . S
C494 H481 0.930 . S
C494 C493 1.376 . S
C494 C495 1.388 . S
C495 H482 0.930 . S
C495 C494 1.388 . S
C495 C496 1.390 . S
C496 C495 1.390 . S
C496 C497 1.394 . S
C496 C502 1.465 . S
C497 C492 1.399 . S
C497 C496 1.394 . S
C497 C498 1.516 . S
C498 C497 1.516 . S
C498 C499 1.502 . S
C498 C500 1.561 . S
C498 C501 1.526 . S
C499 H483 0.959 . S
C499 H484 0.959 . S
C499 H485 0.961 . S
C499 C498 1.502 . S
C500 H486 0.960 . S
C500 H487 0.961 . S
C500 H488 0.959 . S
C500 C498 1.561 . S
C501 C498 1.526 . S
C501 C502 1.396 . S
C501 C506 1.390 . S
C502 C496 1.465 . S
C502 C501 1.396 . S
C502 C503 1.399 . S
C503 H489 0.929 . S
C503 C502 1.399 . S
C503 C504 1.385 . S
C504 H490 0.931 . S
C504 C503 1.385 . S
C504 C505 1.389 . S
C505 C504 1.389 . S
C505 C506 1.387 . S
C506 H491 0.930 . S
C506 C501 1.390 . S
C506 C505 1.387 . S
H507 C519 0.930 . S
H508 C521 0.930 . S
H509 C522 0.930 . S
H510 C526 0.959 . S
H511 C526 0.959 . S
H512 C526 0.961 . S
H513 C527 0.960 . S
H514 C527 0.961 . S
H515 C527 0.959 . S
H516 C530 0.929 . S
H517 C531 0.931 . S
H518 C533 0.930 . S
C519 H507 0.930 . S
C519 C520 1.399 . S
C519 C524 1.399 . S
C520 C519 1.399 . S
C520 C521 1.376 . S
C521 H508 0.930 . S
C521 C520 1.376 . S
C521 C522 1.388 . S
C522 H509 0.930 . S
C522 C521 1.388 . S
C522 C523 1.390 . S
C523 C522 1.390 . S
C523 C524 1.394 . S
C523 C529 1.465 . S
C524 C519 1.399 . S
C524 C523 1.394 . S
C524 C525 1.516 . S
C525 C524 1.516 . S
C525 C526 1.502 . S
C525 C527 1.561 . S
C525 C528 1.526 . S
C526 H510 0.959 . S
C526 H511 0.959 . S
C526 H512 0.961 . S
C526 C525 1.502 . S
C527 H513 0.960 . S
C527 H514 0.961 . S
C527 H515 0.959 . S
C527 C525 1.561 . S
C528 C525 1.526 . S
C528 C529 1.396 . S
C528 C533 1.390 . S
C529 C523 1.465 . S
C529 C528 1.396 . S
C529 C530 1.399 . S
C530 H516 0.929 . S
C530 C529 1.399 . S
C530 C531 1.385 . S
C531 H517 0.931 . S
C531 C530 1.385 . S
C531 C532 1.389 . S
C532 C531 1.389 . S
C532 C533 1.387 . S
C533 H518 0.930 . S
C533 C528 1.390 . S
C533 C532 1.387 . S
H534 C546 0.930 . S
H535 C548 0.930 . S
H536 C549 0.930 . S
H537 C553 0.959 . S
H538 C553 0.959 . S
H539 C553 0.961 . S
H540 C554 0.960 . S
H541 C554 0.961 . S
H542 C554 0.959 . S
H543 C557 0.929 . S
H544 C558 0.931 . S
H545 C560 0.930 . S
C546 H534 0.930 . S
C546 C547 1.399 . S
C546 C551 1.399 . S
C547 C546 1.399 . S
C547 C548 1.376 . S
C548 H535 0.930 . S
C548 C547 1.376 . S
C548 C549 1.388 . S
C549 H536 0.930 . S
C549 C548 1.388 . S
C549 C550 1.390 . S
C550 C549 1.390 . S
C550 C551 1.394 . S
C550 C556 1.465 . S
C551 C546 1.399 . S
C551 C550 1.394 . S
C551 C552 1.516 . S
C552 C551 1.516 . S
C552 C553 1.502 . S
C552 C554 1.561 . S
C552 C555 1.526 . S
C553 H537 0.959 . S
C553 H538 0.959 . S
C553 H539 0.961 . S
C553 C552 1.502 . S
C554 H540 0.960 . S
C554 H541 0.961 . S
C554 H542 0.959 . S
C554 C552 1.561 . S
C555 C552 1.526 . S
C555 C556 1.396 . S
C555 C560 1.390 . S
C556 C550 1.465 . S
C556 C555 1.396 . S
C556 C557 1.399 . S
C557 H543 0.929 . S
C557 C556 1.399 . S
C557 C558 1.385 . S
C558 H544 0.931 . S
C558 C557 1.385 . S
C558 C559 1.389 . S
C559 C558 1.389 . S
C559 C560 1.387 . S
C560 H545 0.930 . S
C560 C555 1.390 . S
C560 C559 1.387 . S
H561 C573 0.930 . S
H562 C575 0.930 . S
H563 C576 0.930 . S
H564 C580 0.959 . S
H565 C580 0.959 . S
H566 C580 0.961 . S
H567 C581 0.960 . S
H568 C581 0.961 . S
H569 C581 0.959 . S
H570 C584 0.929 . S
H571 C585 0.931 . S
H572 C587 0.930 . S
C573 H561 0.930 . S
C573 C574 1.399 . S
C573 C578 1.399 . S
C574 C573 1.399 . S
C574 C575 1.376 . S
C575 H562 0.930 . S
C575 C574 1.376 . S
C575 C576 1.388 . S
C576 H563 0.930 . S
C576 C575 1.388 . S
C576 C577 1.390 . S
C577 C576 1.390 . S
C577 C578 1.394 . S
C577 C583 1.465 . S
C578 C573 1.399 . S
C578 C577 1.394 . S
C578 C579 1.516 . S
C579 C578 1.516 . S
C579 C580 1.502 . S
C579 C581 1.561 . S
C579 C582 1.526 . S
C580 H564 0.959 . S
C580 H565 0.959 . S
C580 H566 0.961 . S
C580 C579 1.502 . S
C581 H567 0.960 . S
C581 H568 0.961 . S
C581 H569 0.959 . S
C581 C579 1.561 . S
C582 C579 1.526 . S
C582 C583 1.396 . S
C582 C587 1.390 . S
C583 C577 1.465 . S
C583 C582 1.396 . S
C583 C584 1.399 . S
C584 H570 0.929 . S
C584 C583 1.399 . S
C584 C585 1.385 . S
C585 H571 0.931 . S
C585 C584 1.385 . S
C585 C586 1.389 . S
C586 C585 1.389 . S
C586 C587 1.387 . S
C587 H572 0.930 . S
C587 C582 1.390 . S
C587 C586 1.387 . S
H588 C600 0.930 . S
H589 C602 0.930 . S
H590 C603 0.930 . S
H591 C607 0.959 . S
H592 C607 0.959 . S
H593 C607 0.961 . S
H594 C608 0.960 . S
H595 C608 0.961 . S
H596 C608 0.959 . S
H597 C611 0.929 . S
H598 C612 0.931 . S
H599 C614 0.930 . S
C600 H588 0.930 . S
C600 C601 1.399 . S
C600 C605 1.399 . S
C601 C600 1.399 . S
C601 C602 1.376 . S
C602 H589 0.930 . S
C602 C601 1.376 . S
C602 C603 1.388 . S
C603 H590 0.930 . S
C603 C602 1.388 . S
C603 C604 1.390 . S
C604 C603 1.390 . S
C604 C605 1.394 . S
C604 C610 1.465 . S
C605 C600 1.399 . S
C605 C604 1.394 . S
C605 C606 1.516 . S
C606 C605 1.516 . S
C606 C607 1.502 . S
C606 C608 1.561 . S
C606 C609 1.526 . S
C607 H591 0.959 . S
C607 H592 0.959 . S
C607 H593 0.961 . S
C607 C606 1.502 . S
C608 H594 0.960 . S
C608 H595 0.961 . S
C608 H596 0.959 . S
C608 C606 1.561 . S
C609 C606 1.526 . S
C609 C610 1.396 . S
C609 C614 1.390 . S
C610 C604 1.465 . S
C610 C609 1.396 . S
C610 C611 1.399 . S
C611 H597 0.929 . S
C611 C610 1.399 . S
C611 C612 1.385 . S
C612 H598 0.931 . S
C612 C611 1.385 . S
C612 C613 1.389 . S
C613 C612 1.389 . S
C613 C614 1.387 . S
C614 H599 0.930 . S
C614 C609 1.390 . S
C614 C613 1.387 . S
H615 C627 0.930 . S
H616 C629 0.930 . S
H617 C630 0.930 . S
H618 C634 0.959 . S
H619 C634 0.959 . S
H620 C634 0.961 . S
H621 C635 0.960 . S
H622 C635 0.961 . S
H623 C635 0.959 . S
H624 C638 0.929 . S
H625 C639 0.931 . S
H626 C641 0.930 . S
C627 H615 0.930 . S
C627 C628 1.399 . S
C627 C632 1.399 . S
C628 C627 1.399 . S
C628 C629 1.376 . S
C629 H616 0.930 . S
C629 C628 1.376 . S
C629 C630 1.388 . S
C630 H617 0.930 . S
C630 C629 1.388 . S
C630 C631 1.390 . S
C631 C630 1.390 . S
C631 C632 1.394 . S
C631 C637 1.465 . S
C632 C627 1.399 . S
C632 C631 1.394 . S
C632 C633 1.516 . S
C633 C632 1.516 . S
C633 C634 1.502 . S
C633 C635 1.561 . S
C633 C636 1.526 . S
C634 H618 0.959 . S
C634 H619 0.959 . S
C634 H620 0.961 . S
C634 C633 1.502 . S
C635 H621 0.960 . S
C635 H622 0.961 . S
C635 H623 0.959 . S
C635 C633 1.561 . S
C636 C633 1.526 . S
C636 C637 1.396 . S
C636 C641 1.390 . S
C637 C631 1.465 . S
C637 C636 1.396 . S
C637 C638 1.399 . S
C638 H624 0.929 . S
C638 C637 1.399 . S
C638 C639 1.385 . S
C639 H625 0.931 . S
C639 C638 1.385 . S
C639 C640 1.389 . S
C640 C639 1.389 . S
C640 C641 1.387 . S
C641 H626 0.930 . S
C641 C636 1.390 . S
C641 C640 1.387 . S
H642 C654 0.930 . S
H643 C656 0.930 . S
H644 C657 0.930 . S
H645 C661 0.959 . S
H646 C661 0.959 . S
H647 C661 0.961 . S
H648 C662 0.960 . S
H649 C662 0.961 . S
H650 C662 0.959 . S
H651 C665 0.929 . S
H652 C666 0.931 . S
H653 C668 0.930 . S
C654 H642 0.930 . S
C654 C655 1.399 . S
C654 C659 1.399 . S
C655 C654 1.399 . S
C655 C656 1.376 . S
C656 H643 0.930 . S
C656 C655 1.376 . S
C656 C657 1.388 . S
C657 H644 0.930 . S
C657 C656 1.388 . S
C657 C658 1.390 . S
C658 C657 1.390 . S
C658 C659 1.394 . S
C658 C664 1.465 . S
C659 C654 1.399 . S
C659 C658 1.394 . S
C659 C660 1.516 . S
C660 C659 1.516 . S
C660 C661 1.502 . S
C660 C662 1.561 . S
C660 C663 1.526 . S
C661 H645 0.959 . S
C661 H646 0.959 . S
C661 H647 0.961 . S
C661 C660 1.502 . S
C662 H648 0.960 . S
C662 H649 0.961 . S
C662 H650 0.959 . S
C662 C660 1.561 . S
C663 C660 1.526 . S
C663 C664 1.396 . S
C663 C668 1.390 . S
C664 C658 1.465 . S
C664 C663 1.396 . S
C664 C665 1.399 . S
C665 H651 0.929 . S
C665 C664 1.399 . S
C665 C666 1.385 . S
C666 H652 0.931 . S
C666 C665 1.385 . S
C666 C667 1.389 . S
C667 C666 1.389 . S
C667 C668 1.387 . S
C668 H653 0.930 . S
C668 C663 1.390 . S
C668 C667 1.387 . S
H669 C681 0.930 . S
H670 C683 0.930 . S
H671 C684 0.930 1_455 S
H672 C688 0.959 . S
H673 C688 0.959 . S
H674 C688 0.961 . S
H675 C689 0.960 . S
H676 C689 0.961 . S
H677 C689 0.959 . S
H678 C692 0.929 . S
H679 C693 0.931 . S
H680 C695 0.930 . S
C681 H669 0.930 . S
C681 C682 1.399 . S
C681 C686 1.399 . S
C682 C681 1.399 . S
C682 C683 1.376 . S
C683 H670 0.930 . S
C683 C682 1.376 . S
C683 C684 1.388 . S
C684 H671 0.930 1_655 S
C684 C683 1.388 . S
C684 C685 1.390 . S
C685 C684 1.390 . S
C685 C686 1.394 . S
C685 C691 1.465 1_655 S
C686 C681 1.399 . S
C686 C685 1.394 . S
C686 C687 1.516 . S
C687 C686 1.516 . S
C687 C688 1.502 . S
C687 C689 1.561 1_655 S
C687 C690 1.526 1_655 S
C688 H672 0.959 . S
C688 H673 0.959 . S
C688 H674 0.961 . S
C688 C687 1.502 . S
C689 H675 0.960 . S
C689 H676 0.961 . S
C689 H677 0.959 . S
C689 C687 1.561 1_455 S
C690 C687 1.526 1_455 S
C690 C691 1.396 . S
C690 C695 1.390 . S
C691 C685 1.465 1_455 S
C691 C690 1.396 . S
C691 C692 1.399 . S
C692 H678 0.929 . S
C692 C691 1.399 . S
C692 C693 1.385 . S
C693 H679 0.931 . S
C693 C692 1.385 . S
C693 C694 1.389 . S
C694 C693 1.389 . S
C694 C695 1.387 . S
C695 H680 0.930 . S
C695 C690 1.390 . S
C695 C694 1.387 . S
H696 C708 0.930 . S
H697 C710 0.930 . S
H698 C711 0.930 . S
H699 C715 0.959 . S
H700 C715 0.959 1_565 S
H701 C715 0.961 . S
H702 C716 0.960 . S
H703 C716 0.961 . S
H704 C716 0.959 . S
H705 C719 0.929 . S
H706 C720 0.931 . S
H707 C722 0.930 . S
C708 H696 0.930 . S
C708 C709 1.399 . S
C708 C713 1.399 . S
C709 C708 1.399 . S
C709 C710 1.376 . S
C710 H697 0.930 . S
C710 C709 1.376 . S
C710 C711 1.388 . S
C711 H698 0.930 . S
C711 C710 1.388 . S
C711 C712 1.390 . S
C712 C711 1.390 . S
C712 C713 1.394 . S
C712 C718 1.465 1_545 S
C713 C708 1.399 . S
C713 C712 1.394 . S
C713 C714 1.516 1_545 S
C714 C713 1.516 1_565 S
C714 C715 1.502 1_565 S
C714 C716 1.561 . S
C714 C717 1.526 . S
C715 H699 0.959 . S
C715 H700 0.959 1_545 S
C715 H701 0.961 . S
C715 C714 1.502 1_545 S
C716 H702 0.960 . S
C716 H703 0.961 . S
C716 H704 0.959 . S
C716 C714 1.561 . S
C717 C714 1.526 . S
C717 C718 1.396 . S
C717 C722 1.390 . S
C718 C712 1.465 1_565 S
C718 C717 1.396 . S
C718 C719 1.399 . S
C719 H705 0.929 . S
C719 C718 1.399 . S
C719 C720 1.385 . S
C720 H706 0.931 . S
C720 C719 1.385 . S
C720 C721 1.389 . S
C721 C720 1.389 . S
C721 C722 1.387 . S
C722 H707 0.930 . S
C722 C717 1.390 . S
C722 C721 1.387 . S
H723 C735 0.930 . S
H724 C737 0.930 . S
H725 C738 0.930 . S
H726 C742 0.959 . S
H727 C742 0.959 . S
H728 C742 0.961 . S
H729 C743 0.960 . S
H730 C743 0.961 . S
H731 C743 0.959 . S
H732 C746 0.929 . S
H733 C747 0.931 . S
H734 C749 0.930 . S
C735 H723 0.930 . S
C735 C736 1.399 . S
C735 C740 1.399 . S
C736 C735 1.399 . S
C736 C737 1.376 . S
C737 H724 0.930 . S
C737 C736 1.376 . S
C737 C738 1.388 . S
C738 H725 0.930 . S
C738 C737 1.388 . S
C738 C739 1.390 . S
C739 C738 1.390 . S
C739 C740 1.394 . S
C739 C745 1.465 . S
C740 C735 1.399 . S
C740 C739 1.394 . S
C740 C741 1.516 . S
C741 C740 1.516 . S
C741 C742 1.502 . S
C741 C743 1.561 . S
C741 C744 1.526 . S
C742 H726 0.959 . S
C742 H727 0.959 . S
C742 H728 0.961 . S
C742 C741 1.502 . S
C743 H729 0.960 . S
C743 H730 0.961 . S
C743 H731 0.959 . S
C743 C741 1.561 . S
C744 C741 1.526 . S
C744 C745 1.396 . S
C744 C749 1.390 . S
C745 C739 1.465 . S
C745 C744 1.396 . S
C745 C746 1.399 . S
C746 H732 0.929 . S
C746 C745 1.399 . S
C746 C747 1.385 . S
C747 H733 0.931 . S
C747 C746 1.385 . S
C747 C748 1.389 . S
C748 C747 1.389 . S
C748 C749 1.387 . S
C749 H734 0.930 . S
C749 C744 1.390 . S
C749 C748 1.387 . S
H750 C762 0.930 . S
H751 C764 0.930 . S
H752 C765 0.930 . S
H753 C769 0.959 1_556 S
H754 C769 0.959 . S
H755 C769 0.961 . S
H756 C770 0.960 . S
H757 C770 0.961 . S
H758 C770 0.959 1_556 S
H759 C773 0.929 . S
H760 C774 0.931 . S
H761 C776 0.930 . S
C762 H750 0.930 . S
C762 C763 1.399 . S
C762 C767 1.399 . S
C763 C762 1.399 . S
C763 C764 1.376 . S
C764 H751 0.930 . S
C764 C763 1.376 . S
C764 C765 1.388 . S
C765 H752 0.930 . S
C765 C764 1.388 . S
C765 C766 1.390 . S
C766 C765 1.390 . S
C766 C767 1.394 . S
C766 C772 1.465 1_455 S
C767 C762 1.399 . S
C767 C766 1.394 . S
C767 C768 1.517 1_455 S
C768 C767 1.517 1_655 S
C768 C769 1.490 1_656 S
C768 C770 1.574 1_556 S
C768 C771 1.526 . S
C769 H753 0.959 1_554 S
C769 H754 0.959 . S
C769 H755 0.961 . S
C769 C768 1.490 1_454 S
C770 H756 0.960 . S
C770 H757 0.961 . S
C770 H758 0.959 1_554 S
C770 C768 1.574 1_554 S
C771 C768 1.526 . S
C771 C772 1.396 . S
C771 C776 1.390 . S
C772 C766 1.465 1_655 S
C772 C771 1.396 . S
C772 C773 1.399 . S
C773 H759 0.929 . S
C773 C772 1.399 . S
C773 C774 1.385 . S
C774 H760 0.931 . S
C774 C773 1.385 . S
C774 C775 1.389 . S
C775 C774 1.389 . S
C775 C776 1.387 . S
C776 H761 0.930 . S
C776 C771 1.390 . S
C776 C775 1.387 . S
H777 C789 0.930 . S
H778 C791 0.930 . S
H779 C792 0.930 . S
H780 C796 0.959 . S
H781 C796 0.959 . S
H782 C796 0.961 . S
H783 C797 0.960 1_565 S
H784 C797 0.961 . S
H785 C797 0.959 . S
H786 C800 0.929 . S
H787 C801 0.931 . S
H788 C803 0.930 . S
C789 H777 0.930 . S
C789 C790 1.399 . S
C789 C794 1.399 . S
C790 C789 1.399 . S
C790 C791 1.376 . S
C791 H778 0.930 . S
C791 C790 1.376 . S
C791 C792 1.388 1_565 S
C792 H779 0.930 . S
C792 C791 1.388 1_545 S
C792 C793 1.390 . S
C793 C792 1.390 . S
C793 C794 1.394 1_545 S
C793 C799 1.465 . S
C794 C789 1.399 . S
C794 C793 1.394 1_565 S
C794 C795 1.516 . S
C795 C794 1.516 . S
C795 C796 1.502 . S
C795 C797 1.561 1_565 S
C795 C798 1.526 1_565 S
C796 H780 0.959 . S
C796 H781 0.959 . S
C796 H782 0.961 . S
C796 C795 1.502 . S
C797 H783 0.960 1_545 S
C797 H784 0.961 . S
C797 H785 0.959 . S
C797 C795 1.561 1_545 S
C798 C795 1.526 1_545 S
C798 C799 1.396 . S
C798 C803 1.390 . S
C799 C793 1.465 . S
C799 C798 1.396 . S
C799 C800 1.399 . S
C800 H786 0.929 . S
C800 C799 1.399 . S
C800 C801 1.385 . S
C801 H787 0.931 . S
C801 C800 1.385 . S
C801 C802 1.389 . S
C802 C801 1.389 . S
C802 C803 1.387 . S
C803 H788 0.930 . S
C803 C798 1.390 . S
C803 C802 1.387 . S
C169 C96 1.076 . S
C181 C5 1.121 . S
C196 C18 1.252 . S
C208 C104 1.238 . S
C223 C26 1.278 . S
C235 C122 1.215 . S
C250 C44 1.172 . S
C262 C135 1.198 . S
C277 C143 1.310 . S
C289 C57 1.322 . S
C304 C83 1.215 . S
C316 C65 1.302 . S
C331 C140 1.129 . S
C343 C10 1.112 . S
C358 C23 1.179 . S
C370 C151 1.141 . S
C385 C34 1.143 . S
C397 C88 1.191 . S
C412 C101 1.130 . S
C424 C49 1.109 . S
C439 C112 1.164 . S
C451 C62 1.157 . S
C466 C127 1.191 . S
C478 C73 1.179 . S
C493 C8 1.582 . S
C505 C114 1.545 . S
C520 C21 1.555 . S
C532 C125 1.529 . S
C547 C138 1.577 . S
C559 C36 1.546 . S
C574 C47 1.587 . S
C586 C153 1.547 . S
C601 C86 1.556 . S
C613 C60 1.529 . S
C628 C99 1.585 . S
C640 C75 1.546 . S
C655 C39 1.191 . S
C667 C0 1.320 . S
C682 C52 1.298 . S
C694 C13 1.229 . S
C709 C31 1.339 . S
C721 C70 1.331 . S
C736 C78 1.282 . S
C748 C117 1.248 . S
C763 C91 1.298 . S
C775 C130 1.250 . S
C790 C148 1.384 . S
C802 C109 1.304 . S
