# Generated by pormake.
# Topology crs, (6)-cn, num edge types: 1
# Building blocks:
#     Node 0, Type 0, BuildingBlock: KUMJIN_clean_sbu_0, # of connection points: 6
#     Node 1, Type 0, BuildingBlock: KUMJIN_clean_sbu_0, # of connection points: 6
#     Node 2, Type 0, BuildingBlock: KUMJIN_clean_sbu_0, # of connection points: 6
#     Node 3, Type 0, BuildingBlock: KUMJIN_clean_sbu_0, # of connection points: 6
#     Node 4, Type 0, BuildingBlock: KUMJIN_clean_sbu_0, # of connection points: 6
#     Node 5, Type 0, BuildingBlock: KUMJIN_clean_sbu_0, # of connection points: 6
#     Node 6, Type 0, BuildingBlock: KUMJIN_clean_sbu_0, # of connection points: 6
#     Node 7, Type 0, BuildingBlock: KUMJIN_clean_sbu_0, # of connection points: 6
#     Node 8, Type 0, BuildingBlock: KUMJIN_clean_sbu_0, # of connection points: 6
#     Node 9, Type 0, BuildingBlock: KUMJIN_clean_sbu_0, # of connection points: 6
#     Node 10, Type 0, BuildingBlock: KUMJIN_clean_sbu_0, # of connection points: 6
#     Node 11, Type 0, BuildingBlock: KUMJIN_clean_sbu_0, # of connection points: 6
#     Node 12, Type 0, BuildingBlock: KUMJIN_clean_sbu_0, # of connection points: 6
#     Node 13, Type 0, BuildingBlock: KUMJIN_clean_sbu_0, # of connection points: 6
#     Node 14, Type 0, BuildingBlock: KUMJIN_clean_sbu_0, # of connection points: 6
#     Node 15, Type 0, BuildingBlock: KUMJIN_clean_sbu_0, # of connection points: 6
#     Edge 16, Type (0, 0), BuildingBlock: ZUJKAS_clean_linker_0, # of connection points: 2
#     Edge 17, Type (0, 0), BuildingBlock: ZUJKAS_clean_linker_0, # of connection points: 2
#     Edge 18, Type (0, 0), BuildingBlock: ZUJKAS_clean_linker_0, # of connection points: 2
#     Edge 19, Type (0, 0), BuildingBlock: ZUJKAS_clean_linker_0, # of connection points: 2
#     Edge 20, Type (0, 0), BuildingBlock: ZUJKAS_clean_linker_0, # of connection points: 2
#     Edge 21, Type (0, 0), BuildingBlock: ZUJKAS_clean_linker_0, # of connection points: 2
#     Edge 22, Type (0, 0), BuildingBlock: ZUJKAS_clean_linker_0, # of connection points: 2
#     Edge 23, Type (0, 0), BuildingBlock: ZUJKAS_clean_linker_0, # of connection points: 2
#     Edge 24, Type (0, 0), BuildingBlock: ZUJKAS_clean_linker_0, # of connection points: 2
#     Edge 25, Type (0, 0), BuildingBlock: ZUJKAS_clean_linker_0, # of connection points: 2
#     Edge 26, Type (0, 0), BuildingBlock: ZUJKAS_clean_linker_0, # of connection points: 2
#     Edge 27, Type (0, 0), BuildingBlock: ZUJKAS_clean_linker_0, # of connection points: 2
#     Edge 28, Type (0, 0), BuildingBlock: ZUJKAS_clean_linker_0, # of connection points: 2
#     Edge 29, Type (0, 0), BuildingBlock: ZUJKAS_clean_linker_0, # of connection points: 2
#     Edge 30, Type (0, 0), BuildingBlock: ZUJKAS_clean_linker_0, # of connection points: 2
#     Edge 31, Type (0, 0), BuildingBlock: ZUJKAS_clean_linker_0, # of connection points: 2
#     Edge 32, Type (0, 0), BuildingBlock: ZUJKAS_clean_linker_0, # of connection points: 2
#     Edge 33, Type (0, 0), BuildingBlock: ZUJKAS_clean_linker_0, # of connection points: 2
#     Edge 34, Type (0, 0), BuildingBlock: ZUJKAS_clean_linker_0, # of connection points: 2
#     Edge 35, Type (0, 0), BuildingBlock: ZUJKAS_clean_linker_0, # of connection points: 2
#     Edge 36, Type (0, 0), BuildingBlock: ZUJKAS_clean_linker_0, # of connection points: 2
#     Edge 37, Type (0, 0), BuildingBlock: ZUJKAS_clean_linker_0, # of connection points: 2
#     Edge 38, Type (0, 0), BuildingBlock: ZUJKAS_clean_linker_0, # of connection points: 2
#     Edge 39, Type (0, 0), BuildingBlock: ZUJKAS_clean_linker_0, # of connection points: 2
#     Edge 40, Type (0, 0), BuildingBlock: ZUJKAS_clean_linker_0, # of connection points: 2
#     Edge 41, Type (0, 0), BuildingBlock: ZUJKAS_clean_linker_0, # of connection points: 2
#     Edge 42, Type (0, 0), BuildingBlock: ZUJKAS_clean_linker_0, # of connection points: 2
#     Edge 43, Type (0, 0), BuildingBlock: ZUJKAS_clean_linker_0, # of connection points: 2
#     Edge 44, Type (0, 0), BuildingBlock: ZUJKAS_clean_linker_0, # of connection points: 2
#     Edge 45, Type (0, 0), BuildingBlock: ZUJKAS_clean_linker_0, # of connection points: 2
#     Edge 46, Type (0, 0), BuildingBlock: ZUJKAS_clean_linker_0, # of connection points: 2
#     Edge 47, Type (0, 0), BuildingBlock: ZUJKAS_clean_linker_0, # of connection points: 2
#     Edge 48, Type (0, 0), BuildingBlock: ZUJKAS_clean_linker_0, # of connection points: 2
#     Edge 49, Type (0, 0), BuildingBlock: ZUJKAS_clean_linker_0, # of connection points: 2
#     Edge 50, Type (0, 0), BuildingBlock: ZUJKAS_clean_linker_0, # of connection points: 2
#     Edge 51, Type (0, 0), BuildingBlock: ZUJKAS_clean_linker_0, # of connection points: 2
#     Edge 52, Type (0, 0), BuildingBlock: ZUJKAS_clean_linker_0, # of connection points: 2
#     Edge 53, Type (0, 0), BuildingBlock: ZUJKAS_clean_linker_0, # of connection points: 2
#     Edge 54, Type (0, 0), BuildingBlock: ZUJKAS_clean_linker_0, # of connection points: 2
#     Edge 55, Type (0, 0), BuildingBlock: ZUJKAS_clean_linker_0, # of connection points: 2
#     Edge 56, Type (0, 0), BuildingBlock: ZUJKAS_clean_linker_0, # of connection points: 2
#     Edge 57, Type (0, 0), BuildingBlock: ZUJKAS_clean_linker_0, # of connection points: 2
#     Edge 58, Type (0, 0), BuildingBlock: ZUJKAS_clean_linker_0, # of connection points: 2
#     Edge 59, Type (0, 0), BuildingBlock: ZUJKAS_clean_linker_0, # of connection points: 2
#     Edge 60, Type (0, 0), BuildingBlock: ZUJKAS_clean_linker_0, # of connection points: 2
#     Edge 61, Type (0, 0), BuildingBlock: ZUJKAS_clean_linker_0, # of connection points: 2
#     Edge 62, Type (0, 0), BuildingBlock: ZUJKAS_clean_linker_0, # of connection points: 2
#     Edge 63, Type (0, 0), BuildingBlock: ZUJKAS_clean_linker_0, # of connection points: 2
# Relax obj value: 0.085
# Max RMSD: 0.196
# Mean RMSD: 0.153
data_MOF--net-crs--node1-KUMJIN_clean_sbu_0--edge1-ZUJKAS_clean_linker_0
_symmetry_space_group_name_H-M    P1
_symmetry_Int_Tables_number       1
_symmetry_cell_setting            triclinic
loop_
_symmetry_equiv_pos_as_xyz
'x, y, z'
_cell_length_a     67.442206
_cell_length_b     67.585245
_cell_length_c     55.706988
_cell_angle_alpha  78.160604
_cell_angle_beta   76.475119
_cell_angle_gamma 72.278824
loop_
_atom_site_label
_atom_site_type_symbol
_atom_site_fract_x
_atom_site_fract_y
_atom_site_fract_z
_atom_type_partial_charge
Eu0 Eu 0.9807 0.99396 0.041 0.0
C1 C 0.02635 0.00586 0.932 0.0
C2 C 0.05549 0.97425 0.93293 0.0
C3 C 0.04259 0.98978 0.89427 0.0
C4 C 0.04027 0.99038 0.94512 0.0
C5 C 0.02777 0.00601 0.90626 0.0
C6 C 0.05635 0.97389 0.9076 0.0
C7 C 0.00117 0.03931 0.90535 0.0
N8 N 0.01215 0.02138 0.944 0.0
C9 C 0.00033 0.03849 0.93082 0.0
C10 C 0.01473 0.02284 0.89307 0.0
Eu11 Eu 0.01226 0.01953 0.98699 0.0
N12 N 0.03935 0.99133 0.96951 0.0
C13 C 0.05358 0.97668 0.98253 0.0
C14 C 0.06967 0.9591 0.9464 0.0
C15 C 0.06874 0.96038 0.97127 0.0
H16 H 0.98975 0.05134 0.94019 0.0
H17 H 0.07967 0.94873 0.98188 0.0
H18 H 0.06791 0.96161 0.89802 0.0
H19 H 0.99138 0.05265 0.89521 0.0
H20 H 0.05314 0.97678 1.00189 0.0
H21 H 0.90963 0.05965 0.05882 0.0
H22 H 0.08152 0.94647 0.93772 0.0
H23 H 0.0064 0.9583 0.08229 0.0
H24 H 0.93726 0.03608 0.0334 0.0
H25 H 0.00746 0.95235 0.1274 0.0
H26 H 0.0438 0.98959 0.87457 0.0
H27 H 0.91002 0.05745 0.10349 0.0
H28 H 0.92689 0.03956 0.14047 0.0
H29 H 0.01543 0.02353 0.87329 0.0
H30 H 0.9536 0.01064 0.15907 0.0
N31 N 0.95368 0.0193 0.06321 0.0
C32 C 0.93787 0.03418 0.05284 0.0
C33 C 0.92229 0.04667 0.09243 0.0
C34 C 0.93823 0.03132 0.10312 0.0
C35 C 0.92196 0.04789 0.06727 0.0
C36 C 0.95378 0.01752 0.08794 0.0
H37 H 0.98348 0.97802 0.15444 0.0
N38 N 0.98277 0.98742 0.08382 0.0
C39 C 0.99662 0.96622 0.11949 0.0
C40 C 0.9688 1.00119 0.09849 0.0
C41 C 0.99597 0.9696 0.09405 0.0
C42 C 0.98309 0.98076 0.13467 0.0
C43 C 0.96869 0.9983 0.12435 0.0
O44 O 0.9798 0.96142 0.05067 0.0
O45 O -0.00116 0.9925 1.00232 0.0
O46 O 0.9824 0.02054 0.97464 0.0
O47 O 0.96056 0.01071 1.01159 0.0
O48 O 0.00596 0.96548 0.02701 0.0
O49 O 0.95114 0.98595 0.04353 0.0
O50 O 0.01312 0.05122 0.97045 0.0
O51 O 0.99336 0.02137 0.02499 0.0
O52 O 0.00858 0.99611 0.05485 0.0
O53 O 0.03139 0.00601 0.01863 0.0
O54 O 0.98811 0.04852 1.00141 0.0
O55 O 0.04167 0.02881 0.98261 0.0
C56 C 0.00888 0.97342 1.00373 0.0
C57 C 0.94735 0.95251 0.06467 0.0
C58 C 0.92768 0.92738 0.06641 0.0
C59 C 0.93839 0.94206 0.05275 0.0
C60 C 0.92599 0.92323 0.0925 0.0
C61 C 0.94555 0.94851 0.09066 0.0
C62 C 0.93479 0.9339 0.10455 0.0
C63 C 0.96403 0.01781 0.98743 0.0
C64 C 0.95999 0.96588 0.04871 0.0
C65 C 0.95382 0.01254 0.13923 0.0
C66 C 0.93861 0.029 0.12864 0.0
C67 C 0.98398 0.04057 0.02454 0.0
C68 C 0.04385 0.064 0.96247 0.0
C69 C 0.05753 0.06703 0.97592 0.0
C70 C 0.06796 0.0828 0.96663 0.0
C71 C 0.0647 0.09547 0.94375 0.0
C72 C 0.04042 0.07689 0.93981 0.0
C73 C 0.0509 0.09254 0.93046 0.0
C74 C 0.027 0.99924 0.04295 0.0
C75 C 0.03281 0.0477 0.97232 0.0
H76 H 0.94039 0.94491 0.03254 0.0
H77 H 0.91775 0.91196 0.10353 0.0
H78 H 0.95267 0.95639 0.10005 0.0
H79 H 0.93342 0.93069 0.12463 0.0
H80 H 0.05995 0.05726 0.99362 0.0
H81 H 0.07252 0.10787 0.93642 0.0
H82 H 0.02975 0.07477 0.9293 0.0
H83 H 0.04826 0.10246 0.91296 0.0
Eu84 Eu 0.00793 0.26609 0.2844 0.0
C85 C 0.93818 0.23784 0.26489 0.0
C86 C 0.93827 0.20854 0.29837 0.0
C87 C 0.90543 0.22819 0.28425 0.0
C88 C 0.94919 0.22158 0.28048 0.0
C89 C 0.91627 0.24091 0.26624 0.0
C90 C 0.9164 0.21206 0.30027 0.0
C91 C 0.91761 0.26744 0.23009 0.0
N92 N 0.94894 0.25007 0.24768 0.0
C93 C 0.93925 0.26374 0.22936 0.0
C94 C 0.90596 0.25624 0.2489 0.0
Eu95 Eu 0.98585 0.24257 0.24731 0.0
N96 N 0.97043 0.21842 0.27822 0.0
C97 C 0.98151 0.2023 0.29337 0.0
C98 C 0.94962 0.19226 0.31388 0.0
C99 C 0.97132 0.18912 0.31131 0.0
H100 H 0.94821 0.27213 0.21426 0.0
H101 H 0.98024 0.17665 0.32337 0.0
H102 H 0.90785 0.20216 0.31383 0.0
H103 H 0.90998 0.27877 0.21597 0.0
H104 H -0.00192 0.19969 0.2927 0.0
H105 H 0.01707 0.32996 0.20688 0.0
H106 H 0.94178 0.18204 0.3279 0.0
H107 H 0.04269 0.23715 0.32083 0.0
H108 H 0.99785 0.30783 0.23729 0.0
H109 H 0.08017 0.23158 0.32333 0.0
H110 H 0.88861 0.23043 0.28562 0.0
H111 H 0.0552 0.3246 0.20526 0.0
H112 H 0.08785 0.30512 0.22258 0.0
H113 H 0.8892 0.25901 0.24934 0.0
H114 H 0.10505 0.27834 0.25386 0.0
N115 N 0.02444 0.28958 0.25408 0.0
C116 C 0.01426 0.30523 0.2377 0.0
C117 C 0.04674 0.31478 0.21909 0.0
C118 C 0.05707 0.29914 0.23612 0.0
C119 C 0.02523 0.31789 0.21999 0.0
C120 C 0.04539 0.28663 0.2537 0.0
H121 H 0.10231 0.25112 0.29151 0.0
N122 N 0.04383 0.2592 0.28764 0.0
C123 C 0.07345 0.24259 0.30836 0.0
C124 C 0.05529 0.27111 0.27096 0.0
C125 C 0.05227 0.24579 0.30691 0.0
C126 C 0.08587 0.25365 0.29037 0.0
C127 C 0.0768 0.26829 0.27156 0.0
O128 O 0.00239 0.26633 0.32431 0.0
O129 O 0.97946 0.25558 0.28333 0.0
O130 O 0.96561 0.27638 0.24714 0.0
O131 O 0.97939 0.29074 0.27205 0.0
O132 O 0.99252 0.24464 0.31524 0.0
O133 O 0.00213 0.29555 0.29951 0.0
O134 O 0.98418 0.24447 0.2088 0.0
O135 O 0.01413 0.25343 0.24809 0.0
O136 O 0.02983 0.23313 0.28248 0.0
O137 O 0.01534 0.21801 0.2588 0.0
O138 O 0.00299 0.2618 0.2152 0.0
O139 O 0.99184 0.21327 0.23092 0.0
C140 C 0.97652 0.24588 0.30543 0.0
C141 C 0.01017 0.29254 0.34028 0.0
C142 C 0.01091 0.31863 0.36451 0.0
C143 C 0.0033 0.31334 0.34582 0.0
C144 C 0.02531 0.30312 0.37754 0.0
C145 C 0.02449 0.2773 0.35387 0.0
C146 C 0.03203 0.28262 0.37224 0.0
C147 C 0.96558 0.29205 0.25799 0.0
C148 C 0.00055 0.28629 0.32263 0.0
C149 C 0.08848 0.28046 0.25381 0.0
C150 C 0.07867 0.29576 0.23606 0.0
C151 C 0.01807 0.26209 0.2256 0.0
C152 C 0.98853 0.21587 0.18667 0.0
C153 C 0.99349 0.19411 0.18565 0.0
C154 C 0.99286 0.18719 0.16362 0.0
C155 C 0.98723 0.20198 0.14297 0.0
C156 C 0.98288 0.23026 0.16558 0.0
C157 C 0.98226 0.22334 0.14399 0.0
C158 C 0.02968 0.21719 0.27213 0.0
C159 C 0.9881 0.22431 0.20945 0.0
H160 H 0.9919 0.32519 0.33599 0.0
H161 H 0.03121 0.30689 0.39207 0.0
H162 H 0.02948 0.26108 0.35088 0.0
H163 H 0.04291 0.2707 0.38266 0.0
H164 H 0.99762 0.18275 0.20173 0.0
H165 H 0.98651 0.19692 0.12602 0.0
H166 H 0.97871 0.24704 0.16575 0.0
H167 H 0.97777 0.23461 0.12801 0.0
Eu168 Eu 0.73934 0.24417 0.49368 0.0
C169 C 0.731 0.26876 0.59393 0.0
C170 C 0.70293 0.30117 0.59096 0.0
C171 C 0.70814 0.28155 0.63164 0.0
C172 C 0.72026 0.28616 0.5794 0.0
C173 C 0.72507 0.26645 0.62026 0.0
C174 C 0.69705 0.29882 0.61703 0.0
C175 C 0.75373 0.23491 0.62276 0.0
N176 N 0.7473 0.25422 0.58254 0.0
C177 C 0.75915 0.23785 0.59678 0.0
C178 C 0.73654 0.2492 0.63457 0.0
Eu179 Eu 0.75757 0.26253 0.53835 0.0
N180 N 0.72635 0.28827 0.55411 0.0
C181 C 0.71511 0.30479 0.53959 0.0
C182 C 0.69181 0.31816 0.57603 0.0
C183 C 0.69781 0.31984 0.55024 0.0
H184 H 0.77327 0.22711 0.58824 0.0
H185 H 0.68906 0.33273 0.53846 0.0
H186 H 0.68392 0.3103 0.6261 0.0
H187 H 0.76312 0.22182 0.63368 0.0
H188 H 0.71865 0.30648 0.51972 0.0
H189 H 0.80848 0.17454 0.49322 0.0
H190 H 0.67841 0.32991 0.58422 0.0
H191 H 0.72253 0.27848 0.44397 0.0
H192 H 0.77803 0.19997 0.51202 0.0
H193 H 0.73304 0.28468 0.39856 0.0
H194 H 0.7035 0.28003 0.65177 0.0
H195 H 0.82004 0.17838 0.44753 0.0
H196 H 0.81489 0.19854 0.40577 0.0
H197 H 0.73253 0.24701 0.65477 0.0
H198 H 0.79493 0.22865 0.38024 0.0
N199 N 0.77088 0.2188 0.47777 0.0
C200 C 0.78203 0.20212 0.49219 0.0
C201 C 0.8063 0.18979 0.45575 0.0
C202 C 0.79515 0.20682 0.44092 0.0
C203 C 0.79978 0.18753 0.4815 0.0
C204 C 0.77736 0.22138 0.45253 0.0
H205 H 0.7649 0.26084 0.37738 0.0
N206 N 0.74956 0.25268 0.44955 0.0
C207 C 0.74281 0.2719 0.40942 0.0
C208 C 0.76644 0.23871 0.43811 0.0
C209 C 0.7372 0.26855 0.43536 0.0
C210 C 0.76072 0.25837 0.39756 0.0
C211 C 0.7726 0.24139 0.4118 0.0
O212 O 0.71274 0.24933 0.47568 0.0
O213 O 0.73055 0.25205 0.53296 0.0
O214 O 0.75878 0.22784 0.55299 0.0
O215 O 0.74216 0.21744 0.52731 0.0
O216 O 0.70714 0.26353 0.51193 0.0
O217 O 0.72907 0.2174 0.48927 0.0
O218 O 0.78406 0.25695 0.55671 0.0
O219 O 0.76621 0.25477 0.49917 0.0
O220 O 0.73811 0.2788 0.47886 0.0
O221 O 0.75462 0.28933 0.50454 0.0
O222 O 0.78976 0.24322 0.51997 0.0
O223 O 0.76865 0.2889 0.54224 0.0
C224 C 0.71112 0.26185 0.53393 0.0
C225 C 0.69357 0.2244 0.48177 0.0
C226 C 0.66956 0.20269 0.50087 0.0
C227 C 0.6889 0.20727 0.4989 0.0
C228 C 0.65519 0.21509 0.48546 0.0
C229 C 0.67906 0.23644 0.46637 0.0
C230 C 0.65998 0.23182 0.46827 0.0
C231 C 0.75091 0.21395 0.54745 0.0
C232 C 0.71387 0.22952 0.47779 0.0
C233 C 0.79009 0.22683 0.40036 0.0
C234 C 0.80138 0.20965 0.41488 0.0
C235 C 0.78568 0.24509 0.498 0.0
C236 C 0.80485 0.2808 0.54751 0.0
C237 C 0.80823 0.29946 0.5328 0.0
C238 C 0.82798 0.30367 0.52924 0.0
C239 C 0.84425 0.28907 0.5405 0.0
C240 C 0.8213 0.26659 0.55884 0.0
C241 C 0.84087 0.27068 0.55521 0.0
C242 C 0.74592 0.29282 0.4843 0.0
C243 C 0.78392 0.2766 0.5535 0.0
H244 H 0.70019 0.19748 0.5104 0.0
H245 H 0.64047 0.21142 0.48621 0.0
H246 H 0.68263 0.24933 0.45255 0.0
H247 H 0.64901 0.24103 0.45614 0.0
H248 H 0.79551 0.31086 0.52461 0.0
H249 H 0.85936 0.29227 0.53875 0.0
H250 H 0.81889 0.25243 0.57094 0.0
H251 H 0.85332 0.25979 0.56429 0.0
Eu252 Eu 0.73749 0.99208 0.74677 0.0
C253 C 0.76242 0.06353 0.7718 0.0
C254 C 0.79262 0.06492 0.73848 0.0
C255 C 0.77136 0.09668 0.75544 0.0
C256 C 0.77939 0.05346 0.75521 0.0
C257 C 0.75849 0.08521 0.77236 0.0
C258 C 0.78842 0.08653 0.7386 0.0
C259 C 0.73065 0.08244 0.80798 0.0
N260 N 0.75032 0.05205 0.7881 0.0
C261 C 0.73529 0.06101 0.8069 0.0
C262 C 0.74211 0.09467 0.79042 0.0
Eu263 Eu 0.75909 0.01559 0.78493 0.0
N264 N 0.7832 0.03247 0.75563 0.0
C265 C 0.80035 0.02207 0.73996 0.0
C266 C 0.80985 0.05432 0.72222 0.0
C267 C 0.81377 0.03278 0.72306 0.0
H268 H 0.72672 0.05154 0.82106 0.0
H269 H 0.82704 0.0244 0.71051 0.0
H270 H 0.7984 0.09552 0.72586 0.0
H271 H 0.7184 0.08946 0.82254 0.0
H272 H 0.80357 0.00563 0.73939 0.0
H273 H 0.66726 0.98776 0.81942 0.0
H274 H 0.82027 0.06259 0.70904 0.0
H275 H 0.76884 0.95443 0.71249 0.0
H276 H 0.69102 0.00522 0.7888 0.0
H277 H 0.77611 0.91624 0.71326 0.0
H278 H 0.76848 0.11334 0.75552 0.0
H279 H 0.67427 0.94921 0.82491 0.0
H280 H 0.69662 0.91493 0.81173 0.0
H281 H 0.73863 0.11126 0.79143 0.0
H282 H 0.7263 0.89546 0.78318 0.0
N283 N 0.71211 0.97707 0.77618 0.0
C284 C 0.69459 0.98848 0.7904 0.0
C285 C 0.6849 0.95684 0.81113 0.0
C286 C 0.70239 0.94522 0.79611 0.0
C287 C 0.68088 0.97858 0.80806 0.0
C288 C 0.71582 0.95589 0.77842 0.0
H289 H 0.75572 0.89583 0.74631 0.0
N290 N 0.74513 0.95551 0.74541 0.0
C291 C 0.76404 0.92402 0.72743 0.0
C292 C 0.7328 0.94483 0.76264 0.0
C293 C 0.75992 0.94561 0.72712 0.0
C294 C 0.75251 0.91257 0.74611 0.0
C295 C 0.73643 0.92297 0.76374 0.0
O296 O 0.7395 0.99231 0.70722 0.0
O297 O 0.74864 0.01964 0.74848 0.0
O298 O 0.72518 0.03508 0.78588 0.0
O299 O 0.71297 0.02205 0.75804 0.0
O300 O 0.76044 0.0061 0.71625 0.0
O301 O 0.70864 1.00154 0.73095 0.0
O302 O 0.75835 0.01426 0.82441 0.0
O303 O 0.74799 0.98808 0.78307 0.0
O304 O 0.77038 0.97088 0.74884 0.0
O305 O 0.78476 0.98708 0.77118 0.0
O306 O 0.73684 1.00083 0.81574 0.0
O307 O 0.78858 0.00535 0.79961 0.0
C308 C 0.75938 0.02189 0.72666 0.0
C309 C 0.71016 0.98881 0.69377 0.0
C310 C 0.68612 0.99334 0.66557 0.0
C311 C 0.69356 1.00148 0.6818 0.0
C312 C 0.69507 0.97231 0.6617 0.0
C313 C 0.71882 0.96775 0.68999 0.0
C314 C 0.71124 0.95955 0.67405 0.0
C315 C 0.7106 0.0355 0.77348 0.0
C316 C 0.71902 0.99845 0.70853 0.0
C317 C 0.72356 0.91227 0.78188 0.0
C318 C 0.70663 0.92336 0.79808 0.0
C319 C 0.73745 0.98545 0.80493 0.0
C320 C 0.78816 0.01777 0.83654 0.0
C321 C 0.80462 0.00504 0.8487 0.0
C322 C 0.81241 0.01339 0.86439 0.0
C323 C 0.80393 0.03459 0.86761 0.0
C324 C 0.78004 0.03904 0.83953 0.0
C325 C 0.78791 0.04739 0.85504 0.0
C326 C 0.78609 0.97207 0.75834 0.0
C327 C 0.77886 0.00809 0.82233 0.0
H328 H 0.68678 0.01777 0.68465 0.0
H329 H 0.68929 0.96571 0.64942 0.0
H330 H 0.73156 0.95771 0.69896 0.0
H331 H 0.71802 0.94332 0.67113 0.0
H332 H 0.81106 0.98862 0.84636 0.0
H333 H 0.80999 0.0413 0.87951 0.0
H334 H 0.76751 0.04915 0.83024 0.0
H335 H 0.78153 0.06377 0.8574 0.0
Eu336 Eu 0.50699 0.76589 0.28611 0.0
C337 C 0.43892 0.73852 0.26982 0.0
C338 C 0.44148 0.70646 0.29947 0.0
C339 C 0.40692 0.7289 0.29299 0.0
C340 C 0.45132 0.72048 0.28176 0.0
C341 C 0.41659 0.74251 0.27491 0.0
C342 C 0.41932 0.71095 0.30526 0.0
C343 C 0.41479 0.77184 0.24182 0.0
N344 N 0.44853 0.75162 0.25241 0.0
C345 C 0.43685 0.76715 0.23725 0.0
C346 C 0.40457 0.75972 0.26109 0.0
Eu347 Eu 0.4862 0.74258 0.24622 0.0
N348 N 0.47284 0.71648 0.27607 0.0
C349 C 0.48517 0.69814 0.28672 0.0
C350 C 0.45414 0.6882 0.3109 0.0
C351 C 0.47605 0.68397 0.30435 0.0
H352 H 0.44442 0.77593 0.22122 0.0
H353 H 0.486 0.66966 0.31277 0.0
H354 H 0.41161 0.70043 0.31895 0.0
H355 H 0.40573 0.78455 0.23014 0.0
H356 H 0.50209 0.69375 0.28185 0.0
H357 H 0.51355 0.83402 0.21457 0.0
H358 H 0.44716 0.67713 0.32457 0.0
H359 H 0.5432 0.73606 0.32075 0.0
H360 H 0.49527 0.81074 0.24449 0.0
H361 H 0.58153 0.7286 0.32015 0.0
H362 H 0.38984 0.73187 0.29725 0.0
H363 H 0.55223 0.82746 0.20982 0.0
H364 H 0.58598 0.8061 0.22362 0.0
H365 H 0.38745 0.76323 0.26443 0.0
H366 H 0.60469 0.77686 0.25139 0.0
N367 N 0.52312 0.78985 0.25644 0.0
C368 C 0.5121 0.80699 0.24253 0.0
C369 C 0.54425 0.81687 0.22298 0.0
C370 C 0.55543 0.79979 0.2378 0.0
C371 C 0.52245 0.82058 0.22555 0.0
C372 C 0.5443 0.78644 0.25474 0.0
H373 H 0.60319 0.74798 0.2874 0.0
N374 N 0.54357 0.75807 0.28747 0.0
C375 C 0.57431 0.74009 0.30586 0.0
C376 C 0.55483 0.76999 0.27049 0.0
C377 C 0.55268 0.74423 0.30603 0.0
C378 C 0.58646 0.75105 0.28736 0.0
C379 C 0.57668 0.7666 0.26979 0.0
O380 O 0.50238 0.76674 0.3259 0.0
O381 O 0.47935 0.75453 0.28343 0.0
O382 O 0.47151 0.77793 0.2402 0.0
O383 O 0.47677 0.78838 0.27506 0.0
O384 O 0.49182 0.74353 0.31577 0.0
O385 O 0.49928 0.79588 0.30063 0.0
O386 O 0.47885 0.74694 0.20932 0.0
O387 O 0.51093 0.7578 0.24816 0.0
O388 O 0.52782 0.73257 0.28484 0.0
O389 O 0.51626 0.71905 0.25663 0.0
O390 O 0.51238 0.75006 0.21417 0.0
O391 O 0.49101 0.71486 0.22794 0.0
C392 C 0.47631 0.74432 0.30529 0.0
C393 C 0.50964 0.79452 0.33939 0.0
C394 C 0.5106 0.82156 0.36209 0.0
C395 C 0.50127 0.81496 0.34604 0.0
C396 C 0.52812 0.80762 0.3715 0.0
C397 C 0.52707 0.78086 0.3494 0.0
C398 C 0.53624 0.78742 0.36524 0.0
C399 C 0.46692 0.79149 0.25609 0.0
C400 C 0.49923 0.78697 0.32373 0.0
C401 C 0.5879 0.77934 0.25231 0.0
C402 C 0.57727 0.79597 0.23647 0.0
C403 C 0.52183 0.75775 0.22604 0.0
C404 C 0.48266 0.71889 0.18596 0.0
C405 C 0.48991 0.69731 0.1833 0.0
C406 C 0.48799 0.69068 0.16168 0.0
C407 C 0.47888 0.7056 0.14301 0.0
C408 C 0.47356 0.7334 0.16687 0.0
C409 C 0.47172 0.72678 0.14562 0.0
C410 C 0.52931 0.71771 0.27178 0.0
C411 C 0.48427 0.72682 0.20821 0.0
H412 H 0.48759 0.82558 0.3389 0.0
H413 H 0.53541 0.81234 0.384 0.0
H414 H 0.53341 0.76493 0.34547 0.0
H415 H 0.54958 0.77671 0.3729 0.0
H416 H 0.4969 0.68584 0.19779 0.0
H417 H 0.47721 0.70077 0.12635 0.0
H418 H 0.46777 0.75 0.16833 0.0
H419 H 0.46465 0.73812 0.13111 0.0
Eu420 Eu 0.24058 0.74324 0.49367 0.0
C421 C 0.22837 0.7682 0.59311 0.0
C422 C 0.2 0.80049 0.59072 0.0
C423 C 0.20404 0.7792 0.63087 0.0
C424 C 0.21765 0.78591 0.57892 0.0
C425 C 0.22186 0.76501 0.61935 0.0
C426 C 0.19312 0.79685 0.6166 0.0
C427 C 0.25279 0.73571 0.62177 0.0
N428 N 0.2459 0.75487 0.58165 0.0
C429 C 0.25884 0.73967 0.59591 0.0
C430 C 0.23401 0.7482 0.63352 0.0
Eu431 Eu 0.2562 0.76461 0.53771 0.0
N432 N 0.22464 0.78926 0.55381 0.0
C433 C 0.21489 0.80714 0.5398 0.0
C434 C 0.18985 0.81852 0.57624 0.0
C435 C 0.19739 0.82188 0.5507 0.0
H436 H 0.27385 0.73021 0.58722 0.0
H437 H 0.1898 0.83592 0.53935 0.0
H438 H 0.17956 0.80782 0.62584 0.0
H439 H 0.2628 0.72319 0.63265 0.0
H440 H 0.22041 0.81056 0.52024 0.0
H441 H 0.31199 0.67496 0.49507 0.0
H442 H 0.17632 0.83003 0.58464 0.0
H443 H 0.22634 0.77854 0.44353 0.0
H444 H 0.28266 0.70143 0.51341 0.0
H445 H 0.23778 0.7844 0.39849 0.0
H446 H 0.19886 0.77692 0.65093 0.0
H447 H 0.32193 0.67661 0.44939 0.0
H448 H 0.31611 0.69541 0.4074 0.0
H449 H 0.22949 0.7453 0.65364 0.0
H450 H 0.29709 0.72577 0.38136 0.0
N451 N 0.27297 0.71776 0.47895 0.0
C452 C 0.28518 0.70217 0.49361 0.0
C453 C 0.3083 0.68823 0.45742 0.0
C454 C 0.2969 0.70479 0.44232 0.0
C455 C 0.30265 0.68717 0.48316 0.0
C456 C 0.27932 0.71973 0.45365 0.0
H457 H 0.26874 0.75925 0.37792 0.0
N458 N 0.25233 0.75165 0.44997 0.0
C459 C 0.24691 0.77123 0.40959 0.0
C460 C 0.26885 0.73715 0.43888 0.0
C461 C 0.24084 0.76807 0.43549 0.0
C462 C 0.26427 0.75695 0.39807 0.0
C463 C 0.27527 0.73952 0.4126 0.0
O464 O 0.21103 0.75471 0.47924 0.0
O465 O 0.22739 0.76141 0.52674 0.0
O466 O 0.25502 0.73081 0.55416 0.0
O467 O 0.24685 0.71544 0.52512 0.0
O468 O 0.21545 0.73641 0.52687 0.0
O469 O 0.22993 0.72237 0.47751 0.0
O470 O 0.28212 0.76149 0.55612 0.0
O471 O 0.26627 0.75538 0.49921 0.0
O472 O 0.23442 0.77915 0.482 0.0
O473 O 0.2549 0.78954 0.50269 0.0
O474 O 0.28915 0.74509 0.52076 0.0
O475 O 0.26454 0.7928 0.54148 0.0
C476 C 0.21399 0.7513 0.53895 0.0
C477 C 0.19363 0.73056 0.47401 0.0
C478 C 0.16951 0.70853 0.49159 0.0
C479 C 0.18787 0.71427 0.49195 0.0
C480 C 0.15744 0.719 0.47294 0.0
C481 C 0.18124 0.74077 0.45577 0.0
C482 C 0.16328 0.73498 0.45523 0.0
C483 C 0.25166 0.71465 0.54723 0.0
C484 C 0.21297 0.7368 0.47234 0.0
C485 C 0.29215 0.72426 0.40147 0.0
C486 C 0.3029 0.70694 0.41628 0.0
C487 C 0.28572 0.74615 0.49863 0.0
C488 C 0.29679 0.78903 0.55618 0.0
C489 C 0.30663 0.80143 0.53641 0.0
C490 C 0.32413 0.80725 0.53945 0.0
C491 C 0.33128 0.80089 0.56238 0.0
C492 C 0.30416 0.78291 0.57887 0.0
C493 C 0.3213 0.78883 0.58194 0.0
C494 C 0.24399 0.79294 0.48451 0.0
C495 C 0.27902 0.78162 0.5545 0.0
H496 H 0.19756 0.70612 0.50587 0.0
H497 H 0.1437 0.71445 0.47161 0.0
H498 H 0.1857 0.75307 0.44162 0.0
H499 H 0.154 0.7427 0.44083 0.0
H500 H 0.30087 0.80636 0.51893 0.0
H501 H 0.34432 0.80571 0.56541 0.0
H502 H 0.29658 0.77347 0.59432 0.0
H503 H 0.32679 0.78418 0.59956 0.0
Eu504 Eu 0.23704 0.4931 0.74698 0.0
C505 C 0.26312 0.56379 0.77018 0.0
C506 C 0.29287 0.56415 0.73603 0.0
C507 C 0.27163 0.59673 0.75116 0.0
C508 C 0.27988 0.55312 0.75391 0.0
C509 C 0.25924 0.58564 0.76947 0.0
C510 C 0.28837 0.58602 0.73442 0.0
C511 C 0.23242 0.58374 0.80645 0.0
N512 N 0.25123 0.55273 0.78749 0.0
C513 C 0.23687 0.56216 0.80637 0.0
C514 C 0.24339 0.59562 0.78762 0.0
Eu515 Eu 0.25869 0.51634 0.78524 0.0
N516 N 0.28374 0.53197 0.75577 0.0
C517 C 0.30114 0.52089 0.74103 0.0
C518 C 0.31014 0.55289 0.72042 0.0
C519 C 0.31442 0.53115 0.72314 0.0
H520 H 0.22849 0.55299 0.82119 0.0
H521 H 0.32788 0.52224 0.71131 0.0
H522 H 0.29802 0.59473 0.72062 0.0
H523 H 0.2206 0.59116 0.82106 0.0
H524 H 0.30488 0.50417 0.74221 0.0
H525 H 0.16747 0.4887 0.82076 0.0
H526 H 0.32042 0.56079 0.70644 0.0
H527 H 0.26755 0.45592 0.7121 0.0
H528 H 0.19171 0.50599 0.79083 0.0
H529 H 0.2745 0.41789 0.71204 0.0
H530 H 0.26868 0.61354 0.75013 0.0
H531 H 0.17293 0.4505 0.82413 0.0
H532 H 0.1936 0.41664 0.80868 0.0
H533 H 0.23996 0.61235 0.78773 0.0
H534 H 0.22316 0.39721 0.78 0.0
N535 N 0.21166 0.47806 0.77656 0.0
C536 C 0.19462 0.48941 0.79147 0.0
C537 C 0.18382 0.45805 0.8107 0.0
C538 C 0.20081 0.44653 0.79501 0.0
C539 C 0.18066 0.4796 0.80881 0.0
C540 C 0.21468 0.45707 0.77792 0.0
H541 H 0.25337 0.39749 0.74407 0.0
N542 N 0.24415 0.45668 0.74524 0.0
C543 C 0.26255 0.42552 0.72641 0.0
C544 C 0.23143 0.44608 0.76188 0.0
C545 C 0.25877 0.44697 0.72674 0.0
C546 C 0.25057 0.41409 0.74447 0.0
C547 C 0.23448 0.42441 0.76215 0.0
O548 O 0.23834 0.49354 0.70751 0.0
O549 O 0.24826 0.52055 0.74876 0.0
O550 O 0.22519 0.53683 0.78539 0.0
O551 O 0.21251 0.52295 0.7588 0.0
O552 O 0.25997 0.50703 0.71649 0.0
O553 O 0.2079 0.50346 0.73162 0.0
O554 O 0.25703 0.51498 0.8249 0.0
O555 O 0.24765 0.48879 0.78329 0.0
O556 O 0.27066 0.47256 0.74713 0.0
O557 O 0.28358 0.48707 0.77282 0.0
O558 O 0.23581 0.50216 0.8156 0.0
O559 O 0.28772 0.50625 0.80077 0.0
C560 C 0.25904 0.52274 0.72695 0.0
C561 C 0.2084 0.49033 0.69516 0.0
C562 C 0.184 0.49449 0.66757 0.0
C563 C 0.19201 0.50303 0.68286 0.0
C564 C 0.19216 0.47317 0.66489 0.0
C565 C 0.21624 0.46896 0.69259 0.0
C566 C 0.20813 0.46043 0.67751 0.0
C567 C 0.21033 0.53691 0.77355 0.0
C568 C 0.21785 0.50008 0.70915 0.0
C569 C 0.22098 0.41385 0.77944 0.0
C570 C 0.20414 0.42492 0.79575 0.0
C571 C 0.23693 0.48641 0.80509 0.0
C572 C 0.28651 0.51803 0.83848 0.0
C573 C 0.30548 0.50618 0.8463 0.0
C574 C 0.31342 0.51347 0.86279 0.0
C575 C 0.3026 0.53279 0.87119 0.0
C576 C 0.27573 0.53737 0.84699 0.0
C577 C 0.28386 0.54474 0.86319 0.0
C578 C 0.28574 0.47288 0.75843 0.0
C579 C 0.27751 0.50887 0.82336 0.0
H580 H 0.18582 0.51957 0.68472 0.0
H581 H 0.186 0.46637 0.65318 0.0
H582 H 0.22873 0.45887 0.70186 0.0
H583 H 0.21435 0.44397 0.67549 0.0
H584 H 0.31373 0.49108 0.84016 0.0
H585 H 0.30863 0.53853 0.88405 0.0
H586 H 0.26088 0.54657 0.84166 0.0
H587 H 0.27546 0.55957 0.86985 0.0
Eu588 Eu 0.98149 0.4905 0.54811 0.0
C589 C 0.02284 0.50656 0.43496 0.0
C590 C 0.05175 0.47489 0.43151 0.0
C591 C 0.03733 0.49404 0.39477 0.0
C592 C 0.03705 0.48978 0.44603 0.0
C593 C 0.02312 0.50909 0.40909 0.0
C594 C 0.0516 0.47697 0.40596 0.0
C595 C 0.99667 0.54223 0.41283 0.0
N596 N 0.00948 0.52102 0.44915 0.0
C597 C 0.99708 0.53912 0.43833 0.0
C598 C 0.00958 0.52703 0.39818 0.0
Eu599 Eu 0.0116 0.5156 0.49195 0.0
N600 N 0.03707 0.48839 0.47071 0.0
C601 C 0.05175 0.47246 0.48176 0.0
C602 C 0.06651 0.45858 0.4429 0.0
C603 C 0.06656 0.45744 0.4681 0.0
H604 H 0.98719 0.55102 0.44958 0.0
H605 H 0.07791 0.44484 0.47715 0.0
H606 H 0.06273 0.46567 0.3946 0.0
H607 H 0.98649 0.55639 0.40447 0.0
H608 H 0.05202 0.47049 0.50131 0.0
H609 H 0.91078 0.55848 0.55118 0.0
H610 H 0.07805 0.4469 0.43238 0.0
H611 H 0.0074 0.46376 0.5952 0.0
H612 H 0.93898 0.5315 0.5318 0.0
H613 H 0.00677 0.46611 0.63882 0.0
H614 H 0.03772 0.4957 0.37491 0.0
H615 H 0.90896 0.563 0.59452 0.0
H616 H 0.92416 0.55164 0.63329 0.0
H617 H 0.00938 0.52955 0.37838 0.0
H618 H 0.95058 0.5272 0.65669 0.0
N619 N 0.9539 0.51929 0.56378 0.0
C620 C 0.93881 0.53246 0.55078 0.0
C621 C 0.92161 0.55074 0.58613 0.0
C622 C 0.93702 0.53752 0.59941 0.0
C623 C 0.92254 0.5482 0.56172 0.0
C624 C 0.95322 0.52171 0.58768 0.0
H625 H 0.98127 0.49552 0.65892 0.0
N626 N 0.98335 0.49249 0.5897 0.0
C627 C 0.99604 0.47814 0.62833 0.0
C628 C 0.96836 0.50807 0.60087 0.0
C629 C 0.99635 0.47697 0.60353 0.0
C630 C 0.98165 0.49476 0.63957 0.0
C631 C 0.96731 0.50972 0.62607 0.0
O632 O 0.98189 0.46025 0.57049 0.0
O633 O -0.00165 0.48845 0.509 0.0
O634 O 0.98055 0.51782 0.48151 0.0
O635 O 0.96159 0.50186 0.5173 0.0
O636 O 0.0035 0.46086 0.53266 0.0
O637 O 0.95279 0.47944 0.55798 0.0
O638 O 0.01273 0.54793 0.48098 0.0
O639 O 0.99518 0.5171 0.53136 0.0
O640 O 0.01227 0.49052 0.55748 0.0
O641 O 0.03347 0.49954 0.51971 0.0
O642 O 0.98778 0.5442 0.5074 0.0
O643 O 0.0417 0.52364 0.48749 0.0
C644 C 0.00735 0.46915 0.50965 0.0
C645 C 0.95736 0.44215 0.56977 0.0
C646 C 0.93967 0.42182 0.55502 0.0
C647 C 0.94419 0.44093 0.55426 0.0
C648 C 0.94812 0.40414 0.57148 0.0
C649 C 0.96547 0.42434 0.58632 0.0
C650 C 0.96088 0.40545 0.58711 0.0
C651 C 0.96344 0.51205 0.49404 0.0
C652 C 0.96215 0.4618 0.57055 0.0
C653 C 0.95154 0.52571 0.63742 0.0
C654 C 0.93645 0.53957 0.62413 0.0
C655 C 0.98564 0.53627 0.5307 0.0
C656 C 0.04468 0.55819 0.46773 0.0
C657 C 0.05712 0.56462 0.47988 0.0
C658 C 0.06567 0.58147 0.46867 0.0
C659 C 0.06219 0.59153 0.44471 0.0
C660 C 0.04144 0.56812 0.44371 0.0
C661 C 0.05035 0.58466 0.43219 0.0
C662 C 0.03052 0.49284 0.54396 0.0
C663 C 0.03263 0.54366 0.48238 0.0
H664 H 0.93749 0.45463 0.54175 0.0
H665 H 0.94442 0.38941 0.57264 0.0
H666 H 0.97524 0.42509 0.59886 0.0
H667 H 0.96708 0.39186 0.60003 0.0
H668 H 0.05915 0.55728 0.49872 0.0
H669 H 0.06864 0.60462 0.43574 0.0
H670 H 0.03157 0.56353 0.43425 0.0
H671 H 0.04767 0.59249 0.41376 0.0
Eu672 Eu 0.24036 0.24425 0.99332 0.0
C673 C 0.22773 0.27231 0.09413 0.0
C674 C 0.19853 0.30363 0.09 0.0
C675 C 0.20458 0.28594 0.1312 0.0
C676 C 0.21638 0.2888 0.07901 0.0
C677 C 0.22187 0.27081 0.12041 0.0
C678 C 0.19295 0.30228 0.11605 0.0
C679 C 0.25111 0.23986 0.12393 0.0
N680 N 0.24432 0.2577 0.08331 0.0
C681 C 0.25645 0.24201 0.09796 0.0
C682 C 0.23369 0.25427 0.13523 0.0
Eu683 Eu 0.25456 0.26508 0.03914 0.0
N684 N 0.2222 0.28996 0.05374 0.0
C685 C 0.20986 0.30488 0.03871 0.0
C686 C 0.1865 0.31929 0.07455 0.0
C687 C 0.19202 0.31971 0.04883 0.0
H688 H 0.27055 0.2311 0.08965 0.0
H689 H 0.18242 0.33137 0.03671 0.0
H690 H 0.17947 0.3137 0.12469 0.0
H691 H 0.26067 0.22726 0.13521 0.0
H692 H 0.21286 0.30514 0.01891 0.0
H693 H 0.31244 0.17794 0.99692 0.0
H694 H 0.17265 0.33083 0.08232 0.0
H695 H 0.22516 0.27793 0.94222 0.0
H696 H 0.28237 0.20483 1.01405 0.0
H697 H 0.23496 0.28086 0.8967 0.0
H698 H 0.19999 0.28505 0.1513 0.0
H699 H 0.32185 0.17724 0.95152 0.0
H700 H 0.31503 0.19358 0.90891 0.0
H701 H 0.22969 0.25268 0.15541 0.0
H702 H 0.29455 0.22179 0.88179 0.0
N703 N 0.27266 0.21902 0.97915 0.0
C704 C 0.28513 0.2045 0.99438 0.0
C705 C 0.30811 0.18903 0.95901 0.0
C706 C 0.29609 0.20439 0.94329 0.0
C707 C 0.30279 0.18931 0.98462 0.0
C708 C 0.27835 0.21954 0.95394 0.0
H709 H 0.26528 0.25449 0.87704 0.0
N710 N 0.25077 0.25081 0.94906 0.0
C711 C 0.24428 0.26823 0.9082 0.0
C712 C 0.2671 0.23579 0.93855 0.0
C713 C 0.23901 0.2666 0.93415 0.0
C714 C 0.26132 0.25328 0.8972 0.0
C715 C 0.27291 0.23679 0.91231 0.0
O716 O 0.21387 0.24969 0.97508 0.0
O717 O 0.22963 0.25245 0.03251 0.0
O718 O 0.25332 0.23121 0.05583 0.0
O719 O 0.24535 0.21674 0.02584 0.0
O720 O 0.20701 0.26246 1.01068 0.0
O721 O 0.23006 0.21767 0.9886 0.0
O722 O 0.28125 0.25968 0.05708 0.0
O723 O 0.26528 0.25691 0.99999 0.0
O724 O 0.24163 0.27809 0.97646 0.0
O725 O 0.24964 0.29251 1.00651 0.0
O726 O 0.288 0.24734 0.02166 0.0
O727 O 0.26392 0.29187 0.04518 0.0
C728 C 0.21005 0.2611 0.03302 0.0
C729 C 0.19372 0.22545 0.98419 0.0
C730 C 0.17026 0.20362 1.00549 0.0
C731 C 0.19017 0.20761 1.00072 0.0
C732 C 0.15404 0.21746 0.99349 0.0
C733 C 0.17737 0.23891 0.97215 0.0
C734 C 0.15764 0.23496 0.97688 0.0
C735 C 0.25008 0.21524 0.04822 0.0
C736 C 0.21448 0.22994 0.97777 0.0
C737 C 0.29002 0.22132 0.90185 0.0
C738 C 0.30163 0.20521 0.91729 0.0
C739 C 0.2849 0.24843 0.99941 0.0
C740 C 0.29851 0.28548 0.05514 0.0
C741 C 0.30569 0.30002 0.03577 0.0
C742 C 0.3245 0.3049 0.03583 0.0
C743 C 0.33573 0.29542 0.05546 0.0
C744 C 0.30988 0.2763 0.0746 0.0
C745 C 0.32839 0.28126 0.07473 0.0
C746 C 0.24487 0.29404 0.98413 0.0
C747 C 0.27908 0.27955 0.05664 0.0
H748 H 0.20281 0.19675 1.00957 0.0
H749 H 0.13878 0.21432 0.99627 0.0
H750 H 0.17992 0.25243 0.9588 0.0
H751 H 0.14522 0.2453 0.96734 0.0
H752 H 0.29677 0.30751 0.02095 0.0
H753 H 0.34988 0.29949 0.05629 0.0
H754 H 0.30431 0.26534 0.08988 0.0
H755 H 0.33694 0.27429 0.08995 0.0
Eu756 Eu 0.23724 0.99165 0.24977 0.0
C757 C 0.26746 0.06456 0.26395 0.0
C758 C 0.29751 0.06345 0.22989 0.0
C759 C 0.27821 0.09648 0.245 0.0
C760 C 0.28397 0.05306 0.24794 0.0
C761 C 0.26474 0.08632 0.26286 0.0
C762 C 0.2945 0.08509 0.22852 0.0
C763 C 0.23624 0.08657 0.29824 0.0
N764 N 0.25422 0.05461 0.28079 0.0
C765 C 0.23942 0.06513 0.2986 0.0
C766 C 0.24875 0.0973 0.28007 0.0
Eu767 Eu 0.26145 0.01779 0.28165 0.0
N768 N 0.28646 0.03205 0.24938 0.0
C769 C 0.30181 0.02113 0.23223 0.0
C770 C 0.31359 0.05195 0.21334 0.0
C771 C 0.31562 0.03076 0.21442 0.0
H772 H 0.22958 0.05715 0.31301 0.0
H773 H 0.32753 0.02185 0.20105 0.0
H774 H 0.30473 0.09319 0.21475 0.0
H775 H 0.22413 0.0948 0.31203 0.0
H776 H 0.30304 0.00531 0.23052 0.0
H777 H 0.16495 0.98961 0.31913 0.0
H778 H 0.3242 0.05939 0.19927 0.0
H779 H 0.27096 0.95262 0.21918 0.0
H780 H 0.19202 0.00547 0.2928 0.0
H781 H 0.27737 0.91463 0.22001 0.0
H782 H 0.27622 0.11315 0.24385 0.0
H783 H 0.16925 0.95162 0.32218 0.0
H784 H 0.19085 0.91698 0.30947 0.0
H785 H 0.24624 0.11395 0.27981 0.0
H786 H 0.22189 0.89646 0.28358 0.0
N787 N 0.21165 0.97722 0.27924 0.0
C788 C 0.19416 0.98909 0.29295 0.0
C789 C 0.18123 0.9586 0.31013 0.0
C790 C 0.1992 0.9464 0.29637 0.0
C791 C 0.17871 0.98004 0.30838 0.0
C792 C 0.21433 0.95626 0.28079 0.0
H793 H 0.25421 0.89537 0.25047 0.0
N794 N 0.24571 0.95463 0.25065 0.0
C795 C 0.2647 0.92278 0.23338 0.0
C796 C 0.23195 0.94462 0.26635 0.0
C797 C 0.2611 0.94428 0.23314 0.0
C798 C 0.25161 0.91198 0.25059 0.0
C799 C 0.23468 0.92295 0.2669 0.0
O800 O 0.24171 0.98826 0.21127 0.0
O801 O 0.24836 0.02011 0.24791 0.0
O802 O 0.22669 0.03654 0.28255 0.0
O803 O 0.21201 0.02167 0.2589 0.0
O804 O 0.25917 0.0052 0.21697 0.0
O805 O 0.20917 0.99817 0.23189 0.0
O806 O 0.2515 0.02088 0.32127 0.0
O807 O 0.24164 0.9947 0.28748 0.0
O808 O 0.26971 0.97064 0.25483 0.0
O809 O 0.28786 0.99032 0.26706 0.0
O810 O 0.26711 0.98618 0.3059 0.0
O811 O 0.28442 0.01979 0.30232 0.0
C812 C 0.25821 0.02174 0.22573 0.0
C813 C 0.21465 0.99421 0.18736 0.0
C814 C 0.18719 1.00011 0.16318 0.0
C815 C 0.19309 0.99953 0.18593 0.0
C816 C 0.20274 0.99527 0.14203 0.0
C817 C 0.23005 0.98932 0.16592 0.0
C818 C 0.22409 0.98985 0.14345 0.0
C819 C 0.21087 0.03622 0.27231 0.0
C820 C 0.22159 0.99361 0.21075 0.0
C821 C 0.21998 0.91306 0.28289 0.0
C822 C 0.20227 0.92476 0.29756 0.0
C823 C 0.25131 0.98056 0.30309 0.0
C824 C 0.27553 0.02305 0.34658 0.0
C825 C 0.29669 0.01698 0.34997 0.0
C826 C 0.30135 0.01773 0.37295 0.0
C827 C 0.28488 0.02489 0.3924 0.0
C828 C 0.2592 0.03025 0.3662 0.0
C829 C 0.26391 0.03122 0.38896 0.0
C830 C 0.28712 0.97351 0.25877 0.0
C831 C 0.27041 0.02115 0.32305 0.0
H832 H 0.18101 1.00318 0.20227 0.0
H833 H 0.19831 0.99549 0.12447 0.0
H834 H 0.2468 0.98506 0.16643 0.0
H835 H 0.23604 0.986 0.12712 0.0
H836 H 0.30947 0.01133 0.33503 0.0
H837 H 0.28831 0.02567 0.41019 0.0
H838 H 0.2428 0.03508 0.36398 0.0
H839 H 0.25127 0.0368 0.40401 0.0
Eu840 Eu 0.50839 0.26583 0.78543 0.0
C841 C 0.44104 0.23646 0.76032 0.0
C842 C 0.44038 0.20763 0.79431 0.0
C843 C 0.40837 0.22618 0.7778 0.0
C844 C 0.45149 0.22076 0.7769 0.0
C845 C 0.41947 0.23897 0.76025 0.0
C846 C 0.41878 0.21061 0.79485 0.0
C847 C 0.42164 0.26558 0.72428 0.0
N848 N 0.45202 0.24887 0.74377 0.0
C849 C 0.44292 0.26255 0.72511 0.0
C850 C 0.40976 0.25396 0.74218 0.0
Eu851 Eu 0.48822 0.24244 0.74604 0.0
N852 N 0.47244 0.2182 0.77602 0.0
C853 C 0.48324 0.20226 0.79156 0.0
C854 C 0.45131 0.19179 0.81065 0.0
C855 C 0.47285 0.18903 0.80916 0.0
H856 H 0.4522 0.27121 0.71075 0.0
H857 H 0.48149 0.17673 0.82163 0.0
H858 H 0.41003 0.20075 0.80817 0.0
H859 H 0.41449 0.27676 0.70972 0.0
H860 H 0.49976 0.19974 0.7912 0.0
H861 H 0.51673 0.33216 0.71118 0.0
H862 H 0.44331 0.18151 0.82434 0.0
H863 H 0.5439 0.23638 0.82142 0.0
H864 H 0.49772 0.30964 0.74119 0.0
H865 H 0.58181 0.22958 0.82227 0.0
H866 H 0.39178 0.22801 0.77812 0.0
H867 H 0.55517 0.32588 0.70819 0.0
H868 H 0.5882 0.30541 0.72409 0.0
H869 H 0.39327 0.25628 0.74146 0.0
H870 H 0.60608 0.27709 0.75345 0.0
N871 N 0.52487 0.28982 0.75591 0.0
C872 C 0.51436 0.30637 0.74072 0.0
C873 C 0.54685 0.31576 0.72169 0.0
C874 C 0.5575 0.29932 0.73769 0.0
C875 C 0.52517 0.31937 0.72335 0.0
C876 C 0.54598 0.28642 0.75487 0.0
H877 H 0.60385 0.24891 0.79005 0.0
N878 N 0.54467 0.25843 0.7881 0.0
C879 C 0.57488 0.24089 0.80765 0.0
C880 C 0.55613 0.27029 0.77132 0.0
C881 C 0.55344 0.24474 0.80703 0.0
C882 C 0.58725 0.25183 0.78945 0.0
C883 C 0.57785 0.26704 0.77132 0.0
O884 O 0.50299 0.26647 0.82532 0.0
O885 O 0.48053 0.25489 0.78294 0.0
O886 O 0.4672 0.27608 0.74547 0.0
O887 O 0.47953 0.28974 0.77255 0.0
O888 O 0.49241 0.24464 0.81567 0.0
O889 O 0.50152 0.29561 0.80025 0.0
O890 O 0.49178 0.24162 0.70633 0.0
O891 O 0.5157 0.25378 0.74847 0.0
O892 O 0.52891 0.23222 0.78658 0.0
O893 O 0.51801 0.21901 0.75776 0.0
O894 O 0.50409 0.26381 0.71562 0.0
O895 O 0.49659 0.21237 0.73147 0.0
C896 C 0.47697 0.24539 0.80515 0.0
C897 C 0.51041 0.29346 0.84024 0.0
C898 C 0.51108 0.32003 0.86387 0.0
C899 C 0.5027 0.31411 0.84631 0.0
C900 C 0.52703 0.30522 0.87532 0.0
C901 C 0.52624 0.27894 0.85228 0.0
C902 C 0.53449 0.28483 0.86958 0.0
C903 C 0.46639 0.29144 0.75742 0.0
C904 C 0.50052 0.28657 0.82339 0.0
C905 C 0.58937 0.2795 0.75384 0.0
C906 C 0.5792 0.29564 0.73714 0.0
C907 C 0.51927 0.26344 0.72639 0.0
C908 C 0.48603 0.21282 0.69299 0.0
C909 C 0.49626 0.19321 0.68442 0.0
C910 C 0.48784 0.18646 0.66751 0.0
C911 C 0.46891 0.19905 0.66004 0.0
C912 C 0.46738 0.22517 0.68458 0.0
C913 C 0.45875 0.21819 0.66859 0.0
C914 C 0.53058 0.21731 0.77359 0.0
C915 C 0.49592 0.22125 0.70845 0.0
H916 H 0.49021 0.32541 0.83762 0.0
H917 H 0.53356 0.30943 0.88896 0.0
H918 H 0.53197 0.26284 0.84886 0.0
H919 H 0.54658 0.27346 0.8788 0.0
H920 H 0.51098 0.18368 0.6901 0.0
H921 H 0.46207 0.19411 0.64726 0.0
H922 H 0.45971 0.24056 0.68962 0.0
H923 H 0.44434 0.22791 0.66235 0.0
Eu924 Eu 0.00875 0.76469 0.78627 0.0
C925 C 0.93968 0.73972 0.76844 0.0
C926 C 0.94209 0.70632 0.79548 0.0
C927 C 0.90767 0.7289 0.78876 0.0
C928 C 0.95192 0.72132 0.77977 0.0
C929 C 0.91742 0.7434 0.77242 0.0
C930 C 0.91997 0.7104 0.80022 0.0
C931 C 0.91603 0.77395 0.74109 0.0
N932 N 0.94949 0.75329 0.75219 0.0
C933 C 0.93805 0.76947 0.73742 0.0
C934 C 0.90561 0.76106 0.75899 0.0
Eu935 Eu 0.98724 0.74401 0.74629 0.0
N936 N 0.97338 0.71765 0.77483 0.0
C937 C 0.98573 0.69873 0.7841 0.0
C938 C 0.95477 0.68744 0.80569 0.0
C939 C 0.97667 0.68359 0.79982 0.0
H940 H 0.94579 0.77887 0.72223 0.0
H941 H 0.98667 0.66877 0.80708 0.0
H942 H 0.91225 0.69912 0.81234 0.0
H943 H 0.90717 0.78706 0.72966 0.0
H944 H 0.00262 0.69455 0.77904 0.0
H945 H 0.00971 0.83858 0.72234 0.0
H946 H 0.94781 0.67557 0.81773 0.0
H947 H 0.04961 0.73241 0.81307 0.0
H948 H 0.99367 0.81441 0.75354 0.0
H949 H 0.08842 0.7239 0.80563 0.0
H950 H 0.89064 0.73156 0.79207 0.0
H951 H 0.04858 0.8306 0.70977 0.0
H952 H 0.08414 0.80689 0.71532 0.0
H953 H 0.88856 0.76433 0.76147 0.0
H954 H 0.1056 0.77544 0.7375 0.0
N955 N 0.02269 0.79086 0.75726 0.0
C956 C 0.01047 0.80967 0.74757 0.0
C957 C 0.04154 0.81944 0.72321 0.0
C958 C 0.05413 0.80095 0.73433 0.0
C959 C 0.01962 0.82393 0.73014 0.0
C960 C 0.04417 0.78684 0.75168 0.0
H961 H 0.10737 0.74458 0.77121 0.0
N962 N 0.04638 0.75608 0.78124 0.0
C963 C 0.07967 0.73632 0.79336 0.0
C964 C 0.05632 0.76889 0.76384 0.0
C965 C 0.05762 0.74097 0.79718 0.0
C966 C 0.09028 0.74805 0.77398 0.0
C967 C 0.07861 0.76494 0.7594 0.0
O968 O 0.01452 0.76175 0.82361 0.0
O969 O 0.97999 0.75498 0.78399 0.0
O970 O 0.97287 0.77936 0.74161 0.0
O971 O 0.97786 0.78806 0.77764 0.0
O972 O 0.99124 0.74466 0.81689 0.0
O973 O 0.00149 0.79314 0.80457 0.0
O974 O 0.97948 0.74652 0.71001 0.0
O975 O 0.01588 0.75369 0.7486 0.0
O976 O 0.02518 0.72977 0.7892 0.0
O977 O 0.01819 0.72043 0.7547 0.0
O978 O 0.00473 0.76372 0.71546 0.0
O979 O 0.99599 0.71573 0.72734 0.0
C980 C 0.97627 0.74496 0.80585 0.0
C981 C 0.00876 0.79015 0.84703 0.0
C982 C 0.00514 0.81876 0.87 0.0
C983 C 0.00368 0.81192 0.84825 0.0
C984 C 0.01172 0.80384 0.89013 0.0
C985 C 0.01533 0.77567 0.86762 0.0
C986 C 0.01679 0.7825 0.88891 0.0
C987 C 0.96839 0.79231 0.75811 0.0
C988 C 0.00839 0.78185 0.82444 0.0
C989 C 0.08852 0.77842 0.74135 0.0
C990 C 0.0763 0.79637 0.72881 0.0
C991 C 0.0196 0.76349 0.72661 0.0
C992 C 0.98656 0.71804 0.68621 0.0
C993 C 0.99451 0.6964 0.68383 0.0
C994 C 0.99295 0.68924 0.66235 0.0
C995 C 0.98325 0.70369 0.64373 0.0
C996 C 0.9769 0.732 0.66714 0.0
C997 C 0.97526 0.72485 0.64617 0.0
C998 C 0.02877 0.71653 0.77324 0.0
C999 C 0.98729 0.7266 0.70845 0.0
H1000 H -0.00117 0.82336 0.83253 0.0
H1001 H 0.0131 0.80879 0.90685 0.0
H1002 H 0.01955 0.75892 0.86728 0.0
H1003 H 0.02199 0.77116 0.90452 0.0
H1004 H 0.00178 0.68531 0.6984 0.0
H1005 H 0.98166 0.69848 0.62729 0.0
H1006 H 0.97041 0.74859 0.66843 0.0
H1007 H 0.96767 0.73579 0.63174 0.0
Eu1008 Eu 0.73853 0.49273 0.24805 0.0
C1009 C 0.76391 0.56495 0.26245 0.0
C1010 C 0.79545 0.56192 0.2303 0.0
C1011 C 0.7737 0.59638 0.23917 0.0
C1012 C 0.78155 0.55247 0.24901 0.0
C1013 C 0.76013 0.58705 0.25801 0.0
C1014 C 0.79129 0.58385 0.22531 0.0
C1015 C 0.73086 0.58922 0.29268 0.0
N1016 N 0.75083 0.55559 0.28039 0.0
C1017 C 0.73536 0.56734 0.29652 0.0
C1018 C 0.74307 0.59916 0.27305 0.0
Eu1019 Eu 0.75875 0.51824 0.2851 0.0
N1020 N 0.78514 0.53122 0.25406 0.0
C1021 C 0.80293 0.51874 0.24137 0.0
C1022 C 0.81321 0.5491 0.21706 0.0
C1023 C 0.81699 0.52743 0.22273 0.0
H1024 H 0.72628 0.55985 0.31242 0.0
H1025 H 0.83081 0.51732 0.2127 0.0
H1026 H 0.80174 0.59127 0.21095 0.0
H1027 H 0.71813 0.59839 0.30506 0.0
H1028 H 0.80678 0.50201 0.24497 0.0
H1029 H 0.66652 0.49079 0.31905 0.0
H1030 H 0.82416 0.55575 0.20256 0.0
H1031 H 0.77079 0.45378 0.21689 0.0
H1032 H 0.69215 0.507 0.29055 0.0
H1033 H 0.77731 0.41574 0.21828 0.0
H1034 H 0.7709 0.61329 0.23542 0.0
H1035 H 0.6715 0.4526 0.32352 0.0
H1036 H 0.69289 0.418 0.31076 0.0
H1037 H 0.73967 0.61612 0.2702 0.0
H1038 H 0.72329 0.3975 0.28407 0.0
N1039 N 0.7126 0.47857 0.27798 0.0
C1040 C 0.69509 0.49042 0.29175 0.0
C1041 C 0.68312 0.45967 0.31078 0.0
C1042 C 0.70083 0.44752 0.29665 0.0
C1043 C 0.68023 0.4812 0.30826 0.0
C1044 C 0.71551 0.45749 0.28018 0.0
H1045 H 0.7548 0.39646 0.2498 0.0
N1046 N 0.74627 0.45584 0.24906 0.0
C1047 C 0.76496 0.4239 0.23192 0.0
C1048 C 0.73285 0.44583 0.26542 0.0
C1049 C 0.76138 0.44543 0.23144 0.0
C1050 C 0.75222 0.4131 0.2497 0.0
C1051 C 0.73564 0.4241 0.26636 0.0
O1052 O 0.74319 0.48935 0.20924 0.0
O1053 O 0.74791 0.52167 0.24889 0.0
O1054 O 0.72396 0.5356 0.28712 0.0
O1055 O 0.71338 0.52306 0.25743 0.0
O1056 O 0.76037 0.50756 0.21706 0.0
O1057 O 0.71074 0.49917 0.23026 0.0
O1058 O 0.75417 0.52333 0.32329 0.0
O1059 O 0.74923 0.48952 0.28381 0.0
O1060 O 0.77252 0.47359 0.24904 0.0
O1061 O 0.78401 0.4878 0.27647 0.0
O1062 O 0.73923 0.5009 0.31711 0.0
O1063 O 0.78644 0.5127 0.30275 0.0
C1064 C 0.75853 0.52383 0.22697 0.0
C1065 C 0.71531 0.49547 0.18616 0.0
C1066 C 0.68667 0.50199 0.16362 0.0
C1067 C 0.69352 0.50095 0.18585 0.0
C1068 C 0.70154 0.4974 0.14184 0.0
C1069 C 0.73002 0.49078 0.1642 0.0
C1070 C 0.72312 0.49174 0.1422 0.0
C1071 C 0.71002 0.53627 0.27357 0.0
C1072 C 0.72299 0.49467 0.20904 0.0
C1073 C 0.72135 0.41415 0.2831 0.0
C1074 C 0.70401 0.42583 0.29823 0.0
C1075 C 0.73969 0.4858 0.30592 0.0
C1076 C 0.78178 0.52479 0.3424 0.0
C1077 C 0.80074 0.51267 0.35019 0.0
C1078 C 0.80628 0.51658 0.37113 0.0
C1079 C 0.79301 0.53306 0.38396 0.0
C1080 C 0.76881 0.54149 0.35514 0.0
C1081 C 0.77449 0.54558 0.37582 0.0
C1082 C 0.78692 0.47378 0.26148 0.0
C1083 C 0.77433 0.51745 0.32394 0.0
H1084 H 0.68198 0.50443 0.20265 0.0
H1085 H 0.69639 0.49793 0.12463 0.0
H1086 H 0.7469 0.48638 0.16397 0.0
H1087 H 0.73452 0.48805 0.1254 0.0
H1088 H 0.81075 0.49964 0.34062 0.0
H1089 H 0.79718 0.53644 0.40005 0.0
H1090 H 0.75402 0.55096 0.34962 0.0
H1091 H 0.76438 0.55828 0.38578 0.0
Eu1092 Eu 0.74085 0.74313 0.99273 0.0
C1093 C 0.7265 0.7692 0.09362 0.0
C1094 C 0.6972 0.80083 0.09196 0.0
C1095 C 0.70303 0.78007 0.13195 0.0
C1096 C 0.71486 0.7866 0.07968 0.0
C1097 C 0.72077 0.7661 0.11997 0.0
C1098 C 0.69133 0.79739 0.11801 0.0
C1099 C 0.75211 0.73714 0.12153 0.0
N1100 N 0.744 0.75605 0.08179 0.0
C1101 C 0.75746 0.74103 0.09559 0.0
C1102 C 0.73354 0.74954 0.13377 0.0
Eu1103 Eu 0.75341 0.76677 0.03809 0.0
N1104 N 0.72079 0.78983 0.05435 0.0
C1105 C 0.70927 0.8066 0.04043 0.0
C1106 C 0.6859 0.8183 0.07774 0.0
C1107 C 0.6919 0.82112 0.05189 0.0
H1108 H 0.77243 0.73178 0.08657 0.0
H1109 H 0.68299 0.83439 0.0407 0.0
H1110 H 0.67785 0.80818 0.12761 0.0
H1111 H 0.76255 0.7248 0.13208 0.0
H1112 H 0.71282 0.80889 0.02042 0.0
H1113 H 0.80792 0.67134 0.99593 0.0
H1114 H 0.67238 0.82959 0.08653 0.0
H1115 H 0.72696 0.77742 0.94178 0.0
H1116 H 0.7814 0.70063 1.01304 0.0
H1117 H 0.73731 0.78108 0.89635 0.0
H1118 H 0.6985 0.77787 0.1521 0.0
H1119 H 0.81694 0.6711 0.95046 0.0
H1120 H 0.81226 0.68965 0.90791 0.0
H1121 H 0.72962 0.74672 0.15396 0.0
H1122 H 0.79432 0.72007 0.88098 0.0
N1123 N 0.77168 0.71612 0.97845 0.0
C1124 C 0.78323 0.70034 0.99352 0.0
C1125 C 0.80437 0.68382 0.95804 0.0
C1126 C 0.79397 0.70075 0.94241 0.0
C1127 C 0.79919 0.68381 0.98368 0.0
C1128 C 0.77758 0.71696 0.9532 0.0
H1129 H 0.76698 0.75428 0.87649 0.0
N1130 N 0.75203 0.74974 0.94858 0.0
C1131 C 0.74619 0.76798 0.90777 0.0
C1132 C 0.76771 0.73433 0.93794 0.0
C1133 C 0.74062 0.76591 0.93373 0.0
C1134 C 0.76288 0.75281 0.89666 0.0
C1135 C 0.77363 0.73557 0.91166 0.0
O1136 O 0.71078 0.75697 0.97994 0.0
O1137 O 0.72612 0.76266 0.02474 0.0
O1138 O 0.75466 0.73191 0.05322 0.0
O1139 O 0.74584 0.71604 0.02495 0.0
O1140 O 0.71513 0.73686 0.0254 0.0
O1141 O 0.72739 0.72409 0.97732 0.0
O1142 O 0.78131 0.76179 0.05434 0.0
O1143 O 0.76732 0.74817 1.00584 0.0
O1144 O 0.74338 0.77668 0.97618 0.0
O1145 O 0.7481 0.79361 1.00606 0.0
O1146 O 0.78372 0.76792 1.00945 0.0
O1147 O 0.75882 0.79308 0.05018 0.0
C1148 C 0.71267 0.75244 0.03682 0.0
C1149 C 0.68967 0.73397 0.98281 0.0
C1150 C 0.66885 0.7088 0.99993 0.0
C1151 C 0.68855 0.71334 0.99271 0.0
C1152 C 0.65027 0.72491 0.99708 0.0
C1153 C 0.67092 0.7498 0.97972 0.0
C1154 C 0.65135 0.74527 0.9869 0.0
C1155 C 0.75101 0.7156 0.04677 0.0
C1156 C 0.71014 0.73921 0.97462 0.0
C1157 C 0.78968 0.71937 0.90106 0.0
C1158 C 0.7998 0.702 0.91639 0.0
C1159 C 0.78353 0.75493 0.99567 0.0
C1160 C 0.79172 0.79066 0.06133 0.0
C1161 C 0.80509 0.79864 0.04071 0.0
C1162 C 0.82059 0.80694 0.04483 0.0
C1163 C 0.82205 0.80765 0.06944 0.0
C1164 C 0.79348 0.79149 0.08564 0.0
C1165 C 0.80855 0.80002 0.08966 0.0
C1166 C 0.74533 0.79344 0.98334 0.0
C1167 C 0.77568 0.78119 0.05881 0.0
H1168 H 0.70285 0.70079 0.99472 0.0
H1169 H 0.63497 0.72157 1.00207 0.0
H1170 H 0.67142 0.76569 0.9716 0.0
H1171 H 0.637 0.75752 0.98431 0.0
H1172 H 0.80364 0.79818 0.02188 0.0
H1173 H 0.83353 0.81443 0.07303 0.0
H1174 H 0.78312 0.78551 0.10161 0.0
H1175 H 0.80977 0.80072 0.10848 0.0
Eu1176 Eu 0.48512 0.99416 0.53874 0.0
C1177 C 0.5308 0.99879 0.43062 0.0
C1178 C 0.56305 0.97055 0.4331 0.0
C1179 C 0.54893 0.9806 0.39478 0.0
C1180 C 0.5461 0.9861 0.44427 0.0
C1181 C 0.53234 0.99631 0.40559 0.0
C1182 C 0.56424 0.96779 0.40847 0.0
C1183 C 0.50231 0.0266 0.40243 0.0
N1184 N 0.51506 0.01421 0.4412 0.0
C1185 C 0.50161 0.02873 0.42702 0.0
C1186 C 0.5176 0.01018 0.39173 0.0
Eu1187 Eu 0.51643 0.01767 0.48236 0.0
N1188 N 0.54482 0.98916 0.46808 0.0
C1189 C 0.5599 0.97695 0.48162 0.0
C1190 C 0.57853 0.9583 0.44687 0.0
C1191 C 0.5769 0.96148 0.47123 0.0
H1192 H 0.48994 0.04182 0.43497 0.0
H1193 H 0.58872 0.95195 0.48212 0.0
H1194 H 0.57714 0.95594 0.3997 0.0
H1195 H 0.49122 0.0378 0.39165 0.0
H1196 H 0.55915 0.97864 0.50055 0.0
H1197 H 0.42095 0.06551 0.55683 0.0
H1198 H 0.59177 0.94629 0.43889 0.0
H1199 H 0.51073 0.95734 0.57885 0.0
H1200 H 0.44668 0.0406 0.53118 0.0
H1201 H 0.511 0.94916 0.6242 0.0
H1202 H 0.55031 0.97852 0.37562 0.0
H1203 H 0.41931 0.06008 0.60238 0.0
H1204 H 0.43306 0.0381 0.64005 0.0
H1205 H 0.51831 0.00873 0.37251 0.0
H1206 H 0.45763 0.00671 0.65833 0.0
N1207 N 0.46023 0.02046 0.5616 0.0
C1208 C 0.44638 0.03753 0.55097 0.0
C1209 C 0.43081 0.04888 0.59117 0.0
C1210 C 0.44475 0.03134 0.60209 0.0
C1211 C 0.43166 0.05198 0.56549 0.0
C1212 C 0.45948 0.01723 0.58664 0.0
H1213 H 0.48678 0.97361 0.65258 0.0
N1214 N 0.48737 0.98652 0.58157 0.0
C1215 C 0.50046 0.96352 0.61676 0.0
C1216 C 0.47346 0.99975 0.59691 0.0
C1217 C 0.50034 0.96822 0.59114 0.0
C1218 C 0.48677 0.97734 0.63272 0.0
C1219 C 0.4729 0.99562 0.62292 0.0
O1220 O 0.48241 0.9622 0.54807 0.0
O1221 O 0.50324 0.99101 0.5003 0.0
O1222 O 0.48734 0.01389 0.47267 0.0
O1223 O 0.46385 0.01196 0.51035 0.0
O1224 O 0.50978 0.96496 0.52582 0.0
O1225 O 0.45461 0.98785 0.54136 0.0
O1226 O 0.51562 0.04767 0.45906 0.0
O1227 O 0.49839 0.02105 0.52066 0.0
O1228 O 0.51533 0.99343 0.55025 0.0
O1229 O 0.53509 0.00832 0.51421 0.0
O1230 O 0.49406 0.04792 0.49589 0.0
O1231 O 0.54496 0.02882 0.47153 0.0
C1232 C 0.51298 0.97185 0.50223 0.0
C1233 C 0.44924 0.95527 0.56386 0.0
C1234 C 0.42685 0.93217 0.56796 0.0
C1235 C 0.43743 0.94668 0.55341 0.0
C1236 C 0.42795 0.92649 0.59344 0.0
C1237 C 0.45015 0.94977 0.58934 0.0
C1238 C 0.4394 0.93546 0.6041 0.0
C1239 C 0.46819 0.01459 0.48567 0.0
C1240 C 0.46243 0.96762 0.5467 0.0
C1241 C 0.45831 0.00962 0.63833 0.0
C1242 C 0.4443 0.02747 0.62793 0.0
C1243 C 0.48988 0.04046 0.5192 0.0
C1244 C 0.53981 0.06607 0.46019 0.0
C1245 C 0.55165 0.06759 0.47712 0.0
C1246 C 0.55568 0.08681 0.477 0.0
C1247 C 0.54806 0.10432 0.45983 0.0
C1248 C 0.53249 0.08371 0.44301 0.0
C1249 C 0.53659 0.10272 0.44288 0.0
C1250 C 0.53238 0.99951 0.53803 0.0
C1251 C 0.53534 0.04637 0.45898 0.0
H1252 H 0.43731 0.95057 0.53354 0.0
H1253 H 0.41994 0.91524 0.60505 0.0
H1254 H 0.45948 0.95612 0.5976 0.0
H1255 H 0.44023 0.93104 0.62372 0.0
H1256 H 0.55762 0.05406 0.49029 0.0
H1257 H 0.55133 0.11916 0.45928 0.0
H1258 H 0.52366 0.08274 0.42954 0.0
H1259 H 0.53097 0.1162 0.4295 0.0
Eu1260 Eu 0.48458 0.49389 0.0388 0.0
C1261 C 0.52833 0.50274 0.93076 0.0
C1262 C 0.5595 0.4733 0.93367 0.0
C1263 C 0.54617 0.48456 0.89484 0.0
C1264 C 0.54302 0.48931 0.94466 0.0
C1265 C 0.53019 0.50081 0.90546 0.0
C1266 C 0.56075 0.47082 0.90892 0.0
C1267 C 0.50204 0.53275 0.9018 0.0
N1268 N 0.51311 0.5185 0.9413 0.0
C1269 C 0.50089 0.5341 0.92679 0.0
C1270 C 0.51651 0.51583 0.89119 0.0
Eu1271 Eu 0.51323 0.52077 0.98325 0.0
N1272 N 0.54173 0.49228 0.96848 0.0
C1273 C 0.55658 0.47962 0.98213 0.0
C1274 C 0.57454 0.46041 0.94768 0.0
C1275 C 0.57307 0.46362 0.97198 0.0
H1276 H 0.48971 0.54745 0.93472 0.0
H1277 H 0.58461 0.45368 0.98303 0.0
H1278 H 0.57326 0.45858 0.9003 0.0
H1279 H 0.49183 0.54484 0.89073 0.0
H1280 H 0.55593 0.48123 1.00105 0.0
H1281 H 0.41132 0.55752 0.05626 0.0
H1282 H 0.58739 0.448 0.93988 0.0
H1283 H 0.5114 0.45984 0.08012 0.0
H1284 H 0.44087 0.53606 0.03068 0.0
H1285 H 0.51183 0.45381 0.12534 0.0
H1286 H 0.54772 0.48282 0.87552 0.0
H1287 H 0.40981 0.55401 0.10158 0.0
H1288 H 0.42611 0.53631 0.13896 0.0
H1289 H 0.51751 0.5149 0.87173 0.0
H1290 H 0.45377 0.50871 0.15761 0.0
N1291 N 0.45656 0.5187 0.06098 0.0
C1292 C 0.44068 0.53334 0.05039 0.0
C1293 C 0.42294 0.54405 0.09042 0.0
C1294 C 0.43911 0.52925 0.10128 0.0
C1295 C 0.42368 0.546 0.0649 0.0
C1296 C 0.45582 0.51649 0.08597 0.0
H1297 H 0.4857 0.47797 0.15274 0.0
N1298 N 0.48644 0.48803 0.0817 0.0
C1299 C 0.50048 0.46722 0.11748 0.0
C1300 C 0.47134 0.50088 0.09655 0.0
C1301 C 0.50028 0.47076 0.09191 0.0
C1302 C 0.48572 0.4809 0.13286 0.0
C1303 C 0.47063 0.49771 0.12258 0.0
O1304 O 0.48493 0.46105 0.04985 0.0
O1305 O 0.50102 0.49303 0.99941 0.0
O1306 O 0.48287 0.52049 0.97278 0.0
O1307 O 0.46302 0.50947 1.01066 0.0
O1308 O 0.50992 0.46617 0.02343 0.0
O1309 O 0.45607 0.48418 0.04089 0.0
O1310 O 0.51203 0.55192 0.96271 0.0
O1311 O 0.496 0.52212 0.02223 0.0
O1312 O 0.51441 0.49462 0.0501 0.0
O1313 O 0.53264 0.51145 1.01446 0.0
O1314 O 0.4894 0.54933 0.99907 0.0
O1315 O 0.54168 0.532 0.97312 0.0
C1316 C 0.51134 0.47404 1.00012 0.0
C1317 C 0.45287 0.45124 0.06404 0.0
C1318 C 0.43093 0.42799 0.06709 0.0
C1319 C 0.44087 0.44316 0.05322 0.0
C1320 C 0.43263 0.42124 0.0923 0.0
C1321 C 0.45436 0.44473 0.08929 0.0
C1322 C 0.4441 0.42981 0.10341 0.0
C1323 C 0.46514 0.51691 0.98658 0.0
C1324 C 0.46538 0.46445 0.04739 0.0
C1325 C 0.4545 0.51088 0.13764 0.0
C1326 C 0.43874 0.52657 0.12702 0.0
C1327 C 0.48633 0.54123 0.0223 0.0
C1328 C 0.53673 0.5693 0.9657 0.0
C1329 C 0.55342 0.56807 0.97759 0.0
C1330 C 0.55902 0.58632 0.97799 0.0
C1331 C 0.54788 0.6058 0.96676 0.0
C1332 C 0.52575 0.58896 0.9545 0.0
C1333 C 0.53126 0.60709 0.95515 0.0
C1334 C 0.53084 0.50168 0.03789 0.0
C1335 C 0.53184 0.55033 0.96241 0.0
H1336 H 0.44014 0.44793 0.03353 0.0
H1337 H 0.42512 0.40939 0.10331 0.0
H1338 H 0.46375 0.45077 0.09783 0.0
H1339 H 0.44538 0.42459 0.12284 0.0
H1340 H 0.56232 0.55305 0.98597 0.0
H1341 H 0.55218 0.61998 0.96686 0.0
H1342 H 0.51315 0.59027 0.94478 0.0
H1343 H 0.52282 0.62212 0.94632 0.0
H1344 H 0.95339 0.06688 0.0548 0.0
H1345 H 0.95894 0.08574 0.08487 0.0
H1346 H 0.02646 0.06183 0.06295 0.0
H1347 H 0.02085 0.0428 0.03344 0.0
H1348 H 0.98744 0.06805 0.12654 0.0
H1349 H 0.01117 0.12852 0.05003 0.0
H1350 H 0.99538 0.11248 0.04612 0.0
H1351 H 0.02306 0.10129 0.04662 0.0
C1352 C 0.9693 0.06486 0.05726 0.0
C1353 C 0.98659 0.05202 0.04314 0.0
C1354 C 0.97251 0.07588 0.07418 0.0
C1355 C 0.99312 0.07486 0.07649 0.0
C1356 C 0.01042 0.06255 0.06184 0.0
H1357 H 0.02952 0.16225 0.14165 0.0
H1358 H 0.03295 0.13059 0.12429 0.0
C1359 C 0.00717 0.05144 0.0452 0.0
C1360 C 0.9966 0.08785 0.09282 0.0
H1361 H 0.01056 0.13269 0.09091 0.0
C1362 C 0.99253 0.08217 0.11882 0.0
C1363 C 0.00374 0.10596 0.08267 0.0
C1364 C 0.00855 0.11261 0.05484 0.0
C1365 C 0.99502 0.09443 0.13499 0.0
C1366 C 0.00111 0.11318 0.12487 0.0
C1367 C 0.00586 0.11838 0.09879 0.0
C1368 C 0.00101 0.12866 0.14058 0.0
C1369 C 0.99132 0.08703 0.16269 0.0
C1370 C 0.98231 0.13759 0.15657 0.0
C1371 C 0.98051 0.15547 0.16682 0.0
C1372 C 0.99732 0.1648 0.16118 0.0
C1373 C 0.01653 0.15503 0.14674 0.0
C1374 C 0.01839 0.13707 0.13661 0.0
H1375 H 0.99475 0.06964 0.16668 0.0
H1376 H 0.00127 0.09213 0.1722 0.0
H1377 H 0.97443 0.09365 0.17072 0.0
H1378 H 0.96849 0.13182 0.1595 0.0
H1379 H 0.96536 0.16309 0.1773 0.0
H1380 H 0.82639 0.2203 0.4932 0.0
H1381 H 0.8561 0.22108 0.45829 0.0
H1382 H 0.81478 0.26965 0.41548 0.0
H1383 H 0.78508 0.26926 0.45083 0.0
H1384 H 0.86529 0.21326 0.4114 0.0
H1385 H 0.86172 0.29692 0.40673 0.0
H1386 H 0.84659 0.28334 0.43218 0.0
H1387 H 0.83768 0.29277 0.40285 0.0
C1388 C 0.82353 0.23111 0.47632 0.0
C1389 C 0.80308 0.24454 0.47502 0.0
C1390 C 0.84067 0.23156 0.45619 0.0
C1391 C 0.83823 0.2457 0.43394 0.0
C1392 C 0.81762 0.25888 0.43237 0.0
H1393 H 0.93558 0.26886 0.29857 0.0
H1394 H 0.90186 0.26882 0.32774 0.0
C1395 C 0.8004 0.25843 0.4526 0.0
C1396 C 0.85727 0.24638 0.41283 0.0
H1397 H 0.88707 0.2786 0.37604 0.0
C1398 C 0.86993 0.22763 0.40377 0.0
C1399 C 0.86376 0.265 0.40234 0.0
C1400 C 0.85189 0.28563 0.41162 0.0
C1401 C 0.8884 0.22694 0.38504 0.0
C1402 C 0.89511 0.24545 0.37486 0.0
C1403 C 0.88225 0.26431 0.3835 0.0
C1404 C 0.91579 0.24527 0.35626 0.0
C1405 C 0.90045 0.2062 0.37615 0.0
C1406 C 0.93531 0.23222 0.36204 0.0
C1407 C 0.9546 0.23217 0.34529 0.0
C1408 C 0.95529 0.24508 0.32191 0.0
C1409 C 0.93581 0.25831 0.31605 0.0
C1410 C 0.91642 0.25841 0.33295 0.0
H1411 H 0.88996 0.19576 0.37871 0.0
H1412 H 0.90795 0.20837 0.35619 0.0
H1413 H 0.9131 0.19815 0.38724 0.0
H1414 H 0.93575 0.22223 0.3799 0.0
H1415 H 0.96916 0.22204 0.3508 0.0
H1416 H 0.78514 0.02906 0.682 0.0
H1417 H 0.78391 0.06198 0.65334 0.0
H1418 H 0.73249 0.09455 0.70557 0.0
H1419 H 0.73441 0.06176 0.73465 0.0
H1420 H 0.75575 0.08547 0.62846 0.0
H1421 H 0.76501 0.13648 0.68873 0.0
H1422 H 0.76937 0.10856 0.69777 0.0
H1423 H 0.74291 0.12576 0.70188 0.0
C1424 C 0.77388 0.04335 0.68762 0.0
C1425 C 0.76012 0.04269 0.71088 0.0
C1426 C 0.77307 0.06226 0.67107 0.0
C1427 C 0.75827 0.08121 0.67702 0.0
C1428 C 0.74455 0.08057 0.70044 0.0
H1429 H 0.71815 0.20281 0.58155 0.0
H1430 H 0.71956 0.17117 0.61296 0.0
C1431 C 0.74557 0.06165 0.71717 0.0
C1432 C 0.7566 0.1011 0.65812 0.0
H1433 H 0.75448 0.15351 0.65001 0.0
C1434 C 0.75561 0.10024 0.63333 0.0
C1435 C 0.75634 0.12073 0.66397 0.0
C1436 C 0.75866 0.12296 0.68946 0.0
C1437 C 0.75429 0.11809 0.61469 0.0
C1438 C 0.75387 0.13761 0.62064 0.0
C1439 C 0.75469 0.13864 0.64534 0.0
C1440 C 0.75297 0.15695 0.60132 0.0
C1441 C 0.75324 0.11607 0.58859 0.0
C1442 C 0.77125 0.15976 0.58419 0.0
C1443 C 0.77054 0.1781 0.56654 0.0
C1444 C 0.75144 0.19391 0.56514 0.0
C1445 C 0.73309 0.19094 0.58199 0.0
C1446 C 0.73389 0.17282 0.60002 0.0
H1447 H 0.7513 0.10057 0.58744 0.0
H1448 H 0.73985 0.12863 0.58195 0.0
H1449 H 0.76804 0.1181 0.57581 0.0
H1450 H 0.78617 0.14785 0.58469 0.0
H1451 H 0.78499 0.17994 0.554 0.0
H1452 H 0.96872 0.01953 0.93706 0.0
H1453 H 0.94524 0.01232 0.91496 0.0
H1454 H 0.90004 0.00778 0.98341 0.0
H1455 H 0.92343 0.0152 1.00593 0.0
H1456 H 0.91368 0.9719 0.9535 0.0
H1457 H 0.88649 0.05135 0.89999 0.0
H1458 H 0.91443 0.04149 0.9002 0.0
H1459 H 0.89628 0.04736 0.92862 0.0
C1460 C 0.95354 0.01776 0.94739 0.0
C1461 C 0.94796 0.01812 0.97329 0.0
C1462 C 0.94026 0.01334 0.93473 0.0
C1463 C 0.9211 0.0094 0.94769 0.0
C1464 C 0.91493 0.01064 0.97326 0.0
H1465 H 0.8116 1.00155 0.91398 0.0
H1466 H 0.84245 0.99109 0.93429 0.0
C1467 C 0.92823 0.01507 0.98599 0.0
C1468 C 0.90764 1.00374 0.93447 0.0
H1469 H 0.87575 0.02405 0.89133 0.0
C1470 C 0.90538 0.98321 0.93983 0.0
C1471 C 0.8971 0.01858 0.91664 0.0
C1472 C 0.8985 0.04099 0.91103 0.0
C1473 C 0.89239 0.97726 0.92788 0.0
C1474 C 0.88168 0.99223 0.9103 0.0
C1475 C 0.88438 0.01255 0.90458 0.0
C1476 C 0.86526 0.98862 0.8998 0.0
C1477 C 0.88998 0.95525 0.93412 0.0
C1478 C 0.86811 0.98935 0.87391 0.0
C1479 C 0.85052 0.99518 0.86234 0.0
C1480 C 0.83009 1.00057 0.87665 0.0
C1481 C 0.82731 0.99745 0.90274 0.0
C1482 C 0.84488 0.9913 0.91432 0.0
H1483 H 0.90172 0.94466 0.94537 0.0
H1484 H 0.87383 0.95557 0.94489 0.0
H1485 H 0.8918 0.94874 0.91673 0.0
H1486 H 0.88376 0.9876 0.86247 0.0
H1487 H 0.85287 0.9976 0.84215 0.0
H1488 H 0.01629 0.01449 0.08662 0.0
H1489 H 0.03978 0.01969 0.11047 0.0
H1490 H 0.09394 0.98841 0.05991 0.0
H1491 H 0.07025 0.98528 0.03437 0.0
H1492 H 0.06527 0.99706 0.13643 0.0
H1493 H 0.1124 0.03796 0.05888 0.0
H1494 H 0.08917 0.03197 0.05505 0.0
H1495 H 0.11454 0.01258 0.05203 0.0
C1496 C 0.03325 0.00877 0.08056 0.0
C1497 C 0.04157 0.99967 0.05856 0.0
C1498 C 0.04667 0.01175 0.09423 0.0
C1499 C 0.06872 0.00498 0.08669 0.0
C1500 C 0.07703 0.99466 0.0655 0.0
H1501 H 0.1628 0.97322 0.17537 0.0
H1502 H 0.13015 0.97791 0.16043 0.0
C1503 C 0.06355 0.99255 0.05113 0.0
C1504 C 0.08286 0.00839 0.10135 0.0
H1505 H 0.12787 0.02331 0.09562 0.0
C1506 C 0.07876 1.00313 0.12747 0.0
C1507 C 0.10009 0.017 0.08995 0.0
C1508 C 0.10412 0.02543 0.06248 0.0
C1509 C 0.09196 0.00528 0.14228 0.0
C1510 C 0.11036 0.0118 0.13059 0.0
C1511 C 0.11391 0.01801 0.10464 0.0
C1512 C 0.12718 0.01051 0.14429 0.0
C1513 C 0.08594 1.00063 0.17028 0.0
C1514 C 0.13625 0.02732 0.14058 0.0
C1515 C 0.15511 0.02447 0.14874 0.0
C1516 C 0.16492 0.00489 0.16101 0.0
C1517 C 0.15513 0.98856 0.16638 0.0
C1518 C 0.13644 0.9913 0.15792 0.0
H1519 H 0.06845 0.00444 0.17625 0.0
H1520 H 0.09239 0.98362 0.17639 0.0
H1521 H 0.0922 0.00964 0.17989 0.0
H1522 H 0.12944 0.04224 0.13004 0.0
H1523 H 0.16273 0.0371 0.14413 0.0
H1524 H 0.036 0.43223 0.49758 0.0
H1525 H 0.03464 0.41076 0.46754 0.0
H1526 H 0.97765 0.45621 0.44938 0.0
H1527 H 0.97984 0.47751 0.47783 0.0
H1528 H 0.00493 0.39231 0.46988 0.0
H1529 H 0.00665 0.44683 0.38075 0.0
H1530 H 0.01335 0.45215 0.40787 0.0
H1531 H 0.98606 0.45741 0.40521 0.0
C1532 C 0.02367 0.43792 0.48645 0.0
C1533 C 0.00849 0.45721 0.48941 0.0
C1534 C 0.02278 0.4256 0.46942 0.0
C1535 C 0.0063 0.43205 0.45555 0.0
C1536 C 0.9911 0.4512 0.45875 0.0
H1537 H 0.9751 0.33657 0.39574 0.0
H1538 H 0.96982 0.3672 0.41628 0.0
C1539 C 0.99238 0.4636 0.47519 0.0
C1540 C 0.00379 0.41798 0.43966 0.0
H1541 H 0.99711 0.41554 0.38135 0.0
C1542 C 0.00336 0.39739 0.45048 0.0
C1543 C 0.00133 0.42467 0.4144 0.0
C1544 C 0.00205 0.44641 0.40131 0.0
C1545 C 0.00104 0.38321 0.43677 0.0
C1546 C -0.00132 0.38983 0.41152 0.0
C1547 C -0.00128 0.41053 0.40075 0.0
C1548 C -0.00133 0.37471 0.39545 0.0
C1549 C 0.00189 0.361 0.44929 0.0
C1550 C 0.01572 0.36972 0.3757 0.0
C1551 C 0.01856 0.35247 0.3638 0.0
C1552 C 0.00426 0.34006 0.37124 0.0
C1553 C 0.98618 0.34609 0.38949 0.0
C1554 C 0.98332 0.36341 0.4014 0.0
H1555 H 0.00806 0.35734 0.46698 0.0
H1556 H 0.98569 0.35886 0.45376 0.0
H1557 H 0.01206 0.34952 0.43678 0.0
H1558 H 0.02772 0.37822 0.37069 0.0
H1559 H 0.03274 0.34792 0.35001 0.0
H1560 H 0.71153 0.23986 0.58239 0.0
H1561 H 0.68127 0.23932 0.61713 0.0
H1562 H 0.64019 0.28563 0.57197 0.0
H1563 H 0.67017 0.28592 0.53744 0.0
H1564 H 0.65228 0.26625 0.64643 0.0
H1565 H 0.60786 0.24253 0.591 0.0
H1566 H 0.63514 0.24276 0.58 0.0
H1567 H 0.61417 0.26658 0.5762 0.0
C1568 C 0.69609 0.25007 0.57993 0.0
C1569 C 0.69353 0.26293 0.55682 0.0
C1570 C 0.67862 0.24972 0.59992 0.0
C1571 C 0.65787 0.26198 0.5974 0.0
C1572 C 0.65559 0.2754 0.57461 0.0
H1573 H 0.5276 0.28703 0.68114 0.0
H1574 H 0.56131 0.28595 0.65237 0.0
C1575 C 0.67296 0.27573 0.55475 0.0
C1576 C 0.63859 0.26072 0.61806 0.0
H1577 H 0.58797 0.25532 0.6288 0.0
C1578 C 0.63832 0.26367 0.64252 0.0
C1579 C 0.62011 0.25708 0.61366 0.0
C1580 C 0.61937 0.25182 0.58888 0.0
C1581 C 0.62016 0.26409 0.66187 0.0
C1582 C 0.60136 0.26134 0.65713 0.0
C1583 C 0.60192 0.2578 0.63285 0.0
C1584 C 0.58076 0.26276 0.6764 0.0
C1585 C 0.62106 0.26836 0.68703 0.0
C1586 C 0.57972 0.2503 0.70022 0.0
C1587 C 0.56013 0.25101 0.71701 0.0
C1588 C 0.54082 0.26424 0.71063 0.0
C1589 C 0.54198 0.2768 0.68701 0.0
C1590 C 0.56143 0.2761 0.67034 0.0
H1591 H 0.6342 0.27536 0.68608 0.0
H1592 H 0.60595 0.27915 0.69476 0.0
H1593 H 0.62364 0.2534 0.70006 0.0
H1594 H 0.59396 0.23939 0.70562 0.0
H1595 H 0.56005 0.24069 0.73466 0.0
H1596 H 0.70964 0.97751 0.84756 0.0
H1597 H 0.7108 0.94433 0.87603 0.0
H1598 H 0.76566 0.91305 0.82681 0.0
H1599 H 0.76419 0.94611 0.79801 0.0
H1600 H 0.71218 0.90087 0.86573 0.0
H1601 H 0.7825 0.90427 0.89904 0.0
H1602 H 0.76551 0.92723 0.88388 0.0
H1603 H 0.78387 0.90798 0.86578 0.0
C1604 C 0.72173 0.96347 0.84257 0.0
C1605 C 0.73666 0.96453 0.82027 0.0
C1606 C 0.72242 0.94447 0.85893 0.0
C1607 C 0.73844 0.92606 0.85386 0.0
C1608 C 0.75317 0.92695 0.83135 0.0
H1609 H 0.76127 0.79638 0.93299 0.0
H1610 H 0.75955 0.82799 0.90175 0.0
C1611 C 0.75224 0.9459 0.81473 0.0
C1612 C 0.74009 0.90625 0.87251 0.0
H1613 H 0.76943 0.87464 0.91569 0.0
C1614 C 0.72475 0.89513 0.87655 0.0
C1615 C 0.75637 0.89867 0.88694 0.0
C1616 C 0.77299 0.91013 0.88395 0.0
C1617 C 0.72543 0.8767 0.89424 0.0
C1618 C 0.74166 0.86916 0.90867 0.0
C1619 C 0.75695 0.88031 0.90472 0.0
C1620 C 0.74288 0.84979 0.92794 0.0
C1621 C 0.70864 0.86537 0.89771 0.0
C1622 C 0.73436 0.85129 0.95332 0.0
C1623 C 0.73542 0.83314 0.97134 0.0
C1624 C 0.74476 0.81294 0.96443 0.0
C1625 C 0.75344 0.81154 0.93901 0.0
C1626 C 0.75261 0.82968 0.92107 0.0
H1627 H 0.69719 0.87294 0.8849 0.0
H1628 H 0.71618 0.84886 0.89439 0.0
H1629 H 0.69987 0.86498 0.91726 0.0
H1630 H 0.72675 0.86656 0.9592 0.0
H1631 H 0.72856 0.83494 0.99064 0.0
H1632 H 0.16761 0.27987 0.03453 0.0
H1633 H 0.13775 0.2792 0.06938 0.0
H1634 H 0.18102 0.24276 0.11805 0.0
H1635 H 0.21087 0.24261 0.08276 0.0
H1636 H 0.12548 0.24279 0.09996 0.0
H1637 H 0.14201 0.29102 0.15867 0.0
H1638 H 0.15225 0.29239 0.12554 0.0
H1639 H 0.16379 0.27027 0.14663 0.0
C1640 C 0.17091 0.27183 0.05267 0.0
C1641 C 0.19206 0.26178 0.05563 0.0
C1642 C 0.15365 0.27143 0.07277 0.0
C1643 C 0.1567 0.2612 0.0969 0.0
C1644 C 0.17785 0.25117 0.1 0.0
H1645 H 0.05933 0.24289 0.23551 0.0
H1646 H 0.09336 0.24229 0.20653 0.0
C1647 C 0.19512 0.25121 0.07969 0.0
C1648 C 0.13774 0.26041 0.11816 0.0
H1649 H 0.11236 0.2775 0.1746 0.0
C1650 C 0.12277 0.25037 0.11624 0.0
C1651 C 0.13381 0.27007 0.13987 0.0
C1652 C 0.14867 0.28169 0.14298 0.0
C1653 C 0.1044 0.24979 0.13489 0.0
C1654 C 0.10013 0.25994 0.15625 0.0
C1655 C 0.1153 0.26965 0.15849 0.0
C1656 C 0.07947 0.26155 0.1753 0.0
C1657 C 0.08965 0.23806 0.13167 0.0
C1658 C 0.05995 0.27297 0.16822 0.0
C1659 C 0.04053 0.2737 0.18497 0.0
C1660 C 0.0396 0.26301 0.20965 0.0
C1661 C 0.05916 0.25175 0.217 0.0
C1662 C 0.07876 0.25128 0.20023 0.0
H1663 H 0.09739 0.22698 0.11788 0.0
H1664 H 0.08399 0.22913 0.14973 0.0
H1665 H 0.07563 0.24947 0.12496 0.0
H1666 H 0.05967 0.28123 0.14941 0.0
H1667 H 0.026 0.28242 0.17831 0.0
H1668 H 0.70968 0.47564 0.34474 0.0
H1669 H 0.71089 0.44215 0.37227 0.0
H1670 H 0.77146 0.41421 0.32934 0.0
H1671 H 0.76955 0.44741 0.30078 0.0
H1672 H 0.74807 0.38536 0.34611 0.0
H1673 H 0.74589 0.42339 0.4261 0.0
H1674 H 0.72404 0.43604 0.41024 0.0
H1675 H 0.75055 0.4359 0.39421 0.0
C1676 C 0.72308 0.46227 0.34086 0.0
C1677 C 0.73941 0.46438 0.32035 0.0
C1678 C 0.72392 0.44308 0.35688 0.0
C1679 C 0.74161 0.42553 0.35369 0.0
C1680 C 0.75763 0.42734 0.33258 0.0
H1681 H 0.77114 0.3201 0.47653 0.0
H1682 H 0.77129 0.35137 0.44477 0.0
C1683 C 0.75651 0.44645 0.31611 0.0
C1684 C 0.74363 0.40586 0.37293 0.0
H1685 H 0.74205 0.38876 0.43573 0.0
C1686 C 0.74679 0.38618 0.36567 0.0
C1687 C 0.74253 0.40644 0.39861 0.0
C1688 C 0.74079 0.42651 0.4078 0.0
C1689 C 0.74806 0.36755 0.38322 0.0
C1690 C 0.74586 0.36837 0.40906 0.0
C1691 C 0.74345 0.3879 0.41616 0.0
C1692 C 0.74568 0.3493 0.42894 0.0
C1693 C 0.75213 0.34702 0.37379 0.0
C1694 C 0.73088 0.33779 0.43156 0.0
C1695 C 0.73068 0.32001 0.44984 0.0
C1696 C 0.74528 0.31296 0.46627 0.0
C1697 C 0.75966 0.32487 0.46428 0.0
C1698 C 0.75982 0.34279 0.44595 0.0
H1699 H 0.75976 0.34782 0.35378 0.0
H1700 H 0.76238 0.33394 0.3847 0.0
H1701 H 0.73682 0.34337 0.37565 0.0
H1702 H 0.71924 0.34267 0.41953 0.0
H1703 H 0.71883 0.31189 0.45121 0.0
H1704 H 0.57269 1.00326 0.52125 0.0
H1705 H 0.59576 0.00895 0.54565 0.0
H1706 H 0.54847 0.00471 0.6123 0.0
H1707 H 0.52579 0.99818 0.58846 0.0
H1708 H 0.5882 0.04109 0.57211 0.0
H1709 H 0.60051 0.96472 0.63483 0.0
H1710 H 0.58898 0.96924 0.60742 0.0
H1711 H 0.57316 0.97872 0.63567 0.0
C1712 C 0.56741 1.0031 0.54119 0.0
C1713 C 0.54752 1.00005 0.55294 0.0
C1714 C 0.5805 0.00653 0.55504 0.0
C1715 C 0.57383 0.0071 0.58076 0.0
C1716 C 0.55409 1.00387 0.59257 0.0
H1717 H 0.64611 0.01136 0.68773 0.0
H1718 H 0.61489 0.02347 0.66775 0.0
C1719 C 0.54117 1.00008 0.57886 0.0
C1720 C 0.58744 0.01139 0.59517 0.0
H1721 H 0.61415 0.99018 0.64325 0.0
C1722 C 0.59383 0.03002 0.58775 0.0
C1723 C 0.59457 0.99697 0.61565 0.0
C1724 C 0.58913 0.97622 0.62375 0.0
C1725 C 0.60772 0.03432 0.59992 0.0
C1726 C 0.61517 0.01967 0.61999 0.0
C1727 C 0.60806 1.00153 0.62805 0.0
C1728 C 0.63293 0.02061 0.63042 0.0
C1729 C 0.61469 0.05418 0.59094 0.0
C1730 C 0.65328 0.01601 0.6158 0.0
C1731 C 0.67099 0.00872 0.62719 0.0
C1732 C 0.66847 0.00626 0.65324 0.0
C1733 C 0.6483 0.0132 0.66758 0.0
C1734 C 0.63053 0.0202 0.65621 0.0
H1735 H 0.60299 0.06643 0.58097 0.0
H1736 H 0.61697 0.06046 0.60672 0.0
H1737 H 0.63003 0.0507 0.57777 0.0
H1738 H 0.6554 0.01593 0.59592 0.0
H1739 H 0.68651 1.00353 0.61588 0.0
H1740 H 0.98885 0.98465 0.96352 0.0
H1741 H 0.9856 0.962 0.93692 0.0
H1742 H 0.03018 0.91017 0.97178 0.0
H1743 H 0.03222 0.93283 0.99991 0.0
H1744 H 0.00912 0.9402 0.90297 0.0
H1745 H 0.98274 0.88433 0.9824 0.0
H1746 H 0.9857 0.90896 0.98657 0.0
H1747 H 0.00837 0.88645 0.98339 0.0
C1748 C -0.00194 0.96854 0.96556 0.0
C1749 C 0.01055 0.96057 0.9842 0.0
C1750 C 0.99621 0.95548 0.95018 0.0
C1751 C 0.0071 0.93409 0.95273 0.0
C1752 C 0.0209 0.9264 0.97005 0.0
H1753 H 0.03143 0.84418 0.85328 0.0
H1754 H 0.02894 0.87559 0.87051 0.0
C1755 C 0.02232 0.93942 0.98591 0.0
C1756 C 0.00357 0.91988 0.93769 0.0
H1757 H 0.99211 0.87316 0.9424 0.0
C1758 C 0.00531 0.92559 0.91166 0.0
C1759 C 0.99775 0.90114 0.94891 0.0
C1760 C 0.99327 0.89498 0.97686 0.0
C1761 C 0.00236 0.91269 0.89659 0.0
C1762 C -0.00178 0.8932 0.90766 0.0
C1763 C 0.99561 0.88793 0.93375 0.0
C1764 C 0.99763 0.8774 0.89276 0.0
C1765 C 0.00339 0.92023 0.86902 0.0
C1766 C 0.98064 0.86822 0.89878 0.0
C1767 C 0.98209 0.85025 0.8889 0.0
C1768 C 0.00051 0.84116 0.8727 0.0
C1769 C 0.01683 0.85122 0.86517 0.0
C1770 C 0.01542 0.86917 0.87512 0.0
H1771 H -0.00071 0.93764 0.865 0.0
H1772 H 0.01976 0.91407 0.85902 0.0
H1773 H 0.99248 0.91466 0.86152 0.0
H1774 H 0.96676 0.87417 0.91236 0.0
H1775 H 0.96951 0.84251 0.89542 0.0
H1776 H 0.05755 0.09153 1.01424 0.0
H1777 H 0.07868 0.10395 0.03538 0.0
H1778 H 0.1303 0.0948 0.97265 0.0
H1779 H 0.10912 0.08286 0.95128 0.0
H1780 H 0.12821 0.08801 0.04295 0.0
H1781 H 0.1007 0.16107 0.97815 0.0
H1782 H 0.087 0.14078 0.98692 0.0
H1783 H 0.11144 0.13708 0.96482 0.0
C1784 C 0.07364 0.09164 1.00537 0.0
C1785 C 0.08175 0.0866 0.9811 0.0
C1786 C 0.08569 0.09854 0.0175 0.0
C1787 C 0.10598 0.10015 1.00551 0.0
C1788 C 0.11469 0.09347 0.98215 0.0
H1789 H 0.19378 0.16379 0.99962 0.0
H1790 H 0.17976 0.13311 1.01121 0.0
C1791 C 0.10257 0.08689 0.9699 0.0
C1792 C 0.11624 0.11277 1.01455 0.0
H1793 H 0.12615 0.16065 1.00086 0.0
C1794 C 0.12767 0.10396 0.03402 0.0
C1795 C 0.11523 0.13357 1.00287 0.0
C1796 C 0.10284 0.14383 0.98213 0.0
C1797 C 0.13885 0.11545 0.04151 0.0
C1798 C 0.13831 0.13598 0.02921 0.0
C1799 C 0.12637 0.14486 1.01029 0.0
C1800 C 0.15078 0.14873 0.03397 0.0
C1801 C 0.15135 0.10573 0.06211 0.0
C1802 C 0.13981 0.16702 0.04458 0.0
C1803 C 0.1477 0.18459 0.03783 0.0
C1804 C 0.1666 0.18394 0.02044 0.0
C1805 C 0.17915 0.16464 1.01306 0.0
C1806 C 0.17122 0.14705 0.0198 0.0
H1807 H 0.14862 0.09035 0.07139 0.0
H1808 H 0.16849 0.10344 0.0543 0.0
H1809 H 0.14702 0.1165 0.07625 0.0
H1810 H 0.12393 0.16862 0.05534 0.0
H1811 H 0.13789 0.19931 0.04391 0.0
H1812 H 0.69077 0.55945 0.31184 0.0
H1813 H 0.65981 0.59 0.31267 0.0
H1814 H 0.65406 0.5835 0.23938 0.0
H1815 H 0.68495 0.55297 0.23841 0.0
H1816 H 0.65396 0.6279 0.27996 0.0
H1817 H 0.59446 0.58679 0.27911 0.0
H1818 H 0.62043 0.57296 0.28599 0.0
H1819 H 0.61693 0.58235 0.25421 0.0
C1820 C 0.68292 0.56452 0.29589 0.0
C1821 C 0.69035 0.55377 0.27505 0.0
C1822 C 0.66519 0.58196 0.29643 0.0
C1823 C 0.65445 0.58891 0.27621 0.0
C1824 C 0.6618 0.57817 0.25542 0.0
H1825 H 0.54718 0.6905 0.23762 0.0
H1826 H 0.57784 0.65984 0.23916 0.0
C1827 C 0.67947 0.5607 0.2549 0.0
C1828 C 0.63583 0.60766 0.27659 0.0
H1829 H 0.58342 0.62406 0.27246 0.0
C1830 C 0.63849 0.62707 0.27849 0.0
C1831 C 0.61567 0.60654 0.27464 0.0
C1832 C 0.61158 0.58602 0.2736 0.0
C1833 C 0.62167 0.64549 0.2778 0.0
C1834 C 0.60152 0.64439 0.27567 0.0
C1835 C 0.59885 0.62493 0.27401 0.0
C1836 C 0.583 0.66321 0.27485 0.0
C1837 C 0.62583 0.66605 0.27859 0.0
C1838 C 0.57541 0.67516 0.29459 0.0
C1839 C 0.55785 0.69271 0.29376 0.0
C1840 C 0.54741 0.69863 0.27324 0.0
C1841 C 0.55478 0.68638 0.25375 0.0
C1842 C 0.57238 0.66887 0.25455 0.0
H1843 H 0.64298 0.66518 0.27317 0.0
H1844 H 0.61711 0.67903 0.26601 0.0
H1845 H 0.6204 0.66991 0.29789 0.0
H1846 H 0.58291 0.67077 0.31081 0.0
H1847 H 0.5523 0.70143 0.30938 0.0
H1848 H 0.30504 0.84547 0.51585 0.0
H1849 H 0.32225 0.87375 0.49928 0.0
H1850 H 0.38302 0.82951 0.50559 0.0
H1851 H 0.36603 0.80135 0.52072 0.0
H1852 H 0.33694 0.8813 0.53363 0.0
H1853 H 0.40311 0.87192 0.45423 0.0
H1854 H 0.38307 0.85809 0.45919 0.0
H1855 H 0.40594 0.84718 0.47406 0.0
C1856 C 0.32218 0.84163 0.5121 0.0
C1857 C 0.33425 0.82144 0.52013 0.0
C1858 C 0.33203 0.85782 0.50271 0.0
C1859 C 0.35393 0.85391 0.50156 0.0
C1860 C 0.3662 0.83307 0.50594 0.0
H1861 H 0.42994 0.89055 0.57109 0.0
H1862 H 0.41203 0.87476 0.54952 0.0
C1863 C 0.35642 0.81692 0.51492 0.0
C1864 C 0.36271 0.87097 0.50372 0.0
H1865 H 0.40902 0.88516 0.49008 0.0
C1866 C 0.35235 0.88272 0.52337 0.0
C1867 C 0.38291 0.87279 0.49063 0.0
C1868 C 0.39421 0.86192 0.4682 0.0
C1869 C 0.36238 0.89464 0.5317 0.0
C1870 C 0.38323 0.89493 0.52002 0.0
C1871 C 0.39308 0.88458 0.49919 0.0
C1872 C 0.39542 0.90443 0.53084 0.0
C1873 C 0.35125 0.90566 0.55413 0.0
C1874 C 0.3918 0.92625 0.52742 0.0
C1875 C 0.40183 0.93527 0.53981 0.0
C1876 C 0.4155 0.92256 0.55589 0.0
C1877 C 0.41919 0.90067 0.55913 0.0
C1878 C 0.40926 0.89166 0.54659 0.0
H1879 H 0.33532 0.90311 0.5618 0.0
H1880 H 0.36093 0.89997 0.56904 0.0
H1881 H 0.34944 0.92278 0.54885 0.0
H1882 H 0.38097 0.93629 0.51552 0.0
H1883 H 0.39875 0.9522 0.53701 0.0
H1884 H 0.04939 0.69195 0.73679 0.0
H1885 H 0.08008 0.66126 0.73841 0.0
H1886 H 0.07988 0.66712 0.81403 0.0
H1887 H 0.04881 0.69752 0.81291 0.0
H1888 H 0.12275 0.66241 0.76889 0.0
H1889 H 0.07761 0.60214 0.79217 0.0
H1890 H 0.06927 0.62548 0.7705 0.0
H1891 H 0.06661 0.62749 0.80273 0.0
C1892 C 0.0557 0.68663 0.75388 0.0
C1893 C 0.04669 0.69731 0.77469 0.0
C1894 C 0.07332 0.66917 0.75469 0.0
C1895 C 0.08223 0.66206 0.77628 0.0
C1896 C 0.07326 0.67251 0.79715 0.0
H1897 H 0.19364 0.56233 0.80994 0.0
H1898 H 0.16295 0.5931 0.81082 0.0
C1899 C 0.05557 0.68993 0.79642 0.0
C1900 C 0.10079 0.64352 0.77707 0.0
H1901 H 0.11487 0.58994 0.78489 0.0
C1902 C 0.12109 0.64655 0.77253 0.0
C1903 C 0.09846 0.62294 0.78174 0.0
C1904 C 0.07685 0.6191 0.78716 0.0
C1905 C 0.13923 0.62938 0.77222 0.0
C1906 C 0.13689 0.60877 0.77674 0.0
C1907 C 0.11656 0.60578 0.78141 0.0
C1908 C 0.15542 0.59009 0.77631 0.0
C1909 C 0.16083 0.6333 0.76644 0.0
C1910 C 0.16107 0.57799 0.75687 0.0
C1911 C 0.17866 0.56044 0.75625 0.0
C1912 C 0.1909 0.55466 0.77512 0.0
C1913 C 0.18487 0.56659 0.79485 0.0
C1914 C 0.1673 0.58415 0.79543 0.0
H1915 H 0.16006 0.65019 0.76031 0.0
H1916 H 0.16816 0.62792 0.78335 0.0
H1917 H 0.17132 0.62419 0.7516 0.0
H1918 H 0.15203 0.58233 0.74198 0.0
H1919 H 0.18293 0.5517 0.74069 0.0
H1920 H 0.80234 0.34249 0.53697 0.0
H1921 H 0.81358 0.37481 0.52758 0.0
H1922 H 0.8727 0.34317 0.48484 0.0
H1923 H 0.86142 0.31096 0.49387 0.0
H1924 H 0.85033 0.36625 0.54851 0.0
H1925 H 0.86375 0.40498 0.45034 0.0
H1926 H 0.84361 0.39106 0.46252 0.0
H1927 H 0.87087 0.37676 0.45453 0.0
C1928 C 0.81723 0.34276 0.52445 0.0
C1929 C 0.83125 0.32419 0.51654 0.0
C1930 C 0.82362 0.36124 0.51907 0.0
C1931 C 0.84398 0.36135 0.50558 0.0
C1932 C 0.85682 0.34354 0.49497 0.0
H1933 H 0.94823 0.39544 0.52108 0.0
H1934 H 0.92219 0.38613 0.50451 0.0
C1935 C 0.85047 0.32506 0.50039 0.0
C1936 C 0.85407 0.3769 0.50895 0.0
H1937 H 0.88388 0.41024 0.47773 0.0
C1938 C 0.85711 0.37639 0.53314 0.0
C1939 C 0.86333 0.38959 0.48875 0.0
C1940 C 0.86014 0.39083 0.46255 0.0
C1941 C 0.87005 0.38741 0.53758 0.0
C1942 C 0.87974 0.39976 0.51733 0.0
C1943 C 0.87616 0.40092 0.49319 0.0
C1944 C 0.89541 0.40946 0.52104 0.0
C1945 C 0.87441 0.38468 0.56364 0.0
C1946 C 0.88896 0.42627 0.53481 0.0
C1947 C 0.90381 0.43166 0.54416 0.0
C1948 C 0.92517 0.42014 0.53995 0.0
C1949 C 0.9318 0.40449 0.52447 0.0
C1950 C 0.917 0.39925 0.51494 0.0
H1951 H 0.86775 0.37243 0.57654 0.0
H1952 H 0.89174 0.38031 0.56326 0.0
H1953 H 0.86731 0.39974 0.57126 0.0
H1954 H 0.8723 0.43415 0.53983 0.0
H1955 H 0.8984 0.44363 0.55629 0.0
H1956 H 0.28924 0.93237 0.27461 0.0
H1957 H 0.32052 0.90268 0.27374 0.0
H1958 H 0.35848 0.94349 0.23034 0.0
H1959 H 0.3278 0.97375 0.23565 0.0
H1960 H 0.34435 0.88245 0.24367 0.0
H1961 H 0.39755 0.91665 0.27429 0.0
H1962 H 0.37004 0.93016 0.27485 0.0
H1963 H 0.38929 0.9318 0.24633 0.0
C1964 C 0.30447 0.93514 0.26596 0.0
C1965 C 0.30623 0.95557 0.25645 0.0
C1966 C 0.32239 0.91802 0.26493 0.0
C1967 C 0.34238 0.92065 0.25272 0.0
C1968 C 0.34375 0.94095 0.24134 0.0
H1969 H 0.44829 0.81092 0.21517 0.0
H1970 H 0.41788 0.84205 0.21313 0.0
C1971 C 0.32604 0.95833 0.24401 0.0
C1972 C 0.3614 0.90205 0.25157 0.0
H1973 H 0.41343 0.88463 0.25791 0.0
C1974 C 0.35934 0.88306 0.24701 0.0
C1975 C 0.38118 0.90242 0.25609 0.0
C1976 C 0.38456 0.92129 0.26343 0.0
C1977 C 0.37613 0.86465 0.2472 0.0
C1978 C 0.39596 0.86542 0.25058 0.0
C1979 C 0.39824 0.88427 0.25485 0.0
C1980 C 0.4142 0.84649 0.25148 0.0
C1981 C 0.37231 0.84429 0.24493 0.0
C1982 C 0.42237 0.83892 0.27354 0.0
C1983 C 0.4396 0.82123 0.27476 0.0
C1984 C 0.44913 0.81069 0.2539 0.0
C1985 C 0.44109 0.81844 0.23167 0.0
C1986 C 0.42374 0.83621 0.23048 0.0
H1987 H 0.35518 0.84558 0.24708 0.0
H1988 H 0.38037 0.83972 0.22633 0.0
H1989 H 0.37897 0.83152 0.25928 0.0
H1990 H 0.41525 0.84662 0.28994 0.0
H1991 H 0.44524 0.81564 0.29227 0.0
H1992 H 0.31731 0.46332 0.78571 0.0
H1993 H 0.3488 0.43342 0.78461 0.0
H1994 H 0.32996 0.41233 0.72756 0.0
H1995 H 0.29939 0.44271 0.72741 0.0
H1996 H 0.35165 0.39179 0.7949 0.0
H1997 H 0.39032 0.41035 0.69692 0.0
H1998 H 0.36831 0.42905 0.71243 0.0
H1999 H 0.36383 0.40878 0.69952 0.0
C2000 C 0.31998 0.45251 0.77264 0.0
C2001 C 0.30552 0.45541 0.75679 0.0
C2002 C 0.33797 0.43533 0.77215 0.0
C2003 C 0.34191 0.42073 0.7558 0.0
C2004 C 0.32754 0.42359 0.73999 0.0
H2005 H 0.43563 0.30336 0.72825 0.0
H2006 H 0.40521 0.33418 0.72904 0.0
C2007 C 0.30976 0.44087 0.74023 0.0
C2008 C 0.36069 0.40219 0.75572 0.0
H2009 H 0.40422 0.37609 0.71777 0.0
C2010 C 0.36324 0.38845 0.77809 0.0
C2011 C 0.37578 0.39778 0.73374 0.0
C2012 C 0.37456 0.41238 0.70936 0.0
C2013 C 0.3802 0.3702 0.77896 0.0
C2014 C 0.39518 0.36574 0.75693 0.0
C2015 C 0.39267 0.3795 0.73461 0.0
C2016 C 0.41366 0.34695 0.75661 0.0
C2017 C 0.38162 0.3556 0.80333 0.0
C2018 C 0.42878 0.34407 0.77142 0.0
C2019 C 0.44608 0.32627 0.77123 0.0
C2020 C 0.44876 0.31101 0.75604 0.0
C2021 C 0.43394 0.31437 0.74058 0.0
C2022 C 0.41655 0.33212 0.7409 0.0
H2023 H 0.36616 0.3582 0.81642 0.0
H2024 H 0.38698 0.33892 0.80025 0.0
H2025 H 0.39326 0.3585 0.81241 0.0
H2026 H 0.42722 0.3556 0.78316 0.0
H2027 H 0.45721 0.32445 0.78326 0.0
H2028 H 0.18146 0.7874 0.54753 0.0
H2029 H 0.15057 0.79152 0.58179 0.0
H2030 H 0.1743 0.72711 0.61338 0.0
H2031 H 0.20499 0.72336 0.57952 0.0
H2032 H 0.11977 0.77191 0.59339 0.0
H2033 H 0.15719 0.75234 0.67657 0.0
H2034 H 0.17174 0.75746 0.64545 0.0
H2035 H 0.16701 0.73212 0.65701 0.0
C2036 C 0.18071 0.77452 0.56255 0.0
C2037 C 0.19694 0.75557 0.56178 0.0
C2038 C 0.1627 0.77671 0.58202 0.0
C2039 C 0.16002 0.75986 0.60115 0.0
C2040 C 0.17605 0.7408 0.59994 0.0
H2041 H 0.05896 0.73455 0.72818 0.0
H2042 H 0.09228 0.73416 0.6983 0.0
C2043 C 0.19392 0.73868 0.58053 0.0
C2044 C 0.13982 0.7615 0.62085 0.0
H2045 H 0.12075 0.75285 0.68396 0.0
C2046 C 0.12006 0.76791 0.6132 0.0
C2047 C 0.13975 0.75596 0.64694 0.0
C2048 C 0.16004 0.74926 0.65704 0.0
C2049 C 0.10072 0.76839 0.63032 0.0
C2050 C 0.10053 0.76322 0.65654 0.0
C2051 C 0.12035 0.75692 0.66418 0.0
C2052 C 0.08018 0.76397 0.67607 0.0
C2053 C 0.08084 0.77347 0.61963 0.0
C2054 C 0.06192 0.78104 0.67478 0.0
C2055 C 0.04265 0.78088 0.69144 0.0
C2056 C 0.04106 0.76432 0.71114 0.0
C2057 C 0.05952 0.74775 0.71352 0.0
C2058 C 0.07871 0.74755 0.69624 0.0
H2059 H 0.08448 0.76956 0.60037 0.0
H2060 H 0.06952 0.76478 0.63121 0.0
H2061 H 0.07311 0.79058 0.61855 0.0
H2062 H 0.06237 0.79456 0.66063 0.0
H2063 H 0.02884 0.79392 0.68896 0.0
H2064 H 0.21393 0.97263 0.33144 0.0
H2065 H 0.20982 0.94053 0.36004 0.0
H2066 H 0.27686 0.91256 0.3413 0.0
H2067 H 0.28064 0.94423 0.31254 0.0
H2068 H 0.23633 0.88744 0.34765 0.0
H2069 H 0.24949 0.92091 0.4241 0.0
H2070 H 0.23635 0.93756 0.39944 0.0
H2071 H 0.26423 0.92535 0.39292 0.0
C2072 C 0.22741 0.95905 0.33183 0.0
C2073 C 0.24721 0.96028 0.31721 0.0
C2074 C 0.22522 0.94084 0.34887 0.0
C2075 C 0.24298 0.92372 0.3525 0.0
C2076 C 0.26278 0.92512 0.33838 0.0
H2077 H 0.27196 0.81737 0.47072 0.0
H2078 H 0.27117 0.84837 0.43875 0.0
C2079 C 0.26485 0.94317 0.3214 0.0
C2080 C 0.2415 0.90515 0.3724 0.0
H2081 H 0.24708 0.8861 0.43313 0.0
C2082 C 0.23844 0.8872 0.36643 0.0
C2083 C 0.24479 0.90452 0.39676 0.0
C2084 C 0.24889 0.92305 0.40395 0.0
C2085 C 0.23872 0.86872 0.38401 0.0
C2086 C 0.24157 0.86818 0.4087 0.0
C2087 C 0.24469 0.88625 0.4145 0.0
C2088 C 0.24185 0.84906 0.42856 0.0
C2089 C 0.23686 0.84969 0.37543 0.0
C2090 C 0.22551 0.83894 0.4343 0.0
C2091 C 0.22609 0.82096 0.45248 0.0
C2092 C 0.2428 0.81271 0.46596 0.0
C2093 C 0.25878 0.82322 0.46085 0.0
C2094 C 0.25835 0.84103 0.44242 0.0
H2095 H 0.24176 0.85034 0.35486 0.0
H2096 H 0.24672 0.83496 0.38442 0.0
H2097 H 0.2201 0.84917 0.38033 0.0
H2098 H 0.21211 0.845 0.42484 0.0
H2099 H 0.21326 0.81364 0.45616 0.0
H2100 H 0.02689 0.67146 0.62924 0.0
H2101 H 0.0313 0.63971 0.61155 0.0
H2102 H 0.97899 0.62586 0.66688 0.0
H2103 H 0.97463 0.65764 0.68471 0.0
H2104 H 0.01819 0.58808 0.6462 0.0
H2105 H 0.97656 0.64955 0.5778 0.0
H2106 H -0.00033 0.6531 0.58536 0.0
H2107 H 0.97609 0.65439 0.60864 0.0
C2108 C 0.01707 0.66104 0.63841 0.0
C2109 C 0.00054 0.66689 0.65847 0.0
C2110 C 0.01952 0.64297 0.62821 0.0
C2111 C 0.00537 0.63051 0.63777 0.0
C2112 C 0.99017 0.63518 0.65932 0.0
H2113 H 0.95584 0.5671 0.55484 0.0
H2114 H 0.96126 0.58767 0.58311 0.0
C2115 C 0.98775 0.65327 0.6696 0.0
C2116 C 0.00367 0.61554 0.62261 0.0
H2117 H 0.98439 0.61462 0.57147 0.0
C2118 C 0.01082 0.59379 0.62985 0.0
C2119 C 0.99407 0.62306 0.60128 0.0
C2120 C 0.98602 0.64628 0.59273 0.0
C2121 C 0.00841 0.57937 0.61637 0.0
C2122 C -0.00147 0.58697 0.59513 0.0
C2123 C 0.99168 0.60874 0.58787 0.0
C2124 C 0.99495 0.57288 0.58006 0.0
C2125 C 0.01609 0.55618 0.62529 0.0
C2126 C 0.01198 0.55781 0.5687 0.0
C2127 C 0.00867 0.54574 0.55315 0.0
C2128 C 0.98831 0.54837 0.54856 0.0
C2129 C 0.97142 0.56392 0.55914 0.0
C2130 C 0.97463 0.57583 0.57506 0.0
H2131 H 0.01763 0.55309 0.64523 0.0
H2132 H 0.00525 0.54753 0.62287 0.0
H2133 H 0.03197 0.5498 0.61422 0.0
H2134 H 0.02798 0.55585 0.57111 0.0
H2135 H 0.02227 0.53502 0.54378 0.0
H2136 H 0.28611 0.77226 0.45282 0.0
H2137 H 0.31606 0.77293 0.41766 0.0
H2138 H 0.35544 0.7197 0.4572 0.0
H2139 H 0.32579 0.71935 0.49256 0.0
H2140 H 0.36488 0.77137 0.42603 0.0
H2141 H 0.3575 0.7099 0.37842 0.0
H2142 H 0.33455 0.7287 0.39234 0.0
H2143 H 0.34984 0.7082 0.41197 0.0
C2144 C 0.30106 0.76052 0.45397 0.0
C2145 C 0.30327 0.74559 0.47572 0.0
C2146 C 0.31833 0.76099 0.43377 0.0
C2147 C 0.33835 0.74638 0.43443 0.0
C2148 C 0.34039 0.73124 0.45592 0.0
H2149 H 0.46674 0.71573 0.34569 0.0
H2150 H 0.43298 0.7169 0.3749 0.0
C2151 C 0.32329 0.73101 0.47625 0.0
C2152 C 0.35729 0.74708 0.41329 0.0
H2153 H 0.38734 0.72302 0.36277 0.0
C2154 C 0.36962 0.76089 0.41213 0.0
C2155 C 0.36384 0.73353 0.39485 0.0
C2156 C 0.35086 0.71915 0.39419 0.0
C2157 C 0.38821 0.76112 0.3937 0.0
C2158 C 0.39499 0.74722 0.37559 0.0
C2159 C 0.38249 0.73364 0.37653 0.0
C2160 C 0.41539 0.74605 0.35638 0.0
C2161 C 0.40089 0.77594 0.394 0.0
C2162 C 0.41712 0.76174 0.3355 0.0
C2163 C 0.43646 0.76082 0.3183 0.0
C2164 C 0.45483 0.74427 0.32152 0.0
C2165 C 0.45301 0.7286 0.34235 0.0
C2166 C 0.43361 0.72929 0.35919 0.0
H2167 H 0.39499 0.78418 0.41067 0.0
H2168 H 0.4178 0.76723 0.39366 0.0
H2169 H 0.40005 0.78786 0.37701 0.0
H2170 H 0.4035 0.77489 0.33261 0.0
H2171 H 0.43718 0.77341 0.30284 0.0
H2172 H 0.23686 0.06229 0.23464 0.0
H2173 H 0.23594 0.09508 0.20553 0.0
H2174 H 0.27968 0.06014 0.14928 0.0
H2175 H 0.28066 0.02741 0.17838 0.0
H2176 H 0.26732 0.1151 0.17872 0.0
H2177 H 0.2308 0.09234 0.11296 0.0
H2178 H 0.23216 0.07832 0.14407 0.0
H2179 H 0.25501 0.07375 0.11955 0.0
C2180 C 0.24651 0.0616 0.2162 0.0
C2181 C 0.25896 0.04212 0.20899 0.0
C2182 C 0.2459 0.08042 0.19944 0.0
C2183 C 0.2574 0.08026 0.17482 0.0
C2184 C 0.27024 0.06084 0.16786 0.0
H2185 H 0.26544 0.17396 0.03951 0.0
H2186 H 0.26771 0.14196 0.0703 0.0
C2187 C 0.27091 0.04207 0.18461 0.0
C2188 C 0.25579 0.10021 0.15634 0.0
H2189 H 0.2422 0.12329 0.09947 0.0
C2190 C 0.26176 0.11691 0.16141 0.0
C2191 C 0.24858 0.10278 0.13362 0.0
C2192 C 0.24108 0.08595 0.12724 0.0
C2193 C 0.26137 0.13564 0.14429 0.0
C2194 C 0.25409 0.13829 0.12147 0.0
C2195 C 0.24792 0.12157 0.11662 0.0
C2196 C 0.2527 0.15808 0.10246 0.0
C2197 C 0.2696 0.15196 0.15066 0.0
C2198 C 0.24311 0.17815 0.10963 0.0
C2199 C 0.24238 0.19646 0.09206 0.0
C2200 C 0.25046 0.19544 0.06649 0.0
C2201 C 0.25913 0.17543 0.059 0.0
C2202 C 0.26041 0.15705 0.07673 0.0
H2203 H 0.28102 0.14481 0.16358 0.0
H2204 H 0.27756 0.16039 0.13372 0.0
H2205 H 0.25618 0.16352 0.16028 0.0
H2206 H 0.23599 0.1798 0.12889 0.0
H2207 H 0.23511 0.21149 0.09858 0.0
H2208 H 0.79233 0.78586 0.95876 0.0
H2209 H 0.823 0.78424 0.92466 0.0
H2210 H 0.84335 0.71723 0.94464 0.0
H2211 H 0.81369 0.71925 0.98002 0.0
H2212 H 0.86782 0.76692 0.93077 0.0
H2213 H 0.84769 0.72733 0.86545 0.0
H2214 H 0.82794 0.74111 0.88879 0.0
H2215 H 0.84441 0.71546 0.89767 0.0
C2216 C 0.80274 0.7706 0.95527 0.0
C2217 C 0.79902 0.75239 0.97116 0.0
C2218 C 0.82062 0.76974 0.93583 0.0
C2219 C 0.83561 0.75054 0.93129 0.0
C2220 C 0.83192 0.73225 0.94693 0.0
H2221 H 0.96341 0.71296 0.83895 0.0
H2222 H 0.92932 0.71429 0.86771 0.0
C2223 C 0.81432 0.73326 0.96689 0.0
C2224 C 0.85571 0.74985 0.9116 0.0
H2225 H 0.88253 0.73149 0.85637 0.0
C2226 C 0.87091 0.75922 0.9145 0.0
C2227 C 0.8601 0.73994 0.89006 0.0
C2228 C 0.84418 0.7305 0.88502 0.0
C2229 C 0.89019 0.7585 0.8971 0.0
C2230 C 0.89468 0.74841 0.87567 0.0
C2231 C 0.87942 0.73919 0.87266 0.0
C2232 C 0.91511 0.74722 0.8565 0.0
C2233 C 0.90594 0.76826 0.90198 0.0
C2234 C 0.91875 0.76503 0.83973 0.0
C2235 C 0.93796 0.76394 0.8223 0.0
C2236 C 0.95451 0.74523 0.82144 0.0
C2237 C 0.95097 0.72753 0.8385 0.0
C2238 C 0.93143 0.72835 0.8552 0.0
H2239 H 0.90214 0.77199 0.92134 0.0
H2240 H 0.92219 0.75759 0.89876 0.0
H2241 H 0.90587 0.78303 0.88882 0.0
H2242 H 0.90675 0.77991 0.84022 0.0
H2243 H 0.94021 0.77799 0.81009 0.0
H2244 H 0.2352 0.56292 0.73549 0.0
H2245 H 0.23411 0.59588 0.70652 0.0
H2246 H 0.28316 0.56229 0.65305 0.0
H2247 H 0.2843 0.52945 0.68189 0.0
H2248 H 0.26517 0.61784 0.68196 0.0
H2249 H 0.2359 0.59098 0.61274 0.0
H2250 H 0.23605 0.57753 0.64427 0.0
H2251 H 0.26002 0.5736 0.62128 0.0
C2252 C 0.246 0.5626 0.71774 0.0
C2253 C 0.25997 0.54345 0.71116 0.0
C2254 C 0.24529 0.5815 0.70106 0.0
C2255 C 0.25824 0.5817 0.67719 0.0
C2256 C 0.27264 0.56267 0.67101 0.0
H2257 H 0.26849 0.67293 0.54028 0.0
H2258 H 0.27068 0.64167 0.5721 0.0
C2259 C 0.2734 0.54386 0.68764 0.0
C2260 C 0.25649 0.60151 0.6585 0.0
H2261 H 0.24591 0.62269 0.59992 0.0
C2262 C 0.26089 0.61894 0.66403 0.0
C2263 C 0.25095 0.60313 0.63498 0.0
C2264 C 0.24526 0.5854 0.62797 0.0
C2265 C 0.26068 0.63747 0.64658 0.0
C2266 C 0.25511 0.63916 0.62291 0.0
C2267 C 0.25037 0.62173 0.61768 0.0
C2268 C 0.2541 0.65858 0.60331 0.0
C2269 C 0.26735 0.65459 0.6536 0.0
C2270 C 0.24383 0.67887 0.60954 0.0
C2271 C 0.24338 0.69679 0.59143 0.0
C2272 C 0.25221 0.69517 0.56612 0.0
C2273 C 0.2616 0.67491 0.55953 0.0
C2274 C 0.26278 0.65693 0.57787 0.0
H2275 H 0.27794 0.64816 0.66754 0.0
H2276 H 0.27572 0.66308 0.6371 0.0
H2277 H 0.2531 0.66593 0.66229 0.0
H2278 H 0.23589 0.681 0.62846 0.0
H2279 H 0.23554 0.712 0.59725 0.0
H2280 H 0.32924 0.04123 0.35944 0.0
H2281 H 0.36245 0.03403 0.37428 0.0
H2282 H 0.35584 0.97286 0.41063 0.0
H2283 H 0.32205 0.98057 0.39653 0.0
H2284 H 0.36092 0.99234 0.44249 0.0
H2285 H 0.42247 1.00096 0.36007 0.0
H2286 H 0.40035 0.02364 0.35793 0.0
H2287 H 0.39731 0.99806 0.35764 0.0
C2288 C 0.33528 0.02605 0.36997 0.0
C2289 C 0.32331 0.01143 0.37696 0.0
C2290 C 0.35433 0.02183 0.37829 0.0
C2291 C 0.36179 1.00281 0.39343 0.0
C2292 C 0.35042 0.98762 0.39897 0.0
H2293 H 0.4764 0.99553 0.44496 0.0
H2294 H 0.45134 0.9893 0.42449 0.0
C2295 C 0.33122 0.99197 0.3909 0.0
C2296 C 0.37936 1.00039 0.40653 0.0
H2297 H 0.42698 0.01089 0.39788 0.0
C2298 C 0.37561 0.99591 0.4327 0.0
C2299 C 0.39876 0.00449 0.39387 0.0
C2300 C 0.40502 0.00679 0.36582 0.0
C2301 C 0.39018 0.99663 0.44659 0.0
C2302 C 0.40845 1.0032 0.43402 0.0
C2303 C 0.41273 0.00647 0.40775 0.0
C2304 C 0.42347 0.00659 0.44751 0.0
C2305 C 0.38576 0.99013 0.47449 0.0
C2306 C 0.41632 0.01851 0.46738 0.0
C2307 C 0.43074 0.02128 0.48002 0.0
C2308 C 0.45253 0.01313 0.47208 0.0
C2309 C 0.45966 1.00212 0.45148 0.0
C2310 C 0.44531 0.99853 0.43969 0.0
H2311 H 0.37637 0.97843 0.47955 0.0
H2312 H 0.40059 0.98323 0.48211 0.0
H2313 H 0.37622 1.00406 0.4836 0.0
H2314 H 0.39962 0.02573 0.47313 0.0
H2315 H 0.42491 0.02997 0.49572 0.0
H2316 H 0.86332 0.79566 0.03714 0.0
H2317 H 0.8847 0.81995 0.01894 0.0
H2318 H 0.83247 0.86277 0.9867 0.0
H2319 H 0.81034 0.83891 1.00685 0.0
H2320 H 0.89971 0.84502 0.98238 0.0
H2321 H 0.83014 0.89351 0.04092 0.0
H2322 H 0.83174 0.86697 0.03852 0.0
H2323 H 0.82545 0.88772 1.01312 0.0
C2324 C 0.85665 0.80989 0.02535 0.0
C2325 C 0.83502 0.81591 0.02426 0.0
C2326 C 0.86892 0.82381 1.01482 0.0
C2327 C 0.85977 0.84379 1.00274 0.0
C2328 C 0.83948 0.84788 0.99711 0.0
H2329 H 0.90452 0.94478 0.02966 0.0
H2330 H 0.89042 0.92686 1.00634 0.0
C2331 C 0.82693 0.83411 1.00829 0.0
C2332 C 0.8694 0.86098 1.00221 0.0
H2333 H 0.86163 0.9023 0.03305 0.0
C2334 C 0.89124 0.85788 0.99292 0.0
C2335 C 0.85841 0.87779 0.01615 0.0
C2336 C 0.83521 0.88171 0.0279 0.0
C2337 C 0.90262 0.86988 0.99899 0.0
C2338 C 0.89177 0.88557 1.01425 0.0
C2339 C 0.86976 0.89009 0.02144 0.0
C2340 C 0.90289 0.89589 0.02564 0.0
C2341 C 0.92627 0.86504 0.99018 0.0
C2342 C 0.9143 0.88435 0.04444 0.0
C2343 C 0.92214 0.89456 0.05803 0.0
C2344 C 0.91873 0.91644 0.05292 0.0
C2345 C 0.90748 0.92788 0.03388 0.0
C2346 C 0.89955 0.91769 0.02045 0.0
H2347 H 0.93144 0.8565 0.97378 0.0
H2348 H 0.93151 0.87967 0.98523 0.0
H2349 H 0.93426 0.855 1.00548 0.0
H2350 H 0.91657 0.86754 0.04908 0.0
H2351 H 0.93096 0.88537 0.07239 0.0
H2352 H 0.63531 0.20153 0.53739 0.0
H2353 H 0.6197 0.17194 0.55016 0.0
H2354 H 0.67612 0.13232 0.51171 0.0
H2355 H 0.69187 0.16194 0.499 0.0
H2356 H 0.6218 0.16 0.49907 0.0
H2357 H 0.64504 0.09267 0.57288 0.0
H2358 H 0.64448 0.1191 0.57548 0.0
H2359 H 0.6648 0.10491 0.55341 0.0
C2360 C 0.64484 0.18618 0.53296 0.0
C2361 C 0.66458 0.18396 0.51695 0.0
C2362 C 0.63598 0.16927 0.54037 0.0
C2363 C 0.64675 0.15003 0.53176 0.0
C2364 C 0.6677 0.147 0.51878 0.0
H2365 H 0.59725 0.06726 0.47797 0.0
H2366 H 0.62054 0.07894 0.49672 0.0
C2367 C 0.67666 0.16394 0.51145 0.0
C2368 C 0.63407 0.13676 0.52855 0.0
H2369 H 0.62158 0.09006 0.54854 0.0
C2370 C 0.62164 0.14476 0.51001 0.0
C2371 C 0.63438 0.11677 0.54249 0.0
C2372 C 0.64783 0.10771 0.56228 0.0
C2373 C 0.60923 0.13341 0.50514 0.0
C2374 C 0.60888 0.11368 0.51962 0.0
C2375 C 0.62168 0.10536 0.53785 0.0
C2376 C 0.59503 0.102 0.51551 0.0
C2377 C 0.59669 0.14259 0.48435 0.0
C2378 C 0.57302 0.11043 0.52097 0.0
C2379 C 0.55986 0.10413 0.50993 0.0
C2380 C 0.56852 0.08896 0.49383 0.0
C2381 C 0.59029 0.07886 0.49056 0.0
C2382 C 0.60355 0.08545 0.50129 0.0
H2383 H 0.60223 0.15563 0.4717 0.0
H2384 H 0.59779 0.13038 0.4731 0.0
H2385 H 0.57976 0.14889 0.49251 0.0
H2386 H 0.56622 0.12326 0.53187 0.0
H2387 H 0.54309 0.1121 0.5126 0.0
H2388 H 0.81256 0.45786 0.29636 0.0
H2389 H 0.84333 0.42692 0.29555 0.0
H2390 H 0.83556 0.41878 0.22386 0.0
H2391 H 0.80517 0.44972 0.2243 0.0
H2392 H 0.84272 0.38316 0.28723 0.0
H2393 H 0.89947 0.42046 0.2174 0.0
H2394 H 0.8768 0.43541 0.23684 0.0
H2395 H 0.87326 0.42567 0.21096 0.0
C2396 C 0.81757 0.44961 0.2803 0.0
C2397 C 0.80637 0.45615 0.26043 0.0
C2398 C 0.83501 0.43189 0.27997 0.0
C2399 C 0.84163 0.42066 0.25963 0.0
C2400 C 0.83067 0.42731 0.23968 0.0
H2401 H 0.94074 0.30821 0.22215 0.0
H2402 H 0.90993 0.33909 0.22253 0.0
C2403 C 0.81323 0.44491 0.24004 0.0
C2404 C 0.85996 0.40188 0.25914 0.0
H2405 H 0.91105 0.38386 0.22981 0.0
C2406 C 0.8577 0.38329 0.27479 0.0
C2407 C 0.87936 0.40217 0.24274 0.0
C2408 C 0.88258 0.42199 0.22607 0.0
C2409 C 0.87442 0.36483 0.27427 0.0
C2410 C 0.89383 0.36515 0.25788 0.0
C2411 C 0.89606 0.38373 0.24222 0.0
C2412 C 0.91229 0.34654 0.25753 0.0
C2413 C 0.87129 0.345 0.29098 0.0
C2414 C 0.92386 0.34081 0.27689 0.0
C2415 C 0.94147 0.32337 0.27663 0.0
C2416 C 0.94773 0.31123 0.25707 0.0
C2417 C 0.93617 0.31711 0.23757 0.0
C2418 C 0.91864 0.33474 0.23772 0.0
H2419 H 0.85444 0.34653 0.29989 0.0
H2420 H 0.87692 0.33161 0.28016 0.0
H2421 H 0.88083 0.34124 0.3059 0.0
H2422 H 0.91922 0.34984 0.29224 0.0
H2423 H 0.94989 0.31916 0.29208 0.0
H2424 H 0.10053 0.55891 0.48841 0.0
H2425 H 0.12161 0.572 0.5089 0.0
H2426 H 0.07797 0.63364 0.50126 0.0
H2427 H 0.05718 0.62076 0.48024 0.0
H2428 H 0.13592 0.61079 0.47853 0.0
H2429 H 0.09446 0.61881 0.57612 0.0
H2430 H 0.09287 0.59914 0.5595 0.0
H2431 H 0.07812 0.62596 0.55265 0.0
C2432 C 0.09535 0.57517 0.49145 0.0
C2433 C 0.07752 0.58897 0.48247 0.0
C2434 C 0.10724 0.58255 0.50331 0.0
C2435 C 0.1011 0.60365 0.50692 0.0
C2436 C 0.08272 0.6172 0.499 0.0
H2437 H 0.1303 0.70778 0.51795 0.0
H2438 H 0.11739 0.67662 0.53084 0.0
C2439 C 0.07106 0.60994 0.48672 0.0
C2440 C 0.11572 0.61261 0.51446 0.0
H2441 H 0.11969 0.63873 0.55866 0.0
C2442 C 0.13285 0.61644 0.49629 0.0
C2443 C 0.11138 0.61994 0.53759 0.0
C2444 C 0.09329 0.61568 0.55775 0.0
C2445 C 0.14474 0.62907 0.49966 0.0
C2446 C 0.13988 0.63738 0.52242 0.0
C2447 C 0.12361 0.6322 0.54138 0.0
C2448 C 0.14844 0.65469 0.52441 0.0
C2449 C 0.16094 0.63499 0.47775 0.0
C2450 C 0.17034 0.65273 0.51899 0.0
C2451 C 0.17776 0.67068 0.51088 0.0
C2452 C 0.16329 0.69066 0.50882 0.0
C2453 C 0.14173 0.69251 0.51866 0.0
C2454 C 0.13433 0.67466 0.52624 0.0
H2455 H 0.16007 0.62998 0.46032 0.0
H2456 H 0.15865 0.65225 0.47422 0.0
H2457 H 0.17708 0.62731 0.48184 0.0
H2458 H 0.18156 0.63739 0.51839 0.0
H2459 H 0.19452 0.66879 0.50379 0.0
H2460 H 0.69086 0.05816 0.73543 0.0
H2461 H 0.66058 0.08932 0.73697 0.0
H2462 H 0.65638 0.08368 0.8165 0.0
H2463 H 0.68754 0.05325 0.81464 0.0
H2464 H 0.62141 0.09453 0.75891 0.0
H2465 H 0.65428 0.14385 0.79857 0.0
H2466 H 0.67031 0.11944 0.78804 0.0
H2467 H 0.65334 0.1195 0.81828 0.0
C2468 C 0.68341 0.0636 0.75323 0.0
C2469 C 0.69144 0.05335 0.77493 0.0
C2470 C 0.66616 0.08144 0.7541 0.0
C2471 C 0.65636 0.08921 0.77677 0.0
C2472 C 0.66405 0.07854 0.79863 0.0
H2473 H 0.54753 0.19538 0.81446 0.0
H2474 H 0.57755 0.16376 0.81573 0.0
C2475 C 0.68168 0.061 0.79763 0.0
C2476 C 0.63773 0.10803 0.77744 0.0
H2477 H 0.61796 0.15677 0.79544 0.0
C2478 C 0.62072 0.10816 0.76683 0.0
C2479 C 0.6367 0.12584 0.78788 0.0
C2480 C 0.65472 0.12728 0.79861 0.0
C2481 C 0.60272 0.1254 0.7665 0.0
C2482 C 0.60175 0.14328 0.77677 0.0
C2483 C 0.61864 0.14309 0.78762 0.0
C2484 C 0.58355 0.16246 0.77606 0.0
C2485 C 0.58482 0.124 0.75551 0.0
C2486 C 0.57713 0.17251 0.75335 0.0
C2487 C 0.55969 0.19012 0.75276 0.0
C2488 C 0.54874 0.1985 0.77473 0.0
C2489 C 0.55564 0.18907 0.79731 0.0
C2490 C 0.57279 0.17107 0.79801 0.0
H2491 H 0.58495 0.10742 0.75615 0.0
H2492 H 0.56918 0.13235 0.76548 0.0
H2493 H 0.58673 0.1312 0.73562 0.0
H2494 H 0.58566 0.1668 0.736 0.0
H2495 H 0.55503 0.19746 0.73498 0.0
H2496 H 0.73248 0.56359 0.23366 0.0
H2497 H 0.73136 0.5964 0.20441 0.0
H2498 H 0.783 0.56321 0.15306 0.0
H2499 H 0.78437 0.53054 0.18236 0.0
H2500 H 0.76378 0.61837 0.18139 0.0
H2501 H 0.73617 0.59136 0.11073 0.0
H2502 H 0.73527 0.57827 0.14252 0.0
H2503 H 0.75984 0.57404 0.12058 0.0
C2504 C 0.74385 0.56335 0.21635 0.0
C2505 C 0.75877 0.54441 0.2106 0.0
C2506 C 0.74311 0.58214 0.1995 0.0
C2507 C 0.75689 0.58239 0.1762 0.0
C2508 C 0.77195 0.56353 0.17064 0.0
H2509 H 0.76744 0.67383 0.03976 0.0
H2510 H 0.76957 0.64258 0.07137 0.0
C2511 C 0.7728 0.54483 0.18751 0.0
C2512 C 0.75541 0.60216 0.15754 0.0
H2513 H 0.74533 0.62349 0.09883 0.0
C2514 C 0.7597 0.61954 0.16334 0.0
C2515 C 0.75019 0.6038 0.13385 0.0
C2516 C 0.74492 0.58597 0.12652 0.0
C2517 C 0.75962 0.6381 0.146 0.0
C2518 C 0.75421 0.6399 0.12221 0.0
C2519 C 0.74963 0.62248 0.11671 0.0
C2520 C 0.75334 0.6594 0.10274 0.0
C2521 C 0.76627 0.6551 0.15331 0.0
C2522 C 0.74332 0.6797 0.10909 0.0
C2523 C 0.7431 0.69767 0.09109 0.0
C2524 C 0.75182 0.69611 0.06575 0.0
C2525 C 0.76083 0.67584 0.05904 0.0
C2526 C 0.7619 0.65782 0.07727 0.0
H2527 H 0.77679 0.64854 0.16732 0.0
H2528 H 0.77473 0.66365 0.13696 0.0
H2529 H 0.75201 0.6664 0.16204 0.0
H2530 H 0.73538 0.68181 0.128 0.0
H2531 H 0.73537 0.71286 0.097 0.0
H2532 H 0.92283 0.50918 0.51165 0.0
H2533 H 0.89906 0.50392 0.48771 0.0
H2534 H 0.94494 0.50934 0.42009 0.0
H2535 H 0.96865 0.51472 0.44354 0.0
H2536 H 0.88705 0.53387 0.43781 0.0
H2537 H 0.92773 0.44925 0.43233 0.0
H2538 H 0.929 0.46206 0.45721 0.0
H2539 H 0.94353 0.46759 0.42649 0.0
C2540 C 0.92768 0.50965 0.49163 0.0
C2541 C 0.94752 0.51264 0.47949 0.0
C2542 C 0.91421 0.50646 0.47807 0.0
C2543 C 0.92056 0.50591 0.45234 0.0
C2544 C 0.93997 0.50955 0.44001 0.0
H2545 H 0.84606 0.51258 0.34427 0.0
H2546 H 0.87829 0.5032 0.362 0.0
C2547 C 0.95331 0.51301 0.45344 0.0
C2548 C 0.90659 0.50211 0.43817 0.0
H2549 H 0.8982 0.46453 0.412 0.0
C2550 C 0.88947 0.51877 0.43209 0.0
C2551 C 0.91009 0.48236 0.43075 0.0
C2552 C 0.92852 0.46416 0.43703 0.0
C2553 C 0.87547 0.51619 0.4188 0.0
C2554 C 0.87868 0.49637 0.41165 0.0
C2555 C 0.89594 0.47967 0.41752 0.0
C2556 C 0.86313 0.49314 0.3993 0.0
C2557 C 0.85708 0.53459 0.41274 0.0
C2558 C 0.84451 0.48916 0.41416 0.0
C2559 C 0.82608 0.49486 0.40422 0.0
C2560 C 0.82629 0.5043 0.37929 0.0
C2561 C 0.84562 0.50541 0.36359 0.0
C2562 C 0.86402 0.49994 0.37363 0.0
H2563 H 0.85711 0.54902 0.41932 0.0
H2564 H 0.85765 0.53797 0.39227 0.0
H2565 H 0.84191 0.5307 0.42158 0.0
H2566 H 0.84362 0.48396 0.43403 0.0
H2567 H 0.81132 0.49365 0.41651 0.0
H2568 H 0.18713 0.50763 0.61807 0.0
H2569 H 0.15785 0.51771 0.59519 0.0
H2570 H 0.1133 0.51865 0.66476 0.0
H2571 H 0.14262 0.50883 0.6877 0.0
H2572 H 0.13399 0.48233 0.61903 0.0
H2573 H 0.08422 0.56491 0.60372 0.0
H2574 H 0.11242 0.55915 0.60246 0.0
H2575 H 0.09533 0.55493 0.63178 0.0
C2576 C 0.171 0.5111 0.62833 0.0
C2577 C 0.1669 0.50736 0.65445 0.0
C2578 C 0.15434 0.51697 0.61531 0.0
C2579 C 0.13354 0.51891 0.62838 0.0
C2580 C 0.12926 0.51754 0.65445 0.0
H2581 H 0.02417 0.50132 0.59114 0.0
H2582 H 0.04946 0.50759 0.61139 0.0
C2583 C 0.14596 0.51183 0.6675 0.0
C2584 C 0.11823 0.51541 0.61597 0.0
H2585 H 0.07433 0.53898 0.58992 0.0
C2586 C 0.121 0.4947 0.61251 0.0
C2587 C 0.10127 0.53163 0.60798 0.0
C2588 C 0.09796 0.55399 0.61156 0.0
C2589 C 0.10719 0.48971 0.60106 0.0
C2590 C 0.09043 0.50593 0.5926 0.0
C2591 C 0.08744 0.52668 0.5963 0.0
C2592 C 0.07554 0.50139 0.58045 0.0
C2593 C 0.11034 0.46709 0.59851 0.0
C2594 C 0.0821 0.49542 0.55656 0.0
C2595 C 0.06774 0.49141 0.54503 0.0
C2596 C 0.04672 0.4932 0.55739 0.0
C2597 C 0.04043 0.49881 0.58155 0.0
C2598 C 0.05472 0.50291 0.59296 0.0
H2599 H 0.12179 0.4561 0.60985 0.0
H2600 H 0.09504 0.4629 0.6043 0.0
H2601 H 0.11646 0.46488 0.57866 0.0
H2602 H 0.0982 0.49429 0.54669 0.0
H2603 H 0.07289 0.48748 0.52624 0.0
H2604 H 0.562 0.73434 0.23406 0.0
H2605 H 0.59579 0.7347 0.20529 0.0
H2606 H 0.56357 0.7886 0.15926 0.0
H2607 H 0.52991 0.78807 0.18779 0.0
H2608 H 0.58967 0.75251 0.13295 0.0
H2609 H 0.63673 0.77391 0.18854 0.0
H2610 H 0.61879 0.75815 0.20385 0.0
H2611 H 0.60848 0.78517 0.1918 0.0
C2612 C 0.56223 0.74688 0.21847 0.0
C2613 C 0.54308 0.76177 0.21407 0.0
C2614 C 0.58168 0.74696 0.20172 0.0
C2615 C 0.58267 0.7618 0.17979 0.0
C2616 C 0.56364 0.77698 0.17584 0.0
H2617 H 0.67809 0.78702 0.04578 0.0
H2618 H 0.64795 0.78989 0.081 0.0
C2619 C 0.54429 0.77685 0.19249 0.0
C2620 C 0.60284 0.76065 0.16001 0.0
H2621 H 0.65308 0.76749 0.14765 0.0
C2622 C 0.60346 0.75582 0.13631 0.0
C2623 C 0.62122 0.76478 0.16391 0.0
C2624 C 0.62151 0.77082 0.18834 0.0
C2625 C 0.62157 0.75496 0.11693 0.0
C2626 C 0.63979 0.75938 0.12073 0.0
C2627 C 0.63928 0.76411 0.14441 0.0
C2628 C 0.65946 0.75869 0.10039 0.0
C2629 C 0.62133 0.74895 0.09242 0.0
C2630 C 0.6764 0.74037 0.09909 0.0
C2631 C 0.69394 0.73903 0.07916 0.0
C2632 C 0.69577 0.75609 0.0601 0.0
C2633 C 0.67851 0.77426 0.0611 0.0
C2634 C 0.66088 0.77569 0.08109 0.0
H2635 H 0.60615 0.74579 0.09219 0.0
H2636 H 0.624 0.76173 0.07703 0.0
H2637 H 0.63447 0.73468 0.08871 0.0
H2638 H 0.6757 0.72671 0.11302 0.0
H2639 H 0.70573 0.72414 0.07805 0.0
H2640 H 0.66111 0.47618 0.1808 0.0
H2641 H 0.62872 0.47955 0.16567 0.0
H2642 H 0.62975 0.54188 0.12821 0.0
H2643 H 0.66247 0.53825 0.14272 0.0
H2644 H 0.58698 0.50888 0.16078 0.0
H2645 H 0.64649 0.50404 0.07263 0.0
H2646 H 0.6539 0.49949 0.10277 0.0
H2647 H 0.64347 0.52582 0.08821 0.0
C2648 C 0.65382 0.49091 0.17027 0.0
C2649 C 0.66413 0.50691 0.16263 0.0
C2650 C 0.63539 0.49283 0.16165 0.0
C2651 C 0.62723 0.51077 0.14543 0.0
C2652 C 0.63604 0.52783 0.1405 0.0
H2653 H 0.55494 0.52902 0.03029 0.0
H2654 H 0.57664 0.5318 0.0581 0.0
C2655 C 0.6546 0.52581 0.14882 0.0
C2656 C 0.61276 0.50985 0.12979 0.0
H2657 H 0.61164 0.50653 0.06993 0.0
C2658 C 0.59222 0.5085 0.14089 0.0
C2659 C 0.61991 0.50902 0.10393 0.0
C2660 C 0.64219 0.50948 0.09115 0.0
C2661 C 0.57833 0.50689 0.12656 0.0
C2662 C 0.58553 0.50608 0.10067 0.0
C2663 C 0.60615 0.50727 0.08973 0.0
C2664 C 0.57202 0.50431 0.08423 0.0
C2665 C 0.55604 0.50649 0.13921 0.0
C2666 C 0.56272 0.48759 0.08926 0.0
C2667 C 0.54987 0.48628 0.07366 0.0
C2668 C 0.54654 0.50136 0.05248 0.0
C2669 C 0.55694 0.51732 0.04665 0.0
C2670 C 0.56933 0.51894 0.06256 0.0
H2671 H 0.55127 0.51335 0.15687 0.0
H2672 H 0.54449 0.51522 0.12685 0.0
H2673 H 0.55517 0.48997 0.14391 0.0
H2674 H 0.56536 0.47559 0.10524 0.0
H2675 H 0.54255 0.47347 0.07818 0.0
H2676 H 0.43876 0.38676 0.06384 0.0
H2677 H 0.4204 0.37091 0.04308 0.0
H2678 H 0.38022 0.43216 0.02114 0.0
H2679 H 0.39898 0.44813 0.04139 0.0
H2680 H 0.37641 0.37687 0.06018 0.0
H2681 H 0.39484 0.4025 0.95772 0.0
H2682 H 0.41246 0.40119 0.97833 0.0
H2683 H 0.38839 0.4219 0.97821 0.0
C2684 C 0.42607 0.39678 0.05448 0.0
C2685 C 0.41991 0.41853 0.05455 0.0
C2686 C 0.41582 0.38781 0.04237 0.0
C2687 C 0.39917 0.40043 0.03034 0.0
C2688 C 0.39336 0.42225 0.02981 0.0
H2689 H 0.30243 0.34563 0.02579 0.0
H2690 H 0.31911 0.37451 1.01342 0.0
C2691 C 0.40382 0.43127 0.04166 0.0
C2692 C 0.38581 0.39031 0.02229 0.0
H2693 H 0.37076 0.38147 0.97181 0.0
C2694 C 0.37505 0.37799 0.04089 0.0
C2695 C 0.38407 0.39201 0.99708 0.0
C2696 C 0.3956 0.40501 0.97655 0.0
C2697 C 0.36301 0.36677 0.03504 0.0
C2698 C 0.36144 0.36813 1.00983 0.0
C2699 C 0.37184 0.38076 0.99109 0.0
C2700 C 0.35068 0.35453 1.00334 0.0
C2701 C 0.35268 0.35287 0.05586 0.0
C2702 C 0.36267 0.33419 0.99918 0.0
C2703 C 0.35319 0.31769 1.00632 0.0
C2704 C 0.3317 0.32154 0.01753 0.0
C2705 C 0.31904 0.34233 0.01725 0.0
C2706 C 0.32856 0.35886 1.0101 0.0
H2707 H 0.35666 0.35268 0.07418 0.0
H2708 H 0.33521 0.3585 0.05757 0.0
H2709 H 0.35775 0.33651 0.05168 0.0
H2710 H 0.37977 0.33059 0.994 0.0
H2711 H 0.36317 0.30174 1.00622 0.0
H2712 H 0.07035 0.21461 0.27443 0.0
H2713 H 0.10039 0.18338 0.27514 0.0
H2714 H 0.05974 0.14528 0.27384 0.0
H2715 H 0.02982 0.17666 0.27204 0.0
H2716 H 0.10825 0.14878 0.30743 0.0
H2717 H 0.10625 0.12653 0.21785 0.0
H2718 H 0.09047 0.1513 0.22761 0.0
H2719 H 0.08186 0.12783 0.23965 0.0
C2720 C 0.06776 0.19956 0.27451 0.0
C2721 C 0.04765 0.19809 0.27343 0.0
C2722 C 0.08499 0.18171 0.27478 0.0
C2723 C 0.08249 0.16195 0.2741 0.0
C2724 C 0.06227 0.16039 0.27361 0.0
H2725 H 0.16974 0.03641 0.27436 0.0
H2726 H 0.13838 0.06659 0.27632 0.0
C2727 C 0.04511 0.17832 0.27285 0.0
C2728 C 0.10099 0.14305 0.27424 0.0
H2729 H 0.1294 0.10181 0.24281 0.0
C2730 C 0.1129 0.13855 0.29324 0.0
C2731 C 0.10714 0.12968 0.25571 0.0
C2732 C 0.09589 0.13418 0.23392 0.0
C2733 C 0.13053 0.12097 0.29445 0.0
C2734 C 0.13659 0.10756 0.27599 0.0
C2735 C 0.12466 0.11199 0.25706 0.0
C2736 C 0.15553 0.08913 0.2756 0.0
C2737 C 0.14227 0.11678 0.31573 0.0
C2738 C 0.17566 0.09177 0.27407 0.0
C2739 C 0.19351 0.07452 0.2733 0.0
C2740 C 0.1917 0.05425 0.27385 0.0
C2741 C 0.17164 0.05171 0.27454 0.0
C2742 C 0.15371 0.06897 0.27556 0.0
H2743 H 0.13219 0.12452 0.33188 0.0
H2744 H 0.14793 0.09969 0.32211 0.0
H2745 H 0.15623 0.12322 0.30939 0.0
H2746 H 0.17767 0.10725 0.27298 0.0
H2747 H 0.20881 0.07722 0.27128 0.0
H2748 H 0.26048 0.29761 0.93392 0.0
H2749 H 0.26027 0.32929 0.90358 0.0
H2750 H 0.22701 0.36718 0.9618 0.0
H2751 H 0.22876 0.33531 0.99255 0.0
H2752 H 0.23318 0.35786 0.88468 0.0
H2753 H 0.26741 0.39972 0.93264 0.0
H2754 H 0.26661 0.37297 0.94385 0.0
H2755 H 0.24379 0.39446 0.95186 0.0
C2756 C 0.25332 0.31268 0.94038 0.0
C2757 C 0.24476 0.31378 0.96584 0.0
C2758 C 0.25315 0.33096 0.92287 0.0
C2759 C 0.24401 0.3511 0.93004 0.0
C2760 C 0.235 0.35215 0.95551 0.0
H2761 H 0.21293 0.4794 0.85099 0.0
H2762 H 0.21484 0.44641 0.87972 0.0
C2763 C 0.23578 0.33381 0.9732 0.0
C2764 C 0.2433 0.37065 0.91069 0.0
H2765 H 0.25055 0.42016 0.89891 0.0
C2766 C 0.23726 0.37131 0.88785 0.0
C2767 C 0.24867 0.38853 0.91422 0.0
C2768 C 0.2572 0.38881 0.93684 0.0
C2769 C 0.23592 0.38913 0.86916 0.0
C2770 C 0.24053 0.40718 0.87314 0.0
C2771 C 0.24676 0.40653 0.89577 0.0
C2772 C 0.23854 0.42706 0.85447 0.0
C2773 C 0.22881 0.38877 0.84559 0.0
C2774 C 0.25104 0.42749 0.8303 0.0
C2775 C 0.24994 0.4465 0.81373 0.0
C2776 C 0.23623 0.4656 0.8208 0.0
C2777 C 0.22351 0.46502 0.84477 0.0
C2778 C 0.22466 0.44611 0.86132 0.0
H2779 H 0.2221 0.37535 0.84715 0.0
H2780 H 0.21669 0.40358 0.84106 0.0
H2781 H 0.24251 0.38745 0.82987 0.0
H2782 H 0.26221 0.41325 0.8245 0.0
H2783 H 0.26034 0.44631 0.7957 0.0
H2784 H 0.28418 0.26526 0.949 0.0
H2785 H 0.31414 0.26385 0.9137 0.0
H2786 H 0.35717 0.23173 0.96428 0.0
H2787 H 0.3273 0.23142 0.99871 0.0
H2788 H 0.34656 0.27912 0.89944 0.0
H2789 H 0.3829 0.19386 0.91476 0.0
H2790 H 0.35701 0.20564 0.93145 0.0
H2791 H 0.38056 0.20497 0.94212 0.0
C2792 C 0.29993 0.25714 0.95242 0.0
C2793 C 0.3029 0.24757 0.97683 0.0
C2794 C 0.31731 0.25664 0.93213 0.0
C2795 C 0.33847 0.247 0.93555 0.0
C2796 C 0.34136 0.23835 0.96023 0.0
H2797 H 0.46893 0.22701 0.85339 0.0
H2798 H 0.43542 0.22871 0.88222 0.0
C2799 C 0.32403 0.23839 0.98024 0.0
C2800 C 0.35748 0.24644 0.91389 0.0
H2801 H 0.40498 0.21435 0.8887 0.0
C2802 C 0.35923 0.26486 0.89708 0.0
C2803 C 0.37433 0.22797 0.90999 0.0
C2804 C 0.37351 0.20697 0.92537 0.0
C2805 C 0.37733 0.26558 0.87788 0.0
C2806 C 0.39456 0.24721 0.8746 0.0
C2807 C 0.39238 0.22869 0.89092 0.0
C2808 C 0.41536 0.24669 0.85566 0.0
C2809 C 0.37796 0.28642 0.86201 0.0
C2810 C 0.41628 0.25606 0.8303 0.0
C2811 C 0.43591 0.25565 0.81367 0.0
C2812 C 0.45544 0.24497 0.82135 0.0
C2813 C 0.45444 0.23518 0.84639 0.0
C2814 C 0.435 0.23611 0.8631 0.0
H2815 H 0.36691 0.29976 0.87124 0.0
H2816 H 0.39413 0.28863 0.8578 0.0
H2817 H 0.37297 0.28708 0.84418 0.0
H2818 H 0.40182 0.26375 0.82314 0.0
H2819 H 0.43577 0.26388 0.79485 0.0
H2820 H 0.46513 0.52385 0.93628 0.0
H2821 H 0.44142 0.51568 0.91537 0.0
H2822 H 0.40449 0.49839 0.98667 0.0
H2823 H 0.42779 0.50708 1.00785 0.0
H2824 H 0.4325 0.47638 0.92033 0.0
H2825 H 0.36094 0.54038 0.94791 0.0
H2826 H 0.38711 0.54027 0.95058 0.0
H2827 H 0.37275 0.52427 0.97354 0.0
C2828 C 0.45178 0.51883 0.9476 0.0
C2829 C 0.44849 0.51625 0.97379 0.0
C2830 C 0.43837 0.51387 0.93557 0.0
C2831 C 0.42134 0.50635 0.94952 0.0
C2832 C 0.41753 0.50432 0.97561 0.0
H2833 H 0.31595 0.48789 0.90667 0.0
H2834 H 0.34648 0.47677 0.92767 0.0
C2835 C 0.43085 0.50941 0.98765 0.0
C2836 C 0.40734 0.50096 0.93674 0.0
H2837 H 0.35658 0.51538 0.92727 0.0
C2838 C 0.41586 0.4848 0.92185 0.0
C2839 C 0.38575 0.51209 0.93878 0.0
C2840 C 0.37609 0.53035 0.95336 0.0
C2841 C 0.40314 0.47953 0.90882 0.0
C2842 C 0.38157 0.49068 0.91099 0.0
C2843 C 0.3731 0.50659 0.92613 0.0
C2844 C 0.36753 0.4882 0.89587 0.0
C2845 C 0.41272 0.46228 0.89279 0.0
C2846 C 0.36983 0.49701 0.87062 0.0
C2847 C 0.35241 0.50339 0.85868 0.0
C2848 C 0.33274 0.50093 0.87199 0.0
C2849 C 0.33112 0.48984 0.89622 0.0
C2850 C 0.34853 0.48337 0.9081 0.0
H2851 H 0.42848 0.45257 0.89679 0.0
H2852 H 0.40205 0.45198 0.89572 0.0
H2853 H 0.4147 0.46934 0.87285 0.0
H2854 H 0.38427 0.50117 0.86104 0.0
H2855 H 0.35379 0.51201 0.83996 0.0
H2856 H 0.68525 0.67582 0.97399 0.0
H2857 H 0.67347 0.64376 0.98263 0.0
H2858 H 0.63756 0.66077 0.05386 0.0
H2859 H 0.6485 0.69337 0.04465 0.0
H2860 H 0.66891 0.60845 0.01818 0.0
H2861 H 0.59248 0.66952 1.01238 0.0
H2862 H 0.61744 0.67588 1.00556 0.0
H2863 H 0.60473 0.67021 0.03741 0.0
C2864 C 0.67543 0.6723 0.99183 0.0
C2865 C 0.66736 0.68709 1.00848 0.0
C2866 C 0.66878 0.65397 0.99681 0.0
C2867 C 0.65418 0.65024 0.01857 0.0
C2868 C 0.64847 0.66364 0.03672 0.0
H2869 H 0.55812 0.58729 0.02655 0.0
H2870 H 0.58456 0.59624 0.04293 0.0
C2871 C 0.65472 0.68219 0.0315 0.0
C2872 C 0.64169 0.63538 0.0196 0.0
H2873 H 0.59206 0.63474 0.01621 0.0
C2874 C 0.65204 0.61407 0.01817 0.0
C2875 C 0.61972 0.64287 0.01908 0.0
C2876 C 0.60793 0.66587 0.01844 0.0
C2877 C 0.64098 0.60016 1.0158 0.0
C2878 C 0.61916 0.60782 1.01498 0.0
C2879 C 0.60874 0.62887 0.01734 0.0
C2880 C 0.6071 0.59555 1.00815 0.0
C2881 C 0.6527 0.57756 1.01357 0.0
C2882 C 0.61141 0.59148 0.98347 0.0
C2883 C 0.5963 0.58655 0.97412 0.0
C2884 C 0.57682 0.5855 0.98942 0.0
C2885 C 0.57322 0.58776 1.01465 0.0
C2886 C 0.5883 0.5928 0.02397 0.0
H2887 H 0.66768 0.57281 0.02094 0.0
H2888 H 0.6427 0.56699 0.0237 0.0
H2889 H 0.6567 0.57545 0.9936 0.0
H2890 H 0.62556 0.59405 0.97079 0.0
H2891 H 0.59913 0.58513 0.9545 0.0
H2892 H 0.94107 0.81164 0.79587 0.0
H2893 H 0.91016 0.84136 0.79315 0.0
H2894 H 0.92711 0.84902 0.71271 0.0
H2895 H 0.95652 0.81715 0.71557 0.0
H2896 H 0.9051 0.87849 0.78008 0.0
H2897 H 0.86772 0.85557 0.7154 0.0
H2898 H 0.88996 0.83775 0.72802 0.0
H2899 H 0.89395 0.85736 0.70134 0.0
C2900 C 0.93789 0.81925 0.77758 0.0
C2901 C 0.95084 0.81166 0.75595 0.0
C2902 C 0.92028 0.83652 0.77599 0.0
C2903 C 0.91575 0.84741 0.75268 0.0
C2904 C 0.92945 0.84048 0.73095 0.0
H2905 H 0.82717 0.97333 0.75298 0.0
H2906 H 0.85908 0.94389 0.74955 0.0
C2907 C 0.9465 0.82244 0.73257 0.0
C2908 C 0.8972 0.86637 0.75165 0.0
H2909 H 0.85377 0.89055 0.72441 0.0
C2910 C 0.89383 0.8809 0.76801 0.0
C2911 C 0.88221 0.86972 0.73608 0.0
C2912 C 0.88351 0.85415 0.71944 0.0
C2913 C 0.8759 0.89818 0.76973 0.0
C2914 C 0.8615 0.90205 0.75338 0.0
C2915 C 0.86494 0.88778 0.73672 0.0
C2916 C 0.84231 0.92026 0.75403 0.0
C2917 C 0.87215 0.91148 0.78993 0.0
C2918 C 0.82226 0.91702 0.75665 0.0
C2919 C 0.80411 0.93392 0.7578 0.0
C2920 C 0.80554 0.95444 0.75654 0.0
C2921 C 0.82555 0.95773 0.75397 0.0
C2922 C 0.8438 0.94085 0.75225 0.0
H2923 H 0.88051 0.90266 0.80548 0.0
H2924 H 0.87837 0.92534 0.78202 0.0
H2925 H 0.85503 0.91704 0.79775 0.0
H2926 H 0.8206 0.90134 0.75822 0.0
H2927 H 0.78888 0.93081 0.76043 0.0
H2928 H 0.50528 0.1829 0.61908 0.0
H2929 H 0.51147 0.15229 0.59853 0.0
H2930 H 0.49876 0.11512 0.67021 0.0
H2931 H 0.49243 0.14595 0.69087 0.0
H2932 H 0.53597 0.10761 0.60198 0.0
H2933 H 0.44888 0.12069 0.63467 0.0
H2934 H 0.4623 0.13974 0.63591 0.0
H2935 H 0.46484 0.11611 0.65802 0.0
C2936 C 0.50466 0.16797 0.63049 0.0
C2937 C 0.49833 0.16676 0.65654 0.0
C2938 C 0.50815 0.15049 0.61873 0.0
C2939 C 0.50519 0.13151 0.63277 0.0
C2940 C 0.50091 0.12969 0.65899 0.0
H2941 H 0.49857 0.02637 0.5668 0.0
H2942 H 0.50329 0.04647 0.59561 0.0
C2943 C 0.49747 0.14723 0.67081 0.0
C2944 C 0.50313 0.11522 0.61976 0.0
H2945 H 0.46571 0.09614 0.60707 0.0
C2946 C 0.52068 0.10487 0.60334 0.0
C2947 C 0.48313 0.11173 0.6214 0.0
C2948 C 0.46362 0.12269 0.6383 0.0
C2949 C 0.5186 0.09144 0.58831 0.0
C2950 C 0.49845 0.08864 0.58938 0.0
C2951 C 0.48109 0.09847 0.60623 0.0
C2952 C 0.49486 0.07637 0.57228 0.0
C2953 C 0.53781 0.08047 0.57108 0.0
C2954 C 0.48798 0.08652 0.54986 0.0
C2955 C 0.48517 0.07494 0.53328 0.0
C2956 C 0.48913 0.05297 0.53881 0.0
C2957 C 0.49534 0.04309 0.56175 0.0
C2958 C 0.49816 0.05461 0.57831 0.0
H2959 H 0.55213 0.08533 0.57108 0.0
H2960 H 0.54106 0.06323 0.57693 0.0
H2961 H 0.53468 0.08374 0.55176 0.0
H2962 H 0.48523 0.10337 0.54494 0.0
H2963 H 0.48057 0.08313 0.51573 0.0
H2964 H 0.47446 0.33742 0.8945 0.0
H2965 H 0.46736 0.36881 0.91444 0.0
H2966 H 0.52552 0.38075 0.87074 0.0
H2967 H 0.53235 0.34974 0.85081 0.0
H2968 H 0.49168 0.37245 0.94366 0.0
H2969 H 0.4877 0.43956 0.86814 0.0
H2970 H 0.48506 0.41472 0.86405 0.0
H2971 H 0.51091 0.41882 0.86003 0.0
C2972 C 0.4852 0.34732 0.88849 0.0
C2973 C 0.50378 0.34144 0.87086 0.0
C2974 C 0.48125 0.36513 0.9 0.0
C2975 C 0.49579 0.37737 0.89396 0.0
C2976 C 0.51376 0.37201 0.87534 0.0
H2977 H 0.54105 0.44147 0.97869 0.0
H2978 H 0.53548 0.41928 0.95221 0.0
C2979 C 0.51771 0.35424 0.86395 0.0
C2980 C 0.49404 0.39379 0.90922 0.0
H2981 H 0.49986 0.4431 0.90459 0.0
C2982 C 0.49313 0.38799 0.93511 0.0
C2983 C 0.49554 0.41429 0.8983 0.0
C2984 C 0.4946 0.42227 0.87114 0.0
C2985 C 0.49512 0.40156 0.94994 0.0
C2986 C 0.49846 0.42126 0.93859 0.0
C2987 C 0.498 0.42766 0.91308 0.0
C2988 C 0.50229 0.43539 0.95314 0.0
C2989 C 0.49391 0.39474 0.97765 0.0
C2990 C 0.48556 0.45174 0.96228 0.0
C2991 C 0.48883 0.4644 0.97709 0.0
C2992 C 0.50894 0.46133 0.98272 0.0
C2993 C 0.52564 0.44475 0.97383 0.0
C2994 C 0.52241 0.43201 0.9589 0.0
H2995 H 0.48962 0.37964 0.98396 0.0
H2996 H 0.50946 0.39294 0.98258 0.0
H2997 H 0.48199 0.40698 0.98796 0.0
H2998 H 0.46983 0.45431 0.95857 0.0
H2999 H 0.4753 0.47595 0.9851 0.0
H3000 H 0.52976 0.85294 0.34793 0.0
H3001 H 0.52317 0.88298 0.36959 0.0
H3002 H 0.46764 0.86749 0.41633 0.0
H3003 H 0.47453 0.83706 0.39477 0.0
H3004 H 0.49165 0.91856 0.38195 0.0
H3005 H 0.50592 0.85926 0.46613 0.0
H3006 H 0.50983 0.85183 0.43573 0.0
H3007 H 0.48351 0.86016 0.45335 0.0
C3008 C 0.51574 0.85641 0.36224 0.0
C3009 C 0.50266 0.84275 0.36971 0.0
C3010 C 0.512 0.87353 0.37469 0.0
C3011 C 0.49523 0.87722 0.39503 0.0
C3012 C 0.48095 0.86471 0.40103 0.0
H3013 H 0.47613 0.97046 0.49266 0.0
H3014 H 0.47036 0.94912 0.4658 0.0
C3015 C 0.48471 0.8475 0.38852 0.0
C3016 C 0.49465 0.89228 0.41151 0.0
H3017 H 0.50273 0.89418 0.46932 0.0
C3018 C 0.49377 0.91329 0.40115 0.0
C3019 C 0.49772 0.88537 0.43653 0.0
C3020 C 0.49947 0.86291 0.44863 0.0
C3021 C 0.49625 0.92736 0.41499 0.0
C3022 C 0.49988 0.9202 0.43965 0.0
C3023 C 0.50016 0.89947 0.45027 0.0
C3024 C 0.5036 0.93394 0.45478 0.0
C3025 C 0.49585 0.94958 0.40297 0.0
C3026 C 0.5242 0.93219 0.45789 0.0
C3027 C 0.52752 0.94446 0.47332 0.0
C3028 C 0.51034 0.95895 0.48532 0.0
C3029 C 0.48975 0.9602 0.48262 0.0
C3030 C 0.4864 0.94791 0.46743 0.0
H3031 H 0.49156 0.95315 0.38417 0.0
H3032 H 0.48432 0.96083 0.41491 0.0
H3033 H 0.51168 0.95208 0.40124 0.0
H3034 H 0.53765 0.92115 0.44862 0.0
H3035 H 0.54339 0.94244 0.47605 0.0
H3036 H 0.52208 0.55148 0.0216 0.0
H3037 H 0.52928 0.57026 0.0504 0.0
H3038 H 0.46538 0.57746 0.09119 0.0
H3039 H 0.45823 0.5592 0.06205 0.0
H3040 H 0.50719 0.61148 0.05821 0.0
H3041 H 0.50174 0.55711 0.1471 0.0
H3042 H 0.50629 0.54875 0.11701 0.0
H3043 H 0.48 0.5618 0.13128 0.0
C3044 C 0.50977 0.55654 0.03715 0.0
C3045 C 0.48989 0.55269 0.04035 0.0
C3046 C 0.51387 0.56739 0.05351 0.0
C3047 C 0.49809 0.57474 0.07349 0.0
C3048 C 0.47808 0.57126 0.07651 0.0
H3049 H 0.4639 0.66327 0.17352 0.0
H3050 H 0.47063 0.63179 0.15427 0.0
C3051 C 0.47399 0.56057 0.05991 0.0
C3052 C 0.50173 0.58797 0.08951 0.0
H3053 H 0.49911 0.59275 0.1502 0.0
C3054 C 0.50575 0.60727 0.07829 0.0
C3055 C 0.50001 0.58238 0.11567 0.0
C3056 C 0.49698 0.56129 0.12852 0.0
C3057 C 0.50675 0.62172 0.09259 0.0
C3058 C 0.50416 0.61654 0.11894 0.0
C3059 C 0.50106 0.59679 0.13007 0.0
C3060 C 0.50237 0.63233 0.13513 0.0
C3061 C 0.50935 0.64289 0.07933 0.0
C3062 C 0.51845 0.64235 0.13219 0.0
C3063 C 0.51457 0.66039 0.1432 0.0
C3064 C 0.49473 0.6684 0.15777 0.0
C3065 C 0.47944 0.65719 0.16269 0.0
C3066 C 0.48325 0.63927 0.15156 0.0
H3067 H 0.50644 0.64599 0.05991 0.0
H3068 H 0.49833 0.65569 0.08947 0.0
H3069 H 0.52579 0.64341 0.07845 0.0
H3070 H 0.53351 0.63704 0.12009 0.0
H3071 H 0.52649 0.66895 0.13884 0.0
loop_
_geom_bond_atom_site_label_1
_geom_bond_atom_site_label_2
_geom_bond_distance
_geom_bond_site_symmetry_2
_ccdc_geom_bond_type
Eu0 N31 2.657 1_565 S
Eu0 N38 2.609 . S
Eu0 O44 2.558 . S
Eu0 O45 2.612 1_654 S
Eu0 O47 2.339 1_564 S
Eu0 O48 2.563 1_554 S
Eu0 O49 2.419 . S
Eu0 O51 2.380 1_565 S
Eu0 O52 2.432 1_655 S
Eu0 C64 2.848 . S
C1 C4 1.429 1_545 S
C1 C5 1.411 . S
C1 N8 1.377 . S
C2 C4 1.420 . S
C2 C6 1.423 . S
C2 C14 1.392 . S
C3 C5 1.420 1_565 S
C3 C6 1.351 . S
C3 H26 0.931 . S
C4 C1 1.429 1_565 S
C4 C2 1.420 . S
C4 N12 1.362 . S
C5 C1 1.411 . S
C5 C3 1.420 1_545 S
C5 C10 1.395 . S
C6 C2 1.423 . S
C6 C3 1.351 . S
C6 H18 0.930 . S
C7 C9 1.400 . S
C7 C10 1.386 . S
C7 H19 0.920 1_455 S
N8 C1 1.377 . S
N8 C9 1.321 . S
N8 Eu11 2.609 . S
C9 C7 1.400 . S
C9 N8 1.321 . S
C9 H16 0.930 1_455 S
C10 C5 1.395 . S
C10 C7 1.386 . S
C10 H29 0.930 . S
Eu11 N8 2.609 . S
Eu11 N12 2.657 1_545 S
Eu11 O45 2.380 1_545 S
Eu11 O46 2.432 1_455 S
Eu11 O50 2.558 . S
Eu11 O51 2.612 1_456 S
Eu11 O53 2.339 1_546 S
Eu11 O54 2.563 1_556 S
Eu11 O55 2.419 . S
Eu11 C75 2.848 . S
N12 C4 1.362 . S
N12 Eu11 2.657 1_565 S
N12 C13 1.334 . S
C13 N12 1.334 . S
C13 C15 1.413 . S
C13 H20 0.929 . S
C14 C2 1.392 . S
C14 C15 1.367 . S
C14 H22 0.930 . S
C15 C13 1.413 . S
C15 C14 1.367 . S
C15 H17 0.930 . S
H16 C9 0.930 1_655 S
H17 C15 0.930 . S
H18 C6 0.930 . S
H19 C7 0.920 1_655 S
H20 C13 0.929 . S
H21 C35 0.930 . S
H22 C14 0.930 . S
H23 C41 0.930 1_455 S
H24 C32 0.929 . S
H25 C39 0.901 1_455 S
H26 C3 0.931 . S
H27 C33 0.930 . S
H28 C66 0.930 . S
H29 C10 0.930 . S
H30 C65 0.931 . S
N31 Eu0 2.657 1_545 S
N31 C32 1.334 . S
N31 C36 1.362 . S
C32 H24 0.929 . S
C32 N31 1.334 . S
C32 C35 1.413 . S
C33 H27 0.930 . S
C33 C34 1.392 . S
C33 C35 1.367 . S
C34 C33 1.392 . S
C34 C36 1.420 . S
C34 C66 1.423 . S
C35 H21 0.930 . S
C35 C32 1.413 . S
C35 C33 1.367 . S
C36 N31 1.362 . S
C36 C34 1.420 . S
C36 C40 1.429 1_545 S
H37 C42 0.930 . S
N38 Eu0 2.609 . S
N38 C40 1.377 . S
N38 C41 1.321 . S
C39 H25 0.901 1_655 S
C39 C41 1.400 . S
C39 C42 1.386 . S
C40 C36 1.429 1_565 S
C40 N38 1.377 . S
C40 C43 1.411 . S
C41 H23 0.930 1_655 S
C41 N38 1.321 . S
C41 C39 1.400 . S
C42 H37 0.930 . S
C42 C39 1.386 . S
C42 C43 1.395 . S
C43 C40 1.411 . S
C43 C42 1.395 . S
C43 C65 1.420 1_565 S
O44 Eu0 2.558 . S
O44 C64 1.257 . S
O45 Eu0 2.612 1_456 S
O45 Eu11 2.380 1_565 S
O45 C56 1.276 . S
O46 Eu11 2.432 1_655 S
O46 C63 1.264 . S
O47 Eu0 2.339 1_546 S
O47 C63 1.254 . S
O48 Eu0 2.563 1_556 S
O48 C56 1.235 1_655 S
O49 Eu0 2.419 . S
O49 C64 1.249 . S
O50 Eu11 2.558 . S
O50 C75 1.257 . S
O51 Eu0 2.380 1_545 S
O51 Eu11 2.612 1_654 S
O51 C67 1.276 . S
O52 Eu0 2.432 1_455 S
O52 C74 1.264 . S
O53 Eu11 2.339 1_564 S
O53 C74 1.254 . S
O54 Eu11 2.563 1_554 S
O54 C67 1.235 1_455 S
O55 Eu11 2.419 . S
O55 C75 1.249 . S
C56 O45 1.276 . S
C56 O48 1.235 1_455 S
C57 C59 1.393 . S
C57 C61 1.395 . S
C57 C64 1.492 . S
C58 C59 1.392 . S
C58 C60 1.386 . S
C59 C57 1.393 . S
C59 C58 1.392 . S
C59 H76 0.930 . S
C60 C58 1.386 . S
C60 C62 1.395 . S
C60 H77 0.930 . S
C61 C57 1.395 . S
C61 C62 1.379 . S
C61 H78 0.930 . S
C62 C60 1.395 . S
C62 C61 1.379 . S
C62 H79 0.930 . S
C63 O46 1.264 . S
C63 O47 1.254 . S
C64 Eu0 2.848 . S
C64 O44 1.257 . S
C64 O49 1.249 . S
C64 C57 1.492 . S
C65 H30 0.931 . S
C65 C43 1.420 1_545 S
C65 C66 1.351 . S
C66 H28 0.930 . S
C66 C34 1.423 . S
C66 C65 1.351 . S
C67 O51 1.276 . S
C67 O54 1.235 1_655 S
C68 C69 1.393 . S
C68 C72 1.395 . S
C68 C75 1.492 . S
C69 C68 1.393 . S
C69 C70 1.392 . S
C69 H80 0.930 . S
C70 C69 1.392 . S
C70 C71 1.386 . S
C71 C70 1.386 . S
C71 C73 1.395 . S
C71 H81 0.930 . S
C72 C68 1.395 . S
C72 C73 1.379 . S
C72 H82 0.930 . S
C73 C71 1.395 . S
C73 C72 1.379 . S
C73 H83 0.930 . S
C74 O52 1.264 . S
C74 O53 1.254 . S
C75 Eu11 2.848 . S
C75 O50 1.257 . S
C75 O55 1.249 . S
C75 C68 1.492 . S
H76 C59 0.930 . S
H77 C60 0.930 . S
H78 C61 0.930 . S
H79 C62 0.930 . S
H80 C69 0.930 . S
H81 C71 0.930 . S
H82 C72 0.930 . S
H83 C73 0.930 . S
Eu84 N115 2.657 . S
Eu84 N122 2.609 . S
Eu84 O128 2.558 . S
Eu84 O129 2.612 1_455 S
Eu84 O131 2.339 1_455 S
Eu84 O132 2.563 1_455 S
Eu84 O133 2.419 . S
Eu84 O135 2.380 . S
Eu84 O136 2.432 . S
Eu84 C148 2.848 . S
C85 C88 1.429 . S
C85 C89 1.411 . S
C85 N92 1.377 . S
C86 C88 1.420 . S
C86 C90 1.423 . S
C86 C98 1.392 . S
C87 C89 1.420 . S
C87 C90 1.351 . S
C87 H110 0.931 . S
C88 C85 1.429 . S
C88 C86 1.420 . S
C88 N96 1.362 . S
C89 C85 1.411 . S
C89 C87 1.420 . S
C89 C94 1.395 . S
C90 C86 1.423 . S
C90 C87 1.351 . S
C90 H102 0.930 . S
C91 C93 1.400 . S
C91 C94 1.386 . S
C91 H103 0.930 . S
N92 C85 1.377 . S
N92 C93 1.321 . S
N92 Eu95 2.609 . S
C93 C91 1.400 . S
C93 N92 1.321 . S
C93 H100 0.930 . S
C94 C89 1.395 . S
C94 C91 1.386 . S
C94 H113 0.930 . S
Eu95 N92 2.609 . S
Eu95 N96 2.657 . S
Eu95 O129 2.380 . S
Eu95 O130 2.432 . S
Eu95 O134 2.558 . S
Eu95 O135 2.612 1_655 S
Eu95 O137 2.339 1_655 S
Eu95 O138 2.563 1_655 S
Eu95 O139 2.419 . S
Eu95 C159 2.848 . S
N96 C88 1.362 . S
N96 Eu95 2.657 . S
N96 C97 1.334 . S
C97 N96 1.334 . S
C97 C99 1.413 . S
C97 H104 0.929 . S
C98 C86 1.392 . S
C98 C99 1.367 . S
C98 H106 0.930 . S
C99 C97 1.413 . S
C99 C98 1.367 . S
C99 H101 0.930 . S
H100 C93 0.930 . S
H101 C99 0.930 . S
H102 C90 0.930 . S
H103 C91 0.930 . S
H104 C97 0.929 . S
H105 C119 0.930 . S
H106 C98 0.930 . S
H107 C125 0.930 . S
H108 C116 0.929 . S
H109 C123 0.930 . S
H110 C87 0.931 . S
H111 C117 0.930 . S
H112 C150 0.930 . S
H113 C94 0.930 . S
H114 C149 0.931 . S
N115 Eu84 2.657 . S
N115 C116 1.334 . S
N115 C120 1.362 . S
C116 H108 0.929 . S
C116 N115 1.334 . S
C116 C119 1.413 . S
C117 H111 0.930 . S
C117 C118 1.392 . S
C117 C119 1.367 . S
C118 C117 1.392 . S
C118 C120 1.420 . S
C118 C150 1.423 . S
C119 H105 0.930 . S
C119 C116 1.413 . S
C119 C117 1.367 . S
C120 N115 1.362 . S
C120 C118 1.420 . S
C120 C124 1.429 . S
H121 C126 0.930 . S
N122 Eu84 2.609 . S
N122 C124 1.377 . S
N122 C125 1.321 . S
C123 H109 0.930 . S
C123 C125 1.400 . S
C123 C126 1.386 . S
C124 C120 1.429 . S
C124 N122 1.377 . S
C124 C127 1.411 . S
C125 H107 0.930 . S
C125 N122 1.321 . S
C125 C123 1.400 . S
C126 H121 0.930 . S
C126 C123 1.386 . S
C126 C127 1.395 . S
C127 C124 1.411 . S
C127 C126 1.395 . S
C127 C149 1.420 . S
O128 Eu84 2.558 . S
O128 C148 1.257 . S
O129 Eu84 2.612 1_655 S
O129 Eu95 2.380 . S
O129 C140 1.276 . S
O130 Eu95 2.432 . S
O130 C147 1.264 . S
O131 Eu84 2.339 1_655 S
O131 C147 1.254 . S
O132 Eu84 2.563 1_655 S
O132 C140 1.235 . S
O133 Eu84 2.419 . S
O133 C148 1.249 . S
O134 Eu95 2.558 . S
O134 C159 1.257 . S
O135 Eu84 2.380 . S
O135 Eu95 2.612 1_455 S
O135 C151 1.276 . S
O136 Eu84 2.432 . S
O136 C158 1.264 . S
O137 Eu95 2.339 1_455 S
O137 C158 1.254 . S
O138 Eu95 2.563 1_455 S
O138 C151 1.235 . S
O139 Eu95 2.419 . S
O139 C159 1.249 . S
C140 O129 1.276 . S
C140 O132 1.235 . S
C141 C143 1.393 1_455 S
C141 C145 1.395 . S
C141 C148 1.492 . S
C142 C143 1.392 . S
C142 C144 1.386 1_655 S
C143 C141 1.393 1_655 S
C143 C142 1.392 . S
C143 H160 0.930 . S
C144 C142 1.386 1_455 S
C144 C146 1.395 . S
C144 H161 0.930 . S
C145 C141 1.395 . S
C145 C146 1.379 . S
C145 H162 0.930 . S
C146 C144 1.395 . S
C146 C145 1.379 . S
C146 H163 0.930 . S
C147 O130 1.264 . S
C147 O131 1.254 . S
C148 Eu84 2.848 . S
C148 O128 1.257 . S
C148 O133 1.249 . S
C148 C141 1.492 . S
C149 H114 0.931 . S
C149 C127 1.420 . S
C149 C150 1.351 . S
C150 H112 0.930 . S
C150 C118 1.423 . S
C150 C149 1.351 . S
C151 O135 1.276 . S
C151 O138 1.235 . S
C152 C153 1.393 1_655 S
C152 C156 1.395 . S
C152 C159 1.492 . S
C153 C152 1.393 1_455 S
C153 C154 1.392 . S
C153 H164 0.930 . S
C154 C153 1.392 . S
C154 C155 1.386 1_455 S
C155 C154 1.386 1_655 S
C155 C157 1.395 . S
C155 H165 0.930 . S
C156 C152 1.395 . S
C156 C157 1.379 . S
C156 H166 0.930 . S
C157 C155 1.395 . S
C157 C156 1.379 . S
C157 H167 0.930 . S
C158 O136 1.264 . S
C158 O137 1.254 . S
C159 Eu95 2.848 . S
C159 O134 1.257 . S
C159 O139 1.249 . S
C159 C152 1.492 . S
H160 C143 0.930 . S
H161 C144 0.930 . S
H162 C145 0.930 . S
H163 C146 0.930 . S
H164 C153 0.930 . S
H165 C155 0.930 . S
H166 C156 0.930 . S
H167 C157 0.930 . S
Eu168 N199 2.657 . S
Eu168 N206 2.609 . S
Eu168 O212 2.558 . S
Eu168 O213 2.612 . S
Eu168 O215 2.339 . S
Eu168 O216 2.563 . S
Eu168 O217 2.419 . S
Eu168 O219 2.380 . S
Eu168 O220 2.432 . S
Eu168 C232 2.848 . S
C169 C172 1.429 . S
C169 C173 1.411 . S
C169 N176 1.377 . S
C170 C172 1.420 . S
C170 C174 1.423 . S
C170 C182 1.392 . S
C171 C173 1.420 . S
C171 C174 1.351 . S
C171 H194 0.931 . S
C172 C169 1.429 . S
C172 C170 1.420 . S
C172 N180 1.362 . S
C173 C169 1.411 . S
C173 C171 1.420 . S
C173 C178 1.395 . S
C174 C170 1.423 . S
C174 C171 1.351 . S
C174 H186 0.930 . S
C175 C177 1.400 . S
C175 C178 1.386 . S
C175 H187 0.930 . S
N176 C169 1.377 . S
N176 C177 1.321 . S
N176 Eu179 2.609 . S
C177 C175 1.400 . S
C177 N176 1.321 . S
C177 H184 0.930 . S
C178 C173 1.395 . S
C178 C175 1.386 . S
C178 H197 0.930 . S
Eu179 N176 2.609 . S
Eu179 N180 2.657 . S
Eu179 O213 2.380 . S
Eu179 O214 2.432 . S
Eu179 O218 2.558 . S
Eu179 O219 2.612 . S
Eu179 O221 2.339 . S
Eu179 O222 2.563 . S
Eu179 O223 2.419 . S
Eu179 C243 2.848 . S
N180 C172 1.362 . S
N180 Eu179 2.657 . S
N180 C181 1.334 . S
C181 N180 1.334 . S
C181 C183 1.413 . S
C181 H188 0.929 . S
C182 C170 1.392 . S
C182 C183 1.367 . S
C182 H190 0.930 . S
C183 C181 1.413 . S
C183 C182 1.367 . S
C183 H185 0.930 . S
H184 C177 0.930 . S
H185 C183 0.930 . S
H186 C174 0.930 . S
H187 C175 0.930 . S
H188 C181 0.929 . S
H189 C203 0.930 . S
H190 C182 0.930 . S
H191 C209 0.930 . S
H192 C200 0.929 . S
H193 C207 0.930 . S
H194 C171 0.931 . S
H195 C201 0.930 . S
H196 C234 0.930 . S
H197 C178 0.930 . S
H198 C233 0.931 . S
N199 Eu168 2.657 . S
N199 C200 1.334 . S
N199 C204 1.362 . S
C200 H192 0.929 . S
C200 N199 1.334 . S
C200 C203 1.413 . S
C201 H195 0.930 . S
C201 C202 1.392 . S
C201 C203 1.367 . S
C202 C201 1.392 . S
C202 C204 1.420 . S
C202 C234 1.423 . S
C203 H189 0.930 . S
C203 C200 1.413 . S
C203 C201 1.367 . S
C204 N199 1.362 . S
C204 C202 1.420 . S
C204 C208 1.429 . S
H205 C210 0.930 . S
N206 Eu168 2.609 . S
N206 C208 1.377 . S
N206 C209 1.321 . S
C207 H193 0.930 . S
C207 C209 1.400 . S
C207 C210 1.386 . S
C208 C204 1.429 . S
C208 N206 1.377 . S
C208 C211 1.411 . S
C209 H191 0.930 . S
C209 N206 1.321 . S
C209 C207 1.400 . S
C210 H205 0.930 . S
C210 C207 1.386 . S
C210 C211 1.395 . S
C211 C208 1.411 . S
C211 C210 1.395 . S
C211 C233 1.420 . S
O212 Eu168 2.558 . S
O212 C232 1.257 . S
O213 Eu168 2.612 . S
O213 Eu179 2.380 . S
O213 C224 1.276 . S
O214 Eu179 2.432 . S
O214 C231 1.264 . S
O215 Eu168 2.339 . S
O215 C231 1.254 . S
O216 Eu168 2.563 . S
O216 C224 1.235 . S
O217 Eu168 2.419 . S
O217 C232 1.249 . S
O218 Eu179 2.558 . S
O218 C243 1.257 . S
O219 Eu168 2.380 . S
O219 Eu179 2.612 . S
O219 C235 1.276 . S
O220 Eu168 2.432 . S
O220 C242 1.264 . S
O221 Eu179 2.339 . S
O221 C242 1.254 . S
O222 Eu179 2.563 . S
O222 C235 1.235 . S
O223 Eu179 2.419 . S
O223 C243 1.249 . S
C224 O213 1.276 . S
C224 O216 1.235 . S
C225 C227 1.393 . S
C225 C229 1.395 . S
C225 C232 1.492 . S
C226 C227 1.392 . S
C226 C228 1.386 . S
C227 C225 1.393 . S
C227 C226 1.392 . S
C227 H244 0.930 . S
C228 C226 1.386 . S
C228 C230 1.395 . S
C228 H245 0.930 . S
C229 C225 1.395 . S
C229 C230 1.379 . S
C229 H246 0.930 . S
C230 C228 1.395 . S
C230 C229 1.379 . S
C230 H247 0.930 . S
C231 O214 1.264 . S
C231 O215 1.254 . S
C232 Eu168 2.848 . S
C232 O212 1.257 . S
C232 O217 1.249 . S
C232 C225 1.492 . S
C233 H198 0.931 . S
C233 C211 1.420 . S
C233 C234 1.351 . S
C234 H196 0.930 . S
C234 C202 1.423 . S
C234 C233 1.351 . S
C235 O219 1.276 . S
C235 O222 1.235 . S
C236 C237 1.393 . S
C236 C240 1.395 . S
C236 C243 1.492 . S
C237 C236 1.393 . S
C237 C238 1.392 . S
C237 H248 0.930 . S
C238 C237 1.392 . S
C238 C239 1.386 . S
C239 C238 1.386 . S
C239 C241 1.395 . S
C239 H249 0.930 . S
C240 C236 1.395 . S
C240 C241 1.379 . S
C240 H250 0.930 . S
C241 C239 1.395 . S
C241 C240 1.379 . S
C241 H251 0.930 . S
C242 O220 1.264 . S
C242 O221 1.254 . S
C243 Eu179 2.848 . S
C243 O218 1.257 . S
C243 O223 1.249 . S
C243 C236 1.492 . S
H244 C227 0.930 . S
H245 C228 0.930 . S
H246 C229 0.930 . S
H247 C230 0.930 . S
H248 C237 0.930 . S
H249 C239 0.930 . S
H250 C240 0.930 . S
H251 C241 0.930 . S
Eu252 N283 2.657 . S
Eu252 N290 2.609 . S
Eu252 O296 2.558 . S
Eu252 O297 2.612 1_565 S
Eu252 O299 2.339 1_565 S
Eu252 O300 2.563 1_565 S
Eu252 O301 2.419 . S
Eu252 O303 2.380 . S
Eu252 O304 2.432 . S
Eu252 C316 2.848 . S
C253 C256 1.429 . S
C253 C257 1.411 . S
C253 N260 1.377 . S
C254 C256 1.420 . S
C254 C258 1.423 . S
C254 C266 1.392 . S
C255 C257 1.420 . S
C255 C258 1.351 . S
C255 H278 0.931 . S
C256 C253 1.429 . S
C256 C254 1.420 . S
C256 N264 1.362 . S
C257 C253 1.411 . S
C257 C255 1.420 . S
C257 C262 1.395 . S
C258 C254 1.423 . S
C258 C255 1.351 . S
C258 H270 0.930 . S
C259 C261 1.400 . S
C259 C262 1.386 . S
C259 H271 0.930 . S
N260 C253 1.377 . S
N260 C261 1.321 . S
N260 Eu263 2.609 . S
C261 C259 1.400 . S
C261 N260 1.321 . S
C261 H268 0.930 . S
C262 C257 1.395 . S
C262 C259 1.386 . S
C262 H281 0.930 . S
Eu263 N260 2.609 . S
Eu263 N264 2.657 . S
Eu263 O297 2.380 . S
Eu263 O298 2.432 . S
Eu263 O302 2.558 . S
Eu263 O303 2.612 1_545 S
Eu263 O305 2.339 1_545 S
Eu263 O306 2.563 1_545 S
Eu263 O307 2.419 . S
Eu263 C327 2.848 . S
N264 C256 1.362 . S
N264 Eu263 2.657 . S
N264 C265 1.334 . S
C265 N264 1.334 . S
C265 C267 1.413 . S
C265 H272 0.929 . S
C266 C254 1.392 . S
C266 C267 1.367 . S
C266 H274 0.930 . S
C267 C265 1.413 . S
C267 C266 1.367 . S
C267 H269 0.930 . S
H268 C261 0.930 . S
H269 C267 0.930 . S
H270 C258 0.930 . S
H271 C259 0.930 . S
H272 C265 0.929 . S
H273 C287 0.930 . S
H274 C266 0.930 . S
H275 C293 0.930 . S
H276 C284 0.929 . S
H277 C291 0.930 . S
H278 C255 0.931 . S
H279 C285 0.930 . S
H280 C318 0.930 . S
H281 C262 0.930 . S
H282 C317 0.931 . S
N283 Eu252 2.657 . S
N283 C284 1.334 . S
N283 C288 1.362 . S
C284 H276 0.929 . S
C284 N283 1.334 . S
C284 C287 1.413 . S
C285 H279 0.930 . S
C285 C286 1.392 . S
C285 C287 1.367 . S
C286 C285 1.392 . S
C286 C288 1.420 . S
C286 C318 1.423 . S
C287 H273 0.930 . S
C287 C284 1.413 . S
C287 C285 1.367 . S
C288 N283 1.362 . S
C288 C286 1.420 . S
C288 C292 1.429 . S
H289 C294 0.930 . S
N290 Eu252 2.609 . S
N290 C292 1.377 . S
N290 C293 1.321 . S
C291 H277 0.930 . S
C291 C293 1.400 . S
C291 C294 1.386 . S
C292 C288 1.429 . S
C292 N290 1.377 . S
C292 C295 1.411 . S
C293 H275 0.930 . S
C293 N290 1.321 . S
C293 C291 1.400 . S
C294 H289 0.930 . S
C294 C291 1.386 . S
C294 C295 1.395 . S
C295 C292 1.411 . S
C295 C294 1.395 . S
C295 C317 1.420 . S
O296 Eu252 2.558 . S
O296 C316 1.257 . S
O297 Eu252 2.612 1_545 S
O297 Eu263 2.380 . S
O297 C308 1.276 . S
O298 Eu263 2.432 . S
O298 C315 1.264 . S
O299 Eu252 2.339 1_545 S
O299 C315 1.254 . S
O300 Eu252 2.563 1_545 S
O300 C308 1.235 . S
O301 Eu252 2.419 . S
O301 C316 1.249 . S
O302 Eu263 2.558 . S
O302 C327 1.257 . S
O303 Eu252 2.380 . S
O303 Eu263 2.612 1_565 S
O303 C319 1.276 . S
O304 Eu252 2.432 . S
O304 C326 1.264 . S
O305 Eu263 2.339 1_565 S
O305 C326 1.254 . S
O306 Eu263 2.563 1_565 S
O306 C319 1.235 . S
O307 Eu263 2.419 . S
O307 C327 1.249 . S
C308 O297 1.276 . S
C308 O300 1.235 . S
C309 C311 1.393 1_565 S
C309 C313 1.395 . S
C309 C316 1.492 . S
C310 C311 1.392 . S
C310 C312 1.386 1_545 S
C311 C309 1.393 1_545 S
C311 C310 1.392 . S
C311 H328 0.930 . S
C312 C310 1.386 1_565 S
C312 C314 1.395 . S
C312 H329 0.930 . S
C313 C309 1.395 . S
C313 C314 1.379 . S
C313 H330 0.930 . S
C314 C312 1.395 . S
C314 C313 1.379 . S
C314 H331 0.930 . S
C315 O298 1.264 . S
C315 O299 1.254 . S
C316 Eu252 2.848 . S
C316 O296 1.257 . S
C316 O301 1.249 . S
C316 C309 1.492 . S
C317 H282 0.931 . S
C317 C295 1.420 . S
C317 C318 1.351 . S
C318 H280 0.930 . S
C318 C286 1.423 . S
C318 C317 1.351 . S
C319 O303 1.276 . S
C319 O306 1.235 . S
C320 C321 1.393 1_545 S
C320 C324 1.395 . S
C320 C327 1.492 . S
C321 C320 1.393 1_565 S
C321 C322 1.392 . S
C321 H332 0.930 . S
C322 C321 1.392 . S
C322 C323 1.386 1_565 S
C323 C322 1.386 1_545 S
C323 C325 1.395 . S
C323 H333 0.930 . S
C324 C320 1.395 . S
C324 C325 1.379 . S
C324 H334 0.930 . S
C325 C323 1.395 . S
C325 C324 1.379 . S
C325 H335 0.930 . S
C326 O304 1.264 . S
C326 O305 1.254 . S
C327 Eu263 2.848 . S
C327 O302 1.257 . S
C327 O307 1.249 . S
C327 C320 1.492 . S
H328 C311 0.930 . S
H329 C312 0.930 . S
H330 C313 0.930 . S
H331 C314 0.930 . S
H332 C321 0.930 . S
H333 C323 0.930 . S
H334 C324 0.930 . S
H335 C325 0.930 . S
Eu336 N367 2.657 . S
Eu336 N374 2.609 . S
Eu336 O380 2.558 . S
Eu336 O381 2.612 . S
Eu336 O383 2.339 . S
Eu336 O384 2.563 . S
Eu336 O385 2.419 . S
Eu336 O387 2.380 . S
Eu336 O388 2.432 . S
Eu336 C400 2.848 . S
C337 C340 1.429 . S
C337 C341 1.411 . S
C337 N344 1.377 . S
C338 C340 1.420 . S
C338 C342 1.423 . S
C338 C350 1.392 . S
C339 C341 1.420 . S
C339 C342 1.351 . S
C339 H362 0.931 . S
C340 C337 1.429 . S
C340 C338 1.420 . S
C340 N348 1.362 . S
C341 C337 1.411 . S
C341 C339 1.420 . S
C341 C346 1.395 . S
C342 C338 1.423 . S
C342 C339 1.351 . S
C342 H354 0.930 . S
C343 C345 1.400 . S
C343 C346 1.386 . S
C343 H355 0.930 . S
N344 C337 1.377 . S
N344 C345 1.321 . S
N344 Eu347 2.609 . S
C345 C343 1.400 . S
C345 N344 1.321 . S
C345 H352 0.930 . S
C346 C341 1.395 . S
C346 C343 1.386 . S
C346 H365 0.930 . S
Eu347 N344 2.609 . S
Eu347 N348 2.657 . S
Eu347 O381 2.380 . S
Eu347 O382 2.432 . S
Eu347 O386 2.558 . S
Eu347 O387 2.612 . S
Eu347 O389 2.339 . S
Eu347 O390 2.563 . S
Eu347 O391 2.419 . S
Eu347 C411 2.848 . S
N348 C340 1.362 . S
N348 Eu347 2.657 . S
N348 C349 1.334 . S
C349 N348 1.334 . S
C349 C351 1.413 . S
C349 H356 0.929 . S
C350 C338 1.392 . S
C350 C351 1.367 . S
C350 H358 0.930 . S
C351 C349 1.413 . S
C351 C350 1.367 . S
C351 H353 0.930 . S
H352 C345 0.930 . S
H353 C351 0.930 . S
H354 C342 0.930 . S
H355 C343 0.930 . S
H356 C349 0.929 . S
H357 C371 0.930 . S
H358 C350 0.930 . S
H359 C377 0.930 . S
H360 C368 0.929 . S
H361 C375 0.930 . S
H362 C339 0.931 . S
H363 C369 0.930 . S
H364 C402 0.930 . S
H365 C346 0.930 . S
H366 C401 0.931 . S
N367 Eu336 2.657 . S
N367 C368 1.334 . S
N367 C372 1.362 . S
C368 H360 0.929 . S
C368 N367 1.334 . S
C368 C371 1.413 . S
C369 H363 0.930 . S
C369 C370 1.392 . S
C369 C371 1.367 . S
C370 C369 1.392 . S
C370 C372 1.420 . S
C370 C402 1.423 . S
C371 H357 0.930 . S
C371 C368 1.413 . S
C371 C369 1.367 . S
C372 N367 1.362 . S
C372 C370 1.420 . S
C372 C376 1.429 . S
H373 C378 0.930 . S
N374 Eu336 2.609 . S
N374 C376 1.377 . S
N374 C377 1.321 . S
C375 H361 0.930 . S
C375 C377 1.400 . S
C375 C378 1.386 . S
C376 C372 1.429 . S
C376 N374 1.377 . S
C376 C379 1.411 . S
C377 H359 0.930 . S
C377 N374 1.321 . S
C377 C375 1.400 . S
C378 H373 0.930 . S
C378 C375 1.386 . S
C378 C379 1.395 . S
C379 C376 1.411 . S
C379 C378 1.395 . S
C379 C401 1.420 . S
O380 Eu336 2.558 . S
O380 C400 1.257 . S
O381 Eu336 2.612 . S
O381 Eu347 2.380 . S
O381 C392 1.276 . S
O382 Eu347 2.432 . S
O382 C399 1.264 . S
O383 Eu336 2.339 . S
O383 C399 1.254 . S
O384 Eu336 2.563 . S
O384 C392 1.235 . S
O385 Eu336 2.419 . S
O385 C400 1.249 . S
O386 Eu347 2.558 . S
O386 C411 1.257 . S
O387 Eu336 2.380 . S
O387 Eu347 2.612 . S
O387 C403 1.276 . S
O388 Eu336 2.432 . S
O388 C410 1.264 . S
O389 Eu347 2.339 . S
O389 C410 1.254 . S
O390 Eu347 2.563 . S
O390 C403 1.235 . S
O391 Eu347 2.419 . S
O391 C411 1.249 . S
C392 O381 1.276 . S
C392 O384 1.235 . S
C393 C395 1.393 . S
C393 C397 1.395 . S
C393 C400 1.492 . S
C394 C395 1.392 . S
C394 C396 1.386 . S
C395 C393 1.393 . S
C395 C394 1.392 . S
C395 H412 0.930 . S
C396 C394 1.386 . S
C396 C398 1.395 . S
C396 H413 0.930 . S
C397 C393 1.395 . S
C397 C398 1.379 . S
C397 H414 0.930 . S
C398 C396 1.395 . S
C398 C397 1.379 . S
C398 H415 0.930 . S
C399 O382 1.264 . S
C399 O383 1.254 . S
C400 Eu336 2.848 . S
C400 O380 1.257 . S
C400 O385 1.249 . S
C400 C393 1.492 . S
C401 H366 0.931 . S
C401 C379 1.420 . S
C401 C402 1.351 . S
C402 H364 0.930 . S
C402 C370 1.423 . S
C402 C401 1.351 . S
C403 O387 1.276 . S
C403 O390 1.235 . S
C404 C405 1.393 . S
C404 C408 1.395 . S
C404 C411 1.492 . S
C405 C404 1.393 . S
C405 C406 1.392 . S
C405 H416 0.930 . S
C406 C405 1.392 . S
C406 C407 1.386 . S
C407 C406 1.386 . S
C407 C409 1.395 . S
C407 H417 0.930 . S
C408 C404 1.395 . S
C408 C409 1.379 . S
C408 H418 0.930 . S
C409 C407 1.395 . S
C409 C408 1.379 . S
C409 H419 0.930 . S
C410 O388 1.264 . S
C410 O389 1.254 . S
C411 Eu347 2.848 . S
C411 O386 1.257 . S
C411 O391 1.249 . S
C411 C404 1.492 . S
H412 C395 0.930 . S
H413 C396 0.930 . S
H414 C397 0.930 . S
H415 C398 0.930 . S
H416 C405 0.930 . S
H417 C407 0.930 . S
H418 C408 0.930 . S
H419 C409 0.930 . S
Eu420 N451 2.657 . S
Eu420 N458 2.609 . S
Eu420 O464 2.558 . S
Eu420 O465 2.612 . S
Eu420 O467 2.339 . S
Eu420 O468 2.563 . S
Eu420 O469 2.419 . S
Eu420 O471 2.380 . S
Eu420 O472 2.432 . S
Eu420 C484 2.848 . S
C421 C424 1.429 . S
C421 C425 1.411 . S
C421 N428 1.377 . S
C422 C424 1.420 . S
C422 C426 1.423 . S
C422 C434 1.392 . S
C423 C425 1.420 . S
C423 C426 1.351 . S
C423 H446 0.931 . S
C424 C421 1.429 . S
C424 C422 1.420 . S
C424 N432 1.362 . S
C425 C421 1.411 . S
C425 C423 1.420 . S
C425 C430 1.395 . S
C426 C422 1.423 . S
C426 C423 1.351 . S
C426 H438 0.930 . S
C427 C429 1.400 . S
C427 C430 1.386 . S
C427 H439 0.930 . S
N428 C421 1.377 . S
N428 C429 1.321 . S
N428 Eu431 2.609 . S
C429 C427 1.400 . S
C429 N428 1.321 . S
C429 H436 0.930 . S
C430 C425 1.395 . S
C430 C427 1.386 . S
C430 H449 0.930 . S
Eu431 N428 2.609 . S
Eu431 N432 2.657 . S
Eu431 O465 2.380 . S
Eu431 O466 2.432 . S
Eu431 O470 2.558 . S
Eu431 O471 2.612 . S
Eu431 O473 2.339 . S
Eu431 O474 2.563 . S
Eu431 O475 2.419 . S
Eu431 C495 2.848 . S
N432 C424 1.362 . S
N432 Eu431 2.657 . S
N432 C433 1.334 . S
C433 N432 1.334 . S
C433 C435 1.413 . S
C433 H440 0.929 . S
C434 C422 1.392 . S
C434 C435 1.367 . S
C434 H442 0.930 . S
C435 C433 1.413 . S
C435 C434 1.367 . S
C435 H437 0.930 . S
H436 C429 0.930 . S
H437 C435 0.930 . S
H438 C426 0.930 . S
H439 C427 0.930 . S
H440 C433 0.929 . S
H441 C455 0.930 . S
H442 C434 0.930 . S
H443 C461 0.930 . S
H444 C452 0.929 . S
H445 C459 0.930 . S
H446 C423 0.931 . S
H447 C453 0.930 . S
H448 C486 0.930 . S
H449 C430 0.930 . S
H450 C485 0.931 . S
N451 Eu420 2.657 . S
N451 C452 1.334 . S
N451 C456 1.362 . S
C452 H444 0.929 . S
C452 N451 1.334 . S
C452 C455 1.413 . S
C453 H447 0.930 . S
C453 C454 1.392 . S
C453 C455 1.367 . S
C454 C453 1.392 . S
C454 C456 1.420 . S
C454 C486 1.423 . S
C455 H441 0.930 . S
C455 C452 1.413 . S
C455 C453 1.367 . S
C456 N451 1.362 . S
C456 C454 1.420 . S
C456 C460 1.429 . S
H457 C462 0.930 . S
N458 Eu420 2.609 . S
N458 C460 1.377 . S
N458 C461 1.321 . S
C459 H445 0.930 . S
C459 C461 1.400 . S
C459 C462 1.386 . S
C460 C456 1.429 . S
C460 N458 1.377 . S
C460 C463 1.411 . S
C461 H443 0.930 . S
C461 N458 1.321 . S
C461 C459 1.400 . S
C462 H457 0.930 . S
C462 C459 1.386 . S
C462 C463 1.395 . S
C463 C460 1.411 . S
C463 C462 1.395 . S
C463 C485 1.420 . S
O464 Eu420 2.558 . S
O464 C484 1.257 . S
O465 Eu420 2.612 . S
O465 Eu431 2.380 . S
O465 C476 1.276 . S
O466 Eu431 2.432 . S
O466 C483 1.264 . S
O467 Eu420 2.339 . S
O467 C483 1.254 . S
O468 Eu420 2.563 . S
O468 C476 1.235 . S
O469 Eu420 2.419 . S
O469 C484 1.249 . S
O470 Eu431 2.558 . S
O470 C495 1.257 . S
O471 Eu420 2.380 . S
O471 Eu431 2.612 . S
O471 C487 1.276 . S
O472 Eu420 2.432 . S
O472 C494 1.264 . S
O473 Eu431 2.339 . S
O473 C494 1.254 . S
O474 Eu431 2.563 . S
O474 C487 1.235 . S
O475 Eu431 2.419 . S
O475 C495 1.249 . S
C476 O465 1.276 . S
C476 O468 1.235 . S
C477 C479 1.393 . S
C477 C481 1.395 . S
C477 C484 1.492 . S
C478 C479 1.392 . S
C478 C480 1.386 . S
C479 C477 1.393 . S
C479 C478 1.392 . S
C479 H496 0.930 . S
C480 C478 1.386 . S
C480 C482 1.395 . S
C480 H497 0.930 . S
C481 C477 1.395 . S
C481 C482 1.379 . S
C481 H498 0.930 . S
C482 C480 1.395 . S
C482 C481 1.379 . S
C482 H499 0.930 . S
C483 O466 1.264 . S
C483 O467 1.254 . S
C484 Eu420 2.848 . S
C484 O464 1.257 . S
C484 O469 1.249 . S
C484 C477 1.492 . S
C485 H450 0.931 . S
C485 C463 1.420 . S
C485 C486 1.351 . S
C486 H448 0.930 . S
C486 C454 1.423 . S
C486 C485 1.351 . S
C487 O471 1.276 . S
C487 O474 1.235 . S
C488 C489 1.393 . S
C488 C492 1.395 . S
C488 C495 1.492 . S
C489 C488 1.393 . S
C489 C490 1.392 . S
C489 H500 0.930 . S
C490 C489 1.392 . S
C490 C491 1.386 . S
C491 C490 1.386 . S
C491 C493 1.395 . S
C491 H501 0.930 . S
C492 C488 1.395 . S
C492 C493 1.379 . S
C492 H502 0.930 . S
C493 C491 1.395 . S
C493 C492 1.379 . S
C493 H503 0.930 . S
C494 O472 1.264 . S
C494 O473 1.254 . S
C495 Eu431 2.848 . S
C495 O470 1.257 . S
C495 O475 1.249 . S
C495 C488 1.492 . S
H496 C479 0.930 . S
H497 C480 0.930 . S
H498 C481 0.930 . S
H499 C482 0.930 . S
H500 C489 0.930 . S
H501 C491 0.930 . S
H502 C492 0.930 . S
H503 C493 0.930 . S
Eu504 N535 2.657 . S
Eu504 N542 2.609 . S
Eu504 O548 2.558 . S
Eu504 O549 2.612 . S
Eu504 O551 2.339 . S
Eu504 O552 2.563 . S
Eu504 O553 2.419 . S
Eu504 O555 2.380 . S
Eu504 O556 2.432 . S
Eu504 C568 2.848 . S
C505 C508 1.429 . S
C505 C509 1.411 . S
C505 N512 1.377 . S
C506 C508 1.420 . S
C506 C510 1.423 . S
C506 C518 1.392 . S
C507 C509 1.420 . S
C507 C510 1.351 . S
C507 H530 0.931 . S
C508 C505 1.429 . S
C508 C506 1.420 . S
C508 N516 1.362 . S
C509 C505 1.411 . S
C509 C507 1.420 . S
C509 C514 1.395 . S
C510 C506 1.423 . S
C510 C507 1.351 . S
C510 H522 0.930 . S
C511 C513 1.400 . S
C511 C514 1.386 . S
C511 H523 0.930 . S
N512 C505 1.377 . S
N512 C513 1.321 . S
N512 Eu515 2.609 . S
C513 C511 1.400 . S
C513 N512 1.321 . S
C513 H520 0.930 . S
C514 C509 1.395 . S
C514 C511 1.386 . S
C514 H533 0.930 . S
Eu515 N512 2.609 . S
Eu515 N516 2.657 . S
Eu515 O549 2.380 . S
Eu515 O550 2.432 . S
Eu515 O554 2.558 . S
Eu515 O555 2.612 . S
Eu515 O557 2.339 . S
Eu515 O558 2.563 . S
Eu515 O559 2.419 . S
Eu515 C579 2.848 . S
N516 C508 1.362 . S
N516 Eu515 2.657 . S
N516 C517 1.334 . S
C517 N516 1.334 . S
C517 C519 1.413 . S
C517 H524 0.929 . S
C518 C506 1.392 . S
C518 C519 1.367 . S
C518 H526 0.930 . S
C519 C517 1.413 . S
C519 C518 1.367 . S
C519 H521 0.930 . S
H520 C513 0.930 . S
H521 C519 0.930 . S
H522 C510 0.930 . S
H523 C511 0.930 . S
H524 C517 0.929 . S
H525 C539 0.930 . S
H526 C518 0.930 . S
H527 C545 0.930 . S
H528 C536 0.929 . S
H529 C543 0.930 . S
H530 C507 0.931 . S
H531 C537 0.930 . S
H532 C570 0.930 . S
H533 C514 0.930 . S
H534 C569 0.931 . S
N535 Eu504 2.657 . S
N535 C536 1.334 . S
N535 C540 1.362 . S
C536 H528 0.929 . S
C536 N535 1.334 . S
C536 C539 1.413 . S
C537 H531 0.930 . S
C537 C538 1.392 . S
C537 C539 1.367 . S
C538 C537 1.392 . S
C538 C540 1.420 . S
C538 C570 1.423 . S
C539 H525 0.930 . S
C539 C536 1.413 . S
C539 C537 1.367 . S
C540 N535 1.362 . S
C540 C538 1.420 . S
C540 C544 1.429 . S
H541 C546 0.930 . S
N542 Eu504 2.609 . S
N542 C544 1.377 . S
N542 C545 1.321 . S
C543 H529 0.930 . S
C543 C545 1.400 . S
C543 C546 1.386 . S
C544 C540 1.429 . S
C544 N542 1.377 . S
C544 C547 1.411 . S
C545 H527 0.930 . S
C545 N542 1.321 . S
C545 C543 1.400 . S
C546 H541 0.930 . S
C546 C543 1.386 . S
C546 C547 1.395 . S
C547 C544 1.411 . S
C547 C546 1.395 . S
C547 C569 1.420 . S
O548 Eu504 2.558 . S
O548 C568 1.257 . S
O549 Eu504 2.612 . S
O549 Eu515 2.380 . S
O549 C560 1.276 . S
O550 Eu515 2.432 . S
O550 C567 1.264 . S
O551 Eu504 2.339 . S
O551 C567 1.254 . S
O552 Eu504 2.563 . S
O552 C560 1.235 . S
O553 Eu504 2.419 . S
O553 C568 1.249 . S
O554 Eu515 2.558 . S
O554 C579 1.257 . S
O555 Eu504 2.380 . S
O555 Eu515 2.612 . S
O555 C571 1.276 . S
O556 Eu504 2.432 . S
O556 C578 1.264 . S
O557 Eu515 2.339 . S
O557 C578 1.254 . S
O558 Eu515 2.563 . S
O558 C571 1.235 . S
O559 Eu515 2.419 . S
O559 C579 1.249 . S
C560 O549 1.276 . S
C560 O552 1.235 . S
C561 C563 1.393 . S
C561 C565 1.395 . S
C561 C568 1.492 . S
C562 C563 1.392 . S
C562 C564 1.386 . S
C563 C561 1.393 . S
C563 C562 1.392 . S
C563 H580 0.930 . S
C564 C562 1.386 . S
C564 C566 1.395 . S
C564 H581 0.930 . S
C565 C561 1.395 . S
C565 C566 1.379 . S
C565 H582 0.930 . S
C566 C564 1.395 . S
C566 C565 1.379 . S
C566 H583 0.930 . S
C567 O550 1.264 . S
C567 O551 1.254 . S
C568 Eu504 2.848 . S
C568 O548 1.257 . S
C568 O553 1.249 . S
C568 C561 1.492 . S
C569 H534 0.931 . S
C569 C547 1.420 . S
C569 C570 1.351 . S
C570 H532 0.930 . S
C570 C538 1.423 . S
C570 C569 1.351 . S
C571 O555 1.276 . S
C571 O558 1.235 . S
C572 C573 1.393 . S
C572 C576 1.395 . S
C572 C579 1.492 . S
C573 C572 1.393 . S
C573 C574 1.392 . S
C573 H584 0.930 . S
C574 C573 1.392 . S
C574 C575 1.386 . S
C575 C574 1.386 . S
C575 C577 1.395 . S
C575 H585 0.930 . S
C576 C572 1.395 . S
C576 C577 1.379 . S
C576 H586 0.930 . S
C577 C575 1.395 . S
C577 C576 1.379 . S
C577 H587 0.930 . S
C578 O556 1.264 . S
C578 O557 1.254 . S
C579 Eu515 2.848 . S
C579 O554 1.257 . S
C579 O559 1.249 . S
C579 C572 1.492 . S
H580 C563 0.930 . S
H581 C564 0.930 . S
H582 C565 0.930 . S
H583 C566 0.930 . S
H584 C573 0.930 . S
H585 C575 0.930 . S
H586 C576 0.930 . S
H587 C577 0.930 . S
Eu588 N619 2.657 . S
Eu588 N626 2.609 . S
Eu588 O632 2.558 . S
Eu588 O633 2.612 1_655 S
Eu588 O635 2.339 . S
Eu588 O636 2.563 . S
Eu588 O637 2.419 . S
Eu588 O639 2.380 . S
Eu588 O640 2.432 1_655 S
Eu588 C652 2.848 . S
C589 C592 1.429 . S
C589 C593 1.411 . S
C589 N596 1.377 . S
C590 C592 1.420 . S
C590 C594 1.423 . S
C590 C602 1.392 . S
C591 C593 1.420 . S
C591 C594 1.351 . S
C591 H614 0.931 . S
C592 C589 1.429 . S
C592 C590 1.420 . S
C592 N600 1.362 . S
C593 C589 1.411 . S
C593 C591 1.420 . S
C593 C598 1.395 . S
C594 C590 1.423 . S
C594 C591 1.351 . S
C594 H606 0.930 . S
C595 C597 1.400 . S
C595 C598 1.386 . S
C595 H607 0.920 1_455 S
N596 C589 1.377 . S
N596 C597 1.321 . S
N596 Eu599 2.609 . S
C597 C595 1.400 . S
C597 N596 1.321 . S
C597 H604 0.930 1_455 S
C598 C593 1.395 . S
C598 C595 1.386 . S
C598 H617 0.930 . S
Eu599 N596 2.609 . S
Eu599 N600 2.657 . S
Eu599 O633 2.380 . S
Eu599 O634 2.432 1_455 S
Eu599 O638 2.558 . S
Eu599 O639 2.612 1_455 S
Eu599 O641 2.339 . S
Eu599 O642 2.563 . S
Eu599 O643 2.419 . S
Eu599 C663 2.848 . S
N600 C592 1.362 . S
N600 Eu599 2.657 . S
N600 C601 1.334 . S
C601 N600 1.334 . S
C601 C603 1.413 . S
C601 H608 0.929 . S
C602 C590 1.392 . S
C602 C603 1.367 . S
C602 H610 0.930 . S
C603 C601 1.413 . S
C603 C602 1.367 . S
C603 H605 0.930 . S
H604 C597 0.930 1_655 S
H605 C603 0.930 . S
H606 C594 0.930 . S
H607 C595 0.920 1_655 S
H608 C601 0.929 . S
H609 C623 0.930 . S
H610 C602 0.930 . S
H611 C629 0.930 1_455 S
H612 C620 0.929 . S
H613 C627 0.900 1_455 S
H614 C591 0.931 . S
H615 C621 0.930 . S
H616 C654 0.930 . S
H617 C598 0.930 . S
H618 C653 0.931 . S
N619 Eu588 2.657 . S
N619 C620 1.334 . S
N619 C624 1.362 . S
C620 H612 0.929 . S
C620 N619 1.334 . S
C620 C623 1.413 . S
C621 H615 0.930 . S
C621 C622 1.392 . S
C621 C623 1.367 . S
C622 C621 1.392 . S
C622 C624 1.420 . S
C622 C654 1.423 . S
C623 H609 0.930 . S
C623 C620 1.413 . S
C623 C621 1.367 . S
C624 N619 1.362 . S
C624 C622 1.420 . S
C624 C628 1.429 . S
H625 C630 0.930 . S
N626 Eu588 2.609 . S
N626 C628 1.377 . S
N626 C629 1.321 . S
C627 H613 0.900 1_655 S
C627 C629 1.400 . S
C627 C630 1.386 . S
C628 C624 1.429 . S
C628 N626 1.377 . S
C628 C631 1.411 . S
C629 H611 0.930 1_655 S
C629 N626 1.321 . S
C629 C627 1.400 . S
C630 H625 0.930 . S
C630 C627 1.386 . S
C630 C631 1.395 . S
C631 C628 1.411 . S
C631 C630 1.395 . S
C631 C653 1.420 . S
O632 Eu588 2.558 . S
O632 C652 1.257 . S
O633 Eu588 2.612 1_455 S
O633 Eu599 2.380 . S
O633 C644 1.276 . S
O634 Eu599 2.432 1_655 S
O634 C651 1.264 . S
O635 Eu588 2.339 . S
O635 C651 1.254 . S
O636 Eu588 2.563 . S
O636 C644 1.235 1_655 S
O637 Eu588 2.419 . S
O637 C652 1.249 . S
O638 Eu599 2.558 . S
O638 C663 1.257 . S
O639 Eu588 2.380 . S
O639 Eu599 2.612 1_655 S
O639 C655 1.276 . S
O640 Eu588 2.432 1_455 S
O640 C662 1.264 . S
O641 Eu599 2.339 . S
O641 C662 1.254 . S
O642 Eu599 2.563 . S
O642 C655 1.235 1_455 S
O643 Eu599 2.419 . S
O643 C663 1.249 . S
C644 O633 1.276 . S
C644 O636 1.235 1_455 S
C645 C647 1.393 . S
C645 C649 1.395 . S
C645 C652 1.492 . S
C646 C647 1.392 . S
C646 C648 1.386 . S
C647 C645 1.393 . S
C647 C646 1.392 . S
C647 H664 0.930 . S
C648 C646 1.386 . S
C648 C650 1.395 . S
C648 H665 0.930 . S
C649 C645 1.395 . S
C649 C650 1.379 . S
C649 H666 0.930 . S
C650 C648 1.395 . S
C650 C649 1.379 . S
C650 H667 0.930 . S
C651 O634 1.264 . S
C651 O635 1.254 . S
C652 Eu588 2.848 . S
C652 O632 1.257 . S
C652 O637 1.249 . S
C652 C645 1.492 . S
C653 H618 0.931 . S
C653 C631 1.420 . S
C653 C654 1.351 . S
C654 H616 0.930 . S
C654 C622 1.423 . S
C654 C653 1.351 . S
C655 O639 1.276 . S
C655 O642 1.235 1_655 S
C656 C657 1.393 . S
C656 C660 1.395 . S
C656 C663 1.492 . S
C657 C656 1.393 . S
C657 C658 1.392 . S
C657 H668 0.930 . S
C658 C657 1.392 . S
C658 C659 1.386 . S
C659 C658 1.386 . S
C659 C661 1.395 . S
C659 H669 0.930 . S
C660 C656 1.395 . S
C660 C661 1.379 . S
C660 H670 0.930 . S
C661 C659 1.395 . S
C661 C660 1.379 . S
C661 H671 0.930 . S
C662 O640 1.264 . S
C662 O641 1.254 . S
C663 Eu599 2.848 . S
C663 O638 1.257 . S
C663 O643 1.249 . S
C663 C656 1.492 . S
H664 C647 0.930 . S
H665 C648 0.930 . S
H666 C649 0.930 . S
H667 C650 0.930 . S
H668 C657 0.930 . S
H669 C659 0.930 . S
H670 C660 0.930 . S
H671 C661 0.930 . S
Eu672 N703 2.657 . S
Eu672 N710 2.609 . S
Eu672 O716 2.558 . S
Eu672 O717 2.612 1_556 S
Eu672 O719 2.339 1_556 S
Eu672 O720 2.563 1_556 S
Eu672 O721 2.419 . S
Eu672 O723 2.380 . S
Eu672 O724 2.432 . S
Eu672 C736 2.848 . S
C673 C676 1.429 . S
C673 C677 1.411 . S
C673 N680 1.377 . S
C674 C676 1.420 . S
C674 C678 1.423 . S
C674 C686 1.392 . S
C675 C677 1.420 . S
C675 C678 1.351 . S
C675 H698 0.931 . S
C676 C673 1.429 . S
C676 C674 1.420 . S
C676 N684 1.362 . S
C677 C673 1.411 . S
C677 C675 1.420 . S
C677 C682 1.395 . S
C678 C674 1.423 . S
C678 C675 1.351 . S
C678 H690 0.930 . S
C679 C681 1.400 . S
C679 C682 1.386 . S
C679 H691 0.930 . S
N680 C673 1.377 . S
N680 C681 1.321 . S
N680 Eu683 2.609 . S
C681 C679 1.400 . S
C681 N680 1.321 . S
C681 H688 0.930 . S
C682 C677 1.395 . S
C682 C679 1.386 . S
C682 H701 0.930 . S
Eu683 N680 2.609 . S
Eu683 N684 2.657 . S
Eu683 O717 2.380 . S
Eu683 O718 2.432 . S
Eu683 O722 2.558 . S
Eu683 O723 2.612 1_554 S
Eu683 O725 2.339 1_554 S
Eu683 O726 2.563 1_554 S
Eu683 O727 2.419 . S
Eu683 C747 2.848 . S
N684 C676 1.362 . S
N684 Eu683 2.657 . S
N684 C685 1.334 . S
C685 N684 1.334 . S
C685 C687 1.413 . S
C685 H692 0.929 . S
C686 C674 1.392 . S
C686 C687 1.367 . S
C686 H694 0.930 . S
C687 C685 1.413 . S
C687 C686 1.367 . S
C687 H689 0.930 . S
H688 C681 0.930 . S
H689 C687 0.930 . S
H690 C678 0.930 . S
H691 C679 0.930 . S
H692 C685 0.929 . S
H693 C707 0.930 . S
H694 C686 0.930 . S
H695 C713 0.930 . S
H696 C704 0.929 . S
H697 C711 0.930 . S
H698 C675 0.931 . S
H699 C705 0.930 . S
H700 C738 0.930 . S
H701 C682 0.930 . S
H702 C737 0.931 . S
N703 Eu672 2.657 . S
N703 C704 1.334 . S
N703 C708 1.362 . S
C704 H696 0.929 . S
C704 N703 1.334 . S
C704 C707 1.413 . S
C705 H699 0.930 . S
C705 C706 1.392 . S
C705 C707 1.367 . S
C706 C705 1.392 . S
C706 C708 1.420 . S
C706 C738 1.423 . S
C707 H693 0.930 . S
C707 C704 1.413 . S
C707 C705 1.367 . S
C708 N703 1.362 . S
C708 C706 1.420 . S
C708 C712 1.429 . S
H709 C714 0.930 . S
N710 Eu672 2.609 . S
N710 C712 1.377 . S
N710 C713 1.321 . S
C711 H697 0.930 . S
C711 C713 1.400 . S
C711 C714 1.386 . S
C712 C708 1.429 . S
C712 N710 1.377 . S
C712 C715 1.411 . S
C713 H695 0.930 . S
C713 N710 1.321 . S
C713 C711 1.400 . S
C714 H709 0.930 . S
C714 C711 1.386 . S
C714 C715 1.395 . S
C715 C712 1.411 . S
C715 C714 1.395 . S
C715 C737 1.420 . S
O716 Eu672 2.558 . S
O716 C736 1.257 . S
O717 Eu672 2.612 1_554 S
O717 Eu683 2.380 . S
O717 C728 1.276 . S
O718 Eu683 2.432 . S
O718 C735 1.264 . S
O719 Eu672 2.339 1_554 S
O719 C735 1.254 . S
O720 Eu672 2.563 1_554 S
O720 C728 1.235 . S
O721 Eu672 2.419 . S
O721 C736 1.249 . S
O722 Eu683 2.558 . S
O722 C747 1.257 . S
O723 Eu672 2.380 . S
O723 Eu683 2.612 1_556 S
O723 C739 1.276 . S
O724 Eu672 2.432 . S
O724 C746 1.264 . S
O725 Eu683 2.339 1_556 S
O725 C746 1.254 . S
O726 Eu683 2.563 1_556 S
O726 C739 1.235 . S
O727 Eu683 2.419 . S
O727 C747 1.249 . S
C728 O717 1.276 . S
C728 O720 1.235 . S
C729 C731 1.393 . S
C729 C733 1.395 . S
C729 C736 1.492 . S
C730 C731 1.392 . S
C730 C732 1.386 . S
C731 C729 1.393 . S
C731 C730 1.392 . S
C731 H748 0.941 . S
C732 C730 1.386 . S
C732 C734 1.395 . S
C732 H749 0.930 . S
C733 C729 1.395 . S
C733 C734 1.379 . S
C733 H750 0.930 . S
C734 C732 1.395 . S
C734 C733 1.379 . S
C734 H751 0.930 . S
C735 O718 1.264 . S
C735 O719 1.254 . S
C736 Eu672 2.848 . S
C736 O716 1.257 . S
C736 O721 1.249 . S
C736 C729 1.492 . S
C737 H702 0.931 . S
C737 C715 1.420 . S
C737 C738 1.351 . S
C738 H700 0.930 . S
C738 C706 1.423 . S
C738 C737 1.351 . S
C739 O723 1.276 . S
C739 O726 1.235 . S
C740 C741 1.393 . S
C740 C744 1.395 . S
C740 C747 1.492 . S
C741 C740 1.393 . S
C741 C742 1.392 . S
C741 H752 0.951 . S
C742 C741 1.392 . S
C742 C743 1.386 . S
C743 C742 1.386 . S
C743 C745 1.395 . S
C743 H753 0.930 . S
C744 C740 1.395 . S
C744 C745 1.379 . S
C744 H754 0.930 . S
C745 C743 1.395 . S
C745 C744 1.379 . S
C745 H755 0.930 . S
C746 O724 1.264 . S
C746 O725 1.254 . S
C747 Eu683 2.848 . S
C747 O722 1.257 . S
C747 O727 1.249 . S
C747 C740 1.492 . S
H748 C731 0.941 . S
H749 C732 0.930 . S
H750 C733 0.930 . S
H751 C734 0.930 . S
H752 C741 0.951 . S
H753 C743 0.930 . S
H754 C744 0.930 . S
H755 C745 0.930 . S
Eu756 N787 2.657 . S
Eu756 N794 2.609 . S
Eu756 O800 2.558 . S
Eu756 O801 2.612 1_565 S
Eu756 O803 2.339 1_565 S
Eu756 O804 2.563 1_565 S
Eu756 O805 2.419 . S
Eu756 O807 2.380 . S
Eu756 O808 2.432 . S
Eu756 C820 2.848 . S
C757 C760 1.429 . S
C757 C761 1.411 . S
C757 N764 1.377 . S
C758 C760 1.420 . S
C758 C762 1.423 . S
C758 C770 1.392 . S
C759 C761 1.420 . S
C759 C762 1.351 . S
C759 H782 0.931 . S
C760 C757 1.429 . S
C760 C758 1.420 . S
C760 N768 1.362 . S
C761 C757 1.411 . S
C761 C759 1.420 . S
C761 C766 1.395 . S
C762 C758 1.423 . S
C762 C759 1.351 . S
C762 H774 0.930 . S
C763 C765 1.400 . S
C763 C766 1.386 . S
C763 H775 0.930 . S
N764 C757 1.377 . S
N764 C765 1.321 . S
N764 Eu767 2.609 . S
C765 C763 1.400 . S
C765 N764 1.321 . S
C765 H772 0.930 . S
C766 C761 1.395 . S
C766 C763 1.386 . S
C766 H785 0.930 . S
Eu767 N764 2.609 . S
Eu767 N768 2.657 . S
Eu767 O801 2.380 . S
Eu767 O802 2.432 . S
Eu767 O806 2.558 . S
Eu767 O807 2.612 1_545 S
Eu767 O809 2.339 1_545 S
Eu767 O810 2.563 1_545 S
Eu767 O811 2.419 . S
Eu767 C831 2.848 . S
N768 C760 1.362 . S
N768 Eu767 2.657 . S
N768 C769 1.334 . S
C769 N768 1.334 . S
C769 C771 1.413 . S
C769 H776 0.929 . S
C770 C758 1.392 . S
C770 C771 1.367 . S
C770 H778 0.930 . S
C771 C769 1.413 . S
C771 C770 1.367 . S
C771 H773 0.930 . S
H772 C765 0.930 . S
H773 C771 0.930 . S
H774 C762 0.930 . S
H775 C763 0.930 . S
H776 C769 0.929 . S
H777 C791 0.930 . S
H778 C770 0.930 . S
H779 C797 0.930 . S
H780 C788 0.929 . S
H781 C795 0.930 . S
H782 C759 0.931 . S
H783 C789 0.930 . S
H784 C822 0.930 . S
H785 C766 0.930 . S
H786 C821 0.931 . S
N787 Eu756 2.657 . S
N787 C788 1.334 . S
N787 C792 1.362 . S
C788 H780 0.929 . S
C788 N787 1.334 . S
C788 C791 1.413 . S
C789 H783 0.930 . S
C789 C790 1.392 . S
C789 C791 1.367 . S
C790 C789 1.392 . S
C790 C792 1.420 . S
C790 C822 1.423 . S
C791 H777 0.930 . S
C791 C788 1.413 . S
C791 C789 1.367 . S
C792 N787 1.362 . S
C792 C790 1.420 . S
C792 C796 1.429 . S
H793 C798 0.930 . S
N794 Eu756 2.609 . S
N794 C796 1.377 . S
N794 C797 1.321 . S
C795 H781 0.930 . S
C795 C797 1.400 . S
C795 C798 1.386 . S
C796 C792 1.429 . S
C796 N794 1.377 . S
C796 C799 1.411 . S
C797 H779 0.930 . S
C797 N794 1.321 . S
C797 C795 1.400 . S
C798 H793 0.930 . S
C798 C795 1.386 . S
C798 C799 1.395 . S
C799 C796 1.411 . S
C799 C798 1.395 . S
C799 C821 1.420 . S
O800 Eu756 2.558 . S
O800 C820 1.257 . S
O801 Eu756 2.612 1_545 S
O801 Eu767 2.380 . S
O801 C812 1.276 . S
O802 Eu767 2.432 . S
O802 C819 1.264 . S
O803 Eu756 2.339 1_545 S
O803 C819 1.254 . S
O804 Eu756 2.563 1_545 S
O804 C812 1.235 . S
O805 Eu756 2.419 . S
O805 C820 1.249 . S
O806 Eu767 2.558 . S
O806 C831 1.257 . S
O807 Eu756 2.380 . S
O807 Eu767 2.612 1_565 S
O807 C823 1.276 . S
O808 Eu756 2.432 . S
O808 C830 1.264 . S
O809 Eu767 2.339 1_565 S
O809 C830 1.254 . S
O810 Eu767 2.563 1_565 S
O810 C823 1.235 . S
O811 Eu767 2.419 . S
O811 C831 1.249 . S
C812 O801 1.276 . S
C812 O804 1.235 . S
C813 C815 1.393 1_565 S
C813 C817 1.395 . S
C813 C820 1.492 . S
C814 C815 1.392 . S
C814 C816 1.386 1_545 S
C815 C813 1.393 1_545 S
C815 C814 1.392 . S
C815 H832 0.930 . S
C816 C814 1.386 1_565 S
C816 C818 1.395 . S
C816 H833 0.930 . S
C817 C813 1.395 . S
C817 C818 1.379 . S
C817 H834 0.930 . S
C818 C816 1.395 . S
C818 C817 1.379 . S
C818 H835 0.930 . S
C819 O802 1.264 . S
C819 O803 1.254 . S
C820 Eu756 2.848 . S
C820 O800 1.257 . S
C820 O805 1.249 . S
C820 C813 1.492 . S
C821 H786 0.931 . S
C821 C799 1.420 . S
C821 C822 1.351 . S
C822 H784 0.930 . S
C822 C790 1.423 . S
C822 C821 1.351 . S
C823 O807 1.276 . S
C823 O810 1.235 . S
C824 C825 1.393 1_545 S
C824 C828 1.395 . S
C824 C831 1.492 . S
C825 C824 1.393 1_565 S
C825 C826 1.392 . S
C825 H836 0.930 . S
C826 C825 1.392 . S
C826 C827 1.386 1_565 S
C827 C826 1.386 1_545 S
C827 C829 1.395 . S
C827 H837 0.930 . S
C828 C824 1.395 . S
C828 C829 1.379 . S
C828 H838 0.930 . S
C829 C827 1.395 . S
C829 C828 1.379 . S
C829 H839 0.930 . S
C830 O808 1.264 . S
C830 O809 1.254 . S
C831 Eu767 2.848 . S
C831 O806 1.257 . S
C831 O811 1.249 . S
C831 C824 1.492 . S
H832 C815 0.930 . S
H833 C816 0.930 . S
H834 C817 0.930 . S
H835 C818 0.930 . S
H836 C825 0.930 . S
H837 C827 0.930 . S
H838 C828 0.930 . S
H839 C829 0.930 . S
Eu840 N871 2.657 . S
Eu840 N878 2.609 . S
Eu840 O884 2.558 . S
Eu840 O885 2.612 . S
Eu840 O887 2.339 . S
Eu840 O888 2.563 . S
Eu840 O889 2.419 . S
Eu840 O891 2.380 . S
Eu840 O892 2.432 . S
Eu840 C904 2.848 . S
C841 C844 1.429 . S
C841 C845 1.411 . S
C841 N848 1.377 . S
C842 C844 1.420 . S
C842 C846 1.423 . S
C842 C854 1.392 . S
C843 C845 1.420 . S
C843 C846 1.351 . S
C843 H866 0.931 . S
C844 C841 1.429 . S
C844 C842 1.420 . S
C844 N852 1.362 . S
C845 C841 1.411 . S
C845 C843 1.420 . S
C845 C850 1.395 . S
C846 C842 1.423 . S
C846 C843 1.351 . S
C846 H858 0.930 . S
C847 C849 1.400 . S
C847 C850 1.386 . S
C847 H859 0.930 . S
N848 C841 1.377 . S
N848 C849 1.321 . S
N848 Eu851 2.609 . S
C849 C847 1.400 . S
C849 N848 1.321 . S
C849 H856 0.930 . S
C850 C845 1.395 . S
C850 C847 1.386 . S
C850 H869 0.930 . S
Eu851 N848 2.609 . S
Eu851 N852 2.657 . S
Eu851 O885 2.380 . S
Eu851 O886 2.432 . S
Eu851 O890 2.558 . S
Eu851 O891 2.612 . S
Eu851 O893 2.339 . S
Eu851 O894 2.563 . S
Eu851 O895 2.419 . S
Eu851 C915 2.848 . S
N852 C844 1.362 . S
N852 Eu851 2.657 . S
N852 C853 1.334 . S
C853 N852 1.334 . S
C853 C855 1.413 . S
C853 H860 0.929 . S
C854 C842 1.392 . S
C854 C855 1.367 . S
C854 H862 0.930 . S
C855 C853 1.413 . S
C855 C854 1.367 . S
C855 H857 0.930 . S
H856 C849 0.930 . S
H857 C855 0.930 . S
H858 C846 0.930 . S
H859 C847 0.930 . S
H860 C853 0.929 . S
H861 C875 0.930 . S
H862 C854 0.930 . S
H863 C881 0.930 . S
H864 C872 0.929 . S
H865 C879 0.930 . S
H866 C843 0.931 . S
H867 C873 0.930 . S
H868 C906 0.930 . S
H869 C850 0.930 . S
H870 C905 0.931 . S
N871 Eu840 2.657 . S
N871 C872 1.334 . S
N871 C876 1.362 . S
C872 H864 0.929 . S
C872 N871 1.334 . S
C872 C875 1.413 . S
C873 H867 0.930 . S
C873 C874 1.392 . S
C873 C875 1.367 . S
C874 C873 1.392 . S
C874 C876 1.420 . S
C874 C906 1.423 . S
C875 H861 0.930 . S
C875 C872 1.413 . S
C875 C873 1.367 . S
C876 N871 1.362 . S
C876 C874 1.420 . S
C876 C880 1.429 . S
H877 C882 0.930 . S
N878 Eu840 2.609 . S
N878 C880 1.377 . S
N878 C881 1.321 . S
C879 H865 0.930 . S
C879 C881 1.400 . S
C879 C882 1.386 . S
C880 C876 1.429 . S
C880 N878 1.377 . S
C880 C883 1.411 . S
C881 H863 0.930 . S
C881 N878 1.321 . S
C881 C879 1.400 . S
C882 H877 0.930 . S
C882 C879 1.386 . S
C882 C883 1.395 . S
C883 C880 1.411 . S
C883 C882 1.395 . S
C883 C905 1.420 . S
O884 Eu840 2.558 . S
O884 C904 1.257 . S
O885 Eu840 2.612 . S
O885 Eu851 2.380 . S
O885 C896 1.276 . S
O886 Eu851 2.432 . S
O886 C903 1.264 . S
O887 Eu840 2.339 . S
O887 C903 1.254 . S
O888 Eu840 2.563 . S
O888 C896 1.235 . S
O889 Eu840 2.419 . S
O889 C904 1.249 . S
O890 Eu851 2.558 . S
O890 C915 1.257 . S
O891 Eu840 2.380 . S
O891 Eu851 2.612 . S
O891 C907 1.276 . S
O892 Eu840 2.432 . S
O892 C914 1.264 . S
O893 Eu851 2.339 . S
O893 C914 1.254 . S
O894 Eu851 2.563 . S
O894 C907 1.235 . S
O895 Eu851 2.419 . S
O895 C915 1.249 . S
C896 O885 1.276 . S
C896 O888 1.235 . S
C897 C899 1.393 . S
C897 C901 1.395 . S
C897 C904 1.492 . S
C898 C899 1.392 . S
C898 C900 1.386 . S
C899 C897 1.393 . S
C899 C898 1.392 . S
C899 H916 0.930 . S
C900 C898 1.386 . S
C900 C902 1.395 . S
C900 H917 0.930 . S
C901 C897 1.395 . S
C901 C902 1.379 . S
C901 H918 0.930 . S
C902 C900 1.395 . S
C902 C901 1.379 . S
C902 H919 0.930 . S
C903 O886 1.264 . S
C903 O887 1.254 . S
C904 Eu840 2.848 . S
C904 O884 1.257 . S
C904 O889 1.249 . S
C904 C897 1.492 . S
C905 H870 0.931 . S
C905 C883 1.420 . S
C905 C906 1.351 . S
C906 H868 0.930 . S
C906 C874 1.423 . S
C906 C905 1.351 . S
C907 O891 1.276 . S
C907 O894 1.235 . S
C908 C909 1.393 . S
C908 C912 1.395 . S
C908 C915 1.492 . S
C909 C908 1.393 . S
C909 C910 1.392 . S
C909 H920 0.930 . S
C910 C909 1.392 . S
C910 C911 1.386 . S
C911 C910 1.386 . S
C911 C913 1.395 . S
C911 H921 0.930 . S
C912 C908 1.395 . S
C912 C913 1.379 . S
C912 H922 0.930 . S
C913 C911 1.395 . S
C913 C912 1.379 . S
C913 H923 0.930 . S
C914 O892 1.264 . S
C914 O893 1.254 . S
C915 Eu851 2.848 . S
C915 O890 1.257 . S
C915 O895 1.249 . S
C915 C908 1.492 . S
H916 C899 0.930 . S
H917 C900 0.930 . S
H918 C901 0.930 . S
H919 C902 0.930 . S
H920 C909 0.930 . S
H921 C911 0.930 . S
H922 C912 0.930 . S
H923 C913 0.930 . S
Eu924 N955 2.657 . S
Eu924 N962 2.609 . S
Eu924 O968 2.558 . S
Eu924 O969 2.612 1_455 S
Eu924 O971 2.339 1_455 S
Eu924 O972 2.563 1_455 S
Eu924 O973 2.419 . S
Eu924 O975 2.380 . S
Eu924 O976 2.432 . S
Eu924 C988 2.848 . S
C925 C928 1.429 . S
C925 C929 1.411 . S
C925 N932 1.377 . S
C926 C928 1.420 . S
C926 C930 1.423 . S
C926 C938 1.392 . S
C927 C929 1.420 . S
C927 C930 1.351 . S
C927 H950 0.931 . S
C928 C925 1.429 . S
C928 C926 1.420 . S
C928 N936 1.362 . S
C929 C925 1.411 . S
C929 C927 1.420 . S
C929 C934 1.395 . S
C930 C926 1.423 . S
C930 C927 1.351 . S
C930 H942 0.930 . S
C931 C933 1.400 . S
C931 C934 1.386 . S
C931 H943 0.930 . S
N932 C925 1.377 . S
N932 C933 1.321 . S
N932 Eu935 2.609 . S
C933 C931 1.400 . S
C933 N932 1.321 . S
C933 H940 0.930 . S
C934 C929 1.395 . S
C934 C931 1.386 . S
C934 H953 0.930 . S
Eu935 N932 2.609 . S
Eu935 N936 2.657 . S
Eu935 O969 2.380 . S
Eu935 O970 2.432 . S
Eu935 O974 2.558 . S
Eu935 O975 2.612 1_655 S
Eu935 O977 2.339 1_655 S
Eu935 O978 2.563 1_655 S
Eu935 O979 2.419 . S
Eu935 C999 2.848 . S
N936 C928 1.362 . S
N936 Eu935 2.657 . S
N936 C937 1.334 . S
C937 N936 1.334 . S
C937 C939 1.413 . S
C937 H944 0.929 . S
C938 C926 1.392 . S
C938 C939 1.367 . S
C938 H946 0.930 . S
C939 C937 1.413 . S
C939 C938 1.367 . S
C939 H941 0.930 . S
H940 C933 0.930 . S
H941 C939 0.930 . S
H942 C930 0.930 . S
H943 C931 0.930 . S
H944 C937 0.929 . S
H945 C959 0.930 . S
H946 C938 0.930 . S
H947 C965 0.930 . S
H948 C956 0.929 . S
H949 C963 0.930 . S
H950 C927 0.931 . S
H951 C957 0.930 . S
H952 C990 0.930 . S
H953 C934 0.930 . S
H954 C989 0.931 . S
N955 Eu924 2.657 . S
N955 C956 1.334 . S
N955 C960 1.362 . S
C956 H948 0.929 . S
C956 N955 1.334 . S
C956 C959 1.413 . S
C957 H951 0.930 . S
C957 C958 1.392 . S
C957 C959 1.367 . S
C958 C957 1.392 . S
C958 C960 1.420 . S
C958 C990 1.423 . S
C959 H945 0.930 . S
C959 C956 1.413 . S
C959 C957 1.367 . S
C960 N955 1.362 . S
C960 C958 1.420 . S
C960 C964 1.429 . S
H961 C966 0.930 . S
N962 Eu924 2.609 . S
N962 C964 1.377 . S
N962 C965 1.321 . S
C963 H949 0.930 . S
C963 C965 1.400 . S
C963 C966 1.386 . S
C964 C960 1.429 . S
C964 N962 1.377 . S
C964 C967 1.411 . S
C965 H947 0.930 . S
C965 N962 1.321 . S
C965 C963 1.400 . S
C966 H961 0.930 . S
C966 C963 1.386 . S
C966 C967 1.395 . S
C967 C964 1.411 . S
C967 C966 1.395 . S
C967 C989 1.420 . S
O968 Eu924 2.558 . S
O968 C988 1.257 . S
O969 Eu924 2.612 1_655 S
O969 Eu935 2.380 . S
O969 C980 1.276 . S
O970 Eu935 2.432 . S
O970 C987 1.264 . S
O971 Eu924 2.339 1_655 S
O971 C987 1.254 . S
O972 Eu924 2.563 1_655 S
O972 C980 1.235 . S
O973 Eu924 2.419 . S
O973 C988 1.249 . S
O974 Eu935 2.558 . S
O974 C999 1.257 . S
O975 Eu924 2.380 . S
O975 Eu935 2.612 1_455 S
O975 C991 1.276 . S
O976 Eu924 2.432 . S
O976 C998 1.264 . S
O977 Eu935 2.339 1_455 S
O977 C998 1.254 . S
O978 Eu935 2.563 1_455 S
O978 C991 1.235 . S
O979 Eu935 2.419 . S
O979 C999 1.249 . S
C980 O969 1.276 . S
C980 O972 1.235 . S
C981 C983 1.393 1_455 S
C981 C985 1.395 . S
C981 C988 1.492 . S
C982 C983 1.392 . S
C982 C984 1.386 1_655 S
C983 C981 1.393 1_655 S
C983 C982 1.392 . S
C983 H1000 0.930 . S
C984 C982 1.386 1_455 S
C984 C986 1.395 . S
C984 H1001 0.930 . S
C985 C981 1.395 . S
C985 C986 1.379 . S
C985 H1002 0.930 . S
C986 C984 1.395 . S
C986 C985 1.379 . S
C986 H1003 0.930 . S
C987 O970 1.264 . S
C987 O971 1.254 . S
C988 Eu924 2.848 . S
C988 O968 1.257 . S
C988 O973 1.249 . S
C988 C981 1.492 . S
C989 H954 0.931 . S
C989 C967 1.420 . S
C989 C990 1.351 . S
C990 H952 0.930 . S
C990 C958 1.423 . S
C990 C989 1.351 . S
C991 O975 1.276 . S
C991 O978 1.235 . S
C992 C993 1.393 1_655 S
C992 C996 1.395 . S
C992 C999 1.492 . S
C993 C992 1.393 1_455 S
C993 C994 1.392 . S
C993 H1004 0.930 . S
C994 C993 1.392 . S
C994 C995 1.386 1_455 S
C995 C994 1.386 1_655 S
C995 C997 1.395 . S
C995 H1005 0.930 . S
C996 C992 1.395 . S
C996 C997 1.379 . S
C996 H1006 0.930 . S
C997 C995 1.395 . S
C997 C996 1.379 . S
C997 H1007 0.930 . S
C998 O976 1.264 . S
C998 O977 1.254 . S
C999 Eu935 2.848 . S
C999 O974 1.257 . S
C999 O979 1.249 . S
C999 C992 1.492 . S
H1000 C983 0.930 . S
H1001 C984 0.930 . S
H1002 C985 0.930 . S
H1003 C986 0.930 . S
H1004 C993 0.930 . S
H1005 C995 0.930 . S
H1006 C996 0.930 . S
H1007 C997 0.930 . S
Eu1008 N1039 2.657 . S
Eu1008 N1046 2.609 . S
Eu1008 O1052 2.558 . S
Eu1008 O1053 2.612 . S
Eu1008 O1055 2.339 . S
Eu1008 O1056 2.563 . S
Eu1008 O1057 2.419 . S
Eu1008 O1059 2.380 . S
Eu1008 O1060 2.432 . S
Eu1008 C1072 2.848 . S
C1009 C1012 1.429 . S
C1009 C1013 1.411 . S
C1009 N1016 1.377 . S
C1010 C1012 1.420 . S
C1010 C1014 1.423 . S
C1010 C1022 1.392 . S
C1011 C1013 1.420 . S
C1011 C1014 1.351 . S
C1011 H1034 0.931 . S
C1012 C1009 1.429 . S
C1012 C1010 1.420 . S
C1012 N1020 1.362 . S
C1013 C1009 1.411 . S
C1013 C1011 1.420 . S
C1013 C1018 1.395 . S
C1014 C1010 1.423 . S
C1014 C1011 1.351 . S
C1014 H1026 0.930 . S
C1015 C1017 1.400 . S
C1015 C1018 1.386 . S
C1015 H1027 0.930 . S
N1016 C1009 1.377 . S
N1016 C1017 1.321 . S
N1016 Eu1019 2.609 . S
C1017 C1015 1.400 . S
C1017 N1016 1.321 . S
C1017 H1024 0.930 . S
C1018 C1013 1.395 . S
C1018 C1015 1.386 . S
C1018 H1037 0.930 . S
Eu1019 N1016 2.609 . S
Eu1019 N1020 2.657 . S
Eu1019 O1053 2.380 . S
Eu1019 O1054 2.432 . S
Eu1019 O1058 2.558 . S
Eu1019 O1059 2.612 . S
Eu1019 O1061 2.339 . S
Eu1019 O1062 2.563 . S
Eu1019 O1063 2.419 . S
Eu1019 C1083 2.848 . S
N1020 C1012 1.362 . S
N1020 Eu1019 2.657 . S
N1020 C1021 1.334 . S
C1021 N1020 1.334 . S
C1021 C1023 1.413 . S
C1021 H1028 0.929 . S
C1022 C1010 1.392 . S
C1022 C1023 1.367 . S
C1022 H1030 0.930 . S
C1023 C1021 1.413 . S
C1023 C1022 1.367 . S
C1023 H1025 0.930 . S
H1024 C1017 0.930 . S
H1025 C1023 0.930 . S
H1026 C1014 0.930 . S
H1027 C1015 0.930 . S
H1028 C1021 0.929 . S
H1029 C1043 0.930 . S
H1030 C1022 0.930 . S
H1031 C1049 0.930 . S
H1032 C1040 0.929 . S
H1033 C1047 0.930 . S
H1034 C1011 0.931 . S
H1035 C1041 0.930 . S
H1036 C1074 0.930 . S
H1037 C1018 0.930 . S
H1038 C1073 0.931 . S
N1039 Eu1008 2.657 . S
N1039 C1040 1.334 . S
N1039 C1044 1.362 . S
C1040 H1032 0.929 . S
C1040 N1039 1.334 . S
C1040 C1043 1.413 . S
C1041 H1035 0.930 . S
C1041 C1042 1.392 . S
C1041 C1043 1.367 . S
C1042 C1041 1.392 . S
C1042 C1044 1.420 . S
C1042 C1074 1.423 . S
C1043 H1029 0.930 . S
C1043 C1040 1.413 . S
C1043 C1041 1.367 . S
C1044 N1039 1.362 . S
C1044 C1042 1.420 . S
C1044 C1048 1.429 . S
H1045 C1050 0.930 . S
N1046 Eu1008 2.609 . S
N1046 C1048 1.377 . S
N1046 C1049 1.321 . S
C1047 H1033 0.930 . S
C1047 C1049 1.400 . S
C1047 C1050 1.386 . S
C1048 C1044 1.429 . S
C1048 N1046 1.377 . S
C1048 C1051 1.411 . S
C1049 H1031 0.930 . S
C1049 N1046 1.321 . S
C1049 C1047 1.400 . S
C1050 H1045 0.930 . S
C1050 C1047 1.386 . S
C1050 C1051 1.395 . S
C1051 C1048 1.411 . S
C1051 C1050 1.395 . S
C1051 C1073 1.420 . S
O1052 Eu1008 2.558 . S
O1052 C1072 1.257 . S
O1053 Eu1008 2.612 . S
O1053 Eu1019 2.380 . S
O1053 C1064 1.276 . S
O1054 Eu1019 2.432 . S
O1054 C1071 1.264 . S
O1055 Eu1008 2.339 . S
O1055 C1071 1.254 . S
O1056 Eu1008 2.563 . S
O1056 C1064 1.235 . S
O1057 Eu1008 2.419 . S
O1057 C1072 1.249 . S
O1058 Eu1019 2.558 . S
O1058 C1083 1.257 . S
O1059 Eu1008 2.380 . S
O1059 Eu1019 2.612 . S
O1059 C1075 1.276 . S
O1060 Eu1008 2.432 . S
O1060 C1082 1.264 . S
O1061 Eu1019 2.339 . S
O1061 C1082 1.254 . S
O1062 Eu1019 2.563 . S
O1062 C1075 1.235 . S
O1063 Eu1019 2.419 . S
O1063 C1083 1.249 . S
C1064 O1053 1.276 . S
C1064 O1056 1.235 . S
C1065 C1067 1.393 . S
C1065 C1069 1.395 . S
C1065 C1072 1.492 . S
C1066 C1067 1.392 . S
C1066 C1068 1.386 . S
C1067 C1065 1.393 . S
C1067 C1066 1.392 . S
C1067 H1084 0.930 . S
C1068 C1066 1.386 . S
C1068 C1070 1.395 . S
C1068 H1085 0.930 . S
C1069 C1065 1.395 . S
C1069 C1070 1.379 . S
C1069 H1086 0.930 . S
C1070 C1068 1.395 . S
C1070 C1069 1.379 . S
C1070 H1087 0.930 . S
C1071 O1054 1.264 . S
C1071 O1055 1.254 . S
C1072 Eu1008 2.848 . S
C1072 O1052 1.257 . S
C1072 O1057 1.249 . S
C1072 C1065 1.492 . S
C1073 H1038 0.931 . S
C1073 C1051 1.420 . S
C1073 C1074 1.351 . S
C1074 H1036 0.930 . S
C1074 C1042 1.423 . S
C1074 C1073 1.351 . S
C1075 O1059 1.276 . S
C1075 O1062 1.235 . S
C1076 C1077 1.393 . S
C1076 C1080 1.395 . S
C1076 C1083 1.492 . S
C1077 C1076 1.393 . S
C1077 C1078 1.392 . S
C1077 H1088 0.930 . S
C1078 C1077 1.392 . S
C1078 C1079 1.386 . S
C1079 C1078 1.386 . S
C1079 C1081 1.395 . S
C1079 H1089 0.930 . S
C1080 C1076 1.395 . S
C1080 C1081 1.379 . S
C1080 H1090 0.930 . S
C1081 C1079 1.395 . S
C1081 C1080 1.379 . S
C1081 H1091 0.930 . S
C1082 O1060 1.264 . S
C1082 O1061 1.254 . S
C1083 Eu1019 2.848 . S
C1083 O1058 1.257 . S
C1083 O1063 1.249 . S
C1083 C1076 1.492 . S
H1084 C1067 0.930 . S
H1085 C1068 0.930 . S
H1086 C1069 0.930 . S
H1087 C1070 0.930 . S
H1088 C1077 0.930 . S
H1089 C1079 0.930 . S
H1090 C1080 0.930 . S
H1091 C1081 0.930 . S
Eu1092 N1123 2.657 . S
Eu1092 N1130 2.609 . S
Eu1092 O1136 2.558 . S
Eu1092 O1137 2.612 1_556 S
Eu1092 O1139 2.339 1_556 S
Eu1092 O1140 2.563 1_556 S
Eu1092 O1141 2.419 . S
Eu1092 O1143 2.380 . S
Eu1092 O1144 2.432 . S
Eu1092 C1156 2.848 . S
C1093 C1096 1.429 . S
C1093 C1097 1.411 . S
C1093 N1100 1.377 . S
C1094 C1096 1.420 . S
C1094 C1098 1.423 . S
C1094 C1106 1.392 . S
C1095 C1097 1.420 . S
C1095 C1098 1.351 . S
C1095 H1118 0.931 . S
C1096 C1093 1.429 . S
C1096 C1094 1.420 . S
C1096 N1104 1.362 . S
C1097 C1093 1.411 . S
C1097 C1095 1.420 . S
C1097 C1102 1.395 . S
C1098 C1094 1.423 . S
C1098 C1095 1.351 . S
C1098 H1110 0.930 . S
C1099 C1101 1.400 . S
C1099 C1102 1.386 . S
C1099 H1111 0.930 . S
N1100 C1093 1.377 . S
N1100 C1101 1.321 . S
N1100 Eu1103 2.609 . S
C1101 C1099 1.400 . S
C1101 N1100 1.321 . S
C1101 H1108 0.930 . S
C1102 C1097 1.395 . S
C1102 C1099 1.386 . S
C1102 H1121 0.930 . S
Eu1103 N1100 2.609 . S
Eu1103 N1104 2.657 . S
Eu1103 O1137 2.380 . S
Eu1103 O1138 2.432 . S
Eu1103 O1142 2.558 . S
Eu1103 O1143 2.612 1_554 S
Eu1103 O1145 2.339 1_554 S
Eu1103 O1146 2.563 1_554 S
Eu1103 O1147 2.419 . S
Eu1103 C1167 2.848 . S
N1104 C1096 1.362 . S
N1104 Eu1103 2.657 . S
N1104 C1105 1.334 . S
C1105 N1104 1.334 . S
C1105 C1107 1.413 . S
C1105 H1112 0.929 . S
C1106 C1094 1.392 . S
C1106 C1107 1.367 . S
C1106 H1114 0.930 . S
C1107 C1105 1.413 . S
C1107 C1106 1.367 . S
C1107 H1109 0.930 . S
H1108 C1101 0.930 . S
H1109 C1107 0.930 . S
H1110 C1098 0.930 . S
H1111 C1099 0.930 . S
H1112 C1105 0.929 . S
H1113 C1127 0.930 . S
H1114 C1106 0.930 . S
H1115 C1133 0.930 . S
H1116 C1124 0.929 . S
H1117 C1131 0.930 . S
H1118 C1095 0.931 . S
H1119 C1125 0.930 . S
H1120 C1158 0.930 . S
H1121 C1102 0.930 . S
H1122 C1157 0.931 . S
N1123 Eu1092 2.657 . S
N1123 C1124 1.334 . S
N1123 C1128 1.362 . S
C1124 H1116 0.929 . S
C1124 N1123 1.334 . S
C1124 C1127 1.413 . S
C1125 H1119 0.930 . S
C1125 C1126 1.392 . S
C1125 C1127 1.367 . S
C1126 C1125 1.392 . S
C1126 C1128 1.420 . S
C1126 C1158 1.423 . S
C1127 H1113 0.930 . S
C1127 C1124 1.413 . S
C1127 C1125 1.367 . S
C1128 N1123 1.362 . S
C1128 C1126 1.420 . S
C1128 C1132 1.429 . S
H1129 C1134 0.930 . S
N1130 Eu1092 2.609 . S
N1130 C1132 1.377 . S
N1130 C1133 1.321 . S
C1131 H1117 0.930 . S
C1131 C1133 1.400 . S
C1131 C1134 1.386 . S
C1132 C1128 1.429 . S
C1132 N1130 1.377 . S
C1132 C1135 1.411 . S
C1133 H1115 0.930 . S
C1133 N1130 1.321 . S
C1133 C1131 1.400 . S
C1134 H1129 0.930 . S
C1134 C1131 1.386 . S
C1134 C1135 1.395 . S
C1135 C1132 1.411 . S
C1135 C1134 1.395 . S
C1135 C1157 1.420 . S
O1136 Eu1092 2.558 . S
O1136 C1156 1.257 . S
O1137 Eu1092 2.612 1_554 S
O1137 Eu1103 2.380 . S
O1137 C1148 1.276 . S
O1138 Eu1103 2.432 . S
O1138 C1155 1.264 . S
O1139 Eu1092 2.339 1_554 S
O1139 C1155 1.254 . S
O1140 Eu1092 2.563 1_554 S
O1140 C1148 1.235 . S
O1141 Eu1092 2.419 . S
O1141 C1156 1.249 . S
O1142 Eu1103 2.558 . S
O1142 C1167 1.257 . S
O1143 Eu1092 2.380 . S
O1143 Eu1103 2.612 1_556 S
O1143 C1159 1.276 . S
O1144 Eu1092 2.432 . S
O1144 C1166 1.264 . S
O1145 Eu1103 2.339 1_556 S
O1145 C1166 1.254 . S
O1146 Eu1103 2.563 1_556 S
O1146 C1159 1.235 . S
O1147 Eu1103 2.419 . S
O1147 C1167 1.249 . S
C1148 O1137 1.276 . S
C1148 O1140 1.235 . S
C1149 C1151 1.393 . S
C1149 C1153 1.395 . S
C1149 C1156 1.492 . S
C1150 C1151 1.392 . S
C1150 C1152 1.386 . S
C1151 C1149 1.393 . S
C1151 C1150 1.392 . S
C1151 H1168 0.941 . S
C1152 C1150 1.386 . S
C1152 C1154 1.395 . S
C1152 H1169 0.930 . S
C1153 C1149 1.395 . S
C1153 C1154 1.379 . S
C1153 H1170 0.930 . S
C1154 C1152 1.395 . S
C1154 C1153 1.379 . S
C1154 H1171 0.930 . S
C1155 O1138 1.264 . S
C1155 O1139 1.254 . S
C1156 Eu1092 2.848 . S
C1156 O1136 1.257 . S
C1156 O1141 1.249 . S
C1156 C1149 1.492 . S
C1157 H1122 0.931 . S
C1157 C1135 1.420 . S
C1157 C1158 1.351 . S
C1158 H1120 0.930 . S
C1158 C1126 1.423 . S
C1158 C1157 1.351 . S
C1159 O1143 1.276 . S
C1159 O1146 1.235 . S
C1160 C1161 1.393 . S
C1160 C1164 1.395 . S
C1160 C1167 1.492 . S
C1161 C1160 1.393 . S
C1161 C1162 1.392 . S
C1161 H1172 0.951 . S
C1162 C1161 1.392 . S
C1162 C1163 1.386 . S
C1163 C1162 1.386 . S
C1163 C1165 1.395 . S
C1163 H1173 0.930 . S
C1164 C1160 1.395 . S
C1164 C1165 1.379 . S
C1164 H1174 0.930 . S
C1165 C1163 1.395 . S
C1165 C1164 1.379 . S
C1165 H1175 0.930 . S
C1166 O1144 1.264 . S
C1166 O1145 1.254 . S
C1167 Eu1103 2.848 . S
C1167 O1142 1.257 . S
C1167 O1147 1.249 . S
C1167 C1160 1.492 . S
H1168 C1151 0.941 . S
H1169 C1152 0.930 . S
H1170 C1153 0.930 . S
H1171 C1154 0.930 . S
H1172 C1161 0.951 . S
H1173 C1163 0.930 . S
H1174 C1164 0.930 . S
H1175 C1165 0.930 . S
Eu1176 N1207 2.657 1_565 S
Eu1176 N1214 2.609 . S
Eu1176 O1220 2.558 . S
Eu1176 O1221 2.612 . S
Eu1176 O1223 2.339 1_565 S
Eu1176 O1224 2.563 . S
Eu1176 O1225 2.419 . S
Eu1176 O1227 2.380 1_565 S
Eu1176 O1228 2.432 . S
Eu1176 C1240 2.848 . S
C1177 C1180 1.429 1_545 S
C1177 C1181 1.411 . S
C1177 N1184 1.377 . S
C1178 C1180 1.420 . S
C1178 C1182 1.423 . S
C1178 C1190 1.392 . S
C1179 C1181 1.420 1_565 S
C1179 C1182 1.351 . S
C1179 H1202 0.931 . S
C1180 C1177 1.429 1_565 S
C1180 C1178 1.420 . S
C1180 N1188 1.362 . S
C1181 C1177 1.411 . S
C1181 C1179 1.420 1_545 S
C1181 C1186 1.395 . S
C1182 C1178 1.423 . S
C1182 C1179 1.351 . S
C1182 H1194 0.930 . S
C1183 C1185 1.400 . S
C1183 C1186 1.386 . S
C1183 H1195 0.930 . S
N1184 C1177 1.377 . S
N1184 C1185 1.321 . S
N1184 Eu1187 2.609 . S
C1185 C1183 1.400 . S
C1185 N1184 1.321 . S
C1185 H1192 0.930 . S
C1186 C1181 1.395 . S
C1186 C1183 1.386 . S
C1186 H1205 0.930 . S
Eu1187 N1184 2.609 . S
Eu1187 N1188 2.657 1_545 S
Eu1187 O1221 2.380 1_545 S
Eu1187 O1222 2.432 . S
Eu1187 O1226 2.558 . S
Eu1187 O1227 2.612 . S
Eu1187 O1229 2.339 1_545 S
Eu1187 O1230 2.563 . S
Eu1187 O1231 2.419 . S
Eu1187 C1251 2.848 . S
N1188 C1180 1.362 . S
N1188 Eu1187 2.657 1_565 S
N1188 C1189 1.334 . S
C1189 N1188 1.334 . S
C1189 C1191 1.413 . S
C1189 H1196 0.929 . S
C1190 C1178 1.392 . S
C1190 C1191 1.367 . S
C1190 H1198 0.930 . S
C1191 C1189 1.413 . S
C1191 C1190 1.367 . S
C1191 H1193 0.930 . S
H1192 C1185 0.930 . S
H1193 C1191 0.930 . S
H1194 C1182 0.930 . S
H1195 C1183 0.930 . S
H1196 C1189 0.929 . S
H1197 C1211 0.930 . S
H1198 C1190 0.930 . S
H1199 C1217 0.930 . S
H1200 C1208 0.929 . S
H1201 C1215 0.930 . S
H1202 C1179 0.931 . S
H1203 C1209 0.930 . S
H1204 C1242 0.930 . S
H1205 C1186 0.930 . S
H1206 C1241 0.931 . S
N1207 Eu1176 2.657 1_545 S
N1207 C1208 1.334 . S
N1207 C1212 1.362 . S
C1208 H1200 0.929 . S
C1208 N1207 1.334 . S
C1208 C1211 1.413 . S
C1209 H1203 0.930 . S
C1209 C1210 1.392 . S
C1209 C1211 1.367 . S
C1210 C1209 1.392 . S
C1210 C1212 1.420 . S
C1210 C1242 1.423 . S
C1211 H1197 0.930 . S
C1211 C1208 1.413 . S
C1211 C1209 1.367 . S
C1212 N1207 1.362 . S
C1212 C1210 1.420 . S
C1212 C1216 1.429 1_545 S
H1213 C1218 0.930 . S
N1214 Eu1176 2.609 . S
N1214 C1216 1.377 . S
N1214 C1217 1.321 . S
C1215 H1201 0.930 . S
C1215 C1217 1.400 . S
C1215 C1218 1.386 . S
C1216 C1212 1.429 1_565 S
C1216 N1214 1.377 . S
C1216 C1219 1.411 . S
C1217 H1199 0.930 . S
C1217 N1214 1.321 . S
C1217 C1215 1.400 . S
C1218 H1213 0.930 . S
C1218 C1215 1.386 . S
C1218 C1219 1.395 . S
C1219 C1216 1.411 . S
C1219 C1218 1.395 . S
C1219 C1241 1.420 1_565 S
O1220 Eu1176 2.558 . S
O1220 C1240 1.257 . S
O1221 Eu1176 2.612 . S
O1221 Eu1187 2.380 1_565 S
O1221 C1232 1.276 . S
O1222 Eu1187 2.432 . S
O1222 C1239 1.264 . S
O1223 Eu1176 2.339 1_545 S
O1223 C1239 1.254 . S
O1224 Eu1176 2.563 . S
O1224 C1232 1.235 . S
O1225 Eu1176 2.419 . S
O1225 C1240 1.249 . S
O1226 Eu1187 2.558 . S
O1226 C1251 1.257 . S
O1227 Eu1176 2.380 1_545 S
O1227 Eu1187 2.612 . S
O1227 C1243 1.276 . S
O1228 Eu1176 2.432 . S
O1228 C1250 1.264 . S
O1229 Eu1187 2.339 1_565 S
O1229 C1250 1.254 . S
O1230 Eu1187 2.563 . S
O1230 C1243 1.235 . S
O1231 Eu1187 2.419 . S
O1231 C1251 1.249 . S
C1232 O1221 1.276 . S
C1232 O1224 1.235 . S
C1233 C1235 1.393 . S
C1233 C1237 1.395 . S
C1233 C1240 1.492 . S
C1234 C1235 1.392 . S
C1234 C1236 1.386 . S
C1235 C1233 1.393 . S
C1235 C1234 1.392 . S
C1235 H1252 0.930 . S
C1236 C1234 1.386 . S
C1236 C1238 1.395 . S
C1236 H1253 0.930 . S
C1237 C1233 1.395 . S
C1237 C1238 1.379 . S
C1237 H1254 0.930 . S
C1238 C1236 1.395 . S
C1238 C1237 1.379 . S
C1238 H1255 0.930 . S
C1239 O1222 1.264 . S
C1239 O1223 1.254 . S
C1240 Eu1176 2.848 . S
C1240 O1220 1.257 . S
C1240 O1225 1.249 . S
C1240 C1233 1.492 . S
C1241 H1206 0.931 . S
C1241 C1219 1.420 1_545 S
C1241 C1242 1.351 . S
C1242 H1204 0.930 . S
C1242 C1210 1.423 . S
C1242 C1241 1.351 . S
C1243 O1227 1.276 . S
C1243 O1230 1.235 . S
C1244 C1245 1.393 . S
C1244 C1248 1.395 . S
C1244 C1251 1.492 . S
C1245 C1244 1.393 . S
C1245 C1246 1.392 . S
C1245 H1256 0.930 . S
C1246 C1245 1.392 . S
C1246 C1247 1.386 . S
C1247 C1246 1.386 . S
C1247 C1249 1.395 . S
C1247 H1257 0.930 . S
C1248 C1244 1.395 . S
C1248 C1249 1.379 . S
C1248 H1258 0.930 . S
C1249 C1247 1.395 . S
C1249 C1248 1.379 . S
C1249 H1259 0.930 . S
C1250 O1228 1.264 . S
C1250 O1229 1.254 . S
C1251 Eu1187 2.848 . S
C1251 O1226 1.257 . S
C1251 O1231 1.249 . S
C1251 C1244 1.492 . S
H1252 C1235 0.930 . S
H1253 C1236 0.930 . S
H1254 C1237 0.930 . S
H1255 C1238 0.930 . S
H1256 C1245 0.930 . S
H1257 C1247 0.930 . S
H1258 C1248 0.930 . S
H1259 C1249 0.930 . S
Eu1260 N1291 2.657 . S
Eu1260 N1298 2.609 . S
Eu1260 O1304 2.558 . S
Eu1260 O1305 2.612 1_554 S
Eu1260 O1307 2.339 1_554 S
Eu1260 O1308 2.563 1_554 S
Eu1260 O1309 2.419 . S
Eu1260 O1311 2.380 . S
Eu1260 O1312 2.432 . S
Eu1260 C1324 2.848 . S
C1261 C1264 1.429 . S
C1261 C1265 1.411 . S
C1261 N1268 1.377 . S
C1262 C1264 1.420 . S
C1262 C1266 1.423 . S
C1262 C1274 1.392 . S
C1263 C1265 1.420 . S
C1263 C1266 1.351 . S
C1263 H1286 0.931 . S
C1264 C1261 1.429 . S
C1264 C1262 1.420 . S
C1264 N1272 1.362 . S
C1265 C1261 1.411 . S
C1265 C1263 1.420 . S
C1265 C1270 1.395 . S
C1266 C1262 1.423 . S
C1266 C1263 1.351 . S
C1266 H1278 0.930 . S
C1267 C1269 1.400 . S
C1267 C1270 1.386 . S
C1267 H1279 0.930 . S
N1268 C1261 1.377 . S
N1268 C1269 1.321 . S
N1268 Eu1271 2.609 . S
C1269 C1267 1.400 . S
C1269 N1268 1.321 . S
C1269 H1276 0.930 . S
C1270 C1265 1.395 . S
C1270 C1267 1.386 . S
C1270 H1289 0.930 . S
Eu1271 N1268 2.609 . S
Eu1271 N1272 2.657 . S
Eu1271 O1305 2.380 . S
Eu1271 O1306 2.432 . S
Eu1271 O1310 2.558 . S
Eu1271 O1311 2.612 1_556 S
Eu1271 O1313 2.339 1_556 S
Eu1271 O1314 2.563 1_556 S
Eu1271 O1315 2.419 . S
Eu1271 C1335 2.848 . S
N1272 C1264 1.362 . S
N1272 Eu1271 2.657 . S
N1272 C1273 1.334 . S
C1273 N1272 1.334 . S
C1273 C1275 1.413 . S
C1273 H1280 0.929 . S
C1274 C1262 1.392 . S
C1274 C1275 1.367 . S
C1274 H1282 0.930 . S
C1275 C1273 1.413 . S
C1275 C1274 1.367 . S
C1275 H1277 0.930 . S
H1276 C1269 0.930 . S
H1277 C1275 0.930 . S
H1278 C1266 0.930 . S
H1279 C1267 0.930 . S
H1280 C1273 0.929 . S
H1281 C1295 0.930 . S
H1282 C1274 0.930 . S
H1283 C1301 0.930 . S
H1284 C1292 0.929 . S
H1285 C1299 0.930 . S
H1286 C1263 0.931 . S
H1287 C1293 0.930 . S
H1288 C1326 0.930 . S
H1289 C1270 0.930 . S
H1290 C1325 0.931 . S
N1291 Eu1260 2.657 . S
N1291 C1292 1.334 . S
N1291 C1296 1.362 . S
C1292 H1284 0.929 . S
C1292 N1291 1.334 . S
C1292 C1295 1.413 . S
C1293 H1287 0.930 . S
C1293 C1294 1.392 . S
C1293 C1295 1.367 . S
C1294 C1293 1.392 . S
C1294 C1296 1.420 . S
C1294 C1326 1.423 . S
C1295 H1281 0.930 . S
C1295 C1292 1.413 . S
C1295 C1293 1.367 . S
C1296 N1291 1.362 . S
C1296 C1294 1.420 . S
C1296 C1300 1.429 . S
H1297 C1302 0.930 . S
N1298 Eu1260 2.609 . S
N1298 C1300 1.377 . S
N1298 C1301 1.321 . S
C1299 H1285 0.930 . S
C1299 C1301 1.400 . S
C1299 C1302 1.386 . S
C1300 C1296 1.429 . S
C1300 N1298 1.377 . S
C1300 C1303 1.411 . S
C1301 H1283 0.930 . S
C1301 N1298 1.321 . S
C1301 C1299 1.400 . S
C1302 H1297 0.930 . S
C1302 C1299 1.386 . S
C1302 C1303 1.395 . S
C1303 C1300 1.411 . S
C1303 C1302 1.395 . S
C1303 C1325 1.420 . S
O1304 Eu1260 2.558 . S
O1304 C1324 1.257 . S
O1305 Eu1260 2.612 1_556 S
O1305 Eu1271 2.380 . S
O1305 C1316 1.276 . S
O1306 Eu1271 2.432 . S
O1306 C1323 1.264 . S
O1307 Eu1260 2.339 1_556 S
O1307 C1323 1.254 . S
O1308 Eu1260 2.563 1_556 S
O1308 C1316 1.235 . S
O1309 Eu1260 2.419 . S
O1309 C1324 1.249 . S
O1310 Eu1271 2.558 . S
O1310 C1335 1.257 . S
O1311 Eu1260 2.380 . S
O1311 Eu1271 2.612 1_554 S
O1311 C1327 1.276 . S
O1312 Eu1260 2.432 . S
O1312 C1334 1.264 . S
O1313 Eu1271 2.339 1_554 S
O1313 C1334 1.254 . S
O1314 Eu1271 2.563 1_554 S
O1314 C1327 1.235 . S
O1315 Eu1271 2.419 . S
O1315 C1335 1.249 . S
C1316 O1305 1.276 . S
C1316 O1308 1.235 . S
C1317 C1319 1.393 . S
C1317 C1321 1.395 . S
C1317 C1324 1.492 . S
C1318 C1319 1.392 . S
C1318 C1320 1.386 . S
C1319 C1317 1.393 . S
C1319 C1318 1.392 . S
C1319 H1336 0.930 . S
C1320 C1318 1.386 . S
C1320 C1322 1.395 . S
C1320 H1337 0.930 . S
C1321 C1317 1.395 . S
C1321 C1322 1.379 . S
C1321 H1338 0.930 . S
C1322 C1320 1.395 . S
C1322 C1321 1.379 . S
C1322 H1339 0.930 . S
C1323 O1306 1.264 . S
C1323 O1307 1.254 . S
C1324 Eu1260 2.848 . S
C1324 O1304 1.257 . S
C1324 O1309 1.249 . S
C1324 C1317 1.492 . S
C1325 H1290 0.931 . S
C1325 C1303 1.420 . S
C1325 C1326 1.351 . S
C1326 H1288 0.930 . S
C1326 C1294 1.423 . S
C1326 C1325 1.351 . S
C1327 O1311 1.276 . S
C1327 O1314 1.235 . S
C1328 C1329 1.393 . S
C1328 C1332 1.395 . S
C1328 C1335 1.492 . S
C1329 C1328 1.393 . S
C1329 C1330 1.392 . S
C1329 H1340 0.930 . S
C1330 C1329 1.392 . S
C1330 C1331 1.386 . S
C1331 C1330 1.386 . S
C1331 C1333 1.395 . S
C1331 H1341 0.930 . S
C1332 C1328 1.395 . S
C1332 C1333 1.379 . S
C1332 H1342 0.930 . S
C1333 C1331 1.395 . S
C1333 C1332 1.379 . S
C1333 H1343 0.930 . S
C1334 O1312 1.264 . S
C1334 O1313 1.254 . S
C1335 Eu1271 2.848 . S
C1335 O1310 1.257 . S
C1335 O1315 1.249 . S
C1335 C1328 1.492 . S
H1336 C1319 0.930 . S
H1337 C1320 0.930 . S
H1338 C1321 0.930 . S
H1339 C1322 0.930 . S
H1340 C1329 0.930 . S
H1341 C1331 0.930 . S
H1342 C1332 0.930 . S
H1343 C1333 0.930 . S
H1344 C1352 0.929 . S
H1345 C1354 0.930 . S
H1346 C1356 0.930 . S
H1347 C1359 0.929 . S
H1348 C1362 0.930 . S
H1349 C1364 0.960 . S
H1350 C1364 0.990 . S
H1351 C1364 0.960 . S
C1352 H1344 0.929 . S
C1352 C1353 1.377 . S
C1352 C1354 1.384 . S
C1353 C1352 1.377 . S
C1353 C1359 1.390 1_655 S
C1354 H1345 0.930 . S
C1354 C1352 1.384 . S
C1354 C1355 1.372 . S
C1355 C1354 1.372 . S
C1355 C1356 1.400 1_655 S
C1355 C1360 1.509 . S
C1356 H1346 0.930 . S
C1356 C1355 1.400 1_455 S
C1356 C1359 1.386 . S
H1357 C1373 0.930 . S
H1358 C1374 0.931 . S
C1359 H1347 0.929 . S
C1359 C1353 1.390 1_455 S
C1359 C1356 1.386 . S
C1360 C1355 1.509 . S
C1360 C1362 1.401 . S
C1360 C1363 1.379 1_655 S
H1361 C1367 0.930 . S
C1362 H1348 0.930 . S
C1362 C1360 1.401 . S
C1362 C1365 1.403 . S
C1363 C1360 1.379 1_455 S
C1363 C1364 1.524 . S
C1363 C1367 1.400 . S
C1364 H1349 0.960 . S
C1364 H1350 0.990 . S
C1364 H1351 0.960 . S
C1364 C1363 1.524 . S
C1365 C1362 1.403 . S
C1365 C1366 1.392 1_655 S
C1365 C1369 1.495 . S
C1366 C1365 1.392 1_455 S
C1366 C1367 1.385 . S
C1366 C1368 1.478 . S
C1367 H1361 0.930 . S
C1367 C1363 1.400 . S
C1367 C1366 1.385 . S
C1368 C1366 1.478 . S
C1368 C1370 1.381 1_455 S
C1368 C1374 1.383 . S
C1369 C1365 1.495 . S
C1369 H1375 0.959 . S
C1369 H1376 0.961 1_655 S
C1369 H1377 0.960 . S
C1370 C1368 1.381 1_655 S
C1370 C1371 1.394 . S
C1370 H1378 0.930 . S
C1371 C1370 1.394 . S
C1371 C1372 1.383 1_655 S
C1371 H1379 0.929 . S
C1372 C1371 1.383 1_455 S
C1372 C1373 1.377 . S
C1373 H1357 0.930 . S
C1373 C1372 1.377 . S
C1373 C1374 1.379 . S
C1374 H1358 0.931 . S
C1374 C1368 1.383 . S
C1374 C1373 1.379 . S
H1375 C1369 0.959 . S
H1376 C1369 0.961 1_455 S
H1377 C1369 0.960 . S
H1378 C1370 0.930 . S
H1379 C1371 0.929 . S
H1380 C1388 0.929 . S
H1381 C1390 0.930 . S
H1382 C1392 0.930 . S
H1383 C1395 0.929 . S
H1384 C1398 0.930 . S
H1385 C1400 0.960 . S
H1386 C1400 0.960 . S
H1387 C1400 0.960 . S
C1388 H1380 0.929 . S
C1388 C1389 1.377 . S
C1388 C1390 1.384 . S
C1389 C1388 1.377 . S
C1389 C1395 1.390 . S
C1390 H1381 0.930 . S
C1390 C1388 1.384 . S
C1390 C1391 1.372 . S
C1391 C1390 1.372 . S
C1391 C1392 1.400 . S
C1391 C1396 1.490 . S
C1392 H1382 0.930 . S
C1392 C1391 1.400 . S
C1392 C1395 1.386 . S
H1393 C1409 0.930 . S
H1394 C1410 0.931 . S
C1395 H1383 0.929 . S
C1395 C1389 1.390 . S
C1395 C1392 1.386 . S
C1396 C1391 1.490 . S
C1396 C1398 1.395 . S
C1396 C1399 1.403 . S
H1397 C1403 0.930 . S
C1398 H1384 0.930 . S
C1398 C1396 1.395 . S
C1398 C1401 1.403 . S
C1399 C1396 1.403 . S
C1399 C1400 1.524 . S
C1399 C1403 1.400 . S
C1400 H1385 0.960 . S
C1400 H1386 0.960 . S
C1400 H1387 0.960 . S
C1400 C1399 1.524 . S
C1401 C1398 1.403 . S
C1401 C1402 1.392 . S
C1401 C1405 1.495 . S
C1402 C1401 1.392 . S
C1402 C1403 1.385 . S
C1402 C1404 1.478 . S
C1403 H1397 0.930 . S
C1403 C1399 1.400 . S
C1403 C1402 1.385 . S
C1404 C1402 1.478 . S
C1404 C1406 1.381 . S
C1404 C1410 1.383 . S
C1405 C1401 1.495 . S
C1405 H1411 0.959 . S
C1405 H1412 0.961 . S
C1405 H1413 0.960 . S
C1406 C1404 1.381 . S
C1406 C1407 1.394 . S
C1406 H1414 0.930 . S
C1407 C1406 1.394 . S
C1407 C1408 1.383 . S
C1407 H1415 0.929 . S
C1408 C1407 1.383 . S
C1408 C1409 1.377 . S
C1409 H1393 0.930 . S
C1409 C1408 1.377 . S
C1409 C1410 1.379 . S
C1410 H1394 0.931 . S
C1410 C1404 1.383 . S
C1410 C1409 1.379 . S
H1411 C1405 0.959 . S
H1412 C1405 0.961 . S
H1413 C1405 0.960 . S
H1414 C1406 0.930 . S
H1415 C1407 0.929 . S
H1416 C1424 0.929 . S
H1417 C1426 0.930 . S
H1418 C1428 0.930 . S
H1419 C1431 0.929 . S
H1420 C1434 0.930 . S
H1421 C1436 0.960 . S
H1422 C1436 0.960 . S
H1423 C1436 0.960 . S
C1424 H1416 0.929 . S
C1424 C1425 1.377 . S
C1424 C1426 1.384 . S
C1425 C1424 1.377 . S
C1425 C1431 1.390 . S
C1426 H1417 0.930 . S
C1426 C1424 1.384 . S
C1426 C1427 1.372 . S
C1427 C1426 1.372 . S
C1427 C1428 1.400 . S
C1427 C1432 1.490 . S
C1428 H1418 0.930 . S
C1428 C1427 1.400 . S
C1428 C1431 1.386 . S
H1429 C1445 0.930 . S
H1430 C1446 0.931 . S
C1431 H1419 0.929 . S
C1431 C1425 1.390 . S
C1431 C1428 1.386 . S
C1432 C1427 1.490 . S
C1432 C1434 1.395 . S
C1432 C1435 1.403 . S
H1433 C1439 0.930 . S
C1434 H1420 0.930 . S
C1434 C1432 1.395 . S
C1434 C1437 1.403 . S
C1435 C1432 1.403 . S
C1435 C1436 1.524 . S
C1435 C1439 1.400 . S
C1436 H1421 0.960 . S
C1436 H1422 0.960 . S
C1436 H1423 0.960 . S
C1436 C1435 1.524 . S
C1437 C1434 1.403 . S
C1437 C1438 1.392 . S
C1437 C1441 1.495 . S
C1438 C1437 1.392 . S
C1438 C1439 1.385 . S
C1438 C1440 1.478 . S
C1439 H1433 0.930 . S
C1439 C1435 1.400 . S
C1439 C1438 1.385 . S
C1440 C1438 1.478 . S
C1440 C1442 1.381 . S
C1440 C1446 1.383 . S
C1441 C1437 1.495 . S
C1441 H1447 0.959 . S
C1441 H1448 0.961 . S
C1441 H1449 0.960 . S
C1442 C1440 1.381 . S
C1442 C1443 1.394 . S
C1442 H1450 0.930 . S
C1443 C1442 1.394 . S
C1443 C1444 1.383 . S
C1443 H1451 0.929 . S
C1444 C1443 1.383 . S
C1444 C1445 1.377 . S
C1445 H1429 0.930 . S
C1445 C1444 1.377 . S
C1445 C1446 1.379 . S
C1446 H1430 0.931 . S
C1446 C1440 1.383 . S
C1446 C1445 1.379 . S
H1447 C1441 0.959 . S
H1448 C1441 0.961 . S
H1449 C1441 0.960 . S
H1450 C1442 0.930 . S
H1451 C1443 0.929 . S
H1452 C1460 0.929 . S
H1453 C1462 0.930 . S
H1454 C1464 0.930 . S
H1455 C1467 0.929 . S
H1456 C1470 0.930 . S
H1457 C1472 0.960 . S
H1458 C1472 0.960 . S
H1459 C1472 0.960 . S
C1460 H1452 0.929 . S
C1460 C1461 1.377 1_565 S
C1460 C1462 1.384 . S
C1461 C1460 1.377 1_545 S
C1461 C1467 1.390 . S
C1462 H1453 0.930 . S
C1462 C1460 1.384 . S
C1462 C1463 1.372 1_565 S
C1463 C1462 1.372 1_545 S
C1463 C1464 1.400 . S
C1463 C1468 1.491 . S
C1464 H1454 0.930 . S
C1464 C1463 1.400 . S
C1464 C1467 1.386 . S
H1465 C1481 0.927 1_545 S
H1466 C1482 0.931 1_545 S
C1467 H1455 0.929 . S
C1467 C1461 1.390 . S
C1467 C1464 1.386 . S
C1468 C1463 1.491 . S
C1468 C1470 1.393 1_545 S
C1468 C1471 1.403 . S
H1469 C1475 0.930 . S
C1470 H1456 0.930 . S
C1470 C1468 1.393 1_565 S
C1470 C1473 1.403 . S
C1471 C1468 1.403 . S
C1471 C1472 1.524 . S
C1471 C1475 1.400 . S
C1472 H1457 0.960 . S
C1472 H1458 0.960 . S
C1472 H1459 0.960 . S
C1472 C1471 1.524 . S
C1473 C1470 1.403 . S
C1473 C1474 1.392 . S
C1473 C1477 1.495 . S
C1474 C1473 1.392 . S
C1474 C1475 1.385 1_565 S
C1474 C1476 1.478 . S
C1475 H1469 0.930 . S
C1475 C1471 1.400 . S
C1475 C1474 1.385 1_545 S
C1476 C1474 1.478 . S
C1476 C1478 1.381 . S
C1476 C1482 1.383 . S
C1477 C1473 1.495 . S
C1477 H1483 0.959 . S
C1477 H1484 0.961 . S
C1477 H1485 0.960 . S
C1478 C1476 1.381 . S
C1478 C1479 1.394 . S
C1478 H1486 0.930 . S
C1479 C1478 1.394 . S
C1479 C1480 1.383 . S
C1479 H1487 0.929 . S
C1480 C1479 1.383 . S
C1480 C1481 1.377 . S
C1481 H1465 0.927 1_565 S
C1481 C1480 1.377 . S
C1481 C1482 1.379 . S
C1482 H1466 0.931 1_565 S
C1482 C1476 1.383 . S
C1482 C1481 1.379 . S
H1483 C1477 0.959 . S
H1484 C1477 0.961 . S
H1485 C1477 0.960 . S
H1486 C1478 0.930 . S
H1487 C1479 0.929 . S
H1488 C1496 0.929 . S
H1489 C1498 0.930 . S
H1490 C1500 0.930 . S
H1491 C1503 0.929 . S
H1492 C1506 0.945 . S
H1493 C1508 0.960 . S
H1494 C1508 0.960 . S
H1495 C1508 0.960 1_565 S
C1496 H1488 0.929 . S
C1496 C1497 1.377 1_545 S
C1496 C1498 1.384 . S
C1497 C1496 1.377 1_565 S
C1497 C1503 1.390 . S
C1498 H1489 0.930 . S
C1498 C1496 1.384 . S
C1498 C1499 1.372 1_545 S
C1499 C1498 1.372 1_565 S
C1499 C1500 1.400 . S
C1499 C1504 1.491 . S
C1500 H1490 0.930 . S
C1500 C1499 1.400 . S
C1500 C1503 1.386 . S
H1501 C1517 0.930 . S
H1502 C1518 0.931 . S
C1503 H1491 0.929 . S
C1503 C1497 1.390 . S
C1503 C1500 1.386 . S
C1504 C1499 1.491 . S
C1504 C1506 1.397 . S
C1504 C1507 1.402 1_565 S
H1505 C1511 0.930 . S
C1506 H1492 0.945 . S
C1506 C1504 1.397 . S
C1506 C1509 1.388 1_565 S
C1507 C1504 1.402 1_545 S
C1507 C1508 1.524 . S
C1507 C1511 1.400 . S
C1508 H1493 0.960 . S
C1508 H1494 0.960 . S
C1508 H1495 0.960 1_545 S
C1508 C1507 1.524 . S
C1509 C1506 1.388 1_545 S
C1509 C1510 1.392 . S
C1509 C1513 1.495 . S
C1510 C1509 1.392 . S
C1510 C1511 1.385 . S
C1510 C1512 1.478 . S
C1511 H1505 0.930 . S
C1511 C1507 1.400 . S
C1511 C1510 1.385 . S
C1512 C1510 1.478 . S
C1512 C1514 1.381 . S
C1512 C1518 1.383 1_545 S
C1513 C1509 1.495 . S
C1513 H1519 0.939 1_545 S
C1513 H1520 0.935 1_545 S
C1513 H1521 1.010 . S
C1514 C1512 1.381 . S
C1514 C1515 1.394 . S
C1514 H1522 0.930 . S
C1515 C1514 1.394 . S
C1515 C1516 1.383 . S
C1515 H1523 0.929 . S
C1516 C1515 1.383 . S
C1516 C1517 1.377 1_545 S
C1517 H1501 0.930 . S
C1517 C1516 1.377 1_565 S
C1517 C1518 1.379 . S
C1518 H1502 0.931 . S
C1518 C1512 1.383 1_565 S
C1518 C1517 1.379 . S
H1519 C1513 0.939 1_565 S
H1520 C1513 0.935 1_565 S
H1521 C1513 1.010 . S
H1522 C1514 0.930 . S
H1523 C1515 0.929 . S
H1524 C1532 0.929 . S
H1525 C1534 0.930 . S
H1526 C1536 0.930 . S
H1527 C1539 0.929 . S
H1528 C1542 0.930 . S
H1529 C1544 0.960 . S
H1530 C1544 0.960 1_455 S
H1531 C1544 0.960 . S
C1532 H1524 0.929 . S
C1532 C1533 1.377 . S
C1532 C1534 1.384 . S
C1533 C1532 1.377 . S
C1533 C1539 1.390 1_455 S
C1534 H1525 0.930 . S
C1534 C1532 1.384 . S
C1534 C1535 1.372 . S
C1535 C1534 1.372 . S
C1535 C1536 1.400 1_455 S
C1535 C1540 1.490 . S
C1536 H1526 0.930 . S
C1536 C1535 1.400 1_655 S
C1536 C1539 1.386 . S
H1537 C1553 0.930 . S
H1538 C1554 0.931 . S
C1539 H1527 0.929 . S
C1539 C1533 1.390 1_655 S
C1539 C1536 1.386 . S
C1540 C1535 1.490 . S
C1540 C1542 1.395 . S
C1540 C1543 1.403 1_455 S
H1541 C1547 0.930 . S
C1542 H1528 0.930 . S
C1542 C1540 1.395 . S
C1542 C1545 1.415 . S
C1543 C1540 1.403 1_655 S
C1543 C1544 1.524 . S
C1543 C1547 1.400 . S
C1544 H1529 0.960 . S
C1544 H1530 0.960 1_655 S
C1544 H1531 0.960 . S
C1544 C1543 1.524 . S
C1545 C1542 1.415 . S
C1545 C1546 1.383 1_455 S
C1545 C1549 1.493 . S
C1546 C1545 1.383 1_655 S
C1546 C1547 1.385 . S
C1546 C1548 1.478 . S
C1547 H1541 0.930 . S
C1547 C1543 1.400 . S
C1547 C1546 1.385 . S
C1548 C1546 1.478 . S
C1548 C1550 1.381 1_655 S
C1548 C1554 1.383 . S
C1549 C1545 1.493 . S
C1549 H1555 0.959 . S
C1549 H1556 0.961 1_455 S
C1549 H1557 0.960 . S
C1550 C1548 1.381 1_455 S
C1550 C1551 1.394 . S
C1550 H1558 0.930 . S
C1551 C1550 1.394 . S
C1551 C1552 1.383 1_455 S
C1551 H1559 0.929 . S
C1552 C1551 1.383 1_655 S
C1552 C1553 1.377 . S
C1553 H1537 0.930 . S
C1553 C1552 1.377 . S
C1553 C1554 1.379 . S
C1554 H1538 0.931 . S
C1554 C1548 1.383 . S
C1554 C1553 1.379 . S
H1555 C1549 0.959 . S
H1556 C1549 0.961 1_655 S
H1557 C1549 0.960 . S
H1558 C1550 0.930 . S
H1559 C1551 0.929 . S
H1560 C1568 0.929 . S
H1561 C1570 0.930 . S
H1562 C1572 0.930 . S
H1563 C1575 0.929 . S
H1564 C1578 0.930 . S
H1565 C1580 0.960 . S
H1566 C1580 0.960 . S
H1567 C1580 0.960 . S
C1568 H1560 0.929 . S
C1568 C1569 1.377 . S
C1568 C1570 1.384 . S
C1569 C1568 1.377 . S
C1569 C1575 1.390 . S
C1570 H1561 0.930 . S
C1570 C1568 1.384 . S
C1570 C1571 1.372 . S
C1571 C1570 1.372 . S
C1571 C1572 1.400 . S
C1571 C1576 1.490 . S
C1572 H1562 0.930 . S
C1572 C1571 1.400 . S
C1572 C1575 1.386 . S
H1573 C1589 0.930 . S
H1574 C1590 0.931 . S
C1575 H1563 0.929 . S
C1575 C1569 1.390 . S
C1575 C1572 1.386 . S
C1576 C1571 1.490 . S
C1576 C1578 1.395 . S
C1576 C1579 1.403 . S
H1577 C1583 0.930 . S
C1578 H1564 0.930 . S
C1578 C1576 1.395 . S
C1578 C1581 1.403 . S
C1579 C1576 1.403 . S
C1579 C1580 1.524 . S
C1579 C1583 1.400 . S
C1580 H1565 0.960 . S
C1580 H1566 0.960 . S
C1580 H1567 0.960 . S
C1580 C1579 1.524 . S
C1581 C1578 1.403 . S
C1581 C1582 1.392 . S
C1581 C1585 1.495 . S
C1582 C1581 1.392 . S
C1582 C1583 1.385 . S
C1582 C1584 1.478 . S
C1583 H1577 0.930 . S
C1583 C1579 1.400 . S
C1583 C1582 1.385 . S
C1584 C1582 1.478 . S
C1584 C1586 1.381 . S
C1584 C1590 1.383 . S
C1585 C1581 1.495 . S
C1585 H1591 0.959 . S
C1585 H1592 0.961 . S
C1585 H1593 0.960 . S
C1586 C1584 1.381 . S
C1586 C1587 1.394 . S
C1586 H1594 0.930 . S
C1587 C1586 1.394 . S
C1587 C1588 1.383 . S
C1587 H1595 0.929 . S
C1588 C1587 1.383 . S
C1588 C1589 1.377 . S
C1589 H1573 0.930 . S
C1589 C1588 1.377 . S
C1589 C1590 1.379 . S
C1590 H1574 0.931 . S
C1590 C1584 1.383 . S
C1590 C1589 1.379 . S
H1591 C1585 0.959 . S
H1592 C1585 0.961 . S
H1593 C1585 0.960 . S
H1594 C1586 0.930 . S
H1595 C1587 0.929 . S
H1596 C1604 0.929 . S
H1597 C1606 0.930 . S
H1598 C1608 0.930 . S
H1599 C1611 0.929 . S
H1600 C1614 0.930 . S
H1601 C1616 0.960 . S
H1602 C1616 0.960 . S
H1603 C1616 0.960 . S
C1604 H1596 0.929 . S
C1604 C1605 1.377 . S
C1604 C1606 1.384 . S
C1605 C1604 1.377 . S
C1605 C1611 1.390 . S
C1606 H1597 0.930 . S
C1606 C1604 1.384 . S
C1606 C1607 1.372 . S
C1607 C1606 1.372 . S
C1607 C1608 1.400 . S
C1607 C1612 1.490 . S
C1608 H1598 0.930 . S
C1608 C1607 1.400 . S
C1608 C1611 1.386 . S
H1609 C1625 0.930 . S
H1610 C1626 0.931 . S
C1611 H1599 0.929 . S
C1611 C1605 1.390 . S
C1611 C1608 1.386 . S
C1612 C1607 1.490 . S
C1612 C1614 1.395 . S
C1612 C1615 1.403 . S
H1613 C1619 0.930 . S
C1614 H1600 0.930 . S
C1614 C1612 1.395 . S
C1614 C1617 1.403 . S
C1615 C1612 1.403 . S
C1615 C1616 1.524 . S
C1615 C1619 1.400 . S
C1616 H1601 0.960 . S
C1616 H1602 0.960 . S
C1616 H1603 0.960 . S
C1616 C1615 1.524 . S
C1617 C1614 1.403 . S
C1617 C1618 1.392 . S
C1617 C1621 1.495 . S
C1618 C1617 1.392 . S
C1618 C1619 1.385 . S
C1618 C1620 1.478 . S
C1619 H1613 0.930 . S
C1619 C1615 1.400 . S
C1619 C1618 1.385 . S
C1620 C1618 1.478 . S
C1620 C1622 1.381 . S
C1620 C1626 1.383 . S
C1621 C1617 1.495 . S
C1621 H1627 0.959 . S
C1621 H1628 0.961 . S
C1621 H1629 0.960 . S
C1622 C1620 1.381 . S
C1622 C1623 1.394 . S
C1622 H1630 0.930 . S
C1623 C1622 1.394 . S
C1623 C1624 1.383 . S
C1623 H1631 0.929 . S
C1624 C1623 1.383 . S
C1624 C1625 1.377 . S
C1625 H1609 0.930 . S
C1625 C1624 1.377 . S
C1625 C1626 1.379 . S
C1626 H1610 0.931 . S
C1626 C1620 1.383 . S
C1626 C1625 1.379 . S
H1627 C1621 0.959 . S
H1628 C1621 0.961 . S
H1629 C1621 0.960 . S
H1630 C1622 0.930 . S
H1631 C1623 0.929 . S
H1632 C1640 0.929 . S
H1633 C1642 0.930 . S
H1634 C1644 0.930 . S
H1635 C1647 0.929 . S
H1636 C1650 0.930 . S
H1637 C1652 0.960 . S
H1638 C1652 0.960 . S
H1639 C1652 0.960 . S
C1640 H1632 0.929 . S
C1640 C1641 1.377 . S
C1640 C1642 1.384 . S
C1641 C1640 1.377 . S
C1641 C1647 1.390 . S
C1642 H1633 0.930 . S
C1642 C1640 1.384 . S
C1642 C1643 1.372 . S
C1643 C1642 1.372 . S
C1643 C1644 1.400 . S
C1643 C1648 1.490 . S
C1644 H1634 0.930 . S
C1644 C1643 1.400 . S
C1644 C1647 1.386 . S
H1645 C1661 0.930 . S
H1646 C1662 0.931 . S
C1647 H1635 0.929 . S
C1647 C1641 1.390 . S
C1647 C1644 1.386 . S
C1648 C1643 1.490 . S
C1648 C1650 1.395 . S
C1648 C1651 1.403 . S
H1649 C1655 0.930 . S
C1650 H1636 0.930 . S
C1650 C1648 1.395 . S
C1650 C1653 1.403 . S
C1651 C1648 1.403 . S
C1651 C1652 1.524 . S
C1651 C1655 1.400 . S
C1652 H1637 0.960 . S
C1652 H1638 0.960 . S
C1652 H1639 0.960 . S
C1652 C1651 1.524 . S
C1653 C1650 1.403 . S
C1653 C1654 1.392 . S
C1653 C1657 1.495 . S
C1654 C1653 1.392 . S
C1654 C1655 1.385 . S
C1654 C1656 1.478 . S
C1655 H1649 0.930 . S
C1655 C1651 1.400 . S
C1655 C1654 1.385 . S
C1656 C1654 1.478 . S
C1656 C1658 1.381 . S
C1656 C1662 1.383 . S
C1657 C1653 1.495 . S
C1657 H1663 0.959 . S
C1657 H1664 0.961 . S
C1657 H1665 0.960 . S
C1658 C1656 1.381 . S
C1658 C1659 1.394 . S
C1658 H1666 0.930 . S
C1659 C1658 1.394 . S
C1659 C1660 1.383 . S
C1659 H1667 0.929 . S
C1660 C1659 1.383 . S
C1660 C1661 1.377 . S
C1661 H1645 0.930 . S
C1661 C1660 1.377 . S
C1661 C1662 1.379 . S
C1662 H1646 0.931 . S
C1662 C1656 1.383 . S
C1662 C1661 1.379 . S
H1663 C1657 0.959 . S
H1664 C1657 0.961 . S
H1665 C1657 0.960 . S
H1666 C1658 0.930 . S
H1667 C1659 0.929 . S
H1668 C1676 0.929 . S
H1669 C1678 0.930 . S
H1670 C1680 0.930 . S
H1671 C1683 0.929 . S
H1672 C1686 0.930 . S
H1673 C1688 0.960 . S
H1674 C1688 0.960 . S
H1675 C1688 0.960 . S
C1676 H1668 0.929 . S
C1676 C1677 1.377 . S
C1676 C1678 1.384 . S
C1677 C1676 1.377 . S
C1677 C1683 1.390 . S
C1678 H1669 0.930 . S
C1678 C1676 1.384 . S
C1678 C1679 1.372 . S
C1679 C1678 1.372 . S
C1679 C1680 1.400 . S
C1679 C1684 1.490 . S
C1680 H1670 0.930 . S
C1680 C1679 1.400 . S
C1680 C1683 1.386 . S
H1681 C1697 0.930 . S
H1682 C1698 0.931 . S
C1683 H1671 0.929 . S
C1683 C1677 1.390 . S
C1683 C1680 1.386 . S
C1684 C1679 1.490 . S
C1684 C1686 1.395 . S
C1684 C1687 1.403 . S
H1685 C1691 0.930 . S
C1686 H1672 0.930 . S
C1686 C1684 1.395 . S
C1686 C1689 1.403 . S
C1687 C1684 1.403 . S
C1687 C1688 1.524 . S
C1687 C1691 1.400 . S
C1688 H1673 0.960 . S
C1688 H1674 0.960 . S
C1688 H1675 0.960 . S
C1688 C1687 1.524 . S
C1689 C1686 1.403 . S
C1689 C1690 1.392 . S
C1689 C1693 1.495 . S
C1690 C1689 1.392 . S
C1690 C1691 1.385 . S
C1690 C1692 1.478 . S
C1691 H1685 0.930 . S
C1691 C1687 1.400 . S
C1691 C1690 1.385 . S
C1692 C1690 1.478 . S
C1692 C1694 1.381 . S
C1692 C1698 1.383 . S
C1693 C1689 1.495 . S
C1693 H1699 0.959 . S
C1693 H1700 0.961 . S
C1693 H1701 0.960 . S
C1694 C1692 1.381 . S
C1694 C1695 1.394 . S
C1694 H1702 0.930 . S
C1695 C1694 1.394 . S
C1695 C1696 1.383 . S
C1695 H1703 0.929 . S
C1696 C1695 1.383 . S
C1696 C1697 1.377 . S
C1697 H1681 0.930 . S
C1697 C1696 1.377 . S
C1697 C1698 1.379 . S
C1698 H1682 0.931 . S
C1698 C1692 1.383 . S
C1698 C1697 1.379 . S
H1699 C1693 0.959 . S
H1700 C1693 0.961 . S
H1701 C1693 0.960 . S
H1702 C1694 0.930 . S
H1703 C1695 0.929 . S
H1704 C1712 0.929 . S
H1705 C1714 0.930 . S
H1706 C1716 0.930 . S
H1707 C1719 0.929 . S
H1708 C1722 0.930 . S
H1709 C1724 0.960 . S
H1710 C1724 0.960 . S
H1711 C1724 0.960 . S
C1712 H1704 0.929 . S
C1712 C1713 1.377 . S
C1712 C1714 1.384 . S
C1713 C1712 1.377 . S
C1713 C1719 1.390 . S
C1714 H1705 0.930 . S
C1714 C1712 1.384 . S
C1714 C1715 1.372 . S
C1715 C1714 1.372 . S
C1715 C1716 1.400 . S
C1715 C1720 1.512 . S
C1716 H1706 0.930 . S
C1716 C1715 1.400 . S
C1716 C1719 1.386 . S
H1717 C1733 0.930 . S
H1718 C1734 0.931 . S
C1719 H1707 0.929 . S
C1719 C1713 1.390 . S
C1719 C1716 1.386 . S
C1720 C1715 1.512 . S
C1720 C1722 1.353 1_565 S
C1720 C1723 1.423 . S
H1721 C1727 0.930 . S
C1722 H1708 0.930 . S
C1722 C1720 1.353 1_545 S
C1722 C1725 1.403 . S
C1723 C1720 1.423 . S
C1723 C1724 1.524 . S
C1723 C1727 1.400 . S
C1724 H1709 0.960 . S
C1724 H1710 0.960 . S
C1724 H1711 0.960 . S
C1724 C1723 1.524 . S
C1725 C1722 1.403 . S
C1725 C1726 1.392 . S
C1725 C1729 1.495 . S
C1726 C1725 1.392 . S
C1726 C1727 1.385 1_545 S
C1726 C1728 1.478 . S
C1727 H1721 0.930 . S
C1727 C1723 1.400 . S
C1727 C1726 1.385 1_565 S
C1728 C1726 1.478 . S
C1728 C1730 1.381 . S
C1728 C1734 1.383 . S
C1729 C1725 1.495 . S
C1729 H1735 0.959 . S
C1729 H1736 0.961 . S
C1729 H1737 0.960 . S
C1730 C1728 1.381 . S
C1730 C1731 1.394 . S
C1730 H1738 0.930 . S
C1731 C1730 1.394 . S
C1731 C1732 1.383 . S
C1731 H1739 0.929 . S
C1732 C1731 1.383 . S
C1732 C1733 1.377 . S
C1733 H1717 0.930 . S
C1733 C1732 1.377 . S
C1733 C1734 1.379 . S
C1734 H1718 0.931 . S
C1734 C1728 1.383 . S
C1734 C1733 1.379 . S
H1735 C1729 0.959 . S
H1736 C1729 0.961 . S
H1737 C1729 0.960 . S
H1738 C1730 0.930 . S
H1739 C1731 0.929 . S
H1740 C1748 0.929 . S
H1741 C1750 0.930 . S
H1742 C1752 0.930 . S
H1743 C1755 0.929 . S
H1744 C1758 0.916 1_455 S
H1745 C1760 0.960 . S
H1746 C1760 0.960 . S
H1747 C1760 0.960 1_455 S
C1748 H1740 0.929 . S
C1748 C1749 1.377 1_655 S
C1748 C1750 1.384 . S
C1749 C1748 1.377 1_455 S
C1749 C1755 1.390 . S
C1750 H1741 0.930 . S
C1750 C1748 1.384 . S
C1750 C1751 1.372 1_655 S
C1751 C1750 1.372 1_455 S
C1751 C1752 1.400 . S
C1751 C1756 1.490 1_455 S
C1752 H1742 0.930 . S
C1752 C1751 1.400 . S
C1752 C1755 1.386 . S
H1753 C1769 0.930 . S
H1754 C1770 0.931 . S
C1755 H1743 0.929 . S
C1755 C1749 1.390 . S
C1755 C1752 1.386 . S
C1756 C1751 1.490 1_655 S
C1756 C1758 1.392 . S
C1756 C1759 1.403 . S
H1757 C1763 0.930 . S
C1758 H1744 0.916 1_655 S
C1758 C1756 1.392 . S
C1758 C1761 1.422 . S
C1759 C1756 1.403 . S
C1759 C1760 1.524 . S
C1759 C1763 1.400 . S
C1760 H1745 0.960 . S
C1760 H1746 0.960 . S
C1760 H1747 0.960 1_655 S
C1760 C1759 1.524 . S
C1761 C1758 1.422 . S
C1761 C1762 1.392 . S
C1761 C1765 1.495 . S
C1762 C1761 1.392 . S
C1762 C1763 1.385 . S
C1762 C1764 1.478 . S
C1763 H1757 0.930 . S
C1763 C1759 1.400 . S
C1763 C1762 1.385 . S
C1764 C1762 1.478 . S
C1764 C1766 1.381 . S
C1764 C1770 1.383 1_655 S
C1765 C1761 1.495 . S
C1765 H1771 0.961 . S
C1765 H1772 0.961 1_655 S
C1765 H1773 0.960 . S
C1766 C1764 1.381 . S
C1766 C1767 1.394 . S
C1766 H1774 0.930 . S
C1767 C1766 1.394 . S
C1767 C1768 1.383 . S
C1767 H1775 0.929 . S
C1768 C1767 1.383 . S
C1768 C1769 1.377 1_655 S
C1769 H1753 0.930 . S
C1769 C1768 1.377 1_455 S
C1769 C1770 1.379 . S
C1770 H1754 0.931 . S
C1770 C1764 1.383 1_455 S
C1770 C1769 1.379 . S
H1771 C1765 0.961 . S
H1772 C1765 0.961 1_455 S
H1773 C1765 0.960 . S
H1774 C1766 0.930 . S
H1775 C1767 0.929 . S
H1776 C1784 0.929 1_554 S
H1777 C1786 0.917 1_554 S
H1778 C1788 0.930 . S
H1779 C1791 0.929 . S
H1780 C1794 0.930 . S
H1781 C1796 0.960 . S
H1782 C1796 0.960 . S
H1783 C1796 0.960 . S
C1784 H1776 0.929 1_556 S
C1784 C1785 1.377 . S
C1784 C1786 1.388 . S
C1785 C1784 1.377 . S
C1785 C1791 1.390 . S
C1786 H1777 0.917 1_556 S
C1786 C1784 1.388 . S
C1786 C1787 1.380 . S
C1787 C1786 1.380 . S
C1787 C1788 1.400 . S
C1787 C1792 1.490 . S
C1788 H1778 0.930 . S
C1788 C1787 1.400 . S
C1788 C1791 1.386 . S
H1789 C1805 0.930 . S
H1790 C1806 0.931 . S
C1791 H1779 0.929 . S
C1791 C1785 1.390 . S
C1791 C1788 1.386 . S
C1792 C1787 1.490 . S
C1792 C1794 1.395 1_556 S
C1792 C1795 1.403 . S
H1793 C1799 0.930 . S
C1794 H1780 0.930 . S
C1794 C1792 1.395 1_554 S
C1794 C1797 1.403 . S
C1795 C1792 1.403 . S
C1795 C1796 1.524 . S
C1795 C1799 1.400 . S
C1796 H1781 0.960 . S
C1796 H1782 0.960 . S
C1796 H1783 0.960 . S
C1796 C1795 1.524 . S
C1797 C1794 1.403 . S
C1797 C1798 1.392 1_554 S
C1797 C1801 1.495 . S
C1798 C1797 1.392 1_556 S
C1798 C1799 1.385 . S
C1798 C1800 1.478 . S
C1799 H1793 0.930 . S
C1799 C1795 1.400 . S
C1799 C1798 1.385 . S
C1800 C1798 1.478 . S
C1800 C1802 1.381 1_556 S
C1800 C1806 1.383 . S
C1801 C1797 1.495 . S
C1801 H1807 0.959 . S
C1801 H1808 0.961 . S
C1801 H1809 0.960 . S
C1802 C1800 1.381 1_554 S
C1802 C1803 1.394 . S
C1802 H1810 0.930 . S
C1803 C1802 1.394 . S
C1803 C1804 1.383 1_554 S
C1803 H1811 0.929 . S
C1804 C1803 1.383 1_556 S
C1804 C1805 1.377 . S
C1805 H1789 0.930 . S
C1805 C1804 1.377 . S
C1805 C1806 1.379 . S
C1806 H1790 0.931 . S
C1806 C1800 1.383 . S
C1806 C1805 1.379 . S
H1807 C1801 0.959 . S
H1808 C1801 0.961 . S
H1809 C1801 0.960 . S
H1810 C1802 0.930 . S
H1811 C1803 0.929 . S
H1812 C1820 0.929 . S
H1813 C1822 0.930 . S
H1814 C1824 0.930 . S
H1815 C1827 0.929 . S
H1816 C1830 0.930 . S
H1817 C1832 0.960 . S
H1818 C1832 0.960 . S
H1819 C1832 0.960 . S
C1820 H1812 0.929 . S
C1820 C1821 1.377 . S
C1820 C1822 1.384 . S
C1821 C1820 1.377 . S
C1821 C1827 1.390 . S
C1822 H1813 0.930 . S
C1822 C1820 1.384 . S
C1822 C1823 1.372 . S
C1823 C1822 1.372 . S
C1823 C1824 1.400 . S
C1823 C1828 1.490 . S
C1824 H1814 0.930 . S
C1824 C1823 1.400 . S
C1824 C1827 1.386 . S
H1825 C1841 0.930 . S
H1826 C1842 0.931 . S
C1827 H1815 0.929 . S
C1827 C1821 1.390 . S
C1827 C1824 1.386 . S
C1828 C1823 1.490 . S
C1828 C1830 1.395 . S
C1828 C1831 1.403 . S
H1829 C1835 0.930 . S
C1830 H1816 0.930 . S
C1830 C1828 1.395 . S
C1830 C1833 1.403 . S
C1831 C1828 1.403 . S
C1831 C1832 1.524 . S
C1831 C1835 1.400 . S
C1832 H1817 0.960 . S
C1832 H1818 0.960 . S
C1832 H1819 0.960 . S
C1832 C1831 1.524 . S
C1833 C1830 1.403 . S
C1833 C1834 1.392 . S
C1833 C1837 1.495 . S
C1834 C1833 1.392 . S
C1834 C1835 1.385 . S
C1834 C1836 1.478 . S
C1835 H1829 0.930 . S
C1835 C1831 1.400 . S
C1835 C1834 1.385 . S
C1836 C1834 1.478 . S
C1836 C1838 1.381 . S
C1836 C1842 1.383 . S
C1837 C1833 1.495 . S
C1837 H1843 0.959 . S
C1837 H1844 0.961 . S
C1837 H1845 0.960 . S
C1838 C1836 1.381 . S
C1838 C1839 1.394 . S
C1838 H1846 0.930 . S
C1839 C1838 1.394 . S
C1839 C1840 1.383 . S
C1839 H1847 0.929 . S
C1840 C1839 1.383 . S
C1840 C1841 1.377 . S
C1841 H1825 0.930 . S
C1841 C1840 1.377 . S
C1841 C1842 1.379 . S
C1842 H1826 0.931 . S
C1842 C1836 1.383 . S
C1842 C1841 1.379 . S
H1843 C1837 0.959 . S
H1844 C1837 0.961 . S
H1845 C1837 0.960 . S
H1846 C1838 0.930 . S
H1847 C1839 0.929 . S
H1848 C1856 0.929 . S
H1849 C1858 0.930 . S
H1850 C1860 0.930 . S
H1851 C1863 0.929 . S
H1852 C1866 0.930 . S
H1853 C1868 0.960 . S
H1854 C1868 0.960 . S
H1855 C1868 0.960 . S
C1856 H1848 0.929 . S
C1856 C1857 1.377 . S
C1856 C1858 1.384 . S
C1857 C1856 1.377 . S
C1857 C1863 1.390 . S
C1858 H1849 0.930 . S
C1858 C1856 1.384 . S
C1858 C1859 1.372 . S
C1859 C1858 1.372 . S
C1859 C1860 1.400 . S
C1859 C1864 1.490 . S
C1860 H1850 0.930 . S
C1860 C1859 1.400 . S
C1860 C1863 1.386 . S
H1861 C1877 0.930 . S
H1862 C1878 0.931 . S
C1863 H1851 0.929 . S
C1863 C1857 1.390 . S
C1863 C1860 1.386 . S
C1864 C1859 1.490 . S
C1864 C1866 1.395 . S
C1864 C1867 1.403 . S
H1865 C1871 0.930 . S
C1866 H1852 0.930 . S
C1866 C1864 1.395 . S
C1866 C1869 1.403 . S
C1867 C1864 1.403 . S
C1867 C1868 1.524 . S
C1867 C1871 1.400 . S
C1868 H1853 0.960 . S
C1868 H1854 0.960 . S
C1868 H1855 0.960 . S
C1868 C1867 1.524 . S
C1869 C1866 1.403 . S
C1869 C1870 1.392 . S
C1869 C1873 1.495 . S
C1870 C1869 1.392 . S
C1870 C1871 1.385 . S
C1870 C1872 1.478 . S
C1871 H1865 0.930 . S
C1871 C1867 1.400 . S
C1871 C1870 1.385 . S
C1872 C1870 1.478 . S
C1872 C1874 1.381 . S
C1872 C1878 1.383 . S
C1873 C1869 1.495 . S
C1873 H1879 0.959 . S
C1873 H1880 0.961 . S
C1873 H1881 0.960 . S
C1874 C1872 1.381 . S
C1874 C1875 1.394 . S
C1874 H1882 0.930 . S
C1875 C1874 1.394 . S
C1875 C1876 1.383 . S
C1875 H1883 0.929 . S
C1876 C1875 1.383 . S
C1876 C1877 1.377 . S
C1877 H1861 0.930 . S
C1877 C1876 1.377 . S
C1877 C1878 1.379 . S
C1878 H1862 0.931 . S
C1878 C1872 1.383 . S
C1878 C1877 1.379 . S
H1879 C1873 0.959 . S
H1880 C1873 0.961 . S
H1881 C1873 0.960 . S
H1882 C1874 0.930 . S
H1883 C1875 0.929 . S
H1884 C1892 0.929 . S
H1885 C1894 0.930 . S
H1886 C1896 0.930 . S
H1887 C1899 0.929 . S
H1888 C1902 0.930 . S
H1889 C1904 0.960 . S
H1890 C1904 0.960 . S
H1891 C1904 0.960 . S
C1892 H1884 0.929 . S
C1892 C1893 1.377 . S
C1892 C1894 1.384 . S
C1893 C1892 1.377 . S
C1893 C1899 1.390 . S
C1894 H1885 0.930 . S
C1894 C1892 1.384 . S
C1894 C1895 1.372 . S
C1895 C1894 1.372 . S
C1895 C1896 1.400 . S
C1895 C1900 1.490 . S
C1896 H1886 0.930 . S
C1896 C1895 1.400 . S
C1896 C1899 1.386 . S
H1897 C1913 0.930 . S
H1898 C1914 0.931 . S
C1899 H1887 0.929 . S
C1899 C1893 1.390 . S
C1899 C1896 1.386 . S
C1900 C1895 1.490 . S
C1900 C1902 1.395 . S
C1900 C1903 1.403 . S
H1901 C1907 0.930 . S
C1902 H1888 0.930 . S
C1902 C1900 1.395 . S
C1902 C1905 1.403 . S
C1903 C1900 1.403 . S
C1903 C1904 1.524 . S
C1903 C1907 1.400 . S
C1904 H1889 0.960 . S
C1904 H1890 0.960 . S
C1904 H1891 0.960 . S
C1904 C1903 1.524 . S
C1905 C1902 1.403 . S
C1905 C1906 1.392 . S
C1905 C1909 1.495 . S
C1906 C1905 1.392 . S
C1906 C1907 1.385 . S
C1906 C1908 1.478 . S
C1907 H1901 0.930 . S
C1907 C1903 1.400 . S
C1907 C1906 1.385 . S
C1908 C1906 1.478 . S
C1908 C1910 1.381 . S
C1908 C1914 1.383 . S
C1909 C1905 1.495 . S
C1909 H1915 0.959 . S
C1909 H1916 0.961 . S
C1909 H1917 0.960 . S
C1910 C1908 1.381 . S
C1910 C1911 1.394 . S
C1910 H1918 0.930 . S
C1911 C1910 1.394 . S
C1911 C1912 1.383 . S
C1911 H1919 0.929 . S
C1912 C1911 1.383 . S
C1912 C1913 1.377 . S
C1913 H1897 0.930 . S
C1913 C1912 1.377 . S
C1913 C1914 1.379 . S
C1914 H1898 0.931 . S
C1914 C1908 1.383 . S
C1914 C1913 1.379 . S
H1915 C1909 0.959 . S
H1916 C1909 0.961 . S
H1917 C1909 0.960 . S
H1918 C1910 0.930 . S
H1919 C1911 0.929 . S
H1920 C1928 0.929 . S
H1921 C1930 0.930 . S
H1922 C1932 0.930 . S
H1923 C1935 0.929 . S
H1924 C1938 0.930 . S
H1925 C1940 0.960 . S
H1926 C1940 0.960 . S
H1927 C1940 0.960 . S
C1928 H1920 0.929 . S
C1928 C1929 1.377 . S
C1928 C1930 1.384 . S
C1929 C1928 1.377 . S
C1929 C1935 1.390 . S
C1930 H1921 0.930 . S
C1930 C1928 1.384 . S
C1930 C1931 1.372 . S
C1931 C1930 1.372 . S
C1931 C1932 1.400 . S
C1931 C1936 1.490 . S
C1932 H1922 0.930 . S
C1932 C1931 1.400 . S
C1932 C1935 1.386 . S
H1933 C1949 0.930 . S
H1934 C1950 0.931 . S
C1935 H1923 0.929 . S
C1935 C1929 1.390 . S
C1935 C1932 1.386 . S
C1936 C1931 1.490 . S
C1936 C1938 1.395 . S
C1936 C1939 1.403 . S
H1937 C1943 0.930 . S
C1938 H1924 0.930 . S
C1938 C1936 1.395 . S
C1938 C1941 1.403 . S
C1939 C1936 1.403 . S
C1939 C1940 1.524 . S
C1939 C1943 1.400 . S
C1940 H1925 0.960 . S
C1940 H1926 0.960 . S
C1940 H1927 0.960 . S
C1940 C1939 1.524 . S
C1941 C1938 1.403 . S
C1941 C1942 1.392 . S
C1941 C1945 1.495 . S
C1942 C1941 1.392 . S
C1942 C1943 1.385 . S
C1942 C1944 1.478 . S
C1943 H1937 0.930 . S
C1943 C1939 1.400 . S
C1943 C1942 1.385 . S
C1944 C1942 1.478 . S
C1944 C1946 1.381 . S
C1944 C1950 1.383 . S
C1945 C1941 1.495 . S
C1945 H1951 0.959 . S
C1945 H1952 0.961 . S
C1945 H1953 0.960 . S
C1946 C1944 1.381 . S
C1946 C1947 1.394 . S
C1946 H1954 0.930 . S
C1947 C1946 1.394 . S
C1947 C1948 1.383 . S
C1947 H1955 0.929 . S
C1948 C1947 1.383 . S
C1948 C1949 1.377 . S
C1949 H1933 0.930 . S
C1949 C1948 1.377 . S
C1949 C1950 1.379 . S
C1950 H1934 0.931 . S
C1950 C1944 1.383 . S
C1950 C1949 1.379 . S
H1951 C1945 0.959 . S
H1952 C1945 0.961 . S
H1953 C1945 0.960 . S
H1954 C1946 0.930 . S
H1955 C1947 0.929 . S
H1956 C1964 0.929 . S
H1957 C1966 0.930 . S
H1958 C1968 0.930 . S
H1959 C1971 0.929 . S
H1960 C1974 0.930 . S
H1961 C1976 0.960 . S
H1962 C1976 0.960 . S
H1963 C1976 0.960 . S
C1964 H1956 0.929 . S
C1964 C1965 1.377 . S
C1964 C1966 1.384 . S
C1965 C1964 1.377 . S
C1965 C1971 1.390 . S
C1966 H1957 0.930 . S
C1966 C1964 1.384 . S
C1966 C1967 1.372 . S
C1967 C1966 1.372 . S
C1967 C1968 1.400 . S
C1967 C1972 1.490 . S
C1968 H1958 0.930 . S
C1968 C1967 1.400 . S
C1968 C1971 1.386 . S
H1969 C1985 0.930 . S
H1970 C1986 0.931 . S
C1971 H1959 0.929 . S
C1971 C1965 1.390 . S
C1971 C1968 1.386 . S
C1972 C1967 1.490 . S
C1972 C1974 1.395 . S
C1972 C1975 1.403 . S
H1973 C1979 0.930 . S
C1974 H1960 0.930 . S
C1974 C1972 1.395 . S
C1974 C1977 1.403 . S
C1975 C1972 1.403 . S
C1975 C1976 1.524 . S
C1975 C1979 1.400 . S
C1976 H1961 0.960 . S
C1976 H1962 0.960 . S
C1976 H1963 0.960 . S
C1976 C1975 1.524 . S
C1977 C1974 1.403 . S
C1977 C1978 1.392 . S
C1977 C1981 1.495 . S
C1978 C1977 1.392 . S
C1978 C1979 1.385 . S
C1978 C1980 1.478 . S
C1979 H1973 0.930 . S
C1979 C1975 1.400 . S
C1979 C1978 1.385 . S
C1980 C1978 1.478 . S
C1980 C1982 1.381 . S
C1980 C1986 1.383 . S
C1981 C1977 1.495 . S
C1981 H1987 0.959 . S
C1981 H1988 0.961 . S
C1981 H1989 0.960 . S
C1982 C1980 1.381 . S
C1982 C1983 1.394 . S
C1982 H1990 0.930 . S
C1983 C1982 1.394 . S
C1983 C1984 1.383 . S
C1983 H1991 0.929 . S
C1984 C1983 1.383 . S
C1984 C1985 1.377 . S
C1985 H1969 0.930 . S
C1985 C1984 1.377 . S
C1985 C1986 1.379 . S
C1986 H1970 0.931 . S
C1986 C1980 1.383 . S
C1986 C1985 1.379 . S
H1987 C1981 0.959 . S
H1988 C1981 0.961 . S
H1989 C1981 0.960 . S
H1990 C1982 0.930 . S
H1991 C1983 0.929 . S
H1992 C2000 0.929 . S
H1993 C2002 0.930 . S
H1994 C2004 0.930 . S
H1995 C2007 0.929 . S
H1996 C2010 0.930 . S
H1997 C2012 0.960 . S
H1998 C2012 0.960 . S
H1999 C2012 0.960 . S
C2000 H1992 0.929 . S
C2000 C2001 1.377 . S
C2000 C2002 1.384 . S
C2001 C2000 1.377 . S
C2001 C2007 1.390 . S
C2002 H1993 0.930 . S
C2002 C2000 1.384 . S
C2002 C2003 1.372 . S
C2003 C2002 1.372 . S
C2003 C2004 1.400 . S
C2003 C2008 1.490 . S
C2004 H1994 0.930 . S
C2004 C2003 1.400 . S
C2004 C2007 1.386 . S
H2005 C2021 0.930 . S
H2006 C2022 0.931 . S
C2007 H1995 0.929 . S
C2007 C2001 1.390 . S
C2007 C2004 1.386 . S
C2008 C2003 1.490 . S
C2008 C2010 1.395 . S
C2008 C2011 1.403 . S
H2009 C2015 0.930 . S
C2010 H1996 0.930 . S
C2010 C2008 1.395 . S
C2010 C2013 1.403 . S
C2011 C2008 1.403 . S
C2011 C2012 1.524 . S
C2011 C2015 1.400 . S
C2012 H1997 0.960 . S
C2012 H1998 0.960 . S
C2012 H1999 0.960 . S
C2012 C2011 1.524 . S
C2013 C2010 1.403 . S
C2013 C2014 1.392 . S
C2013 C2017 1.495 . S
C2014 C2013 1.392 . S
C2014 C2015 1.385 . S
C2014 C2016 1.478 . S
C2015 H2009 0.930 . S
C2015 C2011 1.400 . S
C2015 C2014 1.385 . S
C2016 C2014 1.478 . S
C2016 C2018 1.381 . S
C2016 C2022 1.383 . S
C2017 C2013 1.495 . S
C2017 H2023 0.959 . S
C2017 H2024 0.961 . S
C2017 H2025 0.960 . S
C2018 C2016 1.381 . S
C2018 C2019 1.394 . S
C2018 H2026 0.930 . S
C2019 C2018 1.394 . S
C2019 C2020 1.383 . S
C2019 H2027 0.929 . S
C2020 C2019 1.383 . S
C2020 C2021 1.377 . S
C2021 H2005 0.930 . S
C2021 C2020 1.377 . S
C2021 C2022 1.379 . S
C2022 H2006 0.931 . S
C2022 C2016 1.383 . S
C2022 C2021 1.379 . S
H2023 C2017 0.959 . S
H2024 C2017 0.961 . S
H2025 C2017 0.960 . S
H2026 C2018 0.930 . S
H2027 C2019 0.929 . S
H2028 C2036 0.929 . S
H2029 C2038 0.930 . S
H2030 C2040 0.930 . S
H2031 C2043 0.929 . S
H2032 C2046 0.930 . S
H2033 C2048 0.960 . S
H2034 C2048 0.960 . S
H2035 C2048 0.960 . S
C2036 H2028 0.929 . S
C2036 C2037 1.377 . S
C2036 C2038 1.384 . S
C2037 C2036 1.377 . S
C2037 C2043 1.390 . S
C2038 H2029 0.930 . S
C2038 C2036 1.384 . S
C2038 C2039 1.372 . S
C2039 C2038 1.372 . S
C2039 C2040 1.400 . S
C2039 C2044 1.490 . S
C2040 H2030 0.930 . S
C2040 C2039 1.400 . S
C2040 C2043 1.386 . S
H2041 C2057 0.930 . S
H2042 C2058 0.931 . S
C2043 H2031 0.929 . S
C2043 C2037 1.390 . S
C2043 C2040 1.386 . S
C2044 C2039 1.490 . S
C2044 C2046 1.395 . S
C2044 C2047 1.403 . S
H2045 C2051 0.930 . S
C2046 H2032 0.930 . S
C2046 C2044 1.395 . S
C2046 C2049 1.403 . S
C2047 C2044 1.403 . S
C2047 C2048 1.524 . S
C2047 C2051 1.400 . S
C2048 H2033 0.960 . S
C2048 H2034 0.960 . S
C2048 H2035 0.960 . S
C2048 C2047 1.524 . S
C2049 C2046 1.403 . S
C2049 C2050 1.392 . S
C2049 C2053 1.495 . S
C2050 C2049 1.392 . S
C2050 C2051 1.385 . S
C2050 C2052 1.478 . S
C2051 H2045 0.930 . S
C2051 C2047 1.400 . S
C2051 C2050 1.385 . S
C2052 C2050 1.478 . S
C2052 C2054 1.381 . S
C2052 C2058 1.383 . S
C2053 C2049 1.495 . S
C2053 H2059 0.959 . S
C2053 H2060 0.961 . S
C2053 H2061 0.960 . S
C2054 C2052 1.381 . S
C2054 C2055 1.394 . S
C2054 H2062 0.930 . S
C2055 C2054 1.394 . S
C2055 C2056 1.383 . S
C2055 H2063 0.929 . S
C2056 C2055 1.383 . S
C2056 C2057 1.377 . S
C2057 H2041 0.930 . S
C2057 C2056 1.377 . S
C2057 C2058 1.379 . S
C2058 H2042 0.931 . S
C2058 C2052 1.383 . S
C2058 C2057 1.379 . S
H2059 C2053 0.959 . S
H2060 C2053 0.961 . S
H2061 C2053 0.960 . S
H2062 C2054 0.930 . S
H2063 C2055 0.929 . S
H2064 C2072 0.929 . S
H2065 C2074 0.930 . S
H2066 C2076 0.930 . S
H2067 C2079 0.929 . S
H2068 C2082 0.930 . S
H2069 C2084 0.960 . S
H2070 C2084 0.960 . S
H2071 C2084 0.960 . S
C2072 H2064 0.929 . S
C2072 C2073 1.377 . S
C2072 C2074 1.384 . S
C2073 C2072 1.377 . S
C2073 C2079 1.390 . S
C2074 H2065 0.930 . S
C2074 C2072 1.384 . S
C2074 C2075 1.372 . S
C2075 C2074 1.372 . S
C2075 C2076 1.400 . S
C2075 C2080 1.490 . S
C2076 H2066 0.930 . S
C2076 C2075 1.400 . S
C2076 C2079 1.386 . S
H2077 C2093 0.930 . S
H2078 C2094 0.931 . S
C2079 H2067 0.929 . S
C2079 C2073 1.390 . S
C2079 C2076 1.386 . S
C2080 C2075 1.490 . S
C2080 C2082 1.395 . S
C2080 C2083 1.403 . S
H2081 C2087 0.930 . S
C2082 H2068 0.930 . S
C2082 C2080 1.395 . S
C2082 C2085 1.403 . S
C2083 C2080 1.403 . S
C2083 C2084 1.524 . S
C2083 C2087 1.400 . S
C2084 H2069 0.960 . S
C2084 H2070 0.960 . S
C2084 H2071 0.960 . S
C2084 C2083 1.524 . S
C2085 C2082 1.403 . S
C2085 C2086 1.392 . S
C2085 C2089 1.495 . S
C2086 C2085 1.392 . S
C2086 C2087 1.385 . S
C2086 C2088 1.478 . S
C2087 H2081 0.930 . S
C2087 C2083 1.400 . S
C2087 C2086 1.385 . S
C2088 C2086 1.478 . S
C2088 C2090 1.381 . S
C2088 C2094 1.383 . S
C2089 C2085 1.495 . S
C2089 H2095 0.959 . S
C2089 H2096 0.961 . S
C2089 H2097 0.960 . S
C2090 C2088 1.381 . S
C2090 C2091 1.394 . S
C2090 H2098 0.930 . S
C2091 C2090 1.394 . S
C2091 C2092 1.383 . S
C2091 H2099 0.929 . S
C2092 C2091 1.383 . S
C2092 C2093 1.377 . S
C2093 H2077 0.930 . S
C2093 C2092 1.377 . S
C2093 C2094 1.379 . S
C2094 H2078 0.931 . S
C2094 C2088 1.383 . S
C2094 C2093 1.379 . S
H2095 C2089 0.959 . S
H2096 C2089 0.961 . S
H2097 C2089 0.960 . S
H2098 C2090 0.930 . S
H2099 C2091 0.929 . S
H2100 C2108 0.929 . S
H2101 C2110 0.930 . S
H2102 C2112 0.930 . S
H2103 C2115 0.929 . S
H2104 C2118 0.930 . S
H2105 C2120 0.960 . S
H2106 C2120 0.987 . S
H2107 C2120 0.960 . S
C2108 H2100 0.929 . S
C2108 C2109 1.377 . S
C2108 C2110 1.384 . S
C2109 C2108 1.377 . S
C2109 C2115 1.390 1_455 S
C2110 H2101 0.930 . S
C2110 C2108 1.384 . S
C2110 C2111 1.372 . S
C2111 C2110 1.372 . S
C2111 C2112 1.400 1_455 S
C2111 C2116 1.490 . S
C2112 H2102 0.930 . S
C2112 C2111 1.400 1_655 S
C2112 C2115 1.386 . S
H2113 C2129 0.930 . S
H2114 C2130 0.931 . S
C2115 H2103 0.929 . S
C2115 C2109 1.390 1_655 S
C2115 C2112 1.386 . S
C2116 C2111 1.490 . S
C2116 C2118 1.395 . S
C2116 C2119 1.403 1_455 S
H2117 C2123 0.930 . S
C2118 H2104 0.930 . S
C2118 C2116 1.395 . S
C2118 C2121 1.403 . S
C2119 C2116 1.403 1_655 S
C2119 C2120 1.524 . S
C2119 C2123 1.400 . S
C2120 H2105 0.960 . S
C2120 H2106 0.987 . S
C2120 H2107 0.960 . S
C2120 C2119 1.524 . S
C2121 C2118 1.403 . S
C2121 C2122 1.392 . S
C2121 C2125 1.495 . S
C2122 C2121 1.392 . S
C2122 C2123 1.385 1_455 S
C2122 C2124 1.471 1_455 S
C2123 H2117 0.930 . S
C2123 C2119 1.400 . S
C2123 C2122 1.385 1_655 S
C2124 C2122 1.471 1_655 S
C2124 C2126 1.373 1_655 S
C2124 C2130 1.398 . S
C2125 C2121 1.495 . S
C2125 H2131 0.959 . S
C2125 H2132 0.961 . S
C2125 H2133 0.960 . S
C2126 C2124 1.373 1_455 S
C2126 C2127 1.394 . S
C2126 H2134 0.930 . S
C2127 C2126 1.394 . S
C2127 C2128 1.383 1_455 S
C2127 H2135 0.929 . S
C2128 C2127 1.383 1_655 S
C2128 C2129 1.377 . S
C2129 H2113 0.930 . S
C2129 C2128 1.377 . S
C2129 C2130 1.379 . S
C2130 H2114 0.931 . S
C2130 C2124 1.398 . S
C2130 C2129 1.379 . S
H2131 C2125 0.959 . S
H2132 C2125 0.961 . S
H2133 C2125 0.960 . S
H2134 C2126 0.930 . S
H2135 C2127 0.929 . S
H2136 C2144 0.929 . S
H2137 C2146 0.930 . S
H2138 C2148 0.930 . S
H2139 C2151 0.929 . S
H2140 C2154 0.930 . S
H2141 C2156 0.960 . S
H2142 C2156 0.960 . S
H2143 C2156 0.960 . S
C2144 H2136 0.929 . S
C2144 C2145 1.377 . S
C2144 C2146 1.384 . S
C2145 C2144 1.377 . S
C2145 C2151 1.390 . S
C2146 H2137 0.930 . S
C2146 C2144 1.384 . S
C2146 C2147 1.372 . S
C2147 C2146 1.372 . S
C2147 C2148 1.400 . S
C2147 C2152 1.490 . S
C2148 H2138 0.930 . S
C2148 C2147 1.400 . S
C2148 C2151 1.386 . S
H2149 C2165 0.930 . S
H2150 C2166 0.931 . S
C2151 H2139 0.929 . S
C2151 C2145 1.390 . S
C2151 C2148 1.386 . S
C2152 C2147 1.490 . S
C2152 C2154 1.395 . S
C2152 C2155 1.403 . S
H2153 C2159 0.930 . S
C2154 H2140 0.930 . S
C2154 C2152 1.395 . S
C2154 C2157 1.403 . S
C2155 C2152 1.403 . S
C2155 C2156 1.524 . S
C2155 C2159 1.400 . S
C2156 H2141 0.960 . S
C2156 H2142 0.960 . S
C2156 H2143 0.960 . S
C2156 C2155 1.524 . S
C2157 C2154 1.403 . S
C2157 C2158 1.392 . S
C2157 C2161 1.495 . S
C2158 C2157 1.392 . S
C2158 C2159 1.385 . S
C2158 C2160 1.478 . S
C2159 H2153 0.930 . S
C2159 C2155 1.400 . S
C2159 C2158 1.385 . S
C2160 C2158 1.478 . S
C2160 C2162 1.381 . S
C2160 C2166 1.383 . S
C2161 C2157 1.495 . S
C2161 H2167 0.959 . S
C2161 H2168 0.961 . S
C2161 H2169 0.960 . S
C2162 C2160 1.381 . S
C2162 C2163 1.394 . S
C2162 H2170 0.930 . S
C2163 C2162 1.394 . S
C2163 C2164 1.383 . S
C2163 H2171 0.929 . S
C2164 C2163 1.383 . S
C2164 C2165 1.377 . S
C2165 H2149 0.930 . S
C2165 C2164 1.377 . S
C2165 C2166 1.379 . S
C2166 H2150 0.931 . S
C2166 C2160 1.383 . S
C2166 C2165 1.379 . S
H2167 C2161 0.959 . S
H2168 C2161 0.961 . S
H2169 C2161 0.960 . S
H2170 C2162 0.930 . S
H2171 C2163 0.929 . S
H2172 C2180 0.929 . S
H2173 C2182 0.930 . S
H2174 C2184 0.930 . S
H2175 C2187 0.929 . S
H2176 C2190 0.930 . S
H2177 C2192 0.960 . S
H2178 C2192 0.960 . S
H2179 C2192 0.960 . S
C2180 H2172 0.929 . S
C2180 C2181 1.377 . S
C2180 C2182 1.384 . S
C2181 C2180 1.377 . S
C2181 C2187 1.390 . S
C2182 H2173 0.930 . S
C2182 C2180 1.384 . S
C2182 C2183 1.372 . S
C2183 C2182 1.372 . S
C2183 C2184 1.400 . S
C2183 C2188 1.490 . S
C2184 H2174 0.930 . S
C2184 C2183 1.400 . S
C2184 C2187 1.386 . S
H2185 C2201 0.930 . S
H2186 C2202 0.931 . S
C2187 H2175 0.929 . S
C2187 C2181 1.390 . S
C2187 C2184 1.386 . S
C2188 C2183 1.490 . S
C2188 C2190 1.395 . S
C2188 C2191 1.403 . S
H2189 C2195 0.930 . S
C2190 H2176 0.930 . S
C2190 C2188 1.395 . S
C2190 C2193 1.403 . S
C2191 C2188 1.403 . S
C2191 C2192 1.524 . S
C2191 C2195 1.400 . S
C2192 H2177 0.960 . S
C2192 H2178 0.960 . S
C2192 H2179 0.960 . S
C2192 C2191 1.524 . S
C2193 C2190 1.403 . S
C2193 C2194 1.392 . S
C2193 C2197 1.495 . S
C2194 C2193 1.392 . S
C2194 C2195 1.385 . S
C2194 C2196 1.478 . S
C2195 H2189 0.930 . S
C2195 C2191 1.400 . S
C2195 C2194 1.385 . S
C2196 C2194 1.478 . S
C2196 C2198 1.381 . S
C2196 C2202 1.383 . S
C2197 C2193 1.495 . S
C2197 H2203 0.959 . S
C2197 H2204 0.961 . S
C2197 H2205 0.960 . S
C2198 C2196 1.381 . S
C2198 C2199 1.394 . S
C2198 H2206 0.930 . S
C2199 C2198 1.394 . S
C2199 C2200 1.383 . S
C2199 H2207 0.929 . S
C2200 C2199 1.383 . S
C2200 C2201 1.377 . S
C2201 H2185 0.930 . S
C2201 C2200 1.377 . S
C2201 C2202 1.379 . S
C2202 H2186 0.931 . S
C2202 C2196 1.383 . S
C2202 C2201 1.379 . S
H2203 C2197 0.959 . S
H2204 C2197 0.961 . S
H2205 C2197 0.960 . S
H2206 C2198 0.930 . S
H2207 C2199 0.929 . S
H2208 C2216 0.929 . S
H2209 C2218 0.930 . S
H2210 C2220 0.930 . S
H2211 C2223 0.929 . S
H2212 C2226 0.930 . S
H2213 C2228 0.960 . S
H2214 C2228 0.960 . S
H2215 C2228 0.960 . S
C2216 H2208 0.929 . S
C2216 C2217 1.377 . S
C2216 C2218 1.384 . S
C2217 C2216 1.377 . S
C2217 C2223 1.390 . S
C2218 H2209 0.930 . S
C2218 C2216 1.384 . S
C2218 C2219 1.372 . S
C2219 C2218 1.372 . S
C2219 C2220 1.400 . S
C2219 C2224 1.490 . S
C2220 H2210 0.930 . S
C2220 C2219 1.400 . S
C2220 C2223 1.386 . S
H2221 C2237 0.930 . S
H2222 C2238 0.931 . S
C2223 H2211 0.929 . S
C2223 C2217 1.390 . S
C2223 C2220 1.386 . S
C2224 C2219 1.490 . S
C2224 C2226 1.395 . S
C2224 C2227 1.403 . S
H2225 C2231 0.930 . S
C2226 H2212 0.930 . S
C2226 C2224 1.395 . S
C2226 C2229 1.403 . S
C2227 C2224 1.403 . S
C2227 C2228 1.524 . S
C2227 C2231 1.400 . S
C2228 H2213 0.960 . S
C2228 H2214 0.960 . S
C2228 H2215 0.960 . S
C2228 C2227 1.524 . S
C2229 C2226 1.403 . S
C2229 C2230 1.392 . S
C2229 C2233 1.495 . S
C2230 C2229 1.392 . S
C2230 C2231 1.385 . S
C2230 C2232 1.478 . S
C2231 H2225 0.930 . S
C2231 C2227 1.400 . S
C2231 C2230 1.385 . S
C2232 C2230 1.478 . S
C2232 C2234 1.381 . S
C2232 C2238 1.383 . S
C2233 C2229 1.495 . S
C2233 H2239 0.959 . S
C2233 H2240 0.961 . S
C2233 H2241 0.960 . S
C2234 C2232 1.381 . S
C2234 C2235 1.394 . S
C2234 H2242 0.930 . S
C2235 C2234 1.394 . S
C2235 C2236 1.383 . S
C2235 H2243 0.929 . S
C2236 C2235 1.383 . S
C2236 C2237 1.377 . S
C2237 H2221 0.930 . S
C2237 C2236 1.377 . S
C2237 C2238 1.379 . S
C2238 H2222 0.931 . S
C2238 C2232 1.383 . S
C2238 C2237 1.379 . S
H2239 C2233 0.959 . S
H2240 C2233 0.961 . S
H2241 C2233 0.960 . S
H2242 C2234 0.930 . S
H2243 C2235 0.929 . S
H2244 C2252 0.929 . S
H2245 C2254 0.930 . S
H2246 C2256 0.930 . S
H2247 C2259 0.929 . S
H2248 C2262 0.930 . S
H2249 C2264 0.960 . S
H2250 C2264 0.960 . S
H2251 C2264 0.960 . S
C2252 H2244 0.929 . S
C2252 C2253 1.377 . S
C2252 C2254 1.384 . S
C2253 C2252 1.377 . S
C2253 C2259 1.390 . S
C2254 H2245 0.930 . S
C2254 C2252 1.384 . S
C2254 C2255 1.372 . S
C2255 C2254 1.372 . S
C2255 C2256 1.400 . S
C2255 C2260 1.490 . S
C2256 H2246 0.930 . S
C2256 C2255 1.400 . S
C2256 C2259 1.386 . S
H2257 C2273 0.930 . S
H2258 C2274 0.931 . S
C2259 H2247 0.929 . S
C2259 C2253 1.390 . S
C2259 C2256 1.386 . S
C2260 C2255 1.490 . S
C2260 C2262 1.395 . S
C2260 C2263 1.403 . S
H2261 C2267 0.930 . S
C2262 H2248 0.930 . S
C2262 C2260 1.395 . S
C2262 C2265 1.403 . S
C2263 C2260 1.403 . S
C2263 C2264 1.524 . S
C2263 C2267 1.400 . S
C2264 H2249 0.960 . S
C2264 H2250 0.960 . S
C2264 H2251 0.960 . S
C2264 C2263 1.524 . S
C2265 C2262 1.403 . S
C2265 C2266 1.392 . S
C2265 C2269 1.495 . S
C2266 C2265 1.392 . S
C2266 C2267 1.385 . S
C2266 C2268 1.478 . S
C2267 H2261 0.930 . S
C2267 C2263 1.400 . S
C2267 C2266 1.385 . S
C2268 C2266 1.478 . S
C2268 C2270 1.381 . S
C2268 C2274 1.383 . S
C2269 C2265 1.495 . S
C2269 H2275 0.959 . S
C2269 H2276 0.961 . S
C2269 H2277 0.960 . S
C2270 C2268 1.381 . S
C2270 C2271 1.394 . S
C2270 H2278 0.930 . S
C2271 C2270 1.394 . S
C2271 C2272 1.383 . S
C2271 H2279 0.929 . S
C2272 C2271 1.383 . S
C2272 C2273 1.377 . S
C2273 H2257 0.930 . S
C2273 C2272 1.377 . S
C2273 C2274 1.379 . S
C2274 H2258 0.931 . S
C2274 C2268 1.383 . S
C2274 C2273 1.379 . S
H2275 C2269 0.959 . S
H2276 C2269 0.961 . S
H2277 C2269 0.960 . S
H2278 C2270 0.930 . S
H2279 C2271 0.929 . S
H2280 C2288 0.929 . S
H2281 C2290 0.930 . S
H2282 C2292 0.930 . S
H2283 C2295 0.929 . S
H2284 C2298 0.930 . S
H2285 C2300 0.963 . S
H2286 C2300 0.960 1_545 S
H2287 C2300 0.960 . S
C2288 H2280 0.929 . S
C2288 C2289 1.377 1_545 S
C2288 C2290 1.384 . S
C2289 C2288 1.377 1_565 S
C2289 C2295 1.390 . S
C2290 H2281 0.930 . S
C2290 C2288 1.384 . S
C2290 C2291 1.372 1_545 S
C2291 C2290 1.372 1_565 S
C2291 C2292 1.400 . S
C2291 C2296 1.490 . S
C2292 H2282 0.930 . S
C2292 C2291 1.400 . S
C2292 C2295 1.386 . S
H2293 C2309 0.930 . S
H2294 C2310 0.931 . S
C2295 H2283 0.929 . S
C2295 C2289 1.390 . S
C2295 C2292 1.386 . S
C2296 C2291 1.490 . S
C2296 C2298 1.395 . S
C2296 C2299 1.403 . S
H2297 C2303 0.948 . S
C2298 H2284 0.930 . S
C2298 C2296 1.395 . S
C2298 C2301 1.398 1_565 S
C2299 C2296 1.403 . S
C2299 C2300 1.524 . S
C2299 C2303 1.378 1_565 S
C2300 H2285 0.963 . S
C2300 H2286 0.960 1_565 S
C2300 H2287 0.960 . S
C2300 C2299 1.524 . S
C2301 C2298 1.398 1_545 S
C2301 C2302 1.396 . S
C2301 C2305 1.497 . S
C2302 C2301 1.396 . S
C2302 C2303 1.394 . S
C2302 C2304 1.478 . S
C2303 H2297 0.948 . S
C2303 C2299 1.378 1_545 S
C2303 C2302 1.394 . S
C2304 C2302 1.478 . S
C2304 C2306 1.381 . S
C2304 C2310 1.383 1_545 S
C2305 C2301 1.497 . S
C2305 H2311 0.953 1_545 S
C2305 H2312 0.961 1_545 S
C2305 H2313 0.960 . S
C2306 C2304 1.381 . S
C2306 C2307 1.394 . S
C2306 H2314 0.930 . S
C2307 C2306 1.394 . S
C2307 C2308 1.383 . S
C2307 H2315 0.929 . S
C2308 C2307 1.383 . S
C2308 C2309 1.377 1_545 S
C2309 H2293 0.930 . S
C2309 C2308 1.377 1_565 S
C2309 C2310 1.379 . S
C2310 H2294 0.931 . S
C2310 C2304 1.383 1_565 S
C2310 C2309 1.379 . S
H2311 C2305 0.953 1_565 S
H2312 C2305 0.961 1_565 S
H2313 C2305 0.960 . S
H2314 C2306 0.930 . S
H2315 C2307 0.929 . S
H2316 C2324 0.929 . S
H2317 C2326 0.930 . S
H2318 C2328 0.930 . S
H2319 C2331 0.929 . S
H2320 C2334 0.930 . S
H2321 C2336 0.960 . S
H2322 C2336 0.960 . S
H2323 C2336 0.960 . S
C2324 H2316 0.929 . S
C2324 C2325 1.377 . S
C2324 C2326 1.384 . S
C2325 C2324 1.377 . S
C2325 C2331 1.390 1_554 S
C2326 H2317 0.930 . S
C2326 C2324 1.384 . S
C2326 C2327 1.372 . S
C2327 C2326 1.372 . S
C2327 C2328 1.400 1_554 S
C2327 C2332 1.490 . S
C2328 H2318 0.930 . S
C2328 C2327 1.400 1_556 S
C2328 C2331 1.386 . S
H2329 C2345 0.930 1_556 S
H2330 C2346 0.931 1_556 S
C2331 H2319 0.929 . S
C2331 C2325 1.390 1_556 S
C2331 C2328 1.386 . S
C2332 C2327 1.490 . S
C2332 C2334 1.395 . S
C2332 C2335 1.403 . S
H2333 C2339 0.930 . S
C2334 H2320 0.930 . S
C2334 C2332 1.395 . S
C2334 C2337 1.403 . S
C2335 C2332 1.403 . S
C2335 C2336 1.524 . S
C2335 C2339 1.400 . S
C2336 H2321 0.960 . S
C2336 H2322 0.960 . S
C2336 H2323 0.960 . S
C2336 C2335 1.524 . S
C2337 C2334 1.403 . S
C2337 C2338 1.392 . S
C2337 C2341 1.495 . S
C2338 C2337 1.392 . S
C2338 C2339 1.385 . S
C2338 C2340 1.478 . S
C2339 H2333 0.930 . S
C2339 C2335 1.400 . S
C2339 C2338 1.385 . S
C2340 C2338 1.478 . S
C2340 C2342 1.381 . S
C2340 C2346 1.383 . S
C2341 C2337 1.495 . S
C2341 H2347 0.959 . S
C2341 H2348 0.961 1_554 S
C2341 H2349 0.960 . S
C2342 C2340 1.381 . S
C2342 C2343 1.394 . S
C2342 H2350 0.930 . S
C2343 C2342 1.394 . S
C2343 C2344 1.383 . S
C2343 H2351 0.929 . S
C2344 C2343 1.383 . S
C2344 C2345 1.377 . S
C2345 H2329 0.930 1_554 S
C2345 C2344 1.377 . S
C2345 C2346 1.379 . S
C2346 H2330 0.931 1_554 S
C2346 C2340 1.383 . S
C2346 C2345 1.379 . S
H2347 C2341 0.959 . S
H2348 C2341 0.961 1_556 S
H2349 C2341 0.960 . S
H2350 C2342 0.930 . S
H2351 C2343 0.929 . S
H2352 C2360 0.929 . S
H2353 C2362 0.930 . S
H2354 C2364 0.930 . S
H2355 C2367 0.929 . S
H2356 C2370 0.930 . S
H2357 C2372 0.960 . S
H2358 C2372 0.960 . S
H2359 C2372 0.960 . S
C2360 H2352 0.929 . S
C2360 C2361 1.377 . S
C2360 C2362 1.384 . S
C2361 C2360 1.377 . S
C2361 C2367 1.390 . S
C2362 H2353 0.930 . S
C2362 C2360 1.384 . S
C2362 C2363 1.372 . S
C2363 C2362 1.372 . S
C2363 C2364 1.400 . S
C2363 C2368 1.490 . S
C2364 H2354 0.930 . S
C2364 C2363 1.400 . S
C2364 C2367 1.386 . S
H2365 C2381 0.930 . S
H2366 C2382 0.931 . S
C2367 H2355 0.929 . S
C2367 C2361 1.390 . S
C2367 C2364 1.386 . S
C2368 C2363 1.490 . S
C2368 C2370 1.395 . S
C2368 C2371 1.403 . S
H2369 C2375 0.930 . S
C2370 H2356 0.930 . S
C2370 C2368 1.395 . S
C2370 C2373 1.403 . S
C2371 C2368 1.403 . S
C2371 C2372 1.524 . S
C2371 C2375 1.400 . S
C2372 H2357 0.960 . S
C2372 H2358 0.960 . S
C2372 H2359 0.960 . S
C2372 C2371 1.524 . S
C2373 C2370 1.403 . S
C2373 C2374 1.392 . S
C2373 C2377 1.495 . S
C2374 C2373 1.392 . S
C2374 C2375 1.385 . S
C2374 C2376 1.478 . S
C2375 H2369 0.930 . S
C2375 C2371 1.400 . S
C2375 C2374 1.385 . S
C2376 C2374 1.478 . S
C2376 C2378 1.381 . S
C2376 C2382 1.383 . S
C2377 C2373 1.495 . S
C2377 H2383 0.959 . S
C2377 H2384 0.961 . S
C2377 H2385 0.960 . S
C2378 C2376 1.381 . S
C2378 C2379 1.394 . S
C2378 H2386 0.930 . S
C2379 C2378 1.394 . S
C2379 C2380 1.383 . S
C2379 H2387 0.929 . S
C2380 C2379 1.383 . S
C2380 C2381 1.377 . S
C2381 H2365 0.930 . S
C2381 C2380 1.377 . S
C2381 C2382 1.379 . S
C2382 H2366 0.931 . S
C2382 C2376 1.383 . S
C2382 C2381 1.379 . S
H2383 C2377 0.959 . S
H2384 C2377 0.961 . S
H2385 C2377 0.960 . S
H2386 C2378 0.930 . S
H2387 C2379 0.929 . S
H2388 C2396 0.929 . S
H2389 C2398 0.930 . S
H2390 C2400 0.930 . S
H2391 C2403 0.929 . S
H2392 C2406 0.930 . S
H2393 C2408 0.960 . S
H2394 C2408 0.960 . S
H2395 C2408 0.960 . S
C2396 H2388 0.929 . S
C2396 C2397 1.377 . S
C2396 C2398 1.384 . S
C2397 C2396 1.377 . S
C2397 C2403 1.390 . S
C2398 H2389 0.930 . S
C2398 C2396 1.384 . S
C2398 C2399 1.372 . S
C2399 C2398 1.372 . S
C2399 C2400 1.400 . S
C2399 C2404 1.490 . S
C2400 H2390 0.930 . S
C2400 C2399 1.400 . S
C2400 C2403 1.386 . S
H2401 C2417 0.930 . S
H2402 C2418 0.931 . S
C2403 H2391 0.929 . S
C2403 C2397 1.390 . S
C2403 C2400 1.386 . S
C2404 C2399 1.490 . S
C2404 C2406 1.395 . S
C2404 C2407 1.403 . S
H2405 C2411 0.930 . S
C2406 H2392 0.930 . S
C2406 C2404 1.395 . S
C2406 C2409 1.403 . S
C2407 C2404 1.403 . S
C2407 C2408 1.524 . S
C2407 C2411 1.400 . S
C2408 H2393 0.960 . S
C2408 H2394 0.960 . S
C2408 H2395 0.960 . S
C2408 C2407 1.524 . S
C2409 C2406 1.403 . S
C2409 C2410 1.392 . S
C2409 C2413 1.495 . S
C2410 C2409 1.392 . S
C2410 C2411 1.385 . S
C2410 C2412 1.478 . S
C2411 H2405 0.930 . S
C2411 C2407 1.400 . S
C2411 C2410 1.385 . S
C2412 C2410 1.478 . S
C2412 C2414 1.381 . S
C2412 C2418 1.383 . S
C2413 C2409 1.495 . S
C2413 H2419 0.959 . S
C2413 H2420 0.961 . S
C2413 H2421 0.960 . S
C2414 C2412 1.381 . S
C2414 C2415 1.394 . S
C2414 H2422 0.930 . S
C2415 C2414 1.394 . S
C2415 C2416 1.383 . S
C2415 H2423 0.929 . S
C2416 C2415 1.383 . S
C2416 C2417 1.377 . S
C2417 H2401 0.930 . S
C2417 C2416 1.377 . S
C2417 C2418 1.379 . S
C2418 H2402 0.931 . S
C2418 C2412 1.383 . S
C2418 C2417 1.379 . S
H2419 C2413 0.959 . S
H2420 C2413 0.961 . S
H2421 C2413 0.960 . S
H2422 C2414 0.930 . S
H2423 C2415 0.929 . S
H2424 C2432 0.929 . S
H2425 C2434 0.930 . S
H2426 C2436 0.930 . S
H2427 C2439 0.929 . S
H2428 C2442 0.930 . S
H2429 C2444 0.960 . S
H2430 C2444 0.960 . S
H2431 C2444 0.960 . S
C2432 H2424 0.929 . S
C2432 C2433 1.377 . S
C2432 C2434 1.384 . S
C2433 C2432 1.377 . S
C2433 C2439 1.390 . S
C2434 H2425 0.930 . S
C2434 C2432 1.384 . S
C2434 C2435 1.372 . S
C2435 C2434 1.372 . S
C2435 C2436 1.400 . S
C2435 C2440 1.490 . S
C2436 H2426 0.930 . S
C2436 C2435 1.400 . S
C2436 C2439 1.386 . S
H2437 C2453 0.930 . S
H2438 C2454 0.931 . S
C2439 H2427 0.929 . S
C2439 C2433 1.390 . S
C2439 C2436 1.386 . S
C2440 C2435 1.490 . S
C2440 C2442 1.395 . S
C2440 C2443 1.403 . S
H2441 C2447 0.930 . S
C2442 H2428 0.930 . S
C2442 C2440 1.395 . S
C2442 C2445 1.403 . S
C2443 C2440 1.403 . S
C2443 C2444 1.524 . S
C2443 C2447 1.400 . S
C2444 H2429 0.960 . S
C2444 H2430 0.960 . S
C2444 H2431 0.960 . S
C2444 C2443 1.524 . S
C2445 C2442 1.403 . S
C2445 C2446 1.392 . S
C2445 C2449 1.495 . S
C2446 C2445 1.392 . S
C2446 C2447 1.385 . S
C2446 C2448 1.478 . S
C2447 H2441 0.930 . S
C2447 C2443 1.400 . S
C2447 C2446 1.385 . S
C2448 C2446 1.478 . S
C2448 C2450 1.381 . S
C2448 C2454 1.383 . S
C2449 C2445 1.495 . S
C2449 H2455 0.959 . S
C2449 H2456 0.961 . S
C2449 H2457 0.960 . S
C2450 C2448 1.381 . S
C2450 C2451 1.394 . S
C2450 H2458 0.930 . S
C2451 C2450 1.394 . S
C2451 C2452 1.383 . S
C2451 H2459 0.929 . S
C2452 C2451 1.383 . S
C2452 C2453 1.377 . S
C2453 H2437 0.930 . S
C2453 C2452 1.377 . S
C2453 C2454 1.379 . S
C2454 H2438 0.931 . S
C2454 C2448 1.383 . S
C2454 C2453 1.379 . S
H2455 C2449 0.959 . S
H2456 C2449 0.961 . S
H2457 C2449 0.960 . S
H2458 C2450 0.930 . S
H2459 C2451 0.929 . S
H2460 C2468 0.929 . S
H2461 C2470 0.930 . S
H2462 C2472 0.930 . S
H2463 C2475 0.929 . S
H2464 C2478 0.930 . S
H2465 C2480 0.960 . S
H2466 C2480 0.960 . S
H2467 C2480 0.960 . S
C2468 H2460 0.929 . S
C2468 C2469 1.377 . S
C2468 C2470 1.384 . S
C2469 C2468 1.377 . S
C2469 C2475 1.390 . S
C2470 H2461 0.930 . S
C2470 C2468 1.384 . S
C2470 C2471 1.372 . S
C2471 C2470 1.372 . S
C2471 C2472 1.400 . S
C2471 C2476 1.490 . S
C2472 H2462 0.930 . S
C2472 C2471 1.400 . S
C2472 C2475 1.386 . S
H2473 C2489 0.930 . S
H2474 C2490 0.931 . S
C2475 H2463 0.929 . S
C2475 C2469 1.390 . S
C2475 C2472 1.386 . S
C2476 C2471 1.490 . S
C2476 C2478 1.395 . S
C2476 C2479 1.403 . S
H2477 C2483 0.930 . S
C2478 H2464 0.930 . S
C2478 C2476 1.395 . S
C2478 C2481 1.403 . S
C2479 C2476 1.403 . S
C2479 C2480 1.524 . S
C2479 C2483 1.400 . S
C2480 H2465 0.960 . S
C2480 H2466 0.960 . S
C2480 H2467 0.960 . S
C2480 C2479 1.524 . S
C2481 C2478 1.403 . S
C2481 C2482 1.392 . S
C2481 C2485 1.495 . S
C2482 C2481 1.392 . S
C2482 C2483 1.385 . S
C2482 C2484 1.478 . S
C2483 H2477 0.930 . S
C2483 C2479 1.400 . S
C2483 C2482 1.385 . S
C2484 C2482 1.478 . S
C2484 C2486 1.381 . S
C2484 C2490 1.383 . S
C2485 C2481 1.495 . S
C2485 H2491 0.959 . S
C2485 H2492 0.961 . S
C2485 H2493 0.960 . S
C2486 C2484 1.381 . S
C2486 C2487 1.394 . S
C2486 H2494 0.930 . S
C2487 C2486 1.394 . S
C2487 C2488 1.383 . S
C2487 H2495 0.929 . S
C2488 C2487 1.383 . S
C2488 C2489 1.377 . S
C2489 H2473 0.930 . S
C2489 C2488 1.377 . S
C2489 C2490 1.379 . S
C2490 H2474 0.931 . S
C2490 C2484 1.383 . S
C2490 C2489 1.379 . S
H2491 C2485 0.959 . S
H2492 C2485 0.961 . S
H2493 C2485 0.960 . S
H2494 C2486 0.930 . S
H2495 C2487 0.929 . S
H2496 C2504 0.929 . S
H2497 C2506 0.930 . S
H2498 C2508 0.930 . S
H2499 C2511 0.929 . S
H2500 C2514 0.930 . S
H2501 C2516 0.960 . S
H2502 C2516 0.960 . S
H2503 C2516 0.960 . S
C2504 H2496 0.929 . S
C2504 C2505 1.377 . S
C2504 C2506 1.384 . S
C2505 C2504 1.377 . S
C2505 C2511 1.390 . S
C2506 H2497 0.930 . S
C2506 C2504 1.384 . S
C2506 C2507 1.372 . S
C2507 C2506 1.372 . S
C2507 C2508 1.400 . S
C2507 C2512 1.490 . S
C2508 H2498 0.930 . S
C2508 C2507 1.400 . S
C2508 C2511 1.386 . S
H2509 C2525 0.930 . S
H2510 C2526 0.931 . S
C2511 H2499 0.929 . S
C2511 C2505 1.390 . S
C2511 C2508 1.386 . S
C2512 C2507 1.490 . S
C2512 C2514 1.395 . S
C2512 C2515 1.403 . S
H2513 C2519 0.930 . S
C2514 H2500 0.930 . S
C2514 C2512 1.395 . S
C2514 C2517 1.403 . S
C2515 C2512 1.403 . S
C2515 C2516 1.524 . S
C2515 C2519 1.400 . S
C2516 H2501 0.960 . S
C2516 H2502 0.960 . S
C2516 H2503 0.960 . S
C2516 C2515 1.524 . S
C2517 C2514 1.403 . S
C2517 C2518 1.392 . S
C2517 C2521 1.495 . S
C2518 C2517 1.392 . S
C2518 C2519 1.385 . S
C2518 C2520 1.478 . S
C2519 H2513 0.930 . S
C2519 C2515 1.400 . S
C2519 C2518 1.385 . S
C2520 C2518 1.478 . S
C2520 C2522 1.381 . S
C2520 C2526 1.383 . S
C2521 C2517 1.495 . S
C2521 H2527 0.959 . S
C2521 H2528 0.961 . S
C2521 H2529 0.960 . S
C2522 C2520 1.381 . S
C2522 C2523 1.394 . S
C2522 H2530 0.930 . S
C2523 C2522 1.394 . S
C2523 C2524 1.383 . S
C2523 H2531 0.929 . S
C2524 C2523 1.383 . S
C2524 C2525 1.377 . S
C2525 H2509 0.930 . S
C2525 C2524 1.377 . S
C2525 C2526 1.379 . S
C2526 H2510 0.931 . S
C2526 C2520 1.383 . S
C2526 C2525 1.379 . S
H2527 C2521 0.959 . S
H2528 C2521 0.961 . S
H2529 C2521 0.960 . S
H2530 C2522 0.930 . S
H2531 C2523 0.929 . S
H2532 C2540 0.929 . S
H2533 C2542 0.930 . S
H2534 C2544 0.930 . S
H2535 C2547 0.929 . S
H2536 C2550 0.930 . S
H2537 C2552 0.960 . S
H2538 C2552 0.960 . S
H2539 C2552 0.960 . S
C2540 H2532 0.929 . S
C2540 C2541 1.377 . S
C2540 C2542 1.384 . S
C2541 C2540 1.377 . S
C2541 C2547 1.390 . S
C2542 H2533 0.930 . S
C2542 C2540 1.384 . S
C2542 C2543 1.372 . S
C2543 C2542 1.372 . S
C2543 C2544 1.400 . S
C2543 C2548 1.490 . S
C2544 H2534 0.930 . S
C2544 C2543 1.400 . S
C2544 C2547 1.386 . S
H2545 C2561 0.930 . S
H2546 C2562 0.931 . S
C2547 H2535 0.929 . S
C2547 C2541 1.390 . S
C2547 C2544 1.386 . S
C2548 C2543 1.490 . S
C2548 C2550 1.395 . S
C2548 C2551 1.403 . S
H2549 C2555 0.930 . S
C2550 H2536 0.930 . S
C2550 C2548 1.395 . S
C2550 C2553 1.403 . S
C2551 C2548 1.403 . S
C2551 C2552 1.524 . S
C2551 C2555 1.400 . S
C2552 H2537 0.960 . S
C2552 H2538 0.960 . S
C2552 H2539 0.960 . S
C2552 C2551 1.524 . S
C2553 C2550 1.403 . S
C2553 C2554 1.392 . S
C2553 C2557 1.495 . S
C2554 C2553 1.392 . S
C2554 C2555 1.385 . S
C2554 C2556 1.478 . S
C2555 H2549 0.930 . S
C2555 C2551 1.400 . S
C2555 C2554 1.385 . S
C2556 C2554 1.478 . S
C2556 C2558 1.381 . S
C2556 C2562 1.383 . S
C2557 C2553 1.495 . S
C2557 H2563 0.959 . S
C2557 H2564 0.961 . S
C2557 H2565 0.960 . S
C2558 C2556 1.381 . S
C2558 C2559 1.394 . S
C2558 H2566 0.930 . S
C2559 C2558 1.394 . S
C2559 C2560 1.383 . S
C2559 H2567 0.929 . S
C2560 C2559 1.383 . S
C2560 C2561 1.377 . S
C2561 H2545 0.930 . S
C2561 C2560 1.377 . S
C2561 C2562 1.379 . S
C2562 H2546 0.931 . S
C2562 C2556 1.383 . S
C2562 C2561 1.379 . S
H2563 C2557 0.959 . S
H2564 C2557 0.961 . S
H2565 C2557 0.960 . S
H2566 C2558 0.930 . S
H2567 C2559 0.929 . S
H2568 C2576 0.929 . S
H2569 C2578 0.930 . S
H2570 C2580 0.930 . S
H2571 C2583 0.929 . S
H2572 C2586 0.930 . S
H2573 C2588 0.960 . S
H2574 C2588 0.960 . S
H2575 C2588 0.960 . S
C2576 H2568 0.929 . S
C2576 C2577 1.377 . S
C2576 C2578 1.384 . S
C2577 C2576 1.377 . S
C2577 C2583 1.390 . S
C2578 H2569 0.930 . S
C2578 C2576 1.384 . S
C2578 C2579 1.372 . S
C2579 C2578 1.372 . S
C2579 C2580 1.400 . S
C2579 C2584 1.490 . S
C2580 H2570 0.930 . S
C2580 C2579 1.400 . S
C2580 C2583 1.386 . S
H2581 C2597 0.930 . S
H2582 C2598 0.931 . S
C2583 H2571 0.929 . S
C2583 C2577 1.390 . S
C2583 C2580 1.386 . S
C2584 C2579 1.490 . S
C2584 C2586 1.395 . S
C2584 C2587 1.403 . S
H2585 C2591 0.930 . S
C2586 H2572 0.930 . S
C2586 C2584 1.395 . S
C2586 C2589 1.403 . S
C2587 C2584 1.403 . S
C2587 C2588 1.524 . S
C2587 C2591 1.400 . S
C2588 H2573 0.960 . S
C2588 H2574 0.960 . S
C2588 H2575 0.960 . S
C2588 C2587 1.524 . S
C2589 C2586 1.403 . S
C2589 C2590 1.392 . S
C2589 C2593 1.495 . S
C2590 C2589 1.392 . S
C2590 C2591 1.385 . S
C2590 C2592 1.478 . S
C2591 H2585 0.930 . S
C2591 C2587 1.400 . S
C2591 C2590 1.385 . S
C2592 C2590 1.478 . S
C2592 C2594 1.381 . S
C2592 C2598 1.383 . S
C2593 C2589 1.495 . S
C2593 H2599 0.959 . S
C2593 H2600 0.961 . S
C2593 H2601 0.960 . S
C2594 C2592 1.381 . S
C2594 C2595 1.394 . S
C2594 H2602 0.930 . S
C2595 C2594 1.394 . S
C2595 C2596 1.383 . S
C2595 H2603 0.929 . S
C2596 C2595 1.383 . S
C2596 C2597 1.377 . S
C2597 H2581 0.930 . S
C2597 C2596 1.377 . S
C2597 C2598 1.379 . S
C2598 H2582 0.931 . S
C2598 C2592 1.383 . S
C2598 C2597 1.379 . S
H2599 C2593 0.959 . S
H2600 C2593 0.961 . S
H2601 C2593 0.960 . S
H2602 C2594 0.930 . S
H2603 C2595 0.929 . S
H2604 C2612 0.929 . S
H2605 C2614 0.930 . S
H2606 C2616 0.930 . S
H2607 C2619 0.929 . S
H2608 C2622 0.930 . S
H2609 C2624 0.960 . S
H2610 C2624 0.960 . S
H2611 C2624 0.960 . S
C2612 H2604 0.929 . S
C2612 C2613 1.377 . S
C2612 C2614 1.384 . S
C2613 C2612 1.377 . S
C2613 C2619 1.390 . S
C2614 H2605 0.930 . S
C2614 C2612 1.384 . S
C2614 C2615 1.372 . S
C2615 C2614 1.372 . S
C2615 C2616 1.400 . S
C2615 C2620 1.490 . S
C2616 H2606 0.930 . S
C2616 C2615 1.400 . S
C2616 C2619 1.386 . S
H2617 C2633 0.930 . S
H2618 C2634 0.931 . S
C2619 H2607 0.929 . S
C2619 C2613 1.390 . S
C2619 C2616 1.386 . S
C2620 C2615 1.490 . S
C2620 C2622 1.395 . S
C2620 C2623 1.403 . S
H2621 C2627 0.930 . S
C2622 H2608 0.930 . S
C2622 C2620 1.395 . S
C2622 C2625 1.403 . S
C2623 C2620 1.403 . S
C2623 C2624 1.524 . S
C2623 C2627 1.400 . S
C2624 H2609 0.960 . S
C2624 H2610 0.960 . S
C2624 H2611 0.960 . S
C2624 C2623 1.524 . S
C2625 C2622 1.403 . S
C2625 C2626 1.392 . S
C2625 C2629 1.495 . S
C2626 C2625 1.392 . S
C2626 C2627 1.385 . S
C2626 C2628 1.478 . S
C2627 H2621 0.930 . S
C2627 C2623 1.400 . S
C2627 C2626 1.385 . S
C2628 C2626 1.478 . S
C2628 C2630 1.381 . S
C2628 C2634 1.383 . S
C2629 C2625 1.495 . S
C2629 H2635 0.959 . S
C2629 H2636 0.961 . S
C2629 H2637 0.960 . S
C2630 C2628 1.381 . S
C2630 C2631 1.394 . S
C2630 H2638 0.930 . S
C2631 C2630 1.394 . S
C2631 C2632 1.383 . S
C2631 H2639 0.929 . S
C2632 C2631 1.383 . S
C2632 C2633 1.377 . S
C2633 H2617 0.930 . S
C2633 C2632 1.377 . S
C2633 C2634 1.379 . S
C2634 H2618 0.931 . S
C2634 C2628 1.383 . S
C2634 C2633 1.379 . S
H2635 C2629 0.959 . S
H2636 C2629 0.961 . S
H2637 C2629 0.960 . S
H2638 C2630 0.930 . S
H2639 C2631 0.929 . S
H2640 C2648 0.929 . S
H2641 C2650 0.930 . S
H2642 C2652 0.930 . S
H2643 C2655 0.929 . S
H2644 C2658 0.930 . S
H2645 C2660 0.960 . S
H2646 C2660 0.960 . S
H2647 C2660 0.960 . S
C2648 H2640 0.929 . S
C2648 C2649 1.377 . S
C2648 C2650 1.384 . S
C2649 C2648 1.377 . S
C2649 C2655 1.390 . S
C2650 H2641 0.930 . S
C2650 C2648 1.384 . S
C2650 C2651 1.372 . S
C2651 C2650 1.372 . S
C2651 C2652 1.400 . S
C2651 C2656 1.490 . S
C2652 H2642 0.930 . S
C2652 C2651 1.400 . S
C2652 C2655 1.386 . S
H2653 C2669 0.930 . S
H2654 C2670 0.931 . S
C2655 H2643 0.929 . S
C2655 C2649 1.390 . S
C2655 C2652 1.386 . S
C2656 C2651 1.490 . S
C2656 C2658 1.395 . S
C2656 C2659 1.403 . S
H2657 C2663 0.930 . S
C2658 H2644 0.930 . S
C2658 C2656 1.395 . S
C2658 C2661 1.403 . S
C2659 C2656 1.403 . S
C2659 C2660 1.524 . S
C2659 C2663 1.400 . S
C2660 H2645 0.960 . S
C2660 H2646 0.960 . S
C2660 H2647 0.960 . S
C2660 C2659 1.524 . S
C2661 C2658 1.403 . S
C2661 C2662 1.392 . S
C2661 C2665 1.495 . S
C2662 C2661 1.392 . S
C2662 C2663 1.385 . S
C2662 C2664 1.478 . S
C2663 H2657 0.930 . S
C2663 C2659 1.400 . S
C2663 C2662 1.385 . S
C2664 C2662 1.478 . S
C2664 C2666 1.381 . S
C2664 C2670 1.383 . S
C2665 C2661 1.495 . S
C2665 H2671 0.959 . S
C2665 H2672 0.961 . S
C2665 H2673 0.960 . S
C2666 C2664 1.381 . S
C2666 C2667 1.394 . S
C2666 H2674 0.930 . S
C2667 C2666 1.394 . S
C2667 C2668 1.383 . S
C2667 H2675 0.929 . S
C2668 C2667 1.383 . S
C2668 C2669 1.377 . S
C2669 H2653 0.930 . S
C2669 C2668 1.377 . S
C2669 C2670 1.379 . S
C2670 H2654 0.931 . S
C2670 C2664 1.383 . S
C2670 C2669 1.379 . S
H2671 C2665 0.959 . S
H2672 C2665 0.961 . S
H2673 C2665 0.960 . S
H2674 C2666 0.930 . S
H2675 C2667 0.929 . S
H2676 C2684 0.929 . S
H2677 C2686 0.930 . S
H2678 C2688 0.930 . S
H2679 C2691 0.929 . S
H2680 C2694 0.930 . S
H2681 C2696 0.960 . S
H2682 C2696 0.960 . S
H2683 C2696 0.960 . S
C2684 H2676 0.929 . S
C2684 C2685 1.377 . S
C2684 C2686 1.384 . S
C2685 C2684 1.377 . S
C2685 C2691 1.390 . S
C2686 H2677 0.930 . S
C2686 C2684 1.384 . S
C2686 C2687 1.372 . S
C2687 C2686 1.372 . S
C2687 C2688 1.400 . S
C2687 C2692 1.490 . S
C2688 H2678 0.930 . S
C2688 C2687 1.400 . S
C2688 C2691 1.386 . S
H2689 C2705 0.930 1_556 S
H2690 C2706 0.931 . S
C2691 H2679 0.929 . S
C2691 C2685 1.390 . S
C2691 C2688 1.386 . S
C2692 C2687 1.490 . S
C2692 C2694 1.395 . S
C2692 C2695 1.403 1_554 S
H2693 C2699 0.930 . S
C2694 H2680 0.930 . S
C2694 C2692 1.395 . S
C2694 C2697 1.403 . S
C2695 C2692 1.403 1_556 S
C2695 C2696 1.524 . S
C2695 C2699 1.400 . S
C2696 H2681 0.960 . S
C2696 H2682 0.960 . S
C2696 H2683 0.960 . S
C2696 C2695 1.524 . S
C2697 C2694 1.403 . S
C2697 C2698 1.392 . S
C2697 C2701 1.495 . S
C2698 C2697 1.392 . S
C2698 C2699 1.385 1_554 S
C2698 C2700 1.478 . S
C2699 H2693 0.930 . S
C2699 C2695 1.400 . S
C2699 C2698 1.385 1_556 S
C2700 C2698 1.478 . S
C2700 C2702 1.381 . S
C2700 C2706 1.383 . S
C2701 C2697 1.495 . S
C2701 H2707 0.959 . S
C2701 H2708 0.961 . S
C2701 H2709 0.960 . S
C2702 C2700 1.381 . S
C2702 C2703 1.394 . S
C2702 H2710 0.930 . S
C2703 C2702 1.394 . S
C2703 C2704 1.383 . S
C2703 H2711 0.929 . S
C2704 C2703 1.383 . S
C2704 C2705 1.377 . S
C2705 H2689 0.930 1_554 S
C2705 C2704 1.377 . S
C2705 C2706 1.379 . S
C2706 H2690 0.931 . S
C2706 C2700 1.383 . S
C2706 C2705 1.379 . S
H2707 C2701 0.959 . S
H2708 C2701 0.961 . S
H2709 C2701 0.960 . S
H2710 C2702 0.930 . S
H2711 C2703 0.929 . S
H2712 C2720 0.929 . S
H2713 C2722 0.930 . S
H2714 C2724 0.930 . S
H2715 C2727 0.929 . S
H2716 C2730 0.930 . S
H2717 C2732 0.960 . S
H2718 C2732 0.960 . S
H2719 C2732 0.960 . S
C2720 H2712 0.929 . S
C2720 C2721 1.377 . S
C2720 C2722 1.384 . S
C2721 C2720 1.377 . S
C2721 C2727 1.390 . S
C2722 H2713 0.930 . S
C2722 C2720 1.384 . S
C2722 C2723 1.372 . S
C2723 C2722 1.372 . S
C2723 C2724 1.400 . S
C2723 C2728 1.490 . S
C2724 H2714 0.930 . S
C2724 C2723 1.400 . S
C2724 C2727 1.386 . S
H2725 C2741 0.930 . S
H2726 C2742 0.931 . S
C2727 H2715 0.929 . S
C2727 C2721 1.390 . S
C2727 C2724 1.386 . S
C2728 C2723 1.490 . S
C2728 C2730 1.395 . S
C2728 C2731 1.403 . S
H2729 C2735 0.930 . S
C2730 H2716 0.930 . S
C2730 C2728 1.395 . S
C2730 C2733 1.403 . S
C2731 C2728 1.403 . S
C2731 C2732 1.524 . S
C2731 C2735 1.400 . S
C2732 H2717 0.960 . S
C2732 H2718 0.960 . S
C2732 H2719 0.960 . S
C2732 C2731 1.524 . S
C2733 C2730 1.403 . S
C2733 C2734 1.392 . S
C2733 C2737 1.495 . S
C2734 C2733 1.392 . S
C2734 C2735 1.385 . S
C2734 C2736 1.478 . S
C2735 H2729 0.930 . S
C2735 C2731 1.400 . S
C2735 C2734 1.385 . S
C2736 C2734 1.478 . S
C2736 C2738 1.381 . S
C2736 C2742 1.383 . S
C2737 C2733 1.495 . S
C2737 H2743 0.959 . S
C2737 H2744 0.961 . S
C2737 H2745 0.960 . S
C2738 C2736 1.381 . S
C2738 C2739 1.394 . S
C2738 H2746 0.930 . S
C2739 C2738 1.394 . S
C2739 C2740 1.383 . S
C2739 H2747 0.929 . S
C2740 C2739 1.383 . S
C2740 C2741 1.377 . S
C2741 H2725 0.930 . S
C2741 C2740 1.377 . S
C2741 C2742 1.379 . S
C2742 H2726 0.931 . S
C2742 C2736 1.383 . S
C2742 C2741 1.379 . S
H2743 C2737 0.959 . S
H2744 C2737 0.961 . S
H2745 C2737 0.960 . S
H2746 C2738 0.930 . S
H2747 C2739 0.929 . S
H2748 C2756 0.929 . S
H2749 C2758 0.930 . S
H2750 C2760 0.930 . S
H2751 C2763 0.929 . S
H2752 C2766 0.930 . S
H2753 C2768 0.960 . S
H2754 C2768 0.960 . S
H2755 C2768 0.960 . S
C2756 H2748 0.929 . S
C2756 C2757 1.377 . S
C2756 C2758 1.384 . S
C2757 C2756 1.377 . S
C2757 C2763 1.390 . S
C2758 H2749 0.930 . S
C2758 C2756 1.384 . S
C2758 C2759 1.372 . S
C2759 C2758 1.372 . S
C2759 C2760 1.400 . S
C2759 C2764 1.490 . S
C2760 H2750 0.930 . S
C2760 C2759 1.400 . S
C2760 C2763 1.386 . S
H2761 C2777 0.930 . S
H2762 C2778 0.931 . S
C2763 H2751 0.929 . S
C2763 C2757 1.390 . S
C2763 C2760 1.386 . S
C2764 C2759 1.490 . S
C2764 C2766 1.395 . S
C2764 C2767 1.403 . S
H2765 C2771 0.930 . S
C2766 H2752 0.930 . S
C2766 C2764 1.395 . S
C2766 C2769 1.403 . S
C2767 C2764 1.403 . S
C2767 C2768 1.524 . S
C2767 C2771 1.400 . S
C2768 H2753 0.960 . S
C2768 H2754 0.960 . S
C2768 H2755 0.960 . S
C2768 C2767 1.524 . S
C2769 C2766 1.403 . S
C2769 C2770 1.392 . S
C2769 C2773 1.495 . S
C2770 C2769 1.392 . S
C2770 C2771 1.385 . S
C2770 C2772 1.478 . S
C2771 H2765 0.930 . S
C2771 C2767 1.400 . S
C2771 C2770 1.385 . S
C2772 C2770 1.478 . S
C2772 C2774 1.381 . S
C2772 C2778 1.383 . S
C2773 C2769 1.495 . S
C2773 H2779 0.959 . S
C2773 H2780 0.961 . S
C2773 H2781 0.960 . S
C2774 C2772 1.381 . S
C2774 C2775 1.394 . S
C2774 H2782 0.930 . S
C2775 C2774 1.394 . S
C2775 C2776 1.383 . S
C2775 H2783 0.929 . S
C2776 C2775 1.383 . S
C2776 C2777 1.377 . S
C2777 H2761 0.930 . S
C2777 C2776 1.377 . S
C2777 C2778 1.379 . S
C2778 H2762 0.931 . S
C2778 C2772 1.383 . S
C2778 C2777 1.379 . S
H2779 C2773 0.959 . S
H2780 C2773 0.961 . S
H2781 C2773 0.960 . S
H2782 C2774 0.930 . S
H2783 C2775 0.929 . S
H2784 C2792 0.929 . S
H2785 C2794 0.930 . S
H2786 C2796 0.930 . S
H2787 C2799 0.929 . S
H2788 C2802 0.930 . S
H2789 C2804 0.960 . S
H2790 C2804 0.960 . S
H2791 C2804 0.960 . S
C2792 H2784 0.929 . S
C2792 C2793 1.377 . S
C2792 C2794 1.384 . S
C2793 C2792 1.377 . S
C2793 C2799 1.390 . S
C2794 H2785 0.930 . S
C2794 C2792 1.384 . S
C2794 C2795 1.372 . S
C2795 C2794 1.372 . S
C2795 C2796 1.400 . S
C2795 C2800 1.490 . S
C2796 H2786 0.930 . S
C2796 C2795 1.400 . S
C2796 C2799 1.386 . S
H2797 C2813 0.930 . S
H2798 C2814 0.931 . S
C2799 H2787 0.929 . S
C2799 C2793 1.390 . S
C2799 C2796 1.386 . S
C2800 C2795 1.490 . S
C2800 C2802 1.395 . S
C2800 C2803 1.403 . S
H2801 C2807 0.930 . S
C2802 H2788 0.930 . S
C2802 C2800 1.395 . S
C2802 C2805 1.403 . S
C2803 C2800 1.403 . S
C2803 C2804 1.524 . S
C2803 C2807 1.400 . S
C2804 H2789 0.960 . S
C2804 H2790 0.960 . S
C2804 H2791 0.960 . S
C2804 C2803 1.524 . S
C2805 C2802 1.403 . S
C2805 C2806 1.392 . S
C2805 C2809 1.495 . S
C2806 C2805 1.392 . S
C2806 C2807 1.385 . S
C2806 C2808 1.478 . S
C2807 H2801 0.930 . S
C2807 C2803 1.400 . S
C2807 C2806 1.385 . S
C2808 C2806 1.478 . S
C2808 C2810 1.381 . S
C2808 C2814 1.383 . S
C2809 C2805 1.495 . S
C2809 H2815 0.959 . S
C2809 H2816 0.961 . S
C2809 H2817 0.960 . S
C2810 C2808 1.381 . S
C2810 C2811 1.394 . S
C2810 H2818 0.930 . S
C2811 C2810 1.394 . S
C2811 C2812 1.383 . S
C2811 H2819 0.929 . S
C2812 C2811 1.383 . S
C2812 C2813 1.377 . S
C2813 H2797 0.930 . S
C2813 C2812 1.377 . S
C2813 C2814 1.379 . S
C2814 H2798 0.931 . S
C2814 C2808 1.383 . S
C2814 C2813 1.379 . S
H2815 C2809 0.959 . S
H2816 C2809 0.961 . S
H2817 C2809 0.960 . S
H2818 C2810 0.930 . S
H2819 C2811 0.929 . S
H2820 C2828 0.929 . S
H2821 C2830 0.930 . S
H2822 C2832 0.930 . S
H2823 C2835 0.929 . S
H2824 C2838 0.930 . S
H2825 C2840 0.960 . S
H2826 C2840 0.960 . S
H2827 C2840 0.960 . S
C2828 H2820 0.929 . S
C2828 C2829 1.377 . S
C2828 C2830 1.384 . S
C2829 C2828 1.377 . S
C2829 C2835 1.390 . S
C2830 H2821 0.930 . S
C2830 C2828 1.384 . S
C2830 C2831 1.372 . S
C2831 C2830 1.372 . S
C2831 C2832 1.400 . S
C2831 C2836 1.490 . S
C2832 H2822 0.930 . S
C2832 C2831 1.400 . S
C2832 C2835 1.386 . S
H2833 C2849 0.930 . S
H2834 C2850 0.931 . S
C2835 H2823 0.929 . S
C2835 C2829 1.390 . S
C2835 C2832 1.386 . S
C2836 C2831 1.490 . S
C2836 C2838 1.395 . S
C2836 C2839 1.403 . S
H2837 C2843 0.930 . S
C2838 H2824 0.930 . S
C2838 C2836 1.395 . S
C2838 C2841 1.403 . S
C2839 C2836 1.403 . S
C2839 C2840 1.524 . S
C2839 C2843 1.400 . S
C2840 H2825 0.960 . S
C2840 H2826 0.960 . S
C2840 H2827 0.960 . S
C2840 C2839 1.524 . S
C2841 C2838 1.403 . S
C2841 C2842 1.392 . S
C2841 C2845 1.495 . S
C2842 C2841 1.392 . S
C2842 C2843 1.385 . S
C2842 C2844 1.478 . S
C2843 H2837 0.930 . S
C2843 C2839 1.400 . S
C2843 C2842 1.385 . S
C2844 C2842 1.478 . S
C2844 C2846 1.381 . S
C2844 C2850 1.383 . S
C2845 C2841 1.495 . S
C2845 H2851 0.959 . S
C2845 H2852 0.961 . S
C2845 H2853 0.960 . S
C2846 C2844 1.381 . S
C2846 C2847 1.394 . S
C2846 H2854 0.930 . S
C2847 C2846 1.394 . S
C2847 C2848 1.383 . S
C2847 H2855 0.929 . S
C2848 C2847 1.383 . S
C2848 C2849 1.377 . S
C2849 H2833 0.930 . S
C2849 C2848 1.377 . S
C2849 C2850 1.379 . S
C2850 H2834 0.931 . S
C2850 C2844 1.383 . S
C2850 C2849 1.379 . S
H2851 C2845 0.959 . S
H2852 C2845 0.961 . S
H2853 C2845 0.960 . S
H2854 C2846 0.930 . S
H2855 C2847 0.929 . S
H2856 C2864 0.929 . S
H2857 C2866 0.930 . S
H2858 C2868 0.930 . S
H2859 C2871 0.929 . S
H2860 C2874 0.930 . S
H2861 C2876 0.960 . S
H2862 C2876 0.960 . S
H2863 C2876 0.960 1_554 S
C2864 H2856 0.929 . S
C2864 C2865 1.377 . S
C2864 C2866 1.384 . S
C2865 C2864 1.377 . S
C2865 C2871 1.390 1_556 S
C2866 H2857 0.930 . S
C2866 C2864 1.384 . S
C2866 C2867 1.372 . S
C2867 C2866 1.372 . S
C2867 C2868 1.400 1_556 S
C2867 C2872 1.490 . S
C2868 H2858 0.930 . S
C2868 C2867 1.400 1_554 S
C2868 C2871 1.386 . S
H2869 C2885 0.930 1_554 S
H2870 C2886 0.934 1_554 S
C2871 H2859 0.929 . S
C2871 C2865 1.390 1_554 S
C2871 C2868 1.386 . S
C2872 C2867 1.490 . S
C2872 C2874 1.395 . S
C2872 C2875 1.403 . S
H2873 C2879 0.930 . S
C2874 H2860 0.930 . S
C2874 C2872 1.395 . S
C2874 C2877 1.403 . S
C2875 C2872 1.403 . S
C2875 C2876 1.524 . S
C2875 C2879 1.400 . S
C2876 H2861 0.960 . S
C2876 H2862 0.960 . S
C2876 H2863 0.960 1_556 S
C2876 C2875 1.524 . S
C2877 C2874 1.403 . S
C2877 C2878 1.392 . S
C2877 C2881 1.495 . S
C2878 C2877 1.392 . S
C2878 C2879 1.385 . S
C2878 C2880 1.478 . S
C2879 H2873 0.930 . S
C2879 C2875 1.400 . S
C2879 C2878 1.385 . S
C2880 C2878 1.478 . S
C2880 C2882 1.381 . S
C2880 C2886 1.380 . S
C2881 C2877 1.495 . S
C2881 H2887 0.959 . S
C2881 H2888 0.961 . S
C2881 H2889 0.960 . S
C2882 C2880 1.381 . S
C2882 C2883 1.394 . S
C2882 H2890 0.930 . S
C2883 C2882 1.394 . S
C2883 C2884 1.383 . S
C2883 H2891 0.929 . S
C2884 C2883 1.383 . S
C2884 C2885 1.377 . S
C2885 H2869 0.930 1_556 S
C2885 C2884 1.377 . S
C2885 C2886 1.378 . S
C2886 H2870 0.934 1_556 S
C2886 C2880 1.380 . S
C2886 C2885 1.378 . S
H2887 C2881 0.959 . S
H2888 C2881 0.961 . S
H2889 C2881 0.960 . S
H2890 C2882 0.930 . S
H2891 C2883 0.929 . S
H2892 C2900 0.929 . S
H2893 C2902 0.930 . S
H2894 C2904 0.930 . S
H2895 C2907 0.929 . S
H2896 C2910 0.930 . S
H2897 C2912 0.960 . S
H2898 C2912 0.960 . S
H2899 C2912 0.960 . S
C2900 H2892 0.929 . S
C2900 C2901 1.377 . S
C2900 C2902 1.384 . S
C2901 C2900 1.377 . S
C2901 C2907 1.390 . S
C2902 H2893 0.930 . S
C2902 C2900 1.384 . S
C2902 C2903 1.372 . S
C2903 C2902 1.372 . S
C2903 C2904 1.400 . S
C2903 C2908 1.490 . S
C2904 H2894 0.930 . S
C2904 C2903 1.400 . S
C2904 C2907 1.386 . S
H2905 C2921 0.930 . S
H2906 C2922 0.931 . S
C2907 H2895 0.929 . S
C2907 C2901 1.390 . S
C2907 C2904 1.386 . S
C2908 C2903 1.490 . S
C2908 C2910 1.395 . S
C2908 C2911 1.403 . S
H2909 C2915 0.930 . S
C2910 H2896 0.930 . S
C2910 C2908 1.395 . S
C2910 C2913 1.403 . S
C2911 C2908 1.403 . S
C2911 C2912 1.524 . S
C2911 C2915 1.400 . S
C2912 H2897 0.960 . S
C2912 H2898 0.960 . S
C2912 H2899 0.960 . S
C2912 C2911 1.524 . S
C2913 C2910 1.403 . S
C2913 C2914 1.392 . S
C2913 C2917 1.495 . S
C2914 C2913 1.392 . S
C2914 C2915 1.385 . S
C2914 C2916 1.478 . S
C2915 H2909 0.930 . S
C2915 C2911 1.400 . S
C2915 C2914 1.385 . S
C2916 C2914 1.478 . S
C2916 C2918 1.381 . S
C2916 C2922 1.383 . S
C2917 C2913 1.495 . S
C2917 H2923 0.959 . S
C2917 H2924 0.961 . S
C2917 H2925 0.960 . S
C2918 C2916 1.381 . S
C2918 C2919 1.394 . S
C2918 H2926 0.930 . S
C2919 C2918 1.394 . S
C2919 C2920 1.383 . S
C2919 H2927 0.929 . S
C2920 C2919 1.383 . S
C2920 C2921 1.377 . S
C2921 H2905 0.930 . S
C2921 C2920 1.377 . S
C2921 C2922 1.379 . S
C2922 H2906 0.931 . S
C2922 C2916 1.383 . S
C2922 C2921 1.379 . S
H2923 C2917 0.959 . S
H2924 C2917 0.961 . S
H2925 C2917 0.960 . S
H2926 C2918 0.930 . S
H2927 C2919 0.929 . S
H2928 C2936 0.929 . S
H2929 C2938 0.930 . S
H2930 C2940 0.930 . S
H2931 C2943 0.929 . S
H2932 C2946 0.930 . S
H2933 C2948 0.960 . S
H2934 C2948 0.960 . S
H2935 C2948 0.960 . S
C2936 H2928 0.929 . S
C2936 C2937 1.377 . S
C2936 C2938 1.384 . S
C2937 C2936 1.377 . S
C2937 C2943 1.390 . S
C2938 H2929 0.930 . S
C2938 C2936 1.384 . S
C2938 C2939 1.372 . S
C2939 C2938 1.372 . S
C2939 C2940 1.400 . S
C2939 C2944 1.490 . S
C2940 H2930 0.930 . S
C2940 C2939 1.400 . S
C2940 C2943 1.386 . S
H2941 C2957 0.930 . S
H2942 C2958 0.931 . S
C2943 H2931 0.929 . S
C2943 C2937 1.390 . S
C2943 C2940 1.386 . S
C2944 C2939 1.490 . S
C2944 C2946 1.395 . S
C2944 C2947 1.403 . S
H2945 C2951 0.930 . S
C2946 H2932 0.930 . S
C2946 C2944 1.395 . S
C2946 C2949 1.403 . S
C2947 C2944 1.403 . S
C2947 C2948 1.524 . S
C2947 C2951 1.400 . S
C2948 H2933 0.960 . S
C2948 H2934 0.960 . S
C2948 H2935 0.960 . S
C2948 C2947 1.524 . S
C2949 C2946 1.403 . S
C2949 C2950 1.392 . S
C2949 C2953 1.495 . S
C2950 C2949 1.392 . S
C2950 C2951 1.385 . S
C2950 C2952 1.478 . S
C2951 H2945 0.930 . S
C2951 C2947 1.400 . S
C2951 C2950 1.385 . S
C2952 C2950 1.478 . S
C2952 C2954 1.381 . S
C2952 C2958 1.383 . S
C2953 C2949 1.495 . S
C2953 H2959 0.959 . S
C2953 H2960 0.961 . S
C2953 H2961 0.960 . S
C2954 C2952 1.381 . S
C2954 C2955 1.394 . S
C2954 H2962 0.930 . S
C2955 C2954 1.394 . S
C2955 C2956 1.383 . S
C2955 H2963 0.929 . S
C2956 C2955 1.383 . S
C2956 C2957 1.377 . S
C2957 H2941 0.930 . S
C2957 C2956 1.377 . S
C2957 C2958 1.379 . S
C2958 H2942 0.931 . S
C2958 C2952 1.383 . S
C2958 C2957 1.379 . S
H2959 C2953 0.959 . S
H2960 C2953 0.961 . S
H2961 C2953 0.960 . S
H2962 C2954 0.930 . S
H2963 C2955 0.929 . S
H2964 C2972 0.929 . S
H2965 C2974 0.930 . S
H2966 C2976 0.930 . S
H2967 C2979 0.929 . S
H2968 C2982 0.930 . S
H2969 C2984 0.960 . S
H2970 C2984 0.960 . S
H2971 C2984 0.960 . S
C2972 H2964 0.929 . S
C2972 C2973 1.377 . S
C2972 C2974 1.384 . S
C2973 C2972 1.377 . S
C2973 C2979 1.390 . S
C2974 H2965 0.930 . S
C2974 C2972 1.384 . S
C2974 C2975 1.372 . S
C2975 C2974 1.372 . S
C2975 C2976 1.400 . S
C2975 C2980 1.490 . S
C2976 H2966 0.930 . S
C2976 C2975 1.400 . S
C2976 C2979 1.386 . S
H2977 C2993 0.930 . S
H2978 C2994 0.931 . S
C2979 H2967 0.929 . S
C2979 C2973 1.390 . S
C2979 C2976 1.386 . S
C2980 C2975 1.490 . S
C2980 C2982 1.395 . S
C2980 C2983 1.403 . S
H2981 C2987 0.930 . S
C2982 H2968 0.930 . S
C2982 C2980 1.395 . S
C2982 C2985 1.403 . S
C2983 C2980 1.403 . S
C2983 C2984 1.524 . S
C2983 C2987 1.400 . S
C2984 H2969 0.960 . S
C2984 H2970 0.960 . S
C2984 H2971 0.960 . S
C2984 C2983 1.524 . S
C2985 C2982 1.403 . S
C2985 C2986 1.392 . S
C2985 C2989 1.495 . S
C2986 C2985 1.392 . S
C2986 C2987 1.385 . S
C2986 C2988 1.478 . S
C2987 H2981 0.930 . S
C2987 C2983 1.400 . S
C2987 C2986 1.385 . S
C2988 C2986 1.478 . S
C2988 C2990 1.381 . S
C2988 C2994 1.383 . S
C2989 C2985 1.495 . S
C2989 H2995 0.959 . S
C2989 H2996 0.961 . S
C2989 H2997 0.960 . S
C2990 C2988 1.381 . S
C2990 C2991 1.394 . S
C2990 H2998 0.930 . S
C2991 C2990 1.394 . S
C2991 C2992 1.383 . S
C2991 H2999 0.929 . S
C2992 C2991 1.383 . S
C2992 C2993 1.377 . S
C2993 H2977 0.930 . S
C2993 C2992 1.377 . S
C2993 C2994 1.379 . S
C2994 H2978 0.931 . S
C2994 C2988 1.383 . S
C2994 C2993 1.379 . S
H2995 C2989 0.959 . S
H2996 C2989 0.961 . S
H2997 C2989 0.960 . S
H2998 C2990 0.930 . S
H2999 C2991 0.929 . S
H3000 C3008 0.929 . S
H3001 C3010 0.930 . S
H3002 C3012 0.930 . S
H3003 C3015 0.929 . S
H3004 C3018 0.930 . S
H3005 C3020 0.960 . S
H3006 C3020 0.960 . S
H3007 C3020 0.960 . S
C3008 H3000 0.929 . S
C3008 C3009 1.377 . S
C3008 C3010 1.384 . S
C3009 C3008 1.377 . S
C3009 C3015 1.390 . S
C3010 H3001 0.930 . S
C3010 C3008 1.384 . S
C3010 C3011 1.372 . S
C3011 C3010 1.372 . S
C3011 C3012 1.400 . S
C3011 C3016 1.490 . S
C3012 H3002 0.930 . S
C3012 C3011 1.400 . S
C3012 C3015 1.386 . S
H3013 C3029 0.930 . S
H3014 C3030 0.931 . S
C3015 H3003 0.929 . S
C3015 C3009 1.390 . S
C3015 C3012 1.386 . S
C3016 C3011 1.490 . S
C3016 C3018 1.395 . S
C3016 C3019 1.403 . S
H3017 C3023 0.930 . S
C3018 H3004 0.930 . S
C3018 C3016 1.395 . S
C3018 C3021 1.403 . S
C3019 C3016 1.403 . S
C3019 C3020 1.524 . S
C3019 C3023 1.400 . S
C3020 H3005 0.960 . S
C3020 H3006 0.960 . S
C3020 H3007 0.960 . S
C3020 C3019 1.524 . S
C3021 C3018 1.403 . S
C3021 C3022 1.392 . S
C3021 C3025 1.495 . S
C3022 C3021 1.392 . S
C3022 C3023 1.385 . S
C3022 C3024 1.478 . S
C3023 H3017 0.930 . S
C3023 C3019 1.400 . S
C3023 C3022 1.385 . S
C3024 C3022 1.478 . S
C3024 C3026 1.381 . S
C3024 C3030 1.383 . S
C3025 C3021 1.495 . S
C3025 H3031 0.959 . S
C3025 H3032 0.961 . S
C3025 H3033 0.960 . S
C3026 C3024 1.381 . S
C3026 C3027 1.394 . S
C3026 H3034 0.930 . S
C3027 C3026 1.394 . S
C3027 C3028 1.383 . S
C3027 H3035 0.929 . S
C3028 C3027 1.383 . S
C3028 C3029 1.377 . S
C3029 H3013 0.930 . S
C3029 C3028 1.377 . S
C3029 C3030 1.379 . S
C3030 H3014 0.931 . S
C3030 C3024 1.383 . S
C3030 C3029 1.379 . S
H3031 C3025 0.959 . S
H3032 C3025 0.961 . S
H3033 C3025 0.960 . S
H3034 C3026 0.930 . S
H3035 C3027 0.929 . S
H3036 C3044 0.929 . S
H3037 C3046 0.930 . S
H3038 C3048 0.930 . S
H3039 C3051 0.929 . S
H3040 C3054 0.930 . S
H3041 C3056 0.960 . S
H3042 C3056 0.960 . S
H3043 C3056 0.960 . S
C3044 H3036 0.929 . S
C3044 C3045 1.377 . S
C3044 C3046 1.384 . S
C3045 C3044 1.377 . S
C3045 C3051 1.390 . S
C3046 H3037 0.930 . S
C3046 C3044 1.384 . S
C3046 C3047 1.372 . S
C3047 C3046 1.372 . S
C3047 C3048 1.400 . S
C3047 C3052 1.490 . S
C3048 H3038 0.930 . S
C3048 C3047 1.400 . S
C3048 C3051 1.386 . S
H3049 C3065 0.930 . S
H3050 C3066 0.931 . S
C3051 H3039 0.929 . S
C3051 C3045 1.390 . S
C3051 C3048 1.386 . S
C3052 C3047 1.490 . S
C3052 C3054 1.395 . S
C3052 C3055 1.403 . S
H3053 C3059 0.930 . S
C3054 H3040 0.930 . S
C3054 C3052 1.395 . S
C3054 C3057 1.403 . S
C3055 C3052 1.403 . S
C3055 C3056 1.524 . S
C3055 C3059 1.400 . S
C3056 H3041 0.960 . S
C3056 H3042 0.960 . S
C3056 H3043 0.960 . S
C3056 C3055 1.524 . S
C3057 C3054 1.403 . S
C3057 C3058 1.392 . S
C3057 C3061 1.495 . S
C3058 C3057 1.392 . S
C3058 C3059 1.385 . S
C3058 C3060 1.478 . S
C3059 H3053 0.930 . S
C3059 C3055 1.400 . S
C3059 C3058 1.385 . S
C3060 C3058 1.478 . S
C3060 C3062 1.381 . S
C3060 C3066 1.383 . S
C3061 C3057 1.495 . S
C3061 H3067 0.959 . S
C3061 H3068 0.961 . S
C3061 H3069 0.960 . S
C3062 C3060 1.381 . S
C3062 C3063 1.394 . S
C3062 H3070 0.930 . S
C3063 C3062 1.394 . S
C3063 C3064 1.383 . S
C3063 H3071 0.929 . S
C3064 C3063 1.383 . S
C3064 C3065 1.377 . S
C3065 H3049 0.930 . S
C3065 C3064 1.377 . S
C3065 C3066 1.379 . S
C3066 H3050 0.931 . S
C3066 C3060 1.383 . S
C3066 C3065 1.379 . S
H3067 C3061 0.959 . S
H3068 C3061 0.961 . S
H3069 C3061 0.960 . S
H3070 C3062 0.930 . S
H3071 C3063 0.929 . S
C1353 C67 1.114 . S
C1372 C154 1.000 . S
C1389 C235 1.897 . S
C1408 C140 1.957 . S
C1425 C308 1.943 . S
C1444 C231 1.952 . S
C1461 C63 1.167 . S
C1480 C322 1.049 . S
C1497 C74 1.164 . S
C1516 C814 0.983 . S
C1533 C644 1.124 . S
C1552 C142 0.987 . S
C1569 C224 1.898 . S
C1588 C907 1.961 . S
C1605 C319 1.939 . S
C1624 C1166 1.952 . S
C1641 C728 1.901 . S
C1660 C151 1.933 . S
C1677 C1075 1.941 . S
C1696 C242 1.961 . S
C1713 C1250 1.164 . S
C1732 C310 1.038 . S
C1749 C56 1.106 . S
C1768 C982 1.008 . S
C1785 C70 0.498 . S
C1804 C730 0.774 . S
C1821 C1071 1.872 . S
C1840 C410 1.870 . S
C1857 C490 0.702 . S
C1876 C1234 0.474 . S
C1893 C998 1.874 . S
C1912 C567 1.873 . S
C1929 C238 0.691 . S
C1948 C646 0.403 . S
C1965 C830 1.875 . S
C1984 C399 1.870 . S
C2001 C578 1.873 . S
C2020 C903 1.878 . S
C2037 C476 1.906 . S
C2056 C991 1.935 . S
C2073 C823 1.940 . S
C2092 C494 1.958 . S
C2109 C994 1.013 . S
C2128 C655 1.132 . S
C2145 C487 1.904 . S
C2164 C392 1.932 . S
C2181 C812 1.940 . S
C2200 C735 1.955 . S
C2217 C1159 1.903 . S
C2236 C980 1.933 . S
C2253 C560 1.939 . S
C2272 C483 1.958 . S
C2289 C826 0.972 . S
C2308 C1239 1.150 . S
C2325 C1162 0.665 . S
C2344 C58 0.492 . S
C2361 C226 0.697 . S
C2380 C1246 0.406 . S
C2397 C1082 1.874 . S
C2416 C147 1.875 . S
C2433 C658 0.522 . S
C2452 C478 0.613 . S
C2469 C315 1.875 . S
C2488 C914 1.873 . S
C2505 C1064 1.939 . S
C2524 C1155 1.956 . S
C2541 C651 1.163 . S
C2560 C1078 0.911 . S
C2577 C562 0.990 . S
C2596 C662 1.163 . S
C2613 C403 1.951 . S
C2632 C1148 1.875 . S
C2649 C1066 0.972 . S
C2668 C1334 1.174 . S
C2685 C1318 0.506 . S
C2704 C742 0.592 . S
C2721 C158 1.874 . S
C2740 C819 1.863 . S
C2757 C746 1.961 . S
C2776 C571 1.952 . S
C2793 C739 1.905 . S
C2812 C896 1.948 . S
C2829 C1323 1.166 . S
C2848 C574 1.047 . S
C2865 C1150 0.662 . S
C2884 C1330 0.543 . S
C2901 C987 1.873 . S
C2920 C326 1.875 . S
C2937 C910 0.995 . S
C2956 C1243 1.074 . S
C2973 C898 1.020 . S
C2992 C1316 1.073 . S
C3009 C394 0.992 . S
C3028 C1232 1.142 . S
C3045 C1327 1.114 . S
C3064 C406 1.004 . S
