# Generated by pormake.
# Topology zfj, (5)-cn, num edge types: 1
# Building blocks:
#     Node 0, Type 0, BuildingBlock: BEQFEK_clean_sbu_0, # of connection points: 5
#     Node 1, Type 0, BuildingBlock: BEQFEK_clean_sbu_0, # of connection points: 5
#     Node 2, Type 0, BuildingBlock: BEQFEK_clean_sbu_0, # of connection points: 5
#     Node 3, Type 0, BuildingBlock: BEQFEK_clean_sbu_0, # of connection points: 5
#     Node 4, Type 0, BuildingBlock: BEQFEK_clean_sbu_0, # of connection points: 5
#     Node 5, Type 0, BuildingBlock: BEQFEK_clean_sbu_0, # of connection points: 5
#     Node 6, Type 0, BuildingBlock: BEQFEK_clean_sbu_0, # of connection points: 5
#     Node 7, Type 0, BuildingBlock: BEQFEK_clean_sbu_0, # of connection points: 5
#     Node 8, Type 0, BuildingBlock: BEQFEK_clean_sbu_0, # of connection points: 5
#     Node 9, Type 0, BuildingBlock: BEQFEK_clean_sbu_0, # of connection points: 5
#     Node 10, Type 0, BuildingBlock: BEQFEK_clean_sbu_0, # of connection points: 5
#     Node 11, Type 0, BuildingBlock: BEQFEK_clean_sbu_0, # of connection points: 5
#     Node 12, Type 0, BuildingBlock: BEQFEK_clean_sbu_0, # of connection points: 5
#     Node 13, Type 0, BuildingBlock: BEQFEK_clean_sbu_0, # of connection points: 5
#     Node 14, Type 0, BuildingBlock: BEQFEK_clean_sbu_0, # of connection points: 5
#     Node 15, Type 0, BuildingBlock: BEQFEK_clean_sbu_0, # of connection points: 5
#     Edge 16, Type (0, 0), BuildingBlock: AJUNOK_clean_linker_0, # of connection points: 2
#     Edge 17, Type (0, 0), BuildingBlock: AJUNOK_clean_linker_0, # of connection points: 2
#     Edge 18, Type (0, 0), BuildingBlock: AJUNOK_clean_linker_0, # of connection points: 2
#     Edge 19, Type (0, 0), BuildingBlock: AJUNOK_clean_linker_0, # of connection points: 2
#     Edge 20, Type (0, 0), BuildingBlock: AJUNOK_clean_linker_0, # of connection points: 2
#     Edge 21, Type (0, 0), BuildingBlock: AJUNOK_clean_linker_0, # of connection points: 2
#     Edge 22, Type (0, 0), BuildingBlock: AJUNOK_clean_linker_0, # of connection points: 2
#     Edge 23, Type (0, 0), BuildingBlock: AJUNOK_clean_linker_0, # of connection points: 2
#     Edge 24, Type (0, 0), BuildingBlock: AJUNOK_clean_linker_0, # of connection points: 2
#     Edge 25, Type (0, 0), BuildingBlock: AJUNOK_clean_linker_0, # of connection points: 2
#     Edge 26, Type (0, 0), BuildingBlock: AJUNOK_clean_linker_0, # of connection points: 2
#     Edge 27, Type (0, 0), BuildingBlock: AJUNOK_clean_linker_0, # of connection points: 2
#     Edge 28, Type (0, 0), BuildingBlock: AJUNOK_clean_linker_0, # of connection points: 2
#     Edge 29, Type (0, 0), BuildingBlock: AJUNOK_clean_linker_0, # of connection points: 2
#     Edge 30, Type (0, 0), BuildingBlock: AJUNOK_clean_linker_0, # of connection points: 2
#     Edge 31, Type (0, 0), BuildingBlock: AJUNOK_clean_linker_0, # of connection points: 2
#     Edge 32, Type (0, 0), BuildingBlock: AJUNOK_clean_linker_0, # of connection points: 2
#     Edge 33, Type (0, 0), BuildingBlock: AJUNOK_clean_linker_0, # of connection points: 2
#     Edge 34, Type (0, 0), BuildingBlock: AJUNOK_clean_linker_0, # of connection points: 2
#     Edge 35, Type (0, 0), BuildingBlock: AJUNOK_clean_linker_0, # of connection points: 2
#     Edge 36, Type (0, 0), BuildingBlock: AJUNOK_clean_linker_0, # of connection points: 2
#     Edge 37, Type (0, 0), BuildingBlock: AJUNOK_clean_linker_0, # of connection points: 2
#     Edge 38, Type (0, 0), BuildingBlock: AJUNOK_clean_linker_0, # of connection points: 2
#     Edge 39, Type (0, 0), BuildingBlock: AJUNOK_clean_linker_0, # of connection points: 2
#     Edge 40, Type (0, 0), BuildingBlock: AJUNOK_clean_linker_0, # of connection points: 2
#     Edge 41, Type (0, 0), BuildingBlock: AJUNOK_clean_linker_0, # of connection points: 2
#     Edge 42, Type (0, 0), BuildingBlock: AJUNOK_clean_linker_0, # of connection points: 2
#     Edge 43, Type (0, 0), BuildingBlock: AJUNOK_clean_linker_0, # of connection points: 2
#     Edge 44, Type (0, 0), BuildingBlock: AJUNOK_clean_linker_0, # of connection points: 2
#     Edge 45, Type (0, 0), BuildingBlock: AJUNOK_clean_linker_0, # of connection points: 2
#     Edge 46, Type (0, 0), BuildingBlock: AJUNOK_clean_linker_0, # of connection points: 2
#     Edge 47, Type (0, 0), BuildingBlock: AJUNOK_clean_linker_0, # of connection points: 2
#     Edge 48, Type (0, 0), BuildingBlock: AJUNOK_clean_linker_0, # of connection points: 2
#     Edge 49, Type (0, 0), BuildingBlock: AJUNOK_clean_linker_0, # of connection points: 2
#     Edge 50, Type (0, 0), BuildingBlock: AJUNOK_clean_linker_0, # of connection points: 2
#     Edge 51, Type (0, 0), BuildingBlock: AJUNOK_clean_linker_0, # of connection points: 2
#     Edge 52, Type (0, 0), BuildingBlock: AJUNOK_clean_linker_0, # of connection points: 2
#     Edge 53, Type (0, 0), BuildingBlock: AJUNOK_clean_linker_0, # of connection points: 2
#     Edge 54, Type (0, 0), BuildingBlock: AJUNOK_clean_linker_0, # of connection points: 2
#     Edge 55, Type (0, 0), BuildingBlock: AJUNOK_clean_linker_0, # of connection points: 2
# Relax obj value: 0.341
# Max RMSD: 0.184
# Mean RMSD: 0.184
data_MOF--net-zfj--node1-BEQFEK_clean_sbu_0--edge1-AJUNOK_clean_linker_0
_symmetry_space_group_name_H-M    P1
_symmetry_Int_Tables_number       1
_symmetry_cell_setting            triclinic
loop_
_symmetry_equiv_pos_as_xyz
'x, y, z'
_cell_length_a     27.750155
_cell_length_b     27.690239
_cell_length_c     38.218005
_cell_angle_alpha  90.085332
_cell_angle_beta   89.944498
_cell_angle_gamma 90.044044
loop_
_atom_site_label
_atom_site_type_symbol
_atom_site_fract_x
_atom_site_fract_y
_atom_site_fract_z
_atom_type_partial_charge
Co0 Co 0.5545 0.24657 0.17648 0.0
Co1 Co 0.59041 0.14699 0.1515 0.0
C2 C 0.56068 0.21452 0.09852 0.0
O3 O 0.55362 0.24311 0.12415 0.0
O4 O 0.57413 0.17112 0.10396 0.0
C5 C 0.47866 0.31138 0.16909 0.0
O6 O 0.45944 0.27483 0.15218 0.0
C7 C 0.60241 0.04191 0.13695 0.0
C8 C 0.6481 0.02396 0.18241 0.0
C9 C 0.62171 1.00338 0.15558 0.0
N10 N 0.61562 0.08312 0.15296 0.0
N11 N 0.64437 0.072 0.17927 0.0
C12 C 0.56694 0.03925 0.10752 0.0
H13 H 0.55042 0.07508 0.10263 0.0
H14 H 0.53862 0.01205 0.11328 0.0
H15 H 0.58594 0.02747 0.08343 0.0
C16 C 0.49447 0.18429 0.22404 0.0
N17 N 0.52586 0.19153 0.19748 0.0
N18 N 0.53628 0.14989 0.18295 0.0
C19 C 0.50918 0.11524 0.19806 0.0
C20 C 0.48309 0.13515 0.22582 0.0
C21 C 0.47791 0.22353 0.24811 0.0
H22 H 0.50336 0.25446 0.24735 0.0
H23 H 0.44196 0.23635 0.23949 0.0
H24 H 0.47469 0.20984 0.2753 0.0
O25 O 0.6219 0.25562 0.1912 0.0
O26 O 0.64649 0.18596 0.16922 0.0
H27 H 0.53349 0.0431 0.18839 0.0
H28 H 0.46884 0.04866 0.1924 0.0
C29 C 0.50206 0.06621 0.18241 0.0
H30 H 0.4987 0.06979 0.1537 0.0
H31 H 0.6576 0.09701 0.19727 0.0
O32 O 0.51789 0.30542 0.18566 0.0
C33 C 0.65556 0.22593 0.18441 0.0
Co34 Co 0.26182 0.55505 0.67957 0.0
Co35 Co 0.36207 0.5887 0.65431 0.0
C36 C 0.29268 0.56286 0.60163 0.0
O37 O 0.26429 0.55592 0.6273 0.0
O38 O 0.33644 0.5748 0.60696 0.0
C39 C 0.19767 0.47974 0.67135 0.0
O40 O 0.23572 0.46021 0.65657 0.0
C41 C 0.46539 0.59726 0.63449 0.0
C42 C 0.49154 0.63608 0.68131 0.0
C43 C 0.50719 0.6125 0.65145 0.0
N44 N 0.42734 0.60968 0.65438 0.0
N45 N 0.44325 0.63423 0.68168 0.0
C46 C 0.46127 0.57312 0.59952 0.0
H47 H 0.44346 0.53751 0.60213 0.0
H48 H 0.49706 0.56893 0.58687 0.0
H49 H 0.4378 0.59534 0.58243 0.0
C50 C 0.32283 0.48953 0.72433 0.0
N51 N 0.31585 0.52309 0.69911 0.0
N52 N 0.35739 0.53355 0.68458 0.0
C53 C 0.39149 0.5048 0.69839 0.0
C54 C 0.37162 0.4771 0.72519 0.0
C55 C 0.28384 0.47158 0.74798 0.0
H56 H 0.25319 0.4973 0.74841 0.0
H57 H 0.2707 0.43625 0.73811 0.0
H58 H 0.29791 0.46629 0.77489 0.0
O59 O 0.25654 0.62258 0.69586 0.0
O60 O 0.32667 0.64583 0.67392 0.0
H61 H 0.46338 0.52969 0.69017 0.0
H62 H 0.45759 0.46461 0.69108 0.0
C63 C 0.44028 0.49878 0.68264 0.0
H64 H 0.43668 0.49813 0.65385 0.0
H65 H 0.42129 0.6467 0.70194 0.0
O66 O 0.20192 0.51963 0.68758 0.0
C67 C 0.28742 0.65555 0.68978 0.0
Co68 Co 0.9589 0.26131 0.17843 0.0
Co69 Co 0.92222 0.36061 0.15315 0.0
C70 C 0.95216 0.29174 0.10063 0.0
O71 O 0.95975 0.26317 0.12609 0.0
O72 O 0.93881 0.33512 0.10621 0.0
C73 C 0.03625 0.19872 0.17261 0.0
O74 O 0.05579 0.23674 0.15778 0.0
C75 C 0.91283 0.4634 0.13258 0.0
C76 C 0.87245 0.49018 0.1785 0.0
C77 C 0.8972 0.50556 0.14906 0.0
N78 N 0.89972 0.42553 0.15242 0.0
N79 N 0.87419 0.44177 0.17913 0.0
C80 C 0.93796 0.45864 0.09804 0.0
H81 H 0.97419 0.44264 0.10161 0.0
H82 H 0.94092 0.49403 0.08459 0.0
H83 H 0.91735 0.43327 0.08124 0.0
C84 C 0.01892 0.32457 0.22552 0.0
N85 N 0.9874 0.31657 0.19915 0.0
N86 N 0.97598 0.35794 0.18475 0.0
C87 C 1.0024 0.39312 0.19975 0.0
C88 C 0.02918 0.37396 0.22728 0.0
C89 C 0.03676 0.28584 0.24942 0.0
H90 H 0.012 0.25435 0.24895 0.0
H91 H 0.07284 0.2738 0.24042 0.0
H92 H 0.04021 0.29977 0.27655 0.0
O93 O 0.89127 0.2534 0.19277 0.0
O94 O 0.86546 0.32277 0.17097 0.0
H95 H 0.97658 0.46472 0.19084 0.0
H96 H 0.04151 0.46019 0.19333 0.0
C97 C 0.00814 0.44211 0.18411 0.0
H98 H 0.01014 0.43835 0.15535 0.0
H99 H 0.861 0.41997 0.19923 0.0
O100 O 0.99565 0.20267 0.18777 0.0
C101 C 0.85707 0.28247 0.18592 0.0
Co102 Co 0.25956 0.96129 0.68349 0.0
Co103 Co 0.15779 0.92312 0.66253 0.0
C104 C 0.22683 0.95212 0.60761 0.0
O105 O 0.25657 0.95967 0.63212 0.0
O106 O 0.1836 0.93978 0.61461 0.0
C107 C 0.32143 0.03633 0.67183 0.0
O108 O 0.28413 0.04848 0.65264 0.0
C109 C 0.05569 0.92702 0.64276 0.0
C110 C 0.02489 0.87087 0.67711 0.0
C111 C 0.01214 0.90801 0.65465 0.0
N112 N 0.09189 0.90371 0.65886 0.0
N113 N 0.07328 0.86918 0.67849 0.0
C114 C 0.06362 0.96591 0.61619 0.0
H115 H 0.07788 0.99875 0.62926 0.0
H116 H 0.02993 0.97448 0.60187 0.0
H117 H 0.09132 0.95389 0.59713 0.0
C118 C 0.20078 0.02832 0.72746 0.0
N119 N 0.20534 0.99228 0.70376 0.0
N120 N 0.16237 0.97552 0.69574 0.0
C121 C 0.12935 0.99971 0.71498 0.0
C122 C 0.15221 0.0348 0.73485 0.0
C123 C 0.24217 0.05576 0.74273 0.0
H124 H 0.27184 0.03053 0.74929 0.0
H125 H 0.25583 0.0817 0.72297 0.0
H126 H 0.23121 0.0762 0.76642 0.0
O127 O 0.2656 0.8927 0.69872 0.0
O128 O 0.19449 0.86617 0.68002 0.0
H129 H 0.07376 0.94685 0.72092 0.0
H130 H 0.05925 1.00472 0.73981 0.0
C131 C 0.07743 0.98637 0.7176 0.0
H132 H 0.05979 0.99732 0.69319 0.0
H133 H 0.09347 0.84662 0.69467 0.0
O134 O 0.31857 0.99939 0.69152 0.0
C135 C 0.23568 0.8583 0.69371 0.0
Co136 Co 0.55794 0.25441 0.87721 0.0
Co137 Co 0.5848 0.3581 0.90201 0.0
C138 C 0.55936 0.28818 0.95497 0.0
O139 O 0.5552 0.25804 0.92986 0.0
O140 O 0.56955 0.33231 0.94898 0.0
C141 C 0.48645 0.18187 0.87809 0.0
O142 O 0.45847 0.21835 0.8864 0.0
C143 C 0.58591 0.46317 0.92029 0.0
C144 C 0.62775 0.48972 0.87496 0.0
C145 C 0.60096 0.50516 0.90337 0.0
N146 N 0.60177 0.42498 0.90172 0.0
N147 N 0.62787 0.44127 0.87532 0.0
C148 C 0.55878 0.45915 0.95407 0.0
H149 H 0.52641 0.43619 0.95076 0.0
H150 H 0.54861 0.49514 0.96451 0.0
H151 H 0.58203 0.44071 0.97351 0.0
C152 C 0.49368 0.31242 0.82853 0.0
N153 N 0.52442 0.30684 0.85578 0.0
N154 N 0.53201 0.34924 0.87025 0.0
C155 C 0.50392 0.38218 0.85444 0.0
C156 C 0.48021 0.36095 0.82635 0.0
C157 C 0.47994 0.27278 0.80393 0.0
H158 H 0.50556 0.24216 0.80605 0.0
H159 H 0.44328 0.25977 0.81073 0.0
H160 H 0.47901 0.2864 0.77663 0.0
O161 O 0.62653 0.25389 0.86337 0.0
O162 O 0.6451 0.32588 0.88466 0.0
H163 H 0.52578 0.45554 0.86176 0.0
H164 H 0.4615 0.44756 0.85795 0.0
C165 C 0.49517 0.43172 0.86856 0.0
H166 H 0.49194 0.42975 0.89733 0.0
H167 H 0.64321 0.41924 0.85614 0.0
O168 O 0.52931 0.19025 0.86805 0.0
C169 C 0.65754 0.28665 0.86972 0.0
Co170 Co 0.25139 0.55652 0.38086 0.0
Co171 Co 0.15053 0.5923 0.40523 0.0
C172 C 0.21893 0.56394 0.45836 0.0
O173 O 0.2486 0.55727 0.43337 0.0
O174 O 0.17552 0.57613 0.4522 0.0
C175 C 0.3167 0.48217 0.3906 0.0
O176 O 0.28332 0.47032 0.41341 0.0
C177 C 0.04738 0.59946 0.42464 0.0
C178 C 0.02205 0.64811 0.3828 0.0
C179 C 1.00599 0.61913 0.40987 0.0
N180 N 0.08574 0.61514 0.40638 0.0
N181 N 0.07035 0.64533 0.3821 0.0
C182 C 0.05061 0.56628 0.45549 0.0
H183 H 0.08367 0.54389 0.45402 0.0
H184 H 0.01826 0.54304 0.45788 0.0
H185 H 0.05295 0.58853 0.4796 0.0
C186 C 0.18918 0.49597 0.33336 0.0
N187 N 0.1961 0.52737 0.36006 0.0
N188 N 0.15417 0.53854 0.37377 0.0
C189 C 0.11967 0.51233 0.3578 0.0
C190 C 0.14001 0.48575 0.33054 0.0
C191 C 0.22865 0.47854 0.30988 0.0
H192 H 0.25938 0.5042 0.31025 0.0
H193 H 0.2415 0.44298 0.31941 0.0
H194 H 0.21531 0.474 0.2827 0.0
O195 O 0.25878 0.62446 0.36605 0.0
O196 O 0.18829 0.64868 0.38706 0.0
H197 H 0.04887 0.54116 0.36417 0.0
H198 H 0.05055 0.47604 0.36043 0.0
C199 C 0.06925 0.50821 0.37121 0.0
H200 H 0.07003 0.50478 0.40001 0.0
H201 H 0.09253 0.66121 0.36331 0.0
O202 O 0.3099 0.51836 0.37072 0.0
C203 C 0.22842 0.6579 0.37222 0.0
Co204 Co 0.96376 0.2591 0.88093 0.0
Co205 Co 0.92241 0.15756 0.89906 0.0
C206 C 0.95211 0.22274 0.95591 0.0
O207 O 0.96093 0.25394 0.93245 0.0
O208 O 0.93863 0.18019 0.94759 0.0
C209 C 0.03832 0.32427 0.8942 0.0
O210 O 0.04939 0.29006 0.91654 0.0
C211 C 0.91658 0.0539 0.91419 0.0
C212 C 0.85861 0.03205 0.87779 0.0
C213 C 0.89307 0.01392 0.90037 0.0
N214 N 0.89741 0.09368 0.89981 0.0
N215 N 0.86177 0.08046 0.87896 0.0
C216 C 0.96054 0.05431 0.93688 0.0
H217 H 0.98078 0.08859 0.93351 0.0
H218 H 0.98417 0.02304 0.9309 0.0
H219 H 0.9492 0.05157 0.96466 0.0
C220 C 0.03037 0.19934 0.8371 0.0
N221 N 0.99361 0.20398 0.86008 0.0
N222 N 0.97638 0.16088 0.86754 0.0
C223 C 1.00153 0.12755 0.84911 0.0
C224 C 0.03698 0.15064 0.82973 0.0
C225 C 0.05847 0.24084 0.8226 0.0
H226 H 0.08148 0.25616 0.84359 0.0
H227 H 0.08185 0.22946 0.80051 0.0
H228 H 0.03339 0.26958 0.81387 0.0
O229 O 0.89592 0.26875 0.86472 0.0
O230 O 0.86821 0.19739 0.88159 0.0
H231 H 0.00685 0.05748 0.82409 0.0
H232 H 1.00229 0.05655 0.87088 0.0
C233 C 0.9894 0.07494 0.84697 0.0
H234 H 0.94997 0.07019 0.84459 0.0
H235 H 0.84204 0.10427 0.86345 0.0
O236 O 1.00309 0.31786 0.87336 0.0
C237 C 0.86111 0.23911 0.86866 0.0
Co238 Co 0.26151 0.96195 0.38573 0.0
Co239 Co 0.36185 0.92426 0.40807 0.0
C240 C 0.2948 0.9541 0.46251 0.0
O241 O 0.26467 0.96239 0.43814 0.0
O242 O 0.33747 0.94024 0.45538 0.0
C243 C 0.19658 0.03833 0.39251 0.0
O244 O 0.23359 0.05876 0.408 0.0
C245 C 0.46517 0.91723 0.42629 0.0
C246 C 0.48943 0.86745 0.38468 0.0
C247 C 0.50624 0.89752 0.41094 0.0
N248 N 0.42637 0.90085 0.40889 0.0
N249 N 0.4411 0.86985 0.38486 0.0
C250 C 0.46243 0.95055 0.45717 0.0
H251 H 0.43152 0.97565 0.45455 0.0
H252 H 0.49645 0.97078 0.4612 0.0
H253 H 0.45588 0.92853 0.48094 0.0
C254 C 0.32292 0.02102 0.33664 0.0
N255 N 0.31626 0.99054 0.36388 0.0
N256 N 0.35843 0.9783 0.37663 0.0
C257 C 0.39297 1.00305 0.35948 0.0
C258 C 0.37223 0.02954 0.33243 0.0
C259 C 0.28304 0.03877 0.31378 0.0
H260 H 0.25136 0.01443 0.31565 0.0
H261 H 0.27211 0.07534 0.32266 0.0
H262 H 0.29522 0.04133 0.28617 0.0
O263 O 0.25336 0.8943 0.37074 0.0
O264 O 0.32386 0.86799 0.3899 0.0
H265 H 0.46318 0.97233 0.36465 0.0
H266 H 0.46322 0.03727 0.3597 0.0
C267 C 0.44406 1.00612 0.37153 0.0
H268 H 0.44461 0.01083 0.40023 0.0
H269 H 0.41837 0.85305 0.36683 0.0
O270 O 0.20207 0.99805 0.37701 0.0
C271 C 0.283 0.85998 0.3758 0.0
Co272 Co 0.45685 0.76844 0.88377 0.0
Co273 Co 0.42359 0.87015 0.90904 0.0
C274 C 0.44879 0.79226 0.96041 0.0
O275 O 0.45811 0.76439 0.93505 0.0
O276 O 0.43567 0.83559 0.95471 0.0
C277 C 0.52792 0.69936 0.88849 0.0
O278 O 0.54845 0.73506 0.90558 0.0
C279 C 0.44414 0.95913 0.93991 0.0
C280 C 0.41328 0.9586 0.92769 0.0
C281 C 0.42944 1.00377 0.94588 0.0
N282 N 0.41195 0.9368 0.92086 0.0
N283 N 0.37385 0.95975 0.90695 0.0
C284 C 0.49377 0.93746 0.95396 0.0
H285 H 0.49758 0.8989 0.94685 0.0
H286 H 0.52451 0.9572 0.94223 0.0
H287 H 0.49588 0.94202 0.98278 0.0
C288 C 0.52408 0.82808 0.84049 0.0
N289 N 0.49026 0.82324 0.86571 0.0
N290 N 0.47611 0.86637 0.87598 0.0
C291 C 0.50042 0.90002 0.85726 0.0
C292 C 0.53211 0.87697 0.83456 0.0
C293 C 0.54673 0.78655 0.82157 0.0
H294 H 0.57266 0.76847 0.83928 0.0
H295 H 0.56641 0.79854 0.79784 0.0
H296 H 0.51864 0.7598 0.81433 0.0
O297 O 0.38762 0.76856 0.8696 0.0
O298 O 0.36391 0.84084 0.88838 0.0
H299 H 0.50417 0.97116 0.83377 0.0
H300 H 0.50525 0.97007 0.88069 0.0
C301 C 0.48922 0.95295 0.85724 0.0
H302 H 0.4497 0.95849 0.85771 0.0
H303 H 0.35421 0.93535 0.89183 0.0
O304 O 0.4887 0.70698 0.87216 0.0
C305 C 0.35467 0.80025 0.87391 0.0
Co306 Co 0.75177 0.46283 0.38207 0.0
Co307 Co 0.65032 0.42228 0.40021 0.0
C308 C 0.71674 0.45135 0.45712 0.0
O309 O 0.74738 0.46071 0.43343 0.0
O310 O 0.6742 0.43768 0.44904 0.0
C311 C 0.81521 0.53918 0.39256 0.0
O312 O 0.77768 0.55591 0.40968 0.0
C313 C 0.54595 0.41975 0.41414 0.0
C314 C 0.52426 0.35958 0.37951 0.0
C315 C 0.50612 0.39637 0.40015 0.0
N316 N 0.58583 0.39848 0.40147 0.0
N317 N 0.57254 0.36151 0.38179 0.0
C318 C 0.54626 0.46505 0.43556 0.0
H319 H 0.58141 0.48391 0.43302 0.0
H320 H 0.51637 0.48936 0.42772 0.0
H321 H 0.54079 0.45538 0.46344 0.0
C322 C 0.69321 0.52984 0.33765 0.0
N323 N 0.69738 0.49363 0.36117 0.0
N324 N 0.65423 0.47653 0.36849 0.0
C325 C 0.6214 0.50117 0.34931 0.0
C326 C 0.64477 0.53629 0.32977 0.0
C327 C 0.7349 0.55713 0.32267 0.0
H328 H 0.74764 0.58385 0.34224 0.0
H329 H 0.72458 0.57682 0.29856 0.0
H330 H 0.76501 0.53198 0.31696 0.0
O331 O 0.76053 0.39492 0.36578 0.0
O332 O 0.68882 0.36709 0.3817 0.0
H333 H 0.55334 0.50341 0.32168 0.0
H334 H 0.54907 0.5023 0.36842 0.0
C335 C 0.56937 0.48792 0.34577 0.0
H336 H 0.56555 0.44821 0.34462 0.0
H337 H 0.59634 0.34001 0.36756 0.0
O338 O 0.81131 0.50002 0.37534 0.0
C339 C 0.73055 0.36025 0.36872 0.0
Co340 Co 0.05086 0.75797 0.88329 0.0
Co341 Co 0.09387 0.6573 0.90195 0.0
C342 C 0.06294 0.72036 0.95889 0.0
O343 O 0.05124 0.75102 0.93559 0.0
O344 O 0.08051 0.67934 0.95065 0.0
C345 C 0.97553 0.82248 0.89526 0.0
O346 O 0.96387 0.78846 0.9176 0.0
C347 C 0.1078 0.5526 0.91575 0.0
C348 C 0.15165 0.53421 0.86934 0.0
C349 C 0.12658 0.51387 0.89696 0.0
N350 N 0.12001 0.59366 0.89918 0.0
N351 N 0.14777 0.58236 0.87228 0.0
C352 C 0.07407 0.55032 0.94633 0.0
H353 H 0.05518 0.58526 0.94997 0.0
H354 H 0.0475 0.52072 0.94284 0.0
H355 H 0.09513 0.54254 0.97033 0.0
C356 C 0.99017 0.69693 0.83572 0.0
N357 N 0.02368 0.70282 0.86104 0.0
N358 N 0.03773 0.66032 0.87224 0.0
C359 C 0.01135 0.62602 0.85592 0.0
C360 C 0.98073 0.64755 0.83149 0.0
C361 C 0.97175 0.73787 0.81404 0.0
H362 H 0.99922 0.76696 0.8126 0.0
H363 H 0.9391 0.75315 0.82665 0.0
H364 H 0.96258 0.72558 0.78721 0.0
O365 O 0.11838 0.77002 0.86827 0.0
O366 O 0.14743 0.69888 0.88396 0.0
H367 H 0.04488 0.55652 0.8544 0.0
H368 H 0.97979 0.55431 0.85654 0.0
C369 C 0.01236 0.57376 0.86571 0.0
H370 H 0.01343 0.57071 0.89446 0.0
H371 H 0.16071 0.60737 0.85415 0.0
O372 O 0.01116 0.81607 0.87482 0.0
C373 C 0.15379 0.74119 0.87171 0.0
Co374 Co 0.75624 0.05722 0.37952 0.0
Co375 Co 0.85743 0.08969 0.40407 0.0
C376 C 0.78719 0.06448 0.45722 0.0
O377 O 0.75842 0.05806 0.43175 0.0
O378 O 0.83121 0.07536 0.45156 0.0
C379 C 0.69438 0.98036 0.38641 0.0
O380 O 0.73349 0.9626 0.40082 0.0
C381 C 0.96097 0.09597 0.42384 0.0
C382 C 0.98784 0.1372 0.37837 0.0
C383 C 1.00304 0.11168 0.40743 0.0
N384 N 0.92314 0.11 0.40436 0.0
N385 N 0.9395 0.1359 0.37789 0.0
C386 C 0.95638 0.06975 0.45795 0.0
H387 H 0.939 0.03413 0.45396 0.0
H388 H 0.99195 0.0651 0.47077 0.0
H389 H 0.93234 0.09068 0.47555 0.0
C390 C 0.81537 0.99257 0.33327 0.0
N391 N 0.80992 0.02517 0.35937 0.0
N392 N 0.85218 0.03522 0.37286 0.0
C393 C 0.88555 1.00713 0.35724 0.0
C394 C 0.86403 0.97956 0.33092 0.0
C395 C 0.77529 0.9786 0.30914 0.0
H396 H 0.74803 0.00786 0.30799 0.0
H397 H 0.75729 0.94575 0.31941 0.0
H398 H 0.78918 0.97102 0.28245 0.0
O399 O 0.7517 0.12482 0.3636 0.0
O400 O 0.8221 0.14756 0.38531 0.0
H401 H 0.95751 0.03454 0.35892 0.0
H402 H 0.95359 0.96937 0.36106 0.0
C403 C 0.93648 1.00372 0.36938 0.0
H404 H 0.93675 1.00513 0.39822 0.0
H405 H 0.91775 0.14997 0.35813 0.0
O406 O 0.69645 0.02127 0.37138 0.0
C407 C 0.78261 0.15771 0.3699 0.0
Co408 Co 0.45543 0.75385 0.1797 0.0
Co409 Co 0.41825 0.65114 0.16028 0.0
C410 C 0.4455 0.71944 0.10427 0.0
O411 O 0.45284 0.75032 0.1282 0.0
O412 O 0.43392 0.67618 0.11202 0.0
C413 C 0.52951 0.81685 0.16702 0.0
O414 O 0.54156 0.77998 0.14721 0.0
C415 C 0.42137 0.54865 0.14083 0.0
C416 C 0.36801 0.51803 0.1775 0.0
C417 C 0.40354 0.50512 0.15374 0.0
N418 N 0.39903 0.58504 0.15755 0.0
N419 N 0.36608 0.56651 0.17858 0.0
C420 C 0.45821 0.55638 0.11276 0.0
H421 H 0.49151 0.57172 0.12439 0.0
H422 H 0.46641 0.52234 0.09859 0.0
H423 H 0.44436 0.58323 0.0938 0.0
C424 C 0.52337 0.6964 0.22396 0.0
N425 N 0.48735 0.7001 0.20027 0.0
N426 N 0.47118 0.65667 0.19268 0.0
C427 C 0.49587 0.62418 0.21202 0.0
C428 C 0.53053 0.64791 0.23174 0.0
C429 C 0.55 0.73857 0.23896 0.0
H430 H 0.5242 0.76767 0.24584 0.0
H431 H 0.5751 0.75292 0.21889 0.0
H432 H 0.57115 0.72817 0.26238 0.0
O433 O 0.38729 0.75975 0.1959 0.0
O434 O 0.36155 0.6876 0.17842 0.0
H435 H 0.44417 0.56793 0.21962 0.0
H436 H 0.50315 0.55373 0.23627 0.0
C437 C 0.48331 0.57195 0.21484 0.0
H438 H 0.49261 0.55447 0.18993 0.0
H439 H 0.34472 0.58684 0.19555 0.0
O440 O 0.4931 0.81326 0.18714 0.0
C441 C 0.35345 0.72891 0.19201 0.0
Co442 Co 0.76027 0.4597 0.67933 0.0
Co443 Co 0.8608 0.42804 0.65371 0.0
C444 C 0.78961 0.4526 0.60119 0.0
O445 O 0.76124 0.45894 0.62696 0.0
O446 O 0.83379 0.44209 0.60646 0.0
C447 C 0.6972 0.53554 0.67297 0.0
O448 O 0.73574 0.55514 0.65894 0.0
C449 C 0.96428 0.42155 0.63361 0.0
C450 C 0.99066 0.37978 0.67891 0.0
C451 C 1.00617 0.40544 0.64996 0.0
N452 N 0.92629 0.40757 0.65301 0.0
N453 N 0.94236 0.38135 0.67937 0.0
C454 C 0.95999 0.44792 0.59954 0.0
H455 H 0.93624 0.42693 0.58179 0.0
H456 H 0.94242 0.48341 0.60352 0.0
H457 H 0.99569 0.45278 0.5869 0.0
C458 C 0.81987 0.52371 0.72571 0.0
N459 N 0.81404 0.49184 0.6992 0.0
N460 N 0.85604 0.48238 0.68509 0.0
C461 C 0.88958 0.51035 0.70063 0.0
C462 C 0.86854 0.53709 0.72763 0.0
C463 C 0.78025 0.53624 0.75068 0.0
H464 H 0.75334 0.50658 0.75162 0.0
H465 H 0.76158 0.5692 0.74132 0.0
H466 H 0.79468 0.54293 0.77732 0.0
O467 O 0.75582 0.39223 0.69518 0.0
O468 O 0.826 0.37002 0.67276 0.0
H469 H 0.96174 0.48383 0.69775 0.0
H470 H 0.95705 0.54899 0.6959 0.0
C471 C 0.94012 0.51448 0.68772 0.0
H472 H 0.93965 0.51323 0.65888 0.0
H473 H 0.92048 0.36737 0.69913 0.0
O474 O 0.70062 0.4949 0.6882 0.0
C475 C 0.78689 0.35965 0.68861 0.0
Co476 Co 0.05094 0.75982 0.17757 0.0
Co477 Co 0.08759 0.86119 0.15618 0.0
C478 C 0.06195 0.79371 0.10118 0.0
O479 O 0.05298 0.76352 0.12537 0.0
O480 O 0.07508 0.83677 0.10808 0.0
C481 C 0.97408 0.69683 0.1691 0.0
O482 O 0.9547 0.73547 0.15505 0.0
C483 C 0.09636 0.96471 0.13738 0.0
C484 C 0.13578 0.99077 0.18391 0.0
C485 C 0.11163 1.00656 0.15438 0.0
N486 N 0.10915 0.9265 0.15695 0.0
N487 N 0.13408 0.94233 0.18406 0.0
C488 C 0.07153 0.9606 0.1027 0.0
H489 H 0.09267 0.93613 0.08555 0.0
H490 H 0.03552 0.94386 0.10594 0.0
H491 H 0.06811 0.99633 0.08981 0.0
C492 C 0.98657 0.81914 0.22393 0.0
N493 N 0.01983 0.81367 0.19834 0.0
N494 N 0.0318 0.85621 0.18606 0.0
C495 C 1.00428 0.8899 0.20187 0.0
C496 C 0.97513 0.86822 0.22715 0.0
C497 C 0.97049 0.7785 0.2469 0.0
H498 H 0.99876 0.7502 0.24799 0.0
H499 H 0.93754 0.76196 0.23564 0.0
H500 H 0.96244 0.79158 0.27374 0.0
O501 O 0.11792 0.75291 0.19419 0.0
O502 O 0.14363 0.82404 0.17547 0.0
H503 H 0.03364 0.96126 0.20196 0.0
H504 H 0.96862 0.95921 0.19856 0.0
C505 C 1.0027 0.94138 0.19059 0.0
H506 H 1.00514 0.94238 0.16181 0.0
H507 H 0.14705 0.92019 0.20401 0.0
O508 O 0.01445 0.70019 0.18462 0.0
C509 C 0.15187 0.78324 0.1897 0.0
Co510 Co 0.74983 0.05427 0.67704 0.0
Co511 Co 0.65035 0.09728 0.65799 0.0
C512 C 0.71612 0.06473 0.60171 0.0
O513 O 0.74654 0.05498 0.62545 0.0
O514 O 0.67406 0.07976 0.60971 0.0
C515 C 0.81672 0.97961 0.66745 0.0
O516 O 0.78181 0.96114 0.64849 0.0
C517 C 0.54718 0.10192 0.64271 0.0
C518 C 0.5257 0.16371 0.67586 0.0
C519 C 0.50747 0.1267 0.65543 0.0
N520 N 0.58701 0.12286 0.65561 0.0
N521 N 0.574 0.16082 0.67437 0.0
C522 C 0.5472 0.05543 0.62266 0.0
H523 H 0.58169 0.03588 0.62654 0.0
H524 H 0.51636 0.03228 0.63052 0.0
H525 H 0.54322 0.06362 0.5944 0.0
C526 C 0.68896 0.99033 0.72225 0.0
N527 N 0.69446 0.02561 0.69816 0.0
N528 N 0.65203 0.04418 0.69072 0.0
C529 C 0.6183 0.02159 0.71044 0.0
C530 C 0.6403 0.9861 0.73052 0.0
C531 C 0.72976 0.96165 0.73705 0.0
H532 H 0.75915 0.98639 0.74524 0.0
H533 H 0.7443 0.93757 0.71638 0.0
H534 H 0.71812 0.93921 0.75954 0.0
O535 O 0.76005 0.12229 0.69259 0.0
O536 O 0.68987 0.15188 0.67544 0.0
H537 H 0.55042 0.02369 0.73842 0.0
H538 H 0.54581 0.02278 0.69166 0.0
C539 C 0.56691 0.03729 0.71387 0.0
H540 H 0.56477 0.07716 0.71401 0.0
H541 H 0.59787 0.1823 0.68862 0.0
O542 O 0.80889 0.01737 0.68556 0.0
C543 C 0.73155 0.15791 0.68858 0.0
C544 C 0.56286 0.20281 0.03313 0.0
C545 C 0.55606 0.23358 0.06207 0.0
C546 C 0.56242 0.22067 0.99875 0.0
C547 C 0.55561 0.27018 0.99165 0.0
H548 H 0.56945 0.16463 0.03699 0.0
H549 H 0.56896 0.19552 0.97758 0.0
S550 S 0.53236 0.36586 0.05767 0.0
N551 N 0.53922 0.31615 0.0809 0.0
N552 N 0.53907 0.34931 1.01644 0.0
C553 C 0.54738 0.30121 1.02019 0.0
C554 C 0.54736 0.28304 0.05526 0.0
C555 C 0.28638 0.56512 0.50199 0.0
C556 C 0.23673 0.56019 0.49498 0.0
C557 C 0.30422 0.56504 0.53635 0.0
C558 C 0.2733 0.55942 0.56526 0.0
H559 H 0.31176 0.57041 0.48077 0.0
H560 H 0.34257 0.57009 0.5402 0.0
S561 S 0.14052 0.54049 0.5609 0.0
N562 N 0.15722 0.5466 0.51969 0.0
N563 N 0.19036 0.54564 0.58416 0.0
C564 C 0.22363 0.5526 0.55851 0.0
C565 C 0.20548 0.55325 0.52348 0.0
C566 C 0.95374 0.28828 1.0011 0.0
C567 C 0.95497 0.23849 0.99315 0.0
C568 C 0.95382 0.30507 0.03572 0.0
C569 C 0.95579 0.27293 0.06411 0.0
H570 H 0.95154 0.31483 0.98037 0.0
H571 H 0.9518 0.34367 0.04018 0.0
S572 S 0.96325 0.13893 0.05767 0.0
N573 N 0.96052 0.15724 1.01663 0.0
N574 N 0.96144 0.18845 0.08176 0.0
C575 C 0.95867 0.22296 0.05658 0.0
C576 C 0.95798 0.20586 1.02117 0.0
C577 C 0.22868 0.95485 0.50762 0.0
C578 C 0.27831 0.95727 0.49958 0.0
C579 C 0.21216 0.95378 0.54243 0.0
C580 C 0.2445 0.95573 0.57072 0.0
H581 H 0.20225 0.95244 0.48685 0.0
H582 H 0.17376 0.95095 0.54712 0.0
S583 S 0.37818 0.96547 0.56379 0.0
N584 N 0.35944 0.96374 0.52286 0.0
N585 N 0.329 0.96222 0.58797 0.0
C586 C 0.29426 0.95967 0.56296 0.0
C587 C 0.31098 0.96029 0.52754 0.0
C588 C 0.44599 0.80392 1.02562 0.0
C589 C 0.45066 0.77269 0.9968 0.0
C590 C 0.44515 0.78616 0.05999 0.0
C591 C 0.44833 0.73625 0.06723 0.0
H592 H 0.44263 0.84251 1.0217 0.0
H593 H 0.44105 0.81203 0.08108 0.0
S594 S 0.46363 0.63893 1.00135 0.0
N595 N 0.46063 0.68897 0.97803 0.0
N596 N 0.45836 0.65601 0.04259 0.0
C597 C 0.45379 0.70457 0.03876 0.0
C598 C 0.45521 0.72266 1.00365 0.0
C599 C 0.78327 0.45112 0.50149 0.0
C600 C 0.73342 0.45363 0.49423 0.0
C601 C 0.80099 0.4515 0.53587 0.0
C602 C 0.76983 0.45499 0.56479 0.0
H603 H 0.80913 0.44787 0.48037 0.0
H604 H 0.83956 0.44864 0.53972 0.0
S605 S 0.63615 0.46578 0.56017 0.0
N606 N 0.65324 0.46162 0.51889 0.0
N607 N 0.68609 0.46315 0.58355 0.0
C608 C 0.7198 0.45879 0.55792 0.0
C609 C 0.70176 0.45782 0.52275 0.0
C610 C 0.10289 0.75501 0.0504 0.0
C611 C 0.06126 0.77617 0.06474 0.0
C612 C 0.10255 0.73491 1.0166 0.0
C613 C 0.06062 0.73565 0.99597 0.0
H614 H 0.13592 0.7539 0.06549 0.0
H615 H 0.13566 0.71995 1.00617 0.0
S616 S 0.94105 0.78219 1.02316 0.0
N617 N 0.97624 0.79318 0.05712 0.0
N618 N 0.97571 0.75658 0.99324 0.0
C619 C 0.01854 0.75583 1.01039 0.0
C620 C 0.01879 0.7757 0.04493 0.0
C621 C 0.79959 0.06419 0.52245 0.0
C622 C 0.76799 0.06154 0.49376 0.0
C623 C 0.7823 0.06408 0.55698 0.0
C624 C 0.73252 0.06196 0.56456 0.0
H625 H 0.83812 0.06681 0.51829 0.0
H626 H 0.80841 0.06682 0.57795 0.0
S627 S 0.63427 0.05175 0.49925 0.0
N628 N 0.68397 0.05434 0.47555 0.0
N629 N 0.65192 0.05504 0.54043 0.0
C630 C 0.70044 0.05846 0.53626 0.0
C631 C 0.71804 0.05794 0.50097 0.0
C632 C 0.55697 0.89491 0.19229 0.0
C633 C 0.55564 0.86293 0.16381 0.0
C634 C 0.57976 0.93972 0.18943 0.0
C635 C 0.60126 0.95446 0.15783 0.0
H636 H 0.5402 0.88532 0.21695 0.0
H637 H 0.57947 0.96356 0.21193 0.0
S638 S 0.60728 0.88441 0.07546 0.0
N639 N 0.57789 0.84895 0.10291 0.0
N640 N 0.62031 0.93391 0.0977 0.0
C641 C 0.60043 0.92294 0.1292 0.0
C642 C 0.57777 0.8769 0.13218 0.0
C643 C 0.64158 0.60517 0.66387 0.0
C644 C 0.64941 0.5551 0.66449 0.0
C645 C 0.59571 0.62391 0.65671 0.0
C646 C 0.55673 0.59329 0.64867 0.0
H647 H 0.67054 0.62985 0.67039 0.0
H648 H 0.59018 0.66254 0.65886 0.0
S649 S 0.56094 0.45941 0.64245 0.0
N650 N 0.61602 0.4753 0.65386 0.0
N651 N 0.5307 0.51039 0.63882 0.0
C652 C 0.56528 0.54326 0.6468 0.0
C653 C 0.61143 0.52418 0.65519 0.0
C654 C 0.88581 0.5944 0.15443 0.0
C655 C 0.91633 0.55534 0.14624 0.0
C656 C 0.90447 0.64064 0.16101 0.0
C657 C 0.95438 0.64887 0.16073 0.0
H658 H 0.84735 0.58869 0.15711 0.0
H659 H 0.8799 0.66958 0.16778 0.0
S660 S 0.04971 0.56065 0.13771 0.0
N661 N 0.999 0.52972 0.13551 0.0
N662 N 0.0338 0.61598 0.14876 0.0
C663 C 0.98514 0.6109 0.15115 0.0
C664 C 0.96617 0.56426 0.14362 0.0
C665 C 0.87577 0.91297 0.65689 0.0
C666 C 0.86645 0.96216 0.66274 0.0
C667 C 0.92311 0.8962 0.65253 0.0
C668 C 0.96263 0.92818 0.6528 0.0
H669 H 0.84644 0.88713 0.65664 0.0
H670 H 0.92894 0.85772 0.64963 0.0
S671 S 0.95602 0.06158 0.66406 0.0
N672 N 0.89964 0.04317 0.66656 0.0
N673 N 0.98805 0.01223 0.65769 0.0
C674 C 0.95321 0.97787 0.65709 0.0
C675 C 0.90523 0.9947 0.66228 0.0
C676 C 0.59554 0.64098 0.89603 0.0
C677 C 0.54581 0.64979 0.89362 0.0
C678 C 0.61314 0.5941 0.90137 0.0
C679 C 0.58159 0.55477 0.90574 0.0
H680 H 0.62105 0.67028 0.89276 0.0
H681 H 0.65176 0.58833 0.9012 0.0
S682 S 0.44788 0.55994 0.90471 0.0
N683 N 0.46511 0.61619 0.89789 0.0
N684 N 0.49802 0.52847 0.90881 0.0
C685 C 0.53169 0.56364 0.90495 0.0
C686 C 0.51383 0.61109 0.89864 0.0
C687 C 0.90387 0.53087 0.39837 0.0
C688 C 0.86309 0.56086 0.39813 0.0
C689 C 0.94973 0.54969 0.40472 0.0
C690 C 0.9567 0.59931 0.41069 0.0
H691 H 0.90042 0.49241 0.39371 0.0
H692 H 0.98003 0.52528 0.40354 0.0
S693 S 0.86183 0.69329 0.41259 0.0
N694 N 0.83227 0.64253 0.40496 0.0
N695 N 0.91926 0.6782 0.41576 0.0
C696 C 0.91627 0.62972 0.4107 0.0
C697 C 0.86926 0.61041 0.40483 0.0
C698 C 0.92371 0.94274 0.86763 0.0
C699 C 0.91087 0.96392 0.8998 0.0
C700 C 0.94424 0.8966 0.86627 0.0
C701 C 0.95154 0.86983 0.89697 0.0
H702 H 0.91916 0.96257 0.84344 0.0
H703 H 0.95458 0.88185 0.84108 0.0
S704 S 0.92374 0.90944 0.9876 0.0
N705 N 0.9067 0.95516 0.96284 0.0
N706 N 0.9446 0.86793 0.96045 0.0
C707 C 0.93801 0.89035 0.92923 0.0
C708 C 0.91788 0.93764 0.93061 0.0
C709 C 0.56148 0.96796 0.40557 0.0
C710 C 0.55538 0.91796 0.41021 0.0
C711 C 0.60644 0.98756 0.39731 0.0
C712 C 0.64724 0.95798 0.3937 0.0
H713 H 0.53107 0.99219 0.40683 0.0
H714 H 0.60919 0.02629 0.39381 0.0
S715 S 0.65089 0.82491 0.40408 0.0
N716 N 0.59386 0.83926 0.41089 0.0
N717 N 0.6792 0.87632 0.39633 0.0
C718 C 0.64209 0.90806 0.3992 0.0
C719 C 0.59596 0.888 0.40712 0.0
C720 C 0.42818 0.11375 0.88637 0.0
C721 C 0.47428 0.13349 0.89165 0.0
C722 C 0.41423 0.07077 0.90311 0.0
C723 C 0.44561 0.04685 0.92623 0.0
H724 H 0.40254 0.13208 0.86967 0.0
H725 H 0.37819 0.05706 0.89872 0.0
S726 S 0.56818 0.08677 0.95174 0.0
N727 N 0.55052 0.12691 0.92256 0.0
N728 N 0.52312 0.0482 0.95558 0.0
C729 C 0.49129 0.0669 0.93227 0.0
C730 C 0.50602 0.10963 0.91448 0.0
C731 C 0.38177 0.44124 0.42415 0.0
C732 C 0.36399 0.45813 0.39188 0.0
C733 C 0.42795 0.42113 0.42678 0.0
C734 C 0.45714 0.41612 0.39706 0.0
H735 H 0.36042 0.44486 0.44776 0.0
H736 H 0.44094 0.4095 0.45213 0.0
S737 S 0.42714 0.45339 0.30647 0.0
N738 N 0.37915 0.4683 0.3297 0.0
N739 N 0.46529 0.42881 0.33439 0.0
C740 C 0.4395 0.4319 0.36456 0.0
C741 C 0.39303 0.45339 0.36202 0.0
C742 C 0.06398 0.40079 0.86538 0.0
C743 C 0.06417 0.37094 0.89506 0.0
C744 C 0.08577 0.44635 0.8661 0.0
C745 C 0.10789 0.46402 0.89666 0.0
H746 H 0.04657 0.38906 0.84147 0.0
H747 H 0.084 0.46851 0.84279 0.0
S748 S 0.11909 0.40006 0.9812 0.0
N749 N 0.08937 0.36203 0.9558 0.0
N750 N 0.12997 0.44815 0.95692 0.0
C751 C 0.10902 0.43449 0.92635 0.0
C752 C 0.08731 0.38775 0.92558 0.0
C753 C 0.09181 0.1245 0.40479 0.0
C754 C 0.05277 0.09298 0.41059 0.0
C755 C 0.13867 0.10678 0.39966 0.0
C756 C 0.14764 0.05689 0.39894 0.0
H757 H 0.08577 0.16309 0.40313 0.0
H758 H 0.16767 0.13217 0.39492 0.0
S759 S 0.05893 0.95908 0.41481 0.0
N760 N 0.0273 0.00937 0.41725 0.0
N761 N 0.11479 0.97626 0.40684 0.0
C762 C 0.10937 0.02506 0.40579 0.0
C763 C 0.06204 0.04307 0.41182 0.0
C764 C 0.41076 0.36887 0.15879 0.0
C765 C 0.46028 0.36059 0.16326 0.0
C766 C 0.39305 0.41577 0.15373 0.0
C767 C 0.42431 0.4558 0.15197 0.0
H768 H 0.38544 0.33914 0.16027 0.0
H769 H 0.35442 0.42092 0.15203 0.0
S770 S 0.55807 0.45172 0.15866 0.0
N771 N 0.54076 0.39512 0.16317 0.0
N772 N 0.50797 0.48277 0.15332 0.0
C773 C 0.47425 0.44734 0.15473 0.0
C774 C 0.4921 0.39982 0.1605 0.0
C775 C 0.14098 0.41111 0.66112 0.0
C776 C 0.14942 0.46104 0.66294 0.0
C777 C 0.09471 0.39313 0.65411 0.0
C778 C 0.05585 0.42447 0.64749 0.0
H779 H 0.16982 0.38586 0.66653 0.0
H780 H 0.08884 0.35447 0.6552 0.0
S781 S 0.0614 0.5585 0.64485 0.0
N782 N 0.11665 0.54158 0.65486 0.0
N783 N 0.03039 0.50801 0.64052 0.0
C784 C 0.06487 0.47448 0.64697 0.0
C785 C 0.11152 0.49272 0.65506 0.0
C786 C 0.12372 0.09539 0.15922 0.0
C787 C 0.09288 0.05639 0.1515 0.0
C788 C 0.10542 0.14189 0.16528 0.0
C789 C 0.05557 0.15041 0.165 0.0
H790 H 0.16215 0.08949 0.16183 0.0
H791 H 0.13023 0.17084 0.1716 0.0
S792 S 0.95951 0.06212 0.14352 0.0
N793 N 0.01002 0.03092 0.14145 0.0
N794 N 0.97584 0.11762 0.15381 0.0
C795 C 0.02449 0.11238 0.15601 0.0
C796 C 0.04311 0.06549 0.14898 0.0
C797 C 0.39941 0.06594 0.69586 0.0
C798 C 0.36742 0.06212 0.66756 0.0
C799 C 0.44421 0.08848 0.69183 0.0
C800 C 0.45877 0.10681 0.65921 0.0
H801 H 0.38977 0.05143 0.72123 0.0
H802 H 0.46813 0.09053 0.71417 0.0
S803 S 0.38913 0.10483 0.57681 0.0
N804 N 0.35342 0.07874 0.60578 0.0
N805 N 0.43873 0.11949 0.59822 0.0
C806 C 0.42744 0.10315 0.63072 0.0
C807 C 0.38135 0.08124 0.63492 0.0
C808 C 0.76903 0.30226 0.19056 0.0
C809 C 0.80612 0.26755 0.19172 0.0
C810 C 0.72027 0.28864 0.19042 0.0
C811 C 0.7066 0.23969 0.19087 0.0
H812 H 0.77768 0.34032 0.18857 0.0
H813 H 0.69325 0.31665 0.18807 0.0
S814 S 0.7892 0.13471 0.19802 0.0
N815 N 0.82534 0.18204 0.19667 0.0
N816 N 0.73399 0.15662 0.19587 0.0
C817 C 0.74317 0.20475 0.194 0.0
C818 C 0.7928 0.21861 0.19462 0.0
C819 C 0.22718 0.72163 0.69951 0.0
C820 C 0.27562 0.70689 0.69757 0.0
C821 C 0.21475 0.77072 0.70041 0.0
C822 C 0.25021 0.80722 0.69986 0.0
H823 H 0.19842 0.6952 0.69831 0.0
H824 H 0.17686 0.7801 0.7001 0.0
S825 S 0.38261 0.78751 0.70053 0.0
N826 N 0.35945 0.73261 0.6992 0.0
N827 N 0.33617 0.82473 0.70124 0.0
C828 C 0.29889 0.79287 0.70072 0.0
C829 C 0.31154 0.74281 0.69942 0.0
C830 C 0.77478 0.21787 0.85793 0.0
C831 C 0.81037 0.25381 0.86186 0.0
C832 C 0.72556 0.22923 0.85833 0.0
C833 C 0.70963 0.27703 0.86309 0.0
H834 H 0.78492 0.1802 0.85591 0.0
H835 H 0.6999 0.19982 0.85673 0.0
S836 S 0.78806 0.38552 0.86976 0.0
N837 N 0.82619 0.33992 0.86693 0.0
N838 N 0.7337 0.36137 0.8679 0.0
C839 C 0.74483 0.31378 0.86467 0.0
C840 C 0.79512 0.30218 0.86393 0.0
C841 C 0.30361 0.77223 0.36916 0.0
C842 C 0.26863 0.80913 0.36845 0.0
C843 C 0.29053 0.72329 0.36786 0.0
C844 C 0.24187 0.70919 0.36624 0.0
H845 H 0.34144 0.78108 0.37205 0.0
H846 H 0.31867 0.6964 0.37018 0.0
S847 S 0.13659 0.7912 0.3588 0.0
N848 N 0.18334 0.82782 0.3621 0.0
N849 N 0.15892 0.73601 0.36005 0.0
C850 C 0.20675 0.74561 0.36319 0.0
C851 C 0.22007 0.79548 0.36415 0.0
C852 C 0.24179 0.72382 0.86378 0.0
C853 C 0.20417 0.75793 0.8653 0.0
C854 C 0.29032 0.73804 0.86413 0.0
C855 C 0.30354 0.78707 0.86642 0.0
H856 H 0.2338 0.68551 0.86372 0.0
H857 H 0.31757 0.71007 0.86459 0.0
S858 S 0.21929 0.89126 0.86583 0.0
N859 N 0.18376 0.8434 0.86515 0.0
N860 N 0.27489 0.87008 0.8661 0.0
C861 C 0.2664 0.82175 0.86549 0.0
C862 C 0.21683 0.80723 0.8648 0.0
C863 C 0.80508 0.2457 0.37066 0.0
C864 C 0.771 0.20942 0.36272 0.0
C865 C 0.79279 0.2949 0.3699 0.0
C866 C 0.74584 0.30983 0.36144 0.0
H867 H 0.84108 0.23611 0.37908 0.0
H868 H 0.81946 0.32113 0.37817 0.0
S869 S 0.64562 0.23068 0.33232 0.0
N870 N 0.68991 0.19296 0.34139 0.0
N871 N 0.66708 0.28522 0.34027 0.0
C872 C 0.71254 0.27441 0.35083 0.0
C873 C 0.72506 0.22431 0.35133 0.0
C874 C 0.28847 0.79153 0.19581 0.0
C875 C 0.3026 0.74296 0.19895 0.0
C876 C 0.23958 0.80451 0.19488 0.0
C877 C 0.20275 0.76953 0.19739 0.0
H878 H 0.31522 0.81951 0.19188 0.0
H879 H 0.23071 0.84214 0.19065 0.0
S880 S 0.221 0.63817 0.21213 0.0
N881 N 0.27603 0.66045 0.20902 0.0
N882 N 0.18436 0.68467 0.20755 0.0
C883 C 0.21653 0.72128 0.20345 0.0
C884 C 0.26634 0.70806 0.20411 0.0
C885 C 0.71323 0.24516 0.69906 0.0
C886 C 0.7478 0.20819 0.69569 0.0
C887 C 0.72654 0.294 0.69916 0.0
C888 C 0.77501 0.30807 0.69546 0.0
H889 H 0.6752 0.23643 0.70021 0.0
H890 H 0.69821 0.32086 0.70016 0.0
S891 S 0.88033 0.22549 0.69086 0.0
N892 N 0.83325 0.18905 0.69251 0.0
N893 N 0.85831 0.28083 0.6924 0.0
C894 C 0.81031 0.27147 0.69454 0.0
C895 C 0.79673 0.22159 0.69479 0.0
C896 C 0.3837 0.10117 0.29168 0.0
C897 C 0.39842 0.05536 0.3036 0.0
C898 C 0.41078 0.12684 0.26646 0.0
C899 C 0.45443 0.10837 0.25299 0.0
H900 H 0.35144 0.11767 0.30221 0.0
H901 H 0.39728 0.1613 0.25748 0.0
S902 S 0.50858 0.98967 0.27554 0.0
N903 N 0.45696 0.99069 0.29689 0.0
N904 N 0.51217 0.04236 0.2557 0.0
C905 C 0.46977 0.063 0.26538 0.0
C906 C 0.44067 0.03565 0.28895 0.0
C907 C 0.40842 0.37252 0.78582 0.0
C908 C 0.45388 0.38757 0.79813 0.0
C909 C 0.38157 0.40137 0.76232 0.0
C910 C 0.39871 0.4468 0.75108 0.0
H911 H 0.39311 0.33879 0.79486 0.0
H912 H 0.3473 0.38795 0.75292 0.0
S913 S 0.51587 0.50235 0.77572 0.0
N914 N 0.51664 0.44863 0.79421 0.0
N915 N 0.46292 0.50625 0.75644 0.0
C916 C 0.44371 0.46227 0.76392 0.0
C917 C 0.47217 0.43173 0.78561 0.0
C918 C 0.12923 0.41234 0.29122 0.0
C919 C 0.11344 0.45802 0.30285 0.0
C920 C 0.10211 0.38505 0.2669 0.0
C921 C 0.05744 0.40174 0.25412 0.0
H922 H 0.16245 0.39728 0.30122 0.0
H923 H 0.11643 0.35085 0.25798 0.0
S924 S 0.99996 0.51901 0.27654 0.0
N925 N 0.0524 0.5204 0.29672 0.0
N926 N 0.99745 0.46566 0.25746 0.0
C927 C 0.04092 0.44679 0.26643 0.0
C928 C 0.06993 0.4758 0.289 0.0
C929 C 0.10621 0.09486 0.81794 0.0
C930 C 0.07142 0.12735 0.80517 0.0
C931 C 0.13456 0.06695 0.79501 0.0
C932 C 0.1285 0.07017 0.75857 0.0
H933 H 0.1104 0.08989 0.84589 0.0
H934 H 0.15967 0.04107 0.80585 0.0
S935 S 0.04252 0.14982 0.71204 0.0
N936 N 0.0331 0.16159 0.75389 0.0
N937 N 0.08583 0.10892 0.71082 0.0
C938 C 0.09462 0.10331 0.74554 0.0
C939 C 0.0662 0.13199 0.76883 0.0
C940 C 0.62752 0.95681 0.79217 0.0
C941 C 0.6163 0.95372 0.75634 0.0
C942 C 0.60095 0.93076 0.81727 0.0
C943 C 0.5627 0.90026 0.80737 0.0
H944 H 0.65582 0.9809 0.80096 0.0
H945 H 0.60973 0.93522 0.8447 0.0
S946 S 0.51898 0.87963 0.717 0.0
N947 N 0.56449 0.91759 0.71231 0.0
N948 N 0.51482 0.86873 0.75939 0.0
C949 C 0.55171 0.89624 0.77163 0.0
C950 C 0.57845 0.92296 0.74616 0.0
C951 C 0.56171 0.63256 0.29247 0.0
C952 C 0.56552 0.62511 0.25617 0.0
C953 C 0.58923 0.60511 0.31615 0.0
C954 C 0.62195 0.56982 0.30431 0.0
H955 H 0.53565 0.65808 0.30267 0.0
H956 H 0.58376 0.6104 0.34396 0.0
S957 S 0.64579 0.53713 0.2119 0.0
N958 N 0.60505 0.5805 0.20956 0.0
N959 N 0.65685 0.52935 0.25399 0.0
C960 C 0.62712 0.56314 0.2681 0.0
C961 C 0.59888 0.59069 0.24406 0.0
C962 C 0.94055 0.55157 0.76605 0.0
C963 C 0.89485 0.56687 0.75454 0.0
C964 C 0.96827 0.57915 0.78924 0.0
C965 C 0.95045 0.62175 0.80466 0.0
H966 H 0.95559 0.51774 0.75704 0.0
H967 H 1.00414 0.56638 0.79531 0.0
S968 S 0.83176 0.67744 0.78514 0.0
N969 N 0.83383 0.62953 0.7594 0.0
N970 N 0.88252 0.67705 0.80766 0.0
C971 C 0.90409 0.63703 0.79439 0.0
C972 C 0.87695 0.61039 0.76871 0.0
C973 C 0.96222 0.93799 0.268 0.0
C974 C 0.94512 0.89414 0.25405 0.0
C975 C 0.93469 0.96569 0.29121 0.0
C976 C 0.88993 0.94953 0.30403 0.0
H977 H 0.99743 0.95159 0.26084 0.0
H978 H 0.94912 1.00026 0.29926 0.0
S979 S 0.82893 0.83582 0.27748 0.0
N980 N 0.87889 0.83656 0.25395 0.0
N981 N 0.83044 0.88505 0.3019 0.0
C982 C 0.87269 0.90494 0.29126 0.0
C983 C 0.89969 0.87788 0.26571 0.0
loop_
_geom_bond_atom_site_label_1
_geom_bond_atom_site_label_2
_geom_bond_distance
_geom_bond_site_symmetry_2
_ccdc_geom_bond_type
Co0 O3 1.970 . S
Co0 N17 1.989 . S
Co0 O25 1.967 . S
Co0 O32 1.920 . S
Co1 O4 1.966 . S
Co1 N10 2.022 . S
Co1 N18 1.993 . S
Co1 O26 1.941 . S
C2 O3 1.258 . S
C2 O4 1.263 . S
O3 Co0 1.970 . S
O3 C2 1.258 . S
O4 Co1 1.966 . S
O4 C2 1.263 . S
C5 O6 1.235 . S
C5 O32 1.289 . S
O6 C5 1.235 . S
C7 C9 1.400 . S
C7 N10 1.351 . S
C7 C12 1.501 . S
C8 C9 1.387 . S
C8 N11 1.341 . S
C9 C7 1.400 . S
C9 C8 1.387 . S
N10 Co1 2.022 . S
N10 C7 1.351 . S
N10 N11 1.365 . S
N11 C8 1.341 . S
N11 N10 1.365 . S
N11 H31 0.862 . S
C12 C7 1.501 . S
C12 H13 0.961 . S
C12 H14 0.961 . S
C12 H15 0.960 . S
H13 C12 0.961 . S
H14 C12 0.961 . S
H15 C12 0.960 . S
C16 N17 1.342 . S
C16 C20 1.401 . S
C16 C21 1.499 . S
N17 Co0 1.989 . S
N17 C16 1.342 . S
N17 N18 1.388 . S
N18 Co1 1.993 . S
N18 N17 1.388 . S
N18 C19 1.346 . S
C19 N18 1.346 . S
C19 C20 1.396 . S
C19 C29 1.510 . S
C20 C16 1.401 . S
C20 C19 1.396 . S
C21 C16 1.499 . S
C21 H22 0.959 . S
C21 H23 0.960 . S
C21 H24 0.961 . S
H22 C21 0.959 . S
H23 C21 0.960 . S
H24 C21 0.961 . S
O25 Co0 1.967 . S
O25 C33 1.258 . S
O26 Co1 1.941 . S
O26 C33 1.266 . S
H27 C29 0.959 . S
H28 C29 0.961 . S
C29 C19 1.510 . S
C29 H27 0.959 . S
C29 H28 0.961 . S
C29 H30 0.960 . S
H30 C29 0.960 . S
H31 N11 0.862 . S
O32 Co0 1.920 . S
O32 C5 1.289 . S
C33 O25 1.258 . S
C33 O26 1.266 . S
Co34 O37 1.970 . S
Co34 N51 1.989 . S
Co34 O59 1.967 . S
Co34 O66 1.920 . S
Co35 O38 1.966 . S
Co35 N44 2.022 . S
Co35 N52 1.993 . S
Co35 O60 1.941 . S
C36 O37 1.258 . S
C36 O38 1.263 . S
O37 Co34 1.970 . S
O37 C36 1.258 . S
O38 Co35 1.966 . S
O38 C36 1.263 . S
C39 O40 1.235 . S
C39 O66 1.289 . S
O40 C39 1.235 . S
C41 C43 1.400 . S
C41 N44 1.351 . S
C41 C46 1.501 . S
C42 C43 1.387 . S
C42 N45 1.341 . S
C43 C41 1.400 . S
C43 C42 1.387 . S
N44 Co35 2.022 . S
N44 C41 1.351 . S
N44 N45 1.365 . S
N45 C42 1.341 . S
N45 N44 1.365 . S
N45 H65 0.862 . S
C46 C41 1.501 . S
C46 H47 0.961 . S
C46 H48 0.961 . S
C46 H49 0.960 . S
H47 C46 0.961 . S
H48 C46 0.961 . S
H49 C46 0.960 . S
C50 N51 1.342 . S
C50 C54 1.401 . S
C50 C55 1.499 . S
N51 Co34 1.989 . S
N51 C50 1.342 . S
N51 N52 1.388 . S
N52 Co35 1.993 . S
N52 N51 1.388 . S
N52 C53 1.346 . S
C53 N52 1.346 . S
C53 C54 1.396 . S
C53 C63 1.510 . S
C54 C50 1.401 . S
C54 C53 1.396 . S
C55 C50 1.499 . S
C55 H56 0.959 . S
C55 H57 0.960 . S
C55 H58 0.961 . S
H56 C55 0.959 . S
H57 C55 0.960 . S
H58 C55 0.961 . S
O59 Co34 1.967 . S
O59 C67 1.258 . S
O60 Co35 1.941 . S
O60 C67 1.266 . S
H61 C63 0.959 . S
H62 C63 0.961 . S
C63 C53 1.510 . S
C63 H61 0.959 . S
C63 H62 0.961 . S
C63 H64 0.960 . S
H64 C63 0.960 . S
H65 N45 0.862 . S
O66 Co34 1.920 . S
O66 C39 1.289 . S
C67 O59 1.258 . S
C67 O60 1.266 . S
Co68 O71 1.970 . S
Co68 N85 1.989 1_655 S
Co68 O93 1.967 . S
Co68 O100 1.920 . S
Co69 O72 1.966 . S
Co69 N78 2.022 . S
Co69 N86 1.993 1_655 S
Co69 O94 1.941 . S
C70 O71 1.258 . S
C70 O72 1.263 . S
O71 Co68 1.970 . S
O71 C70 1.258 . S
O72 Co69 1.966 . S
O72 C70 1.263 . S
C73 O74 1.235 . S
C73 O100 1.289 1_455 S
O74 C73 1.235 . S
C75 C77 1.400 . S
C75 N78 1.351 . S
C75 C80 1.501 1_655 S
C76 C77 1.387 . S
C76 N79 1.341 . S
C77 C75 1.400 . S
C77 C76 1.387 . S
N78 Co69 2.022 . S
N78 C75 1.351 . S
N78 N79 1.365 . S
N79 C76 1.341 . S
N79 N78 1.365 . S
N79 H99 0.862 . S
C80 C75 1.501 1_455 S
C80 H81 0.961 1_455 S
C80 H82 0.961 . S
C80 H83 0.960 1_455 S
H81 C80 0.961 1_655 S
H82 C80 0.961 . S
H83 C80 0.960 1_655 S
C84 N85 1.342 . S
C84 C88 1.401 . S
C84 C89 1.499 . S
N85 Co68 1.989 1_455 S
N85 C84 1.342 . S
N85 N86 1.388 . S
N86 Co69 1.993 1_455 S
N86 N85 1.388 . S
N86 C87 1.346 . S
C87 N86 1.346 . S
C87 C88 1.396 . S
C87 C97 1.510 . S
C88 C84 1.401 . S
C88 C87 1.396 . S
C89 C84 1.499 . S
C89 H90 0.959 . S
C89 H91 0.960 . S
C89 H92 0.961 . S
H90 C89 0.959 . S
H91 C89 0.960 . S
H92 C89 0.961 . S
O93 Co68 1.967 . S
O93 C101 1.258 . S
O94 Co69 1.941 . S
O94 C101 1.266 . S
H95 C97 0.959 . S
H96 C97 0.961 . S
C97 C87 1.510 . S
C97 H95 0.959 . S
C97 H96 0.961 . S
C97 H98 0.960 . S
H98 C97 0.960 . S
H99 N79 0.862 . S
O100 Co68 1.920 . S
O100 C73 1.289 1_655 S
C101 O93 1.258 . S
C101 O94 1.266 . S
Co102 O105 1.970 . S
Co102 N119 1.989 1_565 S
Co102 O127 1.967 . S
Co102 O134 1.920 . S
Co103 O106 1.966 . S
Co103 N112 2.022 . S
Co103 N120 1.993 1_565 S
Co103 O128 1.941 . S
C104 O105 1.258 . S
C104 O106 1.263 . S
O105 Co102 1.970 . S
O105 C104 1.258 . S
O106 Co103 1.966 . S
O106 C104 1.263 . S
C107 O108 1.235 . S
C107 O134 1.289 1_545 S
O108 C107 1.235 . S
C109 C111 1.400 . S
C109 N112 1.351 . S
C109 C114 1.501 1_565 S
C110 C111 1.387 . S
C110 N113 1.341 . S
C111 C109 1.400 . S
C111 C110 1.387 . S
N112 Co103 2.022 . S
N112 C109 1.351 . S
N112 N113 1.365 . S
N113 C110 1.341 . S
N113 N112 1.365 . S
N113 H133 0.862 . S
C114 C109 1.501 1_545 S
C114 H115 0.961 1_545 S
C114 H116 0.961 . S
C114 H117 0.960 1_545 S
H115 C114 0.961 1_565 S
H116 C114 0.961 . S
H117 C114 0.960 1_565 S
C118 N119 1.342 . S
C118 C122 1.401 . S
C118 C123 1.499 . S
N119 Co102 1.989 1_545 S
N119 C118 1.342 . S
N119 N120 1.388 . S
N120 Co103 1.993 1_545 S
N120 N119 1.388 . S
N120 C121 1.346 . S
C121 N120 1.346 . S
C121 C122 1.396 . S
C121 C131 1.510 . S
C122 C118 1.401 . S
C122 C121 1.396 . S
C123 C118 1.499 . S
C123 H124 0.959 . S
C123 H125 0.960 . S
C123 H126 0.961 . S
H124 C123 0.959 . S
H125 C123 0.960 . S
H126 C123 0.961 . S
O127 Co102 1.967 . S
O127 C135 1.258 . S
O128 Co103 1.941 . S
O128 C135 1.266 . S
H129 C131 0.959 . S
H130 C131 0.961 . S
C131 C121 1.510 . S
C131 H129 0.959 . S
C131 H130 0.961 . S
C131 H132 0.960 . S
H132 C131 0.960 . S
H133 N113 0.862 . S
O134 Co102 1.920 . S
O134 C107 1.289 1_565 S
C135 O127 1.258 . S
C135 O128 1.266 . S
Co136 O139 1.970 . S
Co136 N153 1.989 . S
Co136 O161 1.967 . S
Co136 O168 1.920 . S
Co137 O140 1.966 . S
Co137 N146 2.022 . S
Co137 N154 1.993 . S
Co137 O162 1.941 . S
C138 O139 1.258 . S
C138 O140 1.263 . S
O139 Co136 1.970 . S
O139 C138 1.258 . S
O140 Co137 1.966 . S
O140 C138 1.263 . S
C141 O142 1.235 . S
C141 O168 1.289 . S
O142 C141 1.235 . S
C143 C145 1.400 . S
C143 N146 1.351 . S
C143 C148 1.501 . S
C144 C145 1.387 . S
C144 N147 1.341 . S
C145 C143 1.400 . S
C145 C144 1.387 . S
N146 Co137 2.022 . S
N146 C143 1.351 . S
N146 N147 1.365 . S
N147 C144 1.341 . S
N147 N146 1.365 . S
N147 H167 0.862 . S
C148 C143 1.501 . S
C148 H149 0.961 . S
C148 H150 0.961 . S
C148 H151 0.960 . S
H149 C148 0.961 . S
H150 C148 0.961 . S
H151 C148 0.960 . S
C152 N153 1.342 . S
C152 C156 1.401 . S
C152 C157 1.499 . S
N153 Co136 1.989 . S
N153 C152 1.342 . S
N153 N154 1.388 . S
N154 Co137 1.993 . S
N154 N153 1.388 . S
N154 C155 1.346 . S
C155 N154 1.346 . S
C155 C156 1.396 . S
C155 C165 1.510 . S
C156 C152 1.401 . S
C156 C155 1.396 . S
C157 C152 1.499 . S
C157 H158 0.959 . S
C157 H159 0.960 . S
C157 H160 0.961 . S
H158 C157 0.959 . S
H159 C157 0.960 . S
H160 C157 0.961 . S
O161 Co136 1.967 . S
O161 C169 1.258 . S
O162 Co137 1.941 . S
O162 C169 1.266 . S
H163 C165 0.959 . S
H164 C165 0.961 . S
C165 C155 1.510 . S
C165 H163 0.959 . S
C165 H164 0.961 . S
C165 H166 0.960 . S
H166 C165 0.960 . S
H167 N147 0.862 . S
O168 Co136 1.920 . S
O168 C141 1.289 . S
C169 O161 1.258 . S
C169 O162 1.266 . S
Co170 O173 1.970 . S
Co170 N187 1.989 . S
Co170 O195 1.967 . S
Co170 O202 1.920 . S
Co171 O174 1.966 . S
Co171 N180 2.022 . S
Co171 N188 1.993 . S
Co171 O196 1.941 . S
C172 O173 1.258 . S
C172 O174 1.263 . S
O173 Co170 1.970 . S
O173 C172 1.258 . S
O174 Co171 1.966 . S
O174 C172 1.263 . S
C175 O176 1.235 . S
C175 O202 1.289 . S
O176 C175 1.235 . S
C177 C179 1.400 . S
C177 N180 1.351 . S
C177 C182 1.501 . S
C178 C179 1.387 . S
C178 N181 1.341 . S
C179 C177 1.400 . S
C179 C178 1.387 . S
N180 Co171 2.022 . S
N180 C177 1.351 . S
N180 N181 1.365 . S
N181 C178 1.341 . S
N181 N180 1.365 . S
N181 H201 0.862 . S
C182 C177 1.501 . S
C182 H183 0.961 . S
C182 H184 0.961 . S
C182 H185 0.960 . S
H183 C182 0.961 . S
H184 C182 0.961 . S
H185 C182 0.960 . S
C186 N187 1.342 . S
C186 C190 1.401 . S
C186 C191 1.499 . S
N187 Co170 1.989 . S
N187 C186 1.342 . S
N187 N188 1.388 . S
N188 Co171 1.993 . S
N188 N187 1.388 . S
N188 C189 1.346 . S
C189 N188 1.346 . S
C189 C190 1.396 . S
C189 C199 1.510 . S
C190 C186 1.401 . S
C190 C189 1.396 . S
C191 C186 1.499 . S
C191 H192 0.959 . S
C191 H193 0.960 . S
C191 H194 0.961 . S
H192 C191 0.959 . S
H193 C191 0.960 . S
H194 C191 0.961 . S
O195 Co170 1.967 . S
O195 C203 1.258 . S
O196 Co171 1.941 . S
O196 C203 1.266 . S
H197 C199 0.959 . S
H198 C199 0.961 . S
C199 C189 1.510 . S
C199 H197 0.959 . S
C199 H198 0.961 . S
C199 H200 0.960 . S
H200 C199 0.960 . S
H201 N181 0.862 . S
O202 Co170 1.920 . S
O202 C175 1.289 . S
C203 O195 1.258 . S
C203 O196 1.266 . S
Co204 O207 1.970 . S
Co204 N221 1.989 1_655 S
Co204 O229 1.967 . S
Co204 O236 1.920 . S
Co205 O208 1.966 . S
Co205 N214 2.022 . S
Co205 N222 1.993 1_655 S
Co205 O230 1.941 . S
C206 O207 1.258 . S
C206 O208 1.263 . S
O207 Co204 1.970 . S
O207 C206 1.258 . S
O208 Co205 1.966 . S
O208 C206 1.263 . S
C209 O210 1.235 . S
C209 O236 1.289 1_455 S
O210 C209 1.235 . S
C211 C213 1.400 . S
C211 N214 1.351 . S
C211 C216 1.501 1_655 S
C212 C213 1.387 . S
C212 N215 1.341 . S
C213 C211 1.400 . S
C213 C212 1.387 . S
N214 Co205 2.022 . S
N214 C211 1.351 . S
N214 N215 1.365 . S
N215 C212 1.341 . S
N215 N214 1.365 . S
N215 H235 0.862 . S
C216 C211 1.501 1_455 S
C216 H217 0.961 1_455 S
C216 H218 0.961 . S
C216 H219 0.960 1_455 S
H217 C216 0.961 1_655 S
H218 C216 0.961 . S
H219 C216 0.960 1_655 S
C220 N221 1.342 . S
C220 C224 1.401 . S
C220 C225 1.499 . S
N221 Co204 1.989 1_455 S
N221 C220 1.342 . S
N221 N222 1.388 . S
N222 Co205 1.993 1_455 S
N222 N221 1.388 . S
N222 C223 1.346 . S
C223 N222 1.346 . S
C223 C224 1.396 . S
C223 C233 1.510 . S
C224 C220 1.401 . S
C224 C223 1.396 . S
C225 C220 1.499 . S
C225 H226 0.959 . S
C225 H227 0.960 . S
C225 H228 0.961 . S
H226 C225 0.959 . S
H227 C225 0.960 . S
H228 C225 0.961 . S
O229 Co204 1.967 . S
O229 C237 1.258 . S
O230 Co205 1.941 . S
O230 C237 1.266 . S
H231 C233 0.959 . S
H232 C233 0.961 . S
C233 C223 1.510 . S
C233 H231 0.959 . S
C233 H232 0.961 . S
C233 H234 0.960 . S
H234 C233 0.960 . S
H235 N215 0.862 . S
O236 Co204 1.920 . S
O236 C209 1.289 1_655 S
C237 O229 1.258 . S
C237 O230 1.266 . S
Co238 O241 1.970 . S
Co238 N255 1.989 1_565 S
Co238 O263 1.967 . S
Co238 O270 1.920 . S
Co239 O242 1.966 . S
Co239 N248 2.022 . S
Co239 N256 1.993 1_565 S
Co239 O264 1.941 . S
C240 O241 1.258 . S
C240 O242 1.263 . S
O241 Co238 1.970 . S
O241 C240 1.258 . S
O242 Co239 1.966 . S
O242 C240 1.263 . S
C243 O244 1.235 . S
C243 O270 1.289 1_545 S
O244 C243 1.235 . S
C245 C247 1.400 . S
C245 N248 1.351 . S
C245 C250 1.501 1_565 S
C246 C247 1.387 . S
C246 N249 1.341 . S
C247 C245 1.400 . S
C247 C246 1.387 . S
N248 Co239 2.022 . S
N248 C245 1.351 . S
N248 N249 1.365 . S
N249 C246 1.341 . S
N249 N248 1.365 . S
N249 H269 0.862 . S
C250 C245 1.501 1_545 S
C250 H251 0.961 1_545 S
C250 H252 0.961 . S
C250 H253 0.960 1_545 S
H251 C250 0.961 1_565 S
H252 C250 0.961 . S
H253 C250 0.960 1_565 S
C254 N255 1.342 . S
C254 C258 1.401 . S
C254 C259 1.499 . S
N255 Co238 1.989 1_545 S
N255 C254 1.342 . S
N255 N256 1.388 . S
N256 Co239 1.993 1_545 S
N256 N255 1.388 . S
N256 C257 1.346 . S
C257 N256 1.346 . S
C257 C258 1.396 . S
C257 C267 1.510 . S
C258 C254 1.401 . S
C258 C257 1.396 . S
C259 C254 1.499 . S
C259 H260 0.959 . S
C259 H261 0.960 . S
C259 H262 0.961 . S
H260 C259 0.959 . S
H261 C259 0.960 . S
H262 C259 0.961 . S
O263 Co238 1.967 . S
O263 C271 1.258 . S
O264 Co239 1.941 . S
O264 C271 1.266 . S
H265 C267 0.959 . S
H266 C267 0.961 . S
C267 C257 1.510 . S
C267 H265 0.959 . S
C267 H266 0.961 . S
C267 H268 0.960 . S
H268 C267 0.960 . S
H269 N249 0.862 . S
O270 Co238 1.920 . S
O270 C243 1.289 1_565 S
C271 O263 1.258 . S
C271 O264 1.266 . S
Co272 O275 1.970 . S
Co272 N289 1.989 . S
Co272 O297 1.967 . S
Co272 O304 1.920 . S
Co273 O276 1.966 . S
Co273 N282 2.022 . S
Co273 N290 1.993 . S
Co273 O298 1.941 . S
C274 O275 1.258 . S
C274 O276 1.263 . S
O275 Co272 1.970 . S
O275 C274 1.258 . S
O276 Co273 1.966 . S
O276 C274 1.263 . S
C277 O278 1.235 . S
C277 O304 1.289 . S
O278 C277 1.235 . S
C279 C281 1.400 . S
C279 N282 1.351 . S
C279 C284 1.501 . S
C280 C281 1.387 . S
C280 N283 1.341 . S
C281 C279 1.400 . S
C281 C280 1.387 . S
N282 Co273 2.022 . S
N282 C279 1.351 . S
N282 N283 1.365 . S
N283 C280 1.341 . S
N283 N282 1.365 . S
N283 H303 0.862 . S
C284 C279 1.501 . S
C284 H285 0.961 . S
C284 H286 0.961 . S
C284 H287 0.960 . S
H285 C284 0.961 . S
H286 C284 0.961 . S
H287 C284 0.960 . S
C288 N289 1.342 . S
C288 C292 1.401 . S
C288 C293 1.499 . S
N289 Co272 1.989 . S
N289 C288 1.342 . S
N289 N290 1.388 . S
N290 Co273 1.993 . S
N290 N289 1.388 . S
N290 C291 1.346 . S
C291 N290 1.346 . S
C291 C292 1.396 . S
C291 C301 1.510 . S
C292 C288 1.401 . S
C292 C291 1.396 . S
C293 C288 1.499 . S
C293 H294 0.959 . S
C293 H295 0.960 . S
C293 H296 0.961 . S
H294 C293 0.959 . S
H295 C293 0.960 . S
H296 C293 0.961 . S
O297 Co272 1.967 . S
O297 C305 1.258 . S
O298 Co273 1.941 . S
O298 C305 1.266 . S
H299 C301 0.959 . S
H300 C301 0.961 . S
C301 C291 1.510 . S
C301 H299 0.959 . S
C301 H300 0.961 . S
C301 H302 0.960 . S
H302 C301 0.960 . S
H303 N283 0.862 . S
O304 Co272 1.920 . S
O304 C277 1.289 . S
C305 O297 1.258 . S
C305 O298 1.266 . S
Co306 O309 1.970 . S
Co306 N323 1.989 . S
Co306 O331 1.967 . S
Co306 O338 1.920 . S
Co307 O310 1.966 . S
Co307 N316 2.022 . S
Co307 N324 1.993 . S
Co307 O332 1.941 . S
C308 O309 1.258 . S
C308 O310 1.263 . S
O309 Co306 1.970 . S
O309 C308 1.258 . S
O310 Co307 1.966 . S
O310 C308 1.263 . S
C311 O312 1.235 . S
C311 O338 1.289 . S
O312 C311 1.235 . S
C313 C315 1.400 . S
C313 N316 1.351 . S
C313 C318 1.501 . S
C314 C315 1.387 . S
C314 N317 1.341 . S
C315 C313 1.400 . S
C315 C314 1.387 . S
N316 Co307 2.022 . S
N316 C313 1.351 . S
N316 N317 1.365 . S
N317 C314 1.341 . S
N317 N316 1.365 . S
N317 H337 0.862 . S
C318 C313 1.501 . S
C318 H319 0.961 . S
C318 H320 0.961 . S
C318 H321 0.960 . S
H319 C318 0.961 . S
H320 C318 0.961 . S
H321 C318 0.960 . S
C322 N323 1.342 . S
C322 C326 1.401 . S
C322 C327 1.499 . S
N323 Co306 1.989 . S
N323 C322 1.342 . S
N323 N324 1.388 . S
N324 Co307 1.993 . S
N324 N323 1.388 . S
N324 C325 1.346 . S
C325 N324 1.346 . S
C325 C326 1.396 . S
C325 C335 1.510 . S
C326 C322 1.401 . S
C326 C325 1.396 . S
C327 C322 1.499 . S
C327 H328 0.959 . S
C327 H329 0.960 . S
C327 H330 0.961 . S
H328 C327 0.959 . S
H329 C327 0.960 . S
H330 C327 0.961 . S
O331 Co306 1.967 . S
O331 C339 1.258 . S
O332 Co307 1.941 . S
O332 C339 1.266 . S
H333 C335 0.959 . S
H334 C335 0.961 . S
C335 C325 1.510 . S
C335 H333 0.959 . S
C335 H334 0.961 . S
C335 H336 0.960 . S
H336 C335 0.960 . S
H337 N317 0.862 . S
O338 Co306 1.920 . S
O338 C311 1.289 . S
C339 O331 1.258 . S
C339 O332 1.266 . S
Co340 O343 1.970 . S
Co340 N357 1.989 1_455 S
Co340 O365 1.967 . S
Co340 O372 1.920 . S
Co341 O344 1.966 . S
Co341 N350 2.022 . S
Co341 N358 1.993 1_455 S
Co341 O366 1.941 . S
C342 O343 1.258 . S
C342 O344 1.263 . S
O343 Co340 1.970 . S
O343 C342 1.258 . S
O344 Co341 1.966 . S
O344 C342 1.263 . S
C345 O346 1.235 . S
C345 O372 1.289 1_655 S
O346 C345 1.235 . S
C347 C349 1.400 . S
C347 N350 1.351 . S
C347 C352 1.501 1_455 S
C348 C349 1.387 . S
C348 N351 1.341 . S
C349 C347 1.400 . S
C349 C348 1.387 . S
N350 Co341 2.022 . S
N350 C347 1.351 . S
N350 N351 1.365 . S
N351 C348 1.341 . S
N351 N350 1.365 . S
N351 H371 0.862 . S
C352 C347 1.501 1_655 S
C352 H353 0.961 1_655 S
C352 H354 0.961 . S
C352 H355 0.960 1_655 S
H353 C352 0.961 1_455 S
H354 C352 0.961 . S
H355 C352 0.960 1_455 S
C356 N357 1.342 . S
C356 C360 1.401 . S
C356 C361 1.499 . S
N357 Co340 1.989 1_655 S
N357 C356 1.342 . S
N357 N358 1.388 . S
N358 Co341 1.993 1_655 S
N358 N357 1.388 . S
N358 C359 1.346 . S
C359 N358 1.346 . S
C359 C360 1.396 . S
C359 C369 1.510 . S
C360 C356 1.401 . S
C360 C359 1.396 . S
C361 C356 1.499 . S
C361 H362 0.959 . S
C361 H363 0.960 . S
C361 H364 0.961 . S
H362 C361 0.959 . S
H363 C361 0.960 . S
H364 C361 0.961 . S
O365 Co340 1.967 . S
O365 C373 1.258 . S
O366 Co341 1.941 . S
O366 C373 1.266 . S
H367 C369 0.959 . S
H368 C369 0.961 . S
C369 C359 1.510 . S
C369 H367 0.959 . S
C369 H368 0.961 . S
C369 H370 0.960 . S
H370 C369 0.960 . S
H371 N351 0.862 . S
O372 Co340 1.920 . S
O372 C345 1.289 1_455 S
C373 O365 1.258 . S
C373 O366 1.266 . S
Co374 O377 1.970 . S
Co374 N391 1.989 1_545 S
Co374 O399 1.967 . S
Co374 O406 1.920 . S
Co375 O378 1.966 . S
Co375 N384 2.022 . S
Co375 N392 1.993 1_545 S
Co375 O400 1.941 . S
C376 O377 1.258 . S
C376 O378 1.263 . S
O377 Co374 1.970 . S
O377 C376 1.258 . S
O378 Co375 1.966 . S
O378 C376 1.263 . S
C379 O380 1.235 . S
C379 O406 1.289 1_565 S
O380 C379 1.235 . S
C381 C383 1.400 . S
C381 N384 1.351 . S
C381 C386 1.501 1_545 S
C382 C383 1.387 . S
C382 N385 1.341 . S
C383 C381 1.400 . S
C383 C382 1.387 . S
N384 Co375 2.022 . S
N384 C381 1.351 . S
N384 N385 1.365 . S
N385 C382 1.341 . S
N385 N384 1.365 . S
N385 H405 0.862 . S
C386 C381 1.501 1_565 S
C386 H387 0.961 1_565 S
C386 H388 0.961 . S
C386 H389 0.960 1_565 S
H387 C386 0.961 1_545 S
H388 C386 0.961 . S
H389 C386 0.960 1_545 S
C390 N391 1.342 . S
C390 C394 1.401 . S
C390 C395 1.499 . S
N391 Co374 1.989 1_565 S
N391 C390 1.342 . S
N391 N392 1.388 . S
N392 Co375 1.993 1_565 S
N392 N391 1.388 . S
N392 C393 1.346 . S
C393 N392 1.346 . S
C393 C394 1.396 . S
C393 C403 1.510 . S
C394 C390 1.401 . S
C394 C393 1.396 . S
C395 C390 1.499 . S
C395 H396 0.959 . S
C395 H397 0.960 . S
C395 H398 0.961 . S
H396 C395 0.959 . S
H397 C395 0.960 . S
H398 C395 0.961 . S
O399 Co374 1.967 . S
O399 C407 1.258 . S
O400 Co375 1.941 . S
O400 C407 1.266 . S
H401 C403 0.959 . S
H402 C403 0.961 . S
C403 C393 1.510 . S
C403 H401 0.959 . S
C403 H402 0.961 . S
C403 H404 0.960 . S
H404 C403 0.960 . S
H405 N385 0.862 . S
O406 Co374 1.920 . S
O406 C379 1.289 1_545 S
C407 O399 1.258 . S
C407 O400 1.266 . S
Co408 O411 1.970 . S
Co408 N425 1.989 . S
Co408 O433 1.967 . S
Co408 O440 1.920 . S
Co409 O412 1.966 . S
Co409 N418 2.022 . S
Co409 N426 1.993 . S
Co409 O434 1.941 . S
C410 O411 1.258 . S
C410 O412 1.263 . S
O411 Co408 1.970 . S
O411 C410 1.258 . S
O412 Co409 1.966 . S
O412 C410 1.263 . S
C413 O414 1.235 . S
C413 O440 1.289 . S
O414 C413 1.235 . S
C415 C417 1.400 . S
C415 N418 1.351 . S
C415 C420 1.501 . S
C416 C417 1.387 . S
C416 N419 1.341 . S
C417 C415 1.400 . S
C417 C416 1.387 . S
N418 Co409 2.022 . S
N418 C415 1.351 . S
N418 N419 1.365 . S
N419 C416 1.341 . S
N419 N418 1.365 . S
N419 H439 0.862 . S
C420 C415 1.501 . S
C420 H421 0.961 . S
C420 H422 0.961 . S
C420 H423 0.960 . S
H421 C420 0.961 . S
H422 C420 0.961 . S
H423 C420 0.960 . S
C424 N425 1.342 . S
C424 C428 1.401 . S
C424 C429 1.499 . S
N425 Co408 1.989 . S
N425 C424 1.342 . S
N425 N426 1.388 . S
N426 Co409 1.993 . S
N426 N425 1.388 . S
N426 C427 1.346 . S
C427 N426 1.346 . S
C427 C428 1.396 . S
C427 C437 1.510 . S
C428 C424 1.401 . S
C428 C427 1.396 . S
C429 C424 1.499 . S
C429 H430 0.959 . S
C429 H431 0.960 . S
C429 H432 0.961 . S
H430 C429 0.959 . S
H431 C429 0.960 . S
H432 C429 0.961 . S
O433 Co408 1.967 . S
O433 C441 1.258 . S
O434 Co409 1.941 . S
O434 C441 1.266 . S
H435 C437 0.959 . S
H436 C437 0.961 . S
C437 C427 1.510 . S
C437 H435 0.959 . S
C437 H436 0.961 . S
C437 H438 0.960 . S
H438 C437 0.960 . S
H439 N419 0.862 . S
O440 Co408 1.920 . S
O440 C413 1.289 . S
C441 O433 1.258 . S
C441 O434 1.266 . S
Co442 O445 1.970 . S
Co442 N459 1.989 . S
Co442 O467 1.967 . S
Co442 O474 1.920 . S
Co443 O446 1.966 . S
Co443 N452 2.022 . S
Co443 N460 1.993 . S
Co443 O468 1.941 . S
C444 O445 1.258 . S
C444 O446 1.263 . S
O445 Co442 1.970 . S
O445 C444 1.258 . S
O446 Co443 1.966 . S
O446 C444 1.263 . S
C447 O448 1.235 . S
C447 O474 1.289 . S
O448 C447 1.235 . S
C449 C451 1.400 . S
C449 N452 1.351 . S
C449 C454 1.501 . S
C450 C451 1.387 . S
C450 N453 1.341 . S
C451 C449 1.400 . S
C451 C450 1.387 . S
N452 Co443 2.022 . S
N452 C449 1.351 . S
N452 N453 1.365 . S
N453 C450 1.341 . S
N453 N452 1.365 . S
N453 H473 0.862 . S
C454 C449 1.501 . S
C454 H455 0.961 . S
C454 H456 0.961 . S
C454 H457 0.960 . S
H455 C454 0.961 . S
H456 C454 0.961 . S
H457 C454 0.960 . S
C458 N459 1.342 . S
C458 C462 1.401 . S
C458 C463 1.499 . S
N459 Co442 1.989 . S
N459 C458 1.342 . S
N459 N460 1.388 . S
N460 Co443 1.993 . S
N460 N459 1.388 . S
N460 C461 1.346 . S
C461 N460 1.346 . S
C461 C462 1.396 . S
C461 C471 1.510 . S
C462 C458 1.401 . S
C462 C461 1.396 . S
C463 C458 1.499 . S
C463 H464 0.959 . S
C463 H465 0.960 . S
C463 H466 0.961 . S
H464 C463 0.959 . S
H465 C463 0.960 . S
H466 C463 0.961 . S
O467 Co442 1.967 . S
O467 C475 1.258 . S
O468 Co443 1.941 . S
O468 C475 1.266 . S
H469 C471 0.959 . S
H470 C471 0.961 . S
C471 C461 1.510 . S
C471 H469 0.959 . S
C471 H470 0.961 . S
C471 H472 0.960 . S
H472 C471 0.960 . S
H473 N453 0.862 . S
O474 Co442 1.920 . S
O474 C447 1.289 . S
C475 O467 1.258 . S
C475 O468 1.266 . S
Co476 O479 1.970 . S
Co476 N493 1.989 1_455 S
Co476 O501 1.967 . S
Co476 O508 1.920 . S
Co477 O480 1.966 . S
Co477 N486 2.022 . S
Co477 N494 1.993 1_455 S
Co477 O502 1.941 . S
C478 O479 1.258 . S
C478 O480 1.263 . S
O479 Co476 1.970 . S
O479 C478 1.258 . S
O480 Co477 1.966 . S
O480 C478 1.263 . S
C481 O482 1.235 . S
C481 O508 1.289 1_655 S
O482 C481 1.235 . S
C483 C485 1.400 . S
C483 N486 1.351 . S
C483 C488 1.501 1_455 S
C484 C485 1.387 . S
C484 N487 1.341 . S
C485 C483 1.400 . S
C485 C484 1.387 . S
N486 Co477 2.022 . S
N486 C483 1.351 . S
N486 N487 1.365 . S
N487 C484 1.341 . S
N487 N486 1.365 . S
N487 H507 0.862 . S
C488 C483 1.501 1_655 S
C488 H489 0.961 1_655 S
C488 H490 0.961 . S
C488 H491 0.960 1_655 S
H489 C488 0.961 1_455 S
H490 C488 0.961 . S
H491 C488 0.960 1_455 S
C492 N493 1.342 . S
C492 C496 1.401 . S
C492 C497 1.499 . S
N493 Co476 1.989 1_655 S
N493 C492 1.342 . S
N493 N494 1.388 . S
N494 Co477 1.993 1_655 S
N494 N493 1.388 . S
N494 C495 1.346 . S
C495 N494 1.346 . S
C495 C496 1.396 . S
C495 C505 1.510 . S
C496 C492 1.401 . S
C496 C495 1.396 . S
C497 C492 1.499 . S
C497 H498 0.959 . S
C497 H499 0.960 . S
C497 H500 0.961 . S
H498 C497 0.959 . S
H499 C497 0.960 . S
H500 C497 0.961 . S
O501 Co476 1.967 . S
O501 C509 1.258 . S
O502 Co477 1.941 . S
O502 C509 1.266 . S
H503 C505 0.959 . S
H504 C505 0.961 . S
C505 C495 1.510 . S
C505 H503 0.959 . S
C505 H504 0.961 . S
C505 H506 0.960 . S
H506 C505 0.960 . S
H507 N487 0.862 . S
O508 Co476 1.920 . S
O508 C481 1.289 1_455 S
C509 O501 1.258 . S
C509 O502 1.266 . S
Co510 O513 1.970 . S
Co510 N527 1.989 1_545 S
Co510 O535 1.967 . S
Co510 O542 1.920 . S
Co511 O514 1.966 . S
Co511 N520 2.022 . S
Co511 N528 1.993 1_545 S
Co511 O536 1.941 . S
C512 O513 1.258 . S
C512 O514 1.263 . S
O513 Co510 1.970 . S
O513 C512 1.258 . S
O514 Co511 1.966 . S
O514 C512 1.263 . S
C515 O516 1.235 . S
C515 O542 1.289 1_565 S
O516 C515 1.235 . S
C517 C519 1.400 . S
C517 N520 1.351 . S
C517 C522 1.501 1_545 S
C518 C519 1.387 . S
C518 N521 1.341 . S
C519 C517 1.400 . S
C519 C518 1.387 . S
N520 Co511 2.022 . S
N520 C517 1.351 . S
N520 N521 1.365 . S
N521 C518 1.341 . S
N521 N520 1.365 . S
N521 H541 0.862 . S
C522 C517 1.501 1_565 S
C522 H523 0.961 1_565 S
C522 H524 0.961 . S
C522 H525 0.960 1_565 S
H523 C522 0.961 1_545 S
H524 C522 0.961 . S
H525 C522 0.960 1_545 S
C526 N527 1.342 . S
C526 C530 1.401 . S
C526 C531 1.499 . S
N527 Co510 1.989 1_565 S
N527 C526 1.342 . S
N527 N528 1.388 . S
N528 Co511 1.993 1_565 S
N528 N527 1.388 . S
N528 C529 1.346 . S
C529 N528 1.346 . S
C529 C530 1.396 . S
C529 C539 1.510 . S
C530 C526 1.401 . S
C530 C529 1.396 . S
C531 C526 1.499 . S
C531 H532 0.959 . S
C531 H533 0.960 . S
C531 H534 0.961 . S
H532 C531 0.959 . S
H533 C531 0.960 . S
H534 C531 0.961 . S
O535 Co510 1.967 . S
O535 C543 1.258 . S
O536 Co511 1.941 . S
O536 C543 1.266 . S
H537 C539 0.959 . S
H538 C539 0.961 . S
C539 C529 1.510 . S
C539 H537 0.959 . S
C539 H538 0.961 . S
C539 H540 0.960 . S
H540 C539 0.960 . S
H541 N521 0.862 . S
O542 Co510 1.920 . S
O542 C515 1.289 1_545 S
C543 O535 1.258 . S
C543 O536 1.266 . S
C544 C545 1.369 . S
C544 C546 1.419 1_554 S
C544 H548 0.930 . S
C545 C544 1.369 . S
C545 C554 1.429 . S
C546 C544 1.419 1_556 S
C546 C547 1.363 . S
C546 H549 0.929 . S
C547 C546 1.363 . S
C547 C553 1.428 . S
H548 C544 0.930 . S
H549 C546 0.929 . S
S550 N551 1.613 . S
S550 N552 1.610 1_554 S
N551 S550 1.613 . S
N551 C554 1.350 . S
N552 S550 1.610 1_556 S
N552 C553 1.351 . S
C553 C547 1.428 . S
C553 N552 1.351 . S
C553 C554 1.434 1_556 S
C554 C545 1.429 . S
C554 N551 1.350 . S
C554 C553 1.434 1_554 S
C555 C556 1.369 . S
C555 C557 1.419 . S
C555 H559 0.930 . S
C556 C555 1.369 . S
C556 C565 1.429 . S
C557 C555 1.419 . S
C557 C558 1.363 . S
C557 H560 0.929 . S
C558 C557 1.363 . S
C558 C564 1.428 . S
H559 C555 0.930 . S
H560 C557 0.929 . S
S561 N562 1.613 . S
S561 N563 1.610 . S
N562 S561 1.613 . S
N562 C565 1.350 . S
N563 S561 1.610 . S
N563 C564 1.351 . S
C564 C558 1.428 . S
C564 N563 1.351 . S
C564 C565 1.434 . S
C565 C556 1.429 . S
C565 N562 1.350 . S
C565 C564 1.434 . S
C566 C567 1.369 . S
C566 C568 1.419 1_556 S
C566 H570 0.930 . S
C567 C566 1.369 . S
C567 C576 1.429 1_655 S
C568 C566 1.419 1_554 S
C568 C569 1.363 . S
C568 H571 0.929 . S
C569 C568 1.363 . S
C569 C575 1.428 1_655 S
H570 C566 0.930 . S
H571 C568 0.929 . S
S572 N573 1.613 1_554 S
S572 N574 1.610 . S
N573 S572 1.613 1_556 S
N573 C576 1.350 . S
N574 S572 1.610 . S
N574 C575 1.351 . S
C575 C569 1.428 1_455 S
C575 N574 1.351 . S
C575 C576 1.434 1_554 S
C576 C567 1.429 1_455 S
C576 N573 1.350 . S
C576 C575 1.434 1_556 S
C577 C578 1.369 1_545 S
C577 C579 1.419 . S
C577 H581 0.930 . S
C578 C577 1.369 1_565 S
C578 C587 1.429 . S
C579 C577 1.419 . S
C579 C580 1.363 1_545 S
C579 H582 0.929 . S
C580 C579 1.363 1_565 S
C580 C586 1.428 . S
H581 C577 0.930 . S
H582 C579 0.929 . S
S583 N584 1.613 . S
S583 N585 1.610 . S
N584 S583 1.613 . S
N584 C587 1.350 . S
N585 S583 1.610 . S
N585 C586 1.351 . S
C586 C580 1.428 . S
C586 N585 1.351 . S
C586 C587 1.434 . S
C587 C578 1.429 . S
C587 N584 1.350 . S
C587 C586 1.434 . S
C588 C589 1.369 . S
C588 C590 1.419 1_556 S
C588 H592 0.930 . S
C589 C588 1.369 . S
C589 C598 1.429 . S
C590 C588 1.419 1_554 S
C590 C591 1.363 . S
C590 H593 0.929 . S
C591 C590 1.363 . S
C591 C597 1.428 . S
H592 C588 0.930 . S
H593 C590 0.929 . S
S594 N595 1.613 . S
S594 N596 1.610 1_556 S
N595 S594 1.613 . S
N595 C598 1.350 . S
N596 S594 1.610 1_554 S
N596 C597 1.351 . S
C597 C591 1.428 . S
C597 N596 1.351 . S
C597 C598 1.434 1_554 S
C598 C589 1.429 . S
C598 N595 1.350 . S
C598 C597 1.434 1_556 S
C599 C600 1.369 . S
C599 C601 1.419 . S
C599 H603 0.930 . S
C600 C599 1.369 . S
C600 C609 1.429 . S
C601 C599 1.419 . S
C601 C602 1.363 . S
C601 H604 0.929 . S
C602 C601 1.363 . S
C602 C608 1.428 . S
H603 C599 0.930 . S
H604 C601 0.929 . S
S605 N606 1.613 . S
S605 N607 1.610 . S
N606 S605 1.613 . S
N606 C609 1.350 . S
N607 S605 1.610 . S
N607 C608 1.351 . S
C608 C602 1.428 . S
C608 N607 1.351 . S
C608 C609 1.434 . S
C609 C600 1.429 . S
C609 N606 1.350 . S
C609 C608 1.434 . S
C610 C611 1.369 . S
C610 C612 1.419 1_554 S
C610 H614 0.930 . S
C611 C610 1.369 . S
C611 C620 1.429 1_455 S
C612 C610 1.419 1_556 S
C612 C613 1.363 . S
C612 H615 0.929 . S
C613 C612 1.363 . S
C613 C619 1.428 1_455 S
H614 C610 0.930 . S
H615 C612 0.929 . S
S616 N617 1.613 1_556 S
S616 N618 1.610 . S
N617 S616 1.613 1_554 S
N617 C620 1.350 . S
N618 S616 1.610 . S
N618 C619 1.351 . S
C619 C613 1.428 1_655 S
C619 N618 1.351 . S
C619 C620 1.434 1_556 S
C620 C611 1.429 1_655 S
C620 N617 1.350 . S
C620 C619 1.434 1_554 S
C621 C622 1.369 . S
C621 C623 1.419 . S
C621 H625 0.930 . S
C622 C621 1.369 . S
C622 C631 1.429 . S
C623 C621 1.419 . S
C623 C624 1.363 . S
C623 H626 0.929 . S
C624 C623 1.363 . S
C624 C630 1.428 . S
H625 C621 0.930 . S
H626 C623 0.929 . S
S627 N628 1.613 1_565 S
S627 N629 1.610 1_565 S
N628 S627 1.613 1_545 S
N628 C631 1.350 . S
N629 S627 1.610 1_545 S
N629 C630 1.351 . S
C630 C624 1.428 . S
C630 N629 1.351 . S
C630 C631 1.434 . S
C631 C622 1.429 . S
C631 N628 1.350 . S
C631 C630 1.434 . S
C632 C633 1.369 . S
C632 C634 1.419 . S
C632 H636 0.930 . S
C633 C632 1.369 . S
C633 C642 1.429 . S
C634 C632 1.419 . S
C634 C635 1.363 . S
C634 H637 0.929 1_565 S
C635 C634 1.363 . S
C635 C641 1.428 . S
H636 C632 0.930 . S
H637 C634 0.929 1_545 S
S638 N639 1.613 . S
S638 N640 1.610 . S
N639 S638 1.613 . S
N639 C642 1.350 . S
N640 S638 1.610 . S
N640 C641 1.351 . S
C641 C635 1.428 . S
C641 N640 1.351 . S
C641 C642 1.434 . S
C642 C633 1.429 . S
C642 N639 1.350 . S
C642 C641 1.434 . S
C643 C644 1.369 . S
C643 C645 1.419 . S
C643 H647 0.930 . S
C644 C643 1.369 . S
C644 C653 1.429 . S
C645 C643 1.419 . S
C645 C646 1.363 . S
C645 H648 0.929 . S
C646 C645 1.363 . S
C646 C652 1.428 . S
H647 C643 0.930 . S
H648 C645 0.929 . S
S649 N650 1.613 . S
S649 N651 1.610 . S
N650 S649 1.613 . S
N650 C653 1.350 . S
N651 S649 1.610 . S
N651 C652 1.351 . S
C652 C646 1.428 . S
C652 N651 1.351 . S
C652 C653 1.434 . S
C653 C644 1.429 . S
C653 N650 1.350 . S
C653 C652 1.434 . S
C654 C655 1.369 . S
C654 C656 1.419 . S
C654 H658 0.930 . S
C655 C654 1.369 . S
C655 C664 1.429 1_655 S
C656 C654 1.419 . S
C656 C657 1.363 . S
C656 H659 0.929 . S
C657 C656 1.363 . S
C657 C663 1.428 1_655 S
H658 C654 0.930 . S
H659 C656 0.929 . S
S660 N661 1.613 . S
S660 N662 1.610 . S
N661 S660 1.613 . S
N661 C664 1.350 . S
N662 S660 1.610 . S
N662 C663 1.351 . S
C663 C657 1.428 1_455 S
C663 N662 1.351 . S
C663 C664 1.434 . S
C664 C655 1.429 1_455 S
C664 N661 1.350 . S
C664 C663 1.434 . S
C665 C666 1.369 . S
C665 C667 1.419 . S
C665 H669 0.930 . S
C666 C665 1.369 . S
C666 C675 1.429 1_565 S
C667 C665 1.419 . S
C667 C668 1.363 . S
C667 H670 0.929 . S
C668 C667 1.363 . S
C668 C674 1.428 1_565 S
H669 C665 0.930 . S
H670 C667 0.929 . S
S671 N672 1.613 . S
S671 N673 1.610 . S
N672 S671 1.613 . S
N672 C675 1.350 . S
N673 S671 1.610 . S
N673 C674 1.351 . S
C674 C668 1.428 1_545 S
C674 N673 1.351 . S
C674 C675 1.434 . S
C675 C666 1.429 1_545 S
C675 N672 1.350 . S
C675 C674 1.434 . S
C676 C677 1.369 . S
C676 C678 1.419 . S
C676 H680 0.930 . S
C677 C676 1.369 . S
C677 C686 1.429 . S
C678 C676 1.419 . S
C678 C679 1.363 . S
C678 H681 0.929 . S
C679 C678 1.363 . S
C679 C685 1.428 . S
H680 C676 0.930 . S
H681 C678 0.929 . S
S682 N683 1.613 . S
S682 N684 1.610 . S
N683 S682 1.613 . S
N683 C686 1.350 . S
N684 S682 1.610 . S
N684 C685 1.351 . S
C685 C679 1.428 . S
C685 N684 1.351 . S
C685 C686 1.434 . S
C686 C677 1.429 . S
C686 N683 1.350 . S
C686 C685 1.434 . S
C687 C688 1.369 . S
C687 C689 1.419 . S
C687 H691 0.930 . S
C688 C687 1.369 . S
C688 C697 1.429 . S
C689 C687 1.419 . S
C689 C690 1.363 . S
C689 H692 0.929 . S
C690 C689 1.363 . S
C690 C696 1.428 . S
H691 C687 0.930 . S
H692 C689 0.929 . S
S693 N694 1.613 . S
S693 N695 1.610 . S
N694 S693 1.613 . S
N694 C697 1.350 . S
N695 S693 1.610 . S
N695 C696 1.351 . S
C696 C690 1.428 . S
C696 N695 1.351 . S
C696 C697 1.434 . S
C697 C688 1.429 . S
C697 N694 1.350 . S
C697 C696 1.434 . S
C698 C699 1.369 . S
C698 C700 1.419 . S
C698 H702 0.930 1_665 S
C699 C698 1.369 . S
C699 C708 1.429 . S
C700 C698 1.419 . S
C700 C701 1.363 . S
C700 H703 0.929 . S
C701 C700 1.363 . S
C701 C707 1.428 . S
H702 C698 0.930 1_445 S
H703 C700 0.929 . S
S704 N705 1.613 . S
S704 N706 1.610 . S
N705 S704 1.613 . S
N705 C708 1.350 . S
N706 S704 1.610 . S
N706 C707 1.351 . S
C707 C701 1.428 . S
C707 N706 1.351 . S
C707 C708 1.434 . S
C708 C699 1.429 . S
C708 N705 1.350 . S
C708 C707 1.434 . S
C709 C710 1.369 1_545 S
C709 C711 1.419 . S
C709 H713 0.930 . S
C710 C709 1.369 1_565 S
C710 C719 1.429 . S
C711 C709 1.419 . S
C711 C712 1.363 1_545 S
C711 H714 0.929 . S
C712 C711 1.363 1_565 S
C712 C718 1.428 . S
H713 C709 0.930 . S
H714 C711 0.929 . S
S715 N716 1.613 . S
S715 N717 1.610 . S
N716 S715 1.613 . S
N716 C719 1.350 . S
N717 S715 1.610 . S
N717 C718 1.351 . S
C718 C712 1.428 . S
C718 N717 1.351 . S
C718 C719 1.434 . S
C719 C710 1.429 . S
C719 N716 1.350 . S
C719 C718 1.434 . S
C720 C721 1.369 . S
C720 C722 1.419 . S
C720 H724 0.930 . S
C721 C720 1.369 . S
C721 C730 1.429 . S
C722 C720 1.419 . S
C722 C723 1.363 . S
C722 H725 0.929 1_545 S
C723 C722 1.363 . S
C723 C729 1.428 . S
H724 C720 0.930 . S
H725 C722 0.929 1_565 S
S726 N727 1.613 . S
S726 N728 1.610 . S
N727 S726 1.613 . S
N727 C730 1.350 . S
N728 S726 1.610 . S
N728 C729 1.351 . S
C729 C723 1.428 . S
C729 N728 1.351 . S
C729 C730 1.434 . S
C730 C721 1.429 . S
C730 N727 1.350 . S
C730 C729 1.434 . S
C731 C732 1.369 . S
C731 C733 1.419 . S
C731 H735 0.930 . S
C732 C731 1.369 . S
C732 C741 1.429 . S
C733 C731 1.419 . S
C733 C734 1.363 . S
C733 H736 0.929 . S
C734 C733 1.363 . S
C734 C740 1.428 . S
H735 C731 0.930 . S
H736 C733 0.929 . S
S737 N738 1.613 . S
S737 N739 1.610 . S
N738 S737 1.613 . S
N738 C741 1.350 . S
N739 S737 1.610 . S
N739 C740 1.351 . S
C740 C734 1.428 . S
C740 N739 1.351 . S
C740 C741 1.434 . S
C741 C732 1.429 . S
C741 N738 1.350 . S
C741 C740 1.434 . S
C742 C743 1.369 . S
C742 C744 1.419 1_455 S
C742 H746 0.930 1_455 S
C743 C742 1.369 . S
C743 C752 1.429 . S
C744 C742 1.419 1_655 S
C744 C745 1.363 1_655 S
C744 H747 0.929 . S
C745 C744 1.363 1_455 S
C745 C751 1.428 . S
H746 C742 0.930 1_655 S
H747 C744 0.929 . S
S748 N749 1.613 . S
S748 N750 1.610 . S
N749 S748 1.613 . S
N749 C752 1.350 . S
N750 S748 1.610 . S
N750 C751 1.351 . S
C751 C745 1.428 . S
C751 N750 1.351 . S
C751 C752 1.434 . S
C752 C743 1.429 . S
C752 N749 1.350 . S
C752 C751 1.434 . S
C753 C754 1.369 . S
C753 C755 1.419 . S
C753 H757 0.930 . S
C754 C753 1.369 . S
C754 C763 1.429 1_545 S
C755 C753 1.419 . S
C755 C756 1.363 . S
C755 H758 0.929 . S
C756 C755 1.363 . S
C756 C762 1.428 1_545 S
H757 C753 0.930 . S
H758 C755 0.929 . S
S759 N760 1.613 . S
S759 N761 1.610 . S
N760 S759 1.613 . S
N760 C763 1.350 . S
N761 S759 1.610 . S
N761 C762 1.351 . S
C762 C756 1.428 1_565 S
C762 N761 1.351 . S
C762 C763 1.434 . S
C763 C754 1.429 1_565 S
C763 N760 1.350 . S
C763 C762 1.434 . S
C764 C765 1.369 . S
C764 C766 1.419 . S
C764 H768 0.930 . S
C765 C764 1.369 . S
C765 C774 1.429 . S
C766 C764 1.419 . S
C766 C767 1.363 . S
C766 H769 0.929 . S
C767 C766 1.363 . S
C767 C773 1.428 . S
H768 C764 0.930 . S
H769 C766 0.929 . S
S770 N771 1.613 . S
S770 N772 1.610 . S
N771 S770 1.613 . S
N771 C774 1.350 . S
N772 S770 1.610 . S
N772 C773 1.351 . S
C773 C767 1.428 . S
C773 N772 1.351 . S
C773 C774 1.434 . S
C774 C765 1.429 . S
C774 N771 1.350 . S
C774 C773 1.434 . S
C775 C776 1.369 . S
C775 C777 1.419 . S
C775 H779 0.930 . S
C776 C775 1.369 . S
C776 C785 1.429 . S
C777 C775 1.419 . S
C777 C778 1.363 . S
C777 H780 0.930 1_455 S
C778 C777 1.363 . S
C778 C784 1.428 . S
H779 C775 0.930 . S
H780 C777 0.930 1_655 S
S781 N782 1.613 . S
S781 N783 1.610 . S
N782 S781 1.613 . S
N782 C785 1.350 . S
N783 S781 1.610 . S
N783 C784 1.351 . S
C784 C778 1.428 . S
C784 N783 1.351 . S
C784 C785 1.434 . S
C785 C776 1.429 . S
C785 N782 1.350 . S
C785 C784 1.434 . S
C786 C787 1.369 . S
C786 C788 1.419 . S
C786 H790 0.930 . S
C787 C786 1.369 . S
C787 C796 1.429 1_455 S
C788 C786 1.419 . S
C788 C789 1.363 . S
C788 H791 0.929 . S
C789 C788 1.363 . S
C789 C795 1.428 1_455 S
H790 C786 0.930 . S
H791 C788 0.929 . S
S792 N793 1.613 . S
S792 N794 1.610 . S
N793 S792 1.613 . S
N793 C796 1.350 . S
N794 S792 1.610 . S
N794 C795 1.351 . S
C795 C789 1.428 1_655 S
C795 N794 1.351 . S
C795 C796 1.434 . S
C796 C787 1.429 1_655 S
C796 N793 1.350 . S
C796 C795 1.434 . S
C797 C798 1.369 1_565 S
C797 C799 1.419 . S
C797 H801 0.930 . S
C798 C797 1.369 1_545 S
C798 C807 1.429 . S
C799 C797 1.419 . S
C799 C800 1.363 1_565 S
C799 H802 0.929 . S
C800 C799 1.363 1_545 S
C800 C806 1.428 . S
H801 C797 0.930 . S
H802 C799 0.929 . S
S803 N804 1.613 . S
S803 N805 1.610 . S
N804 S803 1.613 . S
N804 C807 1.350 . S
N805 S803 1.610 . S
N805 C806 1.351 . S
C806 C800 1.428 . S
C806 N805 1.351 . S
C806 C807 1.434 . S
C807 C798 1.429 . S
C807 N804 1.350 . S
C807 C806 1.434 . S
C808 C809 1.369 . S
C808 C810 1.419 . S
C808 H812 0.930 . S
C809 C808 1.369 . S
C809 C818 1.429 . S
C810 C808 1.419 . S
C810 C811 1.363 . S
C810 H813 0.929 . S
C811 C810 1.363 . S
C811 C817 1.428 . S
H812 C808 0.930 . S
H813 C810 0.929 . S
S814 N815 1.613 . S
S814 N816 1.610 . S
N815 S814 1.613 . S
N815 C818 1.350 . S
N816 S814 1.610 . S
N816 C817 1.351 . S
C817 C811 1.428 . S
C817 N816 1.351 . S
C817 C818 1.434 . S
C818 C809 1.429 . S
C818 N815 1.350 . S
C818 C817 1.434 . S
C819 C820 1.369 . S
C819 C821 1.419 . S
C819 H823 0.930 . S
C820 C819 1.369 . S
C820 C829 1.429 . S
C821 C819 1.419 . S
C821 C822 1.363 . S
C821 H824 0.929 . S
C822 C821 1.363 . S
C822 C828 1.428 . S
H823 C819 0.930 . S
H824 C821 0.929 . S
S825 N826 1.613 . S
S825 N827 1.610 . S
N826 S825 1.613 . S
N826 C829 1.350 . S
N827 S825 1.610 . S
N827 C828 1.351 . S
C828 C822 1.428 . S
C828 N827 1.351 . S
C828 C829 1.434 . S
C829 C820 1.429 . S
C829 N826 1.350 . S
C829 C828 1.434 . S
C830 C831 1.369 . S
C830 C832 1.419 . S
C830 H834 0.930 . S
C831 C830 1.369 . S
C831 C840 1.429 . S
C832 C830 1.419 . S
C832 C833 1.363 . S
C832 H835 0.929 . S
C833 C832 1.363 . S
C833 C839 1.428 . S
H834 C830 0.930 . S
H835 C832 0.929 . S
S836 N837 1.613 . S
S836 N838 1.610 . S
N837 S836 1.613 . S
N837 C840 1.350 . S
N838 S836 1.610 . S
N838 C839 1.351 . S
C839 C833 1.428 . S
C839 N838 1.351 . S
C839 C840 1.434 . S
C840 C831 1.429 . S
C840 N837 1.350 . S
C840 C839 1.434 . S
C841 C842 1.369 . S
C841 C843 1.419 . S
C841 H845 0.930 . S
C842 C841 1.369 . S
C842 C851 1.429 . S
C843 C841 1.419 . S
C843 C844 1.363 . S
C843 H846 0.929 . S
C844 C843 1.363 . S
C844 C850 1.428 . S
H845 C841 0.930 . S
H846 C843 0.929 . S
S847 N848 1.613 . S
S847 N849 1.610 . S
N848 S847 1.613 . S
N848 C851 1.350 . S
N849 S847 1.610 . S
N849 C850 1.351 . S
C850 C844 1.428 . S
C850 N849 1.351 . S
C850 C851 1.434 . S
C851 C842 1.429 . S
C851 N848 1.350 . S
C851 C850 1.434 . S
C852 C853 1.369 . S
C852 C854 1.419 . S
C852 H856 0.930 . S
C853 C852 1.369 . S
C853 C862 1.429 . S
C854 C852 1.419 . S
C854 C855 1.363 . S
C854 H857 0.929 . S
C855 C854 1.363 . S
C855 C861 1.428 . S
H856 C852 0.930 . S
H857 C854 0.929 . S
S858 N859 1.613 . S
S858 N860 1.610 . S
N859 S858 1.613 . S
N859 C862 1.350 . S
N860 S858 1.610 . S
N860 C861 1.351 . S
C861 C855 1.428 . S
C861 N860 1.351 . S
C861 C862 1.434 . S
C862 C853 1.429 . S
C862 N859 1.350 . S
C862 C861 1.434 . S
C863 C864 1.369 . S
C863 C865 1.419 . S
C863 H867 0.930 . S
C864 C863 1.369 . S
C864 C873 1.429 . S
C865 C863 1.419 . S
C865 C866 1.363 . S
C865 H868 0.929 . S
C866 C865 1.363 . S
C866 C872 1.428 . S
H867 C863 0.930 . S
H868 C865 0.929 . S
S869 N870 1.613 . S
S869 N871 1.610 . S
N870 S869 1.613 . S
N870 C873 1.350 . S
N871 S869 1.610 . S
N871 C872 1.351 . S
C872 C866 1.428 . S
C872 N871 1.351 . S
C872 C873 1.434 . S
C873 C864 1.429 . S
C873 N870 1.350 . S
C873 C872 1.434 . S
C874 C875 1.369 . S
C874 C876 1.419 . S
C874 H878 0.930 . S
C875 C874 1.369 . S
C875 C884 1.429 . S
C876 C874 1.419 . S
C876 C877 1.363 . S
C876 H879 0.929 . S
C877 C876 1.363 . S
C877 C883 1.428 . S
H878 C874 0.930 . S
H879 C876 0.929 . S
S880 N881 1.613 . S
S880 N882 1.610 . S
N881 S880 1.613 . S
N881 C884 1.350 . S
N882 S880 1.610 . S
N882 C883 1.351 . S
C883 C877 1.428 . S
C883 N882 1.351 . S
C883 C884 1.434 . S
C884 C875 1.429 . S
C884 N881 1.350 . S
C884 C883 1.434 . S
C885 C886 1.369 . S
C885 C887 1.419 . S
C885 H889 0.930 . S
C886 C885 1.369 . S
C886 C895 1.429 . S
C887 C885 1.419 . S
C887 C888 1.363 . S
C887 H890 0.929 . S
C888 C887 1.363 . S
C888 C894 1.428 . S
H889 C885 0.930 . S
H890 C887 0.929 . S
S891 N892 1.613 . S
S891 N893 1.610 . S
N892 S891 1.613 . S
N892 C895 1.350 . S
N893 S891 1.610 . S
N893 C894 1.351 . S
C894 C888 1.428 . S
C894 N893 1.351 . S
C894 C895 1.434 . S
C895 C886 1.429 . S
C895 N892 1.350 . S
C895 C894 1.434 . S
C896 C897 1.369 . S
C896 C898 1.419 . S
C896 H900 0.930 . S
C897 C896 1.369 . S
C897 C906 1.429 . S
C898 C896 1.419 . S
C898 C899 1.363 . S
C898 H901 0.929 . S
C899 C898 1.363 . S
C899 C905 1.428 . S
H900 C896 0.930 . S
H901 C898 0.929 . S
S902 N903 1.613 . S
S902 N904 1.610 . S
N903 S902 1.613 . S
N903 C906 1.350 . S
N904 S902 1.610 . S
N904 C905 1.351 . S
C905 C899 1.428 . S
C905 N904 1.351 . S
C905 C906 1.434 . S
C906 C897 1.429 . S
C906 N903 1.350 . S
C906 C905 1.434 . S
C907 C908 1.369 . S
C907 C909 1.419 . S
C907 H911 0.930 . S
C908 C907 1.369 . S
C908 C917 1.429 . S
C909 C907 1.419 . S
C909 C910 1.363 . S
C909 H912 0.929 . S
C910 C909 1.363 . S
C910 C916 1.428 . S
H911 C907 0.930 . S
H912 C909 0.929 . S
S913 N914 1.613 . S
S913 N915 1.610 . S
N914 S913 1.613 . S
N914 C917 1.350 . S
N915 S913 1.610 . S
N915 C916 1.351 . S
C916 C910 1.428 . S
C916 N915 1.351 . S
C916 C917 1.434 . S
C917 C908 1.429 . S
C917 N914 1.350 . S
C917 C916 1.434 . S
C918 C919 1.369 . S
C918 C920 1.419 . S
C918 H922 0.930 . S
C919 C918 1.369 . S
C919 C928 1.429 . S
C920 C918 1.419 . S
C920 C921 1.363 . S
C920 H923 0.929 . S
C921 C920 1.363 . S
C921 C927 1.428 . S
H922 C918 0.930 . S
H923 C920 0.929 . S
S924 N925 1.613 . S
S924 N926 1.610 . S
N925 S924 1.613 . S
N925 C928 1.350 . S
N926 S924 1.610 . S
N926 C927 1.351 . S
C927 C921 1.428 . S
C927 N926 1.351 . S
C927 C928 1.434 . S
C928 C919 1.429 . S
C928 N925 1.350 . S
C928 C927 1.434 . S
C929 C930 1.369 . S
C929 C931 1.419 . S
C929 H933 0.930 . S
C930 C929 1.369 . S
C930 C939 1.429 . S
C931 C929 1.419 . S
C931 C932 1.363 . S
C931 H934 0.929 . S
C932 C931 1.363 . S
C932 C938 1.428 . S
H933 C929 0.930 . S
H934 C931 0.929 . S
S935 N936 1.613 . S
S935 N937 1.610 . S
N936 S935 1.613 . S
N936 C939 1.350 . S
N937 S935 1.610 . S
N937 C938 1.351 . S
C938 C932 1.428 . S
C938 N937 1.351 . S
C938 C939 1.434 . S
C939 C930 1.429 . S
C939 N936 1.350 . S
C939 C938 1.434 . S
C940 C941 1.369 . S
C940 C942 1.419 . S
C940 H944 0.930 . S
C941 C940 1.369 . S
C941 C950 1.429 . S
C942 C940 1.419 . S
C942 C943 1.363 . S
C942 H945 0.929 . S
C943 C942 1.363 . S
C943 C949 1.428 . S
H944 C940 0.930 . S
H945 C942 0.929 . S
S946 N947 1.613 . S
S946 N948 1.610 . S
N947 S946 1.613 . S
N947 C950 1.350 . S
N948 S946 1.610 . S
N948 C949 1.351 . S
C949 C943 1.428 . S
C949 N948 1.351 . S
C949 C950 1.434 . S
C950 C941 1.429 . S
C950 N947 1.350 . S
C950 C949 1.434 . S
C951 C952 1.369 . S
C951 C953 1.419 . S
C951 H955 0.930 . S
C952 C951 1.369 . S
C952 C961 1.429 . S
C953 C951 1.419 . S
C953 C954 1.363 . S
C953 H956 0.929 . S
C954 C953 1.363 . S
C954 C960 1.428 . S
H955 C951 0.930 . S
H956 C953 0.929 . S
S957 N958 1.613 . S
S957 N959 1.610 . S
N958 S957 1.613 . S
N958 C961 1.350 . S
N959 S957 1.610 . S
N959 C960 1.351 . S
C960 C954 1.428 . S
C960 N959 1.351 . S
C960 C961 1.434 . S
C961 C952 1.429 . S
C961 N958 1.350 . S
C961 C960 1.434 . S
C962 C963 1.369 . S
C962 C964 1.419 . S
C962 H966 0.930 . S
C963 C962 1.369 . S
C963 C972 1.429 . S
C964 C962 1.419 . S
C964 C965 1.363 . S
C964 H967 0.929 . S
C965 C964 1.363 . S
C965 C971 1.428 . S
H966 C962 0.930 . S
H967 C964 0.929 . S
S968 N969 1.613 . S
S968 N970 1.610 . S
N969 S968 1.613 . S
N969 C972 1.350 . S
N970 S968 1.610 . S
N970 C971 1.351 . S
C971 C965 1.428 . S
C971 N970 1.351 . S
C971 C972 1.434 . S
C972 C963 1.429 . S
C972 N969 1.350 . S
C972 C971 1.434 . S
C973 C974 1.369 . S
C973 C975 1.419 . S
C973 H977 0.930 . S
C974 C973 1.369 . S
C974 C983 1.429 . S
C975 C973 1.419 . S
C975 C976 1.363 . S
C975 H978 0.929 . S
C976 C975 1.363 . S
C976 C982 1.428 . S
H977 C973 0.930 . S
H978 C975 0.929 . S
S979 N980 1.613 . S
S979 N981 1.610 . S
N980 S979 1.613 . S
N980 C983 1.350 . S
N981 S979 1.610 . S
N981 C982 1.351 . S
C982 C976 1.428 . S
C982 N981 1.351 . S
C982 C983 1.434 . S
C983 C974 1.429 . S
C983 N980 1.350 . S
C983 C982 1.434 . S
C545 C2 1.517 . S
C547 C138 1.517 . S
C556 C172 1.518 . S
C558 C36 1.515 . S
C567 C206 1.518 . S
C569 C70 1.516 . S
C578 C240 1.516 . S
C580 C104 1.515 . S
C589 C274 1.516 . S
C591 C410 1.517 . S
C600 C308 1.516 . S
C602 C444 1.517 . S
C611 C478 1.517 . S
C613 C342 1.517 . S
C622 C376 1.514 . S
C624 C512 1.517 . S
C633 C413 0.982 . S
C635 C9 0.918 1_565 S
C644 C447 0.992 . S
C646 C43 0.916 . S
C655 C77 0.917 . S
C657 C481 0.992 . S
C666 C515 0.991 . S
C668 C111 0.918 1_655 S
C677 C277 0.992 . S
C679 C145 0.916 . S
C688 C311 0.987 . S
C690 C179 0.912 1_655 S
C699 C213 0.927 1_565 S
C701 C345 0.982 . S
C710 C247 0.917 . S
C712 C379 0.985 . S
C721 C141 0.984 . S
C723 C281 0.925 1_545 S
C732 C175 0.995 . S
C734 C315 0.905 . S
C743 C209 0.980 . S
C745 C349 0.923 . S
C754 C383 0.924 1_455 S
C756 C243 0.988 . S
C765 C5 0.998 . S
C767 C417 0.910 . S
C776 C39 0.986 . S
C778 C451 0.923 1_455 S
C787 C485 0.927 1_545 S
C789 C73 0.986 . S
C798 C107 0.980 . S
C800 C519 0.922 . S
C809 C101 2.245 . S
C811 C33 2.245 . S
C820 C67 2.245 . S
C822 C135 2.246 . S
C831 C237 2.245 . S
C833 C169 2.245 . S
C842 C271 2.245 . S
C844 C203 2.245 . S
C853 C373 2.246 . S
C855 C305 2.245 . S
C864 C407 2.246 . S
C866 C339 2.246 . S
C875 C441 2.245 . S
C877 C509 2.245 . S
C886 C543 2.246 . S
C888 C475 2.246 . S
C897 C258 1.860 . S
C899 C20 1.866 . S
C908 C156 1.861 . S
C910 C54 1.865 . S
C919 C190 1.865 . S
C921 C88 1.862 . S
C930 C224 1.868 . S
C932 C122 1.861 . S
C941 C530 1.860 . S
C943 C292 1.867 . S
C952 C428 1.860 . S
C954 C326 1.867 . S
C963 C462 1.862 . S
C965 C360 1.867 . S
C974 C496 1.861 . S
C976 C394 1.868 . S
