# Generated by pormake.
# Topology sml, (6)-cn, num edge types: 1
# Building blocks:
#     Node 0, Type 0, BuildingBlock: FUNLAD_clean_sbu_0, # of connection points: 6
#     Node 1, Type 0, BuildingBlock: FUNLAD_clean_sbu_0, # of connection points: 6
#     Node 2, Type 0, BuildingBlock: FUNLAD_clean_sbu_0, # of connection points: 6
#     Node 3, Type 0, BuildingBlock: FUNLAD_clean_sbu_0, # of connection points: 6
#     Node 4, Type 0, BuildingBlock: FUNLAD_clean_sbu_0, # of connection points: 6
#     Node 5, Type 0, BuildingBlock: FUNLAD_clean_sbu_0, # of connection points: 6
#     Edge 6, Type (0, 0), BuildingBlock: XIVTED_clean_linker_0, # of connection points: 2
#     Edge 7, Type (0, 0), BuildingBlock: XIVTED_clean_linker_0, # of connection points: 2
#     Edge 8, Type (0, 0), BuildingBlock: XIVTED_clean_linker_0, # of connection points: 2
#     Edge 9, Type (0, 0), BuildingBlock: XIVTED_clean_linker_0, # of connection points: 2
#     Edge 10, Type (0, 0), BuildingBlock: XIVTED_clean_linker_0, # of connection points: 2
#     Edge 11, Type (0, 0), BuildingBlock: XIVTED_clean_linker_0, # of connection points: 2
#     Edge 12, Type (0, 0), BuildingBlock: XIVTED_clean_linker_0, # of connection points: 2
#     Edge 13, Type (0, 0), BuildingBlock: XIVTED_clean_linker_0, # of connection points: 2
#     Edge 14, Type (0, 0), BuildingBlock: XIVTED_clean_linker_0, # of connection points: 2
#     Edge 15, Type (0, 0), BuildingBlock: XIVTED_clean_linker_0, # of connection points: 2
#     Edge 16, Type (0, 0), BuildingBlock: XIVTED_clean_linker_0, # of connection points: 2
#     Edge 17, Type (0, 0), BuildingBlock: XIVTED_clean_linker_0, # of connection points: 2
#     Edge 18, Type (0, 0), BuildingBlock: XIVTED_clean_linker_0, # of connection points: 2
#     Edge 19, Type (0, 0), BuildingBlock: XIVTED_clean_linker_0, # of connection points: 2
#     Edge 20, Type (0, 0), BuildingBlock: XIVTED_clean_linker_0, # of connection points: 2
#     Edge 21, Type (0, 0), BuildingBlock: XIVTED_clean_linker_0, # of connection points: 2
#     Edge 22, Type (0, 0), BuildingBlock: XIVTED_clean_linker_0, # of connection points: 2
#     Edge 23, Type (0, 0), BuildingBlock: XIVTED_clean_linker_0, # of connection points: 2
# Relax obj value: 0.385
# Max RMSD: 0.211
# Mean RMSD: 0.211
data_MOF--net-sml--node1-FUNLAD_clean_sbu_0--edge1-XIVTED_clean_linker_0
_symmetry_space_group_name_H-M    P1
_symmetry_Int_Tables_number       1
_symmetry_cell_setting            triclinic
loop_
_symmetry_equiv_pos_as_xyz
'x, y, z'
_cell_length_a     47.80625
_cell_length_b     47.771427
_cell_length_c     15.061361
_cell_angle_alpha  90.004975
_cell_angle_beta   89.973608
_cell_angle_gamma 120.06233
loop_
_atom_site_label
_atom_site_type_symbol
_atom_site_fract_x
_atom_site_fract_y
_atom_site_fract_z
_atom_type_partial_charge
C0 C 0.14121 0.39539 0.82531 0.0
N1 N 0.1654 0.33792 -0.01978 0.0
C2 C 0.14531 0.31383 0.92405 0.0
C3 C 0.15192 0.28943 0.90009 0.0
C4 C 0.17921 0.28959 0.93519 0.0
C5 C 0.19864 0.31389 -0.00387 0.0
C6 C 0.19139 0.33801 0.01733 0.0
Zn7 Zn 0.16036 0.3778 -0.00157 0.0
C8 C 0.22076 0.43847 0.94906 0.0
N9 N 0.15143 0.46233 0.02326 0.0
C10 C 0.12461 0.4648 0.00855 0.0
C11 C 0.17785 0.48658 0.06423 0.0
C12 C 0.17776 0.51398 0.09454 0.0
C13 C 0.15006 0.51667 0.08437 0.0
C14 C 0.12345 0.49207 0.03851 0.0
Zn15 Zn 0.15385 0.421 0.00147 0.0
O16 O 0.14809 0.37616 0.86497 0.0
C17 C 0.09298 0.36144 0.04817 0.0
O18 O 0.14066 0.41805 0.86816 0.0
H19 H 0.1988 0.48423 0.07717 0.0
H20 H 0.12478 0.31418 0.89513 0.0
H21 H 0.10371 0.44515 -0.02329 0.0
O22 O 0.11 0.34814 0.03391 0.0
O23 O 0.1057 0.39185 0.03878 0.0
H24 H 0.20736 0.35759 0.06068 0.0
O25 O 0.16724 0.42338 0.13438 0.0
O26 O 0.17227 0.38021 0.13284 0.0
O27 O 0.20165 0.44917 -0.0378 0.0
O28 O 0.21079 0.40863 -0.03764 0.0
C29 C 0.17298 0.40356 0.17494 0.0
H30 H 0.1362 0.27097 0.85341 0.0
H31 H 0.22015 0.31519 0.02388 0.0
H32 H 0.19909 0.53263 0.12773 0.0
H33 H 0.10161 0.49325 0.02925 0.0
C34 C 0.81303 0.23066 0.48519 0.0
N35 N 0.7933 0.15046 0.33073 0.0
C36 C 0.81422 0.14751 0.38596 0.0
C37 C 0.80847 0.11692 0.41126 0.0
C38 C 0.78112 0.08913 0.37875 0.0
C39 C 0.76096 0.09294 0.31809 0.0
C40 C 0.76744 0.12394 0.29523 0.0
Zn41 Zn 0.79703 0.19471 0.31251 0.0
C42 C 0.73398 0.19159 0.35189 0.0
N43 N 0.80293 0.28689 0.28664 0.0
C44 C 0.82926 0.3159 0.30768 0.0
C45 C 0.77776 0.28544 0.24057 0.0
C46 C 0.77882 0.31353 0.21112 0.0
C47 C 0.8062 0.34375 0.22792 0.0
C48 C 0.83136 0.34486 0.27901 0.0
Zn49 Zn 0.80063 0.24322 0.30795 0.0
O50 O 0.80867 0.20537 0.44549 0.0
C51 C 0.86368 0.24694 0.26812 0.0
O52 O 0.81124 0.25266 0.4425 0.0
H53 H 0.75718 0.26232 0.22323 0.0
H54 H 0.83464 0.16889 0.41348 0.0
H55 H 0.84914 0.31657 0.34376 0.0
O56 O 0.8472 0.21643 0.27916 0.0
O57 O 0.85008 0.26381 0.2778 0.0
H58 H 0.7509 0.12678 0.25229 0.0
O59 O 0.78987 0.23301 0.17464 0.0
O60 O 0.78565 0.18511 0.17797 0.0
O61 O 0.75127 0.22172 0.33787 0.0
O62 O 0.74666 0.17376 0.34656 0.0
C63 C 0.78469 0.20746 0.13506 0.0
H64 H 0.82479 0.11503 0.45753 0.0
H65 H 0.73938 0.07221 0.29227 0.0
H66 H 0.75854 0.3115 0.17368 0.0
H67 H 0.85292 0.36769 0.29342 0.0
C68 C 0.56227 0.72501 0.52123 0.0
N69 N 0.62229 0.80479 0.67681 0.0
C70 C 0.64644 0.80818 0.62198 0.0
C71 C 0.67117 0.83897 0.59749 0.0
C72 C 0.67117 0.86649 0.63032 0.0
C73 C 0.64694 0.86223 0.69072 0.0
C74 C 0.62256 0.83105 0.71282 0.0
Zn75 Zn 0.58185 0.76031 0.69337 0.0
C76 C 0.5217 0.76305 0.65611 0.0
N77 N 0.49592 0.66782 0.71652 0.0
C78 C 0.49292 0.6394 0.68764 0.0
C79 C 0.47148 0.66841 0.76119 0.0
C80 C 0.4425 0.63999 0.77658 0.0
C81 C 0.43847 0.6104 0.74676 0.0
C82 C 0.46422 0.61011 0.70276 0.0
Zn83 Zn 0.53722 0.71168 0.69919 0.0
O84 O 0.58327 0.7504 0.56037 0.0
C85 C 0.59646 0.70803 0.73669 0.0
O86 O 0.53873 0.703 0.56456 0.0
H87 H 0.47442 0.69103 0.78535 0.0
H88 H 0.64578 0.787 0.59404 0.0
H89 H 0.51273 0.63943 0.65282 0.0
O90 O 0.61044 0.73857 0.72581 0.0
O91 O 0.56596 0.69113 0.72789 0.0
H92 H 0.60297 0.82786 0.75546 0.0
O93 O 0.53629 0.72107 0.83267 0.0
O94 O 0.57965 0.76927 0.82781 0.0
O95 O 0.50915 0.733 0.67067 0.0
O96 O 0.55224 0.78111 0.66012 0.0
C97 C 0.55664 0.74685 0.87148 0.0
H98 H 0.68959 0.8412 0.55144 0.0
H99 H 0.64576 0.88274 0.7168 0.0
H100 H 0.42337 0.64115 0.81207 0.0
H101 H 0.46191 0.58766 0.67885 0.0
C102 C 0.73119 0.55971 0.14625 0.0
N103 N 0.81045 0.61925 -0.01108 0.0
C104 C 0.8135 0.64361 0.04235 0.0
C105 C 0.8441 0.66853 0.06718 0.0
C106 C 0.87179 0.66846 0.03626 0.0
C107 C 0.8679 0.64406 -0.02303 0.0
C108 C 0.83688 0.61952 0.95436 0.0
Zn109 Zn 0.7662 0.57861 -0.02674 0.0
C110 C 0.76906 0.51875 0.01211 0.0
N111 N 0.67394 0.49248 0.95267 0.0
C112 C 0.64536 0.48862 -0.01699 0.0
C113 C 0.67509 0.46841 0.90748 0.0
C114 C 0.64716 0.43895 0.89308 0.0
C115 C 0.61743 0.43399 0.92459 0.0
C116 C 0.61649 0.45936 -0.03097 0.0
Zn117 Zn 0.71749 0.53416 -0.03096 0.0
O118 O 0.7565 0.58046 0.10628 0.0
C119 C 0.71376 0.59313 0.92986 0.0
O120 O 0.70901 0.53601 0.10381 0.0
H121 H 0.69782 0.47198 0.88229 0.0
H122 H 0.79218 0.64295 0.06911 0.0
H123 H 0.64495 0.50815 0.01823 0.0
O124 O 0.74428 0.60692 0.94015 0.0
O125 O 0.69664 0.56266 0.93969 0.0
H126 H 0.83394 0.59978 0.91272 0.0
O127 O 0.72669 0.53292 0.83545 0.0
O128 O 0.77503 0.57608 0.83875 0.0
O129 O 0.73902 0.50636 -0.00186 0.0
O130 O 0.78727 0.54926 0.00728 0.0
C131 C 0.7524 0.55299 0.79589 0.0
H132 H 0.84605 0.68709 0.11226 0.0
H133 H 0.88854 0.64282 0.95235 0.0
H134 H 0.64879 0.42019 0.85706 0.0
H135 H 0.59391 0.45635 -0.00588 0.0
C136 C 0.23649 0.81028 0.18353 0.0
N137 N 0.15527 0.789 0.33489 0.0
C138 C 0.15273 0.81044 0.28074 0.0
C139 C 0.12238 0.80492 0.25422 0.0
C140 C 0.09438 0.7772 0.28421 0.0
C141 C 0.09772 0.75643 0.34375 0.0
C142 C 0.12853 0.76274 0.36804 0.0
Zn143 Zn 0.19952 0.79319 0.35527 0.0
C144 C 0.19805 0.73124 0.31629 0.0
N145 N 0.2925 0.80147 0.38505 0.0
C146 C 0.32158 0.82776 0.3643 0.0
C147 C 0.29086 0.77627 0.43156 0.0
C148 C 0.3188 0.77718 0.4614 0.0
C149 C 0.34909 0.80444 0.44456 0.0
C150 C 0.35042 0.8297 0.39334 0.0
Zn151 Zn 0.24876 0.79871 0.36159 0.0
O152 O 0.21076 0.80502 0.22243 0.0
C153 C 0.25048 0.86064 0.40092 0.0
O154 O 0.25885 0.80953 0.22718 0.0
H155 H 0.26769 0.75571 0.44864 0.0
H156 H 0.1743 0.83118 0.25515 0.0
H157 H 0.3224 0.84767 0.32786 0.0
O158 O 0.22017 0.84305 0.38865 0.0
O159 O 0.26853 0.84829 0.39215 0.0
H160 H 0.13107 0.74585 0.41032 0.0
O161 O 0.23789 0.78775 0.49478 0.0
O162 O 0.18925 0.78161 0.48963 0.0
O163 O 0.22803 0.74924 0.3311 0.0
O164 O 0.17952 0.74311 0.32124 0.0
C165 C 0.21193 0.78166 0.53352 0.0
H166 H 0.12085 0.82173 0.20897 0.0
H167 H 0.07682 0.73457 0.36766 0.0
H168 H 0.3166 0.75682 0.4989 0.0
H169 H 0.37332 0.85116 0.37888 0.0
C170 C 0.40156 0.13718 0.84498 0.0
N171 N 0.34474 0.16383 0.69689 0.0
C172 C 0.34656 0.17946 0.77412 0.0
C173 C 0.32232 0.18602 0.7979 0.0
C174 C 0.29571 0.17671 0.74172 0.0
C175 C 0.29432 0.16076 0.66186 0.0
C176 C 0.3192 0.15436 0.6408 0.0
Zn177 Zn 0.38336 0.15712 0.67207 0.0
C178 C 0.44542 0.21696 0.71813 0.0
N179 N 0.46604 0.14543 0.64283 0.0
C180 C 0.4683 0.11863 0.66014 0.0
C181 C 0.4899 0.17101 0.59806 0.0
C182 C 0.51671 0.17005 0.56663 0.0
C183 C 0.51926 0.14238 0.58007 0.0
C184 C 0.49504 0.11665 0.62947 0.0
Zn185 Zn 0.42579 0.14933 0.66869 0.0
O186 O 0.38235 0.14398 0.80504 0.0
C187 C 0.36463 0.0892 0.62405 0.0
O188 O 0.42424 0.13668 0.80225 0.0
H189 H 0.48773 0.19199 0.58361 0.0
H190 H 0.36716 0.18731 0.81748 0.0
H191 H 0.44897 0.09842 0.69517 0.0
O192 O 0.35239 0.10724 0.63717 0.0
O193 O 0.39489 0.10085 0.63375 0.0
H194 H 0.31823 0.14207 0.57955 0.0
O195 O 0.42673 0.16222 0.53559 0.0
O196 O 0.38492 0.16953 0.53819 0.0
O197 O 0.4557 0.19747 0.70529 0.0
O198 O 0.41559 0.20719 0.70654 0.0
C199 C 0.40756 0.169 0.49551 0.0
H200 H 0.32485 0.19903 0.85903 0.0
H201 H 0.2742 0.1532 0.6166 0.0
H202 H 0.53511 0.19075 0.53061 0.0
H203 H 0.49616 0.09487 0.64133 0.0
H204 H 0.26822 0.17141 0.90469 0.0
H205 H 0.18053 0.2701 0.76472 0.0
H206 H 0.26632 0.20139 0.63562 0.0
H207 H 0.20049 0.25603 0.03522 0.0
H208 H 0.20254 0.23627 0.71399 0.0
H209 H 0.23401 0.19329 0.9503 0.0
C210 C 0.26038 0.18239 0.85498 0.0
C211 C 0.27064 0.18507 0.76642 0.0
C212 C 0.20178 0.24032 0.78448 0.0
C213 C 0.2313 0.21018 0.81835 0.0
C214 C 0.18902 0.25944 0.81355 0.0
C215 C 0.18889 0.26609 0.90437 0.0
C216 C 0.2143 0.22757 0.84671 0.0
C217 C 0.20054 0.25191 -0.03545 0.0
C218 C 0.2408 0.19485 0.8811 0.0
C219 C 0.25905 0.19883 0.70458 0.0
N220 N 0.21289 0.23349 0.93465 0.0
N221 N 0.24029 0.21123 0.7319 0.0
H222 H 0.05637 0.29592 0.08409 0.0
H223 H 0.90479 0.31142 0.24449 0.0
H224 H 0.05205 0.38408 0.08293 0.0
H225 H 0.90091 0.2193 0.22794 0.0
H226 H 0.96014 0.33797 0.19154 0.0
H227 H 1.00055 0.2668 0.14059 0.0
C228 C 0.04372 0.30911 0.09531 0.0
C229 C 0.05898 0.34251 0.0787 0.0
C230 C 0.94733 0.31194 0.19943 0.0
C231 C 0.99547 0.30952 0.14369 0.0
C232 C 0.91561 0.29671 0.23 0.0
C233 C 0.89804 0.263 0.2405 0.0
C234 C 0.96191 0.29349 0.17886 0.0
C235 C 0.91356 0.24534 0.22076 0.0
C236 C 0.01193 0.2925 0.12768 0.0
C237 C 0.04144 0.35838 0.09466 0.0
N238 N 0.94464 0.2608 0.19061 0.0
N239 N 0.01081 0.34179 0.12626 0.0
H240 H 0.75794 0.03227 0.28611 0.0
H241 H 0.70392 0.92343 0.72331 0.0
H242 H 0.78252 0.0716 0.55098 0.0
H243 H 0.69039 0.88432 0.4584 0.0
H244 H 0.73619 0.97791 0.66193 0.0
H245 H 0.7365 0.97794 0.3477 0.0
C246 C 0.75908 0.02948 0.35716 0.0
C247 C 0.77187 0.05651 0.41349 0.0
C248 C 0.7265 0.95739 0.61729 0.0
C249 C 0.74722 0.99437 0.48464 0.0
C250 C 0.708 0.92629 0.65231 0.0
C251 C 0.69427 0.89928 0.59589 0.0
C252 C 0.73104 0.96158 0.52501 0.0
C253 C 0.70067 0.9044 0.50449 0.0
C254 C 0.74694 0.99847 0.39231 0.0
C255 C 0.7731 0.05151 0.50498 0.0
N256 N 0.71826 0.93493 0.47184 0.0
N257 N 0.76058 0.02104 0.53776 0.0
H258 H 0.5728 0.64361 0.76184 0.0
H259 H 0.74178 0.65859 0.89722 0.0
H260 H 0.66178 0.73539 0.77049 0.0
H261 H 0.64956 0.57006 0.90222 0.0
H262 H 0.71426 0.68772 0.84866 0.0
H263 H 0.60193 0.61679 0.80927 0.0
C264 C 0.59856 0.6582 0.7735 0.0
C265 C 0.61483 0.69189 0.76223 0.0
C266 C 0.70014 0.66194 0.86064 0.0
C267 C 0.64858 0.66106 0.81733 0.0
C268 C 0.7158 0.64531 0.88845 0.0
C269 C 0.69797 0.6118 0.90378 0.0
C270 C 0.66649 0.64488 0.84794 0.0
C271 C 0.66438 0.59584 0.89123 0.0
C272 C 0.61523 0.6428 0.80087 0.0
C273 C 0.64828 0.70937 0.77835 0.0
N274 N 0.64984 0.61248 0.86399 0.0
N275 N 0.66409 0.69375 0.80525 0.0
H276 H 0.07837 0.78089 0.11189 0.0
H277 H 0.88828 0.68816 0.20838 0.0
H278 H 0.03676 0.7528 0.37368 0.0
H279 H 0.92945 0.70079 0.94627 0.0
H280 H 0.94262 0.72062 0.26945 0.0
H281 H 0.02425 0.76047 0.05061 0.0
C282 C 0.0579 0.77095 0.15675 0.0
C283 C 0.06209 0.76838 0.24808 0.0
C284 C 0.93976 0.71658 0.19846 0.0
C285 C 1.0 0.74455 0.17807 0.0
C286 C 0.90871 0.69827 0.16338 0.0
C287 C 0.9043 0.69158 0.07203 0.0
C288 C 0.96666 0.72837 0.14187 0.0
C289 C 0.93176 0.70496 0.01722 0.0
C290 C 0.02698 0.75906 0.12157 0.0
C291 C 0.0346 0.75485 0.30275 0.0
N292 N 0.96177 0.72255 0.05304 0.0
N293 N 1.00472 0.74328 0.26686 0.0
H294 H 0.30024 0.05673 0.57718 0.0
H295 H 0.21904 0.89409 0.4396 0.0
H296 H 0.38344 0.04445 0.60075 0.0
H297 H 0.31417 0.90486 0.42886 0.0
H298 H 0.2428 0.94921 0.49541 0.0
H299 H 0.26914 1.00174 0.5195 0.0
C300 C 0.31184 0.04231 0.5712 0.0
C301 C 0.34449 0.05527 0.59409 0.0
C302 C 0.25869 0.93992 0.47979 0.0
C303 C 0.30897 0.99189 0.52869 0.0
C304 C 0.245 0.90822 0.44803 0.0
C305 C 0.26461 0.89477 0.42936 0.0
C306 C 0.29233 0.9584 0.49267 0.0
C307 C 0.29805 0.91413 0.44224 0.0
C308 C 0.294 0.0107 0.53832 0.0
C309 C 0.35836 0.03559 0.58408 0.0
N310 N 0.31074 0.9448 0.47324 0.0
N311 N 0.34058 1.00506 0.55206 0.0
H312 H 0.13169 0.34547 0.7189 0.0
H313 H 0.18212 0.45354 0.28088 0.0
H314 H 0.14877 0.4432 0.71139 0.0
H315 H 0.16581 0.35609 0.28959 0.0
H316 H 0.17162 0.45083 0.43968 0.0
H317 H 0.14223 0.34832 0.56016 0.0
C318 C 0.13708 0.36734 0.68337 0.0
C319 C 0.13964 0.39427 0.72818 0.0
C320 C 0.17061 0.43014 0.40708 0.0
C321 C 0.15244 0.39792 0.54729 0.0
C322 C 0.1769 0.43177 0.31663 0.0
C323 C 0.1745 0.40485 0.27212 0.0
C324 C 0.16179 0.40138 0.45306 0.0
C325 C 0.16786 0.37736 0.32147 0.0
C326 C 0.1434 0.36905 0.59297 0.0
C327 C 0.14652 0.4219 0.67918 0.0
N328 N 0.16136 0.37619 0.40945 0.0
N329 N 0.15306 0.42315 0.59117 0.0
H330 H 0.77134 0.24525 0.02944 0.0
H331 H 0.82672 0.19314 0.59115 0.0
H332 H 0.79513 0.16917 0.02133 0.0
H333 H 0.80215 0.26869 0.59884 0.0
H334 H 0.81713 0.18536 0.75016 0.0
H335 H 0.78088 0.25302 0.8704 0.0
C336 C 0.77804 0.22979 -0.0063 0.0
C337 C 0.78283 0.20677 0.03826 0.0
C338 C 0.81409 0.20383 0.71728 0.0
C339 C 0.79441 0.21598 0.85729 0.0
C340 C 0.81984 0.20849 0.62675 0.0
C341 C 0.81484 0.23136 0.58205 0.0
C342 C 0.80321 0.22211 0.76302 0.0
C343 C 0.8062 0.25077 0.63103 0.0
C344 C 0.78375 0.23443 0.90316 0.0
C345 C 0.79123 0.1872 -0.01081 0.0
N346 N 0.80027 0.24543 0.71917 0.0
N347 N 0.79715 0.19253 0.90103 0.0
H348 H 0.51401 0.68375 0.41037 0.0
H349 H 0.60464 0.78853 -0.01766 0.0
H350 H 0.61161 0.76492 0.41261 0.0
H351 H 0.50729 0.70695 -0.02013 0.0
H352 H 0.60688 0.78171 0.14216 0.0
H353 H 0.51164 0.69084 0.25081 0.0
C354 C 0.53514 0.70263 0.37694 0.0
C355 C 0.56288 0.72405 0.42443 0.0
C356 C 0.58494 0.76548 0.10665 0.0
C357 C 0.5601 0.73277 0.2435 0.0
C358 C 0.58354 0.76962 0.01578 0.0
C359 C 0.55592 0.74798 -0.0318 0.0
C360 C 0.55854 0.73957 0.14934 0.0
C361 C 0.52922 0.72388 0.01429 0.0
C362 C 0.53365 0.70693 0.28621 0.0
C363 C 0.58959 0.74814 0.3783 0.0
N364 N 0.53132 0.72009 0.10248 0.0
N365 N 0.58742 0.75207 0.29022 0.0
H366 H 0.71352 0.50237 0.68981 0.0
H367 H 0.77013 0.61035 0.25246 0.0
H368 H 0.79215 0.60126 0.68286 0.0
H369 H 0.69174 0.51132 0.25942 0.0
H370 H 0.7774 0.60803 0.4115 0.0
H371 H 0.70644 0.50462 0.53064 0.0
C372 C 0.72966 0.5244 0.65431 0.0
C373 C 0.7532 0.55183 0.69919 0.0
C374 C 0.75844 0.58689 0.37842 0.0
C375 C 0.74481 0.55476 0.51817 0.0
C376 C 0.75408 0.58827 0.28789 0.0
C377 C 0.73055 0.56082 0.24301 0.0
C378 C 0.73916 0.55784 0.42392 0.0
C379 C 0.71023 0.53297 0.29175 0.0
C380 C 0.72542 0.52575 0.56371 0.0
C381 C 0.77367 0.57963 0.65046 0.0
N382 N 0.71526 0.53206 0.37989 0.0
N383 N 0.76873 0.58052 0.56224 0.0
H384 H 0.17145 0.7895 0.64567 0.0
H385 H 0.27667 0.80195 0.07142 0.0
H386 H 0.25125 0.77119 0.64102 0.0
H387 H 0.19733 0.82097 0.07574 0.0
H388 H 0.26889 0.79228 0.91184 0.0
H389 H 0.17914 0.79903 0.80539 0.0
C390 C 0.1901 0.7868 0.67865 0.0
C391 C 0.21098 0.77993 0.63043 0.0
C392 C 0.25337 0.79884 0.94769 0.0
C393 C 0.22045 0.79155 0.81146 0.0
C394 C 0.2581 0.80477 0.03842 0.0
C395 C 0.23738 0.81189 0.08655 0.0
C396 C 0.2278 0.8001 0.90559 0.0
C397 C 0.21359 0.81514 0.04095 0.0
C398 C 0.19478 0.79265 0.76943 0.0
C399 C 0.23487 0.77683 0.67593 0.0
N400 N 0.20923 0.80888 0.95293 0.0
N401 N 0.23918 0.783 0.76399 0.0
H402 H 0.45806 0.1795 0.39032 0.0
H403 H 0.35116 0.12689 0.95023 0.0
H404 H 0.35975 0.16041 0.38018 0.0
H405 H 0.44937 0.14568 -0.03968 0.0
H406 H 0.35334 0.13746 0.10882 0.0
H407 H 0.45593 0.16901 0.23161 0.0
C408 C 0.4362 0.17368 0.3542 0.0
C409 C 0.40892 0.17056 0.39829 0.0
C410 C 0.37432 0.13898 0.07666 0.0
C411 C 0.40611 0.15783 0.21737 0.0
C412 C 0.373 0.13264 -0.01369 0.0
C413 C 0.40023 0.13564 0.94222 0.0
C414 C 0.40311 0.14849 0.12309 0.0
C415 C 0.42783 0.14304 -0.00805 0.0
C416 C 0.43492 0.1674 0.26381 0.0
C417 C 0.38132 0.16313 0.34855 0.0
N418 N 0.42869 0.14959 0.0799 0.0
N419 N 0.38049 0.15664 0.26058 0.0
H420 H 0.1269 0.55469 0.01438 0.0
H421 H 0.22247 0.69319 0.36519 0.0
H422 H 0.17139 0.54216 0.2487 0.0
H423 H 0.14581 0.69192 0.21105 0.0
H424 H 0.2052 0.63835 0.31583 0.0
H425 H 0.13336 0.60504 0.07855 0.0
C426 C 0.13756 0.56224 0.07965 0.0
C427 C 0.14932 0.54462 0.12534 0.0
C428 C 0.19186 0.64984 0.29335 0.0
C429 C 0.15706 0.602 0.19815 0.0
C430 C 0.20181 0.68121 0.32129 0.0
C431 C 0.18555 0.69706 0.29204 0.0
C432 C 0.16586 0.6343 0.23398 0.0
C433 C 0.15886 0.68038 0.23537 0.0
C434 C 0.1413 0.59095 0.11606 0.0
C435 C 0.16288 0.55547 0.20982 0.0
N436 N 0.15007 0.64995 0.20697 0.0
N437 N 0.16677 0.5836 0.24278 0.0
H438 H 0.69433 0.21319 0.29653 0.0
H439 H 0.55811 0.121 0.65427 0.0
H440 H 0.69585 0.14007 0.46103 0.0
H441 H 0.54316 0.16034 0.41281 0.0
H442 H 0.60837 0.12711 0.59065 0.0
H443 H 0.63917 0.19487 0.34458 0.0
C444 C 0.68286 0.19305 0.34239 0.0
C445 C 0.6996 0.17813 0.37501 0.0
C446 C 0.59374 0.13393 0.55142 0.0
C447 C 0.63649 0.15729 0.43169 0.0
C448 C 0.56509 0.13039 0.58752 0.0
C449 C 0.54684 0.14088 0.53954 0.0
C450 C 0.60411 0.14824 0.46733 0.0
C451 C 0.55696 0.15283 0.45326 0.0
C452 C 0.65132 0.1825 0.36961 0.0
C453 C 0.6836 0.15207 0.43413 0.0
N454 N 0.58506 0.15661 0.42059 0.0
N455 N 0.65298 0.14273 0.46186 0.0
H456 H 0.23965 0.49611 0.87126 0.0
H457 H 0.42614 0.5524 0.82027 0.0
H458 H 0.27544 0.43206 0.94116 0.0
H459 H 0.37924 0.60093 0.70583 0.0
H460 H 0.37266 0.50692 0.86229 0.0
H461 H 0.29186 0.5341 0.8109 0.0
C462 C 0.25862 0.49001 0.87426 0.0
C463 C 0.25315 0.46089 0.91225 0.0
C464 C 0.37417 0.52736 0.82691 0.0
C465 C 0.3138 0.50486 0.8421 0.0
C466 C 0.40457 0.55317 0.80266 0.0
C467 C 0.40698 0.58057 0.76076 0.0
C468 C 0.3463 0.52924 0.80887 0.0
C469 C 0.37846 0.58052 0.7395 0.0
C470 C 0.28856 0.51177 0.83898 0.0
C471 C 0.27871 0.45432 0.91276 0.0
N472 N 0.34945 0.55548 0.76441 0.0
N473 N 0.30818 0.47636 0.87885 0.0
H474 H 0.78941 0.35106 0.0604 0.0
H475 H 0.81935 0.53024 0.12387 0.0
H476 H 0.82843 0.40393 0.30419 0.0
H477 H 0.74702 0.4579 0.95241 0.0
H478 H 0.83465 0.49031 0.17205 0.0
H479 H 0.78636 0.39678 0.0006 0.0
C480 C 0.79739 0.37235 0.10145 0.0
C481 C 0.80838 0.37331 0.18842 0.0
C482 C 0.81571 0.48346 0.12317 0.0
C483 C 0.80535 0.4261 0.11943 0.0
C484 C 0.80715 0.50619 0.09533 0.0
C485 C 0.7818 0.49719 0.03451 0.0
C486 C 0.79924 0.45196 0.08815 0.0
C487 C 0.76653 0.46573 -6e-05 0.0
C488 C 0.79576 0.3985 0.06703 0.0
C489 C 0.81953 0.40207 0.23714 0.0
N490 N 0.77548 0.44432 0.02716 0.0
N491 N 0.8174 0.4273 0.20231 0.0
H492 H 0.35633 0.78743 0.61193 0.0
H493 H 0.53399 0.8141 0.54634 0.0
H494 H 0.40898 0.82589 0.36748 0.0
H495 H 0.46064 0.74104 0.71423 0.0
H496 H 0.49479 0.83048 0.49929 0.0
H497 H 0.40147 0.78312 0.67046 0.0
C498 C 0.37747 0.79506 0.57051 0.0
C499 C 0.3785 0.80623 0.48369 0.0
C500 C 0.48756 0.81112 0.5471 0.0
C501 C 0.43062 0.80175 0.55121 0.0
C502 C 0.50986 0.80193 0.57427 0.0
C503 C 0.50038 0.7761 0.63381 0.0
C504 C 0.45599 0.7948 0.58156 0.0
C505 C 0.46884 0.7609 0.66767 0.0
C506 C 0.40328 0.7927 0.60419 0.0
C507 C 0.40707 0.81688 0.43445 0.0
N508 N 0.44785 0.7705 0.6412 0.0
N509 N 0.43197 0.81405 0.46856 0.0
H510 H 0.61029 0.37535 -0.03775 0.0
H511 H 0.43593 0.26922 0.74037 0.0
H512 H 0.55834 0.41998 0.85587 0.0
H513 H 0.50678 0.23923 0.77487 0.0
H514 H 0.47505 0.32263 0.80212 0.0
H515 H 0.56591 0.32259 0.91921 0.0
C516 C 0.58931 0.37393 0.93033 0.0
C517 C 0.58814 0.40201 0.91121 0.0
C518 C 0.48181 0.3042 0.79593 0.0
C519 C 0.53721 0.3416 0.86072 0.0
C520 C 0.4596 0.27383 0.76067 0.0
C521 C 0.46813 0.24976 0.752 0.0
C522 C 0.51235 0.31009 0.82376 0.0
C523 C 0.49906 0.25697 0.77965 0.0
C524 C 0.564 0.34382 0.90551 0.0
C525 C 0.56011 0.3988 0.87137 0.0
N526 N 0.51986 0.28631 0.81437 0.0
N527 N 0.53577 0.36904 0.84631 0.0
loop_
_geom_bond_atom_site_label_1
_geom_bond_atom_site_label_2
_geom_bond_distance
_geom_bond_site_symmetry_2
_ccdc_geom_bond_type
C0 O16 1.251 . S
C0 O18 1.254 . S
N1 C2 1.333 1_554 S
N1 C6 1.307 . S
N1 Zn7 2.020 . S
C2 N1 1.333 1_556 S
C2 C3 1.379 . S
C2 H20 0.952 . S
C3 C2 1.379 . S
C3 C4 1.390 1_556 S
C3 H30 0.949 . S
C4 C3 1.390 1_554 S
C4 C5 1.357 . S
C5 C4 1.357 . S
C5 C6 1.370 . S
C5 H31 0.950 . S
C6 N1 1.307 . S
C6 C5 1.370 . S
C6 H24 0.948 . S
Zn7 N1 2.020 . S
Zn7 O16 2.039 1_554 S
Zn7 O22 2.034 . S
Zn7 O26 2.025 . S
Zn7 O28 2.024 . S
C8 O27 1.246 . S
C8 O28 1.249 . S
N9 C10 1.307 . S
N9 C11 1.333 . S
N9 Zn15 2.020 . S
C10 N9 1.307 . S
C10 C14 1.370 . S
C10 H21 0.948 . S
C11 N9 1.333 . S
C11 C12 1.379 . S
C11 H19 0.952 . S
C12 C11 1.379 . S
C12 C13 1.390 . S
C12 H32 0.949 . S
C13 C12 1.390 . S
C13 C14 1.357 . S
C14 C10 1.370 . S
C14 C13 1.357 . S
C14 H33 0.950 . S
Zn15 N9 2.020 . S
Zn15 O18 2.025 1_554 S
Zn15 O23 2.024 . S
Zn15 O25 2.039 . S
Zn15 O27 2.034 . S
O16 C0 1.251 . S
O16 Zn7 2.039 1_556 S
C17 O22 1.246 . S
C17 O23 1.249 . S
O18 C0 1.254 . S
O18 Zn15 2.025 1_556 S
H19 C11 0.952 . S
H20 C2 0.952 . S
H21 C10 0.948 . S
O22 Zn7 2.034 . S
O22 C17 1.246 . S
O23 Zn15 2.024 . S
O23 C17 1.249 . S
H24 C6 0.948 . S
O25 Zn15 2.039 . S
O25 C29 1.251 . S
O26 Zn7 2.025 . S
O26 C29 1.254 . S
O27 C8 1.246 . S
O27 Zn15 2.034 . S
O28 Zn7 2.024 . S
O28 C8 1.249 . S
C29 O25 1.251 . S
C29 O26 1.254 . S
H30 C3 0.949 . S
H31 C5 0.950 . S
H32 C12 0.949 . S
H33 C14 0.950 . S
C34 O50 1.251 . S
C34 O52 1.254 . S
N35 C36 1.333 . S
N35 C40 1.307 . S
N35 Zn41 2.020 . S
C36 N35 1.333 . S
C36 C37 1.379 . S
C36 H54 0.952 . S
C37 C36 1.379 . S
C37 C38 1.390 . S
C37 H64 0.949 . S
C38 C37 1.390 . S
C38 C39 1.357 . S
C39 C38 1.357 . S
C39 C40 1.370 . S
C39 H65 0.950 . S
C40 N35 1.307 . S
C40 C39 1.370 . S
C40 H58 0.948 . S
Zn41 N35 2.020 . S
Zn41 O50 2.039 . S
Zn41 O56 2.034 . S
Zn41 O60 2.025 . S
Zn41 O62 2.024 . S
C42 O61 1.246 . S
C42 O62 1.249 . S
N43 C44 1.307 . S
N43 C45 1.333 . S
N43 Zn49 2.020 . S
C44 N43 1.307 . S
C44 C48 1.370 . S
C44 H55 0.948 . S
C45 N43 1.333 . S
C45 C46 1.379 . S
C45 H53 0.952 . S
C46 C45 1.379 . S
C46 C47 1.390 . S
C46 H66 0.949 . S
C47 C46 1.390 . S
C47 C48 1.357 . S
C48 C44 1.370 . S
C48 C47 1.357 . S
C48 H67 0.950 . S
Zn49 N43 2.020 . S
Zn49 O52 2.025 . S
Zn49 O57 2.024 . S
Zn49 O59 2.039 . S
Zn49 O61 2.034 . S
O50 C34 1.251 . S
O50 Zn41 2.039 . S
C51 O56 1.246 . S
C51 O57 1.249 . S
O52 C34 1.254 . S
O52 Zn49 2.025 . S
H53 C45 0.952 . S
H54 C36 0.952 . S
H55 C44 0.948 . S
O56 Zn41 2.034 . S
O56 C51 1.246 . S
O57 Zn49 2.024 . S
O57 C51 1.249 . S
H58 C40 0.948 . S
O59 Zn49 2.039 . S
O59 C63 1.251 . S
O60 Zn41 2.025 . S
O60 C63 1.254 . S
O61 C42 1.246 . S
O61 Zn49 2.034 . S
O62 Zn41 2.024 . S
O62 C42 1.249 . S
C63 O59 1.251 . S
C63 O60 1.254 . S
H64 C37 0.949 . S
H65 C39 0.950 . S
H66 C46 0.949 . S
H67 C48 0.950 . S
C68 O84 1.251 . S
C68 O86 1.254 . S
N69 C70 1.333 . S
N69 C74 1.307 . S
N69 Zn75 2.020 . S
C70 N69 1.333 . S
C70 C71 1.379 . S
C70 H88 0.952 . S
C71 C70 1.379 . S
C71 C72 1.390 . S
C71 H98 0.949 . S
C72 C71 1.390 . S
C72 C73 1.357 . S
C73 C72 1.357 . S
C73 C74 1.370 . S
C73 H99 0.950 . S
C74 N69 1.307 . S
C74 C73 1.370 . S
C74 H92 0.948 . S
Zn75 N69 2.020 . S
Zn75 O84 2.039 . S
Zn75 O90 2.034 . S
Zn75 O94 2.025 . S
Zn75 O96 2.024 . S
C76 O95 1.246 . S
C76 O96 1.249 . S
N77 C78 1.307 . S
N77 C79 1.333 . S
N77 Zn83 2.020 . S
C78 N77 1.307 . S
C78 C82 1.370 . S
C78 H89 0.948 . S
C79 N77 1.333 . S
C79 C80 1.379 . S
C79 H87 0.952 . S
C80 C79 1.379 . S
C80 C81 1.390 . S
C80 H100 0.949 . S
C81 C80 1.390 . S
C81 C82 1.357 . S
C82 C78 1.370 . S
C82 C81 1.357 . S
C82 H101 0.950 . S
Zn83 N77 2.020 . S
Zn83 O86 2.025 . S
Zn83 O91 2.024 . S
Zn83 O93 2.039 . S
Zn83 O95 2.034 . S
O84 C68 1.251 . S
O84 Zn75 2.039 . S
C85 O90 1.246 . S
C85 O91 1.249 . S
O86 C68 1.254 . S
O86 Zn83 2.025 . S
H87 C79 0.952 . S
H88 C70 0.952 . S
H89 C78 0.948 . S
O90 Zn75 2.034 . S
O90 C85 1.246 . S
O91 Zn83 2.024 . S
O91 C85 1.249 . S
H92 C74 0.948 . S
O93 Zn83 2.039 . S
O93 C97 1.251 . S
O94 Zn75 2.025 . S
O94 C97 1.254 . S
O95 C76 1.246 . S
O95 Zn83 2.034 . S
O96 Zn75 2.024 . S
O96 C76 1.249 . S
C97 O93 1.251 . S
C97 O94 1.254 . S
H98 C71 0.949 . S
H99 C73 0.950 . S
H100 C80 0.949 . S
H101 C82 0.950 . S
C102 O118 1.251 . S
C102 O120 1.254 . S
N103 C104 1.333 . S
N103 C108 1.307 1_554 S
N103 Zn109 2.020 . S
C104 N103 1.333 . S
C104 C105 1.379 . S
C104 H122 0.952 . S
C105 C104 1.379 . S
C105 C106 1.390 . S
C105 H132 0.949 . S
C106 C105 1.390 . S
C106 C107 1.357 1_554 S
C107 C106 1.357 1_556 S
C107 C108 1.370 . S
C107 H133 0.950 . S
C108 N103 1.307 1_556 S
C108 C107 1.370 . S
C108 H126 0.948 . S
Zn109 N103 2.020 . S
Zn109 O118 2.039 . S
Zn109 O124 2.034 1_554 S
Zn109 O128 2.025 1_554 S
Zn109 O130 2.024 . S
C110 O129 1.246 . S
C110 O130 1.249 . S
N111 C112 1.307 1_556 S
N111 C113 1.333 . S
N111 Zn117 2.020 . S
C112 N111 1.307 1_554 S
C112 C116 1.370 . S
C112 H123 0.948 . S
C113 N111 1.333 . S
C113 C114 1.379 . S
C113 H121 0.952 . S
C114 C113 1.379 . S
C114 C115 1.390 . S
C114 H134 0.949 . S
C115 C114 1.390 . S
C115 C116 1.357 1_556 S
C116 C112 1.370 . S
C116 C115 1.357 1_554 S
C116 H135 0.950 . S
Zn117 N111 2.020 . S
Zn117 O120 2.025 1_556 S
Zn117 O125 2.024 . S
Zn117 O127 2.039 . S
Zn117 O129 2.034 1_556 S
O118 C102 1.251 . S
O118 Zn109 2.039 . S
C119 O124 1.246 . S
C119 O125 1.249 . S
O120 C102 1.254 . S
O120 Zn117 2.025 1_554 S
H121 C113 0.952 . S
H122 C104 0.952 . S
H123 C112 0.948 . S
O124 Zn109 2.034 1_556 S
O124 C119 1.246 . S
O125 Zn117 2.024 . S
O125 C119 1.249 . S
H126 C108 0.948 . S
O127 Zn117 2.039 . S
O127 C131 1.251 . S
O128 Zn109 2.025 1_556 S
O128 C131 1.254 . S
O129 C110 1.246 . S
O129 Zn117 2.034 1_554 S
O130 Zn109 2.024 . S
O130 C110 1.249 . S
C131 O127 1.251 . S
C131 O128 1.254 . S
H132 C105 0.949 . S
H133 C107 0.950 . S
H134 C114 0.949 . S
H135 C116 0.950 . S
C136 O152 1.251 . S
C136 O154 1.254 . S
N137 C138 1.333 . S
N137 C142 1.307 . S
N137 Zn143 2.020 . S
C138 N137 1.333 . S
C138 C139 1.379 . S
C138 H156 0.952 . S
C139 C138 1.379 . S
C139 C140 1.390 . S
C139 H166 0.949 . S
C140 C139 1.390 . S
C140 C141 1.357 . S
C141 C140 1.357 . S
C141 C142 1.370 . S
C141 H167 0.950 . S
C142 N137 1.307 . S
C142 C141 1.370 . S
C142 H160 0.948 . S
Zn143 N137 2.020 . S
Zn143 O152 2.039 . S
Zn143 O158 2.034 . S
Zn143 O162 2.025 . S
Zn143 O164 2.024 . S
C144 O163 1.246 . S
C144 O164 1.249 . S
N145 C146 1.307 . S
N145 C147 1.333 . S
N145 Zn151 2.020 . S
C146 N145 1.307 . S
C146 C150 1.370 . S
C146 H157 0.948 . S
C147 N145 1.333 . S
C147 C148 1.379 . S
C147 H155 0.952 . S
C148 C147 1.379 . S
C148 C149 1.390 . S
C148 H168 0.949 . S
C149 C148 1.390 . S
C149 C150 1.357 . S
C150 C146 1.370 . S
C150 C149 1.357 . S
C150 H169 0.950 . S
Zn151 N145 2.020 . S
Zn151 O154 2.025 . S
Zn151 O159 2.024 . S
Zn151 O161 2.039 . S
Zn151 O163 2.034 . S
O152 C136 1.251 . S
O152 Zn143 2.039 . S
C153 O158 1.246 . S
C153 O159 1.249 . S
O154 C136 1.254 . S
O154 Zn151 2.025 . S
H155 C147 0.952 . S
H156 C138 0.952 . S
H157 C146 0.948 . S
O158 Zn143 2.034 . S
O158 C153 1.246 . S
O159 Zn151 2.024 . S
O159 C153 1.249 . S
H160 C142 0.948 . S
O161 Zn151 2.039 . S
O161 C165 1.251 . S
O162 Zn143 2.025 . S
O162 C165 1.254 . S
O163 C144 1.246 . S
O163 Zn151 2.034 . S
O164 Zn143 2.024 . S
O164 C144 1.249 . S
C165 O161 1.251 . S
C165 O162 1.254 . S
H166 C139 0.949 . S
H167 C141 0.950 . S
H168 C148 0.949 . S
H169 C150 0.950 . S
C170 O186 1.251 . S
C170 O188 1.254 . S
N171 C172 1.333 . S
N171 C176 1.307 . S
N171 Zn177 2.020 . S
C172 N171 1.333 . S
C172 C173 1.379 . S
C172 H190 0.952 . S
C173 C172 1.379 . S
C173 C174 1.390 . S
C173 H200 0.949 . S
C174 C173 1.390 . S
C174 C175 1.357 . S
C175 C174 1.357 . S
C175 C176 1.370 . S
C175 H201 0.950 . S
C176 N171 1.307 . S
C176 C175 1.370 . S
C176 H194 0.948 . S
Zn177 N171 2.020 . S
Zn177 O186 2.039 . S
Zn177 O192 2.034 . S
Zn177 O196 2.025 . S
Zn177 O198 2.024 . S
C178 O197 1.246 . S
C178 O198 1.249 . S
N179 C180 1.307 . S
N179 C181 1.333 . S
N179 Zn185 2.020 . S
C180 N179 1.307 . S
C180 C184 1.370 . S
C180 H191 0.948 . S
C181 N179 1.333 . S
C181 C182 1.379 . S
C181 H189 0.952 . S
C182 C181 1.379 . S
C182 C183 1.390 . S
C182 H202 0.949 . S
C183 C182 1.390 . S
C183 C184 1.357 . S
C184 C180 1.370 . S
C184 C183 1.357 . S
C184 H203 0.950 . S
Zn185 N179 2.020 . S
Zn185 O188 2.025 . S
Zn185 O193 2.024 . S
Zn185 O195 2.039 . S
Zn185 O197 2.034 . S
O186 C170 1.251 . S
O186 Zn177 2.039 . S
C187 O192 1.246 . S
C187 O193 1.249 . S
O188 C170 1.254 . S
O188 Zn185 2.025 . S
H189 C181 0.952 . S
H190 C172 0.952 . S
H191 C180 0.948 . S
O192 Zn177 2.034 . S
O192 C187 1.246 . S
O193 Zn185 2.024 . S
O193 C187 1.249 . S
H194 C176 0.948 . S
O195 Zn185 2.039 . S
O195 C199 1.251 . S
O196 Zn177 2.025 . S
O196 C199 1.254 . S
O197 C178 1.246 . S
O197 Zn185 2.034 . S
O198 Zn177 2.024 . S
O198 C178 1.249 . S
C199 O195 1.251 . S
C199 O196 1.254 . S
H200 C173 0.949 . S
H201 C175 0.950 . S
H202 C182 0.949 . S
H203 C184 0.950 . S
H204 C210 0.930 . S
H205 C214 0.930 . S
H206 C219 0.929 . S
H207 C217 0.929 . S
H208 C212 0.929 . S
H209 C218 0.929 . S
C210 H204 0.930 . S
C210 C211 1.367 . S
C210 C218 1.378 . S
C211 C210 1.367 . S
C211 C219 1.433 . S
C212 H208 0.929 . S
C212 C214 1.378 . S
C212 C216 1.350 . S
C213 C216 1.463 . S
C213 C218 1.350 . S
C213 N221 1.427 . S
C214 H205 0.930 . S
C214 C212 1.378 . S
C214 C215 1.367 . S
C215 C214 1.367 . S
C215 C217 1.433 1_556 S
C216 C212 1.350 . S
C216 C213 1.463 . S
C216 N220 1.427 . S
C217 H207 0.929 . S
C217 C215 1.433 1_554 S
C217 N220 1.384 1_554 S
C218 H209 0.929 . S
C218 C210 1.378 . S
C218 C213 1.350 . S
C219 H206 0.929 . S
C219 C211 1.433 . S
C219 N221 1.384 . S
N220 C216 1.427 . S
N220 C217 1.384 1_556 S
N221 C213 1.427 . S
N221 C219 1.384 . S
H222 C228 0.930 . S
H223 C232 0.930 . S
H224 C237 0.929 . S
H225 C235 0.929 . S
H226 C230 0.929 . S
H227 C236 0.929 . S
C228 H222 0.930 . S
C228 C229 1.367 . S
C228 C236 1.378 . S
C229 C228 1.367 . S
C229 C237 1.433 . S
C230 H226 0.929 . S
C230 C232 1.378 . S
C230 C234 1.350 . S
C231 C234 1.463 . S
C231 C236 1.350 1_655 S
C231 N239 1.427 . S
C232 H223 0.930 . S
C232 C230 1.378 . S
C232 C233 1.367 . S
C233 C232 1.367 . S
C233 C235 1.433 . S
C234 C230 1.350 . S
C234 C231 1.463 . S
C234 N238 1.427 . S
C235 H225 0.929 . S
C235 C233 1.433 . S
C235 N238 1.384 . S
C236 H227 0.929 . S
C236 C228 1.378 . S
C236 C231 1.350 1_455 S
C237 H224 0.929 . S
C237 C229 1.433 . S
C237 N239 1.384 1_455 S
N238 C234 1.427 . S
N238 C235 1.384 . S
N239 C231 1.427 . S
N239 C237 1.384 1_655 S
H240 C246 0.930 . S
H241 C250 0.930 . S
H242 C255 0.929 . S
H243 C253 0.929 . S
H244 C248 0.929 . S
H245 C254 0.929 . S
C246 H240 0.930 . S
C246 C247 1.367 . S
C246 C254 1.378 1_545 S
C247 C246 1.367 . S
C247 C255 1.433 . S
C248 H244 0.929 . S
C248 C250 1.378 . S
C248 C252 1.350 . S
C249 C252 1.463 . S
C249 C254 1.350 . S
C249 N257 1.427 1_565 S
C250 H241 0.930 . S
C250 C248 1.378 . S
C250 C251 1.367 . S
C251 C250 1.367 . S
C251 C253 1.433 . S
C252 C248 1.350 . S
C252 C249 1.463 . S
C252 N256 1.427 . S
C253 H243 0.929 . S
C253 C251 1.433 . S
C253 N256 1.384 . S
C254 H245 0.929 . S
C254 C246 1.378 1_565 S
C254 C249 1.350 . S
C255 H242 0.929 . S
C255 C247 1.433 . S
C255 N257 1.384 . S
N256 C252 1.427 . S
N256 C253 1.384 . S
N257 C249 1.427 1_545 S
N257 C255 1.384 . S
H258 C264 0.930 . S
H259 C268 0.930 . S
H260 C273 0.929 . S
H261 C271 0.929 . S
H262 C266 0.929 . S
H263 C272 0.937 . S
C264 H258 0.930 . S
C264 C265 1.367 . S
C264 C272 1.378 . S
C265 C264 1.367 . S
C265 C273 1.433 . S
C266 H262 0.929 . S
C266 C268 1.378 . S
C266 C270 1.350 . S
C267 C270 1.463 . S
C267 C272 1.350 . S
C267 N275 1.427 . S
C268 H259 0.930 . S
C268 C266 1.378 . S
C268 C269 1.367 . S
C269 C268 1.367 . S
C269 C271 1.433 1_556 S
C270 C266 1.350 . S
C270 C267 1.463 . S
C270 N274 1.427 . S
C271 H261 0.929 . S
C271 C269 1.433 1_554 S
C271 N274 1.384 1_554 S
C272 H263 0.937 . S
C272 C264 1.378 . S
C272 C267 1.350 . S
C273 H260 0.929 . S
C273 C265 1.433 . S
C273 N275 1.384 . S
N274 C270 1.427 . S
N274 C271 1.384 1_556 S
N275 C267 1.427 . S
N275 C273 1.384 . S
H276 C282 0.930 . S
H277 C286 0.930 . S
H278 C291 0.929 . S
H279 C289 0.929 1_556 S
H280 C284 0.929 . S
H281 C290 0.929 . S
C282 H276 0.930 . S
C282 C283 1.367 . S
C282 C290 1.378 . S
C283 C282 1.367 . S
C283 C291 1.433 . S
C284 H280 0.929 . S
C284 C286 1.378 . S
C284 C288 1.350 . S
C285 C288 1.463 . S
C285 C290 1.350 1_655 S
C285 N293 1.427 . S
C286 H277 0.930 . S
C286 C284 1.378 . S
C286 C287 1.367 . S
C287 C286 1.367 . S
C287 C289 1.433 . S
C288 C284 1.350 . S
C288 C285 1.463 . S
C288 N292 1.427 . S
C289 H279 0.929 1_554 S
C289 C287 1.433 . S
C289 N292 1.384 . S
C290 H281 0.929 . S
C290 C282 1.378 . S
C290 C285 1.350 1_455 S
C291 H278 0.929 . S
C291 C283 1.433 . S
C291 N293 1.384 1_455 S
N292 C288 1.427 . S
N292 C289 1.384 . S
N293 C285 1.427 . S
N293 C291 1.384 1_655 S
H294 C300 0.930 . S
H295 C304 0.930 . S
H296 C309 0.929 . S
H297 C307 0.929 . S
H298 C302 0.929 . S
H299 C308 0.929 . S
C300 H294 0.930 . S
C300 C301 1.367 . S
C300 C308 1.378 1_545 S
C301 C300 1.367 . S
C301 C309 1.433 . S
C302 H298 0.929 . S
C302 C304 1.378 . S
C302 C306 1.350 . S
C303 C306 1.463 . S
C303 C308 1.350 . S
C303 N311 1.427 1_565 S
C304 H295 0.930 . S
C304 C302 1.378 . S
C304 C305 1.367 . S
C305 C304 1.367 . S
C305 C307 1.433 . S
C306 C302 1.350 . S
C306 C303 1.463 . S
C306 N310 1.427 . S
C307 H297 0.929 . S
C307 C305 1.433 . S
C307 N310 1.384 . S
C308 H299 0.929 . S
C308 C300 1.378 1_565 S
C308 C303 1.350 . S
C309 H296 0.929 . S
C309 C301 1.433 . S
C309 N311 1.384 . S
N310 C306 1.427 . S
N310 C307 1.384 . S
N311 C303 1.427 1_545 S
N311 C309 1.384 . S
H312 C318 0.930 . S
H313 C322 0.930 . S
H314 C327 0.929 . S
H315 C325 0.929 . S
H316 C320 0.929 . S
H317 C326 0.929 . S
C318 H312 0.930 . S
C318 C319 1.367 . S
C318 C326 1.378 . S
C319 C318 1.367 . S
C319 C327 1.433 . S
C320 H316 0.929 . S
C320 C322 1.378 . S
C320 C324 1.350 . S
C321 C324 1.463 . S
C321 C326 1.350 . S
C321 N329 1.427 . S
C322 H313 0.930 . S
C322 C320 1.378 . S
C322 C323 1.367 . S
C323 C322 1.367 . S
C323 C325 1.433 . S
C324 C320 1.350 . S
C324 C321 1.463 . S
C324 N328 1.427 . S
C325 H315 0.929 . S
C325 C323 1.433 . S
C325 N328 1.384 . S
C326 H317 0.929 . S
C326 C318 1.378 . S
C326 C321 1.350 . S
C327 H314 0.929 . S
C327 C319 1.433 . S
C327 N329 1.384 . S
N328 C324 1.427 . S
N328 C325 1.384 . S
N329 C321 1.427 . S
N329 C327 1.384 . S
H330 C336 0.930 . S
H331 C340 0.930 . S
H332 C345 0.929 . S
H333 C343 0.929 . S
H334 C338 0.929 . S
H335 C344 0.929 . S
C336 H330 0.930 . S
C336 C337 1.367 . S
C336 C344 1.378 1_554 S
C337 C336 1.367 . S
C337 C345 1.433 . S
C338 H334 0.929 . S
C338 C340 1.378 . S
C338 C342 1.350 . S
C339 C342 1.463 . S
C339 C344 1.350 . S
C339 N347 1.427 . S
C340 H331 0.930 . S
C340 C338 1.378 . S
C340 C341 1.367 . S
C341 C340 1.367 . S
C341 C343 1.433 . S
C342 C338 1.350 . S
C342 C339 1.463 . S
C342 N346 1.427 . S
C343 H333 0.929 . S
C343 C341 1.433 . S
C343 N346 1.384 . S
C344 H335 0.929 . S
C344 C336 1.378 1_556 S
C344 C339 1.350 . S
C345 H332 0.929 . S
C345 C337 1.433 . S
C345 N347 1.384 1_554 S
N346 C342 1.427 . S
N346 C343 1.384 . S
N347 C339 1.427 . S
N347 C345 1.384 1_556 S
H348 C354 0.930 . S
H349 C358 0.930 . S
H350 C363 0.929 . S
H351 C361 0.929 . S
H352 C356 0.929 . S
H353 C362 0.929 . S
C354 H348 0.930 . S
C354 C355 1.367 . S
C354 C362 1.378 . S
C355 C354 1.367 . S
C355 C363 1.433 . S
C356 H352 0.929 . S
C356 C358 1.378 . S
C356 C360 1.350 . S
C357 C360 1.463 . S
C357 C362 1.350 . S
C357 N365 1.427 . S
C358 H349 0.930 . S
C358 C356 1.378 . S
C358 C359 1.367 . S
C359 C358 1.367 . S
C359 C361 1.433 . S
C360 C356 1.350 . S
C360 C357 1.463 . S
C360 N364 1.427 . S
C361 H351 0.929 . S
C361 C359 1.433 . S
C361 N364 1.384 . S
C362 H353 0.929 . S
C362 C354 1.378 . S
C362 C357 1.350 . S
C363 H350 0.929 . S
C363 C355 1.433 . S
C363 N365 1.384 . S
N364 C360 1.427 . S
N364 C361 1.384 . S
N365 C357 1.427 . S
N365 C363 1.384 . S
H366 C372 0.930 . S
H367 C376 0.930 . S
H368 C381 0.929 . S
H369 C379 0.929 . S
H370 C374 0.929 . S
H371 C380 0.929 . S
C372 H366 0.930 . S
C372 C373 1.367 . S
C372 C380 1.378 . S
C373 C372 1.367 . S
C373 C381 1.433 . S
C374 H370 0.929 . S
C374 C376 1.378 . S
C374 C378 1.350 . S
C375 C378 1.463 . S
C375 C380 1.350 . S
C375 N383 1.427 . S
C376 H367 0.930 . S
C376 C374 1.378 . S
C376 C377 1.367 . S
C377 C376 1.367 . S
C377 C379 1.433 . S
C378 C374 1.350 . S
C378 C375 1.463 . S
C378 N382 1.427 . S
C379 H369 0.929 . S
C379 C377 1.433 . S
C379 N382 1.384 . S
C380 H371 0.929 . S
C380 C372 1.378 . S
C380 C375 1.350 . S
C381 H368 0.929 . S
C381 C373 1.433 . S
C381 N383 1.384 . S
N382 C378 1.427 . S
N382 C379 1.384 . S
N383 C375 1.427 . S
N383 C381 1.384 . S
H384 C390 0.930 . S
H385 C394 0.930 . S
H386 C399 0.929 . S
H387 C397 0.929 . S
H388 C392 0.929 1_556 S
H389 C398 0.929 . S
C390 H384 0.930 . S
C390 C391 1.367 . S
C390 C398 1.378 . S
C391 C390 1.367 . S
C391 C399 1.433 . S
C392 H388 0.929 1_554 S
C392 C394 1.378 . S
C392 C396 1.350 1_554 S
C393 C396 1.463 . S
C393 C398 1.350 . S
C393 N401 1.427 . S
C394 H385 0.930 . S
C394 C392 1.378 . S
C394 C395 1.367 . S
C395 C394 1.367 . S
C395 C397 1.433 . S
C396 C392 1.350 1_556 S
C396 C393 1.463 . S
C396 N400 1.427 1_556 S
C397 H387 0.929 . S
C397 C395 1.433 . S
C397 N400 1.384 . S
C398 H389 0.929 . S
C398 C390 1.378 . S
C398 C393 1.350 . S
C399 H386 0.929 . S
C399 C391 1.433 . S
C399 N401 1.384 . S
N400 C396 1.427 1_554 S
N400 C397 1.384 . S
N401 C393 1.427 . S
N401 C399 1.384 . S
H402 C408 0.930 . S
H403 C412 0.930 . S
H404 C417 0.929 . S
H405 C415 0.929 . S
H406 C410 0.929 . S
H407 C416 0.929 . S
C408 H402 0.930 . S
C408 C409 1.367 . S
C408 C416 1.378 . S
C409 C408 1.367 . S
C409 C417 1.433 . S
C410 H406 0.929 . S
C410 C412 1.378 1_554 S
C410 C414 1.350 . S
C411 C414 1.463 . S
C411 C416 1.350 . S
C411 N419 1.427 . S
C412 H403 0.930 . S
C412 C410 1.378 1_556 S
C412 C413 1.367 . S
C413 C412 1.367 . S
C413 C415 1.433 . S
C414 C410 1.350 . S
C414 C411 1.463 . S
C414 N418 1.427 . S
C415 H405 0.929 . S
C415 C413 1.433 . S
C415 N418 1.384 1_556 S
C416 H407 0.929 . S
C416 C408 1.378 . S
C416 C411 1.350 . S
C417 H404 0.929 . S
C417 C409 1.433 . S
C417 N419 1.384 . S
N418 C414 1.427 . S
N418 C415 1.384 1_554 S
N419 C411 1.427 . S
N419 C417 1.384 . S
H420 C426 0.930 . S
H421 C430 0.930 . S
H422 C435 0.929 . S
H423 C433 0.929 . S
H424 C428 0.929 . S
H425 C434 0.929 . S
C426 H420 0.930 . S
C426 C427 1.367 . S
C426 C434 1.378 . S
C427 C426 1.367 . S
C427 C435 1.433 . S
C428 H424 0.929 . S
C428 C430 1.378 . S
C428 C432 1.350 . S
C429 C432 1.463 . S
C429 C434 1.350 . S
C429 N437 1.427 . S
C430 H421 0.930 . S
C430 C428 1.378 . S
C430 C431 1.367 . S
C431 C430 1.367 . S
C431 C433 1.433 . S
C432 C428 1.350 . S
C432 C429 1.463 . S
C432 N436 1.427 . S
C433 H423 0.929 . S
C433 C431 1.433 . S
C433 N436 1.384 . S
C434 H425 0.929 . S
C434 C426 1.378 . S
C434 C429 1.350 . S
C435 H422 0.929 . S
C435 C427 1.433 . S
C435 N437 1.384 . S
N436 C432 1.427 . S
N436 C433 1.384 . S
N437 C429 1.427 . S
N437 C435 1.384 . S
H438 C444 0.930 . S
H439 C448 0.930 . S
H440 C453 0.929 . S
H441 C451 0.929 . S
H442 C446 0.929 . S
H443 C452 0.929 . S
C444 H438 0.930 . S
C444 C445 1.367 . S
C444 C452 1.378 . S
C445 C444 1.367 . S
C445 C453 1.433 . S
C446 H442 0.929 . S
C446 C448 1.378 . S
C446 C450 1.350 . S
C447 C450 1.463 . S
C447 C452 1.350 . S
C447 N455 1.427 . S
C448 H439 0.930 . S
C448 C446 1.378 . S
C448 C449 1.367 . S
C449 C448 1.367 . S
C449 C451 1.433 . S
C450 C446 1.350 . S
C450 C447 1.463 . S
C450 N454 1.427 . S
C451 H441 0.929 . S
C451 C449 1.433 . S
C451 N454 1.384 . S
C452 H443 0.929 . S
C452 C444 1.378 . S
C452 C447 1.350 . S
C453 H440 0.929 . S
C453 C445 1.433 . S
C453 N455 1.384 . S
N454 C450 1.427 . S
N454 C451 1.384 . S
N455 C447 1.427 . S
N455 C453 1.384 . S
H456 C462 0.930 . S
H457 C466 0.930 . S
H458 C471 0.929 . S
H459 C469 0.929 . S
H460 C464 0.929 1_554 S
H461 C470 0.929 . S
C462 H456 0.930 . S
C462 C463 1.367 1_556 S
C462 C470 1.378 . S
C463 C462 1.367 1_554 S
C463 C471 1.433 . S
C464 H460 0.929 1_556 S
C464 C466 1.378 . S
C464 C468 1.350 . S
C465 C468 1.463 . S
C465 C470 1.350 . S
C465 N473 1.427 1_556 S
C466 H457 0.930 . S
C466 C464 1.378 . S
C466 C467 1.367 . S
C467 C466 1.367 . S
C467 C469 1.433 . S
C468 C464 1.350 . S
C468 C465 1.463 . S
C468 N472 1.427 . S
C469 H459 0.929 . S
C469 C467 1.433 . S
C469 N472 1.384 . S
C470 H461 0.929 . S
C470 C462 1.378 . S
C470 C465 1.350 . S
C471 H458 0.929 . S
C471 C463 1.433 . S
C471 N473 1.384 . S
N472 C468 1.427 . S
N472 C469 1.384 . S
N473 C465 1.427 1_554 S
N473 C471 1.384 . S
H474 C480 0.930 . S
H475 C484 0.930 . S
H476 C489 0.929 . S
H477 C487 0.929 1_556 S
H478 C482 0.929 . S
H479 C488 0.929 . S
C480 H474 0.930 . S
C480 C481 1.367 . S
C480 C488 1.378 . S
C481 C480 1.367 . S
C481 C489 1.433 . S
C482 H478 0.929 . S
C482 C484 1.378 . S
C482 C486 1.350 . S
C483 C486 1.463 . S
C483 C488 1.350 . S
C483 N491 1.427 . S
C484 H475 0.930 . S
C484 C482 1.378 . S
C484 C485 1.367 . S
C485 C484 1.367 . S
C485 C487 1.433 . S
C486 C482 1.350 . S
C486 C483 1.463 . S
C486 N490 1.427 . S
C487 H477 0.929 1_554 S
C487 C485 1.433 . S
C487 N490 1.384 . S
C488 H479 0.929 . S
C488 C480 1.378 . S
C488 C483 1.350 . S
C489 H476 0.929 . S
C489 C481 1.433 . S
C489 N491 1.384 . S
N490 C486 1.427 . S
N490 C487 1.384 . S
N491 C483 1.427 . S
N491 C489 1.384 . S
H492 C498 0.930 . S
H493 C502 0.930 . S
H494 C507 0.929 . S
H495 C505 0.929 . S
H496 C500 0.929 . S
H497 C506 0.929 . S
C498 H492 0.930 . S
C498 C499 1.367 . S
C498 C506 1.378 . S
C499 C498 1.367 . S
C499 C507 1.433 . S
C500 H496 0.929 . S
C500 C502 1.378 . S
C500 C504 1.350 . S
C501 C504 1.463 . S
C501 C506 1.350 . S
C501 N509 1.427 . S
C502 H493 0.930 . S
C502 C500 1.378 . S
C502 C503 1.367 . S
C503 C502 1.367 . S
C503 C505 1.433 . S
C504 C500 1.350 . S
C504 C501 1.463 . S
C504 N508 1.427 . S
C505 H495 0.929 . S
C505 C503 1.433 . S
C505 N508 1.384 . S
C506 H497 0.929 . S
C506 C498 1.378 . S
C506 C501 1.350 . S
C507 H494 0.929 . S
C507 C499 1.433 . S
C507 N509 1.384 . S
N508 C504 1.427 . S
N508 C505 1.384 . S
N509 C501 1.427 . S
N509 C507 1.384 . S
H510 C516 0.930 1_554 S
H511 C520 0.930 . S
H512 C525 0.929 . S
H513 C523 0.929 . S
H514 C518 0.929 . S
H515 C524 0.929 . S
C516 H510 0.930 1_556 S
C516 C517 1.367 . S
C516 C524 1.378 . S
C517 C516 1.367 . S
C517 C525 1.433 . S
C518 H514 0.929 . S
C518 C520 1.378 . S
C518 C522 1.350 . S
C519 C522 1.463 . S
C519 C524 1.350 . S
C519 N527 1.427 . S
C520 H511 0.930 . S
C520 C518 1.378 . S
C520 C521 1.367 . S
C521 C520 1.367 . S
C521 C523 1.433 . S
C522 C518 1.350 . S
C522 C519 1.463 . S
C522 N526 1.427 . S
C523 H513 0.929 . S
C523 C521 1.433 . S
C523 N526 1.384 . S
C524 H515 0.929 . S
C524 C516 1.378 . S
C524 C519 1.350 . S
C525 H512 0.929 . S
C525 C517 1.433 . S
C525 N527 1.384 . S
N526 C522 1.427 . S
N526 C523 1.384 . S
N527 C519 1.427 . S
N527 C525 1.384 . S
C211 C174 1.442 . S
C215 C4 1.436 1_556 S
C229 C17 1.658 . S
C233 C51 1.654 . S
C247 C38 1.444 . S
C251 C72 1.439 . S
C265 C85 1.655 . S
C269 C119 1.656 . S
C283 C140 1.441 . S
C287 C106 1.436 . S
C301 C187 1.656 . S
C305 C153 1.655 . S
C319 C0 0.935 . S
C323 C29 0.935 . S
C337 C63 0.935 . S
C341 C34 0.935 . S
C355 C68 0.936 . S
C359 C97 0.936 1_554 S
C373 C131 0.927 . S
C377 C102 0.927 . S
C391 C165 0.931 . S
C395 C136 0.931 . S
C409 C199 0.937 . S
C413 C170 0.937 . S
C427 C13 1.709 . S
C431 C144 1.762 . S
C445 C42 1.762 . S
C449 C183 1.709 . S
C463 C8 1.762 . S
C467 C81 1.710 . S
C481 C47 1.703 . S
C485 C110 1.760 . S
C499 C149 1.704 . S
C503 C76 1.760 . S
C517 C115 1.704 . S
C521 C178 1.762 . S
