# Generated by pormake.
# Topology umc, (4)-cn, num edge types: 1
# Building blocks:
#     Node 0, Type 0, BuildingBlock: KOZSID_clean_sbu_0, # of connection points: 4
#     Node 1, Type 0, BuildingBlock: KOZSID_clean_sbu_0, # of connection points: 4
#     Node 2, Type 0, BuildingBlock: KOZSID_clean_sbu_0, # of connection points: 4
#     Node 3, Type 0, BuildingBlock: KOZSID_clean_sbu_0, # of connection points: 4
#     Node 4, Type 0, BuildingBlock: KOZSID_clean_sbu_0, # of connection points: 4
#     Node 5, Type 0, BuildingBlock: KOZSID_clean_sbu_0, # of connection points: 4
#     Node 6, Type 0, BuildingBlock: KOZSID_clean_sbu_0, # of connection points: 4
#     Node 7, Type 0, BuildingBlock: KOZSID_clean_sbu_0, # of connection points: 4
#     Node 8, Type 0, BuildingBlock: KOZSID_clean_sbu_0, # of connection points: 4
#     Node 9, Type 0, BuildingBlock: KOZSID_clean_sbu_0, # of connection points: 4
#     Node 10, Type 0, BuildingBlock: KOZSID_clean_sbu_0, # of connection points: 4
#     Node 11, Type 0, BuildingBlock: KOZSID_clean_sbu_0, # of connection points: 4
#     Node 12, Type 0, BuildingBlock: KOZSID_clean_sbu_0, # of connection points: 4
#     Node 13, Type 0, BuildingBlock: KOZSID_clean_sbu_0, # of connection points: 4
#     Node 14, Type 0, BuildingBlock: KOZSID_clean_sbu_0, # of connection points: 4
#     Node 15, Type 0, BuildingBlock: KOZSID_clean_sbu_0, # of connection points: 4
#     Edge 16, Type (0, 0), BuildingBlock: ZUJKAS_clean_linker_0, # of connection points: 2
#     Edge 17, Type (0, 0), BuildingBlock: ZUJKAS_clean_linker_0, # of connection points: 2
#     Edge 18, Type (0, 0), BuildingBlock: ZUJKAS_clean_linker_0, # of connection points: 2
#     Edge 19, Type (0, 0), BuildingBlock: ZUJKAS_clean_linker_0, # of connection points: 2
#     Edge 20, Type (0, 0), BuildingBlock: ZUJKAS_clean_linker_0, # of connection points: 2
#     Edge 21, Type (0, 0), BuildingBlock: ZUJKAS_clean_linker_0, # of connection points: 2
#     Edge 22, Type (0, 0), BuildingBlock: ZUJKAS_clean_linker_0, # of connection points: 2
#     Edge 23, Type (0, 0), BuildingBlock: ZUJKAS_clean_linker_0, # of connection points: 2
#     Edge 24, Type (0, 0), BuildingBlock: ZUJKAS_clean_linker_0, # of connection points: 2
#     Edge 25, Type (0, 0), BuildingBlock: ZUJKAS_clean_linker_0, # of connection points: 2
#     Edge 26, Type (0, 0), BuildingBlock: ZUJKAS_clean_linker_0, # of connection points: 2
#     Edge 27, Type (0, 0), BuildingBlock: ZUJKAS_clean_linker_0, # of connection points: 2
#     Edge 28, Type (0, 0), BuildingBlock: ZUJKAS_clean_linker_0, # of connection points: 2
#     Edge 29, Type (0, 0), BuildingBlock: ZUJKAS_clean_linker_0, # of connection points: 2
#     Edge 30, Type (0, 0), BuildingBlock: ZUJKAS_clean_linker_0, # of connection points: 2
#     Edge 31, Type (0, 0), BuildingBlock: ZUJKAS_clean_linker_0, # of connection points: 2
#     Edge 32, Type (0, 0), BuildingBlock: ZUJKAS_clean_linker_0, # of connection points: 2
#     Edge 33, Type (0, 0), BuildingBlock: ZUJKAS_clean_linker_0, # of connection points: 2
#     Edge 34, Type (0, 0), BuildingBlock: ZUJKAS_clean_linker_0, # of connection points: 2
#     Edge 35, Type (0, 0), BuildingBlock: ZUJKAS_clean_linker_0, # of connection points: 2
#     Edge 36, Type (0, 0), BuildingBlock: ZUJKAS_clean_linker_0, # of connection points: 2
#     Edge 37, Type (0, 0), BuildingBlock: ZUJKAS_clean_linker_0, # of connection points: 2
#     Edge 38, Type (0, 0), BuildingBlock: ZUJKAS_clean_linker_0, # of connection points: 2
#     Edge 39, Type (0, 0), BuildingBlock: ZUJKAS_clean_linker_0, # of connection points: 2
#     Edge 40, Type (0, 0), BuildingBlock: ZUJKAS_clean_linker_0, # of connection points: 2
#     Edge 41, Type (0, 0), BuildingBlock: ZUJKAS_clean_linker_0, # of connection points: 2
#     Edge 42, Type (0, 0), BuildingBlock: ZUJKAS_clean_linker_0, # of connection points: 2
#     Edge 43, Type (0, 0), BuildingBlock: ZUJKAS_clean_linker_0, # of connection points: 2
#     Edge 44, Type (0, 0), BuildingBlock: ZUJKAS_clean_linker_0, # of connection points: 2
#     Edge 45, Type (0, 0), BuildingBlock: ZUJKAS_clean_linker_0, # of connection points: 2
#     Edge 46, Type (0, 0), BuildingBlock: ZUJKAS_clean_linker_0, # of connection points: 2
#     Edge 47, Type (0, 0), BuildingBlock: ZUJKAS_clean_linker_0, # of connection points: 2
# Relax obj value: 0.055
# Max RMSD: 0.169
# Mean RMSD: 0.169
data_MOF--net-umc--node1-KOZSID_clean_sbu_0--edge1-ZUJKAS_clean_linker_0
_symmetry_space_group_name_H-M    P1
_symmetry_Int_Tables_number       1
_symmetry_cell_setting            triclinic
loop_
_symmetry_equiv_pos_as_xyz
'x, y, z'
_cell_length_a     82.099071
_cell_length_b     49.338347
_cell_length_c     79.561545
_cell_angle_alpha  90.01302
_cell_angle_beta   90.014522
_cell_angle_gamma 90.034131
loop_
_atom_site_label
_atom_site_type_symbol
_atom_site_fract_x
_atom_site_fract_y
_atom_site_fract_z
_atom_type_partial_charge
C0 C 0.37292 0.06548 0.34398 0.0
C1 C 0.36315 0.0434 0.34003 0.0
C2 C 0.35429 0.0375 0.35418 0.0
C3 C 0.35907 0.0563 0.36591 0.0
N4 N 0.37039 0.0736 0.36002 0.0
Co5 Co 0.38018 0.10414 0.37264 0.0
N6 N 0.37411 0.0878 0.39453 0.0
C7 C 0.36265 0.06862 0.39685 0.0
C8 C 0.36066 0.06167 0.41342 0.0
C9 C 0.37143 0.07765 0.42208 0.0
C10 C 0.37946 0.09353 0.41026 0.0
N11 N 0.38974 0.13492 0.38533 0.0
C12 C 0.39365 0.13699 0.40187 0.0
C13 C 0.39994 0.16248 0.40542 0.0
C14 C 0.39963 0.17689 0.39065 0.0
C15 C 0.39327 0.15946 0.37889 0.0
N16 N 0.38626 0.12007 0.3506 0.0
C17 C 0.39028 0.14611 0.34783 0.0
C18 C 0.39451 0.15091 0.33139 0.0
C19 C 0.39298 0.12636 0.32335 0.0
C20 C 0.38777 0.10789 0.33536 0.0
N21 N 0.35918 0.12373 0.37196 0.0
C22 C 0.3311 0.15683 0.37054 0.0
C23 C 0.33687 0.14325 0.3562 0.0
C24 C 0.35077 0.12667 0.3572 0.0
C25 C 0.3395 0.1527 0.38568 0.0
C26 C 0.35342 0.13629 0.38612 0.0
N27 N 0.40128 0.0853 0.37328 0.0
C28 C 0.43049 0.08731 0.37023 0.0
C29 C 0.43197 0.05945 0.37342 0.0
C30 C 0.41757 0.0449 0.37677 0.0
C31 C 0.4024 0.05819 0.37671 0.0
C32 C 0.41519 0.09965 0.37008 0.0
H33 H 0.39156 0.04654 0.37931 0.0
H34 H 0.41468 0.12098 0.36733 0.0
H35 H 0.35491 0.11668 0.34592 0.0
H36 H 0.35976 0.13442 0.39791 0.0
C37 C 0.35561 0.05531 0.38311 0.0
C38 C 0.38361 0.07931 0.33193 0.0
C39 C 0.39052 0.11592 0.41461 0.0
C40 C 0.3929 0.16373 0.36143 0.0
H41 H 0.36244 0.03273 0.32816 0.0
H42 H 0.34589 0.02081 0.35589 0.0
H43 H 0.35258 0.04645 0.41857 0.0
H44 H 0.37289 0.07802 0.4356 0.0
H45 H 0.40421 0.16996 0.41742 0.0
H46 H 0.40406 0.1973 0.38864 0.0
H47 H 0.39897 0.16966 0.32603 0.0
H48 H 0.39552 0.12256 0.31023 0.0
H49 H 0.33069 0.14541 0.34424 0.0
H50 H 0.33568 0.16283 0.3971 0.0
H51 H 0.4411 0.09982 0.368 0.0
H52 H 0.41791 0.02332 0.37918 0.0
C53 C 0.65355 0.93878 0.3446 0.0
C54 C 0.66306 0.96122 0.34076 0.0
C55 C 0.67192 0.9671 0.35492 0.0
C56 C 0.66737 0.94798 0.36655 0.0
N57 N 0.65619 0.93051 0.36059 0.0
Co58 Co 0.64645 0.89982 0.37312 0.0
N59 N 0.6525 0.91605 0.39506 0.0
C60 C 0.66391 0.9353 0.39745 0.0
C61 C 0.66583 0.94219 0.41404 0.0
C62 C 0.65507 0.92611 0.42263 0.0
C63 C 0.64712 0.91023 0.41075 0.0
N64 N 0.63691 0.86894 0.38571 0.0
C65 C 0.633 0.86677 0.40224 0.0
C66 C 0.62681 0.8412 0.40574 0.0
C67 C 0.62716 0.82687 0.39094 0.0
C68 C 0.63345 0.84441 0.3792 0.0
N69 N 0.6404 0.88399 0.35105 0.0
C70 C 0.63657 0.8579 0.34819 0.0
C71 C 0.63269 0.85308 0.33164 0.0
C72 C 0.63424 0.87769 0.32366 0.0
C73 C 0.63902 0.8962 0.33582 0.0
N74 N 0.66747 0.88028 0.37242 0.0
C75 C 0.69532 0.84649 0.37095 0.0
C76 C 0.68968 0.86045 0.35666 0.0
C77 C 0.67589 0.8773 0.35768 0.0
C78 C 0.68698 0.851 0.38612 0.0
C79 C 0.67319 0.86768 0.38656 0.0
N80 N 0.62533 0.91859 0.37385 0.0
C81 C 0.59608 0.91642 0.37126 0.0
C82 C 0.59461 0.94395 0.37527 0.0
C83 C 0.60898 0.95865 0.37835 0.0
C84 C 0.62419 0.94556 0.37769 0.0
C85 C 0.61142 0.90426 0.37053 0.0
H86 H 0.63503 0.95719 0.38036 0.0
H87 H 0.61198 0.88311 0.36728 0.0
H88 H 0.67177 0.88732 0.34639 0.0
H89 H 0.66693 0.86977 0.39838 0.0
C90 C 0.67086 0.94886 0.38376 0.0
C91 C 0.64298 0.92482 0.33251 0.0
C92 C 0.63603 0.88785 0.41499 0.0
C93 C 0.63394 0.84018 0.36173 0.0
H94 H 0.66354 0.97217 0.32899 0.0
H95 H 0.68014 0.98402 0.35672 0.0
H96 H 0.67383 0.95749 0.41925 0.0
H97 H 0.65354 0.92571 0.43614 0.0
H98 H 0.62259 0.83363 0.41774 0.0
H99 H 0.62283 0.80641 0.38889 0.0
H100 H 0.62852 0.83424 0.32615 0.0
H101 H 0.63209 0.88156 0.31046 0.0
H102 H 0.69552 0.8578 0.34458 0.0
H103 H 0.69097 0.84157 0.39769 0.0
H104 H 0.58541 0.90429 0.36847 0.0
H105 H 0.60846 0.97996 0.38155 0.0
C106 C 0.37293 0.93816 0.16547 0.0
C107 C 0.36314 0.96028 0.16924 0.0
C108 C 0.35433 0.96593 0.15502 0.0
C109 C 0.35916 0.94695 0.14343 0.0
N110 N 0.37046 0.92979 0.14947 0.0
Co111 Co 0.38033 0.89909 0.13708 0.0
N112 N 0.37431 0.91504 0.11506 0.0
C113 C 0.36278 0.93404 0.11258 0.0
C114 C 0.36076 0.94064 0.09597 0.0
C115 C 0.37158 0.9246 0.08744 0.0
C116 C 0.37967 0.90906 0.09939 0.0
N117 N 0.39004 0.86822 0.1246 0.0
C118 C 0.39408 0.86598 0.1081 0.0
C119 C 0.4005 0.84053 0.10474 0.0
C120 C 0.40014 0.82632 0.11958 0.0
C121 C 0.39362 0.84381 0.1312 0.0
N122 N 0.38627 0.88348 0.15924 0.0
C123 C 0.39029 0.85749 0.16216 0.0
C124 C 0.39439 0.85291 0.17867 0.0
C125 C 0.39279 0.87755 0.18657 0.0
C126 C 0.38767 0.89585 0.17443 0.0
N127 N 0.35935 0.8794 0.13773 0.0
C128 C 0.33119 0.84635 0.13922 0.0
C129 C 0.33662 0.86094 0.15335 0.0
C130 C 0.35062 0.87732 0.15234 0.0
C131 C 0.34003 0.84948 0.12423 0.0
C132 C 0.3539 0.86601 0.12374 0.0
N133 N 0.40141 0.91804 0.13645 0.0
C134 C 0.43058 0.91631 0.13984 0.0
C135 C 0.43206 0.94399 0.13613 0.0
C136 C 0.41768 0.95833 0.1324 0.0
C137 C 0.40252 0.94499 0.13259 0.0
C138 C 0.4153 0.9039 0.14003 0.0
H139 H 0.39169 0.95648 0.1297 0.0
H140 H 0.41478 0.88268 0.1431 0.0
H141 H 0.35456 0.8879 0.1635 0.0
H142 H 0.36046 0.86731 0.11205 0.0
C143 C 0.35571 0.94759 0.12621 0.0
C144 C 0.38352 0.92448 0.17767 0.0
C145 C 0.39087 0.88679 0.09521 0.0
C146 C 0.39309 0.83974 0.14867 0.0
H147 H 0.36238 0.97112 0.18105 0.0
H148 H 0.34592 0.98255 0.15317 0.0
H149 H 0.35263 0.95566 0.0907 0.0
H150 H 0.37302 0.92398 0.07392 0.0
H151 H 0.40489 0.83294 0.09282 0.0
H152 H 0.40462 0.80598 0.12173 0.0
H153 H 0.39884 0.83425 0.18414 0.0
H154 H 0.39525 0.88153 0.19969 0.0
H155 H 0.33014 0.85974 0.16517 0.0
H156 H 0.3366 0.83856 0.11297 0.0
H157 H 0.4412 0.90399 0.14242 0.0
H158 H 0.41806 0.97978 0.12957 0.0
C159 C 0.65402 0.06386 0.16551 0.0
C160 C 0.66343 0.04127 0.16922 0.0
C161 C 0.67223 0.03544 0.15502 0.0
C162 C 0.66768 0.05466 0.14346 0.0
N163 N 0.65656 0.07215 0.1495 0.0
Co164 Co 0.64672 0.10281 0.13699 0.0
N165 N 0.65278 0.0867 0.11502 0.0
C166 C 0.66419 0.06749 0.11259 0.0
C167 C 0.6661 0.06066 0.09599 0.0
C168 C 0.65532 0.07675 0.08743 0.0
C169 C 0.64738 0.09255 0.09934 0.0
N170 N 0.63712 0.13367 0.12445 0.0
C171 C 0.63319 0.13588 0.10792 0.0
C172 C 0.62696 0.16142 0.10446 0.0
C173 C 0.62729 0.1757 0.11928 0.0
C174 C 0.63362 0.15816 0.13098 0.0
N175 N 0.64065 0.11851 0.15908 0.0
C176 C 0.63679 0.14457 0.16198 0.0
C177 C 0.63299 0.14936 0.17855 0.0
C178 C 0.63464 0.12476 0.18651 0.0
C179 C 0.63934 0.10628 0.17431 0.0
N180 N 0.6677 0.1225 0.13771 0.0
C181 C 0.69548 0.15651 0.1392 0.0
C182 C 0.68988 0.14247 0.15349 0.0
C183 C 0.67613 0.12552 0.15245 0.0
C184 C 0.68715 0.15196 0.12403 0.0
C185 C 0.67339 0.13518 0.12358 0.0
N186 N 0.62564 0.08389 0.13625 0.0
C187 C 0.59638 0.0859 0.13875 0.0
C188 C 0.59497 0.05836 0.13475 0.0
C189 C 0.60936 0.04373 0.13173 0.0
C190 C 0.62455 0.0569 0.13242 0.0
C191 C 0.61171 0.09813 0.13953 0.0
H192 H 0.63541 0.04534 0.12978 0.0
H193 H 0.61223 0.11929 0.14278 0.0
H194 H 0.67203 0.11545 0.16373 0.0
H195 H 0.66713 0.13307 0.11175 0.0
C196 C 0.67112 0.05387 0.12625 0.0
C197 C 0.64351 0.07779 0.17766 0.0
C198 C 0.63626 0.11488 0.09513 0.0
C199 C 0.63411 0.16233 0.14846 0.0
H200 H 0.66389 0.03012 0.18092 0.0
H201 H 0.68037 0.01846 0.15313 0.0
H202 H 0.67408 0.04539 0.09076 0.0
H203 H 0.65378 0.07718 0.07392 0.0
H204 H 0.62272 0.16901 0.09247 0.0
H205 H 0.62293 0.19613 0.12136 0.0
H206 H 0.62887 0.16819 0.18408 0.0
H207 H 0.63266 0.12085 0.19974 0.0
H208 H 0.69572 0.14514 0.16557 0.0
H209 H 0.69111 0.16145 0.11247 0.0
H210 H 0.58568 0.09796 0.14147 0.0
H211 H 0.60887 0.0224 0.12854 0.0
C212 C 0.63978 0.89632 0.67449 0.0
C213 C 0.63524 0.87775 0.6867 0.0
C214 C 0.63372 0.85312 0.67874 0.0
C215 C 0.63742 0.858 0.66215 0.0
N216 N 0.64111 0.88413 0.65925 0.0
Co217 Co 0.64701 0.89997 0.63715 0.0
N218 N 0.63756 0.86891 0.62462 0.0
C219 C 0.63424 0.84436 0.63117 0.0
C220 C 0.62794 0.82671 0.61949 0.0
C221 C 0.62745 0.84099 0.60468 0.0
C222 C 0.63358 0.86663 0.60811 0.0
N223 N 0.65289 0.9162 0.61517 0.0
C224 C 0.64751 0.9102 0.5995 0.0
C225 C 0.65536 0.92611 0.58757 0.0
C226 C 0.66604 0.94242 0.59611 0.0
C227 C 0.66418 0.93561 0.61271 0.0
N228 N 0.65667 0.93082 0.64963 0.0
C229 C 0.66769 0.9485 0.64358 0.0
C230 C 0.67217 0.96778 0.65514 0.0
C231 C 0.66345 0.96177 0.66937 0.0
C232 C 0.65414 0.93905 0.66566 0.0
N233 N 0.66812 0.88072 0.63781 0.0
C234 C 0.6963 0.84787 0.63927 0.0
C235 C 0.68784 0.85175 0.62414 0.0
C236 C 0.67387 0.86805 0.62368 0.0
C237 C 0.69056 0.86161 0.65356 0.0
C238 C 0.67661 0.87807 0.65254 0.0
N239 N 0.62579 0.91847 0.63653 0.0
C240 C 0.60928 0.95858 0.6329 0.0
C241 C 0.59496 0.94387 0.63638 0.0
C242 C 0.59661 0.91608 0.63972 0.0
C243 C 0.61197 0.90396 0.63988 0.0
C244 C 0.62451 0.94551 0.63296 0.0
H245 H 0.61262 0.88268 0.64274 0.0
H246 H 0.63527 0.95729 0.63025 0.0
H247 H 0.66747 0.86971 0.61191 0.0
H248 H 0.67249 0.88817 0.66379 0.0
C249 C 0.63481 0.84019 0.64864 0.0
C250 C 0.64376 0.9249 0.67784 0.0
C251 C 0.6365 0.88767 0.5953 0.0
C252 C 0.67107 0.94936 0.62636 0.0
H253 H 0.63328 0.8816 0.69994 0.0
H254 H 0.62974 0.83421 0.68427 0.0
H255 H 0.62369 0.80622 0.62159 0.0
H256 H 0.62318 0.83333 0.59272 0.0
H257 H 0.65383 0.92558 0.57406 0.0
H258 H 0.67394 0.9578 0.59086 0.0
H259 H 0.68022 0.98488 0.65325 0.0
H260 H 0.6639 0.97286 0.68109 0.0
H261 H 0.69164 0.8415 0.61276 0.0
H262 H 0.69679 0.85966 0.6655 0.0
H263 H 0.60881 0.98012 0.63038 0.0
H264 H 0.58607 0.90345 0.64207 0.0
C265 C 0.3879 0.10696 0.67435 0.0
C266 C 0.39262 0.12543 0.68656 0.0
C267 C 0.39429 0.15003 0.67861 0.0
C268 C 0.39048 0.14525 0.66203 0.0
N269 N 0.38658 0.1192 0.65912 0.0
Co270 Co 0.38047 0.10351 0.63704 0.0
N271 N 0.3901 0.13437 0.62449 0.0
C272 C 0.39369 0.15882 0.63105 0.0
C273 C 0.40011 0.17632 0.61938 0.0
C274 C 0.40039 0.16208 0.60455 0.0
C275 C 0.39402 0.1366 0.60796 0.0
N276 N 0.37436 0.08742 0.61507 0.0
C277 C 0.37968 0.09335 0.59936 0.0
C278 C 0.37161 0.07764 0.58747 0.0
C279 C 0.36088 0.06152 0.59607 0.0
C280 C 0.36292 0.06824 0.61266 0.0
N281 N 0.37064 0.07284 0.64955 0.0
C282 C 0.35948 0.05538 0.64353 0.0
C283 C 0.35493 0.03617 0.6551 0.0
C284 C 0.36375 0.04198 0.66929 0.0
C285 C 0.37321 0.06454 0.66555 0.0
N286 N 0.35951 0.12321 0.63778 0.0
C287 C 0.33172 0.15716 0.63929 0.0
C288 C 0.34005 0.15267 0.62412 0.0
C289 C 0.35382 0.13592 0.62365 0.0
C290 C 0.33733 0.14312 0.65357 0.0
C291 C 0.35109 0.12619 0.65252 0.0
N292 N 0.40155 0.08458 0.63627 0.0
C293 C 0.41781 0.04445 0.63168 0.0
C294 C 0.43221 0.05904 0.63477 0.0
C295 C 0.43081 0.08655 0.63885 0.0
C296 C 0.41549 0.0988 0.63961 0.0
C297 C 0.40262 0.05762 0.63237 0.0
H298 H 0.41499 0.11993 0.64291 0.0
H299 H 0.39176 0.04608 0.62969 0.0
H300 H 0.36007 0.13385 0.61183 0.0
H301 H 0.35519 0.11611 0.66379 0.0
C302 C 0.3932 0.16299 0.64852 0.0
C303 C 0.38374 0.07845 0.67769 0.0
C304 C 0.39078 0.11573 0.5951 0.0
C305 C 0.356 0.05462 0.62633 0.0
H306 H 0.39463 0.12151 0.69978 0.0
H307 H 0.39844 0.16885 0.68413 0.0
H308 H 0.40456 0.19669 0.62148 0.0
H309 H 0.4047 0.16967 0.59259 0.0
H310 H 0.37302 0.07818 0.57395 0.0
H311 H 0.35282 0.04633 0.59085 0.0
H312 H 0.34675 0.01922 0.65323 0.0
H313 H 0.36329 0.03087 0.681 0.0
H314 H 0.33609 0.16216 0.61256 0.0
H315 H 0.3315 0.14574 0.66565 0.0
H316 H 0.41827 0.02315 0.62843 0.0
H317 H 0.4415 0.0986 0.64165 0.0
C318 C 0.63963 0.10685 0.83564 0.0
C319 C 0.63477 0.12526 0.82346 0.0
C320 C 0.63321 0.1499 0.8314 0.0
C321 C 0.63716 0.14519 0.84794 0.0
N322 N 0.64105 0.11915 0.85084 0.0
Co323 Co 0.64723 0.1035 0.87291 0.0
N324 N 0.6377 0.1344 0.88548 0.0
C325 C 0.63414 0.15886 0.87894 0.0
C326 C 0.62778 0.17637 0.89065 0.0
C327 C 0.62751 0.1621 0.90548 0.0
C328 C 0.6338 0.1366 0.90201 0.0
N329 N 0.65345 0.0875 0.89485 0.0
C330 C 0.64815 0.0934 0.91055 0.0
C331 C 0.65625 0.07775 0.92244 0.0
C332 C 0.667 0.0617 0.91382 0.0
C333 C 0.66494 0.06841 0.89722 0.0
N334 N 0.65695 0.07278 0.8604 0.0
C335 C 0.66821 0.05545 0.86633 0.0
C336 C 0.67275 0.03629 0.85472 0.0
C337 C 0.66379 0.04201 0.8406 0.0
C338 C 0.65425 0.06439 0.84444 0.0
N339 N 0.66821 0.12313 0.87202 0.0
C340 C 0.69625 0.15629 0.87028 0.0
C341 C 0.68786 0.15256 0.88545 0.0
C342 C 0.67396 0.13608 0.88605 0.0
C343 C 0.69051 0.14227 0.85608 0.0
C344 C 0.67661 0.12569 0.85724 0.0
N345 N 0.62616 0.0846 0.8738 0.0
C346 C 0.60995 0.04439 0.87835 0.0
C347 C 0.59554 0.05896 0.87534 0.0
C348 C 0.5969 0.08651 0.87135 0.0
C349 C 0.61221 0.0988 0.87055 0.0
C350 C 0.62512 0.05762 0.87765 0.0
H351 H 0.6127 0.11995 0.86728 0.0
H352 H 0.63599 0.0461 0.88027 0.0
H353 H 0.66763 0.13448 0.89787 0.0
H354 H 0.67247 0.1154 0.84606 0.0
C355 C 0.63454 0.16298 0.86146 0.0
C356 C 0.64363 0.07824 0.83237 0.0
C357 C 0.63695 0.11562 0.9148 0.0
C358 C 0.67182 0.05477 0.88352 0.0
H359 H 0.63257 0.12131 0.81028 0.0
H360 H 0.62898 0.16868 0.8259 0.0
H361 H 0.62335 0.19675 0.88857 0.0
H362 H 0.62324 0.16968 0.91745 0.0
H363 H 0.65481 0.07827 0.93595 0.0
H364 H 0.67509 0.04655 0.91902 0.0
H365 H 0.68103 0.01947 0.85651 0.0
H366 H 0.66426 0.03102 0.82883 0.0
H367 H 0.69165 0.16303 0.89676 0.0
H368 H 0.69669 0.14409 0.84411 0.0
H369 H 0.60949 0.02306 0.88154 0.0
H370 H 0.58618 0.09853 0.86863 0.0
C371 C 0.38807 0.89651 0.8355 0.0
C372 C 0.39278 0.87799 0.82333 0.0
C373 C 0.39432 0.85338 0.8313 0.0
C374 C 0.3905 0.85822 0.84786 0.0
N375 N 0.38671 0.88431 0.85074 0.0
Co376 Co 0.38081 0.90017 0.87284 0.0
N377 N 0.39033 0.86924 0.88539 0.0
C378 C 0.39375 0.84472 0.87885 0.0
C379 C 0.40007 0.82714 0.89054 0.0
C380 C 0.40047 0.84142 0.90535 0.0
C381 C 0.39427 0.867 0.90191 0.0
N382 N 0.3749 0.91644 0.89481 0.0
C383 C 0.38026 0.91052 0.9105 0.0
C384 C 0.37236 0.92643 0.9224 0.0
C385 C 0.36167 0.94263 0.91382 0.0
C386 C 0.36356 0.93577 0.89723 0.0
N387 N 0.37108 0.9309 0.86034 0.0
C388 C 0.35996 0.94842 0.86634 0.0
C389 C 0.35541 0.96756 0.85472 0.0
C390 C 0.3642 0.96163 0.84053 0.0
C391 C 0.37367 0.93915 0.84433 0.0
N392 N 0.35975 0.88073 0.87223 0.0
C393 C 0.33185 0.84701 0.87084 0.0
C394 C 0.34023 0.8515 0.88598 0.0
C395 C 0.35405 0.86814 0.88639 0.0
C396 C 0.33745 0.86097 0.85653 0.0
C397 C 0.35127 0.87779 0.85752 0.0
N398 N 0.40197 0.91885 0.87343 0.0
C399 C 0.41839 0.959 0.87737 0.0
C400 C 0.43272 0.94446 0.87375 0.0
C401 C 0.43114 0.91675 0.87014 0.0
C402 C 0.4158 0.90451 0.86995 0.0
C403 C 0.40318 0.94584 0.87718 0.0
H404 H 0.4152 0.88326 0.86696 0.0
H405 H 0.3924 0.95748 0.87999 0.0
H406 H 0.36035 0.87021 0.89819 0.0
H407 H 0.35537 0.8878 0.84622 0.0
C408 C 0.39317 0.84049 0.86139 0.0
C409 C 0.38417 0.92515 0.83221 0.0
C410 C 0.39121 0.88795 0.91475 0.0
C411 C 0.35658 0.94934 0.88356 0.0
H412 H 0.39492 0.88186 0.81013 0.0
H413 H 0.39845 0.83454 0.8258 0.0
H414 H 0.40438 0.80668 0.88845 0.0
H415 H 0.40473 0.83379 0.91732 0.0
H416 H 0.37386 0.92595 0.93591 0.0
H417 H 0.35371 0.95795 0.91905 0.0
H418 H 0.34725 0.98452 0.85655 0.0
H419 H 0.36369 0.97256 0.82875 0.0
H420 H 0.33627 0.84207 0.89757 0.0
H421 H 0.33157 0.85834 0.84447 0.0
H422 H 0.41884 0.98048 0.8801 0.0
H423 H 0.44172 0.9043 0.86764 0.0
C424 C 0.87317 0.56497 0.34433 0.0
C425 C 0.86374 0.54242 0.34051 0.0
C426 C 0.85494 0.53643 0.35469 0.0
C427 C 0.85946 0.55559 0.36632 0.0
N428 N 0.87056 0.57318 0.36034 0.0
Co429 Co 0.8802 0.60398 0.37285 0.0
N430 N 0.87428 0.58769 0.3948 0.0
C431 C 0.86294 0.56833 0.39721 0.0
C432 C 0.86108 0.56144 0.4138 0.0
C433 C 0.87181 0.57764 0.42238 0.0
C434 C 0.87967 0.59358 0.41047 0.0
N435 N 0.88966 0.63497 0.38543 0.0
C436 C 0.89363 0.63715 0.40194 0.0
C437 C 0.89974 0.66278 0.40544 0.0
C438 C 0.89928 0.67713 0.39065 0.0
C439 C 0.893 0.65954 0.37893 0.0
N440 N 0.88611 0.6199 0.35078 0.0
C441 C 0.88982 0.64604 0.34791 0.0
C442 C 0.89361 0.65093 0.33136 0.0
C443 C 0.89213 0.62631 0.32337 0.0
C444 C 0.88748 0.60773 0.33553 0.0
N445 N 0.8591 0.62326 0.3722 0.0
C446 C 0.83096 0.6562 0.37077 0.0
C447 C 0.83669 0.64248 0.35646 0.0
C448 C 0.85062 0.62598 0.35747 0.0
C449 C 0.8394 0.65224 0.3859 0.0
C450 C 0.85335 0.63591 0.38634 0.0
N451 N 0.90141 0.58545 0.37348 0.0
C452 C 0.93059 0.58776 0.37022 0.0
C453 C 0.93222 0.56007 0.37386 0.0
C454 C 0.91792 0.54544 0.37747 0.0
C455 C 0.90268 0.55849 0.37725 0.0
C456 C 0.91522 0.59989 0.37 0.0
H457 H 0.89191 0.54676 0.38005 0.0
H458 H 0.91458 0.62113 0.367 0.0
H459 H 0.85474 0.6159 0.34621 0.0
H460 H 0.85975 0.6342 0.39811 0.0
C461 C 0.85602 0.55469 0.38353 0.0
C462 C 0.88363 0.57907 0.33222 0.0
C463 C 0.89072 0.61603 0.4147 0.0
C464 C 0.89243 0.66379 0.36146 0.0
H465 H 0.86325 0.5315 0.32872 0.0
H466 H 0.84679 0.51943 0.35651 0.0
H467 H 0.85315 0.54606 0.41903 0.0
H468 H 0.87337 0.57806 0.43588 0.0
H469 H 0.90399 0.67038 0.41742 0.0
H470 H 0.90353 0.69764 0.3886 0.0
H471 H 0.89768 0.66982 0.32586 0.0
H472 H 0.89425 0.62248 0.31016 0.0
H473 H 0.83047 0.6445 0.34452 0.0
H474 H 0.8356 0.66247 0.39728 0.0
H475 H 0.94114 0.60029 0.36772 0.0
H476 H 0.9184 0.52397 0.38022 0.0
C477 C 0.15383 0.43968 0.34482 0.0
C478 C 0.16339 0.46204 0.34095 0.0
C479 C 0.17228 0.46791 0.35509 0.0
C480 C 0.16769 0.44884 0.36674 0.0
N481 N 0.15647 0.43142 0.36081 0.0
Co482 Co 0.14675 0.40074 0.37336 0.0
N483 N 0.15285 0.41696 0.39529 0.0
C484 C 0.16428 0.43617 0.39765 0.0
C485 C 0.16628 0.44302 0.41423 0.0
C486 C 0.15555 0.42693 0.42286 0.0
C487 C 0.14753 0.4111 0.411 0.0
N488 N 0.13723 0.36985 0.38597 0.0
C489 C 0.13335 0.36768 0.40251 0.0
C490 C 0.1271 0.34214 0.406 0.0
C491 C 0.1274 0.32782 0.39119 0.0
C492 C 0.13372 0.34534 0.37946 0.0
N493 N 0.14065 0.38492 0.3513 0.0
C494 C 0.13677 0.35885 0.34844 0.0
C495 C 0.1328 0.35405 0.33192 0.0
C496 C 0.13435 0.37864 0.32393 0.0
C497 C 0.13923 0.39713 0.33606 0.0
N498 N 0.16776 0.38118 0.37261 0.0
C499 C 0.19559 0.34734 0.37107 0.0
C500 C 0.18993 0.36132 0.35679 0.0
C501 C 0.17615 0.3782 0.35785 0.0
C502 C 0.18729 0.35186 0.38626 0.0
C503 C 0.1735 0.36856 0.38674 0.0
N504 N 0.12563 0.41952 0.37413 0.0
C505 C 0.09637 0.41731 0.37164 0.0
C506 C 0.09491 0.44487 0.37557 0.0
C507 C 0.10928 0.45961 0.37856 0.0
C508 C 0.1245 0.44652 0.3779 0.0
C509 C 0.11171 0.40517 0.37089 0.0
H510 H 0.13534 0.45817 0.38051 0.0
H511 H 0.11226 0.384 0.36768 0.0
H512 H 0.17201 0.38822 0.34658 0.0
H513 H 0.16727 0.37065 0.39857 0.0
C514 C 0.17121 0.44971 0.38394 0.0
C515 C 0.14323 0.42575 0.33274 0.0
C516 C 0.13645 0.38871 0.41529 0.0
C517 C 0.13415 0.34114 0.36199 0.0
H518 H 0.16391 0.47293 0.32915 0.0
H519 H 0.18054 0.48477 0.35687 0.0
H520 H 0.17432 0.45827 0.41942 0.0
H521 H 0.1541 0.42647 0.43638 0.0
H522 H 0.12286 0.33457 0.41799 0.0
H523 H 0.12302 0.3074 0.38914 0.0
H524 H 0.12856 0.33523 0.32645 0.0
H525 H 0.1321 0.38251 0.31075 0.0
H526 H 0.19574 0.35868 0.3447 0.0
H527 H 0.19129 0.34241 0.39782 0.0
H528 H 0.08569 0.40516 0.36893 0.0
H529 H 0.10876 0.48095 0.38169 0.0
C530 C 0.87257 0.4396 0.1656 0.0
C531 C 0.86312 0.46213 0.16937 0.0
C532 C 0.85428 0.46795 0.15519 0.0
C533 C 0.85882 0.44877 0.1436 0.0
N534 N 0.86998 0.43131 0.14959 0.0
Co535 Co 0.87976 0.40063 0.13707 0.0
N536 N 0.87364 0.41673 0.11513 0.0
C537 C 0.86222 0.43591 0.11272 0.0
C538 C 0.86028 0.44273 0.09612 0.0
C539 C 0.87105 0.42668 0.08754 0.0
C540 C 0.87903 0.4109 0.09944 0.0
N541 N 0.88932 0.36976 0.1245 0.0
C542 C 0.89326 0.3676 0.10798 0.0
C543 C 0.89949 0.34207 0.10449 0.0
C544 C 0.89915 0.32775 0.11929 0.0
C545 C 0.89282 0.34526 0.13102 0.0
N546 N 0.88587 0.3849 0.15913 0.0
C547 C 0.8897 0.35883 0.16202 0.0
C548 C 0.89352 0.35403 0.17859 0.0
C549 C 0.89191 0.37864 0.18655 0.0
C550 C 0.88721 0.39713 0.17436 0.0
N551 N 0.85876 0.381 0.13784 0.0
C552 C 0.83073 0.34778 0.13937 0.0
C553 C 0.83647 0.36154 0.15366 0.0
C554 C 0.85035 0.37819 0.1526 0.0
C555 C 0.83912 0.35178 0.12422 0.0
C556 C 0.85302 0.36826 0.12373 0.0
N557 N 0.90085 0.41952 0.13629 0.0
C558 C 0.93011 0.41754 0.1388 0.0
C559 C 0.93151 0.44508 0.13481 0.0
C560 C 0.91711 0.45969 0.13178 0.0
C561 C 0.90193 0.4465 0.13246 0.0
C562 C 0.91478 0.40528 0.13957 0.0
H563 H 0.89107 0.45806 0.12982 0.0
H564 H 0.91427 0.38413 0.14282 0.0
H565 H 0.85447 0.38833 0.16384 0.0
H566 H 0.85937 0.37002 0.11193 0.0
C567 C 0.85531 0.44954 0.1264 0.0
C568 C 0.88311 0.42566 0.17771 0.0
C569 C 0.89022 0.38865 0.09522 0.0
C570 C 0.89234 0.34107 0.14849 0.0
H571 H 0.86267 0.47319 0.1811 0.0
H572 H 0.8461 0.48489 0.15335 0.0
H573 H 0.85227 0.45799 0.0909 0.0
H574 H 0.87259 0.42626 0.07403 0.0
H575 H 0.90374 0.33451 0.0925 0.0
H576 H 0.90352 0.30732 0.12135 0.0
H577 H 0.89763 0.33519 0.1841 0.0
H578 H 0.89393 0.38254 0.19978 0.0
H579 H 0.83029 0.35947 0.16562 0.0
H580 H 0.83532 0.34151 0.11284 0.0
H581 H 0.94081 0.40548 0.14153 0.0
H582 H 0.91759 0.48102 0.1286 0.0
C583 C 0.15374 0.56471 0.16556 0.0
C584 C 0.1631 0.54195 0.16901 0.0
C585 C 0.17171 0.53627 0.15467 0.0
C586 C 0.16711 0.55574 0.14329 0.0
N587 N 0.15612 0.57324 0.14957 0.0
Co588 Co 0.14624 0.60418 0.13735 0.0
N589 N 0.15205 0.58843 0.11521 0.0
C590 C 0.16341 0.56922 0.11256 0.0
C591 C 0.1653 0.56282 0.0959 0.0
C592 C 0.15456 0.5792 0.08751 0.0
C593 C 0.14664 0.59473 0.09959 0.0
N594 N 0.13651 0.63528 0.1251 0.0
C595 C 0.13242 0.63781 0.10863 0.0
C596 C 0.12607 0.66337 0.10545 0.0
C597 C 0.12655 0.67737 0.12037 0.0
C598 C 0.13305 0.65964 0.13185 0.0
N599 N 0.14048 0.61959 0.15961 0.0
C600 C 0.13671 0.64563 0.16271 0.0
C601 C 0.13315 0.65022 0.17936 0.0
C602 C 0.13486 0.62551 0.18716 0.0
C603 C 0.13935 0.60717 0.1748 0.0
N604 N 0.16726 0.62373 0.13795 0.0
C605 C 0.19516 0.65732 0.13947 0.0
C606 C 0.19 0.64232 0.15353 0.0
C607 C 0.17609 0.6257 0.1525 0.0
C608 C 0.18635 0.65408 0.12449 0.0
C609 C 0.1726 0.63729 0.12398 0.0
N610 N 0.12511 0.58539 0.13678 0.0
C611 C 0.09595 0.58728 0.14034 0.0
C612 C 0.09437 0.55968 0.13641 0.0
C613 C 0.1087 0.5453 0.13252 0.0
C614 C 0.12389 0.55851 0.13274 0.0
C615 C 0.11127 0.59957 0.14055 0.0
H616 H 0.13467 0.54699 0.12972 0.0
H617 H 0.11187 0.62073 0.14376 0.0
H618 H 0.17223 0.61502 0.16365 0.0
H619 H 0.16605 0.6359 0.11228 0.0
C620 C 0.1704 0.55527 0.12606 0.0
C621 C 0.14348 0.57861 0.17796 0.0
C622 C 0.13555 0.61722 0.09558 0.0
C623 C 0.13382 0.66356 0.14934 0.0
H624 H 0.16366 0.53061 0.18063 0.0
H625 H 0.17977 0.51925 0.15257 0.0
H626 H 0.17327 0.54768 0.0905 0.0
H627 H 0.15306 0.58002 0.07401 0.0
H628 H 0.12168 0.6712 0.09358 0.0
H629 H 0.12219 0.69774 0.12265 0.0
H630 H 0.12913 0.66899 0.18504 0.0
H631 H 0.13304 0.62143 0.2004 0.0
H632 H 0.19631 0.64404 0.16543 0.0
H633 H 0.18998 0.66459 0.11314 0.0
H634 H 0.08538 0.59962 0.14305 0.0
H635 H 0.10825 0.5239 0.12955 0.0
C636 C 0.14004 0.39709 0.67481 0.0
C637 C 0.13546 0.37857 0.68703 0.0
C638 C 0.13387 0.35394 0.67909 0.0
C639 C 0.13757 0.35876 0.6625 0.0
N640 N 0.14133 0.38486 0.65957 0.0
Co641 Co 0.14725 0.40061 0.63746 0.0
N642 N 0.1377 0.36961 0.62496 0.0
C643 C 0.13432 0.34509 0.63152 0.0
C644 C 0.128 0.32746 0.61984 0.0
C645 C 0.12756 0.34172 0.60502 0.0
C646 C 0.13371 0.36734 0.60845 0.0
N647 N 0.15317 0.41674 0.61546 0.0
C648 C 0.14774 0.41078 0.5998 0.0
C649 C 0.1556 0.42664 0.58785 0.0
C650 C 0.16634 0.44287 0.59636 0.0
C651 C 0.16451 0.43607 0.61297 0.0
N652 N 0.15701 0.43141 0.64991 0.0
C653 C 0.16806 0.44902 0.64382 0.0
C654 C 0.17257 0.46832 0.65536 0.0
C655 C 0.16385 0.46241 0.66959 0.0
C656 C 0.1545 0.4397 0.66592 0.0
N657 N 0.16831 0.38118 0.63811 0.0
C658 C 0.19638 0.34807 0.63956 0.0
C659 C 0.18792 0.35202 0.62443 0.0
C660 C 0.17401 0.36844 0.62399 0.0
C661 C 0.1907 0.36187 0.65385 0.0
C662 C 0.1768 0.37846 0.65283 0.0
N663 N 0.12609 0.41928 0.63683 0.0
C664 C 0.10966 0.45939 0.63283 0.0
C665 C 0.09533 0.44485 0.63649 0.0
C666 C 0.09691 0.41717 0.64016 0.0
C667 C 0.11225 0.40495 0.64036 0.0
C668 C 0.12487 0.44624 0.63303 0.0
H669 H 0.11285 0.38372 0.64339 0.0
H670 H 0.13566 0.45788 0.63019 0.0
H671 H 0.1676 0.37015 0.61222 0.0
H672 H 0.17272 0.38861 0.66408 0.0
C673 C 0.13491 0.34094 0.64899 0.0
C674 C 0.1441 0.42565 0.67813 0.0
C675 C 0.13666 0.38835 0.59564 0.0
C676 C 0.17144 0.44981 0.6266 0.0
H677 H 0.13352 0.38247 0.70027 0.0
H678 H 0.12985 0.33507 0.68464 0.0
H679 H 0.12372 0.30699 0.62194 0.0
H680 H 0.1233 0.33406 0.59305 0.0
H681 H 0.15401 0.42616 0.57435 0.0
H682 H 0.17426 0.45822 0.59109 0.0
H683 H 0.18064 0.48539 0.65343 0.0
H684 H 0.16431 0.47357 0.68129 0.0
H685 H 0.19168 0.34173 0.61305 0.0
H686 H 0.19693 0.35986 0.66579 0.0
H687 H 0.10922 0.48085 0.63004 0.0
H688 H 0.08634 0.40472 0.6427 0.0
C689 C 0.88874 0.60813 0.67431 0.0
C690 C 0.89408 0.62655 0.68629 0.0
C691 C 0.8957 0.65107 0.67824 0.0
C692 C 0.89138 0.6463 0.66181 0.0
N693 N 0.88722 0.62031 0.65907 0.0
Co694 Co 0.88095 0.60444 0.63706 0.0
N695 N 0.89061 0.63507 0.62432 0.0
C696 C 0.89429 0.65957 0.63074 0.0
C697 C 0.90067 0.67689 0.61893 0.0
C698 C 0.90083 0.66245 0.60417 0.0
C699 C 0.89444 0.63705 0.60776 0.0
N700 N 0.87468 0.58816 0.6152 0.0
C701 C 0.88 0.59377 0.59946 0.0
C702 C 0.87185 0.57799 0.58767 0.0
C703 C 0.86103 0.56219 0.59638 0.0
C704 C 0.86311 0.56915 0.61293 0.0
N705 N 0.87107 0.57404 0.64973 0.0
C706 C 0.85964 0.5569 0.6439 0.0
C707 C 0.85483 0.53816 0.65565 0.0
C708 C 0.86379 0.54395 0.66976 0.0
C709 C 0.87365 0.56591 0.66576 0.0
N710 N 0.86005 0.62434 0.63783 0.0
C711 C 0.83224 0.65822 0.63929 0.0
C712 C 0.84053 0.65359 0.62411 0.0
C713 C 0.8543 0.63687 0.62367 0.0
C714 C 0.83794 0.6444 0.65362 0.0
C715 C 0.85171 0.62751 0.6526 0.0
N716 N 0.90195 0.58531 0.63628 0.0
C717 C 0.91804 0.5449 0.63194 0.0
C718 C 0.93251 0.55944 0.6348 0.0
C719 C 0.93123 0.58705 0.63862 0.0
C720 C 0.91597 0.59946 0.63939 0.0
C721 C 0.9029 0.55825 0.63262 0.0
H722 H 0.91556 0.62067 0.64252 0.0
H723 H 0.89198 0.54676 0.63011 0.0
H724 H 0.86051 0.63465 0.61183 0.0
H725 H 0.85587 0.61759 0.6639 0.0
C726 C 0.89402 0.66387 0.64819 0.0
C727 C 0.88445 0.57962 0.67776 0.0
C728 C 0.89118 0.61596 0.59506 0.0
C729 C 0.85608 0.55593 0.62671 0.0
H730 H 0.89665 0.62274 0.6994 0.0
H731 H 0.90027 0.66977 0.68357 0.0
H732 H 0.90521 0.69724 0.62091 0.0
H733 H 0.90508 0.66985 0.59214 0.0
H734 H 0.87327 0.57831 0.57415 0.0
H735 H 0.85286 0.54706 0.59126 0.0
H736 H 0.84635 0.52158 0.65398 0.0
H737 H 0.8631 0.5333 0.68163 0.0
H738 H 0.8365 0.66292 0.61253 0.0
H739 H 0.83214 0.64716 0.66571 0.0
H740 H 0.91841 0.52352 0.6289 0.0
H741 H 0.94199 0.59906 0.64122 0.0
C742 C 0.1396 0.60771 0.83606 0.0
C743 C 0.13493 0.62607 0.82378 0.0
C744 C 0.13343 0.6508 0.83161 0.0
C745 C 0.13722 0.64619 0.8482 0.0
N746 N 0.14095 0.62012 0.85123 0.0
Co747 Co 0.14689 0.60461 0.87342 0.0
N748 N 0.13744 0.6358 0.88579 0.0
C749 C 0.13406 0.66024 0.87912 0.0
C750 C 0.12774 0.678 0.8907 0.0
C751 C 0.1273 0.66392 0.90559 0.0
C752 C 0.13348 0.63828 0.90229 0.0
N753 N 0.15283 0.58873 0.89547 0.0
C754 C 0.14747 0.5949 0.91113 0.0
C755 C 0.15538 0.5792 0.92312 0.0
C756 C 0.16607 0.56285 0.91464 0.0
C757 C 0.16416 0.56943 0.89801 0.0
N758 N 0.15652 0.57361 0.8611 0.0
C759 C 0.16762 0.55614 0.8672 0.0
C760 C 0.17213 0.53679 0.8557 0.0
C761 C 0.16334 0.54252 0.84148 0.0
C762 C 0.15391 0.56511 0.84514 0.0
N763 N 0.16799 0.62391 0.87263 0.0
C764 C 0.19616 0.65678 0.87101 0.0
C765 C 0.1877 0.6531 0.88615 0.0
C766 C 0.17373 0.63679 0.88668 0.0
C767 C 0.19042 0.64285 0.85678 0.0
C768 C 0.17647 0.62638 0.85788 0.0
N769 N 0.1257 0.58606 0.87421 0.0
C770 C 0.1092 0.54619 0.87882 0.0
C771 C 0.0949 0.56099 0.87564 0.0
C772 C 0.09647 0.58846 0.87153 0.0
C773 C 0.11186 0.60047 0.87079 0.0
C774 C 0.12445 0.55915 0.87817 0.0
H775 H 0.1125 0.62157 0.86744 0.0
H776 H 0.13524 0.54746 0.88092 0.0
H777 H 0.16734 0.63529 0.89846 0.0
H778 H 0.17233 0.61612 0.84669 0.0
C779 C 0.13461 0.66416 0.86162 0.0
C780 C 0.14348 0.57902 0.83291 0.0
C781 C 0.13646 0.61746 0.91523 0.0
C782 C 0.17107 0.55555 0.88442 0.0
H783 H 0.13282 0.62202 0.81059 0.0
H784 H 0.12935 0.66959 0.826 0.0
H785 H 0.12344 0.69842 0.8885 0.0
H786 H 0.12303 0.67172 0.91751 0.0
H787 H 0.15387 0.57989 0.93663 0.0
H788 H 0.17401 0.5476 0.91996 0.0
H789 H 0.18028 0.51983 0.85764 0.0
H790 H 0.16383 0.53139 0.82977 0.0
H791 H 0.1915 0.66351 0.89748 0.0
H792 H 0.19664 0.64467 0.84483 0.0
H793 H 0.10858 0.52491 0.88209 0.0
H794 H 0.08585 0.60063 0.86868 0.0
C795 C 0.88826 0.39674 0.83559 0.0
C796 C 0.89349 0.37823 0.82362 0.0
C797 C 0.89505 0.35373 0.83171 0.0
C798 C 0.89079 0.35859 0.84814 0.0
N799 N 0.88673 0.38462 0.85085 0.0
Co800 Co 0.88059 0.40065 0.87285 0.0
N801 N 0.89019 0.37001 0.88562 0.0
C802 C 0.89375 0.34545 0.87923 0.0
C803 C 0.90009 0.32811 0.89104 0.0
C804 C 0.90033 0.34259 0.90579 0.0
C805 C 0.89404 0.36804 0.90217 0.0
N806 N 0.87449 0.41712 0.8947 0.0
C807 C 0.87983 0.41153 0.91044 0.0
C808 C 0.87179 0.42746 0.92222 0.0
C809 C 0.86101 0.44333 0.91351 0.0
C810 C 0.863 0.43626 0.89697 0.0
N811 N 0.87077 0.43105 0.86015 0.0
C812 C 0.85942 0.44831 0.86599 0.0
C813 C 0.85464 0.46702 0.85421 0.0
C814 C 0.86352 0.46109 0.84009 0.0
C815 C 0.87332 0.43908 0.8441 0.0
N816 N 0.85963 0.38091 0.8722 0.0
C817 C 0.83187 0.34685 0.87086 0.0
C818 C 0.84005 0.35194 0.88606 0.0
C819 C 0.85383 0.36868 0.88644 0.0
C820 C 0.83762 0.36041 0.85646 0.0
C821 C 0.85134 0.37744 0.85743 0.0
N822 N 0.90166 0.41962 0.87348 0.0
C823 C 0.9179 0.46002 0.87726 0.0
C824 C 0.9323 0.44557 0.87382 0.0
C825 C 0.93086 0.41779 0.87039 0.0
C826 C 0.91558 0.40538 0.87018 0.0
C827 C 0.90274 0.44668 0.87706 0.0
H828 H 0.91509 0.38407 0.86734 0.0
H829 H 0.89189 0.45825 0.87972 0.0
H830 H 0.86 0.37112 0.89828 0.0
H831 H 0.85552 0.38718 0.84607 0.0
C832 C 0.89341 0.34106 0.86178 0.0
C833 C 0.88407 0.42527 0.83211 0.0
C834 C 0.89089 0.38919 0.91485 0.0
C835 C 0.85596 0.44943 0.88319 0.0
H836 H 0.89604 0.38198 0.81049 0.0
H837 H 0.89953 0.33497 0.82639 0.0
H838 H 0.90452 0.3077 0.88908 0.0
H839 H 0.90458 0.33519 0.91781 0.0
H840 H 0.87324 0.42718 0.93574 0.0
H841 H 0.85291 0.45855 0.91863 0.0
H842 H 0.84622 0.48369 0.85588 0.0
H843 H 0.86284 0.47169 0.8282 0.0
H844 H 0.83598 0.3429 0.89772 0.0
H845 H 0.83194 0.35732 0.84434 0.0
H846 H 0.91826 0.48154 0.87987 0.0
H847 H 0.9415 0.40541 0.86803 0.0
H848 H 0.37697 0.15406 0.43515 0.0
H849 H 0.37973 0.15804 0.46578 0.0
H850 H 0.4135 0.0911 0.46583 0.0
H851 H 0.41094 0.08751 0.43514 0.0
H852 H 0.37143 0.11895 0.48851 0.0
H853 H 0.43671 0.14471 0.49644 0.0
H854 H 0.42635 0.14767 0.47651 0.0
H855 H 0.43322 0.11513 0.4838 0.0
C856 C 0.38537 0.14079 0.44168 0.0
C857 C 0.39406 0.12092 0.43278 0.0
C858 C 0.38684 0.14291 0.45919 0.0
C859 C 0.39703 0.12516 0.46818 0.0
C860 C 0.4059 0.10551 0.45922 0.0
H861 H 0.41072 0.08698 0.57425 0.0
H862 H 0.41284 0.09062 0.54349 0.0
C863 C 0.40443 0.10341 0.44169 0.0
C864 C 0.39728 0.1258 0.48696 0.0
H865 H 0.4223 0.13187 0.5212 0.0
C866 C 0.38255 0.12202 0.49564 0.0
C867 C 0.41178 0.12958 0.49634 0.0
C868 C 0.4279 0.13475 0.48782 0.0
C869 C 0.38194 0.12139 0.51331 0.0
C870 C 0.39643 0.12522 0.5227 0.0
C871 C 0.41119 0.12902 0.51405 0.0
C872 C 0.39646 0.12482 0.54149 0.0
C873 C 0.36582 0.1158 0.52175 0.0
C874 C 0.38699 0.14334 0.5507 0.0
C875 C 0.38579 0.14126 0.56822 0.0
C876 C 0.39427 0.12091 0.57694 0.0
C877 C 0.40428 0.10309 0.56783 0.0
C878 C 0.40543 0.10512 0.55028 0.0
H879 H 0.35696 0.10629 0.51298 0.0
H880 H 0.36738 0.10227 0.53279 0.0
H881 H 0.3605 0.1352 0.52618 0.0
H882 H 0.38016 0.159 0.54428 0.0
H883 H 0.37775 0.15492 0.57492 0.0
H884 H 0.61564 0.91611 0.57535 0.0
H885 H 0.61242 0.91278 0.54469 0.0
H886 H 0.64665 0.84652 0.54371 0.0
H887 H 0.64974 0.84978 0.57431 0.0
H888 H 0.63675 0.92031 0.52157 0.0
H889 H 0.61065 0.8175 0.51353 0.0
H890 H 0.61083 0.83478 0.53354 0.0
H891 H 0.62889 0.81816 0.52597 0.0
C892 C 0.62209 0.90037 0.56858 0.0
C893 C 0.63261 0.88277 0.5772 0.0
C894 C 0.62034 0.89856 0.55108 0.0
C895 C 0.62908 0.8791 0.54183 0.0
C896 C 0.63942 0.86121 0.55052 0.0
H897 H 0.6497 0.85057 0.43609 0.0
H898 H 0.64685 0.84781 0.46678 0.0
C899 C 0.64118 0.86305 0.56802 0.0
C900 C 0.62843 0.87901 0.52305 0.0
H901 H 0.62065 0.83909 0.48876 0.0
C902 C 0.63306 0.90263 0.51441 0.0
C903 C 0.62376 0.85588 0.51365 0.0
C904 C 0.6181 0.83021 0.52212 0.0
C905 C 0.63351 0.90359 0.49674 0.0
C906 C 0.62885 0.88047 0.48731 0.0
C907 C 0.62416 0.85686 0.49594 0.0
C908 C 0.62924 0.88032 0.46854 0.0
C909 C 0.63952 0.92913 0.48833 0.0
C910 C 0.61991 0.89887 0.45918 0.0
C911 C 0.62149 0.90035 0.44166 0.0
C912 C 0.63224 0.88305 0.43311 0.0
C913 C 0.64108 0.86376 0.44236 0.0
C914 C 0.63952 0.8623 0.4599 0.0
H915 H 0.64652 0.94216 0.49714 0.0
H916 H 0.64738 0.92431 0.47737 0.0
H917 H 0.62893 0.94098 0.48376 0.0
H918 H 0.61168 0.91268 0.46549 0.0
H919 H 0.6147 0.9156 0.4348 0.0
H920 H 0.41087 0.91565 0.07447 0.0
H921 H 0.41311 0.91209 0.04372 0.0
H922 H 0.3805 0.84354 0.0443 0.0
H923 H 0.378 0.84752 0.07494 0.0
H924 H 0.42266 0.87077 0.02138 0.0
H925 H 0.35736 0.89646 0.01305 0.0
H926 H 0.36775 0.90046 0.03288 0.0
H927 H 0.36088 0.86754 0.02624 0.0
C928 C 0.40448 0.89951 0.06801 0.0
C929 C 0.39446 0.88162 0.07707 0.0
C930 C 0.4057 0.89753 0.05046 0.0
C931 C 0.39678 0.8778 0.04161 0.0
C932 C 0.3873 0.85921 0.05077 0.0
H933 H 0.37746 0.84969 0.93508 0.0
H934 H 0.38012 0.84534 0.96569 0.0
C935 C 0.38604 0.86124 0.06829 0.0
C936 C 0.3968 0.87749 0.02283 0.0
H937 H 0.3719 0.88409 0.98859 0.0
C938 C 0.41156 0.87371 0.0142 0.0
C939 C 0.38234 0.88141 0.01341 0.0
C940 C 0.3662 0.88695 0.02182 0.0
C941 C 0.41221 0.87327 0.99649 0.0
C942 C 0.39774 0.87718 0.98709 0.0
C943 C 0.38299 0.88092 0.99574 0.0
C944 C 0.39754 0.87802 0.9683 0.0
C945 C 0.42834 0.86808 0.98801 0.0
C946 C 0.40653 0.89767 0.95945 0.0
C947 C 0.40512 0.89998 0.94193 0.0
C948 C 0.3947 0.88268 0.9329 0.0
C949 C 0.38589 0.8628 0.94169 0.0
C950 C 0.38731 0.86047 0.95919 0.0
H951 H 0.43708 0.85794 0.99661 0.0
H952 H 0.42678 0.85533 0.97662 0.0
H953 H 0.43375 0.88772 0.98412 0.0
H954 H 0.41417 0.91194 0.96615 0.0
H955 H 0.41171 0.91589 0.93547 0.0
H956 H 0.61636 0.08658 0.93473 0.0
H957 H 0.61311 0.08977 0.96538 0.0
H958 H 0.6468 0.15686 0.96645 0.0
H959 H 0.64991 0.15375 0.93583 0.0
H960 H 0.63738 0.08276 0.98855 0.0
H961 H 0.61062 0.18505 0.99658 0.0
H962 H 0.61098 0.16783 0.97655 0.0
H963 H 0.6289 0.1848 0.98421 0.0
C964 C 0.62268 0.10246 0.94151 0.0
C965 C 0.63305 0.12035 0.93291 0.0
C966 C 0.62092 0.10419 0.95902 0.0
C967 C 0.62949 0.12386 0.96829 0.0
C968 C 0.63969 0.14201 0.95961 0.0
H969 H 0.64982 0.15241 0.07411 0.0
H970 H 0.64702 0.15523 0.04341 0.0
C971 C 0.64146 0.14026 0.94211 0.0
C972 C 0.62882 0.12391 0.98707 0.0
H973 H 0.62074 0.16364 0.02136 0.0
C974 C 0.63357 0.10037 0.99571 0.0
C975 C 0.624 0.14694 0.99647 0.0
C976 C 0.61819 0.17252 0.988 0.0
C977 C 0.63399 0.09939 0.01338 0.0
C978 C 0.62918 0.12241 0.0228 0.0
C979 C 0.62437 0.14595 0.01418 0.0
C980 C 0.62952 0.12254 0.04158 0.0
C981 C 0.64012 0.07394 0.0218 0.0
C982 C 0.62023 0.10385 0.05089 0.0
C983 C 0.62178 0.10234 0.06842 0.0
C984 C 0.63246 0.11974 0.07701 0.0
C985 C 0.64126 0.13915 0.0678 0.0
C986 C 0.63972 0.14064 0.05027 0.0
H987 H 0.64719 0.06102 0.01299 0.0
H988 H 0.64794 0.07889 0.03277 0.0
H989 H 0.62957 0.06193 0.02635 0.0
H990 H 0.61207 0.08996 0.04455 0.0
H991 H 0.61503 0.087 0.07524 0.0
H992 H 0.91162 0.58697 0.57493 0.0
H993 H 0.91466 0.59025 0.54426 0.0
H994 H 0.88089 0.65717 0.54352 0.0
H995 H 0.87799 0.65397 0.57415 0.0
H996 H 0.89028 0.58323 0.52119 0.0
H997 H 0.91688 0.6857 0.51326 0.0
H998 H 0.91663 0.66838 0.53325 0.0
H999 H 0.89866 0.68531 0.52573 0.0
C1000 C 0.90522 0.60282 0.56821 0.0
C1001 C 0.8949 0.62064 0.57691 0.0
C1002 C 0.90687 0.6046 0.5507 0.0
C1003 C 0.89822 0.62426 0.54152 0.0
C1004 C 0.88805 0.64233 0.55028 0.0
H1005 H 0.8772 0.65331 0.43591 0.0
H1006 H 0.88019 0.65595 0.4666 0.0
C1007 C 0.8864 0.64052 0.56779 0.0
C1008 C 0.8988 0.62442 0.52273 0.0
H1009 H 0.90661 0.6644 0.48849 0.0
C1010 C 0.89403 0.6009 0.51406 0.0
C1011 C 0.90353 0.64753 0.51336 0.0
C1012 C 0.90936 0.67309 0.52185 0.0
C1013 C 0.8935 0.60003 0.49639 0.0
C1014 C 0.89822 0.62313 0.48699 0.0
C1015 C 0.90305 0.64665 0.49565 0.0
C1016 C 0.89776 0.62338 0.46822 0.0
C1017 C 0.88736 0.5746 0.48794 0.0
C1018 C 0.90703 0.60482 0.4588 0.0
C1019 C 0.90538 0.60342 0.44128 0.0
C1020 C 0.89461 0.62079 0.4328 0.0
C1021 C 0.88583 0.64008 0.44212 0.0
C1022 C 0.88747 0.64147 0.45965 0.0
H1023 H 0.88037 0.56157 0.49676 0.0
H1024 H 0.87945 0.57956 0.47704 0.0
H1025 H 0.89789 0.56268 0.48328 0.0
H1026 H 0.91526 0.59095 0.46505 0.0
H1027 H 0.91211 0.58816 0.43437 0.0
H1028 H 0.15019 0.35099 0.57449 0.0
H1029 H 0.14725 0.34831 0.54379 0.0
H1030 H 0.11214 0.41325 0.54524 0.0
H1031 H 0.11524 0.41609 0.57593 0.0
H1032 H 0.12096 0.3398 0.5218 0.0
H1033 H 0.14704 0.44275 0.51364 0.0
H1034 H 0.14791 0.42477 0.53337 0.0
H1035 H 0.12947 0.44159 0.52706 0.0
C1036 C 0.14156 0.3642 0.56825 0.0
C1037 C 0.13276 0.38349 0.57755 0.0
C1038 C 0.13995 0.36279 0.55072 0.0
C1039 C 0.12966 0.38085 0.54212 0.0
C1040 C 0.12036 0.39939 0.55152 0.0
H1041 H 0.11586 0.41737 0.43543 0.0
H1042 H 0.11279 0.41395 0.46609 0.0
C1043 C 0.12199 0.40083 0.56904 0.0
C1044 C 0.12926 0.38111 0.52334 0.0
H1045 H 0.13717 0.42111 0.48918 0.0
C1046 C 0.1245 0.35758 0.51466 0.0
C1047 C 0.13395 0.40426 0.51397 0.0
C1048 C 0.14003 0.42971 0.52244 0.0
C1049 C 0.12405 0.35672 0.49695 0.0
C1050 C 0.12875 0.37988 0.48759 0.0
C1051 C 0.13346 0.40341 0.49629 0.0
C1052 C 0.12934 0.38009 0.46881 0.0
C1053 C 0.11831 0.33114 0.48842 0.0
C1054 C 0.13957 0.36214 0.46003 0.0
C1055 C 0.14124 0.36403 0.44253 0.0
C1056 C 0.1327 0.38387 0.43342 0.0
C1057 C 0.12229 0.40155 0.44213 0.0
C1058 C 0.12063 0.39969 0.45964 0.0
H1059 H 0.11083 0.31844 0.497 0.0
H1060 H 0.11102 0.33583 0.47703 0.0
H1061 H 0.12904 0.31902 0.48453 0.0
H1062 H 0.14678 0.34734 0.46678 0.0
H1063 H 0.14971 0.35069 0.43616 0.0
H1064 H 0.91139 0.41803 0.93505 0.0
H1065 H 0.91438 0.41468 0.96573 0.0
H1066 H 0.88041 0.34796 0.96636 0.0
H1067 H 0.87755 0.35125 0.93573 0.0
H1068 H 0.88988 0.42173 0.98875 0.0
H1069 H 0.9164 0.31924 0.99664 0.0
H1070 H 0.91625 0.33666 0.97668 0.0
H1071 H 0.89823 0.31973 0.98409 0.0
C1072 C 0.90493 0.40221 0.94174 0.0
C1073 C 0.89456 0.38447 0.93302 0.0
C1074 C 0.90655 0.40039 0.95926 0.0
C1075 C 0.89784 0.38076 0.96841 0.0
C1076 C 0.88763 0.36278 0.95962 0.0
H1077 H 0.87682 0.35127 0.07397 0.0
H1078 H 0.87984 0.34872 0.04328 0.0
C1079 C 0.886 0.36463 0.94211 0.0
C1080 C 0.89839 0.38056 0.98719 0.0
H1081 H 0.90618 0.34052 0.02141 0.0
C1082 C 0.89361 0.40405 0.99588 0.0
C1083 C 0.90311 0.35744 0.99655 0.0
C1084 C 0.90893 0.3319 0.98804 0.0
C1085 C 0.89307 0.40488 0.01355 0.0
C1086 C 0.89779 0.38177 0.02293 0.0
C1087 C 0.90263 0.35828 0.01427 0.0
C1088 C 0.89731 0.38148 0.04171 0.0
C1089 C 0.8869 0.43027 0.022 0.0
C1090 C 0.90653 0.4001 0.05115 0.0
C1091 C 0.90485 0.40147 0.06867 0.0
C1092 C 0.89413 0.38396 0.07712 0.0
C1093 C 0.88542 0.36461 0.06777 0.0
C1094 C 0.88707 0.36327 0.05025 0.0
H1095 H 0.87988 0.44326 0.01319 0.0
H1096 H 0.87901 0.42526 0.03291 0.0
H1097 H 0.89742 0.44225 0.02666 0.0
H1098 H 0.91472 0.41406 0.04492 0.0
H1099 H 0.91153 0.41677 0.0756 0.0
H1100 H 0.11545 0.58902 0.07457 0.0
H1101 H 0.1134 0.59305 0.04383 0.0
H1102 H 0.14629 0.66121 0.04502 0.0
H1103 H 0.14862 0.65673 0.07565 0.0
H1104 H 0.10418 0.63451 0.02159 0.0
H1105 H 0.1695 0.60859 0.01371 0.0
H1106 H 0.15896 0.60451 0.03344 0.0
H1107 H 0.16594 0.63744 0.02695 0.0
C1108 C 0.12195 0.60518 0.06825 0.0
C1109 C 0.13201 0.6228 0.07747 0.0
C1110 C 0.12083 0.60743 0.0507 0.0
C1111 C 0.1299 0.62716 0.04202 0.0
C1112 C 0.1394 0.64553 0.05135 0.0
H1113 H 0.14999 0.65582 0.93567 0.0
H1114 H 0.14709 0.66016 0.96626 0.0
C1115 C 0.14055 0.64322 0.06887 0.0
C1116 C 0.13002 0.62769 0.02324 0.0
H1117 H 0.15516 0.62124 0.98918 0.0
C1118 C 0.11532 0.63159 0.0145 0.0
C1119 C 0.14455 0.62378 0.01392 0.0
C1120 C 0.16061 0.61809 0.02244 0.0
C1121 C 0.11481 0.63215 0.99678 0.0
C1122 C 0.12934 0.62824 0.98749 0.0
C1123 C 0.14402 0.6244 0.99624 0.0
C1124 C 0.12966 0.62746 0.9687 0.0
C1125 C 0.09874 0.63742 0.98819 0.0
C1126 C 0.12075 0.6078 0.95976 0.0
C1127 C 0.12231 0.60549 0.94225 0.0
C1128 C 0.13279 0.6228 0.93333 0.0
C1129 C 0.14151 0.64271 0.9422 0.0
C1130 C 0.13995 0.64503 0.95969 0.0
H1131 H 0.08995 0.64753 0.99674 0.0
H1132 H 0.10039 0.65024 0.97684 0.0
H1133 H 0.09335 0.61783 0.9842 0.0
H1134 H 0.11307 0.59352 0.96639 0.0
H1135 H 0.11578 0.58956 0.93574 0.0
H1136 H 0.58483 0.9932 0.36253 0.0
H1137 H 0.55728 0.01271 0.36267 0.0
H1138 H 0.53954 0.94323 0.38989 0.0
H1139 H 0.56694 0.92369 0.38986 0.0
H1140 H 0.52751 0.98522 0.34917 0.0
H1141 H 0.52291 0.01101 0.41702 0.0
H1142 H 0.54225 0.00636 0.40656 0.0
H1143 H 0.53005 0.97749 0.41204 0.0
C1144 C 0.57511 0.98225 0.36874 0.0
C1145 C 0.57813 0.95685 0.37617 0.0
C1146 C 0.55935 0.99335 0.36872 0.0
C1147 C 0.54634 0.97953 0.37639 0.0
C1148 C 0.54938 0.9544 0.38403 0.0
H1149 H 0.44323 0.0168 0.39283 0.0
H1150 H 0.47037 0.99634 0.39279 0.0
C1151 C 0.56505 0.94318 0.3839 0.0
C1152 C 0.52947 0.9908 0.37589 0.0
H1153 H 0.4991 0.01629 0.4007 0.0
C1154 C 0.52131 0.99215 0.36041 0.0
C1155 C 0.52129 0.99946 0.39059 0.0
C1156 C 0.52955 0.99875 0.40752 0.0
C1157 C 0.50514 1.00154 0.35925 0.0
C1158 C 0.497 0.01078 0.37392 0.0
C1159 C 0.50521 0.0093 0.38942 0.0
C1160 C 0.48016 0.02253 0.37344 0.0
C1161 C 0.49682 1.00062 0.34234 0.0
C1162 C 0.47644 0.04417 0.36264 0.0
C1163 C 0.46081 0.05552 0.36235 0.0
C1164 C 0.44845 0.0461 0.3732 0.0
C1165 C 0.45223 0.02446 0.3841 0.0
C1166 C 0.46786 0.01286 0.38421 0.0
H1167 H 0.5023 0.98489 0.33409 0.0
H1168 H 0.4836 0.99635 0.3436 0.0
H1169 H 0.49836 0.02046 0.33598 0.0
H1170 H 0.48571 0.05262 0.35449 0.0
H1171 H 0.45847 0.07178 0.35355 0.0
H1172 H 0.45823 0.93352 0.15682 0.0
H1173 H 0.48557 0.95287 0.15567 0.0
H1174 H 0.47088 0.00487 0.11494 0.0
H1175 H 0.44353 0.98489 0.11549 0.0
H1176 H 0.50705 0.95474 0.1244 0.0
H1177 H 0.49271 0.05514 0.15265 0.0
H1178 H 0.48012 0.02563 0.15617 0.0
H1179 H 0.47946 0.04275 0.13631 0.0
C1180 C 0.46075 0.94885 0.14745 0.0
C1181 C 0.44853 0.95734 0.13613 0.0
C1182 C 0.47643 0.96004 0.14691 0.0
C1183 C 0.4803 0.98034 0.13525 0.0
C1184 C 0.46814 0.98935 0.12414 0.0
H1185 H 0.5675 0.07818 0.11962 0.0
H1186 H 0.54018 0.05843 0.11916 0.0
C1187 C 0.45245 0.97797 0.12455 0.0
C1188 C 0.49715 0.99161 0.13455 0.0
H1189 H 0.51969 0.048 0.14369 0.0
C1190 C 0.50985 0.97514 0.12861 0.0
C1191 C 0.50077 0.01823 0.13997 0.0
C1192 C 0.48763 0.03656 0.14674 0.0
C1193 C 0.52601 0.98467 0.12771 0.0
C1194 C 0.52974 0.01121 0.13341 0.0
C1195 C 0.51696 0.02767 0.13933 0.0
C1196 C 0.5467 0.02249 0.13322 0.0
C1197 C 0.53882 0.9664 0.12018 0.0
C1198 C 0.55966 0.00901 0.14127 0.0
C1199 C 0.57541 0.02018 0.14138 0.0
C1200 C 0.57851 0.04539 0.13375 0.0
C1201 C 0.56553 0.05884 0.12574 0.0
C1202 C 0.54987 0.04753 0.12546 0.0
H1203 H 0.53331 0.95089 0.11179 0.0
H1204 H 0.5479 0.97817 0.11286 0.0
H1205 H 0.54526 0.95557 0.13043 0.0
H1206 H 0.55755 0.99008 0.14778 0.0
H1207 H 0.58505 0.0095 0.14789 0.0
H1208 H 0.58349 0.98621 0.61685 0.0
H1209 H 0.5563 0.00647 0.61693 0.0
H1210 H 0.54123 0.95032 0.65541 0.0
H1211 H 0.56852 0.93138 0.65633 0.0
H1212 H 0.5276 0.98639 0.60917 0.0
H1213 H 0.52456 0.01803 0.67575 0.0
H1214 H 0.54324 0.00661 0.6662 0.0
H1215 H 0.52853 0.98247 0.67389 0.0
C1216 C 0.57454 0.97853 0.62563 0.0
C1217 C 0.57842 0.95702 0.63658 0.0
C1218 C 0.55887 0.99001 0.62554 0.0
C1219 C 0.54663 0.98033 0.63638 0.0
C1220 C 0.55044 0.95878 0.64722 0.0
H1221 H 0.44194 0.00972 0.64745 0.0
H1222 H 0.46947 0.99012 0.64727 0.0
C1223 C 0.56611 0.94756 0.64748 0.0
C1224 C 0.52977 0.99201 0.63593 0.0
H1225 H 0.49932 0.01765 0.66073 0.0
C1226 C 0.52151 0.99341 0.62045 0.0
C1227 C 0.52167 1.0013 0.65061 0.0
C1228 C 0.53003 0.0023 0.6675 0.0
C1229 C 0.50543 0.00326 0.61932 0.0
C1230 C 0.49729 0.01197 0.63402 0.0
C1231 C 0.5055 0.01068 0.64948 0.0
C1232 C 0.48043 0.02328 0.63355 0.0
C1233 C 0.49714 0.00392 0.60241 0.0
C1234 C 0.47741 0.04843 0.62592 0.0
C1235 C 0.46175 0.0597 0.62608 0.0
C1236 C 0.44867 0.04607 0.63383 0.0
C1237 C 0.45167 0.02064 0.64123 0.0
C1238 C 0.46742 0.00949 0.64122 0.0
H1239 H 0.50375 0.99164 0.5929 0.0
H1240 H 0.48444 0.9963 0.60341 0.0
H1241 H 0.49661 0.02516 0.59787 0.0
H1242 H 0.48726 0.05958 0.62005 0.0
H1243 H 0.45988 0.07921 0.62014 0.0
H1244 H 0.56804 0.07862 0.89047 0.0
H1245 H 0.54076 0.05875 0.89088 0.0
H1246 H 0.55826 0.99055 0.86218 0.0
H1247 H 0.58572 0.0101 0.86213 0.0
H1248 H 0.52034 0.04828 0.86623 0.0
H1249 H 0.53403 0.95121 0.89813 0.0
H1250 H 0.54858 0.97856 0.89712 0.0
H1251 H 0.54601 0.95599 0.87953 0.0
C1252 C 0.56611 0.05928 0.88433 0.0
C1253 C 0.57911 0.04592 0.87631 0.0
C1254 C 0.55047 0.04791 0.88458 0.0
C1255 C 0.54735 0.02288 0.87677 0.0
C1256 C 0.56033 0.00947 0.86873 0.0
H1257 H 0.45894 0.93353 0.85323 0.0
H1258 H 0.4863 0.95281 0.85438 0.0
C1259 C 0.57606 0.02072 0.86865 0.0
C1260 C 0.53041 0.01153 0.87653 0.0
H1261 H 0.50777 0.95501 0.88551 0.0
C1262 C 0.51763 0.02795 0.87058 0.0
C1263 C 0.52671 0.98499 0.88223 0.0
C1264 C 0.53953 0.96677 0.88977 0.0
C1265 C 0.50145 0.01846 0.86991 0.0
C1266 C 0.49785 0.99185 0.87533 0.0
C1267 C 0.51056 0.97541 0.8813 0.0
C1268 C 0.48101 0.98056 0.87466 0.0
C1269 C 0.4883 0.03676 0.8631 0.0
C1270 C 0.46885 0.98973 0.8857 0.0
C1271 C 0.45314 0.9784 0.88529 0.0
C1272 C 0.44922 0.95766 0.87378 0.0
C1273 C 0.46146 0.94896 0.86255 0.0
C1274 C 0.47715 0.96011 0.86309 0.0
H1275 H 0.49339 0.05525 0.85711 0.0
H1276 H 0.48075 0.02574 0.85374 0.0
H1277 H 0.48018 0.04309 0.87354 0.0
H1278 H 0.47158 0.00536 0.89484 0.0
H1279 H 0.44422 0.98547 0.89429 0.0
H1280 H 0.9438 0.51903 0.39434 0.0
H1281 H 0.97121 0.49935 0.39488 0.0
H1282 H 0.98583 0.55209 0.35448 0.0
H1283 H 0.95843 0.57115 0.35333 0.0
H1284 H 0.99009 0.47512 0.36492 0.0
H1285 H 0.01937 0.56455 0.39499 0.0
H1286 H 0.99781 0.55775 0.39681 0.0
H1287 H 1.00593 0.57091 0.37755 0.0
C1288 C 0.95272 0.52624 0.38538 0.0
C1289 C 0.94876 0.547 0.3739 0.0
C1290 C 0.96846 0.51506 0.3858 0.0
C1291 C 0.98065 0.52452 0.37489 0.0
C1292 C 0.97671 0.54478 0.36322 0.0
H1293 H 0.08494 0.4938 0.3625 0.0
H1294 H 0.05731 0.51283 0.36233 0.0
C1295 C 0.96099 0.55578 0.36267 0.0
C1296 C 0.9975 0.51323 0.37557 0.0
H1297 H 0.03672 0.52914 0.38625 0.0
C1298 C 1.00029 0.48684 0.36967 0.0
C1299 C 1.01082 0.52866 0.38155 0.0
C1300 C 1.00844 0.55701 0.3882 0.0
C1301 C 0.01607 0.47561 0.36935 0.0
C1302 C 0.02944 0.49086 0.37562 0.0
C1303 C 0.02658 0.51733 0.38149 0.0
C1304 C 0.04641 0.47972 0.37621 0.0
C1305 C 0.01829 0.44782 0.36176 0.0
C1306 C 0.04971 0.45514 0.38446 0.0
C1307 C 0.06545 0.44417 0.38445 0.0
C1308 C 0.07842 0.4577 0.37646 0.0
C1309 C 0.07527 0.48288 0.36881 0.0
C1310 C 0.05944 0.49373 0.36866 0.0
H1311 H 1.00824 0.44276 0.35294 0.0
H1312 H 0.03002 0.44627 0.3549 0.0
H1313 H 0.0182 0.43244 0.37194 0.0
H1314 H 0.04009 0.44433 0.3909 0.0
H1315 H 0.06749 0.42502 0.39076 0.0
H1316 H 0.06824 0.57001 0.15719 0.0
H1317 H 0.04088 0.55072 0.156 0.0
H1318 H 0.05543 0.4992 0.11498 0.0
H1319 H 0.08278 0.51914 0.11555 0.0
H1320 H 0.01932 0.54895 0.12448 0.0
H1321 H 0.03376 0.44873 0.1529 0.0
H1322 H 0.04623 0.47835 0.15653 0.0
H1323 H 0.04706 0.46128 0.13666 0.0
C1324 C 0.06568 0.55481 0.14774 0.0
C1325 C 0.07787 0.54643 0.13635 0.0
C1326 C 0.04999 0.54366 0.14718 0.0
C1327 C 0.04608 0.5235 0.13543 0.0
C1328 C 0.0582 0.51462 0.12424 0.0
H1329 H 0.95905 0.42527 0.11981 0.0
H1330 H 0.98634 0.44512 0.11939 0.0
C1331 C 0.0739 0.52597 0.12467 0.0
C1332 C 0.02924 0.51219 0.13474 0.0
H1333 H 1.00676 0.45579 0.14397 0.0
C1334 C 0.01654 0.52858 0.12873 0.0
C1335 C 0.02565 0.4856 0.14022 0.0
C1336 C 0.03881 0.46736 0.14705 0.0
C1337 C 1.00038 0.51898 0.12781 0.0
C1338 C 0.99668 0.49246 0.13358 0.0
C1339 C 1.00947 0.4761 0.13957 0.0
C1340 C 0.97973 0.48111 0.13336 0.0
C1341 C 0.98757 0.53714 0.12022 0.0
C1342 C 0.96675 0.49458 0.14135 0.0
C1343 C 0.95101 0.48335 0.14145 0.0
C1344 C 0.94796 0.45809 0.13386 0.0
C1345 C 0.96097 0.44465 0.1259 0.0
C1346 C 0.97662 0.45601 0.12564 0.0
H1347 H 0.99306 0.55263 0.11181 0.0
H1348 H 0.97851 0.52529 0.1129 0.0
H1349 H 0.98108 0.548 0.13043 0.0
H1350 H 0.96881 0.51356 0.14784 0.0
H1351 H 0.94135 0.49403 0.14791 0.0
H1352 H 0.96001 0.57878 0.61948 0.0
H1353 H 0.98727 0.55886 0.61913 0.0
H1354 H 0.96973 0.49109 0.6482 0.0
H1355 H 0.94229 0.51068 0.6482 0.0
H1356 H 1.00772 0.54875 0.64377 0.0
H1357 H 0.9939 0.45118 0.61246 0.0
H1358 H 0.97937 0.47855 0.61334 0.0
H1359 H 0.98196 0.45626 0.63107 0.0
C1360 C 0.96192 0.55952 0.62571 0.0
C1361 C 0.94891 0.5463 0.63383 0.0
C1362 C 0.97755 0.54812 0.6255 0.0
C1363 C 0.98066 0.5232 0.63343 0.0
C1364 C 0.96767 0.50993 0.64156 0.0
H1365 H 0.0691 0.43395 0.65703 0.0
H1366 H 0.04174 0.45319 0.65588 0.0
C1367 C 0.95195 0.5212 0.64161 0.0
C1368 C 0.9976 0.51185 0.6337 0.0
H1369 H 0.02019 0.4552 0.62498 0.0
C1370 C 1.01042 0.52835 0.63952 0.0
C1371 C 1.00128 0.48522 0.62815 0.0
C1372 C 0.98843 0.46687 0.62074 0.0
C1373 C 0.02659 0.51888 0.6402 0.0
C1374 C 0.03017 0.49219 0.63492 0.0
C1375 C 0.01743 0.47565 0.62909 0.0
C1376 C 0.04702 0.48092 0.63559 0.0
C1377 C 0.03976 0.53729 0.64688 0.0
C1378 C 0.05919 0.49007 0.62454 0.0
C1379 C 0.07489 0.47876 0.62494 0.0
C1380 C 0.07882 0.45804 0.63646 0.0
C1381 C 0.06658 0.44936 0.6477 0.0
C1382 C 0.05089 0.46049 0.64717 0.0
H1383 H 0.03469 0.55581 0.65285 0.0
H1384 H 0.04739 0.52639 0.65622 0.0
H1385 H 0.04781 0.54359 0.63637 0.0
H1386 H 0.05646 0.50567 0.61539 0.0
H1387 H 0.08381 0.48582 0.61593 0.0
H1388 H 0.08488 0.51191 0.86281 0.0
H1389 H 0.05722 0.49299 0.86263 0.0
H1390 H 0.04002 0.56208 0.89068 0.0
H1391 H 0.06746 0.58127 0.89054 0.0
H1392 H 0.03654 0.47724 0.88665 0.0
H1393 H 1.00834 0.56299 0.85252 0.0
H1394 H 0.0301 0.55945 0.8546 0.0
H1395 H 0.01825 0.57365 0.87148 0.0
C1396 C 0.07521 0.52298 0.869 0.0
C1397 C 0.07837 0.54827 0.87651 0.0
C1398 C 0.05936 0.5122 0.86885 0.0
C1399 C 0.04633 0.5264 0.87625 0.0
C1400 C 0.04965 0.55111 0.88435 0.0
H1401 H 0.94365 0.48695 0.89418 0.0
H1402 H 0.97103 0.50687 0.89476 0.0
C1403 C 0.06541 0.56201 0.88435 0.0
C1404 C 0.02935 0.51529 0.87567 0.0
H1405 H 0.9901 0.53086 0.86461 0.0
C1406 C 0.02644 0.48896 0.88174 0.0
C1407 C 0.01605 0.53044 0.86921 0.0
C1408 C 0.01834 0.55808 0.86143 0.0
C1409 C 1.01067 0.47765 0.88179 0.0
C1410 C 0.9974 0.49298 0.8756 0.0
C1411 C 1.00025 0.51924 0.86952 0.0
C1412 C 0.98058 0.48165 0.87485 0.0
C1413 C 1.00822 0.44944 0.88862 0.0
C1414 C 0.97672 0.46131 0.86321 0.0
C1415 C 0.96103 0.45018 0.86263 0.0
C1416 C 0.94877 0.4589 0.87382 0.0
C1417 C 0.95263 0.47978 0.88526 0.0
C1418 C 0.96834 0.49109 0.88571 0.0
H1419 H 0.01911 0.44199 0.8955 0.0
H1420 H 0.99756 0.44888 0.8972 0.0
H1421 H 1.00572 0.43535 0.87805 0.0
H1422 H 0.98588 0.45401 0.85452 0.0
H1423 H 0.95853 0.43471 0.85333 0.0
H1424 H 0.22309 0.34939 0.35083 0.0
H1425 H 0.24582 0.31732 0.34965 0.0
H1426 H 0.22342 0.26921 0.38843 0.0
H1427 H 0.20037 0.30035 0.38929 0.0
H1428 H 0.25845 0.28306 0.39322 0.0
H1429 H 0.2449 0.23704 0.33095 0.0
H1430 H 0.24485 0.27347 0.33218 0.0
H1431 H 0.22959 0.25443 0.34318 0.0
C1432 C 0.22279 0.33183 0.35896 0.0
C1433 C 0.20971 0.32781 0.37021 0.0
C1434 C 0.2359 0.3135 0.3583 0.0
C1435 C 0.23635 0.29071 0.3689 0.0
C1436 C 0.22341 0.28664 0.38015 0.0
H1437 H 0.30598 0.16213 0.39317 0.0
H1438 H 0.28331 0.19423 0.39258 0.0
C1439 C 0.21025 0.30475 0.38071 0.0
C1440 C 0.25039 0.27135 0.36856 0.0
H1441 H 0.26883 0.22253 0.34462 0.0
C1442 C 0.26072 0.26982 0.3826 0.0
C1443 C 0.25347 0.25417 0.35467 0.0
C1444 C 0.24261 0.25457 0.33938 0.0
C1445 C 0.27409 0.25187 0.38307 0.0
C1446 C 0.27699 0.23414 0.36933 0.0
C1447 C 0.26669 0.23589 0.35521 0.0
C1448 C 0.29056 0.21369 0.36937 0.0
C1449 C 0.28521 0.25271 0.39817 0.0
C1450 C 0.30194 0.21277 0.35615 0.0
C1451 C 0.31485 0.19404 0.35633 0.0
C1452 C 0.31676 0.17571 0.36977 0.0
C1453 C 0.30512 0.17623 0.38278 0.0
C1454 C 0.29215 0.19476 0.3825 0.0
H1455 H 0.28456 0.27261 0.40469 0.0
H1456 H 0.28139 0.23691 0.40727 0.0
H1457 H 0.29807 0.24889 0.39456 0.0
H1458 H 0.30103 0.22693 0.34579 0.0
H1459 H 0.32359 0.19442 0.34615 0.0
H1460 H 0.72285 0.84855 0.35075 0.0
H1461 H 0.74561 0.81651 0.34963 0.0
H1462 H 0.72319 0.76845 0.38842 0.0
H1463 H 0.70011 0.79954 0.38922 0.0
H1464 H 0.75826 0.7825 0.39321 0.0
H1465 H 0.7447 0.73606 0.33105 0.0
H1466 H 0.74458 0.77251 0.33224 0.0
H1467 H 0.72937 0.75342 0.34328 0.0
C1468 C 0.72255 0.831 0.3589 0.0
C1469 C 0.70946 0.82698 0.37013 0.0
C1470 C 0.73568 0.81269 0.35827 0.0
C1471 C 0.73613 0.78993 0.36889 0.0
C1472 C 0.72318 0.78586 0.38012 0.0
H1473 H 0.80588 0.66167 0.39344 0.0
H1474 H 0.78319 0.69373 0.3928 0.0
C1475 C 0.71 0.80394 0.38065 0.0
C1476 C 0.75019 0.7706 0.36859 0.0
H1477 H 0.76863 0.72164 0.34476 0.0
C1478 C 0.76053 0.76918 0.38262 0.0
C1479 C 0.75326 0.75333 0.35474 0.0
C1480 C 0.74238 0.75362 0.33946 0.0
C1481 C 0.77391 0.75126 0.38313 0.0
C1482 C 0.7768 0.73344 0.36943 0.0
C1483 C 0.76649 0.73508 0.35532 0.0
C1484 C 0.79039 0.71301 0.36951 0.0
C1485 C 0.78506 0.75224 0.3982 0.0
C1486 C 0.80174 0.71198 0.35626 0.0
C1487 C 0.81465 0.69326 0.35647 0.0
C1488 C 0.8166 0.67505 0.36997 0.0
C1489 C 0.805 0.67567 0.383 0.0
C1490 C 0.79201 0.69418 0.38269 0.0
H1491 H 0.7844 0.77218 0.40466 0.0
H1492 H 0.78125 0.73651 0.40735 0.0
H1493 H 0.79791 0.7484 0.39458 0.0
H1494 H 0.8008 0.72605 0.34586 0.0
H1495 H 0.82337 0.69356 0.34626 0.0
H1496 H 0.22433 0.65144 0.15647 0.0
H1497 H 0.24737 0.68319 0.15754 0.0
H1498 H 0.22131 0.73871 0.12562 0.0
H1499 H 0.19818 0.70743 0.12462 0.0
H1500 H 0.26227 0.71257 0.12151 0.0
H1501 H 0.24034 0.77549 0.17506 0.0
H1502 H 0.23599 0.73961 0.17391 0.0
H1503 H 0.22598 0.76253 0.15985 0.0
C1504 C 0.22341 0.67048 0.14978 0.0
C1505 C 0.20931 0.67666 0.14039 0.0
C1506 C 0.23665 0.68857 0.15033 0.0
C1507 C 0.23609 0.71334 0.14165 0.0
C1508 C 0.22205 0.7197 0.13239 0.0
H1509 H 0.30803 0.83611 0.11486 0.0
H1510 H 0.28552 0.80373 0.11569 0.0
C1511 C 0.20885 0.70163 0.13176 0.0
C1512 C 0.25017 0.73251 0.14203 0.0
H1513 H 0.26473 0.78911 0.16191 0.0
C1514 C 0.26285 0.72927 0.13036 0.0
C1515 C 0.25096 0.75421 0.15361 0.0
C1516 C 0.23766 0.75839 0.1664 0.0
C1517 C 0.2762 0.74728 0.12988 0.0
C1518 C 0.27685 0.76941 0.14126 0.0
C1519 C 0.26427 0.77232 0.15312 0.0
C1520 C 0.29044 0.78974 0.14095 0.0
C1521 C 0.28963 0.74221 0.11734 0.0
C1522 C 0.30055 0.79345 0.15503 0.0
C1523 C 0.31356 0.81198 0.15459 0.0
C1524 C 0.31676 0.82751 0.14007 0.0
C1525 C 0.30629 0.82421 0.12615 0.0
C1526 C 0.29334 0.80563 0.1266 0.0
H1527 H 0.2895 0.72097 0.11269 0.0
H1528 H 0.28794 0.75582 0.10637 0.0
H1529 H 0.30175 0.7465 0.12293 0.0
H1530 H 0.29857 0.78157 0.1663 0.0
H1531 H 0.32136 0.81359 0.16552 0.0
H1532 H 0.72304 0.15459 0.15939 0.0
H1533 H 0.74574 0.18678 0.16052 0.0
H1534 H 0.72317 0.23481 0.12181 0.0
H1535 H 0.70015 0.20355 0.12099 0.0
H1536 H 0.75824 0.22101 0.11695 0.0
H1537 H 0.74473 0.26715 0.17919 0.0
H1538 H 0.74468 0.23071 0.17797 0.0
H1539 H 0.72941 0.24972 0.16697 0.0
C1540 C 0.7227 0.17216 0.15126 0.0
C1541 C 0.70958 0.17612 0.14004 0.0
C1542 C 0.73579 0.19056 0.15189 0.0
C1543 C 0.73618 0.21336 0.1413 0.0
C1544 C 0.72321 0.21737 0.13008 0.0
H1545 H 0.80559 0.34219 0.11677 0.0
H1546 H 0.78297 0.30996 0.11743 0.0
C1547 C 0.71006 0.19919 0.12955 0.0
C1548 C 0.7502 0.23277 0.14161 0.0
H1549 H 0.7686 0.28179 0.16546 0.0
C1550 C 0.76051 0.23431 0.12756 0.0
C1551 C 0.75327 0.25002 0.15547 0.0
C1552 C 0.74243 0.24961 0.17076 0.0
C1553 C 0.77385 0.25233 0.12705 0.0
C1554 C 0.77674 0.27013 0.14077 0.0
C1555 C 0.76647 0.26837 0.15489 0.0
C1556 C 0.79029 0.29067 0.14068 0.0
C1557 C 0.78497 0.25148 0.11195 0.0
C1558 C 0.80167 0.29174 0.1539 0.0
C1559 C 0.81454 0.31056 0.15368 0.0
C1560 C 0.81641 0.32882 0.1402 0.0
C1561 C 0.80477 0.32815 0.12719 0.0
C1562 C 0.79182 0.30954 0.12752 0.0
H1563 H 0.78434 0.23155 0.10548 0.0
H1564 H 0.78111 0.26721 0.10282 0.0
H1565 H 0.79782 0.25542 0.11555 0.0
H1566 H 0.80079 0.27763 0.16429 0.0
H1567 H 0.82329 0.3103 0.16386 0.0
H1568 H 0.72135 0.84237 0.61656 0.0
H1569 H 0.74408 0.81041 0.61724 0.0
H1570 H 0.72658 0.77827 0.66427 0.0
H1571 H 0.70396 0.81066 0.66383 0.0
H1572 H 0.75877 0.78289 0.6653 0.0
H1573 H 0.74296 0.73185 0.60558 0.0
H1574 H 0.74604 0.76753 0.60278 0.0
H1575 H 0.72943 0.75563 0.61562 0.0
C1576 C 0.72226 0.82843 0.62703 0.0
C1577 C 0.71067 0.82908 0.64008 0.0
C1578 C 0.73528 0.80997 0.62736 0.0
C1579 C 0.73694 0.79124 0.64058 0.0
C1580 C 0.72561 0.79228 0.65384 0.0
H1581 H 0.80476 0.65619 0.65958 0.0
H1582 H 0.78195 0.68812 0.66065 0.0
C1583 C 0.71267 0.81094 0.65361 0.0
C1584 C 0.75057 0.77087 0.64069 0.0
H1585 H 0.76915 0.72173 0.617 0.0
C1586 C 0.76091 0.76939 0.65478 0.0
C1587 C 0.75346 0.75297 0.62703 0.0
C1588 C 0.74229 0.75183 0.61199 0.0
C1589 C 0.77418 0.75121 0.65538 0.0
C1590 C 0.77725 0.73386 0.64157 0.0
C1591 C 0.76687 0.73512 0.62756 0.0
C1592 C 0.79134 0.7146 0.64129 0.0
C1593 C 0.78509 0.75109 0.67063 0.0
C1594 C 0.80426 0.71865 0.63001 0.0
C1595 C 0.81747 0.70063 0.62951 0.0
C1596 C 0.81807 0.67768 0.6401 0.0
C1597 C 0.80501 0.67368 0.65137 0.0
C1598 C 0.79186 0.69192 0.65197 0.0
H1599 H 0.78276 0.76869 0.67899 0.0
H1600 H 0.78294 0.73224 0.67791 0.0
H1601 H 0.79809 0.75132 0.66678 0.0
H1602 H 0.8042 0.73599 0.62166 0.0
H1603 H 0.82733 0.70501 0.6209 0.0
H1604 H 0.22141 0.34239 0.61685 0.0
H1605 H 0.24404 0.31021 0.61749 0.0
H1606 H 0.22644 0.27813 0.6645 0.0
H1607 H 0.20393 0.31075 0.66409 0.0
H1608 H 0.25862 0.28234 0.66554 0.0
H1609 H 0.24267 0.23174 0.60572 0.0
H1610 H 0.24589 0.2674 0.60298 0.0
H1611 H 0.22922 0.25563 0.61579 0.0
C1612 C 0.22229 0.32842 0.6273 0.0
C1613 C 0.2107 0.32914 0.64036 0.0
C1614 C 0.23524 0.30984 0.62761 0.0
C1615 C 0.23684 0.29105 0.64082 0.0
C1616 C 0.22551 0.29218 0.65408 0.0
H1617 H 0.30419 0.15518 0.65951 0.0
H1618 H 0.28148 0.1873 0.66065 0.0
C1619 C 0.21264 0.31097 0.65387 0.0
C1620 C 0.25039 0.27054 0.6409 0.0
H1621 H 0.26882 0.22135 0.61712 0.0
C1622 C 0.26072 0.26888 0.65499 0.0
C1623 C 0.25324 0.25267 0.62721 0.0
C1624 C 0.24206 0.25171 0.61216 0.0
C1625 C 0.27393 0.25056 0.65557 0.0
C1626 C 0.27695 0.23326 0.64172 0.0
C1627 C 0.26659 0.23469 0.62771 0.0
C1628 C 0.29099 0.21388 0.64141 0.0
C1629 C 0.28482 0.25025 0.67082 0.0
C1630 C 0.30394 0.21792 0.63017 0.0
C1631 C 0.3171 0.19979 0.62963 0.0
C1632 C 0.31761 0.17673 0.64014 0.0
C1633 C 0.30451 0.17274 0.65137 0.0
C1634 C 0.29141 0.1911 0.65201 0.0
H1635 H 0.28253 0.2678 0.67924 0.0
H1636 H 0.28263 0.23136 0.67805 0.0
H1637 H 0.29783 0.25043 0.66699 0.0
H1638 H 0.30395 0.23534 0.62189 0.0
H1639 H 0.32698 0.20417 0.62106 0.0
H1640 H 0.72114 0.16291 0.89312 0.0
H1641 H 0.74381 0.19519 0.89213 0.0
H1642 H 0.72678 0.22477 0.84432 0.0
H1643 H 0.70394 0.19273 0.84527 0.0
H1644 H 0.76879 0.2012 0.86636 0.0
H1645 H 0.7314 0.2943 0.87381 0.0
H1646 H 0.7238 0.26101 0.8791 0.0
H1647 H 0.72516 0.27127 0.8575 0.0
C1648 C 0.72213 0.17635 0.88241 0.0
C1649 C 0.71059 0.17518 0.8693 0.0
C1650 C 0.73518 0.19476 0.88183 0.0
C1651 C 0.73694 0.21273 0.86826 0.0
C1652 C 0.72559 0.21141 0.85504 0.0
H1653 H 0.80486 0.34724 0.84984 0.0
H1654 H 0.78263 0.31436 0.84838 0.0
C1655 C 0.71261 0.19284 0.85553 0.0
C1656 C 0.75073 0.23262 0.86791 0.0
H1657 H 0.75957 0.30041 0.86941 0.0
C1658 C 0.76678 0.2229 0.86704 0.0
C1659 C 0.74816 0.26098 0.86865 0.0
C1660 C 0.73123 0.27266 0.86994 0.0
C1661 C 0.78026 0.24063 0.86669 0.0
C1662 C 0.77775 0.26906 0.86784 0.0
C1663 C 0.76164 0.27875 0.86857 0.0
C1664 C 0.7916 0.289 0.86855 0.0
C1665 C 0.79703 0.22857 0.86462 0.0
C1666 C 0.80412 0.2862 0.88048 0.0
C1667 C 0.81711 0.30467 0.88109 0.0
C1668 C 0.81784 0.32708 0.87008 0.0
C1669 C 0.80506 0.33016 0.85836 0.0
C1670 C 0.79216 0.3114 0.85761 0.0
H1671 H 0.79649 0.20855 0.85824 0.0
H1672 H 0.80514 0.24211 0.85726 0.0
H1673 H 0.80252 0.22534 0.87721 0.0
H1674 H 0.80387 0.2697 0.88944 0.0
H1675 H 0.82668 0.30105 0.89017 0.0
H1676 H 0.22122 0.66248 0.89368 0.0
H1677 H 0.24391 0.69456 0.89294 0.0
H1678 H 0.22638 0.7263 0.84581 0.0
H1679 H 0.2038 0.69379 0.84632 0.0
H1680 H 0.25861 0.72186 0.84486 0.0
H1681 H 0.24255 0.77321 0.9044 0.0
H1682 H 0.24567 0.73758 0.9073 0.0
H1683 H 0.22909 0.74928 0.89437 0.0
C1684 C 0.22212 0.67635 0.88318 0.0
C1685 C 0.21053 0.67558 0.87012 0.0
C1686 C 0.23511 0.69487 0.88281 0.0
C1687 C 0.23675 0.71354 0.86954 0.0
C1688 C 0.22542 0.71234 0.85627 0.0
H1689 H 0.30427 0.84912 0.8507 0.0
H1690 H 0.2815 0.81708 0.8496 0.0
C1691 C 0.21251 0.69362 0.85655 0.0
C1692 C 0.25032 0.734 0.86942 0.0
H1693 H 0.26875 0.78341 0.89305 0.0
C1694 C 0.2607 0.73545 0.85536 0.0
C1695 C 0.25315 0.75202 0.88304 0.0
C1696 C 0.24192 0.75319 0.89804 0.0
C1697 C 0.27394 0.75371 0.85476 0.0
C1698 C 0.27694 0.77117 0.86854 0.0
C1699 C 0.26653 0.76994 0.88252 0.0
C1700 C 0.29101 0.79048 0.86883 0.0
C1701 C 0.28489 0.75383 0.83955 0.0
C1702 C 0.30398 0.78638 0.88003 0.0
C1703 C 0.31717 0.80446 0.88055 0.0
C1704 C 0.31769 0.82752 0.87004 0.0
C1705 C 0.30458 0.83156 0.85884 0.0
C1706 C 0.29144 0.81325 0.85822 0.0
H1707 H 0.28253 0.73627 0.83115 0.0
H1708 H 0.28283 0.77272 0.83229 0.0
H1709 H 0.29788 0.7535 0.84345 0.0
H1710 H 0.30397 0.76896 0.88832 0.0
H1711 H 0.32707 0.80005 0.88909 0.0
H1712 H 0.40137 0.03382 0.32596 0.0
H1713 H 0.4033 0.00774 0.29978 0.0
H1714 H 0.3741 0.06786 0.2745 0.0
H1715 H 0.37169 0.09337 0.30087 0.0
H1716 H 0.36315 0.0186 0.26764 0.0
H1717 H 0.42988 0.01792 0.25797 0.0
H1718 H 0.42417 0.00501 0.2782 0.0
H1719 H 0.42016 0.03991 0.27305 0.0
C1720 C 0.39572 0.04174 0.31468 0.0
C1721 C 0.3868 0.06604 0.31533 0.0
C1722 C 0.39685 0.02687 0.29969 0.0
C1723 C 0.38914 0.03599 0.28494 0.0
C1724 C 0.38033 0.06045 0.28558 0.0
H1725 H 0.40152 0.96977 0.18366 0.0
H1726 H 0.40319 0.99628 0.20974 0.0
C1727 C 0.37912 0.07524 0.30061 0.0
C1728 C 0.38933 0.01923 0.26921 0.0
H1729 H 0.41445 0.98698 0.24124 0.0
C1730 C 0.3744 0.01183 0.26185 0.0
C1731 C 0.40396 0.0105 0.26143 0.0
C1732 C 0.42045 0.01896 0.26796 0.0
C1733 C 0.37366 0.9958 0.24721 0.0
C1734 C 0.38827 0.98616 0.23981 0.0
C1735 C 0.40322 0.99392 0.24699 0.0
C1736 C 0.38826 0.96882 0.22434 0.0
C1737 C 0.35719 0.98993 0.23959 0.0
C1738 C 0.37972 0.94408 0.22385 0.0
C1739 C 0.37874 0.92897 0.20893 0.0
C1740 C 0.38658 0.93795 0.19424 0.0
C1741 C 0.39559 0.96217 0.19488 0.0
C1742 C 0.39649 0.97735 0.20977 0.0
H1743 H 0.34789 0.00483 0.24377 0.0
H1744 H 0.35774 0.99023 0.22565 0.0
H1745 H 0.35309 0.96952 0.24364 0.0
H1746 H 0.37351 0.93668 0.23495 0.0
H1747 H 0.37138 0.91075 0.20871 0.0
H1748 H 0.66392 0.07946 0.20469 0.0
H1749 H 0.66188 0.05329 0.23086 0.0
H1750 H 0.61539 0.02174 0.21478 0.0
H1751 H 0.61779 0.04727 0.18834 0.0
H1752 H 0.64165 0.05169 0.2567 0.0
H1753 H 0.63884 0.95236 0.22439 0.0
H1754 H 0.64339 0.9834 0.2134 0.0
H1755 H 0.62263 0.97467 0.21832 0.0
C1756 C 0.65319 0.06718 0.20691 0.0
C1757 C 0.64099 0.06537 0.19459 0.0
C1758 C 0.65204 0.05214 0.22183 0.0
C1759 C 0.63866 0.03491 0.22475 0.0
C1760 C 0.62607 0.03418 0.21271 0.0
H1761 H 0.62091 0.96404 0.32478 0.0
H1762 H 0.61871 0.99008 0.29856 0.0
C1763 C 0.62731 0.04905 0.19771 0.0
C1764 C 0.63809 0.01758 0.24024 0.0
H1765 H 0.63458 0.95197 0.25389 0.0
C1766 C 0.64008 0.02989 0.25605 0.0
C1767 C 0.63637 0.98897 0.23951 0.0
C1768 C 0.63536 0.97401 0.223 0.0
C1769 C 0.6403 0.01461 0.27102 0.0
C1770 C 0.63799 0.98612 0.27034 0.0
C1771 C 0.63612 0.97378 0.25453 0.0
C1772 C 0.63815 0.9687 0.2858 0.0
C1773 C 0.64359 0.02915 0.28737 0.0
C1774 C 0.64916 0.94693 0.28718 0.0
C1775 C 0.65013 0.93166 0.30203 0.0
C1776 C 0.64005 0.93771 0.3158 0.0
C1777 C 0.62868 0.95882 0.31427 0.0
C1778 C 0.6276 0.97394 0.29937 0.0
H1779 H 0.64975 0.04892 0.28527 0.0
H1780 H 0.63186 0.03324 0.2938 0.0
H1781 H 0.65131 0.01671 0.29585 0.0
H1782 H 0.65741 0.94232 0.27695 0.0
H1783 H 0.65919 0.91579 0.30303 0.0
H1784 H 0.65966 0.08724 0.80278 0.0
H1785 H 0.65753 0.06105 0.77664 0.0
H1786 H 0.61923 0.01276 0.7986 0.0
H1787 H 0.62179 0.0385 0.82492 0.0
H1788 H 0.64039 0.98093 0.78384 0.0
H1789 H 0.62558 0.06266 0.73888 0.0
H1790 H 0.64404 0.06958 0.75011 0.0
H1791 H 0.625 0.06777 0.76132 0.0
C1792 C 0.65052 0.07147 0.80181 0.0
C1793 C 0.64061 0.06527 0.81568 0.0
C1794 C 0.64927 0.05649 0.78686 0.0
C1795 C 0.63798 0.03512 0.78538 0.0
C1796 C 0.62796 0.02919 0.79927 0.0
H1797 H 0.61845 0.95658 0.68812 0.0
H1798 H 0.61592 0.98172 0.7147 0.0
C1799 C 0.62931 0.04403 0.81426 0.0
C1800 C 0.6373 0.01793 0.76983 0.0
H1801 H 0.63436 0.02062 0.72694 0.0
C1802 C 0.63893 0.98966 0.77142 0.0
C1803 C 0.63516 0.02903 0.75354 0.0
C1804 C 0.63217 0.05889 0.75085 0.0
C1805 C 0.63886 0.9724 0.75729 0.0
C1806 C 0.63757 0.98364 0.74094 0.0
C1807 C 0.63554 0.01185 0.73938 0.0
C1808 C 0.63848 0.96668 0.72531 0.0
C1809 C 0.63989 0.94221 0.76013 0.0
C1810 C 0.6519 0.9496 0.72231 0.0
C1811 C 0.65318 0.93493 0.70726 0.0
C1812 C 0.64117 0.93727 0.69476 0.0
C1813 C 0.62771 0.95412 0.69771 0.0
C1814 C 0.62635 0.96863 0.71283 0.0
H1815 H 0.63535 0.93657 0.77281 0.0
H1816 H 0.63276 0.93086 0.75058 0.0
H1817 H 0.65281 0.93575 0.7593 0.0
H1818 H 0.6617 0.94824 0.73138 0.0
H1819 H 0.66385 0.92252 0.70508 0.0
H1820 H 0.36809 0.91615 0.80265 0.0
H1821 H 0.37019 0.9423 0.7765 0.0
H1822 H 0.40858 0.99052 0.7984 0.0
H1823 H 0.40604 0.9648 0.82472 0.0
H1824 H 0.38741 0.0224 0.78367 0.0
H1825 H 0.40207 0.94062 0.73868 0.0
H1826 H 0.38363 0.93372 0.74995 0.0
H1827 H 0.4027 0.93552 0.76112 0.0
C1828 C 0.37724 0.93189 0.80166 0.0
C1829 C 0.38718 0.93807 0.81552 0.0
C1830 C 0.37848 0.94685 0.78671 0.0
C1831 C 0.38979 0.96819 0.78521 0.0
C1832 C 0.39984 0.97411 0.79908 0.0
H1833 H 0.40906 0.04671 0.6879 0.0
H1834 H 0.41167 0.02156 0.71446 0.0
C1835 C 0.3985 0.95929 0.81408 0.0
C1836 C 0.39044 0.98538 0.76966 0.0
H1837 H 0.39326 0.98266 0.72676 0.0
C1838 C 0.38883 0.01366 0.77125 0.0
C1839 C 0.39254 0.97427 0.75336 0.0
C1840 C 0.39551 0.94441 0.75066 0.0
C1841 C 0.38887 0.03091 0.75712 0.0
C1842 C 0.3901 0.01965 0.74076 0.0
C1843 C 0.39212 0.99144 0.7392 0.0
C1844 C 0.38915 0.0366 0.72513 0.0
C1845 C 0.38786 0.0611 0.75996 0.0
C1846 C 0.37571 0.05368 0.72217 0.0
C1847 C 0.3744 0.06835 0.70713 0.0
C1848 C 0.38636 0.06601 0.69459 0.0
C1849 C 0.39983 0.04916 0.6975 0.0
C1850 C 0.40123 0.03465 0.71262 0.0
H1851 H 0.39245 0.06675 0.77263 0.0
H1852 H 0.39496 0.07244 0.75039 0.0
H1853 H 0.37494 0.06757 0.75917 0.0
H1854 H 0.36595 0.05506 0.73127 0.0
H1855 H 0.36372 0.08078 0.70499 0.0
H1856 H 0.9081 0.45839 0.18759 0.0
H1857 H 0.91071 0.48363 0.21412 0.0
H1858 H 0.86569 0.44829 0.23155 0.0
H1859 H 0.86348 0.42247 0.20528 0.0
H1860 H 0.89197 0.52175 0.22666 0.0
H1861 H 0.89281 0.43773 0.27255 0.0
H1862 H 0.89511 0.4321 0.25028 0.0
H1863 H 0.87515 0.43625 0.25933 0.0
C1864 C 0.89904 0.45555 0.19732 0.0
C1865 C 0.88578 0.43813 0.1946 0.0
C1866 C 0.90043 0.47012 0.21242 0.0
C1867 C 0.88854 0.46767 0.2251 0.0
C1868 C 0.87531 0.45005 0.22231 0.0
H1869 H 0.86709 0.58755 0.30288 0.0
H1870 H 0.86914 0.56142 0.27671 0.0
C1871 C 0.87401 0.43532 0.20728 0.0
C1872 C 0.88946 0.48468 0.24071 0.0
H1873 H 0.88738 0.48191 0.28365 0.0
C1874 C 0.89111 0.51295 0.23912 0.0
C1875 C 0.88859 0.47341 0.25709 0.0
C1876 C 0.888 0.44319 0.25995 0.0
C1877 C 0.8915 0.53016 0.25327 0.0
C1878 C 0.88977 0.519 0.26959 0.0
C1879 C 0.88853 0.49068 0.27121 0.0
C1880 C 0.88913 0.53619 0.28515 0.0
C1881 C 0.89408 0.56012 0.25051 0.0
C1882 C 0.89943 0.53062 0.29888 0.0
C1883 C 0.89812 0.54542 0.31389 0.0
C1884 C 0.88659 0.56626 0.31548 0.0
C1885 C 0.87641 0.57211 0.30177 0.0
C1886 C 0.8776 0.55716 0.2868 0.0
H1887 H 0.90044 0.56411 0.23844 0.0
H1888 H 0.88206 0.57037 0.24996 0.0
H1889 H 0.90129 0.56928 0.26087 0.0
H1890 H 0.90834 0.51449 0.29808 0.0
H1891 H 0.90586 0.54016 0.32443 0.0
H1892 H 0.12236 0.46705 0.32574 0.0
H1893 H 0.11987 0.49284 0.29945 0.0
H1894 H 0.15612 0.44144 0.27655 0.0
H1895 H 0.15822 0.41533 0.30271 0.0
H1896 H 0.1418 0.52281 0.284 0.0
H1897 H 0.12291 0.44229 0.23976 0.0
H1898 H 0.12275 0.43744 0.26223 0.0
H1899 H 0.1414 0.43381 0.25053 0.0
C1900 C 0.12943 0.46088 0.3149 0.0
C1901 C 0.14014 0.43877 0.31608 0.0
C1902 C 0.12812 0.47573 0.29992 0.0
C1903 C 0.13759 0.46894 0.28578 0.0
C1904 C 0.14828 0.44671 0.28699 0.0
H1905 H 0.16469 0.5785 0.20433 0.0
H1906 H 0.16255 0.55294 0.23069 0.0
C1907 C 0.1495 0.43175 0.30195 0.0
C1908 C 0.13701 0.48609 0.27021 0.0
H1909 H 0.13255 0.4835 0.22745 0.0
C1910 C 0.13964 0.51418 0.27166 0.0
C1911 C 0.13396 0.47513 0.25403 0.0
C1912 C 0.12992 0.44557 0.25153 0.0
C1913 C 0.13971 0.53135 0.2575 0.0
C1914 C 0.13748 0.52018 0.24124 0.0
C1915 C 0.13444 0.4922 0.23982 0.0
C1916 C 0.13847 0.53697 0.22554 0.0
C1917 C 0.14189 0.5614 0.26021 0.0
C1918 C 0.12583 0.53633 0.21357 0.0
C1919 C 0.12716 0.55075 0.1984 0.0
C1920 C 0.14114 0.56612 0.1949 0.0
C1921 C 0.15367 0.56716 0.20691 0.0
C1922 C 0.1524 0.5526 0.222 0.0
H1923 H 0.13804 0.56753 0.27305 0.0
H1924 H 0.15498 0.56662 0.25885 0.0
H1925 H 0.13483 0.57337 0.25091 0.0
H1926 H 0.11498 0.52438 0.21586 0.0
H1927 H 0.11745 0.54937 0.18922 0.0
H1928 H 0.12143 0.53972 0.82514 0.0
H1929 H 0.11931 0.51358 0.79894 0.0
H1930 H 0.15817 0.56118 0.77745 0.0
H1931 H 0.15988 0.5878 0.8035 0.0
H1932 H 0.13539 0.55159 0.75432 0.0
H1933 H 0.1503 0.45463 0.78576 0.0
H1934 H 0.13242 0.47037 0.79424 0.0
H1935 H 0.15189 0.48685 0.79633 0.0
C1936 C 0.12927 0.54487 0.81466 0.0
C1937 C 0.14065 0.56598 0.81621 0.0
C1938 C 0.12823 0.5297 0.79977 0.0
C1939 C 0.13884 0.53488 0.78624 0.0
C1940 C 0.14987 0.55662 0.78765 0.0
H1941 H 0.1645 0.42391 0.70517 0.0
H1942 H 0.16251 0.45012 0.73134 0.0
C1943 C 0.15081 0.57194 0.80249 0.0
C1944 C 0.13869 0.51744 0.77079 0.0
H1945 H 0.14224 0.45184 0.75717 0.0
C1946 C 0.13688 0.52977 0.75497 0.0
C1947 C 0.14095 0.48895 0.77148 0.0
C1948 C 0.14417 0.47442 0.78784 0.0
C1949 C 0.13713 0.51455 0.73996 0.0
C1950 C 0.13878 0.48594 0.74069 0.0
C1951 C 0.14072 0.47365 0.75651 0.0
C1952 C 0.13932 0.46858 0.72521 0.0
C1953 C 0.13618 0.5295 0.72344 0.0
C1954 C 0.12675 0.46936 0.71316 0.0
C1955 C 0.12796 0.45446 0.69817 0.0
C1956 C 0.1416 0.43807 0.69506 0.0
C1957 C 0.15379 0.43623 0.70739 0.0
C1958 C 0.15267 0.4513 0.7223 0.0
H1959 H 0.13971 0.55113 0.72483 0.0
H1960 H 0.1442 0.52005 0.71385 0.0
H1961 H 0.12346 0.5289 0.71874 0.0
H1962 H 0.1161 0.48185 0.71522 0.0
H1963 H 0.11845 0.45628 0.68879 0.0
H1964 H 0.87266 0.5938 0.70885 0.0
H1965 H 0.87506 0.56829 0.73522 0.0
H1966 H 0.90407 0.50796 0.70989 0.0
H1967 H 0.90212 0.53401 0.6837 0.0
H1968 H 0.86401 0.51896 0.74204 0.0
H1969 H 0.93075 0.51817 0.75171 0.0
H1970 H 0.92102 0.54023 0.73667 0.0
H1971 H 0.92499 0.50534 0.73147 0.0
C1972 C 0.88004 0.57561 0.70909 0.0
C1973 C 0.88766 0.56634 0.69436 0.0
C1974 C 0.88124 0.56082 0.72412 0.0
C1975 C 0.89 0.53632 0.72475 0.0
C1976 C 0.89765 0.52712 0.70999 0.0
H1977 H 0.87223 0.41116 0.801 0.0
H1978 H 0.87446 0.43697 0.77473 0.0
C1979 C 0.89651 0.54198 0.69499 0.0
C1980 C 0.89019 0.51957 0.74049 0.0
H1981 H 0.9153 0.48734 0.76847 0.0
C1982 C 0.87525 0.51218 0.74783 0.0
C1983 C 0.90481 0.51083 0.74827 0.0
C1984 C 0.9213 0.51927 0.74174 0.0
C1985 C 0.87452 0.49616 0.76247 0.0
C1986 C 0.88912 0.48653 0.76988 0.0
C1987 C 0.90407 0.49427 0.76271 0.0
C1988 C 0.8891 0.46922 0.78537 0.0
C1989 C 0.85805 0.49028 0.77008 0.0
C1990 C 0.89725 0.47787 0.79997 0.0
C1991 C 0.89628 0.46277 0.81489 0.0
C1992 C 0.8873 0.43853 0.81552 0.0
C1993 C 0.87957 0.42941 0.8008 0.0
C1994 C 0.88061 0.44444 0.78585 0.0
H1995 H 0.84873 0.50512 0.76586 0.0
H1996 H 0.85398 0.46983 0.76607 0.0
H1997 H 0.85859 0.49067 0.78402 0.0
H1998 H 0.90391 0.49683 0.80001 0.0
H1999 H 0.90212 0.47048 0.82613 0.0
loop_
_geom_bond_atom_site_label_1
_geom_bond_atom_site_label_2
_geom_bond_distance
_geom_bond_site_symmetry_2
_ccdc_geom_bond_type
C0 C1 1.443 . S
C0 N4 1.376 . S
C0 C38 1.389 . S
C1 C0 1.443 . S
C1 C2 1.340 . S
C1 H41 0.951 . S
C2 C1 1.340 . S
C2 C3 1.439 . S
C2 H42 0.950 . S
C3 C2 1.439 . S
C3 N4 1.374 . S
C3 C37 1.395 . S
N4 C0 1.376 . S
N4 C3 1.374 . S
N4 Co5 2.008 . S
Co5 N4 2.008 . S
Co5 N6 1.995 . S
Co5 N11 2.008 . S
Co5 N16 1.995 . S
Co5 N21 2.282 . S
Co5 N27 2.282 . S
N6 Co5 1.995 . S
N6 C7 1.376 . S
N6 C10 1.383 . S
C7 N6 1.376 . S
C7 C8 1.446 . S
C7 C37 1.391 . S
C8 C7 1.446 . S
C8 C9 1.339 . S
C8 H43 0.949 . S
C9 C8 1.339 . S
C9 C10 1.439 . S
C9 H44 0.950 . S
C10 N6 1.383 . S
C10 C9 1.439 . S
C10 C39 1.392 . S
N11 Co5 2.008 . S
N11 C12 1.376 . S
N11 C15 1.374 . S
C12 N11 1.376 . S
C12 C13 1.443 . S
C12 C39 1.389 . S
C13 C12 1.443 . S
C13 C14 1.340 . S
C13 H45 0.951 . S
C14 C13 1.340 . S
C14 C15 1.439 . S
C14 H46 0.950 . S
C15 N11 1.374 . S
C15 C14 1.439 . S
C15 C40 1.395 . S
N16 Co5 1.995 . S
N16 C17 1.376 . S
N16 C20 1.383 . S
C17 N16 1.376 . S
C17 C18 1.446 . S
C17 C40 1.391 . S
C18 C17 1.446 . S
C18 C19 1.339 . S
C18 H47 0.949 . S
C19 C18 1.339 . S
C19 C20 1.439 . S
C19 H48 0.950 . S
C20 N16 1.383 . S
C20 C19 1.439 . S
C20 C38 1.392 . S
N21 Co5 2.282 . S
N21 C24 1.332 . S
N21 C26 1.332 . S
C22 C23 1.386 . S
C22 C25 1.388 . S
C23 C22 1.386 . S
C23 C24 1.382 . S
C23 H49 0.950 . S
C24 N21 1.332 . S
C24 C23 1.382 . S
C24 H35 0.952 . S
C25 C22 1.388 . S
C25 C26 1.382 . S
C25 H50 0.950 . S
C26 N21 1.332 . S
C26 C25 1.382 . S
C26 H36 0.948 . S
N27 Co5 2.282 . S
N27 C31 1.332 . S
N27 C32 1.332 . S
C28 C29 1.388 . S
C28 C32 1.382 . S
C28 H51 0.950 . S
C29 C28 1.388 . S
C29 C30 1.386 . S
C30 C29 1.386 . S
C30 C31 1.382 . S
C30 H52 0.950 . S
C31 N27 1.332 . S
C31 C30 1.382 . S
C31 H33 0.952 . S
C32 N27 1.332 . S
C32 C28 1.382 . S
C32 H34 0.948 . S
H33 C31 0.952 . S
H34 C32 0.948 . S
H35 C24 0.952 . S
H36 C26 0.948 . S
C37 C3 1.395 . S
C37 C7 1.391 . S
C38 C0 1.389 . S
C38 C20 1.392 . S
C39 C10 1.392 . S
C39 C12 1.389 . S
C40 C15 1.395 . S
C40 C17 1.391 . S
H41 C1 0.951 . S
H42 C2 0.950 . S
H43 C8 0.949 . S
H44 C9 0.950 . S
H45 C13 0.951 . S
H46 C14 0.950 . S
H47 C18 0.949 . S
H48 C19 0.950 . S
H49 C23 0.950 . S
H50 C25 0.950 . S
H51 C28 0.950 . S
H52 C30 0.950 . S
C53 C54 1.443 . S
C53 N57 1.376 . S
C53 C91 1.389 . S
C54 C53 1.443 . S
C54 C55 1.340 . S
C54 H94 0.951 . S
C55 C54 1.340 . S
C55 C56 1.439 . S
C55 H95 0.950 . S
C56 C55 1.439 . S
C56 N57 1.374 . S
C56 C90 1.395 . S
N57 C53 1.376 . S
N57 C56 1.374 . S
N57 Co58 2.008 . S
Co58 N57 2.008 . S
Co58 N59 1.995 . S
Co58 N64 2.008 . S
Co58 N69 1.995 . S
Co58 N74 2.282 . S
Co58 N80 2.282 . S
N59 Co58 1.995 . S
N59 C60 1.376 . S
N59 C63 1.383 . S
C60 N59 1.376 . S
C60 C61 1.446 . S
C60 C90 1.391 . S
C61 C60 1.446 . S
C61 C62 1.339 . S
C61 H96 0.949 . S
C62 C61 1.339 . S
C62 C63 1.439 . S
C62 H97 0.950 . S
C63 N59 1.383 . S
C63 C62 1.439 . S
C63 C92 1.392 . S
N64 Co58 2.008 . S
N64 C65 1.376 . S
N64 C68 1.374 . S
C65 N64 1.376 . S
C65 C66 1.443 . S
C65 C92 1.389 . S
C66 C65 1.443 . S
C66 C67 1.340 . S
C66 H98 0.951 . S
C67 C66 1.340 . S
C67 C68 1.439 . S
C67 H99 0.950 . S
C68 N64 1.374 . S
C68 C67 1.439 . S
C68 C93 1.395 . S
N69 Co58 1.995 . S
N69 C70 1.376 . S
N69 C73 1.383 . S
C70 N69 1.376 . S
C70 C71 1.446 . S
C70 C93 1.391 . S
C71 C70 1.446 . S
C71 C72 1.339 . S
C71 H100 0.949 . S
C72 C71 1.339 . S
C72 C73 1.439 . S
C72 H101 0.950 . S
C73 N69 1.383 . S
C73 C72 1.439 . S
C73 C91 1.392 . S
N74 Co58 2.282 . S
N74 C77 1.332 . S
N74 C79 1.332 . S
C75 C76 1.386 . S
C75 C78 1.388 . S
C76 C75 1.386 . S
C76 C77 1.382 . S
C76 H102 0.950 . S
C77 N74 1.332 . S
C77 C76 1.382 . S
C77 H88 0.952 . S
C78 C75 1.388 . S
C78 C79 1.382 . S
C78 H103 0.950 . S
C79 N74 1.332 . S
C79 C78 1.382 . S
C79 H89 0.948 . S
N80 Co58 2.282 . S
N80 C84 1.332 . S
N80 C85 1.332 . S
C81 C82 1.388 . S
C81 C85 1.382 . S
C81 H104 0.950 . S
C82 C81 1.388 . S
C82 C83 1.386 . S
C83 C82 1.386 . S
C83 C84 1.382 . S
C83 H105 0.950 . S
C84 N80 1.332 . S
C84 C83 1.382 . S
C84 H86 0.952 . S
C85 N80 1.332 . S
C85 C81 1.382 . S
C85 H87 0.948 . S
H86 C84 0.952 . S
H87 C85 0.948 . S
H88 C77 0.952 . S
H89 C79 0.948 . S
C90 C56 1.395 . S
C90 C60 1.391 . S
C91 C53 1.389 . S
C91 C73 1.392 . S
C92 C63 1.392 . S
C92 C65 1.389 . S
C93 C68 1.395 . S
C93 C70 1.391 . S
H94 C54 0.951 . S
H95 C55 0.950 . S
H96 C61 0.949 . S
H97 C62 0.950 . S
H98 C66 0.951 . S
H99 C67 0.950 . S
H100 C71 0.949 . S
H101 C72 0.950 . S
H102 C76 0.950 . S
H103 C78 0.950 . S
H104 C81 0.950 . S
H105 C83 0.950 . S
C106 C107 1.443 . S
C106 N110 1.376 . S
C106 C144 1.389 . S
C107 C106 1.443 . S
C107 C108 1.340 . S
C107 H147 0.951 . S
C108 C107 1.340 . S
C108 C109 1.439 . S
C108 H148 0.950 . S
C109 C108 1.439 . S
C109 N110 1.374 . S
C109 C143 1.395 . S
N110 C106 1.376 . S
N110 C109 1.374 . S
N110 Co111 2.008 . S
Co111 N110 2.008 . S
Co111 N112 1.995 . S
Co111 N117 2.008 . S
Co111 N122 1.995 . S
Co111 N127 2.282 . S
Co111 N133 2.282 . S
N112 Co111 1.995 . S
N112 C113 1.376 . S
N112 C116 1.383 . S
C113 N112 1.376 . S
C113 C114 1.446 . S
C113 C143 1.391 . S
C114 C113 1.446 . S
C114 C115 1.339 . S
C114 H149 0.949 . S
C115 C114 1.339 . S
C115 C116 1.439 . S
C115 H150 0.950 . S
C116 N112 1.383 . S
C116 C115 1.439 . S
C116 C145 1.392 . S
N117 Co111 2.008 . S
N117 C118 1.376 . S
N117 C121 1.374 . S
C118 N117 1.376 . S
C118 C119 1.443 . S
C118 C145 1.389 . S
C119 C118 1.443 . S
C119 C120 1.340 . S
C119 H151 0.951 . S
C120 C119 1.340 . S
C120 C121 1.439 . S
C120 H152 0.950 . S
C121 N117 1.374 . S
C121 C120 1.439 . S
C121 C146 1.395 . S
N122 Co111 1.995 . S
N122 C123 1.376 . S
N122 C126 1.383 . S
C123 N122 1.376 . S
C123 C124 1.446 . S
C123 C146 1.391 . S
C124 C123 1.446 . S
C124 C125 1.339 . S
C124 H153 0.949 . S
C125 C124 1.339 . S
C125 C126 1.439 . S
C125 H154 0.950 . S
C126 N122 1.383 . S
C126 C125 1.439 . S
C126 C144 1.392 . S
N127 Co111 2.282 . S
N127 C130 1.332 . S
N127 C132 1.332 . S
C128 C129 1.386 . S
C128 C131 1.388 . S
C129 C128 1.386 . S
C129 C130 1.382 . S
C129 H155 0.950 . S
C130 N127 1.332 . S
C130 C129 1.382 . S
C130 H141 0.952 . S
C131 C128 1.388 . S
C131 C132 1.382 . S
C131 H156 0.950 . S
C132 N127 1.332 . S
C132 C131 1.382 . S
C132 H142 0.948 . S
N133 Co111 2.282 . S
N133 C137 1.332 . S
N133 C138 1.332 . S
C134 C135 1.388 . S
C134 C138 1.382 . S
C134 H157 0.950 . S
C135 C134 1.388 . S
C135 C136 1.386 . S
C136 C135 1.386 . S
C136 C137 1.382 . S
C136 H158 0.950 . S
C137 N133 1.332 . S
C137 C136 1.382 . S
C137 H139 0.952 . S
C138 N133 1.332 . S
C138 C134 1.382 . S
C138 H140 0.948 . S
H139 C137 0.952 . S
H140 C138 0.948 . S
H141 C130 0.952 . S
H142 C132 0.948 . S
C143 C109 1.395 . S
C143 C113 1.391 . S
C144 C106 1.389 . S
C144 C126 1.392 . S
C145 C116 1.392 . S
C145 C118 1.389 . S
C146 C121 1.395 . S
C146 C123 1.391 . S
H147 C107 0.951 . S
H148 C108 0.950 . S
H149 C114 0.949 . S
H150 C115 0.950 . S
H151 C119 0.951 . S
H152 C120 0.950 . S
H153 C124 0.949 . S
H154 C125 0.950 . S
H155 C129 0.950 . S
H156 C131 0.950 . S
H157 C134 0.950 . S
H158 C136 0.950 . S
C159 C160 1.443 . S
C159 N163 1.376 . S
C159 C197 1.389 . S
C160 C159 1.443 . S
C160 C161 1.340 . S
C160 H200 0.951 . S
C161 C160 1.340 . S
C161 C162 1.439 . S
C161 H201 0.950 . S
C162 C161 1.439 . S
C162 N163 1.374 . S
C162 C196 1.395 . S
N163 C159 1.376 . S
N163 C162 1.374 . S
N163 Co164 2.008 . S
Co164 N163 2.008 . S
Co164 N165 1.995 . S
Co164 N170 2.008 . S
Co164 N175 1.995 . S
Co164 N180 2.282 . S
Co164 N186 2.282 . S
N165 Co164 1.995 . S
N165 C166 1.376 . S
N165 C169 1.383 . S
C166 N165 1.376 . S
C166 C167 1.446 . S
C166 C196 1.391 . S
C167 C166 1.446 . S
C167 C168 1.339 . S
C167 H202 0.949 . S
C168 C167 1.339 . S
C168 C169 1.439 . S
C168 H203 0.950 . S
C169 N165 1.383 . S
C169 C168 1.439 . S
C169 C198 1.392 . S
N170 Co164 2.008 . S
N170 C171 1.376 . S
N170 C174 1.374 . S
C171 N170 1.376 . S
C171 C172 1.443 . S
C171 C198 1.389 . S
C172 C171 1.443 . S
C172 C173 1.340 . S
C172 H204 0.951 . S
C173 C172 1.340 . S
C173 C174 1.439 . S
C173 H205 0.950 . S
C174 N170 1.374 . S
C174 C173 1.439 . S
C174 C199 1.395 . S
N175 Co164 1.995 . S
N175 C176 1.376 . S
N175 C179 1.383 . S
C176 N175 1.376 . S
C176 C177 1.446 . S
C176 C199 1.391 . S
C177 C176 1.446 . S
C177 C178 1.339 . S
C177 H206 0.949 . S
C178 C177 1.339 . S
C178 C179 1.439 . S
C178 H207 0.950 . S
C179 N175 1.383 . S
C179 C178 1.439 . S
C179 C197 1.392 . S
N180 Co164 2.282 . S
N180 C183 1.332 . S
N180 C185 1.332 . S
C181 C182 1.386 . S
C181 C184 1.388 . S
C182 C181 1.386 . S
C182 C183 1.382 . S
C182 H208 0.950 . S
C183 N180 1.332 . S
C183 C182 1.382 . S
C183 H194 0.952 . S
C184 C181 1.388 . S
C184 C185 1.382 . S
C184 H209 0.950 . S
C185 N180 1.332 . S
C185 C184 1.382 . S
C185 H195 0.948 . S
N186 Co164 2.282 . S
N186 C190 1.332 . S
N186 C191 1.332 . S
C187 C188 1.388 . S
C187 C191 1.382 . S
C187 H210 0.950 . S
C188 C187 1.388 . S
C188 C189 1.386 . S
C189 C188 1.386 . S
C189 C190 1.382 . S
C189 H211 0.950 . S
C190 N186 1.332 . S
C190 C189 1.382 . S
C190 H192 0.952 . S
C191 N186 1.332 . S
C191 C187 1.382 . S
C191 H193 0.948 . S
H192 C190 0.952 . S
H193 C191 0.948 . S
H194 C183 0.952 . S
H195 C185 0.948 . S
C196 C162 1.395 . S
C196 C166 1.391 . S
C197 C159 1.389 . S
C197 C179 1.392 . S
C198 C169 1.392 . S
C198 C171 1.389 . S
C199 C174 1.395 . S
C199 C176 1.391 . S
H200 C160 0.951 . S
H201 C161 0.950 . S
H202 C167 0.949 . S
H203 C168 0.950 . S
H204 C172 0.951 . S
H205 C173 0.950 . S
H206 C177 0.949 . S
H207 C178 0.950 . S
H208 C182 0.950 . S
H209 C184 0.950 . S
H210 C187 0.950 . S
H211 C189 0.950 . S
C212 C213 1.443 . S
C212 N216 1.376 . S
C212 C250 1.389 . S
C213 C212 1.443 . S
C213 C214 1.340 . S
C213 H253 0.951 . S
C214 C213 1.340 . S
C214 C215 1.439 . S
C214 H254 0.950 . S
C215 C214 1.439 . S
C215 N216 1.374 . S
C215 C249 1.395 . S
N216 C212 1.376 . S
N216 C215 1.374 . S
N216 Co217 2.008 . S
Co217 N216 2.008 . S
Co217 N218 1.995 . S
Co217 N223 2.008 . S
Co217 N228 1.995 . S
Co217 N233 2.282 . S
Co217 N239 2.282 . S
N218 Co217 1.995 . S
N218 C219 1.376 . S
N218 C222 1.383 . S
C219 N218 1.376 . S
C219 C220 1.446 . S
C219 C249 1.391 . S
C220 C219 1.446 . S
C220 C221 1.339 . S
C220 H255 0.949 . S
C221 C220 1.339 . S
C221 C222 1.439 . S
C221 H256 0.950 . S
C222 N218 1.383 . S
C222 C221 1.439 . S
C222 C251 1.392 . S
N223 Co217 2.008 . S
N223 C224 1.376 . S
N223 C227 1.374 . S
C224 N223 1.376 . S
C224 C225 1.443 . S
C224 C251 1.389 . S
C225 C224 1.443 . S
C225 C226 1.340 . S
C225 H257 0.951 . S
C226 C225 1.340 . S
C226 C227 1.439 . S
C226 H258 0.950 . S
C227 N223 1.374 . S
C227 C226 1.439 . S
C227 C252 1.395 . S
N228 Co217 1.995 . S
N228 C229 1.376 . S
N228 C232 1.383 . S
C229 N228 1.376 . S
C229 C230 1.446 . S
C229 C252 1.391 . S
C230 C229 1.446 . S
C230 C231 1.339 . S
C230 H259 0.949 . S
C231 C230 1.339 . S
C231 C232 1.439 . S
C231 H260 0.950 . S
C232 N228 1.383 . S
C232 C231 1.439 . S
C232 C250 1.392 . S
N233 Co217 2.282 . S
N233 C236 1.332 . S
N233 C238 1.332 . S
C234 C235 1.386 . S
C234 C237 1.388 . S
C235 C234 1.386 . S
C235 C236 1.382 . S
C235 H261 0.950 . S
C236 N233 1.332 . S
C236 C235 1.382 . S
C236 H247 0.952 . S
C237 C234 1.388 . S
C237 C238 1.382 . S
C237 H262 0.950 . S
C238 N233 1.332 . S
C238 C237 1.382 . S
C238 H248 0.948 . S
N239 Co217 2.282 . S
N239 C243 1.332 . S
N239 C244 1.332 . S
C240 C241 1.388 . S
C240 C244 1.382 . S
C240 H263 0.950 . S
C241 C240 1.388 . S
C241 C242 1.386 . S
C242 C241 1.386 . S
C242 C243 1.382 . S
C242 H264 0.950 . S
C243 N239 1.332 . S
C243 C242 1.382 . S
C243 H245 0.952 . S
C244 N239 1.332 . S
C244 C240 1.382 . S
C244 H246 0.948 . S
H245 C243 0.952 . S
H246 C244 0.948 . S
H247 C236 0.952 . S
H248 C238 0.948 . S
C249 C215 1.395 . S
C249 C219 1.391 . S
C250 C212 1.389 . S
C250 C232 1.392 . S
C251 C222 1.392 . S
C251 C224 1.389 . S
C252 C227 1.395 . S
C252 C229 1.391 . S
H253 C213 0.951 . S
H254 C214 0.950 . S
H255 C220 0.949 . S
H256 C221 0.950 . S
H257 C225 0.951 . S
H258 C226 0.950 . S
H259 C230 0.949 . S
H260 C231 0.950 . S
H261 C235 0.950 . S
H262 C237 0.950 . S
H263 C240 0.950 . S
H264 C242 0.950 . S
C265 C266 1.443 . S
C265 N269 1.376 . S
C265 C303 1.389 . S
C266 C265 1.443 . S
C266 C267 1.340 . S
C266 H306 0.951 . S
C267 C266 1.340 . S
C267 C268 1.439 . S
C267 H307 0.950 . S
C268 C267 1.439 . S
C268 N269 1.374 . S
C268 C302 1.395 . S
N269 C265 1.376 . S
N269 C268 1.374 . S
N269 Co270 2.008 . S
Co270 N269 2.008 . S
Co270 N271 1.995 . S
Co270 N276 2.008 . S
Co270 N281 1.995 . S
Co270 N286 2.282 . S
Co270 N292 2.282 . S
N271 Co270 1.995 . S
N271 C272 1.376 . S
N271 C275 1.383 . S
C272 N271 1.376 . S
C272 C273 1.446 . S
C272 C302 1.391 . S
C273 C272 1.446 . S
C273 C274 1.339 . S
C273 H308 0.949 . S
C274 C273 1.339 . S
C274 C275 1.439 . S
C274 H309 0.950 . S
C275 N271 1.383 . S
C275 C274 1.439 . S
C275 C304 1.392 . S
N276 Co270 2.008 . S
N276 C277 1.376 . S
N276 C280 1.374 . S
C277 N276 1.376 . S
C277 C278 1.443 . S
C277 C304 1.389 . S
C278 C277 1.443 . S
C278 C279 1.340 . S
C278 H310 0.951 . S
C279 C278 1.340 . S
C279 C280 1.439 . S
C279 H311 0.950 . S
C280 N276 1.374 . S
C280 C279 1.439 . S
C280 C305 1.395 . S
N281 Co270 1.995 . S
N281 C282 1.376 . S
N281 C285 1.383 . S
C282 N281 1.376 . S
C282 C283 1.446 . S
C282 C305 1.391 . S
C283 C282 1.446 . S
C283 C284 1.339 . S
C283 H312 0.949 . S
C284 C283 1.339 . S
C284 C285 1.439 . S
C284 H313 0.950 . S
C285 N281 1.383 . S
C285 C284 1.439 . S
C285 C303 1.392 . S
N286 Co270 2.282 . S
N286 C289 1.332 . S
N286 C291 1.332 . S
C287 C288 1.386 . S
C287 C290 1.388 . S
C288 C287 1.386 . S
C288 C289 1.382 . S
C288 H314 0.950 . S
C289 N286 1.332 . S
C289 C288 1.382 . S
C289 H300 0.952 . S
C290 C287 1.388 . S
C290 C291 1.382 . S
C290 H315 0.950 . S
C291 N286 1.332 . S
C291 C290 1.382 . S
C291 H301 0.948 . S
N292 Co270 2.282 . S
N292 C296 1.332 . S
N292 C297 1.332 . S
C293 C294 1.388 . S
C293 C297 1.382 . S
C293 H316 0.950 . S
C294 C293 1.388 . S
C294 C295 1.386 . S
C295 C294 1.386 . S
C295 C296 1.382 . S
C295 H317 0.950 . S
C296 N292 1.332 . S
C296 C295 1.382 . S
C296 H298 0.952 . S
C297 N292 1.332 . S
C297 C293 1.382 . S
C297 H299 0.948 . S
H298 C296 0.952 . S
H299 C297 0.948 . S
H300 C289 0.952 . S
H301 C291 0.948 . S
C302 C268 1.395 . S
C302 C272 1.391 . S
C303 C265 1.389 . S
C303 C285 1.392 . S
C304 C275 1.392 . S
C304 C277 1.389 . S
C305 C280 1.395 . S
C305 C282 1.391 . S
H306 C266 0.951 . S
H307 C267 0.950 . S
H308 C273 0.949 . S
H309 C274 0.950 . S
H310 C278 0.951 . S
H311 C279 0.950 . S
H312 C283 0.949 . S
H313 C284 0.950 . S
H314 C288 0.950 . S
H315 C290 0.950 . S
H316 C293 0.950 . S
H317 C295 0.950 . S
C318 C319 1.443 . S
C318 N322 1.376 . S
C318 C356 1.389 . S
C319 C318 1.443 . S
C319 C320 1.340 . S
C319 H359 0.951 . S
C320 C319 1.340 . S
C320 C321 1.439 . S
C320 H360 0.950 . S
C321 C320 1.439 . S
C321 N322 1.374 . S
C321 C355 1.395 . S
N322 C318 1.376 . S
N322 C321 1.374 . S
N322 Co323 2.008 . S
Co323 N322 2.008 . S
Co323 N324 1.995 . S
Co323 N329 2.008 . S
Co323 N334 1.995 . S
Co323 N339 2.282 . S
Co323 N345 2.282 . S
N324 Co323 1.995 . S
N324 C325 1.376 . S
N324 C328 1.383 . S
C325 N324 1.376 . S
C325 C326 1.446 . S
C325 C355 1.391 . S
C326 C325 1.446 . S
C326 C327 1.339 . S
C326 H361 0.949 . S
C327 C326 1.339 . S
C327 C328 1.439 . S
C327 H362 0.950 . S
C328 N324 1.383 . S
C328 C327 1.439 . S
C328 C357 1.392 . S
N329 Co323 2.008 . S
N329 C330 1.376 . S
N329 C333 1.374 . S
C330 N329 1.376 . S
C330 C331 1.443 . S
C330 C357 1.389 . S
C331 C330 1.443 . S
C331 C332 1.340 . S
C331 H363 0.951 . S
C332 C331 1.340 . S
C332 C333 1.439 . S
C332 H364 0.950 . S
C333 N329 1.374 . S
C333 C332 1.439 . S
C333 C358 1.395 . S
N334 Co323 1.995 . S
N334 C335 1.376 . S
N334 C338 1.383 . S
C335 N334 1.376 . S
C335 C336 1.446 . S
C335 C358 1.391 . S
C336 C335 1.446 . S
C336 C337 1.339 . S
C336 H365 0.949 . S
C337 C336 1.339 . S
C337 C338 1.439 . S
C337 H366 0.950 . S
C338 N334 1.383 . S
C338 C337 1.439 . S
C338 C356 1.392 . S
N339 Co323 2.282 . S
N339 C342 1.332 . S
N339 C344 1.332 . S
C340 C341 1.386 . S
C340 C343 1.388 . S
C341 C340 1.386 . S
C341 C342 1.382 . S
C341 H367 0.950 . S
C342 N339 1.332 . S
C342 C341 1.382 . S
C342 H353 0.952 . S
C343 C340 1.388 . S
C343 C344 1.382 . S
C343 H368 0.950 . S
C344 N339 1.332 . S
C344 C343 1.382 . S
C344 H354 0.948 . S
N345 Co323 2.282 . S
N345 C349 1.332 . S
N345 C350 1.332 . S
C346 C347 1.388 . S
C346 C350 1.382 . S
C346 H369 0.950 . S
C347 C346 1.388 . S
C347 C348 1.386 . S
C348 C347 1.386 . S
C348 C349 1.382 . S
C348 H370 0.950 . S
C349 N345 1.332 . S
C349 C348 1.382 . S
C349 H351 0.952 . S
C350 N345 1.332 . S
C350 C346 1.382 . S
C350 H352 0.948 . S
H351 C349 0.952 . S
H352 C350 0.948 . S
H353 C342 0.952 . S
H354 C344 0.948 . S
C355 C321 1.395 . S
C355 C325 1.391 . S
C356 C318 1.389 . S
C356 C338 1.392 . S
C357 C328 1.392 . S
C357 C330 1.389 . S
C358 C333 1.395 . S
C358 C335 1.391 . S
H359 C319 0.951 . S
H360 C320 0.950 . S
H361 C326 0.949 . S
H362 C327 0.950 . S
H363 C331 0.951 . S
H364 C332 0.950 . S
H365 C336 0.949 . S
H366 C337 0.950 . S
H367 C341 0.950 . S
H368 C343 0.950 . S
H369 C346 0.950 . S
H370 C348 0.950 . S
C371 C372 1.443 . S
C371 N375 1.376 . S
C371 C409 1.389 . S
C372 C371 1.443 . S
C372 C373 1.340 . S
C372 H412 0.951 . S
C373 C372 1.340 . S
C373 C374 1.439 . S
C373 H413 0.950 . S
C374 C373 1.439 . S
C374 N375 1.374 . S
C374 C408 1.395 . S
N375 C371 1.376 . S
N375 C374 1.374 . S
N375 Co376 2.008 . S
Co376 N375 2.008 . S
Co376 N377 1.995 . S
Co376 N382 2.008 . S
Co376 N387 1.995 . S
Co376 N392 2.282 . S
Co376 N398 2.282 . S
N377 Co376 1.995 . S
N377 C378 1.376 . S
N377 C381 1.383 . S
C378 N377 1.376 . S
C378 C379 1.446 . S
C378 C408 1.391 . S
C379 C378 1.446 . S
C379 C380 1.339 . S
C379 H414 0.949 . S
C380 C379 1.339 . S
C380 C381 1.439 . S
C380 H415 0.950 . S
C381 N377 1.383 . S
C381 C380 1.439 . S
C381 C410 1.392 . S
N382 Co376 2.008 . S
N382 C383 1.376 . S
N382 C386 1.374 . S
C383 N382 1.376 . S
C383 C384 1.443 . S
C383 C410 1.389 . S
C384 C383 1.443 . S
C384 C385 1.340 . S
C384 H416 0.951 . S
C385 C384 1.340 . S
C385 C386 1.439 . S
C385 H417 0.950 . S
C386 N382 1.374 . S
C386 C385 1.439 . S
C386 C411 1.395 . S
N387 Co376 1.995 . S
N387 C388 1.376 . S
N387 C391 1.383 . S
C388 N387 1.376 . S
C388 C389 1.446 . S
C388 C411 1.391 . S
C389 C388 1.446 . S
C389 C390 1.339 . S
C389 H418 0.949 . S
C390 C389 1.339 . S
C390 C391 1.439 . S
C390 H419 0.950 . S
C391 N387 1.383 . S
C391 C390 1.439 . S
C391 C409 1.392 . S
N392 Co376 2.282 . S
N392 C395 1.332 . S
N392 C397 1.332 . S
C393 C394 1.386 . S
C393 C396 1.388 . S
C394 C393 1.386 . S
C394 C395 1.382 . S
C394 H420 0.950 . S
C395 N392 1.332 . S
C395 C394 1.382 . S
C395 H406 0.952 . S
C396 C393 1.388 . S
C396 C397 1.382 . S
C396 H421 0.950 . S
C397 N392 1.332 . S
C397 C396 1.382 . S
C397 H407 0.948 . S
N398 Co376 2.282 . S
N398 C402 1.332 . S
N398 C403 1.332 . S
C399 C400 1.388 . S
C399 C403 1.382 . S
C399 H422 0.950 . S
C400 C399 1.388 . S
C400 C401 1.386 . S
C401 C400 1.386 . S
C401 C402 1.382 . S
C401 H423 0.950 . S
C402 N398 1.332 . S
C402 C401 1.382 . S
C402 H404 0.952 . S
C403 N398 1.332 . S
C403 C399 1.382 . S
C403 H405 0.948 . S
H404 C402 0.952 . S
H405 C403 0.948 . S
H406 C395 0.952 . S
H407 C397 0.948 . S
C408 C374 1.395 . S
C408 C378 1.391 . S
C409 C371 1.389 . S
C409 C391 1.392 . S
C410 C381 1.392 . S
C410 C383 1.389 . S
C411 C386 1.395 . S
C411 C388 1.391 . S
H412 C372 0.951 . S
H413 C373 0.950 . S
H414 C379 0.949 . S
H415 C380 0.950 . S
H416 C384 0.951 . S
H417 C385 0.950 . S
H418 C389 0.949 . S
H419 C390 0.950 . S
H420 C394 0.950 . S
H421 C396 0.950 . S
H422 C399 0.950 . S
H423 C401 0.950 . S
C424 C425 1.443 . S
C424 N428 1.376 . S
C424 C462 1.389 . S
C425 C424 1.443 . S
C425 C426 1.340 . S
C425 H465 0.951 . S
C426 C425 1.340 . S
C426 C427 1.439 . S
C426 H466 0.950 . S
C427 C426 1.439 . S
C427 N428 1.374 . S
C427 C461 1.395 . S
N428 C424 1.376 . S
N428 C427 1.374 . S
N428 Co429 2.008 . S
Co429 N428 2.008 . S
Co429 N430 1.995 . S
Co429 N435 2.008 . S
Co429 N440 1.995 . S
Co429 N445 2.282 . S
Co429 N451 2.282 . S
N430 Co429 1.995 . S
N430 C431 1.376 . S
N430 C434 1.383 . S
C431 N430 1.376 . S
C431 C432 1.446 . S
C431 C461 1.391 . S
C432 C431 1.446 . S
C432 C433 1.339 . S
C432 H467 0.949 . S
C433 C432 1.339 . S
C433 C434 1.439 . S
C433 H468 0.950 . S
C434 N430 1.383 . S
C434 C433 1.439 . S
C434 C463 1.392 . S
N435 Co429 2.008 . S
N435 C436 1.376 . S
N435 C439 1.374 . S
C436 N435 1.376 . S
C436 C437 1.443 . S
C436 C463 1.389 . S
C437 C436 1.443 . S
C437 C438 1.340 . S
C437 H469 0.951 . S
C438 C437 1.340 . S
C438 C439 1.439 . S
C438 H470 0.950 . S
C439 N435 1.374 . S
C439 C438 1.439 . S
C439 C464 1.395 . S
N440 Co429 1.995 . S
N440 C441 1.376 . S
N440 C444 1.383 . S
C441 N440 1.376 . S
C441 C442 1.446 . S
C441 C464 1.391 . S
C442 C441 1.446 . S
C442 C443 1.339 . S
C442 H471 0.949 . S
C443 C442 1.339 . S
C443 C444 1.439 . S
C443 H472 0.950 . S
C444 N440 1.383 . S
C444 C443 1.439 . S
C444 C462 1.392 . S
N445 Co429 2.282 . S
N445 C448 1.332 . S
N445 C450 1.332 . S
C446 C447 1.386 . S
C446 C449 1.388 . S
C447 C446 1.386 . S
C447 C448 1.382 . S
C447 H473 0.950 . S
C448 N445 1.332 . S
C448 C447 1.382 . S
C448 H459 0.952 . S
C449 C446 1.388 . S
C449 C450 1.382 . S
C449 H474 0.950 . S
C450 N445 1.332 . S
C450 C449 1.382 . S
C450 H460 0.948 . S
N451 Co429 2.282 . S
N451 C455 1.332 . S
N451 C456 1.332 . S
C452 C453 1.388 . S
C452 C456 1.382 . S
C452 H475 0.950 . S
C453 C452 1.388 . S
C453 C454 1.386 . S
C454 C453 1.386 . S
C454 C455 1.382 . S
C454 H476 0.950 . S
C455 N451 1.332 . S
C455 C454 1.382 . S
C455 H457 0.952 . S
C456 N451 1.332 . S
C456 C452 1.382 . S
C456 H458 0.948 . S
H457 C455 0.952 . S
H458 C456 0.948 . S
H459 C448 0.952 . S
H460 C450 0.948 . S
C461 C427 1.395 . S
C461 C431 1.391 . S
C462 C424 1.389 . S
C462 C444 1.392 . S
C463 C434 1.392 . S
C463 C436 1.389 . S
C464 C439 1.395 . S
C464 C441 1.391 . S
H465 C425 0.951 . S
H466 C426 0.950 . S
H467 C432 0.949 . S
H468 C433 0.950 . S
H469 C437 0.951 . S
H470 C438 0.950 . S
H471 C442 0.949 . S
H472 C443 0.950 . S
H473 C447 0.950 . S
H474 C449 0.950 . S
H475 C452 0.950 . S
H476 C454 0.950 . S
C477 C478 1.443 . S
C477 N481 1.376 . S
C477 C515 1.389 . S
C478 C477 1.443 . S
C478 C479 1.340 . S
C478 H518 0.951 . S
C479 C478 1.340 . S
C479 C480 1.439 . S
C479 H519 0.950 . S
C480 C479 1.439 . S
C480 N481 1.374 . S
C480 C514 1.395 . S
N481 C477 1.376 . S
N481 C480 1.374 . S
N481 Co482 2.008 . S
Co482 N481 2.008 . S
Co482 N483 1.995 . S
Co482 N488 2.008 . S
Co482 N493 1.995 . S
Co482 N498 2.282 . S
Co482 N504 2.282 . S
N483 Co482 1.995 . S
N483 C484 1.376 . S
N483 C487 1.383 . S
C484 N483 1.376 . S
C484 C485 1.446 . S
C484 C514 1.391 . S
C485 C484 1.446 . S
C485 C486 1.339 . S
C485 H520 0.949 . S
C486 C485 1.339 . S
C486 C487 1.439 . S
C486 H521 0.950 . S
C487 N483 1.383 . S
C487 C486 1.439 . S
C487 C516 1.392 . S
N488 Co482 2.008 . S
N488 C489 1.376 . S
N488 C492 1.374 . S
C489 N488 1.376 . S
C489 C490 1.443 . S
C489 C516 1.389 . S
C490 C489 1.443 . S
C490 C491 1.340 . S
C490 H522 0.951 . S
C491 C490 1.340 . S
C491 C492 1.439 . S
C491 H523 0.950 . S
C492 N488 1.374 . S
C492 C491 1.439 . S
C492 C517 1.395 . S
N493 Co482 1.995 . S
N493 C494 1.376 . S
N493 C497 1.383 . S
C494 N493 1.376 . S
C494 C495 1.446 . S
C494 C517 1.391 . S
C495 C494 1.446 . S
C495 C496 1.339 . S
C495 H524 0.949 . S
C496 C495 1.339 . S
C496 C497 1.439 . S
C496 H525 0.950 . S
C497 N493 1.383 . S
C497 C496 1.439 . S
C497 C515 1.392 . S
N498 Co482 2.282 . S
N498 C501 1.332 . S
N498 C503 1.332 . S
C499 C500 1.386 . S
C499 C502 1.388 . S
C500 C499 1.386 . S
C500 C501 1.382 . S
C500 H526 0.950 . S
C501 N498 1.332 . S
C501 C500 1.382 . S
C501 H512 0.952 . S
C502 C499 1.388 . S
C502 C503 1.382 . S
C502 H527 0.950 . S
C503 N498 1.332 . S
C503 C502 1.382 . S
C503 H513 0.948 . S
N504 Co482 2.282 . S
N504 C508 1.332 . S
N504 C509 1.332 . S
C505 C506 1.388 . S
C505 C509 1.382 . S
C505 H528 0.950 . S
C506 C505 1.388 . S
C506 C507 1.386 . S
C507 C506 1.386 . S
C507 C508 1.382 . S
C507 H529 0.950 . S
C508 N504 1.332 . S
C508 C507 1.382 . S
C508 H510 0.952 . S
C509 N504 1.332 . S
C509 C505 1.382 . S
C509 H511 0.948 . S
H510 C508 0.952 . S
H511 C509 0.948 . S
H512 C501 0.952 . S
H513 C503 0.948 . S
C514 C480 1.395 . S
C514 C484 1.391 . S
C515 C477 1.389 . S
C515 C497 1.392 . S
C516 C487 1.392 . S
C516 C489 1.389 . S
C517 C492 1.395 . S
C517 C494 1.391 . S
H518 C478 0.951 . S
H519 C479 0.950 . S
H520 C485 0.949 . S
H521 C486 0.950 . S
H522 C490 0.951 . S
H523 C491 0.950 . S
H524 C495 0.949 . S
H525 C496 0.950 . S
H526 C500 0.950 . S
H527 C502 0.950 . S
H528 C505 0.950 . S
H529 C507 0.950 . S
C530 C531 1.443 . S
C530 N534 1.376 . S
C530 C568 1.389 . S
C531 C530 1.443 . S
C531 C532 1.340 . S
C531 H571 0.951 . S
C532 C531 1.340 . S
C532 C533 1.439 . S
C532 H572 0.950 . S
C533 C532 1.439 . S
C533 N534 1.374 . S
C533 C567 1.395 . S
N534 C530 1.376 . S
N534 C533 1.374 . S
N534 Co535 2.008 . S
Co535 N534 2.008 . S
Co535 N536 1.995 . S
Co535 N541 2.008 . S
Co535 N546 1.995 . S
Co535 N551 2.282 . S
Co535 N557 2.282 . S
N536 Co535 1.995 . S
N536 C537 1.376 . S
N536 C540 1.383 . S
C537 N536 1.376 . S
C537 C538 1.446 . S
C537 C567 1.391 . S
C538 C537 1.446 . S
C538 C539 1.339 . S
C538 H573 0.949 . S
C539 C538 1.339 . S
C539 C540 1.439 . S
C539 H574 0.950 . S
C540 N536 1.383 . S
C540 C539 1.439 . S
C540 C569 1.392 . S
N541 Co535 2.008 . S
N541 C542 1.376 . S
N541 C545 1.374 . S
C542 N541 1.376 . S
C542 C543 1.443 . S
C542 C569 1.389 . S
C543 C542 1.443 . S
C543 C544 1.340 . S
C543 H575 0.951 . S
C544 C543 1.340 . S
C544 C545 1.439 . S
C544 H576 0.950 . S
C545 N541 1.374 . S
C545 C544 1.439 . S
C545 C570 1.395 . S
N546 Co535 1.995 . S
N546 C547 1.376 . S
N546 C550 1.383 . S
C547 N546 1.376 . S
C547 C548 1.446 . S
C547 C570 1.391 . S
C548 C547 1.446 . S
C548 C549 1.339 . S
C548 H577 0.949 . S
C549 C548 1.339 . S
C549 C550 1.439 . S
C549 H578 0.950 . S
C550 N546 1.383 . S
C550 C549 1.439 . S
C550 C568 1.392 . S
N551 Co535 2.282 . S
N551 C554 1.332 . S
N551 C556 1.332 . S
C552 C553 1.386 . S
C552 C555 1.388 . S
C553 C552 1.386 . S
C553 C554 1.382 . S
C553 H579 0.950 . S
C554 N551 1.332 . S
C554 C553 1.382 . S
C554 H565 0.952 . S
C555 C552 1.388 . S
C555 C556 1.382 . S
C555 H580 0.950 . S
C556 N551 1.332 . S
C556 C555 1.382 . S
C556 H566 0.948 . S
N557 Co535 2.282 . S
N557 C561 1.332 . S
N557 C562 1.332 . S
C558 C559 1.388 . S
C558 C562 1.382 . S
C558 H581 0.950 . S
C559 C558 1.388 . S
C559 C560 1.386 . S
C560 C559 1.386 . S
C560 C561 1.382 . S
C560 H582 0.950 . S
C561 N557 1.332 . S
C561 C560 1.382 . S
C561 H563 0.952 . S
C562 N557 1.332 . S
C562 C558 1.382 . S
C562 H564 0.948 . S
H563 C561 0.952 . S
H564 C562 0.948 . S
H565 C554 0.952 . S
H566 C556 0.948 . S
C567 C533 1.395 . S
C567 C537 1.391 . S
C568 C530 1.389 . S
C568 C550 1.392 . S
C569 C540 1.392 . S
C569 C542 1.389 . S
C570 C545 1.395 . S
C570 C547 1.391 . S
H571 C531 0.951 . S
H572 C532 0.950 . S
H573 C538 0.949 . S
H574 C539 0.950 . S
H575 C543 0.951 . S
H576 C544 0.950 . S
H577 C548 0.949 . S
H578 C549 0.950 . S
H579 C553 0.950 . S
H580 C555 0.950 . S
H581 C558 0.950 . S
H582 C560 0.950 . S
C583 C584 1.443 . S
C583 N587 1.376 . S
C583 C621 1.389 . S
C584 C583 1.443 . S
C584 C585 1.340 . S
C584 H624 0.951 . S
C585 C584 1.340 . S
C585 C586 1.439 . S
C585 H625 0.950 . S
C586 C585 1.439 . S
C586 N587 1.374 . S
C586 C620 1.395 . S
N587 C583 1.376 . S
N587 C586 1.374 . S
N587 Co588 2.008 . S
Co588 N587 2.008 . S
Co588 N589 1.995 . S
Co588 N594 2.008 . S
Co588 N599 1.995 . S
Co588 N604 2.282 . S
Co588 N610 2.282 . S
N589 Co588 1.995 . S
N589 C590 1.376 . S
N589 C593 1.383 . S
C590 N589 1.376 . S
C590 C591 1.446 . S
C590 C620 1.391 . S
C591 C590 1.446 . S
C591 C592 1.339 . S
C591 H626 0.949 . S
C592 C591 1.339 . S
C592 C593 1.439 . S
C592 H627 0.950 . S
C593 N589 1.383 . S
C593 C592 1.439 . S
C593 C622 1.392 . S
N594 Co588 2.008 . S
N594 C595 1.376 . S
N594 C598 1.374 . S
C595 N594 1.376 . S
C595 C596 1.443 . S
C595 C622 1.389 . S
C596 C595 1.443 . S
C596 C597 1.340 . S
C596 H628 0.951 . S
C597 C596 1.340 . S
C597 C598 1.439 . S
C597 H629 0.950 . S
C598 N594 1.374 . S
C598 C597 1.439 . S
C598 C623 1.395 . S
N599 Co588 1.995 . S
N599 C600 1.376 . S
N599 C603 1.383 . S
C600 N599 1.376 . S
C600 C601 1.446 . S
C600 C623 1.391 . S
C601 C600 1.446 . S
C601 C602 1.339 . S
C601 H630 0.949 . S
C602 C601 1.339 . S
C602 C603 1.439 . S
C602 H631 0.950 . S
C603 N599 1.383 . S
C603 C602 1.439 . S
C603 C621 1.392 . S
N604 Co588 2.282 . S
N604 C607 1.332 . S
N604 C609 1.332 . S
C605 C606 1.386 . S
C605 C608 1.388 . S
C606 C605 1.386 . S
C606 C607 1.382 . S
C606 H632 0.950 . S
C607 N604 1.332 . S
C607 C606 1.382 . S
C607 H618 0.952 . S
C608 C605 1.388 . S
C608 C609 1.382 . S
C608 H633 0.950 . S
C609 N604 1.332 . S
C609 C608 1.382 . S
C609 H619 0.948 . S
N610 Co588 2.282 . S
N610 C614 1.332 . S
N610 C615 1.332 . S
C611 C612 1.388 . S
C611 C615 1.382 . S
C611 H634 0.950 . S
C612 C611 1.388 . S
C612 C613 1.386 . S
C613 C612 1.386 . S
C613 C614 1.382 . S
C613 H635 0.950 . S
C614 N610 1.332 . S
C614 C613 1.382 . S
C614 H616 0.952 . S
C615 N610 1.332 . S
C615 C611 1.382 . S
C615 H617 0.948 . S
H616 C614 0.952 . S
H617 C615 0.948 . S
H618 C607 0.952 . S
H619 C609 0.948 . S
C620 C586 1.395 . S
C620 C590 1.391 . S
C621 C583 1.389 . S
C621 C603 1.392 . S
C622 C593 1.392 . S
C622 C595 1.389 . S
C623 C598 1.395 . S
C623 C600 1.391 . S
H624 C584 0.951 . S
H625 C585 0.950 . S
H626 C591 0.949 . S
H627 C592 0.950 . S
H628 C596 0.951 . S
H629 C597 0.950 . S
H630 C601 0.949 . S
H631 C602 0.950 . S
H632 C606 0.950 . S
H633 C608 0.950 . S
H634 C611 0.950 . S
H635 C613 0.950 . S
C636 C637 1.443 . S
C636 N640 1.376 . S
C636 C674 1.389 . S
C637 C636 1.443 . S
C637 C638 1.340 . S
C637 H677 0.951 . S
C638 C637 1.340 . S
C638 C639 1.439 . S
C638 H678 0.950 . S
C639 C638 1.439 . S
C639 N640 1.374 . S
C639 C673 1.395 . S
N640 C636 1.376 . S
N640 C639 1.374 . S
N640 Co641 2.008 . S
Co641 N640 2.008 . S
Co641 N642 1.995 . S
Co641 N647 2.008 . S
Co641 N652 1.995 . S
Co641 N657 2.282 . S
Co641 N663 2.282 . S
N642 Co641 1.995 . S
N642 C643 1.376 . S
N642 C646 1.383 . S
C643 N642 1.376 . S
C643 C644 1.446 . S
C643 C673 1.391 . S
C644 C643 1.446 . S
C644 C645 1.339 . S
C644 H679 0.949 . S
C645 C644 1.339 . S
C645 C646 1.439 . S
C645 H680 0.950 . S
C646 N642 1.383 . S
C646 C645 1.439 . S
C646 C675 1.392 . S
N647 Co641 2.008 . S
N647 C648 1.376 . S
N647 C651 1.374 . S
C648 N647 1.376 . S
C648 C649 1.443 . S
C648 C675 1.389 . S
C649 C648 1.443 . S
C649 C650 1.340 . S
C649 H681 0.951 . S
C650 C649 1.340 . S
C650 C651 1.439 . S
C650 H682 0.950 . S
C651 N647 1.374 . S
C651 C650 1.439 . S
C651 C676 1.395 . S
N652 Co641 1.995 . S
N652 C653 1.376 . S
N652 C656 1.383 . S
C653 N652 1.376 . S
C653 C654 1.446 . S
C653 C676 1.391 . S
C654 C653 1.446 . S
C654 C655 1.339 . S
C654 H683 0.949 . S
C655 C654 1.339 . S
C655 C656 1.439 . S
C655 H684 0.950 . S
C656 N652 1.383 . S
C656 C655 1.439 . S
C656 C674 1.392 . S
N657 Co641 2.282 . S
N657 C660 1.332 . S
N657 C662 1.332 . S
C658 C659 1.386 . S
C658 C661 1.388 . S
C659 C658 1.386 . S
C659 C660 1.382 . S
C659 H685 0.950 . S
C660 N657 1.332 . S
C660 C659 1.382 . S
C660 H671 0.952 . S
C661 C658 1.388 . S
C661 C662 1.382 . S
C661 H686 0.950 . S
C662 N657 1.332 . S
C662 C661 1.382 . S
C662 H672 0.948 . S
N663 Co641 2.282 . S
N663 C667 1.332 . S
N663 C668 1.332 . S
C664 C665 1.388 . S
C664 C668 1.382 . S
C664 H687 0.950 . S
C665 C664 1.388 . S
C665 C666 1.386 . S
C666 C665 1.386 . S
C666 C667 1.382 . S
C666 H688 0.950 . S
C667 N663 1.332 . S
C667 C666 1.382 . S
C667 H669 0.952 . S
C668 N663 1.332 . S
C668 C664 1.382 . S
C668 H670 0.948 . S
H669 C667 0.952 . S
H670 C668 0.948 . S
H671 C660 0.952 . S
H672 C662 0.948 . S
C673 C639 1.395 . S
C673 C643 1.391 . S
C674 C636 1.389 . S
C674 C656 1.392 . S
C675 C646 1.392 . S
C675 C648 1.389 . S
C676 C651 1.395 . S
C676 C653 1.391 . S
H677 C637 0.951 . S
H678 C638 0.950 . S
H679 C644 0.949 . S
H680 C645 0.950 . S
H681 C649 0.951 . S
H682 C650 0.950 . S
H683 C654 0.949 . S
H684 C655 0.950 . S
H685 C659 0.950 . S
H686 C661 0.950 . S
H687 C664 0.950 . S
H688 C666 0.950 . S
C689 C690 1.443 . S
C689 N693 1.376 . S
C689 C727 1.389 . S
C690 C689 1.443 . S
C690 C691 1.340 . S
C690 H730 0.951 . S
C691 C690 1.340 . S
C691 C692 1.439 . S
C691 H731 0.950 . S
C692 C691 1.439 . S
C692 N693 1.374 . S
C692 C726 1.395 . S
N693 C689 1.376 . S
N693 C692 1.374 . S
N693 Co694 2.008 . S
Co694 N693 2.008 . S
Co694 N695 1.995 . S
Co694 N700 2.008 . S
Co694 N705 1.995 . S
Co694 N710 2.282 . S
Co694 N716 2.282 . S
N695 Co694 1.995 . S
N695 C696 1.376 . S
N695 C699 1.383 . S
C696 N695 1.376 . S
C696 C697 1.446 . S
C696 C726 1.391 . S
C697 C696 1.446 . S
C697 C698 1.339 . S
C697 H732 0.949 . S
C698 C697 1.339 . S
C698 C699 1.439 . S
C698 H733 0.950 . S
C699 N695 1.383 . S
C699 C698 1.439 . S
C699 C728 1.392 . S
N700 Co694 2.008 . S
N700 C701 1.376 . S
N700 C704 1.374 . S
C701 N700 1.376 . S
C701 C702 1.443 . S
C701 C728 1.389 . S
C702 C701 1.443 . S
C702 C703 1.340 . S
C702 H734 0.951 . S
C703 C702 1.340 . S
C703 C704 1.439 . S
C703 H735 0.950 . S
C704 N700 1.374 . S
C704 C703 1.439 . S
C704 C729 1.395 . S
N705 Co694 1.995 . S
N705 C706 1.376 . S
N705 C709 1.383 . S
C706 N705 1.376 . S
C706 C707 1.446 . S
C706 C729 1.391 . S
C707 C706 1.446 . S
C707 C708 1.339 . S
C707 H736 0.949 . S
C708 C707 1.339 . S
C708 C709 1.439 . S
C708 H737 0.950 . S
C709 N705 1.383 . S
C709 C708 1.439 . S
C709 C727 1.392 . S
N710 Co694 2.282 . S
N710 C713 1.332 . S
N710 C715 1.332 . S
C711 C712 1.386 . S
C711 C714 1.388 . S
C712 C711 1.386 . S
C712 C713 1.382 . S
C712 H738 0.950 . S
C713 N710 1.332 . S
C713 C712 1.382 . S
C713 H724 0.952 . S
C714 C711 1.388 . S
C714 C715 1.382 . S
C714 H739 0.950 . S
C715 N710 1.332 . S
C715 C714 1.382 . S
C715 H725 0.948 . S
N716 Co694 2.282 . S
N716 C720 1.332 . S
N716 C721 1.332 . S
C717 C718 1.388 . S
C717 C721 1.382 . S
C717 H740 0.950 . S
C718 C717 1.388 . S
C718 C719 1.386 . S
C719 C718 1.386 . S
C719 C720 1.382 . S
C719 H741 0.950 . S
C720 N716 1.332 . S
C720 C719 1.382 . S
C720 H722 0.952 . S
C721 N716 1.332 . S
C721 C717 1.382 . S
C721 H723 0.948 . S
H722 C720 0.952 . S
H723 C721 0.948 . S
H724 C713 0.952 . S
H725 C715 0.948 . S
C726 C692 1.395 . S
C726 C696 1.391 . S
C727 C689 1.389 . S
C727 C709 1.392 . S
C728 C699 1.392 . S
C728 C701 1.389 . S
C729 C704 1.395 . S
C729 C706 1.391 . S
H730 C690 0.951 . S
H731 C691 0.950 . S
H732 C697 0.949 . S
H733 C698 0.950 . S
H734 C702 0.951 . S
H735 C703 0.950 . S
H736 C707 0.949 . S
H737 C708 0.950 . S
H738 C712 0.950 . S
H739 C714 0.950 . S
H740 C717 0.950 . S
H741 C719 0.950 . S
C742 C743 1.443 . S
C742 N746 1.376 . S
C742 C780 1.389 . S
C743 C742 1.443 . S
C743 C744 1.340 . S
C743 H783 0.951 . S
C744 C743 1.340 . S
C744 C745 1.439 . S
C744 H784 0.950 . S
C745 C744 1.439 . S
C745 N746 1.374 . S
C745 C779 1.395 . S
N746 C742 1.376 . S
N746 C745 1.374 . S
N746 Co747 2.008 . S
Co747 N746 2.008 . S
Co747 N748 1.995 . S
Co747 N753 2.008 . S
Co747 N758 1.995 . S
Co747 N763 2.282 . S
Co747 N769 2.282 . S
N748 Co747 1.995 . S
N748 C749 1.376 . S
N748 C752 1.383 . S
C749 N748 1.376 . S
C749 C750 1.446 . S
C749 C779 1.391 . S
C750 C749 1.446 . S
C750 C751 1.339 . S
C750 H785 0.949 . S
C751 C750 1.339 . S
C751 C752 1.439 . S
C751 H786 0.950 . S
C752 N748 1.383 . S
C752 C751 1.439 . S
C752 C781 1.392 . S
N753 Co747 2.008 . S
N753 C754 1.376 . S
N753 C757 1.374 . S
C754 N753 1.376 . S
C754 C755 1.443 . S
C754 C781 1.389 . S
C755 C754 1.443 . S
C755 C756 1.340 . S
C755 H787 0.951 . S
C756 C755 1.340 . S
C756 C757 1.439 . S
C756 H788 0.950 . S
C757 N753 1.374 . S
C757 C756 1.439 . S
C757 C782 1.395 . S
N758 Co747 1.995 . S
N758 C759 1.376 . S
N758 C762 1.383 . S
C759 N758 1.376 . S
C759 C760 1.446 . S
C759 C782 1.391 . S
C760 C759 1.446 . S
C760 C761 1.339 . S
C760 H789 0.949 . S
C761 C760 1.339 . S
C761 C762 1.439 . S
C761 H790 0.950 . S
C762 N758 1.383 . S
C762 C761 1.439 . S
C762 C780 1.392 . S
N763 Co747 2.282 . S
N763 C766 1.332 . S
N763 C768 1.332 . S
C764 C765 1.386 . S
C764 C767 1.388 . S
C765 C764 1.386 . S
C765 C766 1.382 . S
C765 H791 0.950 . S
C766 N763 1.332 . S
C766 C765 1.382 . S
C766 H777 0.952 . S
C767 C764 1.388 . S
C767 C768 1.382 . S
C767 H792 0.950 . S
C768 N763 1.332 . S
C768 C767 1.382 . S
C768 H778 0.948 . S
N769 Co747 2.282 . S
N769 C773 1.332 . S
N769 C774 1.332 . S
C770 C771 1.388 . S
C770 C774 1.382 . S
C770 H793 0.950 . S
C771 C770 1.388 . S
C771 C772 1.386 . S
C772 C771 1.386 . S
C772 C773 1.382 . S
C772 H794 0.950 . S
C773 N769 1.332 . S
C773 C772 1.382 . S
C773 H775 0.952 . S
C774 N769 1.332 . S
C774 C770 1.382 . S
C774 H776 0.948 . S
H775 C773 0.952 . S
H776 C774 0.948 . S
H777 C766 0.952 . S
H778 C768 0.948 . S
C779 C745 1.395 . S
C779 C749 1.391 . S
C780 C742 1.389 . S
C780 C762 1.392 . S
C781 C752 1.392 . S
C781 C754 1.389 . S
C782 C757 1.395 . S
C782 C759 1.391 . S
H783 C743 0.951 . S
H784 C744 0.950 . S
H785 C750 0.949 . S
H786 C751 0.950 . S
H787 C755 0.951 . S
H788 C756 0.950 . S
H789 C760 0.949 . S
H790 C761 0.950 . S
H791 C765 0.950 . S
H792 C767 0.950 . S
H793 C770 0.950 . S
H794 C772 0.950 . S
C795 C796 1.443 . S
C795 N799 1.376 . S
C795 C833 1.389 . S
C796 C795 1.443 . S
C796 C797 1.340 . S
C796 H836 0.951 . S
C797 C796 1.340 . S
C797 C798 1.439 . S
C797 H837 0.950 . S
C798 C797 1.439 . S
C798 N799 1.374 . S
C798 C832 1.395 . S
N799 C795 1.376 . S
N799 C798 1.374 . S
N799 Co800 2.008 . S
Co800 N799 2.008 . S
Co800 N801 1.995 . S
Co800 N806 2.008 . S
Co800 N811 1.995 . S
Co800 N816 2.282 . S
Co800 N822 2.282 . S
N801 Co800 1.995 . S
N801 C802 1.376 . S
N801 C805 1.383 . S
C802 N801 1.376 . S
C802 C803 1.446 . S
C802 C832 1.391 . S
C803 C802 1.446 . S
C803 C804 1.339 . S
C803 H838 0.949 . S
C804 C803 1.339 . S
C804 C805 1.439 . S
C804 H839 0.950 . S
C805 N801 1.383 . S
C805 C804 1.439 . S
C805 C834 1.392 . S
N806 Co800 2.008 . S
N806 C807 1.376 . S
N806 C810 1.374 . S
C807 N806 1.376 . S
C807 C808 1.443 . S
C807 C834 1.389 . S
C808 C807 1.443 . S
C808 C809 1.340 . S
C808 H840 0.951 . S
C809 C808 1.340 . S
C809 C810 1.439 . S
C809 H841 0.950 . S
C810 N806 1.374 . S
C810 C809 1.439 . S
C810 C835 1.395 . S
N811 Co800 1.995 . S
N811 C812 1.376 . S
N811 C815 1.383 . S
C812 N811 1.376 . S
C812 C813 1.446 . S
C812 C835 1.391 . S
C813 C812 1.446 . S
C813 C814 1.339 . S
C813 H842 0.949 . S
C814 C813 1.339 . S
C814 C815 1.439 . S
C814 H843 0.950 . S
C815 N811 1.383 . S
C815 C814 1.439 . S
C815 C833 1.392 . S
N816 Co800 2.282 . S
N816 C819 1.332 . S
N816 C821 1.332 . S
C817 C818 1.386 . S
C817 C820 1.388 . S
C818 C817 1.386 . S
C818 C819 1.382 . S
C818 H844 0.950 . S
C819 N816 1.332 . S
C819 C818 1.382 . S
C819 H830 0.952 . S
C820 C817 1.388 . S
C820 C821 1.382 . S
C820 H845 0.950 . S
C821 N816 1.332 . S
C821 C820 1.382 . S
C821 H831 0.948 . S
N822 Co800 2.282 . S
N822 C826 1.332 . S
N822 C827 1.332 . S
C823 C824 1.388 . S
C823 C827 1.382 . S
C823 H846 0.950 . S
C824 C823 1.388 . S
C824 C825 1.386 . S
C825 C824 1.386 . S
C825 C826 1.382 . S
C825 H847 0.950 . S
C826 N822 1.332 . S
C826 C825 1.382 . S
C826 H828 0.952 . S
C827 N822 1.332 . S
C827 C823 1.382 . S
C827 H829 0.948 . S
H828 C826 0.952 . S
H829 C827 0.948 . S
H830 C819 0.952 . S
H831 C821 0.948 . S
C832 C798 1.395 . S
C832 C802 1.391 . S
C833 C795 1.389 . S
C833 C815 1.392 . S
C834 C805 1.392 . S
C834 C807 1.389 . S
C835 C810 1.395 . S
C835 C812 1.391 . S
H836 C796 0.951 . S
H837 C797 0.950 . S
H838 C803 0.949 . S
H839 C804 0.950 . S
H840 C808 0.951 . S
H841 C809 0.950 . S
H842 C813 0.949 . S
H843 C814 0.950 . S
H844 C818 0.950 . S
H845 C820 0.950 . S
H846 C823 0.950 . S
H847 C825 0.950 . S
H848 C856 0.929 . S
H849 C858 0.930 . S
H850 C860 0.930 . S
H851 C863 0.929 . S
H852 C866 0.930 . S
H853 C868 0.960 . S
H854 C868 0.960 . S
H855 C868 0.960 . S
C856 H848 0.929 . S
C856 C857 1.377 . S
C856 C858 1.384 . S
C857 C856 1.377 . S
C857 C863 1.390 . S
C858 H849 0.930 . S
C858 C856 1.384 . S
C858 C859 1.372 . S
C859 C858 1.372 . S
C859 C860 1.400 . S
C859 C864 1.490 . S
C860 H850 0.930 . S
C860 C859 1.400 . S
C860 C863 1.386 . S
H861 C877 0.930 . S
H862 C878 0.931 . S
C863 H851 0.929 . S
C863 C857 1.390 . S
C863 C860 1.386 . S
C864 C859 1.490 . S
C864 C866 1.395 . S
C864 C867 1.403 . S
H865 C871 0.930 . S
C866 H852 0.930 . S
C866 C864 1.395 . S
C866 C869 1.403 . S
C867 C864 1.403 . S
C867 C868 1.524 . S
C867 C871 1.400 . S
C868 H853 0.960 . S
C868 H854 0.960 . S
C868 H855 0.960 . S
C868 C867 1.524 . S
C869 C866 1.403 . S
C869 C870 1.392 . S
C869 C873 1.495 . S
C870 C869 1.392 . S
C870 C871 1.385 . S
C870 C872 1.478 . S
C871 H865 0.930 . S
C871 C867 1.400 . S
C871 C870 1.385 . S
C872 C870 1.478 . S
C872 C874 1.381 . S
C872 C878 1.383 . S
C873 C869 1.495 . S
C873 H879 0.959 . S
C873 H880 0.961 . S
C873 H881 0.960 . S
C874 C872 1.381 . S
C874 C875 1.394 . S
C874 H882 0.930 . S
C875 C874 1.394 . S
C875 C876 1.383 . S
C875 H883 0.929 . S
C876 C875 1.383 . S
C876 C877 1.377 . S
C877 H861 0.930 . S
C877 C876 1.377 . S
C877 C878 1.379 . S
C878 H862 0.931 . S
C878 C872 1.383 . S
C878 C877 1.379 . S
H879 C873 0.959 . S
H880 C873 0.961 . S
H881 C873 0.960 . S
H882 C874 0.930 . S
H883 C875 0.929 . S
H884 C892 0.929 . S
H885 C894 0.930 . S
H886 C896 0.930 . S
H887 C899 0.929 . S
H888 C902 0.930 . S
H889 C904 0.960 . S
H890 C904 0.960 . S
H891 C904 0.960 . S
C892 H884 0.929 . S
C892 C893 1.377 . S
C892 C894 1.384 . S
C893 C892 1.377 . S
C893 C899 1.390 . S
C894 H885 0.930 . S
C894 C892 1.384 . S
C894 C895 1.372 . S
C895 C894 1.372 . S
C895 C896 1.400 . S
C895 C900 1.490 . S
C896 H886 0.930 . S
C896 C895 1.400 . S
C896 C899 1.386 . S
H897 C913 0.930 . S
H898 C914 0.931 . S
C899 H887 0.929 . S
C899 C893 1.390 . S
C899 C896 1.386 . S
C900 C895 1.490 . S
C900 C902 1.395 . S
C900 C903 1.403 . S
H901 C907 0.930 . S
C902 H888 0.930 . S
C902 C900 1.395 . S
C902 C905 1.403 . S
C903 C900 1.403 . S
C903 C904 1.524 . S
C903 C907 1.400 . S
C904 H889 0.960 . S
C904 H890 0.960 . S
C904 H891 0.960 . S
C904 C903 1.524 . S
C905 C902 1.403 . S
C905 C906 1.392 . S
C905 C909 1.495 . S
C906 C905 1.392 . S
C906 C907 1.385 . S
C906 C908 1.478 . S
C907 H901 0.930 . S
C907 C903 1.400 . S
C907 C906 1.385 . S
C908 C906 1.478 . S
C908 C910 1.381 . S
C908 C914 1.383 . S
C909 C905 1.495 . S
C909 H915 0.959 . S
C909 H916 0.961 . S
C909 H917 0.960 . S
C910 C908 1.381 . S
C910 C911 1.394 . S
C910 H918 0.930 . S
C911 C910 1.394 . S
C911 C912 1.383 . S
C911 H919 0.929 . S
C912 C911 1.383 . S
C912 C913 1.377 . S
C913 H897 0.930 . S
C913 C912 1.377 . S
C913 C914 1.379 . S
C914 H898 0.931 . S
C914 C908 1.383 . S
C914 C913 1.379 . S
H915 C909 0.959 . S
H916 C909 0.961 . S
H917 C909 0.960 . S
H918 C910 0.930 . S
H919 C911 0.929 . S
H920 C928 0.929 . S
H921 C930 0.930 . S
H922 C932 0.930 . S
H923 C935 0.929 . S
H924 C938 0.930 . S
H925 C940 0.960 . S
H926 C940 0.960 . S
H927 C940 0.960 . S
C928 H920 0.929 . S
C928 C929 1.377 . S
C928 C930 1.384 . S
C929 C928 1.377 . S
C929 C935 1.390 . S
C930 H921 0.930 . S
C930 C928 1.384 . S
C930 C931 1.372 . S
C931 C930 1.372 . S
C931 C932 1.400 . S
C931 C936 1.490 . S
C932 H922 0.930 . S
C932 C931 1.400 . S
C932 C935 1.386 . S
H933 C949 0.930 . S
H934 C950 0.931 . S
C935 H923 0.929 . S
C935 C929 1.390 . S
C935 C932 1.386 . S
C936 C931 1.490 . S
C936 C938 1.395 . S
C936 C939 1.403 . S
H937 C943 0.930 . S
C938 H924 0.930 . S
C938 C936 1.395 . S
C938 C941 1.403 1_554 S
C939 C936 1.403 . S
C939 C940 1.524 . S
C939 C943 1.400 1_554 S
C940 H925 0.960 . S
C940 H926 0.960 . S
C940 H927 0.960 . S
C940 C939 1.524 . S
C941 C938 1.403 1_556 S
C941 C942 1.392 . S
C941 C945 1.495 . S
C942 C941 1.392 . S
C942 C943 1.385 . S
C942 C944 1.478 . S
C943 H937 0.930 . S
C943 C939 1.400 1_556 S
C943 C942 1.385 . S
C944 C942 1.478 . S
C944 C946 1.381 . S
C944 C950 1.383 . S
C945 C941 1.495 . S
C945 H951 0.959 . S
C945 H952 0.961 . S
C945 H953 0.960 . S
C946 C944 1.381 . S
C946 C947 1.394 . S
C946 H954 0.930 . S
C947 C946 1.394 . S
C947 C948 1.383 . S
C947 H955 0.929 . S
C948 C947 1.383 . S
C948 C949 1.377 . S
C949 H933 0.930 . S
C949 C948 1.377 . S
C949 C950 1.379 . S
C950 H934 0.931 . S
C950 C944 1.383 . S
C950 C949 1.379 . S
H951 C945 0.959 . S
H952 C945 0.961 . S
H953 C945 0.960 . S
H954 C946 0.930 . S
H955 C947 0.929 . S
H956 C964 0.929 . S
H957 C966 0.930 . S
H958 C968 0.930 . S
H959 C971 0.929 . S
H960 C974 0.930 . S
H961 C976 0.960 . S
H962 C976 0.960 . S
H963 C976 0.960 . S
C964 H956 0.929 . S
C964 C965 1.377 . S
C964 C966 1.384 . S
C965 C964 1.377 . S
C965 C971 1.390 . S
C966 H957 0.930 . S
C966 C964 1.384 . S
C966 C967 1.372 . S
C967 C966 1.372 . S
C967 C968 1.400 . S
C967 C972 1.490 . S
C968 H958 0.930 . S
C968 C967 1.400 . S
C968 C971 1.386 . S
H969 C985 0.930 . S
H970 C986 0.931 . S
C971 H959 0.929 . S
C971 C965 1.390 . S
C971 C968 1.386 . S
C972 C967 1.490 . S
C972 C974 1.395 . S
C972 C975 1.403 . S
H973 C979 0.930 . S
C974 H960 0.930 . S
C974 C972 1.395 . S
C974 C977 1.403 1_556 S
C975 C972 1.403 . S
C975 C976 1.524 . S
C975 C979 1.400 1_556 S
C976 H961 0.960 . S
C976 H962 0.960 . S
C976 H963 0.960 . S
C976 C975 1.524 . S
C977 C974 1.403 1_554 S
C977 C978 1.392 . S
C977 C981 1.495 . S
C978 C977 1.392 . S
C978 C979 1.385 . S
C978 C980 1.478 . S
C979 H973 0.930 . S
C979 C975 1.400 1_554 S
C979 C978 1.385 . S
C980 C978 1.478 . S
C980 C982 1.381 . S
C980 C986 1.383 . S
C981 C977 1.495 . S
C981 H987 0.959 . S
C981 H988 0.961 . S
C981 H989 0.960 . S
C982 C980 1.381 . S
C982 C983 1.394 . S
C982 H990 0.930 . S
C983 C982 1.394 . S
C983 C984 1.383 . S
C983 H991 0.929 . S
C984 C983 1.383 . S
C984 C985 1.377 . S
C985 H969 0.930 . S
C985 C984 1.377 . S
C985 C986 1.379 . S
C986 H970 0.931 . S
C986 C980 1.383 . S
C986 C985 1.379 . S
H987 C981 0.959 . S
H988 C981 0.961 . S
H989 C981 0.960 . S
H990 C982 0.930 . S
H991 C983 0.929 . S
H992 C1000 0.929 . S
H993 C1002 0.930 . S
H994 C1004 0.930 . S
H995 C1007 0.929 . S
H996 C1010 0.930 . S
H997 C1012 0.960 . S
H998 C1012 0.960 . S
H999 C1012 0.960 . S
C1000 H992 0.929 . S
C1000 C1001 1.377 . S
C1000 C1002 1.384 . S
C1001 C1000 1.377 . S
C1001 C1007 1.390 . S
C1002 H993 0.930 . S
C1002 C1000 1.384 . S
C1002 C1003 1.372 . S
C1003 C1002 1.372 . S
C1003 C1004 1.400 . S
C1003 C1008 1.490 . S
C1004 H994 0.930 . S
C1004 C1003 1.400 . S
C1004 C1007 1.386 . S
H1005 C1021 0.930 . S
H1006 C1022 0.931 . S
C1007 H995 0.929 . S
C1007 C1001 1.390 . S
C1007 C1004 1.386 . S
C1008 C1003 1.490 . S
C1008 C1010 1.395 . S
C1008 C1011 1.403 . S
H1009 C1015 0.930 . S
C1010 H996 0.930 . S
C1010 C1008 1.395 . S
C1010 C1013 1.403 . S
C1011 C1008 1.403 . S
C1011 C1012 1.524 . S
C1011 C1015 1.400 . S
C1012 H997 0.960 . S
C1012 H998 0.960 . S
C1012 H999 0.960 . S
C1012 C1011 1.524 . S
C1013 C1010 1.403 . S
C1013 C1014 1.392 . S
C1013 C1017 1.495 . S
C1014 C1013 1.392 . S
C1014 C1015 1.385 . S
C1014 C1016 1.478 . S
C1015 H1009 0.930 . S
C1015 C1011 1.400 . S
C1015 C1014 1.385 . S
C1016 C1014 1.478 . S
C1016 C1018 1.381 . S
C1016 C1022 1.383 . S
C1017 C1013 1.495 . S
C1017 H1023 0.959 . S
C1017 H1024 0.961 . S
C1017 H1025 0.960 . S
C1018 C1016 1.381 . S
C1018 C1019 1.394 . S
C1018 H1026 0.930 . S
C1019 C1018 1.394 . S
C1019 C1020 1.383 . S
C1019 H1027 0.929 . S
C1020 C1019 1.383 . S
C1020 C1021 1.377 . S
C1021 H1005 0.930 . S
C1021 C1020 1.377 . S
C1021 C1022 1.379 . S
C1022 H1006 0.931 . S
C1022 C1016 1.383 . S
C1022 C1021 1.379 . S
H1023 C1017 0.959 . S
H1024 C1017 0.961 . S
H1025 C1017 0.960 . S
H1026 C1018 0.930 . S
H1027 C1019 0.929 . S
H1028 C1036 0.929 . S
H1029 C1038 0.930 . S
H1030 C1040 0.930 . S
H1031 C1043 0.929 . S
H1032 C1046 0.930 . S
H1033 C1048 0.960 . S
H1034 C1048 0.960 . S
H1035 C1048 0.960 . S
C1036 H1028 0.929 . S
C1036 C1037 1.377 . S
C1036 C1038 1.384 . S
C1037 C1036 1.377 . S
C1037 C1043 1.390 . S
C1038 H1029 0.930 . S
C1038 C1036 1.384 . S
C1038 C1039 1.372 . S
C1039 C1038 1.372 . S
C1039 C1040 1.400 . S
C1039 C1044 1.490 . S
C1040 H1030 0.930 . S
C1040 C1039 1.400 . S
C1040 C1043 1.386 . S
H1041 C1057 0.930 . S
H1042 C1058 0.931 . S
C1043 H1031 0.929 . S
C1043 C1037 1.390 . S
C1043 C1040 1.386 . S
C1044 C1039 1.490 . S
C1044 C1046 1.395 . S
C1044 C1047 1.403 . S
H1045 C1051 0.930 . S
C1046 H1032 0.930 . S
C1046 C1044 1.395 . S
C1046 C1049 1.403 . S
C1047 C1044 1.403 . S
C1047 C1048 1.524 . S
C1047 C1051 1.400 . S
C1048 H1033 0.960 . S
C1048 H1034 0.960 . S
C1048 H1035 0.960 . S
C1048 C1047 1.524 . S
C1049 C1046 1.403 . S
C1049 C1050 1.392 . S
C1049 C1053 1.495 . S
C1050 C1049 1.392 . S
C1050 C1051 1.385 . S
C1050 C1052 1.478 . S
C1051 H1045 0.930 . S
C1051 C1047 1.400 . S
C1051 C1050 1.385 . S
C1052 C1050 1.478 . S
C1052 C1054 1.381 . S
C1052 C1058 1.383 . S
C1053 C1049 1.495 . S
C1053 H1059 0.959 . S
C1053 H1060 0.961 . S
C1053 H1061 0.960 . S
C1054 C1052 1.381 . S
C1054 C1055 1.394 . S
C1054 H1062 0.930 . S
C1055 C1054 1.394 . S
C1055 C1056 1.383 . S
C1055 H1063 0.929 . S
C1056 C1055 1.383 . S
C1056 C1057 1.377 . S
C1057 H1041 0.930 . S
C1057 C1056 1.377 . S
C1057 C1058 1.379 . S
C1058 H1042 0.931 . S
C1058 C1052 1.383 . S
C1058 C1057 1.379 . S
H1059 C1053 0.959 . S
H1060 C1053 0.961 . S
H1061 C1053 0.960 . S
H1062 C1054 0.930 . S
H1063 C1055 0.929 . S
H1064 C1072 0.929 . S
H1065 C1074 0.930 . S
H1066 C1076 0.930 . S
H1067 C1079 0.929 . S
H1068 C1082 0.930 . S
H1069 C1084 0.960 . S
H1070 C1084 0.960 . S
H1071 C1084 0.960 . S
C1072 H1064 0.929 . S
C1072 C1073 1.377 . S
C1072 C1074 1.384 . S
C1073 C1072 1.377 . S
C1073 C1079 1.390 . S
C1074 H1065 0.930 . S
C1074 C1072 1.384 . S
C1074 C1075 1.372 . S
C1075 C1074 1.372 . S
C1075 C1076 1.400 . S
C1075 C1080 1.490 . S
C1076 H1066 0.930 . S
C1076 C1075 1.400 . S
C1076 C1079 1.386 . S
H1077 C1093 0.930 . S
H1078 C1094 0.931 . S
C1079 H1067 0.929 . S
C1079 C1073 1.390 . S
C1079 C1076 1.386 . S
C1080 C1075 1.490 . S
C1080 C1082 1.395 . S
C1080 C1083 1.403 . S
H1081 C1087 0.930 . S
C1082 H1068 0.930 . S
C1082 C1080 1.395 . S
C1082 C1085 1.403 1_556 S
C1083 C1080 1.403 . S
C1083 C1084 1.524 . S
C1083 C1087 1.400 1_556 S
C1084 H1069 0.960 . S
C1084 H1070 0.960 . S
C1084 H1071 0.960 . S
C1084 C1083 1.524 . S
C1085 C1082 1.403 1_554 S
C1085 C1086 1.392 . S
C1085 C1089 1.495 . S
C1086 C1085 1.392 . S
C1086 C1087 1.385 . S
C1086 C1088 1.478 . S
C1087 H1081 0.930 . S
C1087 C1083 1.400 1_554 S
C1087 C1086 1.385 . S
C1088 C1086 1.478 . S
C1088 C1090 1.381 . S
C1088 C1094 1.383 . S
C1089 C1085 1.495 . S
C1089 H1095 0.959 . S
C1089 H1096 0.961 . S
C1089 H1097 0.960 . S
C1090 C1088 1.381 . S
C1090 C1091 1.394 . S
C1090 H1098 0.930 . S
C1091 C1090 1.394 . S
C1091 C1092 1.383 . S
C1091 H1099 0.929 . S
C1092 C1091 1.383 . S
C1092 C1093 1.377 . S
C1093 H1077 0.930 . S
C1093 C1092 1.377 . S
C1093 C1094 1.379 . S
C1094 H1078 0.931 . S
C1094 C1088 1.383 . S
C1094 C1093 1.379 . S
H1095 C1089 0.959 . S
H1096 C1089 0.961 . S
H1097 C1089 0.960 . S
H1098 C1090 0.930 . S
H1099 C1091 0.929 . S
H1100 C1108 0.929 . S
H1101 C1110 0.930 . S
H1102 C1112 0.930 . S
H1103 C1115 0.929 . S
H1104 C1118 0.930 . S
H1105 C1120 0.960 . S
H1106 C1120 0.960 . S
H1107 C1120 0.960 . S
C1108 H1100 0.929 . S
C1108 C1109 1.377 . S
C1108 C1110 1.384 . S
C1109 C1108 1.377 . S
C1109 C1115 1.390 . S
C1110 H1101 0.930 . S
C1110 C1108 1.384 . S
C1110 C1111 1.372 . S
C1111 C1110 1.372 . S
C1111 C1112 1.400 . S
C1111 C1116 1.490 . S
C1112 H1102 0.930 . S
C1112 C1111 1.400 . S
C1112 C1115 1.386 . S
H1113 C1129 0.930 . S
H1114 C1130 0.931 . S
C1115 H1103 0.929 . S
C1115 C1109 1.390 . S
C1115 C1112 1.386 . S
C1116 C1111 1.490 . S
C1116 C1118 1.395 . S
C1116 C1119 1.403 . S
H1117 C1123 0.930 . S
C1118 H1104 0.930 . S
C1118 C1116 1.395 . S
C1118 C1121 1.403 1_554 S
C1119 C1116 1.403 . S
C1119 C1120 1.524 . S
C1119 C1123 1.400 1_554 S
C1120 H1105 0.960 . S
C1120 H1106 0.960 . S
C1120 H1107 0.960 . S
C1120 C1119 1.524 . S
C1121 C1118 1.403 1_556 S
C1121 C1122 1.392 . S
C1121 C1125 1.495 . S
C1122 C1121 1.392 . S
C1122 C1123 1.385 . S
C1122 C1124 1.478 . S
C1123 H1117 0.930 . S
C1123 C1119 1.400 1_556 S
C1123 C1122 1.385 . S
C1124 C1122 1.478 . S
C1124 C1126 1.381 . S
C1124 C1130 1.383 . S
C1125 C1121 1.495 . S
C1125 H1131 0.959 . S
C1125 H1132 0.961 . S
C1125 H1133 0.960 . S
C1126 C1124 1.381 . S
C1126 C1127 1.394 . S
C1126 H1134 0.930 . S
C1127 C1126 1.394 . S
C1127 C1128 1.383 . S
C1127 H1135 0.929 . S
C1128 C1127 1.383 . S
C1128 C1129 1.377 . S
C1129 H1113 0.930 . S
C1129 C1128 1.377 . S
C1129 C1130 1.379 . S
C1130 H1114 0.931 . S
C1130 C1124 1.383 . S
C1130 C1129 1.379 . S
H1131 C1125 0.959 . S
H1132 C1125 0.961 . S
H1133 C1125 0.960 . S
H1134 C1126 0.930 . S
H1135 C1127 0.929 . S
H1136 C1144 0.929 . S
H1137 C1146 0.930 . S
H1138 C1148 0.930 . S
H1139 C1151 0.929 . S
H1140 C1154 0.930 . S
H1141 C1156 0.960 . S
H1142 C1156 0.960 . S
H1143 C1156 0.960 . S
C1144 H1136 0.929 . S
C1144 C1145 1.377 . S
C1144 C1146 1.384 . S
C1145 C1144 1.377 . S
C1145 C1151 1.390 . S
C1146 H1137 0.930 . S
C1146 C1144 1.384 . S
C1146 C1147 1.372 . S
C1147 C1146 1.372 . S
C1147 C1148 1.400 . S
C1147 C1152 1.490 . S
C1148 H1138 0.930 . S
C1148 C1147 1.400 . S
C1148 C1151 1.386 . S
H1149 C1165 0.930 . S
H1150 C1166 0.931 . S
C1151 H1139 0.929 . S
C1151 C1145 1.390 . S
C1151 C1148 1.386 . S
C1152 C1147 1.490 . S
C1152 C1154 1.395 . S
C1152 C1155 1.403 1_565 S
H1153 C1159 0.930 . S
C1154 H1140 0.930 . S
C1154 C1152 1.395 . S
C1154 C1157 1.403 . S
C1155 C1152 1.403 1_545 S
C1155 C1156 1.524 . S
C1155 C1159 1.400 . S
C1156 H1141 0.960 . S
C1156 H1142 0.960 . S
C1156 H1143 0.960 . S
C1156 C1155 1.524 . S
C1157 C1154 1.403 . S
C1157 C1158 1.392 1_565 S
C1157 C1161 1.495 . S
C1158 C1157 1.392 1_545 S
C1158 C1159 1.385 . S
C1158 C1160 1.478 . S
C1159 H1153 0.930 . S
C1159 C1155 1.400 . S
C1159 C1158 1.385 . S
C1160 C1158 1.478 . S
C1160 C1162 1.381 . S
C1160 C1166 1.383 . S
C1161 C1157 1.495 . S
C1161 H1167 0.959 . S
C1161 H1168 0.961 . S
C1161 H1169 0.960 . S
C1162 C1160 1.381 . S
C1162 C1163 1.394 . S
C1162 H1170 0.930 . S
C1163 C1162 1.394 . S
C1163 C1164 1.383 . S
C1163 H1171 0.929 . S
C1164 C1163 1.383 . S
C1164 C1165 1.377 . S
C1165 H1149 0.930 . S
C1165 C1164 1.377 . S
C1165 C1166 1.379 . S
C1166 H1150 0.931 . S
C1166 C1160 1.383 . S
C1166 C1165 1.379 . S
H1167 C1161 0.959 . S
H1168 C1161 0.961 . S
H1169 C1161 0.960 . S
H1170 C1162 0.930 . S
H1171 C1163 0.929 . S
H1172 C1180 0.929 . S
H1173 C1182 0.930 . S
H1174 C1184 0.930 . S
H1175 C1187 0.929 . S
H1176 C1190 0.930 . S
H1177 C1192 0.960 . S
H1178 C1192 0.960 . S
H1179 C1192 0.960 . S
C1180 H1172 0.929 . S
C1180 C1181 1.377 . S
C1180 C1182 1.384 . S
C1181 C1180 1.377 . S
C1181 C1187 1.390 . S
C1182 H1173 0.930 . S
C1182 C1180 1.384 . S
C1182 C1183 1.372 . S
C1183 C1182 1.372 . S
C1183 C1184 1.400 . S
C1183 C1188 1.490 . S
C1184 H1174 0.930 . S
C1184 C1183 1.400 . S
C1184 C1187 1.386 . S
H1185 C1201 0.930 . S
H1186 C1202 0.931 . S
C1187 H1175 0.929 . S
C1187 C1181 1.390 . S
C1187 C1184 1.386 . S
C1188 C1183 1.490 . S
C1188 C1190 1.395 . S
C1188 C1191 1.403 1_565 S
H1189 C1195 0.930 . S
C1190 H1176 0.930 . S
C1190 C1188 1.395 . S
C1190 C1193 1.403 . S
C1191 C1188 1.403 1_545 S
C1191 C1192 1.524 . S
C1191 C1195 1.400 . S
C1192 H1177 0.960 . S
C1192 H1178 0.960 . S
C1192 H1179 0.960 . S
C1192 C1191 1.524 . S
C1193 C1190 1.403 . S
C1193 C1194 1.392 1_565 S
C1193 C1197 1.495 . S
C1194 C1193 1.392 1_545 S
C1194 C1195 1.385 . S
C1194 C1196 1.478 . S
C1195 H1189 0.930 . S
C1195 C1191 1.400 . S
C1195 C1194 1.385 . S
C1196 C1194 1.478 . S
C1196 C1198 1.381 . S
C1196 C1202 1.383 . S
C1197 C1193 1.495 . S
C1197 H1203 0.959 . S
C1197 H1204 0.961 . S
C1197 H1205 0.960 . S
C1198 C1196 1.381 . S
C1198 C1199 1.394 . S
C1198 H1206 0.930 . S
C1199 C1198 1.394 . S
C1199 C1200 1.383 . S
C1199 H1207 0.929 . S
C1200 C1199 1.383 . S
C1200 C1201 1.377 . S
C1201 H1185 0.930 . S
C1201 C1200 1.377 . S
C1201 C1202 1.379 . S
C1202 H1186 0.931 . S
C1202 C1196 1.383 . S
C1202 C1201 1.379 . S
H1203 C1197 0.959 . S
H1204 C1197 0.961 . S
H1205 C1197 0.960 . S
H1206 C1198 0.930 . S
H1207 C1199 0.929 . S
H1208 C1216 0.929 . S
H1209 C1218 0.930 . S
H1210 C1220 0.930 . S
H1211 C1223 0.929 . S
H1212 C1226 0.930 . S
H1213 C1228 0.960 . S
H1214 C1228 0.960 . S
H1215 C1228 0.960 . S
C1216 H1208 0.929 . S
C1216 C1217 1.377 . S
C1216 C1218 1.384 . S
C1217 C1216 1.377 . S
C1217 C1223 1.390 . S
C1218 H1209 0.930 . S
C1218 C1216 1.384 . S
C1218 C1219 1.372 . S
C1219 C1218 1.372 . S
C1219 C1220 1.400 . S
C1219 C1224 1.490 . S
C1220 H1210 0.930 . S
C1220 C1219 1.400 . S
C1220 C1223 1.386 . S
H1221 C1237 0.930 . S
H1222 C1238 0.931 . S
C1223 H1211 0.929 . S
C1223 C1217 1.390 . S
C1223 C1220 1.386 . S
C1224 C1219 1.490 . S
C1224 C1226 1.395 . S
C1224 C1227 1.403 1_565 S
H1225 C1231 0.930 . S
C1226 H1212 0.930 . S
C1226 C1224 1.395 . S
C1226 C1229 1.403 . S
C1227 C1224 1.403 1_545 S
C1227 C1228 1.524 . S
C1227 C1231 1.400 . S
C1228 H1213 0.960 . S
C1228 H1214 0.960 . S
C1228 H1215 0.960 . S
C1228 C1227 1.524 . S
C1229 C1226 1.403 . S
C1229 C1230 1.392 1_565 S
C1229 C1233 1.495 . S
C1230 C1229 1.392 1_545 S
C1230 C1231 1.385 . S
C1230 C1232 1.478 . S
C1231 H1225 0.930 . S
C1231 C1227 1.400 . S
C1231 C1230 1.385 . S
C1232 C1230 1.478 . S
C1232 C1234 1.381 . S
C1232 C1238 1.383 . S
C1233 C1229 1.495 . S
C1233 H1239 0.959 . S
C1233 H1240 0.961 . S
C1233 H1241 0.960 . S
C1234 C1232 1.381 . S
C1234 C1235 1.394 . S
C1234 H1242 0.930 . S
C1235 C1234 1.394 . S
C1235 C1236 1.383 . S
C1235 H1243 0.929 . S
C1236 C1235 1.383 . S
C1236 C1237 1.377 . S
C1237 H1221 0.930 . S
C1237 C1236 1.377 . S
C1237 C1238 1.379 . S
C1238 H1222 0.931 . S
C1238 C1232 1.383 . S
C1238 C1237 1.379 . S
H1239 C1233 0.959 . S
H1240 C1233 0.961 . S
H1241 C1233 0.960 . S
H1242 C1234 0.930 . S
H1243 C1235 0.929 . S
H1244 C1252 0.929 . S
H1245 C1254 0.930 . S
H1246 C1256 0.930 . S
H1247 C1259 0.929 . S
H1248 C1262 0.930 . S
H1249 C1264 0.960 . S
H1250 C1264 0.960 . S
H1251 C1264 0.960 . S
C1252 H1244 0.929 . S
C1252 C1253 1.377 . S
C1252 C1254 1.384 . S
C1253 C1252 1.377 . S
C1253 C1259 1.390 . S
C1254 H1245 0.930 . S
C1254 C1252 1.384 . S
C1254 C1255 1.372 . S
C1255 C1254 1.372 . S
C1255 C1256 1.400 . S
C1255 C1260 1.490 . S
C1256 H1246 0.930 . S
C1256 C1255 1.400 . S
C1256 C1259 1.386 . S
H1257 C1273 0.930 . S
H1258 C1274 0.931 . S
C1259 H1247 0.929 . S
C1259 C1253 1.390 . S
C1259 C1256 1.386 . S
C1260 C1255 1.490 . S
C1260 C1262 1.395 . S
C1260 C1263 1.403 1_545 S
H1261 C1267 0.930 . S
C1262 H1248 0.930 . S
C1262 C1260 1.395 . S
C1262 C1265 1.403 . S
C1263 C1260 1.403 1_565 S
C1263 C1264 1.524 . S
C1263 C1267 1.400 . S
C1264 H1249 0.960 . S
C1264 H1250 0.960 . S
C1264 H1251 0.960 . S
C1264 C1263 1.524 . S
C1265 C1262 1.403 . S
C1265 C1266 1.392 1_545 S
C1265 C1269 1.495 . S
C1266 C1265 1.392 1_565 S
C1266 C1267 1.385 . S
C1266 C1268 1.478 . S
C1267 H1261 0.930 . S
C1267 C1263 1.400 . S
C1267 C1266 1.385 . S
C1268 C1266 1.478 . S
C1268 C1270 1.381 . S
C1268 C1274 1.383 . S
C1269 C1265 1.495 . S
C1269 H1275 0.959 . S
C1269 H1276 0.961 . S
C1269 H1277 0.960 . S
C1270 C1268 1.381 . S
C1270 C1271 1.394 . S
C1270 H1278 0.930 . S
C1271 C1270 1.394 . S
C1271 C1272 1.383 . S
C1271 H1279 0.929 . S
C1272 C1271 1.383 . S
C1272 C1273 1.377 . S
C1273 H1257 0.930 . S
C1273 C1272 1.377 . S
C1273 C1274 1.379 . S
C1274 H1258 0.931 . S
C1274 C1268 1.383 . S
C1274 C1273 1.379 . S
H1275 C1269 0.959 . S
H1276 C1269 0.961 . S
H1277 C1269 0.960 . S
H1278 C1270 0.930 . S
H1279 C1271 0.929 . S
H1280 C1288 0.929 . S
H1281 C1290 0.930 . S
H1282 C1292 0.930 . S
H1283 C1295 0.929 . S
H1284 C1298 0.930 . S
H1285 C1300 0.960 1_455 S
H1286 C1300 0.960 . S
H1287 C1300 0.960 . S
C1288 H1280 0.929 . S
C1288 C1289 1.377 . S
C1288 C1290 1.384 . S
C1289 C1288 1.377 . S
C1289 C1295 1.390 . S
C1290 H1281 0.930 . S
C1290 C1288 1.384 . S
C1290 C1291 1.372 . S
C1291 C1290 1.372 . S
C1291 C1292 1.400 . S
C1291 C1296 1.490 . S
C1292 H1282 0.930 . S
C1292 C1291 1.400 . S
C1292 C1295 1.386 . S
H1293 C1309 0.930 . S
H1294 C1310 0.931 . S
C1295 H1283 0.929 . S
C1295 C1289 1.390 . S
C1295 C1292 1.386 . S
C1296 C1291 1.490 . S
C1296 C1298 1.395 . S
C1296 C1299 1.403 . S
H1297 C1303 0.930 . S
C1298 H1284 0.930 . S
C1298 C1296 1.395 . S
C1298 C1301 1.395 1_655 S
C1299 C1296 1.403 . S
C1299 C1300 1.524 . S
C1299 C1303 1.400 1_655 S
C1300 H1285 0.960 1_655 S
C1300 H1286 0.960 . S
C1300 H1287 0.960 . S
C1300 C1299 1.524 . S
C1301 C1298 1.395 1_455 S
C1301 C1302 1.401 . S
C1301 C1305 1.495 . S
C1302 C1301 1.401 . S
C1302 C1303 1.385 . S
C1302 C1304 1.478 . S
C1303 H1297 0.930 . S
C1303 C1299 1.400 1_455 S
C1303 C1302 1.385 . S
C1304 C1302 1.478 . S
C1304 C1306 1.381 . S
C1304 C1310 1.383 . S
C1305 C1301 1.495 . S
C1305 H1311 0.924 1_455 S
C1305 H1312 0.982 . S
C1305 H1313 0.976 . S
C1306 C1304 1.381 . S
C1306 C1307 1.394 . S
C1306 H1314 0.930 . S
C1307 C1306 1.394 . S
C1307 C1308 1.383 . S
C1307 H1315 0.929 . S
C1308 C1307 1.383 . S
C1308 C1309 1.377 . S
C1309 H1293 0.930 . S
C1309 C1308 1.377 . S
C1309 C1310 1.379 . S
C1310 H1294 0.931 . S
C1310 C1304 1.383 . S
C1310 C1309 1.379 . S
H1311 C1305 0.924 1_655 S
H1312 C1305 0.982 . S
H1313 C1305 0.976 . S
H1314 C1306 0.930 . S
H1315 C1307 0.929 . S
H1316 C1324 0.929 . S
H1317 C1326 0.930 . S
H1318 C1328 0.930 . S
H1319 C1331 0.929 . S
H1320 C1334 0.930 . S
H1321 C1336 0.960 . S
H1322 C1336 0.960 . S
H1323 C1336 0.960 . S
C1324 H1316 0.929 . S
C1324 C1325 1.377 . S
C1324 C1326 1.384 . S
C1325 C1324 1.377 . S
C1325 C1331 1.390 . S
C1326 H1317 0.930 . S
C1326 C1324 1.384 . S
C1326 C1327 1.372 . S
C1327 C1326 1.372 . S
C1327 C1328 1.400 . S
C1327 C1332 1.490 . S
C1328 H1318 0.930 . S
C1328 C1327 1.400 . S
C1328 C1331 1.386 . S
H1329 C1345 0.930 . S
H1330 C1346 0.931 . S
C1331 H1319 0.929 . S
C1331 C1325 1.390 . S
C1331 C1328 1.386 . S
C1332 C1327 1.490 . S
C1332 C1334 1.395 . S
C1332 C1335 1.403 . S
H1333 C1339 0.930 . S
C1334 H1320 0.930 . S
C1334 C1332 1.395 . S
C1334 C1337 1.403 1_455 S
C1335 C1332 1.403 . S
C1335 C1336 1.524 . S
C1335 C1339 1.400 1_455 S
C1336 H1321 0.960 . S
C1336 H1322 0.960 . S
C1336 H1323 0.960 . S
C1336 C1335 1.524 . S
C1337 C1334 1.403 1_655 S
C1337 C1338 1.392 . S
C1337 C1341 1.495 . S
C1338 C1337 1.392 . S
C1338 C1339 1.385 . S
C1338 C1340 1.478 . S
C1339 H1333 0.930 . S
C1339 C1335 1.400 1_655 S
C1339 C1338 1.385 . S
C1340 C1338 1.478 . S
C1340 C1342 1.381 . S
C1340 C1346 1.383 . S
C1341 C1337 1.495 . S
C1341 H1347 0.959 . S
C1341 H1348 0.961 . S
C1341 H1349 0.960 . S
C1342 C1340 1.381 . S
C1342 C1343 1.394 . S
C1342 H1350 0.930 . S
C1343 C1342 1.394 . S
C1343 C1344 1.383 . S
C1343 H1351 0.929 . S
C1344 C1343 1.383 . S
C1344 C1345 1.377 . S
C1345 H1329 0.930 . S
C1345 C1344 1.377 . S
C1345 C1346 1.379 . S
C1346 H1330 0.931 . S
C1346 C1340 1.383 . S
C1346 C1345 1.379 . S
H1347 C1341 0.959 . S
H1348 C1341 0.961 . S
H1349 C1341 0.960 . S
H1350 C1342 0.930 . S
H1351 C1343 0.929 . S
H1352 C1360 0.929 . S
H1353 C1362 0.930 . S
H1354 C1364 0.930 . S
H1355 C1367 0.929 . S
H1356 C1370 0.930 . S
H1357 C1372 0.960 . S
H1358 C1372 0.960 . S
H1359 C1372 0.960 . S
C1360 H1352 0.929 . S
C1360 C1361 1.377 . S
C1360 C1362 1.384 . S
C1361 C1360 1.377 . S
C1361 C1367 1.390 . S
C1362 H1353 0.930 . S
C1362 C1360 1.384 . S
C1362 C1363 1.372 . S
C1363 C1362 1.372 . S
C1363 C1364 1.400 . S
C1363 C1368 1.490 . S
C1364 H1354 0.930 . S
C1364 C1363 1.400 . S
C1364 C1367 1.386 . S
H1365 C1381 0.930 . S
H1366 C1382 0.931 . S
C1367 H1355 0.929 . S
C1367 C1361 1.390 . S
C1367 C1364 1.386 . S
C1368 C1363 1.490 . S
C1368 C1370 1.395 . S
C1368 C1371 1.403 . S
H1369 C1375 0.930 . S
C1370 H1356 0.930 . S
C1370 C1368 1.395 . S
C1370 C1373 1.403 1_655 S
C1371 C1368 1.403 . S
C1371 C1372 1.524 . S
C1371 C1375 1.400 1_655 S
C1372 H1357 0.960 . S
C1372 H1358 0.960 . S
C1372 H1359 0.960 . S
C1372 C1371 1.524 . S
C1373 C1370 1.403 1_455 S
C1373 C1374 1.392 . S
C1373 C1377 1.495 . S
C1374 C1373 1.392 . S
C1374 C1375 1.385 . S
C1374 C1376 1.478 . S
C1375 H1369 0.930 . S
C1375 C1371 1.400 1_455 S
C1375 C1374 1.385 . S
C1376 C1374 1.478 . S
C1376 C1378 1.381 . S
C1376 C1382 1.383 . S
C1377 C1373 1.495 . S
C1377 H1383 0.959 . S
C1377 H1384 0.961 . S
C1377 H1385 0.960 . S
C1378 C1376 1.381 . S
C1378 C1379 1.394 . S
C1378 H1386 0.930 . S
C1379 C1378 1.394 . S
C1379 C1380 1.383 . S
C1379 H1387 0.929 . S
C1380 C1379 1.383 . S
C1380 C1381 1.377 . S
C1381 H1365 0.930 . S
C1381 C1380 1.377 . S
C1381 C1382 1.379 . S
C1382 H1366 0.931 . S
C1382 C1376 1.383 . S
C1382 C1381 1.379 . S
H1383 C1377 0.959 . S
H1384 C1377 0.961 . S
H1385 C1377 0.960 . S
H1386 C1378 0.930 . S
H1387 C1379 0.929 . S
H1388 C1396 0.929 . S
H1389 C1398 0.930 . S
H1390 C1400 0.930 . S
H1391 C1403 0.929 . S
H1392 C1406 0.930 . S
H1393 C1408 0.960 1_655 S
H1394 C1408 0.960 . S
H1395 C1408 0.960 . S
C1396 H1388 0.929 . S
C1396 C1397 1.377 . S
C1396 C1398 1.384 . S
C1397 C1396 1.377 . S
C1397 C1403 1.390 . S
C1398 H1389 0.930 . S
C1398 C1396 1.384 . S
C1398 C1399 1.372 . S
C1399 C1398 1.372 . S
C1399 C1400 1.400 . S
C1399 C1404 1.490 . S
C1400 H1390 0.930 . S
C1400 C1399 1.400 . S
C1400 C1403 1.386 . S
H1401 C1417 0.930 . S
H1402 C1418 0.931 . S
C1403 H1391 0.929 . S
C1403 C1397 1.390 . S
C1403 C1400 1.386 . S
C1404 C1399 1.490 . S
C1404 C1406 1.395 . S
C1404 C1407 1.403 . S
H1405 C1411 0.930 . S
C1406 H1392 0.930 . S
C1406 C1404 1.395 . S
C1406 C1409 1.404 1_455 S
C1407 C1404 1.403 . S
C1407 C1408 1.524 . S
C1407 C1411 1.400 1_455 S
C1408 H1393 0.960 1_455 S
C1408 H1394 0.960 . S
C1408 H1395 0.960 . S
C1408 C1407 1.524 . S
C1409 C1406 1.404 1_655 S
C1409 C1410 1.391 . S
C1409 C1413 1.495 . S
C1410 C1409 1.391 . S
C1410 C1411 1.385 . S
C1410 C1412 1.478 . S
C1411 H1405 0.930 . S
C1411 C1407 1.400 1_655 S
C1411 C1410 1.385 . S
C1412 C1410 1.478 . S
C1412 C1414 1.381 . S
C1412 C1418 1.383 . S
C1413 C1409 1.495 . S
C1413 H1419 0.949 1_655 S
C1413 H1420 0.966 . S
C1413 H1421 0.965 . S
C1414 C1412 1.381 . S
C1414 C1415 1.394 . S
C1414 H1422 0.930 . S
C1415 C1414 1.394 . S
C1415 C1416 1.383 . S
C1415 H1423 0.929 . S
C1416 C1415 1.383 . S
C1416 C1417 1.377 . S
C1417 H1401 0.930 . S
C1417 C1416 1.377 . S
C1417 C1418 1.379 . S
C1418 H1402 0.931 . S
C1418 C1412 1.383 . S
C1418 C1417 1.379 . S
H1419 C1413 0.949 1_455 S
H1420 C1413 0.966 . S
H1421 C1413 0.965 . S
H1422 C1414 0.930 . S
H1423 C1415 0.929 . S
H1424 C1432 0.929 . S
H1425 C1434 0.930 . S
H1426 C1436 0.930 . S
H1427 C1439 0.929 . S
H1428 C1442 0.930 . S
H1429 C1444 0.960 . S
H1430 C1444 0.960 . S
H1431 C1444 0.960 . S
C1432 H1424 0.929 . S
C1432 C1433 1.377 . S
C1432 C1434 1.384 . S
C1433 C1432 1.377 . S
C1433 C1439 1.390 . S
C1434 H1425 0.930 . S
C1434 C1432 1.384 . S
C1434 C1435 1.372 . S
C1435 C1434 1.372 . S
C1435 C1436 1.400 . S
C1435 C1440 1.490 . S
C1436 H1426 0.930 . S
C1436 C1435 1.400 . S
C1436 C1439 1.386 . S
H1437 C1453 0.930 . S
H1438 C1454 0.931 . S
C1439 H1427 0.929 . S
C1439 C1433 1.390 . S
C1439 C1436 1.386 . S
C1440 C1435 1.490 . S
C1440 C1442 1.395 . S
C1440 C1443 1.403 . S
H1441 C1447 0.930 . S
C1442 H1428 0.930 . S
C1442 C1440 1.395 . S
C1442 C1445 1.403 . S
C1443 C1440 1.403 . S
C1443 C1444 1.524 . S
C1443 C1447 1.400 . S
C1444 H1429 0.960 . S
C1444 H1430 0.960 . S
C1444 H1431 0.960 . S
C1444 C1443 1.524 . S
C1445 C1442 1.403 . S
C1445 C1446 1.392 . S
C1445 C1449 1.495 . S
C1446 C1445 1.392 . S
C1446 C1447 1.385 . S
C1446 C1448 1.478 . S
C1447 H1441 0.930 . S
C1447 C1443 1.400 . S
C1447 C1446 1.385 . S
C1448 C1446 1.478 . S
C1448 C1450 1.381 . S
C1448 C1454 1.383 . S
C1449 C1445 1.495 . S
C1449 H1455 0.959 . S
C1449 H1456 0.961 . S
C1449 H1457 0.960 . S
C1450 C1448 1.381 . S
C1450 C1451 1.394 . S
C1450 H1458 0.930 . S
C1451 C1450 1.394 . S
C1451 C1452 1.383 . S
C1451 H1459 0.929 . S
C1452 C1451 1.383 . S
C1452 C1453 1.377 . S
C1453 H1437 0.930 . S
C1453 C1452 1.377 . S
C1453 C1454 1.379 . S
C1454 H1438 0.931 . S
C1454 C1448 1.383 . S
C1454 C1453 1.379 . S
H1455 C1449 0.959 . S
H1456 C1449 0.961 . S
H1457 C1449 0.960 . S
H1458 C1450 0.930 . S
H1459 C1451 0.929 . S
H1460 C1468 0.929 . S
H1461 C1470 0.930 . S
H1462 C1472 0.930 . S
H1463 C1475 0.929 . S
H1464 C1478 0.930 . S
H1465 C1480 0.960 . S
H1466 C1480 0.960 . S
H1467 C1480 0.960 . S
C1468 H1460 0.929 . S
C1468 C1469 1.377 . S
C1468 C1470 1.384 . S
C1469 C1468 1.377 . S
C1469 C1475 1.390 . S
C1470 H1461 0.930 . S
C1470 C1468 1.384 . S
C1470 C1471 1.372 . S
C1471 C1470 1.372 . S
C1471 C1472 1.400 . S
C1471 C1476 1.490 . S
C1472 H1462 0.930 . S
C1472 C1471 1.400 . S
C1472 C1475 1.386 . S
H1473 C1489 0.930 . S
H1474 C1490 0.931 . S
C1475 H1463 0.929 . S
C1475 C1469 1.390 . S
C1475 C1472 1.386 . S
C1476 C1471 1.490 . S
C1476 C1478 1.395 . S
C1476 C1479 1.403 . S
H1477 C1483 0.930 . S
C1478 H1464 0.930 . S
C1478 C1476 1.395 . S
C1478 C1481 1.403 . S
C1479 C1476 1.403 . S
C1479 C1480 1.524 . S
C1479 C1483 1.400 . S
C1480 H1465 0.960 . S
C1480 H1466 0.960 . S
C1480 H1467 0.960 . S
C1480 C1479 1.524 . S
C1481 C1478 1.403 . S
C1481 C1482 1.392 . S
C1481 C1485 1.495 . S
C1482 C1481 1.392 . S
C1482 C1483 1.385 . S
C1482 C1484 1.478 . S
C1483 H1477 0.930 . S
C1483 C1479 1.400 . S
C1483 C1482 1.385 . S
C1484 C1482 1.478 . S
C1484 C1486 1.381 . S
C1484 C1490 1.383 . S
C1485 C1481 1.495 . S
C1485 H1491 0.959 . S
C1485 H1492 0.961 . S
C1485 H1493 0.960 . S
C1486 C1484 1.381 . S
C1486 C1487 1.394 . S
C1486 H1494 0.930 . S
C1487 C1486 1.394 . S
C1487 C1488 1.383 . S
C1487 H1495 0.929 . S
C1488 C1487 1.383 . S
C1488 C1489 1.377 . S
C1489 H1473 0.930 . S
C1489 C1488 1.377 . S
C1489 C1490 1.379 . S
C1490 H1474 0.931 . S
C1490 C1484 1.383 . S
C1490 C1489 1.379 . S
H1491 C1485 0.959 . S
H1492 C1485 0.961 . S
H1493 C1485 0.960 . S
H1494 C1486 0.930 . S
H1495 C1487 0.929 . S
H1496 C1504 0.929 . S
H1497 C1506 0.930 . S
H1498 C1508 0.930 . S
H1499 C1511 0.929 . S
H1500 C1514 0.930 . S
H1501 C1516 0.960 . S
H1502 C1516 0.960 . S
H1503 C1516 0.960 . S
C1504 H1496 0.929 . S
C1504 C1505 1.377 . S
C1504 C1506 1.384 . S
C1505 C1504 1.377 . S
C1505 C1511 1.390 . S
C1506 H1497 0.930 . S
C1506 C1504 1.384 . S
C1506 C1507 1.372 . S
C1507 C1506 1.372 . S
C1507 C1508 1.400 . S
C1507 C1512 1.490 . S
C1508 H1498 0.930 . S
C1508 C1507 1.400 . S
C1508 C1511 1.386 . S
H1509 C1525 0.930 . S
H1510 C1526 0.931 . S
C1511 H1499 0.929 . S
C1511 C1505 1.390 . S
C1511 C1508 1.386 . S
C1512 C1507 1.490 . S
C1512 C1514 1.395 . S
C1512 C1515 1.403 . S
H1513 C1519 0.930 . S
C1514 H1500 0.930 . S
C1514 C1512 1.395 . S
C1514 C1517 1.403 . S
C1515 C1512 1.403 . S
C1515 C1516 1.524 . S
C1515 C1519 1.400 . S
C1516 H1501 0.960 . S
C1516 H1502 0.960 . S
C1516 H1503 0.960 . S
C1516 C1515 1.524 . S
C1517 C1514 1.403 . S
C1517 C1518 1.392 . S
C1517 C1521 1.495 . S
C1518 C1517 1.392 . S
C1518 C1519 1.385 . S
C1518 C1520 1.478 . S
C1519 H1513 0.930 . S
C1519 C1515 1.400 . S
C1519 C1518 1.385 . S
C1520 C1518 1.478 . S
C1520 C1522 1.381 . S
C1520 C1526 1.383 . S
C1521 C1517 1.495 . S
C1521 H1527 0.959 . S
C1521 H1528 0.961 . S
C1521 H1529 0.960 . S
C1522 C1520 1.381 . S
C1522 C1523 1.394 . S
C1522 H1530 0.930 . S
C1523 C1522 1.394 . S
C1523 C1524 1.383 . S
C1523 H1531 0.929 . S
C1524 C1523 1.383 . S
C1524 C1525 1.377 . S
C1525 H1509 0.930 . S
C1525 C1524 1.377 . S
C1525 C1526 1.379 . S
C1526 H1510 0.931 . S
C1526 C1520 1.383 . S
C1526 C1525 1.379 . S
H1527 C1521 0.959 . S
H1528 C1521 0.961 . S
H1529 C1521 0.960 . S
H1530 C1522 0.930 . S
H1531 C1523 0.929 . S
H1532 C1540 0.929 . S
H1533 C1542 0.930 . S
H1534 C1544 0.930 . S
H1535 C1547 0.929 . S
H1536 C1550 0.930 . S
H1537 C1552 0.960 . S
H1538 C1552 0.960 . S
H1539 C1552 0.960 . S
C1540 H1532 0.929 . S
C1540 C1541 1.377 . S
C1540 C1542 1.384 . S
C1541 C1540 1.377 . S
C1541 C1547 1.390 . S
C1542 H1533 0.930 . S
C1542 C1540 1.384 . S
C1542 C1543 1.372 . S
C1543 C1542 1.372 . S
C1543 C1544 1.400 . S
C1543 C1548 1.490 . S
C1544 H1534 0.930 . S
C1544 C1543 1.400 . S
C1544 C1547 1.386 . S
H1545 C1561 0.930 . S
H1546 C1562 0.931 . S
C1547 H1535 0.929 . S
C1547 C1541 1.390 . S
C1547 C1544 1.386 . S
C1548 C1543 1.490 . S
C1548 C1550 1.395 . S
C1548 C1551 1.403 . S
H1549 C1555 0.930 . S
C1550 H1536 0.930 . S
C1550 C1548 1.395 . S
C1550 C1553 1.403 . S
C1551 C1548 1.403 . S
C1551 C1552 1.524 . S
C1551 C1555 1.400 . S
C1552 H1537 0.960 . S
C1552 H1538 0.960 . S
C1552 H1539 0.960 . S
C1552 C1551 1.524 . S
C1553 C1550 1.403 . S
C1553 C1554 1.392 . S
C1553 C1557 1.495 . S
C1554 C1553 1.392 . S
C1554 C1555 1.385 . S
C1554 C1556 1.478 . S
C1555 H1549 0.930 . S
C1555 C1551 1.400 . S
C1555 C1554 1.385 . S
C1556 C1554 1.478 . S
C1556 C1558 1.381 . S
C1556 C1562 1.383 . S
C1557 C1553 1.495 . S
C1557 H1563 0.959 . S
C1557 H1564 0.961 . S
C1557 H1565 0.960 . S
C1558 C1556 1.381 . S
C1558 C1559 1.394 . S
C1558 H1566 0.930 . S
C1559 C1558 1.394 . S
C1559 C1560 1.383 . S
C1559 H1567 0.929 . S
C1560 C1559 1.383 . S
C1560 C1561 1.377 . S
C1561 H1545 0.930 . S
C1561 C1560 1.377 . S
C1561 C1562 1.379 . S
C1562 H1546 0.931 . S
C1562 C1556 1.383 . S
C1562 C1561 1.379 . S
H1563 C1557 0.959 . S
H1564 C1557 0.961 . S
H1565 C1557 0.960 . S
H1566 C1558 0.930 . S
H1567 C1559 0.929 . S
H1568 C1576 0.929 . S
H1569 C1578 0.930 . S
H1570 C1580 0.930 . S
H1571 C1583 0.929 . S
H1572 C1586 0.930 . S
H1573 C1588 0.960 . S
H1574 C1588 0.960 . S
H1575 C1588 0.960 . S
C1576 H1568 0.929 . S
C1576 C1577 1.377 . S
C1576 C1578 1.384 . S
C1577 C1576 1.377 . S
C1577 C1583 1.390 . S
C1578 H1569 0.930 . S
C1578 C1576 1.384 . S
C1578 C1579 1.372 . S
C1579 C1578 1.372 . S
C1579 C1580 1.400 . S
C1579 C1584 1.490 . S
C1580 H1570 0.930 . S
C1580 C1579 1.400 . S
C1580 C1583 1.386 . S
H1581 C1597 0.930 . S
H1582 C1598 0.931 . S
C1583 H1571 0.929 . S
C1583 C1577 1.390 . S
C1583 C1580 1.386 . S
C1584 C1579 1.490 . S
C1584 C1586 1.395 . S
C1584 C1587 1.403 . S
H1585 C1591 0.930 . S
C1586 H1572 0.930 . S
C1586 C1584 1.395 . S
C1586 C1589 1.403 . S
C1587 C1584 1.403 . S
C1587 C1588 1.524 . S
C1587 C1591 1.400 . S
C1588 H1573 0.960 . S
C1588 H1574 0.960 . S
C1588 H1575 0.960 . S
C1588 C1587 1.524 . S
C1589 C1586 1.403 . S
C1589 C1590 1.392 . S
C1589 C1593 1.495 . S
C1590 C1589 1.392 . S
C1590 C1591 1.385 . S
C1590 C1592 1.478 . S
C1591 H1585 0.930 . S
C1591 C1587 1.400 . S
C1591 C1590 1.385 . S
C1592 C1590 1.478 . S
C1592 C1594 1.381 . S
C1592 C1598 1.383 . S
C1593 C1589 1.495 . S
C1593 H1599 0.959 . S
C1593 H1600 0.961 . S
C1593 H1601 0.960 . S
C1594 C1592 1.381 . S
C1594 C1595 1.394 . S
C1594 H1602 0.930 . S
C1595 C1594 1.394 . S
C1595 C1596 1.383 . S
C1595 H1603 0.929 . S
C1596 C1595 1.383 . S
C1596 C1597 1.377 . S
C1597 H1581 0.930 . S
C1597 C1596 1.377 . S
C1597 C1598 1.379 . S
C1598 H1582 0.931 . S
C1598 C1592 1.383 . S
C1598 C1597 1.379 . S
H1599 C1593 0.959 . S
H1600 C1593 0.961 . S
H1601 C1593 0.960 . S
H1602 C1594 0.930 . S
H1603 C1595 0.929 . S
H1604 C1612 0.929 . S
H1605 C1614 0.930 . S
H1606 C1616 0.930 . S
H1607 C1619 0.929 . S
H1608 C1622 0.930 . S
H1609 C1624 0.960 . S
H1610 C1624 0.960 . S
H1611 C1624 0.960 . S
C1612 H1604 0.929 . S
C1612 C1613 1.377 . S
C1612 C1614 1.384 . S
C1613 C1612 1.377 . S
C1613 C1619 1.390 . S
C1614 H1605 0.930 . S
C1614 C1612 1.384 . S
C1614 C1615 1.372 . S
C1615 C1614 1.372 . S
C1615 C1616 1.400 . S
C1615 C1620 1.490 . S
C1616 H1606 0.930 . S
C1616 C1615 1.400 . S
C1616 C1619 1.386 . S
H1617 C1633 0.930 . S
H1618 C1634 0.931 . S
C1619 H1607 0.929 . S
C1619 C1613 1.390 . S
C1619 C1616 1.386 . S
C1620 C1615 1.490 . S
C1620 C1622 1.395 . S
C1620 C1623 1.403 . S
H1621 C1627 0.930 . S
C1622 H1608 0.930 . S
C1622 C1620 1.395 . S
C1622 C1625 1.403 . S
C1623 C1620 1.403 . S
C1623 C1624 1.524 . S
C1623 C1627 1.400 . S
C1624 H1609 0.960 . S
C1624 H1610 0.960 . S
C1624 H1611 0.960 . S
C1624 C1623 1.524 . S
C1625 C1622 1.403 . S
C1625 C1626 1.392 . S
C1625 C1629 1.495 . S
C1626 C1625 1.392 . S
C1626 C1627 1.385 . S
C1626 C1628 1.478 . S
C1627 H1621 0.930 . S
C1627 C1623 1.400 . S
C1627 C1626 1.385 . S
C1628 C1626 1.478 . S
C1628 C1630 1.381 . S
C1628 C1634 1.383 . S
C1629 C1625 1.495 . S
C1629 H1635 0.959 . S
C1629 H1636 0.961 . S
C1629 H1637 0.960 . S
C1630 C1628 1.381 . S
C1630 C1631 1.394 . S
C1630 H1638 0.930 . S
C1631 C1630 1.394 . S
C1631 C1632 1.383 . S
C1631 H1639 0.929 . S
C1632 C1631 1.383 . S
C1632 C1633 1.377 . S
C1633 H1617 0.930 . S
C1633 C1632 1.377 . S
C1633 C1634 1.379 . S
C1634 H1618 0.931 . S
C1634 C1628 1.383 . S
C1634 C1633 1.379 . S
H1635 C1629 0.959 . S
H1636 C1629 0.961 . S
H1637 C1629 0.960 . S
H1638 C1630 0.930 . S
H1639 C1631 0.929 . S
H1640 C1648 0.929 . S
H1641 C1650 0.930 . S
H1642 C1652 0.930 . S
H1643 C1655 0.929 . S
H1644 C1658 0.930 . S
H1645 C1660 0.960 . S
H1646 C1660 0.960 . S
H1647 C1660 0.960 . S
C1648 H1640 0.929 . S
C1648 C1649 1.377 . S
C1648 C1650 1.384 . S
C1649 C1648 1.377 . S
C1649 C1655 1.390 . S
C1650 H1641 0.930 . S
C1650 C1648 1.384 . S
C1650 C1651 1.372 . S
C1651 C1650 1.372 . S
C1651 C1652 1.400 . S
C1651 C1656 1.490 . S
C1652 H1642 0.930 . S
C1652 C1651 1.400 . S
C1652 C1655 1.386 . S
H1653 C1669 0.930 . S
H1654 C1670 0.931 . S
C1655 H1643 0.929 . S
C1655 C1649 1.390 . S
C1655 C1652 1.386 . S
C1656 C1651 1.490 . S
C1656 C1658 1.395 . S
C1656 C1659 1.403 . S
H1657 C1663 0.930 . S
C1658 H1644 0.930 . S
C1658 C1656 1.395 . S
C1658 C1661 1.403 . S
C1659 C1656 1.403 . S
C1659 C1660 1.524 . S
C1659 C1663 1.400 . S
C1660 H1645 0.960 . S
C1660 H1646 0.960 . S
C1660 H1647 0.960 . S
C1660 C1659 1.524 . S
C1661 C1658 1.403 . S
C1661 C1662 1.392 . S
C1661 C1665 1.495 . S
C1662 C1661 1.392 . S
C1662 C1663 1.385 . S
C1662 C1664 1.478 . S
C1663 H1657 0.930 . S
C1663 C1659 1.400 . S
C1663 C1662 1.385 . S
C1664 C1662 1.478 . S
C1664 C1666 1.381 . S
C1664 C1670 1.383 . S
C1665 C1661 1.495 . S
C1665 H1671 0.959 . S
C1665 H1672 0.961 . S
C1665 H1673 0.960 . S
C1666 C1664 1.381 . S
C1666 C1667 1.394 . S
C1666 H1674 0.930 . S
C1667 C1666 1.394 . S
C1667 C1668 1.383 . S
C1667 H1675 0.929 . S
C1668 C1667 1.383 . S
C1668 C1669 1.377 . S
C1669 H1653 0.930 . S
C1669 C1668 1.377 . S
C1669 C1670 1.379 . S
C1670 H1654 0.931 . S
C1670 C1664 1.383 . S
C1670 C1669 1.379 . S
H1671 C1665 0.959 . S
H1672 C1665 0.961 . S
H1673 C1665 0.960 . S
H1674 C1666 0.930 . S
H1675 C1667 0.929 . S
H1676 C1684 0.929 . S
H1677 C1686 0.930 . S
H1678 C1688 0.930 . S
H1679 C1691 0.929 . S
H1680 C1694 0.930 . S
H1681 C1696 0.960 . S
H1682 C1696 0.960 . S
H1683 C1696 0.960 . S
C1684 H1676 0.929 . S
C1684 C1685 1.377 . S
C1684 C1686 1.384 . S
C1685 C1684 1.377 . S
C1685 C1691 1.390 . S
C1686 H1677 0.930 . S
C1686 C1684 1.384 . S
C1686 C1687 1.372 . S
C1687 C1686 1.372 . S
C1687 C1688 1.400 . S
C1687 C1692 1.490 . S
C1688 H1678 0.930 . S
C1688 C1687 1.400 . S
C1688 C1691 1.386 . S
H1689 C1705 0.930 . S
H1690 C1706 0.931 . S
C1691 H1679 0.929 . S
C1691 C1685 1.390 . S
C1691 C1688 1.386 . S
C1692 C1687 1.490 . S
C1692 C1694 1.395 . S
C1692 C1695 1.403 . S
H1693 C1699 0.930 . S
C1694 H1680 0.930 . S
C1694 C1692 1.395 . S
C1694 C1697 1.403 . S
C1695 C1692 1.403 . S
C1695 C1696 1.524 . S
C1695 C1699 1.400 . S
C1696 H1681 0.960 . S
C1696 H1682 0.960 . S
C1696 H1683 0.960 . S
C1696 C1695 1.524 . S
C1697 C1694 1.403 . S
C1697 C1698 1.392 . S
C1697 C1701 1.495 . S
C1698 C1697 1.392 . S
C1698 C1699 1.385 . S
C1698 C1700 1.478 . S
C1699 H1693 0.930 . S
C1699 C1695 1.400 . S
C1699 C1698 1.385 . S
C1700 C1698 1.478 . S
C1700 C1702 1.381 . S
C1700 C1706 1.383 . S
C1701 C1697 1.495 . S
C1701 H1707 0.959 . S
C1701 H1708 0.961 . S
C1701 H1709 0.960 . S
C1702 C1700 1.381 . S
C1702 C1703 1.394 . S
C1702 H1710 0.930 . S
C1703 C1702 1.394 . S
C1703 C1704 1.383 . S
C1703 H1711 0.929 . S
C1704 C1703 1.383 . S
C1704 C1705 1.377 . S
C1705 H1689 0.930 . S
C1705 C1704 1.377 . S
C1705 C1706 1.379 . S
C1706 H1690 0.931 . S
C1706 C1700 1.383 . S
C1706 C1705 1.379 . S
H1707 C1701 0.959 . S
H1708 C1701 0.961 . S
H1709 C1701 0.960 . S
H1710 C1702 0.930 . S
H1711 C1703 0.929 . S
H1712 C1720 0.929 . S
H1713 C1722 0.930 . S
H1714 C1724 0.930 . S
H1715 C1727 0.929 . S
H1716 C1730 0.930 . S
H1717 C1732 0.960 . S
H1718 C1732 0.960 . S
H1719 C1732 0.960 . S
C1720 H1712 0.929 . S
C1720 C1721 1.377 . S
C1720 C1722 1.384 . S
C1721 C1720 1.377 . S
C1721 C1727 1.390 . S
C1722 H1713 0.930 . S
C1722 C1720 1.384 . S
C1722 C1723 1.372 . S
C1723 C1722 1.372 . S
C1723 C1724 1.400 . S
C1723 C1728 1.490 . S
C1724 H1714 0.930 . S
C1724 C1723 1.400 . S
C1724 C1727 1.386 . S
H1725 C1741 0.930 . S
H1726 C1742 0.931 . S
C1727 H1715 0.929 . S
C1727 C1721 1.390 . S
C1727 C1724 1.386 . S
C1728 C1723 1.490 . S
C1728 C1730 1.395 . S
C1728 C1731 1.403 . S
H1729 C1735 0.930 . S
C1730 H1716 0.930 . S
C1730 C1728 1.395 . S
C1730 C1733 1.403 1_545 S
C1731 C1728 1.403 . S
C1731 C1732 1.524 . S
C1731 C1735 1.400 1_545 S
C1732 H1717 0.960 . S
C1732 H1718 0.960 . S
C1732 H1719 0.960 . S
C1732 C1731 1.524 . S
C1733 C1730 1.403 1_565 S
C1733 C1734 1.392 . S
C1733 C1737 1.495 . S
C1734 C1733 1.392 . S
C1734 C1735 1.385 . S
C1734 C1736 1.478 . S
C1735 H1729 0.930 . S
C1735 C1731 1.400 1_565 S
C1735 C1734 1.385 . S
C1736 C1734 1.478 . S
C1736 C1738 1.381 . S
C1736 C1742 1.383 . S
C1737 C1733 1.495 . S
C1737 H1743 0.959 . S
C1737 H1744 0.961 . S
C1737 H1745 0.960 . S
C1738 C1736 1.381 . S
C1738 C1739 1.394 . S
C1738 H1746 0.930 . S
C1739 C1738 1.394 . S
C1739 C1740 1.383 . S
C1739 H1747 0.929 . S
C1740 C1739 1.383 . S
C1740 C1741 1.377 . S
C1741 H1725 0.930 . S
C1741 C1740 1.377 . S
C1741 C1742 1.379 . S
C1742 H1726 0.931 . S
C1742 C1736 1.383 . S
C1742 C1741 1.379 . S
H1743 C1737 0.959 . S
H1744 C1737 0.961 . S
H1745 C1737 0.960 . S
H1746 C1738 0.930 . S
H1747 C1739 0.929 . S
H1748 C1756 0.929 . S
H1749 C1758 0.930 . S
H1750 C1760 0.930 . S
H1751 C1763 0.929 . S
H1752 C1766 0.930 . S
H1753 C1768 0.960 . S
H1754 C1768 0.960 . S
H1755 C1768 0.960 1_545 S
C1756 H1748 0.929 . S
C1756 C1757 1.377 . S
C1756 C1758 1.384 . S
C1757 C1756 1.377 . S
C1757 C1763 1.390 . S
C1758 H1749 0.930 . S
C1758 C1756 1.384 . S
C1758 C1759 1.372 . S
C1759 C1758 1.372 . S
C1759 C1760 1.400 . S
C1759 C1764 1.490 . S
C1760 H1750 0.930 . S
C1760 C1759 1.400 . S
C1760 C1763 1.386 . S
H1761 C1777 0.930 . S
H1762 C1778 0.931 . S
C1763 H1751 0.929 . S
C1763 C1757 1.390 . S
C1763 C1760 1.386 . S
C1764 C1759 1.490 . S
C1764 C1766 1.395 . S
C1764 C1767 1.403 1_545 S
H1765 C1771 0.930 . S
C1766 H1752 0.930 . S
C1766 C1764 1.395 . S
C1766 C1769 1.403 . S
C1767 C1764 1.403 1_565 S
C1767 C1768 1.524 . S
C1767 C1771 1.400 . S
C1768 H1753 0.960 . S
C1768 H1754 0.960 . S
C1768 H1755 0.960 1_565 S
C1768 C1767 1.524 . S
C1769 C1766 1.403 . S
C1769 C1770 1.392 1_545 S
C1769 C1773 1.495 . S
C1770 C1769 1.392 1_565 S
C1770 C1771 1.385 . S
C1770 C1772 1.478 . S
C1771 H1765 0.930 . S
C1771 C1767 1.400 . S
C1771 C1770 1.385 . S
C1772 C1770 1.478 . S
C1772 C1774 1.381 . S
C1772 C1778 1.383 . S
C1773 C1769 1.495 . S
C1773 H1779 0.959 . S
C1773 H1780 0.961 . S
C1773 H1781 0.960 1_545 S
C1774 C1772 1.381 . S
C1774 C1775 1.394 . S
C1774 H1782 0.930 . S
C1775 C1774 1.394 . S
C1775 C1776 1.383 . S
C1775 H1783 0.929 . S
C1776 C1775 1.383 . S
C1776 C1777 1.377 . S
C1777 H1761 0.930 . S
C1777 C1776 1.377 . S
C1777 C1778 1.379 . S
C1778 H1762 0.931 . S
C1778 C1772 1.383 . S
C1778 C1777 1.379 . S
H1779 C1773 0.959 . S
H1780 C1773 0.961 . S
H1781 C1773 0.960 1_565 S
H1782 C1774 0.930 . S
H1783 C1775 0.929 . S
H1784 C1792 0.929 . S
H1785 C1794 0.930 . S
H1786 C1796 0.930 . S
H1787 C1799 0.929 . S
H1788 C1802 0.930 . S
H1789 C1804 0.960 . S
H1790 C1804 0.960 . S
H1791 C1804 0.960 . S
C1792 H1784 0.929 . S
C1792 C1793 1.377 . S
C1792 C1794 1.384 . S
C1793 C1792 1.377 . S
C1793 C1799 1.390 . S
C1794 H1785 0.930 . S
C1794 C1792 1.384 . S
C1794 C1795 1.372 . S
C1795 C1794 1.372 . S
C1795 C1796 1.400 . S
C1795 C1800 1.490 . S
C1796 H1786 0.930 . S
C1796 C1795 1.400 . S
C1796 C1799 1.386 . S
H1797 C1813 0.930 . S
H1798 C1814 0.931 . S
C1799 H1787 0.929 . S
C1799 C1793 1.390 . S
C1799 C1796 1.386 . S
C1800 C1795 1.490 . S
C1800 C1802 1.395 1_545 S
C1800 C1803 1.403 . S
H1801 C1807 0.930 . S
C1802 H1788 0.930 . S
C1802 C1800 1.395 1_565 S
C1802 C1805 1.403 . S
C1803 C1800 1.403 . S
C1803 C1804 1.524 . S
C1803 C1807 1.400 . S
C1804 H1789 0.960 . S
C1804 H1790 0.960 . S
C1804 H1791 0.960 . S
C1804 C1803 1.524 . S
C1805 C1802 1.403 . S
C1805 C1806 1.392 . S
C1805 C1809 1.495 . S
C1806 C1805 1.392 . S
C1806 C1807 1.385 1_565 S
C1806 C1808 1.478 . S
C1807 H1801 0.930 . S
C1807 C1803 1.400 . S
C1807 C1806 1.385 1_545 S
C1808 C1806 1.478 . S
C1808 C1810 1.381 . S
C1808 C1814 1.383 . S
C1809 C1805 1.495 . S
C1809 H1815 0.959 . S
C1809 H1816 0.961 . S
C1809 H1817 0.960 . S
C1810 C1808 1.381 . S
C1810 C1811 1.394 . S
C1810 H1818 0.930 . S
C1811 C1810 1.394 . S
C1811 C1812 1.383 . S
C1811 H1819 0.929 . S
C1812 C1811 1.383 . S
C1812 C1813 1.377 . S
C1813 H1797 0.930 . S
C1813 C1812 1.377 . S
C1813 C1814 1.379 . S
C1814 H1798 0.931 . S
C1814 C1808 1.383 . S
C1814 C1813 1.379 . S
H1815 C1809 0.959 . S
H1816 C1809 0.961 . S
H1817 C1809 0.960 . S
H1818 C1810 0.930 . S
H1819 C1811 0.929 . S
H1820 C1828 0.929 . S
H1821 C1830 0.930 . S
H1822 C1832 0.930 . S
H1823 C1835 0.929 . S
H1824 C1838 0.930 . S
H1825 C1840 0.960 . S
H1826 C1840 0.960 . S
H1827 C1840 0.960 . S
C1828 H1820 0.929 . S
C1828 C1829 1.377 . S
C1828 C1830 1.384 . S
C1829 C1828 1.377 . S
C1829 C1835 1.390 . S
C1830 H1821 0.930 . S
C1830 C1828 1.384 . S
C1830 C1831 1.372 . S
C1831 C1830 1.372 . S
C1831 C1832 1.400 . S
C1831 C1836 1.490 . S
C1832 H1822 0.930 . S
C1832 C1831 1.400 . S
C1832 C1835 1.386 . S
H1833 C1849 0.930 . S
H1834 C1850 0.931 . S
C1835 H1823 0.929 . S
C1835 C1829 1.390 . S
C1835 C1832 1.386 . S
C1836 C1831 1.490 . S
C1836 C1838 1.395 1_565 S
C1836 C1839 1.403 . S
H1837 C1843 0.930 . S
C1838 H1824 0.930 . S
C1838 C1836 1.395 1_545 S
C1838 C1841 1.403 . S
C1839 C1836 1.403 . S
C1839 C1840 1.524 . S
C1839 C1843 1.400 . S
C1840 H1825 0.960 . S
C1840 H1826 0.960 . S
C1840 H1827 0.960 . S
C1840 C1839 1.524 . S
C1841 C1838 1.403 . S
C1841 C1842 1.392 . S
C1841 C1845 1.495 . S
C1842 C1841 1.392 . S
C1842 C1843 1.385 1_545 S
C1842 C1844 1.478 . S
C1843 H1837 0.930 . S
C1843 C1839 1.400 . S
C1843 C1842 1.385 1_565 S
C1844 C1842 1.478 . S
C1844 C1846 1.381 . S
C1844 C1850 1.383 . S
C1845 C1841 1.495 . S
C1845 H1851 0.959 . S
C1845 H1852 0.961 . S
C1845 H1853 0.960 . S
C1846 C1844 1.381 . S
C1846 C1847 1.394 . S
C1846 H1854 0.930 . S
C1847 C1846 1.394 . S
C1847 C1848 1.383 . S
C1847 H1855 0.929 . S
C1848 C1847 1.383 . S
C1848 C1849 1.377 . S
C1849 H1833 0.930 . S
C1849 C1848 1.377 . S
C1849 C1850 1.379 . S
C1850 H1834 0.931 . S
C1850 C1844 1.383 . S
C1850 C1849 1.379 . S
H1851 C1845 0.959 . S
H1852 C1845 0.961 . S
H1853 C1845 0.960 . S
H1854 C1846 0.930 . S
H1855 C1847 0.929 . S
H1856 C1864 0.929 . S
H1857 C1866 0.930 . S
H1858 C1868 0.930 . S
H1859 C1871 0.929 . S
H1860 C1874 0.930 . S
H1861 C1876 0.960 . S
H1862 C1876 0.960 . S
H1863 C1876 0.960 . S
C1864 H1856 0.929 . S
C1864 C1865 1.377 . S
C1864 C1866 1.384 . S
C1865 C1864 1.377 . S
C1865 C1871 1.390 . S
C1866 H1857 0.930 . S
C1866 C1864 1.384 . S
C1866 C1867 1.372 . S
C1867 C1866 1.372 . S
C1867 C1868 1.400 . S
C1867 C1872 1.490 . S
C1868 H1858 0.930 . S
C1868 C1867 1.400 . S
C1868 C1871 1.386 . S
H1869 C1885 0.930 . S
H1870 C1886 0.931 . S
C1871 H1859 0.929 . S
C1871 C1865 1.390 . S
C1871 C1868 1.386 . S
C1872 C1867 1.490 . S
C1872 C1874 1.395 . S
C1872 C1875 1.403 . S
H1873 C1879 0.930 . S
C1874 H1860 0.930 . S
C1874 C1872 1.395 . S
C1874 C1877 1.403 . S
C1875 C1872 1.403 . S
C1875 C1876 1.524 . S
C1875 C1879 1.400 . S
C1876 H1861 0.960 . S
C1876 H1862 0.960 . S
C1876 H1863 0.960 . S
C1876 C1875 1.524 . S
C1877 C1874 1.403 . S
C1877 C1878 1.392 . S
C1877 C1881 1.495 . S
C1878 C1877 1.392 . S
C1878 C1879 1.385 . S
C1878 C1880 1.478 . S
C1879 H1873 0.930 . S
C1879 C1875 1.400 . S
C1879 C1878 1.385 . S
C1880 C1878 1.478 . S
C1880 C1882 1.381 . S
C1880 C1886 1.383 . S
C1881 C1877 1.495 . S
C1881 H1887 0.959 . S
C1881 H1888 0.961 . S
C1881 H1889 0.960 . S
C1882 C1880 1.381 . S
C1882 C1883 1.394 . S
C1882 H1890 0.930 . S
C1883 C1882 1.394 . S
C1883 C1884 1.383 . S
C1883 H1891 0.929 . S
C1884 C1883 1.383 . S
C1884 C1885 1.377 . S
C1885 H1869 0.930 . S
C1885 C1884 1.377 . S
C1885 C1886 1.379 . S
C1886 H1870 0.931 . S
C1886 C1880 1.383 . S
C1886 C1885 1.379 . S
H1887 C1881 0.959 . S
H1888 C1881 0.961 . S
H1889 C1881 0.960 . S
H1890 C1882 0.930 . S
H1891 C1883 0.929 . S
H1892 C1900 0.929 . S
H1893 C1902 0.930 . S
H1894 C1904 0.930 . S
H1895 C1907 0.929 . S
H1896 C1910 0.930 . S
H1897 C1912 0.960 . S
H1898 C1912 0.960 . S
H1899 C1912 0.960 . S
C1900 H1892 0.929 . S
C1900 C1901 1.377 . S
C1900 C1902 1.384 . S
C1901 C1900 1.377 . S
C1901 C1907 1.390 . S
C1902 H1893 0.930 . S
C1902 C1900 1.384 . S
C1902 C1903 1.372 . S
C1903 C1902 1.372 . S
C1903 C1904 1.400 . S
C1903 C1908 1.490 . S
C1904 H1894 0.930 . S
C1904 C1903 1.400 . S
C1904 C1907 1.386 . S
H1905 C1921 0.930 . S
H1906 C1922 0.931 . S
C1907 H1895 0.929 . S
C1907 C1901 1.390 . S
C1907 C1904 1.386 . S
C1908 C1903 1.490 . S
C1908 C1910 1.395 . S
C1908 C1911 1.403 . S
H1909 C1915 0.930 . S
C1910 H1896 0.930 . S
C1910 C1908 1.395 . S
C1910 C1913 1.403 . S
C1911 C1908 1.403 . S
C1911 C1912 1.524 . S
C1911 C1915 1.400 . S
C1912 H1897 0.960 . S
C1912 H1898 0.960 . S
C1912 H1899 0.960 . S
C1912 C1911 1.524 . S
C1913 C1910 1.403 . S
C1913 C1914 1.392 . S
C1913 C1917 1.495 . S
C1914 C1913 1.392 . S
C1914 C1915 1.385 . S
C1914 C1916 1.478 . S
C1915 H1909 0.930 . S
C1915 C1911 1.400 . S
C1915 C1914 1.385 . S
C1916 C1914 1.478 . S
C1916 C1918 1.381 . S
C1916 C1922 1.383 . S
C1917 C1913 1.495 . S
C1917 H1923 0.959 . S
C1917 H1924 0.961 . S
C1917 H1925 0.960 . S
C1918 C1916 1.381 . S
C1918 C1919 1.394 . S
C1918 H1926 0.930 . S
C1919 C1918 1.394 . S
C1919 C1920 1.383 . S
C1919 H1927 0.929 . S
C1920 C1919 1.383 . S
C1920 C1921 1.377 . S
C1921 H1905 0.930 . S
C1921 C1920 1.377 . S
C1921 C1922 1.379 . S
C1922 H1906 0.931 . S
C1922 C1916 1.383 . S
C1922 C1921 1.379 . S
H1923 C1917 0.959 . S
H1924 C1917 0.961 . S
H1925 C1917 0.960 . S
H1926 C1918 0.930 . S
H1927 C1919 0.929 . S
H1928 C1936 0.929 . S
H1929 C1938 0.930 . S
H1930 C1940 0.930 . S
H1931 C1943 0.929 . S
H1932 C1946 0.930 . S
H1933 C1948 0.960 . S
H1934 C1948 0.960 . S
H1935 C1948 0.960 . S
C1936 H1928 0.929 . S
C1936 C1937 1.377 . S
C1936 C1938 1.384 . S
C1937 C1936 1.377 . S
C1937 C1943 1.390 . S
C1938 H1929 0.930 . S
C1938 C1936 1.384 . S
C1938 C1939 1.372 . S
C1939 C1938 1.372 . S
C1939 C1940 1.400 . S
C1939 C1944 1.490 . S
C1940 H1930 0.930 . S
C1940 C1939 1.400 . S
C1940 C1943 1.386 . S
H1941 C1957 0.930 . S
H1942 C1958 0.931 . S
C1943 H1931 0.929 . S
C1943 C1937 1.390 . S
C1943 C1940 1.386 . S
C1944 C1939 1.490 . S
C1944 C1946 1.395 . S
C1944 C1947 1.403 . S
H1945 C1951 0.930 . S
C1946 H1932 0.930 . S
C1946 C1944 1.395 . S
C1946 C1949 1.403 . S
C1947 C1944 1.403 . S
C1947 C1948 1.524 . S
C1947 C1951 1.400 . S
C1948 H1933 0.960 . S
C1948 H1934 0.960 . S
C1948 H1935 0.960 . S
C1948 C1947 1.524 . S
C1949 C1946 1.403 . S
C1949 C1950 1.392 . S
C1949 C1953 1.495 . S
C1950 C1949 1.392 . S
C1950 C1951 1.385 . S
C1950 C1952 1.478 . S
C1951 H1945 0.930 . S
C1951 C1947 1.400 . S
C1951 C1950 1.385 . S
C1952 C1950 1.478 . S
C1952 C1954 1.381 . S
C1952 C1958 1.383 . S
C1953 C1949 1.495 . S
C1953 H1959 0.959 . S
C1953 H1960 0.961 . S
C1953 H1961 0.960 . S
C1954 C1952 1.381 . S
C1954 C1955 1.394 . S
C1954 H1962 0.930 . S
C1955 C1954 1.394 . S
C1955 C1956 1.383 . S
C1955 H1963 0.929 . S
C1956 C1955 1.383 . S
C1956 C1957 1.377 . S
C1957 H1941 0.930 . S
C1957 C1956 1.377 . S
C1957 C1958 1.379 . S
C1958 H1942 0.931 . S
C1958 C1952 1.383 . S
C1958 C1957 1.379 . S
H1959 C1953 0.959 . S
H1960 C1953 0.961 . S
H1961 C1953 0.960 . S
H1962 C1954 0.930 . S
H1963 C1955 0.929 . S
H1964 C1972 0.929 . S
H1965 C1974 0.930 . S
H1966 C1976 0.930 . S
H1967 C1979 0.929 . S
H1968 C1982 0.930 . S
H1969 C1984 0.960 . S
H1970 C1984 0.960 . S
H1971 C1984 0.960 . S
C1972 H1964 0.929 . S
C1972 C1973 1.377 . S
C1972 C1974 1.384 . S
C1973 C1972 1.377 . S
C1973 C1979 1.390 . S
C1974 H1965 0.930 . S
C1974 C1972 1.384 . S
C1974 C1975 1.372 . S
C1975 C1974 1.372 . S
C1975 C1976 1.400 . S
C1975 C1980 1.490 . S
C1976 H1966 0.930 . S
C1976 C1975 1.400 . S
C1976 C1979 1.386 . S
H1977 C1993 0.930 . S
H1978 C1994 0.931 . S
C1979 H1967 0.929 . S
C1979 C1973 1.390 . S
C1979 C1976 1.386 . S
C1980 C1975 1.490 . S
C1980 C1982 1.395 . S
C1980 C1983 1.403 . S
H1981 C1987 0.930 . S
C1982 H1968 0.930 . S
C1982 C1980 1.395 . S
C1982 C1985 1.403 . S
C1983 C1980 1.403 . S
C1983 C1984 1.524 . S
C1983 C1987 1.400 . S
C1984 H1969 0.960 . S
C1984 H1970 0.960 . S
C1984 H1971 0.960 . S
C1984 C1983 1.524 . S
C1985 C1982 1.403 . S
C1985 C1986 1.392 . S
C1985 C1989 1.495 . S
C1986 C1985 1.392 . S
C1986 C1987 1.385 . S
C1986 C1988 1.478 . S
C1987 H1981 0.930 . S
C1987 C1983 1.400 . S
C1987 C1986 1.385 . S
C1988 C1986 1.478 . S
C1988 C1990 1.381 . S
C1988 C1994 1.383 . S
C1989 C1985 1.495 . S
C1989 H1995 0.959 . S
C1989 H1996 0.961 . S
C1989 H1997 0.960 . S
C1990 C1988 1.381 . S
C1990 C1991 1.394 . S
C1990 H1998 0.930 . S
C1991 C1990 1.394 . S
C1991 C1992 1.383 . S
C1991 H1999 0.929 . S
C1992 C1991 1.383 . S
C1992 C1993 1.377 . S
C1993 H1977 0.930 . S
C1993 C1992 1.377 . S
C1993 C1994 1.379 . S
C1994 H1978 0.931 . S
C1994 C1988 1.383 . S
C1994 C1993 1.379 . S
H1995 C1989 0.959 . S
H1996 C1989 0.961 . S
H1997 C1989 0.960 . S
H1998 C1990 0.930 . S
H1999 C1991 0.929 . S
C857 C39 1.914 . S
C876 C304 1.894 . S
C893 C251 1.908 . S
C912 C92 1.894 . S
C929 C145 1.908 . S
C948 C410 1.914 . S
C965 C357 1.906 . S
C984 C198 1.896 . S
C1001 C728 1.908 . S
C1020 C463 1.894 . S
C1037 C675 1.905 . S
C1056 C516 1.920 . S
C1073 C834 1.909 . S
C1092 C569 1.897 . S
C1109 C622 1.911 . S
C1128 C781 1.889 . S
C1145 C82 1.547 . S
C1164 C29 1.551 . S
C1181 C135 1.547 . S
C1200 C188 1.549 . S
C1217 C241 1.547 . S
C1236 C294 1.543 . S
C1253 C347 1.546 . S
C1272 C400 1.549 . S
C1289 C453 1.544 . S
C1308 C506 1.537 . S
C1325 C612 1.547 . S
C1344 C559 1.549 . S
C1361 C718 1.546 . S
C1380 C665 1.550 . S
C1397 C771 1.547 . S
C1416 C824 1.537 . S
C1433 C499 1.536 . S
C1452 C22 1.534 . S
C1469 C75 1.536 . S
C1488 C446 1.534 . S
C1505 C605 1.536 . S
C1524 C128 1.532 . S
C1541 C181 1.536 . S
C1560 C552 1.534 . S
C1577 C234 1.536 . S
C1596 C711 1.528 . S
C1613 C658 1.537 . S
C1632 C287 1.527 . S
C1649 C340 1.536 . S
C1668 C817 1.530 . S
C1685 C764 1.536 . S
C1704 C393 1.527 . S
C1721 C38 1.959 . S
C1740 C144 1.954 . S
C1757 C197 1.957 . S
C1776 C91 1.944 . S
C1793 C356 1.968 . S
C1812 C250 1.976 . S
C1829 C409 1.969 . S
C1848 C303 1.974 . S
C1865 C568 1.963 . S
C1884 C462 1.969 . S
C1901 C515 1.962 . S
C1920 C621 1.967 . S
C1937 C780 1.967 . S
C1956 C674 1.952 . S
C1973 C727 1.970 . S
C1992 C833 1.958 . S
