# Generated by pormake.
# Topology ure, (4)-cn, num edge types: 1
# Building blocks:
#     Node 0, Type 0, BuildingBlock: NAHDIM_clean_sbu_0, # of connection points: 4
#     Node 1, Type 0, BuildingBlock: NAHDIM_clean_sbu_0, # of connection points: 4
#     Node 2, Type 0, BuildingBlock: NAHDIM_clean_sbu_0, # of connection points: 4
#     Node 3, Type 0, BuildingBlock: NAHDIM_clean_sbu_0, # of connection points: 4
#     Node 4, Type 0, BuildingBlock: NAHDIM_clean_sbu_0, # of connection points: 4
#     Node 5, Type 0, BuildingBlock: NAHDIM_clean_sbu_0, # of connection points: 4
#     Node 6, Type 0, BuildingBlock: NAHDIM_clean_sbu_0, # of connection points: 4
#     Node 7, Type 0, BuildingBlock: NAHDIM_clean_sbu_0, # of connection points: 4
#     Node 8, Type 0, BuildingBlock: NAHDIM_clean_sbu_0, # of connection points: 4
#     Node 9, Type 0, BuildingBlock: NAHDIM_clean_sbu_0, # of connection points: 4
#     Node 10, Type 0, BuildingBlock: NAHDIM_clean_sbu_0, # of connection points: 4
#     Node 11, Type 0, BuildingBlock: NAHDIM_clean_sbu_0, # of connection points: 4
#     Node 12, Type 0, BuildingBlock: NAHDIM_clean_sbu_0, # of connection points: 4
#     Node 13, Type 0, BuildingBlock: NAHDIM_clean_sbu_0, # of connection points: 4
#     Node 14, Type 0, BuildingBlock: NAHDIM_clean_sbu_0, # of connection points: 4
#     Node 15, Type 0, BuildingBlock: NAHDIM_clean_sbu_0, # of connection points: 4
#     Edge 16, Type (0, 0), BuildingBlock: XIVTED_clean_linker_0, # of connection points: 2
#     Edge 17, Type (0, 0), BuildingBlock: XIVTED_clean_linker_0, # of connection points: 2
#     Edge 18, Type (0, 0), BuildingBlock: XIVTED_clean_linker_0, # of connection points: 2
#     Edge 19, Type (0, 0), BuildingBlock: XIVTED_clean_linker_0, # of connection points: 2
#     Edge 20, Type (0, 0), BuildingBlock: XIVTED_clean_linker_0, # of connection points: 2
#     Edge 21, Type (0, 0), BuildingBlock: XIVTED_clean_linker_0, # of connection points: 2
#     Edge 22, Type (0, 0), BuildingBlock: XIVTED_clean_linker_0, # of connection points: 2
#     Edge 23, Type (0, 0), BuildingBlock: XIVTED_clean_linker_0, # of connection points: 2
#     Edge 24, Type (0, 0), BuildingBlock: XIVTED_clean_linker_0, # of connection points: 2
#     Edge 25, Type (0, 0), BuildingBlock: XIVTED_clean_linker_0, # of connection points: 2
#     Edge 26, Type (0, 0), BuildingBlock: XIVTED_clean_linker_0, # of connection points: 2
#     Edge 27, Type (0, 0), BuildingBlock: XIVTED_clean_linker_0, # of connection points: 2
#     Edge 28, Type (0, 0), BuildingBlock: XIVTED_clean_linker_0, # of connection points: 2
#     Edge 29, Type (0, 0), BuildingBlock: XIVTED_clean_linker_0, # of connection points: 2
#     Edge 30, Type (0, 0), BuildingBlock: XIVTED_clean_linker_0, # of connection points: 2
#     Edge 31, Type (0, 0), BuildingBlock: XIVTED_clean_linker_0, # of connection points: 2
#     Edge 32, Type (0, 0), BuildingBlock: XIVTED_clean_linker_0, # of connection points: 2
#     Edge 33, Type (0, 0), BuildingBlock: XIVTED_clean_linker_0, # of connection points: 2
#     Edge 34, Type (0, 0), BuildingBlock: XIVTED_clean_linker_0, # of connection points: 2
#     Edge 35, Type (0, 0), BuildingBlock: XIVTED_clean_linker_0, # of connection points: 2
#     Edge 36, Type (0, 0), BuildingBlock: XIVTED_clean_linker_0, # of connection points: 2
#     Edge 37, Type (0, 0), BuildingBlock: XIVTED_clean_linker_0, # of connection points: 2
#     Edge 38, Type (0, 0), BuildingBlock: XIVTED_clean_linker_0, # of connection points: 2
#     Edge 39, Type (0, 0), BuildingBlock: XIVTED_clean_linker_0, # of connection points: 2
#     Edge 40, Type (0, 0), BuildingBlock: XIVTED_clean_linker_0, # of connection points: 2
#     Edge 41, Type (0, 0), BuildingBlock: XIVTED_clean_linker_0, # of connection points: 2
#     Edge 42, Type (0, 0), BuildingBlock: XIVTED_clean_linker_0, # of connection points: 2
#     Edge 43, Type (0, 0), BuildingBlock: XIVTED_clean_linker_0, # of connection points: 2
#     Edge 44, Type (0, 0), BuildingBlock: XIVTED_clean_linker_0, # of connection points: 2
#     Edge 45, Type (0, 0), BuildingBlock: XIVTED_clean_linker_0, # of connection points: 2
#     Edge 46, Type (0, 0), BuildingBlock: XIVTED_clean_linker_0, # of connection points: 2
#     Edge 47, Type (0, 0), BuildingBlock: XIVTED_clean_linker_0, # of connection points: 2
# Relax obj value: 0.109
# Max RMSD: 0.078
# Mean RMSD: 0.069
data_MOF--net-ure--node1-NAHDIM_clean_sbu_0--edge1-XIVTED_clean_linker_0
_symmetry_space_group_name_H-M    P1
_symmetry_Int_Tables_number       1
_symmetry_cell_setting            triclinic
loop_
_symmetry_equiv_pos_as_xyz
'x, y, z'
_cell_length_a     30.658925
_cell_length_b     31.892509
_cell_length_c     32.678151
_cell_angle_alpha  90.615966
_cell_angle_beta   91.262435
_cell_angle_gamma 93.54517
loop_
_atom_site_label
_atom_site_type_symbol
_atom_site_fract_x
_atom_site_fract_y
_atom_site_fract_z
_atom_type_partial_charge
C0 C 0.24281 0.20303 0.22832 0.0
O1 O 0.27268 0.23218 0.21821 0.0
O2 O 0.33089 0.23418 0.30345 0.0
Zn3 Zn 0.26571 0.2381 0.30664 0.0
O4 O 0.25373 0.29767 0.29203 0.0
C5 C 0.26863 0.20735 0.39017 0.0
O6 O 0.30243 0.18774 0.37764 0.0
O7 O 0.2339 0.19849 0.2659 0.0
C8 C 0.2483 0.32512 0.31966 0.0
O9 O 0.24854 0.31397 0.35823 0.0
C10 C 0.35565 0.25843 0.32622 0.0
O11 O 0.33795 0.284 0.35193 0.0
O12 O 0.24686 0.22787 0.36457 0.0
C13 C 0.98831 0.93624 0.45 0.0
O14 O 0.9672 0.91825 0.48035 0.0
O15 O 0.88129 0.97933 0.47116 0.0
Zn16 Zn 0.94231 0.00612 0.47624 0.0
O17 O 0.965 0.00582 0.53481 0.0
C18 C 0.91378 0.0897 0.46892 0.0
O19 O 0.88481 0.07553 0.49525 0.0
O20 O 0.98233 0.97432 0.44188 0.0
C21 C 0.98293 0.03822 0.55281 0.0
O22 O 0.98686 0.07387 0.53311 0.0
C23 C 0.85647 0.97594 0.50172 0.0
O24 O 0.87155 0.98883 0.53795 0.0
O25 O 0.94179 0.0653 0.45594 0.0
C26 C 0.25258 0.80858 0.73416 0.0
O27 O 0.22457 0.77737 0.72334 0.0
O28 O 0.17051 0.77338 0.81007 0.0
Zn29 Zn 0.23648 0.77301 0.8122 0.0
O30 O 0.25492 0.71508 0.79798 0.0
C31 C 0.23299 0.80214 0.89607 0.0
O32 O 0.19433 0.81357 0.8842 0.0
O33 O 0.2628 0.81399 0.77185 0.0
C34 C 0.25974 0.68817 0.82591 0.0
O35 O 0.25273 0.69861 0.86409 0.0
C36 C 0.14575 0.73989 0.80807 0.0
O37 O 0.16319 0.70343 0.80523 0.0
O38 O 0.25773 0.78667 0.8699 0.0
C39 C 0.50212 0.03551 0.95483 0.0
O40 O 0.53279 0.0516 0.98008 0.0
O41 O 0.59926 0.97479 0.96445 0.0
Zn42 Zn 0.53733 0.95913 0.98028 0.0
O43 O 0.53008 0.96667 0.04093 0.0
C44 C 0.55141 0.87249 0.96582 0.0
O45 O 0.59147 0.88518 0.97724 0.0
O46 O 0.49746 0.9959 0.95009 0.0
C47 C 0.49915 0.94723 0.05961 0.0
O48 O 0.47144 0.9216 0.03886 0.0
C49 C 0.62559 0.99773 0.9869 0.0
O50 O 0.61226 0.01223 0.02195 0.0
O51 O 0.52212 0.89894 0.96453 0.0
C52 C 0.21518 0.78838 0.29786 0.0
O53 O 0.23929 0.80806 0.27046 0.0
O54 O 0.32565 0.74394 0.29242 0.0
Zn55 Zn 0.26581 0.72133 0.27352 0.0
O56 O 0.25804 0.659 0.28287 0.0
C57 C 0.29019 0.7375 0.19006 0.0
O58 O 0.32897 0.72849 0.20403 0.0
O59 O 0.22091 0.75004 0.30504 0.0
C60 C 0.25607 0.63164 0.25423 0.0
O61 O 0.25875 0.64387 0.21607 0.0
C62 C 0.35537 0.72033 0.3039 0.0
O63 O 0.3466 0.67953 0.30509 0.0
O64 O 0.25801 0.73539 0.21399 0.0
C65 C 0.41725 0.96862 0.51822 0.0
O66 O 0.45042 0.99431 0.53003 0.0
O67 O 0.45491 0.05355 0.44996 0.0
Zn68 Zn 0.4552 0.99063 0.44378 0.0
O69 O 0.51502 0.97504 0.46226 0.0
C70 C 0.47468 0.99746 0.36179 0.0
O71 O 0.50238 0.02514 0.37998 0.0
O72 O 0.41081 0.96144 0.48012 0.0
C73 C 0.53659 0.9477 0.44438 0.0
O74 O 0.51906 0.92679 0.41265 0.0
C75 C 0.42452 0.07439 0.46414 0.0
O76 O 0.38859 0.0545 0.47677 0.0
O77 O 0.44756 0.97636 0.3836 0.0
C78 C 0.31196 0.22398 0.7969 0.0
O79 O 0.28072 0.20717 0.77264 0.0
O80 O 0.27781 0.28252 0.7094 0.0
Zn81 Zn 0.27341 0.29638 0.76946 0.0
O82 O 0.21304 0.27682 0.78669 0.0
C83 C 0.29039 0.38597 0.7546 0.0
O84 O 0.29183 0.37437 0.716 0.0
O85 O 0.31621 0.26368 0.8008 0.0
C86 C 0.18507 0.30139 0.79941 0.0
O87 O 0.19576 0.34182 0.80278 0.0
C88 C 0.24518 0.28647 0.68538 0.0
O89 O 0.20977 0.30192 0.69977 0.0
O90 O 0.28413 0.35822 0.7818 0.0
C91 C 0.06478 0.04145 0.01073 0.0
O92 O 0.03231 0.01495 0.02064 0.0
O93 O 0.03353 0.95562 0.93547 0.0
Zn94 Zn 0.03099 0.01867 0.93107 0.0
O95 O 0.96886 0.03271 0.9405 0.0
C96 C 0.06102 0.00954 0.84869 0.0
O97 O 0.07326 0.97359 0.86283 0.0
O98 O 0.07143 0.04852 0.97308 0.0
C99 C 0.94034 0.02189 0.91292 0.0
O100 O 0.9529 0.00389 0.87917 0.0
C101 C 0.00382 0.9329 0.95257 0.0
O102 O 0.97187 0.95094 0.97058 0.0
O103 O 0.04496 0.03544 0.87314 0.0
C104 C 0.71934 0.22949 0.8233 0.0
O105 O 0.72812 0.19227 0.83696 0.0
O106 O 0.84298 0.22766 0.78436 0.0
Zn107 Zn 0.78253 0.21195 0.762 0.0
O108 O 0.76774 0.15006 0.76871 0.0
C109 C 0.81061 0.22514 0.67866 0.0
O110 O 0.84546 0.20662 0.69134 0.0
O111 O 0.73914 0.24409 0.7923 0.0
C112 C 0.76103 0.12353 0.73963 0.0
O113 O 0.76368 0.13614 0.70159 0.0
C114 C 0.87161 0.20075 0.78837 0.0
O115 O 0.8611 0.1612 0.77899 0.0
O116 O 0.77952 0.2295 0.70313 0.0
C117 C 0.9368 0.51432 0.01953 0.0
O118 O 0.96822 0.54232 0.03055 0.0
O119 O 0.96941 0.59662 0.9454 0.0
Zn120 Zn 0.9719 0.53385 0.94217 0.0
O121 O 0.03333 0.52037 0.95779 0.0
C122 C 0.943 0.53679 0.85691 0.0
O123 O 0.92995 0.57387 0.86706 0.0
O124 O 0.93076 0.50547 0.98173 0.0
C125 C 0.05597 0.49705 0.93599 0.0
O126 O 0.03859 0.47965 0.90235 0.0
C127 C -0.00037 0.61893 0.92854 0.0
O128 O 0.03068 0.60021 0.90979 0.0
O129 O 0.95931 0.51405 0.88427 0.0
C130 C 0.79353 0.74557 0.28386 0.0
O131 O 0.76326 0.72993 0.25794 0.0
O132 O 0.75354 0.80284 0.2024 0.0
Zn133 Zn 0.75292 0.81874 0.26209 0.0
O134 O 0.69344 0.80282 0.2837 0.0
C135 C 0.77845 0.90611 0.24425 0.0
O136 O 0.78041 0.89281 0.20619 0.0
O137 O 0.79608 0.78481 0.29133 0.0
C138 C 0.66513 0.82929 0.29076 0.0
O139 O 0.67483 0.86936 0.28447 0.0
C140 C 0.7198 0.80363 0.17921 0.0
O141 O 0.68382 0.81774 0.19377 0.0
O142 O 0.76809 0.88011 0.2721 0.0
C143 C 0.98011 0.5561 0.4431 0.0
O144 O 0.00913 0.57087 0.47063 0.0
O145 O 0.06593 0.48016 0.46485 0.0
Zn146 Zn 0.00208 0.47852 0.47747 0.0
O147 O 0.9926 0.49569 0.53566 0.0
C148 C 0.98221 0.39667 0.43934 0.0
O149 O 0.00615 0.41163 0.40933 0.0
O150 O 0.97166 0.51671 0.44006 0.0
C151 C -0.00158 0.46923 0.56372 0.0
O152 O 0.01228 0.43234 0.55393 0.0
C153 C 0.09471 0.50269 0.48499 0.0
O154 O 0.08277 0.52597 0.51569 0.0
O155 O 0.97604 0.41989 0.4702 0.0
C156 C 0.50386 0.40608 0.95865 0.0
O157 O 0.48445 0.39316 0.99209 0.0
O158 O 0.40249 0.47293 0.97062 0.0
Zn159 Zn 0.4672 0.48311 0.98077 0.0
O160 O 0.48176 0.47378 0.04038 0.0
C161 C 0.46213 0.56682 0.94659 0.0
O162 O 0.42323 0.55265 0.93317 0.0
O163 O 0.50014 0.44361 0.94707 0.0
C164 C 0.49226 0.50399 0.06508 0.0
O165 O 0.49338 0.54272 0.05172 0.0
C166 C 0.37685 0.48857 0.99582 0.0
O167 O 0.39351 0.50974 0.02778 0.0
O168 O 0.48611 0.54254 0.96629 0.0
C169 C 0.707 0.68924 0.72841 0.0
O170 O 0.73999 0.71361 0.71575 0.0
O171 O 0.7947 0.72412 0.80192 0.0
Zn172 Zn 0.73007 0.73231 0.80377 0.0
O173 O 0.72174 0.79204 0.78633 0.0
C174 C 0.7328 0.70636 0.88841 0.0
O175 O 0.76629 0.68591 0.87654 0.0
O176 O 0.69635 0.6914 0.76572 0.0
C177 C 0.71373 0.82026 0.81245 0.0
O178 O 0.70837 0.8098 0.85086 0.0
C179 C 0.82032 0.75099 0.82086 0.0
O180 O 0.80367 0.7822 0.84047 0.0
O181 O 0.71083 0.72569 0.86203 0.0
C182 C 0.78411 0.33578 0.22949 0.0
O183 O 0.75589 0.30489 0.2183 0.0
O184 O 0.7046 0.29842 0.30768 0.0
Zn185 Zn 0.77038 0.29734 0.30657 0.0
O186 O 0.78543 0.2391 0.29003 0.0
C187 C 0.7726 0.32337 0.39153 0.0
O188 O 0.73583 0.34004 0.38134 0.0
O189 O 0.79572 0.33962 0.267 0.0
C190 C 0.78178 0.21097 0.31722 0.0
O191 O 0.76932 0.22141 0.35397 0.0
C192 C 0.67989 0.27142 0.28797 0.0
O193 O 0.6975 0.24344 0.26478 0.0
O194 O 0.79462 0.30685 0.36384 0.0
C195 C 0.53253 0.50393 0.52622 0.0
O196 O 0.49616 0.48412 0.53796 0.0
O197 O 0.49996 0.40749 0.45881 0.0
Zn198 Zn 0.50163 0.46991 0.44883 0.0
O199 O 0.44077 0.48889 0.45509 0.0
C200 C 0.52199 0.45104 0.36488 0.0
O201 O 0.5172 0.41211 0.37749 0.0
O202 O 0.54264 0.50198 0.48875 0.0
C203 C 0.41134 0.47535 0.4294 0.0
O204 O 0.422 0.45052 0.39937 0.0
C205 C 0.46961 0.38851 0.47862 0.0
O206 O 0.44034 0.41044 0.49641 0.0
O207 O 0.51862 0.48103 0.39039 0.0
H208 H 0.25375 0.20579 0.1455 0.0
H209 H 0.0585 0.03358 0.09375 0.0
H210 H 0.17692 0.14173 0.23763 0.0
H211 H 0.13404 0.09917 0.00167 0.0
H212 H 0.10315 0.07103 0.14685 0.0
H213 H 0.21205 0.16514 0.09256 0.0
C214 C 0.2282 0.18307 0.15465 0.0
C215 C 0.21876 0.17729 0.19614 0.0
C216 C 0.11004 0.07719 0.11505 0.0
C217 C 0.17072 0.13061 0.13549 0.0
C218 C 0.08454 0.0558 0.08465 0.0
C219 C 0.09242 0.06331 0.04312 0.0
C220 C 0.14375 0.1064 0.10394 0.0
C221 C 0.1267 0.09242 0.03326 0.0
C222 C 0.20436 0.15987 0.12435 0.0
C223 C 0.1853 0.14731 0.20607 0.0
N224 N 0.15102 0.11295 0.06344 0.0
N225 N 0.16242 0.1252 0.17597 0.0
H226 H 0.00964 0.85468 0.4593 0.0
H227 H 0.19283 0.86947 0.28832 0.0
H228 H 0.03949 0.96533 0.38762 0.0
H229 H 0.16045 0.75721 0.35686 0.0
H230 H 0.13652 0.905 0.32438 0.0
H231 H 0.06426 0.81811 0.42175 0.0
C232 C 0.02757 0.87125 0.4356 0.0
C233 C 0.02006 0.91316 0.42665 0.0
C234 C 0.14169 0.87258 0.33152 0.0
C235 C 0.08269 0.87156 0.38369 0.0
C236 C 0.1739 0.85228 0.31097 0.0
C237 C 0.18139 0.81032 0.31962 0.0
C238 C 0.11682 0.85079 0.36099 0.0
C239 C 0.15581 0.7896 0.34923 0.0
C240 C 0.05878 0.85036 0.41419 0.0
C241 C 0.04423 0.93305 0.39559 0.0
N242 N 0.12468 0.81007 0.36888 0.0
N243 N 0.07452 0.9121 0.37532 0.0
H244 H 0.3484 0.91013 0.50574 0.0
H245 H 0.31322 0.87475 0.74553 0.0
H246 H 0.42239 0.97902 0.60125 0.0
H247 H 0.2402 0.80356 0.65092 0.0
H248 H 0.35041 0.91615 0.6928 0.0
H249 H 0.30527 0.87353 0.55816 0.0
C250 C 0.35545 0.91771 0.53768 0.0
C251 C 0.38924 0.94752 0.5491 0.0
C252 C 0.32613 0.89158 0.68355 0.0
C253 C 0.34011 0.90575 0.60923 0.0
C254 C 0.30484 0.86793 0.71368 0.0
C255 C 0.27369 0.83546 0.70266 0.0
C256 C 0.31631 0.88271 0.64202 0.0
C257 C 0.26411 0.82817 0.66086 0.0
C258 C 0.33084 0.89679 0.5676 0.0
C259 C 0.39684 0.95613 0.59097 0.0
N260 N 0.28547 0.85147 0.63207 0.0
N261 N 0.37261 0.93526 0.61946 0.0
H262 H 0.43579 0.01225 0.90038 0.0
H263 H 0.37912 0.2482 0.85046 0.0
H264 H 0.50419 0.12152 0.95613 0.0
H265 H 0.31087 0.13825 0.79587 0.0
H266 H 0.4258 0.20257 0.88903 0.0
H267 H 0.39 0.05822 0.8616 0.0
C268 C 0.44117 0.04593 0.90451 0.0
C269 C 0.47387 0.06307 0.93157 0.0
C270 C 0.40063 0.18845 0.86859 0.0
C271 C 0.42154 0.11594 0.88716 0.0
C272 C 0.37398 0.21447 0.84653 0.0
C273 C 0.341 0.19699 0.81993 0.0
C274 C 0.39423 0.14465 0.86401 0.0
C275 C 0.33584 0.15311 0.81605 0.0
C276 C 0.415 0.07218 0.88232 0.0
C277 C 0.47934 0.10695 0.93564 0.0
N278 N 0.36215 0.12846 0.83788 0.0
N279 N 0.45343 0.13189 0.91365 0.0
H280 H 0.66964 0.208 0.88956 0.0
H281 H 0.54837 0.42317 0.88861 0.0
H282 H 0.69314 0.30673 0.80185 0.0
H283 H 0.52474 0.32625 0.97814 0.0
H284 H 0.59916 0.37912 0.85476 0.0
H285 H 0.61459 0.24939 0.92124 0.0
C286 C 0.66326 0.23836 0.87697 0.0
C287 C 0.68612 0.25398 0.84308 0.0
C288 C 0.58278 0.36737 0.88172 0.0
C289 C 0.62317 0.30137 0.87906 0.0
C290 C 0.55369 0.39251 0.90106 0.0
C291 C 0.53243 0.37846 0.93641 0.0
C292 C 0.59082 0.32787 0.89785 0.0
C293 C 0.54051 0.33838 0.95103 0.0
C294 C 0.63179 0.26193 0.89503 0.0
C295 C 0.67642 0.29345 0.82799 0.0
N296 N 0.56925 0.31454 0.93178 0.0
N297 N 0.64573 0.31576 0.84611 0.0
H298 H 0.9435 0.52397 0.10278 0.0
H299 H 0.76757 0.33479 0.14686 0.0
H300 H 0.87134 0.45246 0.00783 0.0
H301 H 0.84422 0.40236 0.24151 0.0
H302 H 0.80161 0.38071 0.09582 0.0
H303 H 0.90371 0.48304 0.15423 0.0
C304 C 0.91912 0.49981 0.09271 0.0
C305 C 0.91094 0.49149 0.05089 0.0
C306 C 0.8109 0.3856 0.12776 0.0
C307 C 0.86532 0.44437 0.10973 0.0
C308 C 0.79145 0.35938 0.15697 0.0
C309 C 0.80322 0.36457 0.19855 0.0
C310 C 0.8424 0.4173 0.14016 0.0
C311 C 0.83427 0.39709 0.20979 0.0
C312 C 0.89644 0.4764 0.12215 0.0
C313 C 0.87886 0.45987 0.03972 0.0
N314 N 0.85288 0.42212 0.18075 0.0
N315 N 0.85737 0.43735 0.06896 0.0
H316 H 0.9865 0.64215 0.44425 0.0
H317 H 0.7962 0.66049 0.27508 0.0
H318 H 0.91887 0.53559 0.38301 0.0
H319 H 0.859 0.76729 0.33992 0.0
H320 H 0.84431 0.61465 0.31135 0.0
H321 H 0.94357 0.68897 0.40318 0.0
C322 C 0.96277 0.6286 0.42206 0.0
C323 C 0.95606 0.5849 0.41722 0.0
C324 C 0.84767 0.64812 0.31759 0.0
C325 C 0.90684 0.63823 0.37023 0.0
C326 C 0.82019 0.67433 0.29688 0.0
C327 C 0.82343 0.71776 0.30466 0.0
C328 C 0.87862 0.66544 0.34632 0.0
C329 C 0.85525 0.73395 0.33311 0.0
C330 C 0.93825 0.65534 0.39865 0.0
C331 C 0.92498 0.56908 0.38792 0.0
N332 N 0.88154 0.70774 0.35303 0.0
N333 N 0.90142 0.59574 0.36565 0.0
H334 H 0.60789 0.55205 0.51196 0.0
H335 H 0.63607 0.63556 0.74386 0.0
H336 H 0.52026 0.5143 0.60834 0.0
H337 H 0.72125 0.67686 0.64682 0.0
H338 H 0.59484 0.58901 0.69511 0.0
H339 H 0.65151 0.59591 0.56138 0.0
C340 C 0.59788 0.55285 0.54353 0.0
C341 C 0.56026 0.5295 0.55597 0.0
C342 C 0.62259 0.6082 0.68448 0.0
C343 C 0.61005 0.57975 0.61273 0.0
C344 C 0.64618 0.63481 0.71233 0.0
C345 C 0.68216 0.66026 0.69943 0.0
C346 C 0.63501 0.60697 0.64337 0.0
C347 C 0.69372 0.65788 0.65815 0.0
C348 C 0.62279 0.57795 0.57174 0.0
C349 C 0.54893 0.53179 0.5973 0.0
N350 N 0.6702 0.63177 0.63161 0.0
N351 N 0.57365 0.55651 0.62414 0.0
H352 H 0.31419 0.17531 0.45452 0.0
H353 H 0.18427 0.29671 0.62444 0.0
H354 H 0.20518 0.25044 0.42675 0.0
H355 H 0.30857 0.24388 0.6479 0.0
H356 H 0.18639 0.27257 0.55335 0.0
H357 H 0.30637 0.19137 0.52731 0.0
C358 C 0.28839 0.19485 0.46373 0.0
C359 C 0.26061 0.2119 0.43444 0.0
C360 C 0.21318 0.26623 0.57407 0.0
C361 C 0.25189 0.23081 0.51754 0.0
C362 C 0.21202 0.28004 0.61467 0.0
C363 C 0.24641 0.27251 0.64213 0.0
C364 C 0.24884 0.24446 0.56084 0.0
C365 C 0.28147 0.25062 0.62773 0.0
C366 C 0.28414 0.20422 0.50524 0.0
C367 C 0.22754 0.2368 0.44819 0.0
N368 N 0.28177 0.23736 0.58807 0.0
N369 N 0.2243 0.24573 0.4887 0.0
H370 H 0.07512 0.9533 0.78746 0.0
H371 H 0.00588 0.10322 0.60595 0.0
H372 H 0.04022 0.08084 0.8081 0.0
H373 H 0.99709 0.96779 0.59699 0.0
H374 H 0.03123 0.0983 0.67726 0.0
H375 H 0.06067 0.96151 0.71433 0.0
C376 C 0.06504 0.98326 0.7766 0.0
C377 C 0.05851 0.01634 0.80403 0.0
C378 C 0.02387 0.06973 0.65957 0.0
C379 C 0.04176 0.02577 0.72032 0.0
C380 C 0.00948 0.07247 0.6189 0.0
C381 C -0.00087 0.03583 0.59559 0.0
C382 C 0.02852 0.03009 0.67681 0.0
C383 C 0.00438 0.99683 0.61393 0.0
C384 C 0.05652 0.98779 0.73485 0.0
C385 C 0.04539 0.05442 0.78808 0.0
N386 N 0.01878 0.995 0.65344 0.0
N387 N 0.03724 0.05804 0.74724 0.0
H388 H 0.18318 0.82262 0.96095 0.0
H389 H 0.34996 0.73926 0.1289 0.0
H390 H 0.30884 0.77739 0.93176 0.0
H391 H 0.21666 0.76602 0.1536 0.0
H392 H 0.33882 0.76077 0.05802 0.0
H393 H 0.19889 0.8109 0.03333 0.0
C394 C 0.21432 0.81072 0.96976 0.0
C395 C 0.24459 0.80065 0.94017 0.0
C396 C 0.31206 0.76201 0.079 0.0
C397 C 0.26259 0.78681 0.02303 0.0
C398 C 0.31837 0.74971 0.11946 0.0
C399 C 0.28409 0.75058 0.14716 0.0
C400 C 0.27124 0.77549 0.0662 0.0
C401 C 0.24392 0.76455 0.13324 0.0
C402 C 0.22316 0.80383 0.01112 0.0
C403 C 0.28443 0.78537 0.95348 0.0
N404 N 0.2386 0.7764 0.09374 0.0
N405 N 0.29215 0.77866 0.99392 0.0
H406 H 0.52909 0.03834 0.30861 0.0
H407 H 0.43898 0.90861 0.11011 0.0
H408 H 0.42584 0.94019 0.31313 0.0
H409 H 0.54835 0.00068 0.11066 0.0
H410 H 0.4318 0.92042 0.18376 0.0
H411 H 0.53447 0.02586 0.23546 0.0
C412 C 0.50742 0.01414 0.29421 0.0
C413 C 0.47692 0.99028 0.31711 0.0
C414 C 0.45735 0.93799 0.16772 0.0
C415 C 0.48303 0.97572 0.2329 0.0
C416 C 0.46148 0.9313 0.12567 0.0
C417 C 0.49433 0.95371 0.10414 0.0
C418 C 0.4862 0.96739 0.18832 0.0
C419 C 0.52256 0.98267 0.12593 0.0
C420 C 0.51058 0.00699 0.25232 0.0
C421 C 0.44976 0.95938 0.29664 0.0
N422 N 0.51778 0.98867 0.16673 0.0
N423 N 0.45346 0.95296 0.25563 0.0
H424 H 0.41753 0.30851 0.36838 0.0
H425 H 0.61811 0.21798 0.25017 0.0
H426 H 0.40325 0.2108 0.27565 0.0
H427 H 0.63252 0.32102 0.33721 0.0
H428 H 0.53944 0.21397 0.26045 0.0
H429 H 0.49651 0.31218 0.35915 0.0
C430 C 0.43098 0.2877 0.34618 0.0
C431 C 0.40367 0.25943 0.32255 0.0
C432 C 0.55976 0.23753 0.27726 0.0
C433 C 0.49411 0.26343 0.312 0.0
C434 C 0.60473 0.23989 0.27136 0.0
C435 C 0.63199 0.26991 0.29284 0.0
C436 C 0.54179 0.26533 0.30492 0.0
C437 C 0.61275 0.29742 0.31994 0.0
C438 C 0.4761 0.28986 0.34092 0.0
C439 C 0.423 0.23315 0.29442 0.0
N440 N 0.56882 0.29442 0.32527 0.0
N441 N 0.46701 0.23584 0.2899 0.0
H442 H 0.93312 0.35662 0.49746 0.0
H443 H 0.96366 0.12797 0.40994 0.0
H444 H 0.99362 0.33532 0.38156 0.0
H445 H 0.872 0.15385 0.50405 0.0
H446 H 0.97493 0.20342 0.39822 0.0
H447 H 0.91173 0.28209 0.50062 0.0
C448 C 0.9414 0.33637 0.47234 0.0
C449 C 0.96549 0.35224 0.43928 0.0
C450 C 0.95199 0.19252 0.42109 0.0
C451 C 0.94018 0.26671 0.44245 0.0
C452 C 0.94561 0.14949 0.42788 0.0
C453 C 0.91722 0.13464 0.45834 0.0
C454 C 0.93028 0.22086 0.44532 0.0
C455 C 0.8944 0.16389 0.48042 0.0
C456 C 0.92887 0.29377 0.47408 0.0
C457 C 0.97522 0.3244 0.40768 0.0
N458 N 0.90185 0.20565 0.47381 0.0
N459 N 0.96278 0.28285 0.41017 0.0
H460 H 0.86583 0.68573 0.79237 0.0
H461 H 0.09923 0.80837 0.82515 0.0
H462 H 0.88383 0.80869 0.84906 0.0
H463 H 0.08312 0.67558 0.79727 0.0
H464 H 0.01998 0.8103 0.83016 0.0
H465 H 0.94526 0.68224 0.79066 0.0
C466 C 0.88646 0.71198 0.80444 0.0
C467 C 0.86818 0.74768 0.8206 0.0
C468 C 0.03381 0.78076 0.82289 0.0
C469 C 0.95897 0.74403 0.81847 0.0
C470 C 0.07904 0.77966 0.81986 0.0
C471 C 0.09783 0.74179 0.81054 0.0
C472 C 0.00713 0.7438 0.81625 0.0
C473 C 0.07006 0.70549 0.80441 0.0
C474 C 0.93178 0.70992 0.80356 0.0
C475 C 0.89649 0.78062 0.83616 0.0
N476 N 0.02609 0.70742 0.80721 0.0
N477 N 0.94046 0.77812 0.83445 0.0
H478 H 0.41417 0.63097 0.91903 0.0
H479 H 0.60585 0.8079 0.96618 0.0
H480 H 0.54282 0.60468 0.96454 0.0
H481 H 0.47118 0.83497 0.94438 0.0
H482 H 0.58565 0.73313 0.95576 0.0
H483 H 0.4371 0.70577 0.91805 0.0
C484 C 0.44735 0.64085 0.92843 0.0
C485 C 0.47652 0.61157 0.94221 0.0
C486 C 0.56058 0.75547 0.95309 0.0
C487 C 0.5029 0.69701 0.94119 0.0
C488 C 0.57207 0.79811 0.95909 0.0
C489 C 0.54008 0.82762 0.95671 0.0
C490 C 0.51678 0.74224 0.94442 0.0
C491 C 0.49687 0.81327 0.94684 0.0
C492 C 0.46036 0.68356 0.92798 0.0
C493 C 0.51913 0.62618 0.95399 0.0
N494 N 0.48644 0.77155 0.94124 0.0
N495 N 0.53097 0.66789 0.95336 0.0
H496 H 0.63538 0.74917 0.30861 0.0
H497 H 0.38498 0.80316 0.30336 0.0
H498 H 0.59303 0.87536 0.29836 0.0
H499 H 0.42866 0.67834 0.32103 0.0
H500 H 0.46085 0.83126 0.30824 0.0
H501 H 0.56009 0.72378 0.32002 0.0
C502 C 0.61029 0.77163 0.30909 0.0
C503 C 0.62045 0.8144 0.30198 0.0
C504 C 0.45381 0.79777 0.31145 0.0
C505 C 0.53399 0.78543 0.31481 0.0
C506 C 0.41048 0.78168 0.30867 0.0
C507 C 0.40049 0.73825 0.31132 0.0
C508 C 0.48743 0.7702 0.31669 0.0
C509 C 0.43484 0.71199 0.31848 0.0
C510 C 0.56725 0.75709 0.31565 0.0
C511 C 0.58662 0.84206 0.30335 0.0
N512 N 0.4768 0.72834 0.3205 0.0
N513 N 0.5448 0.82703 0.30917 0.0
H514 H 0.37286 0.12924 0.5027 0.0
H515 H 0.52017 0.33349 0.43934 0.0
H516 H 0.48933 0.12519 0.43117 0.0
H517 H 0.40732 0.33775 0.51572 0.0
H518 H 0.50885 0.25714 0.43545 0.0
H519 H 0.38448 0.2058 0.50726 0.0
C520 C 0.40075 0.14441 0.48783 0.0
C521 C 0.43022 0.12074 0.4666 0.0
C522 C 0.4867 0.27473 0.45328 0.0
C523 C 0.4434 0.20827 0.47143 0.0
C524 C 0.49322 0.31837 0.45561 0.0
C525 C 0.46476 0.34209 0.47806 0.0
C526 C 0.45149 0.25457 0.47357 0.0
C527 C 0.43017 0.32075 0.49818 0.0
C528 C 0.40734 0.1881 0.49045 0.0
C529 C 0.46584 0.14212 0.448 0.0
N530 N 0.42448 0.27821 0.49542 0.0
N531 N 0.47138 0.18463 0.4508 0.0
H532 H 0.15251 0.21956 0.7963 0.0
H533 H 0.90454 0.28006 0.80917 0.0
H534 H 0.11434 0.34577 0.81832 0.0
H535 H 0.94301 0.15324 0.79157 0.0
H536 H 0.98125 0.30369 0.81947 0.0
H537 H 0.07627 0.19374 0.8013 0.0
C538 C 0.12815 0.24183 0.80252 0.0
C539 C 0.13977 0.28498 0.80644 0.0
C540 C 0.9729 0.27063 0.81373 0.0
C541 C 0.05232 0.25561 0.81198 0.0
C542 C 0.92907 0.25709 0.80784 0.0
C543 C 0.91735 0.21466 0.79903 0.0
C544 C 0.00531 0.24158 0.81058 0.0
C545 C 0.95054 0.1863 0.79797 0.0
C546 C 0.08458 0.22704 0.80539 0.0
C547 C 0.10684 0.3123 0.81479 0.0
N548 N 0.99305 0.20035 0.80327 0.0
N549 N 0.06454 0.2972 0.8169 0.0
H550 H 0.94171 0.87552 0.98017 0.0
H551 H 0.06356 0.67564 0.90265 0.0
H552 H 0.06449 0.88471 0.91762 0.0
H553 H 0.93704 0.66781 0.95853 0.0
H554 H 0.06504 0.75211 0.90838 0.0
H555 H 0.93998 0.79927 0.97292 0.0
C556 C 0.96845 0.86151 0.96509 0.0
C557 C 0.00341 0.88658 0.94966 0.0
C558 C 0.03685 0.73368 0.91917 0.0
C559 C 0.00155 0.79913 0.94114 0.0
C560 C 0.03598 0.68998 0.91597 0.0
C561 C 0.00022 0.66527 0.9304 0.0
C562 C 0.00151 0.75284 0.93654 0.0
C563 C 0.96539 0.68561 0.94724 0.0
C564 C 0.96736 0.81792 0.96083 0.0
C565 C 0.03698 0.86662 0.93015 0.0
N566 N 0.96692 0.72821 0.94985 0.0
N567 N 0.03525 0.82405 0.9265 0.0
H568 H 0.24722 0.35982 0.24321 0.0
H569 H 0.2504 0.59575 0.32982 0.0
H570 H 0.2431 0.39219 0.37165 0.0
H571 H 0.25236 0.56446 0.20099 0.0
H572 H 0.24541 0.52102 0.34544 0.0
H573 H 0.24654 0.43439 0.22675 0.0
C574 C 0.24592 0.38256 0.26794 0.0
C575 C 0.24529 0.36974 0.30889 0.0
C576 C 0.2468 0.53046 0.31374 0.0
C577 C 0.24473 0.45508 0.29028 0.0
C578 C 0.24966 0.57318 0.30477 0.0
C579 C 0.25191 0.58643 0.264 0.0
C580 C 0.24626 0.50069 0.28171 0.0
C581 C 0.25078 0.5557 0.23286 0.0
C582 C 0.24559 0.42513 0.25852 0.0
C583 C 0.24361 0.40058 0.33965 0.0
N584 N 0.24815 0.51426 0.24237 0.0
N585 N 0.24357 0.44179 0.3297 0.0
H586 H 0.75018 0.05687 0.68584 0.0
H587 H 0.70526 0.88853 0.86231 0.0
H588 H 0.74867 0.0882 0.8147 0.0
H589 H 0.72602 0.85408 0.73637 0.0
H590 H 0.71369 0.96239 0.84391 0.0
H591 H 0.73469 0.9829 0.70252 0.0
C592 C 0.74648 0.04825 0.7176 0.0
C593 C 0.75085 0.07878 0.74891 0.0
C594 C 0.71625 0.9387 0.82026 0.0
C595 C 0.73303 0.9943 0.76816 0.0
C596 C 0.71128 0.89645 0.8307 0.0
C597 C 0.71517 0.865 0.80085 0.0
C598 C 0.72509 0.94971 0.77966 0.0
C599 C 0.72292 0.87727 0.76039 0.0
C600 C 0.73768 0.00602 0.72709 0.0
C601 C 0.74571 0.06577 0.78954 0.0
N602 N 0.72779 0.91869 0.751 0.0
N603 N 0.7371 0.02455 0.79796 0.0
H604 H 0.33147 0.45325 0.92938 0.0
H605 H 0.1012 0.52637 0.00458 0.0
H606 H 0.31344 0.51721 0.04437 0.0
H607 H 0.11638 0.45624 0.89255 0.0
H608 H 0.17871 0.52108 0.02049 0.0
H609 H 0.2526 0.4519 0.91602 0.0
C610 C 0.31093 0.46676 0.95195 0.0
C611 C 0.3291 0.48547 0.98803 0.0
C612 C 0.1651 0.50666 0.9925 0.0
C613 C 0.23891 0.48416 0.97286 0.0
C614 C 0.12079 0.50967 0.98339 0.0
C615 C 0.10229 0.49188 0.94707 0.0
C616 C 0.19125 0.48588 0.96503 0.0
C617 C 0.12928 0.4705 0.92086 0.0
C618 C 0.2659 0.46601 0.94428 0.0
C619 C 0.30091 0.50258 0.0161 0.0
N620 N 0.17248 0.46829 0.93025 0.0
N621 N 0.25728 0.50163 0.00784 0.0
H622 H 0.78256 0.14507 0.36972 0.0
H623 H 0.795 0.97187 0.19222 0.0
H624 H 0.79569 0.17571 0.24201 0.0
H625 H 0.77802 0.94322 0.31998 0.0
H626 H 0.80186 0.04672 0.21012 0.0
H627 H 0.78763 0.07109 0.35235 0.0
C628 C 0.78672 0.13626 0.338 0.0
C629 C 0.78828 0.16657 0.3072 0.0
C630 C 0.7969 0.024 0.23423 0.0
C631 C 0.79394 0.08175 0.28703 0.0
C632 C 0.79301 0.98127 0.22404 0.0
C633 C 0.78559 0.95125 0.2546 0.0
C634 C 0.79334 0.03672 0.27525 0.0
C635 C 0.78343 0.96523 0.29534 0.0
C636 C 0.78963 0.09396 0.32809 0.0
C637 C 0.79413 0.15334 0.2667 0.0
N638 N 0.78705 0.00693 0.30441 0.0
N639 N 0.79642 0.11182 0.25773 0.0
H640 H 0.871 0.99795 0.86196 0.0
H641 H 0.69201 0.04154 0.02932 0.0
H642 H 0.90239 0.05231 0.9814 0.0
H643 H 0.6631 0.97434 0.91553 0.0
H644 H 0.76802 0.05301 0.00906 0.0
H645 H 0.79348 0.99685 0.87772 0.0
C646 C 0.8616 0.00998 0.8914 0.0
C647 C 0.89329 0.02491 0.92057 0.0
C648 C 0.74498 0.03592 0.98846 0.0
C649 C 0.80455 0.02351 0.93889 0.0
C650 C 0.70156 0.02937 -1e-05 0.0
C651 C 0.67118 0.00668 0.97423 0.0
C652 C 0.75813 0.01975 0.95085 0.0
C653 C 0.68542 0.9918 0.9365 0.0
C654 C 0.8173 0.00925 0.9004 0.0
C655 C 0.87912 0.0403 0.95809 0.0
N656 N 0.7279 -0.00154 0.92605 0.0
N657 N 0.8358 0.03895 0.96627 0.0
H658 H 0.27447 0.65521 0.75003 0.0
H659 H 0.28781 0.42069 0.83152 0.0
H660 H 0.26841 0.62217 0.87767 0.0
H661 H 0.297 0.45394 0.70409 0.0
H662 H 0.28544 0.49497 0.84944 0.0
H663 H 0.28731 0.58231 0.73301 0.0
C664 C 0.27607 0.63269 0.77451 0.0
C665 C 0.27007 0.64477 0.81532 0.0
C666 C 0.28824 0.48606 0.81757 0.0
C667 C 0.28463 0.56122 0.79602 0.0
C668 C 0.28963 0.44361 0.80729 0.0
C669 C 0.29233 0.43101 0.76616 0.0
C670 C 0.28935 0.51618 0.78651 0.0
C671 C 0.29473 0.46217 0.73616 0.0
C672 C 0.28341 0.59105 0.76476 0.0
C673 C 0.27263 0.61425 0.84577 0.0
N674 N 0.2929 0.50329 0.74691 0.0
N675 N 0.27948 0.57385 0.83547 0.0
H676 H 0.12963 0.4612 0.42105 0.0
H677 H 0.37736 0.5234 0.48949 0.0
H678 H 0.1658 0.54253 0.52438 0.0
H679 H 0.34 0.44758 0.38263 0.0
H680 H 0.30024 0.53361 0.50108 0.0
H681 H 0.20662 0.45836 0.40512 0.0
C682 C 0.15376 0.47858 0.44035 0.0
C683 C 0.14123 0.50196 0.47427 0.0
C684 C 0.30895 0.51495 0.47497 0.0
C685 C 0.22967 0.49879 0.45608 0.0
C686 C 0.35299 0.50912 0.46831 0.0
C687 C 0.36517 0.48436 0.43519 0.0
C688 C 0.27685 0.49574 0.44842 0.0
C689 C 0.33217 0.46674 0.40868 0.0
C690 C 0.19779 0.477 0.43114 0.0
C691 C 0.17398 0.52399 0.49801 0.0
N692 N 0.28954 0.47257 0.41604 0.0
N693 N 0.21673 0.52169 0.48858 0.0
H694 H 0.66517 0.74444 0.92391 0.0
H695 H 0.78513 0.76298 0.14305 0.0
H696 H 0.78495 0.6857 0.95322 0.0
H697 H 0.65588 0.80505 0.11935 0.0
H698 H 0.78524 0.73399 0.07366 0.0
H699 H 0.6599 0.76481 0.99589 0.0
C700 C 0.69007 0.73538 0.94553 0.0
C701 C 0.72572 0.71353 0.93246 0.0
C702 C 0.75678 0.74943 0.08365 0.0
C703 C 0.72021 0.73757 0.01462 0.0
C704 C 0.75678 0.76622 0.12322 0.0
C705 C 0.7205 0.78667 0.13698 0.0
C706 C 0.72037 0.75333 0.05747 0.0
C707 C 0.6846 0.78964 0.11 0.0
C708 C 0.68708 0.74717 0.98656 0.0
C709 C 0.75695 0.70258 0.96187 0.0
N710 N 0.68552 0.77332 0.07147 0.0
N711 N 0.75372 0.71514 0.00149 0.0
H712 H 0.52866 0.52754 0.32728 0.0
H713 H 0.49621 0.42777 0.1024 0.0
H714 H 0.52262 0.39414 0.30166 0.0
H715 H 0.51024 0.56126 0.1271 0.0
H716 H 0.5095 0.4149 0.17499 0.0
H717 H 0.52636 0.54064 0.25379 0.0
C718 C 0.52729 0.501 0.30622 0.0
C719 C 0.52549 0.45967 0.32068 0.0
C720 C 0.50989 0.44701 0.16452 0.0
C721 C 0.52247 0.47445 0.2365 0.0
C722 C 0.50221 0.4544 0.12306 0.0
C723 C 0.50183 0.49568 0.10867 0.0
C724 C 0.51705 0.48114 0.19188 0.0
C725 C 0.51005 0.52892 0.13684 0.0
C726 C 0.52589 0.50851 0.26424 0.0
C727 C 0.52384 0.42653 0.29194 0.0
N728 N 0.51708 0.52093 0.17712 0.0
N729 N 0.52202 0.43465 0.25124 0.0
H730 H 0.73176 0.35187 0.45917 0.0
H731 H 0.86569 0.21336 0.61515 0.0
H732 H 0.83755 0.27717 0.42309 0.0
H733 H 0.74959 0.2754 0.64678 0.0
H734 H 0.86033 0.24165 0.54612 0.0
H735 H 0.74347 0.33078 0.53001 0.0
C736 C 0.75781 0.33147 0.46618 0.0
C737 C 0.78355 0.31612 0.43507 0.0
C738 C 0.83617 0.24924 0.56822 0.0
C739 C 0.79669 0.29133 0.51602 0.0
C740 C 0.83915 0.23302 0.60762 0.0
C741 C 0.80792 0.24186 0.63673 0.0
C742 C 0.80193 0.27478 0.55795 0.0
C743 C 0.77425 0.26753 0.62526 0.0
C744 C 0.76432 0.31925 0.50662 0.0
C745 C 0.81686 0.28978 0.44603 0.0
N746 N 0.77217 0.28309 0.5868 0.0
N747 N 0.82215 0.2779 0.48552 0.0
H748 H 0.96635 0.54127 0.59414 0.0
H749 H 0.96722 0.46208 0.82554 0.0
H750 H 0.00618 0.41943 0.63079 0.0
H751 H 0.92375 0.58272 0.78919 0.0
H752 H 0.97805 0.44461 0.75381 0.0
H753 H 0.94816 0.55622 0.66501 0.0
C754 C 0.97133 0.51767 0.61709 0.0
C755 C 0.98796 0.47908 0.60654 0.0
C756 C 0.96585 0.47479 0.76146 0.0
C757 C 0.96702 0.49593 0.68767 0.0
C758 C 0.95952 0.48476 0.80244 0.0
C759 C 0.94476 0.52403 0.81342 0.0
C760 C 0.95756 0.50436 0.73117 0.0
C761 C 0.93524 0.5521 0.78214 0.0
C762 C 0.9608 0.52619 0.65753 0.0
C763 C 0.99357 0.44964 0.63752 0.0
N764 N 0.94212 0.54183 0.74244 0.0
N765 N 0.9832 0.45872 0.67668 0.0
H766 H 0.81527 0.94361 0.432 0.0
H767 H 0.57827 0.97457 0.51543 0.0
H768 H 0.7912 0.9779 0.55732 0.0
H769 H 0.59984 0.91074 0.40115 0.0
H770 H 0.65615 0.97373 0.53211 0.0
H771 H 0.73674 0.92894 0.42057 0.0
C772 C 0.79353 0.94763 0.45724 0.0
C773 C 0.80979 0.96241 0.49559 0.0
C774 C 0.64383 0.95947 0.50359 0.0
C775 C 0.71991 0.94598 0.48259 0.0
C776 C 0.59936 0.96003 0.494 0.0
C777 C 0.58264 0.94305 0.45668 0.0
C778 C 0.67194 0.94235 0.47541 0.0
C779 C 0.6114 0.92431 0.43021 0.0
C780 C 0.7487 0.93917 0.4507 0.0
C781 C 0.78013 0.96681 0.52721 0.0
N782 N 0.6548 0.92496 0.43985 0.0
N783 N 0.73658 0.95911 0.51986 0.0
loop_
_geom_bond_atom_site_label_1
_geom_bond_atom_site_label_2
_geom_bond_distance
_geom_bond_site_symmetry_2
_ccdc_geom_bond_type
C0 O1 1.160 . S
C0 O7 1.185 . S
O1 C0 1.160 . S
O2 Zn3 1.899 . S
O2 C10 1.284 . S
Zn3 O2 1.899 . S
Zn3 O4 2.032 . S
Zn3 O7 2.086 . S
Zn3 O12 1.977 . S
O4 Zn3 2.032 . S
O4 C8 1.278 . S
C5 O6 1.203 . S
C5 O12 1.267 . S
O6 C5 1.203 . S
O7 C0 1.185 . S
O7 Zn3 2.086 . S
C8 O4 1.278 . S
C8 O9 1.211 . S
O9 C8 1.211 . S
C10 O2 1.284 . S
C10 O11 1.273 . S
O11 C10 1.273 . S
O12 Zn3 1.977 . S
O12 C5 1.267 . S
C13 O14 1.160 1_455 S
C13 O20 1.185 . S
O14 C13 1.160 1_655 S
O15 Zn16 1.899 . S
O15 C23 1.286 . S
Zn16 O15 1.899 . S
Zn16 O17 2.032 1_545 S
Zn16 O20 2.086 1_645 S
Zn16 O25 1.977 1_655 S
O17 Zn16 2.032 1_565 S
O17 C21 1.278 1_565 S
C18 O19 1.203 . S
C18 O25 1.267 1_655 S
O19 C18 1.203 . S
O20 C13 1.185 . S
O20 Zn16 2.086 1_465 S
C21 O17 1.278 1_545 S
C21 O22 1.211 . S
O22 C21 1.211 . S
C23 O15 1.286 . S
C23 O24 1.276 . S
O24 C23 1.276 . S
O25 Zn16 1.977 1_455 S
O25 C18 1.267 1_455 S
C26 O27 1.160 . S
C26 O33 1.185 . S
O27 C26 1.160 . S
O28 Zn29 1.899 . S
O28 C36 1.284 . S
Zn29 O28 1.899 . S
Zn29 O30 2.032 . S
Zn29 O33 2.086 . S
Zn29 O38 1.977 . S
O30 Zn29 2.032 . S
O30 C34 1.278 . S
C31 O32 1.203 . S
C31 O38 1.267 . S
O32 C31 1.203 . S
O33 C26 1.185 . S
O33 Zn29 2.086 . S
C34 O30 1.278 . S
C34 O35 1.211 . S
O35 C34 1.211 . S
C36 O28 1.284 . S
C36 O37 1.273 . S
O37 C36 1.273 . S
O38 Zn29 1.977 . S
O38 C31 1.267 . S
C39 O40 1.160 . S
C39 O46 1.185 . S
O40 C39 1.160 . S
O41 Zn42 1.899 1_556 S
O41 C49 1.284 1_556 S
Zn42 O41 1.899 1_554 S
Zn42 O43 2.032 1_565 S
Zn42 O46 2.086 1_564 S
Zn42 O51 1.977 . S
O43 Zn42 2.032 1_545 S
O43 C47 1.278 1_545 S
C44 O45 1.203 . S
C44 O51 1.267 . S
O45 C44 1.203 . S
O46 C39 1.185 . S
O46 Zn42 2.086 1_546 S
C47 O43 1.278 1_565 S
C47 O48 1.211 . S
O48 C47 1.211 . S
C49 O41 1.284 1_554 S
C49 O50 1.273 . S
O50 C49 1.273 . S
O51 Zn42 1.977 . S
O51 C44 1.267 . S
C52 O53 1.160 . S
C52 O59 1.185 . S
O53 C52 1.160 . S
O54 Zn55 1.899 . S
O54 C62 1.284 . S
Zn55 O54 1.899 . S
Zn55 O56 2.032 . S
Zn55 O59 2.086 . S
Zn55 O64 1.977 . S
O56 Zn55 2.032 . S
O56 C60 1.278 . S
C57 O58 1.203 . S
C57 O64 1.267 . S
O58 C57 1.203 . S
O59 C52 1.185 . S
O59 Zn55 2.086 . S
C60 O56 1.278 . S
C60 O61 1.211 . S
O61 C60 1.211 . S
C62 O54 1.284 . S
C62 O63 1.273 . S
O63 C62 1.273 . S
O64 Zn55 1.977 . S
O64 C57 1.267 . S
C65 O66 1.160 1_565 S
C65 O72 1.185 . S
O66 C65 1.160 1_545 S
O67 Zn68 1.899 . S
O67 C75 1.284 . S
Zn68 O67 1.899 . S
Zn68 O69 2.032 . S
Zn68 O72 2.086 1_545 S
Zn68 O77 1.977 1_545 S
O69 Zn68 2.032 . S
O69 C73 1.278 . S
C70 O71 1.203 . S
C70 O77 1.267 1_545 S
O71 C70 1.203 . S
O72 C65 1.185 . S
O72 Zn68 2.086 1_565 S
C73 O69 1.278 . S
C73 O74 1.211 . S
O74 C73 1.211 . S
C75 O67 1.284 . S
C75 O76 1.273 . S
O76 C75 1.273 . S
O77 Zn68 1.977 1_565 S
O77 C70 1.267 1_565 S
C78 O79 1.160 . S
C78 O85 1.185 . S
O79 C78 1.160 . S
O80 Zn81 1.899 . S
O80 C88 1.284 . S
Zn81 O80 1.899 . S
Zn81 O82 2.032 . S
Zn81 O85 2.086 . S
Zn81 O90 1.977 . S
O82 Zn81 2.032 . S
O82 C86 1.278 . S
C83 O84 1.203 . S
C83 O90 1.267 . S
O84 C83 1.203 . S
O85 C78 1.185 . S
O85 Zn81 2.086 . S
C86 O82 1.278 . S
C86 O87 1.211 . S
O87 C86 1.211 . S
C88 O80 1.284 . S
C88 O89 1.273 . S
O89 C88 1.273 . S
O90 Zn81 1.977 . S
O90 C83 1.267 . S
C91 O92 1.160 1_545 S
C91 O98 1.185 1_554 S
O92 C91 1.160 1_565 S
O93 Zn94 1.899 1_455 S
O93 C101 1.284 1_455 S
Zn94 O93 1.899 1_655 S
Zn94 O95 2.032 . S
Zn94 O98 2.086 1_665 S
Zn94 O103 1.977 1_565 S
O95 Zn94 2.032 . S
O95 C99 1.278 . S
C96 O97 1.203 . S
C96 O103 1.267 1_565 S
O97 C96 1.203 . S
O98 C91 1.185 1_556 S
O98 Zn94 2.086 1_445 S
C99 O95 1.278 . S
C99 O100 1.211 . S
O100 C99 1.211 . S
C101 O93 1.284 1_655 S
C101 O102 1.273 . S
O102 C101 1.273 . S
O103 Zn94 1.977 1_545 S
O103 C96 1.267 1_545 S
C104 O105 1.160 . S
C104 O111 1.185 . S
O105 C104 1.160 . S
O106 Zn107 1.899 . S
O106 C114 1.284 . S
Zn107 O106 1.899 . S
Zn107 O108 2.032 . S
Zn107 O111 2.086 . S
Zn107 O116 1.977 . S
O108 Zn107 2.032 . S
O108 C112 1.278 . S
C109 O110 1.203 . S
C109 O116 1.267 . S
O110 C109 1.203 . S
O111 C104 1.185 . S
O111 Zn107 2.086 . S
C112 O108 1.278 . S
C112 O113 1.211 . S
O113 C112 1.211 . S
C114 O106 1.284 . S
C114 O115 1.273 . S
O115 C114 1.273 . S
O116 Zn107 1.977 . S
O116 C109 1.267 . S
C117 O118 1.160 . S
C117 O124 1.185 1_554 S
O118 C117 1.160 . S
O119 Zn120 1.899 1_655 S
O119 C127 1.284 1_655 S
Zn120 O119 1.899 1_455 S
Zn120 O121 2.032 . S
Zn120 O124 2.086 1_455 S
Zn120 O129 1.977 1_455 S
O121 Zn120 2.032 . S
O121 C125 1.278 . S
C122 O123 1.203 . S
C122 O129 1.267 1_455 S
O123 C122 1.203 . S
O124 C117 1.185 1_556 S
O124 Zn120 2.086 1_655 S
C125 O121 1.278 . S
C125 O126 1.211 . S
O126 C125 1.211 . S
C127 O119 1.284 1_455 S
C127 O128 1.273 . S
O128 C127 1.273 . S
O129 Zn120 1.977 1_655 S
O129 C122 1.267 1_655 S
C130 O131 1.160 . S
C130 O137 1.185 . S
O131 C130 1.160 . S
O132 Zn133 1.899 . S
O132 C140 1.284 . S
Zn133 O132 1.899 . S
Zn133 O134 2.032 . S
Zn133 O137 2.086 . S
Zn133 O142 1.977 . S
O134 Zn133 2.032 . S
O134 C138 1.278 . S
C135 O136 1.203 . S
C135 O142 1.267 . S
O136 C135 1.203 . S
O137 C130 1.185 . S
O137 Zn133 2.086 . S
C138 O134 1.278 . S
C138 O139 1.211 . S
O139 C138 1.211 . S
C140 O132 1.284 . S
C140 O141 1.273 . S
O141 C140 1.273 . S
O142 Zn133 1.977 . S
O142 C135 1.267 . S
C143 O144 1.160 1_655 S
C143 O150 1.185 . S
O144 C143 1.160 1_455 S
O145 Zn146 1.899 . S
O145 C153 1.284 . S
Zn146 O145 1.899 . S
Zn146 O147 2.032 . S
Zn146 O150 2.086 1_455 S
Zn146 O155 1.977 1_455 S
O147 Zn146 2.032 . S
O147 C151 1.278 . S
C148 O149 1.203 . S
C148 O155 1.267 1_455 S
O149 C148 1.203 . S
O150 C143 1.185 . S
O150 Zn146 2.086 1_655 S
C151 O147 1.278 . S
C151 O152 1.211 . S
O152 C151 1.211 . S
C153 O145 1.284 . S
C153 O154 1.273 . S
O154 C153 1.273 . S
O155 Zn146 1.977 1_655 S
O155 C148 1.267 1_655 S
C156 O157 1.160 . S
C156 O163 1.185 . S
O157 C156 1.160 . S
O158 Zn159 1.899 1_556 S
O158 C166 1.284 1_556 S
Zn159 O158 1.899 1_554 S
Zn159 O160 2.032 . S
Zn159 O163 2.086 1_554 S
Zn159 O168 1.977 . S
O160 Zn159 2.032 . S
O160 C164 1.278 . S
C161 O162 1.203 . S
C161 O168 1.267 . S
O162 C161 1.203 . S
O163 C156 1.185 . S
O163 Zn159 2.086 1_556 S
C164 O160 1.278 . S
C164 O165 1.211 . S
O165 C164 1.211 . S
C166 O158 1.284 1_554 S
C166 O167 1.273 . S
O167 C166 1.273 . S
O168 Zn159 1.977 . S
O168 C161 1.267 . S
C169 O170 1.160 . S
C169 O176 1.185 . S
O170 C169 1.160 . S
O171 Zn172 1.899 . S
O171 C179 1.284 . S
Zn172 O171 1.899 . S
Zn172 O173 2.032 . S
Zn172 O176 2.086 . S
Zn172 O181 1.977 . S
O173 Zn172 2.032 . S
O173 C177 1.278 . S
C174 O175 1.203 . S
C174 O181 1.267 . S
O175 C174 1.203 . S
O176 C169 1.185 . S
O176 Zn172 2.086 . S
C177 O173 1.278 . S
C177 O178 1.211 . S
O178 C177 1.211 . S
C179 O171 1.284 . S
C179 O180 1.273 . S
O180 C179 1.273 . S
O181 Zn172 1.977 . S
O181 C174 1.267 . S
C182 O183 1.160 . S
C182 O189 1.185 . S
O183 C182 1.160 . S
O184 Zn185 1.899 . S
O184 C192 1.284 . S
Zn185 O184 1.899 . S
Zn185 O186 2.032 . S
Zn185 O189 2.086 . S
Zn185 O194 1.977 . S
O186 Zn185 2.032 . S
O186 C190 1.278 . S
C187 O188 1.203 . S
C187 O194 1.267 . S
O188 C187 1.203 . S
O189 C182 1.185 . S
O189 Zn185 2.086 . S
C190 O186 1.278 . S
C190 O191 1.211 . S
O191 C190 1.211 . S
C192 O184 1.284 . S
C192 O193 1.273 . S
O193 C192 1.273 . S
O194 Zn185 1.977 . S
O194 C187 1.267 . S
C195 O196 1.160 . S
C195 O202 1.185 . S
O196 C195 1.160 . S
O197 Zn198 1.899 . S
O197 C205 1.284 . S
Zn198 O197 1.899 . S
Zn198 O199 2.032 . S
Zn198 O202 2.086 . S
Zn198 O207 1.977 . S
O199 Zn198 2.032 . S
O199 C203 1.278 . S
C200 O201 1.203 . S
C200 O207 1.267 . S
O201 C200 1.203 . S
O202 C195 1.185 . S
O202 Zn198 2.086 . S
C203 O199 1.278 . S
C203 O204 1.211 . S
O204 C203 1.211 . S
C205 O197 1.284 . S
C205 O206 1.273 . S
O206 C205 1.273 . S
O207 Zn198 1.977 . S
O207 C200 1.267 . S
H208 C214 0.930 . S
H209 C218 0.930 . S
H210 C223 0.929 . S
H211 C221 0.929 . S
H212 C216 0.929 . S
H213 C222 0.929 . S
C214 H208 0.930 . S
C214 C215 1.367 . S
C214 C222 1.378 . S
C215 C214 1.367 . S
C215 C223 1.433 . S
C216 H212 0.929 . S
C216 C218 1.378 . S
C216 C220 1.350 . S
C217 C220 1.463 . S
C217 C222 1.350 . S
C217 N225 1.427 . S
C218 H209 0.930 . S
C218 C216 1.378 . S
C218 C219 1.367 . S
C219 C218 1.367 . S
C219 C221 1.433 . S
C220 C216 1.350 . S
C220 C217 1.463 . S
C220 N224 1.427 . S
C221 H211 0.929 . S
C221 C219 1.433 . S
C221 N224 1.384 . S
C222 H213 0.929 . S
C222 C214 1.378 . S
C222 C217 1.350 . S
C223 H210 0.929 . S
C223 C215 1.433 . S
C223 N225 1.384 . S
N224 C220 1.427 . S
N224 C221 1.384 . S
N225 C217 1.427 . S
N225 C223 1.384 . S
H226 C232 0.930 . S
H227 C236 0.930 . S
H228 C241 0.929 . S
H229 C239 0.929 . S
H230 C234 0.929 . S
H231 C240 0.929 . S
C232 H226 0.930 . S
C232 C233 1.367 . S
C232 C240 1.378 . S
C233 C232 1.367 . S
C233 C241 1.433 . S
C234 H230 0.929 . S
C234 C236 1.378 . S
C234 C238 1.350 . S
C235 C238 1.463 . S
C235 C240 1.350 . S
C235 N243 1.427 . S
C236 H227 0.930 . S
C236 C234 1.378 . S
C236 C237 1.367 . S
C237 C236 1.367 . S
C237 C239 1.433 . S
C238 C234 1.350 . S
C238 C235 1.463 . S
C238 N242 1.427 . S
C239 H229 0.929 . S
C239 C237 1.433 . S
C239 N242 1.384 . S
C240 H231 0.929 . S
C240 C232 1.378 . S
C240 C235 1.350 . S
C241 H228 0.929 . S
C241 C233 1.433 . S
C241 N243 1.384 . S
N242 C238 1.427 . S
N242 C239 1.384 . S
N243 C235 1.427 . S
N243 C241 1.384 . S
H244 C250 0.930 . S
H245 C254 0.930 . S
H246 C259 0.929 . S
H247 C257 0.929 . S
H248 C252 0.929 . S
H249 C258 0.929 . S
C250 H244 0.930 . S
C250 C251 1.367 . S
C250 C258 1.378 . S
C251 C250 1.367 . S
C251 C259 1.433 . S
C252 H248 0.929 . S
C252 C254 1.378 . S
C252 C256 1.350 . S
C253 C256 1.463 . S
C253 C258 1.350 . S
C253 N261 1.427 . S
C254 H245 0.930 . S
C254 C252 1.378 . S
C254 C255 1.367 . S
C255 C254 1.367 . S
C255 C257 1.433 . S
C256 C252 1.350 . S
C256 C253 1.463 . S
C256 N260 1.427 . S
C257 H247 0.929 . S
C257 C255 1.433 . S
C257 N260 1.384 . S
C258 H249 0.929 . S
C258 C250 1.378 . S
C258 C253 1.350 . S
C259 H246 0.929 . S
C259 C251 1.433 . S
C259 N261 1.384 . S
N260 C256 1.427 . S
N260 C257 1.384 . S
N261 C253 1.427 . S
N261 C259 1.384 . S
H262 C268 0.930 . S
H263 C272 0.930 . S
H264 C277 0.929 . S
H265 C275 0.929 . S
H266 C270 0.929 . S
H267 C276 0.929 . S
C268 H262 0.930 . S
C268 C269 1.367 . S
C268 C276 1.378 . S
C269 C268 1.367 . S
C269 C277 1.433 . S
C270 H266 0.929 . S
C270 C272 1.378 . S
C270 C274 1.350 . S
C271 C274 1.463 . S
C271 C276 1.350 . S
C271 N279 1.427 . S
C272 H263 0.930 . S
C272 C270 1.378 . S
C272 C273 1.367 . S
C273 C272 1.367 . S
C273 C275 1.433 . S
C274 C270 1.350 . S
C274 C271 1.463 . S
C274 N278 1.427 . S
C275 H265 0.929 . S
C275 C273 1.433 . S
C275 N278 1.384 . S
C276 H267 0.929 . S
C276 C268 1.378 . S
C276 C271 1.350 . S
C277 H264 0.929 . S
C277 C269 1.433 . S
C277 N279 1.384 . S
N278 C274 1.427 . S
N278 C275 1.384 . S
N279 C271 1.427 . S
N279 C277 1.384 . S
H280 C286 0.930 . S
H281 C290 0.930 . S
H282 C295 0.929 . S
H283 C293 0.929 . S
H284 C288 0.929 . S
H285 C294 0.929 . S
C286 H280 0.930 . S
C286 C287 1.367 . S
C286 C294 1.378 . S
C287 C286 1.367 . S
C287 C295 1.433 . S
C288 H284 0.929 . S
C288 C290 1.378 . S
C288 C292 1.350 . S
C289 C292 1.463 . S
C289 C294 1.350 . S
C289 N297 1.427 . S
C290 H281 0.930 . S
C290 C288 1.378 . S
C290 C291 1.367 . S
C291 C290 1.367 . S
C291 C293 1.433 . S
C292 C288 1.350 . S
C292 C289 1.463 . S
C292 N296 1.427 . S
C293 H283 0.929 . S
C293 C291 1.433 . S
C293 N296 1.384 . S
C294 H285 0.929 . S
C294 C286 1.378 . S
C294 C289 1.350 . S
C295 H282 0.929 . S
C295 C287 1.433 . S
C295 N297 1.384 . S
N296 C292 1.427 . S
N296 C293 1.384 . S
N297 C289 1.427 . S
N297 C295 1.384 . S
H298 C304 0.930 . S
H299 C308 0.930 . S
H300 C313 0.929 . S
H301 C311 0.929 . S
H302 C306 0.929 . S
H303 C312 0.929 . S
C304 H298 0.930 . S
C304 C305 1.367 . S
C304 C312 1.378 . S
C305 C304 1.367 . S
C305 C313 1.433 . S
C306 H302 0.929 . S
C306 C308 1.378 . S
C306 C310 1.350 . S
C307 C310 1.463 . S
C307 C312 1.350 . S
C307 N315 1.427 . S
C308 H299 0.930 . S
C308 C306 1.378 . S
C308 C309 1.367 . S
C309 C308 1.367 . S
C309 C311 1.433 . S
C310 C306 1.350 . S
C310 C307 1.463 . S
C310 N314 1.427 . S
C311 H301 0.929 . S
C311 C309 1.433 . S
C311 N314 1.384 . S
C312 H303 0.929 . S
C312 C304 1.378 . S
C312 C307 1.350 . S
C313 H300 0.929 . S
C313 C305 1.433 . S
C313 N315 1.384 . S
N314 C310 1.427 . S
N314 C311 1.384 . S
N315 C307 1.427 . S
N315 C313 1.384 . S
H316 C322 0.930 . S
H317 C326 0.930 . S
H318 C331 0.929 . S
H319 C329 0.929 . S
H320 C324 0.929 . S
H321 C330 0.929 . S
C322 H316 0.930 . S
C322 C323 1.367 . S
C322 C330 1.378 . S
C323 C322 1.367 . S
C323 C331 1.433 . S
C324 H320 0.929 . S
C324 C326 1.378 . S
C324 C328 1.350 . S
C325 C328 1.463 . S
C325 C330 1.350 . S
C325 N333 1.427 . S
C326 H317 0.930 . S
C326 C324 1.378 . S
C326 C327 1.367 . S
C327 C326 1.367 . S
C327 C329 1.433 . S
C328 C324 1.350 . S
C328 C325 1.463 . S
C328 N332 1.427 . S
C329 H319 0.929 . S
C329 C327 1.433 . S
C329 N332 1.384 . S
C330 H321 0.929 . S
C330 C322 1.378 . S
C330 C325 1.350 . S
C331 H318 0.929 . S
C331 C323 1.433 . S
C331 N333 1.384 . S
N332 C328 1.427 . S
N332 C329 1.384 . S
N333 C325 1.427 . S
N333 C331 1.384 . S
H334 C340 0.930 . S
H335 C344 0.930 . S
H336 C349 0.929 . S
H337 C347 0.929 . S
H338 C342 0.929 . S
H339 C348 0.929 . S
C340 H334 0.930 . S
C340 C341 1.367 . S
C340 C348 1.378 . S
C341 C340 1.367 . S
C341 C349 1.433 . S
C342 H338 0.929 . S
C342 C344 1.378 . S
C342 C346 1.350 . S
C343 C346 1.463 . S
C343 C348 1.350 . S
C343 N351 1.427 . S
C344 H335 0.930 . S
C344 C342 1.378 . S
C344 C345 1.367 . S
C345 C344 1.367 . S
C345 C347 1.433 . S
C346 C342 1.350 . S
C346 C343 1.463 . S
C346 N350 1.427 . S
C347 H337 0.929 . S
C347 C345 1.433 . S
C347 N350 1.384 . S
C348 H339 0.929 . S
C348 C340 1.378 . S
C348 C343 1.350 . S
C349 H336 0.929 . S
C349 C341 1.433 . S
C349 N351 1.384 . S
N350 C346 1.427 . S
N350 C347 1.384 . S
N351 C343 1.427 . S
N351 C349 1.384 . S
H352 C358 0.930 . S
H353 C362 0.930 . S
H354 C367 0.929 . S
H355 C365 0.929 . S
H356 C360 0.929 . S
H357 C366 0.929 . S
C358 H352 0.930 . S
C358 C359 1.367 . S
C358 C366 1.378 . S
C359 C358 1.367 . S
C359 C367 1.433 . S
C360 H356 0.929 . S
C360 C362 1.378 . S
C360 C364 1.350 . S
C361 C364 1.463 . S
C361 C366 1.350 . S
C361 N369 1.427 . S
C362 H353 0.930 . S
C362 C360 1.378 . S
C362 C363 1.367 . S
C363 C362 1.367 . S
C363 C365 1.433 . S
C364 C360 1.350 . S
C364 C361 1.463 . S
C364 N368 1.427 . S
C365 H355 0.929 . S
C365 C363 1.433 . S
C365 N368 1.384 . S
C366 H357 0.929 . S
C366 C358 1.378 . S
C366 C361 1.350 . S
C367 H354 0.929 . S
C367 C359 1.433 . S
C367 N369 1.384 . S
N368 C364 1.427 . S
N368 C365 1.384 . S
N369 C361 1.427 . S
N369 C367 1.384 . S
H370 C376 0.930 . S
H371 C380 0.930 . S
H372 C385 0.929 . S
H373 C383 0.929 . S
H374 C378 0.929 . S
H375 C384 0.929 . S
C376 H370 0.930 . S
C376 C377 1.367 . S
C376 C384 1.378 . S
C377 C376 1.367 . S
C377 C385 1.433 1_665 S
C378 H374 0.929 . S
C378 C380 1.378 . S
C378 C382 1.350 1_445 S
C379 C382 1.463 . S
C379 C384 1.350 . S
C379 N387 1.427 1_665 S
C380 H371 0.930 . S
C380 C378 1.378 . S
C380 C381 1.367 1_445 S
C381 C380 1.367 1_665 S
C381 C383 1.433 . S
C382 C378 1.350 1_665 S
C382 C379 1.463 . S
C382 N386 1.427 . S
C383 H373 0.929 . S
C383 C381 1.433 . S
C383 N386 1.384 . S
C384 H375 0.929 . S
C384 C376 1.378 . S
C384 C379 1.350 . S
C385 H372 0.929 . S
C385 C377 1.433 1_445 S
C385 N387 1.384 . S
N386 C382 1.427 . S
N386 C383 1.384 . S
N387 C379 1.427 1_445 S
N387 C385 1.384 . S
H388 C394 0.930 . S
H389 C398 0.930 . S
H390 C403 0.929 . S
H391 C401 0.929 . S
H392 C396 0.929 . S
H393 C402 0.929 . S
C394 H388 0.930 . S
C394 C395 1.367 . S
C394 C402 1.378 . S
C395 C394 1.367 . S
C395 C403 1.433 . S
C396 H392 0.929 . S
C396 C398 1.378 . S
C396 C400 1.350 . S
C397 C400 1.463 1_556 S
C397 C402 1.350 . S
C397 N405 1.427 . S
C398 H389 0.930 . S
C398 C396 1.378 . S
C398 C399 1.367 . S
C399 C398 1.367 . S
C399 C401 1.433 . S
C400 C396 1.350 . S
C400 C397 1.463 1_554 S
C400 N404 1.427 . S
C401 H391 0.929 . S
C401 C399 1.433 . S
C401 N404 1.384 . S
C402 H393 0.929 . S
C402 C394 1.378 . S
C402 C397 1.350 . S
C403 H390 0.929 . S
C403 C395 1.433 . S
C403 N405 1.384 . S
N404 C400 1.427 . S
N404 C401 1.384 . S
N405 C397 1.427 . S
N405 C403 1.384 . S
H406 C412 0.930 . S
H407 C416 0.930 . S
H408 C421 0.929 . S
H409 C419 0.929 . S
H410 C414 0.929 . S
H411 C420 0.929 . S
C412 H406 0.930 . S
C412 C413 1.367 . S
C412 C420 1.378 . S
C413 C412 1.367 . S
C413 C421 1.433 1_545 S
C414 H410 0.929 . S
C414 C416 1.378 . S
C414 C418 1.350 1_565 S
C415 C418 1.463 . S
C415 C420 1.350 . S
C415 N423 1.427 1_545 S
C416 H407 0.930 . S
C416 C414 1.378 . S
C416 C417 1.367 1_565 S
C417 C416 1.367 1_545 S
C417 C419 1.433 . S
C418 C414 1.350 1_545 S
C418 C415 1.463 . S
C418 N422 1.427 . S
C419 H409 0.929 . S
C419 C417 1.433 . S
C419 N422 1.384 . S
C420 H411 0.929 . S
C420 C412 1.378 . S
C420 C415 1.350 . S
C421 H408 0.929 . S
C421 C413 1.433 1_565 S
C421 N423 1.384 . S
N422 C418 1.427 . S
N422 C419 1.384 . S
N423 C415 1.427 1_565 S
N423 C421 1.384 . S
H424 C430 0.930 . S
H425 C434 0.930 . S
H426 C439 0.929 . S
H427 C437 0.929 . S
H428 C432 0.929 . S
H429 C438 0.929 . S
C430 H424 0.930 . S
C430 C431 1.367 . S
C430 C438 1.378 . S
C431 C430 1.367 . S
C431 C439 1.433 . S
C432 H428 0.929 . S
C432 C434 1.378 . S
C432 C436 1.350 . S
C433 C436 1.463 . S
C433 C438 1.350 . S
C433 N441 1.427 . S
C434 H425 0.930 . S
C434 C432 1.378 . S
C434 C435 1.367 . S
C435 C434 1.367 . S
C435 C437 1.433 . S
C436 C432 1.350 . S
C436 C433 1.463 . S
C436 N440 1.427 . S
C437 H427 0.929 . S
C437 C435 1.433 . S
C437 N440 1.384 . S
C438 H429 0.929 . S
C438 C430 1.378 . S
C438 C433 1.350 . S
C439 H426 0.929 . S
C439 C431 1.433 . S
C439 N441 1.384 . S
N440 C436 1.427 . S
N440 C437 1.384 . S
N441 C433 1.427 . S
N441 C439 1.384 . S
H442 C448 0.930 . S
H443 C452 0.930 . S
H444 C457 0.929 . S
H445 C455 0.929 . S
H446 C450 0.929 . S
H447 C456 0.929 . S
C448 H442 0.930 . S
C448 C449 1.367 . S
C448 C456 1.378 . S
C449 C448 1.367 . S
C449 C457 1.433 1_655 S
C450 H446 0.929 . S
C450 C452 1.378 . S
C450 C454 1.350 1_455 S
C451 C454 1.463 . S
C451 C456 1.350 . S
C451 N459 1.427 1_655 S
C452 H443 0.930 . S
C452 C450 1.378 . S
C452 C453 1.367 1_455 S
C453 C452 1.367 1_655 S
C453 C455 1.433 . S
C454 C450 1.350 1_655 S
C454 C451 1.463 . S
C454 N458 1.427 . S
C455 H445 0.929 . S
C455 C453 1.433 . S
C455 N458 1.384 . S
C456 H447 0.929 . S
C456 C448 1.378 . S
C456 C451 1.350 . S
C457 H444 0.929 . S
C457 C449 1.433 1_455 S
C457 N459 1.384 . S
N458 C454 1.427 . S
N458 C455 1.384 . S
N459 C451 1.427 1_455 S
N459 C457 1.384 . S
H460 C466 0.930 . S
H461 C470 0.930 . S
H462 C475 0.929 . S
H463 C473 0.929 . S
H464 C468 0.929 . S
H465 C474 0.929 . S
C466 H460 0.930 . S
C466 C467 1.367 . S
C466 C474 1.378 . S
C467 C466 1.367 . S
C467 C475 1.433 . S
C468 H464 0.929 . S
C468 C470 1.378 . S
C468 C472 1.350 . S
C469 C472 1.463 1_655 S
C469 C474 1.350 . S
C469 N477 1.427 . S
C470 H461 0.930 . S
C470 C468 1.378 . S
C470 C471 1.367 . S
C471 C470 1.367 . S
C471 C473 1.433 . S
C472 C468 1.350 . S
C472 C469 1.463 1_455 S
C472 N476 1.427 . S
C473 H463 0.929 . S
C473 C471 1.433 . S
C473 N476 1.384 . S
C474 H465 0.929 . S
C474 C466 1.378 . S
C474 C469 1.350 . S
C475 H462 0.929 . S
C475 C467 1.433 . S
C475 N477 1.384 . S
N476 C472 1.427 . S
N476 C473 1.384 . S
N477 C469 1.427 . S
N477 C475 1.384 . S
H478 C484 0.930 . S
H479 C488 0.930 . S
H480 C493 0.929 . S
H481 C491 0.929 . S
H482 C486 0.929 . S
H483 C492 0.929 . S
C484 H478 0.930 . S
C484 C485 1.367 1_556 S
C484 C492 1.378 . S
C485 C484 1.367 1_554 S
C485 C493 1.433 . S
C486 H482 0.929 . S
C486 C488 1.378 . S
C486 C490 1.350 . S
C487 C490 1.463 . S
C487 C492 1.350 1_554 S
C487 N495 1.427 . S
C488 H479 0.930 . S
C488 C486 1.378 . S
C488 C489 1.367 . S
C489 C488 1.367 . S
C489 C491 1.433 1_554 S
C490 C486 1.350 . S
C490 C487 1.463 . S
C490 N494 1.427 1_554 S
C491 H481 0.929 . S
C491 C489 1.433 1_556 S
C491 N494 1.384 . S
C492 H483 0.929 . S
C492 C484 1.378 . S
C492 C487 1.350 1_556 S
C493 H480 0.929 . S
C493 C485 1.433 . S
C493 N495 1.384 . S
N494 C490 1.427 1_556 S
N494 C491 1.384 . S
N495 C487 1.427 . S
N495 C493 1.384 . S
H496 C502 0.930 . S
H497 C506 0.930 . S
H498 C511 0.929 . S
H499 C509 0.929 . S
H500 C504 0.929 . S
H501 C510 0.929 . S
C502 H496 0.930 . S
C502 C503 1.367 . S
C502 C510 1.378 . S
C503 C502 1.367 . S
C503 C511 1.433 . S
C504 H500 0.929 . S
C504 C506 1.378 . S
C504 C508 1.350 . S
C505 C508 1.463 . S
C505 C510 1.350 . S
C505 N513 1.427 . S
C506 H497 0.930 . S
C506 C504 1.378 . S
C506 C507 1.367 . S
C507 C506 1.367 . S
C507 C509 1.433 . S
C508 C504 1.350 . S
C508 C505 1.463 . S
C508 N512 1.427 . S
C509 H499 0.929 . S
C509 C507 1.433 . S
C509 N512 1.384 . S
C510 H501 0.929 . S
C510 C502 1.378 . S
C510 C505 1.350 . S
C511 H498 0.929 . S
C511 C503 1.433 . S
C511 N513 1.384 . S
N512 C508 1.427 . S
N512 C509 1.384 . S
N513 C505 1.427 . S
N513 C511 1.384 . S
H514 C520 0.930 . S
H515 C524 0.930 . S
H516 C529 0.929 . S
H517 C527 0.929 . S
H518 C522 0.929 . S
H519 C528 0.929 . S
C520 H514 0.930 . S
C520 C521 1.367 . S
C520 C528 1.378 . S
C521 C520 1.367 . S
C521 C529 1.433 . S
C522 H518 0.929 . S
C522 C524 1.378 . S
C522 C526 1.350 . S
C523 C526 1.463 . S
C523 C528 1.350 . S
C523 N531 1.427 . S
C524 H515 0.930 . S
C524 C522 1.378 . S
C524 C525 1.367 . S
C525 C524 1.367 . S
C525 C527 1.433 . S
C526 C522 1.350 . S
C526 C523 1.463 . S
C526 N530 1.427 . S
C527 H517 0.929 . S
C527 C525 1.433 . S
C527 N530 1.384 . S
C528 H519 0.929 . S
C528 C520 1.378 . S
C528 C523 1.350 . S
C529 H516 0.929 . S
C529 C521 1.433 . S
C529 N531 1.384 . S
N530 C526 1.427 . S
N530 C527 1.384 . S
N531 C523 1.427 . S
N531 C529 1.384 . S
H532 C538 0.930 . S
H533 C542 0.930 . S
H534 C547 0.929 . S
H535 C545 0.929 . S
H536 C540 0.929 . S
H537 C546 0.929 . S
C538 H532 0.930 . S
C538 C539 1.367 . S
C538 C546 1.378 . S
C539 C538 1.367 . S
C539 C547 1.433 . S
C540 H536 0.929 . S
C540 C542 1.378 . S
C540 C544 1.350 . S
C541 C544 1.463 1_455 S
C541 C546 1.350 . S
C541 N549 1.427 . S
C542 H533 0.930 . S
C542 C540 1.378 . S
C542 C543 1.367 . S
C543 C542 1.367 . S
C543 C545 1.433 . S
C544 C540 1.350 . S
C544 C541 1.463 1_655 S
C544 N548 1.427 . S
C545 H535 0.929 . S
C545 C543 1.433 . S
C545 N548 1.384 . S
C546 H537 0.929 . S
C546 C538 1.378 . S
C546 C541 1.350 . S
C547 H534 0.929 . S
C547 C539 1.433 . S
C547 N549 1.384 . S
N548 C544 1.427 . S
N548 C545 1.384 . S
N549 C541 1.427 . S
N549 C547 1.384 . S
H550 C556 0.930 . S
H551 C560 0.930 . S
H552 C565 0.929 . S
H553 C563 0.929 . S
H554 C558 0.929 . S
H555 C564 0.929 . S
C556 H550 0.930 . S
C556 C557 1.367 1_655 S
C556 C564 1.378 . S
C557 C556 1.367 1_455 S
C557 C565 1.433 . S
C558 H554 0.929 . S
C558 C560 1.378 . S
C558 C562 1.349 . S
C559 C562 1.463 1_655 S
C559 C564 1.348 . S
C559 N567 1.430 1_655 S
C560 H551 0.930 . S
C560 C558 1.378 . S
C560 C561 1.367 1_455 S
C561 C560 1.367 1_655 S
C561 C563 1.433 . S
C562 C558 1.349 . S
C562 C559 1.463 1_455 S
C562 N566 1.428 1_455 S
C563 H553 0.929 . S
C563 C561 1.433 . S
C563 N566 1.384 . S
C564 H555 0.929 . S
C564 C556 1.378 . S
C564 C559 1.348 . S
C565 H552 0.929 . S
C565 C557 1.433 . S
C565 N567 1.384 . S
N566 C562 1.428 1_655 S
N566 C563 1.384 . S
N567 C559 1.430 1_455 S
N567 C565 1.384 . S
H568 C574 0.930 . S
H569 C578 0.930 . S
H570 C583 0.929 . S
H571 C581 0.929 . S
H572 C576 0.929 . S
H573 C582 0.929 . S
C574 H568 0.930 . S
C574 C575 1.367 . S
C574 C582 1.378 . S
C575 C574 1.367 . S
C575 C583 1.433 . S
C576 H572 0.929 . S
C576 C578 1.378 . S
C576 C580 1.350 . S
C577 C580 1.463 . S
C577 C582 1.350 . S
C577 N585 1.427 . S
C578 H569 0.930 . S
C578 C576 1.378 . S
C578 C579 1.367 . S
C579 C578 1.367 . S
C579 C581 1.433 . S
C580 C576 1.350 . S
C580 C577 1.463 . S
C580 N584 1.427 . S
C581 H571 0.929 . S
C581 C579 1.433 . S
C581 N584 1.384 . S
C582 H573 0.929 . S
C582 C574 1.378 . S
C582 C577 1.350 . S
C583 H570 0.929 . S
C583 C575 1.433 . S
C583 N585 1.384 . S
N584 C580 1.427 . S
N584 C581 1.384 . S
N585 C577 1.427 . S
N585 C583 1.384 . S
H586 C592 0.930 . S
H587 C596 0.930 . S
H588 C601 0.929 . S
H589 C599 0.929 . S
H590 C594 0.929 . S
H591 C600 0.929 . S
C592 H586 0.930 . S
C592 C593 1.367 . S
C592 C600 1.378 . S
C593 C592 1.367 . S
C593 C601 1.433 . S
C594 H590 0.929 . S
C594 C596 1.378 . S
C594 C598 1.350 . S
C595 C598 1.463 1_545 S
C595 C600 1.350 . S
C595 N603 1.427 . S
C596 H587 0.930 . S
C596 C594 1.378 . S
C596 C597 1.367 . S
C597 C596 1.367 . S
C597 C599 1.433 . S
C598 C594 1.350 . S
C598 C595 1.463 1_565 S
C598 N602 1.427 . S
C599 H589 0.929 . S
C599 C597 1.433 . S
C599 N602 1.384 . S
C600 H591 0.929 . S
C600 C592 1.378 . S
C600 C595 1.350 . S
C601 H588 0.929 . S
C601 C593 1.433 . S
C601 N603 1.384 . S
N602 C598 1.427 . S
N602 C599 1.384 . S
N603 C595 1.427 . S
N603 C601 1.384 . S
H604 C610 0.930 . S
H605 C614 0.930 . S
H606 C619 0.929 . S
H607 C617 0.929 . S
H608 C612 0.929 . S
H609 C618 0.929 . S
C610 H604 0.930 . S
C610 C611 1.367 . S
C610 C618 1.378 . S
C611 C610 1.367 . S
C611 C619 1.433 1_556 S
C612 H608 0.929 . S
C612 C614 1.378 . S
C612 C616 1.350 1_554 S
C613 C616 1.463 . S
C613 C618 1.350 . S
C613 N621 1.427 1_556 S
C614 H605 0.930 . S
C614 C612 1.378 . S
C614 C615 1.367 1_554 S
C615 C614 1.367 1_556 S
C615 C617 1.433 . S
C616 C612 1.350 1_556 S
C616 C613 1.463 . S
C616 N620 1.427 . S
C617 H607 0.929 . S
C617 C615 1.433 . S
C617 N620 1.384 . S
C618 H609 0.929 . S
C618 C610 1.378 . S
C618 C613 1.350 . S
C619 H606 0.929 . S
C619 C611 1.433 1_554 S
C619 N621 1.384 . S
N620 C616 1.427 . S
N620 C617 1.384 . S
N621 C613 1.427 1_554 S
N621 C619 1.384 . S
H622 C628 0.930 . S
H623 C632 0.930 . S
H624 C637 0.929 . S
H625 C635 0.929 . S
H626 C630 0.929 . S
H627 C636 0.929 . S
C628 H622 0.930 . S
C628 C629 1.367 . S
C628 C636 1.378 . S
C629 C628 1.367 . S
C629 C637 1.433 . S
C630 H626 0.929 . S
C630 C632 1.378 . S
C630 C634 1.350 . S
C631 C634 1.463 1_545 S
C631 C636 1.350 . S
C631 N639 1.427 . S
C632 H623 0.930 . S
C632 C630 1.378 . S
C632 C633 1.367 . S
C633 C632 1.367 . S
C633 C635 1.433 . S
C634 C630 1.350 . S
C634 C631 1.463 1_565 S
C634 N638 1.427 . S
C635 H625 0.929 . S
C635 C633 1.433 . S
C635 N638 1.384 . S
C636 H627 0.929 . S
C636 C628 1.378 . S
C636 C631 1.350 . S
C637 H624 0.929 . S
C637 C629 1.433 . S
C637 N639 1.384 . S
N638 C634 1.427 . S
N638 C635 1.384 . S
N639 C631 1.427 . S
N639 C637 1.384 . S
H640 C646 0.930 . S
H641 C650 0.924 1_545 S
H642 C655 0.929 1_545 S
H643 C653 0.929 . S
H644 C648 0.924 1_545 S
H645 C654 0.929 . S
C646 H640 0.930 . S
C646 C647 1.367 . S
C646 C654 1.378 . S
C647 C646 1.367 . S
C647 C655 1.433 1_556 S
C648 H644 0.924 1_565 S
C648 C650 1.378 . S
C648 C652 1.357 1_554 S
C649 C652 1.463 . S
C649 C654 1.350 . S
C649 N657 1.427 1_556 S
C650 H641 0.924 1_565 S
C650 C648 1.378 . S
C650 C651 1.372 1_554 S
C651 C650 1.372 1_556 S
C651 C653 1.433 . S
C652 C648 1.357 1_556 S
C652 C649 1.463 . S
C652 N656 1.427 . S
C653 H643 0.929 . S
C653 C651 1.433 . S
C653 N656 1.384 . S
C654 H645 0.929 . S
C654 C646 1.378 . S
C654 C649 1.350 . S
C655 H642 0.929 1_565 S
C655 C647 1.433 1_554 S
C655 N657 1.384 . S
N656 C652 1.427 . S
N656 C653 1.384 . S
N657 C649 1.427 1_554 S
N657 C655 1.384 . S
H658 C664 0.930 . S
H659 C668 0.930 . S
H660 C673 0.929 . S
H661 C671 0.929 . S
H662 C666 0.929 . S
H663 C672 0.929 . S
C664 H658 0.930 . S
C664 C665 1.367 . S
C664 C672 1.378 . S
C665 C664 1.367 . S
C665 C673 1.433 . S
C666 H662 0.929 . S
C666 C668 1.378 . S
C666 C670 1.350 . S
C667 C670 1.463 . S
C667 C672 1.350 . S
C667 N675 1.427 . S
C668 H659 0.930 . S
C668 C666 1.378 . S
C668 C669 1.367 . S
C669 C668 1.367 . S
C669 C671 1.433 . S
C670 C666 1.350 . S
C670 C667 1.463 . S
C670 N674 1.427 . S
C671 H661 0.929 . S
C671 C669 1.433 . S
C671 N674 1.384 . S
C672 H663 0.929 . S
C672 C664 1.378 . S
C672 C667 1.350 . S
C673 H660 0.929 . S
C673 C665 1.433 . S
C673 N675 1.384 . S
N674 C670 1.427 . S
N674 C671 1.384 . S
N675 C667 1.427 . S
N675 C673 1.384 . S
H676 C682 0.930 . S
H677 C686 0.930 . S
H678 C691 0.929 . S
H679 C689 0.929 . S
H680 C684 0.929 . S
H681 C690 0.929 . S
C682 H676 0.930 . S
C682 C683 1.367 . S
C682 C690 1.378 . S
C683 C682 1.367 . S
C683 C691 1.433 . S
C684 H680 0.929 . S
C684 C686 1.378 . S
C684 C688 1.350 . S
C685 C688 1.463 . S
C685 C690 1.350 . S
C685 N693 1.427 . S
C686 H677 0.930 . S
C686 C684 1.378 . S
C686 C687 1.367 . S
C687 C686 1.367 . S
C687 C689 1.433 . S
C688 C684 1.350 . S
C688 C685 1.463 . S
C688 N692 1.427 . S
C689 H679 0.929 . S
C689 C687 1.433 . S
C689 N692 1.384 . S
C690 H681 0.929 . S
C690 C682 1.378 . S
C690 C685 1.350 . S
C691 H678 0.929 . S
C691 C683 1.433 . S
C691 N693 1.384 . S
N692 C688 1.427 . S
N692 C689 1.384 . S
N693 C685 1.427 . S
N693 C691 1.384 . S
H694 C700 0.930 . S
H695 C704 0.930 . S
H696 C709 0.929 . S
H697 C707 0.929 . S
H698 C702 0.929 . S
H699 C708 0.929 . S
C700 H694 0.930 . S
C700 C701 1.367 . S
C700 C708 1.378 . S
C701 C700 1.367 . S
C701 C709 1.433 . S
C702 H698 0.929 . S
C702 C704 1.378 . S
C702 C706 1.350 . S
C703 C706 1.463 1_556 S
C703 C708 1.350 . S
C703 N711 1.427 . S
C704 H695 0.930 . S
C704 C702 1.378 . S
C704 C705 1.367 . S
C705 C704 1.367 . S
C705 C707 1.433 . S
C706 C702 1.350 . S
C706 C703 1.463 1_554 S
C706 N710 1.427 . S
C707 H697 0.929 . S
C707 C705 1.433 . S
C707 N710 1.384 . S
C708 H699 0.929 . S
C708 C700 1.378 . S
C708 C703 1.350 . S
C709 H696 0.929 . S
C709 C701 1.433 . S
C709 N711 1.384 . S
N710 C706 1.427 . S
N710 C707 1.384 . S
N711 C703 1.427 . S
N711 C709 1.384 . S
H712 C718 0.930 . S
H713 C722 0.930 . S
H714 C727 0.929 . S
H715 C725 0.929 . S
H716 C720 0.929 . S
H717 C726 0.929 . S
C718 H712 0.930 . S
C718 C719 1.367 . S
C718 C726 1.378 . S
C719 C718 1.367 . S
C719 C727 1.433 . S
C720 H716 0.929 . S
C720 C722 1.378 . S
C720 C724 1.350 . S
C721 C724 1.463 . S
C721 C726 1.350 . S
C721 N729 1.427 . S
C722 H713 0.930 . S
C722 C720 1.378 . S
C722 C723 1.367 . S
C723 C722 1.367 . S
C723 C725 1.433 . S
C724 C720 1.350 . S
C724 C721 1.463 . S
C724 N728 1.427 . S
C725 H715 0.929 . S
C725 C723 1.433 . S
C725 N728 1.384 . S
C726 H717 0.929 . S
C726 C718 1.378 . S
C726 C721 1.350 . S
C727 H714 0.929 . S
C727 C719 1.433 . S
C727 N729 1.384 . S
N728 C724 1.427 . S
N728 C725 1.384 . S
N729 C721 1.427 . S
N729 C727 1.384 . S
H730 C736 0.930 . S
H731 C740 0.930 . S
H732 C745 0.929 . S
H733 C743 0.929 . S
H734 C738 0.929 . S
H735 C744 0.929 . S
C736 H730 0.930 . S
C736 C737 1.367 . S
C736 C744 1.378 . S
C737 C736 1.367 . S
C737 C745 1.433 . S
C738 H734 0.929 . S
C738 C740 1.378 . S
C738 C742 1.350 . S
C739 C742 1.463 . S
C739 C744 1.350 . S
C739 N747 1.427 . S
C740 H731 0.930 . S
C740 C738 1.378 . S
C740 C741 1.367 . S
C741 C740 1.367 . S
C741 C743 1.433 . S
C742 C738 1.350 . S
C742 C739 1.463 . S
C742 N746 1.427 . S
C743 H733 0.929 . S
C743 C741 1.433 . S
C743 N746 1.384 . S
C744 H735 0.929 . S
C744 C736 1.378 . S
C744 C739 1.350 . S
C745 H732 0.929 . S
C745 C737 1.433 . S
C745 N747 1.384 . S
N746 C742 1.427 . S
N746 C743 1.384 . S
N747 C739 1.427 . S
N747 C745 1.384 . S
H748 C754 0.930 . S
H749 C758 0.930 . S
H750 C763 0.929 . S
H751 C761 0.929 . S
H752 C756 0.929 . S
H753 C762 0.929 . S
C754 H748 0.930 . S
C754 C755 1.367 1_655 S
C754 C762 1.378 . S
C755 C754 1.367 1_455 S
C755 C763 1.433 . S
C756 H752 0.929 . S
C756 C758 1.378 . S
C756 C760 1.350 . S
C757 C760 1.463 . S
C757 C762 1.350 1_455 S
C757 N765 1.427 . S
C758 H749 0.930 . S
C758 C756 1.378 . S
C758 C759 1.367 . S
C759 C758 1.367 . S
C759 C761 1.433 1_455 S
C760 C756 1.350 . S
C760 C757 1.463 . S
C760 N764 1.427 1_455 S
C761 H751 0.929 . S
C761 C759 1.433 1_655 S
C761 N764 1.384 . S
C762 H753 0.929 . S
C762 C754 1.378 . S
C762 C757 1.350 1_655 S
C763 H750 0.929 . S
C763 C755 1.433 . S
C763 N765 1.384 . S
N764 C760 1.427 1_655 S
N764 C761 1.384 . S
N765 C757 1.427 . S
N765 C763 1.384 . S
H766 C772 0.930 . S
H767 C776 0.930 . S
H768 C781 0.929 . S
H769 C779 0.929 . S
H770 C774 0.929 . S
H771 C780 0.929 . S
C772 H766 0.930 . S
C772 C773 1.372 . S
C772 C780 1.378 . S
C773 C772 1.372 . S
C773 C781 1.427 1_565 S
C774 H770 0.929 . S
C774 C776 1.378 . S
C774 C778 1.350 . S
C775 C778 1.463 . S
C775 C780 1.350 1_545 S
C775 N783 1.427 . S
C776 H767 0.930 . S
C776 C774 1.378 . S
C776 C777 1.367 . S
C777 C776 1.367 . S
C777 C779 1.433 1_545 S
C778 C774 1.350 . S
C778 C775 1.463 . S
C778 N782 1.427 1_545 S
C779 H769 0.929 . S
C779 C777 1.433 1_565 S
C779 N782 1.384 . S
C780 H771 0.929 . S
C780 C772 1.378 . S
C780 C775 1.350 1_565 S
C781 H768 0.929 . S
C781 C773 1.427 1_545 S
C781 N783 1.384 . S
N782 C778 1.427 1_565 S
N782 C779 1.384 . S
N783 C775 1.427 . S
N783 C781 1.384 . S
C215 C0 1.714 . S
C219 C91 1.731 . S
C233 C13 1.682 . S
C237 C52 1.679 . S
C251 C65 1.708 . S
C255 C26 1.689 . S
C269 C39 1.682 . S
C273 C78 1.686 . S
C287 C104 1.682 . S
C291 C156 1.681 . S
C305 C117 1.701 . S
C309 C182 1.691 . S
C323 C143 1.672 . S
C327 C130 1.691 . S
C341 C195 1.739 . S
C345 C169 1.710 . S
C359 C5 1.159 . S
C363 C88 1.172 . S
C377 C96 1.115 . S
C381 C21 1.102 1_565 S
C395 C31 1.179 . S
C399 C57 1.188 . S
C413 C70 1.167 . S
C417 C47 1.160 1_545 S
C431 C10 1.237 . S
C435 C192 1.236 . S
C449 C148 1.174 1_655 S
C453 C18 1.182 . S
C467 C179 1.250 . S
C471 C36 1.248 . S
C485 C161 1.172 . S
C489 C44 1.162 . S
C503 C138 1.212 . S
C507 C62 1.236 . S
C521 C75 1.231 . S
C525 C205 1.228 . S
C539 C86 1.215 . S
C543 C114 1.238 . S
C557 C101 1.222 1_455 S
C561 C127 1.225 1_655 S
C575 C8 1.167 . S
C579 C60 1.162 . S
C593 C112 1.154 . S
C597 C177 1.152 . S
C611 C166 1.170 1_556 S
C615 C125 1.154 . S
C629 C190 1.079 . S
C633 C135 1.093 . S
C647 C99 1.200 . S
C651 C49 1.222 1_556 S
C665 C34 1.099 . S
C669 C83 1.107 . S
C683 C153 1.231 . S
C687 C203 1.214 . S
C701 C174 1.164 . S
C705 C140 1.181 . S
C719 C200 1.136 . S
C723 C164 1.124 . S
C737 C187 1.179 . S
C741 C109 1.188 . S
C755 C151 1.174 . S
C759 C122 1.180 . S
C773 C23 1.169 1_565 S
C777 C73 1.150 . S
