# Generated by pormake.
# Topology lcy-e, (6)-cn, num edge types: 1
# Building blocks:
#     Node 0, Type 0, BuildingBlock: JUFBIX_clean_sbu_0, # of connection points: 6
#     Node 1, Type 0, BuildingBlock: JUFBIX_clean_sbu_0, # of connection points: 6
#     Node 2, Type 0, BuildingBlock: JUFBIX_clean_sbu_0, # of connection points: 6
#     Node 3, Type 0, BuildingBlock: JUFBIX_clean_sbu_0, # of connection points: 6
#     Node 4, Type 0, BuildingBlock: JUFBIX_clean_sbu_0, # of connection points: 6
#     Node 5, Type 0, BuildingBlock: JUFBIX_clean_sbu_0, # of connection points: 6
#     Node 6, Type 0, BuildingBlock: JUFBIX_clean_sbu_0, # of connection points: 6
#     Node 7, Type 0, BuildingBlock: JUFBIX_clean_sbu_0, # of connection points: 6
#     Node 8, Type 0, BuildingBlock: JUFBIX_clean_sbu_0, # of connection points: 6
#     Node 9, Type 0, BuildingBlock: JUFBIX_clean_sbu_0, # of connection points: 6
#     Node 10, Type 0, BuildingBlock: JUFBIX_clean_sbu_0, # of connection points: 6
#     Node 11, Type 0, BuildingBlock: JUFBIX_clean_sbu_0, # of connection points: 6
#     Edge 12, Type (0, 0), BuildingBlock: TEMPAE_clean_linker_10, # of connection points: 2
#     Edge 13, Type (0, 0), BuildingBlock: TEMPAE_clean_linker_10, # of connection points: 2
#     Edge 14, Type (0, 0), BuildingBlock: TEMPAE_clean_linker_10, # of connection points: 2
#     Edge 15, Type (0, 0), BuildingBlock: TEMPAE_clean_linker_10, # of connection points: 2
#     Edge 16, Type (0, 0), BuildingBlock: TEMPAE_clean_linker_10, # of connection points: 2
#     Edge 17, Type (0, 0), BuildingBlock: TEMPAE_clean_linker_10, # of connection points: 2
#     Edge 18, Type (0, 0), BuildingBlock: TEMPAE_clean_linker_10, # of connection points: 2
#     Edge 19, Type (0, 0), BuildingBlock: TEMPAE_clean_linker_10, # of connection points: 2
#     Edge 20, Type (0, 0), BuildingBlock: TEMPAE_clean_linker_10, # of connection points: 2
#     Edge 21, Type (0, 0), BuildingBlock: TEMPAE_clean_linker_10, # of connection points: 2
#     Edge 22, Type (0, 0), BuildingBlock: TEMPAE_clean_linker_10, # of connection points: 2
#     Edge 23, Type (0, 0), BuildingBlock: TEMPAE_clean_linker_10, # of connection points: 2
#     Edge 24, Type (0, 0), BuildingBlock: TEMPAE_clean_linker_10, # of connection points: 2
#     Edge 25, Type (0, 0), BuildingBlock: TEMPAE_clean_linker_10, # of connection points: 2
#     Edge 26, Type (0, 0), BuildingBlock: TEMPAE_clean_linker_10, # of connection points: 2
#     Edge 27, Type (0, 0), BuildingBlock: TEMPAE_clean_linker_10, # of connection points: 2
#     Edge 28, Type (0, 0), BuildingBlock: TEMPAE_clean_linker_10, # of connection points: 2
#     Edge 29, Type (0, 0), BuildingBlock: TEMPAE_clean_linker_10, # of connection points: 2
#     Edge 30, Type (0, 0), BuildingBlock: TEMPAE_clean_linker_10, # of connection points: 2
#     Edge 31, Type (0, 0), BuildingBlock: TEMPAE_clean_linker_10, # of connection points: 2
#     Edge 32, Type (0, 0), BuildingBlock: TEMPAE_clean_linker_10, # of connection points: 2
#     Edge 33, Type (0, 0), BuildingBlock: TEMPAE_clean_linker_10, # of connection points: 2
#     Edge 34, Type (0, 0), BuildingBlock: TEMPAE_clean_linker_10, # of connection points: 2
#     Edge 35, Type (0, 0), BuildingBlock: TEMPAE_clean_linker_10, # of connection points: 2
#     Edge 36, Type (0, 0), BuildingBlock: TEMPAE_clean_linker_10, # of connection points: 2
#     Edge 37, Type (0, 0), BuildingBlock: TEMPAE_clean_linker_10, # of connection points: 2
#     Edge 38, Type (0, 0), BuildingBlock: TEMPAE_clean_linker_10, # of connection points: 2
#     Edge 39, Type (0, 0), BuildingBlock: TEMPAE_clean_linker_10, # of connection points: 2
#     Edge 40, Type (0, 0), BuildingBlock: TEMPAE_clean_linker_10, # of connection points: 2
#     Edge 41, Type (0, 0), BuildingBlock: TEMPAE_clean_linker_10, # of connection points: 2
#     Edge 42, Type (0, 0), BuildingBlock: TEMPAE_clean_linker_10, # of connection points: 2
#     Edge 43, Type (0, 0), BuildingBlock: TEMPAE_clean_linker_10, # of connection points: 2
#     Edge 44, Type (0, 0), BuildingBlock: TEMPAE_clean_linker_10, # of connection points: 2
#     Edge 45, Type (0, 0), BuildingBlock: TEMPAE_clean_linker_10, # of connection points: 2
#     Edge 46, Type (0, 0), BuildingBlock: TEMPAE_clean_linker_10, # of connection points: 2
#     Edge 47, Type (0, 0), BuildingBlock: TEMPAE_clean_linker_10, # of connection points: 2
# Relax obj value: 0.478
# Max RMSD: 0.345
# Mean RMSD: 0.290
data_MOF--net-lcy-e--node1-JUFBIX_clean_sbu_0--edge1-TEMPAE_clean_linker_10
_symmetry_space_group_name_H-M    P1
_symmetry_Int_Tables_number       1
_symmetry_cell_setting            triclinic
loop_
_symmetry_equiv_pos_as_xyz
'x, y, z'
_cell_length_a     37.136148
_cell_length_b     39.66534
_cell_length_c     37.06542
_cell_angle_alpha  87.919252
_cell_angle_beta   90.033951
_cell_angle_gamma 83.224911
loop_
_atom_site_label
_atom_site_type_symbol
_atom_site_fract_x
_atom_site_fract_y
_atom_site_fract_z
_atom_type_partial_charge
Co0 Co 0.17665 0.21076 0.44682 0.0
C1 C 0.10523 0.22189 0.47253 0.0
Co2 Co 0.13943 0.17965 0.42133 0.0
C3 C 0.19641 0.27411 0.46463 0.0
C4 C 0.2382 0.23548 0.48267 0.0
N5 N 0.2049 0.24021 0.46743 0.0
N6 N 0.22318 0.291 0.47637 0.0
C7 C 0.24952 0.2669 0.48837 0.0
H8 H 0.17127 0.28632 0.45292 0.0
H9 H 0.25387 0.21098 0.48759 0.0
C10 C 0.21338 0.16878 0.39957 0.0
N11 N 0.11026 0.15208 0.39744 0.0
C12 C 0.0797 0.13843 0.40704 0.0
C13 C 0.1143 0.14587 0.36198 0.0
N14 N 0.06464 0.12451 0.37868 0.0
C15 C 0.0865 0.12909 0.35048 0.0
C16 C 0.14539 0.23781 0.38141 0.0
O17 O 0.21746 0.18936 0.42408 0.0
O18 O 0.18153 0.16165 0.39251 0.0
O19 O 0.12687 0.21321 0.38534 0.0
O20 O 0.16872 0.24191 0.40544 0.0
O21 O 0.09886 0.19805 0.45191 0.0
H22 H 0.13521 0.15453 0.3449 0.0
H23 H 0.06771 0.14022 0.43362 0.0
O24 O 0.13617 0.23234 0.47094 0.0
O25 O 0.18437 0.17869 0.48674 0.0
O26 O 0.15187 0.14601 0.4567 0.0
C27 C 0.17088 0.15071 0.48419 0.0
H28 H 0.27568 0.2716 0.49868 0.0
H29 H 0.08212 0.12154 0.32319 0.0
Co30 Co 0.03649 0.85632 0.69688 0.0
C31 C 0.98493 0.9044 0.72248 0.0
Co32 Co 0.05286 0.9077 0.68993 0.0
C33 C 0.04511 0.78666 0.71928 0.0
C34 C 0.99364 0.80022 0.69354 0.0
N35 N 0.0249 0.81246 0.70156 0.0
N36 N 0.02737 0.75919 0.72424 0.0
C37 C 0.99498 0.76747 0.7077 0.0
H38 H 0.07108 0.78913 0.73154 0.0
H39 H 0.97044 0.81495 0.6807 0.0
C40 C 0.10257 0.8587 0.66307 0.0
N41 N 0.06522 0.95155 0.68688 0.0
C42 C 0.08717 0.96555 0.66316 0.0
C43 C 0.05571 0.97604 0.71067 0.0
N44 N 0.09144 0.99772 0.67121 0.0
C45 C 0.07146 0.0046 0.70082 0.0
C46 C 0.07949 0.87362 0.75375 0.0
O47 O 0.07979 0.83993 0.67528 0.0
O48 O 0.09657 0.89073 0.66563 0.0
O49 O 0.07857 0.90129 0.73522 0.0
O50 O 0.06071 0.85107 0.74308 0.0
O51 O 0.00845 0.92396 0.71363 0.0
H52 H 0.03893 0.97322 0.73416 0.0
H53 H 0.09963 0.95259 0.64031 0.0
O54 O 0.99207 0.87274 0.71833 0.0
O55 O 0.01355 0.86169 0.65081 0.0
O56 O 0.02782 0.91368 0.64407 0.0
C57 C 0.01261 0.88918 0.63185 0.0
H58 H 0.97278 0.75206 0.70833 0.0
H59 H 0.06894 0.02838 0.71457 0.0
Co60 Co 0.33683 0.77591 0.97505 0.0
C61 C 0.40811 0.77275 0.99842 0.0
Co62 Co 0.36855 0.81183 0.94487 0.0
C63 C 0.30319 0.71331 0.99105 0.0
C64 C 0.30774 0.74331 0.0373 0.0
N65 N 0.31233 0.74382 1.00112 0.0
N66 N 0.29374 0.69402 0.01956 0.0
C67 C 0.29653 0.71288 0.0486 0.0
H68 H 0.306 0.70427 0.96389 0.0
H69 H 0.31469 0.76265 0.05498 0.0
C70 C 0.29529 0.81454 0.92274 0.0
N71 N 0.39478 0.84365 0.9205 0.0
C72 C 0.43107 0.84573 0.91986 0.0
C73 C 0.37992 0.87338 0.90503 0.0
N74 N 0.43911 0.87573 0.9052 0.0
C75 C 0.40689 0.893 0.8957 0.0
C76 C 0.36967 0.7508 0.91236 0.0
O77 O 0.29354 0.79379 0.94962 0.0
O78 O 0.32571 0.82513 0.91506 0.0
O79 O 0.38403 0.7784 0.91162 0.0
O80 O 0.34805 0.74478 0.93781 0.0
O81 O 0.40977 0.79764 0.97605 0.0
H82 H 0.35112 0.88128 0.90249 0.0
H83 H 0.45109 0.82659 0.93192 0.0
O84 O 0.37944 0.75836 1.0001 0.0
O85 O 0.32694 0.80874 0.0119 0.0
O86 O 0.353 0.84498 0.97761 0.0
C87 C 0.33678 0.83818 0.00653 0.0
H88 H 0.29253 0.70449 0.07628 0.0
H89 H 0.40299 0.91853 0.88385 0.0
Co90 Co 0.50003 0.12864 0.21446 0.0
C91 C 0.52532 0.05971 0.22538 0.0
Co92 Co 0.46619 0.09417 0.18885 0.0
C93 C 0.52032 0.17861 0.26186 0.0
C94 C 0.56614 0.15586 0.23281 0.0
N95 N 0.53001 0.15583 0.23644 0.0
N96 N 0.54891 0.19251 0.27465 0.0
C97 C 0.57785 0.17847 0.25628 0.0
H98 H 0.49286 0.18446 0.27143 0.0
H99 H 0.58308 0.13958 0.21528 0.0
C100 C 0.4444 0.16479 0.17758 0.0
N101 N 0.43353 0.06763 0.16869 0.0
C102 C 0.43674 0.03516 0.15781 0.0
C103 C 0.39753 0.07789 0.16725 0.0
N104 N 0.40403 0.02508 0.15004 0.0
C105 C 0.37958 0.05217 0.15565 0.0
C106 C 0.44256 0.11234 0.25741 0.0
O107 O 0.47315 0.16746 0.19489 0.0
O108 O 0.43542 0.1353 0.17254 0.0
O109 O 0.43905 0.0927 0.23185 0.0
O110 O 0.46838 0.13075 0.2561 0.0
O111 O 0.49891 0.05443 0.205 0.0
H112 H 0.38459 0.10216 0.17567 0.0
H113 H 0.46222 0.01884 0.15712 0.0
O114 O 0.52841 0.08978 0.23441 0.0
O115 O 0.52995 0.12639 0.17175 0.0
O116 O 0.49276 0.09534 0.14576 0.0
C117 C 0.52103 0.11058 0.14432 0.0
H118 H 0.60568 0.18287 0.26085 0.0
H119 H 0.35054 0.05328 0.15197 0.0
Co120 Co 0.67284 0.32956 0.52072 0.0
C121 C 0.61072 0.30996 0.49172 0.0
Co122 Co 0.62376 0.34697 0.55122 0.0
C123 C 0.73909 0.2881 0.50733 0.0
C124 C 0.71709 0.31362 0.45909 0.0
N125 N 0.71385 0.31319 0.49527 0.0
N126 N 0.75558 0.27044 0.48024 0.0
C127 C 0.74261 0.28742 0.44979 0.0
H128 H 0.74206 0.28035 0.53552 0.0
H129 H 0.69854 0.32857 0.44059 0.0
C130 C 0.68785 0.36563 0.57924 0.0
N131 N 0.5822 0.36201 0.57588 0.0
C132 C 0.55121 0.37758 0.56097 0.0
C133 C 0.57413 0.356 0.61084 0.0
N134 N 0.52401 0.38106 0.58502 0.0
C135 C 0.5382 0.36762 0.61651 0.0
C136 C 0.65475 0.28408 0.57545 0.0
O137 O 0.70073 0.35122 0.55133 0.0
O138 O 0.65405 0.36621 0.58602 0.0
O139 O 0.6274 0.30594 0.5788 0.0
O140 O 0.67872 0.28962 0.55233 0.0
O141 O 0.59463 0.32757 0.51617 0.0
H142 H 0.59283 0.34309 0.63062 0.0
H143 H 0.54825 0.38503 0.53263 0.0
O144 O 0.64491 0.30732 0.48973 0.0
O145 O 0.66609 0.3698 0.48997 0.0
O146 O 0.61981 0.38797 0.52361 0.0
C147 C 0.64058 0.39288 0.49726 0.0
H148 H 0.74695 0.27871 0.42264 0.0
H149 H 0.52364 0.36635 0.64173 0.0
Co150 Co 0.98011 0.38023 0.73172 0.0
C151 C 0.98919 0.31731 0.69827 0.0
Co152 Co 0.96388 0.33757 0.76626 0.0
C153 C 0.02053 0.43524 0.71089 0.0
C154 C 0.9873 0.42239 0.66745 0.0
N155 N 0.99542 0.41472 0.70245 0.0
N156 N 0.029 0.45497 0.68244 0.0
C157 C 0.00795 0.44705 0.65506 0.0
H158 H 0.03375 0.43445 0.73698 0.0
H159 H 0.96864 0.40993 0.65162 0.0
C160 C 0.95498 0.40263 0.79742 0.0
N161 N 0.94944 0.3029 0.79731 0.0
C162 C 0.92711 0.27856 0.79275 0.0
C163 C 0.95952 0.29906 0.83233 0.0
N164 N 0.92279 0.26007 0.82374 0.0
C165 C 0.9434 0.27302 0.84846 0.0
C166 C 0.03494 0.34868 0.7769 0.0
O167 O 0.96754 0.41154 0.76726 0.0
O168 O 0.95078 0.37135 0.80344 0.0
O169 O 0.01097 0.32973 0.78583 0.0
O170 O 0.02771 0.37148 0.75215 0.0
O171 O 0.97763 0.30536 0.7281 0.0
H172 H 0.97716 0.31465 0.84558 0.0
H173 H 0.91345 0.27516 0.76756 0.0
O174 O 0.99247 0.3488 0.69515 0.0
O175 O 0.93202 0.38883 0.71281 0.0
O176 O 0.91671 0.34604 0.74667 0.0
C177 C 0.90815 0.37028 0.72374 0.0
H178 H 0.00801 0.45774 0.62777 0.0
H179 H 0.94664 0.26431 0.87641 0.0
Co180 Co 0.93955 0.65202 0.00875 0.0
C181 C 0.88523 0.6915 0.97237 0.0
Co182 Co 0.88634 0.63687 0.02262 0.0
C183 C 1.00053 0.65897 0.96437 0.0
C184 C 0.01048 0.67557 0.01727 0.0
N185 N 0.98547 0.66249 0.99722 0.0
N186 N 0.0338 0.66907 0.96291 0.0
C187 C 0.04015 0.6802 0.99591 0.0
H188 H 0.98657 0.65091 0.94112 0.0
H189 H 0.007 0.68216 0.04521 0.0
C190 C 0.94135 0.60031 0.06107 0.0
N191 N 0.84074 0.62609 0.03276 0.0
C192 C 0.82503 0.62285 0.06521 0.0
C193 C 0.81475 0.62199 0.0084 0.0
N194 N 0.79011 0.61726 0.06202 0.0
C195 C 0.7835 0.61662 0.02635 0.0
C196 C 0.9188 0.59887 0.96764 0.0
O197 O 0.95951 0.62061 0.04373 0.0
O198 O 0.90744 0.60155 0.05533 0.0
O199 O 0.88957 0.60512 0.98505 0.0
O200 O 0.94444 0.61655 0.97363 0.0
O201 O 0.86569 0.67282 0.99048 0.0
H202 H 0.81806 0.62373 0.97943 0.0
H203 H 0.83847 0.62604 0.09058 0.0
O204 O 0.91944 0.6846 0.97391 0.0
O205 O 0.93414 0.6866 0.04414 0.0
O206 O 0.88296 0.66841 0.06068 0.0
C207 C 0.9066 0.68871 0.06477 0.0
H208 H 0.06394 0.69164 1.00363 0.0
H209 H 0.75778 0.61312 0.01415 0.0
Co210 Co 0.52543 0.61555 0.2653 0.0
C211 C 0.51186 0.67888 0.23103 0.0
Co212 Co 0.5475 0.65565 0.29491 0.0
C213 C 0.4885 0.55834 0.2575 0.0
C214 C 0.51012 0.57255 0.20648 0.0
N215 N 0.50783 0.58115 0.2413 0.0
N216 N 0.47797 0.53596 0.23444 0.0
C217 C 0.49153 0.54479 0.2021 0.0
H218 H 0.48097 0.55915 0.28566 0.0
H219 H 0.52374 0.58595 0.18562 0.0
C220 C 0.56156 0.59122 0.32776 0.0
N221 N 0.56488 0.68869 0.32176 0.0
C222 C 0.58954 0.71019 0.31368 0.0
C223 C 0.55708 0.69337 0.35694 0.0
N224 N 0.59753 0.72775 0.34261 0.0
C225 C 0.57695 0.71736 0.36974 0.0
C226 C 0.4779 0.64456 0.31539 0.0
O227 O 0.54493 0.58321 0.30017 0.0
O228 O 0.56569 0.62224 0.33162 0.0
O229 O 0.50284 0.66321 0.31971 0.0
O230 O 0.48189 0.62201 0.29196 0.0
O231 O 0.52977 0.68851 0.2574 0.0
H232 H 0.53902 0.67933 0.37277 0.0
H233 H 0.60261 0.71175 0.28767 0.0
O234 O 0.50589 0.64804 0.2299 0.0
O235 O 0.56908 0.60905 0.23926 0.0
O236 O 0.59182 0.64787 0.27011 0.0
C237 C 0.59526 0.62581 0.24596 0.0
H238 H 0.48764 0.53268 0.17693 0.0
H239 H 0.57677 0.72603 0.3971 0.0
Co240 Co 0.21629 0.41987 0.14431 0.0
C241 C 0.23357 0.4607 0.08557 0.0
Co242 Co 0.20847 0.39722 0.09155 0.0
C243 C 0.25132 0.43181 0.21102 0.0
C244 C 0.20256 0.4656 0.20382 0.0
N245 N 0.22277 0.43942 0.18851 0.0
N246 N 0.25065 0.45263 0.23901 0.0
C247 C 0.2197 0.47387 0.23471 0.0
H248 H 0.27402 0.41315 0.20553 0.0
H249 H 0.17802 0.47919 0.19235 0.0
C250 C 0.18995 0.35888 0.15212 0.0
N251 N 0.20251 0.37673 0.04811 0.0
C252 C 0.18563 0.38925 0.01732 0.0
C253 C 0.216 0.3446 0.04086 0.0
N254 N 0.18855 0.36624 0.99113 0.0
C255 C 0.20762 0.33816 0.00592 0.0
C256 C 0.27609 0.37704 0.12158 0.0
O257 O 0.20049 0.38323 0.16866 0.0
O258 O 0.19088 0.35895 0.11772 0.0
O259 O 0.25608 0.37484 0.09436 0.0
O260 O 0.26473 0.397 0.14617 0.0
O261 O 0.22572 0.43623 0.06669 0.0
H262 H 0.23092 0.32686 0.05987 0.0
H263 H 0.17172 0.41475 0.0141 0.0
O264 O 0.23188 0.45793 0.11977 0.0
O265 O 0.16782 0.44077 0.14176 0.0
O266 O 0.16057 0.41918 0.08887 0.0
C267 C 0.14776 0.43675 0.11488 0.0
H268 H 0.2112 0.49528 0.25123 0.0
H269 H 0.21419 0.31434 0.99269 0.0
Co270 Co 0.7315 0.01686 0.89793 0.0
C271 C 0.74962 1.00059 0.82698 0.0
Co272 Co 0.69818 0.04687 0.8565 0.0
C273 C 0.7648 0.95351 0.92529 0.0
C274 C 0.78239 0.99285 0.95647 0.0
N275 N 0.75985 0.98739 0.92934 0.0
N276 N 0.78997 0.9374 0.94806 0.0
C277 C 0.80093 0.96205 0.96815 0.0
H278 H 0.75073 0.94099 0.90504 0.0
H279 H 0.78619 0.01762 0.96608 0.0
C280 C 0.68164 0.06161 0.92961 0.0
N281 N 0.67031 0.07499 0.8237 0.0
C282 C 0.68192 0.08937 0.79291 0.0
C283 C 0.63551 0.08871 0.82714 0.0
N284 N 0.65593 0.11173 0.77735 0.0
C285 C 0.62671 0.11163 0.79878 0.0
C286 C 0.66694 0.99001 0.87854 0.0
O287 O 0.7091 0.04003 0.93615 0.0
O288 O 0.67188 0.06846 0.89682 0.0
O289 O 0.66421 0.01458 0.85537 0.0
O290 O 0.69405 0.98639 0.90002 0.0
O291 O 0.72551 0.02473 0.81727 0.0
H292 H 0.61811 0.08336 0.84951 0.0
H293 H 0.70948 0.08496 0.78312 0.0
O294 O 0.75419 0.99344 0.86022 0.0
O295 O 0.76827 0.04846 0.89514 0.0
O296 O 0.73143 0.0792 0.85741 0.0
C297 C 0.76107 0.07521 0.8749 0.0
H298 H 0.82197 0.95837 0.9886 0.0
H299 H 0.60119 0.12755 0.79459 0.0
Co300 Co 0.79947 0.95802 0.37062 0.0
C301 C 0.7723 0.96435 0.30108 0.0
Co302 Co 0.83388 0.92669 0.33295 0.0
C303 C 0.78359 0.00918 0.42211 0.0
C304 C 0.73536 0.98884 0.40633 0.0
N305 N 0.77165 0.98496 0.4022 0.0
N306 N 0.75629 0.02889 0.43757 0.0
C307 C 0.7258 0.01595 0.42799 0.0
H308 H 0.81162 0.01406 0.42283 0.0
H309 H 0.7169 0.97438 0.39262 0.0
C310 C 0.85863 0.92099 0.40474 0.0
N311 N 0.86263 0.89946 0.30123 0.0
C312 C 0.85301 0.87892 0.2753 0.0
C313 C 0.89919 0.89498 0.3014 0.0
N314 N 0.88222 0.86158 0.25972 0.0
C315 C 0.91124 0.87174 0.27615 0.0
C316 C 0.85656 0.98983 0.34166 0.0
O317 O 0.82947 0.94042 0.40922 0.0
O318 O 0.86672 0.91124 0.37299 0.0
O319 O 0.86227 0.96324 0.32332 0.0
O320 O 0.82966 0.99286 0.3628 0.0
O321 O 0.7994 0.94255 0.29417 0.0
H322 H 0.91608 0.90748 0.31919 0.0
H323 H 0.82517 0.87595 0.26876 0.0
O324 O 0.76897 0.97583 0.33248 0.0
O325 O 0.76981 0.92271 0.37785 0.0
O326 O 0.80616 0.89068 0.34299 0.0
C327 C 0.77794 0.89472 0.36244 0.0
H328 H 0.69843 0.02643 0.43444 0.0
H329 H 0.93928 0.86299 0.2703 0.0
Co330 Co 0.25249 0.59448 0.55452 0.0
C331 C 0.22859 0.5865 0.62485 0.0
Co332 Co 0.29032 0.60876 0.59564 0.0
C333 C 0.22903 0.5542 0.49969 0.0
C334 C 0.18417 0.58603 0.52096 0.0
N335 N 0.22067 0.58039 0.52146 0.0
N336 N 0.19941 0.54166 0.4873 0.0
C337 C 0.17099 0.56209 0.50011 0.0
H338 H 0.25632 0.54166 0.49679 0.0
H339 H 0.16821 0.60377 0.53781 0.0
C340 C 0.31247 0.61654 0.52392 0.0
N341 N 0.32333 0.6212 0.62846 0.0
C342 C 0.3175 0.63626 0.66031 0.0
C343 C 0.35969 0.61412 0.62621 0.0
N344 N 0.34882 0.63854 0.67813 0.0
C345 C 0.3754 0.62474 0.65664 0.0
C346 C 0.3044 0.54183 0.57998 0.0
O347 O 0.28239 0.60613 0.51699 0.0
O348 O 0.322 0.61898 0.55662 0.0
O349 O 0.31326 0.56489 0.59956 0.0
O350 O 0.27837 0.54892 0.5577 0.0
O351 O 0.25779 0.59788 0.63408 0.0
H352 H 0.37386 0.60124 0.6042 0.0
H353 H 0.29077 0.64429 0.67076 0.0
O354 O 0.22197 0.58301 0.5918 0.0
O355 O 0.22798 0.63977 0.5522 0.0
O356 O 0.26762 0.65335 0.59176 0.0
C357 C 0.24078 0.66201 0.57086 0.0
H358 H 0.1428 0.55799 0.49763 0.0
H359 H 0.40416 0.62235 0.66255 0.0
C360 C 0.20628 0.34545 0.44344 0.0
C361 C 0.22384 0.32714 0.47284 0.0
C362 C 0.20293 0.38096 0.44122 0.0
C363 C 0.21766 0.39862 0.46904 0.0
C364 C 0.23721 0.38027 0.49782 0.0
C365 C 0.2401 0.3446 0.49936 0.0
C366 C 0.18227 0.39954 0.4099 0.0
C367 C 0.25364 0.39832 0.52781 0.0
C368 C 0.22908 0.49204 0.45645 0.0
C369 C 0.19971 0.50719 0.47629 0.0
C370 C 0.23488 0.45673 0.453 0.0
C371 C 0.2104 0.43619 0.46942 0.0
C372 C 0.1794 0.45149 0.48743 0.0
C373 C 0.17443 0.48682 0.49066 0.0
C374 C 0.2681 0.44131 0.43338 0.0
C375 C 0.1525 0.43039 0.50503 0.0
H376 H 0.19459 0.33194 0.42232 0.0
H377 H 0.25373 0.33044 0.52199 0.0
H378 H 0.15667 0.41334 0.41983 0.0
H379 H 0.19824 0.41872 0.39729 0.0
H380 H 0.17547 0.38203 0.38886 0.0
H381 H 0.2713 0.38052 0.54591 0.0
H382 H 0.26985 0.41794 0.51652 0.0
H383 H 0.23167 0.41152 0.54419 0.0
H384 H 0.24851 0.50778 0.44512 0.0
H385 H 0.15199 0.49816 0.50647 0.0
H386 H 0.26019 0.42489 0.41185 0.0
H387 H 0.28608 0.42494 0.45246 0.0
H388 H 0.28378 0.46092 0.42104 0.0
H389 H 0.14265 0.4132 0.48525 0.0
H390 H 0.12876 0.44631 0.51617 0.0
H391 H 0.16597 0.41421 0.52735 0.0
C392 C 0.78668 0.99885 0.76996 0.0
C393 C 0.77624 0.98309 0.8021 0.0
C394 C 0.81856 0.98588 0.75197 0.0
C395 C 0.84063 0.95713 0.76707 0.0
C396 C 0.82874 0.93998 0.79813 0.0
C397 C 0.79645 0.95277 0.81473 0.0
C398 C 0.82962 0.00405 0.71805 0.0
C399 C 0.85145 0.90956 0.81559 0.0
C400 C 0.9179 0.90478 0.72032 0.0
C401 C 0.94819 0.91865 0.73338 0.0
C402 C 0.88254 0.91861 0.729 0.0
C403 C 0.8774 0.94607 0.75252 0.0
C404 C 0.90799 0.96038 0.76549 0.0
C405 C 0.94303 0.94691 0.75513 0.0
C406 C 0.85072 0.90348 0.71346 0.0
C407 C 0.9038 0.989 0.7915 0.0
H408 H 0.77128 0.02229 0.76008 0.0
H409 H 0.7883 0.94016 0.83932 0.0
H410 H 0.85191 0.01922 0.72438 0.0
H411 H 0.83987 0.98555 0.69761 0.0
H412 H 0.80673 0.02149 0.70615 0.0
H413 H 0.83795 0.89881 0.83937 0.0
H414 H 0.85738 0.88929 0.79591 0.0
H415 H 0.87781 0.91705 0.82454 0.0
H416 H 0.92187 0.88342 0.70271 0.0
H417 H 0.96647 0.95779 0.76494 0.0
H418 H 0.83039 0.92389 0.70215 0.0
H419 H 0.83718 0.88968 0.7351 0.0
H420 H 0.85909 0.88547 0.69191 0.0
H421 H 0.88552 0.01081 0.77986 0.0
H422 H 0.93017 0.99788 0.79829 0.0
H423 H 0.89117 0.98043 0.81683 0.0
C424 C 0.30951 0.63558 0.04365 0.0
C425 C 0.28824 0.65862 0.02058 0.0
C426 C 0.30201 0.60184 0.04873 0.0
C427 C 0.27179 0.59097 0.03104 0.0
C428 C 0.25108 0.61383 0.00647 0.0
C429 C 0.25983 0.64734 1.00123 0.0
C430 C 0.32536 0.57837 0.07458 0.0
C431 C 0.21827 0.60364 0.98755 0.0
C432 C 0.26197 0.49573 0.03733 0.0
C433 C 0.24149 0.49366 0.06894 0.0
C434 C 0.27152 0.52731 0.02399 0.0
C435 C 0.2594 0.55749 0.04212 0.0
C436 C 0.23722 0.55546 0.073 0.0
C437 C 0.22902 0.52368 0.08622 0.0
C438 C 0.29579 0.52822 0.99145 0.0
C439 C 0.22287 0.58684 0.09283 0.0
H440 H 0.33165 0.64435 0.05837 0.0
H441 H 0.24332 0.66528 0.98357 0.0
H442 H 0.30982 0.57373 0.09946 0.0
H443 H 0.33309 0.55342 0.06238 0.0
H444 H 0.35044 0.58913 0.08233 0.0
H445 H 0.2078 0.6226 0.96613 0.0
H446 H 0.22476 0.57856 0.97532 0.0
H447 H 0.19641 0.60117 0.00754 0.0
H448 H 0.2717 0.47259 0.02393 0.0
H449 H 0.21271 0.52231 0.11038 0.0
H450 H 0.32236 0.53577 0.99967 0.0
H451 H 0.28385 0.54752 0.97108 0.0
H452 H 0.30052 0.50319 0.97867 0.0
H453 H 0.24569 0.59781 0.10552 0.0
H454 H 0.20327 0.58132 0.11427 0.0
H455 H 0.20928 0.60645 0.07366 0.0
C456 C 0.577 0.01868 0.20523 0.0
C457 C 0.55651 0.03354 0.23357 0.0
C458 C 0.61278 0.00292 0.21107 0.0
C459 C 0.62821 1.00138 0.24623 0.0
C460 C 0.60641 0.01401 0.27533 0.0
C461 C 0.57121 0.03043 0.26854 0.0
C462 C 0.63497 0.99035 0.17915 0.0
C463 C 0.62109 0.01219 0.31344 0.0
C464 C 0.71667 0.94685 0.27363 0.0
C465 C 0.74047 0.97158 0.27672 0.0
C466 C 0.68052 0.95567 0.26186 0.0
C467 C 0.66794 0.99004 0.25242 0.0
C468 C 0.69285 0.01458 0.25291 0.0
C469 C 0.7285 0.00519 0.26572 0.0
C470 C 0.65512 0.92865 0.26274 0.0
C471 C 0.68117 0.05136 0.24234 0.0
H472 H 0.56622 0.02192 0.17796 0.0
H473 H 0.55576 0.04243 0.2904 0.0
H474 H 0.65596 0.00752 0.17335 0.0
H475 H 0.64926 0.96461 0.18524 0.0
H476 H 0.61805 0.98955 0.15453 0.0
H477 H 0.59951 0.01913 0.3335 0.0
H478 H 0.63432 0.98621 0.32045 0.0
H479 H 0.64196 0.02986 0.31565 0.0
H480 H 0.72538 0.92105 0.2834 0.0
H481 H 0.74648 0.02452 0.269 0.0
H482 H 0.63658 0.93158 0.23907 0.0
H483 H 0.63818 0.93119 0.28738 0.0
H484 H 0.67014 0.90269 0.26335 0.0
H485 H 0.66578 0.05339 0.21652 0.0
H486 H 0.70464 0.06619 0.23937 0.0
H487 H 0.66291 0.06304 0.26331 0.0
C488 C 0.76027 0.21396 0.51192 0.0
C489 C 0.76927 0.23471 0.48241 0.0
C490 C 0.76364 0.17855 0.50991 0.0
C491 C 0.77619 0.16345 0.47764 0.0
C492 C 0.78928 0.18371 0.44947 0.0
C493 C 0.78599 0.21911 0.45236 0.0
C494 C 0.75024 0.15775 0.54099 0.0
C495 C 0.80347 0.16843 0.41479 0.0
C496 C 0.7916 0.06772 0.46938 0.0
C497 C 0.75929 0.06149 0.45249 0.0
C498 C 0.79732 0.10064 0.47873 0.0
C499 C 0.77002 0.12791 0.47099 0.0
C500 C 0.73668 0.12156 0.45554 0.0
C501 C 0.73172 0.08843 0.44654 0.0
C502 C 0.83305 0.10636 0.4955 0.0
C503 C 0.70675 0.15001 0.44702 0.0
H504 H 0.74773 0.22507 0.53568 0.0
H505 H 0.79415 0.23472 0.42994 0.0
H506 H 0.72304 0.15073 0.53422 0.0
H507 H 0.76857 0.13385 0.54594 0.0
H508 H 0.74792 0.17203 0.5663 0.0
H509 H 0.81748 0.18656 0.39794 0.0
H510 H 0.82254 0.1452 0.42051 0.0
H511 H 0.78049 0.16096 0.39896 0.0
H512 H 0.81282 0.0469 0.47447 0.0
H513 H 0.7069 0.08399 0.43313 0.0
H514 H 0.82861 0.12284 0.51903 0.0
H515 H 0.84919 0.11959 0.4755 0.0
H516 H 0.84922 0.08212 0.50439 0.0
H517 H 0.69911 0.16413 0.4717 0.0
H518 H 0.68209 0.14062 0.436 0.0
H519 H 0.71643 0.1683 0.42695 0.0
C520 C 0.07663 0.48079 0.64852 0.0
C521 C 0.05763 0.47667 0.68075 0.0
C522 C 0.10538 0.50076 0.64662 0.0
C523 C 0.11538 0.51736 0.67771 0.0
C524 C 0.09629 0.51345 0.71036 0.0
C525 C 0.06772 0.49305 0.71152 0.0
C526 C 0.12519 0.50396 0.61125 0.0
C527 C 0.10589 0.53096 0.74392 0.0
C528 C 0.21019 0.5427 0.66782 0.0
C529 C 0.20261 0.5749 0.65097 0.0
C530 C 0.18191 0.52456 0.67999 0.0
C531 C 0.14542 0.5392 0.67518 0.0
C532 C 0.13807 0.57322 0.6618 0.0
C533 C 0.1668 0.59053 0.64947 0.0
C534 C 0.19102 0.48841 0.69414 0.0
C535 C 0.09971 0.59008 0.65671 0.0
H536 H 0.06952 0.46775 0.62485 0.0
H537 H 0.053 0.4902 0.73645 0.0
H538 H 0.12271 0.53097 0.60169 0.0
H539 H 0.1545 0.4953 0.6151 0.0
H540 H 0.11455 0.48887 0.58983 0.0
H541 H 0.08889 0.52481 0.76737 0.0
H542 H 0.1348 0.52344 0.75108 0.0
H543 H 0.10238 0.55889 0.7388 0.0
H544 H 0.23785 0.53033 0.66813 0.0
H545 H 0.16098 0.61522 0.63577 0.0
H546 H 0.18575 0.47081 0.67266 0.0
H547 H 0.17374 0.48296 0.71753 0.0
H548 H 0.21996 0.48298 0.70238 0.0
H549 H 0.08752 0.5798 0.63271 0.0
H550 H 0.09873 0.61805 0.65246 0.0
H551 H 0.08278 0.58468 0.68039 0.0
C552 C 0.80246 0.88341 0.91654 0.0
C553 C 0.80394 0.9018 0.94812 0.0
C554 C 0.81493 0.84866 0.9161 0.0
C555 C 0.82955 0.83172 0.94797 0.0
C556 C 0.83168 0.85012 0.97986 0.0
C557 C 0.81885 0.88495 0.97954 0.0
C558 C 0.81238 0.83007 0.8815 0.0
C559 C 0.84725 0.83293 0.01442 0.0
C560 C 0.83232 0.73618 0.9628 0.0
C561 C 0.86923 0.72524 0.95763 0.0
C562 C 0.81866 0.77063 0.95817 0.0
C563 C 0.84247 0.7947 0.94813 0.0
C564 C 0.87912 0.78348 0.94021 0.0
C565 C 0.89202 0.74887 0.9449 0.0
C566 C 0.77923 0.7815 0.96619 0.0
C567 C 0.90534 0.80827 0.92917 0.0
H568 H 0.79181 0.89622 0.89186 0.0
H569 H 0.81993 0.89885 0.00405 0.0
H570 H 0.83988 0.81962 0.87274 0.0
H571 H 0.79654 0.80828 0.88602 0.0
H572 H 0.79938 0.84677 0.85928 0.0
H573 H 0.84752 0.85088 0.03671 0.0
H574 H 0.83112 0.81225 0.02306 0.0
H575 H 0.8754 0.82113 0.00985 0.0
H576 H 0.81444 0.71817 0.97256 0.0
H577 H 0.92057 0.74074 0.94074 0.0
H578 H 0.76654 0.79814 0.94383 0.0
H579 H 0.77711 0.79647 0.99097 0.0
H580 H 0.76358 0.75948 0.9703 0.0
H581 H 0.8938 0.82568 0.9069 0.0
H582 H 0.93182 0.79521 0.92033 0.0
H583 H 0.91022 0.8241 0.95234 0.0
C584 C 0.42828 0.50452 0.21536 0.0
C585 C 0.45179 0.51269 0.24237 0.0
C586 C 0.39761 0.48856 0.22412 0.0
C587 C 0.39015 0.48092 0.26084 0.0
C588 C 0.4155 0.48613 0.28787 0.0
C589 C 0.44627 0.50164 0.27823 0.0
C590 C 0.37168 0.48244 0.19425 0.0
C591 C 0.4089 0.47801 0.32725 0.0
C592 C 0.28918 0.49094 0.26692 0.0
C593 C 0.2824 0.45787 0.25944 0.0
C594 C 0.32467 0.49822 0.27269 0.0
C595 C 0.35371 0.47185 0.27044 0.0
C596 C 0.3464 0.43777 0.26909 0.0
C597 C 0.31055 0.43113 0.26423 0.0
C598 C 0.33135 0.53479 0.27611 0.0
C599 C 0.3765 0.40877 0.26778 0.0
H600 H 0.43234 0.51264 0.18762 0.0
H601 H 0.46505 0.50667 0.29918 0.0
H602 H 0.36424 0.45618 0.19669 0.0
H603 H 0.34638 0.50015 0.19647 0.0
H604 H 0.38334 0.48635 0.16703 0.0
H605 H 0.43468 0.47424 0.34289 0.0
H606 H 0.39139 0.49956 0.33876 0.0
H607 H 0.39481 0.45498 0.33091 0.0
H608 H 0.2676 0.51175 0.2643 0.0
H609 H 0.30515 0.40527 0.26021 0.0
H610 H 0.34064 0.54471 0.24975 0.0
H611 H 0.35289 0.53691 0.29636 0.0
H612 H 0.30639 0.55107 0.284 0.0
H613 H 0.38661 0.40669 0.23968 0.0
H614 H 0.36681 0.38422 0.27615 0.0
H615 H 0.39962 0.41309 0.2853 0.0
C616 C 0.57421 0.23747 0.30704 0.0
C617 C 0.54933 0.21368 0.3053 0.0
C618 C 0.57765 0.25562 0.33836 0.0
C619 C 0.55605 0.24936 0.36883 0.0
C620 C 0.52958 0.22665 0.36659 0.0
C621 C 0.52643 0.20916 0.33474 0.0
C622 C 0.60583 0.28007 0.33952 0.0
C623 C 0.50634 0.219 0.39858 0.0
C624 C 0.60586 0.25989 0.45556 0.0
C625 C 0.5911 0.29239 0.46521 0.0
C626 C 0.59291 0.2447 0.42551 0.0
C627 C 0.56497 0.26286 0.40416 0.0
C628 C 0.54844 0.29494 0.41503 0.0
C629 C 0.56161 0.30932 0.44582 0.0
C630 C 0.61083 0.21015 0.41537 0.0
C631 C 0.51875 0.31507 0.39281 0.0
H632 H 0.59151 0.24131 0.28408 0.0
H633 H 0.50736 0.19056 0.33363 0.0
H634 H 0.59401 0.30454 0.35057 0.0
H635 H 0.62842 0.26935 0.35767 0.0
H636 H 0.61718 0.28516 0.3124 0.0
H637 H 0.48356 0.20486 0.39089 0.0
H638 H 0.52326 0.20339 0.41912 0.0
H639 H 0.4951 0.24278 0.41143 0.0
H640 H 0.62864 0.24685 0.4708 0.0
H641 H 0.55056 0.33465 0.45323 0.0
H642 H 0.62702 0.21275 0.39049 0.0
H643 H 0.5901 0.19308 0.4096 0.0
H644 H 0.62916 0.19794 0.43701 0.0
H645 H 0.5305 0.32499 0.36762 0.0
H646 H 0.5052 0.33692 0.40756 0.0
H647 H 0.49806 0.2987 0.38487 0.0
C648 C 0.05104 0.21816 0.51429 0.0
C649 C 0.08035 0.23489 0.5022 0.0
C650 C 0.0318 0.22798 0.54605 0.0
C651 C 0.04244 0.25477 0.56664 0.0
C652 C 0.07147 0.27208 0.55399 0.0
C653 C 0.08958 0.26226 0.52207 0.0
C654 C 1.00058 0.20923 0.55798 0.0
C655 C 0.08419 0.30064 0.5747 0.0
C656 C 0.98379 0.30894 0.63221 0.0
C657 C 0.99751 0.29634 0.66601 0.0
C658 C 0.99583 0.29374 0.59992 0.0
C659 C 0.02333 0.26572 0.601 0.0
C660 C 0.03602 0.25179 0.63525 0.0
C661 C 0.0227 0.26705 0.66736 0.0
C662 C 0.98064 0.30914 0.56446 0.0
C663 C 0.06561 0.22228 0.63794 0.0
H664 H 0.04379 0.19679 0.4996 0.0
H665 H 0.11206 0.27561 0.51328 0.0
H666 H 0.00794 0.19437 0.58338 0.0
H667 H 0.97644 0.2275 0.56368 0.0
H668 H 0.9932 0.19156 0.53737 0.0
H669 H 0.10788 0.31086 0.56189 0.0
H670 H 0.06191 0.32172 0.57662 0.0
H671 H 0.09183 0.29157 0.60265 0.0
H672 H 0.96429 0.33158 0.63094 0.0
H673 H 0.03375 0.25742 0.6933 0.0
H674 H 0.97434 0.28897 0.54628 0.0
H675 H 1.00114 0.32326 0.55077 0.0
H676 H 0.95566 0.32701 0.56821 0.0
H677 H 0.05927 0.20162 0.62047 0.0
H678 H 0.06967 0.21191 0.66608 0.0
H679 H 0.09147 0.23074 0.62822 0.0
C680 C 0.00913 0.72547 0.77635 0.0
C681 C 0.03619 0.73373 0.75247 0.0
C682 C 0.01811 0.70892 0.80966 0.0
C683 C 0.05512 0.6999 0.81899 0.0
C684 C 0.08242 0.70506 0.79352 0.0
C685 C 0.0726 0.72215 0.7605 0.0
C686 C 0.988 0.70381 0.83604 0.0
C687 C 0.12197 0.69439 0.80199 0.0
C688 C 0.06118 0.70597 0.91929 0.0
C689 C 0.05315 0.67357 0.93003 0.0
C690 C 0.06669 0.7141 0.88274 0.0
C691 C 0.06444 0.68893 0.85685 0.0
C692 C 0.062 0.65494 0.86847 0.0
C693 C 0.05596 0.64773 0.90507 0.0
C694 C 0.06965 0.75067 0.87156 0.0
C695 C 0.06094 0.62707 0.84198 0.0
H696 H 0.98103 0.73455 0.77045 0.0
H697 H 0.09349 0.72818 0.74175 0.0
H698 H 0.99004 0.6769 0.8458 0.0
H699 H 0.9905 0.71953 0.85988 0.0
H700 H 0.96067 0.7109 0.82391 0.0
H701 H 0.13959 0.69805 0.77829 0.0
H702 H 0.1308 0.70933 0.82439 0.0
H703 H 0.12608 0.66727 0.81115 0.0
H704 H 0.05895 0.72586 0.93875 0.0
H705 H 0.0501 0.62255 0.91373 0.0
H706 H 0.043 0.76264 0.86104 0.0
H707 H 0.08978 0.75241 0.84971 0.0
H708 H 0.0775 0.76547 0.8946 0.0
H709 H 0.03277 0.62717 0.83194 0.0
H710 H 0.06954 0.60171 0.85498 0.0
H711 H 0.07855 0.63088 0.81838 0.0
C712 C 0.52692 0.71342 0.17689 0.0
C713 C 0.50067 0.70188 0.19986 0.0
C714 C 0.5172 0.72867 0.1428 0.0
C715 C 0.48027 0.73309 0.13194 0.0
C716 C 0.45351 0.72343 0.15627 0.0
C717 C 0.46414 0.7073 0.18961 0.0
C718 C 0.5467 0.73765 0.11749 0.0
C719 C 0.41374 0.72846 0.14632 0.0
C720 C 0.44287 0.78866 0.05126 0.0
C721 C 0.43554 0.76395 0.02708 0.0
C722 C 0.45944 0.77925 0.08491 0.0
C723 C 0.46951 0.7444 0.09411 0.0
C724 C 0.46495 0.71971 0.06829 0.0
C725 C 0.44738 0.72974 0.0354 0.0
C726 C 0.46333 0.80634 0.11171 0.0
C727 C 0.47616 0.68237 0.07642 0.0
H728 H 0.55529 0.70845 0.18456 0.0
H729 H 0.44395 0.69797 0.20728 0.0
H730 H 0.55003 0.71898 0.0958 0.0
H731 H 0.53935 0.76309 0.10433 0.0
H732 H 0.57314 0.73734 0.1316 0.0
H733 H 0.3962 0.72342 0.16971 0.0
H734 H 0.40579 0.75481 0.13569 0.0
H735 H 0.40852 0.71102 0.12469 0.0
H736 H 0.43285 0.81507 0.04522 0.0
H737 H 0.44125 0.71062 0.01688 0.0
H738 H 0.49098 0.80311 0.12361 0.0
H739 H 0.44398 0.80385 0.13418 0.0
H740 H 0.45788 0.83232 0.09921 0.0
H741 H 0.50377 0.67829 0.08846 0.0
H742 H 0.47588 0.66719 0.05184 0.0
H743 H 0.45725 0.67268 0.09636 0.0
C744 C 0.12701 0.24439 0.31659 0.0
C745 C 0.14439 0.25681 0.3462 0.0
C746 C 0.13078 0.25797 0.28153 0.0
C747 C 0.15185 0.28509 0.27595 0.0
C748 C 0.16803 0.29888 0.3059 0.0
C749 C 0.16437 0.28436 0.34067 0.0
C750 C 0.1134 0.24239 0.25033 0.0
C751 C 0.19004 0.32839 0.30111 0.0
C752 C 0.19703 0.30426 0.18691 0.0
C753 C 0.17448 0.33298 0.17425 0.0
C754 C 0.18867 0.2868 0.21894 0.0
C755 C 0.15742 0.29893 0.23877 0.0
C756 C 0.1332 0.32635 0.22441 0.0
C757 C 0.14205 0.34301 0.19222 0.0
C758 C 0.21484 0.25724 0.23303 0.0
C759 C 0.09976 0.34023 0.2447 0.0
H760 H 0.1117 0.22292 0.32046 0.0
H761 H 0.1779 0.29404 0.36337 0.0
H762 H 0.09607 0.26221 0.23433 0.0
H763 H 0.13477 0.23104 0.23202 0.0
H764 H 0.0966 0.22232 0.25939 0.0
H765 H 0.19901 0.3374 0.32732 0.0
H766 H 0.21439 0.32076 0.28465 0.0
H767 H 0.1739 0.3499 0.28636 0.0
H768 H 0.22265 0.29725 0.17353 0.0
H769 H 0.12525 0.3659 0.18283 0.0
H770 H 0.20003 0.23578 0.24216 0.0
H771 H 0.2297 0.26506 0.25671 0.0
H772 H 0.23498 0.24818 0.21232 0.0
H773 H 0.08424 0.31941 0.25419 0.0
H774 H 0.08161 0.35882 0.2279 0.0
H775 H 0.108 0.35313 0.26893 0.0
C776 C 0.99165 0.92226 0.57466 0.0
C777 C 0.99354 0.89226 0.59623 0.0
C778 C 0.97239 0.92552 0.54167 0.0
C779 C 0.95448 0.89817 0.52991 0.0
C780 C 0.95717 0.86753 0.55109 0.0
C781 C 0.97659 0.86496 0.58385 0.0
C782 C 0.97025 0.95863 0.51994 0.0
C783 C 0.93848 0.83777 0.53976 0.0
C784 C 0.87032 0.92001 0.47118 0.0
C785 C 0.88318 0.91233 0.43641 0.0
C786 C 0.89317 0.91534 0.50155 0.0
C787 C 0.93012 0.90265 0.49741 0.0
C788 C 0.94328 0.8942 0.46253 0.0
C789 C 0.91964 0.89908 0.43242 0.0
C790 C 0.87775 0.92446 0.53813 0.0
C791 C 0.98247 0.88059 0.45697 0.0
H792 H 0.00476 0.94344 0.58379 0.0
H793 H 0.97794 0.84156 0.60009 0.0
H794 H 0.97814 0.95389 0.49154 0.0
H795 H 0.9419 0.97113 0.51956 0.0
H796 H 0.988 0.97641 0.53114 0.0
H797 H 0.94551 0.81486 0.55767 0.0
H798 H 0.90865 0.84469 0.54034 0.0
H799 H 0.94588 0.83128 0.51166 0.0
H800 H 0.8422 0.93019 0.47473 0.0
H801 H 0.92993 0.89333 0.4057 0.0
H802 H 0.89226 0.94454 0.5496 0.0
H803 H 0.88181 0.902 0.55704 0.0
H804 H 0.84834 0.93371 0.53684 0.0
H805 H 1.00022 0.89965 0.46512 0.0
H806 H 0.98832 0.87435 0.42843 0.0
H807 H 0.98972 0.8574 0.47433 0.0
C808 C 0.3286 0.6783 0.72561 0.0
C809 C 0.35316 0.65168 0.71334 0.0
C810 C 0.33325 0.69201 0.75941 0.0
C811 C 0.36308 0.67858 0.78146 0.0
C812 C 0.38756 0.65127 0.76953 0.0
C813 C 0.38234 0.63819 0.73556 0.0
C814 C 0.30663 0.72127 0.77122 0.0
C815 C 0.41945 0.63613 0.79249 0.0
C816 C 0.39189 0.73857 0.85014 0.0
C817 C 0.37348 0.72863 0.88106 0.0
C818 C 0.38987 0.72161 0.81783 0.0
C819 C 0.36915 0.69394 0.81652 0.0
C820 C 0.35242 0.68242 0.84819 0.0
C821 C 0.35477 0.69993 0.88013 0.0
C822 C 0.40824 0.73451 0.7846 0.0
C823 C 0.33042 0.65275 0.84788 0.0
H824 H 0.30624 0.68895 0.70838 0.0
H825 H 0.401 0.61719 0.72646 0.0
H826 H 0.29449 0.71467 0.7975 0.0
H827 H 0.32096 0.74388 0.77517 0.0
H828 H 0.28443 0.72821 0.75125 0.0
H829 H 0.43526 0.61418 0.77977 0.0
H830 H 0.43778 0.65569 0.79721 0.0
H831 H 0.40992 0.6276 0.8193 0.0
H832 H 0.40648 0.76066 0.85062 0.0
H833 H 0.34061 0.69198 0.90394 0.0
H834 H 0.38741 0.74514 0.76449 0.0
H835 H 0.42525 0.71336 0.77185 0.0
H836 H 0.42556 0.75459 0.79078 0.0
H837 H 0.30552 0.65981 0.83143 0.0
H838 H 0.32229 0.64483 0.87547 0.0
H839 H 0.34602 0.63069 0.83527 0.0
C840 C 0.53907 0.08392 0.08604 0.0
C841 C 0.54377 0.1085 0.11138 0.0
C842 C 0.56124 0.0801 0.05549 0.0
C843 C 0.58853 0.10176 0.04965 0.0
C844 C 0.59269 0.1274 0.07448 0.0
C845 C 0.5705 0.13025 0.10528 0.0
C846 C 0.5563 0.05196 0.03017 0.0
C847 C 0.6211 0.1513 0.06891 0.0
C848 C 0.66872 0.06316 0.99566 0.0
C849 C 0.65979 0.07562 0.9604 0.0
C850 C 0.64643 0.07247 0.02502 0.0
C851 C 0.61455 0.09533 0.01931 0.0
C852 C 0.60626 0.10944 0.98415 0.0
C853 C 0.62883 0.09919 0.95501 0.0
C854 C 0.65609 0.05638 0.06189 0.0
C855 C 0.57286 0.13436 0.97712 0.0
H856 H 0.51861 0.06688 0.09057 0.0
H857 H 0.57413 0.14945 0.12461 0.0
H858 H 0.5522 0.0624 1.00212 0.0
H859 H 0.58114 0.03341 0.03038 0.0
H860 H 0.53287 0.03821 0.03771 0.0
H861 H 0.61851 0.17192 0.08858 0.0
H862 H 0.64852 0.13698 0.07184 0.0
H863 H 0.61907 0.16288 0.04117 0.0
H864 H 0.69256 0.04496 1.00028 0.0
H865 H 0.62178 0.10905 0.92794 0.0
H866 H 0.63509 0.0401 0.07055 0.0
H867 H 0.65667 0.07622 0.08213 0.0
H868 H 0.68283 0.04052 0.06219 0.0
H869 H 0.54829 0.12117 0.98056 0.0
H870 H 0.57252 0.14606 0.94941 0.0
H871 H 0.57117 0.15482 0.9969 0.0
C872 C 0.69275 0.24122 0.61454 0.0
C873 C 0.65891 0.25352 0.59954 0.0
C874 C 0.6957 0.21564 0.64202 0.0
C875 C 0.6642 0.20148 0.65373 0.0
C876 C 0.63048 0.2122 0.63662 0.0
C877 C 0.62814 0.23854 0.6102 0.0
C878 C 0.73197 0.20552 0.66012 0.0
C879 C 0.59648 0.19696 0.64736 0.0
C880 C 0.67066 0.12084 0.71335 0.0
C881 C 0.65997 0.13403 0.7467 0.0
C882 C 0.6729 0.14247 0.68275 0.0
C883 C 0.66538 0.17808 0.68612 0.0
C884 C 0.6562 0.19144 0.72031 0.0
C885 C 0.653 0.16917 0.75006 0.0
C886 C 0.68176 0.12722 0.64663 0.0
C887 C 0.64907 0.22925 0.72534 0.0
H888 H 0.71651 0.25301 0.60636 0.0
H889 H 0.60202 0.2479 0.59827 0.0
H890 H 0.73119 0.21522 0.68786 0.0
H891 H 0.73798 0.17748 0.66261 0.0
H892 H 0.75442 0.21587 0.64519 0.0
H893 H 0.57369 0.20484 0.62829 0.0
H894 H 0.60168 0.16881 0.64856 0.0
H895 H 0.588 0.20514 0.67469 0.0
H896 H 0.676 0.09354 0.7111 0.0
H897 H 0.64525 0.17911 0.77615 0.0
H898 H 0.70423 0.13906 0.63352 0.0
H899 H 0.65779 0.13244 0.62851 0.0
H900 H 0.68947 0.0993 0.64904 0.0
H901 H 0.67163 0.24217 0.71383 0.0
H902 H 0.6459 0.23551 0.75423 0.0
H903 H 0.62394 0.23975 0.71069 0.0
C904 C 0.19039 0.35243 0.92693 0.0
C905 C 0.1725 0.36924 0.95565 0.0
C906 C 0.17313 0.35079 0.89349 0.0
C907 C 0.13691 0.36591 0.88889 0.0
C908 C 0.11946 0.38467 0.91711 0.0
C909 C 0.13762 0.38629 0.95014 0.0
C910 C 0.19294 0.33123 0.86383 0.0
C911 C 0.08076 0.4011 0.91331 0.0
C912 C 0.08808 0.37612 0.79829 0.0
C913 C 0.06711 0.34889 0.80047 0.0
C914 C 0.11246 0.38118 0.82606 0.0
C915 C 0.11572 0.35856 0.85664 0.0
C916 C 0.09659 0.32971 0.85765 0.0
C917 C 0.07273 0.32512 0.82946 0.0
C918 C 0.13293 0.41187 0.82368 0.0
C919 C 0.09938 0.30486 0.88969 0.0
H920 H 0.21764 0.33975 0.93101 0.0
H921 H 0.12373 0.39917 0.97236 0.0
H922 H 0.18136 0.30698 0.8606 0.0
H923 H 0.18946 0.34581 0.83769 0.0
H924 H 0.22238 0.32531 0.86975 0.0
H925 H 0.07229 0.4173 0.93637 0.0
H926 H 0.07726 0.4169 0.88797 0.0
H927 H 0.06233 0.38111 0.91177 0.0
H928 H 0.08394 0.39463 0.776 0.0
H929 H 0.0568 0.30391 0.8313 0.0
H930 H 0.16174 0.40485 0.83154 0.0
H931 H 0.12099 0.43098 0.84274 0.0
H932 H 0.13178 0.42387 0.79608 0.0
H933 H 0.12817 0.29538 0.89549 0.0
H934 H 0.08433 0.28273 0.88534 0.0
H935 H 0.08825 0.31788 0.91398 0.0
C936 C 0.85844 0.84047 0.20327 0.0
C937 C 0.88308 0.8365 0.23224 0.0
C938 C 0.86086 0.8172 0.1752 0.0
C939 C 0.88809 0.78888 0.17653 0.0
C940 C 0.91238 0.78437 0.20627 0.0
C941 C 0.90977 0.80831 0.23348 0.0
C942 C 0.83478 0.8233 0.14375 0.0
C943 C 0.94132 0.75427 0.2093 0.0
C944 C 0.87723 0.71114 0.12147 0.0
C945 C 0.90159 0.71465 0.09297 0.0
C946 C 0.87226 0.73523 0.14854 0.0
C947 C 0.89159 0.764 0.14686 0.0
C948 C 0.9156 0.76807 0.11769 0.0
C949 C 0.92058 0.74322 0.09135 0.0
C950 C 0.84685 0.72951 0.17935 0.0
C951 C 0.93622 0.79862 0.11441 0.0
H952 H 0.83798 0.86235 0.20205 0.0
H953 H 0.92856 0.80486 0.25604 0.0
H954 H 0.85006 0.82623 0.11833 0.0
H955 H 0.81956 0.80109 0.14098 0.0
H956 H 0.81507 0.84634 0.14679 0.0
H957 H 0.95727 0.75378 0.23472 0.0
H958 H 0.92877 0.73029 0.20819 0.0
H959 H 0.9602 0.7549 0.18616 0.0
H960 H 0.86243 0.68916 0.12299 0.0
H961 H 0.93912 0.74636 0.06924 0.0
H962 H 0.82583 0.75168 0.18125 0.0
H963 H 0.86216 0.72701 0.20522 0.0
H964 H 0.83316 0.70633 0.1763 0.0
H965 H 0.91711 0.82231 0.11495 0.0
H966 H 0.9523 0.79901 0.08917 0.0
H967 H 0.95491 0.79869 0.13776 0.0
C968 C 0.37337 0.61941 0.49643 0.0
C969 C 0.33558 0.62558 0.49378 0.0
C970 C 0.39512 0.62468 0.46626 0.0
C971 C 0.37853 0.63728 0.43322 0.0
C972 C 0.34044 0.64503 0.43103 0.0
C973 C 0.31938 0.63863 0.46125 0.0
C974 C 0.43567 0.61553 0.46933 0.0
C975 C 0.32189 0.65931 0.39657 0.0
C976 C 0.4406 0.6727 0.36413 0.0
C977 C 0.448 0.64517 0.34156 0.0
C978 C 0.41685 0.67102 0.39336 0.0
C979 C 0.40088 0.64082 0.4005 0.0
C980 C 0.40715 0.61345 0.37694 0.0
C981 C 0.43034 0.61613 0.34747 0.0
C982 C 0.40991 0.70106 0.41733 0.0
C983 C 0.39087 0.58067 0.38388 0.0
H984 H 0.38577 0.6091 0.52158 0.0
H985 H 0.29008 0.64369 0.45938 0.0
H986 H 0.44979 0.63773 0.4613 0.0
H987 H 0.44434 0.60679 0.49715 0.0
H988 H 0.44459 0.59501 0.4506 0.0
H989 H 0.29235 0.66662 0.4003 0.0
H990 H 0.33426 0.68196 0.38647 0.0
H991 H 0.32562 0.64017 0.37539 0.0
H992 H 0.45418 0.69521 0.35957 0.0
H993 H 0.43622 0.59464 0.33028 0.0
H994 H 0.4219 0.69432 0.44442 0.0
H995 H 0.38033 0.7079 0.42101 0.0
H996 H 0.4217 0.72369 0.40616 0.0
H997 H 0.40114 0.56867 0.40999 0.0
H998 H 0.39751 0.56228 0.36227 0.0
H999 H 0.36096 0.58579 0.38601 0.0
C1000 C 0.27821 0.14455 0.39877 0.0
C1001 C 0.24591 0.1546 0.37963 0.0
C1002 C 0.31104 0.13552 0.3808 0.0
C1003 C 0.31196 0.13765 0.3426 0.0
C1004 C 0.27921 0.14733 0.32306 0.0
C1005 C 0.24643 0.15524 0.34183 0.0
C1006 C 0.34491 0.12448 0.40276 0.0
C1007 C 0.27907 0.1507 0.28237 0.0
C1008 C 0.40245 0.1497 0.29768 0.0
C1009 C 0.41289 0.11743 0.28423 0.0
C1010 C 0.36974 0.15662 0.31675 0.0
C1011 C 0.34732 0.13046 0.32329 0.0
C1012 C 0.35872 0.09742 0.31129 0.0
C1013 C 0.39105 0.09144 0.29157 0.0
C1014 C 0.35841 0.19234 0.32853 0.0
C1015 C 0.33628 0.06855 0.31846 0.0
H1016 H 0.27786 0.14421 0.42805 0.0
H1017 H 0.22161 0.16366 0.32702 0.0
H1018 H 0.35825 0.09981 0.39346 0.0
H1019 H 0.3645 0.14334 0.39886 0.0
H1020 H 0.33915 0.12178 0.43206 0.0
H1021 H 0.2514 0.15809 0.27115 0.0
H1022 H 0.29666 0.17016 0.27347 0.0
H1023 H 0.29042 0.12635 0.27075 0.0
H1024 H 0.41878 0.17007 0.29149 0.0
H1025 H 0.39884 0.06648 0.28105 0.0
H1026 H 0.35364 0.19231 0.35807 0.0
H1027 H 0.33247 0.20256 0.31513 0.0
H1028 H 0.37905 0.20969 0.32188 0.0
H1029 H 0.33041 0.06606 0.34772 0.0
H1030 H 0.35005 0.04391 0.30945 0.0
H1031 H 0.30988 0.07395 0.30415 0.0
C1032 C 0.15669 0.09525 0.50943 0.0
C1033 C 0.17282 0.12504 0.51416 0.0
C1034 C 0.15017 0.07386 0.53877 0.0
C1035 C 0.16118 0.08181 0.57367 0.0
C1036 C 0.18091 0.10983 0.57819 0.0
C1037 C 0.18615 0.13153 0.54829 0.0
C1038 C 0.12864 0.04445 0.53267 0.0
C1039 C 0.19443 0.11818 0.6148 0.0
C1040 C 0.09581 0.05371 0.64281 0.0
C1041 C 0.1116 0.0206 0.6512 0.0
C1042 C 0.1131 0.07512 0.61948 0.0
C1043 C 0.14745 0.06324 0.60515 0.0
C1044 C 0.16492 0.03088 0.61622 0.0
C1045 C 0.14637 0.00957 0.63863 0.0
C1046 C 0.0932 0.10923 0.60782 0.0
C1047 C 0.20217 0.01801 0.60274 0.0
H1048 H 0.14692 0.08964 0.483 0.0
H1049 H 0.19904 0.1543 0.55203 0.0
H1050 H 0.14321 0.02046 0.54413 0.0
H1051 H 0.10216 0.04879 0.54667 0.0
H1052 H 0.12336 0.04109 0.50359 0.0
H1053 H 0.2168 0.13442 0.61245 0.0
H1054 H 0.17195 0.13221 0.62983 0.0
H1055 H 0.2041 0.09472 0.63091 0.0
H1056 H 0.06889 0.06201 0.65272 0.0
H1057 H 0.15871 0.98409 0.64591 0.0
H1058 H 0.08576 0.109 0.57882 0.0
H1059 H 0.11086 0.12961 0.61089 0.0
H1060 H 0.06803 0.11565 0.62357 0.0
H1061 H 0.20009 0.00945 0.57474 0.0
H1062 H 0.215 0.99623 0.61976 0.0
H1063 H 0.22008 0.03852 0.60224 0.0
C1064 C 0.12281 0.89156 0.79984 0.0
C1065 C 0.1067 0.86562 0.78352 0.0
C1066 C 0.15202 0.88408 0.82434 0.0
C1067 C 0.16644 0.84982 0.83202 0.0
C1068 C 0.14982 0.82351 0.81611 0.0
C1069 C 0.11994 0.8317 0.7926 0.0
C1070 C 0.16801 0.91297 0.8414 0.0
C1071 C 0.16444 0.78665 0.82278 0.0
C1072 C 0.26571 0.83304 0.86293 0.0
C1073 C 0.26243 0.82498 0.89987 0.0
C1074 C 0.23483 0.84075 0.84058 0.0
C1075 C 0.19958 0.84157 0.85561 0.0
C1076 C 0.19617 0.83422 0.89311 0.0
C1077 C 0.22752 0.82551 0.91458 0.0
C1078 C 0.23994 0.84726 0.80064 0.0
C1079 C 0.15936 0.83566 0.91061 0.0
H1080 H 0.1129 0.91783 0.79302 0.0
H1081 H 0.10807 0.81139 0.77994 0.0
H1082 H 0.16967 0.90868 0.87114 0.0
H1083 H 0.19602 0.91411 0.83146 0.0
H1084 H 0.15184 0.9379 0.83523 0.0
H1085 H 0.1497 0.76935 0.80689 0.0
H1086 H 0.19361 0.7826 0.81564 0.0
H1087 H 0.16224 0.77951 0.85183 0.0
H1088 H 0.29252 0.83228 0.85121 0.0
H1089 H 0.22469 0.81941 0.94311 0.0
H1090 H 0.22726 0.87314 0.79248 0.0
H1091 H 0.22622 0.82898 0.78514 0.0
H1092 H 0.26902 0.84487 0.79294 0.0
H1093 H 0.14363 0.86082 0.90471 0.0
H1094 H 0.16128 0.83123 0.94035 0.0
H1095 H 0.14387 0.81623 0.89926 0.0
C1096 C 0.36167 0.98193 0.14709 0.0
C1097 C 0.3955 0.9926 0.13851 0.0
C1098 C 0.34979 0.95372 0.13112 0.0
C1099 C 0.3725 0.93535 0.10628 0.0
C1100 C 0.40794 0.94418 0.09983 0.0
C1101 C 0.41901 0.97283 0.11599 0.0
C1102 C 0.31185 0.94531 0.13875 0.0
C1103 C 0.43322 0.92476 0.07396 0.0
C1104 C 0.34977 0.85185 0.06978 0.0
C1105 C 0.33644 0.86266 0.03538 0.0
C1106 C 0.36065 0.87533 0.0939 0.0
C1107 C 0.35753 0.91025 0.08335 0.0
C1108 C 0.34153 0.92137 0.04965 0.0
C1109 C 0.33147 0.89739 0.02598 0.0
C1110 C 0.3774 0.86261 0.12969 0.0
C1111 C 0.33707 0.95843 0.03758 0.0
H1112 H 0.34377 0.99649 0.16537 0.0
H1113 H 0.4452 0.98084 0.10941 0.0
H1114 H 0.29426 0.95324 0.11499 0.0
H1115 H 0.31161 0.91756 0.14331 0.0
H1116 H 0.29985 0.95848 0.16264 0.0
H1117 H 0.4613 0.93164 0.07578 0.0
H1118 H 0.43386 0.897 0.07934 0.0
H1119 H 0.42323 0.93038 0.04591 0.0
H1120 H 0.3544 0.82487 0.07668 0.0
H1121 H 0.32152 0.90562 0.99918 0.0
H1122 H 0.36222 0.87544 0.15208 0.0
H1123 H 0.40565 0.86897 0.13123 0.0
H1124 H 0.37767 0.8347 0.13391 0.0
H1125 H 0.32285 0.97413 0.05859 0.0
H1126 H 0.32158 0.96309 0.01187 0.0
H1127 H 0.36414 0.96718 0.03366 0.0
C1128 C 0.85472 0.40858 0.6994 0.0
C1129 C 0.87097 0.37585 0.70919 0.0
C1130 C 0.81986 0.41357 0.68394 0.0
C1131 C 0.80181 0.38501 0.67672 0.0
C1132 C 0.81762 0.35204 0.68801 0.0
C1133 C 0.85177 0.34797 0.70467 0.0
C1134 C 0.80315 0.44919 0.67384 0.0
C1135 C 0.79982 0.32076 0.68003 0.0
C1136 C 0.70636 0.38316 0.64059 0.0
C1137 C 0.71374 0.37878 0.60388 0.0
C1138 C 0.73433 0.38842 0.66472 0.0
C1139 C 0.77025 0.38841 0.65169 0.0
C1140 C 0.77699 0.38677 0.61424 0.0
C1141 C 0.74856 0.38258 0.59085 0.0
C1142 C 0.72586 0.39172 0.7043 0.0
C1143 C 0.81485 0.38619 0.59903 0.0
H1144 H 0.86931 0.43023 0.70366 0.0
H1145 H 0.86433 0.32266 0.71244 0.0
H1146 H 0.80641 0.45423 0.64447 0.0
H1147 H 0.77366 0.45237 0.67972 0.0
H1148 H 0.81623 0.46848 0.6885 0.0
H1149 H 0.8146 0.29726 0.69257 0.0
H1150 H 0.77151 0.32339 0.68995 0.0
H1151 H 0.7988 0.3178 0.65039 0.0
H1152 H 0.67941 0.38063 0.65076 0.0
H1153 H 0.7543 0.38007 0.56232 0.0
H1154 H 0.7422 0.41 0.71667 0.0
H1155 H 0.73267 0.3667 0.71855 0.0
H1156 H 0.69663 0.40013 0.70866 0.0
H1157 H 0.82756 0.40847 0.60774 0.0
H1158 H 0.81509 0.38624 0.56905 0.0
H1159 H 0.832 0.36306 0.60942 0.0
C1160 C 0.94927 0.42232 0.86169 0.0
C1161 C 0.94616 0.42934 0.82438 0.0
C1162 C 0.94495 0.44886 0.8864 0.0
C1163 C 0.93674 0.48311 0.87352 0.0
C1164 C 0.93253 0.49003 0.83592 0.0
C1165 C 0.93751 0.46324 0.81199 0.0
C1166 C 0.95013 0.44037 0.92619 0.0
C1167 C 0.92327 0.5259 0.82081 0.0
C1168 C 0.89401 0.55201 0.93499 0.0
C1169 C 0.92349 0.56975 0.94292 0.0
C1170 C 0.89809 0.52349 0.91316 0.0
C1171 C 0.93259 0.51198 0.89893 0.0
C1172 C 0.96256 0.52959 0.90704 0.0
C1173 C 0.95764 0.55827 0.92873 0.0
C1174 C 0.86528 0.50591 0.90491 0.0
C1175 C 0.99986 0.51823 0.89262 0.0
H1176 H 0.95639 0.39629 0.87146 0.0
H1177 H 0.9349 0.46896 0.78321 0.0
H1178 H 0.97345 0.4524 0.93643 0.0
H1179 H 0.92582 0.4508 0.94134 0.0
H1180 H 0.95521 0.41255 0.93206 0.0
H1181 H 0.91975 0.52691 0.79101 0.0
H1182 H 0.89788 0.53778 0.83313 0.0
H1183 H 0.94509 0.54145 0.82765 0.0
H1184 H 0.86752 0.56048 0.94585 0.0
H1185 H 0.98069 0.5715 0.9349 0.0
H1186 H 0.87045 0.47857 0.91302 0.0
H1187 H 0.85992 0.50751 0.87541 0.0
H1188 H 0.84059 0.51723 0.91896 0.0
H1189 H 0.00804 0.49115 0.90049 0.0
H1190 H 0.02066 0.5336 0.90266 0.0
H1191 H 0.99946 0.52025 0.86268 0.0
C1192 C 0.77501 0.60129 0.12441 0.0
C1193 C 0.7643 0.61607 0.09062 0.0
C1194 C 0.75014 0.60075 0.15278 0.0
C1195 C 0.71402 0.61573 0.14707 0.0
C1196 C 0.70314 0.6308 0.11301 0.0
C1197 C 0.72844 0.63061 0.08511 0.0
C1198 C 0.7624 0.58413 0.1887 0.0
C1199 C 0.66486 0.64737 0.10611 0.0
C1200 C 0.63502 0.59268 0.2027 0.0
C1201 C 0.62848 0.62099 0.22431 0.0
C1202 C 0.66432 0.58958 0.17889 0.0
C1203 C 0.68717 0.61566 0.17643 0.0
C1204 C 0.68178 0.64347 0.19945 0.0
C1205 C 0.65251 0.64571 0.22336 0.0
C1206 C 0.66963 0.55933 0.15504 0.0
C1207 C 0.70554 0.67187 0.19729 0.0
H1208 H 0.80274 0.58985 0.12846 0.0
H1209 H 0.72038 0.64256 0.05915 0.0
H1210 H 0.75823 0.60285 0.21026 0.0
H1211 H 0.74583 0.56334 0.19576 0.0
H1212 H 0.79144 0.57349 0.18859 0.0
H1213 H 0.66104 0.65836 0.07818 0.0
H1214 H 0.6454 0.62848 0.11061 0.0
H1215 H 0.65793 0.66791 0.12534 0.0
H1216 H 0.6167 0.57331 0.20373 0.0
H1217 H 0.64752 0.66762 0.2401 0.0
H1218 H 0.69839 0.54794 0.15561 0.0
H1219 H 0.66283 0.56767 0.12671 0.0
H1220 H 0.65229 0.53943 0.16332 0.0
H1221 H 0.7346 0.66147 0.1982 0.0
H1222 H 0.70008 0.68979 0.21953 0.0
H1223 H 0.70066 0.68631 0.17119 0.0
C1224 C 0.65508 0.43081 0.44479 0.0
C1225 C 0.63365 0.42472 0.47492 0.0
C1226 C 0.64657 0.4599 0.42217 0.0
C1227 C 0.61585 0.48323 0.42983 0.0
C1228 C 0.59498 0.47783 0.46096 0.0
C1229 C 0.60418 0.44874 0.48313 0.0
C1230 C 0.66952 0.46492 0.38926 0.0
C1231 C 0.56183 0.50189 0.46994 0.0
C1232 C 0.5999 0.57032 0.38184 0.0
C1233 C 0.57575 0.5642 0.35439 0.0
C1234 C 0.61383 0.54405 0.40634 0.0
C1235 C 0.60303 0.51116 0.40339 0.0
C1236 C 0.57856 0.50499 0.37581 0.0
C1237 C 0.56534 0.53149 0.35167 0.0
C1238 C 0.63996 0.55146 0.4354 0.0
C1239 C 0.56597 0.47041 0.37197 0.0
H1240 H 0.67798 0.41248 0.43838 0.0
H1241 H 0.5875 0.44439 0.50644 0.0
H1242 H 0.65363 0.46157 0.36455 0.0
H1243 H 0.67721 0.49112 0.38777 0.0
H1244 H 0.69459 0.44661 0.38921 0.0
H1245 H 0.55024 0.49551 0.49662 0.0
H1246 H 0.56859 0.52839 0.47002 0.0
H1247 H 0.54066 0.50095 0.44898 0.0
H1248 H 0.60813 0.5955 0.38398 0.0
H1249 H 0.54653 0.52653 0.33066 0.0
H1250 H 0.66549 0.53401 0.43363 0.0
H1251 H 0.6282 0.54689 0.46239 0.0
H1252 H 0.64653 0.57807 0.43336 0.0
H1253 H 0.58963 0.45101 0.36833 0.0
H1254 H 0.54718 0.46976 0.34874 0.0
H1255 H 0.55189 0.46303 0.39693 0.0
C1256 C 0.32187 0.33166 0.09897 0.0
C1257 C 0.30791 0.35125 0.12767 0.0
C1258 C 0.34599 0.30203 0.10522 0.0
C1259 C 0.35609 0.2915 0.14107 0.0
C1260 C 0.34363 0.31214 0.17 0.0
C1261 C 0.31988 0.34192 0.16292 0.0
C1262 C 0.35932 0.28116 0.07358 0.0
C1263 C 0.35371 0.30179 0.20864 0.0
C1264 C 0.384 0.19722 0.16168 0.0
C1265 C 0.42168 0.19616 0.16502 0.0
C1266 C 0.36226 0.22813 0.15379 0.0
C1267 C 0.37876 0.25841 0.1484 0.0
C1268 C 0.41691 0.25715 0.15052 0.0
C1269 C 0.43784 0.22613 0.15911 0.0
C1270 C 0.32157 0.22858 0.15223 0.0
C1271 C 0.43559 0.28867 0.14435 0.0
H1272 H 0.31272 0.33872 0.07165 0.0
H1273 H 0.30892 0.35667 0.18528 0.0
H1274 H 0.38928 0.27542 0.07461 0.0
H1275 H 0.34789 0.25654 0.07496 0.0
H1276 H 0.35144 0.29428 0.04727 0.0
H1277 H 0.34393 0.32179 0.22773 0.0
H1278 H 0.34176 0.27824 0.21644 0.0
H1279 H 0.38355 0.29611 0.21158 0.0
H1280 H 0.37143 0.17417 0.1666 0.0
H1281 H 0.46703 0.22539 0.1615 0.0
H1282 H 0.31109 0.23916 0.12563 0.0
H1283 H 0.30876 0.24534 0.17313 0.0
H1284 H 0.31301 0.20284 0.15661 0.0
H1285 H 0.42754 0.30099 0.11775 0.0
H1286 H 0.46561 0.28307 0.14527 0.0
H1287 H 0.42706 0.30728 0.16523 0.0
C1288 C 0.8847 0.22885 0.86483 0.0
C1289 C 0.90012 0.23312 0.83057 0.0
C1290 C 0.86367 0.20229 0.87282 0.0
C1291 C 0.85783 0.17894 0.84602 0.0
C1292 C 0.87334 0.18299 0.81133 0.0
C1293 C 0.89405 0.21013 0.80395 0.0
C1294 C 0.84714 0.19961 0.90988 0.0
C1295 C 0.86798 0.15866 0.78198 0.0
C1296 C 0.82361 0.09496 0.87738 0.0
C1297 C 0.78636 0.10164 0.86981 0.0
C1298 C 0.84735 0.11959 0.86933 0.0
C1299 C 0.83351 0.15182 0.85377 0.0
C1300 C 0.79587 0.15872 0.84666 0.0
C1301 C 0.77297 0.13367 0.85456 0.0
C1302 C 0.88732 0.11103 0.87707 0.0
C1303 C 0.7796 0.19272 0.83069 0.0
H1304 H 0.88863 0.24674 0.88545 0.0
H1305 H 0.90607 0.21299 0.77756 0.0
H1306 H 0.81713 0.2026 0.90758 0.0
H1307 H 0.85556 0.17411 0.92251 0.0
H1308 H 0.85512 0.21913 0.92808 0.0
H1309 H 0.88317 0.16418 0.75707 0.0
H1310 H 0.87694 0.1322 0.79168 0.0
H1311 H 0.83875 0.16007 0.77509 0.0
H1312 H 0.83431 0.07025 0.88877 0.0
H1313 H 0.74426 0.13929 0.84862 0.0
H1314 H 0.89635 0.12909 0.89637 0.0
H1315 H 0.90298 0.11375 0.85186 0.0
H1316 H 0.89401 0.08477 0.88854 0.0
H1317 H 0.78521 0.21329 0.84864 0.0
H1318 H 0.7498 0.19409 0.82671 0.0
H1319 H 0.79225 0.19775 0.80424 0.0
C1320 C 0.09412 0.46337 0.08011 0.0
C1321 C 0.11023 0.45323 0.11346 0.0
C1322 C 0.06032 0.4831 0.07835 0.0
C1323 C 0.04191 0.49196 0.11079 0.0
C1324 C 0.05652 0.47888 0.14437 0.0
C1325 C 0.091 0.46018 0.14539 0.0
C1326 C 0.0459 0.49684 0.0419 0.0
C1327 C 0.03694 0.48636 0.17936 0.0
C1328 C 0.99493 0.5803 0.09835 0.0
C1329 C 0.96138 0.57394 0.08457 0.0
C1330 C 0.02046 0.55368 0.11043 0.0
C1331 C 0.01177 0.51996 0.10937 0.0
C1332 C 0.97612 0.51382 0.10027 0.0
C1333 C 0.95116 0.54108 0.08757 0.0
C1334 C 0.05809 0.56152 0.12008 0.0
C1335 C 0.96539 0.47832 0.10067 0.0
H1336 H 0.10894 0.45769 0.05544 0.0
H1337 H 0.10318 0.45154 0.1712 0.0
H1338 H 0.01746 0.49168 0.03831 0.0
H1339 H 0.04611 0.52482 0.04018 0.0
H1340 H 0.06227 0.48562 0.01928 0.0
H1341 H 0.04587 0.46683 0.20078 0.0
H1342 H 0.04297 0.51132 0.18878 0.0
H1343 H 0.00714 0.48756 0.1758 0.0
H1344 H 1.00243 0.60593 0.09678 0.0
H1345 H 0.925 0.53622 0.07728 0.0
H1346 H 0.0775 0.55196 0.09899 0.0
H1347 H 0.06722 0.54859 0.14606 0.0
H1348 H 0.05939 0.58921 0.12232 0.0
H1349 H 0.97386 0.46622 0.07504 0.0
H1350 H 0.93554 0.47858 0.10316 0.0
H1351 H 0.97886 0.46245 0.12322 0.0
C1352 C 0.71642 0.87728 0.37293 0.0
C1353 C 0.75272 0.8687 0.3632 0.0
C1354 C 0.69103 0.85412 0.36934 0.0
C1355 C 0.70241 0.82157 0.35613 0.0
C1356 C 0.73919 0.81247 0.34712 0.0
C1357 C 0.76391 0.83625 0.3506 0.0
C1358 C 0.65191 0.86475 0.37891 0.0
C1359 C 0.7523 0.77785 0.33324 0.0
C1360 C 0.64373 0.75191 0.37776 0.0
C1361 C 0.62452 0.75067 0.34535 0.0
C1362 C 0.66938 0.7747 0.3815 0.0
C1363 C 0.67587 0.79686 0.35213 0.0
C1364 C 0.6569 0.79552 0.31914 0.0
C1365 C 0.63149 0.77223 0.31609 0.0
C1366 C 0.68941 0.77516 0.41694 0.0
C1367 C 0.663 0.81905 0.28736 0.0
H1368 H 0.70754 0.90251 0.38219 0.0
H1369 H 0.79195 0.82957 0.34293 0.0
H1370 H 0.63447 0.86378 0.35475 0.0
H1371 H 0.64279 0.84685 0.39971 0.0
H1372 H 0.64762 0.89085 0.38925 0.0
H1373 H 0.78197 0.77457 0.32816 0.0
H1374 H 0.74592 0.75774 0.353 0.0
H1375 H 0.738 0.77392 0.30772 0.0
H1376 H 0.63889 0.73478 0.40018 0.0
H1377 H 0.61645 0.7714 0.29114 0.0
H1378 H 0.68384 0.80059 0.42863 0.0
H1379 H 0.71908 0.77037 0.41245 0.0
H1380 H 0.68155 0.75584 0.43695 0.0
H1381 H 0.65533 0.84578 0.29475 0.0
H1382 H 0.64697 0.81397 0.26325 0.0
H1383 H 0.69214 0.81643 0.2801 0.0
C1384 C 0.45815 0.38291 0.5943 0.0
C1385 C 0.48764 0.3967 0.57845 0.0
C1386 C 0.42286 0.39977 0.59068 0.0
C1387 C 0.41736 0.4317 0.57192 0.0
C1388 C 0.44685 0.44465 0.55406 0.0
C1389 C 0.48159 0.42672 0.55721 0.0
C1390 C 0.39197 0.38451 0.60897 0.0
C1391 C 0.44244 0.47891 0.53434 0.0
C1392 C 0.32783 0.48631 0.5528 0.0
C1393 C 0.32743 0.50882 0.58116 0.0
C1394 C 0.35559 0.45902 0.55066 0.0
C1395 C 0.38344 0.45475 0.57719 0.0
C1396 C 0.38126 0.4758 0.60729 0.0
C1397 C 0.35304 0.50219 0.6091 0.0
C1398 C 0.35623 0.43593 0.51915 0.0
C1399 C 0.41039 0.47241 0.63617 0.0
H1400 H 0.46286 0.35923 0.61005 0.0
H1401 H 0.50449 0.43725 0.54495 0.0
H1402 H 0.38627 0.39648 0.63526 0.0
H1403 H 0.36687 0.38918 0.59239 0.0
H1404 H 0.39862 0.35671 0.61417 0.0
H1405 H 0.46706 0.48361 0.5188 0.0
H1406 H 0.41901 0.48108 0.51551 0.0
H1407 H 0.43698 0.49919 0.55417 0.0
H1408 H 0.30778 0.49108 0.53138 0.0
H1409 H 0.35244 0.51906 0.63153 0.0
H1410 H 0.35907 0.409 0.52902 0.0
H1411 H 0.38002 0.43925 0.50188 0.0
H1412 H 0.3313 0.44112 0.50231 0.0
H1413 H 0.41446 0.44609 0.64779 0.0
H1414 H 0.40376 0.49001 0.6585 0.0
H1415 H 0.43651 0.47793 0.62411 0.0
C1416 C 0.24643 0.72327 0.57545 0.0
C1417 C 0.2243 0.69754 0.57025 0.0
C1418 C 0.23133 0.75619 0.58327 0.0
C1419 C 0.19335 0.76305 0.58697 0.0
C1420 C 0.17078 0.73798 0.57828 0.0
C1421 C 0.18663 0.70542 0.56963 0.0
C1422 C 0.25621 0.78254 0.59102 0.0
C1423 C 0.13008 0.74436 0.58189 0.0
C1424 C 0.15364 0.81392 0.66398 0.0
C1425 C 0.13476 0.84197 0.64564 0.0
C1426 C 0.17521 0.78922 0.64527 0.0
C1427 C 0.17787 0.79286 0.60724 0.0
C1428 C 0.16194 0.82302 0.58909 0.0
C1429 C 0.14024 0.84739 0.60865 0.0
C1430 C 0.19204 0.75766 0.66589 0.0
C1431 C 0.16502 0.82822 0.54875 0.0
H1432 H 0.27568 0.7172 0.57524 0.0
H1433 H 0.16962 0.68546 0.56547 0.0
H1434 H 0.24454 0.80806 0.58056 0.0
H1435 H 0.25971 0.78389 0.62064 0.0
H1436 H 0.28342 0.77613 0.57892 0.0
H1437 H 0.1163 0.72409 0.56974 0.0
H1438 H 0.12287 0.74538 0.61093 0.0
H1439 H 0.11953 0.76915 0.56883 0.0
H1440 H 0.149 0.80989 0.69264 0.0
H1441 H 0.12509 0.86896 0.59452 0.0
H1442 H 0.22119 0.7522 0.65921 0.0
H1443 H 0.17849 0.73551 0.65804 0.0
H1444 H 0.18953 0.76006 0.69558 0.0
H1445 H 0.19231 0.81804 0.53913 0.0
H1446 H 0.1596 0.85553 0.5404 0.0
H1447 H 0.14481 0.81444 0.53521 0.0
C1448 C 0.50555 0.86804 0.89432 0.0
C1449 C 0.47394 0.88878 0.90365 0.0
C1450 C 0.53904 0.88141 0.89051 0.0
C1451 C 0.54116 0.9162 0.89695 0.0
C1452 C 0.50949 0.93685 0.90765 0.0
C1453 C 0.47638 0.92302 0.91052 0.0
C1454 C 0.57191 0.85856 0.87856 0.0
C1455 C 0.51041 0.97381 0.91563 0.0
C1456 C 0.63165 0.95016 0.91478 0.0
C1457 C 0.63728 0.96777 0.8821 0.0
C1458 C 0.60111 0.93244 0.91974 0.0
C1459 C 0.57586 0.93166 0.89111 0.0
C1460 C 0.58242 0.94807 0.85754 0.0
C1461 C 0.6127 0.96617 0.85358 0.0
C1462 C 0.59499 0.91592 0.95618 0.0
C1463 C 0.55675 0.94749 0.82603 0.0
H1464 H 0.50379 0.84163 0.88886 0.0
H1465 H 0.45221 0.93905 0.91837 0.0
H1466 H 0.58124 0.86805 0.85205 0.0
H1467 H 0.59452 0.859 0.89803 0.0
H1468 H 0.56624 0.83187 0.87601 0.0
H1469 H 0.48401 0.98589 0.92574 0.0
H1470 H 0.53167 0.97634 0.93608 0.0
H1471 H 0.51745 0.98801 0.89079 0.0
H1472 H 0.65028 0.95143 0.93708 0.0
H1473 H 0.61686 0.97952 0.82817 0.0
H1474 H 0.58997 0.88914 0.95323 0.0
H1475 H 0.5705 0.92935 0.96874 0.0
H1476 H 0.61839 0.91647 0.97475 0.0
H1477 H 0.55161 0.92103 0.82117 0.0
H1478 H 0.5674 0.95859 0.80084 0.0
H1479 H 0.53031 0.96211 0.83231 0.0
C1480 C 0.91885 0.00581 0.3295 0.0
C1481 C 0.88404 0.01404 0.34367 0.0
C1482 C 0.94695 0.0255 0.33666 0.0
C1483 C 0.94008 0.0543 0.35829 0.0
C1484 C 0.90473 0.06333 0.37176 0.0
C1485 C 0.87717 0.04315 0.36426 0.0
C1486 C 0.9843 0.01491 0.32189 0.0
C1487 C 0.89607 0.09403 0.39453 0.0
C1488 C 0.02262 0.08519 0.40215 0.0
C1489 C 0.03093 0.11006 0.37676 0.0
C1490 C 0.99246 0.06735 0.39709 0.0
C1491 C 0.9699 0.07512 0.36624 0.0
C1492 C 0.97717 0.10159 0.3417 0.0
C1493 C 0.00771 0.1185 0.34712 0.0
C1494 C 0.98569 0.0392 0.42383 0.0
C1495 C 0.9535 0.11121 0.30891 0.0
H1496 H 0.92456 0.98319 0.31395 0.0
H1497 H 0.85039 0.0497 0.37542 0.0
H1498 H 0.99326 0.03584 0.30475 0.0
H1499 H 0.00405 0.00967 0.34446 0.0
H1500 H 0.98522 0.99187 0.30558 0.0
H1501 H 0.86791 0.09615 0.40502 0.0
H1502 H 0.91508 0.09286 0.41776 0.0
H1503 H 0.89954 0.11742 0.37822 0.0
H1504 H 0.04074 0.07857 0.4249 0.0
H1505 H 0.01399 0.13804 0.32771 0.0
H1506 H 0.9895 0.01449 0.41039 0.0
H1507 H 0.95729 0.04295 0.43352 0.0
H1508 H 0.00424 0.03774 0.4475 0.0
H1509 H 0.95578 0.08986 0.29021 0.0
H1510 H 0.96113 0.13415 0.2941 0.0
H1511 H 0.92463 0.11607 0.31696 0.0
loop_
_geom_bond_atom_site_label_1
_geom_bond_atom_site_label_2
_geom_bond_distance
_geom_bond_site_symmetry_2
_ccdc_geom_bond_type
Co0 N5 2.057 . S
Co0 O17 2.021 . S
Co0 O20 2.062 . S
Co0 O24 2.117 . S
Co0 O25 2.020 . S
C1 O21 1.259 . S
C1 O24 1.258 . S
Co2 N11 2.057 . S
Co2 O18 2.117 . S
Co2 O19 2.020 . S
Co2 O21 2.021 . S
Co2 O26 2.062 . S
C3 N5 1.316 . S
C3 N6 1.347 . S
C3 H8 0.931 . S
C4 N5 1.375 . S
C4 C7 1.350 . S
C4 H9 0.930 . S
N5 Co0 2.057 . S
N5 C3 1.316 . S
N5 C4 1.375 . S
N6 C3 1.347 . S
N6 C7 1.373 . S
C7 C4 1.350 . S
C7 N6 1.373 . S
C7 H28 0.931 . S
H8 C3 0.931 . S
H9 C4 0.930 . S
C10 O17 1.259 . S
C10 O18 1.258 . S
N11 Co2 2.057 . S
N11 C12 1.316 . S
N11 C13 1.375 . S
C12 N11 1.316 . S
C12 N14 1.347 . S
C12 H23 0.931 . S
C13 N11 1.375 . S
C13 C15 1.350 . S
C13 H22 0.930 . S
N14 C12 1.347 . S
N14 C15 1.373 . S
C15 C13 1.350 . S
C15 N14 1.373 . S
C15 H29 0.931 . S
C16 O19 1.256 . S
C16 O20 1.255 . S
O17 Co0 2.021 . S
O17 C10 1.259 . S
O18 Co2 2.117 . S
O18 C10 1.258 . S
O19 Co2 2.020 . S
O19 C16 1.256 . S
O20 Co0 2.062 . S
O20 C16 1.255 . S
O21 C1 1.259 . S
O21 Co2 2.021 . S
H22 C13 0.930 . S
H23 C12 0.931 . S
O24 Co0 2.117 . S
O24 C1 1.258 . S
O25 Co0 2.020 . S
O25 C27 1.256 . S
O26 Co2 2.062 . S
O26 C27 1.255 . S
C27 O25 1.256 . S
C27 O26 1.255 . S
H28 C7 0.931 . S
H29 C15 0.931 . S
Co30 N35 2.057 . S
Co30 O47 2.021 . S
Co30 O50 2.062 . S
Co30 O54 2.117 . S
Co30 O55 2.020 . S
C31 O51 1.259 . S
C31 O54 1.258 . S
Co32 N41 2.057 . S
Co32 O48 2.117 . S
Co32 O49 2.020 . S
Co32 O51 2.021 . S
Co32 O56 2.062 . S
C33 N35 1.316 . S
C33 N36 1.347 . S
C33 H38 0.931 . S
C34 N35 1.375 . S
C34 C37 1.350 1_455 S
C34 H39 0.930 1_455 S
N35 Co30 2.057 . S
N35 C33 1.316 . S
N35 C34 1.375 . S
N36 C33 1.347 . S
N36 C37 1.373 1_455 S
C37 C34 1.350 1_655 S
C37 N36 1.373 1_655 S
C37 H58 0.931 . S
H38 C33 0.931 . S
H39 C34 0.930 1_655 S
C40 O47 1.259 . S
C40 O48 1.258 . S
N41 Co32 2.057 . S
N41 C42 1.316 . S
N41 C43 1.375 . S
C42 N41 1.316 . S
C42 N44 1.347 . S
C42 H53 0.931 . S
C43 N41 1.375 . S
C43 C45 1.350 . S
C43 H52 0.930 . S
N44 C42 1.347 . S
N44 C45 1.373 . S
C45 C43 1.350 . S
C45 N44 1.373 . S
C45 H59 0.931 . S
C46 O49 1.256 . S
C46 O50 1.255 . S
O47 Co30 2.021 . S
O47 C40 1.259 . S
O48 Co32 2.117 . S
O48 C40 1.258 . S
O49 Co32 2.020 . S
O49 C46 1.256 . S
O50 Co30 2.062 . S
O50 C46 1.255 . S
O51 C31 1.259 . S
O51 Co32 2.021 . S
H52 C43 0.930 . S
H53 C42 0.931 . S
O54 Co30 2.117 . S
O54 C31 1.258 . S
O55 Co30 2.020 . S
O55 C57 1.256 . S
O56 Co32 2.062 . S
O56 C57 1.255 . S
C57 O55 1.256 . S
C57 O56 1.255 . S
H58 C37 0.931 . S
H59 C45 0.931 . S
Co60 N65 2.057 . S
Co60 O77 2.021 . S
Co60 O80 2.062 . S
Co60 O84 2.117 . S
Co60 O85 2.005 1_556 S
C61 O81 1.259 . S
C61 O84 1.258 . S
Co62 N71 2.057 . S
Co62 O78 2.117 . S
Co62 O79 2.020 . S
Co62 O81 2.021 . S
Co62 O86 2.062 . S
C63 N65 1.316 . S
C63 N66 1.347 1_556 S
C63 H68 0.931 . S
C64 N65 1.375 1_554 S
C64 C67 1.350 . S
C64 H69 0.930 . S
N65 Co60 2.057 . S
N65 C63 1.316 . S
N65 C64 1.375 1_556 S
N66 C63 1.347 1_554 S
N66 C67 1.373 . S
C67 C64 1.350 . S
C67 N66 1.373 . S
C67 H88 0.931 . S
H68 C63 0.931 . S
H69 C64 0.930 . S
C70 O77 1.259 . S
C70 O78 1.258 . S
N71 Co62 2.057 . S
N71 C72 1.316 . S
N71 C73 1.375 . S
C72 N71 1.316 . S
C72 N74 1.347 . S
C72 H83 0.931 . S
C73 N71 1.375 . S
C73 C75 1.350 . S
C73 H82 0.930 . S
N74 C72 1.347 . S
N74 C75 1.373 . S
C75 C73 1.350 . S
C75 N74 1.373 . S
C75 H89 0.931 . S
C76 O79 1.256 . S
C76 O80 1.255 . S
O77 Co60 2.021 . S
O77 C70 1.259 . S
O78 Co62 2.117 . S
O78 C70 1.258 . S
O79 Co62 2.020 . S
O79 C76 1.256 . S
O80 Co60 2.062 . S
O80 C76 1.255 . S
O81 C61 1.259 . S
O81 Co62 2.021 . S
H82 C73 0.930 . S
H83 C72 0.931 . S
O84 Co60 2.117 . S
O84 C61 1.258 . S
O85 Co60 2.005 1_554 S
O85 C87 1.255 1_554 S
O86 Co62 2.062 . S
O86 C87 1.255 . S
C87 O85 1.255 1_556 S
C87 O86 1.255 . S
H88 C67 0.931 . S
H89 C75 0.931 . S
Co90 N95 2.057 . S
Co90 O107 2.021 . S
Co90 O110 2.062 . S
Co90 O114 2.117 . S
Co90 O115 2.020 . S
C91 O111 1.259 . S
C91 O114 1.258 . S
Co92 N101 2.057 . S
Co92 O108 2.117 . S
Co92 O109 2.020 . S
Co92 O111 2.021 . S
Co92 O116 2.062 . S
C93 N95 1.316 . S
C93 N96 1.347 . S
C93 H98 0.931 . S
C94 N95 1.375 . S
C94 C97 1.350 . S
C94 H99 0.930 . S
N95 Co90 2.057 . S
N95 C93 1.316 . S
N95 C94 1.375 . S
N96 C93 1.347 . S
N96 C97 1.373 . S
C97 C94 1.350 . S
C97 N96 1.373 . S
C97 H118 0.931 . S
H98 C93 0.931 . S
H99 C94 0.930 . S
C100 O107 1.259 . S
C100 O108 1.258 . S
N101 Co92 2.057 . S
N101 C102 1.316 . S
N101 C103 1.375 . S
C102 N101 1.316 . S
C102 N104 1.347 . S
C102 H113 0.931 . S
C103 N101 1.375 . S
C103 C105 1.350 . S
C103 H112 0.930 . S
N104 C102 1.347 . S
N104 C105 1.373 . S
C105 C103 1.350 . S
C105 N104 1.373 . S
C105 H119 0.931 . S
C106 O109 1.256 . S
C106 O110 1.255 . S
O107 Co90 2.021 . S
O107 C100 1.259 . S
O108 Co92 2.117 . S
O108 C100 1.258 . S
O109 Co92 2.020 . S
O109 C106 1.256 . S
O110 Co90 2.062 . S
O110 C106 1.255 . S
O111 C91 1.259 . S
O111 Co92 2.021 . S
H112 C103 0.930 . S
H113 C102 0.931 . S
O114 Co90 2.117 . S
O114 C91 1.258 . S
O115 Co90 2.020 . S
O115 C117 1.256 . S
O116 Co92 2.062 . S
O116 C117 1.255 . S
C117 O115 1.256 . S
C117 O116 1.255 . S
H118 C97 0.931 . S
H119 C105 0.931 . S
Co120 N125 2.057 . S
Co120 O137 2.021 . S
Co120 O140 2.062 . S
Co120 O144 2.117 . S
Co120 O145 2.020 . S
C121 O141 1.259 . S
C121 O144 1.258 . S
Co122 N131 2.057 . S
Co122 O138 2.117 . S
Co122 O139 2.020 . S
Co122 O141 2.021 . S
Co122 O146 2.062 . S
C123 N125 1.316 . S
C123 N126 1.347 . S
C123 H128 0.931 . S
C124 N125 1.375 . S
C124 C127 1.350 . S
C124 H129 0.930 . S
N125 Co120 2.057 . S
N125 C123 1.316 . S
N125 C124 1.375 . S
N126 C123 1.347 . S
N126 C127 1.373 . S
C127 C124 1.350 . S
C127 N126 1.373 . S
C127 H148 0.931 . S
H128 C123 0.931 . S
H129 C124 0.930 . S
C130 O137 1.259 . S
C130 O138 1.258 . S
N131 Co122 2.057 . S
N131 C132 1.316 . S
N131 C133 1.375 . S
C132 N131 1.316 . S
C132 N134 1.347 . S
C132 H143 0.931 . S
C133 N131 1.375 . S
C133 C135 1.350 . S
C133 H142 0.930 . S
N134 C132 1.347 . S
N134 C135 1.373 . S
C135 C133 1.350 . S
C135 N134 1.373 . S
C135 H149 0.931 . S
C136 O139 1.256 . S
C136 O140 1.255 . S
O137 Co120 2.021 . S
O137 C130 1.259 . S
O138 Co122 2.117 . S
O138 C130 1.258 . S
O139 Co122 2.020 . S
O139 C136 1.256 . S
O140 Co120 2.062 . S
O140 C136 1.255 . S
O141 C121 1.259 . S
O141 Co122 2.021 . S
H142 C133 0.930 . S
H143 C132 0.931 . S
O144 Co120 2.117 . S
O144 C121 1.258 . S
O145 Co120 2.020 . S
O145 C147 1.256 . S
O146 Co122 2.062 . S
O146 C147 1.255 . S
C147 O145 1.256 . S
C147 O146 1.255 . S
H148 C127 0.931 . S
H149 C135 0.931 . S
Co150 N155 2.057 . S
Co150 O167 2.021 . S
Co150 O170 2.062 . S
Co150 O174 2.117 . S
Co150 O175 2.020 . S
C151 O171 1.259 . S
C151 O174 1.258 . S
Co152 N161 2.057 . S
Co152 O168 2.117 . S
Co152 O169 2.020 . S
Co152 O171 2.021 . S
Co152 O176 2.062 . S
C153 N155 1.316 . S
C153 N156 1.347 1_655 S
C153 H158 0.931 . S
C154 N155 1.375 1_455 S
C154 C157 1.350 . S
C154 H159 0.930 . S
N155 Co150 2.057 . S
N155 C153 1.316 . S
N155 C154 1.375 1_655 S
N156 C153 1.347 1_455 S
N156 C157 1.373 . S
C157 C154 1.350 . S
C157 N156 1.373 . S
C157 H178 0.931 . S
H158 C153 0.931 . S
H159 C154 0.930 . S
C160 O167 1.259 . S
C160 O168 1.258 . S
N161 Co152 2.057 . S
N161 C162 1.316 . S
N161 C163 1.375 . S
C162 N161 1.316 . S
C162 N164 1.347 . S
C162 H173 0.931 . S
C163 N161 1.375 . S
C163 C165 1.350 . S
C163 H172 0.930 . S
N164 C162 1.347 . S
N164 C165 1.373 . S
C165 C163 1.350 . S
C165 N164 1.373 . S
C165 H179 0.931 . S
C166 O169 1.256 . S
C166 O170 1.255 . S
O167 Co150 2.021 . S
O167 C160 1.259 . S
O168 Co152 2.117 . S
O168 C160 1.258 . S
O169 Co152 2.020 . S
O169 C166 1.256 . S
O170 Co150 2.062 . S
O170 C166 1.255 . S
O171 C151 1.259 . S
O171 Co152 2.021 . S
H172 C163 0.930 . S
H173 C162 0.931 . S
O174 Co150 2.117 . S
O174 C151 1.258 . S
O175 Co150 2.020 . S
O175 C177 1.256 . S
O176 Co152 2.062 . S
O176 C177 1.255 . S
C177 O175 1.256 . S
C177 O176 1.255 . S
H178 C157 0.931 . S
H179 C165 0.931 . S
Co180 N185 2.057 1_554 S
Co180 O197 2.021 . S
Co180 O200 2.062 1_554 S
Co180 O204 2.117 . S
Co180 O205 2.020 . S
C181 O201 1.259 . S
C181 O204 1.258 . S
Co182 N191 2.057 . S
Co182 O198 2.117 . S
Co182 O199 2.020 . S
Co182 O201 2.021 . S
Co182 O206 2.062 . S
C183 N185 1.316 . S
C183 N186 1.347 . S
C183 H188 0.931 . S
C184 N185 1.375 . S
C184 C187 1.350 . S
C184 H189 0.930 . S
N185 Co180 2.057 1_556 S
N185 C183 1.316 . S
N185 C184 1.375 . S
N186 C183 1.347 . S
N186 C187 1.373 . S
C187 C184 1.350 . S
C187 N186 1.373 . S
C187 H208 0.931 . S
H188 C183 0.931 . S
H189 C184 0.930 . S
C190 O197 1.259 . S
C190 O198 1.258 . S
N191 Co182 2.057 . S
N191 C192 1.316 . S
N191 C193 1.375 . S
C192 N191 1.316 . S
C192 N194 1.347 . S
C192 H203 0.931 . S
C193 N191 1.375 . S
C193 C195 1.350 . S
C193 H202 0.930 . S
N194 C192 1.347 . S
N194 C195 1.373 . S
C195 C193 1.350 . S
C195 N194 1.373 . S
C195 H209 0.931 . S
C196 O199 1.256 1_556 S
C196 O200 1.255 . S
O197 Co180 2.021 . S
O197 C190 1.259 . S
O198 Co182 2.117 . S
O198 C190 1.258 . S
O199 Co182 2.020 . S
O199 C196 1.256 1_554 S
O200 Co180 2.062 1_556 S
O200 C196 1.255 . S
O201 C181 1.259 . S
O201 Co182 2.021 . S
H202 C193 0.930 . S
H203 C192 0.931 . S
O204 Co180 2.117 . S
O204 C181 1.258 . S
O205 Co180 2.020 . S
O205 C207 1.256 . S
O206 Co182 2.062 . S
O206 C207 1.255 . S
C207 O205 1.256 . S
C207 O206 1.255 . S
H208 C187 0.931 . S
H209 C195 0.931 . S
Co210 N215 2.057 . S
Co210 O227 2.021 . S
Co210 O230 2.062 . S
Co210 O234 2.117 . S
Co210 O235 2.020 . S
C211 O231 1.259 . S
C211 O234 1.258 . S
Co212 N221 2.057 . S
Co212 O228 2.117 . S
Co212 O229 2.020 . S
Co212 O231 2.021 . S
Co212 O236 2.062 . S
C213 N215 1.316 . S
C213 N216 1.347 . S
C213 H218 0.931 . S
C214 N215 1.375 . S
C214 C217 1.350 . S
C214 H219 0.930 . S
N215 Co210 2.057 . S
N215 C213 1.316 . S
N215 C214 1.375 . S
N216 C213 1.347 . S
N216 C217 1.373 . S
C217 C214 1.350 . S
C217 N216 1.373 . S
C217 H238 0.931 . S
H218 C213 0.931 . S
H219 C214 0.930 . S
C220 O227 1.259 . S
C220 O228 1.258 . S
N221 Co212 2.057 . S
N221 C222 1.316 . S
N221 C223 1.375 . S
C222 N221 1.316 . S
C222 N224 1.347 . S
C222 H233 0.931 . S
C223 N221 1.375 . S
C223 C225 1.350 . S
C223 H232 0.930 . S
N224 C222 1.347 . S
N224 C225 1.373 . S
C225 C223 1.350 . S
C225 N224 1.373 . S
C225 H239 0.931 . S
C226 O229 1.256 . S
C226 O230 1.255 . S
O227 Co210 2.021 . S
O227 C220 1.259 . S
O228 Co212 2.117 . S
O228 C220 1.258 . S
O229 Co212 2.020 . S
O229 C226 1.256 . S
O230 Co210 2.062 . S
O230 C226 1.255 . S
O231 C211 1.259 . S
O231 Co212 2.021 . S
H232 C223 0.930 . S
H233 C222 0.931 . S
O234 Co210 2.117 . S
O234 C211 1.258 . S
O235 Co210 2.020 . S
O235 C237 1.256 . S
O236 Co212 2.062 . S
O236 C237 1.255 . S
C237 O235 1.256 . S
C237 O236 1.255 . S
H238 C217 0.931 . S
H239 C225 0.931 . S
Co240 N245 2.057 . S
Co240 O257 2.021 . S
Co240 O260 2.062 . S
Co240 O264 2.117 . S
Co240 O265 2.020 . S
C241 O261 1.259 . S
C241 O264 1.258 . S
Co242 N251 2.057 . S
Co242 O258 2.117 . S
Co242 O259 2.020 . S
Co242 O261 2.021 . S
Co242 O266 2.062 . S
C243 N245 1.316 . S
C243 N246 1.347 . S
C243 H248 0.931 . S
C244 N245 1.375 . S
C244 C247 1.350 . S
C244 H249 0.930 . S
N245 Co240 2.057 . S
N245 C243 1.316 . S
N245 C244 1.375 . S
N246 C243 1.347 . S
N246 C247 1.373 . S
C247 C244 1.350 . S
C247 N246 1.373 . S
C247 H268 0.931 . S
H248 C243 0.931 . S
H249 C244 0.930 . S
C250 O257 1.259 . S
C250 O258 1.258 . S
N251 Co242 2.057 . S
N251 C252 1.316 . S
N251 C253 1.375 . S
C252 N251 1.316 . S
C252 N254 1.347 1_554 S
C252 H263 0.931 1_554 S
C253 N251 1.375 . S
C253 C255 1.350 . S
C253 H262 0.930 . S
N254 C252 1.347 1_556 S
N254 C255 1.373 1_556 S
C255 C253 1.350 . S
C255 N254 1.373 1_554 S
C255 H269 0.931 . S
C256 O259 1.256 . S
C256 O260 1.255 . S
O257 Co240 2.021 . S
O257 C250 1.259 . S
O258 Co242 2.117 . S
O258 C250 1.258 . S
O259 Co242 2.020 . S
O259 C256 1.256 . S
O260 Co240 2.062 . S
O260 C256 1.255 . S
O261 C241 1.259 . S
O261 Co242 2.021 . S
H262 C253 0.930 . S
H263 C252 0.931 1_556 S
O264 Co240 2.117 . S
O264 C241 1.258 . S
O265 Co240 2.020 . S
O265 C267 1.256 . S
O266 Co242 2.062 . S
O266 C267 1.255 . S
C267 O265 1.256 . S
C267 O266 1.255 . S
H268 C247 0.931 . S
H269 C255 0.931 . S
Co270 N275 2.057 1_545 S
Co270 O287 2.021 . S
Co270 O290 2.062 1_545 S
Co270 O294 2.117 1_545 S
Co270 O295 2.020 . S
C271 O291 1.259 . S
C271 O294 1.258 1_545 S
Co272 N281 2.057 . S
Co272 O288 2.117 . S
Co272 O289 2.020 . S
Co272 O291 2.021 . S
Co272 O296 2.062 . S
C273 N275 1.316 . S
C273 N276 1.347 . S
C273 H278 0.931 . S
C274 N275 1.375 . S
C274 C277 1.350 . S
C274 H279 0.930 . S
N275 Co270 2.057 1_565 S
N275 C273 1.316 . S
N275 C274 1.375 . S
N276 C273 1.347 . S
N276 C277 1.373 . S
C277 C274 1.350 . S
C277 N276 1.373 . S
C277 H298 0.931 . S
H278 C273 0.931 . S
H279 C274 0.930 . S
C280 O287 1.259 . S
C280 O288 1.258 . S
N281 Co272 2.057 . S
N281 C282 1.316 . S
N281 C283 1.375 . S
C282 N281 1.316 . S
C282 N284 1.347 . S
C282 H293 0.931 . S
C283 N281 1.375 . S
C283 C285 1.350 . S
C283 H292 0.930 . S
N284 C282 1.347 . S
N284 C285 1.373 . S
C285 C283 1.350 . S
C285 N284 1.373 . S
C285 H299 0.931 . S
C286 O289 1.256 1_565 S
C286 O290 1.255 . S
O287 Co270 2.021 . S
O287 C280 1.259 . S
O288 Co272 2.117 . S
O288 C280 1.258 . S
O289 Co272 2.020 . S
O289 C286 1.256 1_545 S
O290 Co270 2.062 1_565 S
O290 C286 1.255 . S
O291 C271 1.259 . S
O291 Co272 2.021 . S
H292 C283 0.930 . S
H293 C282 0.931 . S
O294 Co270 2.117 1_565 S
O294 C271 1.258 1_565 S
O295 Co270 2.020 . S
O295 C297 1.256 . S
O296 Co272 2.062 . S
O296 C297 1.255 . S
C297 O295 1.256 . S
C297 O296 1.255 . S
H298 C277 0.931 . S
H299 C285 0.931 . S
Co300 N305 2.057 . S
Co300 O317 2.021 . S
Co300 O320 2.062 . S
Co300 O324 2.117 . S
Co300 O325 2.020 . S
C301 O321 1.259 . S
C301 O324 1.258 . S
Co302 N311 2.057 . S
Co302 O318 2.117 . S
Co302 O319 2.020 . S
Co302 O321 2.021 . S
Co302 O326 2.062 . S
C303 N305 1.316 . S
C303 N306 1.347 1_565 S
C303 H308 0.931 . S
C304 N305 1.356 1_545 S
C304 C307 1.375 . S
C304 H309 0.926 1_545 S
N305 Co300 2.057 . S
N305 C303 1.316 . S
N305 C304 1.356 1_565 S
N306 C303 1.347 1_545 S
N306 C307 1.373 . S
C307 C304 1.375 . S
C307 N306 1.373 . S
C307 H328 0.931 . S
H308 C303 0.931 . S
H309 C304 0.926 1_565 S
C310 O317 1.259 . S
C310 O318 1.258 . S
N311 Co302 2.057 . S
N311 C312 1.316 . S
N311 C313 1.375 . S
C312 N311 1.316 . S
C312 N314 1.347 . S
C312 H323 0.931 . S
C313 N311 1.375 . S
C313 C315 1.350 . S
C313 H322 0.930 . S
N314 C312 1.347 . S
N314 C315 1.373 . S
C315 C313 1.350 . S
C315 N314 1.373 . S
C315 H329 0.931 . S
C316 O319 1.256 . S
C316 O320 1.255 . S
O317 Co300 2.021 . S
O317 C310 1.259 . S
O318 Co302 2.117 . S
O318 C310 1.258 . S
O319 Co302 2.020 . S
O319 C316 1.256 . S
O320 Co300 2.062 . S
O320 C316 1.255 . S
O321 C301 1.259 . S
O321 Co302 2.021 . S
H322 C313 0.930 . S
H323 C312 0.931 . S
O324 Co300 2.117 . S
O324 C301 1.258 . S
O325 Co300 2.020 . S
O325 C327 1.256 . S
O326 Co302 2.062 . S
O326 C327 1.255 . S
C327 O325 1.256 . S
C327 O326 1.255 . S
H328 C307 0.931 . S
H329 C315 0.931 . S
Co330 N335 2.057 . S
Co330 O347 2.021 . S
Co330 O350 2.062 . S
Co330 O354 2.117 . S
Co330 O355 2.020 . S
C331 O351 1.259 . S
C331 O354 1.258 . S
Co332 N341 2.057 . S
Co332 O348 2.117 . S
Co332 O349 2.020 . S
Co332 O351 2.021 . S
Co332 O356 2.062 . S
C333 N335 1.316 . S
C333 N336 1.347 . S
C333 H338 0.931 . S
C334 N335 1.375 . S
C334 C337 1.350 . S
C334 H339 0.930 . S
N335 Co330 2.057 . S
N335 C333 1.316 . S
N335 C334 1.375 . S
N336 C333 1.347 . S
N336 C337 1.373 . S
C337 C334 1.350 . S
C337 N336 1.373 . S
C337 H358 0.931 . S
H338 C333 0.931 . S
H339 C334 0.930 . S
C340 O347 1.259 . S
C340 O348 1.258 . S
N341 Co332 2.057 . S
N341 C342 1.316 . S
N341 C343 1.375 . S
C342 N341 1.316 . S
C342 N344 1.347 . S
C342 H353 0.931 . S
C343 N341 1.375 . S
C343 C345 1.350 . S
C343 H352 0.930 . S
N344 C342 1.347 . S
N344 C345 1.373 . S
C345 C343 1.350 . S
C345 N344 1.373 . S
C345 H359 0.931 . S
C346 O349 1.256 . S
C346 O350 1.255 . S
O347 Co330 2.021 . S
O347 C340 1.259 . S
O348 Co332 2.117 . S
O348 C340 1.258 . S
O349 Co332 2.020 . S
O349 C346 1.256 . S
O350 Co330 2.062 . S
O350 C346 1.255 . S
O351 C331 1.259 . S
O351 Co332 2.021 . S
H352 C343 0.930 . S
H353 C342 0.931 . S
O354 Co330 2.117 . S
O354 C331 1.258 . S
O355 Co330 2.020 . S
O355 C357 1.256 . S
O356 Co332 2.062 . S
O356 C357 1.255 . S
C357 O355 1.256 . S
C357 O356 1.255 . S
H358 C337 0.931 . S
H359 C345 0.931 . S
C360 C361 1.391 . S
C360 C362 1.394 . S
C360 H376 0.931 . S
C361 C360 1.391 . S
C361 C365 1.376 . S
C362 C360 1.394 . S
C362 C363 1.369 . S
C362 C366 1.531 . S
C363 C362 1.369 . S
C363 C364 1.410 . S
C363 C371 1.503 . S
C364 C363 1.410 . S
C364 C365 1.392 . S
C364 C367 1.511 . S
C365 C361 1.376 . S
C365 C364 1.392 . S
C365 H377 0.929 . S
C366 C362 1.531 . S
C366 H378 0.960 . S
C366 H379 0.962 . S
C366 H380 0.960 . S
C367 C364 1.511 . S
C367 H381 0.961 . S
C367 H382 0.961 . S
C367 H383 0.961 . S
C368 C369 1.370 . S
C368 C370 1.363 . S
C368 H384 0.931 . S
C369 C368 1.370 . S
C369 C373 1.408 . S
C370 C368 1.363 . S
C370 C371 1.370 . S
C370 C374 1.524 . S
C371 C363 1.503 . S
C371 C370 1.370 . S
C371 C372 1.403 . S
C372 C371 1.403 . S
C372 C373 1.404 . S
C372 C375 1.539 . S
C373 C369 1.408 . S
C373 C372 1.404 . S
C373 H385 0.930 . S
C374 C370 1.524 . S
C374 H386 0.956 . S
C374 H387 0.961 . S
C374 H388 0.961 . S
C375 C372 1.539 . S
C375 H389 0.958 . S
C375 H390 0.961 . S
C375 H391 0.960 . S
H376 C360 0.931 . S
H377 C365 0.929 . S
H378 C366 0.960 . S
H379 C366 0.962 . S
H380 C366 0.960 . S
H381 C367 0.961 . S
H382 C367 0.961 . S
H383 C367 0.961 . S
H384 C368 0.931 . S
H385 C373 0.930 . S
H386 C374 0.956 . S
H387 C374 0.961 . S
H388 C374 0.961 . S
H389 C375 0.958 . S
H390 C375 0.961 . S
H391 C375 0.960 . S
C392 C393 1.391 . S
C392 C394 1.394 . S
C392 H408 0.931 1_565 S
C393 C392 1.391 . S
C393 C397 1.376 . S
C394 C392 1.394 . S
C394 C395 1.369 . S
C394 C398 1.531 . S
C395 C394 1.369 . S
C395 C396 1.410 . S
C395 C403 1.503 . S
C396 C395 1.410 . S
C396 C397 1.392 . S
C396 C399 1.511 . S
C397 C393 1.376 . S
C397 C396 1.392 . S
C397 H409 0.929 . S
C398 C394 1.531 . S
C398 H410 0.959 . S
C398 H411 0.962 . S
C398 H412 0.960 1_565 S
C399 C396 1.511 . S
C399 H413 0.961 . S
C399 H414 0.961 . S
C399 H415 0.961 . S
C400 C401 1.370 . S
C400 C402 1.363 . S
C400 H416 0.931 . S
C401 C400 1.370 . S
C401 C405 1.408 . S
C402 C400 1.363 . S
C402 C403 1.370 . S
C402 C406 1.524 . S
C403 C395 1.503 . S
C403 C402 1.370 . S
C403 C404 1.403 . S
C404 C403 1.403 . S
C404 C405 1.404 . S
C404 C407 1.539 1_565 S
C405 C401 1.408 . S
C405 C404 1.404 . S
C405 H417 0.930 . S
C406 C402 1.524 . S
C406 H418 0.956 . S
C406 H419 0.961 . S
C406 H420 0.961 . S
C407 C404 1.539 1_545 S
C407 H421 0.958 . S
C407 H422 0.961 . S
C407 H423 0.960 . S
H408 C392 0.931 1_545 S
H409 C397 0.929 . S
H410 C398 0.959 . S
H411 C398 0.962 . S
H412 C398 0.960 1_545 S
H413 C399 0.961 . S
H414 C399 0.961 . S
H415 C399 0.961 . S
H416 C400 0.931 . S
H417 C405 0.930 . S
H418 C406 0.956 . S
H419 C406 0.961 . S
H420 C406 0.961 . S
H421 C407 0.958 . S
H422 C407 0.961 . S
H423 C407 0.960 . S
C424 C425 1.391 . S
C424 C426 1.394 . S
C424 H440 0.931 . S
C425 C424 1.391 . S
C425 C429 1.376 . S
C426 C424 1.394 . S
C426 C427 1.369 . S
C426 C430 1.531 . S
C427 C426 1.369 . S
C427 C428 1.410 . S
C427 C435 1.503 . S
C428 C427 1.410 . S
C428 C429 1.392 . S
C428 C431 1.511 . S
C429 C425 1.376 . S
C429 C428 1.392 . S
C429 H441 0.929 . S
C430 C426 1.531 . S
C430 H442 0.960 . S
C430 H443 0.962 . S
C430 H444 0.960 . S
C431 C428 1.511 . S
C431 H445 0.973 . S
C431 H446 0.961 . S
C431 H447 0.961 . S
C432 C433 1.370 . S
C432 C434 1.363 . S
C432 H448 0.931 1_554 S
C433 C432 1.370 . S
C433 C437 1.408 . S
C434 C432 1.363 . S
C434 C435 1.370 . S
C434 C438 1.524 1_554 S
C435 C427 1.503 . S
C435 C434 1.370 . S
C435 C436 1.403 . S
C436 C435 1.403 . S
C436 C437 1.404 . S
C436 C439 1.539 . S
C437 C433 1.408 . S
C437 C436 1.404 . S
C437 H449 0.930 . S
C438 C434 1.524 1_556 S
C438 H450 0.956 . S
C438 H451 0.961 . S
C438 H452 0.961 . S
C439 C436 1.539 . S
C439 H453 0.958 . S
C439 H454 0.961 . S
C439 H455 0.960 . S
H440 C424 0.931 . S
H441 C429 0.929 . S
H442 C430 0.960 . S
H443 C430 0.962 . S
H444 C430 0.960 . S
H445 C431 0.973 . S
H446 C431 0.961 . S
H447 C431 0.961 . S
H448 C432 0.931 1_556 S
H449 C437 0.930 . S
H450 C438 0.956 . S
H451 C438 0.961 . S
H452 C438 0.961 . S
H453 C439 0.958 . S
H454 C439 0.961 . S
H455 C439 0.960 . S
C456 C457 1.391 . S
C456 C458 1.394 . S
C456 H472 0.931 . S
C457 C456 1.391 . S
C457 C461 1.376 . S
C458 C456 1.394 . S
C458 C459 1.369 . S
C458 C462 1.531 1_545 S
C459 C458 1.369 . S
C459 C460 1.410 . S
C459 C467 1.503 . S
C460 C459 1.410 . S
C460 C461 1.392 . S
C460 C463 1.511 . S
C461 C457 1.376 . S
C461 C460 1.392 . S
C461 H473 0.929 . S
C462 C458 1.531 1_565 S
C462 H474 0.960 . S
C462 H475 0.962 . S
C462 H476 0.960 . S
C463 C460 1.511 . S
C463 H477 0.961 . S
C463 H478 0.961 . S
C463 H479 0.961 . S
C464 C465 1.370 . S
C464 C466 1.363 . S
C464 H480 0.931 . S
C465 C464 1.370 . S
C465 C469 1.408 . S
C466 C464 1.363 . S
C466 C467 1.370 1_565 S
C466 C470 1.524 . S
C467 C459 1.503 . S
C467 C466 1.370 1_545 S
C467 C468 1.403 . S
C468 C467 1.403 . S
C468 C469 1.404 1_545 S
C468 C471 1.539 . S
C469 C465 1.408 . S
C469 C468 1.404 1_565 S
C469 H481 0.930 1_565 S
C470 C466 1.524 . S
C470 H482 0.956 . S
C470 H483 0.961 . S
C470 H484 0.961 . S
C471 C468 1.539 . S
C471 H485 0.958 . S
C471 H486 0.961 . S
C471 H487 0.960 . S
H472 C456 0.931 . S
H473 C461 0.929 . S
H474 C462 0.960 . S
H475 C462 0.962 . S
H476 C462 0.960 . S
H477 C463 0.961 . S
H478 C463 0.961 . S
H479 C463 0.961 . S
H480 C464 0.931 . S
H481 C469 0.930 1_545 S
H482 C470 0.956 . S
H483 C470 0.961 . S
H484 C470 0.961 . S
H485 C471 0.958 . S
H486 C471 0.961 . S
H487 C471 0.960 . S
C488 C489 1.391 . S
C488 C490 1.394 . S
C488 H504 0.931 . S
C489 C488 1.391 . S
C489 C493 1.376 . S
C490 C488 1.394 . S
C490 C491 1.369 . S
C490 C494 1.531 . S
C491 C490 1.369 . S
C491 C492 1.410 . S
C491 C499 1.503 . S
C492 C491 1.410 . S
C492 C493 1.392 . S
C492 C495 1.511 . S
C493 C489 1.376 . S
C493 C492 1.392 . S
C493 H505 0.929 . S
C494 C490 1.531 . S
C494 H506 0.960 . S
C494 H507 0.962 . S
C494 H508 0.960 . S
C495 C492 1.511 . S
C495 H509 0.961 . S
C495 H510 0.961 . S
C495 H511 0.961 . S
C496 C497 1.370 . S
C496 C498 1.363 . S
C496 H512 0.931 . S
C497 C496 1.370 . S
C497 C501 1.408 . S
C498 C496 1.363 . S
C498 C499 1.370 . S
C498 C502 1.524 . S
C499 C491 1.503 . S
C499 C498 1.370 . S
C499 C500 1.403 . S
C500 C499 1.403 . S
C500 C501 1.404 . S
C500 C503 1.539 . S
C501 C497 1.408 . S
C501 C500 1.404 . S
C501 H513 0.930 . S
C502 C498 1.524 . S
C502 H514 0.956 . S
C502 H515 0.961 . S
C502 H516 0.961 . S
C503 C500 1.539 . S
C503 H517 0.958 . S
C503 H518 0.961 . S
C503 H519 0.960 . S
H504 C488 0.931 . S
H505 C493 0.929 . S
H506 C494 0.960 . S
H507 C494 0.962 . S
H508 C494 0.960 . S
H509 C495 0.961 . S
H510 C495 0.961 . S
H511 C495 0.961 . S
H512 C496 0.931 . S
H513 C501 0.930 . S
H514 C502 0.956 . S
H515 C502 0.961 . S
H516 C502 0.961 . S
H517 C503 0.958 . S
H518 C503 0.961 . S
H519 C503 0.960 . S
C520 C521 1.391 . S
C520 C522 1.394 . S
C520 H536 0.931 . S
C521 C520 1.391 . S
C521 C525 1.376 . S
C522 C520 1.394 . S
C522 C523 1.369 . S
C522 C526 1.531 . S
C523 C522 1.369 . S
C523 C524 1.410 . S
C523 C531 1.503 . S
C524 C523 1.410 . S
C524 C525 1.392 . S
C524 C527 1.511 . S
C525 C521 1.376 . S
C525 C524 1.392 . S
C525 H537 0.929 . S
C526 C522 1.531 . S
C526 H538 0.960 . S
C526 H539 0.962 . S
C526 H540 0.960 . S
C527 C524 1.511 . S
C527 H541 0.961 . S
C527 H542 0.961 . S
C527 H543 0.961 . S
C528 C529 1.370 . S
C528 C530 1.363 . S
C528 H544 0.931 . S
C529 C528 1.370 . S
C529 C533 1.408 . S
C530 C528 1.363 . S
C530 C531 1.370 . S
C530 C534 1.524 . S
C531 C523 1.503 . S
C531 C530 1.370 . S
C531 C532 1.403 . S
C532 C531 1.403 . S
C532 C533 1.404 . S
C532 C535 1.539 . S
C533 C529 1.408 . S
C533 C532 1.404 . S
C533 H545 0.930 . S
C534 C530 1.524 . S
C534 H546 0.956 . S
C534 H547 0.961 . S
C534 H548 0.961 . S
C535 C532 1.539 . S
C535 H549 0.958 . S
C535 H550 0.961 . S
C535 H551 0.960 . S
H536 C520 0.931 . S
H537 C525 0.929 . S
H538 C526 0.960 . S
H539 C526 0.962 . S
H540 C526 0.960 . S
H541 C527 0.961 . S
H542 C527 0.961 . S
H543 C527 0.961 . S
H544 C528 0.931 . S
H545 C533 0.930 . S
H546 C534 0.956 . S
H547 C534 0.961 . S
H548 C534 0.961 . S
H549 C535 0.958 . S
H550 C535 0.961 . S
H551 C535 0.960 . S
C552 C553 1.391 . S
C552 C554 1.394 . S
C552 H568 0.931 . S
C553 C552 1.391 . S
C553 C557 1.376 . S
C554 C552 1.394 . S
C554 C555 1.369 . S
C554 C558 1.531 . S
C555 C554 1.369 . S
C555 C556 1.410 . S
C555 C563 1.503 . S
C556 C555 1.410 . S
C556 C557 1.392 . S
C556 C559 1.511 . S
C557 C553 1.376 . S
C557 C556 1.392 . S
C557 H569 0.929 . S
C558 C554 1.531 . S
C558 H570 0.960 . S
C558 H571 0.962 . S
C558 H572 0.960 . S
C559 C556 1.511 . S
C559 H573 0.961 . S
C559 H574 0.961 . S
C559 H575 0.961 . S
C560 C561 1.370 1_554 S
C560 C562 1.363 . S
C560 H576 0.931 . S
C561 C560 1.370 1_556 S
C561 C565 1.408 . S
C562 C560 1.363 . S
C562 C563 1.370 1_554 S
C562 C566 1.524 . S
C563 C555 1.503 . S
C563 C562 1.370 1_556 S
C563 C564 1.403 . S
C564 C563 1.403 . S
C564 C565 1.404 . S
C564 C567 1.539 . S
C565 C561 1.408 . S
C565 C564 1.404 . S
C565 H577 0.930 . S
C566 C562 1.524 . S
C566 H578 0.956 . S
C566 H579 0.961 . S
C566 H580 0.961 . S
C567 C564 1.539 . S
C567 H581 0.958 . S
C567 H582 0.961 . S
C567 H583 0.960 . S
H568 C552 0.931 . S
H569 C557 0.929 . S
H570 C558 0.960 . S
H571 C558 0.962 . S
H572 C558 0.960 . S
H573 C559 0.961 . S
H574 C559 0.961 . S
H575 C559 0.961 . S
H576 C560 0.931 . S
H577 C565 0.930 . S
H578 C566 0.956 . S
H579 C566 0.961 . S
H580 C566 0.961 . S
H581 C567 0.958 . S
H582 C567 0.961 . S
H583 C567 0.960 . S
C584 C585 1.391 . S
C584 C586 1.394 . S
C584 H600 0.931 . S
C585 C584 1.391 . S
C585 C589 1.376 . S
C586 C584 1.394 . S
C586 C587 1.369 . S
C586 C590 1.531 . S
C587 C586 1.369 . S
C587 C588 1.410 . S
C587 C595 1.503 . S
C588 C587 1.410 . S
C588 C589 1.392 . S
C588 C591 1.511 . S
C589 C585 1.376 . S
C589 C588 1.392 . S
C589 H601 0.929 . S
C590 C586 1.531 . S
C590 H602 0.960 . S
C590 H603 0.962 . S
C590 H604 0.960 . S
C591 C588 1.511 . S
C591 H605 0.961 . S
C591 H606 0.961 . S
C591 H607 0.961 . S
C592 C593 1.370 . S
C592 C594 1.363 . S
C592 H608 0.931 . S
C593 C592 1.370 . S
C593 C597 1.408 . S
C594 C592 1.363 . S
C594 C595 1.370 . S
C594 C598 1.524 . S
C595 C587 1.503 . S
C595 C594 1.370 . S
C595 C596 1.403 . S
C596 C595 1.403 . S
C596 C597 1.404 . S
C596 C599 1.539 . S
C597 C593 1.408 . S
C597 C596 1.404 . S
C597 H609 0.930 . S
C598 C594 1.524 . S
C598 H610 0.956 . S
C598 H611 0.961 . S
C598 H612 0.961 . S
C599 C596 1.539 . S
C599 H613 0.958 . S
C599 H614 0.961 . S
C599 H615 0.960 . S
H600 C584 0.931 . S
H601 C589 0.929 . S
H602 C590 0.960 . S
H603 C590 0.962 . S
H604 C590 0.960 . S
H605 C591 0.961 . S
H606 C591 0.961 . S
H607 C591 0.961 . S
H608 C592 0.931 . S
H609 C597 0.930 . S
H610 C598 0.956 . S
H611 C598 0.961 . S
H612 C598 0.961 . S
H613 C599 0.958 . S
H614 C599 0.961 . S
H615 C599 0.960 . S
C616 C617 1.391 . S
C616 C618 1.394 . S
C616 H632 0.931 . S
C617 C616 1.391 . S
C617 C621 1.376 . S
C618 C616 1.394 . S
C618 C619 1.369 . S
C618 C622 1.531 . S
C619 C618 1.369 . S
C619 C620 1.410 . S
C619 C627 1.503 . S
C620 C619 1.410 . S
C620 C621 1.392 . S
C620 C623 1.511 . S
C621 C617 1.376 . S
C621 C620 1.392 . S
C621 H633 0.929 . S
C622 C618 1.531 . S
C622 H634 0.960 . S
C622 H635 0.962 . S
C622 H636 0.960 . S
C623 C620 1.511 . S
C623 H637 0.961 . S
C623 H638 0.961 . S
C623 H639 0.961 . S
C624 C625 1.370 . S
C624 C626 1.363 . S
C624 H640 0.931 . S
C625 C624 1.370 . S
C625 C629 1.408 . S
C626 C624 1.363 . S
C626 C627 1.370 . S
C626 C630 1.524 . S
C627 C619 1.503 . S
C627 C626 1.370 . S
C627 C628 1.403 . S
C628 C627 1.403 . S
C628 C629 1.404 . S
C628 C631 1.539 . S
C629 C625 1.408 . S
C629 C628 1.404 . S
C629 H641 0.930 . S
C630 C626 1.524 . S
C630 H642 0.956 . S
C630 H643 0.961 . S
C630 H644 0.961 . S
C631 C628 1.539 . S
C631 H645 0.958 . S
C631 H646 0.961 . S
C631 H647 0.960 . S
H632 C616 0.931 . S
H633 C621 0.929 . S
H634 C622 0.960 . S
H635 C622 0.962 . S
H636 C622 0.960 . S
H637 C623 0.961 . S
H638 C623 0.961 . S
H639 C623 0.961 . S
H640 C624 0.931 . S
H641 C629 0.930 . S
H642 C630 0.956 . S
H643 C630 0.961 . S
H644 C630 0.961 . S
H645 C631 0.958 . S
H646 C631 0.961 . S
H647 C631 0.960 . S
C648 C649 1.391 . S
C648 C650 1.394 . S
C648 H664 0.931 . S
C649 C648 1.391 . S
C649 C653 1.376 . S
C650 C648 1.394 . S
C650 C651 1.369 . S
C650 C654 1.531 . S
C651 C650 1.369 . S
C651 C652 1.410 . S
C651 C659 1.503 . S
C652 C651 1.410 . S
C652 C653 1.392 . S
C652 C655 1.511 . S
C653 C649 1.376 . S
C653 C652 1.392 . S
C653 H665 0.929 . S
C654 C650 1.531 . S
C654 H666 0.960 . S
C654 H667 0.962 1_455 S
C654 H668 0.960 . S
C655 C652 1.511 . S
C655 H669 0.961 . S
C655 H670 0.961 . S
C655 H671 0.961 . S
C656 C657 1.370 . S
C656 C658 1.363 . S
C656 H672 0.931 . S
C657 C656 1.370 . S
C657 C661 1.408 1_655 S
C658 C656 1.363 . S
C658 C659 1.370 1_655 S
C658 C662 1.524 . S
C659 C651 1.503 . S
C659 C658 1.370 1_455 S
C659 C660 1.403 . S
C660 C659 1.403 . S
C660 C661 1.404 . S
C660 C663 1.539 . S
C661 C657 1.408 1_455 S
C661 C660 1.404 . S
C661 H673 0.930 . S
C662 C658 1.524 . S
C662 H674 0.956 . S
C662 H675 0.961 . S
C662 H676 0.961 . S
C663 C660 1.539 . S
C663 H677 0.958 . S
C663 H678 0.961 . S
C663 H679 0.960 . S
H664 C648 0.931 . S
H665 C653 0.929 . S
H666 C654 0.960 . S
H667 C654 0.962 1_655 S
H668 C654 0.960 . S
H669 C655 0.961 . S
H670 C655 0.961 . S
H671 C655 0.961 . S
H672 C656 0.931 . S
H673 C661 0.930 . S
H674 C662 0.956 . S
H675 C662 0.961 . S
H676 C662 0.961 . S
H677 C663 0.958 . S
H678 C663 0.961 . S
H679 C663 0.960 . S
C680 C681 1.391 1_655 S
C680 C682 1.394 . S
C680 H696 0.931 . S
C681 C680 1.391 1_455 S
C681 C685 1.376 . S
C682 C680 1.394 . S
C682 C683 1.369 1_655 S
C682 C686 1.531 . S
C683 C682 1.369 1_455 S
C683 C684 1.410 . S
C683 C691 1.503 . S
C684 C683 1.410 . S
C684 C685 1.392 . S
C684 C687 1.511 . S
C685 C681 1.376 . S
C685 C684 1.392 . S
C685 H697 0.929 . S
C686 C682 1.531 . S
C686 H698 0.960 . S
C686 H699 0.962 . S
C686 H700 0.960 . S
C687 C684 1.511 . S
C687 H701 0.961 . S
C687 H702 0.961 . S
C687 H703 0.961 . S
C688 C689 1.370 . S
C688 C690 1.363 . S
C688 H704 0.931 . S
C689 C688 1.370 . S
C689 C693 1.408 1_455 S
C690 C688 1.363 . S
C690 C691 1.370 . S
C690 C694 1.524 . S
C691 C683 1.503 . S
C691 C690 1.370 . S
C691 C692 1.403 1_455 S
C692 C691 1.403 1_655 S
C692 C693 1.404 . S
C692 C695 1.539 . S
C693 C689 1.408 1_655 S
C693 C692 1.404 . S
C693 H705 0.930 . S
C694 C690 1.524 . S
C694 H706 0.956 . S
C694 H707 0.961 . S
C694 H708 0.961 . S
C695 C692 1.539 . S
C695 H709 0.958 . S
C695 H710 0.961 1_655 S
C695 H711 0.960 1_655 S
H696 C680 0.931 . S
H697 C685 0.929 . S
H698 C686 0.960 . S
H699 C686 0.962 . S
H700 C686 0.960 . S
H701 C687 0.961 . S
H702 C687 0.961 . S
H703 C687 0.961 . S
H704 C688 0.931 . S
H705 C693 0.930 . S
H706 C694 0.956 . S
H707 C694 0.961 . S
H708 C694 0.961 . S
H709 C695 0.958 . S
H710 C695 0.961 1_455 S
H711 C695 0.960 1_455 S
C712 C713 1.391 . S
C712 C714 1.394 . S
C712 H728 0.931 . S
C713 C712 1.391 . S
C713 C717 1.376 . S
C714 C712 1.394 . S
C714 C715 1.369 . S
C714 C718 1.531 . S
C715 C714 1.369 . S
C715 C716 1.410 . S
C715 C723 1.503 . S
C716 C715 1.410 . S
C716 C717 1.392 . S
C716 C719 1.511 . S
C717 C713 1.376 . S
C717 C716 1.392 . S
C717 H729 0.929 . S
C718 C714 1.531 . S
C718 H730 0.960 . S
C718 H731 0.962 . S
C718 H732 0.960 . S
C719 C716 1.511 . S
C719 H733 0.961 . S
C719 H734 0.961 . S
C719 H735 0.961 . S
C720 C721 1.370 . S
C720 C722 1.363 . S
C720 H736 0.931 . S
C721 C720 1.370 . S
C721 C725 1.408 . S
C722 C720 1.363 . S
C722 C723 1.370 . S
C722 C726 1.524 . S
C723 C715 1.503 . S
C723 C722 1.370 . S
C723 C724 1.403 . S
C724 C723 1.403 . S
C724 C725 1.404 . S
C724 C727 1.539 . S
C725 C721 1.408 . S
C725 C724 1.404 . S
C725 H737 0.930 . S
C726 C722 1.524 . S
C726 H738 0.956 . S
C726 H739 0.961 . S
C726 H740 0.961 . S
C727 C724 1.539 . S
C727 H741 0.958 . S
C727 H742 0.961 . S
C727 H743 0.960 . S
H728 C712 0.931 . S
H729 C717 0.929 . S
H730 C718 0.960 . S
H731 C718 0.962 . S
H732 C718 0.960 . S
H733 C719 0.961 . S
H734 C719 0.961 . S
H735 C719 0.961 . S
H736 C720 0.931 . S
H737 C725 0.930 . S
H738 C726 0.956 . S
H739 C726 0.961 . S
H740 C726 0.961 . S
H741 C727 0.958 . S
H742 C727 0.961 . S
H743 C727 0.960 . S
C744 C745 1.391 . S
C744 C746 1.394 . S
C744 H760 0.931 . S
C745 C744 1.391 . S
C745 C749 1.376 . S
C746 C744 1.394 . S
C746 C747 1.369 . S
C746 C750 1.531 . S
C747 C746 1.369 . S
C747 C748 1.410 . S
C747 C755 1.503 . S
C748 C747 1.410 . S
C748 C749 1.392 . S
C748 C751 1.511 . S
C749 C745 1.376 . S
C749 C748 1.392 . S
C749 H761 0.929 . S
C750 C746 1.531 . S
C750 H762 0.960 . S
C750 H763 0.962 . S
C750 H764 0.960 . S
C751 C748 1.511 . S
C751 H765 0.961 . S
C751 H766 0.961 . S
C751 H767 0.961 . S
C752 C753 1.370 . S
C752 C754 1.363 . S
C752 H768 0.931 . S
C753 C752 1.370 . S
C753 C757 1.408 . S
C754 C752 1.363 . S
C754 C755 1.370 . S
C754 C758 1.524 . S
C755 C747 1.503 . S
C755 C754 1.370 . S
C755 C756 1.403 . S
C756 C755 1.403 . S
C756 C757 1.404 . S
C756 C759 1.539 . S
C757 C753 1.408 . S
C757 C756 1.404 . S
C757 H769 0.930 . S
C758 C754 1.524 . S
C758 H770 0.956 . S
C758 H771 0.961 . S
C758 H772 0.961 . S
C759 C756 1.539 . S
C759 H773 0.958 . S
C759 H774 0.961 . S
C759 H775 0.960 . S
H760 C744 0.931 . S
H761 C749 0.929 . S
H762 C750 0.960 . S
H763 C750 0.962 . S
H764 C750 0.960 . S
H765 C751 0.961 . S
H766 C751 0.961 . S
H767 C751 0.961 . S
H768 C752 0.931 . S
H769 C757 0.930 . S
H770 C758 0.956 . S
H771 C758 0.961 . S
H772 C758 0.961 . S
H773 C759 0.958 . S
H774 C759 0.961 . S
H775 C759 0.960 . S
C776 C777 1.391 . S
C776 C778 1.384 1_455 S
C776 H792 0.931 . S
C777 C776 1.391 . S
C777 C781 1.376 1_455 S
C778 C776 1.384 1_655 S
C778 C779 1.386 . S
C778 C782 1.523 1_655 S
C779 C778 1.386 . S
C779 C780 1.410 . S
C779 C787 1.503 . S
C780 C779 1.410 . S
C780 C781 1.392 . S
C780 C783 1.511 . S
C781 C777 1.376 1_655 S
C781 C780 1.392 . S
C781 H793 0.929 . S
C782 C778 1.523 1_455 S
C782 H794 0.960 . S
C782 H795 0.962 . S
C782 H796 0.960 . S
C783 C780 1.511 . S
C783 H797 0.961 . S
C783 H798 0.961 . S
C783 H799 0.961 . S
C784 C785 1.370 . S
C784 C786 1.363 . S
C784 H800 0.931 . S
C785 C784 1.370 . S
C785 C789 1.408 . S
C786 C784 1.363 . S
C786 C787 1.370 . S
C786 C790 1.524 . S
C787 C779 1.503 . S
C787 C786 1.370 . S
C787 C788 1.403 . S
C788 C787 1.403 . S
C788 C789 1.404 . S
C788 C791 1.539 . S
C789 C785 1.408 . S
C789 C788 1.404 . S
C789 H801 0.930 . S
C790 C786 1.524 . S
C790 H802 0.956 . S
C790 H803 0.961 . S
C790 H804 0.961 . S
C791 C788 1.539 . S
C791 H805 0.958 . S
C791 H806 0.961 . S
C791 H807 0.960 . S
H792 C776 0.931 . S
H793 C781 0.929 . S
H794 C782 0.960 . S
H795 C782 0.962 . S
H796 C782 0.960 . S
H797 C783 0.961 . S
H798 C783 0.961 . S
H799 C783 0.961 . S
H800 C784 0.931 . S
H801 C789 0.930 . S
H802 C790 0.956 . S
H803 C790 0.961 . S
H804 C790 0.961 . S
H805 C791 0.958 . S
H806 C791 0.961 . S
H807 C791 0.960 . S
C808 C809 1.391 . S
C808 C810 1.394 . S
C808 H824 0.931 . S
C809 C808 1.391 . S
C809 C813 1.376 . S
C810 C808 1.394 . S
C810 C811 1.369 . S
C810 C814 1.531 . S
C811 C810 1.369 . S
C811 C812 1.410 . S
C811 C819 1.503 . S
C812 C811 1.410 . S
C812 C813 1.392 . S
C812 C815 1.511 . S
C813 C809 1.376 . S
C813 C812 1.392 . S
C813 H825 0.929 . S
C814 C810 1.531 . S
C814 H826 0.960 . S
C814 H827 0.962 . S
C814 H828 0.960 . S
C815 C812 1.511 . S
C815 H829 0.961 . S
C815 H830 0.961 . S
C815 H831 0.961 . S
C816 C817 1.370 . S
C816 C818 1.363 . S
C816 H832 0.931 . S
C817 C816 1.370 . S
C817 C821 1.408 . S
C818 C816 1.363 . S
C818 C819 1.370 . S
C818 C822 1.524 . S
C819 C811 1.503 . S
C819 C818 1.370 . S
C819 C820 1.403 . S
C820 C819 1.403 . S
C820 C821 1.404 . S
C820 C823 1.539 . S
C821 C817 1.408 . S
C821 C820 1.404 . S
C821 H833 0.930 . S
C822 C818 1.524 . S
C822 H834 0.956 . S
C822 H835 0.961 . S
C822 H836 0.961 . S
C823 C820 1.539 . S
C823 H837 0.958 . S
C823 H838 0.961 . S
C823 H839 0.960 . S
H824 C808 0.931 . S
H825 C813 0.929 . S
H826 C814 0.960 . S
H827 C814 0.962 . S
H828 C814 0.960 . S
H829 C815 0.961 . S
H830 C815 0.961 . S
H831 C815 0.961 . S
H832 C816 0.931 . S
H833 C821 0.930 . S
H834 C822 0.956 . S
H835 C822 0.961 . S
H836 C822 0.961 . S
H837 C823 0.958 . S
H838 C823 0.961 . S
H839 C823 0.960 . S
C840 C841 1.391 . S
C840 C842 1.394 . S
C840 H856 0.931 . S
C841 C840 1.391 . S
C841 C845 1.376 . S
C842 C840 1.394 . S
C842 C843 1.369 . S
C842 C846 1.531 . S
C843 C842 1.369 . S
C843 C844 1.410 . S
C843 C851 1.503 . S
C844 C843 1.410 . S
C844 C845 1.392 . S
C844 C847 1.511 . S
C845 C841 1.376 . S
C845 C844 1.392 . S
C845 H857 0.929 . S
C846 C842 1.531 . S
C846 H858 0.960 . S
C846 H859 0.962 . S
C846 H860 0.960 . S
C847 C844 1.511 . S
C847 H861 0.961 . S
C847 H862 0.961 1_554 S
C847 H863 0.961 1_554 S
C848 C849 1.370 . S
C848 C850 1.363 1_556 S
C848 H864 0.931 . S
C849 C848 1.370 . S
C849 C853 1.408 . S
C850 C848 1.363 1_554 S
C850 C851 1.370 . S
C850 C854 1.524 . S
C851 C843 1.503 . S
C851 C850 1.370 . S
C851 C852 1.403 1_554 S
C852 C851 1.403 1_556 S
C852 C853 1.404 . S
C852 C855 1.539 . S
C853 C849 1.408 . S
C853 C852 1.404 . S
C853 H865 0.930 . S
C854 C850 1.524 . S
C854 H866 0.956 . S
C854 H867 0.961 . S
C854 H868 0.961 . S
C855 C852 1.539 . S
C855 H869 0.958 . S
C855 H870 0.961 . S
C855 H871 0.960 . S
H856 C840 0.931 . S
H857 C845 0.929 . S
H858 C846 0.960 . S
H859 C846 0.962 . S
H860 C846 0.960 . S
H861 C847 0.961 . S
H862 C847 0.961 1_556 S
H863 C847 0.961 1_556 S
H864 C848 0.931 . S
H865 C853 0.930 . S
H866 C854 0.956 . S
H867 C854 0.961 . S
H868 C854 0.961 . S
H869 C855 0.958 . S
H870 C855 0.961 . S
H871 C855 0.960 . S
C872 C873 1.391 . S
C872 C874 1.394 . S
C872 H888 0.931 . S
C873 C872 1.391 . S
C873 C877 1.376 . S
C874 C872 1.394 . S
C874 C875 1.369 . S
C874 C878 1.531 . S
C875 C874 1.369 . S
C875 C876 1.410 . S
C875 C883 1.503 . S
C876 C875 1.410 . S
C876 C877 1.392 . S
C876 C879 1.511 . S
C877 C873 1.376 . S
C877 C876 1.392 . S
C877 H889 0.929 . S
C878 C874 1.531 . S
C878 H890 0.960 . S
C878 H891 0.962 . S
C878 H892 0.960 . S
C879 C876 1.511 . S
C879 H893 0.961 . S
C879 H894 0.961 . S
C879 H895 0.961 . S
C880 C881 1.370 . S
C880 C882 1.363 . S
C880 H896 0.931 . S
C881 C880 1.370 . S
C881 C885 1.408 . S
C882 C880 1.363 . S
C882 C883 1.370 . S
C882 C886 1.524 . S
C883 C875 1.503 . S
C883 C882 1.370 . S
C883 C884 1.403 . S
C884 C883 1.403 . S
C884 C885 1.404 . S
C884 C887 1.539 . S
C885 C881 1.408 . S
C885 C884 1.404 . S
C885 H897 0.930 . S
C886 C882 1.524 . S
C886 H898 0.956 . S
C886 H899 0.961 . S
C886 H900 0.961 . S
C887 C884 1.539 . S
C887 H901 0.958 . S
C887 H902 0.961 . S
C887 H903 0.960 . S
H888 C872 0.931 . S
H889 C877 0.929 . S
H890 C878 0.960 . S
H891 C878 0.962 . S
H892 C878 0.960 . S
H893 C879 0.961 . S
H894 C879 0.961 . S
H895 C879 0.961 . S
H896 C880 0.931 . S
H897 C885 0.930 . S
H898 C886 0.956 . S
H899 C886 0.961 . S
H900 C886 0.961 . S
H901 C887 0.958 . S
H902 C887 0.961 . S
H903 C887 0.960 . S
C904 C905 1.391 . S
C904 C906 1.394 . S
C904 H920 0.931 . S
C905 C904 1.391 . S
C905 C909 1.376 . S
C906 C904 1.394 . S
C906 C907 1.369 . S
C906 C910 1.531 . S
C907 C906 1.369 . S
C907 C908 1.410 . S
C907 C915 1.503 . S
C908 C907 1.410 . S
C908 C909 1.392 . S
C908 C911 1.511 . S
C909 C905 1.376 . S
C909 C908 1.392 . S
C909 H921 0.929 . S
C910 C906 1.531 . S
C910 H922 0.960 . S
C910 H923 0.962 . S
C910 H924 0.960 . S
C911 C908 1.511 . S
C911 H925 0.961 . S
C911 H926 0.961 . S
C911 H927 0.961 . S
C912 C913 1.370 . S
C912 C914 1.363 . S
C912 H928 0.931 . S
C913 C912 1.370 . S
C913 C917 1.408 . S
C914 C912 1.363 . S
C914 C915 1.370 . S
C914 C918 1.524 . S
C915 C907 1.503 . S
C915 C914 1.370 . S
C915 C916 1.403 . S
C916 C915 1.403 . S
C916 C917 1.404 . S
C916 C919 1.539 . S
C917 C913 1.408 . S
C917 C916 1.404 . S
C917 H929 0.930 . S
C918 C914 1.524 . S
C918 H930 0.956 . S
C918 H931 0.961 . S
C918 H932 0.961 . S
C919 C916 1.539 . S
C919 H933 0.958 . S
C919 H934 0.961 . S
C919 H935 0.960 . S
H920 C904 0.931 . S
H921 C909 0.929 . S
H922 C910 0.960 . S
H923 C910 0.962 . S
H924 C910 0.960 . S
H925 C911 0.961 . S
H926 C911 0.961 . S
H927 C911 0.961 . S
H928 C912 0.931 . S
H929 C917 0.930 . S
H930 C918 0.956 . S
H931 C918 0.961 . S
H932 C918 0.961 . S
H933 C919 0.958 . S
H934 C919 0.961 . S
H935 C919 0.960 . S
C936 C937 1.391 . S
C936 C938 1.394 . S
C936 H952 0.931 . S
C937 C936 1.391 . S
C937 C941 1.376 . S
C938 C936 1.394 . S
C938 C939 1.369 . S
C938 C942 1.531 . S
C939 C938 1.369 . S
C939 C940 1.410 . S
C939 C947 1.503 . S
C940 C939 1.410 . S
C940 C941 1.392 . S
C940 C943 1.511 . S
C941 C937 1.376 . S
C941 C940 1.392 . S
C941 H953 0.929 . S
C942 C938 1.531 . S
C942 H954 0.960 . S
C942 H955 0.962 . S
C942 H956 0.960 . S
C943 C940 1.511 . S
C943 H957 0.961 . S
C943 H958 0.961 . S
C943 H959 0.961 . S
C944 C945 1.370 . S
C944 C946 1.363 . S
C944 H960 0.931 . S
C945 C944 1.370 . S
C945 C949 1.408 . S
C946 C944 1.363 . S
C946 C947 1.370 . S
C946 C950 1.524 . S
C947 C939 1.503 . S
C947 C946 1.370 . S
C947 C948 1.403 . S
C948 C947 1.403 . S
C948 C949 1.404 . S
C948 C951 1.539 . S
C949 C945 1.408 . S
C949 C948 1.404 . S
C949 H961 0.930 . S
C950 C946 1.524 . S
C950 H962 0.956 . S
C950 H963 0.961 . S
C950 H964 0.961 . S
C951 C948 1.539 . S
C951 H965 0.958 . S
C951 H966 0.961 . S
C951 H967 0.960 . S
H952 C936 0.931 . S
H953 C941 0.929 . S
H954 C942 0.960 . S
H955 C942 0.962 . S
H956 C942 0.960 . S
H957 C943 0.961 . S
H958 C943 0.961 . S
H959 C943 0.961 . S
H960 C944 0.931 . S
H961 C949 0.930 . S
H962 C950 0.956 . S
H963 C950 0.961 . S
H964 C950 0.961 . S
H965 C951 0.958 . S
H966 C951 0.961 . S
H967 C951 0.960 . S
C968 C969 1.391 . S
C968 C970 1.394 . S
C968 H984 0.931 . S
C969 C968 1.391 . S
C969 C973 1.376 . S
C970 C968 1.394 . S
C970 C971 1.369 . S
C970 C974 1.531 . S
C971 C970 1.369 . S
C971 C972 1.410 . S
C971 C979 1.503 . S
C972 C971 1.410 . S
C972 C973 1.392 . S
C972 C975 1.511 . S
C973 C969 1.376 . S
C973 C972 1.392 . S
C973 H985 0.929 . S
C974 C970 1.531 . S
C974 H986 0.960 . S
C974 H987 0.962 . S
C974 H988 0.960 . S
C975 C972 1.511 . S
C975 H989 0.961 . S
C975 H990 0.961 . S
C975 H991 0.961 . S
C976 C977 1.370 . S
C976 C978 1.363 . S
C976 H992 0.931 . S
C977 C976 1.370 . S
C977 C981 1.408 . S
C978 C976 1.363 . S
C978 C979 1.370 . S
C978 C982 1.524 . S
C979 C971 1.503 . S
C979 C978 1.370 . S
C979 C980 1.403 . S
C980 C979 1.403 . S
C980 C981 1.404 . S
C980 C983 1.539 . S
C981 C977 1.408 . S
C981 C980 1.404 . S
C981 H993 0.930 . S
C982 C978 1.524 . S
C982 H994 0.956 . S
C982 H995 0.961 . S
C982 H996 0.961 . S
C983 C980 1.539 . S
C983 H997 0.958 . S
C983 H998 0.961 . S
C983 H999 0.960 . S
H984 C968 0.931 . S
H985 C973 0.929 . S
H986 C974 0.960 . S
H987 C974 0.962 . S
H988 C974 0.960 . S
H989 C975 0.961 . S
H990 C975 0.961 . S
H991 C975 0.961 . S
H992 C976 0.931 . S
H993 C981 0.930 . S
H994 C982 0.956 . S
H995 C982 0.961 . S
H996 C982 0.961 . S
H997 C983 0.958 . S
H998 C983 0.961 . S
H999 C983 0.960 . S
C1000 C1001 1.391 . S
C1000 C1002 1.394 . S
C1000 H1016 0.931 . S
C1001 C1000 1.391 . S
C1001 C1005 1.376 . S
C1002 C1000 1.394 . S
C1002 C1003 1.369 . S
C1002 C1006 1.531 . S
C1003 C1002 1.369 . S
C1003 C1004 1.410 . S
C1003 C1011 1.503 . S
C1004 C1003 1.410 . S
C1004 C1005 1.392 . S
C1004 C1007 1.511 . S
C1005 C1001 1.376 . S
C1005 C1004 1.392 . S
C1005 H1017 0.929 . S
C1006 C1002 1.531 . S
C1006 H1018 0.960 . S
C1006 H1019 0.962 . S
C1006 H1020 0.960 . S
C1007 C1004 1.511 . S
C1007 H1021 0.961 . S
C1007 H1022 0.961 . S
C1007 H1023 0.961 . S
C1008 C1009 1.370 . S
C1008 C1010 1.363 . S
C1008 H1024 0.931 . S
C1009 C1008 1.370 . S
C1009 C1013 1.408 . S
C1010 C1008 1.363 . S
C1010 C1011 1.370 . S
C1010 C1014 1.524 . S
C1011 C1003 1.503 . S
C1011 C1010 1.370 . S
C1011 C1012 1.403 . S
C1012 C1011 1.403 . S
C1012 C1013 1.404 . S
C1012 C1015 1.539 . S
C1013 C1009 1.408 . S
C1013 C1012 1.404 . S
C1013 H1025 0.930 . S
C1014 C1010 1.524 . S
C1014 H1026 0.956 . S
C1014 H1027 0.961 . S
C1014 H1028 0.961 . S
C1015 C1012 1.539 . S
C1015 H1029 0.958 . S
C1015 H1030 0.961 . S
C1015 H1031 0.960 . S
H1016 C1000 0.931 . S
H1017 C1005 0.929 . S
H1018 C1006 0.960 . S
H1019 C1006 0.962 . S
H1020 C1006 0.960 . S
H1021 C1007 0.961 . S
H1022 C1007 0.961 . S
H1023 C1007 0.961 . S
H1024 C1008 0.931 . S
H1025 C1013 0.930 . S
H1026 C1014 0.956 . S
H1027 C1014 0.961 . S
H1028 C1014 0.961 . S
H1029 C1015 0.958 . S
H1030 C1015 0.961 . S
H1031 C1015 0.960 . S
C1032 C1033 1.391 . S
C1032 C1034 1.394 . S
C1032 H1048 0.931 . S
C1033 C1032 1.391 . S
C1033 C1037 1.376 . S
C1034 C1032 1.394 . S
C1034 C1035 1.369 . S
C1034 C1038 1.531 . S
C1035 C1034 1.369 . S
C1035 C1036 1.410 . S
C1035 C1043 1.503 . S
C1036 C1035 1.410 . S
C1036 C1037 1.392 . S
C1036 C1039 1.511 . S
C1037 C1033 1.376 . S
C1037 C1036 1.392 . S
C1037 H1049 0.929 . S
C1038 C1034 1.531 . S
C1038 H1050 0.960 . S
C1038 H1051 0.962 . S
C1038 H1052 0.960 . S
C1039 C1036 1.511 . S
C1039 H1053 0.961 . S
C1039 H1054 0.961 . S
C1039 H1055 0.961 . S
C1040 C1041 1.370 1_545 S
C1040 C1042 1.363 . S
C1040 H1056 0.931 . S
C1041 C1040 1.370 1_565 S
C1041 C1045 1.408 . S
C1042 C1040 1.363 . S
C1042 C1043 1.370 . S
C1042 C1046 1.524 . S
C1043 C1035 1.503 . S
C1043 C1042 1.370 . S
C1043 C1044 1.403 . S
C1044 C1043 1.403 . S
C1044 C1045 1.404 1_545 S
C1044 C1047 1.539 . S
C1045 C1041 1.408 . S
C1045 C1044 1.404 1_565 S
C1045 H1057 0.930 . S
C1046 C1042 1.524 . S
C1046 H1058 0.956 . S
C1046 H1059 0.961 . S
C1046 H1060 0.961 . S
C1047 C1044 1.539 . S
C1047 H1061 0.958 . S
C1047 H1062 0.961 . S
C1047 H1063 0.960 . S
H1048 C1032 0.931 . S
H1049 C1037 0.929 . S
H1050 C1038 0.960 . S
H1051 C1038 0.962 . S
H1052 C1038 0.960 . S
H1053 C1039 0.961 . S
H1054 C1039 0.961 . S
H1055 C1039 0.961 . S
H1056 C1040 0.931 . S
H1057 C1045 0.930 . S
H1058 C1046 0.956 . S
H1059 C1046 0.961 . S
H1060 C1046 0.961 . S
H1061 C1047 0.958 . S
H1062 C1047 0.961 . S
H1063 C1047 0.960 . S
C1064 C1065 1.391 . S
C1064 C1066 1.394 . S
C1064 H1080 0.931 . S
C1065 C1064 1.391 . S
C1065 C1069 1.376 . S
C1066 C1064 1.394 . S
C1066 C1067 1.369 . S
C1066 C1070 1.531 . S
C1067 C1066 1.369 . S
C1067 C1068 1.410 . S
C1067 C1075 1.503 . S
C1068 C1067 1.410 . S
C1068 C1069 1.392 . S
C1068 C1071 1.511 . S
C1069 C1065 1.376 . S
C1069 C1068 1.392 . S
C1069 H1081 0.929 . S
C1070 C1066 1.531 . S
C1070 H1082 0.960 . S
C1070 H1083 0.962 . S
C1070 H1084 0.960 . S
C1071 C1068 1.511 . S
C1071 H1085 0.961 . S
C1071 H1086 0.961 . S
C1071 H1087 0.961 . S
C1072 C1073 1.370 . S
C1072 C1074 1.363 . S
C1072 H1088 0.931 . S
C1073 C1072 1.370 . S
C1073 C1077 1.408 . S
C1074 C1072 1.363 . S
C1074 C1075 1.370 . S
C1074 C1078 1.524 . S
C1075 C1067 1.503 . S
C1075 C1074 1.370 . S
C1075 C1076 1.403 . S
C1076 C1075 1.403 . S
C1076 C1077 1.404 . S
C1076 C1079 1.539 . S
C1077 C1073 1.408 . S
C1077 C1076 1.404 . S
C1077 H1089 0.930 . S
C1078 C1074 1.524 . S
C1078 H1090 0.956 . S
C1078 H1091 0.961 . S
C1078 H1092 0.961 . S
C1079 C1076 1.539 . S
C1079 H1093 0.958 . S
C1079 H1094 0.961 . S
C1079 H1095 0.960 . S
H1080 C1064 0.931 . S
H1081 C1069 0.929 . S
H1082 C1070 0.960 . S
H1083 C1070 0.962 . S
H1084 C1070 0.960 . S
H1085 C1071 0.961 . S
H1086 C1071 0.961 . S
H1087 C1071 0.961 . S
H1088 C1072 0.931 . S
H1089 C1077 0.930 . S
H1090 C1078 0.956 . S
H1091 C1078 0.961 . S
H1092 C1078 0.961 . S
H1093 C1079 0.958 . S
H1094 C1079 0.961 . S
H1095 C1079 0.960 . S
C1096 C1097 1.391 . S
C1096 C1098 1.394 1_545 S
C1096 H1112 0.931 . S
C1097 C1096 1.391 . S
C1097 C1101 1.376 1_545 S
C1098 C1096 1.394 1_565 S
C1098 C1099 1.369 . S
C1098 C1102 1.531 . S
C1099 C1098 1.369 . S
C1099 C1100 1.410 . S
C1099 C1107 1.503 . S
C1100 C1099 1.410 . S
C1100 C1101 1.392 . S
C1100 C1103 1.511 . S
C1101 C1097 1.376 1_565 S
C1101 C1100 1.392 . S
C1101 H1113 0.929 . S
C1102 C1098 1.531 . S
C1102 H1114 0.960 . S
C1102 H1115 0.962 . S
C1102 H1116 0.960 1_565 S
C1103 C1100 1.511 . S
C1103 H1117 0.961 . S
C1103 H1118 0.961 . S
C1103 H1119 0.961 . S
C1104 C1105 1.370 . S
C1104 C1106 1.363 . S
C1104 H1120 0.931 . S
C1105 C1104 1.370 . S
C1105 C1109 1.408 1_554 S
C1106 C1104 1.363 . S
C1106 C1107 1.370 . S
C1106 C1110 1.524 . S
C1107 C1099 1.503 . S
C1107 C1106 1.370 . S
C1107 C1108 1.403 . S
C1108 C1107 1.403 . S
C1108 C1109 1.404 1_554 S
C1108 C1111 1.539 1_554 S
C1109 C1105 1.408 1_556 S
C1109 C1108 1.404 1_556 S
C1109 H1121 0.930 . S
C1110 C1106 1.524 . S
C1110 H1122 0.956 . S
C1110 H1123 0.961 . S
C1110 H1124 0.961 . S
C1111 C1108 1.539 1_556 S
C1111 H1125 0.958 . S
C1111 H1126 0.961 . S
C1111 H1127 0.960 1_556 S
H1112 C1096 0.931 . S
H1113 C1101 0.929 . S
H1114 C1102 0.960 . S
H1115 C1102 0.962 . S
H1116 C1102 0.960 1_545 S
H1117 C1103 0.961 . S
H1118 C1103 0.961 . S
H1119 C1103 0.961 . S
H1120 C1104 0.931 . S
H1121 C1109 0.930 . S
H1122 C1110 0.956 . S
H1123 C1110 0.961 . S
H1124 C1110 0.961 . S
H1125 C1111 0.958 . S
H1126 C1111 0.961 . S
H1127 C1111 0.960 1_554 S
C1128 C1129 1.391 . S
C1128 C1130 1.394 . S
C1128 H1144 0.931 . S
C1129 C1128 1.391 . S
C1129 C1133 1.376 . S
C1130 C1128 1.394 . S
C1130 C1131 1.369 . S
C1130 C1134 1.531 . S
C1131 C1130 1.369 . S
C1131 C1132 1.410 . S
C1131 C1139 1.503 . S
C1132 C1131 1.410 . S
C1132 C1133 1.392 . S
C1132 C1135 1.511 . S
C1133 C1129 1.376 . S
C1133 C1132 1.392 . S
C1133 H1145 0.929 . S
C1134 C1130 1.531 . S
C1134 H1146 0.960 . S
C1134 H1147 0.962 . S
C1134 H1148 0.960 . S
C1135 C1132 1.511 . S
C1135 H1149 0.961 . S
C1135 H1150 0.961 . S
C1135 H1151 0.961 . S
C1136 C1137 1.370 . S
C1136 C1138 1.363 . S
C1136 H1152 0.931 . S
C1137 C1136 1.370 . S
C1137 C1141 1.408 . S
C1138 C1136 1.363 . S
C1138 C1139 1.370 . S
C1138 C1142 1.524 . S
C1139 C1131 1.503 . S
C1139 C1138 1.370 . S
C1139 C1140 1.403 . S
C1140 C1139 1.403 . S
C1140 C1141 1.404 . S
C1140 C1143 1.539 . S
C1141 C1137 1.408 . S
C1141 C1140 1.404 . S
C1141 H1153 0.930 . S
C1142 C1138 1.524 . S
C1142 H1154 0.956 . S
C1142 H1155 0.961 . S
C1142 H1156 0.961 . S
C1143 C1140 1.539 . S
C1143 H1157 0.958 . S
C1143 H1158 0.961 . S
C1143 H1159 0.960 . S
H1144 C1128 0.931 . S
H1145 C1133 0.929 . S
H1146 C1134 0.960 . S
H1147 C1134 0.962 . S
H1148 C1134 0.960 . S
H1149 C1135 0.961 . S
H1150 C1135 0.961 . S
H1151 C1135 0.961 . S
H1152 C1136 0.931 . S
H1153 C1141 0.930 . S
H1154 C1142 0.956 . S
H1155 C1142 0.961 . S
H1156 C1142 0.961 . S
H1157 C1143 0.958 . S
H1158 C1143 0.961 . S
H1159 C1143 0.960 . S
C1160 C1161 1.391 . S
C1160 C1162 1.394 . S
C1160 H1176 0.931 . S
C1161 C1160 1.391 . S
C1161 C1165 1.376 . S
C1162 C1160 1.394 . S
C1162 C1163 1.369 . S
C1162 C1166 1.531 . S
C1163 C1162 1.369 . S
C1163 C1164 1.410 . S
C1163 C1171 1.503 . S
C1164 C1163 1.410 . S
C1164 C1165 1.392 . S
C1164 C1167 1.511 . S
C1165 C1161 1.376 . S
C1165 C1164 1.392 . S
C1165 H1177 0.929 . S
C1166 C1162 1.531 . S
C1166 H1178 0.960 . S
C1166 H1179 0.962 . S
C1166 H1180 0.960 . S
C1167 C1164 1.511 . S
C1167 H1181 0.961 . S
C1167 H1182 0.961 . S
C1167 H1183 0.961 . S
C1168 C1169 1.370 . S
C1168 C1170 1.363 . S
C1168 H1184 0.931 . S
C1169 C1168 1.370 . S
C1169 C1173 1.408 . S
C1170 C1168 1.363 . S
C1170 C1171 1.370 . S
C1170 C1174 1.524 . S
C1171 C1163 1.503 . S
C1171 C1170 1.370 . S
C1171 C1172 1.403 . S
C1172 C1171 1.403 . S
C1172 C1173 1.404 . S
C1172 C1175 1.539 . S
C1173 C1169 1.408 . S
C1173 C1172 1.404 . S
C1173 H1185 0.930 . S
C1174 C1170 1.524 . S
C1174 H1186 0.956 . S
C1174 H1187 0.961 . S
C1174 H1188 0.961 . S
C1175 C1172 1.539 . S
C1175 H1189 0.958 . S
C1175 H1190 0.961 . S
C1175 H1191 0.960 . S
H1176 C1160 0.931 . S
H1177 C1165 0.929 . S
H1178 C1166 0.960 . S
H1179 C1166 0.962 . S
H1180 C1166 0.960 . S
H1181 C1167 0.961 . S
H1182 C1167 0.961 . S
H1183 C1167 0.961 . S
H1184 C1168 0.931 . S
H1185 C1173 0.930 . S
H1186 C1174 0.956 . S
H1187 C1174 0.961 . S
H1188 C1174 0.961 . S
H1189 C1175 0.958 . S
H1190 C1175 0.961 . S
H1191 C1175 0.960 . S
C1192 C1193 1.391 . S
C1192 C1194 1.394 . S
C1192 H1208 0.931 . S
C1193 C1192 1.391 . S
C1193 C1197 1.376 . S
C1194 C1192 1.394 . S
C1194 C1195 1.369 . S
C1194 C1198 1.531 . S
C1195 C1194 1.369 . S
C1195 C1196 1.410 . S
C1195 C1203 1.503 . S
C1196 C1195 1.410 . S
C1196 C1197 1.392 . S
C1196 C1199 1.511 . S
C1197 C1193 1.376 . S
C1197 C1196 1.392 . S
C1197 H1209 0.929 . S
C1198 C1194 1.531 . S
C1198 H1210 0.960 . S
C1198 H1211 0.962 . S
C1198 H1212 0.960 . S
C1199 C1196 1.511 . S
C1199 H1213 0.961 . S
C1199 H1214 0.961 . S
C1199 H1215 0.961 . S
C1200 C1201 1.370 . S
C1200 C1202 1.363 . S
C1200 H1216 0.931 . S
C1201 C1200 1.370 . S
C1201 C1205 1.408 . S
C1202 C1200 1.363 . S
C1202 C1203 1.370 . S
C1202 C1206 1.524 . S
C1203 C1195 1.503 . S
C1203 C1202 1.370 . S
C1203 C1204 1.403 . S
C1204 C1203 1.403 . S
C1204 C1205 1.404 . S
C1204 C1207 1.539 . S
C1205 C1201 1.408 . S
C1205 C1204 1.404 . S
C1205 H1217 0.930 . S
C1206 C1202 1.524 . S
C1206 H1218 0.956 . S
C1206 H1219 0.961 . S
C1206 H1220 0.961 . S
C1207 C1204 1.539 . S
C1207 H1221 0.958 . S
C1207 H1222 0.961 . S
C1207 H1223 0.960 . S
H1208 C1192 0.931 . S
H1209 C1197 0.929 . S
H1210 C1198 0.960 . S
H1211 C1198 0.962 . S
H1212 C1198 0.960 . S
H1213 C1199 0.961 . S
H1214 C1199 0.961 . S
H1215 C1199 0.961 . S
H1216 C1200 0.931 . S
H1217 C1205 0.930 . S
H1218 C1206 0.956 . S
H1219 C1206 0.961 . S
H1220 C1206 0.961 . S
H1221 C1207 0.958 . S
H1222 C1207 0.961 . S
H1223 C1207 0.960 . S
C1224 C1225 1.391 . S
C1224 C1226 1.394 . S
C1224 H1240 0.931 . S
C1225 C1224 1.391 . S
C1225 C1229 1.376 . S
C1226 C1224 1.394 . S
C1226 C1227 1.369 . S
C1226 C1230 1.531 . S
C1227 C1226 1.369 . S
C1227 C1228 1.410 . S
C1227 C1235 1.503 . S
C1228 C1227 1.410 . S
C1228 C1229 1.392 . S
C1228 C1231 1.511 . S
C1229 C1225 1.376 . S
C1229 C1228 1.392 . S
C1229 H1241 0.929 . S
C1230 C1226 1.531 . S
C1230 H1242 0.960 . S
C1230 H1243 0.962 . S
C1230 H1244 0.960 . S
C1231 C1228 1.511 . S
C1231 H1245 0.961 . S
C1231 H1246 0.961 . S
C1231 H1247 0.961 . S
C1232 C1233 1.370 . S
C1232 C1234 1.363 . S
C1232 H1248 0.931 . S
C1233 C1232 1.370 . S
C1233 C1237 1.408 . S
C1234 C1232 1.363 . S
C1234 C1235 1.370 . S
C1234 C1238 1.524 . S
C1235 C1227 1.503 . S
C1235 C1234 1.370 . S
C1235 C1236 1.403 . S
C1236 C1235 1.403 . S
C1236 C1237 1.404 . S
C1236 C1239 1.539 . S
C1237 C1233 1.408 . S
C1237 C1236 1.404 . S
C1237 H1249 0.930 . S
C1238 C1234 1.524 . S
C1238 H1250 0.956 . S
C1238 H1251 0.961 . S
C1238 H1252 0.961 . S
C1239 C1236 1.539 . S
C1239 H1253 0.958 . S
C1239 H1254 0.961 . S
C1239 H1255 0.960 . S
H1240 C1224 0.931 . S
H1241 C1229 0.929 . S
H1242 C1230 0.960 . S
H1243 C1230 0.962 . S
H1244 C1230 0.960 . S
H1245 C1231 0.961 . S
H1246 C1231 0.961 . S
H1247 C1231 0.961 . S
H1248 C1232 0.931 . S
H1249 C1237 0.930 . S
H1250 C1238 0.956 . S
H1251 C1238 0.961 . S
H1252 C1238 0.961 . S
H1253 C1239 0.958 . S
H1254 C1239 0.961 . S
H1255 C1239 0.960 . S
C1256 C1257 1.391 . S
C1256 C1258 1.394 . S
C1256 H1272 0.931 . S
C1257 C1256 1.391 . S
C1257 C1261 1.376 . S
C1258 C1256 1.394 . S
C1258 C1259 1.369 . S
C1258 C1262 1.531 . S
C1259 C1258 1.369 . S
C1259 C1260 1.410 . S
C1259 C1267 1.503 . S
C1260 C1259 1.410 . S
C1260 C1261 1.392 . S
C1260 C1263 1.511 . S
C1261 C1257 1.376 . S
C1261 C1260 1.392 . S
C1261 H1273 0.929 . S
C1262 C1258 1.531 . S
C1262 H1274 0.960 . S
C1262 H1275 0.962 . S
C1262 H1276 0.960 . S
C1263 C1260 1.511 . S
C1263 H1277 0.961 . S
C1263 H1278 0.961 . S
C1263 H1279 0.961 . S
C1264 C1265 1.370 . S
C1264 C1266 1.363 . S
C1264 H1280 0.931 . S
C1265 C1264 1.370 . S
C1265 C1269 1.408 . S
C1266 C1264 1.363 . S
C1266 C1267 1.370 . S
C1266 C1270 1.524 . S
C1267 C1259 1.503 . S
C1267 C1266 1.370 . S
C1267 C1268 1.403 . S
C1268 C1267 1.403 . S
C1268 C1269 1.404 . S
C1268 C1271 1.539 . S
C1269 C1265 1.408 . S
C1269 C1268 1.404 . S
C1269 H1281 0.930 . S
C1270 C1266 1.524 . S
C1270 H1282 0.956 . S
C1270 H1283 0.961 . S
C1270 H1284 0.961 . S
C1271 C1268 1.539 . S
C1271 H1285 0.958 . S
C1271 H1286 0.961 . S
C1271 H1287 0.960 . S
H1272 C1256 0.931 . S
H1273 C1261 0.929 . S
H1274 C1262 0.960 . S
H1275 C1262 0.962 . S
H1276 C1262 0.960 . S
H1277 C1263 0.961 . S
H1278 C1263 0.961 . S
H1279 C1263 0.961 . S
H1280 C1264 0.931 . S
H1281 C1269 0.930 . S
H1282 C1270 0.956 . S
H1283 C1270 0.961 . S
H1284 C1270 0.961 . S
H1285 C1271 0.958 . S
H1286 C1271 0.961 . S
H1287 C1271 0.960 . S
C1288 C1289 1.391 . S
C1288 C1290 1.394 . S
C1288 H1304 0.931 . S
C1289 C1288 1.391 . S
C1289 C1293 1.376 . S
C1290 C1288 1.394 . S
C1290 C1291 1.369 . S
C1290 C1294 1.531 . S
C1291 C1290 1.369 . S
C1291 C1292 1.410 . S
C1291 C1299 1.503 . S
C1292 C1291 1.410 . S
C1292 C1293 1.392 . S
C1292 C1295 1.511 . S
C1293 C1289 1.376 . S
C1293 C1292 1.392 . S
C1293 H1305 0.929 . S
C1294 C1290 1.531 . S
C1294 H1306 0.960 . S
C1294 H1307 0.962 . S
C1294 H1308 0.960 . S
C1295 C1292 1.511 . S
C1295 H1309 0.961 . S
C1295 H1310 0.961 . S
C1295 H1311 0.961 . S
C1296 C1297 1.370 . S
C1296 C1298 1.363 . S
C1296 H1312 0.931 . S
C1297 C1296 1.370 . S
C1297 C1301 1.408 . S
C1298 C1296 1.363 . S
C1298 C1299 1.370 . S
C1298 C1302 1.524 . S
C1299 C1291 1.503 . S
C1299 C1298 1.370 . S
C1299 C1300 1.403 . S
C1300 C1299 1.403 . S
C1300 C1301 1.404 . S
C1300 C1303 1.539 . S
C1301 C1297 1.408 . S
C1301 C1300 1.404 . S
C1301 H1313 0.930 . S
C1302 C1298 1.524 . S
C1302 H1314 0.956 . S
C1302 H1315 0.961 . S
C1302 H1316 0.961 . S
C1303 C1300 1.539 . S
C1303 H1317 0.958 . S
C1303 H1318 0.961 . S
C1303 H1319 0.960 . S
H1304 C1288 0.931 . S
H1305 C1293 0.929 . S
H1306 C1294 0.960 . S
H1307 C1294 0.962 . S
H1308 C1294 0.960 . S
H1309 C1295 0.961 . S
H1310 C1295 0.961 . S
H1311 C1295 0.961 . S
H1312 C1296 0.931 . S
H1313 C1301 0.930 . S
H1314 C1302 0.956 . S
H1315 C1302 0.961 . S
H1316 C1302 0.961 . S
H1317 C1303 0.958 . S
H1318 C1303 0.961 . S
H1319 C1303 0.960 . S
C1320 C1321 1.391 . S
C1320 C1322 1.394 . S
C1320 H1336 0.931 . S
C1321 C1320 1.391 . S
C1321 C1325 1.376 . S
C1322 C1320 1.394 . S
C1322 C1323 1.369 . S
C1322 C1326 1.531 . S
C1323 C1322 1.369 . S
C1323 C1324 1.410 . S
C1323 C1331 1.503 . S
C1324 C1323 1.410 . S
C1324 C1325 1.392 . S
C1324 C1327 1.511 . S
C1325 C1321 1.376 . S
C1325 C1324 1.392 . S
C1325 H1337 0.929 . S
C1326 C1322 1.531 . S
C1326 H1338 0.960 . S
C1326 H1339 0.962 . S
C1326 H1340 0.960 . S
C1327 C1324 1.511 . S
C1327 H1341 0.961 . S
C1327 H1342 0.961 . S
C1327 H1343 0.961 . S
C1328 C1329 1.370 . S
C1328 C1330 1.363 1_655 S
C1328 H1344 0.931 . S
C1329 C1328 1.370 . S
C1329 C1333 1.408 . S
C1330 C1328 1.363 1_455 S
C1330 C1331 1.370 . S
C1330 C1334 1.524 . S
C1331 C1323 1.503 . S
C1331 C1330 1.370 . S
C1331 C1332 1.403 1_455 S
C1332 C1331 1.403 1_655 S
C1332 C1333 1.404 . S
C1332 C1335 1.539 . S
C1333 C1329 1.408 . S
C1333 C1332 1.404 . S
C1333 H1345 0.930 . S
C1334 C1330 1.524 . S
C1334 H1346 0.956 . S
C1334 H1347 0.961 . S
C1334 H1348 0.961 . S
C1335 C1332 1.539 . S
C1335 H1349 0.958 1_655 S
C1335 H1350 0.961 . S
C1335 H1351 0.960 1_655 S
H1336 C1320 0.931 . S
H1337 C1325 0.929 . S
H1338 C1326 0.960 . S
H1339 C1326 0.962 . S
H1340 C1326 0.960 . S
H1341 C1327 0.961 . S
H1342 C1327 0.961 . S
H1343 C1327 0.961 . S
H1344 C1328 0.931 . S
H1345 C1333 0.930 . S
H1346 C1334 0.956 . S
H1347 C1334 0.961 . S
H1348 C1334 0.961 . S
H1349 C1335 0.958 1_455 S
H1350 C1335 0.961 . S
H1351 C1335 0.960 1_455 S
C1352 C1353 1.391 . S
C1352 C1354 1.394 . S
C1352 H1368 0.931 . S
C1353 C1352 1.391 . S
C1353 C1357 1.376 . S
C1354 C1352 1.394 . S
C1354 C1355 1.369 . S
C1354 C1358 1.531 . S
C1355 C1354 1.369 . S
C1355 C1356 1.410 . S
C1355 C1363 1.503 . S
C1356 C1355 1.410 . S
C1356 C1357 1.392 . S
C1356 C1359 1.511 . S
C1357 C1353 1.376 . S
C1357 C1356 1.392 . S
C1357 H1369 0.929 . S
C1358 C1354 1.531 . S
C1358 H1370 0.960 . S
C1358 H1371 0.962 . S
C1358 H1372 0.960 . S
C1359 C1356 1.511 . S
C1359 H1373 0.961 . S
C1359 H1374 0.961 . S
C1359 H1375 0.961 . S
C1360 C1361 1.370 . S
C1360 C1362 1.363 . S
C1360 H1376 0.931 . S
C1361 C1360 1.370 . S
C1361 C1365 1.408 . S
C1362 C1360 1.363 . S
C1362 C1363 1.370 . S
C1362 C1366 1.524 . S
C1363 C1355 1.503 . S
C1363 C1362 1.370 . S
C1363 C1364 1.403 . S
C1364 C1363 1.403 . S
C1364 C1365 1.404 . S
C1364 C1367 1.539 . S
C1365 C1361 1.408 . S
C1365 C1364 1.404 . S
C1365 H1377 0.930 . S
C1366 C1362 1.524 . S
C1366 H1378 0.956 . S
C1366 H1379 0.961 . S
C1366 H1380 0.961 . S
C1367 C1364 1.539 . S
C1367 H1381 0.958 . S
C1367 H1382 0.961 . S
C1367 H1383 0.960 . S
H1368 C1352 0.931 . S
H1369 C1357 0.929 . S
H1370 C1358 0.960 . S
H1371 C1358 0.962 . S
H1372 C1358 0.960 . S
H1373 C1359 0.961 . S
H1374 C1359 0.961 . S
H1375 C1359 0.961 . S
H1376 C1360 0.931 . S
H1377 C1365 0.930 . S
H1378 C1366 0.956 . S
H1379 C1366 0.961 . S
H1380 C1366 0.961 . S
H1381 C1367 0.958 . S
H1382 C1367 0.961 . S
H1383 C1367 0.960 . S
C1384 C1385 1.391 . S
C1384 C1386 1.394 . S
C1384 H1400 0.931 . S
C1385 C1384 1.391 . S
C1385 C1389 1.376 . S
C1386 C1384 1.394 . S
C1386 C1387 1.369 . S
C1386 C1390 1.531 . S
C1387 C1386 1.369 . S
C1387 C1388 1.410 . S
C1387 C1395 1.503 . S
C1388 C1387 1.410 . S
C1388 C1389 1.392 . S
C1388 C1391 1.511 . S
C1389 C1385 1.376 . S
C1389 C1388 1.392 . S
C1389 H1401 0.929 . S
C1390 C1386 1.531 . S
C1390 H1402 0.960 . S
C1390 H1403 0.962 . S
C1390 H1404 0.960 . S
C1391 C1388 1.511 . S
C1391 H1405 0.961 . S
C1391 H1406 0.961 . S
C1391 H1407 0.961 . S
C1392 C1393 1.370 . S
C1392 C1394 1.363 . S
C1392 H1408 0.931 . S
C1393 C1392 1.370 . S
C1393 C1397 1.408 . S
C1394 C1392 1.363 . S
C1394 C1395 1.370 . S
C1394 C1398 1.524 . S
C1395 C1387 1.503 . S
C1395 C1394 1.370 . S
C1395 C1396 1.403 . S
C1396 C1395 1.403 . S
C1396 C1397 1.404 . S
C1396 C1399 1.539 . S
C1397 C1393 1.408 . S
C1397 C1396 1.404 . S
C1397 H1409 0.930 . S
C1398 C1394 1.524 . S
C1398 H1410 0.956 . S
C1398 H1411 0.961 . S
C1398 H1412 0.961 . S
C1399 C1396 1.539 . S
C1399 H1413 0.958 . S
C1399 H1414 0.961 . S
C1399 H1415 0.960 . S
H1400 C1384 0.931 . S
H1401 C1389 0.929 . S
H1402 C1390 0.960 . S
H1403 C1390 0.962 . S
H1404 C1390 0.960 . S
H1405 C1391 0.961 . S
H1406 C1391 0.961 . S
H1407 C1391 0.961 . S
H1408 C1392 0.931 . S
H1409 C1397 0.930 . S
H1410 C1398 0.956 . S
H1411 C1398 0.961 . S
H1412 C1398 0.961 . S
H1413 C1399 0.958 . S
H1414 C1399 0.961 . S
H1415 C1399 0.960 . S
C1416 C1417 1.391 . S
C1416 C1418 1.394 . S
C1416 H1432 0.931 . S
C1417 C1416 1.391 . S
C1417 C1421 1.376 . S
C1418 C1416 1.394 . S
C1418 C1419 1.369 . S
C1418 C1422 1.531 . S
C1419 C1418 1.369 . S
C1419 C1420 1.410 . S
C1419 C1427 1.503 . S
C1420 C1419 1.410 . S
C1420 C1421 1.392 . S
C1420 C1423 1.511 . S
C1421 C1417 1.376 . S
C1421 C1420 1.392 . S
C1421 H1433 0.929 . S
C1422 C1418 1.531 . S
C1422 H1434 0.960 . S
C1422 H1435 0.962 . S
C1422 H1436 0.960 . S
C1423 C1420 1.511 . S
C1423 H1437 0.961 . S
C1423 H1438 0.961 . S
C1423 H1439 0.961 . S
C1424 C1425 1.370 . S
C1424 C1426 1.363 . S
C1424 H1440 0.931 . S
C1425 C1424 1.370 . S
C1425 C1429 1.408 . S
C1426 C1424 1.363 . S
C1426 C1427 1.370 . S
C1426 C1430 1.524 . S
C1427 C1419 1.503 . S
C1427 C1426 1.370 . S
C1427 C1428 1.403 . S
C1428 C1427 1.403 . S
C1428 C1429 1.404 . S
C1428 C1431 1.539 . S
C1429 C1425 1.408 . S
C1429 C1428 1.404 . S
C1429 H1441 0.930 . S
C1430 C1426 1.524 . S
C1430 H1442 0.956 . S
C1430 H1443 0.961 . S
C1430 H1444 0.961 . S
C1431 C1428 1.539 . S
C1431 H1445 0.958 . S
C1431 H1446 0.961 . S
C1431 H1447 0.960 . S
H1432 C1416 0.931 . S
H1433 C1421 0.929 . S
H1434 C1422 0.960 . S
H1435 C1422 0.962 . S
H1436 C1422 0.960 . S
H1437 C1423 0.961 . S
H1438 C1423 0.961 . S
H1439 C1423 0.961 . S
H1440 C1424 0.931 . S
H1441 C1429 0.930 . S
H1442 C1430 0.956 . S
H1443 C1430 0.961 . S
H1444 C1430 0.961 . S
H1445 C1431 0.958 . S
H1446 C1431 0.961 . S
H1447 C1431 0.960 . S
C1448 C1449 1.391 . S
C1448 C1450 1.394 . S
C1448 H1464 0.931 . S
C1449 C1448 1.391 . S
C1449 C1453 1.376 . S
C1450 C1448 1.394 . S
C1450 C1451 1.369 . S
C1450 C1454 1.531 . S
C1451 C1450 1.369 . S
C1451 C1452 1.410 . S
C1451 C1459 1.503 . S
C1452 C1451 1.410 . S
C1452 C1453 1.392 . S
C1452 C1455 1.511 . S
C1453 C1449 1.376 . S
C1453 C1452 1.392 . S
C1453 H1465 0.929 . S
C1454 C1450 1.531 . S
C1454 H1466 0.960 . S
C1454 H1467 0.962 . S
C1454 H1468 0.960 . S
C1455 C1452 1.511 . S
C1455 H1469 0.961 . S
C1455 H1470 0.961 . S
C1455 H1471 0.961 . S
C1456 C1457 1.370 . S
C1456 C1458 1.363 . S
C1456 H1472 0.931 . S
C1457 C1456 1.370 . S
C1457 C1461 1.408 . S
C1458 C1456 1.363 . S
C1458 C1459 1.370 . S
C1458 C1462 1.524 . S
C1459 C1451 1.503 . S
C1459 C1458 1.370 . S
C1459 C1460 1.403 . S
C1460 C1459 1.403 . S
C1460 C1461 1.404 . S
C1460 C1463 1.539 . S
C1461 C1457 1.408 . S
C1461 C1460 1.404 . S
C1461 H1473 0.930 . S
C1462 C1458 1.524 . S
C1462 H1474 0.956 . S
C1462 H1475 0.961 . S
C1462 H1476 0.961 . S
C1463 C1460 1.539 . S
C1463 H1477 0.958 . S
C1463 H1478 0.961 . S
C1463 H1479 0.960 . S
H1464 C1448 0.931 . S
H1465 C1453 0.929 . S
H1466 C1454 0.960 . S
H1467 C1454 0.962 . S
H1468 C1454 0.960 . S
H1469 C1455 0.961 . S
H1470 C1455 0.961 . S
H1471 C1455 0.961 . S
H1472 C1456 0.931 . S
H1473 C1461 0.930 . S
H1474 C1462 0.956 . S
H1475 C1462 0.961 . S
H1476 C1462 0.961 . S
H1477 C1463 0.958 . S
H1478 C1463 0.961 . S
H1479 C1463 0.960 . S
C1480 C1481 1.391 . S
C1480 C1482 1.394 . S
C1480 H1496 0.931 . S
C1481 C1480 1.391 . S
C1481 C1485 1.376 1_565 S
C1482 C1480 1.394 . S
C1482 C1483 1.369 1_565 S
C1482 C1486 1.531 . S
C1483 C1482 1.369 1_545 S
C1483 C1484 1.410 . S
C1483 C1491 1.503 . S
C1484 C1483 1.410 . S
C1484 C1485 1.392 . S
C1484 C1487 1.511 . S
C1485 C1481 1.376 1_545 S
C1485 C1484 1.392 . S
C1485 H1497 0.929 . S
C1486 C1482 1.531 . S
C1486 H1498 0.960 1_665 S
C1486 H1499 0.962 1_655 S
C1486 H1500 0.960 . S
C1487 C1484 1.511 . S
C1487 H1501 0.961 . S
C1487 H1502 0.961 . S
C1487 H1503 0.961 . S
C1488 C1489 1.370 . S
C1488 C1490 1.363 1_455 S
C1488 H1504 0.931 . S
C1489 C1488 1.370 . S
C1489 C1493 1.408 . S
C1490 C1488 1.363 1_655 S
C1490 C1491 1.370 . S
C1490 C1494 1.524 . S
C1491 C1483 1.503 . S
C1491 C1490 1.370 . S
C1491 C1492 1.403 . S
C1492 C1491 1.403 . S
C1492 C1493 1.404 1_655 S
C1492 C1495 1.539 . S
C1493 C1489 1.408 . S
C1493 C1492 1.404 1_455 S
C1493 H1505 0.930 . S
C1494 C1490 1.524 . S
C1494 H1506 0.956 . S
C1494 H1507 0.961 . S
C1494 H1508 0.961 . S
C1495 C1492 1.539 . S
C1495 H1509 0.958 . S
C1495 H1510 0.961 . S
C1495 H1511 0.960 . S
H1496 C1480 0.931 . S
H1497 C1485 0.929 . S
H1498 C1486 0.960 1_445 S
H1499 C1486 0.962 1_455 S
H1500 C1486 0.960 . S
H1501 C1487 0.961 . S
H1502 C1487 0.961 . S
H1503 C1487 0.961 . S
H1504 C1488 0.931 . S
H1505 C1493 0.930 . S
H1506 C1494 0.956 . S
H1507 C1494 0.961 . S
H1508 C1494 0.961 . S
H1509 C1495 0.958 . S
H1510 C1495 0.961 . S
H1511 C1495 0.960 . S
C361 N6 1.252 . S
C369 N336 1.263 . S
C393 C271 2.129 1_565 S
C401 C31 2.161 1_655 S
C425 N66 1.851 . S
C433 C241 1.943 . S
C457 C91 2.123 . S
C465 C301 2.140 . S
C489 N126 0.993 . S
C497 N306 1.017 . S
C521 N156 1.488 . S
C529 C331 1.549 . S
C553 N276 1.553 . S
C561 C181 1.693 1_556 S
C585 N216 0.694 . S
C593 N246 0.691 . S
C617 N96 1.461 . S
C625 C121 1.517 . S
C649 C1 2.274 . S
C657 C151 2.328 . S
C681 N36 0.696 . S
C689 N186 0.679 1_455 S
C713 C211 2.196 . S
C721 C61 2.219 1_554 S
C745 C16 1.082 . S
C753 C250 1.087 . S
C777 C57 1.390 . S
C785 C310 1.366 . S
C809 N344 0.789 . S
C817 C76 0.837 . S
C841 C117 1.679 . S
C849 C280 1.703 . S
C873 C136 0.839 . S
C881 N284 0.832 . S
C905 N254 0.884 . S
C913 C166 0.889 1_455 S
C937 N314 1.056 . S
C945 C207 1.050 . S
C969 C340 1.078 . S
C977 C226 1.128 . S
C1001 C10 1.561 . S
C1009 C106 1.550 . S
C1033 C27 0.938 . S
C1041 N44 0.912 . S
C1065 C46 1.642 . S
C1073 C70 1.625 . S
C1097 N104 1.150 . S
C1105 C87 1.101 1_554 S
C1129 C177 1.200 . S
C1137 C130 1.171 . S
C1161 C160 1.564 . S
C1169 C196 1.593 . S
C1193 N194 0.854 . S
C1201 C237 0.855 . S
C1225 C147 1.097 . S
C1233 C220 1.108 . S
C1257 C256 1.378 . S
C1265 C100 1.360 . S
C1289 N164 1.312 . S
C1297 C297 1.313 . S
C1321 C267 0.977 . S
C1329 C190 0.994 . S
C1353 C327 1.076 . S
C1361 N224 1.097 . S
C1385 N134 0.472 . S
C1393 C346 0.458 . S
C1417 C357 0.862 . S
C1425 C40 0.818 . S
C1449 N74 1.140 . S
C1457 C286 1.159 . S
C1481 C316 1.128 . S
C1489 N14 1.117 . S
