# Generated by pormake.
# Topology ecv, (8)-cn, num edge types: 1
# Building blocks:
#     Node 0, Type 0, BuildingBlock: TAGTUT_clean_sbu_3, # of connection points: 8
#     Node 1, Type 0, BuildingBlock: TAGTUT_clean_sbu_3, # of connection points: 8
#     Node 2, Type 0, BuildingBlock: TAGTUT_clean_sbu_3, # of connection points: 8
#     Node 3, Type 0, BuildingBlock: TAGTUT_clean_sbu_3, # of connection points: 8
#     Node 4, Type 0, BuildingBlock: TAGTUT_clean_sbu_3, # of connection points: 8
#     Node 5, Type 0, BuildingBlock: TAGTUT_clean_sbu_3, # of connection points: 8
#     Node 6, Type 0, BuildingBlock: TAGTUT_clean_sbu_3, # of connection points: 8
#     Node 7, Type 0, BuildingBlock: TAGTUT_clean_sbu_3, # of connection points: 8
#     Node 8, Type 0, BuildingBlock: TAGTUT_clean_sbu_3, # of connection points: 8
#     Node 9, Type 0, BuildingBlock: TAGTUT_clean_sbu_3, # of connection points: 8
#     Node 10, Type 0, BuildingBlock: TAGTUT_clean_sbu_3, # of connection points: 8
#     Node 11, Type 0, BuildingBlock: TAGTUT_clean_sbu_3, # of connection points: 8
#     Node 12, Type 0, BuildingBlock: TAGTUT_clean_sbu_3, # of connection points: 8
#     Node 13, Type 0, BuildingBlock: TAGTUT_clean_sbu_3, # of connection points: 8
#     Node 14, Type 0, BuildingBlock: TAGTUT_clean_sbu_3, # of connection points: 8
#     Node 15, Type 0, BuildingBlock: TAGTUT_clean_sbu_3, # of connection points: 8
#     Edge 16, Type (0, 0), BuildingBlock: AJUNOK_clean_linker_0, # of connection points: 2
#     Edge 17, Type (0, 0), BuildingBlock: AJUNOK_clean_linker_0, # of connection points: 2
#     Edge 18, Type (0, 0), BuildingBlock: AJUNOK_clean_linker_0, # of connection points: 2
#     Edge 19, Type (0, 0), BuildingBlock: AJUNOK_clean_linker_0, # of connection points: 2
#     Edge 20, Type (0, 0), BuildingBlock: AJUNOK_clean_linker_0, # of connection points: 2
#     Edge 21, Type (0, 0), BuildingBlock: AJUNOK_clean_linker_0, # of connection points: 2
#     Edge 22, Type (0, 0), BuildingBlock: AJUNOK_clean_linker_0, # of connection points: 2
#     Edge 23, Type (0, 0), BuildingBlock: AJUNOK_clean_linker_0, # of connection points: 2
#     Edge 24, Type (0, 0), BuildingBlock: AJUNOK_clean_linker_0, # of connection points: 2
#     Edge 25, Type (0, 0), BuildingBlock: AJUNOK_clean_linker_0, # of connection points: 2
#     Edge 26, Type (0, 0), BuildingBlock: AJUNOK_clean_linker_0, # of connection points: 2
#     Edge 27, Type (0, 0), BuildingBlock: AJUNOK_clean_linker_0, # of connection points: 2
#     Edge 28, Type (0, 0), BuildingBlock: AJUNOK_clean_linker_0, # of connection points: 2
#     Edge 29, Type (0, 0), BuildingBlock: AJUNOK_clean_linker_0, # of connection points: 2
#     Edge 30, Type (0, 0), BuildingBlock: AJUNOK_clean_linker_0, # of connection points: 2
#     Edge 31, Type (0, 0), BuildingBlock: AJUNOK_clean_linker_0, # of connection points: 2
#     Edge 32, Type (0, 0), BuildingBlock: AJUNOK_clean_linker_0, # of connection points: 2
#     Edge 33, Type (0, 0), BuildingBlock: AJUNOK_clean_linker_0, # of connection points: 2
#     Edge 34, Type (0, 0), BuildingBlock: AJUNOK_clean_linker_0, # of connection points: 2
#     Edge 35, Type (0, 0), BuildingBlock: AJUNOK_clean_linker_0, # of connection points: 2
#     Edge 36, Type (0, 0), BuildingBlock: AJUNOK_clean_linker_0, # of connection points: 2
#     Edge 37, Type (0, 0), BuildingBlock: AJUNOK_clean_linker_0, # of connection points: 2
#     Edge 38, Type (0, 0), BuildingBlock: AJUNOK_clean_linker_0, # of connection points: 2
#     Edge 39, Type (0, 0), BuildingBlock: AJUNOK_clean_linker_0, # of connection points: 2
#     Edge 40, Type (0, 0), BuildingBlock: AJUNOK_clean_linker_0, # of connection points: 2
#     Edge 41, Type (0, 0), BuildingBlock: AJUNOK_clean_linker_0, # of connection points: 2
#     Edge 42, Type (0, 0), BuildingBlock: AJUNOK_clean_linker_0, # of connection points: 2
#     Edge 43, Type (0, 0), BuildingBlock: AJUNOK_clean_linker_0, # of connection points: 2
#     Edge 44, Type (0, 0), BuildingBlock: AJUNOK_clean_linker_0, # of connection points: 2
#     Edge 45, Type (0, 0), BuildingBlock: AJUNOK_clean_linker_0, # of connection points: 2
#     Edge 46, Type (0, 0), BuildingBlock: AJUNOK_clean_linker_0, # of connection points: 2
#     Edge 47, Type (0, 0), BuildingBlock: AJUNOK_clean_linker_0, # of connection points: 2
#     Edge 48, Type (0, 0), BuildingBlock: AJUNOK_clean_linker_0, # of connection points: 2
#     Edge 49, Type (0, 0), BuildingBlock: AJUNOK_clean_linker_0, # of connection points: 2
#     Edge 50, Type (0, 0), BuildingBlock: AJUNOK_clean_linker_0, # of connection points: 2
#     Edge 51, Type (0, 0), BuildingBlock: AJUNOK_clean_linker_0, # of connection points: 2
#     Edge 52, Type (0, 0), BuildingBlock: AJUNOK_clean_linker_0, # of connection points: 2
#     Edge 53, Type (0, 0), BuildingBlock: AJUNOK_clean_linker_0, # of connection points: 2
#     Edge 54, Type (0, 0), BuildingBlock: AJUNOK_clean_linker_0, # of connection points: 2
#     Edge 55, Type (0, 0), BuildingBlock: AJUNOK_clean_linker_0, # of connection points: 2
#     Edge 56, Type (0, 0), BuildingBlock: AJUNOK_clean_linker_0, # of connection points: 2
#     Edge 57, Type (0, 0), BuildingBlock: AJUNOK_clean_linker_0, # of connection points: 2
#     Edge 58, Type (0, 0), BuildingBlock: AJUNOK_clean_linker_0, # of connection points: 2
#     Edge 59, Type (0, 0), BuildingBlock: AJUNOK_clean_linker_0, # of connection points: 2
#     Edge 60, Type (0, 0), BuildingBlock: AJUNOK_clean_linker_0, # of connection points: 2
#     Edge 61, Type (0, 0), BuildingBlock: AJUNOK_clean_linker_0, # of connection points: 2
#     Edge 62, Type (0, 0), BuildingBlock: AJUNOK_clean_linker_0, # of connection points: 2
#     Edge 63, Type (0, 0), BuildingBlock: AJUNOK_clean_linker_0, # of connection points: 2
#     Edge 64, Type (0, 0), BuildingBlock: AJUNOK_clean_linker_0, # of connection points: 2
#     Edge 65, Type (0, 0), BuildingBlock: AJUNOK_clean_linker_0, # of connection points: 2
#     Edge 66, Type (0, 0), BuildingBlock: AJUNOK_clean_linker_0, # of connection points: 2
#     Edge 67, Type (0, 0), BuildingBlock: AJUNOK_clean_linker_0, # of connection points: 2
#     Edge 68, Type (0, 0), BuildingBlock: AJUNOK_clean_linker_0, # of connection points: 2
#     Edge 69, Type (0, 0), BuildingBlock: AJUNOK_clean_linker_0, # of connection points: 2
#     Edge 70, Type (0, 0), BuildingBlock: AJUNOK_clean_linker_0, # of connection points: 2
#     Edge 71, Type (0, 0), BuildingBlock: AJUNOK_clean_linker_0, # of connection points: 2
#     Edge 72, Type (0, 0), BuildingBlock: AJUNOK_clean_linker_0, # of connection points: 2
#     Edge 73, Type (0, 0), BuildingBlock: AJUNOK_clean_linker_0, # of connection points: 2
#     Edge 74, Type (0, 0), BuildingBlock: AJUNOK_clean_linker_0, # of connection points: 2
#     Edge 75, Type (0, 0), BuildingBlock: AJUNOK_clean_linker_0, # of connection points: 2
#     Edge 76, Type (0, 0), BuildingBlock: AJUNOK_clean_linker_0, # of connection points: 2
#     Edge 77, Type (0, 0), BuildingBlock: AJUNOK_clean_linker_0, # of connection points: 2
#     Edge 78, Type (0, 0), BuildingBlock: AJUNOK_clean_linker_0, # of connection points: 2
#     Edge 79, Type (0, 0), BuildingBlock: AJUNOK_clean_linker_0, # of connection points: 2
# Relax obj value: 0.131
# Max RMSD: 0.211
# Mean RMSD: 0.191
data_MOF--net-ecv--node1-TAGTUT_clean_sbu_3--edge1-AJUNOK_clean_linker_0
_symmetry_space_group_name_H-M    P1
_symmetry_Int_Tables_number       1
_symmetry_cell_setting            triclinic
loop_
_symmetry_equiv_pos_as_xyz
'x, y, z'
_cell_length_a     16.493667
_cell_length_b     18.053974
_cell_length_c     95.953143
_cell_angle_alpha  87.424723
_cell_angle_beta   90.119771
_cell_angle_gamma 89.89328
loop_
_atom_site_label
_atom_site_type_symbol
_atom_site_fract_x
_atom_site_fract_y
_atom_site_fract_z
_atom_type_partial_charge
C0 C 0.99603 0.0564 0.46509 0.0
C1 C 0.22812 0.23927 0.46594 0.0
C2 C 0.17765 0.27658 0.4252 0.0
Mg3 Mg 0.91771 0.9879 0.43672 0.0
Mg4 Mg 0.03459 0.93933 0.4098 0.0
O5 O 0.99981 0.01267 0.42223 0.0
Mg6 Mg 0.07432 0.06309 0.43428 0.0
O7 O 0.14295 0.12138 0.44697 0.0
Mg8 Mg 0.06163 0.20915 0.44913 0.0
Mg9 Mg 0.2395 0.15041 0.43841 0.0
C10 C 0.14672 0.06831 0.40153 0.0
O11 O 0.17951 0.97115 0.43611 0.0
O12 O 0.83775 0.96559 0.41747 0.0
O13 O 0.29128 0.04277 0.43498 0.0
O14 O 0.97768 0.87791 0.43724 0.0
O15 O 0.91954 0.93622 0.39975 0.0
O16 O 0.06658 0.8407 0.42179 0.0
O17 O 0.98126 0.16238 0.43289 0.0
O18 O 0.86432 0.10482 0.43568 0.0
C19 C 0.90394 0.16498 0.4341 0.0
C20 C 0.85027 0.95482 0.40449 0.0
O21 O 0.13136 0.09574 0.41329 0.0
O22 O 0.15105 0.24406 0.46489 0.0
O23 O 0.12414 0.00337 0.39841 0.0
O24 O 0.12439 0.29565 0.43387 0.0
O25 O 0.27288 0.20894 0.45683 0.0
O26 O 0.17691 0.21023 0.42218 0.0
O27 O 0.01021 0.0192 0.45425 0.0
O28 O 0.0057 0.12671 0.4648 0.0
C29 C 0.02831 0.83006 0.43319 0.0
C30 C 0.25771 0.97887 0.43561 0.0
C31 C 0.87288 0.08143 0.82966 0.0
C32 C 0.82087 0.28393 0.86067 0.0
C33 C 0.98572 0.41587 0.83239 0.0
Mg34 Mg 0.0342 0.03674 0.81627 0.0
Mg35 Mg 0.21407 0.09686 0.82719 0.0
O36 O 0.11486 0.12206 0.81863 0.0
Mg37 Mg 0.04363 0.18071 0.83037 0.0
O38 O 0.96742 0.22975 0.84201 0.0
Mg39 Mg 0.88578 0.25444 0.82755 0.0
Mg40 Mg 0.00239 0.303 0.85438 0.0
C41 C 0.22229 0.27226 0.83034 0.0
O42 O 0.10277 0.14329 0.85109 0.0
O43 O 0.13262 0.99176 0.8022 0.0
O44 O 0.0924 0.23881 0.86543 0.0
O45 O 0.08352 0.96323 0.83333 0.0
O46 O 0.25355 0.03355 0.80985 0.0
O47 O 0.18416 0.01861 0.8441 0.0
O48 O 0.98378 0.22672 0.80952 0.0
O49 O 0.98242 0.11589 0.79973 0.0
C50 C 0.98329 0.18674 0.79859 0.0
C51 C 0.21023 0.9957 0.80162 0.0
O52 O 0.14403 0.27405 0.82969 0.0
O53 O 0.80659 0.26999 0.84781 0.0
O54 O 0.26126 0.21027 0.83064 0.0
O55 O 0.9397 0.36456 0.82844 0.0
O56 O 0.89004 0.3058 0.86488 0.0
O57 O 0.0292 0.40551 0.84324 0.0
O58 O 0.94968 0.08478 0.83125 0.0
O59 O 0.83268 0.14058 0.82754 0.0
C60 C 0.13405 0.96509 0.84325 0.0
C61 C 0.1175 0.17411 0.86264 0.0
C62 C 0.04626 0.7534 0.56965 0.0
C63 C 0.02198 0.85475 0.6183 0.0
C64 C 0.7794 0.92676 0.60543 0.0
Mg65 Mg 0.96185 0.78589 0.53984 0.0
Mg66 Mg 0.89429 0.97832 0.53318 0.0
O67 O 0.89234 0.88517 0.54442 0.0
Mg68 Mg 0.9273 0.89616 0.56502 0.0
O69 O 0.9593 0.89354 0.58519 0.0
Mg70 Mg 0.90576 0.79882 0.59173 0.0
Mg71 Mg 0.95169 0.97386 0.59707 0.0
C72 C 0.81053 0.0468 0.55918 0.0
O73 O 0.02476 0.99555 0.56265 0.0
O74 O 0.85731 0.85466 0.53138 0.0
O75 O 0.01746 0.05275 0.58324 0.0
O76 O 0.04361 0.85908 0.52381 0.0
O77 O 0.82488 0.93712 0.51544 0.0
O78 O 0.02271 0.96969 0.53171 0.0
O79 O 0.83747 0.79873 0.57033 0.0
O80 O 0.86683 0.72266 0.55316 0.0
C81 C 0.82482 0.73877 0.56385 0.0
C82 C 0.83073 0.86858 0.51898 0.0
O83 O 0.82876 0.99026 0.56731 0.0
O84 O 0.98391 0.80447 0.61188 0.0
O85 O 0.83676 0.05376 0.54667 0.0
O86 O 0.80092 0.86203 0.60194 0.0
O87 O 0.0186 0.92352 0.61441 0.0
O88 O 0.82648 0.98266 0.60379 0.0
O89 O 0.02395 0.80733 0.5612 0.0
O90 O 0.01047 0.74179 0.58134 0.0
C91 C 0.04492 0.93005 0.52183 0.0
C92 C 0.04587 0.04787 0.57081 0.0
C93 C 0.83833 0.99923 0.20584 0.0
C94 C 0.88486 0.88406 0.25574 0.0
C95 C 0.07989 0.79591 0.24319 0.0
Mg96 Mg 0.91219 0.95249 0.17637 0.0
Mg97 Mg 0.9565 0.77835 0.16927 0.0
O98 O 0.96766 0.85574 0.18151 0.0
Mg99 Mg 0.94256 0.84654 0.2018 0.0
O100 O 0.91533 0.85002 0.22223 0.0
Mg101 Mg 0.98467 0.9387 0.22741 0.0
Mg102 Mg 0.92405 0.76565 0.23403 0.0
C103 C 0.05919 0.69927 0.19386 0.0
O104 O 0.8425 0.75133 0.20063 0.0
O105 O 0.98407 0.95321 0.15545 0.0
O106 O 0.85154 0.69363 0.22195 0.0
O107 O 0.80665 0.89236 0.16617 0.0
O108 O 0.01634 0.83428 0.15205 0.0
O109 O 0.83003 0.77186 0.1635 0.0
O110 O 0.04402 0.93533 0.20545 0.0
O111 O 0.0182 0.00857 0.18661 0.0
C112 C 0.05915 0.99377 0.1977 0.0
C113 C 0.01882 0.90336 0.1484 0.0
O114 O 0.03793 0.74866 0.20255 0.0
O115 O 0.91827 0.93404 0.24783 0.0
O116 O 0.02833 0.69684 0.18155 0.0
O117 O 0.07995 0.86633 0.24085 0.0
O118 O 0.87958 0.81581 0.25266 0.0
O119 O 0.05085 0.75694 0.23377 0.0
O120 O 0.85035 0.94347 0.19822 0.0
O121 O 0.88209 0.00791 0.21669 0.0
C122 C 0.78395 0.82884 0.16229 0.0
C123 C 0.82282 0.69817 0.20953 0.0
C124 C 0.9577 0.56916 0.96766 0.0
C125 C 0.17533 0.69004 0.98267 0.0
C126 C 0.25769 0.67956 0.9405 0.0
Mg127 Mg 0.89332 0.50835 0.93674 0.0
Mg128 Mg 0.01521 0.44588 0.91155 0.0
O129 O 0.9882 0.52023 0.92447 0.0
Mg130 Mg 0.05552 0.55197 0.93939 0.0
O131 O 0.1113 0.59082 0.95512 0.0
Mg132 Mg 0.06746 0.69292 0.95318 0.0
Mg133 Mg 0.20785 0.56659 0.96367 0.0
C134 C 0.16575 0.54816 0.91056 0.0
O135 O 0.13271 0.43881 0.94266 0.0
O136 O 0.83076 0.50924 0.91431 0.0
O137 O 0.22364 0.45146 0.95995 0.0
O138 O 0.94859 0.39281 0.93751 0.0
O139 O 0.92284 0.48409 0.89783 0.0
O140 O 0.9774 0.33614 0.91912 0.0
O141 O 0.98963 0.66829 0.93499 0.0
O142 O 0.8628 0.62838 0.93564 0.0
C143 C 0.9126 0.68204 0.93503 0.0
C144 C 0.8529 0.50677 0.90145 0.0
O145 O 0.14442 0.58003 0.92168 0.0
O146 O 0.132 0.71774 0.9728 0.0
O147 O 0.13246 0.48944 0.90617 0.0
O148 O 0.18836 0.71355 0.94014 0.0
O149 O 0.20558 0.62486 0.98248 0.0
O150 O 0.27433 0.62667 0.94919 0.0
O151 O 0.96626 0.52337 0.95766 0.0
O152 O 0.95976 0.63958 0.96496 0.0
C153 C 0.92573 0.34899 0.9285 0.0
C154 C 0.19215 0.4136 0.95035 0.0
C155 C 0.96417 0.56109 0.33311 0.0
C156 C 0.89687 0.73679 0.36658 0.0
C157 C 0.96065 0.89509 0.34048 0.0
Mg158 Mg 0.1202 0.55455 0.31324 0.0
Mg159 Mg 0.25441 0.68597 0.30337 0.0
O160 O 0.16433 0.65548 0.31345 0.0
Mg161 Mg 0.10469 0.69253 0.32905 0.0
O162 O 0.03388 0.72359 0.34358 0.0
Mg163 Mg 0.93844 0.73611 0.33133 0.0
Mg164 Mg 0.05887 0.79776 0.35656 0.0
C165 C 0.23688 0.83493 0.31878 0.0
O166 O 0.19252 0.66447 0.34767 0.0
O167 O 0.18433 0.53733 0.29257 0.0
O168 O 0.17849 0.75907 0.36226 0.0
O169 O 0.24563 0.53174 0.32505 0.0
O170 O 0.25107 0.63586 0.28358 0.0
O171 O 0.32965 0.61933 0.31549 0.0
O172 O 0.01506 0.72352 0.31077 0.0
O173 O 0.01141 0.60995 0.3022 0.0
C174 C 0.00524 0.68072 0.30039 0.0
C175 C 0.22491 0.56963 0.28276 0.0
O176 O 0.17763 0.80797 0.32625 0.0
O177 O 0.87434 0.73462 0.35368 0.0
O178 O 0.26944 0.79881 0.30904 0.0
O179 O 0.98425 0.85392 0.33106 0.0
O180 O 0.96772 0.75741 0.37014 0.0
O181 O 0.01193 0.90632 0.35005 0.0
O182 O 0.04178 0.57349 0.33259 0.0
O183 O 0.91449 0.61508 0.33216 0.0
C184 C 0.31578 0.56395 0.32378 0.0
C185 C 0.21223 0.69855 0.35873 0.0
C186 C 0.05572 0.29013 0.07318 0.0
C187 C 0.03008 0.38983 0.1209 0.0
C188 C 0.78306 0.45513 0.10947 0.0
Mg189 Mg 0.97462 0.33506 0.04327 0.0
Mg190 Mg 0.90252 0.50343 0.03497 0.0
O191 O 0.90482 0.42408 0.04804 0.0
Mg192 Mg 0.93567 0.43369 0.06839 0.0
O193 O 0.96263 0.42986 0.08865 0.0
Mg194 Mg 0.91177 0.33284 0.09491 0.0
Mg195 Mg 0.95155 0.50938 0.10046 0.0
C196 C 0.80964 0.57596 0.06018 0.0
O197 O 0.03115 0.53358 0.06671 0.0
O198 O 0.90405 0.32957 0.02317 0.0
O199 O 0.0158 0.59138 0.08708 0.0
O200 O 0.06336 0.40687 0.02836 0.0
O201 O 0.85601 0.44346 0.01721 0.0
O202 O 0.02917 0.51772 0.03415 0.0
O203 O 0.8449 0.3361 0.07327 0.0
O204 O 0.87629 0.26804 0.05522 0.0
C205 C 0.83313 0.27873 0.06603 0.0
C206 C 0.86584 0.37451 0.01483 0.0
O207 O 0.83533 0.52671 0.06937 0.0
O208 O 0.99105 0.33777 0.11512 0.0
O209 O 0.83127 0.57643 0.04734 0.0
O210 O 0.80637 0.39183 0.10554 0.0
O211 O 0.02257 0.45817 0.11691 0.0
O212 O 0.82733 0.51289 0.10778 0.0
O213 O 0.03726 0.34599 0.06496 0.0
O214 O 0.01671 0.27722 0.08449 0.0
C215 C 0.05853 0.47648 0.02511 0.0
C216 C 0.04813 0.58661 0.07495 0.0
C217 C 0.05628 0.47457 0.6918 0.0
C218 C 0.99889 0.3741 0.64297 0.0
C219 C 0.76436 0.3132 0.65931 0.0
Mg220 Mg 0.977 0.43478 0.72157 0.0
Mg221 Mg 0.89753 0.26984 0.73066 0.0
O222 O 0.90968 0.34472 0.71707 0.0
Mg223 Mg 0.93441 0.33312 0.69703 0.0
O224 O 0.95697 0.3361 0.67663 0.0
Mg225 Mg 0.90421 0.43329 0.67117 0.0
Mg226 Mg 0.93494 0.25677 0.66523 0.0
C227 C 0.80337 0.19492 0.70622 0.0
O228 O 0.02735 0.2317 0.69826 0.0
O229 O 0.90076 0.44676 0.74016 0.0
O230 O 0.00833 0.1776 0.67763 0.0
O231 O 0.05745 0.36217 0.7377 0.0
O232 O 0.84171 0.33786 0.74602 0.0
O233 O 0.02022 0.24608 0.73493 0.0
O234 O 0.84357 0.4311 0.69295 0.0
O235 O 0.88259 0.50573 0.7095 0.0
C236 C 0.83485 0.49085 0.69954 0.0
C237 C 0.85262 0.40724 0.74768 0.0
O238 O 0.82999 0.24266 0.69684 0.0
O239 O 0.97089 0.42691 0.65008 0.0
O240 O 0.82644 0.19406 0.71899 0.0
O241 O 0.79458 0.37582 0.6621 0.0
O242 O 0.99166 0.30575 0.64695 0.0
O243 O 0.80561 0.25341 0.66095 0.0
O244 O 0.03953 0.4189 0.70013 0.0
O245 O 0.01462 0.48731 0.6807 0.0
C246 C 0.05746 0.29352 0.74191 0.0
C247 C 0.0442 0.18096 0.68952 0.0
C248 C 0.49138 0.03132 0.96414 0.0
C249 C 0.72812 0.23274 0.96738 0.0
C250 C 0.65329 0.2765 0.92517 0.0
Mg251 Mg 0.4031 0.98565 0.93328 0.0
Mg252 Mg 0.51474 0.98245 0.90393 0.0
O253 O 0.48976 0.02392 0.92085 0.0
Mg254 Mg 0.56483 0.06416 0.93361 0.0
O255 O 0.6347 0.11197 0.94736 0.0
Mg256 Mg 0.55393 0.19441 0.95129 0.0
Mg257 Mg 0.73588 0.14204 0.94041 0.0
C258 C 0.63502 0.10897 0.9009 0.0
O259 O 0.66715 0.97213 0.93242 0.0
O260 O 0.31966 0.9995 0.91343 0.0
O261 O 0.78514 0.0321 0.9353 0.0
O262 O 0.44694 0.87122 0.92651 0.0
O263 O 0.40438 0.01079 0.89514 0.0
O264 O 0.51964 0.86742 0.90679 0.0
O265 O 0.46806 0.15747 0.9356 0.0
O266 O 0.3529 0.09693 0.93798 0.0
C267 C 0.39162 0.15719 0.93778 0.0
C268 C 0.33424 0.01624 0.90048 0.0
O269 O 0.62392 0.12307 0.91379 0.0
O270 O 0.65045 0.23389 0.96654 0.0
O271 O 0.60681 0.05143 0.89541 0.0
O272 O 0.60051 0.27599 0.93485 0.0
O273 O 0.77285 0.20015 0.95858 0.0
O274 O 0.70681 0.22528 0.92462 0.0
O275 O 0.50097 0.99954 0.95234 0.0
O276 O 0.50594 0.10065 0.9655 0.0
C277 C 0.48348 0.83557 0.91705 0.0
C278 C 0.74544 0.9722 0.93328 0.0
C279 C 0.51199 0.22688 0.30596 0.0
C280 C 0.7451 0.02216 0.30262 0.0
C281 C 0.68101 0.97862 0.34419 0.0
Mg282 Mg 0.42986 0.27781 0.33626 0.0
Mg283 Mg 0.53316 0.27833 0.36681 0.0
O284 O 0.51304 0.23768 0.34942 0.0
Mg285 Mg 0.58908 0.19668 0.33639 0.0
O286 O 0.65702 0.14682 0.32257 0.0
Mg287 Mg 0.5756 0.06483 0.31896 0.0
Mg288 Mg 0.75789 0.11406 0.32912 0.0
C289 C 0.65426 0.14731 0.36889 0.0
O290 O 0.69647 0.28755 0.33763 0.0
O291 O 0.34243 0.27657 0.35519 0.0
O292 O 0.81002 0.22224 0.33361 0.0
O293 O 0.48403 0.38818 0.34228 0.0
O294 O 0.41621 0.26074 0.37486 0.0
O295 O 0.5536 0.39194 0.36241 0.0
O296 O 0.49131 0.10418 0.33464 0.0
O297 O 0.37601 0.16535 0.33249 0.0
C298 C 0.41443 0.10441 0.33274 0.0
C299 C 0.34879 0.26143 0.36834 0.0
O300 O 0.64741 0.13771 0.35577 0.0
O301 O 0.66773 0.02399 0.30353 0.0
O302 O 0.62129 0.20111 0.375 0.0
O303 O 0.62605 0.98051 0.33483 0.0
O304 O 0.79188 0.0542 0.31117 0.0
O305 O 0.73204 0.03142 0.3451 0.0
O306 O 0.52528 0.25951 0.31755 0.0
O307 O 0.52575 0.1573 0.30479 0.0
C308 C 0.52509 0.42311 0.3513 0.0
C309 C 0.77471 0.28365 0.33621 0.0
C310 C 0.55854 0.78887 0.07444 0.0
C311 C 0.52101 0.87934 0.12397 0.0
C312 C 0.2815 0.95059 0.11016 0.0
Mg313 Mg 0.47119 0.83299 0.04543 0.0
Mg314 Mg 0.39433 1.00036 0.03713 0.0
O315 O 0.41296 0.9267 0.05074 0.0
Mg316 Mg 0.43871 0.93387 0.07086 0.0
O317 O 0.46555 0.92716 0.09115 0.0
Mg318 Mg 0.41297 0.82971 0.09626 0.0
Mg319 Mg 0.45323 0.00444 0.1036 0.0
C320 C 0.31529 0.0794 0.06266 0.0
O321 O 0.53347 0.0317 0.06972 0.0
O322 O 0.3852 0.82627 0.02782 0.0
O323 O 0.52491 0.08424 0.09069 0.0
O324 O 0.55386 0.89954 0.02881 0.0
O325 O 0.31946 0.9347 0.02417 0.0
O326 O 0.51295 0.01611 0.02906 0.0
O327 O 0.34446 0.83766 0.07501 0.0
O328 O 0.37736 0.76516 0.05783 0.0
C329 C 0.3323 0.7794 0.06812 0.0
C330 C 0.32941 0.86586 0.02205 0.0
O331 O 0.3385 0.0289 0.07186 0.0
O332 O 0.48715 0.83051 0.11661 0.0
O333 O 0.33636 0.07895 0.04983 0.0
O334 O 0.30885 0.88838 0.10647 0.0
O335 O 0.51573 0.9491 0.12098 0.0
O336 O 0.32473 0.00939 0.10908 0.0
O337 O 0.53972 0.84567 0.06657 0.0
O338 O 0.51939 0.77394 0.0857 0.0
C339 C 0.54353 0.96323 0.02247 0.0
C340 C 0.55501 0.08153 0.07832 0.0
C341 C 0.32329 0.98406 0.70129 0.0
C342 C 0.34212 0.87933 0.75165 0.0
C343 C 0.54522 0.79144 0.74506 0.0
Mg344 Mg 0.4088 0.93671 0.67258 0.0
Mg345 Mg 0.45674 0.76394 0.66588 0.0
O346 O 0.46469 0.84144 0.67838 0.0
Mg347 Mg 0.43444 0.83331 0.69867 0.0
O348 O 0.40124 0.83717 0.71887 0.0
Mg349 Mg 0.45995 0.92909 0.72488 0.0
Mg350 Mg 0.39547 0.75658 0.73167 0.0
C351 C 0.55334 0.68589 0.69164 0.0
O352 O 0.33698 0.73756 0.69678 0.0
O353 O 0.48748 0.93743 0.65227 0.0
O354 O 0.33148 0.68175 0.71837 0.0
O355 O 0.30726 0.87584 0.66139 0.0
O356 O 0.52057 0.81875 0.6487 0.0
O357 O 0.33174 0.7557 0.6589 0.0
O358 O 0.53079 0.9253 0.70352 0.0
O359 O 0.50921 0.99362 0.68387 0.0
C360 C 0.54605 0.98288 0.6955 0.0
C361 C 0.52359 0.88812 0.64526 0.0
O362 O 0.53289 0.7364 0.7002 0.0
O363 O 0.38141 0.92666 0.74403 0.0
O364 O 0.52416 0.68308 0.67921 0.0
O365 O 0.54589 0.86006 0.74081 0.0
O366 O 0.33736 0.81073 0.7488 0.0
O367 O 0.51957 0.7434 0.7368 0.0
O368 O 0.34019 0.92824 0.69393 0.0
O369 O 0.36166 0.99444 0.71262 0.0
C370 C 0.2858 0.81257 0.65724 0.0
C371 C 0.31095 0.68579 0.70543 0.0
C372 C 0.46785 0.72107 0.44167 0.0
C373 C 0.38639 0.5494 0.40398 0.0
C374 C 0.49133 0.379 0.43068 0.0
Mg375 Mg 0.61131 0.72312 0.46302 0.0
Mg376 Mg 0.78306 0.6136 0.45027 0.0
O377 O 0.67436 0.61486 0.45844 0.0
Mg378 Mg 0.60564 0.58692 0.44145 0.0
O379 O 0.53177 0.5677 0.42617 0.0
Mg380 Mg 0.43656 0.55136 0.43825 0.0
Mg381 Mg 0.55505 0.48993 0.41313 0.0
C382 C 0.74795 0.45633 0.43953 0.0
O383 O 0.68914 0.61972 0.42181 0.0
O384 O 0.70825 0.63917 0.47049 0.0
O385 O 0.66504 0.53583 0.40542 0.0
O386 O 0.7234 0.79256 0.45437 0.0
O387 O 0.83889 0.6289 0.4706 0.0
O388 O 0.72712 0.70655 0.43968 0.0
O389 O 0.51724 0.54297 0.45907 0.0
O390 O 0.50568 0.64828 0.47012 0.0
C391 C 0.51378 0.57793 0.47056 0.0
C392 C 0.77567 0.64959 0.47696 0.0
O393 O 0.67129 0.46898 0.44056 0.0
O394 O 0.37002 0.56375 0.4167 0.0
O395 O 0.7991 0.50789 0.44127 0.0
O396 O 0.47074 0.44307 0.43352 0.0
O397 O 0.4523 0.51829 0.40034 0.0
O398 O 0.5441 0.37414 0.4212 0.0
O399 O 0.54511 0.70725 0.44218 0.0
O400 O 0.41722 0.66898 0.44064 0.0
C401 C 0.76064 0.76138 0.44462 0.0
C402 C 0.70237 0.59232 0.4098 0.0
C403 C 0.39745 0.55753 0.83231 0.0
C404 C 0.35274 0.71465 0.86988 0.0
C405 C 0.41772 0.88388 0.8471 0.0
Mg406 Mg 0.54267 0.55064 0.8124 0.0
Mg407 Mg 0.71342 0.63761 0.81812 0.0
O408 O 0.60525 0.65085 0.81445 0.0
Mg409 Mg 0.54607 0.6833 0.83125 0.0
O410 O 0.48008 0.71082 0.84653 0.0
Mg411 Mg 0.38617 0.73413 0.83467 0.0
Mg412 Mg 0.5117 0.7798 0.86053 0.0
C413 C 0.70157 0.80009 0.82803 0.0
O414 O 0.62951 0.64806 0.85042 0.0
O415 O 0.6093 0.54617 0.79253 0.0
O416 O 0.62731 0.73565 0.86649 0.0
O417 O 0.6526 0.47609 0.82106 0.0
O418 O 0.73164 0.59398 0.79754 0.0
O419 O 0.68259 0.56242 0.83454 0.0
O420 O 0.46005 0.73181 0.81345 0.0
O421 O 0.44058 0.62454 0.80353 0.0
C422 C 0.45016 0.69465 0.80235 0.0
C423 C 0.68231 0.56215 0.78929 0.0
O424 O 0.62501 0.79201 0.8303 0.0
O425 O 0.32649 0.72096 0.85718 0.0
O426 O 0.74625 0.74717 0.82401 0.0
O427 O 0.44574 0.84538 0.83761 0.0
O428 O 0.42362 0.73403 0.87353 0.0
O429 O 0.46358 0.8914 0.85754 0.0
O430 O 0.47507 0.56662 0.83241 0.0
O431 O 0.35103 0.61395 0.83273 0.0
C432 C 0.7007 0.50127 0.83007 0.0
C433 C 0.65462 0.67518 0.86182 0.0
C434 C 0.55165 0.25374 0.57227 0.0
C435 C 0.4974 0.34978 0.62128 0.0
C436 C 0.26204 0.41321 0.60473 0.0
Mg437 Mg 0.4772 0.30272 0.54224 0.0
Mg438 Mg 0.41865 0.47538 0.53522 0.0
O439 O 0.40738 0.39179 0.54695 0.0
Mg440 Mg 0.43085 0.39791 0.56734 0.0
O441 O 0.45336 0.39089 0.58771 0.0
Mg442 Mg 0.40084 0.29307 0.59274 0.0
Mg443 Mg 0.43289 0.46945 0.59937 0.0
C444 C 0.30958 0.54386 0.55857 0.0
O445 O 0.52538 0.4976 0.56678 0.0
O446 O 0.41207 0.30485 0.52179 0.0
O447 O 0.50743 0.54995 0.58756 0.0
O448 O 0.57025 0.3753 0.52859 0.0
O449 O 0.37595 0.424 0.51686 0.0
O450 O 0.54532 0.4885 0.5347 0.0
O451 O 0.33935 0.29944 0.57062 0.0
O452 O 0.37477 0.23204 0.55269 0.0
C453 C 0.32856 0.24298 0.56311 0.0
C454 C 0.37973 0.3556 0.51388 0.0
O455 O 0.32852 0.49173 0.56776 0.0
O456 O 0.46898 0.29734 0.61407 0.0
O457 O 0.34231 0.54824 0.54648 0.0
O458 O 0.29211 0.35075 0.60179 0.0
O459 O 0.48965 0.41826 0.61742 0.0
O460 O 0.30361 0.47284 0.60347 0.0
O461 O 0.53343 0.31067 0.56435 0.0
O462 O 0.5108 0.23809 0.5833 0.0
C463 C 0.57802 0.4454 0.52627 0.0
C464 C 0.54308 0.54726 0.57567 0.0
C465 C 0.33821 0.50213 0.20534 0.0
C466 C 0.33939 0.35504 0.2448 0.0
C467 C 0.56054 0.31764 0.24825 0.0
Mg468 Mg 0.41484 0.45238 0.17658 0.0
Mg469 Mg 0.45863 0.27878 0.16902 0.0
O470 O 0.46769 0.35544 0.18167 0.0
Mg471 Mg 0.44348 0.34638 0.20205 0.0
O472 O 0.42198 0.3478 0.22288 0.0
Mg473 Mg 0.48116 0.45287 0.22818 0.0
Mg474 Mg 0.41978 0.24927 0.23342 0.0
C475 C 0.56105 0.19952 0.19396 0.0
O476 O 0.34386 0.2533 0.20019 0.0
O477 O 0.48951 0.45289 0.15608 0.0
O478 O 0.37321 0.17442 0.21831 0.0
O479 O 0.31227 0.39431 0.16561 0.0
O480 O 0.52222 0.33478 0.15197 0.0
O481 O 0.33247 0.27416 0.16215 0.0
O482 O 0.54011 0.43493 0.20628 0.0
O483 O 0.52047 0.50608 0.187 0.0
C484 C 0.55978 0.49105 0.19823 0.0
C485 C 0.52532 0.40446 0.14885 0.0
O486 O 0.53957 0.24887 0.20264 0.0
O487 O 0.38616 0.36874 0.23431 0.0
O488 O 0.53035 0.19736 0.18161 0.0
O489 O 0.5707 0.38414 0.24316 0.0
O490 O 0.32679 0.28678 0.24786 0.0
O491 O 0.54343 0.26559 0.2401 0.0
O492 O 0.34999 0.44403 0.19831 0.0
O493 O 0.38221 0.51471 0.21594 0.0
C494 C 0.28885 0.33279 0.16092 0.0
C495 C 0.33331 0.19114 0.20714 0.0
C496 C 0.32272 0.27281 0.41881 0.0
C497 C 0.26088 0.30365 0.42698 0.0
C498 C 0.40448 0.28288 0.42189 0.0
C499 C 0.42702 0.32457 0.4332 0.0
H500 H 0.30767 0.24082 0.40988 0.0
H501 H 0.44938 0.26523 0.4145 0.0
S502 S 0.29218 0.41766 0.45771 0.0
N503 N 0.23024 0.38164 0.44633 0.0
N504 N 0.38315 0.38702 0.45383 0.0
C505 C 0.3662 0.34649 0.44254 0.0
C506 C 0.28349 0.34337 0.43856 0.0
C507 C 0.96683 0.71776 0.43032 0.0
C508 C 0.0171 0.75508 0.4394 0.0
C509 C 0.88299 0.72715 0.43175 0.0
C510 C 0.84974 0.75778 0.44381 0.0
H511 H 0.98994 0.70129 0.42035 0.0
H512 H 0.84402 0.71291 0.42325 0.0
S513 S 0.96748 0.79041 0.47584 0.0
N514 N 0.03664 0.77037 0.46415 0.0
N515 N 0.87886 0.78837 0.46781 0.0
C516 C 0.90277 0.76795 0.45506 0.0
C517 C 0.98793 0.75762 0.45312 0.0
C518 C 0.19854 0.856 0.83812 0.0
C519 C 0.16087 0.89284 0.84889 0.0
C520 C 0.28257 0.85911 0.83731 0.0
C521 C 0.3293 0.87903 0.84893 0.0
H522 H 0.16562 0.84591 0.82859 0.0
H523 H 0.31031 0.84778 0.8274 0.0
S524 S 0.24291 0.88554 0.88447 0.0
N525 N 0.16373 0.89391 0.87398 0.0
N526 N 0.32428 0.88314 0.87439 0.0
C527 C 0.28821 0.88642 0.86167 0.0
C528 C 0.20216 0.89187 0.86155 0.0
C529 C 0.92152 0.52468 0.83868 0.0
C530 C 0.95938 0.49038 0.82765 0.0
C531 C 0.83714 0.52004 0.83981 0.0
C532 C 0.78929 0.49289 0.82888 0.0
H533 H 0.95613 0.53744 0.84787 0.0
H534 H 0.80909 0.53667 0.84936 0.0
S535 S 0.86817 0.4413 0.79455 0.0
N536 N 0.94919 0.46719 0.80317 0.0
N537 N 0.79033 0.45193 0.80507 0.0
C538 C 0.82858 0.47884 0.81628 0.0
C539 C 0.91454 0.48805 0.8152 0.0
C540 C 0.64233 0.61216 0.55924 0.0
C541 C 0.61287 0.59918 0.57287 0.0
C542 C 0.71079 0.6569 0.55652 0.0
C543 C 0.75306 0.69112 0.56731 0.0
H544 H 0.61239 0.58755 0.55055 0.0
H545 H 0.7303 0.66529 0.54579 0.0
S546 S 0.70718 0.66987 0.60504 0.0
N547 N 0.63595 0.6213 0.5975 0.0
N548 N 0.76319 0.70575 0.59221 0.0
C549 C 0.72489 0.6786 0.58099 0.0
C550 C 0.65541 0.63262 0.58381 0.0
C551 C 0.19089 0.07145 0.56357 0.0
C552 C 0.11399 0.09959 0.56695 0.0
C553 C 0.25987 0.1178 0.56256 0.0
C554 C 0.25533 0.19421 0.56506 0.0
H555 H 0.19846 0.01262 0.56219 0.0
H556 H 0.31766 0.09329 0.56 0.0
S557 S 0.06539 0.29764 0.57162 0.0
N558 N 0.03604 0.21028 0.57125 0.0
N559 N 0.16455 0.29706 0.56918 0.0
C560 C 0.17804 0.22345 0.56785 0.0
C561 C 0.10793 0.17631 0.56886 0.0
C562 C 0.71698 0.04247 0.19139 0.0
C563 C 0.76856 0.05155 0.20291 0.0
C564 C 0.64938 0.08907 0.1888 0.0
C565 C 0.62947 0.14694 0.19765 0.0
H566 H 0.72871 0.99889 0.18426 0.0
H567 H 0.61268 0.07962 0.17968 0.0
S568 S 0.74455 0.19527 0.22931 0.0
N569 N 0.79414 0.1239 0.22333 0.0
N570 N 0.66828 0.21066 0.21842 0.0
C571 C 0.68032 0.15648 0.20925 0.0
C572 C 0.74932 0.10925 0.21187 0.0
C573 C 0.14126 0.58367 0.18975 0.0
C574 C 0.12838 0.64781 0.19738 0.0
C575 C 0.20958 0.53763 0.19211 0.0
C576 C 0.26854 0.55387 0.20217 0.0
H577 H 0.09817 0.56875 0.18182 0.0
H578 H 0.21572 0.48865 0.18608 0.0
S579 S 0.2664 0.71804 0.2244 0.0
N580 N 0.1832 0.72677 0.21492 0.0
N581 N 0.30981 0.64097 0.21958 0.0
C582 C 0.25668 0.61847 0.20977 0.0
C583 C 0.18726 0.66506 0.20734 0.0
C584 C 0.3705 0.76701 0.90995 0.0
C585 C 0.45043 0.76271 0.91507 0.0
C586 C 0.30653 0.73954 0.91816 0.0
C587 C 0.32304 0.69921 0.93066 0.0
H588 H 0.35638 0.80507 0.90127 0.0
H589 H 0.24478 0.75289 0.91509 0.0
S590 S 0.52699 0.63331 0.9427 0.0
N591 N 0.54529 0.6918 0.92937 0.0
N592 N 0.42741 0.63049 0.94426 0.0
C593 C 0.40439 0.67749 0.93349 0.0
C594 C 0.46823 0.7094 0.92544 0.0
C595 C 0.73019 0.3441 0.90767 0.0
C596 C 0.67504 0.34918 0.9187 0.0
C597 C 0.8134 0.34151 0.91087 0.0
C598 C 0.83996 0.35711 0.92443 0.0
H599 H 0.70925 0.32608 0.8977 0.0
H600 H 0.85604 0.32625 0.90294 0.0
S601 S 0.70985 0.43601 0.95189 0.0
N602 N 0.6475 0.42065 0.93886 0.0
N603 N 0.79976 0.40768 0.94679 0.0
C604 C 0.78238 0.38644 0.93369 0.0
C605 C 0.70011 0.39322 0.92948 0.0
C606 C 0.43536 0.51718 0.35642 0.0
C607 C 0.51202 0.50249 0.35074 0.0
C608 C 0.36988 0.5312 0.34735 0.0
C609 C 0.3835 0.54494 0.33308 0.0
H610 H 0.42208 0.49919 0.3671 0.0
H611 H 0.30879 0.52934 0.35134 0.0
S612 S 0.58464 0.56369 0.31589 0.0
N613 N 0.60518 0.53578 0.33214 0.0
N614 N 0.48496 0.5719 0.315 0.0
C615 C 0.4643 0.55257 0.32838 0.0
C616 C 0.52932 0.53461 0.33762 0.0
C617 C 0.76354 0.90767 0.36059 0.0
C618 C 0.70853 0.90521 0.34949 0.0
C619 C 0.84696 0.90563 0.35774 0.0
C620 C 0.87418 0.88863 0.34431 0.0
H621 H 0.74282 0.92685 0.37045 0.0
H622 H 0.88949 0.91925 0.36582 0.0
S623 S 0.74353 0.8157 0.31634 0.0
N624 N 0.67981 0.83919 0.32863 0.0
N625 N 0.83458 0.83653 0.32212 0.0
C626 C 0.8162 0.8621 0.33485 0.0
C627 C 0.73266 0.86321 0.33834 0.0
C628 C 0.64619 0.18966 0.08362 0.0
C629 C 0.62322 0.13378 0.07452 0.0
C630 C 0.71409 0.23546 0.08094 0.0
C631 C 0.76296 0.2274 0.06908 0.0
H632 H 0.61181 0.19802 0.09302 0.0
H633 H 0.72834 0.27744 0.08828 0.0
S634 S 0.72922 0.09019 0.04174 0.0
N635 N 0.65533 0.07402 0.05301 0.0
N636 N 0.78194 0.15895 0.04796 0.0
C637 C 0.74039 0.17193 0.05983 0.0
C638 C 0.67101 0.12568 0.06253 0.0
C639 C 0.19452 0.60903 0.06896 0.0
C640 C 0.1172 0.638 0.07173 0.0
C641 C 0.26379 0.65478 0.0683 0.0
C642 C 0.2591 0.73149 0.07049 0.0
H643 H 0.20203 0.55006 0.06773 0.0
H644 H 0.32183 0.6297 0.0661 0.0
S645 S 0.0687 0.83669 0.07563 0.0
N646 N 0.03892 0.7494 0.07533 0.0
N647 N 0.16829 0.83538 0.07376 0.0
C648 C 0.18159 0.76152 0.07276 0.0
C649 C 0.11107 0.71485 0.07348 0.0
C650 C 0.69937 0.66307 0.69782 0.0
C651 C 0.62183 0.63444 0.69515 0.0
C652 C 0.76807 0.61654 0.69888 0.0
C653 C 0.76226 0.53952 0.69716 0.0
H654 H 0.70743 0.72223 0.69869 0.0
H655 H 0.82646 0.64122 0.70094 0.0
S656 S 0.57069 0.43571 0.69251 0.0
N657 N 0.542 0.52354 0.69222 0.0
N658 N 0.67027 0.43605 0.69446 0.0
C659 C 0.68445 0.50998 0.69501 0.0
C660 C 0.61461 0.55741 0.69391 0.0
C661 C 0.14341 0.115 0.70601 0.0
C662 C 0.11364 0.12844 0.69239 0.0
C663 C 0.211 0.06861 0.70869 0.0
C664 C 0.25231 0.03354 0.69788 0.0
H665 H 0.11429 0.14043 0.71471 0.0
H666 H 0.2306 0.05974 0.71942 0.0
S667 S 0.20566 0.05693 0.66016 0.0
N668 N 0.13561 0.10648 0.66775 0.0
N669 N 0.26155 0.0199 0.67295 0.0
C670 C 0.22414 0.04731 0.68421 0.0
C671 C 0.15537 0.09454 0.68143 0.0
C672 C 0.38826 0.91151 0.43032 0.0
C673 C 0.31353 0.91381 0.43754 0.0
C674 C 0.44439 0.85283 0.43272 0.0
C675 C 0.42921 0.79544 0.44278 0.0
H676 H 0.40234 0.95433 0.42243 0.0
H677 H 0.49734 0.85012 0.4261 0.0
S678 S 0.24863 0.78154 0.46595 0.0
N679 N 0.23152 0.85687 0.45598 0.0
N680 N 0.33715 0.74922 0.46095 0.0
C681 C 0.35719 0.80035 0.4507 0.0
C682 C 0.29932 0.85844 0.44795 0.0
C683 C 0.90264 0.30481 0.43226 0.0
C684 C 0.86039 0.23805 0.43483 0.0
C685 C 0.86462 0.37409 0.43331 0.0
C686 C 0.78206 0.38072 0.43703 0.0
H687 H 0.9661 0.30387 0.42945 0.0
H688 H 0.90125 0.42318 0.43135 0.0
S689 S 0.64187 0.22323 0.44428 0.0
N690 N 0.72907 0.18327 0.4407 0.0
N691 N 0.65877 0.31337 0.44295 0.0
C692 C 0.73821 0.31451 0.43928 0.0
C693 C 0.77695 0.2435 0.43814 0.0
C694 C 0.34845 0.34828 0.83582 0.0
C695 C 0.26905 0.34427 0.83024 0.0
C696 C 0.39172 0.41623 0.83599 0.0
C697 C 0.35761 0.48322 0.83055 0.0
H698 H 0.37686 0.29878 0.84039 0.0
H699 H 0.45113 0.4166 0.84082 0.0
S700 S 0.1574 0.50139 0.81272 0.0
N701 N 0.1627 0.41297 0.81778 0.0
N702 N 0.2425 0.53879 0.81805 0.0
C703 C 0.2799 0.479 0.82437 0.0
C704 C 0.23613 0.41036 0.82424 0.0
C705 C 0.70863 0.93777 0.8235 0.0
C706 C 0.74142 0.87255 0.82973 0.0
C707 C 0.75186 0.00487 0.82346 0.0
C708 C 0.82902 0.00939 0.8298 0.0
H709 H 0.65071 0.93636 0.81817 0.0
H710 H 0.72499 0.05334 0.81822 0.0
S711 S 0.93438 0.85647 0.84958 0.0
N712 N 0.85204 0.81765 0.84339 0.0
N713 N 0.93015 0.9444 0.84413 0.0
C714 C 0.85994 0.94526 0.83673 0.0
C715 C 0.81693 0.87676 0.83649 0.0
C716 C 0.62896 0.13472 0.57644 0.0
C717 C 0.62033 0.20361 0.56896 0.0
C718 C 0.69287 0.08582 0.57379 0.0
C719 C 0.75102 0.10355 0.56351 0.0
H720 H 0.58511 0.11747 0.58432 0.0
H721 H 0.69488 0.03269 0.5795 0.0
S722 S 0.76236 0.28041 0.54211 0.0
N723 N 0.67976 0.28908 0.55159 0.0
N724 N 0.80014 0.19811 0.54667 0.0
C725 C 0.74523 0.17363 0.55636 0.0
C726 C 0.67986 0.22323 0.55903 0.0
C727 C 0.20067 0.59553 0.5739 0.0
C728 C 0.24464 0.59962 0.56137 0.0
C729 C 0.13696 0.64512 0.57631 0.0
C730 C 0.11371 0.7014 0.56632 0.0
H731 H 0.21487 0.55327 0.5819 0.0
H732 H 0.1057 0.63888 0.58621 0.0
S733 S 0.20982 0.73756 0.53179 0.0
N734 N 0.26057 0.66637 0.5388 0.0
N735 N 0.14118 0.75848 0.54346 0.0
C736 C 0.15745 0.70664 0.5538 0.0
C737 C 0.22259 0.65624 0.5513 0.0
C738 C 0.63944 0.60771 0.19311 0.0
C739 C 0.62785 0.54205 0.20152 0.0
C740 C 0.70411 0.65632 0.19534 0.0
C741 C 0.76032 0.64183 0.20612 0.0
H742 H 0.59779 0.62243 0.18469 0.0
H743 H 0.7087 0.70654 0.18877 0.0
S744 S 0.76235 0.47468 0.2304 0.0
N745 N 0.68146 0.46355 0.22057 0.0
N746 N 0.80319 0.55389 0.22479 0.0
C747 C 0.75093 0.57528 0.21438 0.0
C748 C 0.68475 0.5259 0.21211 0.0
C749 C 0.26629 0.0656 0.2087 0.0
C750 C 0.2653 0.14049 0.20367 0.0
C751 C 0.1987 0.01885 0.20728 0.0
C752 C 0.12709 0.04507 0.20078 0.0
H753 H 0.31979 0.04286 0.21389 0.0
H754 H 0.2032 0.96151 0.21104 0.0
S755 S 0.08917 0.23813 0.18716 0.0
N756 N 0.18396 0.23917 0.19269 0.0
N757 N 0.05737 0.15228 0.19013 0.0
C758 C 0.12474 0.12009 0.19594 0.0
C759 C 0.19361 0.16739 0.1973 0.0
C760 C 0.2848 0.30739 0.95736 0.0
C761 C 0.23624 0.3439 0.94699 0.0
C762 C 0.33778 0.24916 0.95424 0.0
C763 C 0.34545 0.22551 0.94057 0.0
H764 H 0.28242 0.32442 0.96803 0.0
H765 H 0.37223 0.22186 0.96262 0.0
S766 S 0.23363 0.30053 0.90948 0.0
N767 N 0.2005 0.35053 0.92232 0.0
N768 N 0.29949 0.24098 0.9166 0.0
C769 C 0.29708 0.26037 0.93012 0.0
C770 C 0.24272 0.31948 0.93327 0.0
C771 C 0.91075 0.82214 0.92894 0.0
C772 C 0.87631 0.75872 0.93571 0.0
C773 C 0.86888 0.89122 0.92811 0.0
C774 C 0.79026 0.89927 0.93378 0.0
H775 H 0.96921 0.81796 0.92392 0.0
H776 H 0.89754 0.93823 0.92274 0.0
S777 S 0.67917 0.75448 0.95461 0.0
N778 N 0.76285 0.71264 0.9498 0.0
N779 N 0.68448 0.83945 0.94764 0.0
C780 C 0.757 0.83705 0.94097 0.0
C781 C 0.79983 0.76789 0.9421 0.0
C782 C 0.35896 0.91819 0.31789 0.0
C783 C 0.2785 0.90545 0.32249 0.0
C784 C 0.40315 0.98094 0.32152 0.0
C785 C 0.36885 0.0353 0.32971 0.0
H786 H 0.38927 0.87866 0.31151 0.0
H787 H 0.46398 0.98717 0.31755 0.0
S788 S 0.16219 0.02902 0.34506 0.0
N789 N 0.16809 0.95227 0.33635 0.0
N790 N 0.24982 0.07173 0.34266 0.0
C791 C 0.28867 0.02364 0.33445 0.0
C792 C 0.24405 0.95855 0.33102 0.0
C793 C 0.94935 0.42273 0.32872 0.0
C794 C 0.92549 0.48602 0.33571 0.0
C795 C 0.90142 0.35735 0.32927 0.0
C796 C 0.82697 0.35242 0.33669 0.0
H797 H 0.00318 0.42473 0.32227 0.0
H798 H 0.92159 0.31104 0.32337 0.0
S799 S 0.74319 0.49946 0.35837 0.0
N800 N 0.82644 0.53633 0.35156 0.0
N801 N 0.737 0.41562 0.35223 0.0
C802 C 0.80464 0.41435 0.34419 0.0
C803 C 0.85365 0.48018 0.3438 0.0
C804 C 0.64138 0.6737 0.07937 0.0
C805 C 0.62487 0.73721 0.07066 0.0
C806 C 0.70267 0.62314 0.07621 0.0
C807 C 0.75011 0.63355 0.06414 0.0
H808 H 0.60619 0.66217 0.08874 0.0
H809 H 0.71143 0.57463 0.08311 0.0
S810 S 0.73759 0.79429 0.03851 0.0
N811 N 0.6653 0.80979 0.04988 0.0
N812 N 0.78053 0.71554 0.04394 0.0
C813 C 0.73623 0.69812 0.05556 0.0
C814 C 0.6737 0.74959 0.0588 0.0
C815 C 0.20033 0.12527 0.07708 0.0
C816 C 0.25574 0.13777 0.06618 0.0
C817 C 0.13596 0.17459 0.07907 0.0
C818 C 0.12411 0.23888 0.07028 0.0
H819 H 0.20483 0.07571 0.08385 0.0
H820 H 0.09449 0.1613 0.08755 0.0
S821 S 0.25732 0.30084 0.04097 0.0
N822 N 0.29832 0.22237 0.04704 0.0
N823 N 0.17693 0.31413 0.05076 0.0
C824 C 0.18063 0.25324 0.0596 0.0
C825 C 0.2465 0.20316 0.05759 0.0
C826 C 0.67402 0.01993 0.70789 0.0
C827 C 0.6091 0.03849 0.69889 0.0
C828 C 0.7378 0.07017 0.70985 0.0
C829 C 0.73962 0.14059 0.7028 0.0
H830 H 0.67643 0.96588 0.71326 0.0
H831 H 0.7864 0.0536 0.71695 0.0
S832 S 0.58006 0.2196 0.67932 0.0
N833 N 0.54768 0.13541 0.68374 0.0
N834 N 0.66818 0.22796 0.68726 0.0
C835 C 0.67465 0.16025 0.69397 0.0
C836 C 0.60923 0.10983 0.6921 0.0
C837 C 0.17939 0.5118 0.70559 0.0
C838 C 0.12231 0.52805 0.69497 0.0
C839 C 0.24184 0.56192 0.70849 0.0
C840 C 0.25019 0.63046 0.70092 0.0
H841 H 0.17582 0.46012 0.71174 0.0
H842 H 0.28357 0.54701 0.7169 0.0
S843 S 0.11428 0.70143 0.67252 0.0
N844 N 0.07736 0.6192 0.67708 0.0
N845 N 0.19431 0.71227 0.68256 0.0
C846 C 0.19402 0.64709 0.69021 0.0
C847 C 0.13024 0.59637 0.68728 0.0
C848 C 0.17352 0.19179 0.39011 0.0
C849 C 0.19068 0.11517 0.39129 0.0
C850 C 0.222 0.24019 0.38196 0.0
C851 C 0.28788 0.21256 0.37468 0.0
H852 H 0.12374 0.21473 0.39588 0.0
H853 H 0.21013 0.29926 0.38184 0.0
S854 S 0.35518 0.01664 0.37356 0.0
N855 N 0.27522 0.01389 0.3839 0.0
N856 N 0.36634 0.10466 0.36848 0.0
C857 C 0.30299 0.13575 0.37516 0.0
C858 C 0.25399 0.08678 0.38345 0.0
C859 C 0.78282 0.08262 0.3746 0.0
C860 C 0.70064 0.09315 0.3774 0.0
C861 C 0.82931 0.03393 0.38303 0.0
C862 C 0.7948 0.99274 0.39441 0.0
H863 H 0.8119 0.11393 0.3661 0.0
H864 H 0.89363 0.03079 0.38087 0.0
S865 S 0.58005 1.00012 0.40559 0.0
N866 N 0.58506 0.05905 0.39194 0.0
N867 N 0.67248 0.96592 0.4078 0.0
C868 C 0.71185 0.0022 0.39712 0.0
C869 C 0.66469 0.05268 0.38858 0.0
C870 C 0.29261 0.06513 0.87707 0.0
C871 C 0.27274 0.05257 0.8913 0.0
C872 C 0.24225 0.10569 0.86804 0.0
C873 C 0.16939 0.13459 0.87274 0.0
H874 H 0.3484 0.04429 0.87276 0.0
H875 H 0.2613 0.11559 0.85732 0.0
S876 S 0.08927 0.12245 0.9088 0.0
N877 N 0.17562 0.07584 0.90972 0.0
N878 N 0.07923 0.15194 0.89233 0.0
C879 C 0.14819 0.12416 0.88685 0.0
C880 C 0.20004 0.08265 0.89621 0.0
C881 C 0.75979 0.17685 0.89378 0.0
C882 C 0.67777 0.16231 0.89159 0.0
C883 C 0.80376 0.22009 0.884 0.0
C884 C 0.76724 0.25104 0.87169 0.0
H885 H 0.79092 0.15231 0.90282 0.0
H886 H 0.86811 0.22634 0.88588 0.0
S887 S 0.552 0.22976 0.86152 0.0
N888 N 0.56014 0.18217 0.87658 0.0
N889 N 0.64297 0.26437 0.85817 0.0
C890 C 0.68442 0.23781 0.86958 0.0
C891 C 0.63968 0.19329 0.87954 0.0
C892 C 0.63841 0.9639 0.63539 0.0
C893 C 0.57669 0.91156 0.63349 0.0
C894 C 0.70086 0.97421 0.62552 0.0
C895 C 0.70304 0.93273 0.61343 0.0
H896 H 0.6418 0.99295 0.64502 0.0
H897 H 0.75078 0.01047 0.62791 0.0
S898 S 0.54447 0.80297 0.60211 0.0
N899 N 0.5143 0.82727 0.61766 0.0
N900 N 0.63015 0.84793 0.59899 0.0
C901 C 0.6371 0.88611 0.61081 0.0
C902 C 0.57434 0.87505 0.62089 0.0
C903 C 0.08621 0.87548 0.64132 0.0
C904 C 0.07934 0.83238 0.62957 0.0
C905 C 0.14965 0.86381 0.65089 0.0
C906 C 0.20994 0.8099 0.64892 0.0
H907 H 0.04381 0.92027 0.64288 0.0
H908 H 0.15342 0.89951 0.65963 0.0
S909 S 0.21749 0.68091 0.61991 0.0
N910 N 0.13517 0.73113 0.61676 0.0
N911 N 0.25605 0.71046 0.63456 0.0
C912 C 0.20127 0.76366 0.63758 0.0
C913 C 0.13567 0.77483 0.62793 0.0
C914 C 0.64542 0.87706 0.15704 0.0
C915 C 0.70769 0.82639 0.15422 0.0
C916 C 0.58205 0.89119 0.14754 0.0
C917 C 0.57798 0.85412 0.13502 0.0
H918 H 0.64827 0.90932 0.16628 0.0
H919 H 0.53783 0.93353 0.14974 0.0
S920 S 0.72593 0.71793 0.1224 0.0
N921 N 0.76142 0.74004 0.13778 0.0
N922 N 0.64032 0.76446 0.12024 0.0
C923 C 0.63718 0.8005 0.13237 0.0
C924 C 0.70254 0.78697 0.14192 0.0
C925 C 0.11773 0.99072 0.13653 0.0
C926 C 0.07094 0.92552 0.13641 0.0
C927 C 0.18227 0.00257 0.12711 0.0
C928 C 0.20163 0.94959 0.1173 0.0
H929 H 0.1086 0.02997 0.1446 0.0
H930 H 0.22068 0.05053 0.12824 0.0
S931 S 0.08771 0.7761 0.11132 0.0
N932 N 0.04098 0.81291 0.12452 0.0
N933 N 0.16103 0.83451 0.10691 0.0
C934 C 0.14988 0.88788 0.11628 0.0
C935 C 0.08488 0.87595 0.12583 0.0
C936 C 0.22085 0.68029 0.88091 0.0
C937 C 0.30534 0.67318 0.88045 0.0
C938 C 0.17624 0.63971 0.89097 0.0
C939 C 0.21505 0.59058 0.90063 0.0
H940 H 0.18941 0.71763 0.87356 0.0
H941 H 0.11091 0.6463 0.89116 0.0
S942 S 0.4336 0.54828 0.90322 0.0
N943 N 0.42578 0.61063 0.89016 0.0
N944 N 0.34036 0.53452 0.909 0.0
C945 C 0.29877 0.58185 0.90018 0.0
C946 C 0.34444 0.62325 0.89005 0.0
C947 C 0.71765 0.53937 0.89089 0.0
C948 C 0.80258 0.54442 0.89057 0.0
C949 C 0.67016 0.5807 0.88119 0.0
C950 C 0.70625 0.62913 0.87112 0.0
H951 H 0.68791 0.50396 0.89872 0.0
H952 H 0.60473 0.57599 0.88173 0.0
S953 S 0.92486 0.66716 0.86669 0.0
N954 N 0.92032 0.60418 0.87968 0.0
N955 N 0.83011 0.68252 0.86175 0.0
C956 C 0.79047 0.63544 0.87081 0.0
C957 C 0.83897 0.59268 0.88046 0.0
C958 C 0.24327 0.58579 0.37363 0.0
C959 C 0.26219 0.65962 0.36947 0.0
C960 C 0.2825 0.54973 0.38502 0.0
C961 C 0.33977 0.58749 0.39282 0.0
H962 H 0.19704 0.55598 0.36814 0.0
H963 H 0.26791 0.49244 0.38777 0.0
S964 S 0.40924 0.78125 0.38657 0.0
N965 N 0.34121 0.7691 0.37422 0.0
N966 N 0.4141 0.70176 0.39577 0.0
C967 C 0.35856 0.66133 0.3889 0.0
C968 C 0.31952 0.69759 0.37724 0.0
C969 C 0.83485 0.63696 0.40042 0.0
C970 C 0.75051 0.63419 0.39934 0.0
C971 C 0.88088 0.67321 0.38996 0.0
C972 C 0.84426 0.7054 0.3778 0.0
H973 H 0.86549 0.60976 0.40924 0.0
H974 H 0.94617 0.67338 0.39122 0.0
S975 S 0.62425 0.70811 0.36982 0.0
N976 N 0.63115 0.66449 0.38528 0.0
N977 N 0.71809 0.72976 0.36525 0.0
C978 C 0.75965 0.70142 0.37652 0.0
C979 C 0.7127 0.66611 0.38735 0.0
C980 C 0.58383 0.39194 0.12514 0.0
C981 C 0.58071 0.42984 0.13758 0.0
C982 C 0.64603 0.40566 0.11544 0.0
C983 C 0.70812 0.45692 0.11793 0.0
H984 H 0.53975 0.34923 0.12315 0.0
H985 H 0.64803 0.37281 0.10626 0.0
S986 S 0.72874 0.56769 0.14942 0.0
N987 N 0.64391 0.52076 0.15195 0.0
N988 N 0.76268 0.54481 0.134 0.0
C989 C 0.70391 0.49715 0.13015 0.0
C990 C 0.63974 0.48388 0.13993 0.0
C991 C 0.1544 0.29546 0.1504 0.0
C992 C 0.22485 0.33922 0.15016 0.0
C993 C 0.09074 0.31101 0.14083 0.0
C994 C 0.09636 0.37066 0.13085 0.0
H995 H 0.1477 0.25061 0.15817 0.0
H996 H 0.03634 0.27752 0.14144 0.0
S997 S 0.27637 0.49049 0.12422 0.0
N998 N 0.3016 0.43643 0.13785 0.0
N999 N 0.18343 0.46579 0.12012 0.0
C1000 C 0.16909 0.41108 0.13003 0.0
C1001 C 0.23305 0.39515 0.1396 0.0
C1002 C 0.59588 0.26567 0.63426 0.0
C1003 C 0.55039 0.33189 0.63348 0.0
C1004 C 0.6616 0.25669 0.64356 0.0
C1005 C 0.68387 0.31373 0.65234 0.0
H1006 H 0.58473 0.22281 0.62695 0.0
H1007 H 0.69848 0.20716 0.64311 0.0
S1008 S 0.57456 0.4921 0.65603 0.0
N1009 N 0.52458 0.45034 0.64374 0.0
N1010 N 0.64785 0.43434 0.66095 0.0
C1011 C 0.6338 0.37704 0.65254 0.0
C1012 C 0.56711 0.38589 0.64318 0.0
C1013 C 0.1599 0.46847 0.62057 0.0
C1014 C 0.18165 0.41224 0.6116 0.0
C1015 C 0.09531 0.45868 0.62997 0.0
C1016 C 0.05072 0.39213 0.63073 0.0
H1017 H 0.19684 0.51766 0.62114 0.0
H1018 H 0.08463 0.50107 0.6374 0.0
S1019 S 0.07402 0.23333 0.60785 0.0
N1020 N 0.14603 0.29186 0.60283 0.0
N1021 N 0.025 0.27404 0.62037 0.0
C1022 C 0.06683 0.33873 0.62091 0.0
C1023 C 0.13222 0.34863 0.61137 0.0
C1024 C 0.38341 0.28035 0.4932 0.0
C1025 C 0.34309 0.33253 0.50108 0.0
C1026 C 0.34595 0.2509 0.4817 0.0
C1027 C 0.26651 0.27176 0.47798 0.0
H1028 H 0.44397 0.2617 0.49604 0.0
H1029 H 0.3789 0.21056 0.47588 0.0
S1030 S 0.13693 0.40886 0.49537 0.0
N1031 N 0.22206 0.40607 0.50444 0.0
N1032 N 0.14956 0.34975 0.48292 0.0
C1033 C 0.22585 0.32468 0.48581 0.0
C1034 C 0.26498 0.35572 0.49732 0.0
C1035 C 0.05802 0.92444 0.49554 0.0
C1036 C 0.03178 0.96211 0.50727 0.0
C1037 C 0.0432 0.95324 0.48183 0.0
C1038 C 0.99839 0.01904 0.47926 0.0
H1039 H 0.0919 0.87318 0.49694 0.0
H1040 H 0.06939 0.92495 0.47319 0.0
S1041 S 0.91604 0.14026 0.50609 0.0
N1042 N 0.96204 0.07249 0.51506 0.0
N1043 N 0.92748 0.12077 0.48959 0.0
C1044 C 0.9705 0.0564 0.49086 0.0
C1045 C 0.98883 0.02951 0.50474 0.0
C1046 C 0.30918 0.98254 0.76693 0.0
C1047 C 0.30724 0.90585 0.76467 0.0
C1048 C 0.28164 0.01042 0.77935 0.0
C1049 C 0.2494 0.96303 0.78981 0.0
H1050 H 0.33207 0.02191 0.75905 0.0
H1051 H 0.28266 0.06984 0.78056 0.0
S1052 S 0.236 0.75845 0.78993 0.0
N1053 N 0.27567 0.78261 0.7746 0.0
N1054 N 0.22007 0.83661 0.79783 0.0
C1055 C 0.24776 0.88654 0.78796 0.0
C1056 C 0.27747 0.85755 0.77538 0.0
C1057 C 0.00697 0.29364 0.78069 0.0
C1058 C 0.01366 0.21785 0.78468 0.0
C1059 C 0.02943 0.32098 0.76717 0.0
C1060 C 0.06187 0.2737 0.7572 0.0
H1061 H 0.98111 0.33136 0.78787 0.0
H1062 H 0.01627 0.37839 0.76424 0.0
S1063 S 0.10716 0.07369 0.76294 0.0
N1064 N 0.06623 0.09795 0.77772 0.0
N1065 N 0.10939 0.15009 0.7529 0.0
C1066 C 0.07608 0.19962 0.76151 0.0
C1067 C 0.05181 0.17145 0.77503 0.0
C1068 C 0.73798 0.76693 0.48882 0.0
C1069 C 0.78384 0.70117 0.48852 0.0
C1070 C 0.75423 0.82059 0.49866 0.0
C1071 C 0.81563 0.80997 0.50879 0.0
H1072 H 0.69083 0.7783 0.4812 0.0
H1073 H 0.71807 0.87079 0.49835 0.0
S1074 S 0.95162 0.6458 0.5125 0.0
N1075 N 0.89212 0.62777 0.49925 0.0
N1076 N 0.92178 0.7272 0.51776 0.0
C1077 C 0.86016 0.7433 0.50878 0.0
C1078 C 0.84441 0.68934 0.49866 0.0
C1079 C 0.89649 0.95995 0.27627 0.0
C1080 C 0.85219 0.90827 0.26886 0.0
C1081 C 0.86202 0.99496 0.28746 0.0
C1082 C 0.78154 0.98036 0.29142 0.0
H1083 H 0.95756 0.97505 0.27312 0.0
H1084 H 0.89781 0.03572 0.29267 0.0
S1085 S 0.64327 0.84338 0.27602 0.0
N1086 N 0.72722 0.83907 0.26675 0.0
N1087 N 0.66054 0.9058 0.28773 0.0
C1088 C 0.7378 0.92595 0.28445 0.0
C1089 C 0.77379 0.88937 0.27319 0.0
C1090 C 0.04267 0.78607 0.28294 0.0
C1091 C 0.02103 0.71114 0.28572 0.0
C1092 C 0.065 0.81296 0.2694 0.0
C1093 C 0.06737 0.76609 0.25798 0.0
H1094 H 0.04285 0.82444 0.2913 0.0
H1095 H 0.07905 0.8713 0.26784 0.0
S1096 S 0.01622 0.56518 0.25946 0.0
N1097 N 0.00195 0.59109 0.27553 0.0
N1098 N 0.04761 0.64006 0.25066 0.0
C1099 C 0.04719 0.69085 0.26072 0.0
C1100 C 0.0228 0.66399 0.27434 0.0
C1101 C 0.25939 0.75138 0.01633 0.0
C1102 C 0.27351 0.82722 0.01324 0.0
C1103 C 0.2224 0.70755 0.00666 0.0
C1104 C 0.19775 0.73869 0.99374 0.0
H1105 H 0.28108 0.72482 0.02599 0.0
H1106 H 0.21651 0.64855 0.00905 0.0
S1107 S 0.20782 0.93755 0.98186 0.0
N1108 N 0.25069 0.93386 0.99743 0.0
N1109 N 0.1793 0.85187 0.97906 0.0
C1110 C 0.20364 0.81615 0.99114 0.0
C1111 C 0.242 0.86059 1.00101 0.0
C1112 C 0.00742 0.4711 0.98583 0.0
C1113 C 0.98222 0.54458 0.98237 0.0
C1114 C 0.03614 0.44968 0.99937 0.0
C1115 C 0.04122 0.50066 0.0101 0.0
H1116 H 0.00513 0.42957 0.97804 0.0
H1117 H 0.0529 0.39232 1.0015 0.0
S1118 S 0.98731 0.70093 0.00648 0.0
N1119 N 0.96604 0.66855 0.99112 0.0
N1120 N 0.02309 0.62948 0.01586 0.0
C1121 C 0.01877 0.57471 0.0066 0.0
C1122 C 0.98816 0.59613 0.99302 0.0
C1123 C 0.20193 0.4638 0.26761 0.0
C1124 C 0.25079 0.52374 0.27129 0.0
C1125 C 0.23121 0.4098 0.25891 0.0
C1126 C 0.31048 0.41357 0.2537 0.0
H1127 H 0.1415 0.45713 0.27187 0.0
H1128 H 0.19184 0.3643 0.25638 0.0
S1129 S 0.46498 0.55556 0.26117 0.0
N1130 N 0.38301 0.5824 0.26941 0.0
N1131 N 0.4388 0.47941 0.25342 0.0
C1132 C 0.35986 0.47327 0.25722 0.0
C1133 C 0.32972 0.5289 0.26592 0.0
C1134 C 0.72385 0.3278 0.98555 0.0
C1135 C 0.76681 0.27194 0.97884 0.0
C1136 C 0.75769 0.36392 0.9968 0.0
C1137 C 0.83485 0.34422 0.00188 0.0
H1138 H 0.66328 0.34351 0.98216 0.0
H1139 H 0.722 0.40524 0.00189 0.0
S1140 S 0.97509 0.20625 0.98739 0.0
N1141 N 0.89312 0.20275 0.97756 0.0
N1142 N 0.95572 0.26912 0.9989 0.0
C1143 C 0.87953 0.29035 0.995 0.0
C1144 C 0.84579 0.25459 0.98342 0.0
C1145 C 0.78523 0.5585 0.77076 0.0
C1146 C 0.71525 0.52852 0.77696 0.0
C1147 C 0.82932 0.51822 0.76135 0.0
C1148 C 0.80476 0.44664 0.75782 0.0
H1149 H 0.80829 0.61174 0.77372 0.0
H1150 H 0.88441 0.54285 0.75714 0.0
S1151 S 0.62015 0.34707 0.77003 0.0
N1152 N 0.61898 0.42573 0.77814 0.0
N1153 N 0.70227 0.35035 0.76025 0.0
C1154 C 0.73242 0.41769 0.76336 0.0
C1155 C 0.6871 0.45889 0.77291 0.0
C1156 C 0.43747 0.01271 0.98793 0.0
C1157 C 0.49127 0.98876 0.97774 0.0
C1158 C 0.45432 0.00188 0.0022 0.0
C1159 C 0.52534 0.96534 0.00711 0.0
H1160 H 0.38524 0.04616 0.98485 0.0
H1161 H 0.41246 0.02564 0.00944 0.0
S1162 S 0.68398 0.88717 0.98472 0.0
N1163 N 0.61752 0.9242 0.97351 0.0
N1164 N 0.64722 0.9003 1.00044 0.0
C1165 C 0.57692 0.93603 0.99706 0.0
C1166 C 0.56031 0.94843 0.98239 0.0
C1167 C 0.46692 0.23164 0.28137 0.0
C1168 C 0.50525 0.26828 0.29223 0.0
C1169 C 0.48407 0.2493 0.26734 0.0
C1170 C 0.53835 0.30642 0.26334 0.0
H1171 H 0.4283 0.18424 0.28376 0.0
H1172 H 0.45634 0.21561 0.2596 0.0
S1173 S 0.6459 0.42743 0.28761 0.0
N1174 N 0.59481 0.36904 0.29802 0.0
N1175 N 0.62354 0.40559 0.2715 0.0
C1176 C 0.57139 0.34848 0.27403 0.0
C1177 C 0.55534 0.32898 0.28848 0.0
C1178 C 0.49724 0.6734 0.77787 0.0
C1179 C 0.4804 0.72411 0.78829 0.0
C1180 C 0.52455 0.69618 0.76454 0.0
C1181 C 0.53425 0.77155 0.76044 0.0
H1182 H 0.48825 0.61454 0.77985 0.0
H1183 H 0.53483 0.65359 0.75714 0.0
S1184 S 0.50116 0.92841 0.78375 0.0
N1185 N 0.47938 0.85413 0.79372 0.0
N1186 N 0.52727 0.8979 0.7684 0.0
C1187 C 0.51968 0.82356 0.77082 0.0
C1188 C 0.49328 0.79976 0.78469 0.0
C1189 C 0.55983 0.43175 0.50008 0.0
C1190 C 0.5822 0.4752 0.5114 0.0
C1191 C 0.54089 0.46448 0.48676 0.0
C1192 C 0.54274 0.54206 0.4842 0.0
H1193 H 0.55197 0.37247 0.50171 0.0
H1194 H 0.52082 0.42898 0.47863 0.0
S1195 S 0.60595 0.67946 0.51004 0.0
N1196 N 0.61329 0.59873 0.51863 0.0
N1197 N 0.57557 0.66052 0.4942 0.0
C1198 C 0.56971 0.58535 0.49528 0.0
C1199 C 0.59025 0.55189 0.50864 0.0
loop_
_geom_bond_atom_site_label_1
_geom_bond_atom_site_label_2
_geom_bond_distance
_geom_bond_site_symmetry_2
_ccdc_geom_bond_type
C0 O27 1.312 . S
C0 O28 1.208 1_655 S
C1 O22 1.331 . S
C1 O25 1.244 . S
C2 O24 1.264 . S
C2 O26 1.273 . S
Mg3 O5 1.936 . S
Mg3 O12 2.081 . S
Mg3 O14 2.023 1_545 S
Mg3 O18 2.031 . S
Mg3 O27 2.291 . S
Mg4 O5 1.963 1_455 S
Mg4 O15 1.942 1_455 S
Mg4 O16 1.955 1_445 S
Mg4 O23 1.986 . S
O5 Mg3 1.936 . S
O5 Mg4 1.963 1_655 S
O5 Mg6 1.915 1_655 S
Mg6 O5 1.915 1_455 S
Mg6 O7 1.915 . S
Mg6 O11 2.013 . S
Mg6 O17 2.114 . S
Mg6 O21 2.013 . S
Mg6 O27 2.114 1_455 S
O7 Mg6 1.915 . S
O7 Mg8 1.936 . S
O7 Mg9 1.963 . S
Mg8 O7 1.936 . S
Mg8 O17 2.291 . S
Mg8 O22 2.081 . S
Mg8 O24 2.023 . S
Mg8 O28 2.031 . S
Mg9 O7 1.963 . S
Mg9 O13 1.986 . S
Mg9 O25 1.942 . S
Mg9 O26 1.955 . S
C10 O21 1.191 . S
C10 O23 1.307 . S
O11 Mg6 2.013 . S
O11 C30 1.191 1_545 S
O12 Mg3 2.081 . S
O12 C20 1.331 . S
O13 Mg9 1.986 . S
O13 C30 1.307 1_545 S
O14 Mg3 2.023 1_565 S
O14 C29 1.264 . S
O15 Mg4 1.942 1_655 S
O15 C20 1.244 . S
O16 Mg4 1.955 1_665 S
O16 C29 1.273 . S
O17 Mg6 2.114 . S
O17 Mg8 2.291 . S
O17 C19 1.312 1_455 S
O18 Mg3 2.031 . S
O18 C19 1.208 . S
C19 O17 1.312 1_655 S
C19 O18 1.208 . S
C20 O12 1.331 . S
C20 O15 1.244 . S
O21 Mg6 2.013 . S
O21 C10 1.191 . S
O22 C1 1.331 . S
O22 Mg8 2.081 . S
O23 Mg4 1.986 . S
O23 C10 1.307 . S
O24 C2 1.264 . S
O24 Mg8 2.023 . S
O25 C1 1.244 . S
O25 Mg9 1.942 . S
O26 C2 1.273 . S
O26 Mg9 1.955 . S
O27 C0 1.312 . S
O27 Mg3 2.291 . S
O27 Mg6 2.114 1_655 S
O28 C0 1.208 1_455 S
O28 Mg8 2.031 . S
C29 O14 1.264 . S
C29 O16 1.273 . S
C30 O11 1.191 1_565 S
C30 O13 1.307 1_565 S
C31 O58 1.312 1_655 S
C31 O59 1.208 . S
C32 O53 1.331 . S
C32 O56 1.244 . S
C33 O55 1.264 . S
C33 O57 1.273 . S
Mg34 O36 1.936 . S
Mg34 O43 2.081 . S
Mg34 O45 2.023 1_545 S
Mg34 O49 2.031 . S
Mg34 O58 2.291 . S
Mg35 O36 1.963 . S
Mg35 O46 1.942 . S
Mg35 O47 1.955 . S
Mg35 O54 1.986 . S
O36 Mg34 1.936 . S
O36 Mg35 1.963 . S
O36 Mg37 1.915 . S
Mg37 O36 1.915 . S
Mg37 O38 1.915 1_455 S
Mg37 O42 2.013 . S
Mg37 O48 2.114 1_455 S
Mg37 O52 2.013 . S
Mg37 O58 2.114 . S
O38 Mg37 1.915 1_655 S
O38 Mg39 1.936 . S
O38 Mg40 1.963 1_655 S
Mg39 O38 1.936 . S
Mg39 O48 2.291 . S
Mg39 O53 2.081 . S
Mg39 O55 2.023 . S
Mg39 O59 2.031 . S
Mg40 O38 1.963 1_455 S
Mg40 O44 1.986 . S
Mg40 O56 1.942 1_455 S
Mg40 O57 1.955 1_455 S
C41 O52 1.191 . S
C41 O54 1.307 . S
O42 Mg37 2.013 . S
O42 C61 1.191 . S
O43 Mg34 2.081 . S
O43 C51 1.331 . S
O44 Mg40 1.986 . S
O44 C61 1.307 . S
O45 Mg34 2.023 1_565 S
O45 C60 1.264 . S
O46 Mg35 1.942 . S
O46 C51 1.244 . S
O47 Mg35 1.955 . S
O47 C60 1.273 1_545 S
O48 Mg37 2.114 1_655 S
O48 Mg39 2.291 . S
O48 C50 1.312 . S
O49 Mg34 2.031 . S
O49 C50 1.208 1_455 S
C50 O48 1.312 . S
C50 O49 1.208 1_655 S
C51 O43 1.331 . S
C51 O46 1.244 . S
O52 Mg37 2.013 . S
O52 C41 1.191 . S
O53 C32 1.331 . S
O53 Mg39 2.081 . S
O54 Mg35 1.986 . S
O54 C41 1.307 . S
O55 C33 1.264 . S
O55 Mg39 2.023 . S
O56 C32 1.244 . S
O56 Mg40 1.942 1_655 S
O57 C33 1.273 . S
O57 Mg40 1.955 1_655 S
O58 C31 1.312 1_455 S
O58 Mg34 2.291 . S
O58 Mg37 2.114 . S
O59 C31 1.208 . S
O59 Mg39 2.031 . S
C60 O45 1.264 . S
C60 O47 1.273 1_565 S
C61 O42 1.191 . S
C61 O44 1.307 . S
C62 O89 1.312 . S
C62 O90 1.208 . S
C63 O84 1.331 . S
C63 O87 1.244 . S
C64 O86 1.264 . S
C64 O88 1.273 . S
Mg65 O67 1.936 . S
Mg65 O74 2.081 . S
Mg65 O76 2.023 1_655 S
Mg65 O80 2.031 . S
Mg65 O89 2.291 1_655 S
Mg66 O67 1.963 . S
Mg66 O77 1.942 . S
Mg66 O78 1.955 . S
Mg66 O85 1.986 1_565 S
O67 Mg65 1.936 . S
O67 Mg66 1.963 . S
O67 Mg68 1.915 . S
Mg68 O67 1.915 . S
Mg68 O69 1.915 . S
Mg68 O73 2.013 1_655 S
Mg68 O79 2.114 . S
Mg68 O83 2.013 . S
Mg68 O89 2.114 1_655 S
O69 Mg68 1.915 . S
O69 Mg70 1.936 . S
O69 Mg71 1.963 . S
Mg70 O69 1.936 . S
Mg70 O79 2.291 . S
Mg70 O84 2.081 1_655 S
Mg70 O86 2.023 . S
Mg70 O90 2.031 1_655 S
Mg71 O69 1.963 . S
Mg71 O75 1.986 1_665 S
Mg71 O87 1.942 1_655 S
Mg71 O88 1.955 . S
C72 O83 1.191 . S
C72 O85 1.307 1_565 S
O73 Mg68 2.013 1_455 S
O73 C92 1.191 1_565 S
O74 Mg65 2.081 . S
O74 C82 1.331 . S
O75 Mg71 1.986 1_445 S
O75 C92 1.307 . S
O76 Mg65 2.023 1_455 S
O76 C91 1.264 . S
O77 Mg66 1.942 . S
O77 C82 1.244 . S
O78 Mg66 1.955 . S
O78 C91 1.273 1_655 S
O79 Mg68 2.114 . S
O79 Mg70 2.291 . S
O79 C81 1.312 . S
O80 Mg65 2.031 . S
O80 C81 1.208 . S
C81 O79 1.312 . S
C81 O80 1.208 . S
C82 O74 1.331 . S
C82 O77 1.244 . S
O83 Mg68 2.013 . S
O83 C72 1.191 . S
O84 C63 1.331 . S
O84 Mg70 2.081 1_455 S
O85 Mg66 1.986 1_545 S
O85 C72 1.307 1_545 S
O86 C64 1.264 . S
O86 Mg70 2.023 . S
O87 C63 1.244 . S
O87 Mg71 1.942 1_455 S
O88 C64 1.273 . S
O88 Mg71 1.955 . S
O89 C62 1.312 . S
O89 Mg65 2.291 1_455 S
O89 Mg68 2.114 1_455 S
O90 C62 1.208 . S
O90 Mg70 2.031 1_455 S
C91 O76 1.264 . S
C91 O78 1.273 1_455 S
C92 O73 1.191 1_545 S
C92 O75 1.307 . S
C93 O120 1.312 1_545 S
C93 O121 1.208 . S
C94 O115 1.331 . S
C94 O118 1.244 . S
C95 O117 1.264 . S
C95 O119 1.273 1_455 S
Mg96 O98 1.936 . S
Mg96 O105 2.081 1_655 S
Mg96 O107 2.023 . S
Mg96 O111 2.031 1_665 S
Mg96 O120 2.291 . S
Mg97 O98 1.963 . S
Mg97 O108 1.942 1_655 S
Mg97 O109 1.955 . S
Mg97 O116 1.986 1_655 S
O98 Mg96 1.936 . S
O98 Mg97 1.963 . S
O98 Mg99 1.915 . S
Mg99 O98 1.915 . S
Mg99 O100 1.915 . S
Mg99 O104 2.013 . S
Mg99 O110 2.114 1_655 S
Mg99 O114 2.013 1_655 S
Mg99 O120 2.114 . S
O100 Mg99 1.915 . S
O100 Mg101 1.936 . S
O100 Mg102 1.963 . S
Mg101 O100 1.936 . S
Mg101 O110 2.291 1_655 S
Mg101 O115 2.081 . S
Mg101 O117 2.023 1_655 S
Mg101 O121 2.031 1_565 S
Mg102 O100 1.963 . S
Mg102 O106 1.986 . S
Mg102 O118 1.942 . S
Mg102 O119 1.955 . S
C103 O114 1.191 . S
C103 O116 1.307 . S
O104 Mg99 2.013 . S
O104 C123 1.191 . S
O105 Mg96 2.081 1_455 S
O105 C113 1.331 . S
O106 Mg102 1.986 . S
O106 C123 1.307 . S
O107 Mg96 2.023 . S
O107 C122 1.264 . S
O108 Mg97 1.942 1_455 S
O108 C113 1.244 . S
O109 Mg97 1.955 . S
O109 C122 1.273 . S
O110 Mg99 2.114 1_455 S
O110 Mg101 2.291 1_455 S
O110 C112 1.312 . S
O111 Mg96 2.031 1_445 S
O111 C112 1.208 1_545 S
C112 O110 1.312 . S
C112 O111 1.208 1_565 S
C113 O105 1.331 . S
C113 O108 1.244 . S
O114 Mg99 2.013 1_455 S
O114 C103 1.191 . S
O115 C94 1.331 . S
O115 Mg101 2.081 . S
O116 Mg97 1.986 1_455 S
O116 C103 1.307 . S
O117 C95 1.264 . S
O117 Mg101 2.023 1_455 S
O118 C94 1.244 . S
O118 Mg102 1.942 . S
O119 C95 1.273 1_655 S
O119 Mg102 1.955 . S
O120 C93 1.312 1_565 S
O120 Mg96 2.291 . S
O120 Mg99 2.114 . S
O121 C93 1.208 . S
O121 Mg101 2.031 1_545 S
C122 O107 1.264 . S
C122 O109 1.273 . S
C123 O104 1.191 . S
C123 O106 1.307 . S
C124 O151 1.312 . S
C124 O152 1.208 1_655 S
C125 O146 1.331 . S
C125 O149 1.244 . S
C126 O148 1.264 . S
C126 O150 1.273 . S
Mg127 O129 1.936 . S
Mg127 O136 2.081 . S
Mg127 O138 2.023 . S
Mg127 O142 2.031 . S
Mg127 O151 2.291 . S
Mg128 O129 1.963 1_455 S
Mg128 O139 1.942 1_455 S
Mg128 O140 1.955 1_455 S
Mg128 O147 1.986 . S
O129 Mg127 1.936 . S
O129 Mg128 1.963 1_655 S
O129 Mg130 1.915 1_655 S
Mg130 O129 1.915 1_455 S
Mg130 O131 1.915 . S
Mg130 O135 2.013 . S
Mg130 O141 2.114 . S
Mg130 O145 2.013 . S
Mg130 O151 2.114 1_455 S
O131 Mg130 1.915 . S
O131 Mg132 1.936 . S
O131 Mg133 1.963 . S
Mg132 O131 1.936 . S
Mg132 O141 2.291 . S
Mg132 O146 2.081 . S
Mg132 O148 2.023 . S
Mg132 O152 2.031 . S
Mg133 O131 1.963 . S
Mg133 O137 1.986 . S
Mg133 O149 1.942 . S
Mg133 O150 1.955 . S
C134 O145 1.191 . S
C134 O147 1.307 . S
O135 Mg130 2.013 . S
O135 C154 1.191 . S
O136 Mg127 2.081 . S
O136 C144 1.331 . S
O137 Mg133 1.986 . S
O137 C154 1.307 . S
O138 Mg127 2.023 . S
O138 C153 1.264 . S
O139 Mg128 1.942 1_655 S
O139 C144 1.244 . S
O140 Mg128 1.955 1_655 S
O140 C153 1.273 . S
O141 Mg130 2.114 . S
O141 Mg132 2.291 . S
O141 C143 1.312 1_455 S
O142 Mg127 2.031 . S
O142 C143 1.208 . S
C143 O141 1.312 1_655 S
C143 O142 1.208 . S
C144 O136 1.331 . S
C144 O139 1.244 . S
O145 Mg130 2.013 . S
O145 C134 1.191 . S
O146 C125 1.331 . S
O146 Mg132 2.081 . S
O147 Mg128 1.986 . S
O147 C134 1.307 . S
O148 C126 1.264 . S
O148 Mg132 2.023 . S
O149 C125 1.244 . S
O149 Mg133 1.942 . S
O150 C126 1.273 . S
O150 Mg133 1.955 . S
O151 C124 1.312 . S
O151 Mg127 2.291 . S
O151 Mg130 2.114 1_655 S
O152 C124 1.208 1_455 S
O152 Mg132 2.031 . S
C153 O138 1.264 . S
C153 O140 1.273 . S
C154 O135 1.191 . S
C154 O137 1.307 . S
C155 O182 1.312 1_655 S
C155 O183 1.208 . S
C156 O177 1.331 . S
C156 O180 1.244 . S
C157 O179 1.264 . S
C157 O181 1.273 . S
Mg158 O160 1.936 . S
Mg158 O167 2.081 . S
Mg158 O169 2.023 . S
Mg158 O173 2.031 . S
Mg158 O182 2.291 . S
Mg159 O160 1.963 . S
Mg159 O170 1.942 . S
Mg159 O171 1.955 . S
Mg159 O178 1.986 . S
O160 Mg158 1.936 . S
O160 Mg159 1.963 . S
O160 Mg161 1.915 . S
Mg161 O160 1.915 . S
Mg161 O162 1.915 1_455 S
Mg161 O166 2.013 . S
Mg161 O172 2.114 1_455 S
Mg161 O176 2.013 . S
Mg161 O182 2.114 . S
O162 Mg161 1.915 1_655 S
O162 Mg163 1.936 . S
O162 Mg164 1.963 1_655 S
Mg163 O162 1.936 . S
Mg163 O172 2.291 . S
Mg163 O177 2.081 . S
Mg163 O179 2.023 . S
Mg163 O183 2.031 . S
Mg164 O162 1.963 1_455 S
Mg164 O168 1.986 . S
Mg164 O180 1.942 1_455 S
Mg164 O181 1.955 1_455 S
C165 O176 1.191 . S
C165 O178 1.307 . S
O166 Mg161 2.013 . S
O166 C185 1.191 . S
O167 Mg158 2.081 . S
O167 C175 1.331 . S
O168 Mg164 1.986 . S
O168 C185 1.307 . S
O169 Mg158 2.023 . S
O169 C184 1.264 . S
O170 Mg159 1.942 . S
O170 C175 1.244 . S
O171 Mg159 1.955 . S
O171 C184 1.273 . S
O172 Mg161 2.114 1_655 S
O172 Mg163 2.291 . S
O172 C174 1.312 . S
O173 Mg158 2.031 . S
O173 C174 1.208 1_455 S
C174 O172 1.312 . S
C174 O173 1.208 1_655 S
C175 O167 1.331 . S
C175 O170 1.244 . S
O176 Mg161 2.013 . S
O176 C165 1.191 . S
O177 C156 1.331 . S
O177 Mg163 2.081 . S
O178 Mg159 1.986 . S
O178 C165 1.307 . S
O179 C157 1.264 . S
O179 Mg163 2.023 . S
O180 C156 1.244 . S
O180 Mg164 1.942 1_655 S
O181 C157 1.273 . S
O181 Mg164 1.955 1_655 S
O182 C155 1.312 1_455 S
O182 Mg158 2.291 . S
O182 Mg161 2.114 . S
O183 C155 1.208 . S
O183 Mg163 2.031 . S
C184 O169 1.264 . S
C184 O171 1.273 . S
C185 O166 1.191 . S
C185 O168 1.307 . S
C186 O213 1.312 . S
C186 O214 1.208 . S
C187 O208 1.331 . S
C187 O211 1.244 . S
C188 O210 1.264 . S
C188 O212 1.273 . S
Mg189 O191 1.936 . S
Mg189 O198 2.081 . S
Mg189 O200 2.023 1_655 S
Mg189 O204 2.031 . S
Mg189 O213 2.291 1_655 S
Mg190 O191 1.963 . S
Mg190 O201 1.942 . S
Mg190 O202 1.955 . S
Mg190 O209 1.986 . S
O191 Mg189 1.936 . S
O191 Mg190 1.963 . S
O191 Mg192 1.915 . S
Mg192 O191 1.915 . S
Mg192 O193 1.915 . S
Mg192 O197 2.013 1_655 S
Mg192 O203 2.114 . S
Mg192 O207 2.013 . S
Mg192 O213 2.114 1_655 S
O193 Mg192 1.915 . S
O193 Mg194 1.936 . S
O193 Mg195 1.963 . S
Mg194 O193 1.936 . S
Mg194 O203 2.291 . S
Mg194 O208 2.081 1_655 S
Mg194 O210 2.023 . S
Mg194 O214 2.031 1_655 S
Mg195 O193 1.963 . S
Mg195 O199 1.986 1_655 S
Mg195 O211 1.942 1_655 S
Mg195 O212 1.955 . S
C196 O207 1.191 . S
C196 O209 1.307 . S
O197 Mg192 2.013 1_455 S
O197 C216 1.191 . S
O198 Mg189 2.081 . S
O198 C206 1.331 . S
O199 Mg195 1.986 1_455 S
O199 C216 1.307 . S
O200 Mg189 2.023 1_455 S
O200 C215 1.264 . S
O201 Mg190 1.942 . S
O201 C206 1.244 . S
O202 Mg190 1.955 . S
O202 C215 1.273 1_655 S
O203 Mg192 2.114 . S
O203 Mg194 2.291 . S
O203 C205 1.312 . S
O204 Mg189 2.031 . S
O204 C205 1.208 . S
C205 O203 1.312 . S
C205 O204 1.208 . S
C206 O198 1.331 . S
C206 O201 1.244 . S
O207 Mg192 2.013 . S
O207 C196 1.191 . S
O208 C187 1.331 . S
O208 Mg194 2.081 1_455 S
O209 Mg190 1.986 . S
O209 C196 1.307 . S
O210 C188 1.264 . S
O210 Mg194 2.023 . S
O211 C187 1.244 . S
O211 Mg195 1.942 1_455 S
O212 C188 1.273 . S
O212 Mg195 1.955 . S
O213 C186 1.312 . S
O213 Mg189 2.291 1_455 S
O213 Mg192 2.114 1_455 S
O214 C186 1.208 . S
O214 Mg194 2.031 1_455 S
C215 O200 1.264 . S
C215 O202 1.273 1_455 S
C216 O197 1.191 . S
C216 O199 1.307 . S
C217 O244 1.312 . S
C217 O245 1.208 . S
C218 O239 1.331 . S
C218 O242 1.244 . S
C219 O241 1.264 . S
C219 O243 1.273 . S
Mg220 O222 1.936 . S
Mg220 O229 2.081 . S
Mg220 O231 2.023 1_655 S
Mg220 O235 2.031 . S
Mg220 O244 2.291 1_655 S
Mg221 O222 1.963 . S
Mg221 O232 1.942 . S
Mg221 O233 1.955 . S
Mg221 O240 1.986 . S
O222 Mg220 1.936 . S
O222 Mg221 1.963 . S
O222 Mg223 1.915 . S
Mg223 O222 1.915 . S
Mg223 O224 1.915 . S
Mg223 O228 2.013 1_655 S
Mg223 O234 2.114 . S
Mg223 O238 2.013 . S
Mg223 O244 2.114 1_655 S
O224 Mg223 1.915 . S
O224 Mg225 1.936 . S
O224 Mg226 1.963 . S
Mg225 O224 1.936 . S
Mg225 O234 2.291 . S
Mg225 O239 2.081 1_655 S
Mg225 O241 2.023 . S
Mg225 O245 2.031 1_655 S
Mg226 O224 1.963 . S
Mg226 O230 1.986 1_655 S
Mg226 O242 1.942 1_655 S
Mg226 O243 1.955 . S
C227 O238 1.191 . S
C227 O240 1.307 . S
O228 Mg223 2.013 1_455 S
O228 C247 1.191 . S
O229 Mg220 2.081 . S
O229 C237 1.331 . S
O230 Mg226 1.986 1_455 S
O230 C247 1.307 . S
O231 Mg220 2.023 1_455 S
O231 C246 1.264 . S
O232 Mg221 1.942 . S
O232 C237 1.244 . S
O233 Mg221 1.955 . S
O233 C246 1.273 1_655 S
O234 Mg223 2.114 . S
O234 Mg225 2.291 . S
O234 C236 1.312 . S
O235 Mg220 2.031 . S
O235 C236 1.208 . S
C236 O234 1.312 . S
C236 O235 1.208 . S
C237 O229 1.331 . S
C237 O232 1.244 . S
O238 Mg223 2.013 . S
O238 C227 1.191 . S
O239 C218 1.331 . S
O239 Mg225 2.081 1_455 S
O240 Mg221 1.986 . S
O240 C227 1.307 . S
O241 C219 1.264 . S
O241 Mg225 2.023 . S
O242 C218 1.244 . S
O242 Mg226 1.942 1_455 S
O243 C219 1.273 . S
O243 Mg226 1.955 . S
O244 C217 1.312 . S
O244 Mg220 2.291 1_455 S
O244 Mg223 2.114 1_455 S
O245 C217 1.208 . S
O245 Mg225 2.031 1_455 S
C246 O231 1.264 . S
C246 O233 1.273 1_455 S
C247 O228 1.191 . S
C247 O230 1.307 . S
C248 O275 1.312 . S
C248 O276 1.208 . S
C249 O270 1.331 . S
C249 O273 1.244 . S
C250 O272 1.264 . S
C250 O274 1.273 . S
Mg251 O253 1.936 . S
Mg251 O260 2.081 . S
Mg251 O262 2.023 1_545 S
Mg251 O266 2.031 . S
Mg251 O275 2.291 . S
Mg252 O253 1.963 . S
Mg252 O263 1.942 . S
Mg252 O264 1.955 1_545 S
Mg252 O271 1.986 . S
O253 Mg251 1.936 . S
O253 Mg252 1.963 . S
O253 Mg254 1.915 . S
Mg254 O253 1.915 . S
Mg254 O255 1.915 . S
Mg254 O259 2.013 . S
Mg254 O265 2.114 . S
Mg254 O269 2.013 . S
Mg254 O275 2.114 . S
O255 Mg254 1.915 . S
O255 Mg256 1.936 . S
O255 Mg257 1.963 . S
Mg256 O255 1.936 . S
Mg256 O265 2.291 . S
Mg256 O270 2.081 . S
Mg256 O272 2.023 . S
Mg256 O276 2.031 . S
Mg257 O255 1.963 . S
Mg257 O261 1.986 . S
Mg257 O273 1.942 . S
Mg257 O274 1.955 . S
C258 O269 1.191 . S
C258 O271 1.307 . S
O259 Mg254 2.013 . S
O259 C278 1.191 1_545 S
O260 Mg251 2.081 . S
O260 C268 1.331 . S
O261 Mg257 1.986 . S
O261 C278 1.307 1_545 S
O262 Mg251 2.023 1_565 S
O262 C277 1.264 . S
O263 Mg252 1.942 . S
O263 C268 1.244 . S
O264 Mg252 1.955 1_565 S
O264 C277 1.273 . S
O265 Mg254 2.114 . S
O265 Mg256 2.291 . S
O265 C267 1.312 . S
O266 Mg251 2.031 . S
O266 C267 1.208 . S
C267 O265 1.312 . S
C267 O266 1.208 . S
C268 O260 1.331 . S
C268 O263 1.244 . S
O269 Mg254 2.013 . S
O269 C258 1.191 . S
O270 C249 1.331 . S
O270 Mg256 2.081 . S
O271 Mg252 1.986 . S
O271 C258 1.307 . S
O272 C250 1.264 . S
O272 Mg256 2.023 . S
O273 C249 1.244 . S
O273 Mg257 1.942 . S
O274 C250 1.273 . S
O274 Mg257 1.955 . S
O275 C248 1.312 . S
O275 Mg251 2.291 . S
O275 Mg254 2.114 . S
O276 C248 1.208 . S
O276 Mg256 2.031 . S
C277 O262 1.264 . S
C277 O264 1.273 . S
C278 O259 1.191 1_565 S
C278 O261 1.307 1_565 S
C279 O306 1.312 . S
C279 O307 1.208 . S
C280 O301 1.331 . S
C280 O304 1.244 . S
C281 O303 1.264 . S
C281 O305 1.273 1_565 S
Mg282 O284 1.936 . S
Mg282 O291 2.081 . S
Mg282 O293 2.023 . S
Mg282 O297 2.031 . S
Mg282 O306 2.291 . S
Mg283 O284 1.963 . S
Mg283 O294 1.942 . S
Mg283 O295 1.955 . S
Mg283 O302 1.986 . S
O284 Mg282 1.936 . S
O284 Mg283 1.963 . S
O284 Mg285 1.915 . S
Mg285 O284 1.915 . S
Mg285 O286 1.915 . S
Mg285 O290 2.013 . S
Mg285 O296 2.114 . S
Mg285 O300 2.013 . S
Mg285 O306 2.114 . S
O286 Mg285 1.915 . S
O286 Mg287 1.936 . S
O286 Mg288 1.963 . S
Mg287 O286 1.936 . S
Mg287 O296 2.291 . S
Mg287 O301 2.081 . S
Mg287 O303 2.023 1_545 S
Mg287 O307 2.031 . S
Mg288 O286 1.963 . S
Mg288 O292 1.986 . S
Mg288 O304 1.942 . S
Mg288 O305 1.955 . S
C289 O300 1.191 . S
C289 O302 1.307 . S
O290 Mg285 2.013 . S
O290 C309 1.191 . S
O291 Mg282 2.081 . S
O291 C299 1.331 . S
O292 Mg288 1.986 . S
O292 C309 1.307 . S
O293 Mg282 2.023 . S
O293 C308 1.264 . S
O294 Mg283 1.942 . S
O294 C299 1.244 . S
O295 Mg283 1.955 . S
O295 C308 1.273 . S
O296 Mg285 2.114 . S
O296 Mg287 2.291 . S
O296 C298 1.312 . S
O297 Mg282 2.031 . S
O297 C298 1.208 . S
C298 O296 1.312 . S
C298 O297 1.208 . S
C299 O291 1.331 . S
C299 O294 1.244 . S
O300 Mg285 2.013 . S
O300 C289 1.191 . S
O301 C280 1.331 . S
O301 Mg287 2.081 . S
O302 Mg283 1.986 . S
O302 C289 1.307 . S
O303 C281 1.264 . S
O303 Mg287 2.023 1_565 S
O304 C280 1.244 . S
O304 Mg288 1.942 . S
O305 C281 1.273 1_545 S
O305 Mg288 1.955 . S
O306 C279 1.312 . S
O306 Mg282 2.291 . S
O306 Mg285 2.114 . S
O307 C279 1.208 . S
O307 Mg287 2.031 . S
C308 O293 1.264 . S
C308 O295 1.273 . S
C309 O290 1.191 . S
C309 O292 1.307 . S
C310 O337 1.312 . S
C310 O338 1.208 . S
C311 O332 1.331 . S
C311 O335 1.244 . S
C312 O334 1.264 . S
C312 O336 1.273 . S
Mg313 O315 1.936 . S
Mg313 O322 2.081 . S
Mg313 O324 2.023 . S
Mg313 O328 2.031 . S
Mg313 O337 2.291 . S
Mg314 O315 1.963 . S
Mg314 O325 1.942 . S
Mg314 O326 1.955 . S
Mg314 O333 1.986 1_565 S
O315 Mg313 1.936 . S
O315 Mg314 1.963 . S
O315 Mg316 1.915 . S
Mg316 O315 1.915 . S
Mg316 O317 1.915 . S
Mg316 O321 2.013 . S
Mg316 O327 2.114 . S
Mg316 O331 2.013 . S
Mg316 O337 2.114 . S
O317 Mg316 1.915 . S
O317 Mg318 1.936 . S
O317 Mg319 1.963 . S
Mg318 O317 1.936 . S
Mg318 O327 2.291 . S
Mg318 O332 2.081 . S
Mg318 O334 2.023 . S
Mg318 O338 2.031 . S
Mg319 O317 1.963 . S
Mg319 O323 1.986 1_565 S
Mg319 O335 1.942 . S
Mg319 O336 1.955 . S
C320 O331 1.191 . S
C320 O333 1.307 1_565 S
O321 Mg316 2.013 . S
O321 C340 1.191 1_565 S
O322 Mg313 2.081 . S
O322 C330 1.331 . S
O323 Mg319 1.986 1_545 S
O323 C340 1.307 . S
O324 Mg313 2.023 . S
O324 C339 1.264 . S
O325 Mg314 1.942 . S
O325 C330 1.244 . S
O326 Mg314 1.955 . S
O326 C339 1.273 . S
O327 Mg316 2.114 . S
O327 Mg318 2.291 . S
O327 C329 1.312 . S
O328 Mg313 2.031 . S
O328 C329 1.208 . S
C329 O327 1.312 . S
C329 O328 1.208 . S
C330 O322 1.331 . S
C330 O325 1.244 . S
O331 Mg316 2.013 . S
O331 C320 1.191 . S
O332 C311 1.331 . S
O332 Mg318 2.081 . S
O333 Mg314 1.986 1_545 S
O333 C320 1.307 1_545 S
O334 C312 1.264 . S
O334 Mg318 2.023 . S
O335 C311 1.244 . S
O335 Mg319 1.942 . S
O336 C312 1.273 . S
O336 Mg319 1.955 . S
O337 C310 1.312 . S
O337 Mg313 2.291 . S
O337 Mg316 2.114 . S
O338 C310 1.208 . S
O338 Mg318 2.031 . S
C339 O324 1.264 . S
C339 O326 1.273 . S
C340 O321 1.191 1_545 S
C340 O323 1.307 . S
C341 O368 1.312 1_545 S
C341 O369 1.208 . S
C342 O363 1.331 . S
C342 O366 1.244 . S
C343 O365 1.264 . S
C343 O367 1.273 . S
Mg344 O346 1.936 . S
Mg344 O353 2.081 . S
Mg344 O355 2.023 . S
Mg344 O359 2.031 1_565 S
Mg344 O368 2.291 . S
Mg345 O346 1.963 . S
Mg345 O356 1.942 . S
Mg345 O357 1.955 . S
Mg345 O364 1.986 . S
O346 Mg344 1.936 . S
O346 Mg345 1.963 . S
O346 Mg347 1.915 . S
Mg347 O346 1.915 . S
Mg347 O348 1.915 . S
Mg347 O352 2.013 . S
Mg347 O358 2.114 . S
Mg347 O362 2.013 . S
Mg347 O368 2.114 . S
O348 Mg347 1.915 . S
O348 Mg349 1.936 . S
O348 Mg350 1.963 . S
Mg349 O348 1.936 . S
Mg349 O358 2.291 . S
Mg349 O363 2.081 . S
Mg349 O365 2.023 . S
Mg349 O369 2.031 1_565 S
Mg350 O348 1.963 . S
Mg350 O354 1.986 . S
Mg350 O366 1.942 . S
Mg350 O367 1.955 . S
C351 O362 1.191 . S
C351 O364 1.307 . S
O352 Mg347 2.013 . S
O352 C371 1.191 . S
O353 Mg344 2.081 . S
O353 C361 1.331 . S
O354 Mg350 1.986 . S
O354 C371 1.307 . S
O355 Mg344 2.023 . S
O355 C370 1.264 . S
O356 Mg345 1.942 . S
O356 C361 1.244 . S
O357 Mg345 1.955 . S
O357 C370 1.273 . S
O358 Mg347 2.114 . S
O358 Mg349 2.291 . S
O358 C360 1.312 . S
O359 Mg344 2.031 1_545 S
O359 C360 1.208 1_545 S
C360 O358 1.312 . S
C360 O359 1.208 1_565 S
C361 O353 1.331 . S
C361 O356 1.244 . S
O362 Mg347 2.013 . S
O362 C351 1.191 . S
O363 C342 1.331 . S
O363 Mg349 2.081 . S
O364 Mg345 1.986 . S
O364 C351 1.307 . S
O365 C343 1.264 . S
O365 Mg349 2.023 . S
O366 C342 1.244 . S
O366 Mg350 1.942 . S
O367 C343 1.273 . S
O367 Mg350 1.955 . S
O368 C341 1.312 1_565 S
O368 Mg344 2.291 . S
O368 Mg347 2.114 . S
O369 C341 1.208 . S
O369 Mg349 2.031 1_545 S
C370 O355 1.264 . S
C370 O357 1.273 . S
C371 O352 1.191 . S
C371 O354 1.307 . S
C372 O399 1.312 . S
C372 O400 1.208 . S
C373 O394 1.331 . S
C373 O397 1.244 . S
C374 O396 1.264 . S
C374 O398 1.273 . S
Mg375 O377 1.936 . S
Mg375 O384 2.081 . S
Mg375 O386 2.023 . S
Mg375 O390 2.031 . S
Mg375 O399 2.291 . S
Mg376 O377 1.963 . S
Mg376 O387 1.942 . S
Mg376 O388 1.955 . S
Mg376 O395 1.986 . S
O377 Mg375 1.936 . S
O377 Mg376 1.963 . S
O377 Mg378 1.915 . S
Mg378 O377 1.915 . S
Mg378 O379 1.915 . S
Mg378 O383 2.013 . S
Mg378 O389 2.114 . S
Mg378 O393 2.013 . S
Mg378 O399 2.114 . S
O379 Mg378 1.915 . S
O379 Mg380 1.936 . S
O379 Mg381 1.963 . S
Mg380 O379 1.936 . S
Mg380 O389 2.291 . S
Mg380 O394 2.081 . S
Mg380 O396 2.023 . S
Mg380 O400 2.031 . S
Mg381 O379 1.963 . S
Mg381 O385 1.986 . S
Mg381 O397 1.942 . S
Mg381 O398 1.955 . S
C382 O393 1.191 . S
C382 O395 1.307 . S
O383 Mg378 2.013 . S
O383 C402 1.191 . S
O384 Mg375 2.081 . S
O384 C392 1.331 . S
O385 Mg381 1.986 . S
O385 C402 1.307 . S
O386 Mg375 2.023 . S
O386 C401 1.264 . S
O387 Mg376 1.942 . S
O387 C392 1.244 . S
O388 Mg376 1.955 . S
O388 C401 1.273 . S
O389 Mg378 2.114 . S
O389 Mg380 2.291 . S
O389 C391 1.312 . S
O390 Mg375 2.031 . S
O390 C391 1.208 . S
C391 O389 1.312 . S
C391 O390 1.208 . S
C392 O384 1.331 . S
C392 O387 1.244 . S
O393 Mg378 2.013 . S
O393 C382 1.191 . S
O394 C373 1.331 . S
O394 Mg380 2.081 . S
O395 Mg376 1.986 . S
O395 C382 1.307 . S
O396 C374 1.264 . S
O396 Mg380 2.023 . S
O397 C373 1.244 . S
O397 Mg381 1.942 . S
O398 C374 1.273 . S
O398 Mg381 1.955 . S
O399 C372 1.312 . S
O399 Mg375 2.291 . S
O399 Mg378 2.114 . S
O400 C372 1.208 . S
O400 Mg380 2.031 . S
C401 O386 1.264 . S
C401 O388 1.273 . S
C402 O383 1.191 . S
C402 O385 1.307 . S
C403 O430 1.312 . S
C403 O431 1.208 . S
C404 O425 1.331 . S
C404 O428 1.244 . S
C405 O427 1.264 . S
C405 O429 1.273 . S
Mg406 O408 1.936 . S
Mg406 O415 2.081 . S
Mg406 O417 2.023 . S
Mg406 O421 2.031 . S
Mg406 O430 2.291 . S
Mg407 O408 1.963 . S
Mg407 O418 1.942 . S
Mg407 O419 1.955 . S
Mg407 O426 1.986 . S
O408 Mg406 1.936 . S
O408 Mg407 1.963 . S
O408 Mg409 1.915 . S
Mg409 O408 1.915 . S
Mg409 O410 1.915 . S
Mg409 O414 2.013 . S
Mg409 O420 2.114 . S
Mg409 O424 2.013 . S
Mg409 O430 2.114 . S
O410 Mg409 1.915 . S
O410 Mg411 1.936 . S
O410 Mg412 1.963 . S
Mg411 O410 1.936 . S
Mg411 O420 2.291 . S
Mg411 O425 2.081 . S
Mg411 O427 2.023 . S
Mg411 O431 2.031 . S
Mg412 O410 1.963 . S
Mg412 O416 1.986 . S
Mg412 O428 1.942 . S
Mg412 O429 1.955 . S
C413 O424 1.191 . S
C413 O426 1.307 . S
O414 Mg409 2.013 . S
O414 C433 1.191 . S
O415 Mg406 2.081 . S
O415 C423 1.331 . S
O416 Mg412 1.986 . S
O416 C433 1.307 . S
O417 Mg406 2.023 . S
O417 C432 1.264 . S
O418 Mg407 1.942 . S
O418 C423 1.244 . S
O419 Mg407 1.955 . S
O419 C432 1.273 . S
O420 Mg409 2.114 . S
O420 Mg411 2.291 . S
O420 C422 1.312 . S
O421 Mg406 2.031 . S
O421 C422 1.208 . S
C422 O420 1.312 . S
C422 O421 1.208 . S
C423 O415 1.331 . S
C423 O418 1.244 . S
O424 Mg409 2.013 . S
O424 C413 1.191 . S
O425 C404 1.331 . S
O425 Mg411 2.081 . S
O426 Mg407 1.986 . S
O426 C413 1.307 . S
O427 C405 1.264 . S
O427 Mg411 2.023 . S
O428 C404 1.244 . S
O428 Mg412 1.942 . S
O429 C405 1.273 . S
O429 Mg412 1.955 . S
O430 C403 1.312 . S
O430 Mg406 2.291 . S
O430 Mg409 2.114 . S
O431 C403 1.208 . S
O431 Mg411 2.031 . S
C432 O417 1.264 . S
C432 O419 1.273 . S
C433 O414 1.191 . S
C433 O416 1.307 . S
C434 O461 1.312 . S
C434 O462 1.208 . S
C435 O456 1.331 . S
C435 O459 1.244 . S
C436 O458 1.264 . S
C436 O460 1.273 . S
Mg437 O439 1.936 . S
Mg437 O446 2.081 . S
Mg437 O448 2.023 . S
Mg437 O452 2.031 . S
Mg437 O461 2.291 . S
Mg438 O439 1.963 . S
Mg438 O449 1.942 . S
Mg438 O450 1.955 . S
Mg438 O457 1.986 . S
O439 Mg437 1.936 . S
O439 Mg438 1.963 . S
O439 Mg440 1.915 . S
Mg440 O439 1.915 . S
Mg440 O441 1.915 . S
Mg440 O445 2.013 . S
Mg440 O451 2.114 . S
Mg440 O455 2.013 . S
Mg440 O461 2.114 . S
O441 Mg440 1.915 . S
O441 Mg442 1.936 . S
O441 Mg443 1.963 . S
Mg442 O441 1.936 . S
Mg442 O451 2.291 . S
Mg442 O456 2.081 . S
Mg442 O458 2.023 . S
Mg442 O462 2.031 . S
Mg443 O441 1.963 . S
Mg443 O447 1.986 . S
Mg443 O459 1.942 . S
Mg443 O460 1.955 . S
C444 O455 1.191 . S
C444 O457 1.307 . S
O445 Mg440 2.013 . S
O445 C464 1.191 . S
O446 Mg437 2.081 . S
O446 C454 1.331 . S
O447 Mg443 1.986 . S
O447 C464 1.307 . S
O448 Mg437 2.023 . S
O448 C463 1.264 . S
O449 Mg438 1.942 . S
O449 C454 1.244 . S
O450 Mg438 1.955 . S
O450 C463 1.273 . S
O451 Mg440 2.114 . S
O451 Mg442 2.291 . S
O451 C453 1.312 . S
O452 Mg437 2.031 . S
O452 C453 1.208 . S
C453 O451 1.312 . S
C453 O452 1.208 . S
C454 O446 1.331 . S
C454 O449 1.244 . S
O455 Mg440 2.013 . S
O455 C444 1.191 . S
O456 C435 1.331 . S
O456 Mg442 2.081 . S
O457 Mg438 1.986 . S
O457 C444 1.307 . S
O458 C436 1.264 . S
O458 Mg442 2.023 . S
O459 C435 1.244 . S
O459 Mg443 1.942 . S
O460 C436 1.273 . S
O460 Mg443 1.955 . S
O461 C434 1.312 . S
O461 Mg437 2.291 . S
O461 Mg440 2.114 . S
O462 C434 1.208 . S
O462 Mg442 2.031 . S
C463 O448 1.264 . S
C463 O450 1.273 . S
C464 O445 1.191 . S
C464 O447 1.307 . S
C465 O492 1.312 . S
C465 O493 1.208 . S
C466 O487 1.331 . S
C466 O490 1.244 . S
C467 O489 1.264 . S
C467 O491 1.273 . S
Mg468 O470 1.936 . S
Mg468 O477 2.081 . S
Mg468 O479 2.023 . S
Mg468 O483 2.031 . S
Mg468 O492 2.291 . S
Mg469 O470 1.963 . S
Mg469 O480 1.942 . S
Mg469 O481 1.955 . S
Mg469 O488 1.986 . S
O470 Mg468 1.936 . S
O470 Mg469 1.963 . S
O470 Mg471 1.915 . S
Mg471 O470 1.915 . S
Mg471 O472 1.915 . S
Mg471 O476 2.013 . S
Mg471 O482 2.114 . S
Mg471 O486 2.013 . S
Mg471 O492 2.114 . S
O472 Mg471 1.915 . S
O472 Mg473 1.936 . S
O472 Mg474 1.963 . S
Mg473 O472 1.936 . S
Mg473 O482 2.291 . S
Mg473 O487 2.081 . S
Mg473 O489 2.023 . S
Mg473 O493 2.031 . S
Mg474 O472 1.963 . S
Mg474 O478 1.986 . S
Mg474 O490 1.942 . S
Mg474 O491 1.955 . S
C475 O486 1.191 . S
C475 O488 1.307 . S
O476 Mg471 2.013 . S
O476 C495 1.191 . S
O477 Mg468 2.081 . S
O477 C485 1.331 . S
O478 Mg474 1.986 . S
O478 C495 1.307 . S
O479 Mg468 2.023 . S
O479 C494 1.264 . S
O480 Mg469 1.942 . S
O480 C485 1.244 . S
O481 Mg469 1.955 . S
O481 C494 1.273 . S
O482 Mg471 2.114 . S
O482 Mg473 2.291 . S
O482 C484 1.312 . S
O483 Mg468 2.031 . S
O483 C484 1.208 . S
C484 O482 1.312 . S
C484 O483 1.208 . S
C485 O477 1.331 . S
C485 O480 1.244 . S
O486 Mg471 2.013 . S
O486 C475 1.191 . S
O487 C466 1.331 . S
O487 Mg473 2.081 . S
O488 Mg469 1.986 . S
O488 C475 1.307 . S
O489 C467 1.264 . S
O489 Mg473 2.023 . S
O490 C466 1.244 . S
O490 Mg474 1.942 . S
O491 C467 1.273 . S
O491 Mg474 1.955 . S
O492 C465 1.312 . S
O492 Mg468 2.291 . S
O492 Mg471 2.114 . S
O493 C465 1.208 . S
O493 Mg473 2.031 . S
C494 O479 1.264 . S
C494 O481 1.273 . S
C495 O476 1.191 . S
C495 O478 1.307 . S
C496 C497 1.369 . S
C496 C498 1.419 . S
C496 H500 0.930 . S
C497 C496 1.369 . S
C497 C506 1.429 . S
C498 C496 1.419 . S
C498 C499 1.363 . S
C498 H501 0.929 . S
C499 C498 1.363 . S
C499 C505 1.428 . S
H500 C496 0.930 . S
H501 C498 0.929 . S
S502 N503 1.613 . S
S502 N504 1.610 . S
N503 S502 1.613 . S
N503 C506 1.350 . S
N504 S502 1.610 . S
N504 C505 1.351 . S
C505 C499 1.428 . S
C505 N504 1.351 . S
C505 C506 1.434 . S
C506 C497 1.429 . S
C506 N503 1.350 . S
C506 C505 1.434 . S
C507 C508 1.369 . S
C507 C509 1.419 . S
C507 H511 0.930 . S
C508 C507 1.369 . S
C508 C517 1.429 . S
C509 C507 1.419 . S
C509 C510 1.363 . S
C509 H512 0.929 . S
C510 C509 1.363 . S
C510 C516 1.428 . S
H511 C507 0.930 . S
H512 C509 0.929 . S
S513 N514 1.613 . S
S513 N515 1.610 . S
N514 S513 1.613 . S
N514 C517 1.350 . S
N515 S513 1.610 . S
N515 C516 1.351 . S
C516 C510 1.428 . S
C516 N515 1.351 . S
C516 C517 1.434 . S
C517 C508 1.429 . S
C517 N514 1.350 . S
C517 C516 1.434 . S
C518 C519 1.369 . S
C518 C520 1.419 . S
C518 H522 0.930 1_565 S
C519 C518 1.369 . S
C519 C528 1.429 . S
C520 C518 1.419 . S
C520 C521 1.363 . S
C520 H523 0.929 . S
C521 C520 1.363 . S
C521 C527 1.428 . S
H522 C518 0.930 1_545 S
H523 C520 0.929 . S
S524 N525 1.613 . S
S524 N526 1.610 . S
N525 S524 1.613 . S
N525 C528 1.350 . S
N526 S524 1.610 . S
N526 C527 1.351 . S
C527 C521 1.428 . S
C527 N526 1.351 . S
C527 C528 1.434 . S
C528 C519 1.429 . S
C528 N525 1.350 . S
C528 C527 1.434 . S
C529 C530 1.369 . S
C529 C531 1.419 . S
C529 H533 0.930 . S
C530 C529 1.369 . S
C530 C539 1.429 . S
C531 C529 1.419 . S
C531 C532 1.363 . S
C531 H534 0.929 . S
C532 C531 1.363 . S
C532 C538 1.428 . S
H533 C529 0.930 . S
H534 C531 0.929 . S
S535 N536 1.613 . S
S535 N537 1.610 . S
N536 S535 1.613 . S
N536 C539 1.350 . S
N537 S535 1.610 . S
N537 C538 1.351 . S
C538 C532 1.428 . S
C538 N537 1.351 . S
C538 C539 1.434 . S
C539 C530 1.429 . S
C539 N536 1.350 . S
C539 C538 1.434 . S
C540 C541 1.369 . S
C540 C542 1.419 . S
C540 H544 0.930 . S
C541 C540 1.369 . S
C541 C550 1.429 . S
C542 C540 1.419 . S
C542 C543 1.363 . S
C542 H545 0.929 . S
C543 C542 1.363 . S
C543 C549 1.428 . S
H544 C540 0.930 . S
H545 C542 0.929 . S
S546 N547 1.613 . S
S546 N548 1.610 . S
N547 S546 1.613 . S
N547 C550 1.350 . S
N548 S546 1.610 . S
N548 C549 1.351 . S
C549 C543 1.428 . S
C549 N548 1.351 . S
C549 C550 1.434 . S
C550 C541 1.429 . S
C550 N547 1.350 . S
C550 C549 1.434 . S
C551 C552 1.369 . S
C551 C553 1.419 . S
C551 H555 0.930 . S
C552 C551 1.369 . S
C552 C561 1.429 . S
C553 C551 1.419 . S
C553 C554 1.363 . S
C553 H556 0.929 . S
C554 C553 1.363 . S
C554 C560 1.428 . S
H555 C551 0.930 . S
H556 C553 0.929 . S
S557 N558 1.613 . S
S557 N559 1.610 . S
N558 S557 1.613 . S
N558 C561 1.350 . S
N559 S557 1.610 . S
N559 C560 1.351 . S
C560 C554 1.428 . S
C560 N559 1.351 . S
C560 C561 1.434 . S
C561 C552 1.429 . S
C561 N558 1.350 . S
C561 C560 1.434 . S
C562 C563 1.369 . S
C562 C564 1.419 . S
C562 H566 0.930 . S
C563 C562 1.369 . S
C563 C572 1.429 . S
C564 C562 1.419 . S
C564 C565 1.363 . S
C564 H567 0.929 . S
C565 C564 1.363 . S
C565 C571 1.428 . S
H566 C562 0.930 . S
H567 C564 0.929 . S
S568 N569 1.613 . S
S568 N570 1.610 . S
N569 S568 1.613 . S
N569 C572 1.350 . S
N570 S568 1.610 . S
N570 C571 1.351 . S
C571 C565 1.428 . S
C571 N570 1.351 . S
C571 C572 1.434 . S
C572 C563 1.429 . S
C572 N569 1.350 . S
C572 C571 1.434 . S
C573 C574 1.369 . S
C573 C575 1.419 . S
C573 H577 0.930 . S
C574 C573 1.369 . S
C574 C583 1.429 . S
C575 C573 1.419 . S
C575 C576 1.363 . S
C575 H578 0.929 . S
C576 C575 1.363 . S
C576 C582 1.428 . S
H577 C573 0.930 . S
H578 C575 0.929 . S
S579 N580 1.613 . S
S579 N581 1.610 . S
N580 S579 1.613 . S
N580 C583 1.350 . S
N581 S579 1.610 . S
N581 C582 1.351 . S
C582 C576 1.428 . S
C582 N581 1.351 . S
C582 C583 1.434 . S
C583 C574 1.429 . S
C583 N580 1.350 . S
C583 C582 1.434 . S
C584 C585 1.369 . S
C584 C586 1.419 . S
C584 H588 0.930 . S
C585 C584 1.369 . S
C585 C594 1.429 . S
C586 C584 1.419 . S
C586 C587 1.363 . S
C586 H589 0.929 . S
C587 C586 1.363 . S
C587 C593 1.428 . S
H588 C584 0.930 . S
H589 C586 0.929 . S
S590 N591 1.613 . S
S590 N592 1.610 . S
N591 S590 1.613 . S
N591 C594 1.350 . S
N592 S590 1.610 . S
N592 C593 1.351 . S
C593 C587 1.428 . S
C593 N592 1.351 . S
C593 C594 1.434 . S
C594 C585 1.429 . S
C594 N591 1.350 . S
C594 C593 1.434 . S
C595 C596 1.369 . S
C595 C597 1.419 . S
C595 H599 0.930 . S
C596 C595 1.369 . S
C596 C605 1.429 . S
C597 C595 1.419 . S
C597 C598 1.363 . S
C597 H600 0.929 . S
C598 C597 1.363 . S
C598 C604 1.428 . S
H599 C595 0.930 . S
H600 C597 0.929 . S
S601 N602 1.613 . S
S601 N603 1.610 . S
N602 S601 1.613 . S
N602 C605 1.350 . S
N603 S601 1.610 . S
N603 C604 1.351 . S
C604 C598 1.428 . S
C604 N603 1.351 . S
C604 C605 1.434 . S
C605 C596 1.429 . S
C605 N602 1.350 . S
C605 C604 1.434 . S
C606 C607 1.369 . S
C606 C608 1.419 . S
C606 H610 0.930 . S
C607 C606 1.369 . S
C607 C616 1.429 . S
C608 C606 1.419 . S
C608 C609 1.363 . S
C608 H611 0.929 . S
C609 C608 1.363 . S
C609 C615 1.428 . S
H610 C606 0.930 . S
H611 C608 0.929 . S
S612 N613 1.613 . S
S612 N614 1.610 . S
N613 S612 1.613 . S
N613 C616 1.350 . S
N614 S612 1.610 . S
N614 C615 1.351 . S
C615 C609 1.428 . S
C615 N614 1.351 . S
C615 C616 1.434 . S
C616 C607 1.429 . S
C616 N613 1.350 . S
C616 C615 1.434 . S
C617 C618 1.369 . S
C617 C619 1.419 . S
C617 H621 0.930 . S
C618 C617 1.369 . S
C618 C627 1.429 . S
C619 C617 1.419 . S
C619 C620 1.363 . S
C619 H622 0.929 . S
C620 C619 1.363 . S
C620 C626 1.428 . S
H621 C617 0.930 . S
H622 C619 0.929 . S
S623 N624 1.612 1_545 S
S623 N625 1.610 1_545 S
N624 S623 1.612 1_565 S
N624 C627 1.353 . S
N625 S623 1.610 1_565 S
N625 C626 1.351 . S
C626 C620 1.428 . S
C626 N625 1.351 . S
C626 C627 1.434 . S
C627 C618 1.429 . S
C627 N624 1.353 . S
C627 C626 1.434 . S
C628 C629 1.369 . S
C628 C630 1.419 . S
C628 H632 0.930 . S
C629 C628 1.369 . S
C629 C638 1.429 . S
C630 C628 1.419 . S
C630 C631 1.363 . S
C630 H633 0.929 . S
C631 C630 1.363 . S
C631 C637 1.428 . S
H632 C628 0.930 . S
H633 C630 0.929 . S
S634 N635 1.613 . S
S634 N636 1.610 1_565 S
N635 S634 1.613 . S
N635 C638 1.350 1_565 S
N636 S634 1.610 1_545 S
N636 C637 1.351 . S
C637 C631 1.428 . S
C637 N636 1.351 . S
C637 C638 1.434 . S
C638 C629 1.429 . S
C638 N635 1.350 1_545 S
C638 C637 1.434 . S
C639 C640 1.369 . S
C639 C641 1.419 . S
C639 H643 0.930 . S
C640 C639 1.369 . S
C640 C649 1.429 . S
C641 C639 1.419 . S
C641 C642 1.363 . S
C641 H644 0.929 . S
C642 C641 1.363 . S
C642 C648 1.428 . S
H643 C639 0.930 . S
H644 C641 0.929 . S
S645 N646 1.613 . S
S645 N647 1.610 . S
N646 S645 1.613 . S
N646 C649 1.350 . S
N647 S645 1.610 . S
N647 C648 1.351 . S
C648 C642 1.428 . S
C648 N647 1.351 . S
C648 C649 1.434 . S
C649 C640 1.429 . S
C649 N646 1.350 . S
C649 C648 1.434 . S
C650 C651 1.369 . S
C650 C652 1.419 . S
C650 H654 0.930 . S
C651 C650 1.369 . S
C651 C660 1.429 . S
C652 C650 1.419 . S
C652 C653 1.363 . S
C652 H655 0.929 . S
C653 C652 1.363 . S
C653 C659 1.428 . S
H654 C650 0.930 . S
H655 C652 0.929 . S
S656 N657 1.613 . S
S656 N658 1.610 . S
N657 S656 1.613 . S
N657 C660 1.350 . S
N658 S656 1.610 . S
N658 C659 1.351 . S
C659 C653 1.428 . S
C659 N658 1.351 . S
C659 C660 1.434 . S
C660 C651 1.429 . S
C660 N657 1.350 . S
C660 C659 1.434 . S
C661 C662 1.369 . S
C661 C663 1.419 . S
C661 H665 0.930 . S
C662 C661 1.369 . S
C662 C671 1.429 . S
C663 C661 1.419 . S
C663 C664 1.363 . S
C663 H666 0.929 . S
C664 C663 1.363 . S
C664 C670 1.428 . S
H665 C661 0.930 . S
H666 C663 0.929 . S
S667 N668 1.613 . S
S667 N669 1.610 . S
N668 S667 1.613 . S
N668 C671 1.350 . S
N669 S667 1.610 . S
N669 C670 1.351 . S
C670 C664 1.428 . S
C670 N669 1.351 . S
C670 C671 1.434 . S
C671 C662 1.429 . S
C671 N668 1.350 . S
C671 C670 1.434 . S
C672 C673 1.369 . S
C672 C674 1.419 . S
C672 H676 0.930 . S
C673 C672 1.369 . S
C673 C682 1.429 . S
C674 C672 1.419 . S
C674 C675 1.363 . S
C674 H677 0.929 . S
C675 C674 1.363 . S
C675 C681 1.428 . S
H676 C672 0.930 . S
H677 C674 0.929 . S
S678 N679 1.613 . S
S678 N680 1.610 . S
N679 S678 1.613 . S
N679 C682 1.350 . S
N680 S678 1.610 . S
N680 C681 1.351 . S
C681 C675 1.428 . S
C681 N680 1.351 . S
C681 C682 1.434 . S
C682 C673 1.429 . S
C682 N679 1.350 . S
C682 C681 1.434 . S
C683 C684 1.369 . S
C683 C685 1.419 . S
C683 H687 0.930 . S
C684 C683 1.369 . S
C684 C693 1.429 . S
C685 C683 1.419 . S
C685 C686 1.363 . S
C685 H688 0.929 . S
C686 C685 1.363 . S
C686 C692 1.428 . S
H687 C683 0.930 . S
H688 C685 0.929 . S
S689 N690 1.613 . S
S689 N691 1.610 . S
N690 S689 1.613 . S
N690 C693 1.350 . S
N691 S689 1.610 . S
N691 C692 1.351 . S
C692 C686 1.428 . S
C692 N691 1.351 . S
C692 C693 1.434 . S
C693 C684 1.429 . S
C693 N690 1.350 . S
C693 C692 1.434 . S
C694 C695 1.369 . S
C694 C696 1.419 . S
C694 H698 0.930 . S
C695 C694 1.369 . S
C695 C704 1.429 . S
C696 C694 1.419 . S
C696 C697 1.363 . S
C696 H699 0.929 . S
C697 C696 1.363 . S
C697 C703 1.428 . S
H698 C694 0.930 . S
H699 C696 0.929 . S
S700 N701 1.613 . S
S700 N702 1.610 . S
N701 S700 1.613 . S
N701 C704 1.350 . S
N702 S700 1.610 . S
N702 C703 1.351 . S
C703 C697 1.428 . S
C703 N702 1.351 . S
C703 C704 1.434 . S
C704 C695 1.429 . S
C704 N701 1.350 . S
C704 C703 1.434 . S
C705 C706 1.369 . S
C705 C707 1.419 . S
C705 H709 0.930 . S
C706 C705 1.369 . S
C706 C715 1.429 . S
C707 C705 1.419 . S
C707 C708 1.363 . S
C707 H710 0.929 . S
C708 C707 1.363 . S
C708 C714 1.428 . S
H709 C705 0.930 . S
H710 C707 0.929 . S
S711 N712 1.613 . S
S711 N713 1.610 . S
N712 S711 1.613 . S
N712 C715 1.350 . S
N713 S711 1.610 . S
N713 C714 1.351 . S
C714 C708 1.428 . S
C714 N713 1.351 . S
C714 C715 1.434 . S
C715 C706 1.429 . S
C715 N712 1.350 . S
C715 C714 1.434 . S
C716 C717 1.369 . S
C716 C718 1.419 . S
C716 H720 0.930 . S
C717 C716 1.369 . S
C717 C726 1.429 . S
C718 C716 1.419 . S
C718 C719 1.363 . S
C718 H721 0.929 . S
C719 C718 1.363 . S
C719 C725 1.428 . S
H720 C716 0.930 . S
H721 C718 0.929 . S
S722 N723 1.613 . S
S722 N724 1.610 . S
N723 S722 1.613 . S
N723 C726 1.350 . S
N724 S722 1.610 . S
N724 C725 1.351 . S
C725 C719 1.428 . S
C725 N724 1.351 . S
C725 C726 1.434 . S
C726 C717 1.429 . S
C726 N723 1.350 . S
C726 C725 1.434 . S
C727 C728 1.369 . S
C727 C729 1.419 . S
C727 H731 0.930 . S
C728 C727 1.369 . S
C728 C737 1.429 . S
C729 C727 1.419 . S
C729 C730 1.363 . S
C729 H732 0.929 . S
C730 C729 1.363 . S
C730 C736 1.428 . S
H731 C727 0.930 . S
H732 C729 0.929 . S
S733 N734 1.613 . S
S733 N735 1.610 . S
N734 S733 1.613 . S
N734 C737 1.350 . S
N735 S733 1.610 . S
N735 C736 1.351 . S
C736 C730 1.428 . S
C736 N735 1.351 . S
C736 C737 1.434 . S
C737 C728 1.429 . S
C737 N734 1.350 . S
C737 C736 1.434 . S
C738 C739 1.369 . S
C738 C740 1.419 . S
C738 H742 0.930 . S
C739 C738 1.369 . S
C739 C748 1.429 . S
C740 C738 1.419 . S
C740 C741 1.363 . S
C740 H743 0.929 . S
C741 C740 1.363 . S
C741 C747 1.428 . S
H742 C738 0.930 . S
H743 C740 0.929 . S
S744 N745 1.613 . S
S744 N746 1.610 . S
N745 S744 1.613 . S
N745 C748 1.350 . S
N746 S744 1.610 . S
N746 C747 1.351 . S
C747 C741 1.428 . S
C747 N746 1.351 . S
C747 C748 1.434 . S
C748 C739 1.429 . S
C748 N745 1.350 . S
C748 C747 1.434 . S
C749 C750 1.369 . S
C749 C751 1.419 . S
C749 H753 0.930 . S
C750 C749 1.369 . S
C750 C759 1.429 . S
C751 C749 1.419 . S
C751 C752 1.363 . S
C751 H754 0.929 . S
C752 C751 1.363 . S
C752 C758 1.428 . S
H753 C749 0.930 . S
H754 C751 0.929 . S
S755 N756 1.613 . S
S755 N757 1.610 . S
N756 S755 1.613 . S
N756 C759 1.350 . S
N757 S755 1.610 . S
N757 C758 1.351 . S
C758 C752 1.428 . S
C758 N757 1.351 . S
C758 C759 1.434 . S
C759 C750 1.429 . S
C759 N756 1.350 . S
C759 C758 1.434 . S
C760 C761 1.369 . S
C760 C762 1.419 . S
C760 H764 0.930 . S
C761 C760 1.369 . S
C761 C770 1.429 . S
C762 C760 1.419 . S
C762 C763 1.363 . S
C762 H765 0.929 . S
C763 C762 1.363 . S
C763 C769 1.428 . S
H764 C760 0.930 . S
H765 C762 0.929 . S
S766 N767 1.613 . S
S766 N768 1.610 . S
N767 S766 1.613 . S
N767 C770 1.350 . S
N768 S766 1.610 . S
N768 C769 1.351 . S
C769 C763 1.428 . S
C769 N768 1.351 . S
C769 C770 1.434 . S
C770 C761 1.429 . S
C770 N767 1.350 . S
C770 C769 1.434 . S
C771 C772 1.369 . S
C771 C773 1.419 . S
C771 H775 0.930 . S
C772 C771 1.369 . S
C772 C781 1.429 . S
C773 C771 1.419 . S
C773 C774 1.363 . S
C773 H776 0.929 . S
C774 C773 1.363 . S
C774 C780 1.428 . S
H775 C771 0.930 . S
H776 C773 0.929 . S
S777 N778 1.613 . S
S777 N779 1.610 . S
N778 S777 1.613 . S
N778 C781 1.350 . S
N779 S777 1.610 . S
N779 C780 1.351 . S
C780 C774 1.428 . S
C780 N779 1.351 . S
C780 C781 1.434 . S
C781 C772 1.429 . S
C781 N778 1.350 . S
C781 C780 1.434 . S
C782 C783 1.369 . S
C782 C784 1.419 . S
C782 H786 0.930 . S
C783 C782 1.369 . S
C783 C792 1.429 . S
C784 C782 1.419 . S
C784 C785 1.363 . S
C784 H787 0.929 . S
C785 C784 1.363 . S
C785 C791 1.428 . S
H786 C782 0.930 . S
H787 C784 0.929 . S
S788 N789 1.620 . S
S788 N790 1.610 1_565 S
N789 S788 1.620 . S
N789 C792 1.350 . S
N790 S788 1.610 1_545 S
N790 C791 1.351 1_545 S
C791 C785 1.428 . S
C791 N790 1.351 1_565 S
C791 C792 1.434 . S
C792 C783 1.429 . S
C792 N789 1.350 . S
C792 C791 1.434 . S
C793 C794 1.369 . S
C793 C795 1.419 . S
C793 H797 0.930 . S
C794 C793 1.369 . S
C794 C803 1.429 . S
C795 C793 1.419 . S
C795 C796 1.363 . S
C795 H798 0.929 . S
C796 C795 1.363 . S
C796 C802 1.428 . S
H797 C793 0.930 . S
H798 C795 0.929 . S
S799 N800 1.613 . S
S799 N801 1.610 . S
N800 S799 1.613 . S
N800 C803 1.350 . S
N801 S799 1.610 . S
N801 C802 1.351 . S
C802 C796 1.428 . S
C802 N801 1.351 . S
C802 C803 1.434 . S
C803 C794 1.429 . S
C803 N800 1.350 . S
C803 C802 1.434 . S
C804 C805 1.369 . S
C804 C806 1.419 . S
C804 H808 0.930 . S
C805 C804 1.369 . S
C805 C814 1.429 . S
C806 C804 1.419 . S
C806 C807 1.363 . S
C806 H809 0.929 . S
C807 C806 1.363 . S
C807 C813 1.428 . S
H808 C804 0.930 . S
H809 C806 0.929 . S
S810 N811 1.613 . S
S810 N812 1.610 . S
N811 S810 1.613 . S
N811 C814 1.350 . S
N812 S810 1.610 . S
N812 C813 1.351 . S
C813 C807 1.428 . S
C813 N812 1.351 . S
C813 C814 1.434 . S
C814 C805 1.429 . S
C814 N811 1.350 . S
C814 C813 1.434 . S
C815 C816 1.369 . S
C815 C817 1.419 . S
C815 H819 0.930 . S
C816 C815 1.369 . S
C816 C825 1.429 . S
C817 C815 1.419 . S
C817 C818 1.363 . S
C817 H820 0.929 . S
C818 C817 1.363 . S
C818 C824 1.428 . S
H819 C815 0.930 . S
H820 C817 0.929 . S
S821 N822 1.613 . S
S821 N823 1.610 . S
N822 S821 1.613 . S
N822 C825 1.350 . S
N823 S821 1.610 . S
N823 C824 1.351 . S
C824 C818 1.428 . S
C824 N823 1.351 . S
C824 C825 1.434 . S
C825 C816 1.429 . S
C825 N822 1.350 . S
C825 C824 1.434 . S
C826 C827 1.369 . S
C826 C828 1.419 . S
C826 H830 0.930 . S
C827 C826 1.369 . S
C827 C836 1.429 . S
C828 C826 1.419 . S
C828 C829 1.363 . S
C828 H831 0.929 . S
C829 C828 1.363 . S
C829 C835 1.428 . S
H830 C826 0.930 . S
H831 C828 0.929 . S
S832 N833 1.613 . S
S832 N834 1.610 . S
N833 S832 1.613 . S
N833 C836 1.350 . S
N834 S832 1.610 . S
N834 C835 1.351 . S
C835 C829 1.428 . S
C835 N834 1.351 . S
C835 C836 1.434 . S
C836 C827 1.429 . S
C836 N833 1.350 . S
C836 C835 1.434 . S
C837 C838 1.369 . S
C837 C839 1.419 . S
C837 H841 0.930 . S
C838 C837 1.369 . S
C838 C847 1.429 . S
C839 C837 1.419 . S
C839 C840 1.363 . S
C839 H842 0.929 . S
C840 C839 1.363 . S
C840 C846 1.428 . S
H841 C837 0.930 . S
H842 C839 0.929 . S
S843 N844 1.613 1_655 S
S843 N845 1.610 1_655 S
N844 S843 1.613 1_455 S
N844 C847 1.350 . S
N845 S843 1.610 1_455 S
N845 C846 1.351 . S
C846 C840 1.428 . S
C846 N845 1.351 . S
C846 C847 1.434 . S
C847 C838 1.429 . S
C847 N844 1.350 . S
C847 C846 1.434 . S
C848 C849 1.369 . S
C848 C850 1.419 . S
C848 H852 0.930 . S
C849 C848 1.369 . S
C849 C858 1.429 . S
C850 C848 1.419 . S
C850 C851 1.363 . S
C850 H853 0.929 . S
C851 C850 1.363 . S
C851 C857 1.428 . S
H852 C848 0.930 . S
H853 C850 0.929 . S
S854 N855 1.613 . S
S854 N856 1.610 . S
N855 S854 1.613 . S
N855 C858 1.350 . S
N856 S854 1.610 . S
N856 C857 1.351 . S
C857 C851 1.428 . S
C857 N856 1.351 . S
C857 C858 1.434 . S
C858 C849 1.429 . S
C858 N855 1.350 . S
C858 C857 1.434 . S
C859 C860 1.369 . S
C859 C861 1.419 . S
C859 H863 0.930 . S
C860 C859 1.369 . S
C860 C869 1.429 . S
C861 C859 1.419 . S
C861 C862 1.363 . S
C861 H864 0.929 . S
C862 C861 1.363 . S
C862 C868 1.428 . S
H863 C859 0.930 . S
H864 C861 0.929 . S
S865 N866 1.613 . S
S865 N867 1.610 . S
N866 S865 1.613 . S
N866 C869 1.350 . S
N867 S865 1.610 . S
N867 C868 1.351 . S
C868 C862 1.428 . S
C868 N867 1.351 . S
C868 C869 1.434 . S
C869 C860 1.429 . S
C869 N866 1.350 . S
C869 C868 1.434 . S
C870 C871 1.369 . S
C870 C872 1.419 . S
C870 H874 0.930 . S
C871 C870 1.369 . S
C871 C880 1.429 . S
C872 C870 1.419 . S
C872 C873 1.363 . S
C872 H875 0.929 . S
C873 C872 1.363 . S
C873 C879 1.428 . S
H874 C870 0.930 . S
H875 C872 0.929 . S
S876 N877 1.613 . S
S876 N878 1.610 . S
N877 S876 1.613 . S
N877 C880 1.350 . S
N878 S876 1.610 . S
N878 C879 1.351 . S
C879 C873 1.428 . S
C879 N878 1.351 . S
C879 C880 1.434 . S
C880 C871 1.429 . S
C880 N877 1.350 . S
C880 C879 1.434 . S
C881 C882 1.369 . S
C881 C883 1.419 . S
C881 H885 0.930 . S
C882 C881 1.369 . S
C882 C891 1.429 . S
C883 C881 1.419 . S
C883 C884 1.363 . S
C883 H886 0.929 . S
C884 C883 1.363 . S
C884 C890 1.428 . S
H885 C881 0.930 . S
H886 C883 0.929 . S
S887 N888 1.613 . S
S887 N889 1.610 . S
N888 S887 1.613 . S
N888 C891 1.350 . S
N889 S887 1.610 . S
N889 C890 1.351 . S
C890 C884 1.428 . S
C890 N889 1.351 . S
C890 C891 1.434 . S
C891 C882 1.429 . S
C891 N888 1.350 . S
C891 C890 1.434 . S
C892 C893 1.369 . S
C892 C894 1.419 . S
C892 H896 0.930 . S
C893 C892 1.369 . S
C893 C902 1.429 . S
C894 C892 1.419 . S
C894 C895 1.363 . S
C894 H897 0.929 . S
C895 C894 1.363 . S
C895 C901 1.428 . S
H896 C892 0.930 . S
H897 C894 0.929 . S
S898 N899 1.613 . S
S898 N900 1.610 . S
N899 S898 1.613 . S
N899 C902 1.350 . S
N900 S898 1.610 . S
N900 C901 1.351 . S
C901 C895 1.428 . S
C901 N900 1.351 . S
C901 C902 1.434 . S
C902 C893 1.429 . S
C902 N899 1.350 . S
C902 C901 1.434 . S
C903 C904 1.369 . S
C903 C905 1.419 . S
C903 H907 0.930 . S
C904 C903 1.369 . S
C904 C913 1.429 . S
C905 C903 1.419 . S
C905 C906 1.363 . S
C905 H908 0.929 . S
C906 C905 1.363 . S
C906 C912 1.428 . S
H907 C903 0.930 . S
H908 C905 0.929 . S
S909 N910 1.613 . S
S909 N911 1.610 . S
N910 S909 1.613 . S
N910 C913 1.350 . S
N911 S909 1.610 . S
N911 C912 1.351 . S
C912 C906 1.428 . S
C912 N911 1.351 . S
C912 C913 1.434 . S
C913 C904 1.429 . S
C913 N910 1.350 . S
C913 C912 1.434 . S
C914 C915 1.369 . S
C914 C916 1.419 . S
C914 H918 0.930 . S
C915 C914 1.369 . S
C915 C924 1.429 . S
C916 C914 1.419 . S
C916 C917 1.363 . S
C916 H919 0.929 . S
C917 C916 1.363 . S
C917 C923 1.428 . S
H918 C914 0.930 . S
H919 C916 0.929 . S
S920 N921 1.613 . S
S920 N922 1.610 . S
N921 S920 1.613 . S
N921 C924 1.350 . S
N922 S920 1.610 . S
N922 C923 1.351 . S
C923 C917 1.428 . S
C923 N922 1.351 . S
C923 C924 1.434 . S
C924 C915 1.429 . S
C924 N921 1.350 . S
C924 C923 1.434 . S
C925 C926 1.369 . S
C925 C927 1.419 . S
C925 H929 0.930 . S
C926 C925 1.369 . S
C926 C935 1.429 . S
C927 C925 1.419 . S
C927 C928 1.363 . S
C927 H930 0.929 . S
C928 C927 1.363 . S
C928 C934 1.428 . S
H929 C925 0.930 . S
H930 C927 0.929 . S
S931 N932 1.613 . S
S931 N933 1.610 . S
N932 S931 1.613 . S
N932 C935 1.350 . S
N933 S931 1.610 . S
N933 C934 1.351 . S
C934 C928 1.428 . S
C934 N933 1.351 . S
C934 C935 1.434 . S
C935 C926 1.429 . S
C935 N932 1.350 . S
C935 C934 1.434 . S
C936 C937 1.369 . S
C936 C938 1.419 . S
C936 H940 0.930 . S
C937 C936 1.369 . S
C937 C946 1.429 . S
C938 C936 1.419 . S
C938 C939 1.363 . S
C938 H941 0.929 . S
C939 C938 1.363 . S
C939 C945 1.428 . S
H940 C936 0.930 . S
H941 C938 0.929 . S
S942 N943 1.613 . S
S942 N944 1.610 . S
N943 S942 1.613 . S
N943 C946 1.350 . S
N944 S942 1.610 . S
N944 C945 1.351 . S
C945 C939 1.428 . S
C945 N944 1.351 . S
C945 C946 1.434 . S
C946 C937 1.429 . S
C946 N943 1.350 . S
C946 C945 1.434 . S
C947 C948 1.369 . S
C947 C949 1.419 . S
C947 H951 0.930 . S
C948 C947 1.369 . S
C948 C957 1.429 . S
C949 C947 1.419 . S
C949 C950 1.363 . S
C949 H952 0.929 . S
C950 C949 1.363 . S
C950 C956 1.428 . S
H951 C947 0.930 . S
H952 C949 0.929 . S
S953 N954 1.613 . S
S953 N955 1.610 . S
N954 S953 1.613 . S
N954 C957 1.350 . S
N955 S953 1.610 . S
N955 C956 1.351 . S
C956 C950 1.428 . S
C956 N955 1.351 . S
C956 C957 1.434 . S
C957 C948 1.429 . S
C957 N954 1.350 . S
C957 C956 1.434 . S
C958 C959 1.369 . S
C958 C960 1.419 . S
C958 H962 0.930 . S
C959 C958 1.369 . S
C959 C968 1.429 . S
C960 C958 1.419 . S
C960 C961 1.363 . S
C960 H963 0.929 . S
C961 C960 1.363 . S
C961 C967 1.428 . S
H962 C958 0.930 . S
H963 C960 0.929 . S
S964 N965 1.613 . S
S964 N966 1.610 . S
N965 S964 1.613 . S
N965 C968 1.350 . S
N966 S964 1.610 . S
N966 C967 1.351 . S
C967 C961 1.428 . S
C967 N966 1.351 . S
C967 C968 1.434 . S
C968 C959 1.429 . S
C968 N965 1.350 . S
C968 C967 1.434 . S
C969 C970 1.369 . S
C969 C971 1.419 . S
C969 H973 0.930 . S
C970 C969 1.369 . S
C970 C979 1.429 . S
C971 C969 1.419 . S
C971 C972 1.363 . S
C971 H974 0.929 . S
C972 C971 1.363 . S
C972 C978 1.428 . S
H973 C969 0.930 . S
H974 C971 0.929 . S
S975 N976 1.613 . S
S975 N977 1.610 . S
N976 S975 1.613 . S
N976 C979 1.350 . S
N977 S975 1.610 . S
N977 C978 1.351 . S
C978 C972 1.428 . S
C978 N977 1.351 . S
C978 C979 1.434 . S
C979 C970 1.429 . S
C979 N976 1.350 . S
C979 C978 1.434 . S
C980 C981 1.369 . S
C980 C982 1.419 . S
C980 H984 0.930 . S
C981 C980 1.369 . S
C981 C990 1.429 . S
C982 C980 1.419 . S
C982 C983 1.363 . S
C982 H985 0.929 . S
C983 C982 1.363 . S
C983 C989 1.428 . S
H984 C980 0.930 . S
H985 C982 0.929 . S
S986 N987 1.613 . S
S986 N988 1.610 . S
N987 S986 1.613 . S
N987 C990 1.350 . S
N988 S986 1.610 . S
N988 C989 1.351 . S
C989 C983 1.428 . S
C989 N988 1.351 . S
C989 C990 1.434 . S
C990 C981 1.429 . S
C990 N987 1.350 . S
C990 C989 1.434 . S
C991 C992 1.369 . S
C991 C993 1.419 . S
C991 H995 0.930 . S
C992 C991 1.369 . S
C992 C1001 1.429 . S
C993 C991 1.419 . S
C993 C994 1.363 . S
C993 H996 0.929 . S
C994 C993 1.363 . S
C994 C1000 1.428 . S
H995 C991 0.930 . S
H996 C993 0.929 . S
S997 N998 1.613 . S
S997 N999 1.610 . S
N998 S997 1.613 . S
N998 C1001 1.350 . S
N999 S997 1.610 . S
N999 C1000 1.351 . S
C1000 C994 1.428 . S
C1000 N999 1.351 . S
C1000 C1001 1.434 . S
C1001 C992 1.429 . S
C1001 N998 1.350 . S
C1001 C1000 1.434 . S
C1002 C1003 1.369 . S
C1002 C1004 1.419 . S
C1002 H1006 0.930 . S
C1003 C1002 1.369 . S
C1003 C1012 1.429 . S
C1004 C1002 1.419 . S
C1004 C1005 1.363 . S
C1004 H1007 0.929 . S
C1005 C1004 1.363 . S
C1005 C1011 1.428 . S
H1006 C1002 0.930 . S
H1007 C1004 0.929 . S
S1008 N1009 1.613 . S
S1008 N1010 1.610 . S
N1009 S1008 1.613 . S
N1009 C1012 1.350 . S
N1010 S1008 1.610 . S
N1010 C1011 1.351 . S
C1011 C1005 1.428 . S
C1011 N1010 1.351 . S
C1011 C1012 1.434 . S
C1012 C1003 1.429 . S
C1012 N1009 1.350 . S
C1012 C1011 1.434 . S
C1013 C1014 1.369 . S
C1013 C1015 1.419 . S
C1013 H1017 0.930 . S
C1014 C1013 1.369 . S
C1014 C1023 1.429 . S
C1015 C1013 1.419 . S
C1015 C1016 1.363 . S
C1015 H1018 0.929 . S
C1016 C1015 1.363 . S
C1016 C1022 1.428 . S
H1017 C1013 0.930 . S
H1018 C1015 0.929 . S
S1019 N1020 1.613 . S
S1019 N1021 1.610 . S
N1020 S1019 1.613 . S
N1020 C1023 1.350 . S
N1021 S1019 1.610 . S
N1021 C1022 1.351 . S
C1022 C1016 1.428 . S
C1022 N1021 1.351 . S
C1022 C1023 1.434 . S
C1023 C1014 1.429 . S
C1023 N1020 1.350 . S
C1023 C1022 1.434 . S
C1024 C1025 1.369 . S
C1024 C1026 1.419 . S
C1024 H1028 0.930 . S
C1025 C1024 1.369 . S
C1025 C1034 1.429 . S
C1026 C1024 1.419 . S
C1026 C1027 1.363 . S
C1026 H1029 0.929 . S
C1027 C1026 1.363 . S
C1027 C1033 1.428 . S
H1028 C1024 0.930 . S
H1029 C1026 0.929 . S
S1030 N1031 1.613 . S
S1030 N1032 1.610 . S
N1031 S1030 1.613 . S
N1031 C1034 1.350 . S
N1032 S1030 1.610 . S
N1032 C1033 1.351 . S
C1033 C1027 1.428 . S
C1033 N1032 1.351 . S
C1033 C1034 1.434 . S
C1034 C1025 1.429 . S
C1034 N1031 1.350 . S
C1034 C1033 1.434 . S
C1035 C1036 1.369 1_655 S
C1035 C1037 1.419 . S
C1035 H1039 0.930 . S
C1036 C1035 1.369 1_455 S
C1036 C1045 1.429 1_565 S
C1037 C1035 1.419 . S
C1037 C1038 1.363 1_565 S
C1037 H1040 0.929 . S
C1038 C1037 1.363 1_545 S
C1038 C1044 1.428 1_655 S
H1039 C1035 0.930 . S
H1040 C1037 0.929 . S
S1041 N1042 1.613 . S
S1041 N1043 1.610 . S
N1042 S1041 1.613 . S
N1042 C1045 1.350 . S
N1043 S1041 1.610 . S
N1043 C1044 1.351 . S
C1044 C1038 1.428 1_455 S
C1044 N1043 1.351 . S
C1044 C1045 1.434 . S
C1045 C1036 1.429 1_545 S
C1045 N1042 1.350 . S
C1045 C1044 1.434 . S
C1046 C1047 1.369 . S
C1046 C1048 1.419 1_565 S
C1046 H1050 0.930 . S
C1047 C1046 1.369 . S
C1047 C1056 1.429 . S
C1048 C1046 1.419 1_545 S
C1048 C1049 1.363 . S
C1048 H1051 0.929 . S
C1049 C1048 1.363 . S
C1049 C1055 1.428 . S
H1050 C1046 0.930 . S
H1051 C1048 0.929 . S
S1052 N1053 1.613 . S
S1052 N1054 1.610 . S
N1053 S1052 1.613 . S
N1053 C1056 1.350 . S
N1054 S1052 1.610 . S
N1054 C1055 1.351 1_565 S
C1055 C1049 1.428 . S
C1055 N1054 1.351 1_545 S
C1055 C1056 1.434 1_545 S
C1056 C1047 1.429 . S
C1056 N1053 1.350 . S
C1056 C1055 1.434 1_565 S
C1057 C1058 1.369 1_455 S
C1057 C1059 1.419 . S
C1057 H1061 0.930 . S
C1058 C1057 1.369 1_655 S
C1058 C1067 1.429 . S
C1059 C1057 1.419 . S
C1059 C1060 1.363 . S
C1059 H1062 0.929 . S
C1060 C1059 1.363 . S
C1060 C1066 1.428 . S
H1061 C1057 0.930 . S
H1062 C1059 0.929 . S
S1063 N1064 1.613 . S
S1063 N1065 1.610 1_655 S
N1064 S1063 1.613 . S
N1064 C1067 1.350 . S
N1065 S1063 1.610 1_455 S
N1065 C1066 1.351 . S
C1066 C1060 1.428 . S
C1066 N1065 1.351 . S
C1066 C1067 1.434 1_455 S
C1067 C1058 1.429 . S
C1067 N1064 1.350 . S
C1067 C1066 1.434 1_655 S
C1068 C1069 1.369 . S
C1068 C1070 1.419 . S
C1068 H1072 0.930 . S
C1069 C1068 1.369 . S
C1069 C1078 1.429 . S
C1070 C1068 1.419 . S
C1070 C1071 1.363 . S
C1070 H1073 0.929 . S
C1071 C1070 1.363 . S
C1071 C1077 1.428 . S
H1072 C1068 0.930 . S
H1073 C1070 0.929 . S
S1074 N1075 1.613 . S
S1074 N1076 1.610 . S
N1075 S1074 1.613 . S
N1075 C1078 1.350 . S
N1076 S1074 1.610 . S
N1076 C1077 1.351 . S
C1077 C1071 1.428 . S
C1077 N1076 1.351 . S
C1077 C1078 1.434 . S
C1078 C1069 1.429 . S
C1078 N1075 1.350 . S
C1078 C1077 1.434 . S
C1079 C1080 1.369 1_545 S
C1079 C1081 1.419 . S
C1079 H1083 0.930 . S
C1080 C1079 1.369 1_565 S
C1080 C1089 1.429 . S
C1081 C1079 1.419 . S
C1081 C1082 1.363 . S
C1081 H1084 0.929 . S
C1082 C1081 1.363 . S
C1082 C1088 1.428 1_545 S
H1083 C1079 0.930 . S
H1084 C1081 0.929 . S
S1085 N1086 1.613 . S
S1085 N1087 1.610 . S
N1086 S1085 1.613 . S
N1086 C1089 1.350 . S
N1087 S1085 1.610 . S
N1087 C1088 1.351 . S
C1088 C1082 1.428 1_565 S
C1088 N1087 1.351 . S
C1088 C1089 1.434 . S
C1089 C1080 1.429 . S
C1089 N1086 1.350 . S
C1089 C1088 1.434 . S
C1090 C1091 1.369 1_455 S
C1090 C1092 1.419 . S
C1090 H1094 0.929 1_455 S
C1091 C1090 1.369 1_655 S
C1091 C1100 1.429 1_655 S
C1092 C1090 1.419 . S
C1092 C1093 1.363 . S
C1092 H1095 0.929 . S
C1093 C1092 1.363 . S
C1093 C1099 1.428 . S
H1094 C1090 0.929 1_655 S
H1095 C1092 0.929 . S
S1096 N1097 1.613 . S
S1096 N1098 1.610 . S
N1097 S1096 1.613 . S
N1097 C1100 1.350 . S
N1098 S1096 1.610 . S
N1098 C1099 1.351 . S
C1099 C1093 1.428 . S
C1099 N1098 1.351 . S
C1099 C1100 1.434 . S
C1100 C1091 1.429 1_455 S
C1100 N1097 1.350 . S
C1100 C1099 1.434 . S
C1101 C1102 1.369 . S
C1101 C1103 1.419 . S
C1101 H1105 0.930 . S
C1102 C1101 1.369 . S
C1102 C1111 1.429 1_554 S
C1103 C1101 1.419 . S
C1103 C1104 1.363 1_554 S
C1103 H1106 0.929 . S
C1104 C1103 1.363 1_556 S
C1104 C1110 1.428 . S
H1105 C1101 0.930 . S
H1106 C1103 0.929 . S
S1107 N1108 1.613 . S
S1107 N1109 1.610 . S
N1108 S1107 1.613 . S
N1108 C1111 1.350 . S
N1109 S1107 1.610 . S
N1109 C1110 1.351 . S
C1110 C1104 1.428 . S
C1110 N1109 1.351 . S
C1110 C1111 1.434 . S
C1111 C1102 1.429 1_556 S
C1111 N1108 1.350 . S
C1111 C1110 1.434 . S
C1112 C1113 1.369 1_455 S
C1112 C1114 1.478 . S
C1112 H1116 0.930 . S
C1113 C1112 1.369 1_655 S
C1113 C1122 1.429 . S
C1114 C1112 1.478 . S
C1114 C1115 1.318 1_556 S
C1114 H1117 0.913 1_556 S
C1115 C1114 1.318 1_554 S
C1115 C1121 1.428 1_455 S
H1116 C1112 0.930 . S
H1117 C1114 0.913 1_554 S
S1118 N1119 1.613 1_554 S
S1118 N1120 1.610 . S
N1119 S1118 1.613 1_556 S
N1119 C1122 1.350 . S
N1120 S1118 1.610 . S
N1120 C1121 1.351 . S
C1121 C1115 1.428 1_655 S
C1121 N1120 1.351 . S
C1121 C1122 1.434 1_554 S
C1122 C1113 1.429 . S
C1122 N1119 1.350 . S
C1122 C1121 1.434 1_556 S
C1123 C1124 1.369 . S
C1123 C1125 1.419 . S
C1123 H1127 0.930 . S
C1124 C1123 1.369 . S
C1124 C1133 1.429 . S
C1125 C1123 1.419 . S
C1125 C1126 1.363 . S
C1125 H1128 0.929 . S
C1126 C1125 1.363 . S
C1126 C1132 1.428 . S
H1127 C1123 0.930 . S
H1128 C1125 0.929 . S
S1129 N1130 1.613 . S
S1129 N1131 1.610 . S
N1130 S1129 1.613 . S
N1130 C1133 1.350 . S
N1131 S1129 1.610 . S
N1131 C1132 1.351 . S
C1132 C1126 1.428 . S
C1132 N1131 1.351 . S
C1132 C1133 1.434 . S
C1133 C1124 1.429 . S
C1133 N1130 1.350 . S
C1133 C1132 1.434 . S
C1134 C1135 1.369 1_554 S
C1134 C1136 1.419 . S
C1134 H1138 0.930 . S
C1135 C1134 1.369 1_556 S
C1135 C1144 1.429 . S
C1136 C1134 1.419 . S
C1136 C1137 1.363 . S
C1136 H1139 0.929 . S
C1137 C1136 1.363 . S
C1137 C1143 1.431 . S
H1138 C1134 0.930 . S
H1139 C1136 0.929 . S
S1140 N1141 1.613 . S
S1140 N1142 1.610 . S
N1141 S1140 1.613 . S
N1141 C1144 1.350 . S
N1142 S1140 1.610 . S
N1142 C1143 1.350 1_556 S
C1143 C1137 1.431 . S
C1143 N1142 1.350 1_554 S
C1143 C1144 1.431 1_554 S
C1144 C1135 1.429 . S
C1144 N1141 1.350 . S
C1144 C1143 1.431 1_556 S
C1145 C1146 1.369 . S
C1145 C1147 1.419 . S
C1145 H1149 0.930 . S
C1146 C1145 1.369 . S
C1146 C1155 1.429 . S
C1147 C1145 1.419 . S
C1147 C1148 1.363 . S
C1147 H1150 0.929 . S
C1148 C1147 1.363 . S
C1148 C1154 1.428 . S
H1149 C1145 0.930 . S
H1150 C1147 0.929 . S
S1151 N1152 1.613 . S
S1151 N1153 1.610 . S
N1152 S1151 1.613 . S
N1152 C1155 1.350 . S
N1153 S1151 1.610 . S
N1153 C1154 1.351 . S
C1154 C1148 1.428 . S
C1154 N1153 1.351 . S
C1154 C1155 1.434 . S
C1155 C1146 1.429 . S
C1155 N1152 1.350 . S
C1155 C1154 1.434 . S
C1156 C1157 1.369 . S
C1156 C1158 1.419 1_546 S
C1156 H1160 0.930 . S
C1157 C1156 1.369 . S
C1157 C1166 1.429 1_545 S
C1158 C1156 1.419 1_564 S
C1158 C1159 1.363 . S
C1158 H1161 0.929 . S
C1159 C1158 1.363 . S
C1159 C1165 1.428 1_554 S
H1160 C1156 0.930 . S
H1161 C1158 0.929 . S
S1162 N1163 1.613 . S
S1162 N1164 1.610 . S
N1163 S1162 1.613 . S
N1163 C1166 1.350 . S
N1164 S1162 1.610 . S
N1164 C1165 1.351 . S
C1165 C1159 1.428 1_556 S
C1165 N1164 1.351 . S
C1165 C1166 1.434 . S
C1166 C1157 1.429 1_565 S
C1166 N1163 1.350 . S
C1166 C1165 1.434 . S
C1167 C1168 1.369 . S
C1167 C1169 1.419 . S
C1167 H1171 0.930 . S
C1168 C1167 1.369 . S
C1168 C1177 1.429 . S
C1169 C1167 1.419 . S
C1169 C1170 1.363 . S
C1169 H1172 0.929 . S
C1170 C1169 1.363 . S
C1170 C1176 1.428 . S
H1171 C1167 0.930 . S
H1172 C1169 0.929 . S
S1173 N1174 1.613 . S
S1173 N1175 1.610 . S
N1174 S1173 1.613 . S
N1174 C1177 1.350 . S
N1175 S1173 1.610 . S
N1175 C1176 1.351 . S
C1176 C1170 1.428 . S
C1176 N1175 1.351 . S
C1176 C1177 1.434 . S
C1177 C1168 1.429 . S
C1177 N1174 1.350 . S
C1177 C1176 1.434 . S
C1178 C1179 1.369 . S
C1178 C1180 1.419 . S
C1178 H1182 0.930 . S
C1179 C1178 1.369 . S
C1179 C1188 1.429 . S
C1180 C1178 1.419 . S
C1180 C1181 1.363 . S
C1180 H1183 0.929 . S
C1181 C1180 1.363 . S
C1181 C1187 1.428 . S
H1182 C1178 0.930 . S
H1183 C1180 0.929 . S
S1184 N1185 1.613 . S
S1184 N1186 1.610 . S
N1185 S1184 1.613 . S
N1185 C1188 1.350 . S
N1186 S1184 1.610 . S
N1186 C1187 1.351 . S
C1187 C1181 1.428 . S
C1187 N1186 1.351 . S
C1187 C1188 1.434 . S
C1188 C1179 1.429 . S
C1188 N1185 1.350 . S
C1188 C1187 1.434 . S
C1189 C1190 1.369 . S
C1189 C1191 1.419 . S
C1189 H1193 0.930 . S
C1190 C1189 1.369 . S
C1190 C1199 1.429 . S
C1191 C1189 1.419 . S
C1191 C1192 1.363 . S
C1191 H1194 0.929 . S
C1192 C1191 1.363 . S
C1192 C1198 1.428 . S
H1193 C1189 0.930 . S
H1194 C1191 0.929 . S
S1195 N1196 1.613 . S
S1195 N1197 1.610 . S
N1196 S1195 1.613 . S
N1196 C1199 1.350 . S
N1197 S1195 1.610 . S
N1197 C1198 1.351 . S
C1198 C1192 1.428 . S
C1198 N1197 1.351 . S
C1198 C1199 1.434 . S
C1199 C1190 1.429 . S
C1199 N1196 1.350 . S
C1199 C1198 1.434 . S
C497 C2 0.773 . S
C499 C374 0.783 . S
C508 C29 0.782 . S
C510 C401 0.776 . S
C519 C60 0.793 . S
C521 C405 0.765 . S
C530 C33 0.791 . S
C532 C432 0.770 . S
C541 C464 1.795 . S
C543 C81 1.778 . S
C552 C92 1.795 . S
C554 C453 1.779 . S
C563 C93 1.774 . S
C565 C475 1.797 . S
C574 C103 1.794 . S
C576 C465 1.778 . S
C585 C277 0.785 . S
C587 C126 0.774 . S
C596 C250 0.777 . S
C598 C153 0.780 . S
C607 C308 0.770 . S
C609 C184 0.785 . S
C618 C281 0.771 . S
C620 C157 0.784 . S
C629 C340 1.795 . S
C631 C205 1.777 . S
C640 C216 1.795 . S
C642 C329 1.779 . S
C651 C351 1.794 . S
C653 C236 1.779 . S
C662 C247 1.792 . S
C664 C341 1.781 . S
C673 C30 1.825 . S
C675 C372 1.769 . S
C684 C19 1.768 . S
C686 C382 1.824 . S
C695 C41 1.825 . S
C697 C403 1.769 . S
C706 C413 1.818 . S
C708 C31 1.775 1_565 S
C717 C434 1.768 . S
C719 C72 1.801 1_545 S
C728 C444 1.800 . S
C730 C62 1.765 . S
C739 C484 1.768 . S
C741 C123 1.801 . S
C750 C495 1.803 . S
C752 C112 1.763 1_545 S
C761 C154 1.818 . S
C763 C267 1.776 . S
C772 C143 1.767 . S
C774 C278 1.824 . S
C783 C165 1.824 . S
C785 C298 1.770 1_565 S
C794 C155 1.771 . S
C796 C309 1.822 . S
C805 C310 1.765 . S
C807 C196 1.802 . S
C816 C320 1.801 1_545 S
C818 C186 1.765 . S
C827 C360 1.759 1_545 S
C829 C227 1.806 . S
C838 C217 1.758 . S
C840 C371 1.806 . S
C849 C10 1.584 . S
C851 C299 1.616 . S
C860 C289 1.582 . S
C862 C20 1.617 . S
C871 C268 1.613 . S
C873 C61 1.588 . S
C882 C258 1.588 . S
C884 C32 1.614 . S
C893 C361 1.649 . S
C895 C64 1.665 . S
C904 C63 1.656 . S
C906 C370 1.662 . S
C915 C122 1.661 . S
C917 C311 1.654 . S
C926 C113 1.650 . S
C928 C312 1.666 . S
C937 C404 1.617 . S
C939 C134 1.584 . S
C948 C144 1.618 . S
C950 C433 1.583 . S
C959 C185 1.587 . S
C961 C373 1.615 . S
C970 C402 1.582 . S
C972 C156 1.617 . S
C981 C485 1.656 . S
C983 C188 1.662 . S
C992 C494 1.663 . S
C994 C187 1.652 . S
C1003 C435 1.650 . S
C1005 C219 1.666 . S
C1014 C436 1.666 . S
C1016 C218 1.650 . S
C1025 C454 1.395 . S
C1027 C1 1.385 . S
C1036 C91 1.817 . S
C1038 C0 2.075 . S
C1047 C342 1.390 . S
C1049 C51 1.388 . S
C1058 C50 2.076 . S
C1060 C246 1.818 . S
C1069 C392 1.399 . S
C1071 C82 1.390 . S
C1080 C94 1.394 . S
C1082 C280 1.386 . S
C1091 C174 2.074 . S
C1093 C95 1.818 . S
C1102 C330 1.399 . S
C1104 C125 1.384 . S
C1113 C124 2.080 . S
C1115 C215 1.813 . S
C1124 C175 1.400 . S
C1126 C466 1.389 . S
C1135 C249 1.391 . S
C1137 C206 1.388 . S
C1146 C423 1.389 . S
C1148 C237 1.398 . S
C1157 C248 2.076 . S
C1159 C339 1.822 . S
C1168 C279 2.077 . S
C1170 C467 1.820 . S
C1179 C422 2.080 . S
C1181 C343 1.818 . S
C1190 C463 1.817 . S
C1192 C391 2.075 . S
