# Generated by pormake.
# Topology sms, (6)-cn, num edge types: 1
# Building blocks:
#     Node 0, Type 0, BuildingBlock: IZENUY_clean_sbu_0, # of connection points: 6
#     Node 1, Type 0, BuildingBlock: IZENUY_clean_sbu_0, # of connection points: 6
#     Node 2, Type 0, BuildingBlock: IZENUY_clean_sbu_0, # of connection points: 6
#     Node 3, Type 0, BuildingBlock: IZENUY_clean_sbu_0, # of connection points: 6
#     Node 4, Type 0, BuildingBlock: IZENUY_clean_sbu_0, # of connection points: 6
#     Node 5, Type 0, BuildingBlock: IZENUY_clean_sbu_0, # of connection points: 6
#     Node 6, Type 0, BuildingBlock: IZENUY_clean_sbu_0, # of connection points: 6
#     Node 7, Type 0, BuildingBlock: IZENUY_clean_sbu_0, # of connection points: 6
#     Node 8, Type 0, BuildingBlock: IZENUY_clean_sbu_0, # of connection points: 6
#     Node 9, Type 0, BuildingBlock: IZENUY_clean_sbu_0, # of connection points: 6
#     Node 10, Type 0, BuildingBlock: IZENUY_clean_sbu_0, # of connection points: 6
#     Node 11, Type 0, BuildingBlock: IZENUY_clean_sbu_0, # of connection points: 6
#     Node 12, Type 0, BuildingBlock: IZENUY_clean_sbu_0, # of connection points: 6
#     Node 13, Type 0, BuildingBlock: IZENUY_clean_sbu_0, # of connection points: 6
#     Node 14, Type 0, BuildingBlock: IZENUY_clean_sbu_0, # of connection points: 6
#     Node 15, Type 0, BuildingBlock: IZENUY_clean_sbu_0, # of connection points: 6
#     Node 16, Type 0, BuildingBlock: IZENUY_clean_sbu_0, # of connection points: 6
#     Node 17, Type 0, BuildingBlock: IZENUY_clean_sbu_0, # of connection points: 6
#     Edge 18, Type (0, 0), BuildingBlock: TEMPAE_clean_linker_10, # of connection points: 2
#     Edge 19, Type (0, 0), BuildingBlock: TEMPAE_clean_linker_10, # of connection points: 2
#     Edge 20, Type (0, 0), BuildingBlock: TEMPAE_clean_linker_10, # of connection points: 2
#     Edge 21, Type (0, 0), BuildingBlock: TEMPAE_clean_linker_10, # of connection points: 2
#     Edge 22, Type (0, 0), BuildingBlock: TEMPAE_clean_linker_10, # of connection points: 2
#     Edge 23, Type (0, 0), BuildingBlock: TEMPAE_clean_linker_10, # of connection points: 2
#     Edge 24, Type (0, 0), BuildingBlock: TEMPAE_clean_linker_10, # of connection points: 2
#     Edge 25, Type (0, 0), BuildingBlock: TEMPAE_clean_linker_10, # of connection points: 2
#     Edge 26, Type (0, 0), BuildingBlock: TEMPAE_clean_linker_10, # of connection points: 2
#     Edge 27, Type (0, 0), BuildingBlock: TEMPAE_clean_linker_10, # of connection points: 2
#     Edge 28, Type (0, 0), BuildingBlock: TEMPAE_clean_linker_10, # of connection points: 2
#     Edge 29, Type (0, 0), BuildingBlock: TEMPAE_clean_linker_10, # of connection points: 2
#     Edge 30, Type (0, 0), BuildingBlock: TEMPAE_clean_linker_10, # of connection points: 2
#     Edge 31, Type (0, 0), BuildingBlock: TEMPAE_clean_linker_10, # of connection points: 2
#     Edge 32, Type (0, 0), BuildingBlock: TEMPAE_clean_linker_10, # of connection points: 2
#     Edge 33, Type (0, 0), BuildingBlock: TEMPAE_clean_linker_10, # of connection points: 2
#     Edge 34, Type (0, 0), BuildingBlock: TEMPAE_clean_linker_10, # of connection points: 2
#     Edge 35, Type (0, 0), BuildingBlock: TEMPAE_clean_linker_10, # of connection points: 2
#     Edge 36, Type (0, 0), BuildingBlock: TEMPAE_clean_linker_10, # of connection points: 2
#     Edge 37, Type (0, 0), BuildingBlock: TEMPAE_clean_linker_10, # of connection points: 2
#     Edge 38, Type (0, 0), BuildingBlock: TEMPAE_clean_linker_10, # of connection points: 2
#     Edge 39, Type (0, 0), BuildingBlock: TEMPAE_clean_linker_10, # of connection points: 2
#     Edge 40, Type (0, 0), BuildingBlock: TEMPAE_clean_linker_10, # of connection points: 2
#     Edge 41, Type (0, 0), BuildingBlock: TEMPAE_clean_linker_10, # of connection points: 2
#     Edge 42, Type (0, 0), BuildingBlock: TEMPAE_clean_linker_10, # of connection points: 2
#     Edge 43, Type (0, 0), BuildingBlock: TEMPAE_clean_linker_10, # of connection points: 2
#     Edge 44, Type (0, 0), BuildingBlock: TEMPAE_clean_linker_10, # of connection points: 2
#     Edge 45, Type (0, 0), BuildingBlock: TEMPAE_clean_linker_10, # of connection points: 2
#     Edge 46, Type (0, 0), BuildingBlock: TEMPAE_clean_linker_10, # of connection points: 2
#     Edge 47, Type (0, 0), BuildingBlock: TEMPAE_clean_linker_10, # of connection points: 2
#     Edge 48, Type (0, 0), BuildingBlock: TEMPAE_clean_linker_10, # of connection points: 2
#     Edge 49, Type (0, 0), BuildingBlock: TEMPAE_clean_linker_10, # of connection points: 2
#     Edge 50, Type (0, 0), BuildingBlock: TEMPAE_clean_linker_10, # of connection points: 2
#     Edge 51, Type (0, 0), BuildingBlock: TEMPAE_clean_linker_10, # of connection points: 2
#     Edge 52, Type (0, 0), BuildingBlock: TEMPAE_clean_linker_10, # of connection points: 2
#     Edge 53, Type (0, 0), BuildingBlock: TEMPAE_clean_linker_10, # of connection points: 2
#     Edge 54, Type (0, 0), BuildingBlock: TEMPAE_clean_linker_10, # of connection points: 2
#     Edge 55, Type (0, 0), BuildingBlock: TEMPAE_clean_linker_10, # of connection points: 2
#     Edge 56, Type (0, 0), BuildingBlock: TEMPAE_clean_linker_10, # of connection points: 2
#     Edge 57, Type (0, 0), BuildingBlock: TEMPAE_clean_linker_10, # of connection points: 2
#     Edge 58, Type (0, 0), BuildingBlock: TEMPAE_clean_linker_10, # of connection points: 2
#     Edge 59, Type (0, 0), BuildingBlock: TEMPAE_clean_linker_10, # of connection points: 2
#     Edge 60, Type (0, 0), BuildingBlock: TEMPAE_clean_linker_10, # of connection points: 2
#     Edge 61, Type (0, 0), BuildingBlock: TEMPAE_clean_linker_10, # of connection points: 2
#     Edge 62, Type (0, 0), BuildingBlock: TEMPAE_clean_linker_10, # of connection points: 2
#     Edge 63, Type (0, 0), BuildingBlock: TEMPAE_clean_linker_10, # of connection points: 2
#     Edge 64, Type (0, 0), BuildingBlock: TEMPAE_clean_linker_10, # of connection points: 2
#     Edge 65, Type (0, 0), BuildingBlock: TEMPAE_clean_linker_10, # of connection points: 2
#     Edge 66, Type (0, 0), BuildingBlock: TEMPAE_clean_linker_10, # of connection points: 2
#     Edge 67, Type (0, 0), BuildingBlock: TEMPAE_clean_linker_10, # of connection points: 2
#     Edge 68, Type (0, 0), BuildingBlock: TEMPAE_clean_linker_10, # of connection points: 2
#     Edge 69, Type (0, 0), BuildingBlock: TEMPAE_clean_linker_10, # of connection points: 2
#     Edge 70, Type (0, 0), BuildingBlock: TEMPAE_clean_linker_10, # of connection points: 2
#     Edge 71, Type (0, 0), BuildingBlock: TEMPAE_clean_linker_10, # of connection points: 2
# Relax obj value: 0.430
# Max RMSD: 0.158
# Mean RMSD: 0.158
data_MOF--net-sms--node1-IZENUY_clean_sbu_0--edge1-TEMPAE_clean_linker_10
_symmetry_space_group_name_H-M    P1
_symmetry_Int_Tables_number       1
_symmetry_cell_setting            triclinic
loop_
_symmetry_equiv_pos_as_xyz
'x, y, z'
_cell_length_a     38.534384
_cell_length_b     38.552869
_cell_length_c     60.86704
_cell_angle_alpha  90.013491
_cell_angle_beta   90.005778
_cell_angle_gamma 119.98853
loop_
_atom_site_label
_atom_site_type_symbol
_atom_site_fract_x
_atom_site_fract_y
_atom_site_fract_z
_atom_type_partial_charge
Fe0 Fe 0.21934 0.43764 0.08807 0.0
Fe1 Fe 0.17268 0.34762 0.07886 0.0
O2 O 0.19956 0.39775 0.06916 0.0
Fe3 Fe 0.20717 0.40879 0.04082 0.0
O4 O 0.25709 0.45386 0.04435 0.0
O5 O 0.26992 0.45324 0.07947 0.0
O6 O 0.2259 0.40976 0.11018 0.0
C7 C 0.23372 0.38181 0.10886 0.0
C8 C 0.19306 0.46778 0.05403 0.0
O9 O 0.21561 0.35407 0.09506 0.0
C10 C 0.12743 0.34383 0.04303 0.0
O11 O 0.16976 0.42365 0.09726 0.0
O12 O 0.14995 0.35986 0.10242 0.0
O13 O 0.18139 0.43756 0.04186 0.0
O14 O 0.21658 0.47367 0.0698 0.0
C15 C 0.2198 0.34501 0.04362 0.0
O16 O 0.12836 0.3374 0.0633 0.0
O17 O 0.15923 0.36588 0.03238 0.0
C18 C 0.1453 0.39005 0.10538 0.0
O19 O 0.19051 0.32749 0.05683 0.0
O20 O 0.23296 0.3809 0.038 0.0
C21 C 0.28203 0.46417 0.06009 0.0
Fe22 Fe 0.56332 0.79796 0.09389 0.0
Fe23 Fe 0.65283 0.83384 0.08273 0.0
O24 O 0.60174 0.81012 0.07435 0.0
Fe25 Fe 0.58828 0.79848 0.04636 0.0
O26 O 0.54477 0.80583 0.04773 0.0
O27 O 0.54845 0.83051 0.0806 0.0
O28 O 0.59363 0.83924 0.11243 0.0
C29 C 0.62478 0.8724 0.10899 0.0
C30 C 0.52886 0.73123 0.06535 0.0
O31 O 0.6506 0.87573 0.09519 0.0
C32 C 0.65133 0.78185 0.05143 0.0
O33 O 0.5761 0.7652 0.10829 0.0
O34 O 0.64175 0.80599 0.10903 0.0
O35 O 0.55817 0.74541 0.05234 0.0
O36 O 0.52516 0.75368 0.07917 0.0
C37 C 0.65419 0.87306 0.04267 0.0
O38 O 0.6598 0.79449 0.07089 0.0
O39 O 0.62903 0.78937 0.03961 0.0
C40 C 0.61032 0.77475 0.11563 0.0
O41 O 0.67191 0.86504 0.05777 0.0
O42 O 0.61751 0.85029 0.03865 0.0
C43 C 0.53671 0.82619 0.06096 0.0
Fe44 Fe 0.17354 0.82335 0.07827 0.0
Fe45 Fe 0.19816 0.78631 0.04073 0.0
O46 O 0.19471 0.79437 0.069 0.0
Fe47 Fe 0.21312 0.7732 0.08817 0.0
O48 O 0.17937 0.76876 0.11035 0.0
O49 O 0.13598 0.78185 0.09481 0.0
O50 O 0.13567 0.80657 0.05621 0.0
C51 C 0.12385 0.7783 0.04231 0.0
C52 C 0.24283 0.8483 0.10487 0.0
O53 O 0.14489 0.76283 0.03745 0.0
C54 C 0.26989 0.79725 0.05441 0.0
O55 O 0.20902 0.8667 0.06248 0.0
O56 O 0.20519 0.83459 0.03192 0.0
O57 O 0.25035 0.82228 0.09731 0.0
O58 O 0.20879 0.84543 0.10169 0.0
C59 C 0.17429 0.71081 0.06006 0.0
O60 O 0.25247 0.81004 0.04214 0.0
O61 O 0.25118 0.77379 0.07003 0.0
C62 C 0.21579 0.86683 0.04219 0.0
O63 O 0.19079 0.73576 0.04453 0.0
O64 O 0.1764 0.72293 0.07958 0.0
C65 C 0.14504 0.76512 0.10974 0.0
Fe66 Fe 0.41018 0.19962 0.9554 0.0
Fe67 Fe 0.43109 0.21845 0.90704 0.0
O68 O 0.39475 0.19617 0.92779 0.0
Fe69 Fe 0.34329 0.17067 0.92068 0.0
O70 O 0.33414 0.20388 0.93761 0.0
O71 O 0.36681 0.20132 0.9667 0.0
O72 O 0.43607 0.25394 0.95484 0.0
C73 C 0.46379 0.2746 0.9415 0.0
C74 C 0.34856 0.12259 0.95448 0.0
O75 O 0.4682 0.25871 0.92435 0.0
C76 C 0.37357 0.14643 0.88754 0.0
O77 O 0.45639 0.19844 0.94877 0.0
O78 O 0.45156 0.18624 0.91326 0.0
O79 O 0.32824 0.13353 0.94297 0.0
O80 O 0.38538 0.14587 0.9578 0.0
C81 C 0.37725 0.23981 0.89364 0.0
O82 O 0.40088 0.18257 0.88568 0.0
O83 O 0.34948 0.13551 0.90346 0.0
C84 C 0.46556 0.18542 0.93186 0.0
O85 O 0.41247 0.25161 0.9001 0.0
O86 O 0.34956 0.20398 0.89711 0.0
C87 C 0.34243 0.21011 0.95781 0.0
Fe88 Fe 0.83359 0.17154 0.91675 0.0
Fe89 Fe 0.79248 0.19896 0.95063 0.0
O90 O 0.80605 0.19586 0.92328 0.0
Fe91 Fe 0.7923 0.21764 0.90193 0.0
O92 O 0.78982 0.18294 0.88063 0.0
O93 O 0.79348 0.136 0.89882 0.0
O94 O 0.81157 0.13389 0.93871 0.0
C95 C 0.78096 0.12289 0.95069 0.0
C96 C 0.8692 0.24169 0.89084 0.0
O97 O 0.76637 0.14532 0.95373 0.0
C98 C 0.80894 0.27248 0.93646 0.0
O99 O 0.87483 0.20492 0.93432 0.0
O100 O 0.83881 0.20461 0.96265 0.0
O101 O 0.84437 0.25232 0.89635 0.0
O102 O 0.86133 0.20583 0.89371 0.0
C103 C 0.72305 0.1817 0.9253 0.0
O104 O 0.81777 0.25343 0.94996 0.0
O105 O 0.79158 0.25643 0.9187 0.0
C106 C 0.87216 0.2128 0.95418 0.0
O107 O 0.74357 0.1935 0.94292 0.0
O108 O 0.73955 0.18426 0.90696 0.0
C109 C 0.78109 0.14684 0.88247 0.0
Fe110 Fe 0.80997 0.64137 0.9277 0.0
Fe111 Fe 0.7881 0.58309 0.9667 0.0
O112 O 0.78709 0.59187 0.93826 0.0
Fe113 Fe 0.7632 0.55075 0.9203 0.0
O114 O 0.79611 0.57601 0.89702 0.0
O115 O 0.84371 0.63292 0.91026 0.0
O116 O 0.85036 0.66232 0.94842 0.0
C117 C 0.86363 0.64541 0.96107 0.0
C118 C 0.73781 0.59914 0.90291 0.0
O119 O 0.84192 0.60935 0.96664 0.0
C120 C 0.71191 0.5263 0.95692 0.0
O121 O 0.77808 0.65299 0.94453 0.0
O122 O 0.78669 0.62784 0.97516 0.0
O123 O 0.72807 0.56609 0.91193 0.0
O124 O 0.7731 0.62877 0.90517 0.0
C125 C 0.80164 0.52443 0.94709 0.0
O126 O 0.7339 0.55632 0.96856 0.0
O127 O 0.72564 0.5177 0.94025 0.0
C128 C 0.7746 0.64857 0.96514 0.0
O129 O 0.78991 0.53651 0.96331 0.0
O130 O 0.79733 0.53337 0.92777 0.0
C131 C 0.83201 0.60431 0.89677 0.0
Fe132 Fe 0.87835 0.77148 0.42406 0.0
Fe133 Fe 0.84276 0.68327 0.41179 0.0
O134 O 0.86494 0.73423 0.4038 0.0
Fe135 Fe 0.87377 0.7481 0.37576 0.0
O136 O 0.91993 0.7959 0.38079 0.0
O137 O 0.93075 0.79546 0.41624 0.0
O138 O 0.88939 0.74472 0.44528 0.0
C139 C 0.90014 0.71876 0.44353 0.0
C140 C 0.84828 0.79868 0.38996 0.0
O141 O 0.88679 0.69348 0.42807 0.0
C142 C 0.79757 0.6777 0.3757 0.0
O143 O 0.82681 0.7496 0.43276 0.0
O144 O 0.8167 0.68849 0.436 0.0
O145 O 0.84299 0.77154 0.3766 0.0
O146 O 0.86975 0.80527 0.40686 0.0
C147 C 0.89372 0.68963 0.37637 0.0
O148 O 0.79781 0.67022 0.39592 0.0
O149 O 0.8294 0.70273 0.36595 0.0
C150 C 0.80615 0.71427 0.43973 0.0
O151 O 0.86448 0.66889 0.38907 0.0
O152 O 0.905 0.72587 0.37268 0.0
C153 C 0.94361 0.8078 0.39709 0.0
Fe154 Fe 0.26039 0.13798 0.38425 0.0
Fe155 Fe 0.23974 0.11897 0.43269 0.0
O156 O 0.27617 0.14056 0.41174 0.0
Fe157 Fe 0.32768 0.16438 0.4189 0.0
O158 O 0.34433 0.20333 0.39758 0.0
O159 O 0.28852 0.19165 0.3813 0.0
O160 O 0.21758 0.14438 0.39167 0.0
C161 C 0.20989 0.15768 0.40903 0.0
C162 C 0.32622 0.12413 0.3811 0.0
O163 O 0.22239 0.15399 0.42761 0.0
C164 C 0.29061 0.09257 0.44399 0.0
O165 O 0.23038 0.08333 0.38483 0.0
O166 O 0.20011 0.08159 0.41544 0.0
O167 O 0.33651 0.13199 0.401 0.0
O168 O 0.30087 0.13188 0.37254 0.0
C169 C 0.29867 0.18775 0.45332 0.0
O170 O 0.25557 0.0832 0.43812 0.0
O171 O 0.31959 0.12821 0.44128 0.0
C172 C 0.20186 0.06485 0.39808 0.0
O173 O 0.27149 0.15168 0.45463 0.0
O174 O 0.32243 0.19932 0.43722 0.0
C175 C 0.32506 0.21455 0.38542 0.0
Fe176 Fe 0.84087 0.15584 0.41187 0.0
Fe177 Fe 0.87868 0.13221 0.37427 0.0
O178 O 0.86798 0.13277 0.40242 0.0
Fe179 Fe 0.885 0.1103 0.42145 0.0
O180 O 0.83418 0.07451 0.42882 0.0
O181 O 0.81599 0.11953 0.43457 0.0
O182 O 0.7981 0.1233 0.39501 0.0
C183 C 0.79922 0.11889 0.37451 0.0
C184 C 0.89884 0.17935 0.44336 0.0
O185 O 0.83198 0.12899 0.36475 0.0
C186 C 0.95071 0.14943 0.39572 0.0
O187 O 0.86057 0.19524 0.39071 0.0
O188 O 0.90532 0.18613 0.37313 0.0
O189 O 0.88974 0.14311 0.44419 0.0
O190 O 0.88264 0.19061 0.42923 0.0
C191 C 0.86262 0.05759 0.38546 0.0
O192 O 0.92777 0.13585 0.37912 0.0
O193 O 0.93652 0.14552 0.41478 0.0
C194 C 0.89114 0.20814 0.37842 0.0
O195 O 0.85243 0.07768 0.37354 0.0
O196 O 0.8837 0.07295 0.40241 0.0
C197 C 0.80997 0.08409 0.43689 0.0
Fe198 Fe 0.01753 0.50738 0.25567 0.0
Fe199 Fe 0.08047 0.54219 0.29273 0.0
O200 O 0.06814 0.53196 0.26458 0.0
Fe201 Fe 0.10695 0.54659 0.2452 0.0
O202 O 0.08019 0.55439 0.22264 0.0
O203 O 0.02646 0.54929 0.23799 0.0
O204 O 0.00094 0.53007 0.27699 0.0
C205 C 0.0207 0.56019 0.2894 0.0
C206 C 0.05365 0.47203 0.23026 0.0
O207 O 0.0567 0.57203 0.29413 0.0
C208 C 0.13368 0.51901 0.28049 0.0
O209 O 0.00514 0.46414 0.27271 0.0
O210 O 0.03545 0.49765 0.30262 0.0
O211 O 0.08832 0.4953 0.23751 0.0
O212 O 0.02566 0.4801 0.23289 0.0
C213 C 0.13833 0.61252 0.27147 0.0
O214 O 0.10546 0.51279 0.29327 0.0
O215 O 0.14112 0.54106 0.26379 0.0
C216 C 0.0114 0.4652 0.29311 0.0
O217 O 0.12752 0.58901 0.28779 0.0
O218 O 0.12757 0.59895 0.25226 0.0
C219 C 0.05235 0.56266 0.22292 0.0
Fe220 Fe 0.48897 0.5041 0.25561 0.0
Fe221 Fe 0.46542 0.54539 0.29113 0.0
O222 O 0.46512 0.53132 0.2635 0.0
Fe223 Fe 0.44089 0.54453 0.24334 0.0
O224 O 0.40624 0.49238 0.23786 0.0
O225 O 0.45301 0.47641 0.23309 0.0
O226 O 0.45692 0.4628 0.27355 0.0
C227 C 0.45232 0.46604 0.29388 0.0
C228 C 0.51057 0.55753 0.22193 0.0
O229 O 0.4625 0.49982 0.30247 0.0
C230 C 0.47882 0.61392 0.26654 0.0
O231 O 0.52846 0.52604 0.27674 0.0
O232 O 0.51946 0.57255 0.29197 0.0
O233 O 0.47407 0.54784 0.22086 0.0
O234 O 0.52286 0.54475 0.23745 0.0
C235 C 0.38971 0.52675 0.2799 0.0
O236 O 0.46878 0.5936 0.2842 0.0
O237 O 0.47415 0.59728 0.24808 0.0
C238 C 0.54136 0.55763 0.28813 0.0
O239 O 0.41092 0.51913 0.29251 0.0
O240 O 0.40339 0.54424 0.26181 0.0
C241 C 0.41693 0.46844 0.23076 0.0
Fe242 Fe 0.49194 0.992 0.25489 0.0
Fe243 Fe 0.46343 0.92808 0.2916 0.0
O244 O 0.46826 0.9412 0.26352 0.0
Fe245 Fe 0.44922 0.90273 0.24374 0.0
O246 O 0.48449 0.9323 0.22228 0.0
O247 O 0.52915 0.98672 0.23875 0.0
O248 O 0.52889 0.01055 0.27743 0.0
C249 C 0.53997 0.99203 0.29032 0.0
C250 C 0.42308 0.95147 0.22774 0.0
O251 O 0.51692 0.95582 0.29522 0.0
C252 C 0.39136 0.86955 0.27704 0.0
O253 O 0.45722 0.00121 0.27054 0.0
O254 O 0.45787 0.97026 0.30085 0.0
O255 O 0.41383 0.91719 0.23485 0.0
O256 O 0.45798 0.98134 0.23099 0.0
C257 C 0.48427 0.87453 0.27137 0.0
O258 O 0.40895 0.89908 0.28978 0.0
O259 O 0.40978 0.86526 0.26113 0.0
C260 C 0.44904 0.99344 0.29066 0.0
O261 O 0.46859 0.88344 0.28717 0.0
O262 O 0.48407 0.88671 0.25217 0.0
C263 C 0.52019 0.9601 0.22433 0.0
Fe264 Fe 0.50236 0.00068 0.75046 0.0
Fe265 Fe 0.53599 0.06824 0.71587 0.0
O266 O 0.52826 0.05235 0.74358 0.0
Fe267 Fe 0.54706 0.08862 0.76466 0.0
O268 O 0.55454 0.05758 0.78451 0.0
O269 O 0.54568 0.00551 0.76558 0.0
O270 O 0.52064 0.98523 0.72661 0.0
C271 C 0.55009 0.00531 0.71392 0.0
C272 C 0.4735 0.03615 0.78085 0.0
O273 O 0.5628 0.04191 0.71037 0.0
C274 C 0.5214 0.12459 0.73298 0.0
O275 O 0.45772 0.99218 0.73578 0.0
O276 O 0.48846 0.02635 0.70604 0.0
O277 O 0.4971 0.07152 0.77465 0.0
O278 O 0.47919 0.00751 0.77552 0.0
C279 C 0.61002 0.12192 0.73653 0.0
O280 O 0.50974 0.09616 0.71946 0.0
O281 O 0.54309 0.12699 0.74911 0.0
C282 C 0.45671 0.00197 0.71609 0.0
O283 O 0.58512 0.11306 0.72092 0.0
O284 O 0.5983 0.10759 0.75551 0.0
C285 C 0.56139 0.02921 0.78153 0.0
Fe286 Fe 0.89246 0.45722 0.75847 0.0
Fe287 Fe 0.98165 0.49943 0.74761 0.0
O288 O 0.93097 0.47083 0.73905 0.0
Fe289 Fe 0.91878 0.4559 0.7114 0.0
O290 O 0.8901 0.48138 0.70869 0.0
O291 O 0.85605 0.45686 0.73911 0.0
O292 O 0.90871 0.5092 0.76368 0.0
C293 C 0.94247 0.5333 0.77169 0.0
C294 C 0.86258 0.38745 0.73581 0.0
O295 O 0.97142 0.5265 0.76972 0.0
C296 C 0.9831 0.44539 0.71635 0.0
O297 O 0.92162 0.45443 0.78146 0.0
O298 O 0.97556 0.4598 0.76623 0.0
O299 O 0.87373 0.40733 0.718 0.0
O300 O 0.87404 0.40464 0.75414 0.0
C301 C 0.98372 0.53598 0.70878 0.0
O302 O 0.00098 0.4779 0.7271 0.0
O303 O 0.94634 0.42954 0.7121 0.0
C304 C 0.94905 0.44549 0.78099 0.0
O305 O 0.9902 0.53991 0.72925 0.0
O306 O 0.96172 0.50169 0.70026 0.0
C307 C 0.86068 0.47387 0.72076 0.0
Fe308 Fe 0.50846 0.48752 0.74331 0.0
Fe309 Fe 0.53607 0.45383 0.70544 0.0
O310 O 0.53453 0.46336 0.73376 0.0
Fe311 Fe 0.55898 0.44839 0.75267 0.0
O312 O 0.52364 0.43864 0.775 0.0
O313 O 0.47499 0.44434 0.7601 0.0
O314 O 0.46977 0.46649 0.72168 0.0
C315 C 0.45876 0.43634 0.70922 0.0
C316 C 0.57886 0.52101 0.76976 0.0
O317 O 0.48238 0.42387 0.70438 0.0
C318 C 0.61288 0.47788 0.71721 0.0
O319 O 0.53999 0.53167 0.72693 0.0
O320 O 0.53531 0.49877 0.69646 0.0
O321 O 0.59111 0.49936 0.76122 0.0
O322 O 0.54293 0.51302 0.76672 0.0
C323 C 0.52523 0.38321 0.72579 0.0
O324 O 0.5903 0.48349 0.70458 0.0
O325 O 0.59901 0.45559 0.73389 0.0
C326 C 0.54479 0.53117 0.70641 0.0
O327 O 0.53684 0.40686 0.7095 0.0
O328 O 0.52796 0.39643 0.74502 0.0
C329 C 0.48702 0.42852 0.77407 0.0
Fe330 Fe 0.74513 0.86455 0.62599 0.0
Fe331 Fe 0.77317 0.88911 0.57897 0.0
O332 O 0.73378 0.86529 0.59796 0.0
Fe333 Fe 0.68362 0.84241 0.58861 0.0
O334 O 0.67326 0.874 0.60617 0.0
O335 O 0.70154 0.8671 0.63605 0.0
O336 O 0.77301 0.91896 0.62755 0.0
C337 C 0.80321 0.93988 0.61576 0.0
C338 C 0.6819 0.78874 0.6212 0.0
O339 O 0.80908 0.92561 0.59841 0.0
C340 C 0.71741 0.8215 0.55562 0.0
O341 O 0.79079 0.86157 0.62054 0.0
O342 O 0.79006 0.85395 0.58467 0.0
O343 O 0.66414 0.802 0.60923 0.0
O344 O 0.71817 0.81059 0.62637 0.0
C345 C 0.72379 0.91543 0.56466 0.0
O346 O 0.74526 0.85753 0.55575 0.0
O347 O 0.69096 0.80887 0.57042 0.0
C348 C 0.80078 0.8495 0.60353 0.0
O349 O 0.75765 0.92495 0.57261 0.0
O350 O 0.69465 0.87974 0.56654 0.0
C351 C 0.67918 0.87798 0.62664 0.0
Fe352 Fe 0.12496 0.86515 0.61995 0.0
Fe353 Fe 0.12659 0.88634 0.57157 0.0
O354 O 0.13978 0.8636 0.59266 0.0
Fe355 Fe 0.16757 0.83971 0.58585 0.0
O356 O 0.14377 0.79994 0.60663 0.0
O357 O 0.09893 0.81136 0.62222 0.0
O358 O 0.07629 0.85939 0.61168 0.0
C359 C 0.05647 0.84727 0.59386 0.0
C360 C 0.20429 0.87814 0.62444 0.0
O361 O 0.07383 0.8516 0.5756 0.0
C362 C 0.20443 0.91251 0.56173 0.0
O363 O 0.14984 0.91983 0.62006 0.0
O364 O 0.12367 0.92323 0.58892 0.0
O365 O 0.20776 0.87113 0.60453 0.0
O366 O 0.17078 0.87046 0.63245 0.0
C367 C 0.11727 0.81802 0.55052 0.0
O368 O 0.17864 0.92197 0.56718 0.0
O369 O 0.19716 0.87661 0.56406 0.0
C370 C 0.14086 0.93902 0.60672 0.0
O371 O 0.12657 0.85426 0.54949 0.0
O372 O 0.12843 0.80574 0.56676 0.0
C373 C 0.11252 0.78839 0.61817 0.0
Fe374 Fe 0.15106 0.31453 0.59166 0.0
Fe375 Fe 0.12059 0.25109 0.62844 0.0
O376 O 0.12372 0.26383 0.60029 0.0
Fe377 Fe 0.09941 0.22558 0.58062 0.0
O378 O 0.1356 0.25194 0.5586 0.0
O379 O 0.18427 0.30472 0.57469 0.0
O380 O 0.18896 0.33015 0.61357 0.0
C381 C 0.19863 0.30996 0.62603 0.0
C382 C 0.08127 0.28082 0.56513 0.0
O383 O 0.17416 0.27385 0.63034 0.0
C384 C 0.04407 0.19958 0.61555 0.0
O385 O 0.1199 0.32753 0.60821 0.0
O386 O 0.12183 0.29663 0.63821 0.0
O387 O 0.06828 0.24589 0.57239 0.0
O388 O 0.11753 0.30773 0.56819 0.0
C389 C 0.13083 0.19137 0.6073 0.0
O390 O 0.06633 0.22723 0.62856 0.0
O391 O 0.05843 0.19211 0.59873 0.0
C392 C 0.11426 0.32125 0.62863 0.0
O393 O 0.11914 0.2033 0.62362 0.0
O394 O 0.12932 0.20304 0.58812 0.0
C395 C 0.17213 0.27875 0.55962 0.0
C396 C 0.16352 0.65536 0.03471 0.0
C397 C 0.16098 0.66811 0.05596 0.0
C398 C 0.15988 0.61777 0.03121 0.0
C399 C 0.15347 0.59243 0.04938 0.0
C400 C 0.14607 0.60314 0.0704 0.0
C401 C 0.14997 0.64098 0.07347 0.0
C402 C 0.16718 0.60712 0.00847 0.0
C403 C 0.13816 0.57646 0.09013 0.0
C404 C 0.14436 0.48987 0.04355 0.0
C405 C 0.18339 0.49924 0.04902 0.0
C406 C 0.13401 0.52007 0.04284 0.0
C407 C 0.16362 0.56017 0.04753 0.0
C408 C 0.2036 0.56979 0.05171 0.0
C409 C 0.21288 0.53916 0.05252 0.0
C410 C 0.09112 0.5087 0.03833 0.0
C411 C 0.23638 0.61225 0.05636 0.0
H412 H 0.17098 0.67572 0.02095 0.0
H413 H 0.14695 0.65017 0.08986 0.0
H414 H 0.19826 0.61254 0.00748 0.0
H415 H 0.14655 0.57499 0.00486 0.0
H416 H 0.16344 0.62548 0.99563 0.0
H417 H 0.12597 0.58544 0.10418 0.0
H418 H 0.11679 0.54476 0.08594 0.0
H419 H 0.16661 0.57832 0.09542 0.0
H420 H 0.12155 0.45884 0.04104 0.0
H421 H 0.24318 0.54631 0.05655 0.0
H422 H 0.08953 0.53094 0.02744 0.0
H423 H 0.07629 0.50822 0.05404 0.0
H424 H 0.07405 0.47858 0.03067 0.0
H425 H 0.23802 0.63247 0.04293 0.0
H426 H 0.26627 0.61479 0.0581 0.0
H427 H 0.22959 0.62304 0.07178 0.0
C428 C 0.45814 0.67798 0.0717 0.0
C429 C 0.49589 0.68947 0.06273 0.0
C430 C 0.42618 0.63882 0.06936 0.0
C431 C 0.43218 0.61014 0.05806 0.0
C432 C 0.47025 0.62137 0.04907 0.0
C433 C 0.50168 0.66109 0.05138 0.0
C434 C 0.38588 0.62823 0.07897 0.0
C435 C 0.47778 0.59141 0.03716 0.0
C436 C 0.35231 0.50536 0.07356 0.0
C437 C 0.32382 0.49681 0.05699 0.0
C438 C 0.38947 0.54087 0.07316 0.0
C439 C 0.39812 0.56856 0.05587 0.0
C440 C 0.37085 0.55855 0.03819 0.0
C441 C 0.33405 0.52261 0.0389 0.0
C442 C 0.41799 0.55013 0.09217 0.0
C443 C 0.3789 0.58733 0.01949 0.0
H444 H 0.45333 0.6998 0.08035 0.0
H445 H 0.53088 0.6698 0.04452 0.0
H446 H 0.3627 0.61656 0.0659 0.0
H447 H 0.37687 0.60422 0.09142 0.0
H448 H 0.38607 0.6543 0.08687 0.0
H449 H 0.50907 0.60495 0.03108 0.0
H450 H 0.47165 0.56619 0.04829 0.0
H451 H 0.45706 0.57864 0.02299 0.0
H452 H 0.34482 0.48521 0.08743 0.0
H453 H 0.31225 0.51616 0.02599 0.0
H454 H 0.4174 0.57322 0.10281 0.0
H455 H 0.44915 0.56244 0.08618 0.0
H456 H 0.40985 0.52322 0.10236 0.0
H457 H 0.37543 0.61265 0.02543 0.0
H458 H 0.35791 0.5728 0.00555 0.0
H459 H 0.41004 0.60002 0.01341 0.0
C460 C 0.48601 0.82417 0.03462 0.0
C461 C 0.50584 0.83658 0.0549 0.0
C462 C 0.45075 0.82527 0.03065 0.0
C463 C 0.4352 0.83918 0.04734 0.0
C464 C 0.45768 0.85621 0.06672 0.0
C465 C 0.49281 0.85469 0.0703 0.0
C466 C 0.42802 0.8075 0.0096 0.0
C467 C 0.44248 0.8721 0.08475 0.0
C468 C 0.33899 0.84275 0.03986 0.0
C469 C 0.31132 0.80678 0.05001 0.0
C470 C 0.37959 0.8536 0.03823 0.0
C471 C 0.39229 0.82764 0.04685 0.0
C472 C 0.36395 0.79046 0.05616 0.0
C473 C 0.32392 0.78061 0.05768 0.0
C474 C 0.40898 0.89342 0.02818 0.0
C475 C 0.37605 0.76151 0.06523 0.0
H476 H 0.49636 0.81097 0.0224 0.0
H477 H 0.50851 0.86529 0.0858 0.0
H478 H 0.40319 0.77664 0.01284 0.0
H479 H 0.41459 0.82515 0.00328 0.0
H480 H 0.44756 0.80595 0.99667 0.0
H481 H 0.46643 0.89069 0.09672 0.0
H482 H 0.43012 0.89026 0.0778 0.0
H483 H 0.41792 0.84658 0.09373 0.0
H484 H 0.32925 0.86308 0.03401 0.0
H485 H 0.30247 0.75251 0.06528 0.0
H486 H 0.42997 0.89031 0.01697 0.0
H487 H 0.42714 0.91455 0.0414 0.0
H488 H 0.39362 0.90672 0.01893 0.0
H489 H 0.39195 0.75417 0.05248 0.0
H490 H 0.34993 0.73312 0.07104 0.0
H491 H 0.39698 0.7755 0.07922 0.0
C492 C 0.49853 0.14637 0.92088 0.0
C493 C 0.49942 0.17786 0.93284 0.0
C494 C 0.53209 0.14113 0.92031 0.0
C495 C 0.56787 0.16923 0.93106 0.0
C496 C 0.56865 0.20089 0.94331 0.0
C497 C 0.53413 0.20432 0.9444 0.0
C498 C 0.52951 0.10621 0.90768 0.0
C499 C 0.60654 0.23239 0.95432 0.0
C500 C 0.65594 0.15371 0.94327 0.0
C501 C 0.68135 0.17361 0.92554 0.0
C502 C 0.61768 0.14973 0.94459 0.0
C503 C 0.60543 0.16761 0.92828 0.0
C504 C 0.63074 0.18696 0.9101 0.0
C505 C 0.66809 0.18908 0.90876 0.0
C506 C 0.59082 0.12735 0.9637 0.0
C507 C 0.61943 0.20743 0.89268 0.0
H508 H 0.4716 0.12593 0.91193 0.0
H509 H 0.53494 0.22903 0.95337 0.0
H510 H 0.54513 0.11686 0.8917 0.0
H511 H 0.54439 0.09233 0.91683 0.0
H512 H 0.49796 0.08292 0.90436 0.0
H513 H 0.60204 0.25495 0.96329 0.0
H514 H 0.61763 0.21821 0.96609 0.0
H515 H 0.63031 0.24815 0.94181 0.0
H516 H 0.66615 0.14156 0.95618 0.0
H517 H 0.6879 0.2049 0.89515 0.0
H518 H 0.56026 0.10567 0.95775 0.0
H519 H 0.5881 0.14868 0.9748 0.0
H520 H 0.60252 0.11093 0.97335 0.0
H521 H 0.59022 0.1859 0.8852 0.0
H522 H 0.64219 0.22058 0.87941 0.0
H523 H 0.61597 0.23172 0.90028 0.0
C524 C 0.83387 0.48638 0.93346 0.0
C525 C 0.81346 0.49376 0.95023 0.0
C526 C 0.83947 0.4532 0.93442 0.0
C527 C 0.82376 0.42653 0.95243 0.0
C528 C 0.80598 0.43561 0.97023 0.0
C529 C 0.80123 0.46935 0.96897 0.0
C530 C 0.85917 0.44494 0.91525 0.0
C531 C 0.78868 0.40782 0.98966 0.0
C532 C 0.78216 0.31878 0.93554 0.0
C533 C 0.81211 0.31088 0.94261 0.0
C534 C 0.785 0.35577 0.93953 0.0
C535 C 0.81909 0.38602 0.95054 0.0
C536 C 0.84897 0.3779 0.95834 0.0
C537 C 0.84492 0.34005 0.95445 0.0
C538 C 0.75197 0.36279 0.93131 0.0
C539 C 0.88582 0.40959 0.96997 0.0
H540 H 0.84402 0.50562 0.91911 0.0
H541 H 0.7856 0.47504 0.98203 0.0
H542 H 0.88064 0.43575 0.92111 0.0
H543 H 0.83597 0.41989 0.90535 0.0
H544 H 0.87528 0.47146 0.90438 0.0
H545 H 0.78265 0.42248 0.0037 0.0
H546 H 0.76002 0.38113 0.98476 0.0
H547 H 0.80918 0.39717 0.99519 0.0
H548 H 0.75639 0.29592 0.9267 0.0
H549 H 0.86806 0.33383 0.95988 0.0
H550 H 0.76383 0.38607 0.91831 0.0
H551 H 0.74081 0.37388 0.94485 0.0
H552 H 0.72626 0.3352 0.92443 0.0
H553 H 0.90482 0.43354 0.95815 0.0
H554 H 0.90391 0.39726 0.97716 0.0
H555 H 0.8774 0.42372 0.98324 0.0
C556 C 0.66547 0.46213 0.97446 0.0
C557 C 0.67165 0.49718 0.96423 0.0
C558 C 0.6271 0.42836 0.97533 0.0
C559 C 0.59466 0.42996 0.96541 0.0
C560 C 0.60027 0.4668 0.95722 0.0
C561 C 0.63904 0.50013 0.95658 0.0
C562 C 0.62242 0.38975 0.98431 0.0
C563 C 0.56641 0.46985 0.94673 0.0
C564 C 0.52761 0.33674 0.93296 0.0
C565 C 0.49504 0.31585 0.9472 0.0
C566 C 0.55949 0.37438 0.93853 0.0
C567 C 0.55871 0.39198 0.9588 0.0
C568 C 0.52514 0.37207 0.97286 0.0
C569 C 0.49365 0.33399 0.96693 0.0
C570 C 0.59473 0.39461 0.92298 0.0
C571 C 0.52309 0.39036 0.99439 0.0
H572 H 0.69109 0.46012 0.98015 0.0
H573 H 0.64428 0.52738 0.94846 0.0
H574 H 0.59441 0.37337 0.99398 0.0
H575 H 0.62058 0.37021 0.97043 0.0
H576 H 0.64815 0.39508 0.99487 0.0
H577 H 0.57306 0.50139 0.94599 0.0
H578 H 0.56188 0.45812 0.92969 0.0
H579 H 0.53798 0.4517 0.95583 0.0
H580 H 0.52882 0.32322 0.91757 0.0
H581 H 0.46838 0.31818 0.97793 0.0
H582 H 0.62218 0.39841 0.93113 0.0
H583 H 0.60025 0.42486 0.91854 0.0
H584 H 0.59001 0.37727 0.9076 0.0
H585 H 0.54468 0.3896 0.00616 0.0
H586 H 0.49268 0.37405 0.00178 0.0
H587 H 0.53165 0.42221 0.9921 0.0
C588 C 0.88593 0.00896 0.38086 0.0
C589 C 0.85516 0.01793 0.3785 0.0
C590 C 0.87852 0.96982 0.37831 0.0
C591 C 0.83906 0.93868 0.37371 0.0
C592 C 0.80837 0.94802 0.36979 0.0
C593 C 0.8169 0.98785 0.37211 0.0
C594 C 0.91241 0.96147 0.38221 0.0
C595 C 0.76602 0.91573 0.3648 0.0
C596 C 0.83822 0.84167 0.36289 0.0
C597 C 0.8355 0.82781 0.38446 0.0
C598 C 0.83561 0.87614 0.3586 0.0
C599 C 0.82975 0.89656 0.37629 0.0
C600 C 0.8226 0.87992 0.39767 0.0
C601 C 0.82596 0.84594 0.40152 0.0
C602 C 0.84299 0.89271 0.33556 0.0
C603 C 0.81535 0.90017 0.41696 0.0
H604 H 0.91567 0.03249 0.38554 0.0
H605 H 0.79312 0.99495 0.37035 0.0
H606 H 0.90733 0.94494 0.3979 0.0
H607 H 0.91354 0.94242 0.3689 0.0
H608 H 0.94198 0.98941 0.38314 0.0
H609 H 0.74823 0.92831 0.35751 0.0
H610 H 0.7656 0.89306 0.35341 0.0
H611 H 0.75119 0.90011 0.38026 0.0
H612 H 0.84552 0.82757 0.34967 0.0
H613 H 0.82322 0.83475 0.41816 0.0
H614 H 0.87443 0.91754 0.33419 0.0
H615 H 0.82317 0.90504 0.33161 0.0
H616 H 0.83823 0.86953 0.32319 0.0
H617 H 0.84378 0.92756 0.42141 0.0
H618 H 0.80433 0.88037 0.43161 0.0
H619 H 0.79323 0.90947 0.41263 0.0
C620 C 0.99778 0.86056 0.37374 0.0
C621 C 0.98547 0.84063 0.394 0.0
C622 C 0.03574 0.89465 0.37126 0.0
C623 C 0.0621 0.90906 0.38945 0.0
C624 C 0.05097 0.88743 0.40947 0.0
C625 C 0.01274 0.85354 0.41154 0.0
C626 C 0.04647 0.91679 0.34964 0.0
C627 C 0.07843 0.90154 0.4292 0.0
C628 C 0.17017 0.99415 0.38436 0.0
C629 C 0.16653 0.02627 0.39228 0.0
C630 C 0.13618 0.95566 0.38264 0.0
C631 C 0.09807 0.94976 0.38875 0.0
C632 C 0.09426 0.98282 0.3955 0.0
C633 C 0.12854 0.02053 0.3973 0.0
C634 C 0.14133 0.92109 0.37537 0.0
C635 C 0.05418 0.97814 0.40179 0.0
H636 H 0.97713 0.85059 0.35999 0.0
H637 H 0.00378 0.83794 0.42714 0.0
H638 H 0.04504 0.9447 0.35141 0.0
H639 H 0.07753 0.92555 0.34477 0.0
H640 H 0.02573 0.89859 0.33625 0.0
H641 H 0.06773 0.8787 0.44246 0.0
H642 H 0.10919 0.90902 0.42443 0.0
H643 H 0.08023 0.92919 0.43586 0.0
H644 H 0.19967 0.99867 0.38065 0.0
H645 H 0.12577 0.04558 0.40325 0.0
H646 H 0.11861 0.90284 0.3628 0.0
H647 H 0.13668 0.90128 0.38961 0.0
H648 H 0.17166 0.93135 0.36853 0.0
H649 H 0.03209 0.96307 0.38841 0.0
H650 H 0.05612 0.00735 0.4053 0.0
H651 H 0.0425 0.95903 0.41664 0.0
C652 C 0.17507 0.18839 0.38961 0.0
C653 C 0.17842 0.16856 0.40805 0.0
C654 C 0.14152 0.19308 0.38681 0.0
C655 C 0.1101 0.17604 0.40239 0.0
C656 C 0.11433 0.15768 0.42158 0.0
C657 C 0.14886 0.15479 0.42435 0.0
C658 C 0.13885 0.2145 0.36669 0.0
C659 C 0.08114 0.13836 0.43837 0.0
C660 C 0.02217 0.19392 0.40535 0.0
C661 C 0.99292 0.16055 0.39393 0.0
C662 C 0.06155 0.20117 0.40687 0.0
C663 C 0.07105 0.17325 0.39762 0.0
C664 C 0.04174 0.14015 0.38546 0.0
C665 C 0.00309 0.13464 0.38341 0.0
C666 C 0.09234 0.23755 0.41926 0.0
C667 C 0.05028 0.10897 0.37596 0.0
H668 H 0.19824 0.19935 0.37712 0.0
H669 H 0.15139 0.1392 0.43855 0.0
H670 H 0.11709 0.19236 0.35491 0.0
H671 H 0.1279 0.23528 0.37117 0.0
H672 H 0.16824 0.23173 0.35828 0.0
H673 H 0.09007 0.12715 0.45289 0.0
H674 H 0.07202 0.15992 0.4441 0.0
H675 H 0.05448 0.11278 0.43071 0.0
H676 H 0.01395 0.21379 0.41353 0.0
H677 H 0.98007 0.10849 0.37491 0.0
H678 H 0.12139 0.25212 0.41039 0.0
H679 H 0.09753 0.22839 0.43564 0.0
H680 H 0.08244 0.25985 0.42171 0.0
H681 H 0.07673 0.12326 0.36496 0.0
H682 H 0.02448 0.08561 0.36651 0.0
H683 H 0.05745 0.09416 0.38943 0.0
C684 C 0.32151 0.48481 0.29633 0.0
C685 C 0.35088 0.52111 0.28727 0.0
C686 C 0.28231 0.47765 0.29975 0.0
C687 C 0.27297 0.50778 0.29424 0.0
C688 C 0.30363 0.54557 0.28675 0.0
C689 C 0.34206 0.55156 0.28315 0.0
C690 C 0.2505 0.43703 0.30776 0.0
C691 C 0.29535 0.57893 0.28106 0.0
C692 C 0.17697 0.49184 0.26938 0.0
C693 C 0.16234 0.5058 0.28618 0.0
C694 C 0.21068 0.48777 0.2727 0.0
C695 C 0.2308 0.49901 0.29317 0.0
C696 C 0.21391 0.50959 0.31083 0.0
C697 C 0.17949 0.51263 0.30714 0.0
C698 C 0.22701 0.47539 0.25355 0.0
C699 C 0.23432 0.52157 0.3329 0.0
H700 H 0.32849 0.46129 0.29949 0.0
H701 H 0.36509 0.57986 0.27643 0.0
H702 H 0.23004 0.43972 0.31957 0.0
H703 H 0.2322 0.41912 0.29358 0.0
H704 H 0.26379 0.42043 0.31572 0.0
H705 H 0.32329 0.60769 0.2778 0.0
H706 H 0.27621 0.57064 0.26617 0.0
H707 H 0.27888 0.58364 0.29461 0.0
H708 H 0.16329 0.48617 0.25323 0.0
H709 H 0.16808 0.52347 0.32012 0.0
H710 H 0.23656 0.45395 0.25891 0.0
H711 H 0.25372 0.50217 0.24679 0.0
H712 H 0.2046 0.4614 0.24016 0.0
H713 H 0.24655 0.502 0.33768 0.0
H714 H 0.21355 0.52033 0.34594 0.0
H715 H 0.25982 0.55273 0.33195 0.0
C716 C 0.5104 0.68115 0.28452 0.0
C717 C 0.48825 0.65593 0.26716 0.0
C718 C 0.51651 0.72019 0.28602 0.0
C719 C 0.49856 0.7334 0.27029 0.0
C720 C 0.47686 0.7082 0.25248 0.0
C721 C 0.47261 0.67003 0.25093 0.0
C722 C 0.54122 0.74686 0.30469 0.0
C723 C 0.45623 0.72061 0.2357 0.0
C724 C 0.46657 0.80802 0.28658 0.0
C725 C 0.49249 0.84136 0.27392 0.0
C726 C 0.46907 0.77301 0.28608 0.0
C727 C 0.49927 0.77198 0.27329 0.0
C728 C 0.52731 0.80662 0.26171 0.0
C729 C 0.52303 0.84072 0.26177 0.0
C730 C 0.43761 0.73629 0.29798 0.0
C731 C 0.5607 0.80713 0.24849 0.0
H732 H 0.52278 0.67028 0.29695 0.0
H733 H 0.45519 0.65037 0.23758 0.0
H734 H 0.56328 0.77702 0.29842 0.0
H735 H 0.52148 0.75076 0.31648 0.0
H736 H 0.55751 0.73427 0.31369 0.0
H737 H 0.44099 0.69765 0.22271 0.0
H738 H 0.43358 0.72584 0.24399 0.0
H739 H 0.47818 0.74912 0.22775 0.0
H740 H 0.4426 0.80837 0.29573 0.0
H741 H 0.54305 0.86661 0.25199 0.0
H742 H 0.45195 0.72443 0.30914 0.0
H743 H 0.41961 0.71241 0.28588 0.0
H744 H 0.41696 0.74251 0.30775 0.0
H745 H 0.57559 0.79372 0.25806 0.0
H746 H 0.58356 0.83798 0.24352 0.0
H747 H 0.54825 0.7889 0.2334 0.0
C748 C 0.18178 0.67004 0.29601 0.0
C749 C 0.16868 0.65516 0.27473 0.0
C750 C 0.21429 0.70867 0.29933 0.0
C751 C 0.23416 0.73285 0.28093 0.0
C752 C 0.21896 0.71933 0.25952 0.0
C753 C 0.18633 0.68058 0.25667 0.0
C754 C 0.22923 0.7223 0.32241 0.0
C755 C 0.23908 0.74451 0.23947 0.0
C756 C 0.31869 0.84085 0.28538 0.0
C757 C 0.35185 0.8357 0.28247 0.0
C758 C 0.27977 0.80742 0.28589 0.0
C759 C 0.27454 0.76849 0.28358 0.0
C760 C 0.30838 0.7634 0.28216 0.0
C761 C 0.34659 0.79712 0.28149 0.0
C762 C 0.24437 0.81393 0.2875 0.0
C763 C 0.30428 0.72243 0.28003 0.0
H764 H 0.16774 0.65093 0.31012 0.0
H765 H 0.17592 0.66962 0.24019 0.0
H766 H 0.25674 0.72048 0.32521 0.0
H767 H 0.23721 0.75395 0.32486 0.0
H768 H 0.20665 0.70346 0.33494 0.0
H769 H 0.22033 0.73236 0.22449 0.0
H770 H 0.2458 0.77576 0.242 0.0
H771 H 0.26797 0.74542 0.23663 0.0
H772 H 0.323 0.87087 0.28591 0.0
H773 H 0.37249 0.7934 0.27932 0.0
H774 H 0.22139 0.79196 0.29887 0.0
H775 H 0.23022 0.80944 0.27109 0.0
H776 H 0.25337 0.84467 0.2932 0.0
H777 H 0.28514 0.70248 0.29339 0.0
H778 H 0.33372 0.72369 0.28063 0.0
H779 H 0.28955 0.70863 0.2642 0.0
C780 C 0.48287 0.15577 0.71761 0.0
C781 C 0.51703 0.15962 0.72803 0.0
C782 C 0.47834 0.18949 0.71448 0.0
C783 C 0.50903 0.22761 0.72164 0.0
C784 C 0.54427 0.23163 0.73128 0.0
C785 C 0.54766 0.1976 0.73448 0.0
C786 C 0.44034 0.18417 0.70424 0.0
C787 C 0.57811 0.27179 0.73878 0.0
C788 C 0.52498 0.32833 0.70368 0.0
C789 C 0.5143 0.34089 0.72287 0.0
C790 C 0.52031 0.28989 0.70223 0.0
C791 C 0.50429 0.26346 0.72033 0.0
C792 C 0.49028 0.27482 0.73895 0.0
C793 C 0.49563 0.31348 0.74004 0.0
C794 C 0.53565 0.27891 0.68211 0.0
C795 C 0.47259 0.24735 0.75851 0.0
H796 H 0.45925 0.12636 0.71259 0.0
H797 H 0.57452 0.20077 0.74214 0.0
H798 H 0.42294 0.19002 0.71674 0.0
H799 H 0.44744 0.20609 0.69077 0.0
H800 H 0.42121 0.15347 0.69762 0.0
H801 H 0.6044 0.26997 0.74477 0.0
H802 H 0.58804 0.29371 0.72511 0.0
H803 H 0.56756 0.2836 0.75227 0.0
H804 H 0.53912 0.34926 0.69027 0.0
H805 H 0.48656 0.32275 0.75475 0.0
H806 H 0.51446 0.24774 0.6769 0.0
H807 H 0.56459 0.28064 0.68607 0.0
H808 H 0.54056 0.29941 0.66814 0.0
H809 H 0.4505 0.21658 0.75311 0.0
H810 H 0.45766 0.25806 0.77008 0.0
H811 H 0.49675 0.24567 0.7675 0.0
C812 C 0.65619 0.18916 0.72109 0.0
C813 C 0.65069 0.15665 0.73395 0.0
C814 C 0.69315 0.22481 0.72058 0.0
C815 C 0.72586 0.22754 0.73264 0.0
C816 C 0.72109 0.19393 0.74467 0.0
C817 C 0.68322 0.15908 0.74556 0.0
C818 C 0.69638 0.26034 0.70826 0.0
C819 C 0.75547 0.19524 0.75725 0.0
C820 C 0.8259 0.31929 0.71852 0.0
C821 C 0.82978 0.34536 0.7356 0.0
C822 C 0.79336 0.27983 0.718 0.0
C823 C 0.7634 0.26692 0.73445 0.0
C824 C 0.76759 0.2931 0.75185 0.0
C825 C 0.80103 0.33171 0.75239 0.0
C826 C 0.79062 0.25224 0.69965 0.0
C827 C 0.73579 0.28107 0.76936 0.0
H828 H 0.63088 0.18755 0.71237 0.0
H829 H 0.67895 0.13389 0.7555 0.0
H830 H 0.70261 0.2848 0.72002 0.0
H831 H 0.72167 0.27206 0.69647 0.0
H832 H 0.66854 0.2528 0.6991 0.0
H833 H 0.74914 0.16481 0.76204 0.0
H834 H 0.78337 0.20982 0.74734 0.0
H835 H 0.76098 0.21318 0.77243 0.0
H836 H 0.84833 0.32974 0.70565 0.0
H837 H 0.80376 0.35191 0.76554 0.0
H838 H 0.76535 0.24633 0.68861 0.0
H839 H 0.78449 0.22299 0.70645 0.0
H840 H 0.81853 0.26511 0.68973 0.0
H841 H 0.70699 0.27443 0.76167 0.0
H842 H 0.74391 0.30483 0.78192 0.0
H843 H 0.73074 0.25342 0.77777 0.0
C844 C 0.78851 0.44882 0.71614 0.0
C845 C 0.82795 0.47924 0.71245 0.0
C846 C 0.75634 0.45475 0.71168 0.0
C847 C 0.76394 0.49245 0.70374 0.0
C848 C 0.80363 0.52241 0.69851 0.0
C849 C 0.8354 0.51529 0.70282 0.0
C850 C 0.71444 0.42157 0.71707 0.0
C851 C 0.8129 0.56286 0.68996 0.0
C852 C 0.6654 0.48599 0.69045 0.0
C853 C 0.65487 0.49257 0.71141 0.0
C854 C 0.7033 0.49016 0.68676 0.0
C855 C 0.73083 0.50153 0.70442 0.0
C856 C 0.72179 0.51296 0.72478 0.0
C857 C 0.68362 0.5078 0.72811 0.0
C858 C 0.71206 0.47822 0.66476 0.0
C859 C 0.75062 0.52623 0.74391 0.0
H860 H 0.78291 0.42067 0.72326 0.0
H861 H 0.86607 0.53873 0.69995 0.0
H862 H 0.70312 0.43015 0.73166 0.0
H863 H 0.69378 0.41668 0.70322 0.0
H864 H 0.71339 0.39283 0.72072 0.0
H865 H 0.84252 0.57851 0.68165 0.0
H866 H 0.78953 0.56017 0.67831 0.0
H867 H 0.81359 0.5817 0.70392 0.0
H868 H 0.64301 0.4743 0.67755 0.0
H869 H 0.6754 0.5134 0.74422 0.0
H870 H 0.7062 0.447 0.66573 0.0
H871 H 0.74395 0.4977 0.66014 0.0
H872 H 0.69276 0.47961 0.65163 0.0
H873 H 0.75097 0.49985 0.75095 0.0
H874 H 0.74197 0.54034 0.75711 0.0
H875 H 0.7815 0.54783 0.73844 0.0
C876 C 0.00068 0.85382 0.57813 0.0
C877 C 0.01426 0.83703 0.59395 0.0
C878 C 0.96291 0.85047 0.58006 0.0
C879 C 0.93767 0.82854 0.59782 0.0
C880 C 0.95014 0.80898 0.6129 0.0
C881 C 0.98879 0.81421 0.61106 0.0
C882 C 0.95127 0.87276 0.56399 0.0
C883 C 0.92337 0.78394 0.63146 0.0
C884 C 0.86738 0.86421 0.6171 0.0
C885 C 0.83295 0.83969 0.60484 0.0
C886 C 0.90142 0.86012 0.6154 0.0
C887 C 0.90028 0.82977 0.60175 0.0
C888 C 0.86456 0.80321 0.59047 0.0
C889 C 0.83149 0.80908 0.59178 0.0
C890 C 0.93936 0.88996 0.62708 0.0
C891 C 0.86176 0.76971 0.57634 0.0
H892 H 0.02065 0.87183 0.56503 0.0
H893 H -0.00063 0.80105 0.6232 0.0
H894 H 0.92172 0.85222 0.55652 0.0
H895 H 0.94846 0.89646 0.5728 0.0
H896 H 0.9736 0.88701 0.5506 0.0
H897 H 0.93486 0.76585 0.63955 0.0
H898 H 0.9213 0.80373 0.64398 0.0
H899 H 0.8926 0.76352 0.62533 0.0
H900 H 0.86859 0.8883 0.62689 0.0
H901 H 0.80472 0.79022 0.58229 0.0
H902 H 0.9631 0.90743 0.61481 0.0
H903 H 0.95045 0.87418 0.63768 0.0
H904 H 0.93493 0.9112 0.63741 0.0
H905 H 0.87948 0.78227 0.56111 0.0
H906 H 0.83034 0.7481 0.5716 0.0
H907 H 0.87447 0.75334 0.5851 0.0
C908 C 0.15424 0.14575 0.5927 0.0
C909 C 0.14083 0.15921 0.61042 0.0
C910 C 0.15965 0.11252 0.59491 0.0
C911 C 0.15124 0.09213 0.61529 0.0
C912 C 0.1402 0.1071 0.63359 0.0
C913 C 0.13519 0.14051 0.63096 0.0
C914 C 0.17193 0.09778 0.57502 0.0
C915 C 0.13112 0.08634 0.65561 0.0
C916 C 0.10915 0.98075 0.60891 0.0
C917 C 0.14275 0.97676 0.613 0.0
C918 C 0.11119 0.01787 0.61067 0.0
C919 C 0.14799 0.05207 0.61641 0.0
C920 C 0.18159 0.0479 0.6217 0.0
C921 C 0.17851 0.01 0.62001 0.0
C922 C 0.0744 0.0207 0.60524 0.0
C923 C 0.22126 0.08369 0.62791 0.0
H924 H 0.15934 0.1604 0.57687 0.0
H925 H 0.12527 0.15092 0.64484 0.0
H926 H 0.19615 0.09139 0.57933 0.0
H927 H 0.14599 0.06938 0.56915 0.0
H928 H 0.18243 0.11978 0.56133 0.0
H929 H 0.12895 0.10495 0.66888 0.0
H930 H 0.10217 0.05779 0.65466 0.0
H931 H 0.15451 0.07885 0.66009 0.0
H932 H 0.08142 0.95484 0.60358 0.0
H933 H 0.20454 0.00683 0.62295 0.0
H934 H 0.07984 0.03869 0.59008 0.0
H935 H 0.06794 0.03612 0.61865 0.0
H936 H 0.04746 0.99081 0.60262 0.0
H937 H 0.23487 0.10277 0.61322 0.0
H938 H 0.24258 0.07476 0.63445 0.0
H939 H 0.21702 0.10222 0.6404 0.0
C940 C 0.97365 0.15524 0.60469 0.0
C941 C 0.00236 0.17091 0.62141 0.0
C942 C 0.93645 0.12093 0.60822 0.0
C943 C 0.92832 0.10143 0.62886 0.0
C944 C 0.95559 0.11959 0.64647 0.0
C945 C 0.99247 0.15449 0.64255 0.0
C946 C 0.90784 0.1032 0.58911 0.0
C947 C 0.9478 0.09999 0.66875 0.0
C948 C 0.82592 0.00755 0.63196 0.0
C949 C 0.83496 0.97938 0.62323 0.0
C950 C 0.85644 0.04741 0.63536 0.0
C951 C 0.89656 0.05869 0.63012 0.0
C952 C 0.90589 0.02929 0.62303 0.0
C953 C 0.87492 0.99011 0.6195 0.0
C954 C 0.84533 0.0778 0.64302 0.0
C955 C 0.94832 0.0397 0.61764 0.0
H956 H 0.98128 0.16846 0.58842 0.0
H957 H 0.01478 0.16677 0.65549 0.0
H958 H 0.90927 0.07706 0.58256 0.0
H959 H 0.87658 0.09246 0.59445 0.0
H960 H 0.91533 0.12516 0.57558 0.0
H961 H 0.96655 0.12166 0.68167 0.0
H962 H 0.91578 0.08649 0.67338 0.0
H963 H 0.95511 0.07557 0.66824 0.0
H964 H 0.7949 -0.00092 0.63485 0.0
H965 H 0.88185 0.96801 0.61308 0.0
H966 H 0.84406 0.0948 0.62864 0.0
H967 H 0.86807 0.09961 0.65455 0.0
H968 H 0.81556 0.06324 0.65118 0.0
H969 H 0.95861 0.05873 0.6027 0.0
H970 H 0.95088 0.01264 0.61459 0.0
H971 H 0.96888 0.05701 0.63125 0.0
C972 C 0.11575 0.42457 0.12618 0.0
C973 C 0.11598 0.389 0.12157 0.0
C974 C 0.0943 0.42725 0.14396 0.0
C975 C 0.0711 0.39303 0.15714 0.0
C976 C 0.06756 0.35585 0.15115 0.0
C977 C 0.09062 0.35437 0.13359 0.0
C978 C 0.09947 0.46779 0.14966 0.0
C979 C 0.04135 0.31803 0.16387 0.0
C980 C 0.07945 0.42978 0.2148 0.0
C981 C 0.04948 0.44034 0.21493 0.0
C982 C 0.08412 0.40976 0.19691 0.0
C983 C 0.05738 0.39897 0.17894 0.0
C984 C 0.0233 0.40373 0.1806 0.0
C985 C 0.01999 0.42503 0.19851 0.0
C986 C 0.12055 0.40472 0.19616 0.0
C987 C 0.99238 0.38962 0.16257 0.0
H988 H 0.13437 0.45135 0.11668 0.0
H989 H 0.08977 0.32647 0.12985 0.0
H990 H 0.06991 0.46602 0.15063 0.0
H991 H 0.114 0.47754 0.16599 0.0
H992 H 0.11806 0.49117 0.13743 0.0
H993 H 0.02788 0.29173 0.15269 0.0
H994 H 0.05989 0.31307 0.17601 0.0
H995 H 0.01696 0.31949 0.17275 0.0
H996 H 0.10148 0.44017 0.2279 0.0
H997 H 0.99605 0.43207 0.19878 0.0
H998 H 0.14151 0.42457 0.1833 0.0
H999 H 0.11175 0.37347 0.19181 0.0
H1000 H 0.13682 0.4122 0.21209 0.0
H1001 H 0.00237 0.41285 0.14959 0.0
H1002 H 0.96306 0.38424 0.16891 0.0
H1003 H 0.98831 0.36167 0.15492 0.0
C1004 C 0.63142 0.72842 0.13147 0.0
C1005 C 0.61192 0.7506 0.13389 0.0
C1006 C 0.62423 0.69762 0.14641 0.0
C1007 C 0.59723 0.68935 0.16409 0.0
C1008 C 0.58044 0.71429 0.16757 0.0
C1009 C 0.58767 0.7443 0.15227 0.0
C1010 C 0.64287 0.67193 0.14219 0.0
C1011 C 0.55206 0.70716 0.18639 0.0
C1012 C 0.52384 0.58543 0.18418 0.0
C1013 C 0.53821 0.58586 0.20538 0.0
C1014 C 0.54494 0.61759 0.16976 0.0
C1015 C 0.58107 0.65138 0.17684 0.0
C1016 C 0.59747 0.65047 0.19754 0.0
C1017 C 0.57585 0.61748 0.21159 0.0
C1018 C 0.52658 0.61683 0.1477 0.0
C1019 C 0.63592 0.68572 0.20568 0.0
H1020 H 0.64985 0.73313 0.11708 0.0
H1021 H 0.57264 0.76158 0.15405 0.0
H1022 H 0.65278 0.66466 0.15777 0.0
H1023 H 0.62022 0.64325 0.13462 0.0
H1024 H 0.66888 0.68679 0.13086 0.0
H1025 H 0.5458 0.73217 0.1884 0.0
H1026 H 0.52323 0.67922 0.18337 0.0
H1027 H 0.56452 0.70328 0.20202 0.0
H1028 H 0.49484 0.56082 0.17931 0.0
H1029 H 0.58688 0.61801 0.22805 0.0
H1030 H 0.54944 0.62663 0.13452 0.0
H1031 H 0.51494 0.63799 0.14791 0.0
H1032 H 0.50144 0.58655 0.14353 0.0
H1033 H 0.65839 0.69865 0.1923 0.0
H1034 H 0.64892 0.67727 0.21957 0.0
H1035 H 0.6298 0.70944 0.21147 0.0
C1036 C 0.40804 0.98111 0.19478 0.0
C1037 C 0.39477 0.95341 0.21208 0.0
C1038 C 0.38274 0.97546 0.1768 0.0
C1039 C 0.34403 0.94103 0.17611 0.0
C1040 C 0.32907 0.91607 0.19483 0.0
C1041 C 0.35453 0.92287 0.21266 0.0
C1042 C 0.39874 0.00418 0.15773 0.0
C1043 C 0.28784 0.87926 0.19505 0.0
C1044 C 0.2642 0.90518 0.1318 0.0
C1045 C 0.27209 0.87814 0.12048 0.0
C1046 C 0.28973 0.92931 0.14876 0.0
C1047 C 0.32311 0.92538 0.1548 0.0
C1048 C 0.33274 0.90037 0.14229 0.0
C1049 C 0.30747 0.87757 0.12516 0.0
C1050 C 0.27946 0.95709 0.1609 0.0
C1051 C 0.36793 0.89495 0.14808 0.0
H1052 H 0.43888 0.0053 0.19444 0.0
H1053 H 0.34375 0.90214 0.22638 0.0
H1054 H 0.41088 0.99234 0.1451 0.0
H1055 H 0.37463 0.00773 0.14997 0.0
H1056 H 0.42331 0.03404 0.16299 0.0
H1057 H 0.27952 0.86513 0.21156 0.0
H1058 H 0.26495 0.88692 0.18982 0.0
H1059 H 0.28696 0.85686 0.18325 0.0
H1060 H 0.23742 0.90654 0.12799 0.0
H1061 H 0.31449 0.85756 0.1162 0.0
H1062 H 0.30653 0.98321 0.16787 0.0
H1063 H 0.25873 0.94061 0.17461 0.0
H1064 H 0.26402 0.96809 0.1499 0.0
H1065 H 0.39592 0.92436 0.14878 0.0
H1066 H 0.37225 0.87574 0.13606 0.0
H1067 H 0.36319 0.88097 0.16456 0.0
C1068 C 0.35671 0.07723 0.87612 0.0
C1069 C 0.37137 0.11761 0.87086 0.0
C1070 C 0.36314 0.05223 0.86187 0.0
C1071 C 0.38485 0.06832 0.84215 0.0
C1072 C 0.3963 0.10803 0.83594 0.0
C1073 C 0.38931 0.13208 0.85036 0.0
C1074 C 0.34944 0.00975 0.86876 0.0
C1075 C 0.41922 0.12647 0.81497 0.0
C1076 C 0.46269 0.04717 0.81933 0.0
C1077 C 0.44619 0.03135 0.79879 0.0
C1078 C 0.4409 0.05513 0.83492 0.0
C1079 C 0.40173 0.04707 0.82964 0.0
C1080 C 0.38337 0.02673 0.80987 0.0
C1081 C 0.40614 0.01946 0.79444 0.0
C1082 C 0.46168 0.07661 0.85583 0.0
C1083 C 0.34126 0.0164 0.80401 0.0
H1084 H 0.34262 0.06587 0.89193 0.0
H1085 H 0.39998 0.1631 0.84605 0.0
H1086 H 0.33987 0.98934 0.85437 0.0
H1087 H 0.37464 0.00854 0.87681 0.0
H1088 H 0.32428 0.99865 0.88068 0.0
H1089 H 0.42303 0.15656 0.81178 0.0
H1090 H 0.44939 0.12954 0.81605 0.0
H1091 H 0.40361 0.10694 0.80071 0.0
H1092 H 0.49384 0.05639 0.82249 0.0
H1093 H 0.39363 0.00735 0.77841 0.0
H1094 H 0.44169 0.06316 0.8702 0.0
H1095 H 0.4694 0.10843 0.85477 0.0
H1096 H 0.48973 0.07578 0.85873 0.0
H1097 H 0.32171 0.00682 0.81876 0.0
H1098 H 0.32806 0.99224 0.79148 0.0
H1099 H 0.34166 0.04326 0.79715 0.0
C1100 C 0.91454 0.39624 0.81085 0.0
C1101 C 0.94875 0.41755 0.79776 0.0
C1102 C 0.91136 0.36731 0.82578 0.0
C1103 C 0.94354 0.35971 0.82807 0.0
C1104 C 0.97866 0.38163 0.8153 0.0
C1105 C 0.98069 0.41008 0.80006 0.0
C1106 C 0.87312 0.34455 0.83894 0.0
C1107 C 0.01371 0.37469 0.81751 0.0
C1108 C 0.92593 0.30869 0.88238 0.0
C1109 C 0.90129 0.26882 0.87598 0.0
C1110 C 0.94566 0.33884 0.86665 0.0
C1111 C 0.93929 0.32872 0.84408 0.0
C1112 C 0.91868 0.28785 0.83775 0.0
C1113 C 0.89999 0.25816 0.8539 0.0
C1114 C 0.96848 0.38188 0.87416 0.0
C1115 C 0.91124 0.2757 0.81389 0.0
H1116 H 0.88951 0.40145 0.80909 0.0
H1117 H 0.00716 0.42632 0.78992 0.0
H1118 H 0.8596 0.31189 0.83607 0.0
H1119 H 0.87977 0.35002 0.85675 0.0
H1120 H 0.85055 0.35335 0.83466 0.0
H1121 H 0.04086 0.39828 0.80908 0.0
H1122 H 0.02093 0.37375 0.83507 0.0
H1123 H 0.00584 0.34532 0.81018 0.0
H1124 H 0.92686 0.31676 0.89954 0.0
H1125 H 0.88061 0.22725 0.84901 0.0
H1126 H 0.9486 0.39499 0.87322 0.0
H1127 H 0.99478 0.39991 0.86346 0.0
H1128 H 0.97884 0.3843 0.89143 0.0
H1129 H 0.88637 0.27969 0.80768 0.0
H1130 H 0.90272 0.24381 0.81162 0.0
H1131 H 0.9381 0.29472 0.80378 0.0
C1132 C 0.64341 0.55618 0.79011 0.0
C1133 C 0.60436 0.54938 0.78713 0.0
C1134 C 0.66492 0.57383 0.80934 0.0
C1135 C 0.64758 0.58634 0.82578 0.0
C1136 C 0.61045 0.58441 0.82163 0.0
C1137 C 0.58889 0.56538 0.80242 0.0
C1138 C 0.70443 0.57521 0.81291 0.0
C1139 C 0.59207 0.59968 0.83813 0.0
C1140 C 0.67417 0.56428 0.88155 0.0
C1141 C 0.71026 0.59968 0.88601 0.0
C1142 C 0.65166 0.56064 0.86278 0.0
C1143 C 0.66475 0.59367 0.84835 0.0
C1144 C 0.69844 0.63094 0.85412 0.0
C1145 C 0.72125 0.63339 0.87275 0.0
C1146 C 0.616 0.52018 0.85737 0.0
C1147 C 0.71205 0.66753 0.83991 0.0
H1148 H 0.6562 0.54501 0.7781 0.0
H1149 H 0.55911 0.56108 0.80008 0.0
H1150 H 0.72791 0.60572 0.81781 0.0
H1151 H 0.70128 0.55451 0.82643 0.0
H1152 H 0.71481 0.56645 0.79798 0.0
H1153 H 0.5711 0.60762 0.83006 0.0
H1154 H 0.57484 0.57599 0.85043 0.0
H1155 H 0.61545 0.62633 0.84698 0.0
H1156 H 0.66474 0.53826 0.89195 0.0
H1157 H 0.74857 0.66118 0.87629 0.0
H1158 H 0.62246 0.50798 0.84239 0.0
H1159 H 0.5893 0.52302 0.8539 0.0
H1160 H 0.60849 0.49823 0.87092 0.0
H1161 H 0.73226 0.66775 0.82687 0.0
H1162 H 0.72896 0.69543 0.84968 0.0
H1163 H 0.68628 0.66766 0.83185 0.0
C1164 C 0.96454 0.5685 0.80795 0.0
C1165 C 0.94347 0.56204 0.78818 0.0
C1166 C 0.95558 0.58491 0.82629 0.0
C1167 C 0.92503 0.59509 0.82467 0.0
C1168 C 0.90739 0.59315 0.80396 0.0
C1169 C 0.91673 0.57653 0.786 0.0
C1170 C 0.97562 0.58709 0.84794 0.0
C1171 C 0.87512 0.60415 0.80131 0.0
C1172 C 0.8498 0.56611 0.87079 0.0
C1173 C 0.85901 0.60328 0.87974 0.0
C1174 C 0.8723 0.56322 0.85361 0.0
C1175 C 0.905 0.59846 0.84489 0.0
C1176 C 0.91572 0.63609 0.85444 0.0
C1177 C 0.89261 0.63807 0.87188 0.0
C1178 C 0.85995 0.5223 0.84425 0.0
C1179 C 0.9505 0.67428 0.84572 0.0
H1180 H 0.9853 0.55742 0.80974 0.0
H1181 H 0.90075 0.57204 0.77064 0.0
H1182 H 0.98169 0.61431 0.85724 0.0
H1183 H 0.9554 0.56068 0.85807 0.0
H1184 H 0.00421 0.58709 0.8456 0.0
H1185 H 0.86956 0.60765 0.78376 0.0
H1186 H 0.84676 0.58018 0.80854 0.0
H1187 H 0.88327 0.63239 0.81012 0.0
H1188 H 0.82443 0.53897 0.8771 0.0
H1189 H 0.90002 0.66686 0.87883 0.0
H1190 H 0.88582 0.51717 0.84411 0.0
H1191 H 0.84983 0.52054 0.82701 0.0
H1192 H 0.83527 0.49777 0.85375 0.0
H1193 H 0.97677 0.67047 0.84262 0.0
H1194 H 0.95942 0.69975 0.85722 0.0
H1195 H 0.94195 0.68199 0.82983 0.0
C1196 C 0.39369 0.30713 0.88081 0.0
C1197 C 0.37238 0.26562 0.87755 0.0
C1198 C 0.40178 0.33355 0.86324 0.0
C1199 C 0.38873 0.31793 0.84187 0.0
C1200 C 0.36276 0.27618 0.83908 0.0
C1201 C 0.35477 0.25033 0.85707 0.0
C1202 C 0.42888 0.37784 0.86713 0.0
C1203 C 0.34755 0.25836 0.81666 0.0
C1204 C 0.42232 0.39502 0.79563 0.0
C1205 C 0.45935 0.39863 0.79013 0.0
C1206 C 0.39776 0.36763 0.81188 0.0
C1207 C 0.41063 0.34341 0.82265 0.0
C1208 C 0.44709 0.34576 0.8163 0.0
C1209 C 0.47088 0.37327 0.80024 0.0
C1210 C 0.35897 0.36579 0.81804 0.0
C1211 C 0.46192 0.32016 0.82703 0.0
H1212 H 0.40699 0.31891 0.89675 0.0
H1213 H 0.33829 0.21819 0.85452 0.0
H1214 H 0.45972 0.38666 0.86171 0.0
H1215 H 0.41879 0.39555 0.85747 0.0
H1216 H 0.43003 0.38572 0.88478 0.0
H1217 H 0.32083 0.22793 0.81784 0.0
H1218 H 0.3398 0.2777 0.80676 0.0
H1219 H 0.3714 0.25592 0.80779 0.0
H1220 H 0.41308 0.41429 0.78772 0.0
H1221 H 0.49898 0.37514 0.7957 0.0
H1222 H 0.36317 0.38236 0.83363 0.0
H1223 H 0.33487 0.3344 0.82077 0.0
H1224 H 0.34907 0.37948 0.80522 0.0
H1225 H 0.46789 0.3279 0.84471 0.0
H1226 H 0.48987 0.32423 0.81935 0.0
H1227 H 0.43875 0.28804 0.82592 0.0
C1228 C 0.58895 0.03804 0.81903 0.0
C1229 C 0.58832 0.02541 0.79737 0.0
C1230 C 0.62149 0.04769 0.83288 0.0
C1231 C 0.65417 0.04424 0.82492 0.0
C1232 C 0.6513 0.02658 0.80405 0.0
C1233 C 0.61832 0.01753 0.79036 0.0
C1234 C 0.62284 0.0661 0.85502 0.0
C1235 C 0.68465 0.02076 0.79532 0.0
C1236 C 0.74896 0.13293 0.84564 0.0
C1237 C 0.75534 0.11807 0.86535 0.0
C1238 C 0.71826 0.10809 0.83119 0.0
C1239 C 0.69343 0.06705 0.83641 0.0
C1240 C 0.70255 0.05091 0.85499 0.0
C1241 C 0.73332 0.07673 0.86941 0.0
C1242 C 0.71006 0.12679 0.81147 0.0
C1243 C 0.67796 0.00705 0.86062 0.0
H1244 H 0.56535 0.0435 0.82459 0.0
H1245 H 0.61784 0.00759 0.77364 0.0
H1246 H 0.63197 0.05214 0.86801 0.0
H1247 H 0.6454 0.09853 0.85463 0.0
H1248 H 0.59344 0.06281 0.85964 0.0
H1249 H 0.67338 0.99666 0.78274 0.0
H1250 H 0.70768 0.04889 0.78747 0.0
H1251 H 0.69932 0.01327 0.80873 0.0
H1252 H 0.76648 0.16469 0.84209 0.0
H1253 H 0.73838 0.06489 0.88447 0.0
H1254 H 0.68134 0.12647 0.81386 0.0
H1255 H 0.70709 0.10939 0.7964 0.0
H1256 H 0.7341 0.15828 0.80877 0.0
H1257 H 0.65096 0.00164 0.86993 0.0
H1258 H 0.69519 0.99728 0.87103 0.0
H1259 H 0.66782 0.98831 0.84556 0.0
C1260 C 0.60115 0.91858 0.11936 0.0
C1261 C 0.62971 0.90664 0.12199 0.0
C1262 C 0.59417 0.93936 0.13605 0.0
C1263 C 0.61613 0.94795 0.15592 0.0
C1264 C 0.64863 0.94061 0.15739 0.0
C1265 C 0.65487 0.91956 0.14038 0.0
C1266 C 0.5595 0.94688 0.13354 0.0
C1267 C 0.67357 0.95044 0.17798 0.0
C1268 C 0.58116 0.99434 0.19986 0.0
C1269 C 0.55026 0.95959 0.20952 0.0
C1270 C 0.60516 0.99161 0.18317 0.0
C1271 C 0.59788 0.95337 0.17628 0.0
C1272 C 0.56869 0.91863 0.18733 0.0
C1273 C 0.54531 0.92224 0.20368 0.0
C1274 C 0.63649 0.0294 0.17216 0.0
C1275 C 0.56009 0.87713 0.18095 0.0
H1276 H 0.58166 0.90835 0.10509 0.0
H1277 H 0.67679 0.91 0.14244 0.0
H1278 H 0.53355 0.92417 0.14314 0.0
H1279 H 0.56742 0.97683 0.14002 0.0
H1280 H 0.55007 0.94486 0.11611 0.0
H1281 H 0.703 0.95277 0.17462 0.0
H1282 H 0.67863 0.97895 0.18533 0.0
H1283 H 0.6575 0.92633 0.19026 0.0
H1284 H 0.58519 0.02328 0.20447 0.0
H1285 H 0.52196 0.89538 0.21148 0.0
H1286 H 0.62378 0.03434 0.15691 0.0
H1287 H 0.66313 0.02712 0.16752 0.0
H1288 H 0.64616 0.05593 0.18294 0.0
H1289 H 0.54769 0.87007 0.16403 0.0
H1290 H 0.53829 0.85363 0.19219 0.0
H1291 H 0.58809 0.87564 0.18104 0.0
C1292 C 0.13244 0.74603 0.14882 0.0
C1293 C 0.11706 0.74188 0.12753 0.0
C1294 C 0.112 0.71669 0.16482 0.0
C1295 C 0.07525 0.68214 0.15932 0.0
C1296 C 0.05737 0.68007 0.13862 0.0
C1297 C 0.07864 0.71011 0.12284 0.0
C1298 C 0.13219 0.72057 0.1867 0.0
C1299 C 0.01778 0.6443 0.13231 0.0
C1300 C 0.0721 0.59199 0.1855 0.0
C1301 C 0.0508 0.5878 0.20494 0.0
C1302 C 0.07741 0.62054 0.16966 0.0
C1303 C 0.061 0.64575 0.17328 0.0
C1304 C 0.03661 0.63946 0.19197 0.0
C1305 C 0.03182 0.6105 0.20767 0.0
C1306 C 0.1033 0.62572 0.14987 0.0
C1307 C 0.01783 0.66503 0.19618 0.0
H1308 H 0.16211 0.77085 0.15247 0.0
H1309 H 0.06679 0.7068 0.10633 0.0
H1310 H 0.11052 0.71278 0.20036 0.0
H1311 H 0.14381 0.69941 0.18728 0.0
H1312 H 0.15766 0.75133 0.18947 0.0
H1313 H 0.00337 0.65154 0.11863 0.0
H1314 H 0.02276 0.61969 0.12683 0.0
H1315 H 0.99699 0.63322 0.14653 0.0
H1316 H 0.0862 0.57399 0.18303 0.0
H1317 H 0.01508 0.60724 0.22259 0.0
H1318 H 0.13171 0.65477 0.15105 0.0
H1319 H 0.088 0.62623 0.13455 0.0
H1320 H 0.11077 0.60144 0.14851 0.0
H1321 H 0.04064 0.69414 0.20325 0.0
H1322 H 0.99253 0.6505 0.20798 0.0
H1323 H 0.00685 0.67133 0.18068 0.0
C1324 C 0.40404 0.42538 0.19735 0.0
C1325 C 0.38938 0.43711 0.21526 0.0
C1326 C 0.37897 0.40496 0.17942 0.0
C1327 C 0.33872 0.39658 0.17948 0.0
C1328 C 0.32275 0.40376 0.19878 0.0
C1329 C 0.34828 0.42388 0.21643 0.0
C1330 C 0.39671 0.39629 0.15952 0.0
C1331 C 0.27989 0.39479 0.19982 0.0
C1332 C 0.29577 0.42075 0.13018 0.0
C1333 C 0.26413 0.38306 0.12413 0.0
C1334 C 0.32212 0.42503 0.14708 0.0
C1335 C 0.31675 0.39062 0.15841 0.0
C1336 C 0.28687 0.35207 0.1512 0.0
C1337 C 0.26072 0.34868 0.13402 0.0
C1338 C 0.35385 0.46683 0.15379 0.0
C1339 C 0.28084 0.31458 0.16241 0.0
H1340 H 0.43568 0.43501 0.19645 0.0
H1341 H 0.33659 0.43202 0.23051 0.0
H1342 H 0.3745 0.36783 0.15157 0.0
H1343 H 0.40561 0.42071 0.14734 0.0
H1344 H 0.42376 0.3945 0.1639 0.0
H1345 H 0.2706 0.39662 0.21687 0.0
H1346 H 0.27659 0.41677 0.18955 0.0
H1347 H 0.25923 0.36451 0.19322 0.0
H1348 H 0.29903 0.44737 0.1222 0.0
H1349 H 0.23648 0.31945 0.12922 0.0
H1350 H 0.38366 0.4691 0.15458 0.0
H1351 H 0.34696 0.47362 0.17041 0.0
H1352 H 0.35579 0.49006 0.14224 0.0
H1353 H 0.30969 0.31799 0.16821 0.0
H1354 H 0.26616 0.28829 0.15125 0.0
H1355 H 0.26117 0.30835 0.17692 0.0
C1356 C 0.74327 0.81304 0.5199 0.0
C1357 C 0.71699 0.79536 0.53765 0.0
C1358 C 0.74896 0.78987 0.50425 0.0
C1359 C 0.72723 0.74761 0.50604 0.0
C1360 C 0.6986 0.72928 0.52306 0.0
C1361 C 0.69401 0.75346 0.53885 0.0
C1362 C 0.77982 0.81095 0.48638 0.0
C1363 C 0.67407 0.68435 0.52517 0.0
C1364 C 0.74286 0.70952 0.45241 0.0
C1365 C 0.77745 0.7078 0.45725 0.0
C1366 C 0.72199 0.71655 0.4691 0.0
C1367 C 0.73742 0.72388 0.49078 0.0
C1368 C 0.77002 0.71806 0.496 0.0
C1369 C 0.78949 0.7097 0.4791 0.0
C1370 C 0.6863 0.72073 0.46305 0.0
C1371 C 0.78776 0.72597 0.51882 0.0
H1372 H 0.76075 0.84538 0.5186 0.0
H1373 H 0.67358 0.73956 0.55249 0.0
H1374 H 0.80365 0.80287 0.48757 0.0
H1375 H 0.76571 0.80135 0.46997 0.0
H1376 H 0.79412 0.84407 0.48739 0.0
H1377 H 0.64684 0.67504 0.53531 0.0
H1378 H 0.66488 0.66986 0.5088 0.0
H1379 H 0.69236 0.67311 0.53321 0.0
H1380 H 0.73376 0.70812 0.43542 0.0
H1381 H 0.81662 0.7088 0.48267 0.0
H1382 H 0.69608 0.75288 0.46072 0.0
H1383 H 0.6635 0.70898 0.47631 0.0
H1384 H 0.67225 0.70471 0.44751 0.0
H1385 H 0.80461 0.75876 0.52185 0.0
H1386 H 0.80866 0.71423 0.52098 0.0
H1387 H 0.76386 0.71226 0.53141 0.0
C1388 C 0.2618 0.02485 0.4604 0.0
C1389 C 0.29477 0.06359 0.45813 0.0
C1390 C 0.25985 -0.00021 0.47749 0.0
C1391 C 0.29247 0.01318 0.49227 0.0
C1392 C 0.32825 0.04971 0.48806 0.0
C1393 C 0.32881 0.07498 0.47119 0.0
C1394 C 0.22097 0.96096 0.48103 0.0
C1395 C 0.365 0.06371 0.50219 0.0
C1396 C 0.2467 0.98166 0.54784 0.0
C1397 C 0.23836 0.94184 0.5482 0.0
C1398 C 0.26909 0.00752 0.53084 0.0
C1399 C 0.28464 0.99355 0.51415 0.0
C1400 C 0.2823 0.95588 0.51659 0.0
C1401 C 0.25843 0.92994 0.53346 0.0
C1402 C 0.27161 0.04787 0.52938 0.0
C1403 C 0.30184 0.94146 0.50035 0.0
H1404 H 0.23594 0.0151 0.4498 0.0
H1405 H 0.355 0.10437 0.46912 0.0
H1406 H 0.2266 0.93549 0.48164 0.0
H1407 H 0.20745 0.96193 0.49696 0.0
H1408 H 0.19872 0.95492 0.46783 0.0
H1409 H 0.39243 0.07832 0.49187 0.0
H1410 H 0.36695 0.08649 0.51403 0.0
H1411 H 0.36466 0.03874 0.51146 0.0
H1412 H 0.23271 0.99163 0.55981 0.0
H1413 H 0.25332 0.89964 0.53406 0.0
H1414 H 0.25474 0.04868 0.51479 0.0
H1415 H 0.30319 0.0719 0.52743 0.0
H1416 H 0.25916 0.05465 0.54418 0.0
H1417 H 0.2798 0.9229 0.48758 0.0
H1418 H 0.31192 0.92237 0.50866 0.0
H1419 H 0.32792 0.96684 0.49217 0.0
C1420 C 0.07179 0.30779 0.52964 0.0
C1421 C 0.05566 0.28629 0.54911 0.0
C1422 C 0.04687 0.30211 0.51149 0.0
C1423 C 0.00527 0.27433 0.51305 0.0
C1424 C 0.9885 0.25723 0.53368 0.0
C1425 C 0.01397 0.26331 0.55145 0.0
C1426 C 0.06572 0.32195 0.48997 0.0
C1427 C 0.94427 0.22804 0.53629 0.0
C1428 C 0.92938 0.24245 0.4663 0.0
C1429 C 0.9284 0.20726 0.45942 0.0
C1430 C 0.95591 0.26636 0.48304 0.0
C1431 C 0.98181 0.2546 0.49289 0.0
C1432 C 0.98244 0.22042 0.48492 0.0
C1433 C 0.9558 0.19732 0.46838 0.0
C1434 C 0.95479 0.30293 0.4908 0.0
C1435 C 0.00989 0.20686 0.49458 0.0
H1436 H 0.10402 0.32591 0.52784 0.0
H1437 H 0.00143 0.24729 0.56669 0.0
H1438 H 0.07045 0.30086 0.47972 0.0
H1439 H 0.04588 0.32992 0.4807 0.0
H1440 H 0.09523 0.34939 0.49254 0.0
H1441 H 0.93513 0.22312 0.55384 0.0
H1442 H 0.92625 0.23883 0.52751 0.0
H1443 H 0.93712 0.19879 0.52902 0.0
H1444 H 0.90855 0.2505 0.45922 0.0
H1445 H 0.95599 0.17075 0.46268 0.0
H1446 H 0.98507 0.32732 0.49551 0.0
H1447 H 0.93527 0.29506 0.5055 0.0
H1448 H 0.94241 0.31422 0.47797 0.0
H1449 H 0.04143 0.23163 0.49412 0.0
H1450 H 0.00803 0.18083 0.48567 0.0
H1451 H 0.00191 0.19825 0.51203 0.0
C1452 C 0.2416 0.29917 0.54607 0.0
C1453 C 0.19999 0.27886 0.54271 0.0
C1454 C 0.26713 0.29402 0.53151 0.0
C1455 C 0.25057 0.2679 0.51328 0.0
C1456 C 0.20893 0.24958 0.50905 0.0
C1457 C 0.18428 0.25529 0.52377 0.0
C1458 C 0.3114 0.31462 0.5364 0.0
C1459 C 0.18983 0.22168 0.48974 0.0
C1460 C 0.30361 0.25241 0.46491 0.0
C1461 C 0.29959 0.21531 0.47049 0.0
C1462 C 0.2914 0.27246 0.47966 0.0
C1463 C 0.27485 0.25479 0.50029 0.0
C1464 C 0.27496 0.21957 0.50677 0.0
C1465 C 0.2873 0.20032 0.49179 0.0
C1466 C 0.2926 0.31038 0.47229 0.0
C1467 C 0.25791 0.19967 0.52861 0.0
H1468 H 0.25404 0.31757 0.5606 0.0
H1469 H 0.15226 0.23994 0.52081 0.0
H1470 H 0.31879 0.29275 0.54371 0.0
H1471 H 0.32921 0.32623 0.5211 0.0
H1472 H 0.32063 0.33978 0.54815 0.0
H1473 H 0.15773 0.21259 0.48771 0.0
H1474 H 0.20586 0.23613 0.47432 0.0
H1475 H 0.19197 0.19426 0.49211 0.0
H1476 H 0.31288 0.26398 0.44841 0.0
H1477 H 0.28444 0.17173 0.49618 0.0
H1478 H 0.30078 0.33188 0.48609 0.0
H1479 H 0.26244 0.30309 0.4664 0.0
H1480 H 0.31424 0.32503 0.45864 0.0
H1481 H 0.26962 0.22194 0.54212 0.0
H1482 H 0.265 0.17567 0.53232 0.0
H1483 H 0.22483 0.18613 0.52835 0.0
C1484 C 0.75914 0.06823 0.46687 0.0
C1485 C 0.7804 0.05624 0.45306 0.0
C1486 C 0.7379 0.04483 0.48513 0.0
C1487 C 0.73902 0.00944 0.48986 0.0
C1488 C 0.75707 0.99535 0.47472 0.0
C1489 C 0.77696 0.01862 0.45637 0.0
C1490 C 0.71692 0.05965 0.50011 0.0
C1491 C 0.75901 0.9577 0.47897 0.0
C1492 C 0.75538 0.98211 0.54652 0.0
C1493 C 0.72193 0.94366 0.54883 0.0
C1494 C 0.75956 0.00582 0.52823 0.0
C1495 C 0.72896 0.99119 0.51212 0.0
C1496 C 0.69272 0.95495 0.51591 0.0
C1497 C 0.68976 0.93121 0.53415 0.0
C1498 C 0.79868 0.04447 0.52504 0.0
C1499 C 0.65838 0.93959 0.49985 0.0
H1500 H 0.76076 0.09679 0.46416 0.0
H1501 H 0.79226 0.00846 0.44543 0.0
H1502 H 0.69075 0.03447 0.50835 0.0
H1503 H 0.73807 0.07913 0.51299 0.0
H1504 H 0.70666 0.07773 0.49087 0.0
H1505 H 0.77216 0.94976 0.46493 0.0
H1506 H 0.77758 0.96193 0.49376 0.0
H1507 H 0.72866 0.93209 0.48221 0.0
H1508 H 0.77989 0.99259 0.55816 0.0
H1509 H 0.66331 0.90196 0.53609 0.0
H1510 H 0.79305 0.06928 0.52109 0.0
H1511 H 0.81526 0.04123 0.51101 0.0
H1512 H 0.81814 0.05296 0.53984 0.0
H1513 H 0.65654 0.96461 0.492 0.0
H1514 H 0.6294 0.91935 0.50805 0.0
H1515 H 0.6629 0.9223 0.48671 0.0
C1516 C 0.06135 0.75166 0.53745 0.0
C1517 C 0.09145 0.791 0.53287 0.0
C1518 C 0.02991 0.73021 0.5224 0.0
C1519 C 0.02871 0.74875 0.5025 0.0
C1520 C 0.06134 0.78682 0.49694 0.0
C1521 C 0.09225 0.80737 0.51217 0.0
C1522 C 0.99625 0.68929 0.52871 0.0
C1523 C 0.06169 0.80781 0.4759 0.0
C1524 C 0.95328 0.703 0.45578 0.0
C1525 C 0.92815 0.71874 0.46027 0.0
C1526 C 0.98463 0.70973 0.47026 0.0
C1527 C 0.99089 0.73281 0.48955 0.0
C1528 C 0.96359 0.746 0.49489 0.0
C1529 C 0.93266 0.73876 0.48025 0.0
C1530 C 0.01251 0.69442 0.46419 0.0
C1531 C 0.96875 0.7705 0.51531 0.0
H1532 H 0.06059 0.73884 0.55342 0.0
H1533 H 0.11579 0.83761 0.50843 0.0
H1534 H 0.97084 0.69202 0.53523 0.0
H1535 H 0.98525 0.66913 0.51422 0.0
H1536 H 0.00574 0.67536 0.54161 0.0
H1537 H 0.09128 0.83485 0.47279 0.0
H1538 H 0.05397 0.78732 0.46166 0.0
H1539 H 0.03878 0.81719 0.4769 0.0
H1540 H 0.9499 0.68736 0.44042 0.0
H1541 H 0.91292 0.75041 0.48407 0.0
H1542 H 0.02096 0.6833 0.4789 0.0
H1543 H 0.04042 0.71925 0.45709 0.0
H1544 H -0.00117 0.66999 0.45183 0.0
H1545 H 0.97227 0.75555 0.53001 0.0
H1546 H 0.94299 0.77536 0.51807 0.0
H1547 H 0.99633 0.80019 0.51379 0.0
C1548 C 0.2731 0.34351 0.02115 0.0
C1549 C 0.2372 0.3226 0.03301 0.0
C1550 C 0.28929 0.32321 0.00991 0.0
C1551 C 0.26907 0.28088 0.01044 0.0
C1552 C 0.23329 0.25951 0.02274 0.0
C1553 C 0.21779 0.28067 0.03398 0.0
C1554 C 0.32773 0.3471 0.99712 0.0
C1555 C 0.21098 0.21434 0.02365 0.0
C1556 C 0.29268 0.23332 0.96251 0.0
C1557 C 0.32178 0.2259 0.97163 0.0
C1558 C 0.27415 0.24983 0.97522 0.0
C1559 C 0.28512 0.2593 0.99754 0.0
C1560 C 0.3137 0.25098 0.007 0.0
C1561 C 0.33168 0.23436 0.99394 0.0
C1562 C 0.24374 0.25828 0.96457 0.0
C1563 C 0.32626 0.26084 0.03074 0.0
H1564 H 0.28857 0.37594 0.0205 0.0
H1565 H 0.19006 0.26432 0.0431 0.0
H1566 H 0.35044 0.33935 0.00266 0.0
H1567 H 0.32218 0.33949 0.97941 0.0
H1568 H 0.34041 0.37992 0.99899 0.0
H1569 H 0.18449 0.20228 0.03467 0.0
H1570 H 0.20073 0.20198 0.00692 0.0
H1571 H 0.23118 0.2035 0.02944 0.0
H1572 H 0.28468 0.22675 0.94533 0.0
H1573 H 0.35408 0.22869 0.00116 0.0
H1574 H 0.25551 0.29106 0.96414 0.0
H1575 H 0.21569 0.24469 0.97434 0.0
H1576 H 0.23644 0.24656 0.94751 0.0
H1577 H 0.34191 0.29377 0.03313 0.0
H1578 H 0.34658 0.24976 0.03603 0.0
H1579 H 0.29956 0.24762 0.04159 0.0
C1580 C 0.73535 0.07673 0.97961 0.0
C1581 C 0.76436 0.08512 0.96336 0.0
C1582 C 0.72031 0.04212 0.99249 0.0
C1583 C 0.73424 0.01489 0.98892 0.0
C1584 C 0.76337 0.02296 0.97253 0.0
C1585 C 0.77823 0.05811 0.95997 0.0
C1586 C 0.68929 0.03461 0.00985 0.0
C1587 C 0.77849 0.99426 0.96813 0.0
C1588 C 0.71333 0.94099 0.03526 0.0
C1589 C 0.67694 0.90831 0.02835 0.0
C1590 C 0.73326 0.97557 0.02221 0.0
C1591 C 0.71656 0.9771 0.00174 0.0
C1592 C 0.68079 0.94349 0.9943 0.0
C1593 C 0.66131 0.90965 0.00774 0.0
C1594 C 0.77122 0.01105 0.03072 0.0
C1595 C 0.66225 0.94378 0.97247 0.0
H1596 H 0.72453 0.09745 0.98247 0.0
H1597 H 0.80063 0.06436 0.94746 0.0
H1598 H 0.66093 0.00672 0.00599 0.0
H1599 H 0.69965 0.03033 0.02611 0.0
H1600 H 0.68285 0.05959 0.01115 0.0
H1601 H 0.80194 0.00541 0.95519 0.0
H1602 H 0.79102 0.98916 0.9834 0.0
H1603 H 0.75326 0.96483 0.96289 0.0
H1604 H 0.72552 0.94008 0.05116 0.0
H1605 H 0.63347 0.88426 0.00214 0.0
H1606 H 0.76574 0.03619 0.03412 0.0
H1607 H 0.79522 0.02157 0.01816 0.0
H1608 H 0.78205 0.00395 0.04605 0.0
H1609 H 0.65176 0.96583 0.97297 0.0
H1610 H 0.63638 0.91399 0.96824 0.0
H1611 H 0.68484 0.95313 0.95915 0.0
C1612 C 0.91415 0.65113 0.98848 0.0
C1613 C 0.90269 0.66917 0.97219 0.0
C1614 C 0.95002 0.67304 1.00002 0.0
C1615 C 0.97539 0.71399 0.99502 0.0
C1616 C 0.96414 0.73259 0.97868 0.0
C1617 C 0.92776 0.70992 0.96744 0.0
C1618 C 0.96105 0.6521 0.01734 0.0
C1619 C 0.99083 0.77616 0.97284 0.0
C1620 C 0.05554 0.77022 0.03792 0.0
C1621 C 0.08686 0.76556 0.02962 0.0
C1622 C 0.0194 0.75534 0.02627 0.0
C1623 C 0.01503 0.73595 0.00583 0.0
C1624 C 0.04742 0.73325 0.99687 0.0
C1625 C 0.08282 0.74786 0.00894 0.0
C1626 C 0.98527 0.75846 0.03632 0.0
C1627 C 0.04404 0.71309 0.97504 0.0
H1628 H 0.89497 0.61972 0.99238 0.0
H1629 H 0.91903 0.72409 0.95493 0.0
H1630 H 0.98853 0.65174 0.01229 0.0
H1631 H 0.9677 0.66856 0.03314 0.0
H1632 H 0.93686 0.62072 0.02013 0.0
H1633 H 0.97668 0.78671 0.96066 0.0
H1634 H 0.99828 0.79501 0.9878 0.0
H1635 H 0.01946 0.78075 0.96593 0.0
H1636 H 0.05873 0.78411 0.05385 0.0
H1637 H 0.10728 0.74492 0.00221 0.0
H1638 H 0.96128 0.72826 0.04144 0.0
H1639 H 0.97205 0.76985 0.02408 0.0
H1640 H 0.99492 0.77844 0.05091 0.0
H1641 H 0.02276 0.68047 0.97655 0.0
H1642 H 0.07332 0.71738 0.96933 0.0
H1643 H 0.03207 0.72488 0.96231 0.0
C1644 C 0.71057 0.77348 0.04445 0.0
C1645 C 0.66999 0.76069 0.04117 0.0
C1646 C 0.72937 0.7564 0.03239 0.0
C1647 C 0.70662 0.72524 0.01723 0.0
C1648 C 0.66522 0.71123 0.0146 0.0
C1649 C 0.64754 0.72953 0.02639 0.0
C1650 C 0.77372 0.77245 0.03535 0.0
C1651 C 0.63967 0.67725 0.99911 0.0
C1652 C 0.75609 0.70195 0.96996 0.0
C1653 C 0.75806 0.66913 0.97833 0.0
C1654 C 0.74047 0.72134 0.98272 0.0
C1655 C 0.72584 0.70698 0.00412 0.0
C1656 C 0.72773 0.67385 0.0126 0.0
C1657 C 0.74406 0.65553 0.99967 0.0
C1658 C 0.73931 0.75695 0.97327 0.0
C1659 C 0.71164 0.65714 0.03514 0.0
H1660 H 0.72794 0.79793 0.05571 0.0
H1661 H 0.61603 0.71959 0.02399 0.0
H1662 H 0.7793 0.74797 0.04029 0.0
H1663 H 0.78943 0.78452 0.0195 0.0
H1664 H 0.78702 0.79655 0.04791 0.0
H1665 H 0.60754 0.66865 0.99985 0.0
H1666 H 0.65037 0.68602 0.982 0.0
H1667 H 0.64231 0.65059 0.00314 0.0
H1668 H 0.76705 0.71269 0.95353 0.0
H1669 H 0.74516 0.62992 0.00618 0.0
H1670 H 0.75441 0.78289 0.98459 0.0
H1671 H 0.70778 0.74986 0.97154 0.0
H1672 H 0.75402 0.76582 0.95693 0.0
H1673 H 0.72647 0.68084 0.04777 0.0
H1674 H 0.71619 0.6317 0.03949 0.0
H1675 H 0.6791 0.64668 0.03584 0.0
C1676 C 0.24308 0.90438 0.00721 0.0
C1677 C 0.23441 0.90472 0.02959 0.0
C1678 C 0.26081 0.93962 0.99479 0.0
C1679 C 0.27011 0.97621 0.00497 0.0
C1680 C 0.26134 0.97692 0.02751 0.0
C1681 C 0.24363 0.94111 0.0396 0.0
C1682 C 0.26994 0.93773 0.97082 0.0
C1683 C 0.2709 0.01554 0.03885 0.0
C1684 C 0.35092 0.07107 0.97826 0.0
C1685 C 0.32822 0.0843 0.96666 0.0
C1686 C 0.33234 0.0361 0.99094 0.0
C1687 C 0.29004 0.01383 0.99206 0.0
C1688 C 0.26689 0.02675 0.98027 0.0
C1689 C 0.28627 0.06181 0.96763 0.0
C1690 C 0.358 0.02297 0.00311 0.0
C1691 C 0.22167 0.00359 0.98108 0.0
H1692 H 0.23622 0.87647 0.99929 0.0
H1693 H 0.23702 0.94164 0.05687 0.0
H1694 H 0.25486 0.94997 0.96048 0.0
H1695 H 0.30263 0.9565 0.96789 0.0
H1696 H 0.26015 0.90671 0.96531 0.0
H1697 H 0.26132 0.01085 0.05633 0.0
H1698 H 0.30363 0.03683 0.03816 0.0
H1699 H 0.2559 0.02981 0.03022 0.0
H1700 H 0.38336 0.08816 0.97754 0.0
H1701 H 0.26852 0.0719 0.95879 0.0
H1702 H 0.35094 0.99278 0.99744 0.0
H1703 H 0.35134 0.02072 0.02095 0.0
H1704 H 0.39054 0.04394 0.0007 0.0
H1705 H 0.21038 0.97279 0.97476 0.0
H1706 H 0.20807 0.01804 0.97126 0.0
H1707 H 0.21132 0.00085 0.99833 0.0
C1708 C 0.91129 0.25387 0.98646 0.0
C1709 C 0.90845 0.23047 0.96816 0.0
C1710 C 0.94611 0.27204 0.99942 0.0
C1711 C 0.97846 0.26588 0.99425 0.0
C1712 C 0.97534 0.2415 0.97609 0.0
C1713 C 0.94058 0.2245 0.96309 0.0
C1714 C 0.94864 0.2986 0.01831 0.0
C1715 C 0.00887 0.23359 0.97029 0.0
C1716 C 0.08402 0.34202 0.01217 0.0
C1717 C 0.08885 0.32402 0.03106 0.0
C1718 C 0.04795 0.32381 1.00035 0.0
C1719 C 0.01621 0.28619 0.00726 0.0
C1720 C 0.02088 0.26783 0.02633 0.0
C1721 C 0.05702 0.28724 0.03818 0.0
C1722 C 0.04384 0.34485 0.98043 0.0
C1723 C 0.988 0.22737 0.03397 0.0
H1724 H 0.88664 0.25883 0.99032 0.0
H1725 H 0.93839 0.20619 0.94906 0.0
H1726 H 0.95475 0.28761 0.03385 0.0
H1727 H 0.97393 0.32943 0.0156 0.0
H1728 H 0.92069 0.29995 0.02032 0.0
H1729 H 0.0008 0.21205 0.95648 0.0
H1730 H 0.036 0.26202 0.96561 0.0
H1731 H 0.01683 0.22151 0.98478 0.0
H1732 H 0.1084 0.37071 0.00676 0.0
H1733 H 0.06072 0.27317 0.05272 0.0
H1734 H 0.01718 0.34849 0.98219 0.0
H1735 H 0.03924 0.32648 0.96552 0.0
H1736 H 0.07064 0.37484 0.97785 0.0
H1737 H 0.96025 0.22846 0.03724 0.0
H1738 H 0.99635 0.21716 0.04911 0.0
H1739 H 0.98096 0.20482 0.02084 0.0
C1740 C 0.93337 0.68849 0.34426 0.0
C1741 C 0.91127 0.66993 0.36328 0.0
C1742 C 0.949 0.66971 0.33114 0.0
C1743 C 0.94293 0.63175 0.33738 0.0
C1744 C 0.9206 0.61277 0.35653 0.0
C1745 C 0.90479 0.632 0.3692 0.0
C1746 C 0.97243 0.69073 0.31074 0.0
C1747 C 0.91415 0.57255 0.36386 0.0
C1748 C 0.96145 0.56956 0.29556 0.0
C1749 C 0.0006 0.57906 0.30096 0.0
C1750 C 0.94218 0.58662 0.30721 0.0
C1751 C 0.96247 0.61333 0.32475 0.0
C1752 C 0.00196 0.62306 0.33022 0.0
C1753 C 0.02059 0.60605 0.31818 0.0
C1754 C 0.9002 0.57612 0.30079 0.0
C1755 C 0.02449 0.65123 0.34892 0.0
H1756 H 0.93813 0.71762 0.33943 0.0
H1757 H 0.88772 0.61754 0.38387 0.0
H1758 H 0.00399 0.69792 0.31256 0.0
H1759 H 0.95985 0.67077 0.29625 0.0
H1760 H 0.97222 0.71896 0.30742 0.0
H1761 H 0.89479 0.56113 0.37866 0.0
H1762 H 0.9002 0.55028 0.35044 0.0
H1763 H 0.94345 0.57495 0.36764 0.0
H1764 H 0.94588 0.54884 0.28224 0.0
H1765 H 0.05082 0.61355 0.32258 0.0
H1766 H 0.8995 0.60374 0.2965 0.0
H1767 H 0.87959 0.56207 0.31488 0.0
H1768 H 0.88877 0.55525 0.28658 0.0
H1769 H 0.02772 0.68105 0.34579 0.0
H1770 H 0.05483 0.65512 0.35127 0.0
H1771 H 0.00742 0.63974 0.36444 0.0
C1772 C 0.42656 0.39267 0.29946 0.0
C1773 C 0.43679 0.43026 0.30824 0.0
C1774 C 0.41064 0.35846 0.31284 0.0
C1775 C 0.40468 0.36186 0.33551 0.0
C1776 C 0.41561 0.39976 0.34456 0.0
C1777 C 0.43152 0.43348 0.33083 0.0
C1778 C 0.39934 0.31849 0.3026 0.0
C1779 C 0.40957 0.40455 0.36866 0.0
C1780 C 0.32367 0.26843 0.36339 0.0
C1781 C 0.34603 0.2538 0.3741 0.0
C1782 C 0.34248 0.30392 0.35114 0.0
C1783 C 0.38475 0.32535 0.34946 0.0
C1784 C 0.40764 0.31139 0.36066 0.0
C1785 C 0.38799 0.27579 0.37293 0.0
C1786 C 0.31701 0.31801 0.33962 0.0
C1787 C 0.45279 0.33355 0.35925 0.0
H1788 H 0.43058 0.38984 0.28206 0.0
H1789 H 0.43934 0.46234 0.33782 0.0
H1790 H 0.4141 0.30428 0.31153 0.0
H1791 H 0.36651 0.2981 0.30396 0.0
H1792 H 0.40785 0.32125 0.28498 0.0
H1793 H 0.42168 0.43639 0.37336 0.0
H1794 H 0.37713 0.38773 0.37262 0.0
H1795 H 0.42433 0.3918 0.37887 0.0
H1796 H 0.29124 0.25187 0.36436 0.0
H1797 H 0.40547 0.26468 0.38112 0.0
H1798 H 0.32143 0.31831 0.3216 0.0
H1799 H 0.32629 0.34911 0.34466 0.0
H1800 H 0.28459 0.29863 0.34323 0.0
H1801 H 0.46215 0.33395 0.34197 0.0
H1802 H 0.46628 0.31968 0.36964 0.0
H1803 H 0.4651 0.36515 0.36442 0.0
C1804 C 0.60208 0.05532 0.30142 0.0
C1805 C 0.57951 0.01336 0.30123 0.0
C1806 C 0.63872 0.07533 0.31274 0.0
C1807 C 0.65307 0.05275 0.3239 0.0
C1808 C 0.63081 0.01045 0.32334 0.0
C1809 C 0.59431 0.9913 0.31207 0.0
C1810 C 0.66176 0.12053 0.31306 0.0
C1811 C 0.64534 0.98532 0.33486 0.0
C1812 C 0.76261 0.09723 0.33874 0.0
C1813 C 0.76213 0.10393 0.36138 0.0
C1814 C 0.72753 0.08184 0.32616 0.0
C1815 C 0.69112 0.07301 0.33646 0.0
C1816 C 0.69056 0.08066 0.35916 0.0
C1817 C 0.72607 0.09593 0.37138 0.0
C1818 C 0.72919 0.07383 0.302 0.0
C1819 C 0.65223 0.07164 0.37067 0.0
H1820 H 0.59079 0.07252 0.2931 0.0
H1821 H 0.57727 0.95885 0.31181 0.0
H1822 H 0.66475 0.13139 0.33022 0.0
H1823 H 0.69249 0.13176 0.30663 0.0
H1824 H 0.64697 0.13366 0.30314 0.0
H1825 H 0.62484 0.95271 0.33239 0.0
H1826 H 0.6755 0.99315 0.32873 0.0
H1827 H 0.64811 0.99166 0.35275 0.0
H1828 H 0.79032 0.10338 0.33084 0.0
H1829 H 0.72543 0.10121 0.38883 0.0
H1830 H 0.71571 0.08827 0.29212 0.0
H1831 H 0.71138 0.04115 0.29882 0.0
H1832 H 0.76031 0.08492 0.29618 0.0
H1833 H 0.63761 0.08617 0.36191 0.0
H1834 H 0.65739 0.08198 0.38802 0.0
H1835 H 0.631 0.03889 0.37046 0.0
C1836 C 0.32455 0.08347 0.34872 0.0
C1837 C 0.34489 0.10642 0.3672 0.0
C1838 C 0.3412 0.06543 0.33569 0.0
C1839 C 0.37952 0.07122 0.34096 0.0
C1840 C 0.40057 0.09505 0.35934 0.0
C1841 C 0.38279 0.11196 0.3724 0.0
C1842 C 0.31739 0.03947 0.31655 0.0
C1843 C 0.44181 0.10253 0.36525 0.0
C1844 C 0.40789 0.99486 0.3219 0.0
C1845 C 0.43071 0.01324 0.30307 0.0
C1846 C 0.39058 0.01313 0.33415 0.0
C1847 C 0.39699 0.05118 0.32772 0.0
C1848 C 0.42011 0.06998 0.30875 0.0
C1849 C 0.43631 0.05054 0.29647 0.0
C1850 C 0.36533 0.99165 0.35397 0.0
C1851 C 0.42823 0.11088 0.30162 0.0
H1852 H 0.29509 0.07881 0.34474 0.0
H1853 H 0.39875 0.12991 0.38657 0.0
H1854 H 0.33469 0.05098 0.30111 0.0
H1855 H 0.31181 0.00855 0.31894 0.0
H1856 H 0.28812 0.03819 0.31457 0.0
H1857 H 0.45506 0.1235 0.37932 0.0
H1858 H 0.44028 0.07385 0.36959 0.0
H1859 H 0.46216 0.1151 0.35091 0.0
H1860 H 0.40314 0.96582 0.32693 0.0
H1861 H 0.45412 0.06496 0.282 0.0
H1862 H 0.33504 0.98807 0.35224 0.0
H1863 H 0.37901 0.00966 0.36899 0.0
H1864 H 0.36209 0.96158 0.3563 0.0
H1865 H 0.39958 0.11016 0.29828 0.0
H1866 H 0.44718 0.12161 0.28664 0.0
H1867 H 0.44352 0.13283 0.31504 0.0
C1868 C 0.99688 0.42979 0.32916 0.0
C1869 C 0.98973 0.4284 0.30646 0.0
C1870 C 0.9789 0.39494 0.34192 0.0
C1871 C 0.95309 0.3578 0.33177 0.0
C1872 C 0.94459 0.35627 0.30904 0.0
C1873 C 0.96309 0.39164 0.29662 0.0
C1874 C 0.98874 0.39768 0.36612 0.0
C1875 C 0.91705 0.3171 0.29771 0.0
C1876 C 0.94487 0.26437 0.35701 0.0
C1877 C 0.90782 0.24774 0.36781 0.0
C1878 C 0.96006 0.3004 0.34543 0.0
C1879 C 0.93757 0.32024 0.34456 0.0
C1880 C 0.90054 0.30413 0.35577 0.0
C1881 C 0.88613 0.26806 0.36738 0.0
C1882 C -6e-05 0.31695 0.33387 0.0
C1883 C 0.87585 0.3246 0.35515 0.0
H1884 H 0.01729 0.45806 0.33696 0.0
H1885 H 0.95729 0.39031 0.27913 0.0
H1886 H 0.96084 0.38265 0.37599 0.0
H1887 H 0.0057 0.38196 0.36945 0.0
H1888 H 0.00696 0.42917 0.37181 0.0
H1889 H 0.9111 0.32141 0.28035 0.0
H1890 H 0.93067 0.29765 0.29797 0.0
H1891 H 0.88807 0.30095 0.30657 0.0
H1892 H 0.96196 0.249 0.35743 0.0
H1893 H 0.85741 0.25529 0.37564 0.0
H1894 H 0.02085 0.34775 0.33977 0.0
H1895 H 0.99593 0.31885 0.31595 0.0
H1896 H 0.01403 0.29823 0.33657 0.0
H1897 H 0.89381 0.35581 0.36123 0.0
H1898 H 0.8482 0.30872 0.36522 0.0
H1899 H 0.86721 0.3262 0.33795 0.0
C1900 C 0.76117 0.66328 0.33992 0.0
C1901 C 0.76019 0.6563 0.36263 0.0
C1902 C 0.72608 0.64558 0.32731 0.0
C1903 C 0.68895 0.62016 0.33758 0.0
C1904 C 0.68772 0.61204 0.36036 0.0
C1905 C 0.72339 0.63026 0.37265 0.0
C1906 C 0.72865 0.65506 0.30307 0.0
C1907 C 0.6486 0.58497 0.37185 0.0
C1908 C 0.59609 0.61123 0.31066 0.0
C1909 C 0.58027 0.57435 0.29972 0.0
C1910 C 0.63134 0.62634 0.32307 0.0
C1911 C 0.65129 0.60402 0.32466 0.0
C1912 C 0.63583 0.56702 0.31346 0.0
C1913 C 0.60055 0.55267 0.30104 0.0
C1914 C 0.64715 0.66618 0.33457 0.0
C1915 C 0.65637 0.54245 0.31477 0.0
H1916 H 0.7894 0.68323 0.33195 0.0
H1917 H 0.72232 0.62469 0.39016 0.0
H1918 H 0.71419 0.627 0.29332 0.0
H1919 H 0.71226 0.67129 0.29956 0.0
H1920 H 0.76008 0.67376 0.29737 0.0
H1921 H 0.65299 0.57972 0.38932 0.0
H1922 H 0.62909 0.5985 0.37124 0.0
H1923 H 0.63247 0.55566 0.36331 0.0
H1924 H 0.58074 0.6283 0.30967 0.0
H1925 H 0.58844 0.52406 0.29274 0.0
H1926 H 0.6779 0.68741 0.32873 0.0
H1927 H 0.64902 0.66237 0.35251 0.0
H1928 H 0.628 0.67975 0.33171 0.0
H1929 H 0.68749 0.5601 0.30851 0.0
H1930 H 0.64042 0.51421 0.30518 0.0
H1931 H 0.65828 0.53488 0.33215 0.0
C1932 C 0.62959 0.90151 0.63048 0.0
C1933 C 0.65836 0.89406 0.64004 0.0
C1934 C 0.61063 0.91797 0.64284 0.0
C1935 C 0.62091 0.92745 0.66523 0.0
C1936 C 0.64951 0.91954 0.67506 0.0
C1937 C 0.66783 0.90284 0.66236 0.0
C1938 C 0.5801 0.92585 0.63185 0.0
C1939 C 0.66138 0.92951 0.69887 0.0
C1940 C 0.60406 0.00793 0.69006 0.0
C1941 C 0.5684 0.98515 0.70185 0.0
C1942 C 0.62162 0.98948 0.67824 0.0
C1943 C 0.60296 0.94722 0.67811 0.0
C1944 C 0.56713 0.924 0.69007 0.0
C1945 C 0.55033 0.94327 0.70189 0.0
C1946 C 0.66007 0.01524 0.66581 0.0
C1947 C 0.54638 0.87883 0.69021 0.0
H1948 H 0.62198 0.89471 0.61327 0.0
H1949 H 0.6901 0.89729 0.66987 0.0
H1950 H 0.55146 0.91092 0.64109 0.0
H1951 H 0.59085 0.95846 0.63195 0.0
H1952 H 0.57415 0.9151 0.61458 0.0
H1953 H 0.68302 0.92013 0.70424 0.0
H1954 H 0.67517 0.96227 0.70147 0.0
H1955 H 0.63448 0.91467 0.70954 0.0
H1956 H 0.61841 0.04032 0.69007 0.0
H1957 H 0.52276 0.92545 0.71095 0.0
H1958 H 0.65536 0.00804 0.64803 0.0
H1959 H 0.68368 0.00885 0.67147 0.0
H1960 H 0.67115 0.04774 0.66794 0.0
H1961 H 0.53802 0.86722 0.6732 0.0
H1962 H 0.51891 0.86516 0.70051 0.0
H1963 H 0.56704 0.8689 0.69649 0.0
C1964 C 0.11298 0.72651 0.63062 0.0
C1965 C 0.09316 0.74858 0.62892 0.0
C1966 C 0.09603 0.69048 0.64254 0.0
C1967 C 0.05832 0.67616 0.65283 0.0
C1968 C 0.03756 0.69756 0.65047 0.0
C1969 C 0.05524 0.73349 0.63859 0.0
C1970 C 0.119 0.6684 0.64471 0.0
C1971 C 0.99711 0.6831 0.661 0.0
C1972 C 0.99675 0.56803 0.67159 0.0
C1973 C 0.00411 0.5716 0.69431 0.0
C1974 C 0.01493 0.60166 0.65778 0.0
C1975 C 0.04113 0.63977 0.66689 0.0
C1976 C 0.04927 0.64349 0.68972 0.0
C1977 C 0.03063 0.60941 0.70315 0.0
C1978 C 0.00541 0.59655 0.63353 0.0
C1979 C 0.07707 0.68366 0.70004 0.0
H1980 H 0.14227 0.73796 0.6232 0.0
H1981 H 0.03947 0.7501 0.63717 0.0
H1982 H 0.12725 0.66829 0.66216 0.0
H1983 H 0.09998 0.63671 0.6396 0.0
H1984 H 0.1468 0.68219 0.63467 0.0
H1985 H 0.98401 0.70214 0.65664 0.0
H1986 H 0.97592 0.65187 0.65589 0.0
H1987 H -1e-05 0.68308 0.67914 0.0
H1988 H 0.97633 0.53899 0.66457 0.0
H1989 H 0.03662 0.61252 0.72066 0.0
H1990 H 0.03347 0.60936 0.62379 0.0
H1991 H 0.98984 0.61314 0.62893 0.0
H1992 H 0.98609 0.56462 0.62884 0.0
H1993 H 0.10659 0.69796 0.69167 0.0
H1994 H 0.08178 0.6812 0.71785 0.0
H1995 H 0.06452 0.70385 0.69798 0.0
C1996 C 0.26757 0.36815 0.63196 0.0
C1997 C 0.23691 0.33 0.63814 0.0
C1998 C 0.30366 0.38744 0.64375 0.0
C1999 C 0.30882 0.36819 0.66224 0.0
C2000 C 0.27777 0.32997 0.66874 0.0
C2001 C 0.24232 0.31122 0.65652 0.0
C2002 C 0.3365 0.42801 0.63623 0.0
C2003 C 0.28216 0.30866 0.68846 0.0
C2004 C 0.41291 0.39336 0.67957 0.0
C2005 C 0.42001 0.41882 0.69758 0.0
C2006 C 0.37717 0.37745 0.66767 0.0
C2007 C 0.34753 0.38676 0.67409 0.0
C2008 C 0.35428 0.41228 0.69228 0.0
C2009 C 0.39065 0.42824 0.70378 0.0
C2010 C 0.37108 0.35051 0.64826 0.0
C2011 C 0.32294 0.4223 0.69971 0.0
H2012 H 0.26353 0.38277 0.61777 0.0
H2013 H 0.21862 0.28188 0.66156 0.0
H2014 H 0.34554 0.44995 0.64986 0.0
H2015 H 0.36333 0.42615 0.63149 0.0
H2016 H 0.32721 0.4395 0.62199 0.0
H2017 H 0.25431 0.27999 0.69201 0.0
H2018 H 0.30681 0.3022 0.68562 0.0
H2019 H 0.29018 0.32811 0.7032 0.0
H2020 H 0.43553 0.38613 0.67453 0.0
H2021 H 0.39598 0.44786 0.71768 0.0
H2022 H 0.3641 0.36237 0.63332 0.0
H2023 H 0.34518 0.32021 0.65134 0.0
H2024 H 0.39784 0.34758 0.64488 0.0
H2025 H 0.31503 0.43604 0.68601 0.0
H2026 H 0.33317 0.44322 0.71391 0.0
H2027 H 0.29519 0.39448 0.70447 0.0
C2028 C 0.04767 0.45138 0.70326 0.0
C2029 C 0.00593 0.42854 0.70566 0.0
C2030 C 0.06866 0.43673 0.6911 0.0
C2031 C 0.04737 0.39835 0.68128 0.0
C2032 C 0.00544 0.37476 0.6842 0.0
C2033 C 0.98528 0.39013 0.69633 0.0
C2034 C 0.11343 0.46261 0.68836 0.0
C2035 C 0.98169 0.33348 0.67421 0.0
C2036 C 0.08772 0.36871 0.63219 0.0
C2037 C 0.10024 0.34394 0.64207 0.0
C2038 C 0.0719 0.388 0.64488 0.0
C2039 C 0.06858 0.38237 0.66795 0.0
C2040 C 0.0825 0.35861 0.67807 0.0
C2041 C 0.09809 0.33968 0.66503 0.0
C2042 C 0.05736 0.41319 0.63352 0.0
C2043 C 0.07949 0.35188 0.70262 0.0
H2044 H 0.06381 0.48113 0.71034 0.0
H2045 H 0.95305 0.37214 0.69824 0.0
H2046 H 0.12865 0.44629 0.69408 0.0
H2047 H 0.12082 0.46955 0.67071 0.0
H2048 H 0.12571 0.49122 0.6976 0.0
H2049 H 0.9493 0.31878 0.67832 0.0
H2050 H 0.98491 0.33545 0.65607 0.0
H2051 H 0.99349 0.31412 0.68009 0.0
H2052 H 0.08933 0.37226 0.61449 0.0
H2053 H 0.10795 0.32087 0.67289 0.0
H2054 H 0.07056 0.4431 0.64138 0.0
H2055 H 0.02434 0.39872 0.63521 0.0
H2056 H 0.065 0.41724 0.61576 0.0
H2057 H 0.09291 0.38092 0.71144 0.0
H2058 H 0.09467 0.33534 0.70812 0.0
H2059 H 0.0475 0.33448 0.7075 0.0
C2060 C 0.57154 0.60519 0.70348 0.0
C2061 C 0.56025 0.56838 0.69334 0.0
C2062 C 0.58856 0.64077 0.6912 0.0
C2063 C 0.59452 0.6394 0.66832 0.0
C2064 C 0.58211 0.60225 0.65791 0.0
C2065 C 0.5651 0.56722 0.67053 0.0
C2066 C 0.60134 0.67995 0.7028 0.0
C2067 C 0.58812 0.59962 0.63357 0.0
C2068 C 0.61702 0.72942 0.63295 0.0
C2069 C 0.65897 0.74912 0.63183 0.0
C2070 C 0.59549 0.69358 0.64479 0.0
C2071 C 0.61647 0.67704 0.65554 0.0
C2072 C 0.6587 0.69625 0.65397 0.0
C2073 C 0.67942 0.73208 0.64218 0.0
C2074 C 0.55044 0.67381 0.64614 0.0
C2075 C 0.68208 0.6792 0.66497 0.0
H2076 H 0.5678 0.60636 0.72106 0.0
H2077 H 0.55638 0.53894 0.66249 0.0
H2078 H 0.63444 0.69897 0.70213 0.0
H2079 H 0.58854 0.69658 0.69442 0.0
H2080 H 0.59187 0.6756 0.7203 0.0
H2081 H 0.57432 0.56817 0.62775 0.0
H2082 H 0.57508 0.61496 0.62412 0.0
H2083 H 0.62064 0.6151 0.62981 0.0
H2084 H 0.60105 0.74254 0.62508 0.0
H2085 H 0.71183 0.74698 0.64126 0.0
H2086 H 0.54114 0.67225 0.66354 0.0
H2087 H 0.53639 0.64262 0.63995 0.0
H2088 H 0.53859 0.69016 0.63655 0.0
H2089 H 0.67694 0.67732 0.68297 0.0
H2090 H 0.7148 0.69757 0.66188 0.0
H2091 H 0.67154 0.64834 0.65896 0.0
C2092 C 0.27267 0.88969 0.63357 0.0
C2093 C 0.23995 0.89456 0.63895 0.0
C2094 C 0.3069 0.90565 0.64698 0.0
C2095 C 0.3089 0.92781 0.66598 0.0
C2096 C 0.27592 0.93274 0.67153 0.0
C2097 C 0.24169 0.91571 0.65808 0.0
C2098 C 0.34112 0.89911 0.6407 0.0
C2099 C 0.2772 0.95686 0.69138 0.0
C2100 C 0.38654 0.94547 0.70992 0.0
C2101 C 0.41826 0.98321 0.70391 0.0
C2102 C 0.3507 0.92701 0.69775 0.0
C2103 C 0.34618 0.94721 0.67948 0.0
C2104 C 0.37773 0.98578 0.67375 0.0
C2105 C 0.41349 0.00309 0.68587 0.0
C2106 C 0.31802 0.88558 0.70414 0.0
C2107 C 0.37383 0.00873 0.65471 0.0
H2108 H 0.27141 0.87312 0.61892 0.0
H2109 H 0.21663 0.91982 0.66225 0.0
H2110 H 0.36812 0.92826 0.6369 0.0
H2111 H 0.34884 0.88573 0.65467 0.0
H2112 H 0.33392 0.8792 0.62618 0.0
H2113 H 0.24878 0.95722 0.69368 0.0
H2114 H 0.28321 0.94448 0.70642 0.0
H2115 H 0.30207 0.98818 0.68962 0.0
H2116 H 0.39012 0.92992 0.7238 0.0
H2117 H 0.43773 0.03249 0.68131 0.0
H2118 H 0.31194 0.86453 0.69031 0.0
H2119 H 0.28982 0.88573 0.70754 0.0
H2120 H 0.32604 0.87407 0.71888 0.0
H2121 H 0.37014 0.99221 0.63917 0.0
H2122 H 0.40033 0.03922 0.65309 0.0
H2123 H 0.34672 0.01153 0.65681 0.0
loop_
_geom_bond_atom_site_label_1
_geom_bond_atom_site_label_2
_geom_bond_distance
_geom_bond_site_symmetry_2
_ccdc_geom_bond_type
Fe0 O2 1.918 . S
Fe0 O5 1.997 . S
Fe0 O6 2.002 . S
Fe0 O11 1.976 . S
Fe0 O14 1.996 . S
Fe1 O2 1.918 . S
Fe1 O9 1.997 . S
Fe1 O12 1.996 . S
Fe1 O16 1.976 . S
Fe1 O19 2.002 . S
O2 Fe0 1.918 . S
O2 Fe1 1.918 . S
O2 Fe3 1.918 . S
Fe3 O2 1.918 . S
Fe3 O4 2.002 . S
Fe3 O13 1.976 . S
Fe3 O17 1.996 . S
Fe3 O20 1.997 . S
O4 Fe3 2.002 . S
O4 C21 1.295 . S
O5 Fe0 1.997 . S
O5 C21 1.235 . S
O6 Fe0 2.002 . S
O6 C7 1.295 . S
C7 O6 1.295 . S
C7 O9 1.235 . S
C8 O13 1.287 . S
C8 O14 1.255 . S
O9 Fe1 1.997 . S
O9 C7 1.235 . S
C10 O16 1.287 . S
C10 O17 1.255 . S
O11 Fe0 1.976 . S
O11 C18 1.287 . S
O12 Fe1 1.996 . S
O12 C18 1.255 . S
O13 Fe3 1.976 . S
O13 C8 1.287 . S
O14 Fe0 1.996 . S
O14 C8 1.255 . S
C15 O19 1.295 . S
C15 O20 1.235 . S
O16 Fe1 1.976 . S
O16 C10 1.287 . S
O17 Fe3 1.996 . S
O17 C10 1.255 . S
C18 O11 1.287 . S
C18 O12 1.255 . S
O19 Fe1 2.002 . S
O19 C15 1.295 . S
O20 Fe3 1.997 . S
O20 C15 1.235 . S
C21 O4 1.295 . S
C21 O5 1.235 . S
Fe22 O24 1.918 . S
Fe22 O27 1.997 . S
Fe22 O28 2.002 . S
Fe22 O33 1.976 . S
Fe22 O36 1.996 . S
Fe23 O24 1.918 . S
Fe23 O31 1.997 . S
Fe23 O34 1.996 . S
Fe23 O38 1.976 . S
Fe23 O41 2.002 . S
O24 Fe22 1.918 . S
O24 Fe23 1.918 . S
O24 Fe25 1.918 . S
Fe25 O24 1.918 . S
Fe25 O26 2.002 . S
Fe25 O35 1.976 . S
Fe25 O39 1.996 . S
Fe25 O42 1.997 . S
O26 Fe25 2.002 . S
O26 C43 1.295 . S
O27 Fe22 1.997 . S
O27 C43 1.235 . S
O28 Fe22 2.002 . S
O28 C29 1.295 . S
C29 O28 1.295 . S
C29 O31 1.235 . S
C30 O35 1.287 . S
C30 O36 1.255 . S
O31 Fe23 1.997 . S
O31 C29 1.235 . S
C32 O38 1.287 . S
C32 O39 1.255 . S
O33 Fe22 1.976 . S
O33 C40 1.287 . S
O34 Fe23 1.996 . S
O34 C40 1.255 . S
O35 Fe25 1.976 . S
O35 C30 1.287 . S
O36 Fe22 1.996 . S
O36 C30 1.255 . S
C37 O41 1.295 . S
C37 O42 1.235 . S
O38 Fe23 1.976 . S
O38 C32 1.287 . S
O39 Fe25 1.996 . S
O39 C32 1.255 . S
C40 O33 1.287 . S
C40 O34 1.255 . S
O41 Fe23 2.002 . S
O41 C37 1.295 . S
O42 Fe25 1.997 . S
O42 C37 1.235 . S
C43 O26 1.295 . S
C43 O27 1.235 . S
Fe44 O46 1.918 . S
Fe44 O49 1.997 . S
Fe44 O50 2.002 . S
Fe44 O55 1.976 . S
Fe44 O58 1.996 . S
Fe45 O46 1.918 . S
Fe45 O53 1.997 . S
Fe45 O56 1.996 . S
Fe45 O60 1.976 . S
Fe45 O63 2.002 . S
O46 Fe44 1.918 . S
O46 Fe45 1.918 . S
O46 Fe47 1.918 . S
Fe47 O46 1.918 . S
Fe47 O48 2.002 . S
Fe47 O57 1.976 . S
Fe47 O61 1.996 . S
Fe47 O64 1.997 . S
O48 Fe47 2.002 . S
O48 C65 1.295 . S
O49 Fe44 1.997 . S
O49 C65 1.235 . S
O50 Fe44 2.002 . S
O50 C51 1.295 . S
C51 O50 1.295 . S
C51 O53 1.235 . S
C52 O57 1.287 . S
C52 O58 1.255 . S
O53 Fe45 1.997 . S
O53 C51 1.235 . S
C54 O60 1.287 . S
C54 O61 1.255 . S
O55 Fe44 1.976 . S
O55 C62 1.287 . S
O56 Fe45 1.996 . S
O56 C62 1.255 . S
O57 Fe47 1.976 . S
O57 C52 1.287 . S
O58 Fe44 1.996 . S
O58 C52 1.255 . S
C59 O63 1.295 . S
C59 O64 1.235 . S
O60 Fe45 1.976 . S
O60 C54 1.287 . S
O61 Fe47 1.996 . S
O61 C54 1.255 . S
C62 O55 1.287 . S
C62 O56 1.255 . S
O63 Fe45 2.002 . S
O63 C59 1.295 . S
O64 Fe47 1.997 . S
O64 C59 1.235 . S
C65 O48 1.295 . S
C65 O49 1.235 . S
Fe66 O68 1.918 . S
Fe66 O71 1.997 . S
Fe66 O72 2.002 . S
Fe66 O77 1.976 . S
Fe66 O80 1.996 . S
Fe67 O68 1.918 . S
Fe67 O75 1.997 . S
Fe67 O78 1.996 . S
Fe67 O82 1.976 . S
Fe67 O85 2.002 . S
O68 Fe66 1.918 . S
O68 Fe67 1.918 . S
O68 Fe69 1.918 . S
Fe69 O68 1.918 . S
Fe69 O70 2.002 . S
Fe69 O79 1.976 . S
Fe69 O83 1.996 . S
Fe69 O86 1.997 . S
O70 Fe69 2.002 . S
O70 C87 1.295 . S
O71 Fe66 1.997 . S
O71 C87 1.235 . S
O72 Fe66 2.002 . S
O72 C73 1.295 . S
C73 O72 1.295 . S
C73 O75 1.235 . S
C74 O79 1.287 . S
C74 O80 1.255 . S
O75 Fe67 1.997 . S
O75 C73 1.235 . S
C76 O82 1.287 . S
C76 O83 1.255 . S
O77 Fe66 1.976 . S
O77 C84 1.287 . S
O78 Fe67 1.996 . S
O78 C84 1.255 . S
O79 Fe69 1.976 . S
O79 C74 1.287 . S
O80 Fe66 1.996 . S
O80 C74 1.255 . S
C81 O85 1.295 . S
C81 O86 1.235 . S
O82 Fe67 1.976 . S
O82 C76 1.287 . S
O83 Fe69 1.996 . S
O83 C76 1.255 . S
C84 O77 1.287 . S
C84 O78 1.255 . S
O85 Fe67 2.002 . S
O85 C81 1.295 . S
O86 Fe69 1.997 . S
O86 C81 1.235 . S
C87 O70 1.295 . S
C87 O71 1.235 . S
Fe88 O90 1.918 . S
Fe88 O93 1.997 . S
Fe88 O94 2.002 . S
Fe88 O99 1.976 . S
Fe88 O102 1.996 . S
Fe89 O90 1.918 . S
Fe89 O97 1.997 . S
Fe89 O100 1.996 . S
Fe89 O104 1.976 . S
Fe89 O107 2.002 . S
O90 Fe88 1.918 . S
O90 Fe89 1.918 . S
O90 Fe91 1.918 . S
Fe91 O90 1.918 . S
Fe91 O92 2.002 . S
Fe91 O101 1.976 . S
Fe91 O105 1.996 . S
Fe91 O108 1.997 . S
O92 Fe91 2.002 . S
O92 C109 1.295 . S
O93 Fe88 1.997 . S
O93 C109 1.235 . S
O94 Fe88 2.002 . S
O94 C95 1.295 . S
C95 O94 1.295 . S
C95 O97 1.235 . S
C96 O101 1.287 . S
C96 O102 1.255 . S
O97 Fe89 1.997 . S
O97 C95 1.235 . S
C98 O104 1.287 . S
C98 O105 1.255 . S
O99 Fe88 1.976 . S
O99 C106 1.287 . S
O100 Fe89 1.996 . S
O100 C106 1.255 . S
O101 Fe91 1.976 . S
O101 C96 1.287 . S
O102 Fe88 1.996 . S
O102 C96 1.255 . S
C103 O107 1.295 . S
C103 O108 1.235 . S
O104 Fe89 1.976 . S
O104 C98 1.287 . S
O105 Fe91 1.996 . S
O105 C98 1.255 . S
C106 O99 1.287 . S
C106 O100 1.255 . S
O107 Fe89 2.002 . S
O107 C103 1.295 . S
O108 Fe91 1.997 . S
O108 C103 1.235 . S
C109 O92 1.295 . S
C109 O93 1.235 . S
Fe110 O112 1.918 . S
Fe110 O115 1.997 . S
Fe110 O116 2.002 . S
Fe110 O121 1.976 . S
Fe110 O124 1.996 . S
Fe111 O112 1.918 . S
Fe111 O119 1.997 . S
Fe111 O122 1.996 . S
Fe111 O126 1.976 . S
Fe111 O129 2.002 . S
O112 Fe110 1.918 . S
O112 Fe111 1.918 . S
O112 Fe113 1.918 . S
Fe113 O112 1.918 . S
Fe113 O114 2.002 . S
Fe113 O123 1.976 . S
Fe113 O127 1.996 . S
Fe113 O130 1.997 . S
O114 Fe113 2.002 . S
O114 C131 1.295 . S
O115 Fe110 1.997 . S
O115 C131 1.235 . S
O116 Fe110 2.002 . S
O116 C117 1.295 . S
C117 O116 1.295 . S
C117 O119 1.235 . S
C118 O123 1.287 . S
C118 O124 1.255 . S
O119 Fe111 1.997 . S
O119 C117 1.235 . S
C120 O126 1.287 . S
C120 O127 1.255 . S
O121 Fe110 1.976 . S
O121 C128 1.287 . S
O122 Fe111 1.996 . S
O122 C128 1.255 . S
O123 Fe113 1.976 . S
O123 C118 1.287 . S
O124 Fe110 1.996 . S
O124 C118 1.255 . S
C125 O129 1.295 . S
C125 O130 1.235 . S
O126 Fe111 1.976 . S
O126 C120 1.287 . S
O127 Fe113 1.996 . S
O127 C120 1.255 . S
C128 O121 1.287 . S
C128 O122 1.255 . S
O129 Fe111 2.002 . S
O129 C125 1.295 . S
O130 Fe113 1.997 . S
O130 C125 1.235 . S
C131 O114 1.295 . S
C131 O115 1.235 . S
Fe132 O134 1.918 . S
Fe132 O137 1.997 . S
Fe132 O138 2.002 . S
Fe132 O143 1.976 . S
Fe132 O146 1.996 . S
Fe133 O134 1.918 . S
Fe133 O141 1.997 . S
Fe133 O144 1.996 . S
Fe133 O148 1.976 . S
Fe133 O151 2.002 . S
O134 Fe132 1.918 . S
O134 Fe133 1.918 . S
O134 Fe135 1.918 . S
Fe135 O134 1.918 . S
Fe135 O136 2.002 . S
Fe135 O145 1.976 . S
Fe135 O149 1.996 . S
Fe135 O152 1.997 . S
O136 Fe135 2.002 . S
O136 C153 1.295 . S
O137 Fe132 1.997 . S
O137 C153 1.235 . S
O138 Fe132 2.002 . S
O138 C139 1.295 . S
C139 O138 1.295 . S
C139 O141 1.235 . S
C140 O145 1.287 . S
C140 O146 1.255 . S
O141 Fe133 1.997 . S
O141 C139 1.235 . S
C142 O148 1.287 . S
C142 O149 1.255 . S
O143 Fe132 1.976 . S
O143 C150 1.287 . S
O144 Fe133 1.996 . S
O144 C150 1.255 . S
O145 Fe135 1.976 . S
O145 C140 1.287 . S
O146 Fe132 1.996 . S
O146 C140 1.255 . S
C147 O151 1.295 . S
C147 O152 1.235 . S
O148 Fe133 1.976 . S
O148 C142 1.287 . S
O149 Fe135 1.996 . S
O149 C142 1.255 . S
C150 O143 1.287 . S
C150 O144 1.255 . S
O151 Fe133 2.002 . S
O151 C147 1.295 . S
O152 Fe135 1.997 . S
O152 C147 1.235 . S
C153 O136 1.295 . S
C153 O137 1.235 . S
Fe154 O156 1.918 . S
Fe154 O159 1.997 . S
Fe154 O160 2.002 . S
Fe154 O165 1.976 . S
Fe154 O168 1.996 . S
Fe155 O156 1.918 . S
Fe155 O163 1.997 . S
Fe155 O166 1.996 . S
Fe155 O170 1.976 . S
Fe155 O173 2.002 . S
O156 Fe154 1.918 . S
O156 Fe155 1.918 . S
O156 Fe157 1.918 . S
Fe157 O156 1.918 . S
Fe157 O158 2.002 . S
Fe157 O167 1.976 . S
Fe157 O171 1.996 . S
Fe157 O174 1.997 . S
O158 Fe157 2.002 . S
O158 C175 1.295 . S
O159 Fe154 1.997 . S
O159 C175 1.235 . S
O160 Fe154 2.002 . S
O160 C161 1.295 . S
C161 O160 1.295 . S
C161 O163 1.235 . S
C162 O167 1.287 . S
C162 O168 1.255 . S
O163 Fe155 1.997 . S
O163 C161 1.235 . S
C164 O170 1.287 . S
C164 O171 1.255 . S
O165 Fe154 1.976 . S
O165 C172 1.287 . S
O166 Fe155 1.996 . S
O166 C172 1.255 . S
O167 Fe157 1.976 . S
O167 C162 1.287 . S
O168 Fe154 1.996 . S
O168 C162 1.255 . S
C169 O173 1.295 . S
C169 O174 1.235 . S
O170 Fe155 1.976 . S
O170 C164 1.287 . S
O171 Fe157 1.996 . S
O171 C164 1.255 . S
C172 O165 1.287 . S
C172 O166 1.255 . S
O173 Fe155 2.002 . S
O173 C169 1.295 . S
O174 Fe157 1.997 . S
O174 C169 1.235 . S
C175 O158 1.295 . S
C175 O159 1.235 . S
Fe176 O178 1.918 . S
Fe176 O181 1.997 . S
Fe176 O182 2.002 . S
Fe176 O187 1.976 . S
Fe176 O190 1.996 . S
Fe177 O178 1.918 . S
Fe177 O185 1.997 . S
Fe177 O188 1.996 . S
Fe177 O192 1.976 . S
Fe177 O195 2.002 . S
O178 Fe176 1.918 . S
O178 Fe177 1.918 . S
O178 Fe179 1.918 . S
Fe179 O178 1.918 . S
Fe179 O180 2.002 . S
Fe179 O189 1.976 . S
Fe179 O193 1.996 . S
Fe179 O196 1.997 . S
O180 Fe179 2.002 . S
O180 C197 1.295 . S
O181 Fe176 1.997 . S
O181 C197 1.235 . S
O182 Fe176 2.002 . S
O182 C183 1.295 . S
C183 O182 1.295 . S
C183 O185 1.235 . S
C184 O189 1.287 . S
C184 O190 1.255 . S
O185 Fe177 1.997 . S
O185 C183 1.235 . S
C186 O192 1.287 . S
C186 O193 1.255 . S
O187 Fe176 1.976 . S
O187 C194 1.287 . S
O188 Fe177 1.996 . S
O188 C194 1.255 . S
O189 Fe179 1.976 . S
O189 C184 1.287 . S
O190 Fe176 1.996 . S
O190 C184 1.255 . S
C191 O195 1.295 . S
C191 O196 1.235 . S
O192 Fe177 1.976 . S
O192 C186 1.287 . S
O193 Fe179 1.996 . S
O193 C186 1.255 . S
C194 O187 1.287 . S
C194 O188 1.255 . S
O195 Fe177 2.002 . S
O195 C191 1.295 . S
O196 Fe179 1.997 . S
O196 C191 1.235 . S
C197 O180 1.295 . S
C197 O181 1.235 . S
Fe198 O200 1.918 . S
Fe198 O203 1.997 . S
Fe198 O204 2.002 1_455 S
Fe198 O209 1.976 1_455 S
Fe198 O212 1.996 . S
Fe199 O200 1.918 . S
Fe199 O207 1.997 . S
Fe199 O210 1.996 . S
Fe199 O214 1.976 . S
Fe199 O217 2.002 . S
O200 Fe198 1.918 . S
O200 Fe199 1.918 . S
O200 Fe201 1.918 . S
Fe201 O200 1.918 . S
Fe201 O202 2.002 . S
Fe201 O211 1.976 . S
Fe201 O215 1.996 . S
Fe201 O218 1.997 . S
O202 Fe201 2.002 . S
O202 C219 1.295 . S
O203 Fe198 1.997 . S
O203 C219 1.235 . S
O204 Fe198 2.002 1_655 S
O204 C205 1.295 1_655 S
C205 O204 1.295 1_455 S
C205 O207 1.235 . S
C206 O211 1.287 . S
C206 O212 1.255 . S
O207 Fe199 1.997 . S
O207 C205 1.235 . S
C208 O214 1.287 . S
C208 O215 1.255 . S
O209 Fe198 1.976 1_655 S
O209 C216 1.287 1_655 S
O210 Fe199 1.996 . S
O210 C216 1.255 . S
O211 Fe201 1.976 . S
O211 C206 1.287 . S
O212 Fe198 1.996 . S
O212 C206 1.255 . S
C213 O217 1.295 . S
C213 O218 1.235 . S
O214 Fe199 1.976 . S
O214 C208 1.287 . S
O215 Fe201 1.996 . S
O215 C208 1.255 . S
C216 O209 1.287 1_455 S
C216 O210 1.255 . S
O217 Fe199 2.002 . S
O217 C213 1.295 . S
O218 Fe201 1.997 . S
O218 C213 1.235 . S
C219 O202 1.295 . S
C219 O203 1.235 . S
Fe220 O222 1.918 . S
Fe220 O225 1.997 . S
Fe220 O226 2.002 . S
Fe220 O231 1.976 . S
Fe220 O234 1.996 . S
Fe221 O222 1.918 . S
Fe221 O229 1.997 . S
Fe221 O232 1.996 . S
Fe221 O236 1.976 . S
Fe221 O239 2.002 . S
O222 Fe220 1.918 . S
O222 Fe221 1.918 . S
O222 Fe223 1.918 . S
Fe223 O222 1.918 . S
Fe223 O224 2.002 . S
Fe223 O233 1.976 . S
Fe223 O237 1.996 . S
Fe223 O240 1.997 . S
O224 Fe223 2.002 . S
O224 C241 1.295 . S
O225 Fe220 1.997 . S
O225 C241 1.235 . S
O226 Fe220 2.002 . S
O226 C227 1.295 . S
C227 O226 1.295 . S
C227 O229 1.235 . S
C228 O233 1.287 . S
C228 O234 1.255 . S
O229 Fe221 1.997 . S
O229 C227 1.235 . S
C230 O236 1.287 . S
C230 O237 1.255 . S
O231 Fe220 1.976 . S
O231 C238 1.287 . S
O232 Fe221 1.996 . S
O232 C238 1.255 . S
O233 Fe223 1.976 . S
O233 C228 1.287 . S
O234 Fe220 1.996 . S
O234 C228 1.255 . S
C235 O239 1.295 . S
C235 O240 1.235 . S
O236 Fe221 1.976 . S
O236 C230 1.287 . S
O237 Fe223 1.996 . S
O237 C230 1.255 . S
C238 O231 1.287 . S
C238 O232 1.255 . S
O239 Fe221 2.002 . S
O239 C235 1.295 . S
O240 Fe223 1.997 . S
O240 C235 1.235 . S
C241 O224 1.295 . S
C241 O225 1.235 . S
Fe242 O244 1.918 . S
Fe242 O247 1.997 . S
Fe242 O248 2.002 1_565 S
Fe242 O253 1.976 1_565 S
Fe242 O256 1.996 . S
Fe243 O244 1.918 . S
Fe243 O251 1.997 . S
Fe243 O254 1.996 . S
Fe243 O258 1.976 . S
Fe243 O261 2.002 . S
O244 Fe242 1.918 . S
O244 Fe243 1.918 . S
O244 Fe245 1.918 . S
Fe245 O244 1.918 . S
Fe245 O246 2.002 . S
Fe245 O255 1.976 . S
Fe245 O259 1.996 . S
Fe245 O262 1.997 . S
O246 Fe245 2.002 . S
O246 C263 1.295 . S
O247 Fe242 1.997 . S
O247 C263 1.235 . S
O248 Fe242 2.002 1_545 S
O248 C249 1.295 1_545 S
C249 O248 1.295 1_565 S
C249 O251 1.235 . S
C250 O255 1.287 . S
C250 O256 1.255 . S
O251 Fe243 1.997 . S
O251 C249 1.235 . S
C252 O258 1.287 . S
C252 O259 1.255 . S
O253 Fe242 1.976 1_545 S
O253 C260 1.287 1_545 S
O254 Fe243 1.996 . S
O254 C260 1.255 . S
O255 Fe245 1.976 . S
O255 C250 1.287 . S
O256 Fe242 1.996 . S
O256 C250 1.255 . S
C257 O261 1.295 . S
C257 O262 1.235 . S
O258 Fe243 1.976 . S
O258 C252 1.287 . S
O259 Fe245 1.996 . S
O259 C252 1.255 . S
C260 O253 1.287 1_565 S
C260 O254 1.255 . S
O261 Fe243 2.002 . S
O261 C257 1.295 . S
O262 Fe245 1.997 . S
O262 C257 1.235 . S
C263 O246 1.295 . S
C263 O247 1.235 . S
Fe264 O266 1.918 . S
Fe264 O269 1.997 . S
Fe264 O270 2.002 1_545 S
Fe264 O275 1.976 1_545 S
Fe264 O278 1.996 . S
Fe265 O266 1.918 . S
Fe265 O273 1.997 . S
Fe265 O276 1.996 . S
Fe265 O280 1.976 . S
Fe265 O283 2.002 . S
O266 Fe264 1.918 . S
O266 Fe265 1.918 . S
O266 Fe267 1.918 . S
Fe267 O266 1.918 . S
Fe267 O268 2.002 . S
Fe267 O277 1.976 . S
Fe267 O281 1.996 . S
Fe267 O284 1.997 . S
O268 Fe267 2.002 . S
O268 C285 1.295 . S
O269 Fe264 1.997 . S
O269 C285 1.235 . S
O270 Fe264 2.002 1_565 S
O270 C271 1.295 1_565 S
C271 O270 1.295 1_545 S
C271 O273 1.235 . S
C272 O277 1.287 . S
C272 O278 1.255 . S
O273 Fe265 1.997 . S
O273 C271 1.235 . S
C274 O280 1.287 . S
C274 O281 1.255 . S
O275 Fe264 1.976 1_565 S
O275 C282 1.287 1_565 S
O276 Fe265 1.996 . S
O276 C282 1.255 . S
O277 Fe267 1.976 . S
O277 C272 1.287 . S
O278 Fe264 1.996 . S
O278 C272 1.255 . S
C279 O283 1.295 . S
C279 O284 1.235 . S
O280 Fe265 1.976 . S
O280 C274 1.287 . S
O281 Fe267 1.996 . S
O281 C274 1.255 . S
C282 O275 1.287 1_545 S
C282 O276 1.255 . S
O283 Fe265 2.002 . S
O283 C279 1.295 . S
O284 Fe267 1.997 . S
O284 C279 1.235 . S
C285 O268 1.295 . S
C285 O269 1.235 . S
Fe286 O288 1.918 . S
Fe286 O291 1.997 . S
Fe286 O292 2.002 . S
Fe286 O297 1.976 . S
Fe286 O300 1.996 . S
Fe287 O288 1.918 . S
Fe287 O295 1.997 . S
Fe287 O298 1.996 . S
Fe287 O302 1.976 1_655 S
Fe287 O305 2.002 1_655 S
O288 Fe286 1.918 . S
O288 Fe287 1.918 . S
O288 Fe289 1.918 . S
Fe289 O288 1.918 . S
Fe289 O290 2.002 . S
Fe289 O299 1.976 . S
Fe289 O303 1.996 . S
Fe289 O306 1.997 . S
O290 Fe289 2.002 . S
O290 C307 1.295 . S
O291 Fe286 1.997 . S
O291 C307 1.235 . S
O292 Fe286 2.002 . S
O292 C293 1.295 . S
C293 O292 1.295 . S
C293 O295 1.235 . S
C294 O299 1.287 . S
C294 O300 1.255 . S
O295 Fe287 1.997 . S
O295 C293 1.235 . S
C296 O302 1.287 1_655 S
C296 O303 1.255 . S
O297 Fe286 1.976 . S
O297 C304 1.287 . S
O298 Fe287 1.996 . S
O298 C304 1.255 . S
O299 Fe289 1.976 . S
O299 C294 1.287 . S
O300 Fe286 1.996 . S
O300 C294 1.255 . S
C301 O305 1.295 1_655 S
C301 O306 1.235 . S
O302 Fe287 1.976 1_455 S
O302 C296 1.287 1_455 S
O303 Fe289 1.996 . S
O303 C296 1.255 . S
C304 O297 1.287 . S
C304 O298 1.255 . S
O305 Fe287 2.002 1_455 S
O305 C301 1.295 1_455 S
O306 Fe289 1.997 . S
O306 C301 1.235 . S
C307 O290 1.295 . S
C307 O291 1.235 . S
Fe308 O310 1.918 . S
Fe308 O313 1.997 . S
Fe308 O314 2.002 . S
Fe308 O319 1.976 . S
Fe308 O322 1.996 . S
Fe309 O310 1.918 . S
Fe309 O317 1.997 . S
Fe309 O320 1.996 . S
Fe309 O324 1.976 . S
Fe309 O327 2.002 . S
O310 Fe308 1.918 . S
O310 Fe309 1.918 . S
O310 Fe311 1.918 . S
Fe311 O310 1.918 . S
Fe311 O312 2.002 . S
Fe311 O321 1.976 . S
Fe311 O325 1.996 . S
Fe311 O328 1.997 . S
O312 Fe311 2.002 . S
O312 C329 1.295 . S
O313 Fe308 1.997 . S
O313 C329 1.235 . S
O314 Fe308 2.002 . S
O314 C315 1.295 . S
C315 O314 1.295 . S
C315 O317 1.235 . S
C316 O321 1.287 . S
C316 O322 1.255 . S
O317 Fe309 1.997 . S
O317 C315 1.235 . S
C318 O324 1.287 . S
C318 O325 1.255 . S
O319 Fe308 1.976 . S
O319 C326 1.287 . S
O320 Fe309 1.996 . S
O320 C326 1.255 . S
O321 Fe311 1.976 . S
O321 C316 1.287 . S
O322 Fe308 1.996 . S
O322 C316 1.255 . S
C323 O327 1.295 . S
C323 O328 1.235 . S
O324 Fe309 1.976 . S
O324 C318 1.287 . S
O325 Fe311 1.996 . S
O325 C318 1.255 . S
C326 O319 1.287 . S
C326 O320 1.255 . S
O327 Fe309 2.002 . S
O327 C323 1.295 . S
O328 Fe311 1.997 . S
O328 C323 1.235 . S
C329 O312 1.295 . S
C329 O313 1.235 . S
Fe330 O332 1.918 . S
Fe330 O335 1.997 . S
Fe330 O336 2.002 . S
Fe330 O341 1.976 . S
Fe330 O344 1.996 . S
Fe331 O332 1.918 . S
Fe331 O339 1.997 . S
Fe331 O342 1.996 . S
Fe331 O346 1.976 . S
Fe331 O349 2.002 . S
O332 Fe330 1.918 . S
O332 Fe331 1.918 . S
O332 Fe333 1.918 . S
Fe333 O332 1.918 . S
Fe333 O334 2.002 . S
Fe333 O343 1.976 . S
Fe333 O347 1.996 . S
Fe333 O350 1.997 . S
O334 Fe333 2.002 . S
O334 C351 1.295 . S
O335 Fe330 1.997 . S
O335 C351 1.235 . S
O336 Fe330 2.002 . S
O336 C337 1.295 . S
C337 O336 1.295 . S
C337 O339 1.235 . S
C338 O343 1.287 . S
C338 O344 1.255 . S
O339 Fe331 1.997 . S
O339 C337 1.235 . S
C340 O346 1.287 . S
C340 O347 1.255 . S
O341 Fe330 1.976 . S
O341 C348 1.287 . S
O342 Fe331 1.996 . S
O342 C348 1.255 . S
O343 Fe333 1.976 . S
O343 C338 1.287 . S
O344 Fe330 1.996 . S
O344 C338 1.255 . S
C345 O349 1.295 . S
C345 O350 1.235 . S
O346 Fe331 1.976 . S
O346 C340 1.287 . S
O347 Fe333 1.996 . S
O347 C340 1.255 . S
C348 O341 1.287 . S
C348 O342 1.255 . S
O349 Fe331 2.002 . S
O349 C345 1.295 . S
O350 Fe333 1.997 . S
O350 C345 1.235 . S
C351 O334 1.295 . S
C351 O335 1.235 . S
Fe352 O354 1.918 . S
Fe352 O357 1.997 . S
Fe352 O358 2.002 . S
Fe352 O363 1.976 . S
Fe352 O366 1.996 . S
Fe353 O354 1.918 . S
Fe353 O361 1.997 . S
Fe353 O364 1.996 . S
Fe353 O368 1.976 . S
Fe353 O371 2.002 . S
O354 Fe352 1.918 . S
O354 Fe353 1.918 . S
O354 Fe355 1.918 . S
Fe355 O354 1.918 . S
Fe355 O356 2.002 . S
Fe355 O365 1.976 . S
Fe355 O369 1.996 . S
Fe355 O372 1.997 . S
O356 Fe355 2.002 . S
O356 C373 1.295 . S
O357 Fe352 1.997 . S
O357 C373 1.235 . S
O358 Fe352 2.002 . S
O358 C359 1.295 . S
C359 O358 1.295 . S
C359 O361 1.235 . S
C360 O365 1.287 . S
C360 O366 1.255 . S
O361 Fe353 1.997 . S
O361 C359 1.235 . S
C362 O368 1.287 . S
C362 O369 1.255 . S
O363 Fe352 1.976 . S
O363 C370 1.287 . S
O364 Fe353 1.996 . S
O364 C370 1.255 . S
O365 Fe355 1.976 . S
O365 C360 1.287 . S
O366 Fe352 1.996 . S
O366 C360 1.255 . S
C367 O371 1.295 . S
C367 O372 1.235 . S
O368 Fe353 1.976 . S
O368 C362 1.287 . S
O369 Fe355 1.996 . S
O369 C362 1.255 . S
C370 O363 1.287 . S
C370 O364 1.255 . S
O371 Fe353 2.002 . S
O371 C367 1.295 . S
O372 Fe355 1.997 . S
O372 C367 1.235 . S
C373 O356 1.295 . S
C373 O357 1.235 . S
Fe374 O376 1.918 . S
Fe374 O379 1.997 . S
Fe374 O380 2.002 . S
Fe374 O385 1.976 . S
Fe374 O388 1.996 . S
Fe375 O376 1.918 . S
Fe375 O383 1.997 . S
Fe375 O386 1.996 . S
Fe375 O390 1.976 . S
Fe375 O393 2.002 . S
O376 Fe374 1.918 . S
O376 Fe375 1.918 . S
O376 Fe377 1.918 . S
Fe377 O376 1.918 . S
Fe377 O378 2.002 . S
Fe377 O387 1.976 . S
Fe377 O391 1.996 . S
Fe377 O394 1.997 . S
O378 Fe377 2.002 . S
O378 C395 1.295 . S
O379 Fe374 1.997 . S
O379 C395 1.235 . S
O380 Fe374 2.002 . S
O380 C381 1.295 . S
C381 O380 1.295 . S
C381 O383 1.235 . S
C382 O387 1.287 . S
C382 O388 1.255 . S
O383 Fe375 1.997 . S
O383 C381 1.235 . S
C384 O390 1.287 . S
C384 O391 1.255 . S
O385 Fe374 1.976 . S
O385 C392 1.287 . S
O386 Fe375 1.996 . S
O386 C392 1.255 . S
O387 Fe377 1.976 . S
O387 C382 1.287 . S
O388 Fe374 1.996 . S
O388 C382 1.255 . S
C389 O393 1.295 . S
C389 O394 1.235 . S
O390 Fe375 1.976 . S
O390 C384 1.287 . S
O391 Fe377 1.996 . S
O391 C384 1.255 . S
C392 O385 1.287 . S
C392 O386 1.255 . S
O393 Fe375 2.002 . S
O393 C389 1.295 . S
O394 Fe377 1.997 . S
O394 C389 1.235 . S
C395 O378 1.295 . S
C395 O379 1.235 . S
C396 C397 1.391 . S
C396 C398 1.394 . S
C396 H412 0.931 . S
C397 C396 1.391 . S
C397 C401 1.376 . S
C398 C396 1.394 . S
C398 C399 1.369 . S
C398 C402 1.531 . S
C399 C398 1.369 . S
C399 C400 1.410 . S
C399 C407 1.503 . S
C400 C399 1.410 . S
C400 C401 1.392 . S
C400 C403 1.511 . S
C401 C397 1.376 . S
C401 C400 1.392 . S
C401 H413 0.929 . S
C402 C398 1.531 . S
C402 H414 0.960 . S
C402 H415 0.962 . S
C402 H416 0.960 . S
C403 C400 1.511 . S
C403 H417 0.961 . S
C403 H418 0.961 . S
C403 H419 0.961 . S
C404 C405 1.370 . S
C404 C406 1.363 . S
C404 H420 0.931 . S
C405 C404 1.370 . S
C405 C409 1.408 . S
C406 C404 1.363 . S
C406 C407 1.370 . S
C406 C410 1.524 . S
C407 C399 1.503 . S
C407 C406 1.370 . S
C407 C408 1.403 . S
C408 C407 1.403 . S
C408 C409 1.404 . S
C408 C411 1.539 . S
C409 C405 1.408 . S
C409 C408 1.404 . S
C409 H421 0.930 . S
C410 C406 1.524 . S
C410 H422 0.956 . S
C410 H423 0.961 . S
C410 H424 0.961 . S
C411 C408 1.539 . S
C411 H425 0.958 . S
C411 H426 0.961 . S
C411 H427 0.960 . S
H412 C396 0.931 . S
H413 C401 0.929 . S
H414 C402 0.960 . S
H415 C402 0.962 . S
H416 C402 0.960 . S
H417 C403 0.961 . S
H418 C403 0.961 . S
H419 C403 0.961 . S
H420 C404 0.931 . S
H421 C409 0.930 . S
H422 C410 0.956 . S
H423 C410 0.961 . S
H424 C410 0.961 . S
H425 C411 0.958 . S
H426 C411 0.961 . S
H427 C411 0.960 . S
C428 C429 1.391 . S
C428 C430 1.394 . S
C428 H444 0.931 . S
C429 C428 1.391 . S
C429 C433 1.376 . S
C430 C428 1.394 . S
C430 C431 1.369 . S
C430 C434 1.531 . S
C431 C430 1.369 . S
C431 C432 1.410 . S
C431 C439 1.503 . S
C432 C431 1.410 . S
C432 C433 1.392 . S
C432 C435 1.511 . S
C433 C429 1.376 . S
C433 C432 1.392 . S
C433 H445 0.929 . S
C434 C430 1.531 . S
C434 H446 0.960 . S
C434 H447 0.962 . S
C434 H448 0.960 . S
C435 C432 1.511 . S
C435 H449 0.961 . S
C435 H450 0.961 . S
C435 H451 0.961 . S
C436 C437 1.370 . S
C436 C438 1.363 . S
C436 H452 0.931 . S
C437 C436 1.370 . S
C437 C441 1.408 . S
C438 C436 1.363 . S
C438 C439 1.370 . S
C438 C442 1.524 . S
C439 C431 1.503 . S
C439 C438 1.370 . S
C439 C440 1.403 . S
C440 C439 1.403 . S
C440 C441 1.404 . S
C440 C443 1.539 . S
C441 C437 1.408 . S
C441 C440 1.404 . S
C441 H453 0.930 . S
C442 C438 1.524 . S
C442 H454 0.956 . S
C442 H455 0.961 . S
C442 H456 0.961 . S
C443 C440 1.539 . S
C443 H457 0.958 . S
C443 H458 0.961 . S
C443 H459 0.960 . S
H444 C428 0.931 . S
H445 C433 0.929 . S
H446 C434 0.960 . S
H447 C434 0.962 . S
H448 C434 0.960 . S
H449 C435 0.961 . S
H450 C435 0.961 . S
H451 C435 0.961 . S
H452 C436 0.931 . S
H453 C441 0.930 . S
H454 C442 0.956 . S
H455 C442 0.961 . S
H456 C442 0.961 . S
H457 C443 0.958 . S
H458 C443 0.961 . S
H459 C443 0.960 . S
C460 C461 1.391 . S
C460 C462 1.394 . S
C460 H476 0.931 . S
C461 C460 1.391 . S
C461 C465 1.376 . S
C462 C460 1.394 . S
C462 C463 1.369 . S
C462 C466 1.531 . S
C463 C462 1.369 . S
C463 C464 1.410 . S
C463 C471 1.503 . S
C464 C463 1.410 . S
C464 C465 1.392 . S
C464 C467 1.511 . S
C465 C461 1.376 . S
C465 C464 1.392 . S
C465 H477 0.929 . S
C466 C462 1.531 . S
C466 H478 0.960 . S
C466 H479 0.962 . S
C466 H480 0.960 . S
C467 C464 1.511 . S
C467 H481 0.961 . S
C467 H482 0.961 . S
C467 H483 0.961 . S
C468 C469 1.370 . S
C468 C470 1.363 . S
C468 H484 0.931 . S
C469 C468 1.370 . S
C469 C473 1.408 . S
C470 C468 1.363 . S
C470 C471 1.370 . S
C470 C474 1.524 . S
C471 C463 1.503 . S
C471 C470 1.370 . S
C471 C472 1.403 . S
C472 C471 1.403 . S
C472 C473 1.404 . S
C472 C475 1.539 . S
C473 C469 1.408 . S
C473 C472 1.404 . S
C473 H485 0.930 . S
C474 C470 1.524 . S
C474 H486 0.956 . S
C474 H487 0.961 . S
C474 H488 0.961 . S
C475 C472 1.539 . S
C475 H489 0.958 . S
C475 H490 0.961 . S
C475 H491 0.960 . S
H476 C460 0.931 . S
H477 C465 0.929 . S
H478 C466 0.960 . S
H479 C466 0.962 . S
H480 C466 0.960 . S
H481 C467 0.961 . S
H482 C467 0.961 . S
H483 C467 0.961 . S
H484 C468 0.931 . S
H485 C473 0.930 . S
H486 C474 0.956 . S
H487 C474 0.961 . S
H488 C474 0.961 . S
H489 C475 0.958 . S
H490 C475 0.961 . S
H491 C475 0.960 . S
C492 C493 1.391 . S
C492 C494 1.394 . S
C492 H508 0.931 . S
C493 C492 1.391 . S
C493 C497 1.376 . S
C494 C492 1.394 . S
C494 C495 1.369 . S
C494 C498 1.531 . S
C495 C494 1.369 . S
C495 C496 1.410 . S
C495 C503 1.503 . S
C496 C495 1.410 . S
C496 C497 1.392 . S
C496 C499 1.511 . S
C497 C493 1.376 . S
C497 C496 1.392 . S
C497 H509 0.929 . S
C498 C494 1.531 . S
C498 H510 0.960 . S
C498 H511 0.962 . S
C498 H512 0.960 . S
C499 C496 1.511 . S
C499 H513 0.961 . S
C499 H514 0.961 . S
C499 H515 0.961 . S
C500 C501 1.370 . S
C500 C502 1.363 . S
C500 H516 0.931 . S
C501 C500 1.370 . S
C501 C505 1.408 . S
C502 C500 1.363 . S
C502 C503 1.370 . S
C502 C506 1.524 . S
C503 C495 1.503 . S
C503 C502 1.370 . S
C503 C504 1.403 . S
C504 C503 1.403 . S
C504 C505 1.404 . S
C504 C507 1.539 . S
C505 C501 1.408 . S
C505 C504 1.404 . S
C505 H517 0.930 . S
C506 C502 1.524 . S
C506 H518 0.956 . S
C506 H519 0.961 . S
C506 H520 0.961 . S
C507 C504 1.539 . S
C507 H521 0.958 . S
C507 H522 0.961 . S
C507 H523 0.960 . S
H508 C492 0.931 . S
H509 C497 0.929 . S
H510 C498 0.960 . S
H511 C498 0.962 . S
H512 C498 0.960 . S
H513 C499 0.961 . S
H514 C499 0.961 . S
H515 C499 0.961 . S
H516 C500 0.931 . S
H517 C505 0.930 . S
H518 C506 0.956 . S
H519 C506 0.961 . S
H520 C506 0.961 . S
H521 C507 0.958 . S
H522 C507 0.961 . S
H523 C507 0.960 . S
C524 C525 1.391 . S
C524 C526 1.394 . S
C524 H540 0.931 . S
C525 C524 1.391 . S
C525 C529 1.376 . S
C526 C524 1.394 . S
C526 C527 1.369 . S
C526 C530 1.531 . S
C527 C526 1.369 . S
C527 C528 1.410 . S
C527 C535 1.503 . S
C528 C527 1.410 . S
C528 C529 1.392 . S
C528 C531 1.511 . S
C529 C525 1.376 . S
C529 C528 1.392 . S
C529 H541 0.929 . S
C530 C526 1.531 . S
C530 H542 0.960 . S
C530 H543 0.962 . S
C530 H544 0.960 . S
C531 C528 1.511 . S
C531 H545 0.961 . S
C531 H546 0.961 . S
C531 H547 0.961 . S
C532 C533 1.370 . S
C532 C534 1.363 . S
C532 H548 0.931 . S
C533 C532 1.370 . S
C533 C537 1.408 . S
C534 C532 1.363 . S
C534 C535 1.370 . S
C534 C538 1.524 . S
C535 C527 1.503 . S
C535 C534 1.370 . S
C535 C536 1.403 . S
C536 C535 1.403 . S
C536 C537 1.404 . S
C536 C539 1.539 . S
C537 C533 1.408 . S
C537 C536 1.404 . S
C537 H549 0.930 . S
C538 C534 1.524 . S
C538 H550 0.956 . S
C538 H551 0.961 . S
C538 H552 0.961 . S
C539 C536 1.539 . S
C539 H553 0.958 . S
C539 H554 0.961 . S
C539 H555 0.960 . S
H540 C524 0.931 . S
H541 C529 0.929 . S
H542 C530 0.960 . S
H543 C530 0.962 . S
H544 C530 0.960 . S
H545 C531 0.961 . S
H546 C531 0.961 . S
H547 C531 0.961 . S
H548 C532 0.931 . S
H549 C537 0.930 . S
H550 C538 0.956 . S
H551 C538 0.961 . S
H552 C538 0.961 . S
H553 C539 0.958 . S
H554 C539 0.961 . S
H555 C539 0.960 . S
C556 C557 1.391 . S
C556 C558 1.394 . S
C556 H572 0.931 . S
C557 C556 1.391 . S
C557 C561 1.376 . S
C558 C556 1.394 . S
C558 C559 1.369 . S
C558 C562 1.531 . S
C559 C558 1.369 . S
C559 C560 1.410 . S
C559 C567 1.503 . S
C560 C559 1.410 . S
C560 C561 1.392 . S
C560 C563 1.511 . S
C561 C557 1.376 . S
C561 C560 1.392 . S
C561 H573 0.929 . S
C562 C558 1.531 . S
C562 H574 0.960 . S
C562 H575 0.962 . S
C562 H576 0.960 . S
C563 C560 1.511 . S
C563 H577 0.961 . S
C563 H578 0.961 . S
C563 H579 0.961 . S
C564 C565 1.370 . S
C564 C566 1.363 . S
C564 H580 0.931 . S
C565 C564 1.370 . S
C565 C569 1.408 . S
C566 C564 1.363 . S
C566 C567 1.370 . S
C566 C570 1.524 . S
C567 C559 1.503 . S
C567 C566 1.370 . S
C567 C568 1.403 . S
C568 C567 1.403 . S
C568 C569 1.404 . S
C568 C571 1.539 . S
C569 C565 1.408 . S
C569 C568 1.404 . S
C569 H581 0.930 . S
C570 C566 1.524 . S
C570 H582 0.956 . S
C570 H583 0.961 . S
C570 H584 0.961 . S
C571 C568 1.539 . S
C571 H585 0.958 . S
C571 H586 0.961 . S
C571 H587 0.960 . S
H572 C556 0.931 . S
H573 C561 0.929 . S
H574 C562 0.960 . S
H575 C562 0.962 . S
H576 C562 0.960 . S
H577 C563 0.961 . S
H578 C563 0.961 . S
H579 C563 0.961 . S
H580 C564 0.931 . S
H581 C569 0.930 . S
H582 C570 0.956 . S
H583 C570 0.961 . S
H584 C570 0.961 . S
H585 C571 0.958 . S
H586 C571 0.961 . S
H587 C571 0.960 . S
C588 C589 1.391 . S
C588 C590 1.394 1_545 S
C588 H604 0.931 . S
C589 C588 1.391 . S
C589 C593 1.376 1_545 S
C590 C588 1.394 1_565 S
C590 C591 1.369 . S
C590 C594 1.531 . S
C591 C590 1.369 . S
C591 C592 1.410 . S
C591 C599 1.503 . S
C592 C591 1.410 . S
C592 C593 1.392 . S
C592 C595 1.511 . S
C593 C589 1.376 1_565 S
C593 C592 1.392 . S
C593 H605 0.929 . S
C594 C590 1.531 . S
C594 H606 0.960 . S
C594 H607 0.962 . S
C594 H608 0.960 1_565 S
C595 C592 1.511 . S
C595 H609 0.961 . S
C595 H610 0.961 . S
C595 H611 0.961 . S
C596 C597 1.370 . S
C596 C598 1.363 . S
C596 H612 0.931 . S
C597 C596 1.370 . S
C597 C601 1.408 . S
C598 C596 1.363 . S
C598 C599 1.370 . S
C598 C602 1.524 . S
C599 C591 1.503 . S
C599 C598 1.370 . S
C599 C600 1.403 . S
C600 C599 1.403 . S
C600 C601 1.404 . S
C600 C603 1.539 . S
C601 C597 1.408 . S
C601 C600 1.404 . S
C601 H613 0.930 . S
C602 C598 1.524 . S
C602 H614 0.956 . S
C602 H615 0.961 . S
C602 H616 0.961 . S
C603 C600 1.539 . S
C603 H617 0.958 . S
C603 H618 0.961 . S
C603 H619 0.960 . S
H604 C588 0.931 . S
H605 C593 0.929 . S
H606 C594 0.960 . S
H607 C594 0.962 . S
H608 C594 0.960 1_545 S
H609 C595 0.961 . S
H610 C595 0.961 . S
H611 C595 0.961 . S
H612 C596 0.931 . S
H613 C601 0.930 . S
H614 C602 0.956 . S
H615 C602 0.961 . S
H616 C602 0.961 . S
H617 C603 0.958 . S
H618 C603 0.961 . S
H619 C603 0.960 . S
C620 C621 1.391 1_455 S
C620 C622 1.394 . S
C620 H636 0.931 . S
C621 C620 1.391 1_655 S
C621 C625 1.376 . S
C622 C620 1.394 . S
C622 C623 1.369 . S
C622 C626 1.531 . S
C623 C622 1.369 . S
C623 C624 1.410 . S
C623 C631 1.503 . S
C624 C623 1.410 . S
C624 C625 1.392 1_455 S
C624 C627 1.511 . S
C625 C621 1.376 . S
C625 C624 1.392 1_655 S
C625 H637 0.929 . S
C626 C622 1.531 . S
C626 H638 0.960 . S
C626 H639 0.962 . S
C626 H640 0.960 . S
C627 C624 1.511 . S
C627 H641 0.961 . S
C627 H642 0.961 . S
C627 H643 0.961 . S
C628 C629 1.370 1_565 S
C628 C630 1.363 . S
C628 H644 0.931 . S
C629 C628 1.370 1_545 S
C629 C633 1.408 . S
C630 C628 1.363 . S
C630 C631 1.370 . S
C630 C634 1.524 . S
C631 C623 1.503 . S
C631 C630 1.370 . S
C631 C632 1.403 . S
C632 C631 1.403 . S
C632 C633 1.404 1_565 S
C632 C635 1.539 . S
C633 C629 1.408 . S
C633 C632 1.404 1_545 S
C633 H645 0.930 . S
C634 C630 1.524 . S
C634 H646 0.956 . S
C634 H647 0.961 . S
C634 H648 0.961 . S
C635 C632 1.539 . S
C635 H649 0.958 . S
C635 H650 0.961 1_565 S
C635 H651 0.960 . S
H636 C620 0.931 . S
H637 C625 0.929 . S
H638 C626 0.960 . S
H639 C626 0.962 . S
H640 C626 0.960 . S
H641 C627 0.961 . S
H642 C627 0.961 . S
H643 C627 0.961 . S
H644 C628 0.931 . S
H645 C633 0.930 . S
H646 C634 0.956 . S
H647 C634 0.961 . S
H648 C634 0.961 . S
H649 C635 0.958 . S
H650 C635 0.961 1_545 S
H651 C635 0.960 . S
C652 C653 1.391 . S
C652 C654 1.394 . S
C652 H668 0.931 . S
C653 C652 1.391 . S
C653 C657 1.376 . S
C654 C652 1.394 . S
C654 C655 1.369 . S
C654 C658 1.531 . S
C655 C654 1.369 . S
C655 C656 1.410 . S
C655 C663 1.503 . S
C656 C655 1.410 . S
C656 C657 1.392 . S
C656 C659 1.511 . S
C657 C653 1.376 . S
C657 C656 1.392 . S
C657 H669 0.929 . S
C658 C654 1.531 . S
C658 H670 0.960 . S
C658 H671 0.962 . S
C658 H672 0.960 . S
C659 C656 1.511 . S
C659 H673 0.961 . S
C659 H674 0.961 . S
C659 H675 0.961 . S
C660 C661 1.370 1_455 S
C660 C662 1.363 . S
C660 H676 0.931 . S
C661 C660 1.370 1_655 S
C661 C665 1.408 . S
C662 C660 1.363 . S
C662 C663 1.370 . S
C662 C666 1.524 . S
C663 C655 1.503 . S
C663 C662 1.370 . S
C663 C664 1.403 . S
C664 C663 1.403 . S
C664 C665 1.404 1_455 S
C664 C667 1.539 . S
C665 C661 1.408 . S
C665 C664 1.404 1_655 S
C665 H677 0.930 . S
C666 C662 1.524 . S
C666 H678 0.956 . S
C666 H679 0.961 . S
C666 H680 0.961 . S
C667 C664 1.539 . S
C667 H681 0.958 . S
C667 H682 0.961 1_455 S
C667 H683 0.960 . S
H668 C652 0.931 . S
H669 C657 0.929 . S
H670 C658 0.960 . S
H671 C658 0.962 . S
H672 C658 0.960 . S
H673 C659 0.961 . S
H674 C659 0.961 . S
H675 C659 0.961 . S
H676 C660 0.931 . S
H677 C665 0.930 . S
H678 C666 0.956 . S
H679 C666 0.961 . S
H680 C666 0.961 . S
H681 C667 0.958 . S
H682 C667 0.961 1_655 S
H683 C667 0.960 . S
C684 C685 1.391 . S
C684 C686 1.394 . S
C684 H700 0.931 . S
C685 C684 1.391 . S
C685 C689 1.376 . S
C686 C684 1.394 . S
C686 C687 1.369 . S
C686 C690 1.531 . S
C687 C686 1.369 . S
C687 C688 1.410 . S
C687 C695 1.503 . S
C688 C687 1.410 . S
C688 C689 1.392 . S
C688 C691 1.511 . S
C689 C685 1.376 . S
C689 C688 1.392 . S
C689 H701 0.929 . S
C690 C686 1.531 . S
C690 H702 0.960 . S
C690 H703 0.962 . S
C690 H704 0.960 . S
C691 C688 1.511 . S
C691 H705 0.961 . S
C691 H706 0.961 . S
C691 H707 0.961 . S
C692 C693 1.370 . S
C692 C694 1.363 . S
C692 H708 0.931 . S
C693 C692 1.370 . S
C693 C697 1.408 . S
C694 C692 1.363 . S
C694 C695 1.370 . S
C694 C698 1.524 . S
C695 C687 1.503 . S
C695 C694 1.370 . S
C695 C696 1.403 . S
C696 C695 1.403 . S
C696 C697 1.404 . S
C696 C699 1.539 . S
C697 C693 1.408 . S
C697 C696 1.404 . S
C697 H709 0.930 . S
C698 C694 1.524 . S
C698 H710 0.956 . S
C698 H711 0.961 . S
C698 H712 0.961 . S
C699 C696 1.539 . S
C699 H713 0.958 . S
C699 H714 0.961 . S
C699 H715 0.960 . S
H700 C684 0.931 . S
H701 C689 0.929 . S
H702 C690 0.960 . S
H703 C690 0.962 . S
H704 C690 0.960 . S
H705 C691 0.961 . S
H706 C691 0.961 . S
H707 C691 0.961 . S
H708 C692 0.931 . S
H709 C697 0.930 . S
H710 C698 0.956 . S
H711 C698 0.961 . S
H712 C698 0.961 . S
H713 C699 0.958 . S
H714 C699 0.961 . S
H715 C699 0.960 . S
C716 C717 1.391 . S
C716 C718 1.394 . S
C716 H732 0.931 . S
C717 C716 1.391 . S
C717 C721 1.376 . S
C718 C716 1.394 . S
C718 C719 1.369 . S
C718 C722 1.531 . S
C719 C718 1.369 . S
C719 C720 1.410 . S
C719 C727 1.503 . S
C720 C719 1.410 . S
C720 C721 1.392 . S
C720 C723 1.511 . S
C721 C717 1.376 . S
C721 C720 1.392 . S
C721 H733 0.929 . S
C722 C718 1.531 . S
C722 H734 0.960 . S
C722 H735 0.962 . S
C722 H736 0.960 . S
C723 C720 1.511 . S
C723 H737 0.961 . S
C723 H738 0.961 . S
C723 H739 0.961 . S
C724 C725 1.370 . S
C724 C726 1.363 . S
C724 H740 0.931 . S
C725 C724 1.370 . S
C725 C729 1.408 . S
C726 C724 1.363 . S
C726 C727 1.370 . S
C726 C730 1.524 . S
C727 C719 1.503 . S
C727 C726 1.370 . S
C727 C728 1.403 . S
C728 C727 1.403 . S
C728 C729 1.404 . S
C728 C731 1.539 . S
C729 C725 1.408 . S
C729 C728 1.404 . S
C729 H741 0.930 . S
C730 C726 1.524 . S
C730 H742 0.956 . S
C730 H743 0.961 . S
C730 H744 0.961 . S
C731 C728 1.539 . S
C731 H745 0.958 . S
C731 H746 0.961 . S
C731 H747 0.960 . S
H732 C716 0.931 . S
H733 C721 0.929 . S
H734 C722 0.960 . S
H735 C722 0.962 . S
H736 C722 0.960 . S
H737 C723 0.961 . S
H738 C723 0.961 . S
H739 C723 0.961 . S
H740 C724 0.931 . S
H741 C729 0.930 . S
H742 C730 0.956 . S
H743 C730 0.961 . S
H744 C730 0.961 . S
H745 C731 0.958 . S
H746 C731 0.961 . S
H747 C731 0.960 . S
C748 C749 1.391 . S
C748 C750 1.394 . S
C748 H764 0.931 . S
C749 C748 1.391 . S
C749 C753 1.376 . S
C750 C748 1.394 . S
C750 C751 1.369 . S
C750 C754 1.531 . S
C751 C750 1.369 . S
C751 C752 1.410 . S
C751 C759 1.503 . S
C752 C751 1.410 . S
C752 C753 1.392 . S
C752 C755 1.511 . S
C753 C749 1.376 . S
C753 C752 1.392 . S
C753 H765 0.929 . S
C754 C750 1.531 . S
C754 H766 0.960 . S
C754 H767 0.962 . S
C754 H768 0.960 . S
C755 C752 1.511 . S
C755 H769 0.961 . S
C755 H770 0.961 . S
C755 H771 0.961 . S
C756 C757 1.370 . S
C756 C758 1.363 . S
C756 H772 0.931 . S
C757 C756 1.370 . S
C757 C761 1.408 . S
C758 C756 1.363 . S
C758 C759 1.370 . S
C758 C762 1.524 . S
C759 C751 1.503 . S
C759 C758 1.370 . S
C759 C760 1.403 . S
C760 C759 1.403 . S
C760 C761 1.404 . S
C760 C763 1.539 . S
C761 C757 1.408 . S
C761 C760 1.404 . S
C761 H773 0.930 . S
C762 C758 1.524 . S
C762 H774 0.956 . S
C762 H775 0.961 . S
C762 H776 0.961 . S
C763 C760 1.539 . S
C763 H777 0.958 . S
C763 H778 0.961 . S
C763 H779 0.960 . S
H764 C748 0.931 . S
H765 C753 0.929 . S
H766 C754 0.960 . S
H767 C754 0.962 . S
H768 C754 0.960 . S
H769 C755 0.961 . S
H770 C755 0.961 . S
H771 C755 0.961 . S
H772 C756 0.931 . S
H773 C761 0.930 . S
H774 C762 0.956 . S
H775 C762 0.961 . S
H776 C762 0.961 . S
H777 C763 0.958 . S
H778 C763 0.961 . S
H779 C763 0.960 . S
C780 C781 1.391 . S
C780 C782 1.394 . S
C780 H796 0.931 . S
C781 C780 1.391 . S
C781 C785 1.376 . S
C782 C780 1.394 . S
C782 C783 1.369 . S
C782 C786 1.531 . S
C783 C782 1.369 . S
C783 C784 1.410 . S
C783 C791 1.503 . S
C784 C783 1.410 . S
C784 C785 1.392 . S
C784 C787 1.511 . S
C785 C781 1.376 . S
C785 C784 1.392 . S
C785 H797 0.929 . S
C786 C782 1.531 . S
C786 H798 0.960 . S
C786 H799 0.962 . S
C786 H800 0.960 . S
C787 C784 1.511 . S
C787 H801 0.961 . S
C787 H802 0.961 . S
C787 H803 0.961 . S
C788 C789 1.370 . S
C788 C790 1.363 . S
C788 H804 0.931 . S
C789 C788 1.370 . S
C789 C793 1.408 . S
C790 C788 1.363 . S
C790 C791 1.370 . S
C790 C794 1.524 . S
C791 C783 1.503 . S
C791 C790 1.370 . S
C791 C792 1.403 . S
C792 C791 1.403 . S
C792 C793 1.404 . S
C792 C795 1.539 . S
C793 C789 1.408 . S
C793 C792 1.404 . S
C793 H805 0.930 . S
C794 C790 1.524 . S
C794 H806 0.956 . S
C794 H807 0.961 . S
C794 H808 0.961 . S
C795 C792 1.539 . S
C795 H809 0.958 . S
C795 H810 0.961 . S
C795 H811 0.960 . S
H796 C780 0.931 . S
H797 C785 0.929 . S
H798 C786 0.960 . S
H799 C786 0.962 . S
H800 C786 0.960 . S
H801 C787 0.961 . S
H802 C787 0.961 . S
H803 C787 0.961 . S
H804 C788 0.931 . S
H805 C793 0.930 . S
H806 C794 0.956 . S
H807 C794 0.961 . S
H808 C794 0.961 . S
H809 C795 0.958 . S
H810 C795 0.961 . S
H811 C795 0.960 . S
C812 C813 1.391 . S
C812 C814 1.394 . S
C812 H828 0.931 . S
C813 C812 1.391 . S
C813 C817 1.376 . S
C814 C812 1.394 . S
C814 C815 1.369 . S
C814 C818 1.531 . S
C815 C814 1.369 . S
C815 C816 1.410 . S
C815 C823 1.503 . S
C816 C815 1.410 . S
C816 C817 1.392 . S
C816 C819 1.511 . S
C817 C813 1.376 . S
C817 C816 1.392 . S
C817 H829 0.929 . S
C818 C814 1.531 . S
C818 H830 0.960 . S
C818 H831 0.962 . S
C818 H832 0.960 . S
C819 C816 1.511 . S
C819 H833 0.961 . S
C819 H834 0.961 . S
C819 H835 0.961 . S
C820 C821 1.370 . S
C820 C822 1.363 . S
C820 H836 0.931 . S
C821 C820 1.370 . S
C821 C825 1.408 . S
C822 C820 1.363 . S
C822 C823 1.370 . S
C822 C826 1.524 . S
C823 C815 1.503 . S
C823 C822 1.370 . S
C823 C824 1.403 . S
C824 C823 1.403 . S
C824 C825 1.404 . S
C824 C827 1.539 . S
C825 C821 1.408 . S
C825 C824 1.404 . S
C825 H837 0.930 . S
C826 C822 1.524 . S
C826 H838 0.956 . S
C826 H839 0.961 . S
C826 H840 0.961 . S
C827 C824 1.539 . S
C827 H841 0.958 . S
C827 H842 0.961 . S
C827 H843 0.960 . S
H828 C812 0.931 . S
H829 C817 0.929 . S
H830 C818 0.960 . S
H831 C818 0.962 . S
H832 C818 0.960 . S
H833 C819 0.961 . S
H834 C819 0.961 . S
H835 C819 0.961 . S
H836 C820 0.931 . S
H837 C825 0.930 . S
H838 C826 0.956 . S
H839 C826 0.961 . S
H840 C826 0.961 . S
H841 C827 0.958 . S
H842 C827 0.961 . S
H843 C827 0.960 . S
C844 C845 1.391 . S
C844 C846 1.394 . S
C844 H860 0.931 . S
C845 C844 1.391 . S
C845 C849 1.376 . S
C846 C844 1.394 . S
C846 C847 1.369 . S
C846 C850 1.531 . S
C847 C846 1.369 . S
C847 C848 1.410 . S
C847 C855 1.503 . S
C848 C847 1.410 . S
C848 C849 1.392 . S
C848 C851 1.511 . S
C849 C845 1.376 . S
C849 C848 1.392 . S
C849 H861 0.929 . S
C850 C846 1.531 . S
C850 H862 0.960 . S
C850 H863 0.962 . S
C850 H864 0.960 . S
C851 C848 1.511 . S
C851 H865 0.961 . S
C851 H866 0.961 . S
C851 H867 0.961 . S
C852 C853 1.370 . S
C852 C854 1.363 . S
C852 H868 0.931 . S
C853 C852 1.370 . S
C853 C857 1.408 . S
C854 C852 1.363 . S
C854 C855 1.370 . S
C854 C858 1.524 . S
C855 C847 1.503 . S
C855 C854 1.370 . S
C855 C856 1.403 . S
C856 C855 1.403 . S
C856 C857 1.404 . S
C856 C859 1.539 . S
C857 C853 1.408 . S
C857 C856 1.404 . S
C857 H869 0.930 . S
C858 C854 1.524 . S
C858 H870 0.956 . S
C858 H871 0.961 . S
C858 H872 0.961 . S
C859 C856 1.539 . S
C859 H873 0.958 . S
C859 H874 0.961 . S
C859 H875 0.960 . S
H860 C844 0.931 . S
H861 C849 0.929 . S
H862 C850 0.960 . S
H863 C850 0.962 . S
H864 C850 0.960 . S
H865 C851 0.961 . S
H866 C851 0.961 . S
H867 C851 0.961 . S
H868 C852 0.931 . S
H869 C857 0.930 . S
H870 C858 0.956 . S
H871 C858 0.961 . S
H872 C858 0.961 . S
H873 C859 0.958 . S
H874 C859 0.961 . S
H875 C859 0.960 . S
C876 C877 1.391 . S
C876 C878 1.394 1_455 S
C876 H892 0.931 . S
C877 C876 1.391 . S
C877 C881 1.376 1_455 S
C878 C876 1.394 1_655 S
C878 C879 1.369 . S
C878 C882 1.531 . S
C879 C878 1.369 . S
C879 C880 1.410 . S
C879 C887 1.503 . S
C880 C879 1.410 . S
C880 C881 1.392 . S
C880 C883 1.511 . S
C881 C877 1.376 1_655 S
C881 C880 1.392 . S
C881 H893 0.929 . S
C882 C878 1.531 . S
C882 H894 0.960 . S
C882 H895 0.962 . S
C882 H896 0.975 . S
C883 C880 1.511 . S
C883 H897 0.961 . S
C883 H898 0.961 . S
C883 H899 0.961 . S
C884 C885 1.370 . S
C884 C886 1.363 . S
C884 H900 0.931 . S
C885 C884 1.370 . S
C885 C889 1.408 . S
C886 C884 1.363 . S
C886 C887 1.370 . S
C886 C890 1.524 . S
C887 C879 1.503 . S
C887 C886 1.370 . S
C887 C888 1.403 . S
C888 C887 1.403 . S
C888 C889 1.404 . S
C888 C891 1.539 . S
C889 C885 1.408 . S
C889 C888 1.404 . S
C889 H901 0.930 . S
C890 C886 1.524 . S
C890 H902 0.956 . S
C890 H903 0.961 . S
C890 H904 0.961 . S
C891 C888 1.539 . S
C891 H905 0.958 . S
C891 H906 0.961 . S
C891 H907 0.960 . S
H892 C876 0.931 . S
H893 C881 0.929 . S
H894 C882 0.960 . S
H895 C882 0.962 . S
H896 C882 0.975 . S
H897 C883 0.961 . S
H898 C883 0.961 . S
H899 C883 0.961 . S
H900 C884 0.931 . S
H901 C889 0.930 . S
H902 C890 0.956 . S
H903 C890 0.961 . S
H904 C890 0.961 . S
H905 C891 0.958 . S
H906 C891 0.961 . S
H907 C891 0.960 . S
C908 C909 1.391 . S
C908 C910 1.394 . S
C908 H924 0.931 . S
C909 C908 1.391 . S
C909 C913 1.376 . S
C910 C908 1.394 . S
C910 C911 1.369 . S
C910 C914 1.531 . S
C911 C910 1.369 . S
C911 C912 1.410 . S
C911 C919 1.503 . S
C912 C911 1.410 . S
C912 C913 1.392 . S
C912 C915 1.511 . S
C913 C909 1.376 . S
C913 C912 1.392 . S
C913 H925 0.929 . S
C914 C910 1.531 . S
C914 H926 0.960 . S
C914 H927 0.962 . S
C914 H928 0.960 . S
C915 C912 1.511 . S
C915 H929 0.961 . S
C915 H930 0.961 . S
C915 H931 0.961 . S
C916 C917 1.370 . S
C916 C918 1.363 1_565 S
C916 H932 0.931 . S
C917 C916 1.370 . S
C917 C921 1.408 1_565 S
C918 C916 1.363 1_545 S
C918 C919 1.370 . S
C918 C922 1.524 . S
C919 C911 1.503 . S
C919 C918 1.370 . S
C919 C920 1.403 . S
C920 C919 1.403 . S
C920 C921 1.404 . S
C920 C923 1.539 . S
C921 C917 1.408 1_545 S
C921 C920 1.404 . S
C921 H933 0.930 . S
C922 C918 1.524 . S
C922 H934 0.956 . S
C922 H935 0.961 . S
C922 H936 0.961 . S
C923 C920 1.539 . S
C923 H937 0.958 . S
C923 H938 0.961 . S
C923 H939 0.960 . S
H924 C908 0.931 . S
H925 C913 0.929 . S
H926 C914 0.960 . S
H927 C914 0.962 . S
H928 C914 0.960 . S
H929 C915 0.961 . S
H930 C915 0.961 . S
H931 C915 0.961 . S
H932 C916 0.931 . S
H933 C921 0.930 . S
H934 C922 0.956 . S
H935 C922 0.961 . S
H936 C922 0.961 . S
H937 C923 0.958 . S
H938 C923 0.961 . S
H939 C923 0.960 . S
C940 C941 1.391 1_655 S
C940 C942 1.394 . S
C940 H956 0.931 . S
C941 C940 1.391 1_455 S
C941 C945 1.376 . S
C942 C940 1.394 . S
C942 C943 1.369 . S
C942 C946 1.531 . S
C943 C942 1.369 . S
C943 C944 1.410 . S
C943 C951 1.503 . S
C944 C943 1.410 . S
C944 C945 1.392 1_655 S
C944 C947 1.511 . S
C945 C941 1.376 . S
C945 C944 1.392 1_455 S
C945 H957 0.929 . S
C946 C942 1.531 . S
C946 H958 0.960 . S
C946 H959 0.962 . S
C946 H960 0.960 . S
C947 C944 1.511 . S
C947 H961 0.957 1_655 S
C947 H962 0.961 . S
C947 H963 0.961 . S
C948 C949 1.370 1_545 S
C948 C950 1.363 . S
C948 H964 0.931 . S
C949 C948 1.370 1_565 S
C949 C953 1.408 . S
C950 C948 1.363 . S
C950 C951 1.370 . S
C950 C954 1.524 . S
C951 C943 1.503 . S
C951 C950 1.370 . S
C951 C952 1.403 . S
C952 C951 1.403 . S
C952 C953 1.404 1_545 S
C952 C955 1.539 . S
C953 C949 1.408 . S
C953 C952 1.404 1_565 S
C953 H965 0.930 . S
C954 C950 1.524 . S
C954 H966 0.956 . S
C954 H967 0.961 . S
C954 H968 0.961 . S
C955 C952 1.539 . S
C955 H969 0.958 . S
C955 H970 0.961 . S
C955 H971 0.960 . S
H956 C940 0.931 . S
H957 C945 0.929 . S
H958 C946 0.960 . S
H959 C946 0.962 . S
H960 C946 0.960 . S
H961 C947 0.957 1_455 S
H962 C947 0.961 . S
H963 C947 0.961 . S
H964 C948 0.931 . S
H965 C953 0.930 . S
H966 C954 0.956 . S
H967 C954 0.961 . S
H968 C954 0.961 . S
H969 C955 0.958 . S
H970 C955 0.961 . S
H971 C955 0.960 . S
C972 C973 1.391 . S
C972 C974 1.394 . S
C972 H988 0.931 . S
C973 C972 1.391 . S
C973 C977 1.376 . S
C974 C972 1.394 . S
C974 C975 1.369 . S
C974 C978 1.531 . S
C975 C974 1.369 . S
C975 C976 1.410 . S
C975 C983 1.503 . S
C976 C975 1.410 . S
C976 C977 1.392 . S
C976 C979 1.511 . S
C977 C973 1.376 . S
C977 C976 1.392 . S
C977 H989 0.929 . S
C978 C974 1.531 . S
C978 H990 0.960 . S
C978 H991 0.962 . S
C978 H992 0.960 . S
C979 C976 1.511 . S
C979 H993 0.961 . S
C979 H994 0.961 . S
C979 H995 0.961 . S
C980 C981 1.370 . S
C980 C982 1.363 . S
C980 H996 0.931 . S
C981 C980 1.370 . S
C981 C985 1.408 . S
C982 C980 1.363 . S
C982 C983 1.370 . S
C982 C986 1.524 . S
C983 C975 1.503 . S
C983 C982 1.370 . S
C983 C984 1.403 . S
C984 C983 1.403 . S
C984 C985 1.404 . S
C984 C987 1.539 . S
C985 C981 1.408 . S
C985 C984 1.404 . S
C985 H997 0.930 . S
C986 C982 1.524 . S
C986 H998 0.956 . S
C986 H999 0.961 . S
C986 H1000 0.961 . S
C987 C984 1.539 . S
C987 H1001 0.958 . S
C987 H1002 0.961 . S
C987 H1003 0.960 . S
H988 C972 0.931 . S
H989 C977 0.929 . S
H990 C978 0.960 . S
H991 C978 0.962 . S
H992 C978 0.960 . S
H993 C979 0.961 . S
H994 C979 0.961 . S
H995 C979 0.961 . S
H996 C980 0.931 . S
H997 C985 0.930 . S
H998 C986 0.956 . S
H999 C986 0.961 . S
H1000 C986 0.961 . S
H1001 C987 0.958 . S
H1002 C987 0.961 . S
H1003 C987 0.960 . S
C1004 C1005 1.391 . S
C1004 C1006 1.394 . S
C1004 H1020 0.931 . S
C1005 C1004 1.391 . S
C1005 C1009 1.376 . S
C1006 C1004 1.394 . S
C1006 C1007 1.369 . S
C1006 C1010 1.531 . S
C1007 C1006 1.369 . S
C1007 C1008 1.410 . S
C1007 C1015 1.503 . S
C1008 C1007 1.410 . S
C1008 C1009 1.392 . S
C1008 C1011 1.511 . S
C1009 C1005 1.376 . S
C1009 C1008 1.392 . S
C1009 H1021 0.929 . S
C1010 C1006 1.531 . S
C1010 H1022 0.960 . S
C1010 H1023 0.962 . S
C1010 H1024 0.960 . S
C1011 C1008 1.511 . S
C1011 H1025 0.961 . S
C1011 H1026 0.961 . S
C1011 H1027 0.961 . S
C1012 C1013 1.370 . S
C1012 C1014 1.363 . S
C1012 H1028 0.931 . S
C1013 C1012 1.370 . S
C1013 C1017 1.408 . S
C1014 C1012 1.363 . S
C1014 C1015 1.370 . S
C1014 C1018 1.524 . S
C1015 C1007 1.503 . S
C1015 C1014 1.370 . S
C1015 C1016 1.403 . S
C1016 C1015 1.403 . S
C1016 C1017 1.404 . S
C1016 C1019 1.539 . S
C1017 C1013 1.408 . S
C1017 C1016 1.404 . S
C1017 H1029 0.930 . S
C1018 C1014 1.524 . S
C1018 H1030 0.956 . S
C1018 H1031 0.961 . S
C1018 H1032 0.961 . S
C1019 C1016 1.539 . S
C1019 H1033 0.958 . S
C1019 H1034 0.961 . S
C1019 H1035 0.960 . S
H1020 C1004 0.931 . S
H1021 C1009 0.929 . S
H1022 C1010 0.960 . S
H1023 C1010 0.962 . S
H1024 C1010 0.960 . S
H1025 C1011 0.961 . S
H1026 C1011 0.961 . S
H1027 C1011 0.961 . S
H1028 C1012 0.931 . S
H1029 C1017 0.930 . S
H1030 C1018 0.956 . S
H1031 C1018 0.961 . S
H1032 C1018 0.961 . S
H1033 C1019 0.958 . S
H1034 C1019 0.961 . S
H1035 C1019 0.960 . S
C1036 C1037 1.391 . S
C1036 C1038 1.394 . S
C1036 H1052 0.931 . S
C1037 C1036 1.391 . S
C1037 C1041 1.376 . S
C1038 C1036 1.394 . S
C1038 C1039 1.369 . S
C1038 C1042 1.531 . S
C1039 C1038 1.369 . S
C1039 C1040 1.410 . S
C1039 C1047 1.503 . S
C1040 C1039 1.410 . S
C1040 C1041 1.392 . S
C1040 C1043 1.511 . S
C1041 C1037 1.376 . S
C1041 C1040 1.392 . S
C1041 H1053 0.929 . S
C1042 C1038 1.531 . S
C1042 H1054 0.960 . S
C1042 H1055 0.962 . S
C1042 H1056 0.960 . S
C1043 C1040 1.511 . S
C1043 H1057 0.961 . S
C1043 H1058 0.961 . S
C1043 H1059 0.961 . S
C1044 C1045 1.370 . S
C1044 C1046 1.363 . S
C1044 H1060 0.931 . S
C1045 C1044 1.370 . S
C1045 C1049 1.408 . S
C1046 C1044 1.363 . S
C1046 C1047 1.370 . S
C1046 C1050 1.524 . S
C1047 C1039 1.503 . S
C1047 C1046 1.370 . S
C1047 C1048 1.403 . S
C1048 C1047 1.403 . S
C1048 C1049 1.404 . S
C1048 C1051 1.539 . S
C1049 C1045 1.408 . S
C1049 C1048 1.404 . S
C1049 H1061 0.930 . S
C1050 C1046 1.524 . S
C1050 H1062 0.956 . S
C1050 H1063 0.961 . S
C1050 H1064 0.961 . S
C1051 C1048 1.539 . S
C1051 H1065 0.958 . S
C1051 H1066 0.961 . S
C1051 H1067 0.960 . S
H1052 C1036 0.931 . S
H1053 C1041 0.929 . S
H1054 C1042 0.960 . S
H1055 C1042 0.962 . S
H1056 C1042 0.960 . S
H1057 C1043 0.961 . S
H1058 C1043 0.961 . S
H1059 C1043 0.961 . S
H1060 C1044 0.931 . S
H1061 C1049 0.930 . S
H1062 C1050 0.956 . S
H1063 C1050 0.961 . S
H1064 C1050 0.961 . S
H1065 C1051 0.958 . S
H1066 C1051 0.961 . S
H1067 C1051 0.960 . S
C1068 C1069 1.391 . S
C1068 C1070 1.394 . S
C1068 H1084 0.931 . S
C1069 C1068 1.391 . S
C1069 C1073 1.376 . S
C1070 C1068 1.394 . S
C1070 C1071 1.369 . S
C1070 C1074 1.531 . S
C1071 C1070 1.369 . S
C1071 C1072 1.410 . S
C1071 C1079 1.503 . S
C1072 C1071 1.410 . S
C1072 C1073 1.392 . S
C1072 C1075 1.511 . S
C1073 C1069 1.376 . S
C1073 C1072 1.392 . S
C1073 H1085 0.929 . S
C1074 C1070 1.531 . S
C1074 H1086 0.960 . S
C1074 H1087 0.962 . S
C1074 H1088 0.960 . S
C1075 C1072 1.511 . S
C1075 H1089 0.961 . S
C1075 H1090 0.961 . S
C1075 H1091 0.961 . S
C1076 C1077 1.370 . S
C1076 C1078 1.363 . S
C1076 H1092 0.931 . S
C1077 C1076 1.370 . S
C1077 C1081 1.408 . S
C1078 C1076 1.363 . S
C1078 C1079 1.370 . S
C1078 C1082 1.524 . S
C1079 C1071 1.503 . S
C1079 C1078 1.370 . S
C1079 C1080 1.403 . S
C1080 C1079 1.403 . S
C1080 C1081 1.404 . S
C1080 C1083 1.539 . S
C1081 C1077 1.408 . S
C1081 C1080 1.404 . S
C1081 H1093 0.930 . S
C1082 C1078 1.524 . S
C1082 H1094 0.956 . S
C1082 H1095 0.961 . S
C1082 H1096 0.961 . S
C1083 C1080 1.539 . S
C1083 H1097 0.958 1_545 S
C1083 H1098 0.961 1_545 S
C1083 H1099 0.960 . S
H1084 C1068 0.931 . S
H1085 C1073 0.929 . S
H1086 C1074 0.960 . S
H1087 C1074 0.962 . S
H1088 C1074 0.960 . S
H1089 C1075 0.961 . S
H1090 C1075 0.961 . S
H1091 C1075 0.961 . S
H1092 C1076 0.931 . S
H1093 C1081 0.930 . S
H1094 C1082 0.956 . S
H1095 C1082 0.961 . S
H1096 C1082 0.961 . S
H1097 C1083 0.958 1_565 S
H1098 C1083 0.961 1_565 S
H1099 C1083 0.960 . S
C1100 C1101 1.391 . S
C1100 C1102 1.394 . S
C1100 H1116 0.931 . S
C1101 C1100 1.391 . S
C1101 C1105 1.376 . S
C1102 C1100 1.394 . S
C1102 C1103 1.369 . S
C1102 C1106 1.531 . S
C1103 C1102 1.369 . S
C1103 C1104 1.410 . S
C1103 C1111 1.503 . S
C1104 C1103 1.410 . S
C1104 C1105 1.392 . S
C1104 C1107 1.511 . S
C1105 C1101 1.376 . S
C1105 C1104 1.392 . S
C1105 H1117 0.929 . S
C1106 C1102 1.531 . S
C1106 H1118 0.960 . S
C1106 H1119 0.962 . S
C1106 H1120 0.960 . S
C1107 C1104 1.511 . S
C1107 H1121 0.961 1_655 S
C1107 H1122 0.961 . S
C1107 H1123 0.961 . S
C1108 C1109 1.370 . S
C1108 C1110 1.363 . S
C1108 H1124 0.931 . S
C1109 C1108 1.370 . S
C1109 C1113 1.408 . S
C1110 C1108 1.363 . S
C1110 C1111 1.370 . S
C1110 C1114 1.524 . S
C1111 C1103 1.503 . S
C1111 C1110 1.370 . S
C1111 C1112 1.403 . S
C1112 C1111 1.403 . S
C1112 C1113 1.404 . S
C1112 C1115 1.539 . S
C1113 C1109 1.408 . S
C1113 C1112 1.404 . S
C1113 H1125 0.930 . S
C1114 C1110 1.524 . S
C1114 H1126 0.956 . S
C1114 H1127 0.961 . S
C1114 H1128 0.961 . S
C1115 C1112 1.539 . S
C1115 H1129 0.958 . S
C1115 H1130 0.961 . S
C1115 H1131 0.960 . S
H1116 C1100 0.931 . S
H1117 C1105 0.929 . S
H1118 C1106 0.960 . S
H1119 C1106 0.962 . S
H1120 C1106 0.960 . S
H1121 C1107 0.961 1_455 S
H1122 C1107 0.961 . S
H1123 C1107 0.961 . S
H1124 C1108 0.931 . S
H1125 C1113 0.930 . S
H1126 C1114 0.956 . S
H1127 C1114 0.961 . S
H1128 C1114 0.961 . S
H1129 C1115 0.958 . S
H1130 C1115 0.961 . S
H1131 C1115 0.960 . S
C1132 C1133 1.391 . S
C1132 C1134 1.394 . S
C1132 H1148 0.931 . S
C1133 C1132 1.391 . S
C1133 C1137 1.376 . S
C1134 C1132 1.394 . S
C1134 C1135 1.369 . S
C1134 C1138 1.531 . S
C1135 C1134 1.369 . S
C1135 C1136 1.410 . S
C1135 C1143 1.503 . S
C1136 C1135 1.410 . S
C1136 C1137 1.392 . S
C1136 C1139 1.511 . S
C1137 C1133 1.376 . S
C1137 C1136 1.392 . S
C1137 H1149 0.929 . S
C1138 C1134 1.531 . S
C1138 H1150 0.960 . S
C1138 H1151 0.962 . S
C1138 H1152 0.960 . S
C1139 C1136 1.511 . S
C1139 H1153 0.961 . S
C1139 H1154 0.961 . S
C1139 H1155 0.961 . S
C1140 C1141 1.370 . S
C1140 C1142 1.363 . S
C1140 H1156 0.931 . S
C1141 C1140 1.370 . S
C1141 C1145 1.408 . S
C1142 C1140 1.363 . S
C1142 C1143 1.370 . S
C1142 C1146 1.524 . S
C1143 C1135 1.503 . S
C1143 C1142 1.370 . S
C1143 C1144 1.403 . S
C1144 C1143 1.403 . S
C1144 C1145 1.404 . S
C1144 C1147 1.539 . S
C1145 C1141 1.408 . S
C1145 C1144 1.404 . S
C1145 H1157 0.930 . S
C1146 C1142 1.524 . S
C1146 H1158 0.956 . S
C1146 H1159 0.961 . S
C1146 H1160 0.961 . S
C1147 C1144 1.539 . S
C1147 H1161 0.958 . S
C1147 H1162 0.961 . S
C1147 H1163 0.960 . S
H1148 C1132 0.931 . S
H1149 C1137 0.929 . S
H1150 C1138 0.960 . S
H1151 C1138 0.962 . S
H1152 C1138 0.960 . S
H1153 C1139 0.961 . S
H1154 C1139 0.961 . S
H1155 C1139 0.961 . S
H1156 C1140 0.931 . S
H1157 C1145 0.930 . S
H1158 C1146 0.956 . S
H1159 C1146 0.961 . S
H1160 C1146 0.961 . S
H1161 C1147 0.958 . S
H1162 C1147 0.961 . S
H1163 C1147 0.960 . S
C1164 C1165 1.391 . S
C1164 C1166 1.394 . S
C1164 H1180 0.931 . S
C1165 C1164 1.391 . S
C1165 C1169 1.376 . S
C1166 C1164 1.394 . S
C1166 C1167 1.369 . S
C1166 C1170 1.531 . S
C1167 C1166 1.369 . S
C1167 C1168 1.410 . S
C1167 C1175 1.503 . S
C1168 C1167 1.410 . S
C1168 C1169 1.392 . S
C1168 C1171 1.511 . S
C1169 C1165 1.376 . S
C1169 C1168 1.392 . S
C1169 H1181 0.929 . S
C1170 C1166 1.531 . S
C1170 H1182 0.960 . S
C1170 H1183 0.962 . S
C1170 H1184 0.960 . S
C1171 C1168 1.511 . S
C1171 H1185 0.961 . S
C1171 H1186 0.961 . S
C1171 H1187 0.961 . S
C1172 C1173 1.370 . S
C1172 C1174 1.363 . S
C1172 H1188 0.931 . S
C1173 C1172 1.370 . S
C1173 C1177 1.408 . S
C1174 C1172 1.363 . S
C1174 C1175 1.370 . S
C1174 C1178 1.524 . S
C1175 C1167 1.503 . S
C1175 C1174 1.370 . S
C1175 C1176 1.403 . S
C1176 C1175 1.403 . S
C1176 C1177 1.404 . S
C1176 C1179 1.539 . S
C1177 C1173 1.408 . S
C1177 C1176 1.404 . S
C1177 H1189 0.930 . S
C1178 C1174 1.524 . S
C1178 H1190 0.956 . S
C1178 H1191 0.961 . S
C1178 H1192 0.961 . S
C1179 C1176 1.539 . S
C1179 H1193 0.958 . S
C1179 H1194 0.961 . S
C1179 H1195 0.960 . S
H1180 C1164 0.931 . S
H1181 C1169 0.929 . S
H1182 C1170 0.960 . S
H1183 C1170 0.962 . S
H1184 C1170 0.960 . S
H1185 C1171 0.961 . S
H1186 C1171 0.961 . S
H1187 C1171 0.961 . S
H1188 C1172 0.931 . S
H1189 C1177 0.930 . S
H1190 C1178 0.956 . S
H1191 C1178 0.961 . S
H1192 C1178 0.961 . S
H1193 C1179 0.958 . S
H1194 C1179 0.961 . S
H1195 C1179 0.960 . S
C1196 C1197 1.391 . S
C1196 C1198 1.394 . S
C1196 H1212 0.931 . S
C1197 C1196 1.391 . S
C1197 C1201 1.376 . S
C1198 C1196 1.394 . S
C1198 C1199 1.369 . S
C1198 C1202 1.531 . S
C1199 C1198 1.369 . S
C1199 C1200 1.410 . S
C1199 C1207 1.503 . S
C1200 C1199 1.410 . S
C1200 C1201 1.392 . S
C1200 C1203 1.511 . S
C1201 C1197 1.376 . S
C1201 C1200 1.392 . S
C1201 H1213 0.929 . S
C1202 C1198 1.531 . S
C1202 H1214 0.960 . S
C1202 H1215 0.962 . S
C1202 H1216 0.960 . S
C1203 C1200 1.511 . S
C1203 H1217 0.961 . S
C1203 H1218 0.961 . S
C1203 H1219 0.961 . S
C1204 C1205 1.370 . S
C1204 C1206 1.363 . S
C1204 H1220 0.931 . S
C1205 C1204 1.370 . S
C1205 C1209 1.408 . S
C1206 C1204 1.363 . S
C1206 C1207 1.370 . S
C1206 C1210 1.524 . S
C1207 C1199 1.503 . S
C1207 C1206 1.370 . S
C1207 C1208 1.403 . S
C1208 C1207 1.403 . S
C1208 C1209 1.404 . S
C1208 C1211 1.539 . S
C1209 C1205 1.408 . S
C1209 C1208 1.404 . S
C1209 H1221 0.930 . S
C1210 C1206 1.524 . S
C1210 H1222 0.956 . S
C1210 H1223 0.961 . S
C1210 H1224 0.961 . S
C1211 C1208 1.539 . S
C1211 H1225 0.958 . S
C1211 H1226 0.961 . S
C1211 H1227 0.960 . S
H1212 C1196 0.931 . S
H1213 C1201 0.929 . S
H1214 C1202 0.960 . S
H1215 C1202 0.962 . S
H1216 C1202 0.960 . S
H1217 C1203 0.961 . S
H1218 C1203 0.961 . S
H1219 C1203 0.961 . S
H1220 C1204 0.931 . S
H1221 C1209 0.930 . S
H1222 C1210 0.956 . S
H1223 C1210 0.961 . S
H1224 C1210 0.961 . S
H1225 C1211 0.958 . S
H1226 C1211 0.961 . S
H1227 C1211 0.960 . S
C1228 C1229 1.391 . S
C1228 C1230 1.394 . S
C1228 H1244 0.931 . S
C1229 C1228 1.391 . S
C1229 C1233 1.376 . S
C1230 C1228 1.394 . S
C1230 C1231 1.369 . S
C1230 C1234 1.531 . S
C1231 C1230 1.369 . S
C1231 C1232 1.410 . S
C1231 C1239 1.503 . S
C1232 C1231 1.410 . S
C1232 C1233 1.392 . S
C1232 C1235 1.511 . S
C1233 C1229 1.376 . S
C1233 C1232 1.392 . S
C1233 H1245 0.929 . S
C1234 C1230 1.531 . S
C1234 H1246 0.960 . S
C1234 H1247 0.962 . S
C1234 H1248 0.960 . S
C1235 C1232 1.511 . S
C1235 H1249 0.961 . S
C1235 H1250 0.961 . S
C1235 H1251 0.961 . S
C1236 C1237 1.370 . S
C1236 C1238 1.363 . S
C1236 H1252 0.931 . S
C1237 C1236 1.370 . S
C1237 C1241 1.408 . S
C1238 C1236 1.363 . S
C1238 C1239 1.370 . S
C1238 C1242 1.524 . S
C1239 C1231 1.503 . S
C1239 C1238 1.370 . S
C1239 C1240 1.403 . S
C1240 C1239 1.403 . S
C1240 C1241 1.404 . S
C1240 C1243 1.539 . S
C1241 C1237 1.408 . S
C1241 C1240 1.404 . S
C1241 H1253 0.930 . S
C1242 C1238 1.524 . S
C1242 H1254 0.956 . S
C1242 H1255 0.961 . S
C1242 H1256 0.961 . S
C1243 C1240 1.539 . S
C1243 H1257 0.958 . S
C1243 H1258 0.961 . S
C1243 H1259 0.960 . S
H1244 C1228 0.931 . S
H1245 C1233 0.929 . S
H1246 C1234 0.960 . S
H1247 C1234 0.962 . S
H1248 C1234 0.960 . S
H1249 C1235 0.961 . S
H1250 C1235 0.961 . S
H1251 C1235 0.961 . S
H1252 C1236 0.931 . S
H1253 C1241 0.930 . S
H1254 C1242 0.956 . S
H1255 C1242 0.961 . S
H1256 C1242 0.961 . S
H1257 C1243 0.958 . S
H1258 C1243 0.961 . S
H1259 C1243 0.960 . S
C1260 C1261 1.391 . S
C1260 C1262 1.394 . S
C1260 H1276 0.931 . S
C1261 C1260 1.391 . S
C1261 C1265 1.376 . S
C1262 C1260 1.394 . S
C1262 C1263 1.369 . S
C1262 C1266 1.531 . S
C1263 C1262 1.369 . S
C1263 C1264 1.410 . S
C1263 C1271 1.503 . S
C1264 C1263 1.410 . S
C1264 C1265 1.392 . S
C1264 C1267 1.511 . S
C1265 C1261 1.376 . S
C1265 C1264 1.392 . S
C1265 H1277 0.929 . S
C1266 C1262 1.531 . S
C1266 H1278 0.960 . S
C1266 H1279 0.962 . S
C1266 H1280 0.960 . S
C1267 C1264 1.511 . S
C1267 H1281 0.961 . S
C1267 H1282 0.961 . S
C1267 H1283 0.961 . S
C1268 C1269 1.370 . S
C1268 C1270 1.363 . S
C1268 H1284 0.931 . S
C1269 C1268 1.370 . S
C1269 C1273 1.408 . S
C1270 C1268 1.363 . S
C1270 C1271 1.370 . S
C1270 C1274 1.524 . S
C1271 C1263 1.503 . S
C1271 C1270 1.370 . S
C1271 C1272 1.403 . S
C1272 C1271 1.403 . S
C1272 C1273 1.404 . S
C1272 C1275 1.539 . S
C1273 C1269 1.408 . S
C1273 C1272 1.404 . S
C1273 H1285 0.930 . S
C1274 C1270 1.524 . S
C1274 H1286 0.956 . S
C1274 H1287 0.961 . S
C1274 H1288 0.961 . S
C1275 C1272 1.539 . S
C1275 H1289 0.958 . S
C1275 H1290 0.961 . S
C1275 H1291 0.960 . S
H1276 C1260 0.931 . S
H1277 C1265 0.929 . S
H1278 C1266 0.960 . S
H1279 C1266 0.962 . S
H1280 C1266 0.960 . S
H1281 C1267 0.961 . S
H1282 C1267 0.961 . S
H1283 C1267 0.961 . S
H1284 C1268 0.931 . S
H1285 C1273 0.930 . S
H1286 C1274 0.956 . S
H1287 C1274 0.961 . S
H1288 C1274 0.961 . S
H1289 C1275 0.958 . S
H1290 C1275 0.961 . S
H1291 C1275 0.960 . S
C1292 C1293 1.391 . S
C1292 C1294 1.394 . S
C1292 H1308 0.931 . S
C1293 C1292 1.391 . S
C1293 C1297 1.376 . S
C1294 C1292 1.394 . S
C1294 C1295 1.369 . S
C1294 C1298 1.531 . S
C1295 C1294 1.369 . S
C1295 C1296 1.410 . S
C1295 C1303 1.503 . S
C1296 C1295 1.410 . S
C1296 C1297 1.392 . S
C1296 C1299 1.511 . S
C1297 C1293 1.376 . S
C1297 C1296 1.392 . S
C1297 H1309 0.929 . S
C1298 C1294 1.531 . S
C1298 H1310 0.960 . S
C1298 H1311 0.962 . S
C1298 H1312 0.960 . S
C1299 C1296 1.511 . S
C1299 H1313 0.961 . S
C1299 H1314 0.961 . S
C1299 H1315 0.961 . S
C1300 C1301 1.370 . S
C1300 C1302 1.363 . S
C1300 H1316 0.931 . S
C1301 C1300 1.370 . S
C1301 C1305 1.408 . S
C1302 C1300 1.363 . S
C1302 C1303 1.370 . S
C1302 C1306 1.524 . S
C1303 C1295 1.503 . S
C1303 C1302 1.370 . S
C1303 C1304 1.403 . S
C1304 C1303 1.403 . S
C1304 C1305 1.404 . S
C1304 C1307 1.539 . S
C1305 C1301 1.408 . S
C1305 C1304 1.404 . S
C1305 H1317 0.930 . S
C1306 C1302 1.524 . S
C1306 H1318 0.956 . S
C1306 H1319 0.961 . S
C1306 H1320 0.961 . S
C1307 C1304 1.539 . S
C1307 H1321 0.958 . S
C1307 H1322 0.961 . S
C1307 H1323 0.960 . S
H1308 C1292 0.931 . S
H1309 C1297 0.929 . S
H1310 C1298 0.960 . S
H1311 C1298 0.962 . S
H1312 C1298 0.960 . S
H1313 C1299 0.961 . S
H1314 C1299 0.961 . S
H1315 C1299 0.961 . S
H1316 C1300 0.931 . S
H1317 C1305 0.930 . S
H1318 C1306 0.956 . S
H1319 C1306 0.961 . S
H1320 C1306 0.961 . S
H1321 C1307 0.958 . S
H1322 C1307 0.961 . S
H1323 C1307 0.960 . S
C1324 C1325 1.391 . S
C1324 C1326 1.394 . S
C1324 H1340 0.931 . S
C1325 C1324 1.391 . S
C1325 C1329 1.376 . S
C1326 C1324 1.394 . S
C1326 C1327 1.369 . S
C1326 C1330 1.531 . S
C1327 C1326 1.369 . S
C1327 C1328 1.410 . S
C1327 C1335 1.503 . S
C1328 C1327 1.410 . S
C1328 C1329 1.392 . S
C1328 C1331 1.511 . S
C1329 C1325 1.376 . S
C1329 C1328 1.392 . S
C1329 H1341 0.929 . S
C1330 C1326 1.531 . S
C1330 H1342 0.960 . S
C1330 H1343 0.962 . S
C1330 H1344 0.960 . S
C1331 C1328 1.511 . S
C1331 H1345 0.961 . S
C1331 H1346 0.961 . S
C1331 H1347 0.961 . S
C1332 C1333 1.370 . S
C1332 C1334 1.363 . S
C1332 H1348 0.931 . S
C1333 C1332 1.370 . S
C1333 C1337 1.408 . S
C1334 C1332 1.363 . S
C1334 C1335 1.370 . S
C1334 C1338 1.524 . S
C1335 C1327 1.503 . S
C1335 C1334 1.370 . S
C1335 C1336 1.403 . S
C1336 C1335 1.403 . S
C1336 C1337 1.404 . S
C1336 C1339 1.539 . S
C1337 C1333 1.408 . S
C1337 C1336 1.404 . S
C1337 H1349 0.930 . S
C1338 C1334 1.524 . S
C1338 H1350 0.956 . S
C1338 H1351 0.961 . S
C1338 H1352 0.961 . S
C1339 C1336 1.539 . S
C1339 H1353 0.958 . S
C1339 H1354 0.961 . S
C1339 H1355 0.960 . S
H1340 C1324 0.931 . S
H1341 C1329 0.929 . S
H1342 C1330 0.960 . S
H1343 C1330 0.962 . S
H1344 C1330 0.960 . S
H1345 C1331 0.961 . S
H1346 C1331 0.961 . S
H1347 C1331 0.961 . S
H1348 C1332 0.931 . S
H1349 C1337 0.930 . S
H1350 C1338 0.956 . S
H1351 C1338 0.961 . S
H1352 C1338 0.961 . S
H1353 C1339 0.958 . S
H1354 C1339 0.961 . S
H1355 C1339 0.960 . S
C1356 C1357 1.391 . S
C1356 C1358 1.394 . S
C1356 H1372 0.931 . S
C1357 C1356 1.391 . S
C1357 C1361 1.376 . S
C1358 C1356 1.394 . S
C1358 C1359 1.369 . S
C1358 C1362 1.531 . S
C1359 C1358 1.369 . S
C1359 C1360 1.410 . S
C1359 C1367 1.503 . S
C1360 C1359 1.410 . S
C1360 C1361 1.392 . S
C1360 C1363 1.511 . S
C1361 C1357 1.376 . S
C1361 C1360 1.392 . S
C1361 H1373 0.929 . S
C1362 C1358 1.531 . S
C1362 H1374 0.960 . S
C1362 H1375 0.962 . S
C1362 H1376 0.960 . S
C1363 C1360 1.511 . S
C1363 H1377 0.961 . S
C1363 H1378 0.961 . S
C1363 H1379 0.961 . S
C1364 C1365 1.370 . S
C1364 C1366 1.363 . S
C1364 H1380 0.931 . S
C1365 C1364 1.370 . S
C1365 C1369 1.408 . S
C1366 C1364 1.363 . S
C1366 C1367 1.370 . S
C1366 C1370 1.524 . S
C1367 C1359 1.503 . S
C1367 C1366 1.370 . S
C1367 C1368 1.403 . S
C1368 C1367 1.403 . S
C1368 C1369 1.404 . S
C1368 C1371 1.539 . S
C1369 C1365 1.408 . S
C1369 C1368 1.404 . S
C1369 H1381 0.930 . S
C1370 C1366 1.524 . S
C1370 H1382 0.956 . S
C1370 H1383 0.961 . S
C1370 H1384 0.961 . S
C1371 C1368 1.539 . S
C1371 H1385 0.958 . S
C1371 H1386 0.961 . S
C1371 H1387 0.960 . S
H1372 C1356 0.931 . S
H1373 C1361 0.929 . S
H1374 C1362 0.960 . S
H1375 C1362 0.962 . S
H1376 C1362 0.960 . S
H1377 C1363 0.961 . S
H1378 C1363 0.961 . S
H1379 C1363 0.961 . S
H1380 C1364 0.931 . S
H1381 C1369 0.930 . S
H1382 C1370 0.956 . S
H1383 C1370 0.961 . S
H1384 C1370 0.961 . S
H1385 C1371 0.958 . S
H1386 C1371 0.961 . S
H1387 C1371 0.960 . S
C1388 C1389 1.391 . S
C1388 C1390 1.394 . S
C1388 H1404 0.931 . S
C1389 C1388 1.391 . S
C1389 C1393 1.376 . S
C1390 C1388 1.394 . S
C1390 C1391 1.369 . S
C1390 C1394 1.531 . S
C1391 C1390 1.369 . S
C1391 C1392 1.410 . S
C1391 C1399 1.503 1_545 S
C1392 C1391 1.410 . S
C1392 C1393 1.392 . S
C1392 C1395 1.515 . S
C1393 C1389 1.376 . S
C1393 C1392 1.392 . S
C1393 H1405 0.929 . S
C1394 C1390 1.531 . S
C1394 H1406 0.960 1_545 S
C1394 H1407 0.962 . S
C1394 H1408 0.960 . S
C1395 C1392 1.515 . S
C1395 H1409 0.961 . S
C1395 H1410 0.960 1_545 S
C1395 H1411 0.957 1_545 S
C1396 C1397 1.370 . S
C1396 C1398 1.363 . S
C1396 H1412 0.931 . S
C1397 C1396 1.370 . S
C1397 C1401 1.408 . S
C1398 C1396 1.363 . S
C1398 C1399 1.370 . S
C1398 C1402 1.524 1_565 S
C1399 C1391 1.503 1_565 S
C1399 C1398 1.370 . S
C1399 C1400 1.403 . S
C1400 C1399 1.403 . S
C1400 C1401 1.404 . S
C1400 C1403 1.539 . S
C1401 C1397 1.408 . S
C1401 C1400 1.404 . S
C1401 H1413 0.930 . S
C1402 C1398 1.524 1_545 S
C1402 H1414 0.956 . S
C1402 H1415 0.961 . S
C1402 H1416 0.961 . S
C1403 C1400 1.539 . S
C1403 H1417 0.958 . S
C1403 H1418 0.961 . S
C1403 H1419 0.960 . S
H1404 C1388 0.931 . S
H1405 C1393 0.929 . S
H1406 C1394 0.960 1_565 S
H1407 C1394 0.962 . S
H1408 C1394 0.960 . S
H1409 C1395 0.961 . S
H1410 C1395 0.960 1_565 S
H1411 C1395 0.957 1_565 S
H1412 C1396 0.931 . S
H1413 C1401 0.930 . S
H1414 C1402 0.956 . S
H1415 C1402 0.961 . S
H1416 C1402 0.961 . S
H1417 C1403 0.958 . S
H1418 C1403 0.961 . S
H1419 C1403 0.960 . S
C1420 C1421 1.391 . S
C1420 C1422 1.394 . S
C1420 H1436 0.931 . S
C1421 C1420 1.391 . S
C1421 C1425 1.376 . S
C1422 C1420 1.394 . S
C1422 C1423 1.369 . S
C1422 C1426 1.531 . S
C1423 C1422 1.369 . S
C1423 C1424 1.410 . S
C1423 C1431 1.503 1_455 S
C1424 C1423 1.410 . S
C1424 C1425 1.392 . S
C1424 C1427 1.511 1_455 S
C1425 C1421 1.376 . S
C1425 C1424 1.392 . S
C1425 H1437 0.929 . S
C1426 C1422 1.531 . S
C1426 H1438 0.960 . S
C1426 H1439 0.962 . S
C1426 H1440 0.960 . S
C1427 C1424 1.511 1_655 S
C1427 H1441 0.961 . S
C1427 H1442 0.961 . S
C1427 H1443 0.961 . S
C1428 C1429 1.370 . S
C1428 C1430 1.363 . S
C1428 H1444 0.931 . S
C1429 C1428 1.370 . S
C1429 C1433 1.408 . S
C1430 C1428 1.363 . S
C1430 C1431 1.370 . S
C1430 C1434 1.524 1_655 S
C1431 C1423 1.503 1_655 S
C1431 C1430 1.370 . S
C1431 C1432 1.403 . S
C1432 C1431 1.403 . S
C1432 C1433 1.404 . S
C1432 C1435 1.539 . S
C1433 C1429 1.408 . S
C1433 C1432 1.404 . S
C1433 H1445 0.930 . S
C1434 C1430 1.524 1_455 S
C1434 H1446 0.956 . S
C1434 H1447 0.961 . S
C1434 H1448 0.961 . S
C1435 C1432 1.539 . S
C1435 H1449 0.958 . S
C1435 H1450 0.961 . S
C1435 H1451 0.960 . S
H1436 C1420 0.931 . S
H1437 C1425 0.929 . S
H1438 C1426 0.960 . S
H1439 C1426 0.962 . S
H1440 C1426 0.960 . S
H1441 C1427 0.961 . S
H1442 C1427 0.961 . S
H1443 C1427 0.961 . S
H1444 C1428 0.931 . S
H1445 C1433 0.930 . S
H1446 C1434 0.956 . S
H1447 C1434 0.961 . S
H1448 C1434 0.961 . S
H1449 C1435 0.958 . S
H1450 C1435 0.961 . S
H1451 C1435 0.960 . S
C1452 C1453 1.391 . S
C1452 C1454 1.394 . S
C1452 H1468 0.931 . S
C1453 C1452 1.391 . S
C1453 C1457 1.376 . S
C1454 C1452 1.394 . S
C1454 C1455 1.369 . S
C1454 C1458 1.531 . S
C1455 C1454 1.369 . S
C1455 C1456 1.410 . S
C1455 C1463 1.503 . S
C1456 C1455 1.410 . S
C1456 C1457 1.392 . S
C1456 C1459 1.511 . S
C1457 C1453 1.376 . S
C1457 C1456 1.392 . S
C1457 H1469 0.929 . S
C1458 C1454 1.531 . S
C1458 H1470 0.960 . S
C1458 H1471 0.962 . S
C1458 H1472 0.960 . S
C1459 C1456 1.511 . S
C1459 H1473 0.961 . S
C1459 H1474 0.961 . S
C1459 H1475 0.961 . S
C1460 C1461 1.370 . S
C1460 C1462 1.363 . S
C1460 H1476 0.931 . S
C1461 C1460 1.370 . S
C1461 C1465 1.408 . S
C1462 C1460 1.363 . S
C1462 C1463 1.370 . S
C1462 C1466 1.524 . S
C1463 C1455 1.503 . S
C1463 C1462 1.370 . S
C1463 C1464 1.403 . S
C1464 C1463 1.403 . S
C1464 C1465 1.404 . S
C1464 C1467 1.539 . S
C1465 C1461 1.408 . S
C1465 C1464 1.404 . S
C1465 H1477 0.930 . S
C1466 C1462 1.524 . S
C1466 H1478 0.956 . S
C1466 H1479 0.961 . S
C1466 H1480 0.961 . S
C1467 C1464 1.539 . S
C1467 H1481 0.958 . S
C1467 H1482 0.961 . S
C1467 H1483 0.960 . S
H1468 C1452 0.931 . S
H1469 C1457 0.929 . S
H1470 C1458 0.960 . S
H1471 C1458 0.962 . S
H1472 C1458 0.960 . S
H1473 C1459 0.961 . S
H1474 C1459 0.961 . S
H1475 C1459 0.961 . S
H1476 C1460 0.931 . S
H1477 C1465 0.930 . S
H1478 C1466 0.956 . S
H1479 C1466 0.961 . S
H1480 C1466 0.961 . S
H1481 C1467 0.958 . S
H1482 C1467 0.961 . S
H1483 C1467 0.960 . S
C1484 C1485 1.391 . S
C1484 C1486 1.394 . S
C1484 H1500 0.931 . S
C1485 C1484 1.391 . S
C1485 C1489 1.376 . S
C1486 C1484 1.394 . S
C1486 C1487 1.369 . S
C1486 C1490 1.531 1_545 S
C1487 C1486 1.369 . S
C1487 C1488 1.410 . S
C1487 C1495 1.503 1_545 S
C1488 C1487 1.410 . S
C1488 C1489 1.392 . S
C1488 C1491 1.511 . S
C1489 C1485 1.376 . S
C1489 C1488 1.392 . S
C1489 H1501 0.929 . S
C1490 C1486 1.531 1_565 S
C1490 H1502 0.960 . S
C1490 H1503 0.962 . S
C1490 H1504 0.960 . S
C1491 C1488 1.511 . S
C1491 H1505 0.961 . S
C1491 H1506 0.961 . S
C1491 H1507 0.961 . S
C1492 C1493 1.370 . S
C1492 C1494 1.363 . S
C1492 H1508 0.931 . S
C1493 C1492 1.370 . S
C1493 C1497 1.408 . S
C1494 C1492 1.363 . S
C1494 C1495 1.370 . S
C1494 C1498 1.524 1_565 S
C1495 C1487 1.503 1_565 S
C1495 C1494 1.370 . S
C1495 C1496 1.403 . S
C1496 C1495 1.403 . S
C1496 C1497 1.404 . S
C1496 C1499 1.539 . S
C1497 C1493 1.408 . S
C1497 C1496 1.404 . S
C1497 H1509 0.930 . S
C1498 C1494 1.524 1_545 S
C1498 H1510 0.956 . S
C1498 H1511 0.961 . S
C1498 H1512 0.961 . S
C1499 C1496 1.539 . S
C1499 H1513 0.958 . S
C1499 H1514 0.961 . S
C1499 H1515 0.960 . S
H1500 C1484 0.931 . S
H1501 C1489 0.929 . S
H1502 C1490 0.960 . S
H1503 C1490 0.962 . S
H1504 C1490 0.960 . S
H1505 C1491 0.961 . S
H1506 C1491 0.961 . S
H1507 C1491 0.961 . S
H1508 C1492 0.931 . S
H1509 C1497 0.930 . S
H1510 C1498 0.956 . S
H1511 C1498 0.961 . S
H1512 C1498 0.961 . S
H1513 C1499 0.958 . S
H1514 C1499 0.961 . S
H1515 C1499 0.960 . S
C1516 C1517 1.391 . S
C1516 C1518 1.394 . S
C1516 H1532 0.931 . S
C1517 C1516 1.391 . S
C1517 C1521 1.376 . S
C1518 C1516 1.394 . S
C1518 C1519 1.369 . S
C1518 C1522 1.531 1_455 S
C1519 C1518 1.369 . S
C1519 C1520 1.410 . S
C1519 C1527 1.503 1_455 S
C1520 C1519 1.410 . S
C1520 C1521 1.392 . S
C1520 C1523 1.511 . S
C1521 C1517 1.376 . S
C1521 C1520 1.392 . S
C1521 H1533 0.929 . S
C1522 C1518 1.531 1_655 S
C1522 H1534 0.960 . S
C1522 H1535 0.962 . S
C1522 H1536 0.960 . S
C1523 C1520 1.511 . S
C1523 H1537 0.961 . S
C1523 H1538 0.961 . S
C1523 H1539 0.961 . S
C1524 C1525 1.370 . S
C1524 C1526 1.363 . S
C1524 H1540 0.931 . S
C1525 C1524 1.370 . S
C1525 C1529 1.408 . S
C1526 C1524 1.363 . S
C1526 C1527 1.370 . S
C1526 C1530 1.524 . S
C1527 C1519 1.503 1_655 S
C1527 C1526 1.370 . S
C1527 C1528 1.403 . S
C1528 C1527 1.403 . S
C1528 C1529 1.404 . S
C1528 C1531 1.539 . S
C1529 C1525 1.408 . S
C1529 C1528 1.404 . S
C1529 H1541 0.930 . S
C1530 C1526 1.524 . S
C1530 H1542 0.956 . S
C1530 H1543 0.961 1_655 S
C1530 H1544 0.961 . S
C1531 C1528 1.539 . S
C1531 H1545 0.958 . S
C1531 H1546 0.961 . S
C1531 H1547 0.960 1_655 S
H1532 C1516 0.931 . S
H1533 C1521 0.929 . S
H1534 C1522 0.960 . S
H1535 C1522 0.962 . S
H1536 C1522 0.960 . S
H1537 C1523 0.961 . S
H1538 C1523 0.961 . S
H1539 C1523 0.961 . S
H1540 C1524 0.931 . S
H1541 C1529 0.930 . S
H1542 C1530 0.956 . S
H1543 C1530 0.961 1_455 S
H1544 C1530 0.961 . S
H1545 C1531 0.958 . S
H1546 C1531 0.961 . S
H1547 C1531 0.960 1_455 S
C1548 C1549 1.391 . S
C1548 C1550 1.394 . S
C1548 H1564 0.931 . S
C1549 C1548 1.391 . S
C1549 C1553 1.376 . S
C1550 C1548 1.394 . S
C1550 C1551 1.369 . S
C1550 C1554 1.531 . S
C1551 C1550 1.369 . S
C1551 C1552 1.410 . S
C1551 C1559 1.503 1_554 S
C1552 C1551 1.410 . S
C1552 C1553 1.392 . S
C1552 C1555 1.511 . S
C1553 C1549 1.376 . S
C1553 C1552 1.392 . S
C1553 H1565 0.929 . S
C1554 C1550 1.531 . S
C1554 H1566 0.960 . S
C1554 H1567 0.962 . S
C1554 H1568 0.960 . S
C1555 C1552 1.511 . S
C1555 H1569 0.961 . S
C1555 H1570 0.961 1_554 S
C1555 H1571 0.961 . S
C1556 C1557 1.370 . S
C1556 C1558 1.363 . S
C1556 H1572 0.931 . S
C1557 C1556 1.370 . S
C1557 C1561 1.408 . S
C1558 C1556 1.363 . S
C1558 C1559 1.370 . S
C1558 C1562 1.524 . S
C1559 C1551 1.503 1_556 S
C1559 C1558 1.370 . S
C1559 C1560 1.403 1_556 S
C1560 C1559 1.403 1_554 S
C1560 C1561 1.404 1_554 S
C1560 C1563 1.539 . S
C1561 C1557 1.408 . S
C1561 C1560 1.404 1_556 S
C1561 H1573 0.930 . S
C1562 C1558 1.524 . S
C1562 H1574 0.956 . S
C1562 H1575 0.961 . S
C1562 H1576 0.961 . S
C1563 C1560 1.539 . S
C1563 H1577 0.958 . S
C1563 H1578 0.961 . S
C1563 H1579 0.960 . S
H1564 C1548 0.931 . S
H1565 C1553 0.929 . S
H1566 C1554 0.960 . S
H1567 C1554 0.962 . S
H1568 C1554 0.960 . S
H1569 C1555 0.961 . S
H1570 C1555 0.961 1_556 S
H1571 C1555 0.961 . S
H1572 C1556 0.931 . S
H1573 C1561 0.930 . S
H1574 C1562 0.956 . S
H1575 C1562 0.961 . S
H1576 C1562 0.961 . S
H1577 C1563 0.958 . S
H1578 C1563 0.961 . S
H1579 C1563 0.960 . S
C1580 C1581 1.391 . S
C1580 C1582 1.394 . S
C1580 H1596 0.931 . S
C1581 C1580 1.391 . S
C1581 C1585 1.376 . S
C1582 C1580 1.394 . S
C1582 C1583 1.369 . S
C1582 C1586 1.531 1_545 S
C1583 C1582 1.369 . S
C1583 C1584 1.410 . S
C1583 C1591 1.503 1_546 S
C1584 C1583 1.410 . S
C1584 C1585 1.392 . S
C1584 C1587 1.511 1_556 S
C1585 C1581 1.376 . S
C1585 C1584 1.392 . S
C1585 H1597 0.929 . S
C1586 C1582 1.531 1_565 S
C1586 H1598 0.960 . S
C1586 H1599 0.962 . S
C1586 H1600 0.960 . S
C1587 C1584 1.511 1_554 S
C1587 H1601 0.961 . S
C1587 H1602 0.961 . S
C1587 H1603 0.961 1_554 S
C1588 C1589 1.370 . S
C1588 C1590 1.363 . S
C1588 H1604 0.931 . S
C1589 C1588 1.370 . S
C1589 C1593 1.408 . S
C1590 C1588 1.363 . S
C1590 C1591 1.370 . S
C1590 C1594 1.524 1_565 S
C1591 C1583 1.503 1_564 S
C1591 C1590 1.370 . S
C1591 C1592 1.403 1_554 S
C1592 C1591 1.403 1_556 S
C1592 C1593 1.404 1_556 S
C1592 C1595 1.539 . S
C1593 C1589 1.408 . S
C1593 C1592 1.404 1_554 S
C1593 H1605 0.930 . S
C1594 C1590 1.524 1_545 S
C1594 H1606 0.956 . S
C1594 H1607 0.961 . S
C1594 H1608 0.961 . S
C1595 C1592 1.539 . S
C1595 H1609 0.958 . S
C1595 H1610 0.961 . S
C1595 H1611 0.960 . S
H1596 C1580 0.931 . S
H1597 C1585 0.929 . S
H1598 C1586 0.960 . S
H1599 C1586 0.962 . S
H1600 C1586 0.960 . S
H1601 C1587 0.961 . S
H1602 C1587 0.961 . S
H1603 C1587 0.961 1_556 S
H1604 C1588 0.931 . S
H1605 C1593 0.930 . S
H1606 C1594 0.956 . S
H1607 C1594 0.961 . S
H1608 C1594 0.961 . S
H1609 C1595 0.958 . S
H1610 C1595 0.961 . S
H1611 C1595 0.960 . S
C1612 C1613 1.391 . S
C1612 C1614 1.394 . S
C1612 H1628 0.931 . S
C1613 C1612 1.391 . S
C1613 C1617 1.376 . S
C1614 C1612 1.394 . S
C1614 C1615 1.369 . S
C1614 C1618 1.531 . S
C1615 C1614 1.369 . S
C1615 C1616 1.410 . S
C1615 C1623 1.503 1_656 S
C1616 C1615 1.410 . S
C1616 C1617 1.392 . S
C1616 C1619 1.511 . S
C1617 C1613 1.376 . S
C1617 C1616 1.392 . S
C1617 H1629 0.929 . S
C1618 C1614 1.531 . S
C1618 H1630 0.960 1_655 S
C1618 H1631 0.962 1_556 S
C1618 H1632 0.960 . S
C1619 C1616 1.511 . S
C1619 H1633 0.961 . S
C1619 H1634 0.961 1_655 S
C1619 H1635 0.961 1_655 S
C1620 C1621 1.370 . S
C1620 C1622 1.363 . S
C1620 H1636 0.931 . S
C1621 C1620 1.370 . S
C1621 C1625 1.408 . S
C1622 C1620 1.363 . S
C1622 C1623 1.370 . S
C1622 C1626 1.524 1_455 S
C1623 C1615 1.503 1_454 S
C1623 C1622 1.370 . S
C1623 C1624 1.403 1_554 S
C1624 C1623 1.403 1_556 S
C1624 C1625 1.404 1_556 S
C1624 C1627 1.539 . S
C1625 C1621 1.408 . S
C1625 C1624 1.404 1_554 S
C1625 H1637 0.930 . S
C1626 C1622 1.524 1_655 S
C1626 H1638 0.956 . S
C1626 H1639 0.961 . S
C1626 H1640 0.961 . S
C1627 C1624 1.539 . S
C1627 H1641 0.958 . S
C1627 H1642 0.961 . S
C1627 H1643 0.960 . S
H1628 C1612 0.931 . S
H1629 C1617 0.929 . S
H1630 C1618 0.960 1_455 S
H1631 C1618 0.962 1_554 S
H1632 C1618 0.960 . S
H1633 C1619 0.961 . S
H1634 C1619 0.961 1_455 S
H1635 C1619 0.961 1_455 S
H1636 C1620 0.931 . S
H1637 C1625 0.930 . S
H1638 C1626 0.956 . S
H1639 C1626 0.961 . S
H1640 C1626 0.961 . S
H1641 C1627 0.958 . S
H1642 C1627 0.961 . S
H1643 C1627 0.960 . S
C1644 C1645 1.391 . S
C1644 C1646 1.402 . S
C1644 H1660 0.931 . S
C1645 C1644 1.391 . S
C1645 C1649 1.376 . S
C1646 C1644 1.402 . S
C1646 C1647 1.375 . S
C1646 C1650 1.515 1_554 S
C1647 C1646 1.375 . S
C1647 C1648 1.410 . S
C1647 C1655 1.503 1_554 S
C1648 C1647 1.410 . S
C1648 C1649 1.392 . S
C1648 C1651 1.511 . S
C1649 C1645 1.376 . S
C1649 C1648 1.392 . S
C1649 H1661 0.929 . S
C1650 C1646 1.515 1_556 S
C1650 H1662 0.960 . S
C1650 H1663 0.962 . S
C1650 H1664 0.960 . S
C1651 C1648 1.511 . S
C1651 H1665 0.961 . S
C1651 H1666 0.961 . S
C1651 H1667 0.961 . S
C1652 C1653 1.370 . S
C1652 C1654 1.363 . S
C1652 H1668 0.931 . S
C1653 C1652 1.370 . S
C1653 C1657 1.408 . S
C1654 C1652 1.363 . S
C1654 C1655 1.370 . S
C1654 C1658 1.524 . S
C1655 C1647 1.503 1_556 S
C1655 C1654 1.370 . S
C1655 C1656 1.403 . S
C1656 C1655 1.403 . S
C1656 C1657 1.404 . S
C1656 C1659 1.539 1_556 S
C1657 C1653 1.408 . S
C1657 C1656 1.404 . S
C1657 H1669 0.930 . S
C1658 C1654 1.524 . S
C1658 H1670 0.956 . S
C1658 H1671 0.961 . S
C1658 H1672 0.961 . S
C1659 C1656 1.539 1_554 S
C1659 H1673 0.958 . S
C1659 H1674 0.961 . S
C1659 H1675 0.960 . S
H1660 C1644 0.931 . S
H1661 C1649 0.929 . S
H1662 C1650 0.960 . S
H1663 C1650 0.962 . S
H1664 C1650 0.960 . S
H1665 C1651 0.961 . S
H1666 C1651 0.961 . S
H1667 C1651 0.961 . S
H1668 C1652 0.931 . S
H1669 C1657 0.930 . S
H1670 C1658 0.956 . S
H1671 C1658 0.961 . S
H1672 C1658 0.961 . S
H1673 C1659 0.958 . S
H1674 C1659 0.961 . S
H1675 C1659 0.960 . S
C1676 C1677 1.391 . S
C1676 C1678 1.392 1_554 S
C1676 H1692 0.931 . S
C1677 C1676 1.391 . S
C1677 C1681 1.376 . S
C1678 C1676 1.392 1_556 S
C1678 C1679 1.367 1_556 S
C1678 C1682 1.534 . S
C1679 C1678 1.367 1_554 S
C1679 C1680 1.410 . S
C1679 C1687 1.503 1_564 S
C1680 C1679 1.410 . S
C1680 C1681 1.392 . S
C1680 C1683 1.511 1_565 S
C1681 C1677 1.376 . S
C1681 C1680 1.392 . S
C1681 H1693 0.929 . S
C1682 C1678 1.534 . S
C1682 H1694 0.960 . S
C1682 H1695 0.962 . S
C1682 H1696 0.960 . S
C1683 C1680 1.511 1_545 S
C1683 H1697 0.961 . S
C1683 H1698 0.961 . S
C1683 H1699 0.961 . S
C1684 C1685 1.370 . S
C1684 C1686 1.363 . S
C1684 H1700 0.931 . S
C1685 C1684 1.370 . S
C1685 C1689 1.408 . S
C1686 C1684 1.363 . S
C1686 C1687 1.370 . S
C1686 C1690 1.524 1_545 S
C1687 C1679 1.503 1_546 S
C1687 C1686 1.370 . S
C1687 C1688 1.403 . S
C1688 C1687 1.403 . S
C1688 C1689 1.404 . S
C1688 C1691 1.539 1_556 S
C1689 C1685 1.408 . S
C1689 C1688 1.404 . S
C1689 H1701 0.930 . S
C1690 C1686 1.524 1_565 S
C1690 H1702 0.956 . S
C1690 H1703 0.961 . S
C1690 H1704 0.961 1_565 S
C1691 C1688 1.539 1_554 S
C1691 H1705 0.958 . S
C1691 H1706 0.961 . S
C1691 H1707 0.960 . S
H1692 C1676 0.931 . S
H1693 C1681 0.929 . S
H1694 C1682 0.960 . S
H1695 C1682 0.962 . S
H1696 C1682 0.960 . S
H1697 C1683 0.961 . S
H1698 C1683 0.961 . S
H1699 C1683 0.961 . S
H1700 C1684 0.931 . S
H1701 C1689 0.930 . S
H1702 C1690 0.956 . S
H1703 C1690 0.961 . S
H1704 C1690 0.961 1_545 S
H1705 C1691 0.958 . S
H1706 C1691 0.961 . S
H1707 C1691 0.960 . S
C1708 C1709 1.391 . S
C1708 C1710 1.394 . S
C1708 H1724 0.931 . S
C1709 C1708 1.391 . S
C1709 C1713 1.376 . S
C1710 C1708 1.394 . S
C1710 C1711 1.369 . S
C1710 C1714 1.531 . S
C1711 C1710 1.369 . S
C1711 C1712 1.410 . S
C1711 C1719 1.503 1_656 S
C1712 C1711 1.410 . S
C1712 C1713 1.392 . S
C1712 C1715 1.511 1_556 S
C1713 C1709 1.376 . S
C1713 C1712 1.392 . S
C1713 H1725 0.929 . S
C1714 C1710 1.531 . S
C1714 H1726 0.960 1_656 S
C1714 H1727 0.962 1_655 S
C1714 H1728 0.960 . S
C1715 C1712 1.511 1_554 S
C1715 H1729 0.966 . S
C1715 H1730 0.961 . S
C1715 H1731 0.961 . S
C1716 C1717 1.370 . S
C1716 C1718 1.363 1_554 S
C1716 H1732 0.954 . S
C1717 C1716 1.370 . S
C1717 C1721 1.408 . S
C1718 C1716 1.363 1_556 S
C1718 C1719 1.370 1_556 S
C1718 C1722 1.524 . S
C1719 C1711 1.503 1_454 S
C1719 C1718 1.370 1_554 S
C1719 C1720 1.403 . S
C1720 C1719 1.403 . S
C1720 C1721 1.404 . S
C1720 C1723 1.539 1_455 S
C1721 C1717 1.408 . S
C1721 C1720 1.404 . S
C1721 H1733 0.930 . S
C1722 C1718 1.524 . S
C1722 H1734 0.956 . S
C1722 H1735 0.961 . S
C1722 H1736 0.961 . S
C1723 C1720 1.539 1_655 S
C1723 H1737 0.958 . S
C1723 H1738 0.961 . S
C1723 H1739 0.960 . S
H1724 C1708 0.931 . S
H1725 C1713 0.929 . S
H1726 C1714 0.960 1_454 S
H1727 C1714 0.962 1_455 S
H1728 C1714 0.960 . S
H1729 C1715 0.966 . S
H1730 C1715 0.961 . S
H1731 C1715 0.961 . S
H1732 C1716 0.954 . S
H1733 C1721 0.930 . S
H1734 C1722 0.956 . S
H1735 C1722 0.961 . S
H1736 C1722 0.961 . S
H1737 C1723 0.958 . S
H1738 C1723 0.961 . S
H1739 C1723 0.960 . S
C1740 C1741 1.391 . S
C1740 C1742 1.394 . S
C1740 H1756 0.931 . S
C1741 C1740 1.391 . S
C1741 C1745 1.376 . S
C1742 C1740 1.394 . S
C1742 C1743 1.369 . S
C1742 C1746 1.531 . S
C1743 C1742 1.369 . S
C1743 C1744 1.410 . S
C1743 C1751 1.503 . S
C1744 C1743 1.410 . S
C1744 C1745 1.392 . S
C1744 C1747 1.511 . S
C1745 C1741 1.376 . S
C1745 C1744 1.392 . S
C1745 H1757 0.929 . S
C1746 C1742 1.531 . S
C1746 H1758 0.960 1_655 S
C1746 H1759 0.962 . S
C1746 H1760 0.960 . S
C1747 C1744 1.511 . S
C1747 H1761 0.961 . S
C1747 H1762 0.961 . S
C1747 H1763 0.961 . S
C1748 C1749 1.370 . S
C1748 C1750 1.363 . S
C1748 H1764 0.931 . S
C1749 C1748 1.370 . S
C1749 C1753 1.408 1_655 S
C1750 C1748 1.363 . S
C1750 C1751 1.370 . S
C1750 C1754 1.524 . S
C1751 C1743 1.503 . S
C1751 C1750 1.370 . S
C1751 C1752 1.409 . S
C1752 C1751 1.409 . S
C1752 C1753 1.399 1_655 S
C1752 C1755 1.537 1_655 S
C1753 C1749 1.408 1_455 S
C1753 C1752 1.399 1_455 S
C1753 H1765 0.930 . S
C1754 C1750 1.524 . S
C1754 H1766 0.956 . S
C1754 H1767 0.961 . S
C1754 H1768 0.961 . S
C1755 C1752 1.537 1_455 S
C1755 H1769 0.958 . S
C1755 H1770 0.961 . S
C1755 H1771 0.960 . S
H1756 C1740 0.931 . S
H1757 C1745 0.929 . S
H1758 C1746 0.960 1_455 S
H1759 C1746 0.962 . S
H1760 C1746 0.960 . S
H1761 C1747 0.961 . S
H1762 C1747 0.961 . S
H1763 C1747 0.961 . S
H1764 C1748 0.931 . S
H1765 C1753 0.930 . S
H1766 C1754 0.956 . S
H1767 C1754 0.961 . S
H1768 C1754 0.961 . S
H1769 C1755 0.958 . S
H1770 C1755 0.961 . S
H1771 C1755 0.960 . S
C1772 C1773 1.391 . S
C1772 C1774 1.394 . S
C1772 H1788 0.931 . S
C1773 C1772 1.391 . S
C1773 C1777 1.376 . S
C1774 C1772 1.394 . S
C1774 C1775 1.369 . S
C1774 C1778 1.531 . S
C1775 C1774 1.369 . S
C1775 C1776 1.410 . S
C1775 C1783 1.503 . S
C1776 C1775 1.410 . S
C1776 C1777 1.392 . S
C1776 C1779 1.511 . S
C1777 C1773 1.376 . S
C1777 C1776 1.392 . S
C1777 H1789 0.929 . S
C1778 C1774 1.531 . S
C1778 H1790 0.960 . S
C1778 H1791 0.962 . S
C1778 H1792 0.960 . S
C1779 C1776 1.511 . S
C1779 H1793 0.961 . S
C1779 H1794 0.961 . S
C1779 H1795 0.961 . S
C1780 C1781 1.370 . S
C1780 C1782 1.363 . S
C1780 H1796 0.931 . S
C1781 C1780 1.370 . S
C1781 C1785 1.408 . S
C1782 C1780 1.363 . S
C1782 C1783 1.370 . S
C1782 C1786 1.524 . S
C1783 C1775 1.503 . S
C1783 C1782 1.370 . S
C1783 C1784 1.403 . S
C1784 C1783 1.403 . S
C1784 C1785 1.404 . S
C1784 C1787 1.539 . S
C1785 C1781 1.408 . S
C1785 C1784 1.404 . S
C1785 H1797 0.930 . S
C1786 C1782 1.524 . S
C1786 H1798 0.956 . S
C1786 H1799 0.961 . S
C1786 H1800 0.961 . S
C1787 C1784 1.539 . S
C1787 H1801 0.958 . S
C1787 H1802 0.961 . S
C1787 H1803 0.960 . S
H1788 C1772 0.931 . S
H1789 C1777 0.929 . S
H1790 C1778 0.960 . S
H1791 C1778 0.962 . S
H1792 C1778 0.960 . S
H1793 C1779 0.961 . S
H1794 C1779 0.961 . S
H1795 C1779 0.961 . S
H1796 C1780 0.931 . S
H1797 C1785 0.930 . S
H1798 C1786 0.956 . S
H1799 C1786 0.961 . S
H1800 C1786 0.961 . S
H1801 C1787 0.958 . S
H1802 C1787 0.961 . S
H1803 C1787 0.960 . S
C1804 C1805 1.391 . S
C1804 C1806 1.394 . S
C1804 H1820 0.931 . S
C1805 C1804 1.391 . S
C1805 C1809 1.376 1_545 S
C1806 C1804 1.394 . S
C1806 C1807 1.369 . S
C1806 C1810 1.531 . S
C1807 C1806 1.369 . S
C1807 C1808 1.410 . S
C1807 C1815 1.503 . S
C1808 C1807 1.410 . S
C1808 C1809 1.392 1_545 S
C1808 C1811 1.511 . S
C1809 C1805 1.376 1_565 S
C1809 C1808 1.392 1_565 S
C1809 H1821 0.929 . S
C1810 C1806 1.531 . S
C1810 H1822 0.960 . S
C1810 H1823 0.962 . S
C1810 H1824 0.960 . S
C1811 C1808 1.511 . S
C1811 H1825 0.961 1_545 S
C1811 H1826 0.961 . S
C1811 H1827 0.961 1_545 S
C1812 C1813 1.370 . S
C1812 C1814 1.363 . S
C1812 H1828 0.931 . S
C1813 C1812 1.370 . S
C1813 C1817 1.408 . S
C1814 C1812 1.363 . S
C1814 C1815 1.370 . S
C1814 C1818 1.524 . S
C1815 C1807 1.503 . S
C1815 C1814 1.370 . S
C1815 C1816 1.403 . S
C1816 C1815 1.403 . S
C1816 C1817 1.404 . S
C1816 C1819 1.539 1_545 S
C1817 C1813 1.408 . S
C1817 C1816 1.404 . S
C1817 H1829 0.930 . S
C1818 C1814 1.524 . S
C1818 H1830 0.956 . S
C1818 H1831 0.961 . S
C1818 H1832 0.961 . S
C1819 C1816 1.539 1_565 S
C1819 H1833 0.958 . S
C1819 H1834 0.961 . S
C1819 H1835 0.960 . S
H1820 C1804 0.931 . S
H1821 C1809 0.929 . S
H1822 C1810 0.960 . S
H1823 C1810 0.962 . S
H1824 C1810 0.960 . S
H1825 C1811 0.961 1_565 S
H1826 C1811 0.961 . S
H1827 C1811 0.961 1_565 S
H1828 C1812 0.931 . S
H1829 C1817 0.930 . S
H1830 C1818 0.956 . S
H1831 C1818 0.961 . S
H1832 C1818 0.961 . S
H1833 C1819 0.958 . S
H1834 C1819 0.961 . S
H1835 C1819 0.960 . S
C1836 C1837 1.391 . S
C1836 C1838 1.394 . S
C1836 H1852 0.931 . S
C1837 C1836 1.391 . S
C1837 C1841 1.376 . S
C1838 C1836 1.394 . S
C1838 C1839 1.369 . S
C1838 C1842 1.531 . S
C1839 C1838 1.369 . S
C1839 C1840 1.410 . S
C1839 C1847 1.503 . S
C1840 C1839 1.410 . S
C1840 C1841 1.392 . S
C1840 C1843 1.511 . S
C1841 C1837 1.376 . S
C1841 C1840 1.392 . S
C1841 H1853 0.929 . S
C1842 C1838 1.531 . S
C1842 H1854 0.960 . S
C1842 H1855 0.962 . S
C1842 H1856 0.960 . S
C1843 C1840 1.511 . S
C1843 H1857 0.961 . S
C1843 H1858 0.961 . S
C1843 H1859 0.961 . S
C1844 C1845 1.370 1_565 S
C1844 C1846 1.363 1_565 S
C1844 H1860 0.931 . S
C1845 C1844 1.370 1_545 S
C1845 C1849 1.408 . S
C1846 C1844 1.363 1_545 S
C1846 C1847 1.370 . S
C1846 C1850 1.524 1_545 S
C1847 C1839 1.503 . S
C1847 C1846 1.370 . S
C1847 C1848 1.403 . S
C1848 C1847 1.403 . S
C1848 C1849 1.404 . S
C1848 C1851 1.539 . S
C1849 C1845 1.408 . S
C1849 C1848 1.404 . S
C1849 H1861 0.930 . S
C1850 C1846 1.524 1_565 S
C1850 H1862 0.956 . S
C1850 H1863 0.961 . S
C1850 H1864 0.961 . S
C1851 C1848 1.539 . S
C1851 H1865 0.958 . S
C1851 H1866 0.961 . S
C1851 H1867 0.960 . S
H1852 C1836 0.931 . S
H1853 C1841 0.929 . S
H1854 C1842 0.960 . S
H1855 C1842 0.962 . S
H1856 C1842 0.960 . S
H1857 C1843 0.961 . S
H1858 C1843 0.961 . S
H1859 C1843 0.961 . S
H1860 C1844 0.931 . S
H1861 C1849 0.930 . S
H1862 C1850 0.956 . S
H1863 C1850 0.961 . S
H1864 C1850 0.961 . S
H1865 C1851 0.958 . S
H1866 C1851 0.961 . S
H1867 C1851 0.960 . S
C1868 C1869 1.391 1_455 S
C1868 C1870 1.394 1_455 S
C1868 H1884 0.931 . S
C1869 C1868 1.391 1_655 S
C1869 C1873 1.376 . S
C1870 C1868 1.394 1_655 S
C1870 C1871 1.369 . S
C1870 C1874 1.531 1_655 S
C1871 C1870 1.369 . S
C1871 C1872 1.410 . S
C1871 C1879 1.503 . S
C1872 C1871 1.410 . S
C1872 C1873 1.392 . S
C1872 C1875 1.511 . S
C1873 C1869 1.376 . S
C1873 C1872 1.392 . S
C1873 H1885 0.929 . S
C1874 C1870 1.531 1_455 S
C1874 H1886 0.960 . S
C1874 H1887 0.962 . S
C1874 H1888 0.960 . S
C1875 C1872 1.511 . S
C1875 H1889 0.961 . S
C1875 H1890 0.961 . S
C1875 H1891 0.961 . S
C1876 C1877 1.370 . S
C1876 C1878 1.363 . S
C1876 H1892 0.931 . S
C1877 C1876 1.370 . S
C1877 C1881 1.408 . S
C1878 C1876 1.363 . S
C1878 C1879 1.370 . S
C1878 C1882 1.524 . S
C1879 C1871 1.503 . S
C1879 C1878 1.370 . S
C1879 C1880 1.403 . S
C1880 C1879 1.403 . S
C1880 C1881 1.404 . S
C1880 C1883 1.539 . S
C1881 C1877 1.408 . S
C1881 C1880 1.404 . S
C1881 H1893 0.930 . S
C1882 C1878 1.524 . S
C1882 H1894 0.956 . S
C1882 H1895 0.961 . S
C1882 H1896 0.961 . S
C1883 C1880 1.539 . S
C1883 H1897 0.958 . S
C1883 H1898 0.961 . S
C1883 H1899 0.960 . S
H1884 C1868 0.931 . S
H1885 C1873 0.929 . S
H1886 C1874 0.960 . S
H1887 C1874 0.962 . S
H1888 C1874 0.960 . S
H1889 C1875 0.961 . S
H1890 C1875 0.961 . S
H1891 C1875 0.961 . S
H1892 C1876 0.931 . S
H1893 C1881 0.930 . S
H1894 C1882 0.956 . S
H1895 C1882 0.961 . S
H1896 C1882 0.961 . S
H1897 C1883 0.958 . S
H1898 C1883 0.961 . S
H1899 C1883 0.960 . S
C1900 C1901 1.391 . S
C1900 C1902 1.394 . S
C1900 H1916 0.931 . S
C1901 C1900 1.391 . S
C1901 C1905 1.376 . S
C1902 C1900 1.394 . S
C1902 C1903 1.369 . S
C1902 C1906 1.531 . S
C1903 C1902 1.369 . S
C1903 C1904 1.410 . S
C1903 C1911 1.503 . S
C1904 C1903 1.410 . S
C1904 C1905 1.392 . S
C1904 C1907 1.511 . S
C1905 C1901 1.376 . S
C1905 C1904 1.392 . S
C1905 H1917 0.929 . S
C1906 C1902 1.531 . S
C1906 H1918 0.960 . S
C1906 H1919 0.962 . S
C1906 H1920 0.960 . S
C1907 C1904 1.511 . S
C1907 H1921 0.961 . S
C1907 H1922 0.961 . S
C1907 H1923 0.961 . S
C1908 C1909 1.370 . S
C1908 C1910 1.363 . S
C1908 H1924 0.931 . S
C1909 C1908 1.370 . S
C1909 C1913 1.408 . S
C1910 C1908 1.363 . S
C1910 C1911 1.370 . S
C1910 C1914 1.524 . S
C1911 C1903 1.503 . S
C1911 C1910 1.370 . S
C1911 C1912 1.403 . S
C1912 C1911 1.403 . S
C1912 C1913 1.404 . S
C1912 C1915 1.539 . S
C1913 C1909 1.408 . S
C1913 C1912 1.404 . S
C1913 H1925 0.930 . S
C1914 C1910 1.524 . S
C1914 H1926 0.956 . S
C1914 H1927 0.961 . S
C1914 H1928 0.961 . S
C1915 C1912 1.539 . S
C1915 H1929 0.958 . S
C1915 H1930 0.961 . S
C1915 H1931 0.960 . S
H1916 C1900 0.931 . S
H1917 C1905 0.929 . S
H1918 C1906 0.960 . S
H1919 C1906 0.962 . S
H1920 C1906 0.960 . S
H1921 C1907 0.961 . S
H1922 C1907 0.961 . S
H1923 C1907 0.961 . S
H1924 C1908 0.931 . S
H1925 C1913 0.930 . S
H1926 C1914 0.956 . S
H1927 C1914 0.961 . S
H1928 C1914 0.961 . S
H1929 C1915 0.958 . S
H1930 C1915 0.961 . S
H1931 C1915 0.960 . S
C1932 C1933 1.391 . S
C1932 C1934 1.394 . S
C1932 H1948 0.931 . S
C1933 C1932 1.391 . S
C1933 C1937 1.376 . S
C1934 C1932 1.394 . S
C1934 C1935 1.369 . S
C1934 C1938 1.531 . S
C1935 C1934 1.369 . S
C1935 C1936 1.410 . S
C1935 C1943 1.503 . S
C1936 C1935 1.410 . S
C1936 C1937 1.392 . S
C1936 C1939 1.511 1_565 S
C1937 C1933 1.376 . S
C1937 C1936 1.392 . S
C1937 H1949 0.929 . S
C1938 C1934 1.531 . S
C1938 H1950 0.960 . S
C1938 H1951 0.962 . S
C1938 H1952 0.960 . S
C1939 C1936 1.511 1_545 S
C1939 H1953 0.961 . S
C1939 H1954 0.961 . S
C1939 H1955 0.961 . S
C1940 C1941 1.370 . S
C1940 C1942 1.363 . S
C1940 H1956 0.931 . S
C1941 C1940 1.370 . S
C1941 C1945 1.408 . S
C1942 C1940 1.363 . S
C1942 C1943 1.370 . S
C1942 C1946 1.524 . S
C1943 C1935 1.503 . S
C1943 C1942 1.370 . S
C1943 C1944 1.403 . S
C1944 C1943 1.403 . S
C1944 C1945 1.404 . S
C1944 C1947 1.539 . S
C1945 C1941 1.408 . S
C1945 C1944 1.404 . S
C1945 H1957 0.930 . S
C1946 C1942 1.524 . S
C1946 H1958 0.956 . S
C1946 H1959 0.961 . S
C1946 H1960 0.961 . S
C1947 C1944 1.539 . S
C1947 H1961 0.958 . S
C1947 H1962 0.961 . S
C1947 H1963 0.960 . S
H1948 C1932 0.931 . S
H1949 C1937 0.929 . S
H1950 C1938 0.960 . S
H1951 C1938 0.962 . S
H1952 C1938 0.960 . S
H1953 C1939 0.961 . S
H1954 C1939 0.961 . S
H1955 C1939 0.961 . S
H1956 C1940 0.931 . S
H1957 C1945 0.930 . S
H1958 C1946 0.956 . S
H1959 C1946 0.961 . S
H1960 C1946 0.961 . S
H1961 C1947 0.958 . S
H1962 C1947 0.961 . S
H1963 C1947 0.960 . S
C1964 C1965 1.391 . S
C1964 C1966 1.394 . S
C1964 H1980 0.931 . S
C1965 C1964 1.391 . S
C1965 C1969 1.376 . S
C1966 C1964 1.394 . S
C1966 C1967 1.369 . S
C1966 C1970 1.531 . S
C1967 C1966 1.369 . S
C1967 C1968 1.410 . S
C1967 C1975 1.503 . S
C1968 C1967 1.410 . S
C1968 C1969 1.392 . S
C1968 C1971 1.511 1_455 S
C1969 C1965 1.376 . S
C1969 C1968 1.392 . S
C1969 H1981 0.929 . S
C1970 C1966 1.531 . S
C1970 H1982 0.960 . S
C1970 H1983 0.962 . S
C1970 H1984 0.960 . S
C1971 C1968 1.511 1_655 S
C1971 H1985 0.961 . S
C1971 H1986 0.961 . S
C1971 H1987 0.961 . S
C1972 C1973 1.370 . S
C1972 C1974 1.363 . S
C1972 H1988 0.931 . S
C1973 C1972 1.370 . S
C1973 C1977 1.408 . S
C1974 C1972 1.363 . S
C1974 C1975 1.370 . S
C1974 C1978 1.524 . S
C1975 C1967 1.503 . S
C1975 C1974 1.370 . S
C1975 C1976 1.403 . S
C1976 C1975 1.403 . S
C1976 C1977 1.404 . S
C1976 C1979 1.539 . S
C1977 C1973 1.408 . S
C1977 C1976 1.404 . S
C1977 H1989 0.930 1_455 S
C1978 C1974 1.524 . S
C1978 H1990 0.956 . S
C1978 H1991 0.961 . S
C1978 H1992 0.961 . S
C1979 C1976 1.539 . S
C1979 H1993 0.958 . S
C1979 H1994 0.961 . S
C1979 H1995 0.960 . S
H1980 C1964 0.931 . S
H1981 C1969 0.929 . S
H1982 C1970 0.960 . S
H1983 C1970 0.962 . S
H1984 C1970 0.960 . S
H1985 C1971 0.961 . S
H1986 C1971 0.961 . S
H1987 C1971 0.961 . S
H1988 C1972 0.931 . S
H1989 C1977 0.930 1_655 S
H1990 C1978 0.956 . S
H1991 C1978 0.961 . S
H1992 C1978 0.961 . S
H1993 C1979 0.958 . S
H1994 C1979 0.961 . S
H1995 C1979 0.960 . S
C1996 C1997 1.391 . S
C1996 C1998 1.394 . S
C1996 H2012 0.931 . S
C1997 C1996 1.391 . S
C1997 C2001 1.376 . S
C1998 C1996 1.394 . S
C1998 C1999 1.369 . S
C1998 C2002 1.531 . S
C1999 C1998 1.369 . S
C1999 C2000 1.410 . S
C1999 C2007 1.503 . S
C2000 C1999 1.410 . S
C2000 C2001 1.392 . S
C2000 C2003 1.511 . S
C2001 C1997 1.376 . S
C2001 C2000 1.392 . S
C2001 H2013 0.929 . S
C2002 C1998 1.531 . S
C2002 H2014 0.960 . S
C2002 H2015 0.962 . S
C2002 H2016 0.960 . S
C2003 C2000 1.511 . S
C2003 H2017 0.961 . S
C2003 H2018 0.961 . S
C2003 H2019 0.961 . S
C2004 C2005 1.370 . S
C2004 C2006 1.363 . S
C2004 H2020 0.931 . S
C2005 C2004 1.370 . S
C2005 C2009 1.408 . S
C2006 C2004 1.363 . S
C2006 C2007 1.370 . S
C2006 C2010 1.524 . S
C2007 C1999 1.503 . S
C2007 C2006 1.370 . S
C2007 C2008 1.403 . S
C2008 C2007 1.403 . S
C2008 C2009 1.404 . S
C2008 C2011 1.539 . S
C2009 C2005 1.408 . S
C2009 C2008 1.404 . S
C2009 H2021 0.930 . S
C2010 C2006 1.524 . S
C2010 H2022 0.956 . S
C2010 H2023 0.961 . S
C2010 H2024 0.961 . S
C2011 C2008 1.539 . S
C2011 H2025 0.958 . S
C2011 H2026 0.961 . S
C2011 H2027 0.960 . S
H2012 C1996 0.931 . S
H2013 C2001 0.929 . S
H2014 C2002 0.960 . S
H2015 C2002 0.962 . S
H2016 C2002 0.960 . S
H2017 C2003 0.961 . S
H2018 C2003 0.961 . S
H2019 C2003 0.961 . S
H2020 C2004 0.931 . S
H2021 C2009 0.930 . S
H2022 C2010 0.956 . S
H2023 C2010 0.961 . S
H2024 C2010 0.961 . S
H2025 C2011 0.958 . S
H2026 C2011 0.961 . S
H2027 C2011 0.960 . S
C2028 C2029 1.391 . S
C2028 C2030 1.394 . S
C2028 H2044 0.931 . S
C2029 C2028 1.391 . S
C2029 C2033 1.376 1_455 S
C2030 C2028 1.394 . S
C2030 C2031 1.369 . S
C2030 C2034 1.531 . S
C2031 C2030 1.369 . S
C2031 C2032 1.410 . S
C2031 C2039 1.503 . S
C2032 C2031 1.410 . S
C2032 C2033 1.392 1_455 S
C2032 C2035 1.511 1_455 S
C2033 C2029 1.376 1_655 S
C2033 C2032 1.392 1_655 S
C2033 H2045 0.929 . S
C2034 C2030 1.531 . S
C2034 H2046 0.960 . S
C2034 H2047 0.962 . S
C2034 H2048 0.960 . S
C2035 C2032 1.511 1_655 S
C2035 H2049 0.961 . S
C2035 H2050 0.961 1_655 S
C2035 H2051 0.961 . S
C2036 C2037 1.370 . S
C2036 C2038 1.363 . S
C2036 H2052 0.931 . S
C2037 C2036 1.370 . S
C2037 C2041 1.408 . S
C2038 C2036 1.363 . S
C2038 C2039 1.370 . S
C2038 C2042 1.524 . S
C2039 C2031 1.503 . S
C2039 C2038 1.370 . S
C2039 C2040 1.403 . S
C2040 C2039 1.403 . S
C2040 C2041 1.404 . S
C2040 C2043 1.539 . S
C2041 C2037 1.408 . S
C2041 C2040 1.404 . S
C2041 H2053 0.930 . S
C2042 C2038 1.524 . S
C2042 H2054 0.956 . S
C2042 H2055 0.961 . S
C2042 H2056 0.961 . S
C2043 C2040 1.539 . S
C2043 H2057 0.958 . S
C2043 H2058 0.961 1_455 S
C2043 H2059 0.960 1_455 S
H2044 C2028 0.931 . S
H2045 C2033 0.929 . S
H2046 C2034 0.960 . S
H2047 C2034 0.962 . S
H2048 C2034 0.960 . S
H2049 C2035 0.961 . S
H2050 C2035 0.961 1_455 S
H2051 C2035 0.961 . S
H2052 C2036 0.931 . S
H2053 C2041 0.930 . S
H2054 C2042 0.956 . S
H2055 C2042 0.961 . S
H2056 C2042 0.961 . S
H2057 C2043 0.958 . S
H2058 C2043 0.961 1_655 S
H2059 C2043 0.960 1_655 S
C2060 C2061 1.391 . S
C2060 C2062 1.394 . S
C2060 H2076 0.931 . S
C2061 C2060 1.391 . S
C2061 C2065 1.376 . S
C2062 C2060 1.394 . S
C2062 C2063 1.369 . S
C2062 C2066 1.531 . S
C2063 C2062 1.369 . S
C2063 C2064 1.410 . S
C2063 C2071 1.503 . S
C2064 C2063 1.410 . S
C2064 C2065 1.392 . S
C2064 C2067 1.511 . S
C2065 C2061 1.376 . S
C2065 C2064 1.392 . S
C2065 H2077 0.929 . S
C2066 C2062 1.531 . S
C2066 H2078 0.960 . S
C2066 H2079 0.962 . S
C2066 H2080 0.960 . S
C2067 C2064 1.511 . S
C2067 H2081 0.961 . S
C2067 H2082 0.961 . S
C2067 H2083 0.961 . S
C2068 C2069 1.370 . S
C2068 C2070 1.363 . S
C2068 H2084 0.931 . S
C2069 C2068 1.370 . S
C2069 C2073 1.408 . S
C2070 C2068 1.363 . S
C2070 C2071 1.370 . S
C2070 C2074 1.524 . S
C2071 C2063 1.503 . S
C2071 C2070 1.370 . S
C2071 C2072 1.403 . S
C2072 C2071 1.403 . S
C2072 C2073 1.404 . S
C2072 C2075 1.539 . S
C2073 C2069 1.408 . S
C2073 C2072 1.404 . S
C2073 H2085 0.930 . S
C2074 C2070 1.524 . S
C2074 H2086 0.956 . S
C2074 H2087 0.961 . S
C2074 H2088 0.961 . S
C2075 C2072 1.539 . S
C2075 H2089 0.958 . S
C2075 H2090 0.961 . S
C2075 H2091 0.960 . S
H2076 C2060 0.931 . S
H2077 C2065 0.929 . S
H2078 C2066 0.960 . S
H2079 C2066 0.962 . S
H2080 C2066 0.960 . S
H2081 C2067 0.961 . S
H2082 C2067 0.961 . S
H2083 C2067 0.961 . S
H2084 C2068 0.931 . S
H2085 C2073 0.930 . S
H2086 C2074 0.956 . S
H2087 C2074 0.961 . S
H2088 C2074 0.961 . S
H2089 C2075 0.958 . S
H2090 C2075 0.961 . S
H2091 C2075 0.960 . S
C2092 C2093 1.391 . S
C2092 C2094 1.394 . S
C2092 H2108 0.931 . S
C2093 C2092 1.391 . S
C2093 C2097 1.376 . S
C2094 C2092 1.394 . S
C2094 C2095 1.369 . S
C2094 C2098 1.531 . S
C2095 C2094 1.369 . S
C2095 C2096 1.410 . S
C2095 C2103 1.503 . S
C2096 C2095 1.410 . S
C2096 C2097 1.392 . S
C2096 C2099 1.511 . S
C2097 C2093 1.376 . S
C2097 C2096 1.392 . S
C2097 H2109 0.929 . S
C2098 C2094 1.531 . S
C2098 H2110 0.960 . S
C2098 H2111 0.962 . S
C2098 H2112 0.960 . S
C2099 C2096 1.511 . S
C2099 H2113 0.961 . S
C2099 H2114 0.961 . S
C2099 H2115 0.961 1_565 S
C2100 C2101 1.370 . S
C2100 C2102 1.363 . S
C2100 H2116 0.931 . S
C2101 C2100 1.370 . S
C2101 C2105 1.408 1_565 S
C2102 C2100 1.363 . S
C2102 C2103 1.370 . S
C2102 C2106 1.524 . S
C2103 C2095 1.503 . S
C2103 C2102 1.370 . S
C2103 C2104 1.420 . S
C2104 C2103 1.420 . S
C2104 C2105 1.405 1_565 S
C2104 C2107 1.520 1_565 S
C2105 C2101 1.408 1_545 S
C2105 C2104 1.405 1_545 S
C2105 H2117 0.930 . S
C2106 C2102 1.524 . S
C2106 H2118 0.956 . S
C2106 H2119 0.961 . S
C2106 H2120 0.961 . S
C2107 C2104 1.520 1_545 S
C2107 H2121 0.958 . S
C2107 H2122 0.961 . S
C2107 H2123 0.960 . S
H2108 C2092 0.931 . S
H2109 C2097 0.929 . S
H2110 C2098 0.960 . S
H2111 C2098 0.962 . S
H2112 C2098 0.960 . S
H2113 C2099 0.961 . S
H2114 C2099 0.961 . S
H2115 C2099 0.961 1_545 S
H2116 C2100 0.931 . S
H2117 C2105 0.930 . S
H2118 C2106 0.956 . S
H2119 C2106 0.961 . S
H2120 C2106 0.961 . S
H2121 C2107 0.958 . S
H2122 C2107 0.961 . S
H2123 C2107 0.960 . S
C397 C59 1.028 . S
C405 C8 1.044 . S
C429 C30 1.022 . S
C437 C21 1.033 . S
C461 C43 1.035 . S
C469 C54 1.046 . S
C493 C84 1.019 . S
C501 C103 1.033 . S
C525 C125 1.058 . S
C533 C98 1.054 . S
C557 C120 1.066 . S
C565 C73 1.058 . S
C589 C191 1.030 . S
C597 C140 1.044 . S
C621 C153 1.028 . S
C629 C172 1.050 . S
C653 C161 1.016 . S
C661 C186 1.045 . S
C685 C235 1.070 . S
C693 C208 1.064 . S
C717 C230 1.059 . S
C725 C257 1.055 . S
C749 C213 1.044 . S
C757 C252 1.056 . S
C781 C274 1.020 . S
C789 C323 1.034 . S
C813 C279 1.029 . S
C821 C294 1.044 . S
C845 C307 1.035 . S
C853 C318 1.046 . S
C877 C359 1.045 . S
C885 C348 1.049 . S
C909 C389 1.057 . S
C917 C370 1.054 . S
C941 C384 1.022 . S
C949 C337 1.036 . S
C973 C18 1.040 . S
C981 C206 1.056 . S
C1005 C40 1.075 . S
C1013 C228 1.055 . S
C1037 C250 1.013 . S
C1045 C52 1.041 . S
C1069 C76 1.085 . S
C1077 C272 1.066 . S
C1101 C304 1.058 . S
C1109 C96 1.062 . S
C1133 C316 1.084 . S
C1141 C118 1.067 . S
C1165 C293 1.170 . S
C1173 C131 1.147 . S
C1197 C81 1.122 . S
C1205 C329 1.122 . S
C1229 C285 1.150 . S
C1237 C109 1.146 . S
C1261 C29 1.108 . S
C1269 C263 1.130 . S
C1293 C65 1.141 . S
C1301 C219 1.143 . S
C1325 C241 1.146 . S
C1333 C7 1.145 . S
C1357 C340 1.015 . S
C1365 C150 1.036 . S
C1389 C164 1.040 . S
C1397 C362 1.056 . S
C1421 C382 1.019 . S
C1429 C184 1.045 . S
C1453 C395 1.129 . S
C1461 C169 1.124 . S
C1485 C197 1.111 . S
C1493 C345 1.118 . S
C1517 C367 1.088 . S
C1525 C139 1.116 . S
C1549 C15 1.352 . S
C1557 C87 1.343 . S
C1581 C95 1.351 . S
C1589 C37 1.344 . S
C1613 C117 1.352 . S
C1621 C51 1.343 . S
C1645 C32 1.239 . S
C1653 C128 1.231 . S
C1677 C62 1.239 . S
C1685 C74 1.231 . S
C1709 C106 1.218 . S
C1717 C10 1.231 . S
C1741 C147 1.350 . S
C1749 C205 1.344 1_655 S
C1773 C227 1.351 . S
C1781 C175 1.343 . S
C1805 C249 1.337 1_545 S
C1813 C183 1.349 . S
C1837 C162 1.236 . S
C1845 C260 1.234 1_545 S
C1869 C216 1.221 1_655 S
C1877 C194 1.232 . S
C1901 C142 1.237 . S
C1909 C238 1.229 . S
C1933 C351 1.335 . S
C1941 C271 1.350 1_565 S
C1965 C373 1.335 . S
C1973 C301 1.349 1_455 S
C1997 C381 1.345 . S
C2005 C315 1.346 . S
C2029 C296 1.217 1_455 S
C2037 C392 1.224 . S
C2061 C326 1.214 . S
C2069 C338 1.229 . S
C2093 C360 1.221 . S
C2101 C282 1.224 1_565 S
