# Generated by pormake.
# Topology etb, (3)-cn, num edge types: 1
# Building blocks:
#     Node 0, Type 0, BuildingBlock: WUSLED_clean_sbu_0, # of connection points: 3
#     Node 1, Type 0, BuildingBlock: WUSLED_clean_sbu_0, # of connection points: 3
#     Node 2, Type 0, BuildingBlock: WUSLED_clean_sbu_0, # of connection points: 3
#     Node 3, Type 0, BuildingBlock: WUSLED_clean_sbu_0, # of connection points: 3
#     Node 4, Type 0, BuildingBlock: WUSLED_clean_sbu_0, # of connection points: 3
#     Node 5, Type 0, BuildingBlock: WUSLED_clean_sbu_0, # of connection points: 3
#     Node 6, Type 0, BuildingBlock: WUSLED_clean_sbu_0, # of connection points: 3
#     Node 7, Type 0, BuildingBlock: WUSLED_clean_sbu_0, # of connection points: 3
#     Node 8, Type 0, BuildingBlock: WUSLED_clean_sbu_0, # of connection points: 3
#     Node 9, Type 0, BuildingBlock: WUSLED_clean_sbu_0, # of connection points: 3
#     Node 10, Type 0, BuildingBlock: WUSLED_clean_sbu_0, # of connection points: 3
#     Node 11, Type 0, BuildingBlock: WUSLED_clean_sbu_0, # of connection points: 3
#     Node 12, Type 0, BuildingBlock: WUSLED_clean_sbu_0, # of connection points: 3
#     Node 13, Type 0, BuildingBlock: WUSLED_clean_sbu_0, # of connection points: 3
#     Node 14, Type 0, BuildingBlock: WUSLED_clean_sbu_0, # of connection points: 3
#     Node 15, Type 0, BuildingBlock: WUSLED_clean_sbu_0, # of connection points: 3
#     Node 16, Type 0, BuildingBlock: WUSLED_clean_sbu_0, # of connection points: 3
#     Node 17, Type 0, BuildingBlock: WUSLED_clean_sbu_0, # of connection points: 3
#     Edge 18, Type (0, 0), BuildingBlock: AJUNOK_clean_linker_0, # of connection points: 2
#     Edge 19, Type (0, 0), BuildingBlock: AJUNOK_clean_linker_0, # of connection points: 2
#     Edge 20, Type (0, 0), BuildingBlock: AJUNOK_clean_linker_0, # of connection points: 2
#     Edge 21, Type (0, 0), BuildingBlock: AJUNOK_clean_linker_0, # of connection points: 2
#     Edge 22, Type (0, 0), BuildingBlock: AJUNOK_clean_linker_0, # of connection points: 2
#     Edge 23, Type (0, 0), BuildingBlock: AJUNOK_clean_linker_0, # of connection points: 2
#     Edge 24, Type (0, 0), BuildingBlock: AJUNOK_clean_linker_0, # of connection points: 2
#     Edge 25, Type (0, 0), BuildingBlock: AJUNOK_clean_linker_0, # of connection points: 2
#     Edge 26, Type (0, 0), BuildingBlock: AJUNOK_clean_linker_0, # of connection points: 2
#     Edge 27, Type (0, 0), BuildingBlock: AJUNOK_clean_linker_0, # of connection points: 2
#     Edge 28, Type (0, 0), BuildingBlock: AJUNOK_clean_linker_0, # of connection points: 2
#     Edge 29, Type (0, 0), BuildingBlock: AJUNOK_clean_linker_0, # of connection points: 2
#     Edge 30, Type (0, 0), BuildingBlock: AJUNOK_clean_linker_0, # of connection points: 2
#     Edge 31, Type (0, 0), BuildingBlock: AJUNOK_clean_linker_0, # of connection points: 2
#     Edge 32, Type (0, 0), BuildingBlock: AJUNOK_clean_linker_0, # of connection points: 2
#     Edge 33, Type (0, 0), BuildingBlock: AJUNOK_clean_linker_0, # of connection points: 2
#     Edge 34, Type (0, 0), BuildingBlock: AJUNOK_clean_linker_0, # of connection points: 2
#     Edge 35, Type (0, 0), BuildingBlock: AJUNOK_clean_linker_0, # of connection points: 2
#     Edge 36, Type (0, 0), BuildingBlock: AJUNOK_clean_linker_0, # of connection points: 2
#     Edge 37, Type (0, 0), BuildingBlock: AJUNOK_clean_linker_0, # of connection points: 2
#     Edge 38, Type (0, 0), BuildingBlock: AJUNOK_clean_linker_0, # of connection points: 2
#     Edge 39, Type (0, 0), BuildingBlock: AJUNOK_clean_linker_0, # of connection points: 2
#     Edge 40, Type (0, 0), BuildingBlock: AJUNOK_clean_linker_0, # of connection points: 2
#     Edge 41, Type (0, 0), BuildingBlock: AJUNOK_clean_linker_0, # of connection points: 2
#     Edge 42, Type (0, 0), BuildingBlock: AJUNOK_clean_linker_0, # of connection points: 2
#     Edge 43, Type (0, 0), BuildingBlock: AJUNOK_clean_linker_0, # of connection points: 2
#     Edge 44, Type (0, 0), BuildingBlock: AJUNOK_clean_linker_0, # of connection points: 2
# Relax obj value: 0.000
# Max RMSD: 0.008
# Mean RMSD: 0.005
data_MOF--net-etb--node1-WUSLED_clean_sbu_0--edge1-AJUNOK_clean_linker_0
_symmetry_space_group_name_H-M    P1
_symmetry_Int_Tables_number       1
_symmetry_cell_setting            triclinic
loop_
_symmetry_equiv_pos_as_xyz
'x, y, z'
_cell_length_a     96.890208
_cell_length_b     96.296428
_cell_length_c     45.731922
_cell_angle_alpha  90.087511
_cell_angle_beta   89.738568
_cell_angle_gamma 118.93068
loop_
_atom_site_label
_atom_site_type_symbol
_atom_site_fract_x
_atom_site_fract_y
_atom_site_fract_z
_atom_type_partial_charge
C0 C 0.47855 1.01997 0.12034 0.0
C1 C 0.46246 1.01064 0.11363 0.0
C2 C 0.4553 1.01076 0.16495 0.0
C3 C 0.45095 1.00609 0.13573 0.0
C4 C 0.47138 1.02034 0.17138 0.0
C5 C 0.48284 0.02483 0.14938 0.0
U6 U 0.4983 0.03503 0.04421 0.0
O7 O 0.52344 0.05102 0.03423 0.0
O8 O 0.51174 0.02666 1.01736 0.0
C9 C 0.5251 0.03996 1.02032 0.0
C10 C 0.49118 0.02418 0.09812 0.0
C11 C 0.53944 0.03868 0.02713 0.0
C12 C 0.55241 0.02326 0.0402 0.0
C13 C 0.53861 0.0244 0.03661 0.0
C14 C 0.56813 0.05071 0.02568 0.0
C15 C 0.56734 0.03634 0.03434 0.0
C16 C 0.55435 0.05184 1.02201 0.0
C17 C 0.4771 0.04748 0.98557 0.0
C18 C 0.4709 0.0437 0.93347 0.0
C19 C 0.47321 0.06699 0.958 0.0
C20 C 0.47666 0.06184 0.98423 0.0
C21 C 0.46993 0.05782 0.93242 0.0
C22 C 0.47437 0.03855 0.95975 0.0
C23 C 0.47878 0.04137 1.01448 0.0
O24 O 0.48779 1.01496 0.07503 0.0
O25 O 0.49971 0.03933 0.0918 0.0
O26 O 0.4896 0.0516 0.03216 0.0
O27 O 0.47779 0.02726 1.01522 0.0
H28 H 0.45878 1.00676 0.09141 0.0
H29 H 0.43865 0.99897 0.12993 0.0
H30 H 0.47513 0.02411 0.19363 0.0
H31 H 0.49516 0.03196 0.15516 0.0
H32 H 0.5514 1.01211 0.0475 0.0
H33 H 0.52731 1.01404 0.04084 0.0
H34 H 0.57941 0.06099 1.02094 0.0
H35 H 0.55534 0.06295 1.01451 0.0
H36 H 0.46844 0.03636 0.91417 0.0
H37 H 0.47294 0.0781 0.95782 0.0
H38 H 0.47861 0.06895 1.00374 0.0
H39 H 0.47451 0.02737 0.95993 0.0
C40 C 0.08012 0.41571 0.96339 0.0
C41 C 0.09133 0.41274 0.94906 0.0
C42 C 0.07075 0.3922 0.91903 0.0
C43 C 0.08669 0.40113 0.92714 0.0
C44 C 0.05957 0.39511 0.93355 0.0
C45 C 0.0642 0.40671 0.95537 0.0
U46 U 0.09624 0.43674 0.03808 0.0
O47 O 0.11178 0.46208 0.04733 0.0
O48 O 0.08772 0.45007 0.06515 0.0
C49 C 0.10079 0.4636 0.06171 0.0
C50 C 0.08482 0.4289 0.98479 0.0
C51 C 0.09904 0.47781 0.05544 0.0
C52 C 0.10599 0.50209 0.02807 0.0
C53 C 0.1065 0.48785 0.03143 0.0
C54 C 0.09023 0.49633 0.07209 0.0
C55 C 0.09808 0.50665 0.04867 0.0
C56 C 0.09076 0.48215 0.07547 0.0
C57 C 0.10875 0.41567 0.09721 0.0
C58 C 0.13052 0.41862 0.12813 0.0
C59 C 0.10364 0.4026 0.14484 0.0
C60 C 0.09815 0.40604 0.11902 0.0
C61 C 0.11988 0.40854 0.14943 0.0
C62 C 0.12503 0.42206 0.10228 0.0
C63 C 0.10274 0.41731 0.06818 0.0
O64 O 0.0759 0.42587 1.00824 0.0
O65 O 0.09994 0.43767 0.99039 0.0
O66 O 0.1128 0.42815 0.05015 0.0
O67 O 0.08868 0.41623 0.06758 0.0
H68 H 0.10374 0.41958 0.95432 0.0
H69 H 0.09566 0.39945 0.91601 0.0
H70 H 0.0472 0.38842 0.92792 0.0
H71 H 0.05531 0.40884 0.9657 0.0
H72 H 0.1119 0.50961 1.00945 0.0
H73 H 0.11297 0.48486 1.01555 0.0
H74 H 0.08409 0.49949 0.08842 0.0
H75 H 0.08502 0.47472 0.09429 0.0
H76 H 0.1431 0.42335 0.13096 0.0
H77 H 0.09514 0.39506 0.16106 0.0
H78 H 0.08554 0.40076 0.1158 0.0
H79 H 0.13357 0.42935 0.08588 0.0
C80 C 0.70058 0.65324 0.11528 0.0
C81 C 0.70662 0.66947 0.10906 0.0
C82 C 0.71332 0.67619 0.1605 0.0
C83 C 0.71296 0.68082 0.13144 0.0
C84 C 0.70781 0.66002 0.16638 0.0
C85 C 0.70146 0.64869 0.14408 0.0
U86 U 0.69618 0.63314 0.03933 0.0
O87 O 0.68639 0.60773 0.02939 0.0
O88 O 0.67489 0.62075 1.01207 0.0
C89 C 0.67415 0.60685 1.01542 0.0
C90 C 0.69232 0.64072 0.09296 0.0
C91 C 0.65837 0.59313 1.02226 0.0
C92 C 0.64189 0.56735 0.04524 0.0
C93 C 0.65659 0.58099 0.0416 0.0
C94 C 0.63034 0.57773 1.01074 0.0
C95 C 0.62859 0.5655 0.02972 0.0
C96 C 0.64503 0.59134 1.00703 0.0
C97 C 0.73032 0.6533 0.98197 0.0
C98 C 0.73154 0.65507 0.92868 0.0
C99 C 0.75483 0.66014 0.95602 0.0
C100 C 0.74628 0.6572 0.98215 0.0
C101 C 0.74766 0.65936 0.92896 0.0
C102 C 0.72296 0.65209 0.95492 0.0
C103 C 0.72222 0.65183 1.01036 0.0
O104 O 0.68708 0.64462 0.06961 0.0
O105 O 0.69841 0.63144 0.08705 0.0
O106 O 0.72096 0.64052 0.02805 0.0
O107 O 0.70958 0.6536 1.01028 0.0
H108 H 0.70614 0.67337 0.08707 0.0
H109 H 0.71715 0.69319 0.12618 0.0
H110 H 0.70827 0.65608 0.18834 0.0
H111 H 0.69692 0.63628 0.14947 0.0
H112 H 0.64095 0.55815 0.06002 0.0
H113 H 0.66661 0.58184 0.0535 0.0
H114 H 0.62046 0.57656 0.99793 0.0
H115 H 0.64604 0.6003 0.99157 0.0
H116 H 0.72557 0.65404 0.90818 0.0
H117 H 0.76722 0.66347 0.95707 0.0
H118 H 0.75228 0.65833 1.00268 0.0
H119 H 0.71065 0.64907 0.95403 0.0
C120 C 0.71497 0.05206 0.95992 0.0
C121 C 0.73106 0.05944 0.96716 0.0
C122 C 0.73831 0.0631 0.91534 0.0
C123 C 0.74263 0.06487 0.94504 0.0
C124 C 0.72218 0.05522 0.9083 0.0
C125 C 0.71067 0.04982 0.93033 0.0
U126 U 0.69549 0.03573 0.03586 0.0
O127 O 0.68163 0.04336 0.06329 0.0
O128 O 0.67045 1.0192 0.04551 0.0
C129 C 0.66845 0.02993 0.05989 0.0
C130 C 0.7024 0.04726 0.98237 0.0
C131 C 0.65395 0.0309 0.05312 0.0
C132 C 0.64048 0.04577 0.03946 0.0
C133 C 0.65447 0.04503 0.04352 0.0
C134 C 0.62522 1.01828 0.05409 0.0
C135 C 0.62568 0.0324 0.04472 0.0
C136 C 0.63917 1.01755 0.05822 0.0
C137 C 0.71673 0.02281 0.09334 0.0
C138 C 0.72046 0.02458 0.14629 0.0
C139 C 0.72126 1.00332 0.11946 0.0
C140 C 0.71853 1.00919 0.09339 0.0
C141 C 0.7223 1.01096 0.14625 0.0
C142 C 0.71766 0.03044 0.12015 0.0
C143 C 0.71525 0.02944 0.06489 0.0
O144 O 0.69421 0.03201 0.9881 0.0
O145 O 0.70572 0.05618 1.00587 0.0
O146 O 0.71591 0.04341 0.06511 0.0
O147 O 0.70468 1.01941 0.04661 0.0
H148 H 0.7347 0.06126 0.98983 0.0
H149 H 0.75495 0.07084 0.95116 0.0
H150 H 0.71844 0.05331 0.88569 0.0
H151 H 0.69835 0.04409 0.9242 0.0
H152 H 0.64124 0.05682 0.03218 0.0
H153 H 0.66566 0.05555 0.03948 0.0
H154 H 0.61407 1.00787 0.05893 0.0
H155 H 0.63842 1.00658 0.06598 0.0
H156 H 0.72123 0.03074 0.16656 0.0
H157 H 0.723 0.99304 0.11852 0.0
H158 H 0.71816 1.00322 0.07306 0.0
H159 H 0.71648 0.04105 0.12093 0.0
C160 C 0.08142 0.6391 0.96091 0.0
C161 C 0.08132 0.65345 0.96586 0.0
C162 C 0.07338 0.65369 0.91521 0.0
C163 C 0.07731 0.66069 0.94317 0.0
C164 C 0.07349 0.6393 0.91056 0.0
C165 C 0.07744 0.6321 0.93315 0.0
U166 U 0.0974 0.63586 0.03719 0.0
O167 O 0.08889 0.61473 0.06558 0.0
O168 O 0.11286 0.62572 0.04745 0.0
C169 C 0.10186 0.61373 0.0622 0.0
C170 C 0.08572 0.63113 0.98391 0.0
C171 C 0.09993 0.59771 0.05612 0.0
C172 C 0.10639 0.57988 0.02844 0.0
C173 C 0.1071 0.59471 0.03186 0.0
C174 C 0.09097 0.57063 0.07289 0.0
C175 C 0.09854 0.56774 0.0492 0.0
C176 C 0.09172 0.58544 0.07635 0.0
C177 C 0.1118 0.6707 0.09308 0.0
C178 C 0.11163 0.67233 0.14638 0.0
C179 C 0.13053 0.69482 0.11825 0.0
C180 C 0.12439 0.68629 0.09237 0.0
C181 C 0.12424 0.68797 0.1456 0.0
C182 C 0.1055 0.66374 0.12041 0.0
C183 C 0.10492 0.66256 0.06498 0.0
O184 O 0.10084 0.63717 0.9894 0.0
O185 O 0.07694 0.62681 1.00767 0.0
O186 O 0.09075 0.65011 0.06579 0.0
O187 O 0.11454 0.66081 0.04684 0.0
H188 H 0.08443 0.65909 0.98711 0.0
H189 H 0.0776 0.6719 0.94735 0.0
H190 H 0.07045 0.63356 0.88939 0.0
H191 H 0.07743 0.62103 0.92887 0.0
H192 H 0.11209 0.57796 1.00964 0.0
H193 H 0.11349 0.60388 1.01578 0.0
H194 H 0.08487 0.56157 0.08932 0.0
H195 H 0.08618 0.58743 0.09534 0.0
H196 H 0.10652 0.66673 0.16711 0.0
H197 H 0.13998 0.70696 0.11678 0.0
H198 H 0.12932 0.69202 0.07164 0.0
H199 H 0.09574 0.65177 0.12174 0.0
C200 C 0.48025 0.43432 0.11811 0.0
C201 C 0.46485 0.42328 0.10971 0.0
C202 C 0.45592 0.42028 0.16056 0.0
C203 C 0.4528 0.41632 0.13074 0.0
C204 C 0.47146 0.43103 0.16886 0.0
C205 C 0.48347 0.43798 0.14786 0.0
U206 U 0.50044 0.43875 0.04266 0.0
O207 O 0.51307 0.46022 1.01543 0.0
O208 O 0.52566 0.44823 0.03251 0.0
C209 C 0.52676 0.46065 1.01851 0.0
C210 C 0.49303 0.44264 0.09642 0.0
C211 C 0.54063 0.4764 0.02494 0.0
C212 C 0.56652 0.49261 0.04698 0.0
C213 C 0.55271 0.47798 0.04393 0.0
C214 C 0.55641 0.50449 1.0126 0.0
C215 C 0.56859 0.50603 0.03121 0.0
C216 C 0.54264 0.48987 1.00949 0.0
C217 C 0.47996 0.40523 0.98442 0.0
C218 C 0.4767 0.40432 0.93142 0.0
C219 C 0.47396 0.38118 0.95714 0.0
C220 C 0.47711 0.38948 0.98362 0.0
C221 C 0.47356 0.38843 0.93071 0.0
C222 C 0.47989 0.41264 0.95796 0.0
C223 C 0.48148 0.41297 1.01326 0.0
O224 O 0.50184 0.43606 0.09033 0.0
O225 O 0.48943 0.44822 0.07317 0.0
O226 O 0.47995 0.42582 1.01392 0.0
O227 O 0.4926 0.41381 0.03071 0.0
H228 H 0.46211 0.42018 0.08689 0.0
H229 H 0.44103 0.40786 0.12368 0.0
H230 H 0.47427 0.43437 0.19158 0.0
H231 H 0.49526 0.44647 0.15484 0.0
H232 H 0.57567 0.49339 0.0615 0.0
H233 H 0.5517 0.46785 0.05596 0.0
H234 H 0.55774 0.51445 0.9996 0.0
H235 H 0.53372 0.48901 0.99426 0.0
H236 H 0.47618 0.41017 0.91159 0.0
H237 H 0.47165 0.369 0.95738 0.0
H238 H 0.47696 0.38342 1.00368 0.0
H239 H 0.48189 0.42472 0.9578 0.0
C240 C 0.1604 0.38275 0.29489 0.0
C241 C 0.1556 0.39428 0.29914 0.0
C242 C 0.14552 0.39048 0.24922 0.0
C243 C 0.14829 0.39813 0.2765 0.0
C244 C 0.15025 0.37891 0.24512 0.0
C245 C 0.1576 0.37512 0.26765 0.0
U246 U 0.16597 0.36877 0.3716 0.0
O247 O 0.17672 0.35392 0.38276 0.0
O248 O 0.18734 0.37838 0.399 0.0
C249 C 0.18859 0.36541 0.39676 0.0
C250 C 0.16929 0.37925 0.31746 0.0
C251 C 0.20457 0.36753 0.39082 0.0
C252 C 0.22303 0.36283 0.3615 0.0
C253 C 0.20823 0.36199 0.36501 0.0
C254 C 0.23089 0.37515 0.40906 0.0
C255 C 0.23445 0.36919 0.38372 0.0
C256 C 0.21612 0.37429 0.41257 0.0
C257 C 0.13193 0.35529 0.42931 0.0
C258 C 0.12854 0.35914 0.48112 0.0
C259 C 0.10925 0.33543 0.45659 0.0
C260 C 0.11794 0.34067 0.43055 0.0
C261 C 0.11424 0.34476 0.48205 0.0
C262 C 0.13725 0.36438 0.45504 0.0
C263 C 0.13972 0.36143 0.40049 0.0
O264 O 0.17429 0.38864 0.3404 0.0
O265 O 0.16393 0.36422 0.32409 0.0
O266 O 0.14147 0.35141 0.38336 0.0
O267 O 0.15189 0.37583 0.39969 0.0
H268 H 0.15766 0.40048 0.31979 0.0
H269 H 0.1448 0.40711 0.28032 0.0
H270 H 0.14862 0.37305 0.2242 0.0
H271 H 0.16137 0.36638 0.26358 0.0
H272 H 0.2255 0.35842 0.34147 0.0
H273 H 0.19958 0.35678 0.34777 0.0
H274 H 0.23936 0.38006 0.42664 0.0
H275 H 0.21359 0.37857 0.43272 0.0
H276 H 0.13271 0.36661 0.50034 0.0
H277 H 0.09851 0.32412 0.4567 0.0
H278 H 0.11347 0.33343 0.4111 0.0
H279 H 0.14792 0.37576 0.45491 0.0
C280 C 0.74645 0.74853 0.29605 0.0
C281 C 0.75659 0.7431 0.28504 0.0
C282 C 0.73572 0.72412 0.25334 0.0
C283 C 0.75128 0.73106 0.26384 0.0
C284 C 0.72563 0.72956 0.26442 0.0
C285 C 0.73094 0.74161 0.28546 0.0
U286 U 0.76345 0.76977 0.37015 0.0
O287 O 0.78015 0.79497 0.37873 0.0
O288 O 0.75611 0.78429 0.39645 0.0
C289 C 0.76958 0.79739 0.39265 0.0
C290 C 0.75192 0.76202 0.31693 0.0
C291 C 0.76891 0.81217 0.38556 0.0
C292 C 0.75524 0.82785 0.38817 0.0
C293 C 0.75514 0.81328 0.39087 0.0
C294 C 0.78273 0.84048 0.37407 0.0
C295 C 0.76914 0.84171 0.38043 0.0
C296 C 0.78264 0.82594 0.37677 0.0
C297 C 0.77399 0.74776 0.43031 0.0
C298 C 0.79419 0.75609 0.46806 0.0
C299 C 0.77005 0.73116 0.4731 0.0
C300 C 0.76468 0.73394 0.44655 0.0
C301 C 0.78496 0.74208 0.48403 0.0
C302 C 0.78877 0.75891 0.44146 0.0
C303 C 0.76839 0.74956 0.40109 0.0
O304 O 0.74309 0.75972 0.34028 0.0
O305 O 0.76711 0.77001 0.32252 0.0
O306 O 0.77887 0.75996 0.383 0.0
O307 O 0.75474 0.74937 0.40032 0.0
H308 H 0.76865 0.74824 0.29253 0.0
H309 H 0.75934 0.72713 0.25571 0.0
H310 H 0.7137 0.72474 0.25634 0.0
H311 H 0.72294 0.74572 0.29317 0.0
H312 H 0.74458 0.82838 0.39328 0.0
H313 H 0.74438 0.80302 0.39805 0.0
H314 H 0.79355 0.85086 0.36749 0.0
H315 H 0.79351 0.8256 0.37279 0.0
H316 H 0.80559 0.7649 0.47616 0.0
H317 H 0.76267 0.72024 0.48479 0.0
H318 H 0.7533 0.7251 0.43838 0.0
H319 H 0.79624 0.7697 0.42951 0.0
C320 C 0.36484 0.9866 0.45018 0.0
C321 C 0.37993 0.9907 0.46095 0.0
C322 C 0.37891 1.01001 0.49441 0.0
C323 C 0.38688 1.00229 0.48279 0.0
C324 C 0.36398 1.00611 0.48318 0.0
C325 C 0.35702 0.99451 0.46147 0.0
U326 U 0.3599 0.96537 0.37532 0.0
O327 O 0.35046 0.93993 0.36607 0.0
O328 O 0.3383 0.95238 0.34902 0.0
C329 C 0.338 0.93867 0.35237 0.0
C330 C 0.35653 0.97348 0.42885 0.0
C331 C 0.32245 0.92475 0.35951 0.0
C332 C 0.30609 0.90048 0.38702 0.0
C333 C 0.32051 0.91438 0.38275 0.0
C334 C 0.29512 0.90719 0.34545 0.0
C335 C 0.29329 0.89658 0.36812 0.0
C336 C 0.30954 0.92105 0.34113 0.0
C337 C 0.39275 0.9859 0.31553 0.0
C338 C 0.40871 0.97976 0.28186 0.0
C339 C 0.40345 1.0013 0.27078 0.0
C340 C 0.39456 0.99816 0.29657 0.0
C341 C 0.4108 0.99227 0.26324 0.0
C342 C 0.3998 0.97661 0.30769 0.0
C343 C 0.38517 0.98434 0.34465 0.0
O344 O 0.35064 0.97676 0.40568 0.0
O345 O 0.36287 0.96442 0.42288 0.0
O346 O 0.38456 0.97337 0.36256 0.0
O347 O 0.37234 0.98574 0.34547 0.0
H348 H 0.38631 0.98486 0.45276 0.0
H349 H 0.39853 1.00523 0.49054 0.0
H350 H 0.35751 1.01179 0.49169 0.0
H351 H 0.34534 0.99151 0.45381 0.0
H352 H 0.30497 0.89273 0.40508 0.0
H353 H 0.33019 0.91685 0.39737 0.0
H354 H 0.28554 0.90454 0.33047 0.0
H355 H 0.3107 0.92872 0.3229 0.0
H356 H 0.41448 0.97279 0.27709 0.0
H357 H 0.40479 1.01099 0.25693 0.0
H358 H 0.38949 1.00568 0.30214 0.0
H359 H 0.39888 0.96722 0.32192 0.0
C360 C 0.38373 0.38576 0.29637 0.0
C361 C 0.39976 0.39553 0.30302 0.0
C362 C 0.40703 0.39573 0.25169 0.0
C363 C 0.41128 0.40043 0.28091 0.0
C364 C 0.39104 0.38551 0.24535 0.0
C365 C 0.37955 0.38066 0.2674 0.0
U366 U 0.36378 0.37018 0.37211 0.0
O367 O 0.35096 0.37898 0.3999 0.0
O368 O 0.33864 0.35479 0.38227 0.0
C369 C 0.3374 0.36593 0.39685 0.0
C370 C 0.37106 0.38152 0.31855 0.0
C371 C 0.32339 0.3679 0.39092 0.0
C372 C 0.30049 0.36305 0.36159 0.0
C373 C 0.31453 0.36231 0.36511 0.0
C374 C 0.30419 0.37534 0.40916 0.0
C375 C 0.29502 0.36935 0.3838 0.0
C376 C 0.31815 0.37457 0.41268 0.0
C377 C 0.38458 0.35646 0.42919 0.0
C378 C 0.38548 0.35673 0.48254 0.0
C379 C 0.39235 0.33934 0.45542 0.0
C380 C 0.3894 0.34486 0.42916 0.0
C381 C 0.39056 0.34527 0.48246 0.0
C382 C 0.3825 0.36227 0.45617 0.0
C383 C 0.38299 0.36296 0.40076 0.0
O384 O 0.36225 0.36634 0.32435 0.0
O385 O 0.37457 0.39052 0.34198 0.0
O386 O 0.38428 0.3772 0.40084 0.0
O387 O 0.37193 0.35303 0.38311 0.0
H388 H 0.40339 0.39964 0.32517 0.0
H389 H 0.42348 0.40828 0.28656 0.0
H390 H 0.38738 0.38132 0.22326 0.0
H391 H 0.36729 0.3731 0.26168 0.0
H392 H 0.29388 0.35862 0.34154 0.0
H393 H 0.31828 0.35715 0.34786 0.0
H394 H 0.30031 0.38021 0.42673 0.0
H395 H 0.3247 0.37888 0.43284 0.0
H396 H 0.38423 0.36175 0.50294 0.0
H397 H 0.39614 0.33044 0.45456 0.0
H398 H 0.39116 0.34025 0.40869 0.0
H399 H 0.37889 0.37129 0.45691 0.0
C400 C 0.74977 0.97541 0.29724 0.0
C401 C 0.76077 0.98604 0.27693 0.0
C402 C 0.73993 0.9881 0.25072 0.0
C403 C 0.75592 0.99237 0.25409 0.0
C404 C 0.72901 0.97788 0.27152 0.0
C405 C 0.73385 0.97155 0.29437 0.0
U406 U 0.76531 0.96998 0.37276 0.0
O407 O 0.75728 0.94807 0.39858 0.0
O408 O 0.78154 0.96055 0.38191 0.0
C409 C 0.77065 0.94784 0.39525 0.0
C410 C 0.75451 0.96699 0.31902 0.0
C411 C 0.76978 0.93234 0.38779 0.0
C412 C 0.75579 0.90334 0.38975 0.0
C413 C 0.75591 0.9179 0.39295 0.0
C414 C 0.78327 0.91724 0.37549 0.0
C415 C 0.76957 0.90285 0.38165 0.0
C416 C 0.78339 0.93178 0.37868 0.0
C417 C 0.77634 1.0023 0.43337 0.0
C418 C 0.79765 1.01769 0.46762 0.0
C419 C 0.77098 1.01168 0.47942 0.0
C420 C 0.76572 1.00347 0.45295 0.0
C421 C 0.78702 1.01901 0.48702 0.0
C422 C 0.79238 1.00944 0.44111 0.0
C423 C 0.77073 0.99514 0.40396 0.0
O424 O 0.7696 0.97335 0.32527 0.0
O425 O 0.74536 0.96091 0.34206 0.0
O426 O 0.75689 0.98226 0.40279 0.0
O427 O 0.78113 0.99469 0.38594 0.0
H428 H 0.77308 0.98912 0.27812 0.0
H429 H 0.76462 1.00016 0.23839 0.0
H430 H 0.71666 0.97459 0.2699 0.0
H431 H 0.72501 0.96329 0.30935 0.0
H432 H 0.74506 0.89248 0.39474 0.0
H433 H 0.74525 0.91782 0.40038 0.0
H434 H 0.794 0.91727 0.36865 0.0
H435 H 0.79433 0.94262 0.37479 0.0
H436 H 0.81013 0.02346 0.47247 0.0
H437 H 0.76247 1.01242 0.49388 0.0
H438 H 0.75334 0.99832 0.4475 0.0
H439 H 0.80097 1.00904 0.4264 0.0
C440 C 0.16087 0.74949 0.2974 0.0
C441 C 0.14896 0.74928 0.27955 0.0
C442 C 0.14807 0.72758 0.25041 0.0
C443 C 0.1426 0.73841 0.25645 0.0
C444 C 0.15959 0.72743 0.26884 0.0
C445 C 0.16597 0.7383 0.29189 0.0
U446 U 0.16574 0.77002 0.37326 0.0
O447 O 0.18722 0.78252 0.40003 0.0
O448 O 0.17551 0.79544 0.38316 0.0
C449 C 0.18782 0.79637 0.39693 0.0
C450 C 0.1692 0.76225 0.31949 0.0
C451 C 0.20353 0.81012 0.39003 0.0
C452 C 0.22044 0.83427 0.36261 0.0
C453 C 0.20578 0.82064 0.36688 0.0
C454 C 0.23095 0.82704 0.4042 0.0
C455 C 0.23321 0.83766 0.38127 0.0
C456 C 0.21631 0.81347 0.40851 0.0
C457 C 0.13242 0.74944 0.43195 0.0
C458 C 0.12264 0.75968 0.47107 0.0
C459 C 0.11575 0.73195 0.47077 0.0
C460 C 0.12463 0.73441 0.44517 0.0
C461 C 0.11435 0.74447 0.48372 0.0
C462 C 0.13156 0.76215 0.44541 0.0
C463 C 0.14014 0.75106 0.40311 0.0
O464 O 0.16312 0.77151 0.32572 0.0
O465 O 0.17481 0.7586 0.34262 0.0
O466 O 0.15287 0.74946 0.40263 0.0
O467 O 0.14111 0.76232 0.38561 0.0
H468 H 0.14484 0.75781 0.28284 0.0
H469 H 0.13377 0.73886 0.24265 0.0
H470 H 0.16385 0.71904 0.2652 0.0
H471 H 0.1752 0.73819 0.30499 0.0
H472 H 0.2218 0.84219 0.34471 0.0
H473 H 0.19617 0.8185 0.35231 0.0
H474 H 0.2404 0.82944 0.41937 0.0
H475 H 0.21488 0.80573 0.42679 0.0
H476 H 0.12209 0.76966 0.48083 0.0
H477 H 0.1095 0.72009 0.47986 0.0
H478 H 0.12505 0.72441 0.43518 0.0
H479 H 0.13751 0.77389 0.43581 0.0
C480 C 0.81189 0.68669 0.78052 0.0
C481 C 0.80985 0.69803 0.79673 0.0
C482 C 0.78879 0.67714 0.82566 0.0
C483 C 0.79846 0.69331 0.819 0.0
C484 C 0.79068 0.66582 0.80919 0.0
C485 C 0.80209 0.67054 0.78697 0.0
U486 U 0.83281 0.70316 0.70574 0.0
O487 O 0.85793 0.71967 0.69669 0.0
O488 O 0.84689 0.69548 0.67907 0.0
C489 C 0.86 0.70899 0.68235 0.0
C490 C 0.82505 0.69151 0.75904 0.0
C491 C 0.87447 0.70807 0.68932 0.0
C492 C 0.88814 0.69534 0.71232 0.0
C493 C 0.87424 0.69616 0.70737 0.0
C494 C 0.90265 0.71837 0.68152 0.0
C495 C 0.90254 0.70648 0.6995 0.0
C496 C 0.88879 0.71916 0.67656 0.0
C497 C 0.81155 0.71568 0.64746 0.0
C498 C 0.81138 0.71552 0.59409 0.0
C499 C 0.80247 0.73154 0.62048 0.0
C500 C 0.80564 0.72642 0.647 0.0
C501 C 0.80514 0.72605 0.59367 0.0
C502 C 0.81457 0.7104 0.62071 0.0
C503 C 0.81317 0.70934 0.67603 0.0
O504 O 0.82222 0.6826 0.73563 0.0
O505 O 0.83364 0.70674 0.75339 0.0
O506 O 0.82374 0.71951 0.69413 0.0
O507 O 0.81261 0.69542 0.67601 0.0
H508 H 0.81733 0.71059 0.7928 0.0
H509 H 0.79762 0.70238 0.83169 0.0
H510 H 0.78344 0.65328 0.81374 0.0
H511 H 0.80348 0.66151 0.77523 0.0
H512 H 0.88766 0.68605 0.72631 0.0
H513 H 0.86333 0.68744 0.71746 0.0
H514 H 0.91341 0.72692 0.67077 0.0
H515 H 0.88924 0.72837 0.66235 0.0
H516 H 0.8133 0.71082 0.57389 0.0
H517 H 0.79775 0.73969 0.62095 0.0
H518 H 0.80313 0.73061 0.66729 0.0
H519 H 0.81904 0.70204 0.62034 0.0
C520 C 0.41492 0.08155 0.6313 0.0
C521 C 0.40511 0.06551 0.63861 0.0
C522 C 0.40469 0.0577 0.58756 0.0
C523 C 0.40002 0.05372 0.61695 0.0
C524 C 0.41475 0.07372 0.58052 0.0
C525 C 0.4198 0.08548 0.60212 0.0
U526 U 0.42959 0.10192 0.70702 0.0
O527 O 0.44562 0.12717 0.71652 0.0
O528 O 0.42123 0.11586 0.73251 0.0
C529 C 0.43458 0.12917 0.72957 0.0
C530 C 0.41936 0.09452 0.65294 0.0
C531 C 0.43368 0.14379 0.72214 0.0
C532 C 0.41913 0.15863 0.72155 0.0
C533 C 0.41943 0.14429 0.7248 0.0
C534 C 0.44723 0.1723 0.71243 0.0
C535 C 0.43306 0.17286 0.71564 0.0
C536 C 0.44754 0.15798 0.71568 0.0
C537 C 0.4402 0.08059 0.76846 0.0
C538 C 0.46124 0.0852 0.80283 0.0
C539 C 0.4341 0.06735 0.81597 0.0
C540 C 0.42918 0.07021 0.78895 0.0
C541 C 0.4502 0.07476 0.82324 0.0
C542 C 0.45632 0.08809 0.77578 0.0
C543 C 0.43485 0.08212 0.7387 0.0
O544 O 0.40999 0.09159 0.67568 0.0
O545 O 0.43439 0.10274 0.6596 0.0
O546 O 0.44539 0.09273 0.72095 0.0
O547 O 0.42097 0.08139 0.73683 0.0
H548 H 0.40108 0.06211 0.66091 0.0
H549 H 0.39204 0.04155 0.62308 0.0
H550 H 0.41863 0.0772 0.55817 0.0
H551 H 0.4273 0.09775 0.59588 0.0
H552 H 0.40807 0.15867 0.72481 0.0
H553 H 0.40856 0.1337 0.73033 0.0
H554 H 0.45817 0.18302 0.70783 0.0
H555 H 0.45876 0.15812 0.71396 0.0
H556 H 0.47372 0.09107 0.80774 0.0
H557 H 0.42531 0.05895 0.83084 0.0
H558 H 0.41673 0.06394 0.7838 0.0
H559 H 0.46519 0.09597 0.76043 0.0
C560 C 0.03452 0.32107 0.78163 0.0
C561 C 0.04154 0.33725 0.77424 0.0
C562 C 0.04859 0.34475 0.82533 0.0
C563 C 0.04844 0.34896 0.7959 0.0
C564 C 0.04179 0.32855 0.8325 0.0
C565 C 0.03486 0.31688 0.8109 0.0
U566 U 1.02864 0.30082 0.70561 0.0
O567 O 1.01879 0.27542 0.69536 0.0
O568 O 1.00681 0.28834 0.67985 0.0
C569 C 1.00627 0.27449 0.68241 0.0
C570 C 1.02588 0.30834 0.75992 0.0
C571 C 0.99065 0.26062 0.68963 0.0
C572 C 0.97475 0.23425 0.71089 0.0
C573 C 0.98934 0.24804 0.70723 0.0
C574 C 0.9624 0.24535 0.6799 0.0
C575 C 0.96111 0.23269 0.69711 0.0
C576 C 0.97696 0.25911 0.67618 0.0
C577 C 0.06067 0.32126 0.64467 0.0
C578 C 0.07815 0.31723 0.61114 0.0
C579 C 0.06731 0.33413 0.59679 0.0
C580 C 0.05935 0.3312 0.62364 0.0
C581 C 0.07687 0.32724 0.59023 0.0
C582 C 0.07016 0.31428 0.63802 0.0
C583 C 0.0537 0.31977 0.6744 0.0
O584 O 1.0199 0.31197 0.73733 0.0
O585 O 1.03216 0.29934 0.75296 0.0
O586 O 0.0531 0.30856 0.69163 0.0
O587 O 0.04106 0.32149 0.67648 0.0
H588 H 0.04146 0.34086 0.75184 0.0
H589 H 0.0536 0.36133 0.78966 0.0
H590 H 0.04138 0.32486 0.85499 0.0
H591 H 1.0294 0.3045 0.81721 0.0
H592 H 0.97417 0.22472 0.72429 0.0
H593 H 0.99963 0.24865 0.71766 0.0
H594 H 0.95224 0.24442 0.66839 0.0
H595 H 0.9776 0.2684 0.662 0.0
H596 H 0.08544 0.31177 0.60678 0.0
H597 H 0.06637 0.34222 0.58153 0.0
H598 H 0.05249 0.3371 0.62824 0.0
H599 H 0.07172 0.30679 0.65381 0.0
C600 C 0.04727 0.71832 0.6274 0.0
C601 C 0.06339 0.7249 0.63399 0.0
C602 C 0.07002 0.72781 0.58188 0.0
C603 C 0.07466 0.72956 0.61141 0.0
C604 C 0.05384 0.72083 0.57552 0.0
C605 C 0.04263 0.7162 0.598 0.0
U606 U 1.02921 0.70396 0.70489 0.0
O607 O 1.01584 0.71225 0.73208 0.0
O608 O 1.00436 0.68765 0.71652 0.0
C609 C 1.00263 0.69873 0.73017 0.0
C610 C 0.03503 0.71402 0.65036 0.0
C611 C 0.98815 0.69968 0.72346 0.0
C612 C 0.97465 0.71273 0.70101 0.0
C613 C 0.98842 0.71161 0.70538 0.0
C614 C 0.96008 0.68983 0.73206 0.0
C615 C 0.96035 0.70197 0.71461 0.0
C616 C 0.97383 0.68874 0.73649 0.0
C617 C 0.05254 0.69368 0.76241 0.0
C618 C 0.04312 0.67686 0.80577 0.0
C619 C 0.07115 0.69344 0.79775 0.0
C620 C 0.06807 0.69917 0.77187 0.0
C621 C 0.05875 0.68209 0.8149 0.0
C622 C 0.04004 0.68261 0.77975 0.0
C623 C 0.04996 0.69902 0.7336 0.0
O624 O 1.02711 0.69894 0.65753 0.0
O625 O 0.03867 0.72356 0.67303 0.0
O626 O 0.05033 0.71284 0.73281 0.0
O627 O 0.03885 0.68826 0.71708 0.0
H628 H 0.06727 0.7266 0.65652 0.0
H629 H 0.08702 0.73482 0.61702 0.0
H630 H 0.04981 0.7189 0.55308 0.0
H631 H 1.03026 0.71106 0.59239 0.0
H632 H 0.9752 0.72202 0.68693 0.0
H633 H 0.99928 0.72014 0.69489 0.0
H634 H 0.94929 0.68137 0.74287 0.0
H635 H 0.97332 0.67945 0.75053 0.0
H636 H 0.0333 0.66794 0.8182 0.0
H637 H 0.0833 0.69778 0.80422 0.0
H638 H 0.0779 0.70769 0.75885 0.0
H639 H 1.02795 0.67815 0.77285 0.0
C640 C 0.41514 0.30738 0.63362 0.0
C641 C 0.42602 0.32243 0.62267 0.0
C642 C 0.40659 0.32155 0.58776 0.0
C643 C 0.4218 0.3294 0.59996 0.0
C644 C 0.39564 0.30667 0.59918 0.0
C645 C 0.39987 0.29968 0.62179 0.0
U646 U 0.43072 0.30184 0.70877 0.0
O647 O 0.42251 0.27998 0.73479 0.0
O648 O 0.44672 0.2921 0.71778 0.0
C649 C 0.43576 0.2795 0.73128 0.0
C650 C 0.41973 0.29882 0.65521 0.0
C651 C 0.43461 0.2639 0.72375 0.0
C652 C 0.41972 0.23491 0.72266 0.0
C653 C 0.42025 0.24964 0.72624 0.0
C654 C 0.44782 0.24828 0.7136 0.0
C655 C 0.43353 0.23403 0.71659 0.0
C656 C 0.44836 0.26299 0.71718 0.0
C657 C 0.44233 0.33444 0.76903 0.0
C658 C 0.46369 0.34906 0.80362 0.0
C659 C 0.43745 0.34475 0.81442 0.0
C660 C 0.43202 0.33647 0.78807 0.0
C661 C 0.45341 0.35139 0.82233 0.0
C662 C 0.45824 0.34073 0.77724 0.0
C663 C 0.43659 0.32719 0.73974 0.0
O664 O 0.43482 0.30494 0.66128 0.0
O665 O 0.4106 0.29298 0.67834 0.0
O666 O 0.42266 0.31442 0.7388 0.0
O667 O 0.44685 0.32653 0.72167 0.0
H668 H 0.43791 0.32868 0.63115 0.0
H669 H 0.4305 0.34088 0.59166 0.0
H670 H 0.38395 0.30014 0.5899 0.0
H671 H 0.39131 0.28799 0.62948 0.0
H672 H 0.40857 0.22419 0.72576 0.0
H673 H 0.40946 0.24981 0.73182 0.0
H674 H 0.45867 0.24805 0.70888 0.0
H675 H 0.45966 0.27368 0.71558 0.0
H676 H 0.47598 0.35375 0.80932 0.0
H677 H 0.42923 0.34637 0.82826 0.0
H678 H 0.41976 0.33197 0.78223 0.0
H679 H 0.46656 0.33948 0.7631 0.0
C680 C 0.81125 0.10294 0.78135 0.0
C681 C 0.80384 0.08657 0.78729 0.0
C682 C 0.78694 0.0894 0.82399 0.0
C683 C 0.79184 0.07988 0.80852 0.0
C684 C 0.79441 0.10575 0.81796 0.0
C685 C 0.8064 0.11242 0.7969 0.0
U686 U 0.83265 0.10617 0.70742 0.0
O687 O 0.84601 0.12736 0.67988 0.0
O688 O 0.85799 0.11521 0.69899 0.0
C689 C 0.85954 0.12762 0.68426 0.0
C690 C 0.82444 0.11067 0.76011 0.0
C691 C 0.87343 0.14332 0.69098 0.0
C692 C 0.89975 0.15917 0.71163 0.0
C693 C 0.88596 0.14456 0.70832 0.0
C694 C 0.8888 0.17171 0.68072 0.0
C695 C 0.90139 0.17292 0.69772 0.0
C696 C 0.87503 0.15712 0.67736 0.0
C697 C 0.8125 0.07255 0.64935 0.0
C698 C 0.81178 0.07226 0.59601 0.0
C699 C 0.80483 0.04801 0.62246 0.0
C700 C 0.8077 0.05626 0.64895 0.0
C701 C 0.8067 0.05587 0.59564 0.0
C702 C 0.81469 0.08054 0.62256 0.0
C703 C 0.81375 0.08043 0.67791 0.0
O704 O 0.83308 0.10376 0.75525 0.0
O705 O 0.82149 0.11633 0.73624 0.0
O706 O 0.81257 0.09347 0.67774 0.0
O707 O 0.82449 0.08108 0.69615 0.0
H708 H 0.80735 0.07896 0.77567 0.0
H709 H 0.7863 0.06724 0.81268 0.0
H710 H 0.79116 0.11347 0.82989 0.0
H711 H 0.81203 0.12509 0.79295 0.0
H712 H 0.90923 0.15968 0.72486 0.0
H713 H 0.8853 0.13418 0.71882 0.0
H714 H 0.88979 0.18195 0.66912 0.0
H715 H 0.86579 0.15656 0.66334 0.0
H716 H 0.81335 0.07866 0.57572 0.0
H717 H 0.80061 0.03534 0.62306 0.0
H718 H 0.80573 0.04978 0.66927 0.0
H719 H 0.81834 0.09309 0.62212 0.0
C720 C 0.60934 0.04589 0.05393 0.0
C721 C 0.61077 0.03329 0.04132 0.0
C722 C 0.59529 0.04675 0.0517 0.0
C723 C 0.58207 0.03504 0.03679 0.0
H724 H 0.61908 0.05506 0.06603 0.0
H725 H 0.59472 0.05659 0.06205 0.0
S726 S 0.58018 1.00039 0.99756 0.0
N727 N 0.59803 1.00936 1.01185 0.0
N728 N 0.57172 1.01097 1.00765 0.0
C729 C 0.58344 0.02252 0.02368 0.0
C730 C 0.59774 1.02165 0.02593 0.0
C731 C 0.08437 0.52319 0.05057 0.0
C732 C 0.09834 0.52228 0.04655 0.0
C733 C 0.08448 0.53785 0.05075 0.0
C734 C 0.09857 0.55225 0.04688 0.0
H735 H 0.07324 0.51246 0.05379 0.0
H736 H 0.07343 0.53791 0.0541 0.0
S737 S 0.13849 0.55655 0.03696 0.0
N738 N 0.12674 0.53721 0.03943 0.0
N739 N 0.12694 0.56467 0.0397 0.0
C740 C 0.1126 0.55152 0.04259 0.0
C741 C 0.11249 0.53659 0.04244 0.0
C742 C 0.59828 0.5214 0.02988 0.0
C743 C 0.58376 0.52133 0.03281 0.0
C744 C 0.61267 0.53566 0.02951 0.0
C745 C 0.61318 0.55049 0.03204 0.0
H746 H 0.59851 0.51034 0.02703 0.0
H747 H 0.62346 0.53508 0.02639 0.0
S748 S 0.57867 0.5568 0.04358 0.0
N749 N 0.57093 0.53736 0.04061 0.0
N750 N 0.59791 0.5641 0.0399 0.0
C751 C 0.59879 0.55057 0.03589 0.0
C752 C 0.58413 0.53604 0.03628 0.0
C753 C 0.27857 0.38303 0.38856 0.0
C754 C 0.27963 0.36935 0.38124 0.0
C755 C 0.26404 0.38299 0.38854 0.0
C756 C 0.2499 0.36928 0.3812 0.0
H757 H 0.28907 0.39385 0.39461 0.0
H758 H 0.26386 0.39378 0.39458 0.0
S759 S 0.24607 0.33016 0.36142 0.0
N760 N 0.26514 0.34161 0.36696 0.0
N761 N 0.2379 0.34154 0.36693 0.0
C762 C 0.25081 0.35557 0.37345 0.0
C763 C 0.26562 0.35561 0.37347 0.0
C764 C 0.75783 0.8741 0.36663 0.0
C765 C 0.76982 0.88743 0.38093 0.0
C766 C 0.75774 0.85943 0.36632 0.0
C767 C 0.76962 0.85748 0.38031 0.0
H768 H 0.74849 0.87504 0.35542 0.0
H769 H 0.74832 0.84955 0.35489 0.0
S770 S 0.80281 0.88822 0.42322 0.0
N771 N 0.79334 0.89738 0.41095 0.0
N772 N 0.79315 0.86994 0.41039 0.0
C773 C 0.78155 0.87066 0.39499 0.0
C774 C 0.78165 0.88557 0.3953 0.0
C775 C 0.26358 0.88139 0.37092 0.0
C776 C 0.27812 0.8814 0.37162 0.0
C777 C 0.24917 0.86724 0.37379 0.0
C778 C 0.24868 0.85248 0.37745 0.0
H779 H 0.26333 0.89245 0.36848 0.0
H780 H 0.23833 0.86791 0.37359 0.0
S781 S 0.28331 0.84577 0.37794 0.0
N782 N 0.29102 0.86518 0.37441 0.0
N783 N 0.26403 0.83868 0.37979 0.0
C784 C 0.26312 0.85229 0.37768 0.0
C785 C 0.27778 0.86669 0.37478 0.0
C786 C 0.93127 0.68996 0.7041 0.0
C787 C 0.94575 0.7034 0.71094 0.0
C788 C 0.91736 0.69101 0.70079 0.0
C789 C 0.91733 0.70553 0.70421 0.0
H790 H 0.93071 0.67856 0.70088 0.0
H791 H 0.9066 0.68039 0.695 0.0
S792 S 0.95175 0.74392 0.72506 0.0
N793 N 0.95891 0.73149 0.72292 0.0
N794 N 0.93288 0.73345 0.71676 0.0
C795 C 0.93166 0.71899 0.71163 0.0
C796 C 0.94581 0.71793 0.71497 0.0
C797 C 0.44458 0.21613 0.73069 0.0
C798 C 0.43329 0.21838 0.71517 0.0
C799 C 0.44447 0.20148 0.73045 0.0
C800 C 0.43307 0.18841 0.71468 0.0
H801 H 0.45343 0.22569 0.74365 0.0
H802 H 0.45324 0.20032 0.74324 0.0
S803 S 0.40168 0.18838 0.66841 0.0
N804 N 0.4109 0.20647 0.68224 0.0
N805 N 0.41069 0.17898 0.6818 0.0
C806 C 0.42186 0.19055 0.69867 0.0
C807 C 0.42197 0.20549 0.69891 0.0
C808 C 0.94535 0.20288 0.69446 0.0
C809 C 0.94581 0.21755 0.69925 0.0
C810 C 0.93103 0.18854 0.6946 0.0
C811 C 0.91652 0.18824 0.69953 0.0
H812 H 0.95613 0.20249 0.68976 0.0
H813 H 0.9313 0.17764 0.68999 0.0
S814 S 0.91136 0.22317 0.7165 0.0
N815 N 0.93054 0.23072 0.71132 0.0
N816 N 0.90368 0.20384 0.71158 0.0
C817 C 0.91685 0.20278 0.70523 0.0
C818 C 0.93144 0.21738 0.70509 0.0
C819 C 0.43301 1.01258 0.2326 0.0
C820 C 0.42147 0.99665 0.23714 0.0
C821 C 0.4437 1.01701 0.20909 0.0
C822 C 0.44326 1.00575 0.18889 0.0
H823 H 0.43404 1.02169 0.24774 0.0
H824 H 0.45244 0.0294 0.20675 0.0
S825 S 0.41506 0.96254 0.1903 0.0
N826 N 0.40998 0.96963 0.21883 0.0
N827 N 0.43017 0.97793 0.17491 0.0
C828 C 0.43162 0.98982 0.19286 0.0
C829 C 0.42076 0.98528 0.21692 0.0
C830 C 0.14424 0.4109 0.21665 0.0
C831 C 0.13822 0.39489 0.22473 0.0
C832 C 0.13819 0.41524 0.1925 0.0
C833 C 0.12574 0.40376 0.17568 0.0
H834 H 0.15396 0.42015 0.22866 0.0
H835 H 0.14332 0.42769 0.18693 0.0
S836 S 0.1055 0.36023 0.18824 0.0
N837 N 0.11879 0.36756 0.21446 0.0
N838 N 0.10756 0.37564 0.16906 0.0
C839 C 0.11945 0.38772 0.18387 0.0
C840 C 0.12566 0.38331 0.20832 0.0
C841 C 0.73888 0.71376 0.20451 0.0
C842 C 0.73009 0.71151 0.23039 0.0
C843 C 0.73341 0.70234 0.18205 0.0
C844 C 0.71903 0.68812 0.1847 0.0
H845 H 0.74995 0.72457 0.20136 0.0
H846 H 0.74055 0.70464 0.16249 0.0
S847 S 0.69169 0.67634 0.24828 0.0
N848 N 0.70643 0.6938 0.25754 0.0
N849 N 0.69608 0.67252 0.21537 0.0
C850 C 0.71021 0.68568 0.21059 0.0
C851 C 0.71574 0.69731 0.23336 0.0
C852 C 0.05553 0.38012 0.8729 0.0
C853 C 0.06572 0.38023 0.8949 0.0
C854 C 0.05036 0.36887 0.85023 0.0
C855 C 0.05504 0.35713 0.8487 0.0
H856 H 0.05153 0.38885 0.87313 0.0
H857 H 0.04235 0.36916 0.83411 0.0
S858 S 0.08187 0.35237 0.90044 0.0
N859 N 0.08041 0.36761 0.91346 0.0
N860 N 0.07088 0.34663 0.87074 0.0
C861 C 0.06538 0.35721 0.87034 0.0
C862 C 0.0707 0.36872 0.89338 0.0
C863 C 0.77717 0.66115 0.87145 0.0
C864 C 0.77744 0.67213 0.85081 0.0
C865 C 0.76733 0.6569 0.89623 0.0
C866 C 0.75722 0.66333 0.9014 0.0
H867 H 0.78494 0.65608 0.86884 0.0
H868 H 0.76773 0.64855 0.91161 0.0
S869 S 0.75291 0.6921 0.85355 0.0
N870 N 0.76621 0.68887 0.8367 0.0
N871 N 0.74794 0.6811 0.88344 0.0
C872 C 0.75711 0.67407 0.88064 0.0
C873 C 0.76718 0.67844 0.85541 0.0
C874 C 0.47211 0.06261 0.87797 0.0
C875 C 0.46507 0.06267 0.90496 0.0
C876 C 0.46747 0.06684 0.85182 0.0
C877 C 0.45547 0.07111 0.85151 0.0
H878 H 0.48132 0.05931 0.87705 0.0
H879 H 0.47312 0.06644 0.83159 0.0
S880 S 0.43331 0.07326 0.91619 0.0
N881 N 0.44541 0.06737 0.92962 0.0
N882 N 0.43691 0.07549 0.8807 0.0
C883 C 0.44841 0.07133 0.87835 0.0
C884 C 0.45317 0.0671 0.90497 0.0
C885 C 0.77487 0.07276 0.8691 0.0
C886 C 0.7742 0.0824 0.84662 0.0
C887 C 0.76333 0.06665 0.89133 0.0
C888 C 0.75054 0.06976 0.89172 0.0
H889 H 0.78455 0.07014 0.86981 0.0
H890 H 0.76437 0.05933 0.9082 0.0
S891 S 0.74318 0.09414 0.83765 0.0
N892 N 0.7595 0.09452 0.82594 0.0
N893 N 0.73801 0.08324 0.86766 0.0
C894 C 0.74969 0.07929 0.86924 0.0
C895 C 0.76145 0.08556 0.84676 0.0
C896 C 0.07346 0.66978 0.83905 0.0
C897 C 0.0623 0.67515 0.84118 0.0
C898 C 0.07699 0.66302 0.86308 0.0
C899 C 0.06964 0.66142 0.89044 0.0
H900 H 0.07937 0.6706 0.81845 0.0
H901 H 0.08564 0.65905 0.8602 0.0
S902 S 0.03975 0.67382 0.9079 0.0
N903 N 0.0441 0.67864 0.87313 0.0
N904 N 0.05065 0.66581 0.91823 0.0
C905 C 0.05856 0.66687 0.89301 0.0
C906 C 0.05488 0.67369 0.86842 0.0
C907 C 0.45573 0.36386 0.90222 0.0
C908 C 0.46905 0.3791 0.90288 0.0
C909 C 0.45088 0.35499 0.87626 0.0
C910 C 0.4592 0.36087 0.84983 0.0
H911 H 0.44881 0.35885 0.92187 0.0
H912 H 0.4405 0.34338 0.8769 0.0
S913 S 0.49503 0.39997 0.83972 0.0
N914 N 0.49068 0.39953 0.87478 0.0
N915 N 0.48144 0.38297 0.82597 0.0
C916 C 0.47263 0.37602 0.85021 0.0
C917 C 0.47754 0.3851 0.87666 0.0
C918 C 0.1259 0.70812 0.21856 0.0
C919 C 0.14219 0.71691 0.22431 0.0
C920 C 0.12018 0.69848 0.19356 0.0
C921 C 0.13051 0.69738 0.17306 0.0
H922 H 0.1175 0.70872 0.23351 0.0
H923 H 0.10757 0.69214 0.18988 0.0
S924 S 0.17417 0.71776 0.178 0.0
N925 N 0.16854 0.72375 0.20733 0.0
N926 N 0.1578 0.70553 0.16075 0.0
C927 C 0.14679 0.70593 0.17874 0.0
C928 C 0.15262 0.71569 0.20423 0.0
C929 C 0.43355 0.40153 0.23137 0.0
C930 C 0.41918 0.40169 0.22786 0.0
C931 C 0.44523 0.40734 0.20944 0.0
C932 C 0.44306 0.41356 0.18303 0.0
H933 H 0.43574 0.39678 0.25119 0.0
H934 H 0.45605 0.40692 0.21316 0.0
S935 S 0.40814 0.41784 0.16383 0.0
N936 N 0.40384 0.40937 0.19639 0.0
N937 N 0.42572 0.42019 0.1553 0.0
C938 C 0.42881 0.41387 0.17931 0.0
C939 C 0.41692 0.40798 0.20164 0.0
C940 C 0.7383 1.01549 0.19203 0.0
C941 C 0.72593 1.00503 0.17378 0.0
C942 C 0.74264 1.00998 0.21696 0.0
C943 C 0.73467 0.99382 0.2249 0.0
H944 H 0.74496 0.02798 0.18658 0.0
H945 H 0.75236 1.01844 0.2301 0.0
S946 S 0.70109 0.96166 0.18505 0.0
N947 N 0.70544 0.97783 0.166 0.0
N948 N 0.71368 0.96747 0.21248 0.0
C949 C 0.72208 0.98331 0.20714 0.0
C950 C 0.71772 0.9889 0.1817 0.0
C951 C 0.11127 0.34023 0.53655 0.0
C952 C 0.10439 0.33977 0.50925 0.0
C953 C 0.10225 0.33587 0.56246 0.0
C954 C 0.08601 0.33105 0.56221 0.0
H955 H 0.12373 0.34394 0.53791 0.0
H956 H 0.10813 0.33659 0.58294 0.0
S957 S 0.06224 0.32772 0.49653 0.0
N958 N 0.08027 0.33413 0.48369 0.0
N959 N 0.06336 0.32574 0.53216 0.0
C960 C 0.07896 0.33044 0.53505 0.0
C961 C 0.08812 0.33481 0.50868 0.0
C962 C 0.78564 0.72968 0.56299 0.0
C963 C 0.80057 0.73066 0.56559 0.0
C964 C 0.78079 0.73352 0.53674 0.0
C965 C 0.79071 0.73866 0.51197 0.0
H966 H 0.77748 0.72563 0.58128 0.0
H967 H 0.76916 0.73248 0.53585 0.0
S968 S 0.8311 0.74357 0.50732 0.0
N969 N 0.82538 0.73748 0.54117 0.0
N970 N 0.81622 0.74452 0.49178 0.0
C971 C 0.80574 0.73987 0.51433 0.0
C972 C 0.81066 0.73587 0.54106 0.0
C973 C 0.38617 0.03675 0.51583 0.0
C974 C 0.386 1.02209 0.51819 0.0
C975 C 0.39236 0.04818 0.53814 0.0
C976 C 0.39853 0.0454 0.56398 0.0
H977 H 0.38151 0.03946 0.49647 0.0
H978 H 0.39207 0.0592 0.53532 0.0
S979 S 0.40092 1.00895 0.58109 0.0
N980 N 0.39252 1.00541 0.54859 0.0
N981 N 0.40432 0.02692 0.59031 0.0
C982 C 0.39849 0.03081 0.5666 0.0
C983 C 0.39224 1.01919 0.54378 0.0
C984 C 0.78758 0.03961 0.52167 0.0
C985 C 0.79261 0.02852 0.51455 0.0
C986 C 0.79246 0.0486 0.54751 0.0
C987 C 0.80249 0.04681 0.56753 0.0
H988 H 0.77982 0.04142 0.50705 0.0
H989 H 0.78807 0.0568 0.55213 0.0
S990 S 0.81931 1.01961 0.55913 0.0
N991 N 0.80834 1.01637 0.5297 0.0
N992 N 0.81766 0.03338 0.578 0.0
C993 C 0.80775 0.03588 0.56057 0.0
C994 C 0.80283 0.02676 0.53417 0.0
C995 C 0.10424 0.7324 0.53347 0.0
C996 C 0.1037 0.74134 0.50955 0.0
C997 C 0.09364 0.72845 0.55712 0.0
C998 C 0.08192 0.7331 0.55765 0.0
H999 H 0.11288 0.72832 0.53383 0.0
H1000 H 0.09436 0.72133 0.57474 0.0
S1001 S 0.07572 0.75707 0.50095 0.0
N1002 N 0.09056 0.75493 0.48825 0.0
N1003 N 0.07088 0.74774 0.5327 0.0
C1004 C 0.08146 0.74231 0.53417 0.0
C1005 C 0.09228 0.74639 0.51019 0.0
C1006 C 0.40877 0.33921 0.51219 0.0
C1007 C 0.39457 0.33982 0.51019 0.0
C1008 C 0.41269 0.33367 0.53752 0.0
C1009 C 0.40252 0.32835 0.56192 0.0
H1010 H 0.41697 0.34305 0.49395 0.0
H1011 H 0.42364 0.33319 0.53771 0.0
S1012 S 0.36409 0.32787 0.56838 0.0
N1013 N 0.3704 0.33483 0.53517 0.0
N1014 N 0.37783 0.32458 0.58284 0.0
C1015 C 0.38838 0.32911 0.56043 0.0
C1016 C 0.38442 0.33484 0.53464 0.0
loop_
_geom_bond_atom_site_label_1
_geom_bond_atom_site_label_2
_geom_bond_distance
_geom_bond_site_symmetry_2
_ccdc_geom_bond_type
C0 C1 1.264 . S
C0 C5 1.479 1_545 S
C0 C10 1.465 . S
C1 C0 1.264 . S
C1 C3 1.339 1_545 S
C1 H28 0.931 . S
C2 C3 1.395 . S
C2 C4 1.320 . S
C3 C1 1.339 1_565 S
C3 C2 1.395 . S
C3 H29 0.929 . S
C4 C2 1.320 . S
C4 C5 1.405 . S
C4 H30 0.930 . S
C5 C0 1.479 1_565 S
C5 C4 1.405 . S
C5 H31 0.931 . S
U6 O7 2.454 . S
U6 O8 2.458 . S
U6 C9 2.984 . S
U6 C10 2.847 . S
U6 C23 2.882 1_554 S
U6 O24 2.441 . S
U6 O25 2.420 . S
U6 O26 2.455 1_554 S
U6 O27 2.449 . S
O7 U6 2.454 . S
O7 C9 1.353 . S
O8 U6 2.458 . S
O8 C9 1.286 . S
C9 U6 2.984 . S
C9 O7 1.353 . S
C9 O8 1.286 . S
C9 C11 1.363 . S
C10 C0 1.465 . S
C10 U6 2.847 . S
C10 O24 1.249 . S
C10 O25 1.202 . S
C11 C9 1.363 . S
C11 C13 1.408 . S
C11 C16 1.342 1_554 S
C12 C13 1.310 . S
C12 C15 1.461 . S
C12 H32 0.932 . S
C13 C11 1.408 . S
C13 C12 1.310 . S
C13 H33 0.930 . S
C14 C15 1.474 1_556 S
C14 C16 1.285 . S
C14 H34 0.929 . S
C15 C12 1.461 . S
C15 C14 1.474 1_554 S
C16 C11 1.342 1_556 S
C16 C14 1.285 . S
C16 H35 0.930 . S
C17 C20 1.424 . S
C17 C22 1.245 . S
C17 C23 1.428 . S
C18 C21 1.260 . S
C18 C22 1.477 . S
C18 H36 0.932 . S
C19 C20 1.384 . S
C19 C21 1.479 . S
C19 H37 0.929 . S
C20 C17 1.424 . S
C20 C19 1.384 . S
C20 H38 0.928 . S
C21 C18 1.260 . S
C21 C19 1.479 . S
C22 C17 1.245 . S
C22 C18 1.477 . S
C22 H39 0.932 . S
C23 U6 2.882 1_556 S
C23 C17 1.428 . S
C23 O26 1.301 . S
C23 O27 1.282 1_556 S
O24 U6 2.441 . S
O24 C10 1.249 . S
O25 U6 2.420 . S
O25 C10 1.202 . S
O26 U6 2.455 1_556 S
O26 C23 1.301 . S
O27 U6 2.449 . S
O27 C23 1.282 1_554 S
H28 C1 0.931 . S
H29 C3 0.929 . S
H30 C4 0.930 . S
H31 C5 0.931 . S
H32 C12 0.932 . S
H33 C13 0.930 . S
H34 C14 0.929 . S
H35 C16 0.930 . S
H36 C18 0.932 . S
H37 C19 0.929 . S
H38 C20 0.928 . S
H39 C22 0.932 . S
C40 C41 1.264 . S
C40 C45 1.479 . S
C40 C50 1.465 . S
C41 C40 1.264 . S
C41 C43 1.339 . S
C41 H68 0.931 . S
C42 C43 1.395 . S
C42 C44 1.320 . S
C43 C41 1.339 . S
C43 C42 1.395 . S
C43 H69 0.929 . S
C44 C42 1.320 . S
C44 C45 1.405 . S
C44 H70 0.930 . S
C45 C40 1.479 . S
C45 C44 1.405 . S
C45 H71 0.931 . S
U46 O47 2.454 1_554 S
U46 O48 2.458 . S
U46 C49 2.984 . S
U46 C50 2.847 1_554 S
U46 C63 2.882 . S
U46 O64 2.441 1_554 S
U46 O65 2.420 1_554 S
U46 O66 2.455 . S
U46 O67 2.449 . S
O47 U46 2.454 1_556 S
O47 C49 1.353 1_556 S
O48 U46 2.458 . S
O48 C49 1.286 . S
C49 U46 2.984 . S
C49 O47 1.353 1_554 S
C49 O48 1.286 . S
C49 C51 1.363 . S
C50 C40 1.465 . S
C50 U46 2.847 1_556 S
C50 O64 1.249 . S
C50 O65 1.202 . S
C51 C49 1.363 . S
C51 C53 1.408 1_554 S
C51 C56 1.342 . S
C52 C53 1.310 . S
C52 C55 1.461 1_556 S
C52 H72 0.932 . S
C53 C51 1.408 1_556 S
C53 C52 1.310 . S
C53 H73 0.930 . S
C54 C55 1.474 . S
C54 C56 1.285 . S
C54 H74 0.929 . S
C55 C52 1.461 1_554 S
C55 C54 1.474 . S
C56 C51 1.342 . S
C56 C54 1.285 . S
C56 H75 0.930 . S
C57 C60 1.424 . S
C57 C62 1.245 . S
C57 C63 1.428 . S
C58 C61 1.260 . S
C58 C62 1.477 . S
C58 H76 0.932 . S
C59 C60 1.384 . S
C59 C61 1.479 . S
C59 H77 0.929 . S
C60 C57 1.424 . S
C60 C59 1.384 . S
C60 H78 0.928 . S
C61 C58 1.260 . S
C61 C59 1.479 . S
C62 C57 1.245 . S
C62 C58 1.477 . S
C62 H79 0.932 . S
C63 U46 2.882 . S
C63 C57 1.428 . S
C63 O66 1.301 . S
C63 O67 1.282 . S
O64 U46 2.441 1_556 S
O64 C50 1.249 . S
O65 U46 2.420 1_556 S
O65 C50 1.202 . S
O66 U46 2.455 . S
O66 C63 1.301 . S
O67 U46 2.449 . S
O67 C63 1.282 . S
H68 C41 0.931 . S
H69 C43 0.929 . S
H70 C44 0.930 . S
H71 C45 0.931 . S
H72 C52 0.932 . S
H73 C53 0.930 . S
H74 C54 0.929 . S
H75 C56 0.930 . S
H76 C58 0.932 . S
H77 C59 0.929 . S
H78 C60 0.928 . S
H79 C62 0.932 . S
C80 C81 1.264 . S
C80 C85 1.479 . S
C80 C90 1.465 . S
C81 C80 1.264 . S
C81 C83 1.339 . S
C81 H108 0.931 . S
C82 C83 1.395 . S
C82 C84 1.320 . S
C83 C81 1.339 . S
C83 C82 1.395 . S
C83 H109 0.929 . S
C84 C82 1.320 . S
C84 C85 1.405 . S
C84 H110 0.930 . S
C85 C80 1.479 . S
C85 C84 1.405 . S
C85 H111 0.931 . S
U86 O87 2.454 . S
U86 O88 2.458 1_554 S
U86 C89 2.984 . S
U86 C90 2.847 . S
U86 C103 2.882 1_554 S
U86 O104 2.441 . S
U86 O105 2.420 . S
U86 O106 2.455 1_554 S
U86 O107 2.449 1_554 S
O87 U86 2.454 . S
O87 C89 1.353 . S
O88 U86 2.458 1_556 S
O88 C89 1.286 1_556 S
C89 U86 2.984 . S
C89 O87 1.353 . S
C89 O88 1.286 1_554 S
C89 C91 1.363 . S
C90 C80 1.465 . S
C90 U86 2.847 . S
C90 O104 1.249 . S
C90 O105 1.202 . S
C91 C89 1.363 . S
C91 C93 1.408 . S
C91 C96 1.342 1_554 S
C92 C93 1.310 . S
C92 C95 1.461 . S
C92 H112 0.932 . S
C93 C91 1.408 . S
C93 C92 1.310 . S
C93 H113 0.930 . S
C94 C95 1.474 1_556 S
C94 C96 1.285 . S
C94 H114 0.929 . S
C95 C92 1.461 . S
C95 C94 1.474 1_554 S
C96 C91 1.342 1_556 S
C96 C94 1.285 . S
C96 H115 0.930 . S
C97 C100 1.424 . S
C97 C102 1.245 . S
C97 C103 1.428 . S
C98 C101 1.260 . S
C98 C102 1.477 . S
C98 H116 0.932 . S
C99 C100 1.384 . S
C99 C101 1.479 . S
C99 H117 0.929 . S
C100 C97 1.424 . S
C100 C99 1.384 . S
C100 H118 0.928 . S
C101 C98 1.260 . S
C101 C99 1.479 . S
C102 C97 1.245 . S
C102 C98 1.477 . S
C102 H119 0.932 . S
C103 U86 2.882 1_556 S
C103 C97 1.428 . S
C103 O106 1.301 . S
C103 O107 1.282 . S
O104 U86 2.441 . S
O104 C90 1.249 . S
O105 U86 2.420 . S
O105 C90 1.202 . S
O106 U86 2.455 1_556 S
O106 C103 1.301 . S
O107 U86 2.449 1_556 S
O107 C103 1.282 . S
H108 C81 0.931 . S
H109 C83 0.929 . S
H110 C84 0.930 . S
H111 C85 0.931 . S
H112 C92 0.932 . S
H113 C93 0.930 . S
H114 C94 0.929 . S
H115 C96 0.930 . S
H116 C98 0.932 . S
H117 C99 0.929 . S
H118 C100 0.928 . S
H119 C102 0.932 . S
C120 C121 1.264 . S
C120 C125 1.479 . S
C120 C130 1.465 . S
C121 C120 1.264 . S
C121 C123 1.339 . S
C121 H148 0.931 . S
C122 C123 1.395 . S
C122 C124 1.320 . S
C123 C121 1.339 . S
C123 C122 1.395 . S
C123 H149 0.929 . S
C124 C122 1.320 . S
C124 C125 1.405 . S
C124 H150 0.930 . S
C125 C120 1.479 . S
C125 C124 1.405 . S
C125 H151 0.931 . S
U126 O127 2.454 1_554 S
U126 O128 2.458 . S
U126 C129 2.984 . S
U126 C130 2.847 1_554 S
U126 C143 2.882 . S
U126 O144 2.441 1_554 S
U126 O145 2.420 1_554 S
U126 O146 2.455 . S
U126 O147 2.449 . S
O127 U126 2.454 1_556 S
O127 C129 1.353 1_556 S
O128 U126 2.458 . S
O128 C129 1.286 . S
C129 U126 2.984 . S
C129 O127 1.353 1_554 S
C129 O128 1.286 . S
C129 C131 1.363 . S
C130 C120 1.465 . S
C130 U126 2.847 1_556 S
C130 O144 1.249 . S
C130 O145 1.202 . S
C131 C129 1.363 . S
C131 C133 1.408 1_554 S
C131 C136 1.342 . S
C132 C133 1.310 . S
C132 C135 1.461 1_556 S
C132 H152 0.932 . S
C133 C131 1.408 1_556 S
C133 C132 1.310 . S
C133 H153 0.930 . S
C134 C135 1.474 . S
C134 C136 1.285 . S
C134 H154 0.929 . S
C135 C132 1.461 1_554 S
C135 C134 1.474 . S
C136 C131 1.342 . S
C136 C134 1.285 . S
C136 H155 0.930 . S
C137 C140 1.424 . S
C137 C142 1.245 . S
C137 C143 1.428 . S
C138 C141 1.260 . S
C138 C142 1.477 1_565 S
C138 H156 0.932 . S
C139 C140 1.384 . S
C139 C141 1.479 1_545 S
C139 H157 0.929 . S
C140 C137 1.424 . S
C140 C139 1.384 . S
C140 H158 0.928 . S
C141 C138 1.260 . S
C141 C139 1.479 1_565 S
C142 C137 1.245 . S
C142 C138 1.477 1_545 S
C142 H159 0.932 . S
C143 U126 2.882 . S
C143 C137 1.428 . S
C143 O146 1.301 . S
C143 O147 1.282 . S
O144 U126 2.441 1_556 S
O144 C130 1.249 . S
O145 U126 2.420 1_556 S
O145 C130 1.202 . S
O146 U126 2.455 . S
O146 C143 1.301 . S
O147 U126 2.449 . S
O147 C143 1.282 . S
H148 C121 0.931 . S
H149 C123 0.929 . S
H150 C124 0.930 . S
H151 C125 0.931 . S
H152 C132 0.932 . S
H153 C133 0.930 . S
H154 C134 0.929 . S
H155 C136 0.930 . S
H156 C138 0.932 . S
H157 C139 0.929 . S
H158 C140 0.928 . S
H159 C142 0.932 . S
C160 C161 1.264 . S
C160 C165 1.479 . S
C160 C170 1.465 . S
C161 C160 1.264 . S
C161 C163 1.339 . S
C161 H188 0.931 . S
C162 C163 1.395 . S
C162 C164 1.320 . S
C163 C161 1.339 . S
C163 C162 1.395 . S
C163 H189 0.929 . S
C164 C162 1.320 . S
C164 C165 1.405 . S
C164 H190 0.930 . S
C165 C160 1.479 . S
C165 C164 1.405 . S
C165 H191 0.931 . S
U166 O167 2.454 1_554 S
U166 O168 2.458 . S
U166 C169 2.984 . S
U166 C170 2.847 1_554 S
U166 C183 2.882 . S
U166 O184 2.441 1_554 S
U166 O185 2.420 1_554 S
U166 O186 2.455 . S
U166 O187 2.449 . S
O167 U166 2.454 1_556 S
O167 C169 1.353 1_556 S
O168 U166 2.458 . S
O168 C169 1.286 . S
C169 U166 2.984 . S
C169 O167 1.353 1_554 S
C169 O168 1.286 . S
C169 C171 1.363 . S
C170 C160 1.465 . S
C170 U166 2.847 1_556 S
C170 O184 1.249 . S
C170 O185 1.202 . S
C171 C169 1.363 . S
C171 C173 1.408 1_554 S
C171 C176 1.342 . S
C172 C173 1.310 . S
C172 C175 1.461 1_556 S
C172 H192 0.932 . S
C173 C171 1.408 1_556 S
C173 C172 1.310 . S
C173 H193 0.930 . S
C174 C175 1.474 . S
C174 C176 1.285 . S
C174 H194 0.929 . S
C175 C172 1.461 1_554 S
C175 C174 1.474 . S
C176 C171 1.342 . S
C176 C174 1.285 . S
C176 H195 0.930 . S
C177 C180 1.424 . S
C177 C182 1.245 . S
C177 C183 1.428 . S
C178 C181 1.260 . S
C178 C182 1.477 . S
C178 H196 0.932 . S
C179 C180 1.384 . S
C179 C181 1.479 . S
C179 H197 0.929 . S
C180 C177 1.424 . S
C180 C179 1.384 . S
C180 H198 0.928 . S
C181 C178 1.260 . S
C181 C179 1.479 . S
C182 C177 1.245 . S
C182 C178 1.477 . S
C182 H199 0.932 . S
C183 U166 2.882 . S
C183 C177 1.428 . S
C183 O186 1.301 . S
C183 O187 1.282 . S
O184 U166 2.441 1_556 S
O184 C170 1.249 . S
O185 U166 2.420 1_556 S
O185 C170 1.202 . S
O186 U166 2.455 . S
O186 C183 1.301 . S
O187 U166 2.449 . S
O187 C183 1.282 . S
H188 C161 0.931 . S
H189 C163 0.929 . S
H190 C164 0.930 . S
H191 C165 0.931 . S
H192 C172 0.932 . S
H193 C173 0.930 . S
H194 C174 0.929 . S
H195 C176 0.930 . S
H196 C178 0.932 . S
H197 C179 0.929 . S
H198 C180 0.928 . S
H199 C182 0.932 . S
C200 C201 1.264 . S
C200 C205 1.479 . S
C200 C210 1.465 . S
C201 C200 1.264 . S
C201 C203 1.339 . S
C201 H228 0.931 . S
C202 C203 1.395 . S
C202 C204 1.320 . S
C203 C201 1.339 . S
C203 C202 1.395 . S
C203 H229 0.929 . S
C204 C202 1.320 . S
C204 C205 1.405 . S
C204 H230 0.930 . S
C205 C200 1.479 . S
C205 C204 1.405 . S
C205 H231 0.931 . S
U206 O207 2.454 . S
U206 O208 2.458 1_554 S
U206 C209 2.984 . S
U206 C210 2.847 . S
U206 C223 2.882 1_554 S
U206 O224 2.441 . S
U206 O225 2.420 . S
U206 O226 2.455 1_554 S
U206 O227 2.449 1_554 S
O207 U206 2.454 . S
O207 C209 1.353 . S
O208 U206 2.458 1_556 S
O208 C209 1.286 1_556 S
C209 U206 2.984 . S
C209 O207 1.353 . S
C209 O208 1.286 1_554 S
C209 C211 1.363 . S
C210 C200 1.465 . S
C210 U206 2.847 . S
C210 O224 1.249 . S
C210 O225 1.202 . S
C211 C209 1.363 . S
C211 C213 1.408 . S
C211 C216 1.342 1_554 S
C212 C213 1.310 . S
C212 C215 1.461 . S
C212 H232 0.932 . S
C213 C211 1.408 . S
C213 C212 1.310 . S
C213 H233 0.930 . S
C214 C215 1.474 1_556 S
C214 C216 1.285 . S
C214 H234 0.929 . S
C215 C212 1.461 . S
C215 C214 1.474 1_554 S
C216 C211 1.342 1_556 S
C216 C214 1.285 . S
C216 H235 0.930 . S
C217 C220 1.424 . S
C217 C222 1.245 . S
C217 C223 1.428 . S
C218 C221 1.260 . S
C218 C222 1.477 . S
C218 H236 0.932 . S
C219 C220 1.384 . S
C219 C221 1.479 . S
C219 H237 0.929 . S
C220 C217 1.424 . S
C220 C219 1.384 . S
C220 H238 0.928 . S
C221 C218 1.260 . S
C221 C219 1.479 . S
C222 C217 1.245 . S
C222 C218 1.477 . S
C222 H239 0.932 . S
C223 U206 2.882 1_556 S
C223 C217 1.428 . S
C223 O226 1.301 . S
C223 O227 1.282 . S
O224 U206 2.441 . S
O224 C210 1.249 . S
O225 U206 2.420 . S
O225 C210 1.202 . S
O226 U206 2.455 1_556 S
O226 C223 1.301 . S
O227 U206 2.449 1_556 S
O227 C223 1.282 . S
H228 C201 0.931 . S
H229 C203 0.929 . S
H230 C204 0.930 . S
H231 C205 0.931 . S
H232 C212 0.932 . S
H233 C213 0.930 . S
H234 C214 0.929 . S
H235 C216 0.930 . S
H236 C218 0.932 . S
H237 C219 0.929 . S
H238 C220 0.928 . S
H239 C222 0.932 . S
C240 C241 1.264 . S
C240 C245 1.479 . S
C240 C250 1.465 . S
C241 C240 1.264 . S
C241 C243 1.339 . S
C241 H268 0.931 . S
C242 C243 1.395 . S
C242 C244 1.320 . S
C243 C241 1.339 . S
C243 C242 1.395 . S
C243 H269 0.929 . S
C244 C242 1.320 . S
C244 C245 1.405 . S
C244 H270 0.930 . S
C245 C240 1.479 . S
C245 C244 1.405 . S
C245 H271 0.931 . S
U246 O247 2.454 . S
U246 O248 2.458 . S
U246 C249 2.984 . S
U246 C250 2.847 . S
U246 C263 2.882 . S
U246 O264 2.441 . S
U246 O265 2.420 . S
U246 O266 2.455 . S
U246 O267 2.449 . S
O247 U246 2.454 . S
O247 C249 1.353 . S
O248 U246 2.458 . S
O248 C249 1.286 . S
C249 U246 2.984 . S
C249 O247 1.353 . S
C249 O248 1.286 . S
C249 C251 1.363 . S
C250 C240 1.465 . S
C250 U246 2.847 . S
C250 O264 1.249 . S
C250 O265 1.202 . S
C251 C249 1.363 . S
C251 C253 1.408 . S
C251 C256 1.342 . S
C252 C253 1.310 . S
C252 C255 1.461 . S
C252 H272 0.932 . S
C253 C251 1.408 . S
C253 C252 1.310 . S
C253 H273 0.930 . S
C254 C255 1.474 . S
C254 C256 1.285 . S
C254 H274 0.929 . S
C255 C252 1.461 . S
C255 C254 1.474 . S
C256 C251 1.342 . S
C256 C254 1.285 . S
C256 H275 0.930 . S
C257 C260 1.424 . S
C257 C262 1.245 . S
C257 C263 1.428 . S
C258 C261 1.260 . S
C258 C262 1.477 . S
C258 H276 0.932 . S
C259 C260 1.384 . S
C259 C261 1.479 . S
C259 H277 0.929 . S
C260 C257 1.424 . S
C260 C259 1.384 . S
C260 H278 0.928 . S
C261 C258 1.260 . S
C261 C259 1.479 . S
C262 C257 1.245 . S
C262 C258 1.477 . S
C262 H279 0.932 . S
C263 U246 2.882 . S
C263 C257 1.428 . S
C263 O266 1.301 . S
C263 O267 1.282 . S
O264 U246 2.441 . S
O264 C250 1.249 . S
O265 U246 2.420 . S
O265 C250 1.202 . S
O266 U246 2.455 . S
O266 C263 1.301 . S
O267 U246 2.449 . S
O267 C263 1.282 . S
H268 C241 0.931 . S
H269 C243 0.929 . S
H270 C244 0.930 . S
H271 C245 0.931 . S
H272 C252 0.932 . S
H273 C253 0.930 . S
H274 C254 0.929 . S
H275 C256 0.930 . S
H276 C258 0.932 . S
H277 C259 0.929 . S
H278 C260 0.928 . S
H279 C262 0.932 . S
C280 C281 1.264 . S
C280 C285 1.479 . S
C280 C290 1.465 . S
C281 C280 1.264 . S
C281 C283 1.339 . S
C281 H308 0.931 . S
C282 C283 1.395 . S
C282 C284 1.320 . S
C283 C281 1.339 . S
C283 C282 1.395 . S
C283 H309 0.929 . S
C284 C282 1.320 . S
C284 C285 1.405 . S
C284 H310 0.930 . S
C285 C280 1.479 . S
C285 C284 1.405 . S
C285 H311 0.931 . S
U286 O287 2.454 . S
U286 O288 2.458 . S
U286 C289 2.984 . S
U286 C290 2.847 . S
U286 C303 2.882 . S
U286 O304 2.441 . S
U286 O305 2.420 . S
U286 O306 2.455 . S
U286 O307 2.449 . S
O287 U286 2.454 . S
O287 C289 1.353 . S
O288 U286 2.458 . S
O288 C289 1.286 . S
C289 U286 2.984 . S
C289 O287 1.353 . S
C289 O288 1.286 . S
C289 C291 1.363 . S
C290 C280 1.465 . S
C290 U286 2.847 . S
C290 O304 1.249 . S
C290 O305 1.202 . S
C291 C289 1.363 . S
C291 C293 1.408 . S
C291 C296 1.342 . S
C292 C293 1.310 . S
C292 C295 1.461 . S
C292 H312 0.932 . S
C293 C291 1.408 . S
C293 C292 1.310 . S
C293 H313 0.930 . S
C294 C295 1.474 . S
C294 C296 1.285 . S
C294 H314 0.929 . S
C295 C292 1.461 . S
C295 C294 1.474 . S
C296 C291 1.342 . S
C296 C294 1.285 . S
C296 H315 0.930 . S
C297 C300 1.424 . S
C297 C302 1.245 . S
C297 C303 1.428 . S
C298 C301 1.260 . S
C298 C302 1.477 . S
C298 H316 0.932 . S
C299 C300 1.384 . S
C299 C301 1.479 . S
C299 H317 0.929 . S
C300 C297 1.424 . S
C300 C299 1.384 . S
C300 H318 0.928 . S
C301 C298 1.260 . S
C301 C299 1.479 . S
C302 C297 1.245 . S
C302 C298 1.477 . S
C302 H319 0.932 . S
C303 U286 2.882 . S
C303 C297 1.428 . S
C303 O306 1.301 . S
C303 O307 1.282 . S
O304 U286 2.441 . S
O304 C290 1.249 . S
O305 U286 2.420 . S
O305 C290 1.202 . S
O306 U286 2.455 . S
O306 C303 1.301 . S
O307 U286 2.449 . S
O307 C303 1.282 . S
H308 C281 0.931 . S
H309 C283 0.929 . S
H310 C284 0.930 . S
H311 C285 0.931 . S
H312 C292 0.932 . S
H313 C293 0.930 . S
H314 C294 0.929 . S
H315 C296 0.930 . S
H316 C298 0.932 . S
H317 C299 0.929 . S
H318 C300 0.928 . S
H319 C302 0.932 . S
C320 C321 1.264 . S
C320 C325 1.479 . S
C320 C330 1.465 . S
C321 C320 1.264 . S
C321 C323 1.339 . S
C321 H348 0.931 . S
C322 C323 1.395 . S
C322 C324 1.320 . S
C323 C321 1.339 . S
C323 C322 1.395 . S
C323 H349 0.929 . S
C324 C322 1.320 . S
C324 C325 1.405 . S
C324 H350 0.930 . S
C325 C320 1.479 . S
C325 C324 1.405 . S
C325 H351 0.931 . S
U326 O327 2.454 . S
U326 O328 2.458 . S
U326 C329 2.984 . S
U326 C330 2.847 . S
U326 C343 2.882 . S
U326 O344 2.441 . S
U326 O345 2.420 . S
U326 O346 2.455 . S
U326 O347 2.449 . S
O327 U326 2.454 . S
O327 C329 1.353 . S
O328 U326 2.458 . S
O328 C329 1.286 . S
C329 U326 2.984 . S
C329 O327 1.353 . S
C329 O328 1.286 . S
C329 C331 1.363 . S
C330 C320 1.465 . S
C330 U326 2.847 . S
C330 O344 1.249 . S
C330 O345 1.202 . S
C331 C329 1.363 . S
C331 C333 1.408 . S
C331 C336 1.342 . S
C332 C333 1.310 . S
C332 C335 1.461 . S
C332 H352 0.932 . S
C333 C331 1.408 . S
C333 C332 1.310 . S
C333 H353 0.930 . S
C334 C335 1.474 . S
C334 C336 1.285 . S
C334 H354 0.929 . S
C335 C332 1.461 . S
C335 C334 1.474 . S
C336 C331 1.342 . S
C336 C334 1.285 . S
C336 H355 0.930 . S
C337 C340 1.424 . S
C337 C342 1.245 . S
C337 C343 1.428 . S
C338 C341 1.260 . S
C338 C342 1.477 . S
C338 H356 0.932 . S
C339 C340 1.384 . S
C339 C341 1.479 . S
C339 H357 0.929 . S
C340 C337 1.424 . S
C340 C339 1.384 . S
C340 H358 0.928 . S
C341 C338 1.260 . S
C341 C339 1.479 . S
C342 C337 1.245 . S
C342 C338 1.477 . S
C342 H359 0.932 . S
C343 U326 2.882 . S
C343 C337 1.428 . S
C343 O346 1.301 . S
C343 O347 1.282 . S
O344 U326 2.441 . S
O344 C330 1.249 . S
O345 U326 2.420 . S
O345 C330 1.202 . S
O346 U326 2.455 . S
O346 C343 1.301 . S
O347 U326 2.449 . S
O347 C343 1.282 . S
H348 C321 0.931 . S
H349 C323 0.929 . S
H350 C324 0.930 . S
H351 C325 0.931 . S
H352 C332 0.932 . S
H353 C333 0.930 . S
H354 C334 0.929 . S
H355 C336 0.930 . S
H356 C338 0.932 . S
H357 C339 0.929 . S
H358 C340 0.928 . S
H359 C342 0.932 . S
C360 C361 1.264 . S
C360 C365 1.479 . S
C360 C370 1.465 . S
C361 C360 1.264 . S
C361 C363 1.339 . S
C361 H388 0.931 . S
C362 C363 1.395 . S
C362 C364 1.320 . S
C363 C361 1.339 . S
C363 C362 1.395 . S
C363 H389 0.929 . S
C364 C362 1.320 . S
C364 C365 1.405 . S
C364 H390 0.930 . S
C365 C360 1.479 . S
C365 C364 1.405 . S
C365 H391 0.931 . S
U366 O367 2.454 . S
U366 O368 2.458 . S
U366 C369 2.984 . S
U366 C370 2.847 . S
U366 C383 2.882 . S
U366 O384 2.441 . S
U366 O385 2.420 . S
U366 O386 2.455 . S
U366 O387 2.449 . S
O367 U366 2.454 . S
O367 C369 1.353 . S
O368 U366 2.458 . S
O368 C369 1.286 . S
C369 U366 2.984 . S
C369 O367 1.353 . S
C369 O368 1.286 . S
C369 C371 1.363 . S
C370 C360 1.465 . S
C370 U366 2.847 . S
C370 O384 1.249 . S
C370 O385 1.202 . S
C371 C369 1.363 . S
C371 C373 1.408 . S
C371 C376 1.342 . S
C372 C373 1.310 . S
C372 C375 1.461 . S
C372 H392 0.932 . S
C373 C371 1.408 . S
C373 C372 1.310 . S
C373 H393 0.930 . S
C374 C375 1.474 . S
C374 C376 1.285 . S
C374 H394 0.929 . S
C375 C372 1.461 . S
C375 C374 1.474 . S
C376 C371 1.342 . S
C376 C374 1.285 . S
C376 H395 0.930 . S
C377 C380 1.424 . S
C377 C382 1.245 . S
C377 C383 1.428 . S
C378 C381 1.260 . S
C378 C382 1.477 . S
C378 H396 0.932 . S
C379 C380 1.384 . S
C379 C381 1.479 . S
C379 H397 0.929 . S
C380 C377 1.424 . S
C380 C379 1.384 . S
C380 H398 0.928 . S
C381 C378 1.260 . S
C381 C379 1.479 . S
C382 C377 1.245 . S
C382 C378 1.477 . S
C382 H399 0.932 . S
C383 U366 2.882 . S
C383 C377 1.428 . S
C383 O386 1.301 . S
C383 O387 1.282 . S
O384 U366 2.441 . S
O384 C370 1.249 . S
O385 U366 2.420 . S
O385 C370 1.202 . S
O386 U366 2.455 . S
O386 C383 1.301 . S
O387 U366 2.449 . S
O387 C383 1.282 . S
H388 C361 0.931 . S
H389 C363 0.929 . S
H390 C364 0.930 . S
H391 C365 0.931 . S
H392 C372 0.932 . S
H393 C373 0.930 . S
H394 C374 0.929 . S
H395 C376 0.930 . S
H396 C378 0.932 . S
H397 C379 0.929 . S
H398 C380 0.928 . S
H399 C382 0.932 . S
C400 C401 1.264 . S
C400 C405 1.479 . S
C400 C410 1.465 . S
C401 C400 1.264 . S
C401 C403 1.339 . S
C401 H428 0.931 . S
C402 C403 1.395 . S
C402 C404 1.320 . S
C403 C401 1.339 . S
C403 C402 1.395 . S
C403 H429 0.929 . S
C404 C402 1.320 . S
C404 C405 1.405 . S
C404 H430 0.930 . S
C405 C400 1.479 . S
C405 C404 1.405 . S
C405 H431 0.931 . S
U406 O407 2.454 . S
U406 O408 2.458 . S
U406 C409 2.984 . S
U406 C410 2.847 . S
U406 C423 2.882 . S
U406 O424 2.441 . S
U406 O425 2.420 . S
U406 O426 2.455 . S
U406 O427 2.449 . S
O407 U406 2.454 . S
O407 C409 1.353 . S
O408 U406 2.458 . S
O408 C409 1.286 . S
C409 U406 2.984 . S
C409 O407 1.353 . S
C409 O408 1.286 . S
C409 C411 1.363 . S
C410 C400 1.465 . S
C410 U406 2.847 . S
C410 O424 1.249 . S
C410 O425 1.202 . S
C411 C409 1.363 . S
C411 C413 1.408 . S
C411 C416 1.342 . S
C412 C413 1.310 . S
C412 C415 1.461 . S
C412 H432 0.932 . S
C413 C411 1.408 . S
C413 C412 1.310 . S
C413 H433 0.930 . S
C414 C415 1.474 . S
C414 C416 1.285 . S
C414 H434 0.929 . S
C415 C412 1.461 . S
C415 C414 1.474 . S
C416 C411 1.342 . S
C416 C414 1.285 . S
C416 H435 0.930 . S
C417 C420 1.424 . S
C417 C422 1.245 . S
C417 C423 1.428 . S
C418 C421 1.260 . S
C418 C422 1.477 . S
C418 H436 0.932 . S
C419 C420 1.384 . S
C419 C421 1.479 . S
C419 H437 0.929 1_565 S
C420 C417 1.424 . S
C420 C419 1.384 . S
C420 H438 0.928 . S
C421 C418 1.260 . S
C421 C419 1.479 . S
C422 C417 1.245 . S
C422 C418 1.477 . S
C422 H439 0.932 . S
C423 U406 2.882 . S
C423 C417 1.428 . S
C423 O426 1.301 . S
C423 O427 1.282 . S
O424 U406 2.441 . S
O424 C410 1.249 . S
O425 U406 2.420 . S
O425 C410 1.202 . S
O426 U406 2.455 . S
O426 C423 1.301 . S
O427 U406 2.449 . S
O427 C423 1.282 . S
H428 C401 0.931 . S
H429 C403 0.929 . S
H430 C404 0.930 . S
H431 C405 0.931 . S
H432 C412 0.932 . S
H433 C413 0.930 . S
H434 C414 0.929 . S
H435 C416 0.930 . S
H436 C418 0.932 . S
H437 C419 0.929 1_545 S
H438 C420 0.928 . S
H439 C422 0.932 . S
C440 C441 1.264 . S
C440 C445 1.479 . S
C440 C450 1.465 . S
C441 C440 1.264 . S
C441 C443 1.339 . S
C441 H468 0.931 . S
C442 C443 1.395 . S
C442 C444 1.320 . S
C443 C441 1.339 . S
C443 C442 1.395 . S
C443 H469 0.929 . S
C444 C442 1.320 . S
C444 C445 1.405 . S
C444 H470 0.930 . S
C445 C440 1.479 . S
C445 C444 1.405 . S
C445 H471 0.931 . S
U446 O447 2.454 . S
U446 O448 2.458 . S
U446 C449 2.984 . S
U446 C450 2.847 . S
U446 C463 2.882 . S
U446 O464 2.441 . S
U446 O465 2.420 . S
U446 O466 2.455 . S
U446 O467 2.449 . S
O447 U446 2.454 . S
O447 C449 1.353 . S
O448 U446 2.458 . S
O448 C449 1.286 . S
C449 U446 2.984 . S
C449 O447 1.353 . S
C449 O448 1.286 . S
C449 C451 1.363 . S
C450 C440 1.465 . S
C450 U446 2.847 . S
C450 O464 1.249 . S
C450 O465 1.202 . S
C451 C449 1.363 . S
C451 C453 1.408 . S
C451 C456 1.342 . S
C452 C453 1.310 . S
C452 C455 1.461 . S
C452 H472 0.932 . S
C453 C451 1.408 . S
C453 C452 1.310 . S
C453 H473 0.930 . S
C454 C455 1.474 . S
C454 C456 1.285 . S
C454 H474 0.929 . S
C455 C452 1.461 . S
C455 C454 1.474 . S
C456 C451 1.342 . S
C456 C454 1.285 . S
C456 H475 0.930 . S
C457 C460 1.424 . S
C457 C462 1.245 . S
C457 C463 1.428 . S
C458 C461 1.260 . S
C458 C462 1.477 . S
C458 H476 0.932 . S
C459 C460 1.384 . S
C459 C461 1.479 . S
C459 H477 0.929 . S
C460 C457 1.424 . S
C460 C459 1.384 . S
C460 H478 0.928 . S
C461 C458 1.260 . S
C461 C459 1.479 . S
C462 C457 1.245 . S
C462 C458 1.477 . S
C462 H479 0.932 . S
C463 U446 2.882 . S
C463 C457 1.428 . S
C463 O466 1.301 . S
C463 O467 1.282 . S
O464 U446 2.441 . S
O464 C450 1.249 . S
O465 U446 2.420 . S
O465 C450 1.202 . S
O466 U446 2.455 . S
O466 C463 1.301 . S
O467 U446 2.449 . S
O467 C463 1.282 . S
H468 C441 0.931 . S
H469 C443 0.929 . S
H470 C444 0.930 . S
H471 C445 0.931 . S
H472 C452 0.932 . S
H473 C453 0.930 . S
H474 C454 0.929 . S
H475 C456 0.930 . S
H476 C458 0.932 . S
H477 C459 0.929 . S
H478 C460 0.928 . S
H479 C462 0.932 . S
C480 C481 1.264 . S
C480 C485 1.479 . S
C480 C490 1.465 . S
C481 C480 1.264 . S
C481 C483 1.339 . S
C481 H508 0.931 . S
C482 C483 1.395 . S
C482 C484 1.320 . S
C483 C481 1.339 . S
C483 C482 1.395 . S
C483 H509 0.929 . S
C484 C482 1.320 . S
C484 C485 1.405 . S
C484 H510 0.930 . S
C485 C480 1.479 . S
C485 C484 1.405 . S
C485 H511 0.931 . S
U486 O487 2.454 . S
U486 O488 2.458 . S
U486 C489 2.984 . S
U486 C490 2.847 . S
U486 C503 2.882 . S
U486 O504 2.441 . S
U486 O505 2.420 . S
U486 O506 2.455 . S
U486 O507 2.449 . S
O487 U486 2.454 . S
O487 C489 1.353 . S
O488 U486 2.458 . S
O488 C489 1.286 . S
C489 U486 2.984 . S
C489 O487 1.353 . S
C489 O488 1.286 . S
C489 C491 1.363 . S
C490 C480 1.465 . S
C490 U486 2.847 . S
C490 O504 1.249 . S
C490 O505 1.202 . S
C491 C489 1.363 . S
C491 C493 1.408 . S
C491 C496 1.342 . S
C492 C493 1.310 . S
C492 C495 1.461 . S
C492 H512 0.932 . S
C493 C491 1.408 . S
C493 C492 1.310 . S
C493 H513 0.930 . S
C494 C495 1.474 . S
C494 C496 1.285 . S
C494 H514 0.929 . S
C495 C492 1.461 . S
C495 C494 1.474 . S
C496 C491 1.342 . S
C496 C494 1.285 . S
C496 H515 0.930 . S
C497 C500 1.424 . S
C497 C502 1.245 . S
C497 C503 1.428 . S
C498 C501 1.260 . S
C498 C502 1.477 . S
C498 H516 0.932 . S
C499 C500 1.384 . S
C499 C501 1.479 . S
C499 H517 0.929 . S
C500 C497 1.424 . S
C500 C499 1.384 . S
C500 H518 0.928 . S
C501 C498 1.260 . S
C501 C499 1.479 . S
C502 C497 1.245 . S
C502 C498 1.477 . S
C502 H519 0.932 . S
C503 U486 2.882 . S
C503 C497 1.428 . S
C503 O506 1.301 . S
C503 O507 1.282 . S
O504 U486 2.441 . S
O504 C490 1.249 . S
O505 U486 2.420 . S
O505 C490 1.202 . S
O506 U486 2.455 . S
O506 C503 1.301 . S
O507 U486 2.449 . S
O507 C503 1.282 . S
H508 C481 0.931 . S
H509 C483 0.929 . S
H510 C484 0.930 . S
H511 C485 0.931 . S
H512 C492 0.932 . S
H513 C493 0.930 . S
H514 C494 0.929 . S
H515 C496 0.930 . S
H516 C498 0.932 . S
H517 C499 0.929 . S
H518 C500 0.928 . S
H519 C502 0.932 . S
C520 C521 1.264 . S
C520 C525 1.479 . S
C520 C530 1.465 . S
C521 C520 1.264 . S
C521 C523 1.339 . S
C521 H548 0.931 . S
C522 C523 1.395 . S
C522 C524 1.320 . S
C523 C521 1.339 . S
C523 C522 1.395 . S
C523 H549 0.929 . S
C524 C522 1.320 . S
C524 C525 1.405 . S
C524 H550 0.930 . S
C525 C520 1.479 . S
C525 C524 1.405 . S
C525 H551 0.931 . S
U526 O527 2.454 . S
U526 O528 2.458 . S
U526 C529 2.984 . S
U526 C530 2.847 . S
U526 C543 2.882 . S
U526 O544 2.441 . S
U526 O545 2.420 . S
U526 O546 2.455 . S
U526 O547 2.449 . S
O527 U526 2.454 . S
O527 C529 1.353 . S
O528 U526 2.458 . S
O528 C529 1.286 . S
C529 U526 2.984 . S
C529 O527 1.353 . S
C529 O528 1.286 . S
C529 C531 1.363 . S
C530 C520 1.465 . S
C530 U526 2.847 . S
C530 O544 1.249 . S
C530 O545 1.202 . S
C531 C529 1.363 . S
C531 C533 1.408 . S
C531 C536 1.342 . S
C532 C533 1.310 . S
C532 C535 1.461 . S
C532 H552 0.932 . S
C533 C531 1.408 . S
C533 C532 1.310 . S
C533 H553 0.930 . S
C534 C535 1.474 . S
C534 C536 1.285 . S
C534 H554 0.929 . S
C535 C532 1.461 . S
C535 C534 1.474 . S
C536 C531 1.342 . S
C536 C534 1.285 . S
C536 H555 0.930 . S
C537 C540 1.424 . S
C537 C542 1.245 . S
C537 C543 1.428 . S
C538 C541 1.260 . S
C538 C542 1.477 . S
C538 H556 0.932 . S
C539 C540 1.384 . S
C539 C541 1.479 . S
C539 H557 0.929 . S
C540 C537 1.424 . S
C540 C539 1.384 . S
C540 H558 0.928 . S
C541 C538 1.260 . S
C541 C539 1.479 . S
C542 C537 1.245 . S
C542 C538 1.477 . S
C542 H559 0.932 . S
C543 U526 2.882 . S
C543 C537 1.428 . S
C543 O546 1.301 . S
C543 O547 1.282 . S
O544 U526 2.441 . S
O544 C530 1.249 . S
O545 U526 2.420 . S
O545 C530 1.202 . S
O546 U526 2.455 . S
O546 C543 1.301 . S
O547 U526 2.449 . S
O547 C543 1.282 . S
H548 C521 0.931 . S
H549 C523 0.929 . S
H550 C524 0.930 . S
H551 C525 0.931 . S
H552 C532 0.932 . S
H553 C533 0.930 . S
H554 C534 0.929 . S
H555 C536 0.930 . S
H556 C538 0.932 . S
H557 C539 0.929 . S
H558 C540 0.928 . S
H559 C542 0.932 . S
C560 C561 1.264 . S
C560 C565 1.479 . S
C560 C570 1.465 . S
C561 C560 1.264 . S
C561 C563 1.339 . S
C561 H588 0.931 . S
C562 C563 1.395 . S
C562 C564 1.320 . S
C563 C561 1.339 . S
C563 C562 1.395 . S
C563 H589 0.929 . S
C564 C562 1.320 . S
C564 C565 1.405 . S
C564 H590 0.930 . S
C565 C560 1.479 . S
C565 C564 1.405 . S
C565 H591 0.931 1_455 S
U566 O567 2.415 1_455 S
U566 O568 2.435 1_455 S
U566 C569 2.952 1_455 S
U566 C570 2.848 . S
U566 C583 2.913 . S
U566 O584 2.426 1_455 S
U566 O585 2.439 . S
U566 O586 2.475 . S
U566 O587 2.487 . S
O567 U566 2.415 1_655 S
O567 C569 1.353 . S
O568 U566 2.435 1_655 S
O568 C569 1.286 . S
C569 U566 2.952 1_655 S
C569 O567 1.353 . S
C569 O568 1.286 . S
C569 C571 1.363 . S
C570 C560 1.465 . S
C570 U566 2.848 . S
C570 O584 1.249 1_455 S
C570 O585 1.202 . S
C571 C569 1.363 . S
C571 C573 1.408 . S
C571 C576 1.342 . S
C572 C573 1.310 . S
C572 C575 1.461 . S
C572 H592 0.932 . S
C573 C571 1.408 . S
C573 C572 1.310 . S
C573 H593 0.930 . S
C574 C575 1.474 . S
C574 C576 1.285 . S
C574 H594 0.929 . S
C575 C572 1.461 . S
C575 C574 1.474 . S
C576 C571 1.342 . S
C576 C574 1.285 . S
C576 H595 0.930 . S
C577 C580 1.424 . S
C577 C582 1.245 . S
C577 C583 1.428 . S
C578 C581 1.260 . S
C578 C582 1.477 . S
C578 H596 0.932 . S
C579 C580 1.384 . S
C579 C581 1.479 . S
C579 H597 0.929 . S
C580 C577 1.424 . S
C580 C579 1.384 . S
C580 H598 0.928 . S
C581 C578 1.260 . S
C581 C579 1.479 . S
C582 C577 1.245 . S
C582 C578 1.477 . S
C582 H599 0.932 . S
C583 U566 2.913 . S
C583 C577 1.428 . S
C583 O586 1.301 . S
C583 O587 1.282 . S
O584 U566 2.426 1_655 S
O584 C570 1.249 1_655 S
O585 U566 2.439 . S
O585 C570 1.202 . S
O586 U566 2.475 . S
O586 C583 1.301 . S
O587 U566 2.487 . S
O587 C583 1.282 . S
H588 C561 0.931 . S
H589 C563 0.929 . S
H590 C564 0.930 . S
H591 C565 0.931 1_655 S
H592 C572 0.932 . S
H593 C573 0.930 . S
H594 C574 0.929 . S
H595 C576 0.930 . S
H596 C578 0.932 . S
H597 C579 0.929 . S
H598 C580 0.928 . S
H599 C582 0.932 . S
C600 C601 1.264 . S
C600 C605 1.479 . S
C600 C610 1.465 . S
C601 C600 1.264 . S
C601 C603 1.339 . S
C601 H628 0.931 . S
C602 C603 1.395 . S
C602 C604 1.320 . S
C603 C601 1.339 . S
C603 C602 1.395 . S
C603 H629 0.929 . S
C604 C602 1.320 . S
C604 C605 1.405 . S
C604 H630 0.930 . S
C605 C600 1.479 . S
C605 C604 1.405 . S
C605 H631 0.931 . S
U606 O607 2.454 1_455 S
U606 O608 2.458 1_455 S
U606 C609 2.984 1_455 S
U606 C610 2.847 . S
U606 C623 2.882 . S
U606 O624 2.441 . S
U606 O625 2.420 . S
U606 O626 2.455 . S
U606 O627 2.449 . S
O607 U606 2.454 1_655 S
O607 C609 1.353 . S
O608 U606 2.458 1_655 S
O608 C609 1.286 . S
C609 U606 2.984 1_655 S
C609 O607 1.353 . S
C609 O608 1.286 . S
C609 C611 1.363 . S
C610 C600 1.465 . S
C610 U606 2.847 . S
C610 O624 1.249 . S
C610 O625 1.202 . S
C611 C609 1.363 . S
C611 C613 1.408 . S
C611 C616 1.342 . S
C612 C613 1.310 . S
C612 C615 1.461 . S
C612 H632 0.932 . S
C613 C611 1.408 . S
C613 C612 1.310 . S
C613 H633 0.930 . S
C614 C615 1.474 . S
C614 C616 1.285 . S
C614 H634 0.929 . S
C615 C612 1.461 . S
C615 C614 1.474 . S
C616 C611 1.342 . S
C616 C614 1.285 . S
C616 H635 0.930 . S
C617 C620 1.424 . S
C617 C622 1.245 . S
C617 C623 1.428 . S
C618 C621 1.260 . S
C618 C622 1.477 . S
C618 H636 0.932 . S
C619 C620 1.384 . S
C619 C621 1.479 . S
C619 H637 0.929 . S
C620 C617 1.424 . S
C620 C619 1.384 . S
C620 H638 0.928 . S
C621 C618 1.260 . S
C621 C619 1.479 . S
C622 C617 1.245 . S
C622 C618 1.477 . S
C622 H639 0.932 1_455 S
C623 U606 2.882 . S
C623 C617 1.428 . S
C623 O626 1.303 . S
C623 O627 1.282 . S
O624 U606 2.441 . S
O624 C610 1.249 . S
O625 U606 2.420 . S
O625 C610 1.202 . S
O626 U606 2.455 . S
O626 C623 1.303 . S
O627 U606 2.449 . S
O627 C623 1.282 . S
H628 C601 0.931 . S
H629 C603 0.929 . S
H630 C604 0.930 . S
H631 C605 0.931 . S
H632 C612 0.932 . S
H633 C613 0.930 . S
H634 C614 0.929 . S
H635 C616 0.930 . S
H636 C618 0.932 . S
H637 C619 0.929 . S
H638 C620 0.928 . S
H639 C622 0.932 1_655 S
C640 C641 1.264 . S
C640 C645 1.479 . S
C640 C650 1.465 . S
C641 C640 1.264 . S
C641 C643 1.339 . S
C641 H668 0.931 . S
C642 C643 1.395 . S
C642 C644 1.320 . S
C643 C641 1.339 . S
C643 C642 1.395 . S
C643 H669 0.929 . S
C644 C642 1.320 . S
C644 C645 1.405 . S
C644 H670 0.930 . S
C645 C640 1.479 . S
C645 C644 1.405 . S
C645 H671 0.931 . S
U646 O647 2.454 . S
U646 O648 2.458 . S
U646 C649 2.984 . S
U646 C650 2.847 . S
U646 C663 2.882 . S
U646 O664 2.441 . S
U646 O665 2.420 . S
U646 O666 2.455 . S
U646 O667 2.449 . S
O647 U646 2.454 . S
O647 C649 1.353 . S
O648 U646 2.458 . S
O648 C649 1.286 . S
C649 U646 2.984 . S
C649 O647 1.353 . S
C649 O648 1.286 . S
C649 C651 1.363 . S
C650 C640 1.465 . S
C650 U646 2.847 . S
C650 O664 1.249 . S
C650 O665 1.202 . S
C651 C649 1.363 . S
C651 C653 1.408 . S
C651 C656 1.342 . S
C652 C653 1.310 . S
C652 C655 1.461 . S
C652 H672 0.932 . S
C653 C651 1.408 . S
C653 C652 1.310 . S
C653 H673 0.930 . S
C654 C655 1.474 . S
C654 C656 1.285 . S
C654 H674 0.929 . S
C655 C652 1.461 . S
C655 C654 1.474 . S
C656 C651 1.342 . S
C656 C654 1.285 . S
C656 H675 0.930 . S
C657 C660 1.424 . S
C657 C662 1.245 . S
C657 C663 1.428 . S
C658 C661 1.260 . S
C658 C662 1.477 . S
C658 H676 0.932 . S
C659 C660 1.384 . S
C659 C661 1.479 . S
C659 H677 0.929 . S
C660 C657 1.424 . S
C660 C659 1.384 . S
C660 H678 0.928 . S
C661 C658 1.260 . S
C661 C659 1.479 . S
C662 C657 1.245 . S
C662 C658 1.477 . S
C662 H679 0.932 . S
C663 U646 2.882 . S
C663 C657 1.428 . S
C663 O666 1.301 . S
C663 O667 1.282 . S
O664 U646 2.441 . S
O664 C650 1.249 . S
O665 U646 2.420 . S
O665 C650 1.202 . S
O666 U646 2.455 . S
O666 C663 1.301 . S
O667 U646 2.449 . S
O667 C663 1.282 . S
H668 C641 0.931 . S
H669 C643 0.929 . S
H670 C644 0.930 . S
H671 C645 0.931 . S
H672 C652 0.932 . S
H673 C653 0.930 . S
H674 C654 0.929 . S
H675 C656 0.930 . S
H676 C658 0.932 . S
H677 C659 0.929 . S
H678 C660 0.928 . S
H679 C662 0.932 . S
C680 C681 1.264 . S
C680 C685 1.479 . S
C680 C690 1.465 . S
C681 C680 1.264 . S
C681 C683 1.339 . S
C681 H708 0.931 . S
C682 C683 1.395 . S
C682 C684 1.320 . S
C683 C681 1.339 . S
C683 C682 1.395 . S
C683 H709 0.929 . S
C684 C682 1.320 . S
C684 C685 1.405 . S
C684 H710 0.930 . S
C685 C680 1.479 . S
C685 C684 1.405 . S
C685 H711 0.931 . S
U686 O687 2.454 . S
U686 O688 2.458 . S
U686 C689 2.984 . S
U686 C690 2.847 . S
U686 C703 2.882 . S
U686 O704 2.441 . S
U686 O705 2.420 . S
U686 O706 2.455 . S
U686 O707 2.449 . S
O687 U686 2.454 . S
O687 C689 1.353 . S
O688 U686 2.458 . S
O688 C689 1.286 . S
C689 U686 2.984 . S
C689 O687 1.353 . S
C689 O688 1.286 . S
C689 C691 1.363 . S
C690 C680 1.465 . S
C690 U686 2.847 . S
C690 O704 1.249 . S
C690 O705 1.202 . S
C691 C689 1.363 . S
C691 C693 1.408 . S
C691 C696 1.342 . S
C692 C693 1.310 . S
C692 C695 1.461 . S
C692 H712 0.932 . S
C693 C691 1.408 . S
C693 C692 1.310 . S
C693 H713 0.930 . S
C694 C695 1.474 . S
C694 C696 1.285 . S
C694 H714 0.929 . S
C695 C692 1.461 . S
C695 C694 1.474 . S
C696 C691 1.342 . S
C696 C694 1.285 . S
C696 H715 0.930 . S
C697 C700 1.424 . S
C697 C702 1.245 . S
C697 C703 1.428 . S
C698 C701 1.260 . S
C698 C702 1.477 . S
C698 H716 0.932 . S
C699 C700 1.384 . S
C699 C701 1.479 . S
C699 H717 0.929 . S
C700 C697 1.424 . S
C700 C699 1.384 . S
C700 H718 0.928 . S
C701 C698 1.260 . S
C701 C699 1.479 . S
C702 C697 1.245 . S
C702 C698 1.477 . S
C702 H719 0.932 . S
C703 U686 2.882 . S
C703 C697 1.428 . S
C703 O706 1.301 . S
C703 O707 1.282 . S
O704 U686 2.441 . S
O704 C690 1.249 . S
O705 U686 2.420 . S
O705 C690 1.202 . S
O706 U686 2.455 . S
O706 C703 1.301 . S
O707 U686 2.449 . S
O707 C703 1.282 . S
H708 C681 0.931 . S
H709 C683 0.929 . S
H710 C684 0.930 . S
H711 C685 0.931 . S
H712 C692 0.932 . S
H713 C693 0.930 . S
H714 C694 0.929 . S
H715 C696 0.930 . S
H716 C698 0.932 . S
H717 C699 0.929 . S
H718 C700 0.928 . S
H719 C702 0.932 . S
C720 C721 1.369 . S
C720 C722 1.419 . S
C720 H724 0.930 . S
C721 C720 1.369 . S
C721 C730 1.448 . S
C722 C720 1.419 . S
C722 C723 1.363 . S
C722 H725 0.929 . S
C723 C722 1.363 . S
C723 C729 1.425 . S
H724 C720 0.930 . S
H725 C722 0.929 . S
S726 N727 1.613 . S
S726 N728 1.610 . S
N727 S726 1.613 . S
N727 C730 1.313 1_565 S
N728 S726 1.610 . S
N728 C729 1.353 1_565 S
C729 C723 1.425 . S
C729 N728 1.353 1_545 S
C729 C730 1.454 . S
C730 C721 1.448 . S
C730 N727 1.313 1_545 S
C730 C729 1.454 . S
C731 C732 1.369 . S
C731 C733 1.419 . S
C731 H735 0.930 . S
C732 C731 1.369 . S
C732 C741 1.431 . S
C733 C731 1.419 . S
C733 C734 1.363 . S
C733 H736 0.929 . S
C734 C733 1.363 . S
C734 C740 1.427 1_554 S
H735 C731 0.930 . S
H736 C733 0.929 . S
S737 N738 1.613 . S
S737 N739 1.610 . S
N738 S737 1.613 . S
N738 C741 1.348 1_556 S
N739 S737 1.610 . S
N739 C740 1.353 . S
C740 C734 1.427 1_556 S
C740 N739 1.353 . S
C740 C741 1.434 1_556 S
C741 C732 1.431 . S
C741 N738 1.348 1_554 S
C741 C740 1.434 1_554 S
C742 C743 1.369 . S
C742 C744 1.419 . S
C742 H746 0.930 . S
C743 C742 1.369 . S
C743 C752 1.443 . S
C744 C742 1.419 . S
C744 C745 1.363 . S
C744 H747 0.929 . S
C745 C744 1.363 . S
C745 C751 1.427 1_554 S
H746 C742 0.930 . S
H747 C744 0.929 . S
S748 N749 1.613 . S
S748 N750 1.610 . S
N749 S748 1.613 . S
N749 C752 1.335 1_556 S
N750 S748 1.610 . S
N750 C751 1.353 . S
C751 C745 1.427 1_556 S
C751 N750 1.353 . S
C751 C752 1.433 1_556 S
C752 C743 1.443 . S
C752 N749 1.335 1_554 S
C752 C751 1.433 1_554 S
C753 C754 1.369 . S
C753 C755 1.419 . S
C753 H757 0.930 . S
C754 C753 1.369 . S
C754 C763 1.429 . S
C755 C753 1.419 . S
C755 C756 1.363 . S
C755 H758 0.929 . S
C756 C755 1.363 . S
C756 C762 1.428 . S
H757 C753 0.930 . S
H758 C755 0.929 . S
S759 N760 1.613 . S
S759 N761 1.610 . S
N760 S759 1.613 . S
N760 C763 1.350 . S
N761 S759 1.610 . S
N761 C762 1.351 . S
C762 C756 1.428 . S
C762 N761 1.351 . S
C762 C763 1.434 . S
C763 C754 1.429 . S
C763 N760 1.350 . S
C763 C762 1.434 . S
C764 C765 1.369 . S
C764 C766 1.419 . S
C764 H768 0.930 . S
C765 C764 1.369 . S
C765 C774 1.429 . S
C766 C764 1.419 . S
C766 C767 1.363 . S
C766 H769 0.929 . S
C767 C766 1.363 . S
C767 C773 1.428 . S
H768 C764 0.930 . S
H769 C766 0.929 . S
S770 N771 1.613 . S
S770 N772 1.610 . S
N771 S770 1.613 . S
N771 C774 1.350 . S
N772 S770 1.610 . S
N772 C773 1.351 . S
C773 C767 1.428 . S
C773 N772 1.351 . S
C773 C774 1.434 . S
C774 C765 1.429 . S
C774 N771 1.350 . S
C774 C773 1.434 . S
C775 C776 1.369 . S
C775 C777 1.419 . S
C775 H779 0.930 . S
C776 C775 1.369 . S
C776 C785 1.429 . S
C777 C775 1.419 . S
C777 C778 1.363 . S
C777 H780 0.929 . S
C778 C777 1.363 . S
C778 C784 1.428 . S
H779 C775 0.930 . S
H780 C777 0.929 . S
S781 N782 1.613 . S
S781 N783 1.610 . S
N782 S781 1.613 . S
N782 C785 1.350 . S
N783 S781 1.610 . S
N783 C784 1.351 . S
C784 C778 1.428 . S
C784 N783 1.351 . S
C784 C785 1.434 . S
C785 C776 1.429 . S
C785 N782 1.350 . S
C785 C784 1.434 . S
C786 C787 1.369 . S
C786 C788 1.419 . S
C786 H790 0.930 . S
C787 C786 1.369 . S
C787 C796 1.429 . S
C788 C786 1.419 . S
C788 C789 1.363 . S
C788 H791 0.929 . S
C789 C788 1.363 . S
C789 C795 1.428 . S
H790 C786 0.930 . S
H791 C788 0.929 . S
S792 N793 1.613 . S
S792 N794 1.610 . S
N793 S792 1.613 . S
N793 C796 1.350 . S
N794 S792 1.610 . S
N794 C795 1.351 . S
C795 C789 1.428 . S
C795 N794 1.351 . S
C795 C796 1.434 . S
C796 C787 1.429 . S
C796 N793 1.350 . S
C796 C795 1.434 . S
C797 C798 1.369 . S
C797 C799 1.419 . S
C797 H801 0.930 . S
C798 C797 1.369 . S
C798 C807 1.429 . S
C799 C797 1.419 . S
C799 C800 1.363 . S
C799 H802 0.929 . S
C800 C799 1.363 . S
C800 C806 1.428 . S
H801 C797 0.930 . S
H802 C799 0.929 . S
S803 N804 1.613 . S
S803 N805 1.610 . S
N804 S803 1.613 . S
N804 C807 1.350 . S
N805 S803 1.610 . S
N805 C806 1.351 . S
C806 C800 1.428 . S
C806 N805 1.351 . S
C806 C807 1.434 . S
C807 C798 1.429 . S
C807 N804 1.350 . S
C807 C806 1.434 . S
C808 C809 1.369 . S
C808 C810 1.419 . S
C808 H812 0.930 . S
C809 C808 1.369 . S
C809 C818 1.429 . S
C810 C808 1.419 . S
C810 C811 1.363 . S
C810 H813 0.929 . S
C811 C810 1.363 . S
C811 C817 1.428 . S
H812 C808 0.930 . S
H813 C810 0.929 . S
S814 N815 1.613 . S
S814 N816 1.610 . S
N815 S814 1.613 . S
N815 C818 1.350 . S
N816 S814 1.610 . S
N816 C817 1.351 . S
C817 C811 1.428 . S
C817 N816 1.351 . S
C817 C818 1.434 . S
C818 C809 1.429 . S
C818 N815 1.350 . S
C818 C817 1.434 . S
C819 C820 1.369 . S
C819 C821 1.419 . S
C819 H823 0.930 . S
C820 C819 1.369 . S
C820 C829 1.429 . S
C821 C819 1.419 . S
C821 C822 1.363 . S
C821 H824 0.929 . S
C822 C821 1.363 . S
C822 C828 1.428 . S
H823 C819 0.930 . S
H824 C821 0.929 . S
S825 N826 1.613 . S
S825 N827 1.610 . S
N826 S825 1.613 . S
N826 C829 1.350 . S
N827 S825 1.610 . S
N827 C828 1.351 . S
C828 C822 1.428 . S
C828 N827 1.351 . S
C828 C829 1.434 . S
C829 C820 1.429 . S
C829 N826 1.350 . S
C829 C828 1.434 . S
C830 C831 1.369 . S
C830 C832 1.419 . S
C830 H834 0.930 . S
C831 C830 1.369 . S
C831 C840 1.429 . S
C832 C830 1.419 . S
C832 C833 1.363 . S
C832 H835 0.929 . S
C833 C832 1.363 . S
C833 C839 1.428 . S
H834 C830 0.930 . S
H835 C832 0.929 . S
S836 N837 1.613 . S
S836 N838 1.610 . S
N837 S836 1.613 . S
N837 C840 1.350 . S
N838 S836 1.610 . S
N838 C839 1.351 . S
C839 C833 1.428 . S
C839 N838 1.351 . S
C839 C840 1.434 . S
C840 C831 1.429 . S
C840 N837 1.350 . S
C840 C839 1.434 . S
C841 C842 1.369 . S
C841 C843 1.419 . S
C841 H845 0.930 . S
C842 C841 1.369 . S
C842 C851 1.429 . S
C843 C841 1.419 . S
C843 C844 1.363 . S
C843 H846 0.929 . S
C844 C843 1.363 . S
C844 C850 1.428 . S
H845 C841 0.930 . S
H846 C843 0.929 . S
S847 N848 1.613 . S
S847 N849 1.610 . S
N848 S847 1.613 . S
N848 C851 1.350 . S
N849 S847 1.610 . S
N849 C850 1.351 . S
C850 C844 1.428 . S
C850 N849 1.351 . S
C850 C851 1.434 . S
C851 C842 1.429 . S
C851 N848 1.350 . S
C851 C850 1.434 . S
C852 C853 1.369 . S
C852 C854 1.419 . S
C852 H856 0.930 . S
C853 C852 1.369 . S
C853 C862 1.429 . S
C854 C852 1.419 . S
C854 C855 1.363 . S
C854 H857 0.929 . S
C855 C854 1.363 . S
C855 C861 1.428 . S
H856 C852 0.930 . S
H857 C854 0.929 . S
S858 N859 1.613 . S
S858 N860 1.610 . S
N859 S858 1.613 . S
N859 C862 1.350 . S
N860 S858 1.610 . S
N860 C861 1.351 . S
C861 C855 1.428 . S
C861 N860 1.351 . S
C861 C862 1.434 . S
C862 C853 1.429 . S
C862 N859 1.350 . S
C862 C861 1.434 . S
C863 C864 1.369 . S
C863 C865 1.419 . S
C863 H867 0.930 . S
C864 C863 1.369 . S
C864 C873 1.429 . S
C865 C863 1.419 . S
C865 C866 1.363 . S
C865 H868 0.929 . S
C866 C865 1.363 . S
C866 C872 1.428 . S
H867 C863 0.930 . S
H868 C865 0.929 . S
S869 N870 1.613 . S
S869 N871 1.610 . S
N870 S869 1.613 . S
N870 C873 1.350 . S
N871 S869 1.610 . S
N871 C872 1.351 . S
C872 C866 1.428 . S
C872 N871 1.351 . S
C872 C873 1.434 . S
C873 C864 1.429 . S
C873 N870 1.350 . S
C873 C872 1.434 . S
C874 C875 1.369 . S
C874 C876 1.419 . S
C874 H878 0.930 . S
C875 C874 1.369 . S
C875 C884 1.429 . S
C876 C874 1.419 . S
C876 C877 1.363 . S
C876 H879 0.929 . S
C877 C876 1.363 . S
C877 C883 1.428 . S
H878 C874 0.930 . S
H879 C876 0.929 . S
S880 N881 1.613 . S
S880 N882 1.610 . S
N881 S880 1.613 . S
N881 C884 1.350 . S
N882 S880 1.610 . S
N882 C883 1.351 . S
C883 C877 1.428 . S
C883 N882 1.351 . S
C883 C884 1.434 . S
C884 C875 1.429 . S
C884 N881 1.350 . S
C884 C883 1.434 . S
C885 C886 1.369 . S
C885 C887 1.419 . S
C885 H889 0.930 . S
C886 C885 1.369 . S
C886 C895 1.429 . S
C887 C885 1.419 . S
C887 C888 1.363 . S
C887 H890 0.929 . S
C888 C887 1.363 . S
C888 C894 1.428 . S
H889 C885 0.930 . S
H890 C887 0.929 . S
S891 N892 1.613 . S
S891 N893 1.610 . S
N892 S891 1.613 . S
N892 C895 1.350 . S
N893 S891 1.610 . S
N893 C894 1.351 . S
C894 C888 1.428 . S
C894 N893 1.351 . S
C894 C895 1.434 . S
C895 C886 1.429 . S
C895 N892 1.350 . S
C895 C894 1.434 . S
C896 C897 1.369 . S
C896 C898 1.419 . S
C896 H900 0.930 . S
C897 C896 1.369 . S
C897 C906 1.429 . S
C898 C896 1.419 . S
C898 C899 1.363 . S
C898 H901 0.929 . S
C899 C898 1.363 . S
C899 C905 1.428 . S
H900 C896 0.930 . S
H901 C898 0.929 . S
S902 N903 1.613 . S
S902 N904 1.610 . S
N903 S902 1.613 . S
N903 C906 1.350 . S
N904 S902 1.610 . S
N904 C905 1.351 . S
C905 C899 1.428 . S
C905 N904 1.351 . S
C905 C906 1.434 . S
C906 C897 1.429 . S
C906 N903 1.350 . S
C906 C905 1.434 . S
C907 C908 1.369 . S
C907 C909 1.419 . S
C907 H911 0.930 . S
C908 C907 1.369 . S
C908 C917 1.429 . S
C909 C907 1.419 . S
C909 C910 1.363 . S
C909 H912 0.929 . S
C910 C909 1.363 . S
C910 C916 1.428 . S
H911 C907 0.930 . S
H912 C909 0.929 . S
S913 N914 1.613 . S
S913 N915 1.610 . S
N914 S913 1.613 . S
N914 C917 1.350 . S
N915 S913 1.610 . S
N915 C916 1.351 . S
C916 C910 1.428 . S
C916 N915 1.351 . S
C916 C917 1.434 . S
C917 C908 1.429 . S
C917 N914 1.350 . S
C917 C916 1.434 . S
C918 C919 1.369 . S
C918 C920 1.419 . S
C918 H922 0.930 . S
C919 C918 1.369 . S
C919 C928 1.429 . S
C920 C918 1.419 . S
C920 C921 1.363 . S
C920 H923 0.929 . S
C921 C920 1.363 . S
C921 C927 1.428 . S
H922 C918 0.930 . S
H923 C920 0.929 . S
S924 N925 1.613 . S
S924 N926 1.610 . S
N925 S924 1.613 . S
N925 C928 1.350 . S
N926 S924 1.610 . S
N926 C927 1.351 . S
C927 C921 1.428 . S
C927 N926 1.351 . S
C927 C928 1.434 . S
C928 C919 1.429 . S
C928 N925 1.350 . S
C928 C927 1.434 . S
C929 C930 1.369 . S
C929 C931 1.419 . S
C929 H933 0.930 . S
C930 C929 1.369 . S
C930 C939 1.429 . S
C931 C929 1.419 . S
C931 C932 1.363 . S
C931 H934 0.929 . S
C932 C931 1.363 . S
C932 C938 1.428 . S
H933 C929 0.930 . S
H934 C931 0.929 . S
S935 N936 1.613 . S
S935 N937 1.610 . S
N936 S935 1.613 . S
N936 C939 1.350 . S
N937 S935 1.610 . S
N937 C938 1.351 . S
C938 C932 1.428 . S
C938 N937 1.351 . S
C938 C939 1.434 . S
C939 C930 1.429 . S
C939 N936 1.350 . S
C939 C938 1.434 . S
C940 C941 1.369 . S
C940 C942 1.419 . S
C940 H944 0.930 1_565 S
C941 C940 1.369 . S
C941 C950 1.429 . S
C942 C940 1.419 . S
C942 C943 1.363 . S
C942 H945 0.929 . S
C943 C942 1.363 . S
C943 C949 1.428 . S
H944 C940 0.930 1_545 S
H945 C942 0.929 . S
S946 N947 1.613 . S
S946 N948 1.610 . S
N947 S946 1.613 . S
N947 C950 1.350 . S
N948 S946 1.610 . S
N948 C949 1.351 . S
C949 C943 1.428 . S
C949 N948 1.351 . S
C949 C950 1.434 . S
C950 C941 1.429 . S
C950 N947 1.350 . S
C950 C949 1.434 . S
C951 C952 1.369 . S
C951 C953 1.419 . S
C951 H955 0.930 . S
C952 C951 1.369 . S
C952 C961 1.429 . S
C953 C951 1.419 . S
C953 C954 1.363 . S
C953 H956 0.929 . S
C954 C953 1.363 . S
C954 C960 1.428 . S
H955 C951 0.930 . S
H956 C953 0.929 . S
S957 N958 1.613 . S
S957 N959 1.610 . S
N958 S957 1.613 . S
N958 C961 1.350 . S
N959 S957 1.610 . S
N959 C960 1.351 . S
C960 C954 1.428 . S
C960 N959 1.351 . S
C960 C961 1.434 . S
C961 C952 1.429 . S
C961 N958 1.350 . S
C961 C960 1.434 . S
C962 C963 1.369 . S
C962 C964 1.419 . S
C962 H966 0.930 . S
C963 C962 1.369 . S
C963 C972 1.429 . S
C964 C962 1.419 . S
C964 C965 1.363 . S
C964 H967 0.929 . S
C965 C964 1.363 . S
C965 C971 1.428 . S
H966 C962 0.930 . S
H967 C964 0.929 . S
S968 N969 1.613 . S
S968 N970 1.610 . S
N969 S968 1.613 . S
N969 C972 1.350 . S
N970 S968 1.610 . S
N970 C971 1.351 . S
C971 C965 1.428 . S
C971 N970 1.351 . S
C971 C972 1.434 . S
C972 C963 1.429 . S
C972 N969 1.350 . S
C972 C971 1.434 . S
C973 C974 1.373 . S
C973 C975 1.419 . S
C973 H977 0.930 . S
C974 C973 1.373 . S
C974 C983 1.411 1_545 S
C975 C973 1.419 . S
C975 C976 1.363 . S
C975 H978 0.929 . S
C976 C975 1.363 . S
C976 C982 1.428 . S
H977 C973 0.930 . S
H978 C975 0.929 . S
S979 N980 1.613 . S
S979 N981 1.610 1_565 S
N980 S979 1.613 . S
N980 C983 1.392 . S
N981 S979 1.610 1_545 S
N981 C982 1.351 . S
C982 C976 1.428 . S
C982 N981 1.351 . S
C982 C983 1.410 1_545 S
C983 C974 1.411 1_565 S
C983 N980 1.392 . S
C983 C982 1.410 1_565 S
C984 C985 1.369 . S
C984 C986 1.419 . S
C984 H988 0.930 . S
C985 C984 1.369 . S
C985 C994 1.413 1_545 S
C986 C984 1.419 . S
C986 C987 1.363 . S
C986 H989 0.929 . S
C987 C986 1.363 . S
C987 C993 1.428 . S
H988 C984 0.930 . S
H989 C986 0.929 . S
S990 N991 1.613 . S
S990 N992 1.610 1_565 S
N991 S990 1.613 . S
N991 C994 1.388 . S
N992 S990 1.610 1_545 S
N992 C993 1.351 . S
C993 C987 1.428 . S
C993 N992 1.351 . S
C993 C994 1.412 1_545 S
C994 C985 1.413 1_565 S
C994 N991 1.388 . S
C994 C993 1.412 1_565 S
C995 C996 1.369 . S
C995 C997 1.419 . S
C995 H999 0.930 . S
C996 C995 1.369 . S
C996 C1005 1.429 . S
C997 C995 1.419 . S
C997 C998 1.363 . S
C997 H1000 0.929 . S
C998 C997 1.363 . S
C998 C1004 1.428 . S
H999 C995 0.930 . S
H1000 C997 0.929 . S
S1001 N1002 1.613 . S
S1001 N1003 1.610 . S
N1002 S1001 1.613 . S
N1002 C1005 1.350 . S
N1003 S1001 1.610 . S
N1003 C1004 1.351 . S
C1004 C998 1.428 . S
C1004 N1003 1.351 . S
C1004 C1005 1.434 . S
C1005 C996 1.429 . S
C1005 N1002 1.350 . S
C1005 C1004 1.434 . S
C1006 C1007 1.369 . S
C1006 C1008 1.419 . S
C1006 H1010 0.930 . S
C1007 C1006 1.369 . S
C1007 C1016 1.429 . S
C1008 C1006 1.419 . S
C1008 C1009 1.363 . S
C1008 H1011 0.929 . S
C1009 C1008 1.363 . S
C1009 C1015 1.428 . S
H1010 C1006 0.930 . S
H1011 C1008 0.929 . S
S1012 N1013 1.613 . S
S1012 N1014 1.610 . S
N1013 S1012 1.613 . S
N1013 C1016 1.350 . S
N1014 S1012 1.610 . S
N1014 C1015 1.351 . S
C1015 C1009 1.428 . S
C1015 N1014 1.351 . S
C1015 C1016 1.434 . S
C1016 C1007 1.429 . S
C1016 N1013 1.350 . S
C1016 C1015 1.434 . S
C721 C135 1.498 . S
C723 C15 1.498 . S
C732 C55 1.497 . S
C734 C175 1.498 . S
C743 C215 1.500 . S
C745 C95 1.501 . S
C754 C375 1.508 . S
C756 C255 1.509 . S
C765 C415 1.502 . S
C767 C295 1.502 . S
C776 C335 1.501 . S
C778 C455 1.501 . S
C787 C615 1.516 . S
C789 C495 1.502 . S
C798 C655 1.504 . S
C800 C535 1.504 . S
C809 C575 1.507 . S
C811 C695 1.507 . S
C820 C341 1.493 . S
C822 C2 1.489 . S
C831 C242 1.492 . S
C833 C61 1.489 . S
C842 C282 1.499 . S
C844 C82 1.495 . S
C853 C42 1.494 . S
C855 C562 1.497 . S
C864 C482 1.481 . S
C866 C101 1.487 . S
C875 C21 1.488 . S
C877 C541 1.485 . S
C886 C682 1.490 . S
C888 C122 1.494 . S
C897 C621 1.502 . S
C899 C162 1.503 . S
C908 C221 1.481 . S
C910 C661 1.490 . S
C919 C442 1.485 . S
C921 C181 1.486 . S
C930 C362 1.513 . S
C932 C202 1.494 . S
C941 C141 1.498 . S
C943 C402 1.490 . S
C952 C261 1.487 . S
C954 C581 1.487 . S
C963 C501 1.479 . S
C965 C301 1.491 . S
C974 C322 1.492 1_545 S
C976 C522 1.491 . S
C985 C421 1.474 1_545 S
C987 C701 1.483 . S
C996 C461 1.502 . S
C998 C602 1.507 . S
C1007 C381 1.500 . S
C1009 C642 1.494 . S
