# Generated by pormake.
# Topology mdf, (4)-cn, num edge types: 1
# Building blocks:
#     Node 0, Type 0, BuildingBlock: UXUYUI_clean_sbu_0, # of connection points: 4
#     Node 1, Type 0, BuildingBlock: UXUYUI_clean_sbu_0, # of connection points: 4
#     Node 2, Type 0, BuildingBlock: UXUYUI_clean_sbu_0, # of connection points: 4
#     Node 3, Type 0, BuildingBlock: UXUYUI_clean_sbu_0, # of connection points: 4
#     Node 4, Type 0, BuildingBlock: UXUYUI_clean_sbu_0, # of connection points: 4
#     Node 5, Type 0, BuildingBlock: UXUYUI_clean_sbu_0, # of connection points: 4
#     Node 6, Type 0, BuildingBlock: UXUYUI_clean_sbu_0, # of connection points: 4
#     Node 7, Type 0, BuildingBlock: UXUYUI_clean_sbu_0, # of connection points: 4
#     Edge 8, Type (0, 0), None
#     Edge 9, Type (0, 0), None
#     Edge 10, Type (0, 0), None
#     Edge 11, Type (0, 0), None
#     Edge 12, Type (0, 0), None
#     Edge 13, Type (0, 0), None
#     Edge 14, Type (0, 0), None
#     Edge 15, Type (0, 0), None
#     Edge 16, Type (0, 0), None
#     Edge 17, Type (0, 0), None
#     Edge 18, Type (0, 0), None
#     Edge 19, Type (0, 0), None
#     Edge 20, Type (0, 0), None
#     Edge 21, Type (0, 0), None
#     Edge 22, Type (0, 0), None
#     Edge 23, Type (0, 0), None
# Relax obj value: 0.090
# Max RMSD: 0.078
# Mean RMSD: 0.078
data_MOF--net-mdf--node1-UXUYUI_clean_sbu_0--edge1-none
_symmetry_space_group_name_H-M    P1
_symmetry_Int_Tables_number       1
_symmetry_cell_setting            triclinic
loop_
_symmetry_equiv_pos_as_xyz
'x, y, z'
_cell_length_a     33.723397
_cell_length_b     33.725379
_cell_length_c     13.300323
_cell_angle_alpha  90.00188
_cell_angle_beta   90.007928
_cell_angle_gamma 89.999846
loop_
_atom_site_label
_atom_site_type_symbol
_atom_site_fract_x
_atom_site_fract_y
_atom_site_fract_z
_atom_type_partial_charge
Li0 Li 0.2034 0.53007 0.5082 0.0
Li1 Li 0.19304 0.47725 0.38034 0.0
Li2 Li 0.25532 0.47813 0.46567 0.0
Li3 Li 0.24445 0.52963 0.3351 0.0
C4 C 0.20406 0.46181 0.62525 0.0
N5 N 0.20805 0.4438 0.82644 0.0
C6 C 0.18656 0.42708 0.66126 0.0
C7 C 0.22359 0.48741 0.69115 0.0
C8 C 0.18884 0.41852 0.76361 0.0
C9 C 0.22542 0.47769 0.79267 0.0
C10 C 0.15108 0.54885 0.34106 0.0
C11 C 0.1046 0.61039 0.21604 0.0
N12 N 0.05364 0.59221 0.32508 0.0
C13 C 0.10997 0.53638 0.42181 0.0
C14 C 0.14959 0.58402 0.24109 0.0
C15 C 0.06161 0.5581 0.41283 0.0
C16 C 0.18357 0.60349 0.62691 0.0
N17 N 0.17486 0.56436 0.61194 0.0
C18 C 0.12398 0.56882 0.73984 0.0
C19 C 0.14555 0.54711 0.66762 0.0
C20 C 0.13209 0.60928 0.75721 0.0
C21 C 0.16278 0.62633 0.69917 0.0
H22 H 0.20654 0.6173 0.58225 0.0
H23 H 0.13861 0.51614 0.65616 0.0
C24 C 0.14632 0.42631 0.24757 0.0
N25 N 0.15022 0.44351 0.33951 0.0
C26 C 0.11587 0.39912 0.22971 0.0
C27 C 0.09333 0.40849 0.40033 0.0
C28 C 0.12441 0.43507 0.41513 0.0
C29 C 0.08901 0.38959 0.30705 0.0
H30 H 0.16725 0.43254 0.18863 0.0
H31 H 0.12835 0.44842 0.48821 0.0
C32 C 0.29682 0.5496 0.50135 0.0
N33 N 0.39475 0.59189 0.51638 0.0
C34 C 0.33758 0.53691 0.41968 0.0
C35 C 0.29894 0.58449 0.60187 0.0
C36 C 0.38619 0.55809 0.4282 0.0
C37 C 0.34428 0.61031 0.62659 0.0
C38 C 0.24437 0.46067 0.22132 0.0
C39 C 0.26239 0.42609 0.18599 0.0
C40 C 0.22417 0.48558 0.15505 0.0
C41 C 0.25988 0.41696 0.08397 0.0
C42 C 0.22208 0.47527 0.05395 0.0
N43 N 0.23993 0.44153 1.02081 0.0
C44 C 0.30245 0.42851 0.60103 0.0
C45 C 0.324 0.436 0.43278 0.0
C46 C 0.33266 0.40108 0.61944 0.0
N47 N 0.29839 0.44506 0.50836 0.0
C48 C 0.35482 0.40919 0.44809 0.0
C49 C 0.35908 0.39067 0.54187 0.0
H50 H 0.28173 0.43532 0.66005 0.0
H51 H 0.32 0.44889 0.35921 0.0
C52 C 0.26435 0.60284 0.21571 0.0
N53 N 0.27269 0.56359 0.23 0.0
C54 C 0.28509 0.62559 0.14318 0.0
C55 C 0.3231 0.56775 0.10083 0.0
C56 C 0.3016 0.54613 0.17336 0.0
C57 C 0.31538 0.60833 0.0842 0.0
H58 H 0.24177 0.61684 0.26126 0.0
H59 H 0.30836 0.51511 0.1845 0.0
O60 O 0.20128 0.47105 0.52597 0.0
O61 O 0.18714 0.5348 0.36495 0.0
O62 O 0.26058 0.53592 0.47792 0.0
O63 O 0.24723 0.47042 0.32028 0.0
H64 H 0.17131 0.40706 0.61073 0.0
H65 H 0.23749 0.51428 0.66421 0.0
H66 H 0.17541 0.39182 0.79315 0.0
H67 H 0.24086 0.49703 0.84433 0.0
H68 H 0.10533 0.6318 0.15398 0.0
H69 H 0.11507 0.51556 0.48182 0.0
H70 H 0.1759 0.59013 0.19736 0.0
H71 H 0.03826 0.54966 0.46426 0.0
H72 H 0.10132 0.55362 0.78265 0.0
H73 H 0.17026 0.65735 0.70789 0.0
H74 H 0.1143 0.38478 0.157 0.0
H75 H 0.07316 0.4026 0.46187 0.0
H76 H 0.3321 0.51628 0.35946 0.0
H77 H 0.27281 0.59077 0.64612 0.0
H78 H 0.40932 0.54953 0.37624 0.0
H79 H 0.34393 0.63156 0.68902 0.0
H80 H 0.27819 0.40661 0.23679 0.0
H81 H 0.20991 0.51234 0.18138 0.0
H82 H 0.27369 0.39036 0.05498 0.0
H83 H 0.20603 0.49405 1.0022 0.0
H84 H 0.33427 0.38716 0.69265 0.0
H85 H 0.37474 0.4027 0.38641 0.0
H86 H 0.27794 0.65671 0.13509 0.0
H87 H 0.34547 0.55239 0.05734 0.0
Li88 Li 0.41834 0.70338 0.7583 0.0
Li89 Li 0.47111 0.69298 0.63036 0.0
Li90 Li 0.47029 0.75528 0.71565 0.0
Li91 Li 0.41875 0.74443 0.58517 0.0
C92 C 0.48665 0.70403 0.87522 0.0
N93 N 0.50474 0.70807 0.07636 0.0
C94 C 0.5214 0.68654 0.91118 0.0
C95 C 0.46106 0.72355 0.94115 0.0
C96 C 0.53001 0.68885 1.0135 0.0
C97 C 0.47083 0.72542 1.04265 0.0
C98 C 0.39952 0.65105 0.59119 0.0
C99 C 0.33802 0.60453 0.46616 0.0
N100 N 0.35623 0.55359 0.57523 0.0
C101 C 0.41202 0.60996 0.67196 0.0
C102 C 0.36435 0.64954 0.4912 0.0
C103 C 0.39034 0.56158 0.66298 0.0
C104 C 0.34493 0.68354 0.87705 0.0
N105 N 0.38406 0.67484 0.86207 0.0
C106 C 0.37963 0.62396 0.98998 0.0
C107 C 0.40133 0.64554 0.91777 0.0
C108 C 0.33916 0.63206 1.00735 0.0
C109 C 0.3221 0.66274 0.94931 0.0
H110 H 0.33111 0.7065 0.83238 0.0
H111 H 0.4323 0.63861 0.9063 0.0
C112 C 0.52196 0.64621 0.4975 0.0
N113 N 0.50482 0.65014 0.58949 0.0
C114 C 0.54916 0.61577 0.47962 0.0
C115 C 0.5399 0.59328 0.65031 0.0
C116 C 0.51332 0.62435 0.66514 0.0
C117 C 0.55875 0.58894 0.55698 0.0
H118 H 0.5157 0.66712 0.43852 0.0
H119 H 0.50001 0.62831 0.73825 0.0
C120 C 0.39884 0.79681 0.75142 0.0
N121 N 0.3566 0.89476 0.76649 0.0
C122 C 0.41156 0.83757 0.6698 0.0
C123 C 0.36393 0.79893 0.85191 0.0
C124 C 0.39041 0.88619 0.67834 0.0
C125 C 0.33813 0.84428 0.87663 0.0
C126 C 0.4877 0.74429 0.47131 0.0
C127 C 0.52232 0.76225 0.436 0.0
C128 C 0.46276 0.72413 0.40503 0.0
C129 C 0.53145 0.75971 0.33399 0.0
C130 C 0.47306 0.72203 0.30393 0.0
N131 N 0.50684 0.73981 0.27081 0.0
C132 C 0.51994 0.80241 0.85094 0.0
C133 C 0.51249 0.82391 0.68262 0.0
C134 C 0.54737 0.83261 0.86932 0.0
N135 N 0.5034 0.79832 0.75825 0.0
C136 C 0.53931 0.85471 0.6979 0.0
C137 C 0.55781 0.859 0.79171 0.0
H138 H 0.5131 0.78172 0.91001 0.0
H139 H 0.4996 0.81989 0.60905 0.0
C140 C 0.34554 0.76434 0.46575 0.0
N141 N 0.38479 0.77268 0.4801 0.0
C142 C 0.3228 0.78509 0.3932 0.0
C143 C 0.38065 0.82311 0.35097 0.0
C144 C 0.40226 0.8016 0.42351 0.0
C145 C 0.34007 0.81539 0.33427 0.0
H146 H 0.33154 0.74175 0.51126 0.0
H147 H 0.43328 0.80836 0.43469 0.0
O148 O 0.47737 0.70124 0.77597 0.0
O149 O 0.41355 0.68712 0.61506 0.0
O150 O 0.41251 0.76056 0.728 0.0
O151 O 0.47796 0.74716 0.57027 0.0
H152 H 0.5414 0.67129 0.86062 0.0
H153 H 0.43418 0.73744 0.91426 0.0
H154 H 0.55672 0.67544 1.043 0.0
H155 H 0.45151 0.74086 0.09432 0.0
H156 H 0.31661 0.60524 0.40409 0.0
H157 H 0.43284 0.61507 0.73197 0.0
H158 H 0.35822 0.67584 0.44747 0.0
H159 H 0.3988 0.53824 0.71442 0.0
H160 H 0.39484 0.60131 1.0328 0.0
H161 H 0.29107 0.67021 0.95803 0.0
H162 H 0.56346 0.61418 0.40686 0.0
H163 H 0.54583 0.57313 0.71188 0.0
H164 H 0.4322 0.8321 0.60961 0.0
H165 H 0.35763 0.7728 0.89613 0.0
H166 H 0.39898 0.90932 0.62641 0.0
H167 H 0.31687 0.84394 0.93903 0.0
H168 H 0.54183 0.77801 0.4868 0.0
H169 H 0.43597 0.70992 0.43135 0.0
H170 H 0.55808 0.77347 0.30501 0.0
H171 H 0.45426 0.706 0.25217 0.0
H172 H 0.56128 0.83425 0.94256 0.0
H173 H 0.54582 0.87461 0.63618 0.0
H174 H 0.29168 0.77794 0.38506 0.0
H175 H 0.39601 0.84548 0.30752 0.0
Li176 Li 0.25548 0.97116 0.88038 0.0
Li177 Li 0.24507 0.91836 1.00828 0.0
Li178 Li 0.20405 0.91879 0.8351 0.0
Li179 Li 0.19316 0.97031 0.9656 0.0
C180 C 0.29742 0.89955 0.84122 0.0
N181 N 0.39487 0.85621 0.82535 0.0
C182 C 0.33852 0.91201 0.92205 0.0
C183 C 0.29893 0.86439 0.74121 0.0
C184 C 0.38688 0.89031 0.91312 0.0
C185 C 0.34393 0.83804 0.7162 0.0
C186 C 0.24441 -0.01333 0.12522 0.0
C187 C 0.22301 0.97088 0.29265 0.0
N188 N 0.24035 0.0048 0.32633 0.0
C189 C 0.26189 0.02143 0.16115 0.0
C190 C 0.22488 0.9611 0.19116 0.0
C191 C 0.25957 0.03005 0.26346 0.0
C192 C 0.30224 0.02204 0.74762 0.0
N193 N 0.29832 0.00487 0.83958 0.0
C194 C 0.35523 0.03988 0.90042 0.0
C195 C 0.32414 0.01332 0.91522 0.0
C196 C 0.35957 0.05876 0.80711 0.0
C197 C 0.33271 0.04922 0.72976 0.0
H198 H 0.28132 0.01582 0.68866 0.0
H199 H 0.32018 -1e-05 0.98831 0.0
C200 C 0.26489 0.84495 0.12702 0.0
N201 N 0.27359 0.88409 0.11208 0.0
C202 C 0.28568 0.82212 0.19931 0.0
C203 C 0.32445 0.87965 0.24007 0.0
C204 C 0.30288 0.90135 0.16782 0.0
C205 C 0.31635 0.83918 0.2574 0.0
H206 H 0.24194 0.83113 0.08231 0.0
H207 H 0.30981 0.93232 0.15638 0.0
C208 C 0.20417 -0.01224 0.72129 0.0
N209 N 0.20867 0.00696 0.52083 0.0
C210 C 0.1862 0.02237 0.68601 0.0
C211 C 0.22435 0.96285 0.655 0.0
C212 C 0.18874 0.03154 0.58402 0.0
C213 C 0.22647 0.97319 0.55392 0.0
C214 C 0.15164 0.89884 1.00129 0.0
C215 C 0.11088 0.91152 0.91958 0.0
C216 C 0.14952 0.86396 0.10183 0.0
C217 C 0.06227 0.89035 0.92808 0.0
C218 C 0.10418 0.83814 0.12652 0.0
N219 N 0.05371 0.85656 1.01626 0.0
C220 C 0.18415 0.84558 0.71569 0.0
C221 C 0.14691 0.90229 0.67331 0.0
C222 C 0.16341 0.82283 0.64313 0.0
N223 N 0.17582 0.88483 0.72998 0.0
C224 C 0.12541 0.88068 0.60076 0.0
C225 C 0.13313 0.8401 0.58412 0.0
H226 H 0.20673 0.83158 0.76126 0.0
H227 H 0.14015 0.93332 0.68445 0.0
C228 C 0.14602 0.01995 0.10084 0.0
N229 N 0.15009 0.0034 1.00817 0.0
C230 C 0.11579 0.04736 0.11922 0.0
C231 C 0.09365 0.03925 0.94784 0.0
C232 C 0.12448 0.01246 0.93256 0.0
C233 C 0.08937 0.05776 1.04163 0.0
H234 H 0.16673 0.01314 0.15989 0.0
H235 H 0.12849 -0.00044 0.85899 0.0
O236 O 0.26136 0.91359 0.86506 0.0
O237 O 0.2472 -0.02261 1.02597 0.0
O238 O 0.2013 -0.02201 0.82023 0.0
O239 O 0.18789 0.91253 0.9779 0.0
H240 H 0.33341 0.93282 0.98207 0.0
H241 H 0.27263 0.85829 0.69743 0.0
H242 H 0.41022 0.89874 0.9646 0.0
H243 H 0.34321 0.81664 0.65411 0.0
H244 H 0.20756 0.95156 0.34433 0.0
H245 H 0.27714 0.04143 0.11059 0.0
H246 H 0.21099 0.93421 0.16428 0.0
H247 H 0.27298 0.05677 0.29294 0.0
H248 H 0.3754 0.04577 0.96197 0.0
H249 H 0.33429 0.06354 0.65703 0.0
H250 H 0.27821 0.79109 0.208 0.0
H251 H 0.3471 0.89485 0.28293 0.0
H252 H 0.17042 0.04186 0.73682 0.0
H253 H 0.23858 0.93606 0.6813 0.0
H254 H 0.17497 0.05817 0.55507 0.0
H255 H 0.24251 0.95441 0.50215 0.0
H256 H 0.11636 0.93216 0.85937 0.0
H257 H 0.17565 0.85768 0.1461 0.0
H258 H 0.03915 0.8989 0.8761 0.0
H259 H 0.10452 0.81689 0.18895 0.0
H260 H 0.17056 0.79171 0.63504 0.0
H261 H 0.10305 0.89604 0.55725 0.0
H262 H 0.11416 0.06128 0.19244 0.0
H263 H 0.07373 0.04573 0.88614 0.0
Li264 Li -0.02266 0.75543 0.13037 0.0
Li265 Li 0.03017 0.74504 0.25819 0.0
Li266 Li 0.02972 0.70402 0.08503 0.0
Li267 Li -0.02176 0.69311 0.21561 0.0
C268 C 0.04893 0.7974 0.09109 0.0
N269 N 0.09223 0.89486 0.07513 0.0
C270 C 0.03643 0.8385 0.17183 0.0
C271 C 0.08411 0.7989 0.99113 0.0
C272 C 0.05812 0.88687 0.16286 0.0
C273 C 0.11044 0.84391 0.96609 0.0
C274 C 0.96188 0.74434 0.37523 0.0
C275 C -0.02227 0.72297 0.54266 0.0
N276 N 0.94379 0.74026 0.57634 0.0
C277 C 0.9271 0.76176 0.41116 0.0
C278 C -0.0125 0.72485 0.44117 0.0
C279 C 0.91849 0.75944 0.51347 0.0
C280 C 0.92642 0.80218 0.99766 0.0
N281 N 0.94359 0.79825 0.08963 0.0
C282 C 0.90853 0.85511 0.15053 0.0
C283 C 0.93511 0.82403 0.1653 0.0
C284 C 0.88967 0.85946 0.05721 0.0
C285 C 0.89923 0.83264 0.97982 0.0
H286 H 0.93267 0.78128 0.93866 0.0
H287 H 0.94845 0.82007 0.2384 0.0
C288 C 0.10358 0.76489 0.37695 0.0
N289 N 0.06445 0.77359 0.36194 0.0
C290 C 0.12641 0.78569 0.44923 0.0
C291 C 0.06888 0.82447 0.48985 0.0
C292 C 0.04718 0.8029 0.41762 0.0
C293 C 0.10935 0.81638 0.50725 0.0
H294 H 0.1174 0.74192 0.3323 0.0
H295 H 0.01621 0.80983 0.40612 0.0
C296 C 0.96071 0.70412 0.97132 0.0
N297 N 0.94145 0.70865 0.77089 0.0
C298 C 0.92609 0.68616 0.93607 0.0
C299 C -0.01439 0.72431 0.905 0.0
C300 C 0.91689 0.68871 0.8341 0.0
C301 C -0.02476 0.72644 0.80394 0.0
C302 C 0.0497 0.65162 0.25122 0.0
C303 C 0.03698 0.61088 0.16953 0.0
C304 C 0.08459 0.64948 0.35176 0.0
C305 C 0.05812 0.56225 0.17804 0.0
C306 C 0.11037 0.60412 0.37647 0.0
N307 N 0.09191 0.55366 0.26623 0.0
C308 C 0.10292 0.68411 0.96559 0.0
C309 C 0.04619 0.64688 0.92324 0.0
C310 C 0.12565 0.66336 0.89304 0.0
N311 N 0.06366 0.67579 0.97989 0.0
C312 C 0.06779 0.62537 0.8507 0.0
C313 C 0.10838 0.63308 0.83406 0.0
H314 H 0.11693 0.70668 1.01115 0.0
H315 H 0.01516 0.64013 0.93439 0.0
C316 C 0.92867 0.64594 0.35096 0.0
N317 N 0.94517 0.65003 0.25825 0.0
C318 C 0.90124 0.61573 0.36937 0.0
C319 C 0.90926 0.59363 0.19794 0.0
C320 C 0.93607 0.62445 0.18263 0.0
C321 C 0.89078 0.58934 0.29176 0.0
H322 H 0.93551 0.66663 0.41003 0.0
H323 H 0.94893 0.62847 0.10904 0.0
O324 O 0.03489 0.76133 0.11495 0.0
O325 O 0.97115 0.74714 0.27597 0.0
O326 O 0.97051 0.70124 0.07025 0.0
O327 O 0.03603 0.68787 0.22783 0.0
H328 H 0.01561 0.83339 0.23182 0.0
H329 H 0.09024 0.7726 0.9474 0.0
H330 H 0.04966 0.91022 0.21428 0.0
H331 H 0.13185 0.84319 0.90404 0.0
H332 H -0.00292 0.70756 0.59435 0.0
H333 H 0.90707 0.77698 0.36059 0.0
H334 H 0.0144 0.71101 0.41428 0.0
H335 H 0.89175 0.7728 0.54295 0.0
H336 H 0.90262 0.87525 0.21211 0.0
H337 H 0.88491 0.83423 0.90708 0.0
H338 H 0.15744 0.77822 0.45798 0.0
H339 H 0.05367 0.84713 0.53265 0.0
H340 H 0.90661 0.67037 0.98691 0.0
H341 H 0.01241 0.73852 0.93127 0.0
H342 H 0.89026 0.67495 0.80518 0.0
H343 H -0.00599 0.74248 0.75216 0.0
H344 H 0.01634 0.61637 0.10932 0.0
H345 H 0.09089 0.6756 0.39602 0.0
H346 H 0.04954 0.53914 0.12607 0.0
H347 H 0.13163 0.60445 0.4389 0.0
H348 H 0.15678 0.6705 0.88495 0.0
H349 H 0.05242 0.60302 0.80721 0.0
H350 H 0.88735 0.61409 0.44262 0.0
H351 H 0.90274 0.57373 0.13622 0.0
Li352 Li 0.7034 0.03007 1.00821 0.0
Li353 Li 0.69303 -0.02275 0.88034 0.0
Li354 Li 0.75532 -0.02187 0.96567 0.0
Li355 Li 0.74445 0.02963 0.8351 0.0
C356 C 0.70406 0.9618 0.12525 0.0
N357 N 0.70806 0.9438 0.32643 0.0
C358 C 0.68656 0.92708 0.16126 0.0
C359 C 0.72359 -0.01259 0.19115 0.0
C360 C 0.68884 0.91851 0.2636 0.0
C361 C 0.72542 -0.02232 0.29267 0.0
C362 C 0.65108 0.04885 0.84106 0.0
C363 C 0.6046 0.11039 0.71604 0.0
N364 N 0.55364 0.09221 0.82508 0.0
C365 C 0.60997 0.03638 0.92181 0.0
C366 C 0.64959 0.08402 0.74109 0.0
C367 C 0.56161 0.0581 0.91283 0.0
C368 C 0.68357 0.10349 0.12691 0.0
N369 N 0.67486 0.06436 0.11194 0.0
C370 C 0.62398 0.06882 0.23984 0.0
C371 C 0.64555 0.04711 0.16762 0.0
C372 C 0.63209 0.10928 0.25721 0.0
C373 C 0.66278 0.12633 0.19917 0.0
H374 H 0.70654 0.1173 0.08225 0.0
H375 H 0.63861 0.01614 0.15616 0.0
C376 C 0.64632 0.92632 0.74757 0.0
N377 N 0.65022 0.94352 0.83951 0.0
C378 C 0.61587 0.89912 0.72972 0.0
C379 C 0.59333 0.90849 0.90034 0.0
C380 C 0.62441 0.93507 0.91514 0.0
C381 C 0.58901 0.88959 0.80705 0.0
H382 H 0.66725 0.93254 0.68863 0.0
H383 H 0.62835 0.94842 0.98821 0.0
C384 C 0.79682 0.0496 1.00135 0.0
N385 N 0.89475 0.09189 1.01638 0.0
C386 C 0.83758 0.03691 0.91968 0.0
C387 C 0.79894 0.08449 0.10187 0.0
C388 C 0.88619 0.05809 0.9282 0.0
C389 C 0.84428 0.11031 0.12659 0.0
C390 C 0.74437 0.96067 0.72132 0.0
C391 C 0.76239 0.92609 0.68599 0.0
C392 C 0.72416 -0.01442 0.65505 0.0
C393 C 0.75987 0.91695 0.58398 0.0
C394 C 0.72208 -0.02473 0.55394 0.0
N395 N 0.73992 0.94153 0.52081 0.0
C396 C 0.80245 0.92851 0.10102 0.0
C397 C 0.824 0.936 0.93277 0.0
C398 C 0.83266 0.90108 0.11943 0.0
N399 N 0.79839 0.94506 1.00835 0.0
C400 C 0.85482 0.90919 0.94808 0.0
C401 C 0.85908 0.89066 1.04186 0.0
H402 H 0.78173 0.93532 0.16005 0.0
H403 H 0.82 0.94889 0.85921 0.0
C404 C 0.76435 0.10284 0.71571 0.0
N405 N 0.77269 0.06359 0.73 0.0
C406 C 0.78509 0.12559 0.64318 0.0
C407 C 0.8231 0.06775 0.60083 0.0
C408 C 0.8016 0.04613 0.67336 0.0
C409 C 0.81538 0.10833 0.5842 0.0
H410 H 0.74177 0.11684 0.76127 0.0
H411 H 0.80836 0.01511 0.6845 0.0
O412 O 0.70128 0.97105 1.02597 0.0
O413 O 0.68714 0.0348 0.86496 0.0
O414 O 0.76058 0.03592 0.97792 0.0
O415 O 0.74723 0.97042 0.82028 0.0
H416 H 0.67131 0.90706 0.11072 0.0
H417 H 0.73748 0.01427 0.16421 0.0
H418 H 0.67542 0.89181 0.29314 0.0
H419 H 0.74086 -0.00297 0.34433 0.0
H420 H 0.60533 0.1318 0.65398 0.0
H421 H 0.61507 0.01556 0.98182 0.0
H422 H 0.6759 0.09013 0.69736 0.0
H423 H 0.53826 0.04966 0.96426 0.0
H424 H 0.60132 0.05362 0.28265 0.0
H425 H 0.67026 0.15735 0.20789 0.0
H426 H 0.6143 0.88478 0.65701 0.0
H427 H 0.57316 0.9026 0.96187 0.0
H428 H 0.83211 0.01628 0.85946 0.0
H429 H 0.77281 0.09077 0.14612 0.0
H430 H 0.90932 0.04953 0.87624 0.0
H431 H 0.84393 0.13156 0.18902 0.0
H432 H 0.77819 0.90661 0.73679 0.0
H433 H 0.70991 0.01234 0.68138 0.0
H434 H 0.77369 0.89036 0.55499 0.0
H435 H 0.70602 -0.00595 0.5022 0.0
H436 H 0.83428 0.88715 0.19265 0.0
H437 H 0.87474 0.9027 0.8864 0.0
H438 H 0.77794 0.15671 0.63509 0.0
H439 H 0.84547 0.05239 0.55734 0.0
Li440 Li 0.91834 0.20338 0.2583 0.0
Li441 Li 0.97111 0.19298 0.13036 0.0
Li442 Li 0.97029 0.25528 0.21565 0.0
Li443 Li 0.91875 0.24443 0.08517 0.0
C444 C -0.01335 0.20403 0.37522 0.0
N445 N 0.00475 0.20807 0.57636 0.0
C446 C 0.0214 0.18654 0.41118 0.0
C447 C 0.96106 0.22355 0.44116 0.0
C448 C 0.03001 0.18885 0.5135 0.0
C449 C 0.97084 0.22542 0.54265 0.0
C450 C 0.89952 0.15105 0.09119 0.0
C451 C 0.83802 0.10453 0.96616 0.0
N452 N 0.85623 0.05359 0.07523 0.0
C453 C 0.91202 0.10996 0.17196 0.0
C454 C 0.86435 0.14954 0.99121 0.0
C455 C 0.89034 0.06158 0.16298 0.0
C456 C 0.84493 0.18354 0.37705 0.0
N457 N 0.88406 0.17484 0.36207 0.0
C458 C 0.87963 0.12396 0.48999 0.0
C459 C 0.90133 0.14554 0.41777 0.0
C460 C 0.83916 0.13206 0.50735 0.0
C461 C 0.8221 0.16274 0.44932 0.0
H462 H 0.83111 0.2065 0.33238 0.0
H463 H 0.9323 0.13861 0.4063 0.0
C464 C 0.02196 0.14621 0.9975 0.0
N465 N 0.00482 0.15014 0.08949 0.0
C466 C 0.04916 0.11576 0.97962 0.0
C467 C 0.0399 0.09328 0.15032 0.0
C468 C 0.01332 0.12435 0.16514 0.0
C469 C 0.05875 0.08894 0.05698 0.0
H470 H 0.01569 0.16712 0.93852 0.0
H471 H 1e-05 0.12831 0.23825 0.0
C472 C 0.89884 0.29681 0.25142 0.0
N473 N 0.8566 0.39476 0.26649 0.0
C474 C 0.91156 0.33757 0.1698 0.0
C475 C 0.86393 0.29893 0.3519 0.0
C476 C 0.89041 0.38619 0.17834 0.0
C477 C 0.83813 0.34428 0.37663 0.0
C478 C -0.0123 0.24429 0.97131 0.0
C479 C 0.02232 0.26224 0.936 0.0
C480 C 0.96276 0.22413 0.90503 0.0
C481 C 0.03146 0.25971 0.83399 0.0
C482 C 0.97307 0.22202 0.80393 0.0
N483 N 0.00685 0.2398 0.77081 0.0
C484 C 0.01994 0.30241 0.35093 0.0
C485 C 0.01249 0.32391 0.18261 0.0
C486 C 0.04737 0.33261 0.36931 0.0
N487 N 0.0034 0.29832 0.25824 0.0
C488 C 0.03931 0.35471 0.19789 0.0
C489 C 0.05781 0.359 0.2917 0.0
H490 H 0.0131 0.28172 0.41001 0.0
H491 H -0.0004 0.31989 0.10904 0.0
C492 C 0.84554 0.26434 0.96575 0.0
N493 N 0.88479 0.27268 0.9801 0.0
C494 C 0.8228 0.28509 0.8932 0.0
C495 C 0.88065 0.32311 0.85097 0.0
C496 C 0.90226 0.3016 0.92351 0.0
C497 C 0.84007 0.31539 0.83427 0.0
H498 H 0.83154 0.24175 1.01125 0.0
H499 H 0.93328 0.30836 0.93469 0.0
O500 O -0.02263 0.20124 0.27597 0.0
O501 O 0.91354 0.18712 0.11506 0.0
O502 O 0.91251 0.26056 0.228 0.0
O503 O -0.02204 0.24716 0.07027 0.0
H504 H 0.0414 0.1713 0.36062 0.0
H505 H 0.93418 0.23744 0.41426 0.0
H506 H 0.05673 0.17544 0.54299 0.0
H507 H 0.95151 0.24086 0.59432 0.0
H508 H 0.81661 0.10524 0.90409 0.0
H509 H 0.93284 0.11507 0.23197 0.0
H510 H 0.85822 0.17584 0.94747 0.0
H511 H 0.8988 0.03824 0.21443 0.0
H512 H 0.89484 0.10131 0.5328 0.0
H513 H 0.79107 0.17021 0.45803 0.0
H514 H 0.06346 0.11418 0.90686 0.0
H515 H 0.04583 0.07313 0.21188 0.0
H516 H 0.9322 0.3321 0.10961 0.0
H517 H 0.85763 0.2728 0.39613 0.0
H518 H 0.89899 0.40932 0.12641 0.0
H519 H 0.81687 0.34394 0.43903 0.0
H520 H 0.04183 0.278 0.9868 0.0
H521 H 0.93597 0.20992 0.93135 0.0
H522 H 0.05808 0.27347 0.80502 0.0
H523 H 0.95426 0.206 0.75217 0.0
H524 H 0.06128 0.33425 0.44256 0.0
H525 H 0.04582 0.37461 0.13618 0.0
H526 H 0.79168 0.27794 0.88506 0.0
H527 H 0.89601 0.34548 0.80751 0.0
Li528 Li 0.75548 0.47116 0.38038 0.0
Li529 Li 0.74507 0.41836 0.50827 0.0
Li530 Li 0.70405 0.41879 0.3351 0.0
Li531 Li 0.69316 0.47031 0.4656 0.0
C532 C 0.79742 0.39955 0.34122 0.0
N533 N 0.89487 0.35621 0.32535 0.0
C534 C 0.83852 0.41201 0.42205 0.0
C535 C 0.79893 0.36439 0.24121 0.0
C536 C 0.88688 0.39031 0.41312 0.0
C537 C 0.84393 0.33804 0.2162 0.0
C538 C 0.7444 0.48667 0.62522 0.0
C539 C 0.723 0.47088 0.79265 0.0
N540 N 0.74035 0.5048 0.82633 0.0
C541 C 0.76188 0.52143 0.66115 0.0
C542 C 0.72487 0.4611 0.69116 0.0
C543 C 0.75957 0.53005 0.76346 0.0
C544 C 0.80224 0.52205 0.24763 0.0
N545 N 0.79832 0.50487 0.33959 0.0
C546 C 0.85523 0.53988 0.40042 0.0
C547 C 0.82414 0.51333 0.41522 0.0
C548 C 0.85957 0.55876 0.30711 0.0
C549 C 0.83271 0.54922 0.22977 0.0
H550 H 0.78132 0.51582 0.18866 0.0
H551 H 0.82018 0.49999 0.48832 0.0
C552 C 0.76489 0.34495 0.62702 0.0
N553 N 0.77359 0.38409 0.61208 0.0
C554 C 0.78568 0.32212 0.69931 0.0
C555 C 0.82445 0.37964 0.74007 0.0
C556 C 0.80288 0.40135 0.66782 0.0
C557 C 0.81635 0.33918 0.7574 0.0
H558 H 0.74194 0.33113 0.58231 0.0
H559 H 0.80981 0.43232 0.65637 0.0
C560 C 0.70417 0.48776 0.22129 0.0
N561 N 0.70868 0.50697 1.02083 0.0
C562 C 0.6862 0.52238 0.18601 0.0
C563 C 0.72435 0.46285 0.155 0.0
C564 C 0.68874 0.53155 0.08402 0.0
C565 C 0.72647 0.47319 0.05392 0.0
C566 C 0.65164 0.39884 0.50129 0.0
C567 C 0.61088 0.41152 0.41958 0.0
C568 C 0.64952 0.36396 0.60182 0.0
C569 C 0.56227 0.39035 0.42807 0.0
C570 C 0.60418 0.33814 0.62652 0.0
N571 N 0.55371 0.35656 0.51626 0.0
C572 C 0.68415 0.34558 0.21569 0.0
C573 C 0.64691 0.40229 0.17331 0.0
C574 C 0.66341 0.32283 0.14313 0.0
N575 N 0.67582 0.38483 0.22998 0.0
C576 C 0.62541 0.38068 0.10076 0.0
C577 C 0.63313 0.3401 0.08412 0.0
H578 H 0.70673 0.33158 0.26126 0.0
H579 H 0.64016 0.43332 0.18445 0.0
C580 C 0.64601 0.51995 0.60084 0.0
N581 N 0.65009 0.50339 0.50817 0.0
C582 C 0.61579 0.54736 0.61922 0.0
C583 C 0.59365 0.53925 0.44784 0.0
C584 C 0.62448 0.51246 0.43255 0.0
C585 C 0.58937 0.55776 0.54163 0.0
H586 H 0.66672 0.51314 0.65989 0.0
H587 H 0.62849 0.49956 0.35899 0.0
O588 O 0.76136 0.41359 0.36506 0.0
O589 O 0.7472 0.47739 0.52597 0.0
O590 O 0.7013 0.47799 0.32023 0.0
O591 O 0.68789 0.41253 0.4779 0.0
H592 H 0.83341 0.43282 0.48207 0.0
H593 H 0.77263 0.35829 0.19743 0.0
H594 H 0.91022 0.39874 0.4646 0.0
H595 H 0.84321 0.31664 0.15411 0.0
H596 H 0.70756 0.45156 0.84433 0.0
H597 H 0.77714 0.54143 0.61058 0.0
H598 H 0.71099 0.43421 0.66428 0.0
H599 H 0.77298 0.55677 0.79294 0.0
H600 H 0.8754 0.54577 0.46198 0.0
H601 H 0.83429 0.56354 0.15704 0.0
H602 H 0.77821 0.29109 0.708 0.0
H603 H 0.8471 0.39485 0.78293 0.0
H604 H 0.67042 0.54186 0.23683 0.0
H605 H 0.73858 0.43606 0.1813 0.0
H606 H 0.67497 0.55817 0.05507 0.0
H607 H 0.74251 0.45441 1.00215 0.0
H608 H 0.61636 0.43216 0.35937 0.0
H609 H 0.67565 0.35768 0.6461 0.0
H610 H 0.53915 0.3989 0.37609 0.0
H611 H 0.60452 0.31689 0.68895 0.0
H612 H 0.67056 0.29171 0.13504 0.0
H613 H 0.60305 0.39604 0.05725 0.0
H614 H 0.61416 0.56128 0.69244 0.0
H615 H 0.57373 0.54573 0.38614 0.0
Li616 Li 0.47733 0.25543 0.63037 0.0
Li617 Li 0.53017 0.24504 0.75819 0.0
Li618 Li 0.52972 0.20402 0.58503 0.0
Li619 Li 0.47824 0.19311 0.71561 0.0
C620 C 0.54893 0.2974 0.59109 0.0
N621 N 0.59223 0.39486 0.57512 0.0
C622 C 0.53643 0.3385 0.67183 0.0
C623 C 0.58411 0.2989 0.49113 0.0
C624 C 0.55812 0.38687 0.66286 0.0
C625 C 0.61044 0.34391 0.46609 0.0
C626 C 0.46188 0.24434 0.87523 0.0
C627 C 0.47772 0.22297 1.04266 0.0
N628 N 0.44378 0.24026 0.07634 0.0
C629 C 0.4271 0.26176 0.91115 0.0
C630 C 0.4875 0.22485 0.94117 0.0
C631 C 0.41849 0.25943 1.01346 0.0
C632 C 0.42642 0.30218 0.49766 0.0
N633 N 0.44359 0.29825 0.58963 0.0
C634 C 0.40853 0.35511 0.65054 0.0
C635 C 0.43511 0.32403 0.66531 0.0
C636 C 0.38967 0.35946 0.55722 0.0
C637 C 0.39923 0.33264 0.47983 0.0
H638 H 0.43267 0.28129 0.43867 0.0
H639 H 0.44844 0.32006 0.7384 0.0
C640 C 0.60358 0.26489 0.87695 0.0
N641 N 0.56445 0.27359 0.86194 0.0
C642 C 0.62641 0.28569 0.94923 0.0
C643 C 0.56888 0.32447 0.98985 0.0
C644 C 0.54718 0.3029 0.91761 0.0
C645 C 0.60935 0.31638 1.00725 0.0
H646 H 0.6174 0.24192 0.8323 0.0
H647 H 0.51621 0.30983 0.90612 0.0
C648 C 0.46071 0.20412 0.47132 0.0
N649 N 0.44145 0.20865 0.27089 0.0
C650 C 0.42608 0.18616 0.43608 0.0
C651 C 0.48561 0.22431 0.405 0.0
C652 C 0.41688 0.18872 0.33411 0.0
C653 C 0.47524 0.22644 0.30394 0.0
C654 C 0.5497 0.15162 0.75122 0.0
C655 C 0.53698 0.11088 0.66953 0.0
C656 C 0.58459 0.14948 0.85176 0.0
C657 C 0.55812 0.06225 0.67804 0.0
C658 C 0.61037 0.10412 0.87647 0.0
N659 N 0.59191 0.05366 0.76623 0.0
C660 C 0.60292 0.18411 0.46559 0.0
C661 C 0.54619 0.14688 0.42324 0.0
C662 C 0.62565 0.16336 0.39304 0.0
N663 N 0.56366 0.17579 0.47989 0.0
C664 C 0.56779 0.12537 0.3507 0.0
C665 C 0.60838 0.13308 0.33406 0.0
H666 H 0.61693 0.20668 0.51115 0.0
H667 H 0.51516 0.14013 0.43438 0.0
C668 C 0.42867 0.14594 0.85096 0.0
N669 N 0.44517 0.15003 0.75824 0.0
C670 C 0.40124 0.11573 0.86936 0.0
C671 C 0.40926 0.09363 0.69793 0.0
C672 C 0.43607 0.12445 0.68262 0.0
C673 C 0.39078 0.08934 0.79175 0.0
H674 H 0.43552 0.16662 0.91003 0.0
H675 H 0.44893 0.12847 0.60903 0.0
O676 O 0.53489 0.26133 0.61495 0.0
O677 O 0.47115 0.24714 0.77597 0.0
O678 O 0.47051 0.20124 0.57025 0.0
O679 O 0.53603 0.18787 0.72783 0.0
H680 H 0.51561 0.33339 0.73182 0.0
H681 H 0.59023 0.2726 0.4474 0.0
H682 H 0.54966 0.41022 0.71428 0.0
H683 H 0.63185 0.34319 0.40403 0.0
H684 H 0.49707 0.20755 0.09435 0.0
H685 H 0.40707 0.27697 0.86058 0.0
H686 H 0.5144 0.21101 0.91429 0.0
H687 H 0.39175 0.2728 1.04294 0.0
H688 H 0.40262 0.37525 0.71212 0.0
H689 H 0.38491 0.33423 0.40708 0.0
H690 H 0.65744 0.27822 0.95798 0.0
H691 H 0.55367 0.34713 1.03265 0.0
H692 H 0.40661 0.17038 0.48692 0.0
H693 H 0.51241 0.23852 0.43127 0.0
H694 H 0.39025 0.17495 0.30519 0.0
H695 H 0.49401 0.24248 0.25216 0.0
H696 H 0.51634 0.11637 0.60931 0.0
H697 H 0.59089 0.1756 0.89602 0.0
H698 H 0.54954 0.03914 0.62607 0.0
H699 H 0.63163 0.10445 0.9389 0.0
H700 H 0.65678 0.1705 0.38495 0.0
H701 H 0.55242 0.10302 0.3072 0.0
H702 H 0.38735 0.11409 0.94262 0.0
H703 H 0.40274 0.07373 0.63622 0.0
loop_
_geom_bond_atom_site_label_1
_geom_bond_atom_site_label_2
_geom_bond_distance
_geom_bond_site_symmetry_2
_ccdc_geom_bond_type
Li0 N17 1.990 . S
Li0 O60 1.956 . S
Li0 O61 1.970 . S
Li0 O62 1.961 . S
Li1 N25 1.990 . S
Li1 O60 1.970 . S
Li1 O61 1.956 . S
Li1 O63 1.961 . S
Li2 N47 1.990 . S
Li2 O60 1.961 . S
Li2 O62 1.956 . S
Li2 O63 1.970 . S
Li3 N53 1.990 . S
Li3 O61 1.961 . S
Li3 O62 1.970 . S
Li3 O63 1.956 . S
C4 C6 1.348 . S
C4 C7 1.356 . S
C4 O60 1.325 . S
N5 C8 1.314 . S
N5 C9 1.279 . S
C6 C4 1.348 . S
C6 C8 1.353 . S
C6 H64 0.929 . S
C7 C4 1.356 . S
C7 C9 1.358 . S
C7 H65 0.930 . S
C8 N5 1.314 . S
C8 C6 1.353 . S
C8 H66 0.930 . S
C9 N5 1.279 . S
C9 C7 1.358 . S
C9 H67 0.930 . S
C10 C13 1.348 . S
C10 C14 1.356 . S
C10 O61 1.325 . S
C11 N12 1.279 . S
C11 C14 1.358 . S
C11 H68 0.930 . S
N12 C11 1.279 . S
N12 C15 1.314 . S
C13 C10 1.348 . S
C13 C15 1.353 . S
C13 H69 0.929 . S
C14 C10 1.356 . S
C14 C11 1.358 . S
C14 H70 0.930 . S
C15 N12 1.314 . S
C15 C13 1.353 . S
C15 H71 0.930 . S
C16 N17 1.314 . S
C16 C21 1.353 . S
C16 H22 0.930 . S
N17 Li0 1.990 . S
N17 C16 1.314 . S
N17 C19 1.279 . S
C18 C19 1.358 . S
C18 C20 1.356 . S
C18 H72 0.930 . S
C19 N17 1.279 . S
C19 C18 1.358 . S
C19 H23 0.930 . S
C20 C18 1.356 . S
C20 C21 1.348 . S
C21 C16 1.353 . S
C21 C20 1.348 . S
C21 H73 0.929 . S
H22 C16 0.930 . S
H23 C19 0.930 . S
C24 N25 1.314 . S
C24 C26 1.353 . S
C24 H30 0.930 . S
N25 Li1 1.990 . S
N25 C24 1.314 . S
N25 C28 1.279 . S
C26 C24 1.353 . S
C26 C29 1.348 . S
C26 H74 0.929 . S
C27 C28 1.358 . S
C27 C29 1.356 . S
C27 H75 0.930 . S
C28 N25 1.279 . S
C28 C27 1.358 . S
C28 H31 0.930 . S
C29 C26 1.348 . S
C29 C27 1.356 . S
H30 C24 0.930 . S
H31 C28 0.930 . S
C32 C34 1.348 . S
C32 C35 1.356 . S
C32 O62 1.325 . S
N33 C36 1.314 . S
N33 C37 1.279 . S
C34 C32 1.348 . S
C34 C36 1.353 . S
C34 H76 0.929 . S
C35 C32 1.356 . S
C35 C37 1.358 . S
C35 H77 0.930 . S
C36 N33 1.314 . S
C36 C34 1.353 . S
C36 H78 0.930 . S
C37 N33 1.279 . S
C37 C35 1.358 . S
C37 H79 0.930 . S
C38 C39 1.348 . S
C38 C40 1.356 . S
C38 O63 1.325 . S
C39 C38 1.348 . S
C39 C41 1.353 . S
C39 H80 0.929 . S
C40 C38 1.356 . S
C40 C42 1.358 . S
C40 H81 0.930 . S
C41 C39 1.353 . S
C41 N43 1.314 . S
C41 H82 0.930 . S
C42 C40 1.358 . S
C42 N43 1.279 . S
C42 H83 0.930 . S
N43 C41 1.314 . S
N43 C42 1.279 . S
C44 C46 1.353 . S
C44 N47 1.314 . S
C44 H50 0.930 . S
C45 N47 1.279 . S
C45 C48 1.358 . S
C45 H51 0.930 . S
C46 C44 1.353 . S
C46 C49 1.348 . S
C46 H84 0.929 . S
N47 Li2 1.990 . S
N47 C44 1.314 . S
N47 C45 1.279 . S
C48 C45 1.358 . S
C48 C49 1.356 . S
C48 H85 0.930 . S
C49 C46 1.348 . S
C49 C48 1.356 . S
H50 C44 0.930 . S
H51 C45 0.930 . S
C52 N53 1.314 . S
C52 C54 1.353 . S
C52 H58 0.930 . S
N53 Li3 1.990 . S
N53 C52 1.314 . S
N53 C56 1.279 . S
C54 C52 1.353 . S
C54 C57 1.348 . S
C54 H86 0.929 . S
C55 C56 1.358 . S
C55 C57 1.356 . S
C55 H87 0.930 . S
C56 N53 1.279 . S
C56 C55 1.358 . S
C56 H59 0.930 . S
C57 C54 1.348 . S
C57 C55 1.356 . S
H58 C52 0.930 . S
H59 C56 0.930 . S
O60 Li0 1.956 . S
O60 Li1 1.970 . S
O60 Li2 1.961 . S
O60 C4 1.325 . S
O61 Li0 1.970 . S
O61 Li1 1.956 . S
O61 Li3 1.961 . S
O61 C10 1.325 . S
O62 Li0 1.961 . S
O62 Li2 1.956 . S
O62 Li3 1.970 . S
O62 C32 1.325 . S
O63 Li1 1.961 . S
O63 Li2 1.970 . S
O63 Li3 1.956 . S
O63 C38 1.325 . S
H64 C6 0.929 . S
H65 C7 0.930 . S
H66 C8 0.930 . S
H67 C9 0.930 . S
H68 C11 0.930 . S
H69 C13 0.929 . S
H70 C14 0.930 . S
H71 C15 0.930 . S
H72 C18 0.930 . S
H73 C21 0.929 . S
H74 C26 0.929 . S
H75 C27 0.930 . S
H76 C34 0.929 . S
H77 C35 0.930 . S
H78 C36 0.930 . S
H79 C37 0.930 . S
H80 C39 0.929 . S
H81 C40 0.930 . S
H82 C41 0.930 . S
H83 C42 0.930 . S
H84 C46 0.929 . S
H85 C48 0.930 . S
H86 C54 0.929 . S
H87 C55 0.930 . S
Li88 N105 1.990 . S
Li88 O148 1.956 . S
Li88 O149 1.970 . S
Li88 O150 1.961 . S
Li89 N113 1.990 . S
Li89 O148 1.970 . S
Li89 O149 1.956 . S
Li89 O151 1.961 . S
Li90 N135 1.990 . S
Li90 O148 1.961 . S
Li90 O150 1.956 . S
Li90 O151 1.970 . S
Li91 N141 1.990 . S
Li91 O149 1.961 . S
Li91 O150 1.970 . S
Li91 O151 1.956 . S
C92 C94 1.348 . S
C92 C95 1.356 . S
C92 O148 1.325 . S
N93 C96 1.314 . S
N93 C97 1.279 . S
C94 C92 1.348 . S
C94 C96 1.353 . S
C94 H152 0.929 . S
C95 C92 1.356 . S
C95 C97 1.358 . S
C95 H153 0.930 . S
C96 N93 1.314 . S
C96 C94 1.353 . S
C96 H154 0.930 . S
C97 N93 1.279 . S
C97 C95 1.358 . S
C97 H155 0.930 . S
C98 C101 1.348 . S
C98 C102 1.356 . S
C98 O149 1.325 . S
C99 N100 1.279 . S
C99 C102 1.358 . S
C99 H156 0.930 . S
N100 C99 1.279 . S
N100 C103 1.314 . S
C101 C98 1.348 . S
C101 C103 1.353 . S
C101 H157 0.929 . S
C102 C98 1.356 . S
C102 C99 1.358 . S
C102 H158 0.930 . S
C103 N100 1.314 . S
C103 C101 1.353 . S
C103 H159 0.930 . S
C104 N105 1.314 . S
C104 C109 1.353 . S
C104 H110 0.930 . S
N105 Li88 1.990 . S
N105 C104 1.314 . S
N105 C107 1.279 . S
C106 C107 1.358 . S
C106 C108 1.356 . S
C106 H160 0.930 . S
C107 N105 1.279 . S
C107 C106 1.358 . S
C107 H111 0.930 . S
C108 C106 1.356 . S
C108 C109 1.348 . S
C109 C104 1.353 . S
C109 C108 1.348 . S
C109 H161 0.929 . S
H110 C104 0.930 . S
H111 C107 0.930 . S
C112 N113 1.314 . S
C112 C114 1.353 . S
C112 H118 0.930 . S
N113 Li89 1.990 . S
N113 C112 1.314 . S
N113 C116 1.279 . S
C114 C112 1.353 . S
C114 C117 1.348 . S
C114 H162 0.929 . S
C115 C116 1.358 . S
C115 C117 1.356 . S
C115 H163 0.930 . S
C116 N113 1.279 . S
C116 C115 1.358 . S
C116 H119 0.930 . S
C117 C114 1.348 . S
C117 C115 1.356 . S
H118 C112 0.930 . S
H119 C116 0.930 . S
C120 C122 1.348 . S
C120 C123 1.356 . S
C120 O150 1.325 . S
N121 C124 1.314 . S
N121 C125 1.279 . S
C122 C120 1.348 . S
C122 C124 1.353 . S
C122 H164 0.929 . S
C123 C120 1.356 . S
C123 C125 1.358 . S
C123 H165 0.930 . S
C124 N121 1.314 . S
C124 C122 1.353 . S
C124 H166 0.930 . S
C125 N121 1.279 . S
C125 C123 1.358 . S
C125 H167 0.930 . S
C126 C127 1.348 . S
C126 C128 1.356 . S
C126 O151 1.325 . S
C127 C126 1.348 . S
C127 C129 1.353 . S
C127 H168 0.929 . S
C128 C126 1.356 . S
C128 C130 1.358 . S
C128 H169 0.930 . S
C129 C127 1.353 . S
C129 N131 1.314 . S
C129 H170 0.930 . S
C130 C128 1.358 . S
C130 N131 1.279 . S
C130 H171 0.930 . S
N131 C129 1.314 . S
N131 C130 1.279 . S
C132 C134 1.353 . S
C132 N135 1.314 . S
C132 H138 0.930 . S
C133 N135 1.279 . S
C133 C136 1.358 . S
C133 H139 0.930 . S
C134 C132 1.353 . S
C134 C137 1.348 . S
C134 H172 0.929 . S
N135 Li90 1.990 . S
N135 C132 1.314 . S
N135 C133 1.279 . S
C136 C133 1.358 . S
C136 C137 1.356 . S
C136 H173 0.930 . S
C137 C134 1.348 . S
C137 C136 1.356 . S
H138 C132 0.930 . S
H139 C133 0.930 . S
C140 N141 1.314 . S
C140 C142 1.353 . S
C140 H146 0.930 . S
N141 Li91 1.990 . S
N141 C140 1.314 . S
N141 C144 1.279 . S
C142 C140 1.353 . S
C142 C145 1.348 . S
C142 H174 0.929 . S
C143 C144 1.358 . S
C143 C145 1.356 . S
C143 H175 0.930 . S
C144 N141 1.279 . S
C144 C143 1.358 . S
C144 H147 0.930 . S
C145 C142 1.348 . S
C145 C143 1.356 . S
H146 C140 0.930 . S
H147 C144 0.930 . S
O148 Li88 1.956 . S
O148 Li89 1.970 . S
O148 Li90 1.961 . S
O148 C92 1.325 . S
O149 Li88 1.970 . S
O149 Li89 1.956 . S
O149 Li91 1.961 . S
O149 C98 1.325 . S
O150 Li88 1.961 . S
O150 Li90 1.956 . S
O150 Li91 1.970 . S
O150 C120 1.325 . S
O151 Li89 1.961 . S
O151 Li90 1.970 . S
O151 Li91 1.956 . S
O151 C126 1.325 . S
H152 C94 0.929 . S
H153 C95 0.930 . S
H154 C96 0.930 . S
H155 C97 0.930 . S
H156 C99 0.930 . S
H157 C101 0.929 . S
H158 C102 0.930 . S
H159 C103 0.930 . S
H160 C106 0.930 . S
H161 C109 0.929 . S
H162 C114 0.929 . S
H163 C115 0.930 . S
H164 C122 0.929 . S
H165 C123 0.930 . S
H166 C124 0.930 . S
H167 C125 0.930 . S
H168 C127 0.929 . S
H169 C128 0.930 . S
H170 C129 0.930 . S
H171 C130 0.930 . S
H172 C134 0.929 . S
H173 C136 0.930 . S
H174 C142 0.929 . S
H175 C143 0.930 . S
Li176 N193 1.990 1_565 S
Li176 O236 1.956 . S
Li176 O237 1.970 . S
Li176 O238 1.961 . S
Li177 N201 1.990 1_556 S
Li177 O236 1.970 . S
Li177 O237 1.956 . S
Li177 O239 1.961 . S
Li178 N223 1.990 . S
Li178 O236 1.961 . S
Li178 O238 1.956 . S
Li178 O239 1.970 . S
Li179 N229 1.990 1_565 S
Li179 O237 1.961 . S
Li179 O238 1.970 . S
Li179 O239 1.956 . S
C180 C182 1.348 . S
C180 C183 1.356 . S
C180 O236 1.325 . S
N181 C184 1.314 . S
N181 C185 1.279 . S
C182 C180 1.348 . S
C182 C184 1.353 . S
C182 H240 0.929 . S
C183 C180 1.356 . S
C183 C185 1.358 . S
C183 H241 0.930 . S
C184 N181 1.314 . S
C184 C182 1.353 . S
C184 H242 0.930 . S
C185 N181 1.279 . S
C185 C183 1.358 . S
C185 H243 0.930 . S
C186 C189 1.348 . S
C186 C190 1.356 . S
C186 O237 1.325 1_544 S
C187 N188 1.279 . S
C187 C190 1.358 . S
C187 H244 0.930 . S
N188 C187 1.279 . S
N188 C191 1.314 . S
C189 C186 1.348 . S
C189 C191 1.353 . S
C189 H245 0.929 1_554 S
C190 C186 1.356 . S
C190 C187 1.358 . S
C190 H246 0.930 1_545 S
C191 N188 1.314 . S
C191 C189 1.353 . S
C191 H247 0.930 . S
C192 N193 1.314 . S
C192 C197 1.353 . S
C192 H198 0.930 . S
N193 Li176 1.990 1_545 S
N193 C192 1.314 . S
N193 C195 1.279 1_545 S
C194 C195 1.358 1_545 S
C194 C196 1.356 . S
C194 H248 0.930 . S
C195 N193 1.279 1_565 S
C195 C194 1.358 1_565 S
C195 H199 0.930 . S
C196 C194 1.356 . S
C196 C197 1.348 . S
C197 C192 1.353 . S
C197 C196 1.348 . S
C197 H249 0.929 . S
H198 C192 0.930 . S
H199 C195 0.930 . S
C200 N201 1.314 . S
C200 C202 1.353 . S
C200 H206 0.930 . S
N201 Li177 1.990 1_554 S
N201 C200 1.314 . S
N201 C204 1.279 . S
C202 C200 1.353 . S
C202 C205 1.348 . S
C202 H250 0.929 . S
C203 C204 1.358 . S
C203 C205 1.356 . S
C203 H251 0.930 . S
C204 N201 1.279 . S
C204 C203 1.358 . S
C204 H207 0.930 . S
C205 C202 1.348 . S
C205 C203 1.356 . S
H206 C200 0.930 . S
H207 C204 0.930 . S
C208 C210 1.348 . S
C208 C211 1.356 . S
C208 O238 1.325 1_545 S
N209 C212 1.314 . S
N209 C213 1.279 . S
C210 C208 1.348 . S
C210 C212 1.353 . S
C210 H252 0.929 . S
C211 C208 1.356 . S
C211 C213 1.358 . S
C211 H253 0.930 1_545 S
C212 N209 1.314 . S
C212 C210 1.353 . S
C212 H254 0.930 . S
C213 N209 1.279 . S
C213 C211 1.358 . S
C213 H255 0.930 . S
C214 C215 1.348 . S
C214 C216 1.356 1_556 S
C214 O239 1.325 . S
C215 C214 1.348 . S
C215 C217 1.353 . S
C215 H256 0.929 . S
C216 C214 1.356 1_554 S
C216 C218 1.358 . S
C216 H257 0.930 . S
C217 C215 1.353 . S
C217 N219 1.314 1_556 S
C217 H258 0.930 . S
C218 C216 1.358 . S
C218 N219 1.279 . S
C218 H259 0.930 . S
N219 C217 1.314 1_554 S
N219 C218 1.279 . S
C220 C222 1.353 . S
C220 N223 1.314 . S
C220 H226 0.930 . S
C221 N223 1.279 . S
C221 C224 1.358 . S
C221 H227 0.930 . S
C222 C220 1.353 . S
C222 C225 1.348 . S
C222 H260 0.929 . S
N223 Li178 1.990 . S
N223 C220 1.314 . S
N223 C221 1.279 . S
C224 C221 1.358 . S
C224 C225 1.356 . S
C224 H261 0.930 . S
C225 C222 1.348 . S
C225 C224 1.356 . S
H226 C220 0.930 . S
H227 C221 0.930 . S
C228 N229 1.314 . S
C228 C230 1.353 1_556 S
C228 H234 0.930 . S
N229 Li179 1.990 1_545 S
N229 C228 1.314 . S
N229 C232 1.279 1_545 S
C230 C228 1.353 1_554 S
C230 C233 1.348 . S
C230 H262 0.929 . S
C231 C232 1.358 1_544 S
C231 C233 1.356 . S
C231 H263 0.930 . S
C232 N229 1.279 1_565 S
C232 C231 1.358 1_566 S
C232 H235 0.930 . S
C233 C230 1.348 . S
C233 C231 1.356 . S
H234 C228 0.930 . S
H235 C232 0.930 . S
O236 Li176 1.956 . S
O236 Li177 1.970 . S
O236 Li178 1.961 . S
O236 C180 1.325 . S
O237 Li176 1.970 . S
O237 Li177 1.956 . S
O237 Li179 1.961 . S
O237 C186 1.325 1_566 S
O238 Li176 1.961 . S
O238 Li178 1.956 . S
O238 Li179 1.970 . S
O238 C208 1.325 1_565 S
O239 Li177 1.961 . S
O239 Li178 1.970 . S
O239 Li179 1.956 . S
O239 C214 1.325 . S
H240 C182 0.929 . S
H241 C183 0.930 . S
H242 C184 0.930 . S
H243 C185 0.930 . S
H244 C187 0.930 . S
H245 C189 0.929 1_556 S
H246 C190 0.930 1_565 S
H247 C191 0.930 . S
H248 C194 0.930 . S
H249 C197 0.929 . S
H250 C202 0.929 . S
H251 C203 0.930 . S
H252 C210 0.929 . S
H253 C211 0.930 1_565 S
H254 C212 0.930 . S
H255 C213 0.930 . S
H256 C215 0.929 . S
H257 C216 0.930 . S
H258 C217 0.930 . S
H259 C218 0.930 . S
H260 C222 0.929 . S
H261 C224 0.930 . S
H262 C230 0.929 . S
H263 C231 0.930 . S
Li264 N281 1.990 1_455 S
Li264 O324 1.956 . S
Li264 O325 1.970 . S
Li264 O326 1.961 . S
Li265 N289 1.990 . S
Li265 O324 1.970 . S
Li265 O325 1.956 . S
Li265 O327 1.961 . S
Li266 N311 1.990 1_554 S
Li266 O324 1.961 . S
Li266 O326 1.956 . S
Li266 O327 1.970 . S
Li267 N317 1.990 1_455 S
Li267 O325 1.961 . S
Li267 O326 1.970 . S
Li267 O327 1.956 . S
C268 C270 1.348 . S
C268 C271 1.356 1_554 S
C268 O324 1.325 . S
N269 C272 1.314 1_556 S
N269 C273 1.279 . S
C270 C268 1.348 . S
C270 C272 1.353 . S
C270 H328 0.929 . S
C271 C268 1.356 1_556 S
C271 C273 1.358 . S
C271 H329 0.930 . S
C272 N269 1.314 1_554 S
C272 C270 1.353 . S
C272 H330 0.930 . S
C273 N269 1.279 . S
C273 C271 1.358 . S
C273 H331 0.930 . S
C274 C277 1.348 . S
C274 C278 1.356 . S
C274 O325 1.325 1_655 S
C275 N276 1.279 . S
C275 C278 1.358 . S
C275 H332 0.930 . S
N276 C275 1.279 . S
N276 C279 1.314 . S
C277 C274 1.348 . S
C277 C279 1.353 . S
C277 H333 0.929 . S
C278 C274 1.356 . S
C278 C275 1.358 . S
C278 H334 0.930 1_655 S
C279 N276 1.314 . S
C279 C277 1.353 . S
C279 H335 0.930 . S
C280 N281 1.314 . S
C280 C285 1.353 1_554 S
C280 H286 0.930 . S
N281 Li264 1.990 1_655 S
N281 C280 1.314 . S
N281 C283 1.279 1_655 S
C282 C283 1.358 1_656 S
C282 C284 1.356 . S
C282 H336 0.930 . S
C283 N281 1.279 1_455 S
C283 C282 1.358 1_454 S
C283 H287 0.930 . S
C284 C282 1.356 . S
C284 C285 1.348 . S
C285 C280 1.353 1_556 S
C285 C284 1.348 . S
C285 H337 0.929 . S
H286 C280 0.930 . S
H287 C283 0.930 . S
C288 N289 1.314 . S
C288 C290 1.353 . S
C288 H294 0.930 . S
N289 Li265 1.990 . S
N289 C288 1.314 . S
N289 C292 1.279 . S
C290 C288 1.353 . S
C290 C293 1.348 . S
C290 H338 0.929 . S
C291 C292 1.358 . S
C291 C293 1.356 . S
C291 H339 0.930 . S
C292 N289 1.279 . S
C292 C291 1.358 . S
C292 H295 0.930 . S
C293 C290 1.348 . S
C293 C291 1.356 . S
H294 C288 0.930 . S
H295 C292 0.930 . S
C296 C298 1.348 . S
C296 C299 1.356 . S
C296 O326 1.325 1_656 S
N297 C300 1.314 . S
N297 C301 1.279 . S
C298 C296 1.348 . S
C298 C300 1.353 . S
C298 H340 0.929 1_556 S
C299 C296 1.356 . S
C299 C301 1.358 . S
C299 H341 0.930 1_655 S
C300 N297 1.314 . S
C300 C298 1.353 . S
C300 H342 0.930 . S
C301 N297 1.279 . S
C301 C299 1.358 . S
C301 H343 0.930 . S
C302 C303 1.348 . S
C302 C304 1.356 . S
C302 O327 1.325 . S
C303 C302 1.348 . S
C303 C305 1.353 . S
C303 H344 0.929 . S
C304 C302 1.356 . S
C304 C306 1.358 . S
C304 H345 0.930 . S
C305 C303 1.353 . S
C305 N307 1.314 . S
C305 H346 0.930 . S
C306 C304 1.358 . S
C306 N307 1.279 . S
C306 H347 0.930 . S
N307 C305 1.314 . S
N307 C306 1.279 . S
C308 C310 1.353 . S
C308 N311 1.314 . S
C308 H314 0.930 . S
C309 N311 1.279 . S
C309 C312 1.358 . S
C309 H315 0.930 . S
C310 C308 1.353 . S
C310 C313 1.348 . S
C310 H348 0.929 . S
N311 Li266 1.990 1_556 S
N311 C308 1.314 . S
N311 C309 1.279 . S
C312 C309 1.358 . S
C312 C313 1.356 . S
C312 H349 0.930 . S
C313 C310 1.348 . S
C313 C312 1.356 . S
H314 C308 0.930 . S
H315 C309 0.930 . S
C316 N317 1.314 . S
C316 C318 1.353 . S
C316 H322 0.930 . S
N317 Li267 1.990 1_655 S
N317 C316 1.314 . S
N317 C320 1.279 1_655 S
C318 C316 1.353 . S
C318 C321 1.348 . S
C318 H350 0.929 . S
C319 C320 1.358 1_655 S
C319 C321 1.356 . S
C319 H351 0.930 . S
C320 N317 1.279 1_455 S
C320 C319 1.358 1_455 S
C320 H323 0.930 . S
C321 C318 1.348 . S
C321 C319 1.356 . S
H322 C316 0.930 . S
H323 C320 0.930 . S
O324 Li264 1.956 . S
O324 Li265 1.970 . S
O324 Li266 1.961 . S
O324 C268 1.325 . S
O325 Li264 1.970 . S
O325 Li265 1.956 . S
O325 Li267 1.961 . S
O325 C274 1.325 1_455 S
O326 Li264 1.961 . S
O326 Li266 1.956 . S
O326 Li267 1.970 . S
O326 C296 1.325 1_454 S
O327 Li265 1.961 . S
O327 Li266 1.970 . S
O327 Li267 1.956 . S
O327 C302 1.325 . S
H328 C270 0.929 . S
H329 C271 0.930 . S
H330 C272 0.930 . S
H331 C273 0.930 . S
H332 C275 0.930 . S
H333 C277 0.929 . S
H334 C278 0.930 1_455 S
H335 C279 0.930 . S
H336 C282 0.930 . S
H337 C285 0.929 . S
H338 C290 0.929 . S
H339 C291 0.930 . S
H340 C298 0.929 1_554 S
H341 C299 0.930 1_455 S
H342 C300 0.930 . S
H343 C301 0.930 . S
H344 C303 0.929 . S
H345 C304 0.930 . S
H346 C305 0.930 . S
H347 C306 0.930 . S
H348 C310 0.929 . S
H349 C312 0.930 . S
H350 C318 0.929 . S
H351 C319 0.930 . S
Li352 N369 1.990 1_556 S
Li352 O412 1.956 . S
Li352 O413 1.970 . S
Li352 O414 1.961 . S
Li353 N377 1.990 1_545 S
Li353 O412 1.970 . S
Li353 O413 1.956 . S
Li353 O415 1.961 . S
Li354 N399 1.990 1_545 S
Li354 O412 1.961 . S
Li354 O414 1.956 . S
Li354 O415 1.970 . S
Li355 N405 1.990 . S
Li355 O413 1.961 . S
Li355 O414 1.970 . S
Li355 O415 1.956 . S
C356 C358 1.348 . S
C356 C359 1.356 . S
C356 O412 1.325 1_564 S
N357 C360 1.314 . S
N357 C361 1.279 . S
C358 C356 1.348 . S
C358 C360 1.353 . S
C358 H416 0.929 1_554 S
C359 C356 1.356 . S
C359 C361 1.358 . S
C359 H417 0.930 1_565 S
C360 N357 1.314 . S
C360 C358 1.353 . S
C360 H418 0.930 . S
C361 N357 1.279 . S
C361 C359 1.358 . S
C361 H419 0.930 . S
C362 C365 1.348 . S
C362 C366 1.356 . S
C362 O413 1.325 . S
C363 N364 1.279 . S
C363 C366 1.358 . S
C363 H420 0.930 . S
N364 C363 1.279 . S
N364 C367 1.314 . S
C365 C362 1.348 . S
C365 C367 1.353 . S
C365 H421 0.929 . S
C366 C362 1.356 . S
C366 C363 1.358 . S
C366 H422 0.930 . S
C367 N364 1.314 . S
C367 C365 1.353 . S
C367 H423 0.930 . S
C368 N369 1.314 . S
C368 C373 1.353 . S
C368 H374 0.930 . S
N369 Li352 1.990 1_554 S
N369 C368 1.314 . S
N369 C371 1.279 . S
C370 C371 1.358 . S
C370 C372 1.356 . S
C370 H424 0.930 . S
C371 N369 1.279 . S
C371 C370 1.358 . S
C371 H375 0.930 . S
C372 C370 1.356 . S
C372 C373 1.348 . S
C373 C368 1.353 . S
C373 C372 1.348 . S
C373 H425 0.929 . S
H374 C368 0.930 . S
H375 C371 0.930 . S
C376 N377 1.314 . S
C376 C378 1.353 . S
C376 H382 0.930 . S
N377 Li353 1.990 1_565 S
N377 C376 1.314 . S
N377 C380 1.279 1_565 S
C378 C376 1.353 . S
C378 C381 1.348 . S
C378 H426 0.929 . S
C379 C380 1.358 1_565 S
C379 C381 1.356 . S
C379 H427 0.930 . S
C380 N377 1.279 1_545 S
C380 C379 1.358 1_545 S
C380 H383 0.930 . S
C381 C378 1.348 . S
C381 C379 1.356 . S
H382 C376 0.930 . S
H383 C380 0.930 . S
C384 C386 1.348 . S
C384 C387 1.356 1_556 S
C384 O414 1.325 . S
N385 C388 1.314 1_554 S
N385 C389 1.279 . S
C386 C384 1.348 . S
C386 C388 1.353 . S
C386 H428 0.929 . S
C387 C384 1.356 1_554 S
C387 C389 1.358 . S
C387 H429 0.930 . S
C388 N385 1.314 1_556 S
C388 C386 1.353 . S
C388 H430 0.930 . S
C389 N385 1.279 . S
C389 C387 1.358 . S
C389 H431 0.930 . S
C390 C391 1.348 . S
C390 C392 1.356 . S
C390 O415 1.325 1_565 S
C391 C390 1.348 . S
C391 C393 1.353 . S
C391 H432 0.929 . S
C392 C390 1.356 . S
C392 C394 1.358 . S
C392 H433 0.930 1_565 S
C393 C391 1.353 . S
C393 N395 1.314 . S
C393 H434 0.930 . S
C394 C392 1.358 . S
C394 N395 1.279 . S
C394 H435 0.930 . S
N395 C393 1.314 . S
N395 C394 1.279 . S
C396 C398 1.353 1_556 S
C396 N399 1.314 . S
C396 H402 0.930 . S
C397 N399 1.279 1_545 S
C397 C400 1.358 1_546 S
C397 H403 0.930 . S
C398 C396 1.353 1_554 S
C398 C401 1.348 . S
C398 H436 0.929 . S
N399 Li354 1.990 1_565 S
N399 C396 1.314 . S
N399 C397 1.279 1_565 S
C400 C397 1.358 1_564 S
C400 C401 1.356 . S
C400 H437 0.930 . S
C401 C398 1.348 . S
C401 C400 1.356 . S
H402 C396 0.930 . S
H403 C397 0.930 . S
C404 N405 1.314 . S
C404 C406 1.353 . S
C404 H410 0.930 . S
N405 Li355 1.990 . S
N405 C404 1.314 . S
N405 C408 1.279 . S
C406 C404 1.353 . S
C406 C409 1.348 . S
C406 H438 0.929 . S
C407 C408 1.358 . S
C407 C409 1.356 . S
C407 H439 0.930 . S
C408 N405 1.279 . S
C408 C407 1.358 . S
C408 H411 0.930 . S
C409 C406 1.348 . S
C409 C407 1.356 . S
H410 C404 0.930 . S
H411 C408 0.930 . S
O412 Li352 1.956 . S
O412 Li353 1.970 . S
O412 Li354 1.961 . S
O412 C356 1.325 1_546 S
O413 Li352 1.970 . S
O413 Li353 1.956 . S
O413 Li355 1.961 . S
O413 C362 1.325 . S
O414 Li352 1.961 . S
O414 Li354 1.956 . S
O414 Li355 1.970 . S
O414 C384 1.325 . S
O415 Li353 1.961 . S
O415 Li354 1.970 . S
O415 Li355 1.956 . S
O415 C390 1.325 1_545 S
H416 C358 0.929 1_556 S
H417 C359 0.930 1_545 S
H418 C360 0.930 . S
H419 C361 0.930 . S
H420 C363 0.930 . S
H421 C365 0.929 . S
H422 C366 0.930 . S
H423 C367 0.930 . S
H424 C370 0.930 . S
H425 C373 0.929 . S
H426 C378 0.929 . S
H427 C379 0.930 . S
H428 C386 0.929 . S
H429 C387 0.930 . S
H430 C388 0.930 . S
H431 C389 0.930 . S
H432 C391 0.929 . S
H433 C392 0.930 1_545 S
H434 C393 0.930 . S
H435 C394 0.930 . S
H436 C398 0.929 . S
H437 C400 0.930 . S
H438 C406 0.929 . S
H439 C407 0.930 . S
Li440 N457 1.990 . S
Li440 O500 1.956 . S
Li440 O501 1.970 . S
Li440 O502 1.961 . S
Li441 N465 1.990 1_655 S
Li441 O500 1.970 . S
Li441 O501 1.956 . S
Li441 O503 1.961 . S
Li442 N487 1.990 1_655 S
Li442 O500 1.961 . S
Li442 O502 1.956 . S
Li442 O503 1.970 . S
Li443 N493 1.990 1_554 S
Li443 O501 1.961 . S
Li443 O502 1.970 . S
Li443 O503 1.956 . S
C444 C446 1.348 . S
C444 C447 1.356 . S
C444 O500 1.325 1_455 S
N445 C448 1.314 . S
N445 C449 1.279 . S
C446 C444 1.348 . S
C446 C448 1.353 . S
C446 H504 0.929 . S
C447 C444 1.356 . S
C447 C449 1.358 . S
C447 H505 0.930 1_455 S
C448 N445 1.314 . S
C448 C446 1.353 . S
C448 H506 0.930 . S
C449 N445 1.279 . S
C449 C447 1.358 . S
C449 H507 0.930 . S
C450 C453 1.348 . S
C450 C454 1.356 1_554 S
C450 O501 1.325 . S
C451 N452 1.279 . S
C451 C454 1.358 . S
C451 H508 0.930 . S
N452 C451 1.279 . S
N452 C455 1.314 1_556 S
C453 C450 1.348 . S
C453 C455 1.353 . S
C453 H509 0.929 . S
C454 C450 1.356 1_556 S
C454 C451 1.358 . S
C454 H510 0.930 . S
C455 N452 1.314 1_554 S
C455 C453 1.353 . S
C455 H511 0.930 . S
C456 N457 1.314 . S
C456 C461 1.353 . S
C456 H462 0.930 . S
N457 Li440 1.990 . S
N457 C456 1.314 . S
N457 C459 1.279 . S
C458 C459 1.358 . S
C458 C460 1.356 . S
C458 H512 0.930 . S
C459 N457 1.279 . S
C459 C458 1.358 . S
C459 H463 0.930 . S
C460 C458 1.356 . S
C460 C461 1.348 . S
C461 C456 1.353 . S
C461 C460 1.348 . S
C461 H513 0.929 . S
H462 C456 0.930 . S
H463 C459 0.930 . S
C464 N465 1.314 . S
C464 C466 1.353 1_554 S
C464 H470 0.930 . S
N465 Li441 1.990 1_455 S
N465 C464 1.314 . S
N465 C468 1.279 1_455 S
C466 C464 1.353 1_556 S
C466 C469 1.348 . S
C466 H514 0.929 . S
C467 C468 1.358 1_456 S
C467 C469 1.356 . S
C467 H515 0.930 . S
C468 N465 1.279 1_655 S
C468 C467 1.358 1_654 S
C468 H471 0.930 . S
C469 C466 1.348 . S
C469 C467 1.356 . S
H470 C464 0.930 . S
H471 C468 0.930 . S
C472 C474 1.348 . S
C472 C475 1.356 . S
C472 O502 1.325 . S
N473 C476 1.314 . S
N473 C477 1.279 . S
C474 C472 1.348 . S
C474 C476 1.353 . S
C474 H516 0.929 . S
C475 C472 1.356 . S
C475 C477 1.358 . S
C475 H517 0.930 . S
C476 N473 1.314 . S
C476 C474 1.353 . S
C476 H518 0.930 . S
C477 N473 1.279 . S
C477 C475 1.358 . S
C477 H519 0.930 . S
C478 C479 1.348 . S
C478 C480 1.356 . S
C478 O503 1.325 1_456 S
C479 C478 1.348 . S
C479 C481 1.353 . S
C479 H520 0.929 1_556 S
C480 C478 1.356 . S
C480 C482 1.358 . S
C480 H521 0.930 1_455 S
C481 C479 1.353 . S
C481 N483 1.314 . S
C481 H522 0.930 . S
C482 C480 1.358 . S
C482 N483 1.279 . S
C482 H523 0.930 . S
N483 C481 1.314 . S
N483 C482 1.279 . S
C484 C486 1.353 . S
C484 N487 1.314 . S
C484 H490 0.930 . S
C485 N487 1.279 1_655 S
C485 C488 1.358 1_655 S
C485 H491 0.930 . S
C486 C484 1.353 . S
C486 C489 1.348 . S
C486 H524 0.929 . S
N487 Li442 1.990 1_455 S
N487 C484 1.314 . S
N487 C485 1.279 1_455 S
C488 C485 1.358 1_455 S
C488 C489 1.356 . S
C488 H525 0.930 . S
C489 C486 1.348 . S
C489 C488 1.356 . S
H490 C484 0.930 . S
H491 C485 0.930 . S
C492 N493 1.314 . S
C492 C494 1.353 . S
C492 H498 0.930 . S
N493 Li443 1.990 1_556 S
N493 C492 1.314 . S
N493 C496 1.279 . S
C494 C492 1.353 . S
C494 C497 1.348 . S
C494 H526 0.929 . S
C495 C496 1.358 . S
C495 C497 1.356 . S
C495 H527 0.930 . S
C496 N493 1.279 . S
C496 C495 1.358 . S
C496 H499 0.930 . S
C497 C494 1.348 . S
C497 C495 1.356 . S
H498 C492 0.930 . S
H499 C496 0.930 . S
O500 Li440 1.956 . S
O500 Li441 1.970 . S
O500 Li442 1.961 . S
O500 C444 1.325 1_655 S
O501 Li440 1.970 . S
O501 Li441 1.956 . S
O501 Li443 1.961 . S
O501 C450 1.325 . S
O502 Li440 1.961 . S
O502 Li442 1.956 . S
O502 Li443 1.970 . S
O502 C472 1.325 . S
O503 Li441 1.961 . S
O503 Li442 1.970 . S
O503 Li443 1.956 . S
O503 C478 1.325 1_654 S
H504 C446 0.929 . S
H505 C447 0.930 1_655 S
H506 C448 0.930 . S
H507 C449 0.930 . S
H508 C451 0.930 . S
H509 C453 0.929 . S
H510 C454 0.930 . S
H511 C455 0.930 . S
H512 C458 0.930 . S
H513 C461 0.929 . S
H514 C466 0.929 . S
H515 C467 0.930 . S
H516 C474 0.929 . S
H517 C475 0.930 . S
H518 C476 0.930 . S
H519 C477 0.930 . S
H520 C479 0.929 1_554 S
H521 C480 0.930 1_655 S
H522 C481 0.930 . S
H523 C482 0.930 . S
H524 C486 0.929 . S
H525 C488 0.930 . S
H526 C494 0.929 . S
H527 C495 0.930 . S
Li528 N545 1.990 . S
Li528 O588 1.956 . S
Li528 O589 1.970 . S
Li528 O590 1.961 . S
Li529 N553 1.990 . S
Li529 O588 1.970 . S
Li529 O589 1.956 . S
Li529 O591 1.961 . S
Li530 N575 1.990 . S
Li530 O588 1.961 . S
Li530 O590 1.956 . S
Li530 O591 1.970 . S
Li531 N581 1.990 . S
Li531 O589 1.961 . S
Li531 O590 1.970 . S
Li531 O591 1.956 . S
C532 C534 1.348 . S
C532 C535 1.356 . S
C532 O588 1.325 . S
N533 C536 1.314 . S
N533 C537 1.279 . S
C534 C532 1.348 . S
C534 C536 1.353 . S
C534 H592 0.929 . S
C535 C532 1.356 . S
C535 C537 1.358 . S
C535 H593 0.930 . S
C536 N533 1.314 . S
C536 C534 1.353 . S
C536 H594 0.930 . S
C537 N533 1.279 . S
C537 C535 1.358 . S
C537 H595 0.930 . S
C538 C541 1.348 . S
C538 C542 1.356 . S
C538 O589 1.325 . S
C539 N540 1.279 . S
C539 C542 1.358 . S
C539 H596 0.930 . S
N540 C539 1.279 . S
N540 C543 1.314 . S
C541 C538 1.348 . S
C541 C543 1.353 . S
C541 H597 0.929 . S
C542 C538 1.356 . S
C542 C539 1.358 . S
C542 H598 0.930 . S
C543 N540 1.314 . S
C543 C541 1.353 . S
C543 H599 0.930 . S
C544 N545 1.314 . S
C544 C549 1.353 . S
C544 H550 0.930 . S
N545 Li528 1.990 . S
N545 C544 1.314 . S
N545 C547 1.279 . S
C546 C547 1.358 . S
C546 C548 1.356 . S
C546 H600 0.930 . S
C547 N545 1.279 . S
C547 C546 1.358 . S
C547 H551 0.930 . S
C548 C546 1.356 . S
C548 C549 1.348 . S
C549 C544 1.353 . S
C549 C548 1.348 . S
C549 H601 0.929 . S
H550 C544 0.930 . S
H551 C547 0.930 . S
C552 N553 1.314 . S
C552 C554 1.353 . S
C552 H558 0.930 . S
N553 Li529 1.990 . S
N553 C552 1.314 . S
N553 C556 1.279 . S
C554 C552 1.353 . S
C554 C557 1.348 . S
C554 H602 0.929 . S
C555 C556 1.358 . S
C555 C557 1.356 . S
C555 H603 0.930 . S
C556 N553 1.279 . S
C556 C555 1.358 . S
C556 H559 0.930 . S
C557 C554 1.348 . S
C557 C555 1.356 . S
H558 C552 0.930 . S
H559 C556 0.930 . S
C560 C562 1.348 . S
C560 C563 1.356 . S
C560 O590 1.325 . S
N561 C564 1.314 . S
N561 C565 1.279 . S
C562 C560 1.348 . S
C562 C564 1.353 . S
C562 H604 0.929 . S
C563 C560 1.356 . S
C563 C565 1.358 . S
C563 H605 0.930 . S
C564 N561 1.314 . S
C564 C562 1.353 . S
C564 H606 0.930 . S
C565 N561 1.279 . S
C565 C563 1.358 . S
C565 H607 0.930 . S
C566 C567 1.348 . S
C566 C568 1.356 . S
C566 O591 1.325 . S
C567 C566 1.348 . S
C567 C569 1.353 . S
C567 H608 0.929 . S
C568 C566 1.356 . S
C568 C570 1.358 . S
C568 H609 0.930 . S
C569 C567 1.353 . S
C569 N571 1.314 . S
C569 H610 0.930 . S
C570 C568 1.358 . S
C570 N571 1.279 . S
C570 H611 0.930 . S
N571 C569 1.314 . S
N571 C570 1.279 . S
C572 C574 1.353 . S
C572 N575 1.314 . S
C572 H578 0.930 . S
C573 N575 1.279 . S
C573 C576 1.358 . S
C573 H579 0.930 . S
C574 C572 1.353 . S
C574 C577 1.348 . S
C574 H612 0.929 . S
N575 Li530 1.990 . S
N575 C572 1.314 . S
N575 C573 1.279 . S
C576 C573 1.358 . S
C576 C577 1.356 . S
C576 H613 0.930 . S
C577 C574 1.348 . S
C577 C576 1.356 . S
H578 C572 0.930 . S
H579 C573 0.930 . S
C580 N581 1.314 . S
C580 C582 1.353 . S
C580 H586 0.930 . S
N581 Li531 1.990 . S
N581 C580 1.314 . S
N581 C584 1.279 . S
C582 C580 1.353 . S
C582 C585 1.348 . S
C582 H614 0.929 . S
C583 C584 1.358 . S
C583 C585 1.356 . S
C583 H615 0.930 . S
C584 N581 1.279 . S
C584 C583 1.358 . S
C584 H587 0.930 . S
C585 C582 1.348 . S
C585 C583 1.356 . S
H586 C580 0.930 . S
H587 C584 0.930 . S
O588 Li528 1.956 . S
O588 Li529 1.970 . S
O588 Li530 1.961 . S
O588 C532 1.325 . S
O589 Li528 1.970 . S
O589 Li529 1.956 . S
O589 Li531 1.961 . S
O589 C538 1.325 . S
O590 Li528 1.961 . S
O590 Li530 1.956 . S
O590 Li531 1.970 . S
O590 C560 1.325 . S
O591 Li529 1.961 . S
O591 Li530 1.970 . S
O591 Li531 1.956 . S
O591 C566 1.325 . S
H592 C534 0.929 . S
H593 C535 0.930 . S
H594 C536 0.930 . S
H595 C537 0.930 . S
H596 C539 0.930 . S
H597 C541 0.929 . S
H598 C542 0.930 . S
H599 C543 0.930 . S
H600 C546 0.930 . S
H601 C549 0.929 . S
H602 C554 0.929 . S
H603 C555 0.930 . S
H604 C562 0.929 . S
H605 C563 0.930 . S
H606 C564 0.930 . S
H607 C565 0.930 . S
H608 C567 0.929 . S
H609 C568 0.930 . S
H610 C569 0.930 . S
H611 C570 0.930 . S
H612 C574 0.929 . S
H613 C576 0.930 . S
H614 C582 0.929 . S
H615 C583 0.930 . S
Li616 N633 1.990 . S
Li616 O676 1.956 . S
Li616 O677 1.970 . S
Li616 O678 1.961 . S
Li617 N641 1.990 . S
Li617 O676 1.970 . S
Li617 O677 1.956 . S
Li617 O679 1.961 . S
Li618 N663 1.990 . S
Li618 O676 1.961 . S
Li618 O678 1.956 . S
Li618 O679 1.970 . S
Li619 N669 1.990 . S
Li619 O677 1.961 . S
Li619 O678 1.970 . S
Li619 O679 1.956 . S
C620 C622 1.348 . S
C620 C623 1.356 . S
C620 O676 1.325 . S
N621 C624 1.314 . S
N621 C625 1.279 . S
C622 C620 1.348 . S
C622 C624 1.353 . S
C622 H680 0.929 . S
C623 C620 1.356 . S
C623 C625 1.358 . S
C623 H681 0.930 . S
C624 N621 1.314 . S
C624 C622 1.353 . S
C624 H682 0.930 . S
C625 N621 1.279 . S
C625 C623 1.358 . S
C625 H683 0.930 . S
C626 C629 1.348 . S
C626 C630 1.356 . S
C626 O677 1.325 . S
C627 N628 1.279 . S
C627 C630 1.358 . S
C627 H684 0.930 . S
N628 C627 1.279 . S
N628 C631 1.314 . S
C629 C626 1.348 . S
C629 C631 1.353 . S
C629 H685 0.929 . S
C630 C626 1.356 . S
C630 C627 1.358 . S
C630 H686 0.930 . S
C631 N628 1.314 . S
C631 C629 1.353 . S
C631 H687 0.930 . S
C632 N633 1.314 . S
C632 C637 1.353 . S
C632 H638 0.930 . S
N633 Li616 1.990 . S
N633 C632 1.314 . S
N633 C635 1.279 . S
C634 C635 1.358 . S
C634 C636 1.356 . S
C634 H688 0.930 . S
C635 N633 1.279 . S
C635 C634 1.358 . S
C635 H639 0.930 . S
C636 C634 1.356 . S
C636 C637 1.348 . S
C637 C632 1.353 . S
C637 C636 1.348 . S
C637 H689 0.929 . S
H638 C632 0.930 . S
H639 C635 0.930 . S
C640 N641 1.314 . S
C640 C642 1.353 . S
C640 H646 0.930 . S
N641 Li617 1.990 . S
N641 C640 1.314 . S
N641 C644 1.279 . S
C642 C640 1.353 . S
C642 C645 1.348 . S
C642 H690 0.929 . S
C643 C644 1.358 . S
C643 C645 1.356 . S
C643 H691 0.930 . S
C644 N641 1.279 . S
C644 C643 1.358 . S
C644 H647 0.930 . S
C645 C642 1.348 . S
C645 C643 1.356 . S
H646 C640 0.930 . S
H647 C644 0.930 . S
C648 C650 1.348 . S
C648 C651 1.356 . S
C648 O678 1.325 . S
N649 C652 1.314 . S
N649 C653 1.279 . S
C650 C648 1.348 . S
C650 C652 1.353 . S
C650 H692 0.929 . S
C651 C648 1.356 . S
C651 C653 1.358 . S
C651 H693 0.930 . S
C652 N649 1.314 . S
C652 C650 1.353 . S
C652 H694 0.930 . S
C653 N649 1.279 . S
C653 C651 1.358 . S
C653 H695 0.930 . S
C654 C655 1.348 . S
C654 C656 1.356 . S
C654 O679 1.325 . S
C655 C654 1.348 . S
C655 C657 1.353 . S
C655 H696 0.929 . S
C656 C654 1.356 . S
C656 C658 1.358 . S
C656 H697 0.930 . S
C657 C655 1.353 . S
C657 N659 1.314 . S
C657 H698 0.930 . S
C658 C656 1.358 . S
C658 N659 1.279 . S
C658 H699 0.930 . S
N659 C657 1.314 . S
N659 C658 1.279 . S
C660 C662 1.353 . S
C660 N663 1.314 . S
C660 H666 0.930 . S
C661 N663 1.279 . S
C661 C664 1.358 . S
C661 H667 0.930 . S
C662 C660 1.353 . S
C662 C665 1.348 . S
C662 H700 0.929 . S
N663 Li618 1.990 . S
N663 C660 1.314 . S
N663 C661 1.279 . S
C664 C661 1.358 . S
C664 C665 1.356 . S
C664 H701 0.930 . S
C665 C662 1.348 . S
C665 C664 1.356 . S
H666 C660 0.930 . S
H667 C661 0.930 . S
C668 N669 1.314 . S
C668 C670 1.353 . S
C668 H674 0.930 . S
N669 Li619 1.990 . S
N669 C668 1.314 . S
N669 C672 1.279 . S
C670 C668 1.353 . S
C670 C673 1.348 . S
C670 H702 0.929 . S
C671 C672 1.358 . S
C671 C673 1.356 . S
C671 H703 0.930 . S
C672 N669 1.279 . S
C672 C671 1.358 . S
C672 H675 0.930 . S
C673 C670 1.348 . S
C673 C671 1.356 . S
H674 C668 0.930 . S
H675 C672 0.930 . S
O676 Li616 1.956 . S
O676 Li617 1.970 . S
O676 Li618 1.961 . S
O676 C620 1.325 . S
O677 Li616 1.970 . S
O677 Li617 1.956 . S
O677 Li619 1.961 . S
O677 C626 1.325 . S
O678 Li616 1.961 . S
O678 Li618 1.956 . S
O678 Li619 1.970 . S
O678 C648 1.325 . S
O679 Li617 1.961 . S
O679 Li618 1.970 . S
O679 Li619 1.956 . S
O679 C654 1.325 . S
H680 C622 0.929 . S
H681 C623 0.930 . S
H682 C624 0.930 . S
H683 C625 0.930 . S
H684 C627 0.930 . S
H685 C629 0.929 . S
H686 C630 0.930 . S
H687 C631 0.930 . S
H688 C634 0.930 . S
H689 C637 0.929 . S
H690 C642 0.929 . S
H691 C643 0.930 . S
H692 C650 0.929 . S
H693 C651 0.930 . S
H694 C652 0.930 . S
H695 C653 0.930 . S
H696 C655 0.929 . S
H697 C656 0.930 . S
H698 C657 0.930 . S
H699 C658 0.930 . S
H700 C662 0.929 . S
H701 C664 0.930 . S
H702 C670 0.929 . S
H703 C671 0.930 . S
C108 C57 1.479 1_556 S
C145 C205 1.479 . S
C293 C225 1.479 . S
C313 C20 1.479 . S
C409 C460 1.479 . S
C497 C557 1.479 . S
C577 C645 1.479 1_554 S
C372 C665 1.479 . S
C49 C636 1.981 . S
C381 C137 1.981 . S
C469 C233 1.981 1_556 S
C321 C548 1.981 . S
C196 C673 1.981 . S
C401 C284 1.981 1_554 S
C489 C29 1.981 . S
C117 C585 1.981 . S
