# Generated by pormake.
# Topology vby, (6)-cn, num edge types: 1
# Building blocks:
#     Node 0, Type 0, BuildingBlock: BETDEL_clean_sbu_0, # of connection points: 6
#     Node 1, Type 0, BuildingBlock: BETDEL_clean_sbu_0, # of connection points: 6
#     Node 2, Type 0, BuildingBlock: BETDEL_clean_sbu_0, # of connection points: 6
#     Node 3, Type 0, BuildingBlock: BETDEL_clean_sbu_0, # of connection points: 6
#     Node 4, Type 0, BuildingBlock: BETDEL_clean_sbu_0, # of connection points: 6
#     Node 5, Type 0, BuildingBlock: BETDEL_clean_sbu_0, # of connection points: 6
#     Node 6, Type 0, BuildingBlock: BETDEL_clean_sbu_0, # of connection points: 6
#     Node 7, Type 0, BuildingBlock: BETDEL_clean_sbu_0, # of connection points: 6
#     Edge 8, Type (0, 0), BuildingBlock: TEMPAE_clean_linker_10, # of connection points: 2
#     Edge 9, Type (0, 0), BuildingBlock: TEMPAE_clean_linker_10, # of connection points: 2
#     Edge 10, Type (0, 0), BuildingBlock: TEMPAE_clean_linker_10, # of connection points: 2
#     Edge 11, Type (0, 0), BuildingBlock: TEMPAE_clean_linker_10, # of connection points: 2
#     Edge 12, Type (0, 0), BuildingBlock: TEMPAE_clean_linker_10, # of connection points: 2
#     Edge 13, Type (0, 0), BuildingBlock: TEMPAE_clean_linker_10, # of connection points: 2
#     Edge 14, Type (0, 0), BuildingBlock: TEMPAE_clean_linker_10, # of connection points: 2
#     Edge 15, Type (0, 0), BuildingBlock: TEMPAE_clean_linker_10, # of connection points: 2
#     Edge 16, Type (0, 0), BuildingBlock: TEMPAE_clean_linker_10, # of connection points: 2
#     Edge 17, Type (0, 0), BuildingBlock: TEMPAE_clean_linker_10, # of connection points: 2
#     Edge 18, Type (0, 0), BuildingBlock: TEMPAE_clean_linker_10, # of connection points: 2
#     Edge 19, Type (0, 0), BuildingBlock: TEMPAE_clean_linker_10, # of connection points: 2
#     Edge 20, Type (0, 0), BuildingBlock: TEMPAE_clean_linker_10, # of connection points: 2
#     Edge 21, Type (0, 0), BuildingBlock: TEMPAE_clean_linker_10, # of connection points: 2
#     Edge 22, Type (0, 0), BuildingBlock: TEMPAE_clean_linker_10, # of connection points: 2
#     Edge 23, Type (0, 0), BuildingBlock: TEMPAE_clean_linker_10, # of connection points: 2
#     Edge 24, Type (0, 0), BuildingBlock: TEMPAE_clean_linker_10, # of connection points: 2
#     Edge 25, Type (0, 0), BuildingBlock: TEMPAE_clean_linker_10, # of connection points: 2
#     Edge 26, Type (0, 0), BuildingBlock: TEMPAE_clean_linker_10, # of connection points: 2
#     Edge 27, Type (0, 0), BuildingBlock: TEMPAE_clean_linker_10, # of connection points: 2
#     Edge 28, Type (0, 0), BuildingBlock: TEMPAE_clean_linker_10, # of connection points: 2
#     Edge 29, Type (0, 0), BuildingBlock: TEMPAE_clean_linker_10, # of connection points: 2
#     Edge 30, Type (0, 0), BuildingBlock: TEMPAE_clean_linker_10, # of connection points: 2
#     Edge 31, Type (0, 0), BuildingBlock: TEMPAE_clean_linker_10, # of connection points: 2
# Relax obj value: 0.123
# Max RMSD: 0.163
# Mean RMSD: 0.163
data_MOF--net-vby--node1-BETDEL_clean_sbu_0--edge1-TEMPAE_clean_linker_10
_symmetry_space_group_name_H-M    P1
_symmetry_Int_Tables_number       1
_symmetry_cell_setting            triclinic
loop_
_symmetry_equiv_pos_as_xyz
'x, y, z'
_cell_length_a     15.631209
_cell_length_b     71.520686
_cell_length_c     29.061695
_cell_angle_alpha  90.068738
_cell_angle_beta   86.565895
_cell_angle_gamma 90.134251
loop_
_atom_site_label
_atom_site_type_symbol
_atom_site_fract_x
_atom_site_fract_y
_atom_site_fract_z
_atom_type_partial_charge
Dy0 Dy 0.06774 0.40933 0.01913 0.0
C1 C 0.10668 0.32945 0.03924 0.0
C2 C 0.03964 0.44692 0.0139 0.0
Dy3 Dy 0.0732 0.36555 0.01606 0.0
O4 O 1.00371 0.43575 0.04445 0.0
O5 O 0.09055 0.4375 0.98542 0.0
O6 O 0.11977 0.40781 0.08907 0.0
O7 O 0.03785 0.38658 0.06896 0.0
C8 C 0.08312 0.39209 0.10098 0.0
C9 C 0.0847 0.37927 0.92914 0.0
O10 O 0.9313 0.36994 0.02404 0.0
O11 O 0.93309 0.4017 1.00458 0.0
O12 O 0.04886 0.33452 1.01133 0.0
O13 O 0.14241 0.34415 0.05608 0.0
O14 O 0.08737 0.36157 0.93869 0.0
O15 O 0.07932 0.38814 0.96657 0.0
O16 O 0.20696 0.40497 1.00043 0.0
O17 O 0.20888 0.37414 0.02544 0.0
C18 C 0.89205 0.3857 0.01334 0.0
C19 C 0.24852 0.38973 0.01197 0.0
Dy20 Dy 0.94735 0.66631 0.02432 0.0
C21 C 0.96137 0.58685 0.02246 0.0
C22 C 0.9096 0.70354 0.01697 0.0
Dy23 Dy 0.9442 0.62489 0.01792 0.0
O24 O 0.92684 0.69506 0.05468 0.0
O25 O 0.9162 0.69182 0.98278 0.0
O26 O 0.00849 0.66469 0.09126 0.0
O27 O 0.91761 0.64404 0.0755 0.0
C28 C 0.9717 0.6491 0.1038 0.0
C29 C 0.93351 0.6424 0.93605 0.0
O30 O 0.80825 0.62941 0.04288 0.0
O31 O 0.80925 0.65953 0.01535 0.0
O32 O 0.91474 0.59577 0.99445 0.0
O33 O 0.99843 0.59872 0.04874 0.0
O34 O 0.89275 0.62722 0.9479 0.0
O35 O 0.98077 0.64706 0.96779 0.0
O36 O 0.08723 0.6627 1.00788 0.0
O37 O 0.08533 0.63062 0.02124 0.0
C38 C 0.76732 0.64443 0.02989 0.0
C39 C 0.12711 0.64664 0.01407 0.0
Dy40 Dy 0.07958 0.66592 0.51222 0.0
C41 C 0.0495 0.58633 0.51863 0.0
C42 C 0.09162 0.70399 0.51849 0.0
Dy43 Dy 0.07401 0.6242 0.52063 0.0
O44 O 0.06418 0.69485 0.48363 0.0
O45 O 0.10816 0.69233 0.55101 0.0
O46 O 0.14732 0.66282 0.44266 0.0
O47 O 0.0545 0.6432 0.46341 0.0
C48 C 0.10768 0.64778 0.43102 0.0
C49 C 0.09779 0.64225 0.60051 0.0
O50 O 0.21204 0.62895 0.49914 0.0
O51 O 0.21217 0.65864 0.52979 0.0
O52 O 0.03408 0.59703 0.55415 0.0
O53 O 0.07798 0.59631 0.48358 0.0
O54 O 0.13592 0.62683 0.58789 0.0
O55 O 0.04823 0.64714 0.57001 0.0
O56 O 0.93707 0.66275 0.51714 0.0
O57 O 0.93406 0.63013 0.51896 0.0
C58 C 0.25344 0.64368 0.51403 0.0
C59 C 0.89512 0.64658 0.51849 0.0
Dy60 Dy 0.93254 0.40914 0.5207 0.0
C61 C 0.88116 0.32982 0.49732 0.0
C62 C 0.96473 0.44653 0.52847 0.0
Dy63 Dy 0.92362 0.36529 0.52223 0.0
O64 O 0.01245 0.43477 0.50459 0.0
O65 O 0.8999 0.43782 0.54885 0.0
O66 O 0.88415 0.40856 0.44968 0.0
O67 O 0.95983 0.38654 0.47001 0.0
C68 C 0.91641 0.39246 0.43783 0.0
C69 C 0.91775 0.37865 0.60957 0.0
O70 O 0.06545 0.36977 0.51173 0.0
O71 O 0.06362 0.40038 0.53991 0.0
O72 O 0.94479 0.33403 0.52253 0.0
O73 O 0.84491 0.34503 0.48385 0.0
O74 O 0.91565 0.36096 0.59959 0.0
O75 O 0.92107 0.38763 0.57234 0.0
O76 O 0.79258 0.40541 0.53919 0.0
O77 O 0.78665 0.37399 0.51896 0.0
C78 C 0.10491 0.38479 0.52741 0.0
C79 C 0.74912 0.38994 0.53122 0.0
Dy80 Dy 0.56087 0.90735 0.02185 0.0
C81 C 0.62021 0.82945 0.01335 0.0
C82 C 0.53005 0.94499 0.02114 0.0
Dy83 Dy 0.56592 0.86577 0.01455 0.0
O84 O 0.50162 0.9334 0.0527 0.0
O85 O 0.57488 0.93599 0.98917 0.0
O86 O 0.62086 0.90575 0.0898 0.0
O87 O 0.53652 0.88468 0.07208 0.0
C88 C 0.5855 0.89001 0.1024 0.0
C89 C 0.52795 0.8824 0.93615 0.0
O90 O 0.42619 0.86869 0.03404 0.0
O91 O 0.42431 0.89968 1.01042 0.0
O92 O 0.56152 0.83612 0.04264 0.0
O93 O 0.64609 0.84241 0.98474 0.0
O94 O 0.49887 0.86617 0.94955 0.0
O95 O 0.5829 0.88838 0.96303 0.0
O96 O 0.70144 0.9045 1.00595 0.0
O97 O 0.70095 0.87351 0.02787 0.0
C98 C 0.38426 0.88398 0.02301 0.0
C99 C 0.74232 0.88902 0.01591 0.0
Dy100 Dy 0.43631 0.16588 0.02574 0.0
C101 C 0.44461 0.08461 0.03483 0.0
C102 C 0.38506 0.20227 0.03148 0.0
Dy103 Dy 0.43682 0.12213 0.01901 0.0
O104 O 0.36464 0.18926 0.06123 0.0
O105 O 0.43618 0.19553 0.99833 0.0
O106 O 0.50758 0.16354 0.08953 0.0
O107 O 0.41831 0.1425 0.07527 0.0
C108 C 0.47526 0.1475 0.102 0.0
C109 C 0.44005 0.13695 0.93345 0.0
O110 O 0.2976 0.12765 0.03579 0.0
O111 O 0.30182 0.15827 1.00991 0.0
O112 O 0.38571 0.09298 0.01292 0.0
O113 O 0.49856 0.09685 0.04941 0.0
O114 O 0.43803 0.11913 0.94157 0.0
O115 O 0.43867 0.1454 0.97141 0.0
O116 O 0.57356 0.1618 1.00245 0.0
O117 O 0.57685 0.12973 0.01897 0.0
C118 C 0.25883 0.14295 0.02231 0.0
C119 C 0.61551 0.14588 1.00804 0.0
Dy120 Dy 0.58087 0.16514 0.51141 0.0
C121 C 0.5652 0.08368 0.50302 0.0
C122 C 0.59533 0.20324 0.51489 0.0
Dy123 Dy 0.57374 0.12139 0.51834 0.0
O124 O 0.57239 0.19365 0.47973 0.0
O125 O 0.60567 0.19204 0.54935 0.0
O126 O 0.64571 0.16172 0.44118 0.0
O127 O 0.55556 0.14189 0.46364 0.0
C128 C 0.6073 0.14637 0.43047 0.0
C129 C 0.57301 0.13628 0.60381 0.0
O130 O 0.71232 0.12777 0.49927 0.0
O131 O 0.71198 0.15757 0.53048 0.0
O132 O 0.50307 0.0954 0.49822 0.0
O133 O 0.63283 0.09268 0.51471 0.0
O134 O 0.57178 0.11846 0.59584 0.0
O135 O 0.57568 0.14465 0.56578 0.0
O136 O 0.43882 0.16109 0.522 0.0
O137 O 0.43438 0.12833 0.51863 0.0
C138 C 0.75307 0.14242 0.51551 0.0
C139 C 0.3965 0.14493 0.52186 0.0
Dy140 Dy 0.44766 0.90632 0.52054 0.0
C141 C 0.39223 0.82879 0.50396 0.0
C142 C 0.4822 0.94387 0.52226 0.0
Dy143 Dy 0.44357 0.86448 0.52255 0.0
O144 O 0.50515 0.93246 0.4892 0.0
O145 O 0.44068 0.93473 0.55529 0.0
O146 O 0.38918 0.90502 0.45204 0.0
O147 O 0.47692 0.88452 0.46855 0.0
C148 C 0.42802 0.88984 0.43832 0.0
C149 C 0.47082 0.87924 0.6046 0.0
O150 O 0.5821 0.869 0.50144 0.0
O151 O 0.58193 0.89835 0.535 0.0
O152 O 0.45156 0.83311 0.53169 0.0
O153 O 0.36454 0.84385 0.4851 0.0
O154 O 0.49784 0.86286 0.59105 0.0
O155 O 0.42072 0.88602 0.57621 0.0
O156 O 0.30658 0.90399 0.53501 0.0
O157 O 0.30391 0.87179 0.52648 0.0
C158 C 0.62331 0.88344 0.51845 0.0
C159 C 0.26447 0.88801 0.53244 0.0
C160 C 0.38337 0.38058 0.04669 0.0
C161 C 0.34275 0.38995 0.01177 0.0
C162 C 0.47293 0.37994 0.04682 0.0
C163 C 0.52304 0.38833 1.01026 0.0
C164 C 0.48223 0.39768 0.97459 0.0
C165 C 0.39226 0.39866 0.97621 0.0
C166 C 0.51385 0.37041 0.08632 0.0
C167 C 0.53355 0.40635 0.93442 0.0
C168 C 0.75285 0.40159 0.03047 0.0
C169 C 0.79792 0.386 0.01276 0.0
C170 C 0.66335 0.40246 0.03012 0.0
C171 C 0.61815 0.38766 1.01011 0.0
C172 C 0.66363 0.37199 0.99143 0.0
C173 C 0.75314 0.3712 0.99374 0.0
C174 C 0.61712 0.41908 0.05187 0.0
C175 C 0.61782 0.35619 0.96868 0.0
H176 H 0.34485 0.37394 0.07436 0.0
H177 H 0.36059 0.40572 0.94897 0.0
H178 H 0.55342 0.35847 0.07327 0.0
H179 H 0.55721 0.38032 0.10297 0.0
H180 H 0.46563 0.36514 0.11285 0.0
H181 H 0.49203 0.41245 0.90862 0.0
H182 H 0.57576 0.41753 0.94684 0.0
H183 H 0.5756 0.39565 0.91713 0.0
H184 H 0.78767 0.41298 0.04549 0.0
H185 H 0.78832 0.35925 0.97962 0.0
H186 H 0.57039 0.41429 0.07966 0.0
H187 H 0.58037 0.42642 0.0259 0.0
H188 H 0.66175 0.42924 0.06675 0.0
H189 H 0.5728 0.34922 0.99419 0.0
H190 H 0.66296 0.34554 0.9536 0.0
H191 H 0.57923 0.36176 0.94096 0.0
C192 C 0.26765 0.63111 0.99712 0.0
C193 C 0.22102 0.64648 0.01475 0.0
C194 C 0.35691 0.63037 0.99945 0.0
C195 C 0.39969 0.64506 0.02142 0.0
C196 C 0.35248 0.6605 0.03986 0.0
C197 C 0.26365 0.66116 0.03561 0.0
C198 C 0.40546 0.614 0.97803 0.0
C199 C 0.39563 0.67617 0.06459 0.0
C200 C 0.62169 0.63492 0.06184 0.0
C201 C 0.67352 0.64421 0.0282 0.0
C202 C 0.53199 0.63529 0.06051 0.0
C203 C 0.49423 0.64459 0.02377 0.0
C204 C 0.5468 0.65357 0.98915 0.0
C205 C 0.63579 0.65353 0.99224 0.0
C206 C 0.47766 0.62602 0.09871 0.0
C207 C 0.50914 0.66312 0.94868 0.0
H208 H 0.23434 0.61977 0.98096 0.0
H209 H 0.22709 0.67289 0.04993 0.0
H210 H 0.45453 0.61908 0.95177 0.0
H211 H 0.43975 0.60646 1.00467 0.0
H212 H 0.36269 0.60395 0.96134 0.0
H213 H 0.34908 0.68669 0.07892 0.0
H214 H 0.43151 0.67043 0.09318 0.0
H215 H 0.44274 0.68335 0.04059 0.0
H216 H 0.65118 0.62781 0.08973 0.0
H217 H 0.67619 0.66052 0.96589 0.0
H218 H 0.4379 0.61482 0.08436 0.0
H219 H 0.43311 0.63639 0.11543 0.0
H220 H 0.51693 0.61983 0.1254 0.0
H221 H 0.4684 0.65315 0.93048 0.0
H222 H 0.55929 0.6687 0.92363 0.0
H223 H 0.46751 0.67486 0.96097 0.0
C224 C 0.75787 0.66064 0.49611 0.0
C225 C 0.80103 0.64657 0.51876 0.0
C226 C 0.66851 0.66001 0.49389 0.0
C227 C 0.62166 0.64523 0.51592 0.0
C228 C 0.66498 0.6312 0.53962 0.0
C229 C 0.75438 0.63192 0.54026 0.0
C230 C 0.62434 0.67501 0.4676 0.0
C231 C 0.61689 0.61551 0.56457 0.0
C232 C 0.38718 0.65379 0.54853 0.0
C233 C 0.34733 0.64349 0.51477 0.0
C234 C 0.47651 0.6543 0.54956 0.0
C235 C 0.527 0.64465 0.51525 0.0
C236 C 0.48709 0.6343 0.48086 0.0
C237 C 0.3973 0.63362 0.48142 0.0
C238 C 0.51676 0.66506 0.5875 0.0
C239 C 0.53922 0.62415 0.44324 0.0
H240 H 0.79417 0.67186 0.47907 0.0
H241 H 0.78782 0.6211 0.55806 0.0
H242 H 0.58691 0.66853 0.44047 0.0
H243 H 0.57844 0.68274 0.49114 0.0
H244 H 0.67041 0.68518 0.4511 0.0
H245 H 0.66026 0.6059 0.58205 0.0
H246 H 0.56971 0.62135 0.59076 0.0
H247 H 0.58045 0.60728 0.53993 0.0
H248 H 0.34833 0.66128 0.57461 0.0
H249 H 0.36624 0.6258 0.4551 0.0
H250 H 0.55817 0.67638 0.57249 0.0
H251 H 0.55824 0.65566 0.60675 0.0
H252 H 0.46813 0.67138 0.61224 0.0
H253 H 0.58252 0.63415 0.42413 0.0
H254 H 0.49829 0.61716 0.41839 0.0
H255 H 0.58018 0.61346 0.45853 0.0
C256 C 0.61018 0.3742 0.5523 0.0
C257 C 0.65443 0.39006 0.5353 0.0
C258 C 0.5204 0.37325 0.55349 0.0
C259 C 0.47375 0.38829 0.53577 0.0
C260 C 0.51817 0.40443 0.51881 0.0
C261 C 0.60809 0.40524 0.51948 0.0
C262 C 0.47561 0.35607 0.57327 0.0
C263 C 0.47098 0.42055 0.49852 0.0
C264 C 0.25219 0.37681 0.49534 0.0
C265 C 0.19878 0.3846 0.53065 0.0
C266 C 0.34186 0.37815 0.49623 0.0
C267 C 0.37871 0.38693 0.53415 0.0
C268 C 0.32466 0.39427 0.57063 0.0
C269 C 0.23534 0.39332 0.56801 0.0
C270 C 0.39712 0.37057 0.45611 0.0
C271 C 0.3611 0.4031 0.61245 0.0
H272 H 0.64603 0.36247 0.56479 0.0
H273 H 0.64237 0.41741 0.50583 0.0
H274 H 0.4257 0.36015 0.60015 0.0
H275 H 0.44287 0.34859 0.54584 0.0
H276 H 0.52074 0.34623 0.58868 0.0
H277 H 0.51483 0.43205 0.48674 0.0
H278 H 0.43588 0.41557 0.46874 0.0
H279 H 0.4227 0.42621 0.52434 0.0
H280 H 0.22379 0.37028 0.46619 0.0
H281 H 0.19384 0.39927 0.59546 0.0
H282 H 0.43975 0.35944 0.4681 0.0
H283 H 0.43882 0.38185 0.44104 0.0
H284 H 0.35849 0.36471 0.42863 0.0
H285 H 0.40524 0.39319 0.62831 0.0
H286 H 0.31033 0.40724 0.63887 0.0
H287 H 0.39901 0.41569 0.60211 0.0
C288 C 0.87993 0.87204 1.00305 0.0
C289 C 0.83667 0.88866 0.01499 0.0
C290 C 0.9693 0.87087 1.00363 0.0
C291 C 0.01633 0.88657 0.01779 0.0
C292 C 0.9729 0.9034 0.03009 0.0
C293 C 0.88341 0.90433 0.02786 0.0
C294 C 0.01331 0.85287 0.98885 0.0
C295 C 0.02078 0.92028 0.04639 0.0
C296 C 0.23872 0.87725 0.059 0.0
C297 C 0.29064 0.88352 0.02129 0.0
C298 C 0.14901 0.87842 0.05868 0.0
C299 C 0.11112 0.88541 0.01904 0.0
C300 C 0.16384 0.89116 0.98031 0.0
C301 C 0.25311 0.89047 0.98227 0.0
C302 C 0.09491 0.8726 0.10104 0.0
C303 C 0.12606 0.89804 0.93681 0.0
H304 H 0.84374 0.85993 0.99277 0.0
H305 H 0.84977 0.91712 0.03755 0.0
H306 H 0.0614 0.85563 0.95998 0.0
H307 H 0.04822 0.84706 0.01769 0.0
H308 H 0.96746 0.84213 0.97762 0.0
H309 H 0.97726 0.93208 0.05611 0.0
H310 H 0.05715 0.91649 0.07666 0.0
H311 H 0.06802 0.92509 0.01891 0.0
H312 H 0.26835 0.87207 0.08928 0.0
H313 H 0.29387 0.89521 0.95306 0.0
H314 H 0.05124 0.86104 0.09242 0.0
H315 H 0.05427 0.88448 0.11358 0.0
H316 H 0.1344 0.86793 0.1294 0.0
H317 H 0.08106 0.88745 0.92414 0.0
H318 H 0.17603 0.90101 0.90894 0.0
H319 H 0.08885 0.911 0.94411 0.0
C320 C 0.12828 0.15351 0.98459 0.0
C321 C 0.16473 0.14297 0.01904 0.0
C322 C 0.03921 0.15394 0.98075 0.0
C323 C 0.98493 0.14406 0.01308 0.0
C324 C 0.02142 0.1335 0.04822 0.0
C325 C 0.11109 0.13283 0.05029 0.0
C326 C 1.00325 0.16488 0.94194 0.0
C327 C 0.96568 0.12321 0.0841 0.0
C328 C 0.7532 0.16034 0.0288 0.0
C329 C 0.71004 0.1462 1.00611 0.0
C330 C 0.84256 0.1597 0.03182 0.0
C331 C 0.89002 0.14491 1.01023 0.0
C332 C 0.8467 0.13093 0.98596 0.0
C333 C 0.75697 0.13155 0.98499 0.0
C334 C 0.88587 0.17456 0.0592 0.0
C335 C 0.89506 0.11529 0.96115 0.0
H336 H 0.1697 0.16123 0.96006 0.0
H337 H 0.13915 0.12478 0.07713 0.0
H338 H 0.96252 0.15566 0.92159 0.0
H339 H 0.96192 0.17634 0.95614 0.0
H340 H 0.05435 0.17104 0.91839 0.0
H341 H 1.00387 0.11607 0.10989 0.0
H342 H 0.92099 0.13314 0.1024 0.0
H343 H 0.92609 0.1126 0.06731 0.0
H344 H 0.71658 0.17148 0.04588 0.0
H345 H 0.72337 0.1206 0.96751 0.0
H346 H 0.93435 0.18211 0.0368 0.0
H347 H 0.92019 0.16794 0.08727 0.0
H348 H 0.83961 0.1849 0.07467 0.0
H349 H 0.94551 0.12115 0.93677 0.0
H350 H 0.85239 0.10616 0.94166 0.0
H351 H 0.92761 0.10656 0.98629 0.0
C352 C 0.25532 0.13045 0.54467 0.0
C353 C 0.30202 0.14516 0.52347 0.0
C354 C 0.1657 0.12979 0.54434 0.0
C355 C 0.12204 0.14392 0.52111 0.0
C356 C 0.16895 0.15882 0.4996 0.0
C357 C 0.25848 0.15941 0.50161 0.0
C358 C 0.11778 0.11398 0.56886 0.0
C359 C 0.12475 0.17394 0.4737 0.0
C360 C 0.89842 0.13235 0.48436 0.0
C361 C 0.84715 0.14214 0.51734 0.0
C362 C 0.98825 0.13298 0.48479 0.0
C363 C 0.02713 0.1432 0.51981 0.0
C364 C 0.97531 0.15271 0.55384 0.0
C365 C 0.88599 0.15227 0.5518 0.0
C366 C 0.04156 0.123 0.44737 0.0
C367 C 0.01416 0.16331 0.59248 0.0
H368 H 0.28899 0.11947 0.56181 0.0
H369 H 0.29469 0.17067 0.48473 0.0
H370 H 0.06949 0.11968 0.59466 0.0
H371 H 0.08265 0.10566 0.54383 0.0
H372 H 0.16113 0.10448 0.58671 0.0
H373 H 0.17068 0.18432 0.45799 0.0
H374 H 0.08839 0.16758 0.44598 0.0
H375 H 0.07789 0.18139 0.49725 0.0
H376 H 0.86839 0.12464 0.4575 0.0
H377 H 0.8463 0.15971 0.57762 0.0
H378 H 0.0824 0.11231 0.46278 0.0
H379 H 0.08502 0.1331 0.42873 0.0
H380 H 1.0015 0.11602 0.42208 0.0
H381 H 0.05563 0.15388 0.61165 0.0
H382 H 0.96469 0.16937 0.61715 0.0
H383 H 0.05532 0.17481 0.57817 0.0
C384 C 0.77043 0.87555 0.48582 0.0
C385 C 0.71686 0.88294 0.52156 0.0
C386 C 0.86002 0.87649 0.48766 0.0
C387 C 0.89604 0.88449 0.52681 0.0
C388 C 0.84169 0.89138 0.56362 0.0
C389 C 0.75275 0.89077 0.56021 0.0
C390 C 0.91607 0.86934 0.44736 0.0
C391 C 0.8774 0.89945 0.60657 0.0
C392 C 0.12523 0.87172 0.54908 0.0
C393 C 0.16992 0.88787 0.53432 0.0
C394 C 0.03598 0.87052 0.54736 0.0
C395 C 0.99056 0.88569 0.52945 0.0
C396 C 0.03526 0.9021 0.51474 0.0
C397 C 0.12451 0.90308 0.51788 0.0
C398 C 0.99044 0.85299 0.56451 0.0
C399 C 0.98907 0.91842 0.4947 0.0
H400 H 0.74235 0.86963 0.45582 0.0
H401 H 0.71098 0.89631 0.58809 0.0
H402 H 0.95787 0.88079 0.43326 0.0
H403 H 0.95864 0.85811 0.45887 0.0
H404 H 0.87803 0.86377 0.41929 0.0
H405 H 0.82619 0.90337 0.63295 0.0
H406 H 0.92037 0.88915 0.62193 0.0
H407 H 0.91635 0.91205 0.59767 0.0
H408 H 0.1602 0.85994 0.56194 0.0
H409 H 0.15909 0.91547 0.50587 0.0
H410 H 0.95776 0.84624 0.53599 0.0
H411 H 0.94034 0.85658 0.59174 0.0
H412 H 0.03497 0.8427 0.57873 0.0
H413 H 0.95501 0.91374 0.46428 0.0
H414 H 0.0334 0.92999 0.48398 0.0
H415 H 0.94003 0.92391 0.52035 0.0
C416 C 0.92539 0.55525 0.9933 0.0
C417 C 0.97295 0.56637 0.02226 0.0
C418 C 0.93656 0.5358 0.99135 0.0
C419 C 0.99721 0.52728 0.01884 0.0
C420 C 0.04552 0.53846 0.04819 0.0
C421 C 0.03257 0.55791 0.04966 0.0
C422 C 0.88328 0.52437 0.95993 0.0
C423 C 0.11097 0.52988 0.07789 0.0
C424 C 0.96879 0.47563 0.046 0.0
C425 C 0.02786 0.4674 0.01396 0.0
C426 C 0.95841 0.4951 0.04803 0.0
C427 C 0.0087 0.50662 0.01742 0.0
C428 C 0.06844 0.49836 0.9849 0.0
C429 C 0.07713 0.4788 0.98346 0.0
C430 C 0.89353 0.50333 0.08292 0.0
C431 C 0.1233 0.5102 0.95177 0.0
H432 H 0.87922 0.56176 0.97204 0.0
H433 H 0.06964 0.56652 0.07193 0.0
H434 H 0.92569 0.51659 0.93467 0.0
H435 H 0.84495 0.51388 0.98035 0.0
H436 H 0.83896 0.53316 0.94075 0.0
H437 H 0.14408 0.54053 0.09833 0.0
H438 H 0.07945 0.5196 0.10194 0.0
H439 H 0.15971 0.52219 0.05598 0.0
H440 H 0.93062 0.46683 0.06967 0.0
H441 H 0.1231 0.47246 0.9588 0.0
H442 H 0.84528 0.51151 0.06504 0.0
H443 H 0.9257 0.51309 0.10606 0.0
H444 H 0.85964 0.49243 0.10432 0.0
H445 H 0.08199 0.51854 0.92985 0.0
H446 H 0.16754 0.50165 0.92906 0.0
H447 H 0.16176 0.52022 0.9712 0.0
C448 C 0.9091 0.47905 0.53781 0.0
C449 C 0.97834 0.46695 0.52871 0.0
C450 C 0.92009 0.49853 0.53487 0.0
C451 C 1.00284 0.50603 0.52405 0.0
C452 C 0.07332 0.49381 0.51589 0.0
C453 C 0.05991 0.47439 0.51758 0.0
C454 C 0.84296 0.51106 0.54265 0.0
C455 C 0.16295 0.50124 0.5057 0.0
C456 C 0.02659 0.55587 0.47868 0.0
C457 C 0.03878 0.56583 0.51926 0.0
C458 C 0.01366 0.5364 0.47973 0.0
C459 C 0.0159 0.52668 0.52216 0.0
C460 C 0.03017 0.53671 0.56302 0.0
C461 C 0.04 0.55621 0.56117 0.0
C462 C 0.99625 0.52627 0.43565 0.0
C463 C 0.03562 0.52685 0.60868 0.0
H464 H 0.8458 0.47328 0.54591 0.0
H465 H 0.11349 0.46499 0.51062 0.0
H466 H 0.85131 0.52033 0.57268 0.0
H467 H 0.83664 0.52019 0.51219 0.0
H468 H 0.78255 0.503 0.54892 0.0
H469 H 0.21115 0.48987 0.50164 0.0
H470 H 0.16555 0.50965 0.47362 0.0
H471 H 0.181 0.51063 0.53398 0.0
H472 H 0.02516 0.56336 0.44632 0.0
H473 H 0.05007 0.56392 0.59254 0.0
H474 H 0.934 0.51878 0.43982 0.0
H475 H 0.04645 0.51561 0.42781 0.0
H476 H 0.9944 0.53592 0.4058 0.0
H477 H 0.97389 0.51982 0.61842 0.0
H478 H 0.05094 0.5366 0.63684 0.0
H479 H 0.08563 0.51586 0.60573 0.0
C480 C 0.55197 0.97715 0.9886 0.0
C481 C 0.5167 0.96541 0.02331 0.0
C482 C 0.54098 0.99664 0.99138 0.0
C483 C 0.49374 1.00448 0.02984 0.0
C484 C 0.45806 0.99263 0.06495 0.0
C485 C 0.46991 0.97324 0.06122 0.0
C486 C 0.5797 1.00883 0.95318 0.0
C487 C 0.40726 1.00043 0.10644 0.0
C488 C 0.52546 0.05609 0.05645 0.0
C489 C 0.45449 0.0641 0.03686 0.0
C490 C 0.53882 0.03666 0.05476 0.0
C491 C 0.47983 0.02505 0.03288 0.0
C492 C 0.40725 0.03309 0.01383 0.0
C493 C 0.39543 0.05252 0.01611 0.0
C494 C 0.61667 0.02858 0.07572 0.0
C495 C 0.34277 0.02121 0.99032 0.0
H496 H 0.58834 0.97112 0.95933 0.0
H497 H 0.44271 0.96419 0.08821 0.0
H498 H 0.52853 0.01685 0.93721 0.0
H499 H 0.62423 0.01914 0.96743 0.0
H500 H 0.61529 1.00058 0.92588 0.0
H501 H 0.38482 0.98933 0.13104 0.0
H502 H 0.44699 1.01055 0.1248 0.0
H503 H 0.35062 1.00813 0.09523 0.0
H504 H 0.57136 0.06504 0.07236 0.0
H505 H 0.34057 0.05868 1.00081 0.0
H506 H 0.65791 0.02149 0.04867 0.0
H507 H 0.59678 0.01789 0.10186 0.0
H508 H 0.65532 0.03945 0.09236 0.0
H509 H 0.3748 1.01378 0.96052 0.0
H510 H 0.28915 0.02961 0.97783 0.0
H511 H 0.31583 1.01041 0.01446 0.0
C512 C 0.62278 0.05177 0.51675 0.0
C513 C 0.55626 0.06311 0.50257 0.0
C514 C 0.61236 0.03231 0.52072 0.0
C515 C 0.53373 0.02399 0.50988 0.0
C516 C 0.46695 0.03537 0.49464 0.0
C517 C 0.47894 0.05481 0.49134 0.0
C518 C 0.68501 0.02069 0.53717 0.0
C519 C 0.38255 0.02702 0.48225 0.0
C520 C 0.53284 0.97232 0.47954 0.0
C521 C 0.49711 0.96428 0.5203 0.0
C522 C 0.54504 0.9917 0.47573 0.0
C523 C 0.52177 1.00335 0.51381 0.0
C524 C 0.48663 0.99528 0.55534 0.0
C525 C 0.47428 0.9758 0.55802 0.0
C526 C 0.58199 0.99973 0.43075 0.0
C527 C 0.46178 1.00724 0.59681 0.0
H528 H 0.68248 0.05817 0.52575 0.0
H529 H 0.42728 0.06355 0.48051 0.0
H530 H 0.66355 1.01312 0.56913 0.0
H531 H 0.70437 1.01 0.5109 0.0
H532 H 0.742 0.02929 0.54425 0.0
H533 H 0.33762 0.03774 0.47031 0.0
H534 H 0.39353 0.01642 0.45462 0.0
H535 H 0.35162 0.01975 0.5126 0.0
H536 H 0.55034 0.96345 0.45022 0.0
H537 H 0.4467 0.96961 0.58956 0.0
H538 H 0.6416 1.00761 0.43653 0.0
H539 H 0.536 1.00973 0.41679 0.0
H540 H 0.59687 0.98874 0.40443 0.0
H541 H 0.51795 1.01545 0.60697 0.0
H542 H 0.43713 0.99879 0.62682 0.0
H543 H 0.41165 0.01737 0.58808 0.0
C544 C 0.21604 0.30734 0.06609 0.0
C545 C 0.14128 0.31031 0.04276 0.0
C546 C 0.25725 0.28991 0.0646 0.0
C547 C 0.22243 0.27502 0.03952 0.0
C548 C 0.14546 0.27779 0.01703 0.0
C549 C 0.10595 0.29545 0.01877 0.0
C550 C 0.33916 0.28756 0.08901 0.0
C551 C 0.10571 0.2622 0.99045 0.0
C552 C 0.36825 0.23467 0.99993 0.0
C553 C 0.34741 0.22123 0.0338 0.0
C554 C 0.32839 0.25232 1.00142 0.0
C555 C 0.26598 0.25649 0.03743 0.0
C556 C 0.24531 0.24295 0.07177 0.0
C557 C 0.28646 0.22555 0.06962 0.0
C558 C 0.35262 0.26646 0.96438 0.0
C559 C 0.17899 0.24677 0.11059 0.0
H560 H 0.24398 0.31884 0.08441 0.0
H561 H 0.04847 0.29774 1.00046 0.0
H562 H 0.33196 0.27604 0.11447 0.0
H563 H 0.39221 0.28368 0.06376 0.0
H564 H 0.35758 0.30049 0.10723 0.0
H565 H 0.04466 0.26647 0.97586 0.0
H566 H 0.15095 0.25761 0.9618 0.0
H567 H 0.09302 0.24993 0.01321 0.0
H568 H 0.41512 0.23134 0.97215 0.0
H569 H 0.26983 0.21517 0.09583 0.0
H570 H 0.37608 0.27948 0.98024 0.0
H571 H 0.29539 0.27021 0.94558 0.0
H572 H 0.40309 0.26117 0.93917 0.0
H573 H 0.19807 0.25916 0.1306 0.0
H574 H 0.17011 0.23472 0.13451 0.0
H575 H 0.11646 0.25003 0.09634 0.0
C576 C 0.74423 0.80869 0.99475 0.0
C577 C 0.66096 0.81087 0.01476 0.0
C578 C 0.78648 0.79145 0.99566 0.0
C579 C 0.74352 0.7758 0.01594 0.0
C580 C 0.65897 0.77787 0.03595 0.0
C581 C 0.61903 0.79552 0.03574 0.0
C582 C 0.87737 0.79003 0.97515 0.0
C583 C 0.61049 0.76142 0.05705 0.0
C584 C 0.82698 0.72797 0.97744 0.0
C585 C 0.87278 0.72252 0.01516 0.0
C586 C 0.78346 0.74514 0.97755 0.0
C587 C 0.78743 0.75731 0.0159 0.0
C588 C 0.8355 0.75203 0.05358 0.0
C589 C 0.87682 0.7346 0.05296 0.0
C590 C 0.73205 0.75014 0.93698 0.0
C591 C 0.8432 0.76479 0.09457 0.0
H592 H 0.77725 0.82063 0.97898 0.0
H593 H 0.55464 0.79722 0.05116 0.0
H594 H 0.91989 0.7846 1.00127 0.0
H595 H 0.8803 0.78001 0.94595 0.0
H596 H 0.90289 0.80373 0.96251 0.0
H597 H 0.54473 0.76525 0.07033 0.0
H598 H 0.60591 0.75016 0.031 0.0
H599 H 0.64552 0.7556 0.08584 0.0
H600 H 0.82292 0.71854 0.94841 0.0
H601 H 0.91202 0.73037 0.08224 0.0
H602 H 0.75744 0.76318 0.92063 0.0
H603 H 0.66441 0.75282 0.9489 0.0
H604 H 0.73339 0.73891 0.91049 0.0
H605 H 0.87036 0.77847 0.08306 0.0
H606 H 0.88454 0.75879 0.1206 0.0
H607 H 0.77885 0.76752 0.11136 0.0
C608 C 0.14876 0.73125 0.47325 0.0
C609 C 0.12307 0.72348 0.51614 0.0
C610 C 0.19224 0.74845 0.47019 0.0
C611 C 0.20769 0.75845 0.51097 0.0
C612 C 0.17798 0.75107 0.55431 0.0
C613 C 0.1375 0.73347 0.55643 0.0
C614 C 0.22492 0.75552 0.42342 0.0
C615 C 0.19023 0.7616 0.59848 0.0
C616 C 0.39047 0.79388 0.51101 0.0
C617 C 0.34756 0.8106 0.503 0.0
C618 C 0.34606 0.77672 0.51267 0.0
C619 C 0.25613 0.77646 0.50821 0.0
C620 C 0.21258 0.79342 0.50078 0.0
C621 C 0.25912 0.81022 0.49734 0.0
C622 C 0.39533 0.75888 0.51911 0.0
C623 C 0.11651 0.79391 0.49757 0.0
H624 H 0.13891 0.72341 0.44205 0.0
H625 H 0.11793 0.72742 0.58961 0.0
H626 H 0.19845 0.76959 0.417 0.0
H627 H 0.29573 0.75694 0.42241 0.0
H628 H 0.20777 0.74605 0.39505 0.0
H629 H 0.15687 0.75475 0.62882 0.0
H630 H 0.25949 0.76257 0.60451 0.0
H631 H 0.16586 0.7761 0.5958 0.0
H632 H 0.45879 0.79421 0.51556 0.0
H633 H 0.22555 0.82322 0.49198 0.0
H634 H 0.38314 0.74889 0.49097 0.0
H635 H 0.37318 0.75213 0.55203 0.0
H636 H 0.46548 0.76137 0.51945 0.0
H637 H 0.09793 0.78553 0.46762 0.0
H638 H 0.09194 0.80836 0.49388 0.0
H639 H 0.0845 0.78755 0.5289 0.0
C640 C 0.887 0.29486 0.50336 0.0
C641 C 0.84089 0.31114 0.49503 0.0
C642 C 0.8459 0.27731 0.50553 0.0
C643 C 0.75615 0.27618 0.50096 0.0
C644 C 0.70955 0.29265 0.49257 0.0
C645 C 0.75273 0.30985 0.48892 0.0
C646 C 0.89835 0.26001 0.51303 0.0
C647 C 0.61359 0.29219 0.48883 0.0
C648 C 0.65455 0.23 0.46849 0.0
C649 C 0.62782 0.22266 0.51172 0.0
C650 C 0.69713 0.24728 0.46456 0.0
C651 C 0.71081 0.2578 0.50477 0.0
C652 C 0.68086 0.25077 0.54845 0.0
C653 C 0.64104 0.2331 0.55147 0.0
C654 C 0.72996 0.25399 0.41748 0.0
C655 C 0.69157 0.26183 0.592 0.0
H656 H 0.95505 0.29586 0.5083 0.0
H657 H 0.71652 0.32247 0.48321 0.0
H658 H 0.87742 0.25344 0.54639 0.0
H659 H 0.88795 0.2496 0.48555 0.0
H660 H 0.968 0.26312 0.51318 0.0
H661 H 0.58653 0.30632 0.48345 0.0
H662 H 0.59703 0.28308 0.45976 0.0
H663 H 0.58219 0.28615 0.52072 0.0
H664 H 0.64562 0.22183 0.43769 0.0
H665 H 0.62075 0.22739 0.58492 0.0
H666 H 0.80042 0.25603 0.4169 0.0
H667 H 0.70121 0.26771 0.40978 0.0
H668 H 0.71531 0.244 0.38971 0.0
H669 H 0.76067 0.26358 0.59764 0.0
H670 H 0.66005 0.25496 0.62282 0.0
H671 H 0.66413 0.27603 0.58864 0.0
C672 C 0.10861 0.39675 0.18414 0.0
C673 C 0.06696 0.38688 0.15022 0.0
C674 C 0.08455 0.39455 0.23117 0.0
C675 C 0.01755 0.382 0.24492 0.0
C676 C 0.97927 0.37102 0.21102 0.0
C677 C 1.00418 0.37364 0.164 0.0
C678 C 0.12735 0.40656 0.26591 0.0
C679 C 0.90883 0.35723 0.22415 0.0
C680 C 0.99348 0.37363 0.37488 0.0
C681 C 0.93247 0.38721 0.38858 0.0
C682 C 0.01845 0.37091 0.32789 0.0
C683 C 0.98196 0.38212 0.29394 0.0
C684 C 0.91673 0.39505 0.30762 0.0
C685 C 0.89263 0.39736 0.35462 0.0
C686 C 0.08703 0.35674 0.31484 0.0
C687 C 0.87588 0.40732 0.27284 0.0
H688 H 0.15769 0.40689 0.17381 0.0
H689 H 0.97202 0.36588 0.13799 0.0
H690 H 0.08026 0.41667 0.28154 0.0
H691 H 0.15004 0.39782 0.29419 0.0
H692 H 0.18271 0.41453 0.25013 0.0
H693 H 0.89522 0.34778 0.19511 0.0
H694 H 0.92606 0.34866 0.254 0.0
H695 H 0.84927 0.36493 0.23466 0.0
H696 H 0.0243 0.36567 0.40092 0.0
H697 H 0.84493 0.40778 0.3649 0.0
H698 H 0.14767 0.3641 0.30442 0.0
H699 H 0.0688 0.34826 0.28495 0.0
H700 H 0.09921 0.34722 0.34389 0.0
H701 H 0.92455 0.4171 0.25716 0.0
H702 H 0.82181 0.41566 0.28858 0.0
H703 H 0.8518 0.39871 0.2446 0.0
C704 C 0.06186 0.63437 0.16041 0.0
C705 C 0.98151 0.64111 0.1497 0.0
C706 C 0.08131 0.63138 0.20636 0.0
C707 C 0.01987 0.63597 0.2424 0.0
C708 C 0.9365 0.64161 0.23141 0.0
C709 C 0.91808 0.64397 0.18497 0.0
C710 C 0.17004 0.62483 0.21632 0.0
C711 C 0.8695 0.64699 0.26858 0.0
C712 C 0.05681 0.62668 0.36914 0.0
C713 C 0.09306 0.64369 0.38217 0.0
C714 C 0.03523 0.6236 0.32333 0.0
C715 C 0.04726 0.63814 0.29045 0.0
C716 C 0.08458 0.65527 0.30358 0.0
C717 C 0.10837 0.65768 0.34895 0.0
C718 C 0.99869 0.60492 0.31027 0.0
C719 C 0.09695 0.67134 0.27009 0.0
H720 H 0.11109 0.63238 0.13292 0.0
H721 H 0.8565 0.64953 0.17649 0.0
H722 H 0.20859 0.63691 0.22727 0.0
H723 H 0.1671 0.6145 0.24483 0.0
H724 H 0.20375 0.61843 0.18546 0.0
H725 H 0.80504 0.64851 0.25487 0.0
H726 H 0.86572 0.63647 0.29659 0.0
H727 H 0.88763 0.66054 0.28399 0.0
H728 H 0.04491 0.61586 0.39482 0.0
H729 H 0.1356 0.67094 0.35887 0.0
H730 H 0.03502 0.59926 0.27938 0.0
H731 H 0.93126 0.60665 0.30119 0.0
H732 H 1.00043 0.59457 0.33866 0.0
H733 H 0.14039 0.66712 0.24034 0.0
H734 H 0.12434 0.68393 0.28621 0.0
H735 H 0.0346 0.6752 0.25641 0.0
C736 C 0.9093 0.63793 0.85287 0.0
C737 C 0.95105 0.64757 0.88708 0.0
C738 C 0.93428 0.64022 0.80606 0.0
C739 C 1.00204 0.65267 0.79299 0.0
C740 C 0.04044 0.66343 0.8272 0.0
C741 C 0.01475 0.66068 0.87397 0.0
C742 C 0.89154 0.62843 0.77083 0.0
C743 C 0.11157 0.67713 0.81463 0.0
C744 C 0.12546 0.63742 0.68318 0.0
C745 C 0.08458 0.64758 0.64966 0.0
C746 C 0.10248 0.63974 0.73024 0.0
C747 C 0.03778 0.65275 0.74422 0.0
C748 C 1.00105 0.6641 0.71071 0.0
C749 C 0.02457 0.6613 0.6637 0.0
C750 C 0.14332 0.62732 0.76471 0.0
C751 C 0.93331 0.6784 0.72423 0.0
H752 H 0.85948 0.62789 0.86278 0.0
H753 H 0.04679 0.66828 0.90031 0.0
H754 H 0.86884 0.63736 0.74291 0.0
H755 H 0.93865 0.61843 0.75479 0.0
H756 H 0.83617 0.62037 0.78627 0.0
H757 H 0.12519 0.68643 0.84396 0.0
H758 H 0.17093 0.66936 0.80414 0.0
H759 H 0.09506 0.68586 0.78492 0.0
H760 H 0.17246 0.62691 0.67255 0.0
H761 H 0.99331 0.66931 0.6379 0.0
H762 H 0.09463 0.61747 0.78006 0.0
H763 H 0.1673 0.63579 0.79323 0.0
H764 H 0.19743 0.61906 0.74875 0.0
H765 H 0.87218 0.67117 0.73428 0.0
H766 H 0.92186 0.68814 0.69549 0.0
H767 H 0.95191 0.68664 0.75444 0.0
C768 C 0.89503 0.37587 0.69424 0.0
C769 C 0.93123 0.38578 0.65638 0.0
C770 C 0.9198 0.37939 0.73903 0.0
C771 C 0.98441 0.39285 0.74617 0.0
C772 C 0.01741 0.40376 0.70833 0.0
C773 C 0.98977 0.40019 0.66377 0.0
C774 C 0.88133 0.36764 0.7782 0.0
C775 C 0.0867 0.41813 0.71408 0.0
C776 C 0.01679 0.40084 0.87382 0.0
C777 C 0.07481 0.38649 0.88211 0.0
C778 C 0.99098 0.40421 0.82883 0.0
C779 C 0.02512 0.39314 0.79154 0.0
C780 C 0.08984 0.3799 0.79955 0.0
C781 C 0.11292 0.37658 0.84473 0.0
C782 C 0.92211 0.41848 0.82194 0.0
C783 C 0.12972 0.36805 0.76096 0.0
H784 H 0.84961 0.36474 0.68852 0.0
H785 H 0.01853 0.40776 0.63444 0.0
H786 H 0.92999 0.35762 0.78945 0.0
H787 H 0.86181 0.37657 0.80823 0.0
H788 H 0.8246 0.35956 0.76809 0.0
H789 H 0.0917 0.42808 0.68472 0.0
H790 H 0.07493 0.4261 0.74661 0.0
H791 H 0.14923 0.41092 0.71577 0.0
H792 H 0.98669 0.40842 0.90276 0.0
H793 H 0.15805 0.36552 0.85112 0.0
H794 H 0.8602 0.41119 0.81812 0.0
H795 H 0.9368 0.42666 0.79001 0.0
H796 H 0.91421 0.42826 0.85162 0.0
H797 H 0.08203 0.35769 0.74996 0.0
H798 H 0.18693 0.36035 0.77161 0.0
H799 H 0.14887 0.37684 0.73063 0.0
C800 C 0.51023 0.87142 0.1655 0.0
C801 C 0.57195 0.88484 0.1515 0.0
C802 C 0.48586 0.86886 0.21242 0.0
C803 C 0.524 0.88005 0.24585 0.0
C804 C 0.59036 0.89273 0.23196 0.0
C805 C 0.61374 0.89491 0.18494 0.0
C806 C 0.41587 0.855 0.2259 0.0
C807 C 0.63296 0.90488 0.2665 0.0
C808 C 0.4007 0.8951 0.35578 0.0
C809 C 0.44183 0.8849 0.38908 0.0
C810 C 0.42382 0.8929 0.30872 0.0
C811 C 0.48926 0.88007 0.29467 0.0
C812 C 0.52677 0.86879 0.32798 0.0
C813 C 0.50268 0.87136 0.37491 0.0
C814 C 0.38191 0.90516 0.2743 0.0
C815 C 0.59577 0.85478 0.31433 0.0
H816 H 0.47812 0.86351 0.13972 0.0
H817 H 0.662 0.90518 0.17425 0.0
H818 H 0.43366 0.84648 0.25571 0.0
H819 H 0.35626 0.86264 0.2366 0.0
H820 H 0.40205 0.8455 0.19699 0.0
H821 H 0.68795 0.91291 0.25053 0.0
H822 H 0.58562 0.91493 0.28212 0.0
H823 H 0.65615 0.89622 0.29482 0.0
H824 H 0.35313 0.90547 0.3666 0.0
H825 H 0.53418 0.86334 0.4006 0.0
H826 H 0.35813 0.89656 0.24593 0.0
H827 H 0.42986 0.91512 0.25873 0.0
H828 H 0.32745 0.91328 0.29036 0.0
H829 H 0.57714 0.84626 0.28459 0.0
H830 H 0.60927 0.84527 0.34321 0.0
H831 H 0.65579 0.86228 0.30346 0.0
C832 C 0.57581 0.13782 0.15988 0.0
C833 C 0.49112 0.13928 0.14717 0.0
C834 C 0.59434 0.1348 0.20594 0.0
C835 C 0.52645 0.13396 0.24044 0.0
C836 C 0.44046 0.13407 0.22718 0.0
C837 C 0.42379 0.13652 0.18043 0.0
C838 C 0.68686 0.13421 0.21807 0.0
C839 C 0.36602 0.13357 0.26268 0.0
C840 C 0.57532 0.12442 0.36591 0.0
C841 C 0.58857 0.14262 0.38199 0.0
C842 C 0.55547 0.12121 0.31977 0.0
C843 C 0.54559 0.13663 0.28984 0.0
C844 C 0.55688 0.15502 0.30662 0.0
C845 C 0.57954 0.15775 0.35207 0.0
C846 C 0.5466 0.1014 0.30285 0.0
C847 C 0.54481 0.17194 0.27657 0.0
H848 H 0.62786 0.14 0.13402 0.0
H849 H 0.35827 0.13793 0.17061 0.0
H850 H 0.7048 0.14786 0.23298 0.0
H851 H 0.69654 0.12329 0.24432 0.0
H852 H 0.73075 0.13144 0.18733 0.0
H853 H 0.30458 0.13047 0.24687 0.0
H854 H 0.37639 0.12298 0.28958 0.0
H855 H 0.36033 0.14739 0.28001 0.0
H856 H 0.58185 0.11274 0.38916 0.0
H857 H 0.5881 0.17187 0.36462 0.0
H858 H 0.59586 0.09866 0.27457 0.0
H859 H 0.48311 0.09936 0.28846 0.0
H860 H 0.55403 0.09098 0.33064 0.0
H861 H 0.59384 0.17199 0.24736 0.0
H862 H 0.55005 0.18528 0.29584 0.0
H863 H 0.48099 0.1714 0.26181 0.0
C864 C 0.50368 0.15943 0.87452 0.0
C865 C 0.44635 0.14491 0.88658 0.0
C866 C 0.52588 0.16341 0.82774 0.0
C867 C 0.48889 0.15275 0.79276 0.0
C868 C 0.42451 0.13941 0.80529 0.0
C869 C 0.40497 0.13552 0.85196 0.0
C870 C 0.59426 0.17782 0.81603 0.0
C871 C 0.38183 0.12792 0.76946 0.0
C872 C 0.51252 0.15919 0.66255 0.0
C873 C 0.56803 0.14438 0.65058 0.0
C874 C 0.49107 0.16338 0.70931 0.0
C875 C 0.52705 0.15263 0.74434 0.0
C876 C 0.58987 0.139 0.73187 0.0
C877 C 0.60859 0.13489 0.68523 0.0
C878 C 0.42438 0.1781 0.72096 0.0
C879 C 0.63155 0.12743 0.76777 0.0
H880 H 0.53615 0.16662 0.90136 0.0
H881 H 0.36022 0.12435 0.86139 0.0
H882 H 0.65649 0.17065 0.80871 0.0
H883 H 0.57967 0.18581 0.78478 0.0
H884 H 0.60155 0.18774 0.84499 0.0
H885 H 0.32528 0.12011 0.78442 0.0
H886 H 0.36091 0.13699 0.74133 0.0
H887 H 0.42836 0.11767 0.75395 0.0
H888 H 0.48073 0.16646 0.63568 0.0
H889 H 0.65197 0.12351 0.67584 0.0
H890 H 0.44023 0.18614 0.752 0.0
H891 H 0.36146 0.17121 0.72864 0.0
H892 H 0.41781 0.18795 0.69185 0.0
H893 H 0.65342 0.13648 0.7958 0.0
H894 H 0.6873 0.1194 0.75283 0.0
H895 H 0.58408 0.11738 0.7834 0.0
C896 C 0.44011 0.90177 0.67046 0.0
C897 C 0.48484 0.88639 0.65129 0.0
C898 C 0.44797 0.90673 0.71702 0.0
C899 C 0.50045 0.89582 0.74475 0.0
C900 C 0.55007 0.88113 0.72432 0.0
C901 C 0.5421 0.87675 0.6779 0.0
C902 C 0.39655 0.92294 0.73695 0.0
C903 C 0.60685 0.86903 0.75225 0.0
C904 C 0.56654 0.90266 0.86704 0.0
C905 C 0.51126 0.88989 0.89024 0.0
C906 C 0.55809 0.90655 0.81997 0.0
C907 C 0.49388 0.89725 0.79601 0.0
C908 C 0.43296 0.88588 0.82081 0.0
C909 C 0.44223 0.88245 0.8676 0.0
C910 C 0.62178 0.91946 0.7952 0.0
C911 C 0.36306 0.87572 0.79707 0.0
H912 H 0.39692 0.90948 0.6497 0.0
H913 H 0.57842 0.86511 0.66293 0.0
H914 H 0.33533 0.91767 0.75339 0.0
H915 H 0.43147 0.93036 0.76368 0.0
H916 H 0.38102 0.93306 0.7097 0.0
H917 H 0.64505 0.85893 0.73049 0.0
H918 H 0.65164 0.87782 0.7711 0.0
H919 H 0.5668 0.86104 0.77825 0.0
H920 H 0.61907 0.90872 0.88474 0.0
H921 H 0.39794 0.87296 0.88587 0.0
H922 H 0.59067 0.92784 0.76879 0.0
H923 H 0.67328 0.91106 0.77729 0.0
H924 H 0.65188 0.92908 0.81959 0.0
H925 H 0.32849 0.88545 0.77512 0.0
H926 H 0.31579 0.86905 0.82202 0.0
H927 H 0.39207 0.86466 0.77433 0.0
loop_
_geom_bond_atom_site_label_1
_geom_bond_atom_site_label_2
_geom_bond_distance
_geom_bond_site_symmetry_2
_ccdc_geom_bond_type
Dy0 O4 2.398 . S
Dy0 O5 2.491 1_454 S
Dy0 O6 2.403 . S
Dy0 O7 2.664 . S
Dy0 O11 2.326 1_455 S
Dy0 O15 2.310 1_554 S
Dy0 O16 2.351 . S
C1 O12 1.185 1_554 S
C1 O13 1.355 . S
C2 O4 1.185 1_655 S
C2 O5 1.355 1_554 S
Dy3 O7 2.310 . S
Dy3 O10 2.351 1_455 S
Dy3 O12 2.398 1_554 S
Dy3 O13 2.491 . S
Dy3 O14 2.403 1_554 S
Dy3 O15 2.664 1_554 S
Dy3 O17 2.326 1_554 S
O4 Dy0 2.398 . S
O4 C2 1.185 1_455 S
O5 Dy0 2.491 1_656 S
O5 C2 1.355 1_556 S
O6 Dy0 2.403 . S
O6 C8 1.254 . S
O7 Dy0 2.664 . S
O7 Dy3 2.310 . S
O7 C8 1.268 . S
C8 O6 1.254 . S
C8 O7 1.268 . S
C9 O14 1.254 . S
C9 O15 1.268 . S
O10 Dy3 2.351 1_655 S
O10 C18 1.249 . S
O11 Dy0 2.326 1_655 S
O11 C18 1.267 . S
O12 C1 1.185 1_556 S
O12 Dy3 2.398 1_556 S
O13 C1 1.355 . S
O13 Dy3 2.491 . S
O14 Dy3 2.403 1_556 S
O14 C9 1.254 . S
O15 Dy0 2.310 1_556 S
O15 Dy3 2.664 1_556 S
O15 C9 1.268 . S
O16 Dy0 2.351 . S
O16 C19 1.253 . S
O17 Dy3 2.326 1_556 S
O17 C19 1.258 1_556 S
C18 O10 1.249 . S
C18 O11 1.267 . S
C19 O16 1.253 . S
C19 O17 1.258 1_554 S
Dy20 O24 2.398 . S
Dy20 O25 2.491 1_554 S
Dy20 O26 2.403 . S
Dy20 O27 2.664 . S
Dy20 O31 2.326 . S
Dy20 O35 2.310 1_554 S
Dy20 O36 2.351 1_655 S
C21 O32 1.185 1_454 S
C21 O33 1.355 . S
C22 O24 1.185 . S
C22 O25 1.355 1_554 S
Dy23 O27 2.310 . S
Dy23 O30 2.351 . S
Dy23 O32 2.398 1_554 S
Dy23 O33 2.491 1_655 S
Dy23 O34 2.403 1_554 S
Dy23 O35 2.664 1_554 S
Dy23 O37 2.326 1_654 S
O24 Dy20 2.398 . S
O24 C22 1.185 . S
O25 Dy20 2.491 1_556 S
O25 C22 1.355 1_556 S
O26 Dy20 2.403 . S
O26 C28 1.254 . S
O27 Dy20 2.664 . S
O27 Dy23 2.310 . S
O27 C28 1.268 . S
C28 O26 1.254 . S
C28 O27 1.268 . S
C29 O34 1.254 . S
C29 O35 1.268 . S
O30 Dy23 2.351 . S
O30 C38 1.249 . S
O31 Dy20 2.326 . S
O31 C38 1.267 . S
O32 C21 1.185 1_656 S
O32 Dy23 2.398 1_556 S
O33 C21 1.355 . S
O33 Dy23 2.491 1_455 S
O34 Dy23 2.403 1_556 S
O34 C29 1.254 . S
O35 Dy20 2.310 1_556 S
O35 Dy23 2.664 1_556 S
O35 C29 1.268 . S
O36 Dy20 2.351 1_455 S
O36 C39 1.249 . S
O37 Dy23 2.326 1_456 S
O37 C39 1.267 1_556 S
C38 O30 1.249 . S
C38 O31 1.267 . S
C39 O36 1.249 . S
C39 O37 1.267 1_554 S
Dy40 O44 2.398 . S
Dy40 O45 2.491 . S
Dy40 O46 2.403 . S
Dy40 O47 2.664 . S
Dy40 O51 2.326 . S
Dy40 O55 2.310 . S
Dy40 O56 2.351 1_455 S
C41 O52 1.185 1_655 S
C41 O53 1.355 . S
C42 O44 1.185 . S
C42 O45 1.355 . S
Dy43 O47 2.310 . S
Dy43 O50 2.351 . S
Dy43 O52 2.398 . S
Dy43 O53 2.491 1_455 S
Dy43 O54 2.403 . S
Dy43 O55 2.664 . S
Dy43 O57 2.326 1_455 S
O44 Dy40 2.398 . S
O44 C42 1.185 . S
O45 Dy40 2.491 . S
O45 C42 1.355 . S
O46 Dy40 2.403 . S
O46 C48 1.254 . S
O47 Dy40 2.664 . S
O47 Dy43 2.310 . S
O47 C48 1.268 . S
C48 O46 1.254 . S
C48 O47 1.268 . S
C49 O54 1.254 . S
C49 O55 1.268 . S
O50 Dy43 2.351 . S
O50 C58 1.249 . S
O51 Dy40 2.326 . S
O51 C58 1.267 . S
O52 C41 1.185 1_455 S
O52 Dy43 2.398 . S
O53 C41 1.355 . S
O53 Dy43 2.491 1_655 S
O54 Dy43 2.403 . S
O54 C49 1.254 . S
O55 Dy40 2.310 . S
O55 Dy43 2.664 . S
O55 C49 1.268 . S
O56 Dy40 2.351 1_655 S
O56 C59 1.249 . S
O57 Dy43 2.326 1_655 S
O57 C59 1.267 . S
C58 O50 1.249 . S
C58 O51 1.267 . S
C59 O56 1.249 . S
C59 O57 1.267 . S
Dy60 O64 2.398 . S
Dy60 O65 2.491 1_655 S
Dy60 O66 2.403 . S
Dy60 O67 2.664 . S
Dy60 O71 2.326 1_655 S
Dy60 O75 2.310 . S
Dy60 O76 2.351 . S
C61 O72 1.185 . S
C61 O73 1.355 . S
C62 O64 1.185 1_455 S
C62 O65 1.355 . S
Dy63 O67 2.310 . S
Dy63 O70 2.351 1_655 S
Dy63 O72 2.398 . S
Dy63 O73 2.491 . S
Dy63 O74 2.403 . S
Dy63 O75 2.664 . S
Dy63 O77 2.326 . S
O64 Dy60 2.398 . S
O64 C62 1.185 1_655 S
O65 Dy60 2.491 1_455 S
O65 C62 1.355 . S
O66 Dy60 2.403 . S
O66 C68 1.254 . S
O67 Dy60 2.664 . S
O67 Dy63 2.310 . S
O67 C68 1.268 . S
C68 O66 1.254 . S
C68 O67 1.268 . S
C69 O74 1.254 . S
C69 O75 1.268 . S
O70 Dy63 2.351 1_455 S
O70 C78 1.249 . S
O71 Dy60 2.326 1_455 S
O71 C78 1.267 . S
O72 C61 1.185 . S
O72 Dy63 2.398 . S
O73 C61 1.355 . S
O73 Dy63 2.491 . S
O74 Dy63 2.403 . S
O74 C69 1.254 . S
O75 Dy60 2.310 . S
O75 Dy63 2.664 . S
O75 C69 1.268 . S
O76 Dy60 2.351 . S
O76 C79 1.249 . S
O77 Dy63 2.326 . S
O77 C79 1.267 . S
C78 O70 1.249 . S
C78 O71 1.267 . S
C79 O76 1.249 . S
C79 O77 1.267 . S
Dy80 O84 2.398 . S
Dy80 O85 2.491 1_554 S
Dy80 O86 2.403 . S
Dy80 O87 2.664 . S
Dy80 O91 2.326 . S
Dy80 O95 2.310 1_554 S
Dy80 O96 2.351 . S
C81 O92 1.185 1_554 S
C81 O93 1.355 . S
C82 O84 1.185 . S
C82 O85 1.355 1_554 S
Dy83 O87 2.310 . S
Dy83 O90 2.351 . S
Dy83 O92 2.398 1_554 S
Dy83 O93 2.491 . S
Dy83 O94 2.403 1_554 S
Dy83 O95 2.664 1_554 S
Dy83 O97 2.326 1_554 S
O84 Dy80 2.398 . S
O84 C82 1.185 . S
O85 Dy80 2.491 1_556 S
O85 C82 1.355 1_556 S
O86 Dy80 2.403 . S
O86 C88 1.254 . S
O87 Dy80 2.664 . S
O87 Dy83 2.310 . S
O87 C88 1.268 . S
C88 O86 1.254 . S
C88 O87 1.268 . S
C89 O94 1.254 . S
C89 O95 1.268 . S
O90 Dy83 2.351 . S
O90 C98 1.249 . S
O91 Dy80 2.326 . S
O91 C98 1.267 . S
O92 C81 1.185 1_556 S
O92 Dy83 2.398 1_556 S
O93 C81 1.355 . S
O93 Dy83 2.491 . S
O94 Dy83 2.403 1_556 S
O94 C89 1.254 . S
O95 Dy80 2.310 1_556 S
O95 Dy83 2.664 1_556 S
O95 C89 1.268 . S
O96 Dy80 2.351 . S
O96 C99 1.253 . S
O97 Dy83 2.326 1_556 S
O97 C99 1.258 1_556 S
C98 O90 1.249 . S
C98 O91 1.267 . S
C99 O96 1.253 . S
C99 O97 1.258 1_554 S
Dy100 O104 2.398 . S
Dy100 O105 2.491 1_554 S
Dy100 O106 2.403 . S
Dy100 O107 2.664 . S
Dy100 O111 2.326 . S
Dy100 O115 2.310 1_554 S
Dy100 O116 2.351 . S
C101 O112 1.185 1_554 S
C101 O113 1.355 . S
C102 O104 1.185 . S
C102 O105 1.355 1_554 S
Dy103 O107 2.310 . S
Dy103 O110 2.351 . S
Dy103 O112 2.398 1_554 S
Dy103 O113 2.491 . S
Dy103 O114 2.403 1_554 S
Dy103 O115 2.664 1_554 S
Dy103 O117 2.326 1_554 S
O104 Dy100 2.398 . S
O104 C102 1.185 . S
O105 Dy100 2.491 1_556 S
O105 C102 1.355 1_556 S
O106 Dy100 2.403 . S
O106 C108 1.254 . S
O107 Dy100 2.664 . S
O107 Dy103 2.310 . S
O107 C108 1.268 . S
C108 O106 1.254 . S
C108 O107 1.268 . S
C109 O114 1.254 . S
C109 O115 1.268 . S
O110 Dy103 2.351 . S
O110 C118 1.249 . S
O111 Dy100 2.326 . S
O111 C118 1.267 . S
O112 C101 1.185 1_556 S
O112 Dy103 2.398 1_556 S
O113 C101 1.355 . S
O113 Dy103 2.491 . S
O114 Dy103 2.403 1_556 S
O114 C109 1.254 . S
O115 Dy100 2.310 1_556 S
O115 Dy103 2.664 1_556 S
O115 C109 1.268 . S
O116 Dy100 2.351 . S
O116 C119 1.249 . S
O117 Dy103 2.326 1_556 S
O117 C119 1.267 1_556 S
C118 O110 1.249 . S
C118 O111 1.267 . S
C119 O116 1.249 . S
C119 O117 1.267 1_554 S
Dy120 O124 2.398 . S
Dy120 O125 2.491 . S
Dy120 O126 2.403 . S
Dy120 O127 2.664 . S
Dy120 O131 2.326 . S
Dy120 O135 2.310 . S
Dy120 O136 2.351 . S
C121 O132 1.185 . S
C121 O133 1.355 . S
C122 O124 1.185 . S
C122 O125 1.355 . S
Dy123 O127 2.310 . S
Dy123 O130 2.351 . S
Dy123 O132 2.398 . S
Dy123 O133 2.491 . S
Dy123 O134 2.403 . S
Dy123 O135 2.664 . S
Dy123 O137 2.326 . S
O124 Dy120 2.398 . S
O124 C122 1.185 . S
O125 Dy120 2.491 . S
O125 C122 1.355 . S
O126 Dy120 2.403 . S
O126 C128 1.254 . S
O127 Dy120 2.664 . S
O127 Dy123 2.310 . S
O127 C128 1.268 . S
C128 O126 1.254 . S
C128 O127 1.268 . S
C129 O134 1.254 . S
C129 O135 1.268 . S
O130 Dy123 2.351 . S
O130 C138 1.249 . S
O131 Dy120 2.326 . S
O131 C138 1.267 . S
O132 C121 1.185 . S
O132 Dy123 2.398 . S
O133 C121 1.355 . S
O133 Dy123 2.491 . S
O134 Dy123 2.403 . S
O134 C129 1.254 . S
O135 Dy120 2.310 . S
O135 Dy123 2.664 . S
O135 C129 1.268 . S
O136 Dy120 2.351 . S
O136 C139 1.249 . S
O137 Dy123 2.326 . S
O137 C139 1.267 . S
C138 O130 1.249 . S
C138 O131 1.267 . S
C139 O136 1.249 . S
C139 O137 1.267 . S
Dy140 O144 2.398 . S
Dy140 O145 2.491 . S
Dy140 O146 2.403 . S
Dy140 O147 2.664 . S
Dy140 O151 2.326 . S
Dy140 O155 2.310 . S
Dy140 O156 2.351 . S
C141 O152 1.185 . S
C141 O153 1.355 . S
C142 O144 1.185 . S
C142 O145 1.355 . S
Dy143 O147 2.310 . S
Dy143 O150 2.351 . S
Dy143 O152 2.398 . S
Dy143 O153 2.491 . S
Dy143 O154 2.403 . S
Dy143 O155 2.664 . S
Dy143 O157 2.326 . S
O144 Dy140 2.398 . S
O144 C142 1.185 . S
O145 Dy140 2.491 . S
O145 C142 1.355 . S
O146 Dy140 2.403 . S
O146 C148 1.254 . S
O147 Dy140 2.664 . S
O147 Dy143 2.310 . S
O147 C148 1.268 . S
C148 O146 1.254 . S
C148 O147 1.268 . S
C149 O154 1.254 . S
C149 O155 1.268 . S
O150 Dy143 2.351 . S
O150 C158 1.249 . S
O151 Dy140 2.326 . S
O151 C158 1.267 . S
O152 C141 1.185 . S
O152 Dy143 2.398 . S
O153 C141 1.355 . S
O153 Dy143 2.491 . S
O154 Dy143 2.403 . S
O154 C149 1.254 . S
O155 Dy140 2.310 . S
O155 Dy143 2.664 . S
O155 C149 1.268 . S
O156 Dy140 2.351 . S
O156 C159 1.249 . S
O157 Dy143 2.326 . S
O157 C159 1.267 . S
C158 O150 1.249 . S
C158 O151 1.267 . S
C159 O156 1.249 . S
C159 O157 1.267 . S
C160 C161 1.391 . S
C160 C162 1.394 . S
C160 H176 0.931 . S
C161 C160 1.391 . S
C161 C165 1.376 1_554 S
C162 C160 1.394 . S
C162 C163 1.369 . S
C162 C166 1.531 . S
C163 C162 1.369 . S
C163 C164 1.410 1_554 S
C163 C171 1.503 . S
C164 C163 1.410 1_556 S
C164 C165 1.392 . S
C164 C167 1.511 . S
C165 C161 1.376 1_556 S
C165 C164 1.392 . S
C165 H177 0.929 . S
C166 C162 1.531 . S
C166 H178 0.960 . S
C166 H179 0.962 . S
C166 H180 0.960 . S
C167 C164 1.511 . S
C167 H181 0.961 . S
C167 H182 0.961 . S
C167 H183 0.961 . S
C168 C169 1.370 . S
C168 C170 1.363 . S
C168 H184 0.931 . S
C169 C168 1.370 . S
C169 C173 1.408 1_554 S
C170 C168 1.363 . S
C170 C171 1.370 . S
C170 C174 1.524 . S
C171 C163 1.503 . S
C171 C170 1.370 . S
C171 C172 1.403 1_554 S
C172 C171 1.403 1_556 S
C172 C173 1.404 . S
C172 C175 1.539 . S
C173 C169 1.408 1_556 S
C173 C172 1.404 . S
C173 H185 0.930 . S
C174 C170 1.524 . S
C174 H186 0.956 . S
C174 H187 0.961 . S
C174 H188 0.961 . S
C175 C172 1.539 . S
C175 H189 0.958 . S
C175 H190 0.961 . S
C175 H191 0.960 . S
H176 C160 0.931 . S
H177 C165 0.929 . S
H178 C166 0.960 . S
H179 C166 0.962 . S
H180 C166 0.960 . S
H181 C167 0.961 . S
H182 C167 0.961 . S
H183 C167 0.961 . S
H184 C168 0.931 . S
H185 C173 0.930 . S
H186 C174 0.956 . S
H187 C174 0.961 . S
H188 C174 0.961 . S
H189 C175 0.958 . S
H190 C175 0.961 . S
H191 C175 0.960 . S
C192 C193 1.391 1_556 S
C192 C194 1.394 . S
C192 H208 0.931 . S
C193 C192 1.391 1_554 S
C193 C197 1.376 . S
C194 C192 1.394 . S
C194 C195 1.369 . S
C194 C198 1.531 . S
C195 C194 1.369 . S
C195 C196 1.410 1_556 S
C195 C203 1.503 1_556 S
C196 C195 1.410 1_554 S
C196 C197 1.392 . S
C196 C199 1.511 . S
C197 C193 1.376 . S
C197 C196 1.392 . S
C197 H209 0.929 . S
C198 C194 1.531 . S
C198 H210 0.960 . S
C198 H211 0.962 . S
C198 H212 0.960 . S
C199 C196 1.511 . S
C199 H213 0.961 . S
C199 H214 0.961 . S
C199 H215 0.961 . S
C200 C201 1.370 . S
C200 C202 1.363 . S
C200 H216 0.931 . S
C201 C200 1.370 . S
C201 C205 1.408 1_554 S
C202 C200 1.363 . S
C202 C203 1.370 . S
C202 C206 1.524 . S
C203 C195 1.503 1_554 S
C203 C202 1.370 . S
C203 C204 1.403 1_554 S
C204 C203 1.403 1_556 S
C204 C205 1.404 . S
C204 C207 1.539 . S
C205 C201 1.408 1_556 S
C205 C204 1.404 . S
C205 H217 0.930 . S
C206 C202 1.524 . S
C206 H218 0.956 . S
C206 H219 0.961 . S
C206 H220 0.961 . S
C207 C204 1.539 . S
C207 H221 0.958 . S
C207 H222 0.961 . S
C207 H223 0.960 . S
H208 C192 0.931 . S
H209 C197 0.929 . S
H210 C198 0.960 . S
H211 C198 0.962 . S
H212 C198 0.960 . S
H213 C199 0.961 . S
H214 C199 0.961 . S
H215 C199 0.961 . S
H216 C200 0.931 . S
H217 C205 0.930 . S
H218 C206 0.956 . S
H219 C206 0.961 . S
H220 C206 0.961 . S
H221 C207 0.958 . S
H222 C207 0.961 . S
H223 C207 0.960 . S
C224 C225 1.391 . S
C224 C226 1.394 . S
C224 H240 0.931 . S
C225 C224 1.391 . S
C225 C229 1.376 . S
C226 C224 1.394 . S
C226 C227 1.369 . S
C226 C230 1.531 . S
C227 C226 1.369 . S
C227 C228 1.410 . S
C227 C235 1.503 . S
C228 C227 1.410 . S
C228 C229 1.392 . S
C228 C231 1.511 . S
C229 C225 1.376 . S
C229 C228 1.392 . S
C229 H241 0.929 . S
C230 C226 1.531 . S
C230 H242 0.960 . S
C230 H243 0.962 . S
C230 H244 0.960 . S
C231 C228 1.511 . S
C231 H245 0.961 . S
C231 H246 0.961 . S
C231 H247 0.961 . S
C232 C233 1.370 . S
C232 C234 1.363 . S
C232 H248 0.931 . S
C233 C232 1.370 . S
C233 C237 1.408 . S
C234 C232 1.363 . S
C234 C235 1.370 . S
C234 C238 1.524 . S
C235 C227 1.503 . S
C235 C234 1.370 . S
C235 C236 1.403 . S
C236 C235 1.403 . S
C236 C237 1.404 . S
C236 C239 1.539 . S
C237 C233 1.408 . S
C237 C236 1.404 . S
C237 H249 0.930 . S
C238 C234 1.524 . S
C238 H250 0.956 . S
C238 H251 0.961 . S
C238 H252 0.961 . S
C239 C236 1.539 . S
C239 H253 0.958 . S
C239 H254 0.961 . S
C239 H255 0.960 . S
H240 C224 0.931 . S
H241 C229 0.929 . S
H242 C230 0.960 . S
H243 C230 0.962 . S
H244 C230 0.960 . S
H245 C231 0.961 . S
H246 C231 0.961 . S
H247 C231 0.961 . S
H248 C232 0.931 . S
H249 C237 0.930 . S
H250 C238 0.956 . S
H251 C238 0.961 . S
H252 C238 0.961 . S
H253 C239 0.958 . S
H254 C239 0.961 . S
H255 C239 0.960 . S
C256 C257 1.391 . S
C256 C258 1.394 . S
C256 H272 0.931 . S
C257 C256 1.391 . S
C257 C261 1.376 . S
C258 C256 1.394 . S
C258 C259 1.369 . S
C258 C262 1.531 . S
C259 C258 1.369 . S
C259 C260 1.410 . S
C259 C267 1.503 . S
C260 C259 1.410 . S
C260 C261 1.392 . S
C260 C263 1.511 . S
C261 C257 1.376 . S
C261 C260 1.392 . S
C261 H273 0.929 . S
C262 C258 1.531 . S
C262 H274 0.960 . S
C262 H275 0.962 . S
C262 H276 0.960 . S
C263 C260 1.511 . S
C263 H277 0.961 . S
C263 H278 0.961 . S
C263 H279 0.961 . S
C264 C265 1.370 . S
C264 C266 1.363 . S
C264 H280 0.931 . S
C265 C264 1.370 . S
C265 C269 1.408 . S
C266 C264 1.363 . S
C266 C267 1.370 . S
C266 C270 1.524 . S
C267 C259 1.503 . S
C267 C266 1.370 . S
C267 C268 1.403 . S
C268 C267 1.403 . S
C268 C269 1.404 . S
C268 C271 1.539 . S
C269 C265 1.408 . S
C269 C268 1.404 . S
C269 H281 0.930 . S
C270 C266 1.524 . S
C270 H282 0.956 . S
C270 H283 0.961 . S
C270 H284 0.961 . S
C271 C268 1.539 . S
C271 H285 0.958 . S
C271 H286 0.961 . S
C271 H287 0.960 . S
H272 C256 0.931 . S
H273 C261 0.929 . S
H274 C262 0.960 . S
H275 C262 0.962 . S
H276 C262 0.960 . S
H277 C263 0.961 . S
H278 C263 0.961 . S
H279 C263 0.961 . S
H280 C264 0.931 . S
H281 C269 0.930 . S
H282 C270 0.956 . S
H283 C270 0.961 . S
H284 C270 0.961 . S
H285 C271 0.958 . S
H286 C271 0.961 . S
H287 C271 0.960 . S
C288 C289 1.391 . S
C288 C290 1.394 1_554 S
C288 H304 0.931 . S
C289 C288 1.391 . S
C289 C293 1.376 1_554 S
C290 C288 1.394 1_556 S
C290 C291 1.369 1_655 S
C290 C294 1.531 1_655 S
C291 C290 1.369 1_455 S
C291 C292 1.410 1_455 S
C291 C299 1.504 . S
C292 C291 1.410 1_655 S
C292 C293 1.392 . S
C292 C295 1.511 . S
C293 C289 1.376 1_556 S
C293 C292 1.392 . S
C293 H305 0.929 . S
C294 C290 1.531 1_455 S
C294 H306 0.960 . S
C294 H307 0.962 1_556 S
C294 H308 0.960 . S
C295 C292 1.511 . S
C295 H309 0.960 1_556 S
C295 H310 0.961 1_656 S
C295 H311 0.961 1_655 S
C296 C297 1.370 . S
C296 C298 1.363 . S
C296 H312 0.931 . S
C297 C296 1.370 . S
C297 C301 1.408 1_554 S
C298 C296 1.363 . S
C298 C299 1.362 1_554 S
C298 C302 1.524 . S
C299 C291 1.504 . S
C299 C298 1.362 1_556 S
C299 C300 1.409 . S
C300 C299 1.409 . S
C300 C301 1.404 . S
C300 C303 1.539 . S
C301 C297 1.408 1_556 S
C301 C300 1.404 . S
C301 H313 0.930 . S
C302 C298 1.524 . S
C302 H314 0.956 . S
C302 H315 0.961 . S
C302 H316 0.961 . S
C303 C300 1.539 . S
C303 H317 0.958 . S
C303 H318 0.961 . S
C303 H319 0.960 . S
H304 C288 0.931 . S
H305 C293 0.929 . S
H306 C294 0.960 . S
H307 C294 0.962 1_554 S
H308 C294 0.960 . S
H309 C295 0.960 1_554 S
H310 C295 0.961 1_454 S
H311 C295 0.961 1_455 S
H312 C296 0.931 . S
H313 C301 0.930 . S
H314 C302 0.956 . S
H315 C302 0.961 . S
H316 C302 0.961 . S
H317 C303 0.958 . S
H318 C303 0.961 . S
H319 C303 0.960 . S
C320 C321 1.391 1_556 S
C320 C322 1.394 . S
C320 H336 0.931 . S
C321 C320 1.391 1_554 S
C321 C325 1.376 . S
C322 C320 1.394 . S
C322 C323 1.369 1_455 S
C322 C326 1.531 1_455 S
C323 C322 1.369 1_655 S
C323 C324 1.410 1_656 S
C323 C331 1.504 1_556 S
C324 C323 1.410 1_454 S
C324 C325 1.392 . S
C324 C327 1.511 1_455 S
C325 C321 1.376 . S
C325 C324 1.392 . S
C325 H337 0.929 . S
C326 C322 1.531 1_655 S
C326 H338 0.960 . S
C326 H339 0.962 . S
C326 H340 0.960 1_655 S
C327 C324 1.511 1_655 S
C327 H341 0.961 1_655 S
C327 H342 0.961 . S
C327 H343 0.960 1_554 S
C328 C329 1.370 . S
C328 C330 1.363 . S
C328 H344 0.931 . S
C329 C328 1.370 . S
C329 C333 1.408 1_554 S
C330 C328 1.363 . S
C330 C331 1.389 . S
C330 C334 1.524 . S
C331 C323 1.504 1_554 S
C331 C330 1.389 . S
C331 C332 1.384 1_554 S
C332 C331 1.384 1_556 S
C332 C333 1.404 . S
C332 C335 1.539 . S
C333 C329 1.408 1_556 S
C333 C332 1.404 . S
C333 H345 0.930 . S
C334 C330 1.524 . S
C334 H346 0.956 . S
C334 H347 0.961 . S
C334 H348 0.961 . S
C335 C332 1.539 . S
C335 H349 0.958 . S
C335 H350 0.961 . S
C335 H351 0.960 . S
H336 C320 0.931 . S
H337 C325 0.929 . S
H338 C326 0.960 . S
H339 C326 0.962 . S
H340 C326 0.960 1_455 S
H341 C327 0.961 1_455 S
H342 C327 0.961 . S
H343 C327 0.960 1_556 S
H344 C328 0.931 . S
H345 C333 0.930 . S
H346 C334 0.956 . S
H347 C334 0.961 . S
H348 C334 0.961 . S
H349 C335 0.958 . S
H350 C335 0.961 . S
H351 C335 0.960 . S
C352 C353 1.391 . S
C352 C354 1.394 . S
C352 H368 0.931 . S
C353 C352 1.391 . S
C353 C357 1.376 . S
C354 C352 1.394 . S
C354 C355 1.369 . S
C354 C358 1.531 . S
C355 C354 1.369 . S
C355 C356 1.410 . S
C355 C363 1.503 . S
C356 C355 1.410 . S
C356 C357 1.392 . S
C356 C359 1.511 . S
C357 C353 1.376 . S
C357 C356 1.392 . S
C357 H369 0.929 . S
C358 C354 1.531 . S
C358 H370 0.960 . S
C358 H371 0.962 . S
C358 H372 0.960 . S
C359 C356 1.511 . S
C359 H373 0.961 . S
C359 H374 0.961 . S
C359 H375 0.961 . S
C360 C361 1.370 . S
C360 C362 1.363 . S
C360 H376 0.931 . S
C361 C360 1.370 . S
C361 C365 1.408 . S
C362 C360 1.363 . S
C362 C363 1.370 1_655 S
C362 C366 1.524 1_655 S
C363 C355 1.503 . S
C363 C362 1.370 1_455 S
C363 C364 1.403 1_455 S
C364 C363 1.403 1_655 S
C364 C365 1.404 . S
C364 C367 1.539 1_655 S
C365 C361 1.408 . S
C365 C364 1.404 . S
C365 H377 0.930 . S
C366 C362 1.524 1_455 S
C366 H378 0.956 . S
C366 H379 0.961 . S
C366 H380 0.961 1_455 S
C367 C364 1.539 1_455 S
C367 H381 0.958 . S
C367 H382 0.961 1_455 S
C367 H383 0.960 . S
H368 C352 0.931 . S
H369 C357 0.929 . S
H370 C358 0.960 . S
H371 C358 0.962 . S
H372 C358 0.960 . S
H373 C359 0.961 . S
H374 C359 0.961 . S
H375 C359 0.961 . S
H376 C360 0.931 . S
H377 C365 0.930 . S
H378 C366 0.956 . S
H379 C366 0.961 . S
H380 C366 0.961 1_655 S
H381 C367 0.958 . S
H382 C367 0.961 1_655 S
H383 C367 0.960 . S
C384 C385 1.391 . S
C384 C386 1.394 . S
C384 H400 0.931 . S
C385 C384 1.391 . S
C385 C389 1.376 . S
C386 C384 1.394 . S
C386 C387 1.369 . S
C386 C390 1.531 . S
C387 C386 1.369 . S
C387 C388 1.410 . S
C387 C395 1.503 . S
C388 C387 1.410 . S
C388 C389 1.392 . S
C388 C391 1.511 . S
C389 C385 1.376 . S
C389 C388 1.392 . S
C389 H401 0.929 . S
C390 C386 1.531 . S
C390 H402 0.960 . S
C390 H403 0.962 . S
C390 H404 0.960 . S
C391 C388 1.511 . S
C391 H405 0.961 . S
C391 H406 0.961 . S
C391 H407 0.961 . S
C392 C393 1.370 . S
C392 C394 1.363 . S
C392 H408 0.931 . S
C393 C392 1.370 . S
C393 C397 1.408 . S
C394 C392 1.363 . S
C394 C395 1.370 1_455 S
C394 C398 1.524 1_455 S
C395 C387 1.503 . S
C395 C394 1.370 1_655 S
C395 C396 1.403 1_655 S
C396 C395 1.403 1_455 S
C396 C397 1.404 . S
C396 C399 1.539 . S
C397 C393 1.408 . S
C397 C396 1.404 . S
C397 H409 0.930 . S
C398 C394 1.524 1_655 S
C398 H410 0.956 . S
C398 H411 0.961 . S
C398 H412 0.961 . S
C399 C396 1.539 . S
C399 H413 0.958 . S
C399 H414 0.961 . S
C399 H415 0.960 1_455 S
H400 C384 0.931 . S
H401 C389 0.929 . S
H402 C390 0.960 . S
H403 C390 0.962 . S
H404 C390 0.960 . S
H405 C391 0.961 . S
H406 C391 0.961 . S
H407 C391 0.961 . S
H408 C392 0.931 . S
H409 C397 0.930 . S
H410 C398 0.956 . S
H411 C398 0.961 . S
H412 C398 0.961 . S
H413 C399 0.958 . S
H414 C399 0.961 . S
H415 C399 0.960 1_655 S
C416 C417 1.391 1_656 S
C416 C418 1.394 . S
C416 H432 0.931 . S
C417 C416 1.391 1_454 S
C417 C421 1.376 . S
C418 C416 1.394 . S
C418 C419 1.371 1_655 S
C418 C422 1.531 . S
C419 C418 1.371 1_455 S
C419 C420 1.407 1_556 S
C419 C427 1.503 1_456 S
C420 C419 1.407 1_554 S
C420 C421 1.392 . S
C420 C423 1.511 . S
C421 C417 1.376 . S
C421 C420 1.392 . S
C421 H433 0.929 . S
C422 C418 1.531 . S
C422 H434 0.960 . S
C422 H435 0.962 . S
C422 H436 0.960 . S
C423 C420 1.511 . S
C423 H437 0.961 . S
C423 H438 0.961 . S
C423 H439 0.961 . S
C424 C425 1.370 . S
C424 C426 1.363 . S
C424 H440 0.931 . S
C425 C424 1.370 . S
C425 C429 1.408 1_654 S
C426 C424 1.363 . S
C426 C427 1.380 . S
C426 C430 1.524 . S
C427 C419 1.503 1_654 S
C427 C426 1.380 . S
C427 C428 1.393 1_654 S
C428 C427 1.393 1_456 S
C428 C429 1.404 . S
C428 C431 1.539 . S
C429 C425 1.408 1_456 S
C429 C428 1.404 . S
C429 H441 0.930 . S
C430 C426 1.524 . S
C430 H442 0.956 . S
C430 H443 0.961 . S
C430 H444 0.961 . S
C431 C428 1.539 . S
C431 H445 0.958 . S
C431 H446 0.961 . S
C431 H447 0.960 . S
H432 C416 0.931 . S
H433 C421 0.929 . S
H434 C422 0.960 . S
H435 C422 0.962 . S
H436 C422 0.960 . S
H437 C423 0.961 . S
H438 C423 0.961 . S
H439 C423 0.961 . S
H440 C424 0.931 . S
H441 C429 0.930 . S
H442 C430 0.956 . S
H443 C430 0.961 . S
H444 C430 0.961 . S
H445 C431 0.958 . S
H446 C431 0.961 . S
H447 C431 0.960 . S
C448 C449 1.391 1_655 S
C448 C450 1.394 . S
C448 H464 0.931 . S
C449 C448 1.391 1_455 S
C449 C453 1.376 . S
C450 C448 1.394 . S
C450 C451 1.369 1_655 S
C450 C454 1.531 . S
C451 C450 1.369 1_455 S
C451 C452 1.410 . S
C451 C459 1.504 . S
C452 C451 1.410 . S
C452 C453 1.392 . S
C452 C455 1.511 . S
C453 C449 1.376 . S
C453 C452 1.392 . S
C453 H465 0.929 . S
C454 C450 1.531 . S
C454 H466 0.960 . S
C454 H467 0.962 . S
C454 H468 0.960 . S
C455 C452 1.511 . S
C455 H469 0.961 . S
C455 H470 0.961 . S
C455 H471 0.961 . S
C456 C457 1.370 . S
C456 C458 1.363 . S
C456 H472 0.931 . S
C457 C456 1.370 . S
C457 C461 1.408 1_655 S
C458 C456 1.363 . S
C458 C459 1.369 1_655 S
C458 C462 1.524 . S
C459 C451 1.504 . S
C459 C458 1.369 1_455 S
C459 C460 1.404 . S
C460 C459 1.404 . S
C460 C461 1.404 . S
C460 C463 1.539 . S
C461 C457 1.408 1_455 S
C461 C460 1.404 . S
C461 H473 0.930 . S
C462 C458 1.524 . S
C462 H474 0.956 . S
C462 H475 0.961 . S
C462 H476 0.961 . S
C463 C460 1.539 . S
C463 H477 0.958 . S
C463 H478 0.961 . S
C463 H479 0.960 . S
H464 C448 0.931 . S
H465 C453 0.929 . S
H466 C454 0.960 . S
H467 C454 0.962 . S
H468 C454 0.960 . S
H469 C455 0.961 . S
H470 C455 0.961 . S
H471 C455 0.961 . S
H472 C456 0.931 . S
H473 C461 0.930 . S
H474 C462 0.956 . S
H475 C462 0.961 . S
H476 C462 0.961 . S
H477 C463 0.958 . S
H478 C463 0.961 . S
H479 C463 0.960 . S
C480 C481 1.390 . S
C480 C482 1.394 . S
C480 H496 0.931 . S
C481 C480 1.390 . S
C481 C485 1.376 1_556 S
C482 C480 1.394 . S
C482 C483 1.369 . S
C482 C486 1.531 . S
C483 C482 1.369 . S
C483 C484 1.410 1_556 S
C483 C491 1.503 1_566 S
C484 C483 1.410 1_554 S
C484 C485 1.392 . S
C484 C487 1.511 . S
C485 C481 1.376 1_554 S
C485 C484 1.392 . S
C485 H497 0.929 . S
C486 C482 1.531 . S
C486 H498 0.960 . S
C486 H499 0.962 . S
C486 H500 0.960 . S
C487 C484 1.511 . S
C487 H501 0.961 . S
C487 H502 0.961 1_565 S
C487 H503 0.956 1_565 S
C488 C489 1.370 . S
C488 C490 1.363 . S
C488 H504 0.931 . S
C489 C488 1.370 . S
C489 C493 1.408 1_554 S
C490 C488 1.363 . S
C490 C491 1.370 . S
C490 C494 1.524 . S
C491 C483 1.503 1_544 S
C491 C490 1.370 . S
C491 C492 1.403 1_554 S
C492 C491 1.403 1_556 S
C492 C493 1.404 . S
C492 C495 1.539 . S
C493 C489 1.408 1_556 S
C493 C492 1.404 . S
C493 H505 0.930 . S
C494 C490 1.524 . S
C494 H506 0.956 1_545 S
C494 H507 0.961 1_545 S
C494 H508 0.961 . S
C495 C492 1.539 . S
C495 H509 0.958 . S
C495 H510 0.961 . S
C495 H511 0.960 . S
H496 C480 0.931 . S
H497 C485 0.929 . S
H498 C486 0.960 . S
H499 C486 0.962 . S
H500 C486 0.960 . S
H501 C487 0.961 . S
H502 C487 0.961 1_545 S
H503 C487 0.956 1_545 S
H504 C488 0.931 . S
H505 C493 0.930 . S
H506 C494 0.956 1_565 S
H507 C494 0.961 1_565 S
H508 C494 0.961 . S
H509 C495 0.958 . S
H510 C495 0.961 . S
H511 C495 0.960 . S
C512 C513 1.391 . S
C512 C514 1.394 . S
C512 H528 0.931 . S
C513 C512 1.391 . S
C513 C517 1.376 . S
C514 C512 1.394 . S
C514 C515 1.369 . S
C514 C518 1.531 . S
C515 C514 1.369 . S
C515 C516 1.410 . S
C515 C523 1.503 1_545 S
C516 C515 1.410 . S
C516 C517 1.392 . S
C516 C519 1.511 . S
C517 C513 1.376 . S
C517 C516 1.392 . S
C517 H529 0.929 . S
C518 C514 1.531 . S
C518 H530 0.960 . S
C518 H531 0.962 . S
C518 H532 0.960 . S
C519 C516 1.511 . S
C519 H533 0.961 . S
C519 H534 0.961 1_545 S
C519 H535 0.962 1_545 S
C520 C521 1.370 . S
C520 C522 1.363 . S
C520 H536 0.931 . S
C521 C520 1.370 . S
C521 C525 1.408 . S
C522 C520 1.363 . S
C522 C523 1.370 . S
C522 C526 1.524 . S
C523 C515 1.503 1_565 S
C523 C522 1.370 . S
C523 C524 1.403 . S
C524 C523 1.403 . S
C524 C525 1.404 . S
C524 C527 1.539 . S
C525 C521 1.408 . S
C525 C524 1.404 . S
C525 H537 0.930 . S
C526 C522 1.524 . S
C526 H538 0.956 1_565 S
C526 H539 0.965 . S
C526 H540 0.961 . S
C527 C524 1.539 . S
C527 H541 0.958 . S
C527 H542 0.961 . S
C527 H543 0.960 . S
H528 C512 0.931 . S
H529 C517 0.929 . S
H530 C518 0.960 . S
H531 C518 0.962 . S
H532 C518 0.960 . S
H533 C519 0.961 . S
H534 C519 0.961 1_565 S
H535 C519 0.962 1_565 S
H536 C520 0.931 . S
H537 C525 0.930 . S
H538 C526 0.956 1_545 S
H539 C526 0.965 . S
H540 C526 0.961 . S
H541 C527 0.958 . S
H542 C527 0.961 . S
H543 C527 0.960 . S
C544 C545 1.391 . S
C544 C546 1.394 . S
C544 H560 0.931 . S
C545 C544 1.391 . S
C545 C549 1.378 . S
C546 C544 1.394 . S
C546 C547 1.369 . S
C546 C550 1.531 . S
C547 C546 1.369 . S
C547 C548 1.410 . S
C547 C555 1.503 . S
C548 C547 1.410 . S
C548 C549 1.393 . S
C548 C551 1.511 1_554 S
C549 C545 1.378 . S
C549 C548 1.393 . S
C549 H561 0.926 1_554 S
C550 C546 1.531 . S
C550 H562 0.960 . S
C550 H563 0.962 . S
C550 H564 0.960 . S
C551 C548 1.511 1_556 S
C551 H565 0.961 . S
C551 H566 0.961 . S
C551 H567 0.961 1_556 S
C552 C553 1.370 1_556 S
C552 C554 1.363 . S
C552 H568 0.931 . S
C553 C552 1.370 1_554 S
C553 C557 1.408 . S
C554 C552 1.363 . S
C554 C555 1.370 1_556 S
C554 C558 1.524 . S
C555 C547 1.503 . S
C555 C554 1.370 1_554 S
C555 C556 1.403 . S
C556 C555 1.403 . S
C556 C557 1.404 . S
C556 C559 1.539 . S
C557 C553 1.408 . S
C557 C556 1.404 . S
C557 H569 0.930 . S
C558 C554 1.524 . S
C558 H570 0.956 . S
C558 H571 0.961 . S
C558 H572 0.961 . S
C559 C556 1.539 . S
C559 H573 0.958 . S
C559 H574 0.961 . S
C559 H575 0.960 . S
H560 C544 0.931 . S
H561 C549 0.926 1_556 S
H562 C550 0.960 . S
H563 C550 0.962 . S
H564 C550 0.960 . S
H565 C551 0.961 . S
H566 C551 0.961 . S
H567 C551 0.961 1_554 S
H568 C552 0.931 . S
H569 C557 0.930 . S
H570 C558 0.956 . S
H571 C558 0.961 . S
H572 C558 0.961 . S
H573 C559 0.958 . S
H574 C559 0.961 . S
H575 C559 0.960 . S
C576 C577 1.391 . S
C576 C578 1.394 . S
C576 H592 0.931 . S
C577 C576 1.391 . S
C577 C581 1.376 . S
C578 C576 1.394 . S
C578 C579 1.369 . S
C578 C582 1.531 . S
C579 C578 1.369 . S
C579 C580 1.410 . S
C579 C587 1.503 . S
C580 C579 1.410 . S
C580 C581 1.392 . S
C580 C583 1.511 . S
C581 C577 1.376 . S
C581 C580 1.392 . S
C581 H593 0.929 . S
C582 C578 1.531 . S
C582 H594 0.960 . S
C582 H595 0.962 1_554 S
C582 H596 0.960 . S
C583 C580 1.511 . S
C583 H597 0.961 . S
C583 H598 0.961 . S
C583 H599 0.961 . S
C584 C585 1.370 1_556 S
C584 C586 1.363 . S
C584 H600 0.931 . S
C585 C584 1.370 1_554 S
C585 C589 1.408 . S
C586 C584 1.363 . S
C586 C587 1.370 1_556 S
C586 C590 1.524 . S
C587 C579 1.503 . S
C587 C586 1.370 1_554 S
C587 C588 1.403 . S
C588 C587 1.403 . S
C588 C589 1.404 . S
C588 C591 1.539 . S
C589 C585 1.408 . S
C589 C588 1.404 . S
C589 H601 0.930 . S
C590 C586 1.524 . S
C590 H602 0.956 . S
C590 H603 0.961 . S
C590 H604 0.961 . S
C591 C588 1.539 . S
C591 H605 0.958 . S
C591 H606 0.961 . S
C591 H607 0.960 . S
H592 C576 0.931 . S
H593 C581 0.929 . S
H594 C582 0.960 . S
H595 C582 0.962 1_556 S
H596 C582 0.960 . S
H597 C583 0.961 . S
H598 C583 0.961 . S
H599 C583 0.961 . S
H600 C584 0.931 . S
H601 C589 0.930 . S
H602 C590 0.956 . S
H603 C590 0.961 . S
H604 C590 0.961 . S
H605 C591 0.958 . S
H606 C591 0.961 . S
H607 C591 0.960 . S
C608 C609 1.391 . S
C608 C610 1.394 . S
C608 H624 0.931 . S
C609 C608 1.391 . S
C609 C613 1.376 . S
C610 C608 1.394 . S
C610 C611 1.369 . S
C610 C614 1.531 . S
C611 C610 1.369 . S
C611 C612 1.410 . S
C611 C619 1.503 . S
C612 C611 1.410 . S
C612 C613 1.392 . S
C612 C615 1.511 . S
C613 C609 1.376 . S
C613 C612 1.392 . S
C613 H625 0.929 . S
C614 C610 1.531 . S
C614 H626 0.960 . S
C614 H627 0.962 . S
C614 H628 0.960 . S
C615 C612 1.511 . S
C615 H629 0.961 . S
C615 H630 0.961 . S
C615 H631 0.961 . S
C616 C617 1.370 . S
C616 C618 1.363 . S
C616 H632 0.931 . S
C617 C616 1.370 . S
C617 C621 1.408 . S
C618 C616 1.363 . S
C618 C619 1.370 . S
C618 C622 1.524 . S
C619 C611 1.503 . S
C619 C618 1.370 . S
C619 C620 1.403 . S
C620 C619 1.403 . S
C620 C621 1.404 . S
C620 C623 1.539 . S
C621 C617 1.408 . S
C621 C620 1.404 . S
C621 H633 0.930 . S
C622 C618 1.524 . S
C622 H634 0.956 . S
C622 H635 0.961 . S
C622 H636 0.961 . S
C623 C620 1.539 . S
C623 H637 0.958 . S
C623 H638 0.961 . S
C623 H639 0.960 . S
H624 C608 0.931 . S
H625 C613 0.929 . S
H626 C614 0.960 . S
H627 C614 0.962 . S
H628 C614 0.960 . S
H629 C615 0.961 . S
H630 C615 0.961 . S
H631 C615 0.961 . S
H632 C616 0.931 . S
H633 C621 0.930 . S
H634 C622 0.956 . S
H635 C622 0.961 . S
H636 C622 0.961 . S
H637 C623 0.958 . S
H638 C623 0.961 . S
H639 C623 0.960 . S
C640 C641 1.391 . S
C640 C642 1.394 . S
C640 H656 0.931 . S
C641 C640 1.391 . S
C641 C645 1.376 . S
C642 C640 1.394 . S
C642 C643 1.369 . S
C642 C646 1.531 . S
C643 C642 1.369 . S
C643 C644 1.410 . S
C643 C651 1.503 . S
C644 C643 1.410 . S
C644 C645 1.392 . S
C644 C647 1.511 . S
C645 C641 1.376 . S
C645 C644 1.392 . S
C645 H657 0.929 . S
C646 C642 1.531 . S
C646 H658 0.960 . S
C646 H659 0.962 . S
C646 H660 0.960 . S
C647 C644 1.511 . S
C647 H661 0.961 . S
C647 H662 0.961 . S
C647 H663 0.961 . S
C648 C649 1.370 . S
C648 C650 1.363 . S
C648 H664 0.931 . S
C649 C648 1.370 . S
C649 C653 1.408 . S
C650 C648 1.363 . S
C650 C651 1.370 . S
C650 C654 1.524 . S
C651 C643 1.503 . S
C651 C650 1.370 . S
C651 C652 1.403 . S
C652 C651 1.403 . S
C652 C653 1.404 . S
C652 C655 1.539 . S
C653 C649 1.408 . S
C653 C652 1.404 . S
C653 H665 0.930 . S
C654 C650 1.524 . S
C654 H666 0.956 . S
C654 H667 0.961 . S
C654 H668 0.961 . S
C655 C652 1.539 . S
C655 H669 0.958 . S
C655 H670 0.961 . S
C655 H671 0.960 . S
H656 C640 0.931 . S
H657 C645 0.929 . S
H658 C646 0.960 . S
H659 C646 0.962 . S
H660 C646 0.960 . S
H661 C647 0.961 . S
H662 C647 0.961 . S
H663 C647 0.961 . S
H664 C648 0.931 . S
H665 C653 0.930 . S
H666 C654 0.956 . S
H667 C654 0.961 . S
H668 C654 0.961 . S
H669 C655 0.958 . S
H670 C655 0.961 . S
H671 C655 0.960 . S
C672 C673 1.391 . S
C672 C674 1.394 . S
C672 H688 0.931 . S
C673 C672 1.391 . S
C673 C677 1.376 1_455 S
C674 C672 1.394 . S
C674 C675 1.369 1_455 S
C674 C678 1.531 . S
C675 C674 1.369 1_655 S
C675 C676 1.410 . S
C675 C683 1.503 . S
C676 C675 1.410 . S
C676 C677 1.392 . S
C676 C679 1.511 . S
C677 C673 1.376 1_655 S
C677 C676 1.392 . S
C677 H689 0.929 . S
C678 C674 1.531 . S
C678 H690 0.960 . S
C678 H691 0.962 . S
C678 H692 0.960 . S
C679 C676 1.511 . S
C679 H693 0.961 . S
C679 H694 0.961 . S
C679 H695 0.961 . S
C680 C681 1.370 1_455 S
C680 C682 1.363 . S
C680 H696 0.931 . S
C681 C680 1.370 1_655 S
C681 C685 1.408 . S
C682 C680 1.363 . S
C682 C683 1.370 1_455 S
C682 C686 1.524 . S
C683 C675 1.503 . S
C683 C682 1.370 1_655 S
C683 C684 1.403 . S
C684 C683 1.403 . S
C684 C685 1.404 . S
C684 C687 1.539 . S
C685 C681 1.408 . S
C685 C684 1.404 . S
C685 H697 0.930 . S
C686 C682 1.524 . S
C686 H698 0.956 . S
C686 H699 0.961 . S
C686 H700 0.961 . S
C687 C684 1.539 . S
C687 H701 0.958 . S
C687 H702 0.961 . S
C687 H703 0.960 . S
H688 C672 0.931 . S
H689 C677 0.929 . S
H690 C678 0.960 . S
H691 C678 0.962 . S
H692 C678 0.960 . S
H693 C679 0.961 . S
H694 C679 0.961 . S
H695 C679 0.961 . S
H696 C680 0.931 . S
H697 C685 0.930 . S
H698 C686 0.956 . S
H699 C686 0.961 . S
H700 C686 0.961 . S
H701 C687 0.958 . S
H702 C687 0.961 . S
H703 C687 0.960 . S
C704 C705 1.391 1_455 S
C704 C706 1.394 . S
C704 H720 0.931 . S
C705 C704 1.391 1_655 S
C705 C709 1.376 . S
C706 C704 1.394 . S
C706 C707 1.369 1_455 S
C706 C710 1.531 . S
C707 C706 1.369 1_655 S
C707 C708 1.410 . S
C707 C715 1.503 1_655 S
C708 C707 1.410 . S
C708 C709 1.392 . S
C708 C711 1.511 . S
C709 C705 1.376 . S
C709 C708 1.392 . S
C709 H721 0.929 . S
C710 C706 1.531 . S
C710 H722 0.960 . S
C710 H723 0.962 . S
C710 H724 0.960 . S
C711 C708 1.511 . S
C711 H725 0.961 . S
C711 H726 0.961 . S
C711 H727 0.961 . S
C712 C713 1.370 . S
C712 C714 1.363 . S
C712 H728 0.931 . S
C713 C712 1.370 . S
C713 C717 1.408 . S
C714 C712 1.363 . S
C714 C715 1.370 . S
C714 C718 1.524 . S
C715 C707 1.503 1_455 S
C715 C714 1.370 . S
C715 C716 1.403 1_455 S
C716 C715 1.403 1_655 S
C716 C717 1.404 1_655 S
C716 C719 1.539 . S
C717 C713 1.408 . S
C717 C716 1.404 1_455 S
C717 H729 0.930 1_455 S
C718 C714 1.524 . S
C718 H730 0.956 . S
C718 H731 0.961 . S
C718 H732 0.961 . S
C719 C716 1.539 . S
C719 H733 0.958 . S
C719 H734 0.961 . S
C719 H735 0.960 . S
H720 C704 0.931 . S
H721 C709 0.929 . S
H722 C710 0.960 . S
H723 C710 0.962 . S
H724 C710 0.960 . S
H725 C711 0.961 . S
H726 C711 0.961 . S
H727 C711 0.961 . S
H728 C712 0.931 . S
H729 C717 0.930 1_655 S
H730 C718 0.956 . S
H731 C718 0.961 . S
H732 C718 0.961 . S
H733 C719 0.958 . S
H734 C719 0.961 . S
H735 C719 0.960 . S
C736 C737 1.391 . S
C736 C738 1.394 . S
C736 H752 0.931 . S
C737 C736 1.391 . S
C737 C741 1.376 1_655 S
C738 C736 1.394 . S
C738 C739 1.369 . S
C738 C742 1.531 . S
C739 C738 1.369 . S
C739 C740 1.410 1_655 S
C739 C747 1.503 1_655 S
C740 C739 1.410 1_455 S
C740 C741 1.392 . S
C740 C743 1.511 . S
C741 C737 1.376 1_455 S
C741 C740 1.392 . S
C741 H753 0.929 . S
C742 C738 1.531 . S
C742 H754 0.960 . S
C742 H755 0.962 . S
C742 H756 0.960 . S
C743 C740 1.511 . S
C743 H757 0.961 . S
C743 H758 0.961 . S
C743 H759 0.961 . S
C744 C745 1.370 . S
C744 C746 1.363 1_455 S
C744 H760 0.931 1_455 S
C745 C744 1.370 . S
C745 C749 1.408 . S
C746 C744 1.363 1_655 S
C746 C747 1.370 1_655 S
C746 C750 1.524 . S
C747 C739 1.503 1_455 S
C747 C746 1.370 1_455 S
C747 C748 1.403 . S
C748 C747 1.403 . S
C748 C749 1.404 . S
C748 C751 1.539 . S
C749 C745 1.408 . S
C749 C748 1.404 . S
C749 H761 0.930 . S
C750 C746 1.524 . S
C750 H762 0.956 . S
C750 H763 0.961 . S
C750 H764 0.961 . S
C751 C748 1.539 . S
C751 H765 0.958 . S
C751 H766 0.961 . S
C751 H767 0.960 . S
H752 C736 0.931 . S
H753 C741 0.929 . S
H754 C742 0.960 . S
H755 C742 0.962 . S
H756 C742 0.960 . S
H757 C743 0.961 . S
H758 C743 0.961 . S
H759 C743 0.961 . S
H760 C744 0.931 1_655 S
H761 C749 0.930 . S
H762 C750 0.956 . S
H763 C750 0.961 . S
H764 C750 0.961 . S
H765 C751 0.958 . S
H766 C751 0.961 . S
H767 C751 0.960 . S
C768 C769 1.391 . S
C768 C770 1.394 . S
C768 H784 0.931 . S
C769 C768 1.391 . S
C769 C773 1.376 1_655 S
C770 C768 1.394 . S
C770 C771 1.369 1_655 S
C770 C774 1.531 . S
C771 C770 1.369 1_455 S
C771 C772 1.410 . S
C771 C779 1.503 . S
C772 C771 1.410 . S
C772 C773 1.392 . S
C772 C775 1.511 . S
C773 C769 1.376 1_455 S
C773 C772 1.392 . S
C773 H785 0.929 . S
C774 C770 1.531 . S
C774 H786 0.960 . S
C774 H787 0.962 . S
C774 H788 0.960 . S
C775 C772 1.511 . S
C775 H789 0.961 . S
C775 H790 0.961 . S
C775 H791 0.961 . S
C776 C777 1.370 1_655 S
C776 C778 1.363 . S
C776 H792 0.931 . S
C777 C776 1.370 1_455 S
C777 C781 1.408 . S
C778 C776 1.363 . S
C778 C779 1.370 1_655 S
C778 C782 1.524 . S
C779 C771 1.503 . S
C779 C778 1.370 1_455 S
C779 C780 1.403 . S
C780 C779 1.403 . S
C780 C781 1.404 . S
C780 C783 1.539 . S
C781 C777 1.408 . S
C781 C780 1.404 . S
C781 H793 0.930 . S
C782 C778 1.524 . S
C782 H794 0.956 . S
C782 H795 0.961 . S
C782 H796 0.961 . S
C783 C780 1.539 . S
C783 H797 0.958 . S
C783 H798 0.961 . S
C783 H799 0.960 . S
H784 C768 0.931 . S
H785 C773 0.929 . S
H786 C774 0.960 . S
H787 C774 0.962 . S
H788 C774 0.960 . S
H789 C775 0.961 . S
H790 C775 0.961 . S
H791 C775 0.961 . S
H792 C776 0.931 . S
H793 C781 0.930 . S
H794 C782 0.956 . S
H795 C782 0.961 . S
H796 C782 0.961 . S
H797 C783 0.958 . S
H798 C783 0.961 . S
H799 C783 0.960 . S
C800 C801 1.391 . S
C800 C802 1.394 . S
C800 H816 0.931 . S
C801 C800 1.391 . S
C801 C805 1.376 . S
C802 C800 1.394 . S
C802 C803 1.369 . S
C802 C806 1.531 . S
C803 C802 1.369 . S
C803 C804 1.410 . S
C803 C811 1.503 . S
C804 C803 1.410 . S
C804 C805 1.392 . S
C804 C807 1.511 . S
C805 C801 1.376 . S
C805 C804 1.392 . S
C805 H817 0.929 . S
C806 C802 1.531 . S
C806 H818 0.960 . S
C806 H819 0.962 . S
C806 H820 0.960 . S
C807 C804 1.511 . S
C807 H821 0.961 . S
C807 H822 0.961 . S
C807 H823 0.961 . S
C808 C809 1.370 . S
C808 C810 1.363 . S
C808 H824 0.931 . S
C809 C808 1.370 . S
C809 C813 1.408 . S
C810 C808 1.363 . S
C810 C811 1.370 . S
C810 C814 1.524 . S
C811 C803 1.503 . S
C811 C810 1.370 . S
C811 C812 1.403 . S
C812 C811 1.403 . S
C812 C813 1.404 . S
C812 C815 1.539 . S
C813 C809 1.408 . S
C813 C812 1.404 . S
C813 H825 0.930 . S
C814 C810 1.524 . S
C814 H826 0.956 . S
C814 H827 0.961 . S
C814 H828 0.961 . S
C815 C812 1.539 . S
C815 H829 0.958 . S
C815 H830 0.961 . S
C815 H831 0.960 . S
H816 C800 0.931 . S
H817 C805 0.929 . S
H818 C806 0.960 . S
H819 C806 0.962 . S
H820 C806 0.960 . S
H821 C807 0.961 . S
H822 C807 0.961 . S
H823 C807 0.961 . S
H824 C808 0.931 . S
H825 C813 0.930 . S
H826 C814 0.956 . S
H827 C814 0.961 . S
H828 C814 0.961 . S
H829 C815 0.958 . S
H830 C815 0.961 . S
H831 C815 0.960 . S
C832 C833 1.391 . S
C832 C834 1.394 . S
C832 H848 0.931 . S
C833 C832 1.391 . S
C833 C837 1.376 . S
C834 C832 1.394 . S
C834 C835 1.369 . S
C834 C838 1.531 . S
C835 C834 1.369 . S
C835 C836 1.410 . S
C835 C843 1.503 . S
C836 C835 1.410 . S
C836 C837 1.392 . S
C836 C839 1.511 . S
C837 C833 1.376 . S
C837 C836 1.392 . S
C837 H849 0.929 . S
C838 C834 1.531 . S
C838 H850 0.960 . S
C838 H851 0.962 . S
C838 H852 0.960 . S
C839 C836 1.511 . S
C839 H853 0.961 . S
C839 H854 0.961 . S
C839 H855 0.961 . S
C840 C841 1.370 . S
C840 C842 1.363 . S
C840 H856 0.931 . S
C841 C840 1.370 . S
C841 C845 1.408 . S
C842 C840 1.363 . S
C842 C843 1.370 . S
C842 C846 1.524 . S
C843 C835 1.503 . S
C843 C842 1.370 . S
C843 C844 1.403 . S
C844 C843 1.403 . S
C844 C845 1.404 . S
C844 C847 1.539 . S
C845 C841 1.408 . S
C845 C844 1.404 . S
C845 H857 0.930 . S
C846 C842 1.524 . S
C846 H858 0.956 . S
C846 H859 0.961 . S
C846 H860 0.961 . S
C847 C844 1.539 . S
C847 H861 0.958 . S
C847 H862 0.961 . S
C847 H863 0.960 . S
H848 C832 0.931 . S
H849 C837 0.929 . S
H850 C838 0.960 . S
H851 C838 0.962 . S
H852 C838 0.960 . S
H853 C839 0.961 . S
H854 C839 0.961 . S
H855 C839 0.961 . S
H856 C840 0.931 . S
H857 C845 0.930 . S
H858 C846 0.956 . S
H859 C846 0.961 . S
H860 C846 0.961 . S
H861 C847 0.958 . S
H862 C847 0.961 . S
H863 C847 0.960 . S
C864 C865 1.391 . S
C864 C866 1.394 . S
C864 H880 0.931 . S
C865 C864 1.391 . S
C865 C869 1.376 . S
C866 C864 1.394 . S
C866 C867 1.369 . S
C866 C870 1.531 . S
C867 C866 1.369 . S
C867 C868 1.410 . S
C867 C875 1.503 . S
C868 C867 1.410 . S
C868 C869 1.392 . S
C868 C871 1.511 . S
C869 C865 1.376 . S
C869 C868 1.392 . S
C869 H881 0.929 . S
C870 C866 1.531 . S
C870 H882 0.960 . S
C870 H883 0.962 . S
C870 H884 0.960 . S
C871 C868 1.511 . S
C871 H885 0.961 . S
C871 H886 0.961 . S
C871 H887 0.961 . S
C872 C873 1.370 . S
C872 C874 1.363 . S
C872 H888 0.931 . S
C873 C872 1.370 . S
C873 C877 1.408 . S
C874 C872 1.363 . S
C874 C875 1.370 . S
C874 C878 1.524 . S
C875 C867 1.503 . S
C875 C874 1.370 . S
C875 C876 1.403 . S
C876 C875 1.403 . S
C876 C877 1.404 . S
C876 C879 1.539 . S
C877 C873 1.408 . S
C877 C876 1.404 . S
C877 H889 0.930 . S
C878 C874 1.524 . S
C878 H890 0.956 . S
C878 H891 0.961 . S
C878 H892 0.961 . S
C879 C876 1.539 . S
C879 H893 0.958 . S
C879 H894 0.961 . S
C879 H895 0.960 . S
H880 C864 0.931 . S
H881 C869 0.929 . S
H882 C870 0.960 . S
H883 C870 0.962 . S
H884 C870 0.960 . S
H885 C871 0.961 . S
H886 C871 0.961 . S
H887 C871 0.961 . S
H888 C872 0.931 . S
H889 C877 0.930 . S
H890 C878 0.956 . S
H891 C878 0.961 . S
H892 C878 0.961 . S
H893 C879 0.958 . S
H894 C879 0.961 . S
H895 C879 0.960 . S
C896 C897 1.391 . S
C896 C898 1.394 . S
C896 H912 0.931 . S
C897 C896 1.391 . S
C897 C901 1.376 . S
C898 C896 1.394 . S
C898 C899 1.369 . S
C898 C902 1.531 . S
C899 C898 1.369 . S
C899 C900 1.410 . S
C899 C907 1.503 . S
C900 C899 1.410 . S
C900 C901 1.392 . S
C900 C903 1.511 . S
C901 C897 1.376 . S
C901 C900 1.392 . S
C901 H913 0.929 . S
C902 C898 1.531 . S
C902 H914 0.960 . S
C902 H915 0.962 . S
C902 H916 0.960 . S
C903 C900 1.511 . S
C903 H917 0.961 . S
C903 H918 0.961 . S
C903 H919 0.961 . S
C904 C905 1.370 . S
C904 C906 1.363 . S
C904 H920 0.931 . S
C905 C904 1.370 . S
C905 C909 1.408 . S
C906 C904 1.363 . S
C906 C907 1.370 . S
C906 C910 1.524 . S
C907 C899 1.503 . S
C907 C906 1.370 . S
C907 C908 1.403 . S
C908 C907 1.403 . S
C908 C909 1.404 . S
C908 C911 1.539 . S
C909 C905 1.408 . S
C909 C908 1.404 . S
C909 H921 0.930 . S
C910 C906 1.524 . S
C910 H922 0.956 . S
C910 H923 0.961 . S
C910 H924 0.961 . S
C911 C908 1.539 . S
C911 H925 0.958 . S
C911 H926 0.961 . S
C911 H927 0.960 . S
H912 C896 0.931 . S
H913 C901 0.929 . S
H914 C902 0.960 . S
H915 C902 0.962 . S
H916 C902 0.960 . S
H917 C903 0.961 . S
H918 C903 0.961 . S
H919 C903 0.961 . S
H920 C904 0.931 . S
H921 C909 0.930 . S
H922 C910 0.956 . S
H923 C910 0.961 . S
H924 C910 0.961 . S
H925 C911 0.958 . S
H926 C911 0.961 . S
H927 C911 0.960 . S
C161 C19 1.811 . S
C169 C18 1.796 . S
C193 C39 1.780 . S
C201 C38 1.807 . S
C225 C59 1.802 . S
C233 C58 1.796 . S
C257 C79 1.777 . S
C265 C78 1.808 . S
C289 C99 1.789 . S
C297 C98 1.805 . S
C321 C118 1.799 . S
C329 C119 1.800 . S
C353 C139 1.777 . S
C361 C138 1.808 . S
C385 C158 1.813 . S
C393 C159 1.792 . S
C417 C21 1.772 . S
C425 C2 1.747 . S
C449 C62 1.786 . S
C457 C41 1.742 . S
C481 C82 1.775 1_556 S
C489 C101 1.746 . S
C513 C121 1.759 . S
C521 C142 1.752 . S
C545 C1 1.514 . S
C553 C102 1.524 . S
C577 C81 1.527 . S
C585 C22 1.518 . S
C609 C42 1.496 . S
C617 C141 1.530 . S
C641 C61 1.509 . S
C649 C122 1.523 . S
C673 C8 1.464 . S
C681 C68 1.487 . S
C705 C28 1.545 . S
C713 C48 1.551 . S
C737 C29 1.512 . S
C745 C49 1.503 . S
C769 C69 1.529 . S
C777 C9 1.564 . S
C801 C88 1.505 . S
C809 C148 1.493 . S
C833 C108 1.545 . S
C841 C128 1.551 . S
C865 C109 1.468 . S
C873 C129 1.485 . S
C897 C149 1.549 . S
C905 C89 1.550 . S
