# Generated by pormake.
# Topology xfz, (5)-cn, num edge types: 1
# Building blocks:
#     Node 0, Type 0, BuildingBlock: BEQFEK_clean_sbu_0, # of connection points: 5
#     Node 1, Type 0, BuildingBlock: BEQFEK_clean_sbu_0, # of connection points: 5
#     Node 2, Type 0, BuildingBlock: BEQFEK_clean_sbu_0, # of connection points: 5
#     Node 3, Type 0, BuildingBlock: BEQFEK_clean_sbu_0, # of connection points: 5
#     Node 4, Type 0, BuildingBlock: BEQFEK_clean_sbu_0, # of connection points: 5
#     Node 5, Type 0, BuildingBlock: BEQFEK_clean_sbu_0, # of connection points: 5
#     Node 6, Type 0, BuildingBlock: BEQFEK_clean_sbu_0, # of connection points: 5
#     Node 7, Type 0, BuildingBlock: BEQFEK_clean_sbu_0, # of connection points: 5
#     Node 8, Type 0, BuildingBlock: BEQFEK_clean_sbu_0, # of connection points: 5
#     Node 9, Type 0, BuildingBlock: BEQFEK_clean_sbu_0, # of connection points: 5
#     Node 10, Type 0, BuildingBlock: BEQFEK_clean_sbu_0, # of connection points: 5
#     Node 11, Type 0, BuildingBlock: BEQFEK_clean_sbu_0, # of connection points: 5
#     Node 12, Type 0, BuildingBlock: BEQFEK_clean_sbu_0, # of connection points: 5
#     Node 13, Type 0, BuildingBlock: BEQFEK_clean_sbu_0, # of connection points: 5
#     Node 14, Type 0, BuildingBlock: BEQFEK_clean_sbu_0, # of connection points: 5
#     Node 15, Type 0, BuildingBlock: BEQFEK_clean_sbu_0, # of connection points: 5
#     Edge 16, Type (0, 0), BuildingBlock: AJUNOK_clean_linker_0, # of connection points: 2
#     Edge 17, Type (0, 0), BuildingBlock: AJUNOK_clean_linker_0, # of connection points: 2
#     Edge 18, Type (0, 0), BuildingBlock: AJUNOK_clean_linker_0, # of connection points: 2
#     Edge 19, Type (0, 0), BuildingBlock: AJUNOK_clean_linker_0, # of connection points: 2
#     Edge 20, Type (0, 0), BuildingBlock: AJUNOK_clean_linker_0, # of connection points: 2
#     Edge 21, Type (0, 0), BuildingBlock: AJUNOK_clean_linker_0, # of connection points: 2
#     Edge 22, Type (0, 0), BuildingBlock: AJUNOK_clean_linker_0, # of connection points: 2
#     Edge 23, Type (0, 0), BuildingBlock: AJUNOK_clean_linker_0, # of connection points: 2
#     Edge 24, Type (0, 0), BuildingBlock: AJUNOK_clean_linker_0, # of connection points: 2
#     Edge 25, Type (0, 0), BuildingBlock: AJUNOK_clean_linker_0, # of connection points: 2
#     Edge 26, Type (0, 0), BuildingBlock: AJUNOK_clean_linker_0, # of connection points: 2
#     Edge 27, Type (0, 0), BuildingBlock: AJUNOK_clean_linker_0, # of connection points: 2
#     Edge 28, Type (0, 0), BuildingBlock: AJUNOK_clean_linker_0, # of connection points: 2
#     Edge 29, Type (0, 0), BuildingBlock: AJUNOK_clean_linker_0, # of connection points: 2
#     Edge 30, Type (0, 0), BuildingBlock: AJUNOK_clean_linker_0, # of connection points: 2
#     Edge 31, Type (0, 0), BuildingBlock: AJUNOK_clean_linker_0, # of connection points: 2
#     Edge 32, Type (0, 0), BuildingBlock: AJUNOK_clean_linker_0, # of connection points: 2
#     Edge 33, Type (0, 0), BuildingBlock: AJUNOK_clean_linker_0, # of connection points: 2
#     Edge 34, Type (0, 0), BuildingBlock: AJUNOK_clean_linker_0, # of connection points: 2
#     Edge 35, Type (0, 0), BuildingBlock: AJUNOK_clean_linker_0, # of connection points: 2
#     Edge 36, Type (0, 0), BuildingBlock: AJUNOK_clean_linker_0, # of connection points: 2
#     Edge 37, Type (0, 0), BuildingBlock: AJUNOK_clean_linker_0, # of connection points: 2
#     Edge 38, Type (0, 0), BuildingBlock: AJUNOK_clean_linker_0, # of connection points: 2
#     Edge 39, Type (0, 0), BuildingBlock: AJUNOK_clean_linker_0, # of connection points: 2
#     Edge 40, Type (0, 0), BuildingBlock: AJUNOK_clean_linker_0, # of connection points: 2
#     Edge 41, Type (0, 0), BuildingBlock: AJUNOK_clean_linker_0, # of connection points: 2
#     Edge 42, Type (0, 0), BuildingBlock: AJUNOK_clean_linker_0, # of connection points: 2
#     Edge 43, Type (0, 0), BuildingBlock: AJUNOK_clean_linker_0, # of connection points: 2
#     Edge 44, Type (0, 0), BuildingBlock: AJUNOK_clean_linker_0, # of connection points: 2
#     Edge 45, Type (0, 0), BuildingBlock: AJUNOK_clean_linker_0, # of connection points: 2
#     Edge 46, Type (0, 0), BuildingBlock: AJUNOK_clean_linker_0, # of connection points: 2
#     Edge 47, Type (0, 0), BuildingBlock: AJUNOK_clean_linker_0, # of connection points: 2
#     Edge 48, Type (0, 0), BuildingBlock: AJUNOK_clean_linker_0, # of connection points: 2
#     Edge 49, Type (0, 0), BuildingBlock: AJUNOK_clean_linker_0, # of connection points: 2
#     Edge 50, Type (0, 0), BuildingBlock: AJUNOK_clean_linker_0, # of connection points: 2
#     Edge 51, Type (0, 0), BuildingBlock: AJUNOK_clean_linker_0, # of connection points: 2
#     Edge 52, Type (0, 0), BuildingBlock: AJUNOK_clean_linker_0, # of connection points: 2
#     Edge 53, Type (0, 0), BuildingBlock: AJUNOK_clean_linker_0, # of connection points: 2
#     Edge 54, Type (0, 0), BuildingBlock: AJUNOK_clean_linker_0, # of connection points: 2
#     Edge 55, Type (0, 0), BuildingBlock: AJUNOK_clean_linker_0, # of connection points: 2
# Relax obj value: 0.409
# Max RMSD: 0.189
# Mean RMSD: 0.189
data_MOF--net-xfz--node1-BEQFEK_clean_sbu_0--edge1-AJUNOK_clean_linker_0
_symmetry_space_group_name_H-M    P1
_symmetry_Int_Tables_number       1
_symmetry_cell_setting            triclinic
loop_
_symmetry_equiv_pos_as_xyz
'x, y, z'
_cell_length_a     36.941157
_cell_length_b     37.000589
_cell_length_c     36.201578
_cell_angle_alpha  89.717586
_cell_angle_beta   89.751146
_cell_angle_gamma 89.951029
loop_
_atom_site_label
_atom_site_type_symbol
_atom_site_fract_x
_atom_site_fract_y
_atom_site_fract_z
_atom_type_partial_charge
Co0 Co 0.13737 0.48975 0.4017 0.0
Co1 Co 0.2078 0.46387 0.36284 0.0
C2 C 0.13786 0.42063 0.35878 0.0
O3 O 0.12195 0.44377 0.37895 0.0
O4 O 0.17127 0.42465 0.35051 0.0
C5 C 0.07915 0.48237 0.45157 0.0
O6 O 0.09138 0.44911 0.45429 0.0
C7 C 0.2703 0.41463 0.35442 0.0
C8 C 0.30785 0.447 0.32011 0.0
C9 C 0.30438 0.41394 0.33794 0.0
N10 N 0.25467 0.44681 0.34712 0.0
N11 N 0.27731 0.46597 0.32654 0.0
C12 C 0.25176 0.38453 0.37479 0.0
H13 H 0.22382 0.38131 0.36435 0.0
H14 H 0.2498 0.39141 0.40452 0.0
H15 H 0.26645 0.35856 0.3716 0.0
C16 C 0.18514 0.49671 0.46537 0.0
N17 N 0.17908 0.48584 0.43057 0.0
N18 N 0.20968 0.47552 0.41517 0.0
C19 C 0.23647 0.47939 0.44045 0.0
C20 C 0.22157 0.49282 0.47313 0.0
C21 C 0.15688 0.51333 0.48982 0.0
H22 H 0.14161 0.53411 0.47417 0.0
H23 H 0.13779 0.49205 0.49916 0.0
H24 H 0.1687 0.52616 0.51453 0.0
O25 O 0.1445 0.5268 0.36302 0.0
O26 O 0.19371 0.50863 0.33267 0.0
H27 H 0.28313 0.48577 0.40573 0.0
H28 H 0.29289 0.48489 0.45483 0.0
C29 C 0.27578 0.47336 0.43268 0.0
H30 H 0.28109 0.44393 0.43089 0.0
H31 H 0.2719 0.49201 0.31683 0.0
O32 O 0.0962 0.50501 0.43165 0.0
C33 C 0.1675 0.53094 0.33706 0.0
Co34 Co 0.49647 0.88502 0.68 0.0
Co35 Co 0.47055 0.8153 0.7199 0.0
C36 C 0.42584 0.88458 0.72116 0.0
O37 O 0.44916 0.90051 0.70091 0.0
O38 O 0.43045 0.85154 0.73046 0.0
C39 C 0.49392 0.94274 0.62774 0.0
O40 O 0.46 0.93299 0.62354 0.0
C41 C 0.4196 0.75508 0.73145 0.0
C42 C 0.45318 0.71421 0.75977 0.0
C43 C 0.41858 0.72031 0.74634 0.0
N44 N 0.45302 0.76881 0.73622 0.0
N45 N 0.4729 0.74425 0.75333 0.0
C46 C 0.39053 0.77405 0.71021 0.0
H47 H 0.40276 0.79154 0.68851 0.0
H48 H 0.37172 0.75438 0.69746 0.0
H49 H 0.375 0.7917 0.72925 0.0
C50 C 0.50447 0.83616 0.61681 0.0
N51 N 0.49404 0.84271 0.65181 0.0
N52 N 0.48309 0.81252 0.66759 0.0
C53 C 0.48577 0.78561 0.6423 0.0
C54 C 0.49955 0.79987 0.60932 0.0
C55 C 0.51986 0.86413 0.59111 0.0
H56 H 0.54111 0.87979 0.60543 0.0
H57 H 0.49797 0.88279 0.58249 0.0
H58 H 0.53177 0.85212 0.56588 0.0
O59 O 0.53226 0.87922 0.71979 0.0
O60 O 0.51466 0.83032 0.75089 0.0
H61 H 0.49097 0.73784 0.67533 0.0
H62 H 0.48484 0.72941 0.62641 0.0
C63 C 0.47688 0.7469 0.64992 0.0
H64 H 0.44734 0.74428 0.65482 0.0
H65 H 0.50009 0.74778 0.7601 0.0
O66 O 0.51392 0.92503 0.64974 0.0
C67 C 0.53649 0.85689 0.74623 0.0
Co68 Co 0.88329 0.51505 0.37148 0.0
Co69 Co 0.81476 0.55165 0.33967 0.0
C70 C 0.8853 0.58962 0.33482 0.0
O71 O 0.89953 0.56299 0.35179 0.0
O72 O 0.85151 0.58994 0.3278 0.0
C73 C 0.93517 0.51939 0.42637 0.0
O74 O 0.92065 0.55162 0.42979 0.0
C75 C 0.75332 0.6034 0.33323 0.0
C76 C 0.71037 0.56857 0.31085 0.0
C77 C 0.7169 0.60346 0.32305 0.0
N78 N 0.76719 0.57009 0.32758 0.0
N79 N 0.74132 0.54956 0.31392 0.0
C80 C 0.774 0.63355 0.35059 0.0
H81 H 0.79775 0.62286 0.3658 0.0
H82 H 0.75631 0.64913 0.36961 0.0
H83 H 0.78396 0.65208 0.32861 0.0
C84 C 0.83731 0.50276 0.43456 0.0
N85 N 0.84156 0.51565 0.40022 0.0
N86 N 0.81509 0.53774 0.3919 0.0
C87 C 0.79504 0.54261 0.42316 0.0
C88 C 0.80905 0.52085 0.45164 0.0
C89 C 0.85905 0.47212 0.45039 0.0
H90 H 0.86813 0.45385 0.42794 0.0
H91 H 0.88338 0.48223 0.46468 0.0
H92 H 0.84263 0.45673 0.47084 0.0
O93 O 0.87646 0.48306 0.33112 0.0
O94 O 0.82782 0.50803 0.30504 0.0
H95 H 0.74593 0.56618 0.40321 0.0
H96 H 0.75001 0.56569 0.4531 0.0
C97 C 0.76488 0.5693 0.42664 0.0
H98 H 0.77618 0.59703 0.42551 0.0
H99 H 0.74459 0.5223 0.30742 0.0
O100 O 0.9229 0.49796 0.40218 0.0
C101 C 0.85289 0.4838 0.30583 0.0
Co102 Co 0.53462 0.13989 0.68884 0.0
Co103 Co 0.55703 0.2102 0.72966 0.0
C104 C 0.60091 0.14071 0.73572 0.0
O105 O 0.57998 0.1249 0.71325 0.0
O106 O 0.59546 0.17366 0.74454 0.0
C107 C 0.54321 0.08412 0.6361 0.0
O108 O 0.57716 0.09467 0.63556 0.0
C109 C 0.60767 0.27066 0.73867 0.0
C110 C 0.57371 0.31313 0.76368 0.0
C111 C 0.60833 0.30642 0.75034 0.0
N112 N 0.57439 0.25696 0.74498 0.0
N113 N 0.55433 0.28245 0.76029 0.0
C114 C 0.6368 0.2508 0.71831 0.0
H115 H 0.62465 0.23122 0.69882 0.0
H116 H 0.65472 0.26985 0.70311 0.0
H117 H 0.65333 0.23535 0.73846 0.0
C118 C 0.52919 0.18881 0.62531 0.0
N119 N 0.53847 0.1822 0.66061 0.0
N120 N 0.54781 0.21255 0.67673 0.0
C121 C 0.54517 0.23964 0.65137 0.0
C122 C 0.5333 0.22526 0.61799 0.0
C123 C 0.51412 0.16106 0.59957 0.0
H124 H 0.5362 0.14277 0.5906 0.0
H125 H 0.50205 0.17333 0.57455 0.0
H126 H 0.49295 0.14506 0.61394 0.0
O127 O 0.49647 0.14542 0.7266 0.0
O128 O 0.51105 0.195 0.75794 0.0
H129 H 0.53613 0.28651 0.68451 0.0
H130 H 0.54305 0.29605 0.63581 0.0
C131 C 0.55145 0.2787 0.65937 0.0
H132 H 0.58064 0.28307 0.66474 0.0
H133 H 0.52707 0.2793 0.76726 0.0
O134 O 0.5207 0.09989 0.65715 0.0
C135 C 0.49023 0.16782 0.75242 0.0
Co136 Co 0.13732 0.53901 0.69114 0.0
Co137 Co 0.20863 0.56022 0.73096 0.0
C138 C 0.13918 0.60355 0.7403 0.0
O139 O 0.1229 0.58334 0.71755 0.0
O140 O 0.17254 0.59824 0.74768 0.0
C141 C 0.08166 0.55153 0.64016 0.0
O142 O 0.09622 0.58391 0.63898 0.0
C143 C 0.26996 0.60967 0.73962 0.0
C144 C 0.31103 0.57599 0.76742 0.0
C145 C 0.30526 0.6103 0.75292 0.0
N146 N 0.25565 0.57677 0.74622 0.0
N147 N 0.2803 0.55683 0.76309 0.0
C148 C 0.251 0.63842 0.71784 0.0
H149 H 0.23205 0.62598 0.69788 0.0
H150 H 0.27071 0.65589 0.70297 0.0
H151 H 0.23478 0.65537 0.73696 0.0
C152 C 0.18516 0.53372 0.62685 0.0
N153 N 0.17915 0.54331 0.66215 0.0
N154 N 0.20995 0.55183 0.67795 0.0
C155 C 0.23679 0.54821 0.65243 0.0
C156 C 0.22175 0.53673 0.61922 0.0
C157 C 0.15683 0.51863 0.60176 0.0
H158 H 0.13919 0.5409 0.59195 0.0
H159 H 0.16874 0.50527 0.57728 0.0
H160 H 0.1401 0.49856 0.6169 0.0
O161 O 0.14355 0.49992 0.72767 0.0
O162 O 0.19374 0.51412 0.7584 0.0
H163 H 0.29312 0.54303 0.637 0.0
H164 H 0.28198 0.58176 0.66501 0.0
C165 C 0.27618 0.55274 0.66034 0.0
H166 H 0.28327 0.53769 0.68588 0.0
H167 H 0.27645 0.52991 0.77087 0.0
O168 O 0.09595 0.52726 0.66027 0.0
C169 C 0.16649 0.4934 0.753 0.0
Co170 Co 0.53438 0.8847 0.3884 0.0
Co171 Co 0.55732 0.81441 0.34775 0.0
C172 C 0.60149 0.88364 0.34192 0.0
O173 O 0.58011 0.89946 0.36418 0.0
O174 O 0.59627 0.85066 0.33311 0.0
C175 C 0.54227 0.94056 0.44103 0.0
O176 O 0.57597 0.92931 0.44252 0.0
C177 C 0.60648 0.75217 0.33772 0.0
C178 C 0.57155 0.71234 0.31018 0.0
C179 C 0.60606 0.7169 0.32445 0.0
N180 N 0.57382 0.76743 0.33177 0.0
N181 N 0.55319 0.74348 0.31498 0.0
C182 C 0.63626 0.77024 0.35848 0.0
H183 H 0.62522 0.79227 0.37595 0.0
H184 H 0.65098 0.75035 0.37589 0.0
H185 H 0.65571 0.78221 0.33845 0.0
C186 C 0.52824 0.8359 0.45215 0.0
N187 N 0.53767 0.84237 0.41676 0.0
N188 N 0.5474 0.81201 0.40078 0.0
C189 C 0.54487 0.78505 0.42634 0.0
C190 C 0.53254 0.79949 0.45967 0.0
C191 C 0.51395 0.86395 0.47818 0.0
H192 H 0.49294 0.88043 0.46428 0.0
H193 H 0.53648 0.88175 0.48671 0.0
H194 H 0.502 0.85194 0.50349 0.0
O195 O 0.49668 0.8796 0.35053 0.0
O196 O 0.51184 0.83011 0.31923 0.0
H197 H 0.54336 0.72869 0.44213 0.0
H198 H 0.58167 0.74224 0.41418 0.0
C199 C 0.55221 0.74608 0.4187 0.0
H200 H 0.53799 0.73786 0.39317 0.0
H201 H 0.5263 0.74809 0.30762 0.0
O202 O 0.52012 0.92485 0.41978 0.0
C203 C 0.49091 0.85729 0.32458 0.0
Co204 Co 0.8835 0.51361 0.69595 0.0
Co205 Co 0.8147 0.4741 0.72203 0.0
C206 C 0.88525 0.43545 0.72388 0.0
O207 O 0.89981 0.46376 0.7103 0.0
O208 O 0.85135 0.4348 0.73064 0.0
C209 C 0.93544 0.51684 0.63979 0.0
O210 O 0.92063 0.48588 0.63068 0.0
C211 C 0.75485 0.42046 0.72991 0.0
C212 C 0.70968 0.45532 0.74797 0.0
C213 C 0.7183 0.4197 0.73998 0.0
N214 N 0.76699 0.45479 0.73229 0.0
N215 N 0.73976 0.47537 0.74319 0.0
C216 C 0.77732 0.3899 0.71553 0.0
H217 H 0.79738 0.40003 0.69508 0.0
H218 H 0.76008 0.36893 0.70264 0.0
H219 H 0.79257 0.37758 0.73874 0.0
C220 C 0.83921 0.53287 0.63436 0.0
N221 N 0.84236 0.51591 0.66684 0.0
N222 N 0.8167 0.49194 0.6711 0.0
C223 C 0.79875 0.48981 0.63842 0.0
C224 C 0.81329 0.51533 0.61335 0.0
C225 C 0.85451 0.57 0.6277 0.0
H226 H 0.85203 0.58615 0.65336 0.0
H227 H 0.88369 0.56861 0.62098 0.0
H228 H 0.84008 0.5841 0.60496 0.0
O229 O 0.87566 0.54216 0.73869 0.0
O230 O 0.82536 0.51598 0.75994 0.0
H231 H 0.74318 0.47748 0.62891 0.0
H232 H 0.77459 0.44959 0.60395 0.0
C233 C 0.76948 0.46308 0.63078 0.0
H234 H 0.76776 0.4426 0.65311 0.0
H235 H 0.74166 0.50322 0.74711 0.0
O236 O 0.92335 0.53397 0.66753 0.0
C237 C 0.85033 0.54016 0.76226 0.0
Co238 Co 0.49507 0.13879 0.39949 0.0
Co239 Co 0.46963 0.20858 0.3595 0.0
C240 C 0.42521 0.13914 0.35801 0.0
O241 O 0.448 0.12312 0.37862 0.0
O242 O 0.43016 0.1721 0.34872 0.0
C243 C 0.4922 0.08143 0.45225 0.0
O244 O 0.45803 0.09066 0.45598 0.0
C245 C 0.41897 0.26941 0.35114 0.0
C246 C 0.45055 0.30886 0.31837 0.0
C247 C 0.4174 0.30389 0.33576 0.0
N248 N 0.4517 0.25501 0.34369 0.0
N249 N 0.47039 0.27873 0.32398 0.0
C250 C 0.38928 0.24925 0.37055 0.0
H251 H 0.38329 0.22415 0.35515 0.0
H252 H 0.39846 0.24115 0.39854 0.0
H253 H 0.36406 0.26537 0.37253 0.0
C254 C 0.50295 0.18789 0.46238 0.0
N255 N 0.49247 0.18121 0.42753 0.0
N256 N 0.48181 0.21141 0.41165 0.0
C257 C 0.48476 0.23847 0.4367 0.0
C258 C 0.49839 0.22429 0.46961 0.0
C259 C 0.51825 0.15998 0.48809 0.0
H260 H 0.53945 0.14415 0.47366 0.0
H261 H 0.4963 0.14147 0.49703 0.0
H262 H 0.53027 0.17206 0.5131 0.0
O263 O 0.53106 0.14454 0.35948 0.0
O264 O 0.51392 0.19372 0.3286 0.0
H265 H 0.48899 0.28549 0.40225 0.0
H266 H 0.48659 0.29497 0.45134 0.0
C267 C 0.47651 0.27731 0.42892 0.0
H268 H 0.4468 0.28081 0.42657 0.0
H269 H 0.49676 0.27444 0.31452 0.0
O270 O 0.51228 0.09895 0.43003 0.0
C271 C 0.53553 0.16691 0.33305 0.0
Co272 Co 0.63822 0.99042 0.89122 0.0
Co273 Co 0.70971 0.96774 0.85292 0.0
C274 C 0.64006 0.92504 0.84274 0.0
O275 O 0.62355 0.94603 0.86477 0.0
O276 O 0.67373 0.9296 0.836 0.0
C277 C 0.58114 0.97899 0.94085 0.0
O278 O 0.59518 0.94639 0.94239 0.0
C279 C 0.77185 0.91874 0.84564 0.0
C280 C 0.81234 0.95237 0.81666 0.0
C281 C 0.80731 0.91845 0.83244 0.0
N282 N 0.75696 0.95121 0.83821 0.0
N283 N 0.78127 0.97109 0.82062 0.0
C284 C 0.75309 0.88988 0.86754 0.0
H285 H 0.73078 0.90167 0.88424 0.0
H286 H 0.77253 0.87565 0.88584 0.0
H287 H 0.74126 0.86991 0.84829 0.0
C288 C 0.68434 0.99512 0.95669 0.0
N289 N 0.67912 0.9856 0.92126 0.0
N290 N 0.71019 0.97657 0.90604 0.0
C291 C 0.73641 0.97989 0.93205 0.0
C292 C 0.72069 0.9917 0.96502 0.0
C293 C 0.65541 1.01001 0.9815 0.0
H294 H 0.63958 0.03087 0.96655 0.0
H295 H 0.63703 0.98782 0.99003 0.0
H296 H 0.66663 0.02225 1.00683 0.0
O297 O 0.64574 0.02957 0.85481 0.0
O298 O 0.69606 0.01383 0.82482 0.0
H299 H 0.78378 0.98889 0.89901 0.0
H300 H 0.79242 0.98489 0.94818 0.0
C301 C 0.77593 0.9747 0.92488 0.0
H302 H 0.78153 0.94548 0.92123 0.0
H303 H 0.77689 0.99768 0.81198 0.0
O304 O 0.59648 1.00304 0.92122 0.0
C305 C 0.66925 0.03535 0.82965 0.0
Co306 Co 0.01456 0.38311 0.19703 0.0
Co307 Co 0.97479 0.31432 0.22243 0.0
C308 C 0.93587 0.38457 0.22366 0.0
O309 O 0.96434 0.39923 0.21048 0.0
O310 O 0.93526 0.35074 0.23046 0.0
C311 C 0.01914 0.43481 0.14077 0.0
O312 O 0.98908 0.41912 0.13012 0.0
C313 C 0.92137 0.25437 0.22894 0.0
C314 C 0.95596 0.20941 0.24816 0.0
C315 C 0.92063 0.218 0.23894 0.0
N316 N 0.95566 0.26654 0.23186 0.0
N317 N 0.97612 0.23942 0.24332 0.0
C318 C 0.88977 0.27799 0.21961 0.0
H319 H 0.8852 0.29725 0.24256 0.0
H320 H 0.89593 0.29414 0.19446 0.0
H321 H 0.86467 0.26211 0.21556 0.0
C322 C 0.03443 0.33901 0.13541 0.0
N323 N 0.01736 0.3421 0.16784 0.0
N324 N 0.9932 0.3166 0.17187 0.0
C325 C 0.99105 0.29882 0.13915 0.0
C326 C 0.01681 0.31324 0.11428 0.0
C327 C 0.07166 0.35424 0.12889 0.0
H328 H 0.08784 0.35145 0.15453 0.0
H329 H 0.07039 0.38345 0.12245 0.0
H330 H 0.08575 0.33999 0.10604 0.0
O331 O 0.04237 0.37519 0.24031 0.0
O332 O 0.01606 0.32479 0.26099 0.0
H333 H 0.97764 0.24348 0.13025 0.0
H334 H 0.95106 0.27505 0.10397 0.0
C335 C 0.9638 0.27009 0.13125 0.0
H336 H 0.94268 0.26924 0.15303 0.0
H337 H 1.00389 0.24145 0.24803 0.0
O338 O 0.0354 0.42305 0.16924 0.0
C339 C 0.0401 0.34983 0.26377 0.0
Co340 Co 0.38375 0.01604 0.87442 0.0
Co341 Co 0.31322 0.05157 0.84668 0.0
C342 C 0.38386 0.09038 0.83806 0.0
O343 O 0.39932 0.06422 0.85467 0.0
O344 O 0.34972 0.08997 0.83282 0.0
C345 C 0.43634 0.01635 0.92953 0.0
O346 O 0.4216 0.04777 0.93721 0.0
C347 C 0.2518 0.10383 0.83982 0.0
C348 C 0.20707 0.06736 0.82494 0.0
C349 C 0.21473 0.10328 0.8325 0.0
N350 N 0.26503 0.06989 0.83695 0.0
N351 N 0.23804 0.04837 0.8278 0.0
C352 C 0.27387 0.13548 0.85191 0.0
H353 H 0.29761 0.12629 0.86812 0.0
H354 H 0.25724 0.1543 0.86869 0.0
H355 H 0.28389 0.1502 0.82712 0.0
C356 C 0.34054 1.00105 0.93905 0.0
N357 N 0.34361 0.01604 0.90548 0.0
N358 N 0.31596 0.03716 0.8988 0.0
C359 C 0.29621 0.03943 0.93062 0.0
C360 C 0.3116 0.01664 0.95768 0.0
C361 C 0.3621 0.96866 0.95113 0.0
H362 H 0.37091 0.95287 0.92669 0.0
H363 H 0.38657 0.97701 0.96635 0.0
H364 H 0.34566 0.95118 0.96973 0.0
O365 O 0.37492 0.98403 0.83436 0.0
O366 O 0.32404 1.00755 0.81167 0.0
H367 H 0.23933 0.04921 0.93031 0.0
H368 H 0.2638 0.07481 0.96428 0.0
C369 C 0.26471 0.0643 0.93563 0.0
H370 H 0.26638 0.08717 0.91588 0.0
H371 H 0.24064 0.02052 0.82416 0.0
O372 O 0.42435 0.99793 0.90277 0.0
C373 C 0.34956 0.9838 0.81095 0.0
Co374 Co 0.04073 0.63572 0.18899 0.0
Co375 Co 0.06162 0.70644 0.23007 0.0
C376 C 0.10469 0.6367 0.23901 0.0
O377 O 0.08467 0.62095 0.21572 0.0
O378 O 0.09918 0.66977 0.24724 0.0
C379 C 0.05449 0.5805 0.13798 0.0
O380 O 0.08724 0.59429 0.13866 0.0
C381 C 0.1102 0.76916 0.23875 0.0
C382 C 0.07756 0.80626 0.27279 0.0
C383 C 0.11095 0.8031 0.25532 0.0
N384 N 0.07805 0.75335 0.24608 0.0
N385 N 0.05869 0.77576 0.26647 0.0
C386 C 0.13997 0.75124 0.21744 0.0
H387 H 0.1667 0.7579 0.22952 0.0
H388 H 0.13613 0.72155 0.21704 0.0
H389 H 0.13957 0.76107 0.18846 0.0
C390 C 0.03626 0.68405 0.12533 0.0
N391 N 0.04572 0.67774 0.16062 0.0
N392 N 0.05369 0.70838 0.17691 0.0
C393 C 0.04951 0.73549 0.1518 0.0
C394 C 0.03868 0.72072 0.11821 0.0
C395 C 0.02093 0.656 0.10009 0.0
H396 H 1.00039 0.63968 0.11506 0.0
H397 H 0.04301 0.63798 0.09056 0.0
H398 H 1.00793 0.66809 0.07548 0.0
O399 O 1.00103 0.64166 0.22512 0.0
O400 O 0.01503 0.69139 0.2566 0.0
H401 H 0.03815 0.7803 0.18726 0.0
H402 H 0.03981 0.79162 0.13844 0.0
C403 C 0.05201 0.77482 0.16063 0.0
H404 H 0.08087 0.7824 0.16354 0.0
H405 H 0.03257 0.77028 0.27604 0.0
O406 O 0.02959 0.59482 0.15726 0.0
C407 C 0.99426 0.6643 0.25064 0.0
Co408 Co 0.6386 0.03415 0.18702 0.0
Co409 Co 0.70988 0.0575 0.22504 0.0
C410 C 0.63926 0.0993 0.23533 0.0
O411 O 0.62322 0.07854 0.21291 0.0
O412 O 0.67269 0.09447 0.24274 0.0
C413 C 0.58163 0.04439 0.13736 0.0
O414 O 0.59523 0.07715 0.13543 0.0
C415 C 0.7714 0.10797 0.23113 0.0
C416 C 0.81195 0.07567 0.26135 0.0
C417 C 0.80663 0.10907 0.24465 0.0
N418 N 0.757 0.0753 0.23892 0.0
N419 N 0.78142 0.0562 0.25711 0.0
C420 C 0.75089 0.13792 0.21274 0.0
H421 H 0.7224 0.13799 0.22233 0.0
H422 H 0.75069 0.13341 0.18247 0.0
H423 H 0.76327 0.16461 0.21854 0.0
C424 C 0.68485 0.03016 0.12128 0.0
N425 N 0.67946 0.03951 0.15677 0.0
N426 N 0.7104 0.04878 0.17183 0.0
C427 C 0.73672 0.04565 0.14565 0.0
C428 C 0.72116 0.03397 0.11271 0.0
C429 C 0.65631 0.01449 0.09677 0.0
H430 H 0.64073 0.99361 0.11206 0.0
H431 H 0.63766 0.03629 0.08789 0.0
H432 H 0.6679 1.00199 0.07164 0.0
O433 O 0.64669 0.99537 0.22374 0.0
O434 O 0.69717 1.01099 0.25308 0.0
H435 H 0.78373 0.0366 0.17885 0.0
H436 H 0.7928 0.03963 0.12962 0.0
C437 C 0.77625 0.05045 0.15274 0.0
H438 H 0.7822 0.07963 0.15583 0.0
H439 H 0.77735 0.02977 0.26641 0.0
O440 O 0.59712 0.02077 0.15733 0.0
C441 C 0.67035 0.98949 0.24854 0.0
Co442 Co 0.01569 0.38324 0.87274 0.0
Co443 Co 0.05266 0.31488 0.84095 0.0
C444 C 0.09074 0.38528 0.83676 0.0
O445 O 0.06391 0.39943 0.8535 0.0
O446 O 0.0911 0.35158 0.82957 0.0
C447 C 0.01939 0.4352 0.92763 0.0
O448 O 0.05177 0.42098 0.9313 0.0
C449 C 0.10449 0.2533 0.8348 0.0
C450 C 0.0686 0.20968 0.81573 0.0
C451 C 0.10391 0.21654 0.82652 0.0
N452 N 0.07106 0.26719 0.82945 0.0
N453 N 0.04992 0.2409 0.8177 0.0
C454 C 0.1354 0.2742 0.85048 0.0
H455 H 0.12542 0.29848 0.86522 0.0
H456 H 0.15145 0.25698 0.86954 0.0
H457 H 0.15337 0.28316 0.82758 0.0
C458 C 1.00342 0.33712 0.93573 0.0
N459 N 0.01622 0.34151 0.90138 0.0
N460 N 0.03847 0.31521 0.89301 0.0
C461 C 0.04352 0.29514 0.92419 0.0
C462 C 0.0217 0.30893 0.9527 0.0
C463 C 0.97285 0.35883 0.95179 0.0
H464 H 0.95448 0.36807 0.92946 0.0
H465 H 0.98312 0.38299 0.96619 0.0
H466 H 0.95749 0.34236 0.97221 0.0
O467 O 0.98394 0.37644 0.83211 0.0
O468 O 1.0091 0.32797 0.80604 0.0
H469 H 0.06633 0.24548 0.90506 0.0
H470 H 0.06823 0.25134 0.95469 0.0
C471 C 0.07053 0.26525 0.92755 0.0
H472 H 0.09818 0.27653 0.92452 0.0
H473 H 0.02242 0.24404 0.81206 0.0
O474 O 0.99818 0.42272 0.90332 0.0
C475 C 0.9848 0.35298 0.80677 0.0
Co476 Co 0.38429 1.0092 0.20234 0.0
Co477 Co 0.31431 0.97322 0.23104 0.0
C478 C 0.38521 0.9349 0.23884 0.0
O479 O 0.40043 0.96123 0.2222 0.0
O480 O 0.35106 0.935 0.24422 0.0
C481 C 0.43665 1.00776 0.14695 0.0
O482 O 0.42183 0.97617 0.14044 0.0
C483 C 0.25474 0.91992 0.23981 0.0
C484 C 0.20964 0.95442 0.2588 0.0
C485 C 0.21848 0.91897 0.25046 0.0
N486 N 0.26662 0.95434 0.24177 0.0
N487 N 0.23941 0.97476 0.25305 0.0
C488 C 0.27868 0.88853 0.23069 0.0
H489 H 0.29547 0.882 0.25519 0.0
H490 H 0.29734 0.8959 0.20777 0.0
H491 H 0.26288 0.86419 0.22333 0.0
C492 C 0.34078 0.02351 0.13813 0.0
N493 N 0.34403 1.00879 0.17178 0.0
N494 N 0.31654 0.98757 0.17892 0.0
C495 C 0.29671 0.98499 0.14737 0.0
C496 C 0.31187 1.00767 0.11996 0.0
C497 C 0.36228 0.05575 0.12546 0.0
H498 H 0.37103 0.07186 0.14962 0.0
H499 H 0.3868 0.04719 0.1102 0.0
H500 H 0.34585 0.073 0.10674 0.0
O501 O 0.37537 0.0413 0.24247 0.0
O502 O 0.32503 0.01704 0.266 0.0
H503 H 0.23987 0.97508 0.1478 0.0
H504 H 0.26478 0.94882 0.1145 0.0
C505 C 0.26536 0.95993 0.14291 0.0
H506 H 0.2669 0.93751 0.16321 0.0
H507 H 0.2412 1.00262 0.257 0.0
O508 O 0.4247 0.02706 0.1732 0.0
C509 C 0.35022 0.04108 0.26637 0.0
Co510 Co 0.99008 0.63686 0.90075 0.0
Co511 Co 0.96518 0.70743 0.86183 0.0
C512 C 0.92098 0.63841 0.85714 0.0
O513 O 0.94404 0.62232 0.87731 0.0
O514 O 0.92513 0.67183 0.84909 0.0
C515 C 0.98161 0.57887 0.95098 0.0
O516 O 0.94835 0.59127 0.9535 0.0
C517 C 0.91711 0.77042 0.85182 0.0
C518 C 0.9526 0.8092 0.8227 0.0
C519 C 0.91805 0.8054 0.83744 0.0
N520 N 0.9495 0.75462 0.84599 0.0
N521 N 0.97049 0.77793 0.82834 0.0
C522 C 0.88704 0.75294 0.87314 0.0
H523 H 0.89786 0.73137 0.89145 0.0
H524 H 0.87214 0.77327 0.88977 0.0
H525 H 0.86785 0.74039 0.8535 0.0
C526 C 0.99759 0.68436 0.96446 0.0
N527 N 0.98664 0.67846 0.92964 0.0
N528 N 0.97629 0.70906 0.91435 0.0
C529 C 0.9799 0.73564 0.93984 0.0
C530 C 0.99354 0.72067 0.97242 0.0
C531 C 0.01421 0.65603 0.98878 0.0
H532 H 0.03444 0.6403 0.97286 0.0
H533 H 0.99275 0.63742 0.99873 0.0
H534 H 0.0278 0.6678 1.01308 0.0
O535 O 0.02779 0.64359 0.8628 0.0
O536 O 1.01031 0.69283 0.83218 0.0
H537 H 0.98182 0.79177 0.95594 0.0
H538 H 0.94346 0.77891 0.92812 0.0
C539 C 0.97287 0.77479 0.9325 0.0
H540 H 0.98721 0.78325 0.9069 0.0
H541 H 0.99725 0.77271 0.82068 0.0
O542 O 1.00441 0.59552 0.93088 0.0
C543 C 0.03251 0.66661 0.83701 0.0
C544 C 0.97925 0.47318 0.44724 0.0
C545 C 0.9686 0.50967 0.44597 0.0
C546 C 0.01509 0.46369 0.45464 0.0
C547 C 0.04125 0.49052 0.46049 0.0
H548 H 0.96057 0.45202 0.4394 0.0
H549 H 0.02295 0.43564 0.45155 0.0
S550 S 0.02486 0.58873 0.47097 0.0
N551 N 0.98505 0.57189 0.45964 0.0
N552 N 0.05281 0.55392 0.473 0.0
C553 C 0.02983 0.52647 0.46474 0.0
C554 C 0.99324 0.53614 0.45758 0.0
C555 C 0.55696 0.021 0.61882 0.0
C556 C 0.53242 0.04992 0.61908 0.0
C557 C 0.54442 0.98548 0.61663 0.0
C558 C 0.50708 0.97809 0.61458 0.0
H559 H 0.5854 0.02542 0.62446 0.0
H560 H 0.56375 0.96372 0.62033 0.0
S561 S 0.43382 0.04538 0.60136 0.0
N562 N 0.47073 0.06972 0.60748 0.0
N563 N 0.447 1.00275 0.60321 0.0
C564 C 0.48315 1.00698 0.60846 0.0
C565 C 0.49593 0.04314 0.61088 0.0
C566 C 0.99717 0.50026 0.61972 0.0
C567 C 0.97091 0.52718 0.62499 0.0
C568 C 0.03394 0.50904 0.6202 0.0
C569 C 0.04524 0.54495 0.6255 0.0
H570 H 0.98961 0.47198 0.61948 0.0
H571 H 0.05354 0.48722 0.6199 0.0
S572 S 0.98624 0.62595 0.62935 0.0
N573 N 0.95796 0.59148 0.62746 0.0
N574 N 0.02726 0.60823 0.62771 0.0
C575 C 0.01912 0.57254 0.62488 0.0
C576 C 0.98171 0.56353 0.62486 0.0
C577 C 0.49365 0.98156 0.46258 0.0
C578 C 0.53091 0.97453 0.45851 0.0
C579 C 0.48089 0.01692 0.46608 0.0
C580 C 0.50513 0.04608 0.46523 0.0
H581 H 0.47404 0.96002 0.45955 0.0
H582 H 0.45194 0.02148 0.46506 0.0
S583 S 0.60531 0.041 0.4673 0.0
N584 N 0.59199 0.99863 0.46307 0.0
N585 N 0.56788 0.06535 0.46955 0.0
C586 C 0.54244 0.03893 0.46732 0.0
C587 C 0.55546 1.0029 0.46396 0.0
C588 C 0.5328 0.02195 0.9582 0.0
C589 C 0.54395 0.98591 0.95333 0.0
C590 C 0.49635 0.03148 0.95513 0.0
C591 C 0.47037 1.00518 0.94678 0.0
H592 H 0.55266 0.04334 0.96068 0.0
H593 H 0.48925 0.0599 0.95519 0.0
S594 S 0.48437 0.90612 0.94276 0.0
N595 N 0.5253 0.92302 0.94854 0.0
N596 N 0.45661 0.94111 0.9424 0.0
C597 C 0.48044 0.96859 0.94757 0.0
C598 C 0.51748 0.95883 0.95107 0.0
C599 C 0.06633 0.48112 0.13038 0.0
C600 C 0.03031 0.46991 0.12549 0.0
C601 C 0.07539 0.51774 0.12929 0.0
C602 C 0.04849 0.54399 0.12376 0.0
H603 H 0.08694 0.46183 0.13853 0.0
H604 H 0.10259 0.52552 0.13701 0.0
S605 S 0.95275 0.52789 0.09885 0.0
N606 N 0.96953 0.48717 0.10653 0.0
N607 N 0.98659 0.55632 0.1051 0.0
C608 C 1.01369 0.53282 0.11343 0.0
C609 C 1.00454 0.4955 0.11408 0.0
C610 C 0.49736 0.99108 0.12389 0.0
C611 C 0.47107 0.01784 0.12965 0.0
C612 C 0.5339 1.00043 0.12142 0.0
C613 C 0.54485 0.03672 0.12437 0.0
H614 H 0.49027 0.9627 0.12552 0.0
H615 H 0.55381 0.9789 0.12096 0.0
S616 S 0.48475 0.11695 0.12695 0.0
N617 N 0.45705 0.082 0.12904 0.0
N618 N 0.52593 0.09979 0.12387 0.0
C619 C 0.51828 0.06387 0.12379 0.0
C620 C 0.48113 0.0543 0.12671 0.0
C621 C 0.96298 0.51493 0.95473 0.0
C622 C 0.98971 0.54119 0.9606 0.0
C623 C 0.9727 0.47912 0.94777 0.0
C624 C 1.0093 0.46861 0.94698 0.0
H625 H 0.93491 0.52268 0.95121 0.0
H626 H 0.95166 0.46033 0.93984 0.0
S627 S 0.088 0.52529 0.97239 0.0
N628 N 0.05301 0.55306 0.97378 0.0
N629 N 0.07141 0.48538 0.96124 0.0
C630 C 0.03559 0.49339 0.9587 0.0
C631 C 0.02569 0.52994 0.96543 0.0
C632 C 0.34899 0.37454 0.305 0.0
C633 C 0.33205 0.38479 0.33823 0.0
C634 C 0.37623 0.34803 0.30447 0.0
C635 C 0.38757 0.33078 0.33714 0.0
H636 H 0.34105 0.38708 0.27917 0.0
H637 H 0.38848 0.34091 0.27825 0.0
S638 S 0.35557 0.35159 0.43194 0.0
N639 N 0.331 0.37804 0.40502 0.0
N640 N 0.38224 0.32837 0.40403 0.0
C641 C 0.37157 0.34148 0.37068 0.0
C642 C 0.34379 0.36843 0.37122 0.0
C643 C 0.36854 0.63079 0.73955 0.0
C644 C 0.33291 0.63948 0.75022 0.0
C645 C 0.39575 0.65725 0.73789 0.0
C646 C 0.3885 0.69352 0.74681 0.0
H647 H 0.37547 0.60325 0.73232 0.0
H648 H 0.42275 0.6492 0.72948 0.0
S649 S 0.30088 0.72952 0.78106 0.0
N650 N 0.29265 0.68643 0.77289 0.0
N651 N 0.34374 0.73609 0.76977 0.0
C652 C 0.35317 0.7025 0.75822 0.0
C653 C 0.32541 0.6755 0.75992 0.0
C654 C 0.67117 0.69645 0.31834 0.0
C655 C 0.6347 0.68847 0.32645 0.0
C656 C 0.69785 0.66917 0.31791 0.0
C657 C 0.68915 0.63283 0.32581 0.0
H658 H 0.67901 0.72375 0.31099 0.0
H659 H 0.72515 0.67653 0.31008 0.0
S660 S 0.59803 0.59823 0.35142 0.0
N661 N 0.5917 0.64185 0.34418 0.0
N662 N 0.64149 0.59092 0.34377 0.0
C663 C 0.65287 0.62475 0.33468 0.0
C664 C 0.6258 0.65242 0.33492 0.0
C665 C 0.65624 0.39505 0.7289 0.0
C666 C 0.69196 0.3891 0.74099 0.0
C667 C 0.62969 0.36801 0.73161 0.0
C668 C 0.6377 0.33372 0.74636 0.0
H669 H 0.64861 0.42102 0.71736 0.0
H670 H 0.60258 0.37404 0.72206 0.0
S671 S 0.72574 0.30516 0.78576 0.0
N672 N 0.73295 0.34691 0.77116 0.0
N673 N 0.68327 0.29589 0.77536 0.0
C674 C 0.67315 0.32732 0.75882 0.0
C675 C 0.70021 0.35503 0.75637 0.0
C676 C 0.85301 0.82569 0.83168 0.0
C677 C 0.88963 0.83404 0.83812 0.0
C678 C 0.82638 0.8529 0.8304 0.0
C679 C 0.83531 0.88954 0.8355 0.0
H680 H 0.84493 0.7981 0.8264 0.0
H681 H 0.79883 0.8452 0.82419 0.0
S682 S 0.92698 0.92556 0.85493 0.0
N683 N 0.93313 0.88157 0.85076 0.0
N684 N 0.88332 0.93247 0.84836 0.0
C685 C 0.87177 0.89815 0.84226 0.0
C686 C 0.89881 0.87052 0.84356 0.0
C687 C 0.85496 0.14653 0.27392 0.0
C688 C 0.83391 0.13867 0.24265 0.0
C689 C 0.88234 0.17285 0.27266 0.0
C690 C 0.88964 0.1925 0.24014 0.0
H691 H 0.85035 0.13206 0.2996 0.0
H692 H 0.8981 0.17773 0.29731 0.0
S693 S 0.84569 0.17928 0.14939 0.0
N694 N 0.82473 0.15056 0.17721 0.0
N695 N 0.8756 0.20051 0.17519 0.0
C696 C 0.86922 0.18467 0.20853 0.0
C697 C 0.8415 0.15764 0.20969 0.0
C698 C 0.16874 0.19537 0.8189 0.0
C699 C 0.13295 0.18871 0.83072 0.0
C700 C 0.19543 0.16808 0.82028 0.0
C701 C 0.1874 0.13314 0.83373 0.0
H702 H 0.17591 0.22139 0.80723 0.0
H703 H 0.22211 0.17411 0.80948 0.0
S704 S 0.0986 0.10287 0.87105 0.0
N705 N 0.0916 0.14517 0.85825 0.0
N706 N 0.1414 0.09433 0.86113 0.0
C707 C 0.15194 0.12658 0.84651 0.0
C708 C 0.12488 0.15419 0.84496 0.0
C709 C 0.1876 0.86516 0.22229 0.0
C710 C 0.19326 0.88772 0.2529 0.0
C711 C 0.1615 0.83744 0.22333 0.0
C712 C 0.14016 0.83107 0.2551 0.0
H713 H 0.20249 0.8698 0.19688 0.0
H714 H 0.15719 0.82196 0.1985 0.0
S715 S 0.14539 0.88219 0.34294 0.0
N716 N 0.17583 0.90167 0.31591 0.0
N717 N 0.12732 0.84952 0.3182 0.0
C718 C 0.14591 0.85337 0.28595 0.0
C719 C 0.17228 0.88164 0.28477 0.0
C720 C 0.14851 0.59457 0.32341 0.0
C721 C 0.16082 0.56089 0.31031 0.0
C722 C 0.13374 0.6207 0.29945 0.0
C723 C 0.12972 0.61381 0.26147 0.0
H724 H 0.14862 0.60006 0.35279 0.0
H725 H 0.12276 0.64521 0.31131 0.0
S726 S 0.16066 0.53117 0.21269 0.0
N727 N 0.17092 0.52343 0.2564 0.0
N728 N 0.14228 0.57188 0.21146 0.0
C729 C 0.14402 0.58113 0.24769 0.0
C730 C 0.15978 0.55486 0.27205 0.0
C731 C 0.55838 0.87054 0.81039 0.0
C732 C 0.56617 0.8647 0.77282 0.0
C733 C 0.58356 0.88774 0.83367 0.0
C734 C 0.61781 0.8992 0.82052 0.0
H735 H 0.53169 0.86436 0.82118 0.0
H736 H 0.57535 0.8938 0.86173 0.0
S737 S 0.65271 0.8861 0.72518 0.0
N738 N 0.61145 0.869 0.72426 0.0
N739 N 0.65897 0.9001 0.76792 0.0
C740 C 0.62685 0.89078 0.78371 0.0
C741 C 0.60097 0.87396 0.75991 0.0
C742 C 0.85972 0.42084 0.28399 0.0
C743 C 0.85948 0.458 0.27538 0.0
C744 C 0.88186 0.39638 0.26457 0.0
C745 C 0.90535 0.40829 0.23624 0.0
H746 H 0.84541 0.41117 0.3083 0.0
H747 H 0.88297 0.36864 0.27421 0.0
S748 S 0.91035 0.50198 0.19908 0.0
N749 N 0.88095 0.50462 0.23348 0.0
N750 N 0.92267 0.4591 0.19698 0.0
C751 C 0.90252 0.44476 0.22492 0.0
C752 C 0.87956 0.46948 0.24446 0.0
C753 C 0.44208 0.12575 0.83424 0.0
C754 C 0.40725 0.11854 0.82014 0.0
C755 C 0.46787 0.14564 0.81376 0.0
C756 C 0.46006 0.15864 0.7781 0.0
H757 H 0.45019 0.11426 0.86052 0.0
H758 H 0.49501 0.14826 0.82466 0.0
S759 S 0.37242 0.15004 0.72946 0.0
N760 N 0.36568 0.12905 0.76927 0.0
N761 N 0.41449 0.16508 0.73054 0.0
C762 C 0.42482 0.15353 0.76459 0.0
C763 C 0.39831 0.13396 0.78569 0.0
C764 C 0.15178 0.42849 0.76452 0.0
C765 C 0.15768 0.46333 0.7787 0.0
C766 C 0.13313 0.402 0.78512 0.0
C767 C 0.11856 0.40977 0.82023 0.0
H768 H 0.15974 0.42236 0.73639 0.0
H769 H 0.12754 0.37631 0.77212 0.0
S770 S 0.12906 0.49617 0.87084 0.0
N771 N 0.15008 0.50328 0.83109 0.0
N772 N 0.11411 0.45413 0.86943 0.0
C773 C 0.12621 0.44387 0.83556 0.0
C774 C 0.14595 0.4705 0.81488 0.0
C775 C 0.46979 0.88076 0.2635 0.0
C776 C 0.46126 0.8666 0.29859 0.0
C777 C 0.44415 0.90068 0.24303 0.0
C778 C 0.40878 0.90683 0.25659 0.0
H779 H 0.49727 0.87895 0.2531 0.0
H780 H 0.45275 0.913 0.21724 0.0
S781 S 0.3721 0.87209 0.34559 0.0
N782 N 0.41452 0.85794 0.34497 0.0
N783 N 0.36603 0.89406 0.30627 0.0
C784 C 0.39922 0.8903 0.29042 0.0
C785 C 0.42555 0.87065 0.3115 0.0
C786 C 0.86926 0.55472 0.82626 0.0
C787 C 0.85309 0.56618 0.79316 0.0
C788 C 0.88838 0.57911 0.84872 0.0
C789 C 0.89234 0.61597 0.83887 0.0
H790 H 0.87039 0.52616 0.83292 0.0
H791 H 0.90249 0.56826 0.87249 0.0
S792 S 0.84959 0.66035 0.75783 0.0
N793 N 0.83825 0.61737 0.75402 0.0
N794 N 0.87354 0.66326 0.79612 0.0
C795 C 0.87292 0.62833 0.80786 0.0
C796 C 0.85355 0.60343 0.78505 0.0
C797 C 0.59866 0.14606 0.31907 0.0
C798 C 0.56502 0.15877 0.30606 0.0
C799 C 0.62416 0.12996 0.29524 0.0
C800 C 0.61667 0.1249 0.25751 0.0
H801 H 0.6046 0.14696 0.34833 0.0
H802 H 0.64869 0.11891 0.3071 0.0
S803 S 0.5339 0.15621 0.20895 0.0
N804 N 0.527 0.16799 0.25237 0.0
N805 N 0.57417 0.13678 0.20776 0.0
C806 C 0.58399 0.13939 0.24377 0.0
C807 C 0.55839 0.15656 0.26795 0.0
C808 C 0.63339 0.12501 0.7944 0.0
C809 C 0.62739 0.1181 0.75669 0.0
C810 C 0.64979 0.09906 0.81744 0.0
C811 C 0.66187 0.06562 0.80356 0.0
H812 H 0.62269 0.14933 0.80692 0.0
H813 H 0.6512 0.10438 0.84681 0.0
S814 S 0.657 0.03609 0.70604 0.0
N815 N 0.63797 0.07651 0.70593 0.0
N816 N 0.66968 0.02843 0.74909 0.0
C817 C 0.65894 0.05967 0.7654 0.0
C818 C 0.6415 0.08573 0.74202 0.0
C819 C 0.07819 0.38869 0.35007 0.0
C820 C 0.11528 0.39202 0.34072 0.0
C821 C 0.05389 0.36946 0.32762 0.0
C822 C 0.06567 0.35255 0.29506 0.0
H823 H 0.06715 0.40338 0.37336 0.0
H824 H 0.0252 0.37109 0.33377 0.0
S825 S 0.16043 0.34715 0.26138 0.0
N826 N 0.16306 0.3718 0.29918 0.0
N827 N 0.1173 0.33629 0.25709 0.0
C828 C 0.10307 0.35236 0.28756 0.0
C829 C 0.1279 0.37186 0.31035 0.0
C830 C 0.39108 0.9431 0.72681 0.0
C831 C 0.39605 0.90678 0.73808 0.0
C832 C 0.37042 0.96754 0.74795 0.0
C833 C 0.35377 0.95672 0.78118 0.0
H834 H 0.40548 0.95357 0.70293 0.0
H835 H 0.37071 0.99588 0.74024 0.0
S836 S 0.3526 0.86377 0.81989 0.0
N837 N 0.37767 0.86036 0.78219 0.0
N838 N 0.3397 0.90647 0.82194 0.0
C839 C 0.35535 0.91984 0.7907 0.0
C840 C 0.37619 0.89483 0.76916 0.0
C841 C 0.9293 0.64849 0.26125 0.0
C842 C 0.96382 0.65537 0.27594 0.0
C843 C 0.90258 0.63026 0.28198 0.0
C844 C 0.90982 0.61709 0.31778 0.0
H845 H 0.9236 0.65543 0.23275 0.0
H846 H 0.87718 0.62389 0.26868 0.0
S847 S 0.99516 0.63037 0.36976 0.0
N848 N 1.00283 0.65011 0.32944 0.0
N849 N 0.95329 0.61483 0.36799 0.0
C850 C 0.94357 0.62563 0.33349 0.0
C851 C 0.97041 0.64499 0.31268 0.0
C852 C 0.65143 0.92557 0.26058 0.0
C853 C 0.66309 0.95906 0.27457 0.0
C854 C 0.63486 0.8995 0.2835 0.0
C855 C 0.62824 0.90632 0.32117 0.0
H856 H 0.65327 0.92031 0.23122 0.0
H857 H 0.62448 0.87516 0.27086 0.0
S858 S 0.6565 0.98846 0.37209 0.0
N859 N 0.66979 0.99622 0.32914 0.0
N860 N 0.63778 0.94793 0.37203 0.0
C861 C 0.64193 0.93876 0.33596 0.0
C862 C 0.65954 0.96493 0.31273 0.0
C863 C 0.92175 0.35975 0.78472 0.0
C864 C 0.95901 0.3596 0.77624 0.0
C865 C 0.89723 0.38175 0.76516 0.0
C866 C 0.90914 0.40519 0.7368 0.0
H867 H 0.91205 0.34544 0.809 0.0
H868 H 0.8694 0.38274 0.77465 0.0
S869 S 1.00312 0.41055 0.70008 0.0
N870 N 1.00576 0.38123 0.73454 0.0
N871 N 0.96014 0.42265 0.69777 0.0
C872 C 0.94574 0.4025 0.72567 0.0
C873 C 0.97053 0.3797 0.74536 0.0
C874 C 0.37029 0.0566 0.3297 0.0
C875 C 0.35436 0.06785 0.29638 0.0
C876 C 0.39055 0.08075 0.35136 0.0
C877 C 0.39578 0.11716 0.34052 0.0
H878 H 0.37032 0.02819 0.33712 0.0
H879 H 0.40444 0.07 0.3753 0.0
S880 S 0.35416 0.16111 0.25855 0.0
N881 N 0.34122 0.1185 0.25593 0.0
N882 N 0.37844 0.16407 0.29661 0.0
C883 C 0.37662 0.12948 0.30928 0.0
C884 C 0.3562 0.10478 0.28723 0.0
C885 C 0.0571 0.6572 0.77295 0.0
C886 C 0.06323 0.66013 0.81113 0.0
C887 C 0.08318 0.64144 0.74944 0.0
C888 C 0.11666 0.62869 0.76307 0.0
H889 H 0.03096 0.66444 0.76165 0.0
H890 H 0.07619 0.63735 0.72073 0.0
S891 S 0.14745 0.63474 0.86032 0.0
N892 N 0.10628 0.65215 0.86095 0.0
N893 N 0.15551 0.62369 0.81692 0.0
C894 C 0.12417 0.63445 0.80068 0.0
C895 C 0.09738 0.64978 0.82465 0.0
C896 C 0.24108 0.48956 0.57441 0.0
C897 C 0.23896 0.52644 0.58363 0.0
C898 C 0.24081 0.47837 0.53729 0.0
C899 C 0.23884 0.50373 0.50832 0.0
H900 H 0.23853 0.46923 0.5959 0.0
H901 H 0.23807 0.44982 0.53144 0.0
S902 S 0.23909 0.60331 0.51786 0.0
N903 N 0.23962 0.58812 0.56086 0.0
N904 N 0.23993 0.56716 0.49124 0.0
C905 C 0.24133 0.54057 0.51721 0.0
C906 C 0.24118 0.55193 0.55491 0.0
C907 C 0.48878 0.7802 0.50856 0.0
C908 C 0.52492 0.78226 0.4961 0.0
C909 C 0.48035 0.78055 0.54655 0.0
C910 C 0.5078 0.78256 0.57324 0.0
H911 H 0.46688 0.78276 0.48892 0.0
H912 H 0.45228 0.78335 0.55485 0.0
S913 S 0.60652 0.78192 0.55503 0.0
N914 N 0.58818 0.78139 0.51348 0.0
N915 N 0.57241 0.78125 0.5847 0.0
C916 C 0.54392 0.77992 0.56114 0.0
C917 C 0.55248 0.77997 0.52255 0.0
C918 C 0.77605 0.51603 0.51356 0.0
C919 C 0.80694 0.52545 0.49264 0.0
C920 C 0.77758 0.51327 0.55265 0.0
C921 C 0.81047 0.51805 0.57187 0.0
H922 H 0.75092 0.50988 0.49965 0.0
H923 H 0.75302 0.5069 0.56768 0.0
S924 S 0.89928 0.54143 0.52866 0.0
N925 N 0.87007 0.54322 0.49447 0.0
N926 N 0.87535 0.52871 0.56492 0.0
C927 C 0.84151 0.52639 0.55052 0.0
C928 C 0.83905 0.53268 0.51183 0.0
C929 C 0.54292 0.24383 0.51697 0.0
C930 C 0.50661 0.24183 0.50545 0.0
C931 C 0.55185 0.24409 0.55472 0.0
C932 C 0.52475 0.2428 0.58207 0.0
H933 H 0.56453 0.24074 0.49689 0.0
H934 H 0.58 0.24109 0.56244 0.0
S935 S 0.42581 0.24402 0.56614 0.0
N936 N 0.44359 0.24367 0.52418 0.0
N937 N 0.46032 0.24491 0.59501 0.0
C938 C 0.48849 0.24562 0.57077 0.0
C939 C 0.47941 0.24494 0.5324 0.0
C940 C 0.73858 0.03866 1.0107 0.0
C941 C 0.73719 1.00187 1.00094 0.0
C942 C 0.73863 0.04938 0.04799 0.0
C943 C 0.73775 0.02368 0.07672 0.0
H944 H 0.73545 0.05923 0.98955 0.0
H945 H 0.73548 0.07781 0.05428 0.0
S946 S 0.73954 0.92423 0.06572 0.0
N947 N 0.7392 0.93996 1.02292 0.0
N948 N 0.74009 0.96003 0.09282 0.0
C949 C 0.74063 0.98698 0.06721 0.0
C950 C 0.74015 0.97608 1.02931 0.0
C951 C 0.01716 0.27603 1.01461 0.0
C952 C 0.02659 0.30684 0.99364 0.0
C953 C 0.0146 0.27759 0.05369 0.0
C954 C 0.01961 0.31041 0.07284 0.0
H955 H 1.01082 0.25097 1.00075 0.0
H956 H 1.00815 0.25311 0.06877 0.0
S957 S 0.04327 0.39895 1.02946 0.0
N958 N 0.04466 0.36979 0.99527 0.0
N959 N 0.0307 0.37512 0.06583 0.0
C960 C 0.02808 0.34135 0.05145 0.0
C961 C 0.03411 0.33887 1.01274 0.0
C962 C 0.34011 1.00906 0.05762 0.0
C963 C 0.30802 1.00824 0.07859 0.0
C964 C 0.34005 0.01488 1.01968 0.0
C965 C 0.30789 0.01578 0.9991 0.0
H966 H 0.36619 1.00555 0.07059 0.0
H967 H 0.36608 0.01842 1.00641 0.0
S968 S 0.21535 1.0119 1.03941 0.0
N969 N 0.24223 1.00972 0.07577 0.0
N970 N 0.24211 0.01414 1.00272 0.0
C971 C 0.27505 0.01349 1.01911 0.0
C972 C 0.27512 1.01045 0.05898 0.0
C973 C 0.04093 0.74013 1.01684 0.0
C974 C 1.00395 0.73771 1.00791 0.0
C975 C 0.05242 0.74013 0.05386 0.0
C976 C 0.0273 0.73818 0.08308 0.0
H977 H 0.06116 0.73766 0.99524 0.0
H978 H 0.08109 0.73757 0.05951 0.0
S979 S 0.92748 0.73754 0.07427 0.0
N980 N 0.94234 0.73801 1.03115 0.0
N981 N 0.96387 0.73881 0.1006 0.0
C982 C 0.9903 0.74034 0.07443 0.0
C983 C 0.97862 0.73989 1.03679 0.0
loop_
_geom_bond_atom_site_label_1
_geom_bond_atom_site_label_2
_geom_bond_distance
_geom_bond_site_symmetry_2
_ccdc_geom_bond_type
Co0 O3 1.970 . S
Co0 N17 1.989 . S
Co0 O25 1.967 . S
Co0 O32 1.920 . S
Co1 O4 1.966 . S
Co1 N10 2.022 . S
Co1 N18 1.993 . S
Co1 O26 1.941 . S
C2 O3 1.258 . S
C2 O4 1.263 . S
O3 Co0 1.970 . S
O3 C2 1.258 . S
O4 Co1 1.966 . S
O4 C2 1.263 . S
C5 O6 1.235 . S
C5 O32 1.289 . S
O6 C5 1.235 . S
C7 C9 1.400 . S
C7 N10 1.351 . S
C7 C12 1.501 . S
C8 C9 1.387 . S
C8 N11 1.341 . S
C9 C7 1.400 . S
C9 C8 1.387 . S
N10 Co1 2.022 . S
N10 C7 1.351 . S
N10 N11 1.365 . S
N11 C8 1.341 . S
N11 N10 1.365 . S
N11 H31 0.862 . S
C12 C7 1.501 . S
C12 H13 0.961 . S
C12 H14 0.961 . S
C12 H15 0.960 . S
H13 C12 0.961 . S
H14 C12 0.961 . S
H15 C12 0.960 . S
C16 N17 1.342 . S
C16 C20 1.401 . S
C16 C21 1.499 . S
N17 Co0 1.989 . S
N17 C16 1.342 . S
N17 N18 1.388 . S
N18 Co1 1.993 . S
N18 N17 1.388 . S
N18 C19 1.346 . S
C19 N18 1.346 . S
C19 C20 1.396 . S
C19 C29 1.510 . S
C20 C16 1.401 . S
C20 C19 1.396 . S
C21 C16 1.499 . S
C21 H22 0.959 . S
C21 H23 0.960 . S
C21 H24 0.961 . S
H22 C21 0.959 . S
H23 C21 0.960 . S
H24 C21 0.961 . S
O25 Co0 1.967 . S
O25 C33 1.258 . S
O26 Co1 1.941 . S
O26 C33 1.266 . S
H27 C29 0.959 . S
H28 C29 0.961 . S
C29 C19 1.510 . S
C29 H27 0.959 . S
C29 H28 0.961 . S
C29 H30 0.960 . S
H30 C29 0.960 . S
H31 N11 0.862 . S
O32 Co0 1.920 . S
O32 C5 1.289 . S
C33 O25 1.258 . S
C33 O26 1.266 . S
Co34 O37 1.970 . S
Co34 N51 1.989 . S
Co34 O59 1.967 . S
Co34 O66 1.920 . S
Co35 O38 1.966 . S
Co35 N44 2.022 . S
Co35 N52 1.993 . S
Co35 O60 1.941 . S
C36 O37 1.258 . S
C36 O38 1.263 . S
O37 Co34 1.970 . S
O37 C36 1.258 . S
O38 Co35 1.966 . S
O38 C36 1.263 . S
C39 O40 1.235 . S
C39 O66 1.289 . S
O40 C39 1.235 . S
C41 C43 1.400 . S
C41 N44 1.351 . S
C41 C46 1.501 . S
C42 C43 1.387 . S
C42 N45 1.341 . S
C43 C41 1.400 . S
C43 C42 1.387 . S
N44 Co35 2.022 . S
N44 C41 1.351 . S
N44 N45 1.365 . S
N45 C42 1.341 . S
N45 N44 1.365 . S
N45 H65 0.862 . S
C46 C41 1.501 . S
C46 H47 0.961 . S
C46 H48 0.961 . S
C46 H49 0.960 . S
H47 C46 0.961 . S
H48 C46 0.961 . S
H49 C46 0.960 . S
C50 N51 1.342 . S
C50 C54 1.401 . S
C50 C55 1.499 . S
N51 Co34 1.989 . S
N51 C50 1.342 . S
N51 N52 1.388 . S
N52 Co35 1.993 . S
N52 N51 1.388 . S
N52 C53 1.346 . S
C53 N52 1.346 . S
C53 C54 1.396 . S
C53 C63 1.510 . S
C54 C50 1.401 . S
C54 C53 1.396 . S
C55 C50 1.499 . S
C55 H56 0.959 . S
C55 H57 0.960 . S
C55 H58 0.961 . S
H56 C55 0.959 . S
H57 C55 0.960 . S
H58 C55 0.961 . S
O59 Co34 1.967 . S
O59 C67 1.258 . S
O60 Co35 1.941 . S
O60 C67 1.266 . S
H61 C63 0.959 . S
H62 C63 0.961 . S
C63 C53 1.510 . S
C63 H61 0.959 . S
C63 H62 0.961 . S
C63 H64 0.960 . S
H64 C63 0.960 . S
H65 N45 0.862 . S
O66 Co34 1.920 . S
O66 C39 1.289 . S
C67 O59 1.258 . S
C67 O60 1.266 . S
Co68 O71 1.970 . S
Co68 N85 1.989 . S
Co68 O93 1.967 . S
Co68 O100 1.920 . S
Co69 O72 1.966 . S
Co69 N78 2.022 . S
Co69 N86 1.993 . S
Co69 O94 1.941 . S
C70 O71 1.258 . S
C70 O72 1.263 . S
O71 Co68 1.970 . S
O71 C70 1.258 . S
O72 Co69 1.966 . S
O72 C70 1.263 . S
C73 O74 1.235 . S
C73 O100 1.289 . S
O74 C73 1.235 . S
C75 C77 1.400 . S
C75 N78 1.351 . S
C75 C80 1.501 . S
C76 C77 1.387 . S
C76 N79 1.341 . S
C77 C75 1.400 . S
C77 C76 1.387 . S
N78 Co69 2.022 . S
N78 C75 1.351 . S
N78 N79 1.365 . S
N79 C76 1.341 . S
N79 N78 1.365 . S
N79 H99 0.862 . S
C80 C75 1.501 . S
C80 H81 0.961 . S
C80 H82 0.961 . S
C80 H83 0.960 . S
H81 C80 0.961 . S
H82 C80 0.961 . S
H83 C80 0.960 . S
C84 N85 1.342 . S
C84 C88 1.401 . S
C84 C89 1.499 . S
N85 Co68 1.989 . S
N85 C84 1.342 . S
N85 N86 1.388 . S
N86 Co69 1.993 . S
N86 N85 1.388 . S
N86 C87 1.346 . S
C87 N86 1.346 . S
C87 C88 1.396 . S
C87 C97 1.510 . S
C88 C84 1.401 . S
C88 C87 1.396 . S
C89 C84 1.499 . S
C89 H90 0.959 . S
C89 H91 0.960 . S
C89 H92 0.961 . S
H90 C89 0.959 . S
H91 C89 0.960 . S
H92 C89 0.961 . S
O93 Co68 1.967 . S
O93 C101 1.258 . S
O94 Co69 1.941 . S
O94 C101 1.266 . S
H95 C97 0.959 . S
H96 C97 0.961 . S
C97 C87 1.510 . S
C97 H95 0.959 . S
C97 H96 0.961 . S
C97 H98 0.960 . S
H98 C97 0.960 . S
H99 N79 0.862 . S
O100 Co68 1.920 . S
O100 C73 1.289 . S
C101 O93 1.258 . S
C101 O94 1.266 . S
Co102 O105 1.970 . S
Co102 N119 1.989 . S
Co102 O127 1.967 . S
Co102 O134 1.920 . S
Co103 O106 1.966 . S
Co103 N112 2.022 . S
Co103 N120 1.993 . S
Co103 O128 1.941 . S
C104 O105 1.258 . S
C104 O106 1.263 . S
O105 Co102 1.970 . S
O105 C104 1.258 . S
O106 Co103 1.966 . S
O106 C104 1.263 . S
C107 O108 1.235 . S
C107 O134 1.289 . S
O108 C107 1.235 . S
C109 C111 1.400 . S
C109 N112 1.351 . S
C109 C114 1.501 . S
C110 C111 1.387 . S
C110 N113 1.341 . S
C111 C109 1.400 . S
C111 C110 1.387 . S
N112 Co103 2.022 . S
N112 C109 1.351 . S
N112 N113 1.365 . S
N113 C110 1.341 . S
N113 N112 1.365 . S
N113 H133 0.862 . S
C114 C109 1.501 . S
C114 H115 0.961 . S
C114 H116 0.961 . S
C114 H117 0.960 . S
H115 C114 0.961 . S
H116 C114 0.961 . S
H117 C114 0.960 . S
C118 N119 1.342 . S
C118 C122 1.401 . S
C118 C123 1.499 . S
N119 Co102 1.989 . S
N119 C118 1.342 . S
N119 N120 1.388 . S
N120 Co103 1.993 . S
N120 N119 1.388 . S
N120 C121 1.346 . S
C121 N120 1.346 . S
C121 C122 1.396 . S
C121 C131 1.510 . S
C122 C118 1.401 . S
C122 C121 1.396 . S
C123 C118 1.499 . S
C123 H124 0.959 . S
C123 H125 0.960 . S
C123 H126 0.961 . S
H124 C123 0.959 . S
H125 C123 0.960 . S
H126 C123 0.961 . S
O127 Co102 1.967 . S
O127 C135 1.258 . S
O128 Co103 1.941 . S
O128 C135 1.266 . S
H129 C131 0.959 . S
H130 C131 0.961 . S
C131 C121 1.510 . S
C131 H129 0.959 . S
C131 H130 0.961 . S
C131 H132 0.960 . S
H132 C131 0.960 . S
H133 N113 0.862 . S
O134 Co102 1.920 . S
O134 C107 1.289 . S
C135 O127 1.258 . S
C135 O128 1.266 . S
Co136 O139 1.970 . S
Co136 N153 1.989 . S
Co136 O161 1.967 . S
Co136 O168 1.920 . S
Co137 O140 1.966 . S
Co137 N146 2.022 . S
Co137 N154 1.993 . S
Co137 O162 1.941 . S
C138 O139 1.258 . S
C138 O140 1.263 . S
O139 Co136 1.970 . S
O139 C138 1.258 . S
O140 Co137 1.966 . S
O140 C138 1.263 . S
C141 O142 1.235 . S
C141 O168 1.289 . S
O142 C141 1.235 . S
C143 C145 1.400 . S
C143 N146 1.351 . S
C143 C148 1.501 . S
C144 C145 1.387 . S
C144 N147 1.341 . S
C145 C143 1.400 . S
C145 C144 1.387 . S
N146 Co137 2.022 . S
N146 C143 1.351 . S
N146 N147 1.365 . S
N147 C144 1.341 . S
N147 N146 1.365 . S
N147 H167 0.862 . S
C148 C143 1.501 . S
C148 H149 0.961 . S
C148 H150 0.961 . S
C148 H151 0.960 . S
H149 C148 0.961 . S
H150 C148 0.961 . S
H151 C148 0.960 . S
C152 N153 1.342 . S
C152 C156 1.401 . S
C152 C157 1.499 . S
N153 Co136 1.989 . S
N153 C152 1.342 . S
N153 N154 1.388 . S
N154 Co137 1.993 . S
N154 N153 1.388 . S
N154 C155 1.346 . S
C155 N154 1.346 . S
C155 C156 1.396 . S
C155 C165 1.510 . S
C156 C152 1.401 . S
C156 C155 1.396 . S
C157 C152 1.499 . S
C157 H158 0.959 . S
C157 H159 0.960 . S
C157 H160 0.961 . S
H158 C157 0.959 . S
H159 C157 0.960 . S
H160 C157 0.961 . S
O161 Co136 1.967 . S
O161 C169 1.258 . S
O162 Co137 1.941 . S
O162 C169 1.266 . S
H163 C165 0.959 . S
H164 C165 0.961 . S
C165 C155 1.510 . S
C165 H163 0.959 . S
C165 H164 0.961 . S
C165 H166 0.960 . S
H166 C165 0.960 . S
H167 N147 0.862 . S
O168 Co136 1.920 . S
O168 C141 1.289 . S
C169 O161 1.258 . S
C169 O162 1.266 . S
Co170 O173 1.970 . S
Co170 N187 1.989 . S
Co170 O195 1.967 . S
Co170 O202 1.920 . S
Co171 O174 1.966 . S
Co171 N180 2.022 . S
Co171 N188 1.993 . S
Co171 O196 1.941 . S
C172 O173 1.258 . S
C172 O174 1.263 . S
O173 Co170 1.970 . S
O173 C172 1.258 . S
O174 Co171 1.966 . S
O174 C172 1.263 . S
C175 O176 1.235 . S
C175 O202 1.289 . S
O176 C175 1.235 . S
C177 C179 1.400 . S
C177 N180 1.351 . S
C177 C182 1.501 . S
C178 C179 1.387 . S
C178 N181 1.341 . S
C179 C177 1.400 . S
C179 C178 1.387 . S
N180 Co171 2.022 . S
N180 C177 1.351 . S
N180 N181 1.365 . S
N181 C178 1.341 . S
N181 N180 1.365 . S
N181 H201 0.862 . S
C182 C177 1.501 . S
C182 H183 0.961 . S
C182 H184 0.961 . S
C182 H185 0.960 . S
H183 C182 0.961 . S
H184 C182 0.961 . S
H185 C182 0.960 . S
C186 N187 1.342 . S
C186 C190 1.401 . S
C186 C191 1.499 . S
N187 Co170 1.989 . S
N187 C186 1.342 . S
N187 N188 1.388 . S
N188 Co171 1.993 . S
N188 N187 1.388 . S
N188 C189 1.346 . S
C189 N188 1.346 . S
C189 C190 1.396 . S
C189 C199 1.510 . S
C190 C186 1.401 . S
C190 C189 1.396 . S
C191 C186 1.499 . S
C191 H192 0.959 . S
C191 H193 0.960 . S
C191 H194 0.961 . S
H192 C191 0.959 . S
H193 C191 0.960 . S
H194 C191 0.961 . S
O195 Co170 1.967 . S
O195 C203 1.258 . S
O196 Co171 1.941 . S
O196 C203 1.266 . S
H197 C199 0.959 . S
H198 C199 0.961 . S
C199 C189 1.510 . S
C199 H197 0.959 . S
C199 H198 0.961 . S
C199 H200 0.960 . S
H200 C199 0.960 . S
H201 N181 0.862 . S
O202 Co170 1.920 . S
O202 C175 1.289 . S
C203 O195 1.258 . S
C203 O196 1.266 . S
Co204 O207 1.970 . S
Co204 N221 1.989 . S
Co204 O229 1.967 . S
Co204 O236 1.920 . S
Co205 O208 1.966 . S
Co205 N214 2.022 . S
Co205 N222 1.993 . S
Co205 O230 1.941 . S
C206 O207 1.258 . S
C206 O208 1.263 . S
O207 Co204 1.970 . S
O207 C206 1.258 . S
O208 Co205 1.966 . S
O208 C206 1.263 . S
C209 O210 1.235 . S
C209 O236 1.289 . S
O210 C209 1.235 . S
C211 C213 1.400 . S
C211 N214 1.351 . S
C211 C216 1.501 . S
C212 C213 1.387 . S
C212 N215 1.341 . S
C213 C211 1.400 . S
C213 C212 1.387 . S
N214 Co205 2.022 . S
N214 C211 1.351 . S
N214 N215 1.365 . S
N215 C212 1.341 . S
N215 N214 1.365 . S
N215 H235 0.862 . S
C216 C211 1.501 . S
C216 H217 0.961 . S
C216 H218 0.961 . S
C216 H219 0.960 . S
H217 C216 0.961 . S
H218 C216 0.961 . S
H219 C216 0.960 . S
C220 N221 1.342 . S
C220 C224 1.401 . S
C220 C225 1.499 . S
N221 Co204 1.989 . S
N221 C220 1.342 . S
N221 N222 1.388 . S
N222 Co205 1.993 . S
N222 N221 1.388 . S
N222 C223 1.346 . S
C223 N222 1.346 . S
C223 C224 1.396 . S
C223 C233 1.510 . S
C224 C220 1.401 . S
C224 C223 1.396 . S
C225 C220 1.499 . S
C225 H226 0.959 . S
C225 H227 0.960 . S
C225 H228 0.961 . S
H226 C225 0.959 . S
H227 C225 0.960 . S
H228 C225 0.961 . S
O229 Co204 1.967 . S
O229 C237 1.258 . S
O230 Co205 1.941 . S
O230 C237 1.266 . S
H231 C233 0.959 . S
H232 C233 0.961 . S
C233 C223 1.510 . S
C233 H231 0.959 . S
C233 H232 0.961 . S
C233 H234 0.960 . S
H234 C233 0.960 . S
H235 N215 0.862 . S
O236 Co204 1.920 . S
O236 C209 1.289 . S
C237 O229 1.258 . S
C237 O230 1.266 . S
Co238 O241 1.970 . S
Co238 N255 1.989 . S
Co238 O263 1.967 . S
Co238 O270 1.920 . S
Co239 O242 1.966 . S
Co239 N248 2.022 . S
Co239 N256 1.993 . S
Co239 O264 1.941 . S
C240 O241 1.258 . S
C240 O242 1.263 . S
O241 Co238 1.970 . S
O241 C240 1.258 . S
O242 Co239 1.966 . S
O242 C240 1.263 . S
C243 O244 1.235 . S
C243 O270 1.289 . S
O244 C243 1.235 . S
C245 C247 1.400 . S
C245 N248 1.351 . S
C245 C250 1.501 . S
C246 C247 1.387 . S
C246 N249 1.341 . S
C247 C245 1.400 . S
C247 C246 1.387 . S
N248 Co239 2.022 . S
N248 C245 1.351 . S
N248 N249 1.365 . S
N249 C246 1.341 . S
N249 N248 1.365 . S
N249 H269 0.862 . S
C250 C245 1.501 . S
C250 H251 0.961 . S
C250 H252 0.961 . S
C250 H253 0.960 . S
H251 C250 0.961 . S
H252 C250 0.961 . S
H253 C250 0.960 . S
C254 N255 1.342 . S
C254 C258 1.401 . S
C254 C259 1.499 . S
N255 Co238 1.989 . S
N255 C254 1.342 . S
N255 N256 1.388 . S
N256 Co239 1.993 . S
N256 N255 1.388 . S
N256 C257 1.346 . S
C257 N256 1.346 . S
C257 C258 1.396 . S
C257 C267 1.510 . S
C258 C254 1.401 . S
C258 C257 1.396 . S
C259 C254 1.499 . S
C259 H260 0.959 . S
C259 H261 0.960 . S
C259 H262 0.961 . S
H260 C259 0.959 . S
H261 C259 0.960 . S
H262 C259 0.961 . S
O263 Co238 1.967 . S
O263 C271 1.258 . S
O264 Co239 1.941 . S
O264 C271 1.266 . S
H265 C267 0.959 . S
H266 C267 0.961 . S
C267 C257 1.510 . S
C267 H265 0.959 . S
C267 H266 0.961 . S
C267 H268 0.960 . S
H268 C267 0.960 . S
H269 N249 0.862 . S
O270 Co238 1.920 . S
O270 C243 1.289 . S
C271 O263 1.258 . S
C271 O264 1.266 . S
Co272 O275 1.970 . S
Co272 N289 1.989 . S
Co272 O297 1.967 1_565 S
Co272 O304 1.920 1_565 S
Co273 O276 1.966 . S
Co273 N282 2.022 . S
Co273 N290 1.993 . S
Co273 O298 1.957 . S
C274 O275 1.258 . S
C274 O276 1.263 . S
O275 Co272 1.970 . S
O275 C274 1.258 . S
O276 Co273 1.966 . S
O276 C274 1.263 . S
C277 O278 1.235 . S
C277 O304 1.289 1_565 S
O278 C277 1.235 . S
C279 C281 1.400 . S
C279 N282 1.351 . S
C279 C284 1.501 . S
C280 C281 1.387 . S
C280 N283 1.341 . S
C281 C279 1.400 . S
C281 C280 1.387 . S
N282 Co273 2.022 . S
N282 C279 1.351 . S
N282 N283 1.365 . S
N283 C280 1.341 . S
N283 N282 1.365 . S
N283 H303 0.862 . S
C284 C279 1.501 . S
C284 H285 0.961 . S
C284 H286 0.961 . S
C284 H287 0.960 . S
H285 C284 0.961 . S
H286 C284 0.961 . S
H287 C284 0.960 . S
C288 N289 1.342 . S
C288 C292 1.401 . S
C288 C293 1.499 1_565 S
N289 Co272 1.989 . S
N289 C288 1.342 . S
N289 N290 1.388 . S
N290 Co273 1.993 . S
N290 N289 1.388 . S
N290 C291 1.346 . S
C291 N290 1.346 . S
C291 C292 1.396 . S
C291 C301 1.510 . S
C292 C288 1.401 . S
C292 C291 1.396 . S
C293 C288 1.499 1_545 S
C293 H294 0.959 . S
C293 H295 0.960 1_545 S
C293 H296 0.961 . S
H294 C293 0.959 . S
H295 C293 0.960 1_565 S
H296 C293 0.961 . S
O297 Co272 1.967 1_545 S
O297 C305 1.258 . S
O298 Co273 1.957 . S
O298 C305 1.255 1_565 S
H299 C301 0.959 . S
H300 C301 0.961 . S
C301 C291 1.510 . S
C301 H299 0.959 . S
C301 H300 0.961 . S
C301 H302 0.960 . S
H302 C301 0.960 . S
H303 N283 0.862 . S
O304 Co272 1.920 1_545 S
O304 C277 1.289 1_545 S
C305 O297 1.258 . S
C305 O298 1.255 1_545 S
Co306 O309 1.970 . S
Co306 N323 1.989 . S
Co306 O331 1.967 1_655 S
Co306 O338 1.920 1_655 S
Co307 O310 1.966 . S
Co307 N316 2.022 . S
Co307 N324 1.993 . S
Co307 O332 1.957 . S
C308 O309 1.258 . S
C308 O310 1.263 . S
O309 Co306 1.970 . S
O309 C308 1.258 . S
O310 Co307 1.966 . S
O310 C308 1.263 . S
C311 O312 1.235 . S
C311 O338 1.289 1_655 S
O312 C311 1.235 . S
C313 C315 1.400 . S
C313 N316 1.351 . S
C313 C318 1.501 . S
C314 C315 1.387 . S
C314 N317 1.341 . S
C315 C313 1.400 . S
C315 C314 1.387 . S
N316 Co307 2.022 . S
N316 C313 1.351 . S
N316 N317 1.365 . S
N317 C314 1.341 . S
N317 N316 1.365 . S
N317 H337 0.862 . S
C318 C313 1.501 . S
C318 H319 0.961 . S
C318 H320 0.961 . S
C318 H321 0.960 . S
H319 C318 0.961 . S
H320 C318 0.961 . S
H321 C318 0.960 . S
C322 N323 1.342 . S
C322 C326 1.401 . S
C322 C327 1.499 1_655 S
N323 Co306 1.989 . S
N323 C322 1.342 . S
N323 N324 1.388 . S
N324 Co307 1.993 . S
N324 N323 1.388 . S
N324 C325 1.346 . S
C325 N324 1.346 . S
C325 C326 1.396 . S
C325 C335 1.510 . S
C326 C322 1.401 . S
C326 C325 1.396 . S
C327 C322 1.499 1_455 S
C327 H328 0.959 . S
C327 H329 0.960 1_455 S
C327 H330 0.961 . S
H328 C327 0.959 . S
H329 C327 0.960 1_655 S
H330 C327 0.961 . S
O331 Co306 1.967 1_455 S
O331 C339 1.258 . S
O332 Co307 1.957 . S
O332 C339 1.255 1_655 S
H333 C335 0.959 . S
H334 C335 0.961 . S
C335 C325 1.510 . S
C335 H333 0.959 . S
C335 H334 0.961 . S
C335 H336 0.960 . S
H336 C335 0.960 . S
H337 N317 0.862 . S
O338 Co306 1.920 1_455 S
O338 C311 1.289 1_455 S
C339 O331 1.258 . S
C339 O332 1.255 1_455 S
Co340 O343 1.970 . S
Co340 N357 1.989 . S
Co340 O365 1.967 1_545 S
Co340 O372 1.920 1_545 S
Co341 O344 1.966 . S
Co341 N350 2.022 . S
Co341 N358 1.993 . S
Co341 O366 1.957 . S
C342 O343 1.258 . S
C342 O344 1.263 . S
O343 Co340 1.970 . S
O343 C342 1.258 . S
O344 Co341 1.966 . S
O344 C342 1.263 . S
C345 O346 1.235 . S
C345 O372 1.289 1_545 S
O346 C345 1.235 . S
C347 C349 1.400 . S
C347 N350 1.351 . S
C347 C352 1.501 . S
C348 C349 1.387 . S
C348 N351 1.341 . S
C349 C347 1.400 . S
C349 C348 1.387 . S
N350 Co341 2.022 . S
N350 C347 1.351 . S
N350 N351 1.365 . S
N351 C348 1.341 . S
N351 N350 1.365 . S
N351 H371 0.862 . S
C352 C347 1.501 . S
C352 H353 0.961 . S
C352 H354 0.961 . S
C352 H355 0.960 . S
H353 C352 0.961 . S
H354 C352 0.961 . S
H355 C352 0.960 . S
C356 N357 1.342 . S
C356 C360 1.401 . S
C356 C361 1.499 1_545 S
N357 Co340 1.989 . S
N357 C356 1.342 . S
N357 N358 1.388 . S
N358 Co341 1.993 . S
N358 N357 1.388 . S
N358 C359 1.346 . S
C359 N358 1.346 . S
C359 C360 1.396 . S
C359 C369 1.510 . S
C360 C356 1.401 . S
C360 C359 1.396 . S
C361 C356 1.499 1_565 S
C361 H362 0.959 . S
C361 H363 0.960 1_565 S
C361 H364 0.961 . S
H362 C361 0.959 . S
H363 C361 0.960 1_545 S
H364 C361 0.961 . S
O365 Co340 1.967 1_565 S
O365 C373 1.258 . S
O366 Co341 1.957 . S
O366 C373 1.255 1_545 S
H367 C369 0.959 . S
H368 C369 0.961 . S
C369 C359 1.510 . S
C369 H367 0.959 . S
C369 H368 0.961 . S
C369 H370 0.960 . S
H370 C369 0.960 . S
H371 N351 0.862 . S
O372 Co340 1.920 1_565 S
O372 C345 1.289 1_565 S
C373 O365 1.258 . S
C373 O366 1.255 1_565 S
Co374 O377 1.970 . S
Co374 N391 1.989 . S
Co374 O399 1.967 1_455 S
Co374 O406 1.920 1_455 S
Co375 O378 1.966 . S
Co375 N384 2.022 . S
Co375 N392 1.993 . S
Co375 O400 1.957 . S
C376 O377 1.258 . S
C376 O378 1.263 . S
O377 Co374 1.970 . S
O377 C376 1.258 . S
O378 Co375 1.966 . S
O378 C376 1.263 . S
C379 O380 1.235 . S
C379 O406 1.289 1_455 S
O380 C379 1.235 . S
C381 C383 1.400 . S
C381 N384 1.351 . S
C381 C386 1.501 . S
C382 C383 1.387 . S
C382 N385 1.341 . S
C383 C381 1.400 . S
C383 C382 1.387 . S
N384 Co375 2.022 . S
N384 C381 1.351 . S
N384 N385 1.365 . S
N385 C382 1.341 . S
N385 N384 1.365 . S
N385 H405 0.862 . S
C386 C381 1.501 . S
C386 H387 0.961 . S
C386 H388 0.961 . S
C386 H389 0.960 . S
H387 C386 0.961 . S
H388 C386 0.961 . S
H389 C386 0.960 . S
C390 N391 1.342 . S
C390 C394 1.401 . S
C390 C395 1.499 1_455 S
N391 Co374 1.989 . S
N391 C390 1.342 . S
N391 N392 1.388 . S
N392 Co375 1.993 . S
N392 N391 1.388 . S
N392 C393 1.346 . S
C393 N392 1.346 . S
C393 C394 1.396 . S
C393 C403 1.510 . S
C394 C390 1.401 . S
C394 C393 1.396 . S
C395 C390 1.499 1_655 S
C395 H396 0.959 . S
C395 H397 0.960 1_655 S
C395 H398 0.961 . S
H396 C395 0.959 . S
H397 C395 0.960 1_455 S
H398 C395 0.961 . S
O399 Co374 1.967 1_655 S
O399 C407 1.258 . S
O400 Co375 1.957 . S
O400 C407 1.255 1_455 S
H401 C403 0.959 . S
H402 C403 0.961 . S
C403 C393 1.510 . S
C403 H401 0.959 . S
C403 H402 0.961 . S
C403 H404 0.960 . S
H404 C403 0.960 . S
H405 N385 0.862 . S
O406 Co374 1.920 1_655 S
O406 C379 1.289 1_655 S
C407 O399 1.258 . S
C407 O400 1.255 1_655 S
Co408 O411 1.970 . S
Co408 N425 1.989 . S
Co408 O433 1.967 1_545 S
Co408 O440 1.920 1_545 S
Co409 O412 1.966 . S
Co409 N418 2.022 . S
Co409 N426 1.993 . S
Co409 O434 1.957 . S
C410 O411 1.258 . S
C410 O412 1.263 . S
O411 Co408 1.970 . S
O411 C410 1.258 . S
O412 Co409 1.966 . S
O412 C410 1.263 . S
C413 O414 1.235 . S
C413 O440 1.289 1_545 S
O414 C413 1.235 . S
C415 C417 1.400 . S
C415 N418 1.351 . S
C415 C420 1.501 . S
C416 C417 1.387 . S
C416 N419 1.341 . S
C417 C415 1.400 . S
C417 C416 1.387 . S
N418 Co409 2.022 . S
N418 C415 1.351 . S
N418 N419 1.365 . S
N419 C416 1.341 . S
N419 N418 1.365 . S
N419 H439 0.862 . S
C420 C415 1.501 . S
C420 H421 0.961 . S
C420 H422 0.961 . S
C420 H423 0.960 . S
H421 C420 0.961 . S
H422 C420 0.961 . S
H423 C420 0.960 . S
C424 N425 1.342 . S
C424 C428 1.401 . S
C424 C429 1.499 1_545 S
N425 Co408 1.989 . S
N425 C424 1.342 . S
N425 N426 1.388 . S
N426 Co409 1.993 . S
N426 N425 1.388 . S
N426 C427 1.346 . S
C427 N426 1.346 . S
C427 C428 1.396 . S
C427 C437 1.510 . S
C428 C424 1.401 . S
C428 C427 1.396 . S
C429 C424 1.499 1_565 S
C429 H430 0.959 . S
C429 H431 0.960 1_565 S
C429 H432 0.961 . S
H430 C429 0.959 . S
H431 C429 0.960 1_545 S
H432 C429 0.961 . S
O433 Co408 1.967 1_565 S
O433 C441 1.258 . S
O434 Co409 1.957 . S
O434 C441 1.255 1_545 S
H435 C437 0.959 . S
H436 C437 0.961 . S
C437 C427 1.510 . S
C437 H435 0.959 . S
C437 H436 0.961 . S
C437 H438 0.960 . S
H438 C437 0.960 . S
H439 N419 0.862 . S
O440 Co408 1.920 1_565 S
O440 C413 1.289 1_565 S
C441 O433 1.258 . S
C441 O434 1.255 1_565 S
Co442 O445 1.970 . S
Co442 N459 1.989 . S
Co442 O467 1.967 1_455 S
Co442 O474 1.920 1_455 S
Co443 O446 1.966 . S
Co443 N452 2.022 . S
Co443 N460 1.993 . S
Co443 O468 1.957 . S
C444 O445 1.258 . S
C444 O446 1.263 . S
O445 Co442 1.970 . S
O445 C444 1.258 . S
O446 Co443 1.966 . S
O446 C444 1.263 . S
C447 O448 1.235 . S
C447 O474 1.289 1_455 S
O448 C447 1.235 . S
C449 C451 1.400 . S
C449 N452 1.351 . S
C449 C454 1.501 . S
C450 C451 1.387 . S
C450 N453 1.341 . S
C451 C449 1.400 . S
C451 C450 1.387 . S
N452 Co443 2.022 . S
N452 C449 1.351 . S
N452 N453 1.365 . S
N453 C450 1.341 . S
N453 N452 1.365 . S
N453 H473 0.862 . S
C454 C449 1.501 . S
C454 H455 0.961 . S
C454 H456 0.961 . S
C454 H457 0.960 . S
H455 C454 0.961 . S
H456 C454 0.961 . S
H457 C454 0.960 . S
C458 N459 1.342 . S
C458 C462 1.401 . S
C458 C463 1.499 1_455 S
N459 Co442 1.989 . S
N459 C458 1.342 . S
N459 N460 1.388 . S
N460 Co443 1.993 . S
N460 N459 1.388 . S
N460 C461 1.346 . S
C461 N460 1.346 . S
C461 C462 1.396 . S
C461 C471 1.510 . S
C462 C458 1.401 . S
C462 C461 1.396 . S
C463 C458 1.499 1_655 S
C463 H464 0.959 . S
C463 H465 0.960 1_655 S
C463 H466 0.961 . S
H464 C463 0.959 . S
H465 C463 0.960 1_455 S
H466 C463 0.961 . S
O467 Co442 1.967 1_655 S
O467 C475 1.258 . S
O468 Co443 1.957 . S
O468 C475 1.255 1_455 S
H469 C471 0.959 . S
H470 C471 0.961 . S
C471 C461 1.510 . S
C471 H469 0.959 . S
C471 H470 0.961 . S
C471 H472 0.960 . S
H472 C471 0.960 . S
H473 N453 0.862 . S
O474 Co442 1.920 1_655 S
O474 C447 1.289 1_655 S
C475 O467 1.258 . S
C475 O468 1.255 1_655 S
Co476 O479 1.970 . S
Co476 N493 1.989 . S
Co476 O501 1.967 1_565 S
Co476 O508 1.920 1_565 S
Co477 O480 1.966 . S
Co477 N486 2.022 . S
Co477 N494 1.993 . S
Co477 O502 1.957 . S
C478 O479 1.258 . S
C478 O480 1.263 . S
O479 Co476 1.970 . S
O479 C478 1.258 . S
O480 Co477 1.966 . S
O480 C478 1.263 . S
C481 O482 1.235 . S
C481 O508 1.289 1_565 S
O482 C481 1.235 . S
C483 C485 1.400 . S
C483 N486 1.351 . S
C483 C488 1.501 . S
C484 C485 1.387 . S
C484 N487 1.341 . S
C485 C483 1.400 . S
C485 C484 1.387 . S
N486 Co477 2.022 . S
N486 C483 1.351 . S
N486 N487 1.365 . S
N487 C484 1.341 . S
N487 N486 1.365 . S
N487 H507 0.862 . S
C488 C483 1.501 . S
C488 H489 0.961 . S
C488 H490 0.961 . S
C488 H491 0.960 . S
H489 C488 0.961 . S
H490 C488 0.961 . S
H491 C488 0.960 . S
C492 N493 1.342 . S
C492 C496 1.401 . S
C492 C497 1.499 1_565 S
N493 Co476 1.989 . S
N493 C492 1.342 . S
N493 N494 1.388 . S
N494 Co477 1.993 . S
N494 N493 1.388 . S
N494 C495 1.346 . S
C495 N494 1.346 . S
C495 C496 1.396 . S
C495 C505 1.510 . S
C496 C492 1.401 . S
C496 C495 1.396 . S
C497 C492 1.499 1_545 S
C497 H498 0.959 . S
C497 H499 0.960 1_545 S
C497 H500 0.961 . S
H498 C497 0.959 . S
H499 C497 0.960 1_565 S
H500 C497 0.961 . S
O501 Co476 1.967 1_545 S
O501 C509 1.258 . S
O502 Co477 1.957 . S
O502 C509 1.255 1_565 S
H503 C505 0.959 . S
H504 C505 0.961 . S
C505 C495 1.510 . S
C505 H503 0.959 . S
C505 H504 0.961 . S
C505 H506 0.960 . S
H506 C505 0.960 . S
H507 N487 0.862 . S
O508 Co476 1.920 1_545 S
O508 C481 1.289 1_545 S
C509 O501 1.258 . S
C509 O502 1.255 1_545 S
Co510 O513 1.970 . S
Co510 N527 1.989 . S
Co510 O535 1.967 1_655 S
Co510 O542 1.920 1_655 S
Co511 O514 1.966 . S
Co511 N520 2.022 . S
Co511 N528 1.993 . S
Co511 O536 1.957 . S
C512 O513 1.258 . S
C512 O514 1.263 . S
O513 Co510 1.970 . S
O513 C512 1.258 . S
O514 Co511 1.966 . S
O514 C512 1.263 . S
C515 O516 1.235 . S
C515 O542 1.289 1_655 S
O516 C515 1.235 . S
C517 C519 1.400 . S
C517 N520 1.351 . S
C517 C522 1.501 . S
C518 C519 1.387 . S
C518 N521 1.341 . S
C519 C517 1.400 . S
C519 C518 1.387 . S
N520 Co511 2.022 . S
N520 C517 1.351 . S
N520 N521 1.365 . S
N521 C518 1.341 . S
N521 N520 1.365 . S
N521 H541 0.862 . S
C522 C517 1.501 . S
C522 H523 0.961 . S
C522 H524 0.961 . S
C522 H525 0.960 . S
H523 C522 0.961 . S
H524 C522 0.961 . S
H525 C522 0.960 . S
C526 N527 1.342 . S
C526 C530 1.401 . S
C526 C531 1.499 1_655 S
N527 Co510 1.989 . S
N527 C526 1.342 . S
N527 N528 1.388 . S
N528 Co511 1.993 . S
N528 N527 1.388 . S
N528 C529 1.346 . S
C529 N528 1.346 . S
C529 C530 1.396 . S
C529 C539 1.510 . S
C530 C526 1.401 . S
C530 C529 1.396 . S
C531 C526 1.499 1_455 S
C531 H532 0.959 . S
C531 H533 0.960 1_455 S
C531 H534 0.961 . S
H532 C531 0.959 . S
H533 C531 0.960 1_655 S
H534 C531 0.961 . S
O535 Co510 1.967 1_455 S
O535 C543 1.258 . S
O536 Co511 1.957 . S
O536 C543 1.255 1_655 S
H537 C539 0.959 . S
H538 C539 0.961 . S
C539 C529 1.510 . S
C539 H537 0.959 . S
C539 H538 0.961 . S
C539 H540 0.960 . S
H540 C539 0.960 . S
H541 N521 0.862 . S
O542 Co510 1.920 1_455 S
O542 C515 1.289 1_455 S
C543 O535 1.258 . S
C543 O536 1.255 1_455 S
C544 C545 1.369 . S
C544 C546 1.419 1_655 S
C544 H548 0.930 . S
C545 C544 1.369 . S
C545 C554 1.429 . S
C546 C544 1.419 1_455 S
C546 C547 1.363 . S
C546 H549 0.929 . S
C547 C546 1.363 . S
C547 C553 1.428 . S
H548 C544 0.930 . S
H549 C546 0.929 . S
S550 N551 1.613 . S
S550 N552 1.610 1_655 S
N551 S550 1.613 . S
N551 C554 1.350 . S
N552 S550 1.610 1_455 S
N552 C553 1.351 . S
C553 C547 1.428 . S
C553 N552 1.351 . S
C553 C554 1.434 1_455 S
C554 C545 1.429 . S
C554 N551 1.350 . S
C554 C553 1.434 1_655 S
C555 C556 1.369 . S
C555 C557 1.419 1_545 S
C555 H559 0.930 . S
C556 C555 1.369 . S
C556 C565 1.429 . S
C557 C555 1.419 1_565 S
C557 C558 1.363 . S
C557 H560 0.929 . S
C558 C557 1.363 . S
C558 C564 1.428 . S
H559 C555 0.930 . S
H560 C557 0.929 . S
S561 N562 1.613 1_565 S
S561 N563 1.610 . S
N562 S561 1.613 1_545 S
N562 C565 1.350 . S
N563 S561 1.610 . S
N563 C564 1.351 . S
C564 C558 1.428 . S
C564 N563 1.351 . S
C564 C565 1.434 1_565 S
C565 C556 1.429 . S
C565 N562 1.350 . S
C565 C564 1.434 1_545 S
C566 C567 1.369 . S
C566 C568 1.419 1_655 S
C566 H570 0.930 . S
C567 C566 1.369 . S
C567 C576 1.429 . S
C568 C566 1.419 1_455 S
C568 C569 1.363 . S
C568 H571 0.929 . S
C569 C568 1.363 . S
C569 C575 1.428 . S
H570 C566 0.930 . S
H571 C568 0.929 . S
S572 N573 1.613 1_455 S
S572 N574 1.610 . S
N573 S572 1.613 1_655 S
N573 C576 1.350 . S
N574 S572 1.610 . S
N574 C575 1.351 . S
C575 C569 1.428 . S
C575 N574 1.351 . S
C575 C576 1.434 1_455 S
C576 C567 1.429 . S
C576 N573 1.350 . S
C576 C575 1.434 1_655 S
C577 C578 1.369 . S
C577 C579 1.419 1_565 S
C577 H581 0.930 . S
C578 C577 1.369 . S
C578 C587 1.429 . S
C579 C577 1.419 1_545 S
C579 C580 1.363 . S
C579 H582 0.929 . S
C580 C579 1.363 . S
C580 C586 1.428 . S
H581 C577 0.930 . S
H582 C579 0.929 . S
S583 N584 1.613 . S
S583 N585 1.610 1_565 S
N584 S583 1.613 . S
N584 C587 1.350 . S
N585 S583 1.610 1_545 S
N585 C586 1.351 . S
C586 C580 1.428 . S
C586 N585 1.351 . S
C586 C587 1.434 1_545 S
C587 C578 1.429 . S
C587 N584 1.350 . S
C587 C586 1.434 1_565 S
C588 C589 1.369 . S
C588 C590 1.419 . S
C588 H592 0.930 . S
C589 C588 1.369 . S
C589 C598 1.429 1_545 S
C590 C588 1.419 . S
C590 C591 1.363 1_545 S
C590 H593 0.929 . S
C591 C590 1.363 1_565 S
C591 C597 1.428 . S
H592 C588 0.930 . S
H593 C590 0.929 . S
S594 N595 1.613 . S
S594 N596 1.610 . S
N595 S594 1.613 . S
N595 C598 1.350 . S
N596 S594 1.610 . S
N596 C597 1.351 . S
C597 C591 1.428 . S
C597 N596 1.351 . S
C597 C598 1.434 . S
C598 C589 1.429 1_565 S
C598 N595 1.350 . S
C598 C597 1.434 . S
C599 C600 1.369 . S
C599 C601 1.419 . S
C599 H603 0.930 . S
C600 C599 1.369 . S
C600 C609 1.429 1_455 S
C601 C599 1.419 . S
C601 C602 1.363 1_455 S
C601 H604 0.929 . S
C602 C601 1.363 1_655 S
C602 C608 1.428 . S
H603 C599 0.930 . S
H604 C601 0.929 . S
S605 N606 1.613 . S
S605 N607 1.610 . S
N606 S605 1.613 . S
N606 C609 1.350 . S
N607 S605 1.610 . S
N607 C608 1.351 . S
C608 C602 1.428 . S
C608 N607 1.351 . S
C608 C609 1.434 . S
C609 C600 1.429 1_655 S
C609 N606 1.350 . S
C609 C608 1.434 . S
C610 C611 1.369 1_565 S
C610 C612 1.419 . S
C610 H614 0.930 . S
C611 C610 1.369 1_545 S
C611 C620 1.429 . S
C612 C610 1.419 . S
C612 C613 1.363 . S
C612 H615 0.929 . S
C613 C612 1.363 . S
C613 C619 1.428 1_565 S
H614 C610 0.930 . S
H615 C612 0.929 . S
S616 N617 1.613 . S
S616 N618 1.610 . S
N617 S616 1.613 . S
N617 C620 1.350 . S
N618 S616 1.610 . S
N618 C619 1.351 . S
C619 C613 1.428 1_545 S
C619 N618 1.351 . S
C619 C620 1.434 . S
C620 C611 1.429 . S
C620 N617 1.350 . S
C620 C619 1.434 . S
C621 C622 1.369 1_655 S
C621 C623 1.419 . S
C621 H625 0.930 . S
C622 C621 1.369 1_455 S
C622 C631 1.429 . S
C623 C621 1.419 . S
C623 C624 1.363 . S
C623 H626 0.929 . S
C624 C623 1.363 . S
C624 C630 1.428 1_655 S
H625 C621 0.930 . S
H626 C623 0.929 . S
S627 N628 1.613 . S
S627 N629 1.610 . S
N628 S627 1.613 . S
N628 C631 1.350 . S
N629 S627 1.610 . S
N629 C630 1.351 . S
C630 C624 1.428 1_455 S
C630 N629 1.351 . S
C630 C631 1.434 . S
C631 C622 1.429 . S
C631 N628 1.350 . S
C631 C630 1.434 . S
C632 C633 1.369 . S
C632 C634 1.419 . S
C632 H636 0.930 . S
C633 C632 1.369 . S
C633 C642 1.429 . S
C634 C632 1.419 . S
C634 C635 1.363 . S
C634 H637 0.929 . S
C635 C634 1.363 . S
C635 C641 1.428 . S
H636 C632 0.930 . S
H637 C634 0.929 . S
S638 N639 1.613 . S
S638 N640 1.610 . S
N639 S638 1.613 . S
N639 C642 1.350 . S
N640 S638 1.610 . S
N640 C641 1.351 . S
C641 C635 1.428 . S
C641 N640 1.351 . S
C641 C642 1.434 . S
C642 C633 1.429 . S
C642 N639 1.350 . S
C642 C641 1.434 . S
C643 C644 1.369 . S
C643 C645 1.419 . S
C643 H647 0.930 . S
C644 C643 1.369 . S
C644 C653 1.429 . S
C645 C643 1.419 . S
C645 C646 1.363 . S
C645 H648 0.929 . S
C646 C645 1.363 . S
C646 C652 1.428 . S
H647 C643 0.930 . S
H648 C645 0.929 . S
S649 N650 1.613 . S
S649 N651 1.610 . S
N650 S649 1.613 . S
N650 C653 1.350 . S
N651 S649 1.610 . S
N651 C652 1.351 . S
C652 C646 1.428 . S
C652 N651 1.351 . S
C652 C653 1.434 . S
C653 C644 1.429 . S
C653 N650 1.350 . S
C653 C652 1.434 . S
C654 C655 1.369 . S
C654 C656 1.419 . S
C654 H658 0.930 . S
C655 C654 1.369 . S
C655 C664 1.429 . S
C656 C654 1.419 . S
C656 C657 1.363 . S
C656 H659 0.929 . S
C657 C656 1.363 . S
C657 C663 1.428 . S
H658 C654 0.930 . S
H659 C656 0.929 . S
S660 N661 1.613 . S
S660 N662 1.610 . S
N661 S660 1.613 . S
N661 C664 1.350 . S
N662 S660 1.610 . S
N662 C663 1.351 . S
C663 C657 1.428 . S
C663 N662 1.351 . S
C663 C664 1.434 . S
C664 C655 1.429 . S
C664 N661 1.350 . S
C664 C663 1.434 . S
C665 C666 1.369 . S
C665 C667 1.419 . S
C665 H669 0.930 . S
C666 C665 1.369 . S
C666 C675 1.429 . S
C667 C665 1.419 . S
C667 C668 1.363 . S
C667 H670 0.929 . S
C668 C667 1.363 . S
C668 C674 1.428 . S
H669 C665 0.930 . S
H670 C667 0.929 . S
S671 N672 1.613 . S
S671 N673 1.610 . S
N672 S671 1.613 . S
N672 C675 1.350 . S
N673 S671 1.610 . S
N673 C674 1.351 . S
C674 C668 1.428 . S
C674 N673 1.351 . S
C674 C675 1.434 . S
C675 C666 1.429 . S
C675 N672 1.350 . S
C675 C674 1.434 . S
C676 C677 1.369 . S
C676 C678 1.419 . S
C676 H680 0.930 . S
C677 C676 1.369 . S
C677 C686 1.429 . S
C678 C676 1.419 . S
C678 C679 1.363 . S
C678 H681 0.929 . S
C679 C678 1.363 . S
C679 C685 1.428 . S
H680 C676 0.930 . S
H681 C678 0.929 . S
S682 N683 1.613 . S
S682 N684 1.610 . S
N683 S682 1.613 . S
N683 C686 1.350 . S
N684 S682 1.610 . S
N684 C685 1.351 . S
C685 C679 1.428 . S
C685 N684 1.351 . S
C685 C686 1.434 . S
C686 C677 1.429 . S
C686 N683 1.350 . S
C686 C685 1.434 . S
C687 C688 1.369 . S
C687 C689 1.419 . S
C687 H691 0.930 . S
C688 C687 1.369 . S
C688 C697 1.429 . S
C689 C687 1.419 . S
C689 C690 1.363 . S
C689 H692 0.929 . S
C690 C689 1.363 . S
C690 C696 1.428 . S
H691 C687 0.930 . S
H692 C689 0.929 . S
S693 N694 1.613 . S
S693 N695 1.610 . S
N694 S693 1.613 . S
N694 C697 1.350 . S
N695 S693 1.610 . S
N695 C696 1.351 . S
C696 C690 1.428 . S
C696 N695 1.351 . S
C696 C697 1.434 . S
C697 C688 1.429 . S
C697 N694 1.350 . S
C697 C696 1.434 . S
C698 C699 1.369 . S
C698 C700 1.419 . S
C698 H702 0.930 . S
C699 C698 1.369 . S
C699 C708 1.429 . S
C700 C698 1.419 . S
C700 C701 1.363 . S
C700 H703 0.929 . S
C701 C700 1.363 . S
C701 C707 1.428 . S
H702 C698 0.930 . S
H703 C700 0.929 . S
S704 N705 1.613 . S
S704 N706 1.610 . S
N705 S704 1.613 . S
N705 C708 1.350 . S
N706 S704 1.610 . S
N706 C707 1.351 . S
C707 C701 1.428 . S
C707 N706 1.351 . S
C707 C708 1.434 . S
C708 C699 1.429 . S
C708 N705 1.350 . S
C708 C707 1.434 . S
C709 C710 1.369 . S
C709 C711 1.419 . S
C709 H713 0.930 . S
C710 C709 1.369 . S
C710 C719 1.429 . S
C711 C709 1.419 . S
C711 C712 1.363 . S
C711 H714 0.929 . S
C712 C711 1.363 . S
C712 C718 1.428 . S
H713 C709 0.930 . S
H714 C711 0.929 . S
S715 N716 1.613 . S
S715 N717 1.610 . S
N716 S715 1.613 . S
N716 C719 1.350 . S
N717 S715 1.610 . S
N717 C718 1.351 . S
C718 C712 1.428 . S
C718 N717 1.351 . S
C718 C719 1.434 . S
C719 C710 1.429 . S
C719 N716 1.350 . S
C719 C718 1.434 . S
C720 C721 1.369 . S
C720 C722 1.419 . S
C720 H724 0.930 . S
C721 C720 1.369 . S
C721 C730 1.429 . S
C722 C720 1.419 . S
C722 C723 1.363 . S
C722 H725 0.929 . S
C723 C722 1.363 . S
C723 C729 1.428 . S
H724 C720 0.930 . S
H725 C722 0.929 . S
S726 N727 1.613 . S
S726 N728 1.610 . S
N727 S726 1.613 . S
N727 C730 1.350 . S
N728 S726 1.610 . S
N728 C729 1.351 . S
C729 C723 1.428 . S
C729 N728 1.351 . S
C729 C730 1.434 . S
C730 C721 1.429 . S
C730 N727 1.350 . S
C730 C729 1.434 . S
C731 C732 1.369 . S
C731 C733 1.419 . S
C731 H735 0.930 . S
C732 C731 1.369 . S
C732 C741 1.429 . S
C733 C731 1.419 . S
C733 C734 1.363 . S
C733 H736 0.929 . S
C734 C733 1.363 . S
C734 C740 1.428 . S
H735 C731 0.930 . S
H736 C733 0.929 . S
S737 N738 1.613 . S
S737 N739 1.610 . S
N738 S737 1.613 . S
N738 C741 1.350 . S
N739 S737 1.610 . S
N739 C740 1.351 . S
C740 C734 1.428 . S
C740 N739 1.351 . S
C740 C741 1.434 . S
C741 C732 1.429 . S
C741 N738 1.350 . S
C741 C740 1.434 . S
C742 C743 1.369 . S
C742 C744 1.419 . S
C742 H746 0.930 . S
C743 C742 1.369 . S
C743 C752 1.429 . S
C744 C742 1.419 . S
C744 C745 1.363 . S
C744 H747 0.929 . S
C745 C744 1.363 . S
C745 C751 1.428 . S
H746 C742 0.930 . S
H747 C744 0.929 . S
S748 N749 1.613 . S
S748 N750 1.610 . S
N749 S748 1.613 . S
N749 C752 1.350 . S
N750 S748 1.610 . S
N750 C751 1.351 . S
C751 C745 1.428 . S
C751 N750 1.351 . S
C751 C752 1.434 . S
C752 C743 1.429 . S
C752 N749 1.350 . S
C752 C751 1.434 . S
C753 C754 1.369 . S
C753 C755 1.419 . S
C753 H757 0.930 . S
C754 C753 1.369 . S
C754 C763 1.429 . S
C755 C753 1.419 . S
C755 C756 1.363 . S
C755 H758 0.929 . S
C756 C755 1.363 . S
C756 C762 1.428 . S
H757 C753 0.930 . S
H758 C755 0.929 . S
S759 N760 1.613 . S
S759 N761 1.610 . S
N760 S759 1.613 . S
N760 C763 1.350 . S
N761 S759 1.610 . S
N761 C762 1.351 . S
C762 C756 1.428 . S
C762 N761 1.351 . S
C762 C763 1.434 . S
C763 C754 1.429 . S
C763 N760 1.350 . S
C763 C762 1.434 . S
C764 C765 1.369 . S
C764 C766 1.419 . S
C764 H768 0.930 . S
C765 C764 1.369 . S
C765 C774 1.429 . S
C766 C764 1.419 . S
C766 C767 1.363 . S
C766 H769 0.929 . S
C767 C766 1.363 . S
C767 C773 1.428 . S
H768 C764 0.930 . S
H769 C766 0.929 . S
S770 N771 1.613 . S
S770 N772 1.610 . S
N771 S770 1.613 . S
N771 C774 1.350 . S
N772 S770 1.610 . S
N772 C773 1.351 . S
C773 C767 1.428 . S
C773 N772 1.351 . S
C773 C774 1.434 . S
C774 C765 1.429 . S
C774 N771 1.350 . S
C774 C773 1.434 . S
C775 C776 1.369 . S
C775 C777 1.419 . S
C775 H779 0.930 . S
C776 C775 1.369 . S
C776 C785 1.429 . S
C777 C775 1.419 . S
C777 C778 1.363 . S
C777 H780 0.929 . S
C778 C777 1.363 . S
C778 C784 1.428 . S
H779 C775 0.930 . S
H780 C777 0.929 . S
S781 N782 1.613 . S
S781 N783 1.610 . S
N782 S781 1.613 . S
N782 C785 1.350 . S
N783 S781 1.610 . S
N783 C784 1.351 . S
C784 C778 1.428 . S
C784 N783 1.351 . S
C784 C785 1.434 . S
C785 C776 1.429 . S
C785 N782 1.350 . S
C785 C784 1.434 . S
C786 C787 1.369 . S
C786 C788 1.419 . S
C786 H790 0.930 . S
C787 C786 1.369 . S
C787 C796 1.429 . S
C788 C786 1.419 . S
C788 C789 1.363 . S
C788 H791 0.929 . S
C789 C788 1.363 . S
C789 C795 1.428 . S
H790 C786 0.930 . S
H791 C788 0.929 . S
S792 N793 1.613 . S
S792 N794 1.610 . S
N793 S792 1.613 . S
N793 C796 1.350 . S
N794 S792 1.610 . S
N794 C795 1.351 . S
C795 C789 1.428 . S
C795 N794 1.351 . S
C795 C796 1.434 . S
C796 C787 1.429 . S
C796 N793 1.350 . S
C796 C795 1.434 . S
C797 C798 1.369 . S
C797 C799 1.419 . S
C797 H801 0.930 . S
C798 C797 1.369 . S
C798 C807 1.429 . S
C799 C797 1.419 . S
C799 C800 1.363 . S
C799 H802 0.929 . S
C800 C799 1.363 . S
C800 C806 1.428 . S
H801 C797 0.930 . S
H802 C799 0.929 . S
S803 N804 1.613 . S
S803 N805 1.610 . S
N804 S803 1.613 . S
N804 C807 1.350 . S
N805 S803 1.610 . S
N805 C806 1.351 . S
C806 C800 1.428 . S
C806 N805 1.351 . S
C806 C807 1.434 . S
C807 C798 1.429 . S
C807 N804 1.350 . S
C807 C806 1.434 . S
C808 C809 1.369 . S
C808 C810 1.419 . S
C808 H812 0.930 . S
C809 C808 1.369 . S
C809 C818 1.429 . S
C810 C808 1.419 . S
C810 C811 1.363 . S
C810 H813 0.929 . S
C811 C810 1.363 . S
C811 C817 1.428 . S
H812 C808 0.930 . S
H813 C810 0.929 . S
S814 N815 1.613 . S
S814 N816 1.610 . S
N815 S814 1.613 . S
N815 C818 1.350 . S
N816 S814 1.610 . S
N816 C817 1.351 . S
C817 C811 1.428 . S
C817 N816 1.351 . S
C817 C818 1.434 . S
C818 C809 1.429 . S
C818 N815 1.350 . S
C818 C817 1.434 . S
C819 C820 1.369 . S
C819 C821 1.419 . S
C819 H823 0.930 . S
C820 C819 1.369 . S
C820 C829 1.429 . S
C821 C819 1.419 . S
C821 C822 1.363 . S
C821 H824 0.929 . S
C822 C821 1.363 . S
C822 C828 1.428 . S
H823 C819 0.930 . S
H824 C821 0.929 . S
S825 N826 1.613 . S
S825 N827 1.610 . S
N826 S825 1.613 . S
N826 C829 1.350 . S
N827 S825 1.610 . S
N827 C828 1.351 . S
C828 C822 1.428 . S
C828 N827 1.351 . S
C828 C829 1.434 . S
C829 C820 1.429 . S
C829 N826 1.350 . S
C829 C828 1.434 . S
C830 C831 1.369 . S
C830 C832 1.419 . S
C830 H834 0.930 . S
C831 C830 1.369 . S
C831 C840 1.429 . S
C832 C830 1.419 . S
C832 C833 1.363 . S
C832 H835 0.929 . S
C833 C832 1.363 . S
C833 C839 1.428 . S
H834 C830 0.930 . S
H835 C832 0.929 . S
S836 N837 1.613 . S
S836 N838 1.610 . S
N837 S836 1.613 . S
N837 C840 1.350 . S
N838 S836 1.610 . S
N838 C839 1.351 . S
C839 C833 1.428 . S
C839 N838 1.351 . S
C839 C840 1.434 . S
C840 C831 1.429 . S
C840 N837 1.350 . S
C840 C839 1.434 . S
C841 C842 1.369 . S
C841 C843 1.419 . S
C841 H845 0.930 . S
C842 C841 1.369 . S
C842 C851 1.429 . S
C843 C841 1.419 . S
C843 C844 1.363 . S
C843 H846 0.929 . S
C844 C843 1.363 . S
C844 C850 1.428 . S
H845 C841 0.930 . S
H846 C843 0.929 . S
S847 N848 1.613 . S
S847 N849 1.610 . S
N848 S847 1.613 . S
N848 C851 1.350 . S
N849 S847 1.610 . S
N849 C850 1.351 . S
C850 C844 1.428 . S
C850 N849 1.351 . S
C850 C851 1.434 . S
C851 C842 1.429 . S
C851 N848 1.350 . S
C851 C850 1.434 . S
C852 C853 1.369 . S
C852 C854 1.419 . S
C852 H856 0.930 . S
C853 C852 1.369 . S
C853 C862 1.429 . S
C854 C852 1.419 . S
C854 C855 1.363 . S
C854 H857 0.929 . S
C855 C854 1.363 . S
C855 C861 1.428 . S
H856 C852 0.930 . S
H857 C854 0.929 . S
S858 N859 1.613 . S
S858 N860 1.610 . S
N859 S858 1.613 . S
N859 C862 1.350 . S
N860 S858 1.610 . S
N860 C861 1.351 . S
C861 C855 1.428 . S
C861 N860 1.351 . S
C861 C862 1.434 . S
C862 C853 1.429 . S
C862 N859 1.350 . S
C862 C861 1.434 . S
C863 C864 1.369 . S
C863 C865 1.419 . S
C863 H867 0.930 . S
C864 C863 1.369 . S
C864 C873 1.429 . S
C865 C863 1.419 . S
C865 C866 1.363 . S
C865 H868 0.929 . S
C866 C865 1.363 . S
C866 C872 1.428 . S
H867 C863 0.930 . S
H868 C865 0.929 . S
S869 N870 1.613 . S
S869 N871 1.610 . S
N870 S869 1.613 . S
N870 C873 1.350 . S
N871 S869 1.610 . S
N871 C872 1.351 . S
C872 C866 1.428 . S
C872 N871 1.351 . S
C872 C873 1.434 . S
C873 C864 1.429 . S
C873 N870 1.350 . S
C873 C872 1.434 . S
C874 C875 1.369 . S
C874 C876 1.419 . S
C874 H878 0.930 . S
C875 C874 1.369 . S
C875 C884 1.429 . S
C876 C874 1.419 . S
C876 C877 1.363 . S
C876 H879 0.929 . S
C877 C876 1.363 . S
C877 C883 1.428 . S
H878 C874 0.930 . S
H879 C876 0.929 . S
S880 N881 1.613 . S
S880 N882 1.610 . S
N881 S880 1.613 . S
N881 C884 1.350 . S
N882 S880 1.610 . S
N882 C883 1.351 . S
C883 C877 1.428 . S
C883 N882 1.351 . S
C883 C884 1.434 . S
C884 C875 1.429 . S
C884 N881 1.350 . S
C884 C883 1.434 . S
C885 C886 1.369 . S
C885 C887 1.419 . S
C885 H889 0.930 . S
C886 C885 1.369 . S
C886 C895 1.429 . S
C887 C885 1.419 . S
C887 C888 1.363 . S
C887 H890 0.929 . S
C888 C887 1.363 . S
C888 C894 1.428 . S
H889 C885 0.930 . S
H890 C887 0.929 . S
S891 N892 1.613 . S
S891 N893 1.610 . S
N892 S891 1.613 . S
N892 C895 1.350 . S
N893 S891 1.610 . S
N893 C894 1.351 . S
C894 C888 1.428 . S
C894 N893 1.351 . S
C894 C895 1.434 . S
C895 C886 1.429 . S
C895 N892 1.350 . S
C895 C894 1.434 . S
C896 C897 1.369 . S
C896 C898 1.419 . S
C896 H900 0.930 . S
C897 C896 1.369 . S
C897 C906 1.429 . S
C898 C896 1.419 . S
C898 C899 1.363 . S
C898 H901 0.929 . S
C899 C898 1.363 . S
C899 C905 1.428 . S
H900 C896 0.930 . S
H901 C898 0.929 . S
S902 N903 1.613 . S
S902 N904 1.610 . S
N903 S902 1.613 . S
N903 C906 1.350 . S
N904 S902 1.610 . S
N904 C905 1.351 . S
C905 C899 1.428 . S
C905 N904 1.351 . S
C905 C906 1.434 . S
C906 C897 1.429 . S
C906 N903 1.350 . S
C906 C905 1.434 . S
C907 C908 1.369 . S
C907 C909 1.419 . S
C907 H911 0.930 . S
C908 C907 1.369 . S
C908 C917 1.429 . S
C909 C907 1.419 . S
C909 C910 1.363 . S
C909 H912 0.929 . S
C910 C909 1.363 . S
C910 C916 1.428 . S
H911 C907 0.930 . S
H912 C909 0.929 . S
S913 N914 1.613 . S
S913 N915 1.610 . S
N914 S913 1.613 . S
N914 C917 1.350 . S
N915 S913 1.610 . S
N915 C916 1.351 . S
C916 C910 1.428 . S
C916 N915 1.351 . S
C916 C917 1.434 . S
C917 C908 1.429 . S
C917 N914 1.350 . S
C917 C916 1.434 . S
C918 C919 1.369 . S
C918 C920 1.419 . S
C918 H922 0.930 . S
C919 C918 1.369 . S
C919 C928 1.429 . S
C920 C918 1.419 . S
C920 C921 1.363 . S
C920 H923 0.929 . S
C921 C920 1.363 . S
C921 C927 1.428 . S
H922 C918 0.930 . S
H923 C920 0.929 . S
S924 N925 1.613 . S
S924 N926 1.610 . S
N925 S924 1.613 . S
N925 C928 1.350 . S
N926 S924 1.610 . S
N926 C927 1.351 . S
C927 C921 1.428 . S
C927 N926 1.351 . S
C927 C928 1.434 . S
C928 C919 1.429 . S
C928 N925 1.350 . S
C928 C927 1.434 . S
C929 C930 1.369 . S
C929 C931 1.419 . S
C929 H933 0.930 . S
C930 C929 1.369 . S
C930 C939 1.429 . S
C931 C929 1.419 . S
C931 C932 1.363 . S
C931 H934 0.929 . S
C932 C931 1.363 . S
C932 C938 1.428 . S
H933 C929 0.930 . S
H934 C931 0.929 . S
S935 N936 1.613 . S
S935 N937 1.610 . S
N936 S935 1.613 . S
N936 C939 1.350 . S
N937 S935 1.610 . S
N937 C938 1.351 . S
C938 C932 1.428 . S
C938 N937 1.351 . S
C938 C939 1.434 . S
C939 C930 1.429 . S
C939 N936 1.350 . S
C939 C938 1.434 . S
C940 C941 1.369 1_545 S
C940 C942 1.419 1_556 S
C940 H944 0.930 . S
C941 C940 1.369 1_565 S
C941 C950 1.429 . S
C942 C940 1.419 1_554 S
C942 C943 1.363 . S
C942 H945 0.929 . S
C943 C942 1.363 . S
C943 C949 1.428 1_545 S
H944 C940 0.930 . S
H945 C942 0.929 . S
S946 N947 1.613 1_554 S
S946 N948 1.610 . S
N947 S946 1.613 1_556 S
N947 C950 1.350 . S
N948 S946 1.610 . S
N948 C949 1.351 . S
C949 C943 1.428 1_565 S
C949 N948 1.351 . S
C949 C950 1.434 1_554 S
C950 C941 1.429 . S
C950 N947 1.350 . S
C950 C949 1.434 1_556 S
C951 C952 1.369 . S
C951 C953 1.416 1_456 S
C951 H955 0.930 . S
C952 C951 1.369 . S
C952 C961 1.437 . S
C953 C951 1.416 1_654 S
C953 C954 1.365 . S
C953 H956 0.929 1_655 S
C954 C953 1.365 . S
C954 C960 1.428 . S
H955 C951 0.930 . S
H956 C953 0.929 1_455 S
S957 N958 1.613 1_655 S
S957 N959 1.610 1_556 S
N958 S957 1.613 1_455 S
N958 C961 1.351 . S
N959 S957 1.610 1_554 S
N959 C960 1.351 . S
C960 C954 1.428 . S
C960 N959 1.351 . S
C960 C961 1.426 1_654 S
C961 C952 1.437 . S
C961 N958 1.351 . S
C961 C960 1.426 1_456 S
C962 C963 1.369 1_545 S
C962 C964 1.419 1_554 S
C962 H966 0.930 . S
C963 C962 1.369 1_565 S
C963 C972 1.429 . S
C964 C962 1.419 1_556 S
C964 C965 1.363 . S
C964 H967 0.929 . S
C965 C964 1.363 . S
C965 C971 1.428 1_545 S
H966 C962 0.930 . S
H967 C964 0.929 . S
S968 N969 1.613 1_556 S
S968 N970 1.610 . S
N969 S968 1.613 1_554 S
N969 C972 1.350 . S
N970 S968 1.610 . S
N970 C971 1.351 . S
C971 C965 1.428 1_565 S
C971 N970 1.351 . S
C971 C972 1.434 1_556 S
C972 C963 1.429 . S
C972 N969 1.350 . S
C972 C971 1.434 1_554 S
C973 C974 1.369 1_455 S
C973 C975 1.419 1_556 S
C973 H977 0.930 . S
C974 C973 1.369 1_655 S
C974 C983 1.429 . S
C975 C973 1.419 1_554 S
C975 C976 1.363 . S
C975 H978 0.929 . S
C976 C975 1.363 . S
C976 C982 1.428 1_455 S
H977 C973 0.930 . S
H978 C975 0.929 . S
S979 N980 1.613 1_554 S
S979 N981 1.610 . S
N980 S979 1.613 1_556 S
N980 C983 1.350 . S
N981 S979 1.610 . S
N981 C982 1.351 . S
C982 C976 1.428 1_655 S
C982 N981 1.351 . S
C982 C983 1.434 1_554 S
C983 C974 1.429 . S
C983 N980 1.350 . S
C983 C982 1.434 1_556 S
C545 C73 0.593 . S
C547 C5 0.594 . S
C556 C107 0.609 . S
C558 C39 0.586 . S
C567 C209 0.611 . S
C569 C141 0.583 . S
C578 C175 0.582 . S
C580 C243 0.607 . S
C589 C277 0.585 1_545 S
C591 C345 0.604 1_565 S
C600 C311 0.596 1_455 S
C602 C379 0.598 1_655 S
C611 C481 0.604 1_545 S
C613 C413 0.590 1_565 S
C622 C515 0.608 1_455 S
C624 C447 0.583 1_655 S
C633 C9 1.548 . S
C635 C247 1.548 . S
C644 C145 1.550 . S
C646 C43 1.549 . S
C655 C179 1.546 . S
C657 C77 1.546 . S
C666 C213 1.549 . S
C668 C111 1.548 . S
C677 C519 1.548 . S
C679 C281 1.547 . S
C688 C417 1.549 . S
C690 C315 1.549 . S
C699 C451 1.546 . S
C701 C349 1.546 . S
C710 C485 1.547 . S
C712 C383 1.547 . S
C721 C33 1.597 . S
C723 C376 1.685 . S
C732 C67 1.601 . S
C734 C274 1.690 . S
C743 C101 1.597 . S
C745 C308 1.685 . S
C754 C342 1.691 . S
C756 C135 1.599 . S
C765 C169 1.592 . S
C767 C444 1.687 . S
C776 C203 1.603 . S
C778 C478 1.688 . S
C787 C237 1.600 . S
C789 C512 1.690 . S
C798 C271 1.592 . S
C800 C410 1.687 . S
C809 C104 1.685 . S
C811 C305 1.600 . S
C820 C2 1.690 . S
C822 C339 1.596 . S
C831 C36 1.687 . S
C833 C373 1.602 . S
C842 C407 1.598 . S
C844 C70 1.686 . S
C853 C441 1.602 . S
C855 C172 1.686 . S
C864 C475 1.602 . S
C866 C206 1.687 . S
C875 C509 1.599 . S
C877 C240 1.690 . S
C886 C543 1.603 . S
C888 C138 1.688 . S
C897 C156 1.741 . S
C899 C20 1.740 . S
C908 C190 1.742 . S
C910 C54 1.740 . S
C919 C88 1.738 . S
C921 C224 1.738 . S
C930 C258 1.740 . S
C932 C122 1.739 . S
C941 C292 1.739 . S
C943 C428 1.739 . S
C952 C462 1.738 . S
C954 C326 1.738 . S
C963 C496 1.741 . S
C965 C360 1.740 . S
C974 C530 1.742 . S
C976 C394 1.741 . S
