# Generated by pormake.
# Topology ukj, (4)-cn, num edge types: 1
# Building blocks:
#     Node 0, Type 0, BuildingBlock: CEKHIL_clean_sbu_0, # of connection points: 4
#     Node 1, Type 0, BuildingBlock: CEKHIL_clean_sbu_0, # of connection points: 4
#     Node 2, Type 0, BuildingBlock: CEKHIL_clean_sbu_0, # of connection points: 4
#     Node 3, Type 0, BuildingBlock: CEKHIL_clean_sbu_0, # of connection points: 4
#     Node 4, Type 0, BuildingBlock: CEKHIL_clean_sbu_0, # of connection points: 4
#     Node 5, Type 0, BuildingBlock: CEKHIL_clean_sbu_0, # of connection points: 4
#     Node 6, Type 0, BuildingBlock: CEKHIL_clean_sbu_0, # of connection points: 4
#     Node 7, Type 0, BuildingBlock: CEKHIL_clean_sbu_0, # of connection points: 4
#     Node 8, Type 0, BuildingBlock: CEKHIL_clean_sbu_0, # of connection points: 4
#     Node 9, Type 0, BuildingBlock: CEKHIL_clean_sbu_0, # of connection points: 4
#     Node 10, Type 0, BuildingBlock: CEKHIL_clean_sbu_0, # of connection points: 4
#     Node 11, Type 0, BuildingBlock: CEKHIL_clean_sbu_0, # of connection points: 4
#     Node 12, Type 0, BuildingBlock: CEKHIL_clean_sbu_0, # of connection points: 4
#     Node 13, Type 0, BuildingBlock: CEKHIL_clean_sbu_0, # of connection points: 4
#     Node 14, Type 0, BuildingBlock: CEKHIL_clean_sbu_0, # of connection points: 4
#     Node 15, Type 0, BuildingBlock: CEKHIL_clean_sbu_0, # of connection points: 4
#     Node 16, Type 0, BuildingBlock: CEKHIL_clean_sbu_0, # of connection points: 4
#     Node 17, Type 0, BuildingBlock: CEKHIL_clean_sbu_0, # of connection points: 4
#     Node 18, Type 0, BuildingBlock: CEKHIL_clean_sbu_0, # of connection points: 4
#     Node 19, Type 0, BuildingBlock: CEKHIL_clean_sbu_0, # of connection points: 4
#     Node 20, Type 0, BuildingBlock: CEKHIL_clean_sbu_0, # of connection points: 4
#     Node 21, Type 0, BuildingBlock: CEKHIL_clean_sbu_0, # of connection points: 4
#     Node 22, Type 0, BuildingBlock: CEKHIL_clean_sbu_0, # of connection points: 4
#     Node 23, Type 0, BuildingBlock: CEKHIL_clean_sbu_0, # of connection points: 4
#     Node 24, Type 0, BuildingBlock: CEKHIL_clean_sbu_0, # of connection points: 4
#     Node 25, Type 0, BuildingBlock: CEKHIL_clean_sbu_0, # of connection points: 4
#     Node 26, Type 0, BuildingBlock: CEKHIL_clean_sbu_0, # of connection points: 4
#     Node 27, Type 0, BuildingBlock: CEKHIL_clean_sbu_0, # of connection points: 4
#     Node 28, Type 0, BuildingBlock: CEKHIL_clean_sbu_0, # of connection points: 4
#     Node 29, Type 0, BuildingBlock: CEKHIL_clean_sbu_0, # of connection points: 4
#     Node 30, Type 0, BuildingBlock: CEKHIL_clean_sbu_0, # of connection points: 4
#     Node 31, Type 0, BuildingBlock: CEKHIL_clean_sbu_0, # of connection points: 4
#     Edge 32, Type (0, 0), None
#     Edge 33, Type (0, 0), None
#     Edge 34, Type (0, 0), None
#     Edge 35, Type (0, 0), None
#     Edge 36, Type (0, 0), None
#     Edge 37, Type (0, 0), None
#     Edge 38, Type (0, 0), None
#     Edge 39, Type (0, 0), None
#     Edge 40, Type (0, 0), None
#     Edge 41, Type (0, 0), None
#     Edge 42, Type (0, 0), None
#     Edge 43, Type (0, 0), None
#     Edge 44, Type (0, 0), None
#     Edge 45, Type (0, 0), None
#     Edge 46, Type (0, 0), None
#     Edge 47, Type (0, 0), None
#     Edge 48, Type (0, 0), None
#     Edge 49, Type (0, 0), None
#     Edge 50, Type (0, 0), None
#     Edge 51, Type (0, 0), None
#     Edge 52, Type (0, 0), None
#     Edge 53, Type (0, 0), None
#     Edge 54, Type (0, 0), None
#     Edge 55, Type (0, 0), None
#     Edge 56, Type (0, 0), None
#     Edge 57, Type (0, 0), None
#     Edge 58, Type (0, 0), None
#     Edge 59, Type (0, 0), None
#     Edge 60, Type (0, 0), None
#     Edge 61, Type (0, 0), None
#     Edge 62, Type (0, 0), None
#     Edge 63, Type (0, 0), None
#     Edge 64, Type (0, 0), None
#     Edge 65, Type (0, 0), None
#     Edge 66, Type (0, 0), None
#     Edge 67, Type (0, 0), None
#     Edge 68, Type (0, 0), None
#     Edge 69, Type (0, 0), None
#     Edge 70, Type (0, 0), None
#     Edge 71, Type (0, 0), None
#     Edge 72, Type (0, 0), None
#     Edge 73, Type (0, 0), None
#     Edge 74, Type (0, 0), None
#     Edge 75, Type (0, 0), None
#     Edge 76, Type (0, 0), None
#     Edge 77, Type (0, 0), None
#     Edge 78, Type (0, 0), None
#     Edge 79, Type (0, 0), None
#     Edge 80, Type (0, 0), None
#     Edge 81, Type (0, 0), None
#     Edge 82, Type (0, 0), None
#     Edge 83, Type (0, 0), None
#     Edge 84, Type (0, 0), None
#     Edge 85, Type (0, 0), None
#     Edge 86, Type (0, 0), None
#     Edge 87, Type (0, 0), None
#     Edge 88, Type (0, 0), None
#     Edge 89, Type (0, 0), None
#     Edge 90, Type (0, 0), None
#     Edge 91, Type (0, 0), None
#     Edge 92, Type (0, 0), None
#     Edge 93, Type (0, 0), None
#     Edge 94, Type (0, 0), None
#     Edge 95, Type (0, 0), None
# Relax obj value: 0.075
# Max RMSD: 0.166
# Mean RMSD: 0.165
data_MOF--net-ukj--node1-CEKHIL_clean_sbu_0--edge1-none
_symmetry_space_group_name_H-M    P1
_symmetry_Int_Tables_number       1
_symmetry_cell_setting            triclinic
loop_
_symmetry_equiv_pos_as_xyz
'x, y, z'
_cell_length_a     14.132009
_cell_length_b     29.38451
_cell_length_c     23.78303
_cell_angle_alpha  90.000806
_cell_angle_beta   90.0
_cell_angle_gamma 90.010301
loop_
_atom_site_label
_atom_site_type_symbol
_atom_site_fract_x
_atom_site_fract_y
_atom_site_fract_z
_atom_type_partial_charge
Co0 Co 0.12932 0.33031 0.26897 0.0
O1 O 1.00042 0.30906 0.26702 0.0
O2 O 0.12611 0.26658 0.24833 0.0
C3 C 0.11609 0.36318 0.35277 0.0
O4 O 0.27233 0.34297 0.27042 0.0
Co5 Co 0.16363 0.4345 0.26881 0.0
O6 O 0.29719 0.41837 0.28276 0.0
C7 C 0.13046 0.38781 0.16085 0.0
C8 C 0.03485 0.26939 0.25596 0.0
C9 C 0.32736 0.37777 0.2779 0.0
O10 O 0.12444 0.34954 0.18705 0.0
O11 O 0.13943 0.42608 0.18605 0.0
O12 O 0.13167 0.31998 0.34933 0.0
O13 O 0.09924 0.38449 0.30602 0.0
Co14 Co 0.12839 0.91852 0.26897 0.0
O15 O 0.25729 0.93976 0.26701 0.0
O16 O 0.13159 0.98225 0.24834 0.0
C17 C 0.14164 0.88564 0.35277 0.0
O18 O 0.98538 0.90585 0.27043 0.0
Co19 Co 0.09409 0.81433 0.2688 0.0
O20 O 0.96053 0.83045 0.28276 0.0
C21 C 0.12725 0.86102 0.16084 0.0
C22 C 0.22286 0.97944 0.25596 0.0
C23 C 0.93036 0.87106 0.2779 0.0
O24 O 0.13327 0.89929 0.18705 0.0
O25 O 0.11828 0.82275 0.18604 0.0
O26 O 0.12605 0.92884 0.34934 0.0
O27 O 0.15848 0.86433 0.30602 0.0
Co28 Co 0.12936 0.91858 0.9906 0.0
O29 O 1.00046 0.9398 0.99268 0.0
O30 O 0.12617 0.9823 0.01135 0.0
C31 C 0.11602 0.88576 0.90678 0.0
O32 O 0.27238 0.9059 0.98905 0.0
Co33 Co 0.16351 0.81438 0.99067 0.0
O34 O 0.29708 0.83049 0.97667 0.0
C35 C 0.13058 0.86103 0.09868 0.0
C36 C 0.03487 0.97947 1.00383 0.0
C37 C 0.32733 0.87108 0.98154 0.0
O38 O 0.12461 0.89931 0.0725 0.0
O39 O 0.13943 0.82276 0.07345 0.0
O40 O 0.13158 0.92897 0.91024 0.0
O41 O 0.09921 0.86443 0.95351 0.0
Co42 Co 0.12834 0.33025 0.9906 0.0
O43 O 0.25724 0.30903 0.99268 0.0
O44 O 0.13153 0.26654 0.01135 0.0
C45 C 0.14168 0.36307 0.90678 0.0
O46 O 0.98532 0.34294 0.98906 0.0
Co47 Co 0.09418 0.43445 0.99067 0.0
O48 O 0.96061 0.41834 0.97667 0.0
C49 C 0.12712 0.38781 0.09868 0.0
C50 C 0.22282 0.26937 1.00383 0.0
C51 C 0.93036 0.37775 0.98154 0.0
O52 O 0.13309 0.34952 0.0725 0.0
O53 O 0.11826 0.42607 0.07345 0.0
O54 O 0.12612 0.31986 0.91024 0.0
O55 O 0.15848 0.3844 0.95352 0.0
Co56 Co 0.8784 0.66852 0.74095 0.0
O57 O 0.0073 0.68976 0.74291 0.0
O58 O 0.8816 0.73225 0.76159 0.0
C59 C 0.89164 0.63564 0.65715 0.0
O60 O 0.73539 0.65585 0.7395 0.0
Co61 Co 0.84409 0.56432 0.74112 0.0
O62 O 0.71053 0.58045 0.72716 0.0
C63 C 0.87725 0.61101 0.84908 0.0
C64 C 0.97287 0.72944 0.75396 0.0
C65 C 0.68036 0.62105 0.73202 0.0
O66 O 0.88328 0.64929 0.82287 0.0
O67 O 0.86828 0.57274 0.82388 0.0
O68 O 0.87605 0.67884 0.66059 0.0
O69 O 0.90848 0.61433 0.7039 0.0
Co70 Co 0.87932 0.08031 0.74095 0.0
O71 O 0.75042 0.05906 0.7429 0.0
O72 O 0.87612 0.01658 0.76159 0.0
C73 C 0.86608 0.11318 0.65715 0.0
O74 O 0.02233 0.09298 0.7395 0.0
Co75 Co 0.91363 0.1845 0.74112 0.0
O76 O 0.04719 0.16837 0.72716 0.0
C77 C 0.88046 0.13781 0.84908 0.0
C78 C 0.78485 0.01939 0.75396 0.0
C79 C 0.07736 0.12777 0.73202 0.0
O80 O 0.87444 0.09954 0.82287 0.0
O81 O 0.88943 0.17608 0.82388 0.0
O82 O 0.88167 0.06998 0.66058 0.0
O83 O 0.84924 0.13449 0.7039 0.0
Co84 Co 0.87834 0.08025 0.01932 0.0
O85 O 0.00724 0.05903 0.01724 0.0
O86 O 0.88153 0.01654 0.99857 0.0
C87 C 0.89168 0.11307 0.10314 0.0
O88 O 0.73532 0.09294 0.02086 0.0
Co89 Co 0.84418 0.18446 0.01925 0.0
O90 O 0.71061 0.16834 0.03325 0.0
C91 C 0.87712 0.13781 0.91124 0.0
C92 C 0.97282 0.01936 0.00609 0.0
C93 C 0.68036 0.12775 0.02838 0.0
O94 O 0.88309 0.09952 0.93742 0.0
O95 O 0.86826 0.17607 0.93647 0.0
O96 O 0.87611 0.06987 0.09968 0.0
O97 O 0.90848 0.1344 0.05641 0.0
Co98 Co 0.87935 0.66858 0.01932 0.0
O99 O 0.75045 0.68979 0.01724 0.0
O100 O 0.87616 0.73229 0.99857 0.0
C101 C 0.86601 0.63576 0.10314 0.0
O102 O 0.02237 0.65589 0.02087 0.0
Co103 Co 0.91351 0.56437 0.01925 0.0
O104 O 0.04708 0.58049 0.03325 0.0
C105 C 0.88058 0.61102 0.91124 0.0
C106 C 0.78487 0.72946 0.00609 0.0
C107 C 0.07733 0.62108 0.02838 0.0
O108 O 0.8746 0.6493 0.93743 0.0
O109 O 0.88943 0.57276 0.93647 0.0
O110 O 0.88157 0.67896 0.09969 0.0
O111 O 0.84921 0.61442 0.05641 0.0
Co112 Co 0.12932 0.8303 0.76897 0.0
O113 O 1.00042 0.80906 0.76702 0.0
O114 O 0.12612 0.76657 0.74834 0.0
C115 C 0.11607 0.86318 0.85277 0.0
O116 O 0.27233 0.84297 0.77042 0.0
Co117 Co 0.16362 0.9345 0.7688 0.0
O118 O 0.29718 0.91837 0.78276 0.0
C119 C 0.13046 0.8878 0.66084 0.0
C120 C 0.03485 0.76938 0.75596 0.0
C121 C 0.32735 0.87777 0.7779 0.0
O122 O 0.12444 0.84953 0.68705 0.0
O123 O 0.13943 0.92607 0.68604 0.0
O124 O 0.13167 0.81998 0.84934 0.0
O125 O 0.09923 0.88449 0.80602 0.0
Co126 Co 0.1284 0.41852 0.76897 0.0
O127 O 0.2573 0.43976 0.76702 0.0
O128 O 0.1316 0.48225 0.74833 0.0
C129 C 0.14163 0.38565 0.85277 0.0
O130 O 0.98539 0.40585 0.77042 0.0
Co131 Co 0.09409 0.31433 0.7688 0.0
O132 O 0.96053 0.33046 0.78276 0.0
C133 C 0.12726 0.36101 0.66084 0.0
C134 C 0.22287 0.47944 0.75596 0.0
C135 C 0.93036 0.37106 0.7779 0.0
O136 O 0.13328 0.39929 0.68705 0.0
O137 O 0.11829 0.32274 0.68604 0.0
O138 O 0.12605 0.42885 0.84934 0.0
O139 O 0.15847 0.36433 0.80602 0.0
Co140 Co 0.12938 0.41858 0.4906 0.0
O141 O 1.00047 0.43979 0.49268 0.0
O142 O 0.12618 0.48229 0.51135 0.0
C143 C 0.11603 0.38576 0.40678 0.0
O144 O 0.2724 0.40589 0.48906 0.0
Co145 Co 0.16354 0.31437 0.49067 0.0
O146 O 0.2971 0.33049 0.47667 0.0
C147 C 0.1306 0.36102 0.59868 0.0
C148 C 0.03489 0.47946 0.50384 0.0
C149 C 0.32735 0.37108 0.48154 0.0
O150 O 0.12462 0.3993 0.5725 0.0
O151 O 0.13945 0.32276 0.57345 0.0
O152 O 0.1316 0.42896 0.41024 0.0
O153 O 0.09924 0.36442 0.45352 0.0
Co154 Co 0.12835 0.83024 0.4906 0.0
O155 O 0.25725 0.80902 0.49268 0.0
O156 O 0.13154 0.76653 0.51135 0.0
C157 C 0.1417 0.86306 0.40678 0.0
O158 O 0.98533 0.84293 0.48905 0.0
Co159 Co 0.0942 0.93445 0.49067 0.0
O160 O 0.96063 0.91833 0.47667 0.0
C161 C 0.12713 0.8878 0.59868 0.0
C162 C 0.22284 0.76935 0.50383 0.0
C163 C 0.93038 0.87774 0.48154 0.0
O164 O 0.1331 0.84951 0.5725 0.0
O165 O 0.11827 0.92606 0.57345 0.0
O166 O 0.12613 0.81986 0.41023 0.0
O167 O 0.1585 0.88439 0.45351 0.0
Co168 Co 0.87839 0.16853 0.24095 0.0
O169 O 0.00729 0.18977 0.2429 0.0
O170 O 0.88159 0.23226 0.26159 0.0
C171 C 0.89163 0.13565 0.15715 0.0
O172 O 0.73538 0.15586 0.2395 0.0
Co173 Co 0.84409 0.06433 0.24112 0.0
O174 O 0.71052 0.08046 0.22716 0.0
C175 C 0.87726 0.11102 0.34907 0.0
C176 C 0.97286 0.22945 0.25396 0.0
C177 C 0.68035 0.12106 0.23202 0.0
O178 O 0.88327 0.1493 0.32287 0.0
O179 O 0.86829 0.07275 0.32388 0.0
O180 O 0.87603 0.17885 0.16058 0.0
O181 O 0.90847 0.11434 0.2039 0.0
Co182 Co 0.87931 0.5803 0.24095 0.0
O183 O 0.75042 0.55906 0.24291 0.0
O184 O 0.87612 0.51657 0.26159 0.0
C185 C 0.86607 0.61318 0.15715 0.0
O186 O 0.02233 0.59297 0.2395 0.0
Co187 Co 0.91362 0.6845 0.24112 0.0
O188 O 0.04718 0.66837 0.22717 0.0
C189 C 0.88046 0.63781 0.34908 0.0
C190 C 0.78485 0.51938 0.25396 0.0
C191 C 0.07735 0.62777 0.23202 0.0
O192 O 0.87444 0.59953 0.32287 0.0
O193 O 0.88943 0.67608 0.32388 0.0
O194 O 0.88166 0.56998 0.16058 0.0
O195 O 0.84923 0.63449 0.2039 0.0
Co196 Co 0.87835 0.58024 0.51932 0.0
O197 O 0.00725 0.55903 0.51724 0.0
O198 O 0.88154 0.51653 0.49857 0.0
C199 C 0.89169 0.61306 0.60314 0.0
O200 O 0.73533 0.59293 0.52087 0.0
Co201 Co 0.84419 0.68445 0.51925 0.0
O202 O 0.71063 0.66833 0.53325 0.0
C203 C 0.87713 0.6378 0.41124 0.0
C204 C 0.97284 0.51936 0.50609 0.0
C205 C 0.68038 0.62774 0.52838 0.0
O206 O 0.8831 0.59952 0.43743 0.0
O207 O 0.86827 0.67606 0.43647 0.0
O208 O 0.87613 0.56986 0.59968 0.0
O209 O 0.90849 0.6344 0.55641 0.0
Co210 Co 0.87938 0.16858 0.51932 0.0
O211 O 0.75048 0.1898 0.51724 0.0
O212 O 0.87619 0.2323 0.49857 0.0
C213 C 0.86603 0.13576 0.60314 0.0
O214 O 0.0224 0.1559 0.52087 0.0
Co215 Co 0.91354 0.06438 0.51925 0.0
O216 O 0.0471 0.08049 0.53325 0.0
C217 C 0.8806 0.11103 0.41124 0.0
C218 C 0.7849 0.22947 0.50609 0.0
C219 C 0.07735 0.12108 0.52838 0.0
O220 O 0.87463 0.14931 0.43742 0.0
O221 O 0.88945 0.07277 0.43647 0.0
O222 O 0.8816 0.17897 0.59968 0.0
O223 O 0.84924 0.11443 0.5564 0.0
Co224 Co 0.62932 0.33031 0.76897 0.0
O225 O 0.50042 0.30906 0.76702 0.0
O226 O 0.62612 0.26658 0.74833 0.0
C227 C 0.61609 0.36318 0.85277 0.0
O228 O 0.77233 0.34297 0.77042 0.0
Co229 Co 0.66364 0.4345 0.76881 0.0
O230 O 0.7972 0.41837 0.78276 0.0
C231 C 0.63047 0.38781 0.66085 0.0
C232 C 0.53485 0.26939 0.75596 0.0
C233 C 0.82736 0.37777 0.77791 0.0
O234 O 0.62444 0.34954 0.68705 0.0
O235 O 0.63944 0.42608 0.68605 0.0
O236 O 0.63167 0.31998 0.84934 0.0
O237 O 0.59925 0.38449 0.80602 0.0
Co238 Co 0.62839 0.91853 0.76898 0.0
O239 O 0.75729 0.93977 0.76702 0.0
O240 O 0.63159 0.98226 0.74834 0.0
C241 C 0.64162 0.88565 0.85277 0.0
O242 O 0.48538 0.90586 0.77043 0.0
Co243 Co 0.59408 0.81433 0.76881 0.0
O244 O 0.46052 0.83046 0.78276 0.0
C245 C 0.62726 0.86102 0.66085 0.0
C246 C 0.72286 0.97945 0.75597 0.0
C247 C 0.43035 0.87106 0.77791 0.0
O248 O 0.63327 0.8993 0.68706 0.0
O249 O 0.61829 0.82275 0.68605 0.0
O250 O 0.62604 0.92885 0.84934 0.0
O251 O 0.65847 0.86434 0.80603 0.0
Co252 Co 0.62938 0.91858 0.4906 0.0
O253 O 0.50048 0.9398 0.49268 0.0
O254 O 0.62619 0.98229 0.51135 0.0
C255 C 0.61604 0.88575 0.40678 0.0
O256 O 0.7724 0.90589 0.48906 0.0
Co257 Co 0.66354 0.81437 0.49068 0.0
O258 O 0.7971 0.83049 0.47667 0.0
C259 C 0.6306 0.86103 0.59869 0.0
C260 C 0.53489 0.97946 0.50383 0.0
C261 C 0.82735 0.87108 0.48154 0.0
O262 O 0.62463 0.89931 0.5725 0.0
O263 O 0.63945 0.82276 0.57346 0.0
O264 O 0.6316 0.92896 0.41024 0.0
O265 O 0.59924 0.86442 0.45352 0.0
Co266 Co 0.62835 0.33025 0.4906 0.0
O267 O 0.75726 0.30903 0.49268 0.0
O268 O 0.63155 0.26653 0.51135 0.0
C269 C 0.64169 0.36307 0.40678 0.0
O270 O 0.48533 0.34293 0.48906 0.0
Co271 Co 0.59419 0.43445 0.49068 0.0
O272 O 0.46062 0.41834 0.47667 0.0
C273 C 0.62713 0.3878 0.59868 0.0
C274 C 0.72284 0.26937 0.50383 0.0
C275 C 0.43038 0.37774 0.48154 0.0
O276 O 0.63311 0.34952 0.5725 0.0
O277 O 0.61827 0.42607 0.57346 0.0
O278 O 0.62613 0.31986 0.41024 0.0
O279 O 0.65849 0.3844 0.45352 0.0
Co280 Co 0.37839 0.66852 0.24095 0.0
O281 O 0.50729 0.68976 0.2429 0.0
O282 O 0.38159 0.73225 0.26159 0.0
C283 C 0.39162 0.63564 0.15715 0.0
O284 O 0.23538 0.65585 0.2395 0.0
Co285 Co 0.34408 0.56433 0.24111 0.0
O286 O 0.21051 0.58046 0.22716 0.0
C287 C 0.37725 0.61101 0.34907 0.0
C288 C 0.47286 0.72944 0.25396 0.0
C289 C 0.18035 0.62106 0.23201 0.0
O290 O 0.38327 0.64929 0.32287 0.0
O291 O 0.36828 0.57274 0.32387 0.0
O292 O 0.37603 0.67885 0.16058 0.0
O293 O 0.40846 0.61433 0.2039 0.0
Co294 Co 0.37932 0.0803 0.24094 0.0
O295 O 0.25042 0.05906 0.2429 0.0
O296 O 0.37612 0.01657 0.26158 0.0
C297 C 0.36608 0.11318 0.15715 0.0
O298 O 0.52233 0.09297 0.2395 0.0
Co299 Co 0.41363 0.1845 0.24112 0.0
O300 O 0.54719 0.16837 0.22716 0.0
C301 C 0.38046 0.13781 0.34908 0.0
C302 C 0.28485 0.01938 0.25396 0.0
C303 C 0.57735 0.12777 0.23201 0.0
O304 O 0.37444 0.09953 0.32287 0.0
O305 O 0.38943 0.17608 0.32388 0.0
O306 O 0.38167 0.06998 0.16058 0.0
O307 O 0.34924 0.13449 0.2039 0.0
Co308 Co 0.37835 0.08025 0.51932 0.0
O309 O 0.50726 0.05903 0.51724 0.0
O310 O 0.38155 0.01653 0.49857 0.0
C311 C 0.39169 0.11307 0.60314 0.0
O312 O 0.23533 0.09293 0.52086 0.0
Co313 Co 0.34419 0.18445 0.51925 0.0
O314 O 0.21063 0.16834 0.53325 0.0
C315 C 0.37713 0.1378 0.41124 0.0
C316 C 0.47284 0.01936 0.50609 0.0
C317 C 0.18038 0.12775 0.52839 0.0
O318 O 0.3831 0.09952 0.43742 0.0
O319 O 0.36827 0.17606 0.43647 0.0
O320 O 0.37613 0.06986 0.59968 0.0
O321 O 0.40849 0.1344 0.55641 0.0
Co322 Co 0.37938 0.66857 0.51932 0.0
O323 O 0.25047 0.68979 0.51724 0.0
O324 O 0.37618 0.73229 0.49857 0.0
C325 C 0.36604 0.63575 0.60314 0.0
O326 O 0.52239 0.65589 0.52086 0.0
Co327 Co 0.41354 0.56437 0.51924 0.0
O328 O 0.5471 0.58048 0.53325 0.0
C329 C 0.3806 0.61102 0.41124 0.0
C330 C 0.28489 0.72946 0.50609 0.0
C331 C 0.57735 0.62108 0.52839 0.0
O332 O 0.37462 0.6493 0.43742 0.0
O333 O 0.38945 0.57276 0.43646 0.0
O334 O 0.3816 0.67896 0.59968 0.0
O335 O 0.34924 0.61442 0.5564 0.0
Co336 Co 0.62932 0.8303 0.26898 0.0
O337 O 0.50042 0.80905 0.26702 0.0
O338 O 0.62612 0.76657 0.24834 0.0
C339 C 0.61608 0.86318 0.35277 0.0
O340 O 0.77233 0.84297 0.27043 0.0
Co341 Co 0.66363 0.93449 0.26881 0.0
O342 O 0.79719 0.91836 0.28276 0.0
C343 C 0.63045 0.8878 0.16085 0.0
C344 C 0.53485 0.76938 0.25597 0.0
C345 C 0.82736 0.87776 0.27791 0.0
O346 O 0.62444 0.84953 0.18706 0.0
O347 O 0.63942 0.92607 0.18605 0.0
O348 O 0.63168 0.81997 0.34934 0.0
O349 O 0.59924 0.88448 0.30603 0.0
Co350 Co 0.62839 0.41852 0.26898 0.0
O351 O 0.75729 0.43977 0.26702 0.0
O352 O 0.63159 0.48225 0.24834 0.0
C353 C 0.64164 0.38565 0.35277 0.0
O354 O 0.48538 0.40585 0.27042 0.0
Co355 Co 0.59408 0.31433 0.2688 0.0
O356 O 0.46052 0.33046 0.28276 0.0
C357 C 0.62725 0.36102 0.16085 0.0
C358 C 0.72286 0.47944 0.25596 0.0
C359 C 0.43036 0.37106 0.27791 0.0
O360 O 0.63327 0.39929 0.18705 0.0
O361 O 0.61828 0.32275 0.18604 0.0
O362 O 0.62604 0.42885 0.34934 0.0
O363 O 0.65847 0.36434 0.30602 0.0
Co364 Co 0.62936 0.41858 0.9906 0.0
O365 O 0.50046 0.43979 0.99268 0.0
O366 O 0.62616 0.48229 0.01135 0.0
C367 C 0.61602 0.38576 0.90678 0.0
O368 O 0.77238 0.4059 0.98906 0.0
Co369 Co 0.66352 0.31437 0.99067 0.0
O370 O 0.79709 0.33049 0.97667 0.0
C371 C 0.63059 0.36102 0.09868 0.0
C372 C 0.53487 0.47946 1.00384 0.0
C373 C 0.82734 0.37108 0.98154 0.0
O374 O 0.62461 0.39931 0.0725 0.0
O375 O 0.63944 0.32276 0.07345 0.0
O376 O 0.63158 0.42897 0.91024 0.0
O377 O 0.59922 0.36443 0.95352 0.0
Co378 Co 0.62833 0.83025 0.9906 0.0
O379 O 0.75723 0.80903 0.99268 0.0
O380 O 0.63152 0.76653 0.01135 0.0
C381 C 0.64168 0.86307 0.90678 0.0
O382 O 0.48531 0.84293 0.98906 0.0
Co383 Co 0.59417 0.93445 0.99068 0.0
O384 O 0.46061 0.91834 0.97667 0.0
C385 C 0.62711 0.8878 0.09869 0.0
C386 C 0.72281 0.76936 1.00383 0.0
C387 C 0.43036 0.87774 0.98154 0.0
O388 O 0.63308 0.84952 0.0725 0.0
O389 O 0.61826 0.92606 0.07346 0.0
O390 O 0.62611 0.81986 0.91024 0.0
O391 O 0.65847 0.8844 0.95352 0.0
Co392 Co 0.37839 0.16853 0.74095 0.0
O393 O 0.50729 0.18977 0.7429 0.0
O394 O 0.38159 0.23226 0.76159 0.0
C395 C 0.39164 0.13565 0.65715 0.0
O396 O 0.23538 0.15586 0.7395 0.0
Co397 Co 0.34408 0.06433 0.74112 0.0
O398 O 0.21052 0.08046 0.72716 0.0
C399 C 0.37725 0.11102 0.84907 0.0
C400 C 0.47286 0.22945 0.75396 0.0
C401 C 0.18036 0.12106 0.73201 0.0
O402 O 0.38327 0.1493 0.82287 0.0
O403 O 0.36828 0.07275 0.82388 0.0
O404 O 0.37604 0.17885 0.66058 0.0
O405 O 0.40847 0.11434 0.7039 0.0
Co406 Co 0.37933 0.5803 0.74094 0.0
O407 O 0.25043 0.55905 0.7429 0.0
O408 O 0.37613 0.51657 0.76158 0.0
C409 C 0.36609 0.61317 0.65715 0.0
O410 O 0.52234 0.59297 0.7395 0.0
Co411 Co 0.41364 0.68449 0.74112 0.0
O412 O 0.5472 0.66836 0.72716 0.0
C413 C 0.38046 0.6378 0.84907 0.0
C414 C 0.28486 0.51938 0.75396 0.0
C415 C 0.57736 0.62776 0.73201 0.0
O416 O 0.37444 0.59953 0.82287 0.0
O417 O 0.38943 0.67607 0.82388 0.0
O418 O 0.38168 0.56997 0.66058 0.0
O419 O 0.34925 0.63448 0.7039 0.0
Co420 Co 0.37833 0.58024 0.01932 0.0
O421 O 0.50723 0.55903 0.01724 0.0
O422 O 0.38152 0.51653 0.99857 0.0
C423 C 0.39167 0.61307 0.10314 0.0
O424 O 0.23531 0.59293 0.02086 0.0
Co425 Co 0.34417 0.68445 0.01924 0.0
O426 O 0.2106 0.66833 0.03325 0.0
C427 C 0.37711 0.6378 0.91124 0.0
C428 C 0.47281 0.51936 0.00609 0.0
C429 C 0.18035 0.62774 0.02839 0.0
O430 O 0.38308 0.59952 0.93742 0.0
O431 O 0.36826 0.67606 0.93647 0.0
O432 O 0.3761 0.56986 0.09968 0.0
O433 O 0.40847 0.6344 0.0564 0.0
Co434 Co 0.37936 0.16858 0.01932 0.0
O435 O 0.25046 0.1898 0.01724 0.0
O436 O 0.37617 0.2323 0.99858 0.0
C437 C 0.36602 0.13576 0.10314 0.0
O438 O 0.52238 0.1559 0.02087 0.0
Co439 Co 0.41352 0.06438 0.01925 0.0
O440 O 0.54709 0.08049 0.03325 0.0
C441 C 0.38059 0.11103 0.91124 0.0
C442 C 0.28488 0.22947 0.00609 0.0
C443 C 0.57734 0.12109 0.02839 0.0
O444 O 0.37461 0.14931 0.93742 0.0
O445 O 0.38944 0.07277 0.93646 0.0
O446 O 0.38158 0.17897 0.09969 0.0
O447 O 0.34922 0.11443 0.0564 0.0
loop_
_geom_bond_atom_site_label_1
_geom_bond_atom_site_label_2
_geom_bond_distance
_geom_bond_site_symmetry_2
_ccdc_geom_bond_type
Co0 O1 2.216 1_455 S
Co0 O2 2.091 . S
Co0 O4 2.004 . S
Co0 O10 2.021 . S
Co0 O12 2.137 . S
Co0 O13 2.244 . S
O1 Co0 2.216 1_655 S
O1 C8 1.247 1_655 S
O2 Co0 2.091 . S
O2 C8 1.261 . S
C3 O12 1.247 . S
C3 O13 1.272 . S
O4 Co0 2.004 . S
O4 C9 1.259 . S
Co5 O6 2.061 . S
Co5 O11 2.052 . S
Co5 O13 2.135 . S
O6 Co5 2.061 . S
O6 C9 1.235 . S
C7 O10 1.238 . S
C7 O11 1.241 . S
C8 O1 1.247 1_455 S
C8 O2 1.261 . S
C9 O4 1.259 . S
C9 O6 1.235 . S
O10 Co0 2.021 . S
O10 C7 1.238 . S
O11 Co5 2.052 . S
O11 C7 1.241 . S
O12 Co0 2.137 . S
O12 C3 1.247 . S
O13 Co0 2.244 . S
O13 C3 1.272 . S
O13 Co5 2.135 . S
Co14 O15 2.216 . S
Co14 O16 2.091 . S
Co14 O18 2.004 1_455 S
Co14 O24 2.021 . S
Co14 O26 2.137 . S
Co14 O27 2.244 . S
O15 Co14 2.216 . S
O15 C22 1.247 . S
O16 Co14 2.091 . S
O16 C22 1.261 . S
C17 O26 1.247 . S
C17 O27 1.272 . S
O18 Co14 2.004 1_655 S
O18 C23 1.259 . S
Co19 O20 2.061 1_455 S
Co19 O25 2.052 . S
Co19 O27 2.135 . S
O20 Co19 2.061 1_655 S
O20 C23 1.235 . S
C21 O24 1.238 . S
C21 O25 1.241 . S
C22 O15 1.247 . S
C22 O16 1.261 . S
C23 O18 1.259 . S
C23 O20 1.235 . S
O24 Co14 2.021 . S
O24 C21 1.238 . S
O25 Co19 2.052 . S
O25 C21 1.241 . S
O26 Co14 2.137 . S
O26 C17 1.247 . S
O27 Co14 2.244 . S
O27 C17 1.272 . S
O27 Co19 2.135 . S
Co28 O29 2.216 1_455 S
Co28 O30 2.091 . S
Co28 O32 2.004 . S
Co28 O38 2.021 1_556 S
Co28 O40 2.137 . S
Co28 O41 2.244 . S
O29 Co28 2.216 1_655 S
O29 C36 1.247 1_655 S
O30 Co28 2.091 . S
O30 C36 1.261 . S
C31 O40 1.247 . S
C31 O41 1.272 . S
O32 Co28 2.004 . S
O32 C37 1.262 . S
Co33 O34 2.061 . S
Co33 O39 2.052 . S
Co33 O41 2.135 1_554 S
O34 Co33 2.061 . S
O34 C37 1.232 1_554 S
C35 O38 1.238 . S
C35 O39 1.241 . S
C36 O29 1.247 1_455 S
C36 O30 1.261 . S
C37 O32 1.262 . S
C37 O34 1.232 1_556 S
O38 Co28 2.021 1_554 S
O38 C35 1.238 . S
O39 Co33 2.052 . S
O39 C35 1.241 . S
O40 Co28 2.137 . S
O40 C31 1.247 . S
O41 Co28 2.244 . S
O41 C31 1.272 . S
O41 Co33 2.135 1_556 S
Co42 O43 2.216 . S
Co42 O44 2.091 . S
Co42 O46 2.004 1_455 S
Co42 O52 2.021 1_556 S
Co42 O54 2.137 . S
Co42 O55 2.244 . S
O43 Co42 2.216 . S
O43 C50 1.247 . S
O44 Co42 2.091 . S
O44 C50 1.261 . S
C45 O54 1.247 . S
C45 O55 1.272 . S
O46 Co42 2.004 1_655 S
O46 C51 1.262 . S
Co47 O48 2.061 1_455 S
Co47 O53 2.052 . S
Co47 O55 2.135 1_554 S
O48 Co47 2.061 1_655 S
O48 C51 1.232 1_554 S
C49 O52 1.238 . S
C49 O53 1.241 . S
C50 O43 1.247 . S
C50 O44 1.261 . S
C51 O46 1.262 . S
C51 O48 1.232 1_556 S
O52 Co42 2.021 1_554 S
O52 C49 1.238 . S
O53 Co47 2.052 . S
O53 C49 1.241 . S
O54 Co42 2.137 . S
O54 C45 1.247 . S
O55 Co42 2.244 . S
O55 C45 1.272 . S
O55 Co47 2.135 1_556 S
Co56 O57 2.216 1_655 S
Co56 O58 2.091 . S
Co56 O60 2.004 . S
Co56 O66 2.021 . S
Co56 O68 2.137 . S
Co56 O69 2.244 . S
O57 Co56 2.216 1_455 S
O57 C64 1.247 1_455 S
O58 Co56 2.091 . S
O58 C64 1.261 . S
C59 O68 1.247 . S
C59 O69 1.272 . S
O60 Co56 2.004 . S
O60 C65 1.259 . S
Co61 O62 2.061 . S
Co61 O67 2.052 . S
Co61 O69 2.135 . S
O62 Co61 2.061 . S
O62 C65 1.235 . S
C63 O66 1.238 . S
C63 O67 1.241 . S
C64 O57 1.247 1_655 S
C64 O58 1.261 . S
C65 O60 1.259 . S
C65 O62 1.235 . S
O66 Co56 2.021 . S
O66 C63 1.238 . S
O67 Co61 2.052 . S
O67 C63 1.241 . S
O68 Co56 2.137 . S
O68 C59 1.247 . S
O69 Co56 2.244 . S
O69 C59 1.272 . S
O69 Co61 2.135 . S
Co70 O71 2.216 . S
Co70 O72 2.091 . S
Co70 O74 2.004 1_655 S
Co70 O80 2.021 . S
Co70 O82 2.137 . S
Co70 O83 2.244 . S
O71 Co70 2.216 . S
O71 C78 1.247 . S
O72 Co70 2.091 . S
O72 C78 1.261 . S
C73 O82 1.247 . S
C73 O83 1.272 . S
O74 Co70 2.004 1_455 S
O74 C79 1.259 . S
Co75 O76 2.061 1_655 S
Co75 O81 2.052 . S
Co75 O83 2.135 . S
O76 Co75 2.061 1_455 S
O76 C79 1.235 . S
C77 O80 1.238 . S
C77 O81 1.241 . S
C78 O71 1.247 . S
C78 O72 1.261 . S
C79 O74 1.259 . S
C79 O76 1.235 . S
O80 Co70 2.021 . S
O80 C77 1.238 . S
O81 Co75 2.052 . S
O81 C77 1.241 . S
O82 Co70 2.137 . S
O82 C73 1.247 . S
O83 Co70 2.244 . S
O83 C73 1.272 . S
O83 Co75 2.135 . S
Co84 O85 2.216 1_655 S
Co84 O86 2.091 . S
Co84 O88 2.004 . S
Co84 O94 2.021 1_554 S
Co84 O96 2.137 . S
Co84 O97 2.244 . S
O85 Co84 2.216 1_455 S
O85 C92 1.247 1_455 S
O86 Co84 2.091 . S
O86 C92 1.261 . S
C87 O96 1.247 . S
C87 O97 1.272 . S
O88 Co84 2.004 . S
O88 C93 1.262 . S
Co89 O90 2.061 . S
Co89 O95 2.052 . S
Co89 O97 2.135 1_556 S
O90 Co89 2.061 . S
O90 C93 1.232 1_556 S
C91 O94 1.238 . S
C91 O95 1.241 . S
C92 O85 1.247 1_655 S
C92 O86 1.261 . S
C93 O88 1.262 . S
C93 O90 1.232 1_554 S
O94 Co84 2.021 1_556 S
O94 C91 1.238 . S
O95 Co89 2.052 . S
O95 C91 1.241 . S
O96 Co84 2.137 . S
O96 C87 1.247 . S
O97 Co84 2.244 . S
O97 C87 1.272 . S
O97 Co89 2.135 1_554 S
Co98 O99 2.216 . S
Co98 O100 2.091 . S
Co98 O102 2.004 1_655 S
Co98 O108 2.021 1_554 S
Co98 O110 2.137 . S
Co98 O111 2.244 . S
O99 Co98 2.216 . S
O99 C106 1.247 . S
O100 Co98 2.091 . S
O100 C106 1.261 . S
C101 O110 1.247 . S
C101 O111 1.272 . S
O102 Co98 2.004 1_455 S
O102 C107 1.262 . S
Co103 O104 2.061 1_655 S
Co103 O109 2.052 . S
Co103 O111 2.135 1_556 S
O104 Co103 2.061 1_455 S
O104 C107 1.232 1_556 S
C105 O108 1.238 . S
C105 O109 1.241 . S
C106 O99 1.247 . S
C106 O100 1.261 . S
C107 O102 1.262 . S
C107 O104 1.232 1_554 S
O108 Co98 2.021 1_556 S
O108 C105 1.238 . S
O109 Co103 2.052 . S
O109 C105 1.241 . S
O110 Co98 2.137 . S
O110 C101 1.247 . S
O111 Co98 2.244 . S
O111 C101 1.272 . S
O111 Co103 2.135 1_554 S
Co112 O113 2.216 1_455 S
Co112 O114 2.091 . S
Co112 O116 2.004 . S
Co112 O122 2.021 . S
Co112 O124 2.137 . S
Co112 O125 2.244 . S
O113 Co112 2.216 1_655 S
O113 C120 1.247 1_655 S
O114 Co112 2.091 . S
O114 C120 1.261 . S
C115 O124 1.247 . S
C115 O125 1.272 . S
O116 Co112 2.004 . S
O116 C121 1.259 . S
Co117 O118 2.061 . S
Co117 O123 2.052 . S
Co117 O125 2.135 . S
O118 Co117 2.061 . S
O118 C121 1.235 . S
C119 O122 1.238 . S
C119 O123 1.241 . S
C120 O113 1.247 1_455 S
C120 O114 1.261 . S
C121 O116 1.259 . S
C121 O118 1.235 . S
O122 Co112 2.021 . S
O122 C119 1.238 . S
O123 Co117 2.052 . S
O123 C119 1.241 . S
O124 Co112 2.137 . S
O124 C115 1.247 . S
O125 Co112 2.244 . S
O125 C115 1.272 . S
O125 Co117 2.135 . S
Co126 O127 2.216 . S
Co126 O128 2.091 . S
Co126 O130 2.004 1_455 S
Co126 O136 2.021 . S
Co126 O138 2.137 . S
Co126 O139 2.244 . S
O127 Co126 2.216 . S
O127 C134 1.247 . S
O128 Co126 2.091 . S
O128 C134 1.261 . S
C129 O138 1.247 . S
C129 O139 1.272 . S
O130 Co126 2.004 1_655 S
O130 C135 1.259 . S
Co131 O132 2.061 1_455 S
Co131 O137 2.052 . S
Co131 O139 2.135 . S
O132 Co131 2.061 1_655 S
O132 C135 1.235 . S
C133 O136 1.238 . S
C133 O137 1.241 . S
C134 O127 1.247 . S
C134 O128 1.261 . S
C135 O130 1.259 . S
C135 O132 1.235 . S
O136 Co126 2.021 . S
O136 C133 1.238 . S
O137 Co131 2.052 . S
O137 C133 1.241 . S
O138 Co126 2.137 . S
O138 C129 1.247 . S
O139 Co126 2.244 . S
O139 C129 1.272 . S
O139 Co131 2.135 . S
Co140 O141 2.216 1_455 S
Co140 O142 2.091 . S
Co140 O144 2.004 . S
Co140 O150 2.021 . S
Co140 O152 2.137 . S
Co140 O153 2.244 . S
O141 Co140 2.216 1_655 S
O141 C148 1.247 1_655 S
O142 Co140 2.091 . S
O142 C148 1.261 . S
C143 O152 1.247 . S
C143 O153 1.272 . S
O144 Co140 2.004 . S
O144 C149 1.259 . S
Co145 O146 2.061 . S
Co145 O151 2.052 . S
Co145 O153 2.135 . S
O146 Co145 2.061 . S
O146 C149 1.235 . S
C147 O150 1.238 . S
C147 O151 1.241 . S
C148 O141 1.247 1_455 S
C148 O142 1.261 . S
C149 O144 1.259 . S
C149 O146 1.235 . S
O150 Co140 2.021 . S
O150 C147 1.238 . S
O151 Co145 2.052 . S
O151 C147 1.241 . S
O152 Co140 2.137 . S
O152 C143 1.247 . S
O153 Co140 2.244 . S
O153 C143 1.272 . S
O153 Co145 2.135 . S
Co154 O155 2.216 . S
Co154 O156 2.091 . S
Co154 O158 2.004 1_455 S
Co154 O164 2.021 . S
Co154 O166 2.137 . S
Co154 O167 2.244 . S
O155 Co154 2.216 . S
O155 C162 1.247 . S
O156 Co154 2.091 . S
O156 C162 1.261 . S
C157 O166 1.247 . S
C157 O167 1.272 . S
O158 Co154 2.004 1_655 S
O158 C163 1.259 . S
Co159 O160 2.061 1_455 S
Co159 O165 2.052 . S
Co159 O167 2.135 . S
O160 Co159 2.061 1_655 S
O160 C163 1.235 . S
C161 O164 1.238 . S
C161 O165 1.241 . S
C162 O155 1.247 . S
C162 O156 1.261 . S
C163 O158 1.259 . S
C163 O160 1.235 . S
O164 Co154 2.021 . S
O164 C161 1.238 . S
O165 Co159 2.052 . S
O165 C161 1.241 . S
O166 Co154 2.137 . S
O166 C157 1.247 . S
O167 Co154 2.244 . S
O167 C157 1.272 . S
O167 Co159 2.135 . S
Co168 O169 2.216 1_655 S
Co168 O170 2.091 . S
Co168 O172 2.004 . S
Co168 O178 2.021 . S
Co168 O180 2.137 . S
Co168 O181 2.244 . S
O169 Co168 2.216 1_455 S
O169 C176 1.247 1_455 S
O170 Co168 2.091 . S
O170 C176 1.261 . S
C171 O180 1.247 . S
C171 O181 1.272 . S
O172 Co168 2.004 . S
O172 C177 1.259 . S
Co173 O174 2.061 . S
Co173 O179 2.052 . S
Co173 O181 2.135 . S
O174 Co173 2.061 . S
O174 C177 1.235 . S
C175 O178 1.238 . S
C175 O179 1.241 . S
C176 O169 1.247 1_655 S
C176 O170 1.261 . S
C177 O172 1.259 . S
C177 O174 1.235 . S
O178 Co168 2.021 . S
O178 C175 1.238 . S
O179 Co173 2.052 . S
O179 C175 1.241 . S
O180 Co168 2.137 . S
O180 C171 1.247 . S
O181 Co168 2.244 . S
O181 C171 1.272 . S
O181 Co173 2.135 . S
Co182 O183 2.216 . S
Co182 O184 2.091 . S
Co182 O186 2.004 1_655 S
Co182 O192 2.021 . S
Co182 O194 2.137 . S
Co182 O195 2.244 . S
O183 Co182 2.216 . S
O183 C190 1.247 . S
O184 Co182 2.091 . S
O184 C190 1.261 . S
C185 O194 1.247 . S
C185 O195 1.272 . S
O186 Co182 2.004 1_455 S
O186 C191 1.259 . S
Co187 O188 2.061 1_655 S
Co187 O193 2.052 . S
Co187 O195 2.135 . S
O188 Co187 2.061 1_455 S
O188 C191 1.235 . S
C189 O192 1.238 . S
C189 O193 1.241 . S
C190 O183 1.247 . S
C190 O184 1.261 . S
C191 O186 1.259 . S
C191 O188 1.235 . S
O192 Co182 2.021 . S
O192 C189 1.238 . S
O193 Co187 2.052 . S
O193 C189 1.241 . S
O194 Co182 2.137 . S
O194 C185 1.247 . S
O195 Co182 2.244 . S
O195 C185 1.272 . S
O195 Co187 2.135 . S
Co196 O197 2.216 1_655 S
Co196 O198 2.091 . S
Co196 O200 2.004 . S
Co196 O206 2.021 . S
Co196 O208 2.137 . S
Co196 O209 2.244 . S
O197 Co196 2.216 1_455 S
O197 C204 1.247 1_455 S
O198 Co196 2.091 . S
O198 C204 1.261 . S
C199 O208 1.247 . S
C199 O209 1.272 . S
O200 Co196 2.004 . S
O200 C205 1.259 . S
Co201 O202 2.061 . S
Co201 O207 2.052 . S
Co201 O209 2.135 . S
O202 Co201 2.061 . S
O202 C205 1.235 . S
C203 O206 1.238 . S
C203 O207 1.241 . S
C204 O197 1.247 1_655 S
C204 O198 1.261 . S
C205 O200 1.259 . S
C205 O202 1.235 . S
O206 Co196 2.021 . S
O206 C203 1.238 . S
O207 Co201 2.052 . S
O207 C203 1.241 . S
O208 Co196 2.137 . S
O208 C199 1.247 . S
O209 Co196 2.244 . S
O209 C199 1.272 . S
O209 Co201 2.135 . S
Co210 O211 2.216 . S
Co210 O212 2.091 . S
Co210 O214 2.004 1_655 S
Co210 O220 2.021 . S
Co210 O222 2.137 . S
Co210 O223 2.244 . S
O211 Co210 2.216 . S
O211 C218 1.247 . S
O212 Co210 2.091 . S
O212 C218 1.261 . S
C213 O222 1.247 . S
C213 O223 1.272 . S
O214 Co210 2.004 1_455 S
O214 C219 1.259 . S
Co215 O216 2.061 1_655 S
Co215 O221 2.052 . S
Co215 O223 2.135 . S
O216 Co215 2.061 1_455 S
O216 C219 1.235 . S
C217 O220 1.238 . S
C217 O221 1.241 . S
C218 O211 1.247 . S
C218 O212 1.261 . S
C219 O214 1.259 . S
C219 O216 1.235 . S
O220 Co210 2.021 . S
O220 C217 1.238 . S
O221 Co215 2.052 . S
O221 C217 1.241 . S
O222 Co210 2.137 . S
O222 C213 1.247 . S
O223 Co210 2.244 . S
O223 C213 1.272 . S
O223 Co215 2.135 . S
Co224 O225 2.216 . S
Co224 O226 2.091 . S
Co224 O228 2.004 . S
Co224 O234 2.021 . S
Co224 O236 2.137 . S
Co224 O237 2.244 . S
O225 Co224 2.216 . S
O225 C232 1.247 . S
O226 Co224 2.091 . S
O226 C232 1.261 . S
C227 O236 1.247 . S
C227 O237 1.272 . S
O228 Co224 2.004 . S
O228 C233 1.259 . S
Co229 O230 2.061 . S
Co229 O235 2.052 . S
Co229 O237 2.135 . S
O230 Co229 2.061 . S
O230 C233 1.235 . S
C231 O234 1.238 . S
C231 O235 1.241 . S
C232 O225 1.247 . S
C232 O226 1.261 . S
C233 O228 1.259 . S
C233 O230 1.235 . S
O234 Co224 2.021 . S
O234 C231 1.238 . S
O235 Co229 2.052 . S
O235 C231 1.241 . S
O236 Co224 2.137 . S
O236 C227 1.247 . S
O237 Co224 2.244 . S
O237 C227 1.272 . S
O237 Co229 2.135 . S
Co238 O239 2.216 . S
Co238 O240 2.091 . S
Co238 O242 2.004 . S
Co238 O248 2.021 . S
Co238 O250 2.137 . S
Co238 O251 2.244 . S
O239 Co238 2.216 . S
O239 C246 1.247 . S
O240 Co238 2.091 . S
O240 C246 1.261 . S
C241 O250 1.247 . S
C241 O251 1.272 . S
O242 Co238 2.004 . S
O242 C247 1.259 . S
Co243 O244 2.061 . S
Co243 O249 2.052 . S
Co243 O251 2.135 . S
O244 Co243 2.061 . S
O244 C247 1.235 . S
C245 O248 1.238 . S
C245 O249 1.241 . S
C246 O239 1.247 . S
C246 O240 1.261 . S
C247 O242 1.259 . S
C247 O244 1.235 . S
O248 Co238 2.021 . S
O248 C245 1.238 . S
O249 Co243 2.052 . S
O249 C245 1.241 . S
O250 Co238 2.137 . S
O250 C241 1.247 . S
O251 Co238 2.244 . S
O251 C241 1.272 . S
O251 Co243 2.135 . S
Co252 O253 2.216 . S
Co252 O254 2.091 . S
Co252 O256 2.004 . S
Co252 O262 2.021 . S
Co252 O264 2.137 . S
Co252 O265 2.244 . S
O253 Co252 2.216 . S
O253 C260 1.247 . S
O254 Co252 2.091 . S
O254 C260 1.261 . S
C255 O264 1.247 . S
C255 O265 1.272 . S
O256 Co252 2.004 . S
O256 C261 1.259 . S
Co257 O258 2.061 . S
Co257 O263 2.052 . S
Co257 O265 2.135 . S
O258 Co257 2.061 . S
O258 C261 1.235 . S
C259 O262 1.238 . S
C259 O263 1.241 . S
C260 O253 1.247 . S
C260 O254 1.261 . S
C261 O256 1.259 . S
C261 O258 1.235 . S
O262 Co252 2.021 . S
O262 C259 1.238 . S
O263 Co257 2.052 . S
O263 C259 1.241 . S
O264 Co252 2.137 . S
O264 C255 1.247 . S
O265 Co252 2.244 . S
O265 C255 1.272 . S
O265 Co257 2.135 . S
Co266 O267 2.216 . S
Co266 O268 2.091 . S
Co266 O270 2.004 . S
Co266 O276 2.021 . S
Co266 O278 2.137 . S
Co266 O279 2.244 . S
O267 Co266 2.216 . S
O267 C274 1.247 . S
O268 Co266 2.091 . S
O268 C274 1.261 . S
C269 O278 1.247 . S
C269 O279 1.272 . S
O270 Co266 2.004 . S
O270 C275 1.259 . S
Co271 O272 2.061 . S
Co271 O277 2.052 . S
Co271 O279 2.135 . S
O272 Co271 2.061 . S
O272 C275 1.235 . S
C273 O276 1.238 . S
C273 O277 1.241 . S
C274 O267 1.247 . S
C274 O268 1.261 . S
C275 O270 1.259 . S
C275 O272 1.235 . S
O276 Co266 2.021 . S
O276 C273 1.238 . S
O277 Co271 2.052 . S
O277 C273 1.241 . S
O278 Co266 2.137 . S
O278 C269 1.247 . S
O279 Co266 2.244 . S
O279 C269 1.272 . S
O279 Co271 2.135 . S
Co280 O281 2.216 . S
Co280 O282 2.091 . S
Co280 O284 2.004 . S
Co280 O290 2.021 . S
Co280 O292 2.137 . S
Co280 O293 2.244 . S
O281 Co280 2.216 . S
O281 C288 1.247 . S
O282 Co280 2.091 . S
O282 C288 1.261 . S
C283 O292 1.247 . S
C283 O293 1.272 . S
O284 Co280 2.004 . S
O284 C289 1.259 . S
Co285 O286 2.061 . S
Co285 O291 2.052 . S
Co285 O293 2.135 . S
O286 Co285 2.061 . S
O286 C289 1.235 . S
C287 O290 1.238 . S
C287 O291 1.241 . S
C288 O281 1.247 . S
C288 O282 1.261 . S
C289 O284 1.259 . S
C289 O286 1.235 . S
O290 Co280 2.021 . S
O290 C287 1.238 . S
O291 Co285 2.052 . S
O291 C287 1.241 . S
O292 Co280 2.137 . S
O292 C283 1.247 . S
O293 Co280 2.244 . S
O293 C283 1.272 . S
O293 Co285 2.135 . S
Co294 O295 2.216 . S
Co294 O296 2.091 . S
Co294 O298 2.004 . S
Co294 O304 2.021 . S
Co294 O306 2.137 . S
Co294 O307 2.244 . S
O295 Co294 2.216 . S
O295 C302 1.247 . S
O296 Co294 2.091 . S
O296 C302 1.261 . S
C297 O306 1.247 . S
C297 O307 1.272 . S
O298 Co294 2.004 . S
O298 C303 1.259 . S
Co299 O300 2.061 . S
Co299 O305 2.052 . S
Co299 O307 2.135 . S
O300 Co299 2.061 . S
O300 C303 1.235 . S
C301 O304 1.238 . S
C301 O305 1.241 . S
C302 O295 1.247 . S
C302 O296 1.261 . S
C303 O298 1.259 . S
C303 O300 1.235 . S
O304 Co294 2.021 . S
O304 C301 1.238 . S
O305 Co299 2.052 . S
O305 C301 1.241 . S
O306 Co294 2.137 . S
O306 C297 1.247 . S
O307 Co294 2.244 . S
O307 C297 1.272 . S
O307 Co299 2.135 . S
Co308 O309 2.216 . S
Co308 O310 2.091 . S
Co308 O312 2.004 . S
Co308 O318 2.021 . S
Co308 O320 2.137 . S
Co308 O321 2.244 . S
O309 Co308 2.216 . S
O309 C316 1.247 . S
O310 Co308 2.091 . S
O310 C316 1.261 . S
C311 O320 1.247 . S
C311 O321 1.272 . S
O312 Co308 2.004 . S
O312 C317 1.259 . S
Co313 O314 2.061 . S
Co313 O319 2.052 . S
Co313 O321 2.135 . S
O314 Co313 2.061 . S
O314 C317 1.235 . S
C315 O318 1.238 . S
C315 O319 1.241 . S
C316 O309 1.247 . S
C316 O310 1.261 . S
C317 O312 1.259 . S
C317 O314 1.235 . S
O318 Co308 2.021 . S
O318 C315 1.238 . S
O319 Co313 2.052 . S
O319 C315 1.241 . S
O320 Co308 2.137 . S
O320 C311 1.247 . S
O321 Co308 2.244 . S
O321 C311 1.272 . S
O321 Co313 2.135 . S
Co322 O323 2.216 . S
Co322 O324 2.091 . S
Co322 O326 2.004 . S
Co322 O332 2.021 . S
Co322 O334 2.137 . S
Co322 O335 2.244 . S
O323 Co322 2.216 . S
O323 C330 1.247 . S
O324 Co322 2.091 . S
O324 C330 1.261 . S
C325 O334 1.247 . S
C325 O335 1.272 . S
O326 Co322 2.004 . S
O326 C331 1.259 . S
Co327 O328 2.061 . S
Co327 O333 2.052 . S
Co327 O335 2.135 . S
O328 Co327 2.061 . S
O328 C331 1.235 . S
C329 O332 1.238 . S
C329 O333 1.241 . S
C330 O323 1.247 . S
C330 O324 1.261 . S
C331 O326 1.259 . S
C331 O328 1.235 . S
O332 Co322 2.021 . S
O332 C329 1.238 . S
O333 Co327 2.052 . S
O333 C329 1.241 . S
O334 Co322 2.137 . S
O334 C325 1.247 . S
O335 Co322 2.244 . S
O335 C325 1.272 . S
O335 Co327 2.135 . S
Co336 O337 2.216 . S
Co336 O338 2.091 . S
Co336 O340 2.004 . S
Co336 O346 2.021 . S
Co336 O348 2.137 . S
Co336 O349 2.244 . S
O337 Co336 2.216 . S
O337 C344 1.247 . S
O338 Co336 2.091 . S
O338 C344 1.261 . S
C339 O348 1.247 . S
C339 O349 1.272 . S
O340 Co336 2.004 . S
O340 C345 1.259 . S
Co341 O342 2.061 . S
Co341 O347 2.052 . S
Co341 O349 2.135 . S
O342 Co341 2.061 . S
O342 C345 1.235 . S
C343 O346 1.238 . S
C343 O347 1.241 . S
C344 O337 1.247 . S
C344 O338 1.261 . S
C345 O340 1.259 . S
C345 O342 1.235 . S
O346 Co336 2.021 . S
O346 C343 1.238 . S
O347 Co341 2.052 . S
O347 C343 1.241 . S
O348 Co336 2.137 . S
O348 C339 1.247 . S
O349 Co336 2.244 . S
O349 C339 1.272 . S
O349 Co341 2.135 . S
Co350 O351 2.216 . S
Co350 O352 2.091 . S
Co350 O354 2.004 . S
Co350 O360 2.021 . S
Co350 O362 2.137 . S
Co350 O363 2.244 . S
O351 Co350 2.216 . S
O351 C358 1.247 . S
O352 Co350 2.091 . S
O352 C358 1.261 . S
C353 O362 1.247 . S
C353 O363 1.272 . S
O354 Co350 2.004 . S
O354 C359 1.259 . S
Co355 O356 2.061 . S
Co355 O361 2.052 . S
Co355 O363 2.135 . S
O356 Co355 2.061 . S
O356 C359 1.235 . S
C357 O360 1.238 . S
C357 O361 1.241 . S
C358 O351 1.247 . S
C358 O352 1.261 . S
C359 O354 1.259 . S
C359 O356 1.235 . S
O360 Co350 2.021 . S
O360 C357 1.238 . S
O361 Co355 2.052 . S
O361 C357 1.241 . S
O362 Co350 2.137 . S
O362 C353 1.247 . S
O363 Co350 2.244 . S
O363 C353 1.272 . S
O363 Co355 2.135 . S
Co364 O365 2.216 . S
Co364 O366 2.091 . S
Co364 O368 2.004 . S
Co364 O374 2.021 1_556 S
Co364 O376 2.137 . S
Co364 O377 2.244 . S
O365 Co364 2.216 . S
O365 C372 1.247 . S
O366 Co364 2.091 . S
O366 C372 1.261 . S
C367 O376 1.247 . S
C367 O377 1.272 . S
O368 Co364 2.004 . S
O368 C373 1.262 . S
Co369 O370 2.061 . S
Co369 O375 2.052 . S
Co369 O377 2.135 1_554 S
O370 Co369 2.061 . S
O370 C373 1.232 1_554 S
C371 O374 1.238 . S
C371 O375 1.241 . S
C372 O365 1.247 . S
C372 O366 1.261 . S
C373 O368 1.262 . S
C373 O370 1.232 1_556 S
O374 Co364 2.021 1_554 S
O374 C371 1.238 . S
O375 Co369 2.052 . S
O375 C371 1.241 . S
O376 Co364 2.137 . S
O376 C367 1.247 . S
O377 Co364 2.244 . S
O377 C367 1.272 . S
O377 Co369 2.135 1_556 S
Co378 O379 2.216 . S
Co378 O380 2.091 . S
Co378 O382 2.004 . S
Co378 O388 2.021 1_556 S
Co378 O390 2.137 . S
Co378 O391 2.244 . S
O379 Co378 2.216 . S
O379 C386 1.247 . S
O380 Co378 2.091 . S
O380 C386 1.261 . S
C381 O390 1.247 . S
C381 O391 1.272 . S
O382 Co378 2.004 . S
O382 C387 1.262 . S
Co383 O384 2.061 . S
Co383 O389 2.052 . S
Co383 O391 2.135 1_554 S
O384 Co383 2.061 . S
O384 C387 1.232 1_554 S
C385 O388 1.238 . S
C385 O389 1.241 . S
C386 O379 1.247 . S
C386 O380 1.261 . S
C387 O382 1.262 . S
C387 O384 1.232 1_556 S
O388 Co378 2.021 1_554 S
O388 C385 1.238 . S
O389 Co383 2.052 . S
O389 C385 1.241 . S
O390 Co378 2.137 . S
O390 C381 1.247 . S
O391 Co378 2.244 . S
O391 C381 1.272 . S
O391 Co383 2.135 1_556 S
Co392 O393 2.216 . S
Co392 O394 2.091 . S
Co392 O396 2.004 . S
Co392 O402 2.021 . S
Co392 O404 2.137 . S
Co392 O405 2.244 . S
O393 Co392 2.216 . S
O393 C400 1.247 . S
O394 Co392 2.091 . S
O394 C400 1.261 . S
C395 O404 1.247 . S
C395 O405 1.272 . S
O396 Co392 2.004 . S
O396 C401 1.259 . S
Co397 O398 2.061 . S
Co397 O403 2.052 . S
Co397 O405 2.135 . S
O398 Co397 2.061 . S
O398 C401 1.235 . S
C399 O402 1.238 . S
C399 O403 1.241 . S
C400 O393 1.247 . S
C400 O394 1.261 . S
C401 O396 1.259 . S
C401 O398 1.235 . S
O402 Co392 2.021 . S
O402 C399 1.238 . S
O403 Co397 2.052 . S
O403 C399 1.241 . S
O404 Co392 2.137 . S
O404 C395 1.247 . S
O405 Co392 2.244 . S
O405 C395 1.272 . S
O405 Co397 2.135 . S
Co406 O407 2.216 . S
Co406 O408 2.091 . S
Co406 O410 2.004 . S
Co406 O416 2.021 . S
Co406 O418 2.137 . S
Co406 O419 2.244 . S
O407 Co406 2.216 . S
O407 C414 1.247 . S
O408 Co406 2.091 . S
O408 C414 1.261 . S
C409 O418 1.247 . S
C409 O419 1.272 . S
O410 Co406 2.004 . S
O410 C415 1.259 . S
Co411 O412 2.061 . S
Co411 O417 2.052 . S
Co411 O419 2.135 . S
O412 Co411 2.061 . S
O412 C415 1.235 . S
C413 O416 1.238 . S
C413 O417 1.241 . S
C414 O407 1.247 . S
C414 O408 1.261 . S
C415 O410 1.259 . S
C415 O412 1.235 . S
O416 Co406 2.021 . S
O416 C413 1.238 . S
O417 Co411 2.052 . S
O417 C413 1.241 . S
O418 Co406 2.137 . S
O418 C409 1.247 . S
O419 Co406 2.244 . S
O419 C409 1.272 . S
O419 Co411 2.135 . S
Co420 O421 2.216 . S
Co420 O422 2.091 . S
Co420 O424 2.004 . S
Co420 O430 2.021 1_554 S
Co420 O432 2.137 . S
Co420 O433 2.244 . S
O421 Co420 2.216 . S
O421 C428 1.247 . S
O422 Co420 2.091 . S
O422 C428 1.261 . S
C423 O432 1.247 . S
C423 O433 1.272 . S
O424 Co420 2.004 . S
O424 C429 1.262 . S
Co425 O426 2.061 . S
Co425 O431 2.052 . S
Co425 O433 2.135 1_556 S
O426 Co425 2.061 . S
O426 C429 1.232 1_556 S
C427 O430 1.238 . S
C427 O431 1.241 . S
C428 O421 1.247 . S
C428 O422 1.261 . S
C429 O424 1.262 . S
C429 O426 1.232 1_554 S
O430 Co420 2.021 1_556 S
O430 C427 1.238 . S
O431 Co425 2.052 . S
O431 C427 1.241 . S
O432 Co420 2.137 . S
O432 C423 1.247 . S
O433 Co420 2.244 . S
O433 C423 1.272 . S
O433 Co425 2.135 1_554 S
Co434 O435 2.216 . S
Co434 O436 2.091 . S
Co434 O438 2.004 . S
Co434 O444 2.021 1_554 S
Co434 O446 2.137 . S
Co434 O447 2.244 . S
O435 Co434 2.216 . S
O435 C442 1.247 . S
O436 Co434 2.091 . S
O436 C442 1.261 . S
C437 O446 1.247 . S
C437 O447 1.272 . S
O438 Co434 2.004 . S
O438 C443 1.262 . S
Co439 O440 2.061 . S
Co439 O445 2.052 . S
Co439 O447 2.135 1_556 S
O440 Co439 2.061 . S
O440 C443 1.232 1_556 S
C441 O444 1.238 . S
C441 O445 1.241 . S
C442 O435 1.247 . S
C442 O436 1.261 . S
C443 O438 1.262 . S
C443 O440 1.232 1_554 S
O444 Co434 2.021 1_556 S
O444 C441 1.238 . S
O445 Co439 2.052 . S
O445 C441 1.241 . S
O446 Co434 2.137 . S
O446 C437 1.247 . S
O447 Co434 2.244 . S
O447 C437 1.272 . S
O447 Co439 2.135 1_554 S
C7 C49 1.521 . S
C35 C21 1.521 . S
C63 C105 1.521 . S
C91 C77 1.521 . S
C119 C161 1.499 . S
C147 C133 1.499 . S
C175 C217 1.499 . S
C189 C203 1.499 . S
C273 C231 1.499 . S
C245 C259 1.499 . S
C287 C329 1.499 . S
C315 C301 1.499 . S
C343 C385 1.521 . S
C371 C357 1.521 . S
C399 C441 1.521 . S
C413 C427 1.521 . S
C176 C8 1.553 1_655 S
C22 C302 1.553 1_565 S
C36 C92 1.557 1_466 S
C442 C50 1.557 1_554 S
C64 C120 1.553 1_655 S
C246 C78 1.553 1_565 S
C386 C106 1.557 1_556 S
C414 C134 1.553 . S
C204 C148 1.550 1_655 S
C330 C162 1.550 . S
C190 C358 1.553 . S
C274 C218 1.550 . S
C400 C232 1.553 . S
C316 C260 1.550 1_545 S
C344 C288 1.553 . S
C372 C428 1.556 1_556 S
C143 C3 1.810 . S
C17 C157 1.810 . S
C115 C31 1.784 . S
C129 C45 1.784 . S
C59 C199 1.810 . S
C73 C213 1.810 . S
C171 C87 1.784 . S
C101 C185 1.784 . S
C367 C227 1.784 . S
C381 C241 1.784 . S
C255 C339 1.810 . S
C269 C353 1.810 . S
C283 C423 1.784 . S
C297 C437 1.784 . S
C395 C311 1.810 . S
C409 C325 1.810 . S
C9 C359 1.469 . S
C345 C23 1.469 . S
C37 C387 1.449 . S
C51 C373 1.449 . S
C65 C415 1.469 . S
C79 C401 1.469 . S
C443 C93 1.449 . S
C429 C107 1.449 . S
C247 C121 1.467 . S
C233 C135 1.467 . S
C149 C275 1.451 . S
C163 C261 1.451 . S
C303 C177 1.467 . S
C191 C289 1.467 . S
C205 C331 1.451 . S
C219 C317 1.451 . S
