# Generated by pormake.
# Topology uki, (4)-cn, num edge types: 1
# Building blocks:
#     Node 0, Type 0, BuildingBlock: CEKHIL_clean_sbu_0, # of connection points: 4
#     Node 1, Type 0, BuildingBlock: CEKHIL_clean_sbu_0, # of connection points: 4
#     Node 2, Type 0, BuildingBlock: CEKHIL_clean_sbu_0, # of connection points: 4
#     Node 3, Type 0, BuildingBlock: CEKHIL_clean_sbu_0, # of connection points: 4
#     Node 4, Type 0, BuildingBlock: CEKHIL_clean_sbu_0, # of connection points: 4
#     Node 5, Type 0, BuildingBlock: CEKHIL_clean_sbu_0, # of connection points: 4
#     Node 6, Type 0, BuildingBlock: CEKHIL_clean_sbu_0, # of connection points: 4
#     Node 7, Type 0, BuildingBlock: CEKHIL_clean_sbu_0, # of connection points: 4
#     Node 8, Type 0, BuildingBlock: CEKHIL_clean_sbu_0, # of connection points: 4
#     Node 9, Type 0, BuildingBlock: CEKHIL_clean_sbu_0, # of connection points: 4
#     Node 10, Type 0, BuildingBlock: CEKHIL_clean_sbu_0, # of connection points: 4
#     Node 11, Type 0, BuildingBlock: CEKHIL_clean_sbu_0, # of connection points: 4
#     Node 12, Type 0, BuildingBlock: CEKHIL_clean_sbu_0, # of connection points: 4
#     Node 13, Type 0, BuildingBlock: CEKHIL_clean_sbu_0, # of connection points: 4
#     Node 14, Type 0, BuildingBlock: CEKHIL_clean_sbu_0, # of connection points: 4
#     Node 15, Type 0, BuildingBlock: CEKHIL_clean_sbu_0, # of connection points: 4
#     Edge 16, Type (0, 0), BuildingBlock: EYOCIG_clean_linker_4, # of connection points: 2
#     Edge 17, Type (0, 0), BuildingBlock: EYOCIG_clean_linker_4, # of connection points: 2
#     Edge 18, Type (0, 0), BuildingBlock: EYOCIG_clean_linker_4, # of connection points: 2
#     Edge 19, Type (0, 0), BuildingBlock: EYOCIG_clean_linker_4, # of connection points: 2
#     Edge 20, Type (0, 0), BuildingBlock: EYOCIG_clean_linker_4, # of connection points: 2
#     Edge 21, Type (0, 0), BuildingBlock: EYOCIG_clean_linker_4, # of connection points: 2
#     Edge 22, Type (0, 0), BuildingBlock: EYOCIG_clean_linker_4, # of connection points: 2
#     Edge 23, Type (0, 0), BuildingBlock: EYOCIG_clean_linker_4, # of connection points: 2
#     Edge 24, Type (0, 0), BuildingBlock: EYOCIG_clean_linker_4, # of connection points: 2
#     Edge 25, Type (0, 0), BuildingBlock: EYOCIG_clean_linker_4, # of connection points: 2
#     Edge 26, Type (0, 0), BuildingBlock: EYOCIG_clean_linker_4, # of connection points: 2
#     Edge 27, Type (0, 0), BuildingBlock: EYOCIG_clean_linker_4, # of connection points: 2
#     Edge 28, Type (0, 0), BuildingBlock: EYOCIG_clean_linker_4, # of connection points: 2
#     Edge 29, Type (0, 0), BuildingBlock: EYOCIG_clean_linker_4, # of connection points: 2
#     Edge 30, Type (0, 0), BuildingBlock: EYOCIG_clean_linker_4, # of connection points: 2
#     Edge 31, Type (0, 0), BuildingBlock: EYOCIG_clean_linker_4, # of connection points: 2
#     Edge 32, Type (0, 0), BuildingBlock: EYOCIG_clean_linker_4, # of connection points: 2
#     Edge 33, Type (0, 0), BuildingBlock: EYOCIG_clean_linker_4, # of connection points: 2
#     Edge 34, Type (0, 0), BuildingBlock: EYOCIG_clean_linker_4, # of connection points: 2
#     Edge 35, Type (0, 0), BuildingBlock: EYOCIG_clean_linker_4, # of connection points: 2
#     Edge 36, Type (0, 0), BuildingBlock: EYOCIG_clean_linker_4, # of connection points: 2
#     Edge 37, Type (0, 0), BuildingBlock: EYOCIG_clean_linker_4, # of connection points: 2
#     Edge 38, Type (0, 0), BuildingBlock: EYOCIG_clean_linker_4, # of connection points: 2
#     Edge 39, Type (0, 0), BuildingBlock: EYOCIG_clean_linker_4, # of connection points: 2
#     Edge 40, Type (0, 0), BuildingBlock: EYOCIG_clean_linker_4, # of connection points: 2
#     Edge 41, Type (0, 0), BuildingBlock: EYOCIG_clean_linker_4, # of connection points: 2
#     Edge 42, Type (0, 0), BuildingBlock: EYOCIG_clean_linker_4, # of connection points: 2
#     Edge 43, Type (0, 0), BuildingBlock: EYOCIG_clean_linker_4, # of connection points: 2
#     Edge 44, Type (0, 0), BuildingBlock: EYOCIG_clean_linker_4, # of connection points: 2
#     Edge 45, Type (0, 0), BuildingBlock: EYOCIG_clean_linker_4, # of connection points: 2
#     Edge 46, Type (0, 0), BuildingBlock: EYOCIG_clean_linker_4, # of connection points: 2
#     Edge 47, Type (0, 0), BuildingBlock: EYOCIG_clean_linker_4, # of connection points: 2
# Relax obj value: 0.098
# Max RMSD: 0.195
# Mean RMSD: 0.195
data_MOF--net-uki--node1-CEKHIL_clean_sbu_0--edge1-EYOCIG_clean_linker_4
_symmetry_space_group_name_H-M    P1
_symmetry_Int_Tables_number       1
_symmetry_cell_setting            triclinic
loop_
_symmetry_equiv_pos_as_xyz
'x, y, z'
_cell_length_a     24.334788
_cell_length_b     24.336361
_cell_length_c     57.016967
_cell_angle_alpha  89.996532
_cell_angle_beta   90.014395
_cell_angle_gamma 89.993325
loop_
_atom_site_label
_atom_site_type_symbol
_atom_site_fract_x
_atom_site_fract_y
_atom_site_fract_z
_atom_type_partial_charge
Co0 Co 0.10995 0.21661 0.30243 0.0
O1 O 0.17906 0.19049 0.31467 0.0
O2 O 0.10838 0.21726 0.33641 0.0
C3 C 0.14516 0.27489 0.27585 0.0
O4 O 0.03356 0.24779 0.29593 0.0
Co5 Co 0.0798 0.1947 0.24989 0.0
O6 O 0.01825 0.24526 0.25688 0.0
C7 C 0.0604 0.10861 0.28544 0.0
C8 C 0.15878 0.19967 0.3353 0.0
C9 C 0.00446 0.25859 0.27764 0.0
O10 O 0.07859 0.13987 0.30187 0.0
O11 O 0.06026 0.12148 0.2637 0.0
O12 O 0.14124 0.28931 0.29766 0.0
O13 O 0.134 0.22421 0.27117 0.0
Co14 Co 0.21644 0.87432 0.71135 0.0
O15 O 0.19054 0.80511 0.69914 0.0
O16 O 0.21676 0.87594 0.67737 0.0
C17 C 0.27516 0.83928 0.73782 0.0
O18 O 0.24733 0.95084 0.7178 0.0
Co19 Co 0.19503 0.90431 0.76393 0.0
O20 O 0.24513 0.96616 0.75684 0.0
C21 C 0.10844 0.92345 0.72856 0.0
C22 C 0.19946 0.82546 0.6785 0.0
C23 C 0.25816 0.98001 0.73605 0.0
O24 O 0.13956 0.90535 0.71207 0.0
O25 O 0.12158 0.92363 0.75027 0.0
O26 O 0.28935 0.84334 0.71598 0.0
O27 O 0.22448 0.85024 0.7426 0.0
Co28 Co 0.87497 0.76743 0.30285 0.0
O29 O 0.80591 0.79342 0.31516 0.0
O30 O 0.87682 0.76685 0.33682 0.0
C31 C 0.83962 0.70903 0.27634 0.0
O32 O 0.95138 0.73638 0.29627 0.0
Co33 Co 0.90466 0.78921 0.25026 0.0
O34 O 0.96642 0.73885 0.2572 0.0
C35 C 0.92411 0.87549 0.28572 0.0
C36 C 0.82638 0.78431 0.33577 0.0
C37 C 0.98039 0.72561 0.27796 0.0
O38 O 0.90616 0.84423 0.3022 0.0
O39 O 0.92409 0.86253 0.26399 0.0
O40 O 0.84378 0.69464 0.29815 0.0
O41 O 0.85067 0.75971 0.27162 0.0
Co42 Co 0.76738 0.10934 0.71133 0.0
O43 O 0.79348 0.17834 0.699 0.0
O44 O 0.76702 0.10738 0.67736 0.0
C45 C 0.7088 0.14476 0.73774 0.0
O46 O 0.73628 0.03299 0.71793 0.0
Co47 Co 0.78887 0.07982 0.76397 0.0
O48 O 0.73851 0.01809 0.75701 0.0
C49 C 0.87528 0.06001 0.7286 0.0
C50 C 0.7845 0.15781 0.67839 0.0
C51 C 0.72539 0.00406 0.73625 0.0
O52 O 0.84417 0.07807 0.71209 0.0
O53 O 0.8622 0.06007 0.75032 0.0
O54 O 0.69458 0.14057 0.71591 0.0
O55 O 0.75947 0.13373 0.74253 0.0
Co56 Co 0.10978 0.2674 0.96116 0.0
O57 O 0.17885 0.29366 0.94896 0.0
O58 O 0.10811 0.26713 0.92719 0.0
C59 C 0.14513 0.20883 0.98761 0.0
O60 O 0.03341 0.23614 0.9676 0.0
Co61 Co 0.0797 0.28855 0.01375 0.0
O62 O 0.01807 0.23818 1.00664 0.0
C63 C 0.06017 0.37513 0.97842 0.0
C64 C 0.15851 0.28468 0.92831 0.0
C65 C 0.00428 0.22514 0.98584 0.0
O66 O 0.07838 0.34412 0.96191 0.0
O67 O 0.06006 0.36194 1.00013 0.0
O68 O 0.14112 0.19464 0.96577 0.0
O69 O 0.13391 0.25944 0.9924 0.0
Co70 Co 0.26804 0.87422 0.05245 0.0
O71 O 0.29399 0.80517 0.06481 0.0
O72 O 0.26728 0.87608 0.08643 0.0
C73 C 0.20977 0.83886 0.02589 0.0
O74 O 0.237 0.9506 0.04582 0.0
Co75 Co 0.29016 0.90388 0.9999 0.0
O76 O 0.23967 0.96558 1.00675 0.0
C77 C 0.3762 0.92341 0.03546 0.0
C78 C 0.28477 0.82564 0.08541 0.0
C79 C 0.2263 0.97956 0.02749 0.0
O80 O 0.34485 0.90544 0.0519 0.0
O81 O 0.36339 0.92339 0.01371 0.0
O82 O 0.19529 0.84301 0.04769 0.0
O83 O 0.26049 0.8499 0.02122 0.0
Co84 Co 0.87477 0.71649 0.9615 0.0
O85 O 0.80552 0.69055 0.94934 0.0
O86 O 0.87622 0.71686 0.92752 0.0
C87 C 0.83985 0.77511 0.98801 0.0
O88 O 0.95131 0.74742 0.96791 0.0
Co89 Co 0.905 0.6949 0.01405 0.0
O90 O 0.96673 0.74515 0.00695 0.0
C91 C 0.92396 0.60843 0.97864 0.0
C92 C 0.82576 0.6995 0.92868 0.0
C93 C 0.98051 0.75826 0.98616 0.0
O94 O 0.90585 0.63963 0.96217 0.0
O95 O 0.92421 0.62148 1.00036 0.0
O96 O 0.84377 0.78935 0.96617 0.0
O97 O 0.85085 0.72443 0.99276 0.0
Co98 Co 0.71697 0.11002 0.05223 0.0
O99 O 0.69077 0.17916 0.0644 0.0
O100 O 0.71782 0.10869 0.08621 0.0
C101 C 0.77503 0.14519 0.02556 0.0
O102 O 0.74831 0.03367 0.04582 0.0
Co103 Co 0.69496 0.07943 0.99975 0.0
O104 O 0.74575 0.01809 1.00679 0.0
C105 C 0.60904 0.06007 0.03537 0.0
C106 C 0.70015 0.15904 0.08505 0.0
C107 C 0.75916 0.00447 0.02757 0.0
O108 O 0.64029 0.07847 0.05177 0.0
O109 O 0.62185 0.05978 0.01363 0.0
O110 O 0.78958 0.14145 0.04737 0.0
O111 O 0.72436 0.13387 0.02093 0.0
Co112 Co 0.6098 0.71633 0.80264 0.0
O113 O 0.67882 0.69023 0.81498 0.0
O114 O 0.60794 0.71687 0.83662 0.0
C115 C 0.64522 0.77472 0.77616 0.0
O116 O 0.53344 0.7475 0.79603 0.0
Co117 Co 0.58015 0.69467 0.75003 0.0
O118 O 0.51854 0.74521 0.75695 0.0
C119 C 0.56051 0.60838 0.78547 0.0
C120 C 0.65836 0.69935 0.83559 0.0
C121 C 0.50453 0.75841 0.7777 0.0
O122 O 0.5785 0.63957 0.80196 0.0
O123 O 0.56058 0.62137 0.76374 0.0
O124 O 0.64109 0.78908 0.79798 0.0
O125 O 0.63412 0.72406 0.77143 0.0
Co126 Co 0.71702 0.37469 0.21119 0.0
O127 O 0.69117 0.30565 0.1988 0.0
O128 O 0.71774 0.37666 0.17721 0.0
C129 C 0.77537 0.33935 0.23772 0.0
O130 O 0.74794 0.4511 0.21787 0.0
Co131 Co 0.69491 0.40413 0.26378 0.0
O132 O 0.74529 0.46591 0.25695 0.0
C133 C 0.60879 0.42363 0.22824 0.0
C134 C 0.70032 0.3262 0.17821 0.0
C135 C 0.75862 0.48 0.23622 0.0
O136 O 0.64016 0.40579 0.21178 0.0
O137 O 0.62162 0.42353 0.24999 0.0
O138 O 0.78983 0.34358 0.21593 0.0
O139 O 0.72464 0.3503 0.2424 0.0
Co140 Co 0.37394 0.26771 0.80219 0.0
O141 O 0.30494 0.29395 0.81448 0.0
O142 O 0.3757 0.26707 0.83616 0.0
C143 C 0.33847 0.20949 0.77565 0.0
O144 O 0.45025 0.2364 0.79564 0.0
Co145 Co 0.40388 0.28949 0.74963 0.0
O146 O 0.46543 0.23889 0.75658 0.0
C147 C 0.42362 0.37558 0.78514 0.0
C148 C 0.32533 0.28474 0.8351 0.0
C149 C 0.47928 0.22556 0.77734 0.0
O150 O 0.40543 0.34439 0.80159 0.0
O151 O 0.42365 0.36268 0.7634 0.0
O152 O 0.34249 0.19506 0.79746 0.0
O153 O 0.34971 0.26014 0.77094 0.0
Co154 Co 0.26772 0.60968 0.21144 0.0
O155 O 0.29387 0.6788 0.19923 0.0
O156 O 0.26701 0.6082 0.17746 0.0
C157 C 0.20951 0.64492 0.23804 0.0
O158 O 0.23649 0.53331 0.2179 0.0
Co159 Co 0.28961 0.57935 0.26395 0.0
O160 O 0.23906 0.51783 0.25693 0.0
C161 C 0.37569 0.55996 0.2284 0.0
C162 C 0.28462 0.65857 0.17859 0.0
C163 C 0.2257 0.50413 0.23615 0.0
O164 O 0.34444 0.57824 0.21198 0.0
O165 O 0.36281 0.55976 0.25014 0.0
O166 O 0.19505 0.64104 0.21623 0.0
O167 O 0.26019 0.63367 0.24271 0.0
Co168 Co 0.61011 0.76733 0.46167 0.0
O169 O 0.6793 0.79339 0.44952 0.0
O170 O 0.60868 0.7668 0.42769 0.0
C171 C 0.64517 0.7089 0.48824 0.0
O172 O 0.53365 0.73623 0.46807 0.0
Co173 Co 0.57973 0.78901 0.51419 0.0
O174 O 0.51812 0.7386 0.50709 0.0
C175 C 0.5606 0.87532 0.4787 0.0
C176 C 0.6591 0.78429 0.42886 0.0
C177 C 0.50443 0.72539 0.4863 0.0
O178 O 0.57883 0.84411 0.46226 0.0
O179 O 0.56033 0.86233 0.50043 0.0
O180 O 0.6413 0.69456 0.46641 0.0
O181 O 0.63403 0.75957 0.49295 0.0
Co182 Co 0.76803 0.37386 0.55239 0.0
O183 O 0.79409 0.30466 0.56456 0.0
O184 O 0.76736 0.37523 0.58636 0.0
C185 C 0.70975 0.33883 0.52576 0.0
O186 O 0.73689 0.4503 0.54598 0.0
Co187 Co 0.78988 0.40435 0.49989 0.0
O188 O 0.73938 0.46591 0.50696 0.0
C189 C 0.87605 0.42341 0.53544 0.0
C190 C 0.78489 0.32483 0.58521 0.0
C191 C 0.72608 0.47955 0.52774 0.0
O192 O 0.84479 0.40517 0.55186 0.0
O193 O 0.86314 0.4237 0.51371 0.0
O194 O 0.6953 0.34264 0.54757 0.0
O195 O 0.76043 0.35001 0.5211 0.0
Co196 Co 0.37501 0.21652 0.46124 0.0
O197 O 0.30587 0.19041 0.44902 0.0
O198 O 0.37659 0.21694 0.42726 0.0
C199 C 0.33981 0.27502 0.48773 0.0
O200 O 0.45142 0.24767 0.46769 0.0
Co201 Co 0.40516 0.19506 0.51381 0.0
O202 O 0.46674 0.24551 0.50674 0.0
C203 C 0.42446 0.10862 0.47841 0.0
C204 C 0.32617 0.19946 0.42838 0.0
C205 C 0.48054 0.25862 0.48595 0.0
O206 O 0.40631 0.13974 0.46192 0.0
O207 O 0.42462 0.1217 0.50012 0.0
O208 O 0.34377 0.2893 0.4659 0.0
O209 O 0.35095 0.22437 0.49248 0.0
Co210 Co 0.2169 0.60956 0.55248 0.0
O211 O 0.19073 0.67859 0.56476 0.0
O212 O 0.21758 0.60786 0.58645 0.0
C213 C 0.27513 0.64492 0.52592 0.0
O214 O 0.24815 0.53322 0.54592 0.0
Co215 Co 0.19498 0.57962 0.49992 0.0
O216 O 0.24559 0.51807 0.50687 0.0
C217 C 0.10894 0.55998 0.53545 0.0
C218 C 0.19994 0.65824 0.58538 0.0
C219 C 0.25895 0.5042 0.52762 0.0
O220 O 0.14019 0.57813 0.55189 0.0
O221 O 0.12179 0.55994 0.51371 0.0
O222 O 0.28958 0.64093 0.54773 0.0
O223 O 0.22445 0.63374 0.52123 0.0
C224 C 0.16727 0.35435 0.24614 0.0
C225 C 0.15684 0.31483 0.25806 0.0
C226 C 0.18314 0.40554 0.23675 0.0
C227 C 0.20147 0.45085 0.23347 0.0
C228 C 0.40594 0.80104 0.77689 0.0
C229 C 0.45121 0.78266 0.78026 0.0
C230 C 0.35481 0.817 0.76744 0.0
C231 C 0.31527 0.82749 0.75554 0.0
C232 C 0.80113 0.57862 0.23712 0.0
C233 C 0.78281 0.53334 0.23372 0.0
C234 C 0.8171 0.62967 0.24662 0.0
C235 C 0.8277 0.66909 0.25857 0.0
C236 C 0.57789 0.18296 0.77667 0.0
C237 C 0.53258 0.20132 0.77996 0.0
C238 C 0.62909 0.16706 0.76731 0.0
C239 C 0.66869 0.15656 0.75544 0.0
C240 C 0.18366 0.07814 0.02666 0.0
C241 C 0.20203 0.03287 0.03002 0.0
C242 C 0.16764 0.12924 0.01722 0.0
C243 C 0.15703 0.16874 1.00532 0.0
C244 C 0.13039 0.81648 0.99617 0.0
C245 C 0.16988 0.82702 0.00809 0.0
C246 C 0.07921 0.80059 0.98676 0.0
C247 C 0.03386 0.78234 0.98347 0.0
C248 C 0.81786 0.85478 0.01764 0.0
C249 C 0.82824 0.8152 1.00575 0.0
C250 C 0.80197 0.90598 0.02701 0.0
C251 C 0.78354 0.95126 0.03027 0.0
C252 C 0.85437 0.16707 0.99578 0.0
C253 C 0.81488 0.15672 0.00772 0.0
C254 C 0.90558 0.18283 0.98638 0.0
C255 C 0.95094 0.20108 0.98312 0.0
C256 C 0.66733 0.85421 0.74647 0.0
C257 C 0.65692 0.81472 0.7584 0.0
C258 C 0.68311 0.90535 0.73701 0.0
C259 C 0.70134 0.95068 0.73367 0.0
C260 C 0.90587 0.30119 0.27693 0.0
C261 C 0.95117 0.28285 0.28027 0.0
C262 C 0.85475 0.31709 0.26747 0.0
C263 C 0.81529 0.32756 0.25552 0.0
C264 C 0.30028 0.07881 0.7366 0.0
C265 C 0.28211 0.03341 0.73336 0.0
C266 C 0.31612 0.13003 0.74597 0.0
C267 C 0.32665 0.16955 0.75787 0.0
C268 C 0.07905 0.68316 0.27722 0.0
C269 C 0.03373 0.70146 0.28055 0.0
C270 C 0.13018 0.66723 0.26778 0.0
C271 C 0.16963 0.6567 0.25584 0.0
C272 C 0.68344 0.57813 0.52723 0.0
C273 C 0.70182 0.53281 0.53046 0.0
C274 C 0.66747 0.62935 0.51788 0.0
C275 C 0.65694 0.66891 0.506 0.0
C276 C 0.63035 0.31688 0.49599 0.0
C277 C 0.66983 0.32725 0.50794 0.0
C278 C 0.57918 0.30106 0.48656 0.0
C279 C 0.53385 0.28277 0.48327 0.0
C280 C 0.30164 0.40566 0.52686 0.0
C281 C 0.28325 0.45093 0.53021 0.0
C282 C 0.31757 0.35455 0.5174 0.0
C283 C 0.32805 0.31506 0.50548 0.0
C284 C 0.40577 0.68297 0.48683 0.0
C285 C 0.45112 0.70125 0.48358 0.0
C286 C 0.35457 0.66711 0.49622 0.0
C287 C 0.31506 0.65665 0.50813 0.0
C288 C 0.26122 0.19085 0.39134 0.0
C289 C 0.29198 0.19517 0.40787 0.0
C290 C 0.22368 0.19091 0.37235 0.0
C291 C 0.19293 0.19532 0.35582 0.0
C292 C 0.19111 0.72301 0.62246 0.0
C293 C 0.19555 0.6923 0.60592 0.0
C294 C 0.19097 0.76052 0.64145 0.0
C295 C 0.19524 0.79128 0.65798 0.0
C296 C 0.72414 0.79293 0.39186 0.0
C297 C 0.69335 0.78859 0.40837 0.0
C298 C 0.76167 0.79292 0.37288 0.0
C299 C 0.79236 0.78858 0.35634 0.0
C300 C 0.79333 0.22238 0.64124 0.0
C301 C 0.78889 0.19175 0.65781 0.0
C302 C 0.79342 0.25982 0.62223 0.0
C303 C 0.78914 0.29057 0.6057 0.0
C304 C 0.22329 0.29353 0.89124 0.0
C305 C 0.19263 0.2891 0.90779 0.0
C306 C 0.26068 0.29352 0.87221 0.0
C307 C 0.29131 0.28911 0.85565 0.0
C308 C 0.29325 0.72351 0.14155 0.0
C309 C 0.28891 0.69277 0.15808 0.0
C310 C 0.29327 0.76098 0.12255 0.0
C311 C 0.28898 0.79165 0.10598 0.0
C312 C 0.76068 0.69078 0.89167 0.0
C313 C 0.79151 0.69516 0.90818 0.0
C314 C 0.72312 0.69076 0.8727 0.0
C315 C 0.6924 0.6951 0.85615 0.0
C316 C 0.69171 0.22412 0.12206 0.0
C317 C 0.69595 0.19334 0.10554 0.0
C318 C 0.69177 0.26162 0.14105 0.0
C319 C 0.69609 0.29227 0.15762 0.0
C320 C 0.97644 0.96783 0.29451 0.0
C321 C 0.95181 0.9253 0.29202 0.0
C322 C 0.008 0.01641 0.29443 0.0
C323 C 0.03266 0.05887 0.29182 0.0
C324 C 0.96749 0.00739 0.71983 0.0
C325 C 0.92504 0.03213 0.72236 0.0
C326 C 0.01605 0.97577 0.7198 0.0
C327 C 0.05858 0.95114 0.7223 0.0
C328 C 0.00767 0.46743 0.9697 0.0
C329 C 0.03238 0.42494 0.97218 0.0
C330 C 0.97612 0.51602 0.96976 0.0
C331 C 0.95157 0.55857 0.97232 0.0
C332 C 0.46843 0.97584 0.04439 0.0
C333 C 0.42594 0.95117 0.04182 0.0
C334 C 0.51695 0.00749 0.04439 0.0
C335 C 0.55937 0.03226 0.0418 0.0
C336 C 0.47629 0.46764 0.79411 0.0
C337 C 0.45152 0.42525 0.79149 0.0
C338 C 0.50798 0.51614 0.79421 0.0
C339 C 0.5327 0.55862 0.79174 0.0
C340 C 0.51645 0.47592 0.21938 0.0
C341 C 0.55898 0.45132 0.22191 0.0
C342 C 0.46787 0.5075 0.21942 0.0
C343 C 0.42541 0.5322 0.22202 0.0
C344 C 0.47679 0.01624 0.46965 0.0
C345 C 0.45215 0.05877 0.47213 0.0
C346 C 0.50833 0.96763 0.46974 0.0
C347 C 0.53294 0.92512 0.47234 0.0
C348 C 0.96829 0.47576 0.5444 0.0
C349 C 0.92581 0.4511 0.54183 0.0
C350 C 0.01682 0.5074 0.54439 0.0
C351 C 0.05924 0.53215 0.54181 0.0
loop_
_geom_bond_atom_site_label_1
_geom_bond_atom_site_label_2
_geom_bond_distance
_geom_bond_site_symmetry_2
_ccdc_geom_bond_type
Co0 O1 2.216 . S
Co0 O2 2.091 . S
Co0 O4 2.004 . S
Co0 O10 2.021 . S
Co0 O12 2.137 . S
Co0 O13 2.244 . S
O1 Co0 2.216 . S
O1 C8 1.247 . S
O2 Co0 2.091 . S
O2 C8 1.261 . S
C3 O12 1.247 . S
C3 O13 1.272 . S
O4 Co0 2.004 . S
O4 C9 1.259 1_455 S
Co5 O6 2.061 . S
Co5 O11 2.052 . S
Co5 O13 2.135 . S
O6 Co5 2.061 . S
O6 C9 1.235 1_455 S
C7 O10 1.238 . S
C7 O11 1.241 . S
C8 O1 1.247 . S
C8 O2 1.261 . S
C9 O4 1.259 1_655 S
C9 O6 1.235 1_655 S
O10 Co0 2.021 . S
O10 C7 1.238 . S
O11 Co5 2.052 . S
O11 C7 1.241 . S
O12 Co0 2.137 . S
O12 C3 1.247 . S
O13 Co0 2.244 . S
O13 C3 1.272 . S
O13 Co5 2.135 . S
Co14 O15 2.216 . S
Co14 O16 2.091 . S
Co14 O18 2.004 . S
Co14 O24 2.021 . S
Co14 O26 2.137 . S
Co14 O27 2.244 . S
O15 Co14 2.216 . S
O15 C22 1.247 . S
O16 Co14 2.091 . S
O16 C22 1.261 . S
C17 O26 1.247 . S
C17 O27 1.272 . S
O18 Co14 2.004 . S
O18 C23 1.259 1_565 S
Co19 O20 2.061 . S
Co19 O25 2.052 . S
Co19 O27 2.135 . S
O20 Co19 2.061 . S
O20 C23 1.235 1_565 S
C21 O24 1.238 . S
C21 O25 1.241 . S
C22 O15 1.247 . S
C22 O16 1.261 . S
C23 O18 1.259 1_545 S
C23 O20 1.235 1_545 S
O24 Co14 2.021 . S
O24 C21 1.238 . S
O25 Co19 2.052 . S
O25 C21 1.241 . S
O26 Co14 2.137 . S
O26 C17 1.247 . S
O27 Co14 2.244 . S
O27 C17 1.272 . S
O27 Co19 2.135 . S
Co28 O29 2.216 . S
Co28 O30 2.091 . S
Co28 O32 2.004 . S
Co28 O38 2.021 . S
Co28 O40 2.137 . S
Co28 O41 2.244 . S
O29 Co28 2.216 . S
O29 C36 1.247 . S
O30 Co28 2.091 . S
O30 C36 1.261 . S
C31 O40 1.247 . S
C31 O41 1.272 . S
O32 Co28 2.004 . S
O32 C37 1.259 1_655 S
Co33 O34 2.061 . S
Co33 O39 2.052 . S
Co33 O41 2.135 . S
O34 Co33 2.061 . S
O34 C37 1.235 1_655 S
C35 O38 1.238 . S
C35 O39 1.241 . S
C36 O29 1.247 . S
C36 O30 1.261 . S
C37 O32 1.259 1_455 S
C37 O34 1.235 1_455 S
O38 Co28 2.021 . S
O38 C35 1.238 . S
O39 Co33 2.052 . S
O39 C35 1.241 . S
O40 Co28 2.137 . S
O40 C31 1.247 . S
O41 Co28 2.244 . S
O41 C31 1.272 . S
O41 Co33 2.135 . S
Co42 O43 2.216 . S
Co42 O44 2.091 . S
Co42 O46 2.004 . S
Co42 O52 2.021 . S
Co42 O54 2.137 . S
Co42 O55 2.244 . S
O43 Co42 2.216 . S
O43 C50 1.247 . S
O44 Co42 2.091 . S
O44 C50 1.261 . S
C45 O54 1.247 . S
C45 O55 1.272 . S
O46 Co42 2.004 . S
O46 C51 1.259 1_545 S
Co47 O48 2.061 . S
Co47 O53 2.052 . S
Co47 O55 2.135 . S
O48 Co47 2.061 . S
O48 C51 1.235 1_545 S
C49 O52 1.238 . S
C49 O53 1.241 . S
C50 O43 1.247 . S
C50 O44 1.261 . S
C51 O46 1.259 1_565 S
C51 O48 1.235 1_565 S
O52 Co42 2.021 . S
O52 C49 1.238 . S
O53 Co47 2.052 . S
O53 C49 1.241 . S
O54 Co42 2.137 . S
O54 C45 1.247 . S
O55 Co42 2.244 . S
O55 C45 1.272 . S
O55 Co47 2.135 . S
Co56 O57 2.216 . S
Co56 O58 2.091 . S
Co56 O60 2.004 . S
Co56 O66 2.021 . S
Co56 O68 2.137 . S
Co56 O69 2.244 . S
O57 Co56 2.216 . S
O57 C64 1.247 . S
O58 Co56 2.091 . S
O58 C64 1.261 . S
C59 O68 1.247 . S
C59 O69 1.272 . S
O60 Co56 2.004 . S
O60 C65 1.259 1_455 S
Co61 O62 2.061 1_554 S
Co61 O67 2.052 1_554 S
Co61 O69 2.135 1_554 S
O62 Co61 2.061 1_556 S
O62 C65 1.235 1_455 S
C63 O66 1.238 . S
C63 O67 1.241 . S
C64 O57 1.247 . S
C64 O58 1.261 . S
C65 O60 1.259 1_655 S
C65 O62 1.235 1_655 S
O66 Co56 2.021 . S
O66 C63 1.238 . S
O67 Co61 2.052 1_556 S
O67 C63 1.241 . S
O68 Co56 2.137 . S
O68 C59 1.247 . S
O69 Co56 2.244 . S
O69 C59 1.272 . S
O69 Co61 2.135 1_556 S
Co70 O71 2.216 . S
Co70 O72 2.091 . S
Co70 O74 2.004 . S
Co70 O80 2.021 . S
Co70 O82 2.137 . S
Co70 O83 2.244 . S
O71 Co70 2.216 . S
O71 C78 1.247 . S
O72 Co70 2.091 . S
O72 C78 1.261 . S
C73 O82 1.247 . S
C73 O83 1.272 . S
O74 Co70 2.004 . S
O74 C79 1.259 1_565 S
Co75 O76 2.061 1_556 S
Co75 O81 2.052 1_556 S
Co75 O83 2.135 1_556 S
O76 Co75 2.061 1_554 S
O76 C79 1.235 1_565 S
C77 O80 1.238 . S
C77 O81 1.241 . S
C78 O71 1.247 . S
C78 O72 1.261 . S
C79 O74 1.259 1_545 S
C79 O76 1.235 1_545 S
O80 Co70 2.021 . S
O80 C77 1.238 . S
O81 Co75 2.052 1_554 S
O81 C77 1.241 . S
O82 Co70 2.137 . S
O82 C73 1.247 . S
O83 Co70 2.244 . S
O83 C73 1.272 . S
O83 Co75 2.135 1_554 S
Co84 O85 2.216 . S
Co84 O86 2.091 . S
Co84 O88 2.004 . S
Co84 O94 2.021 . S
Co84 O96 2.137 . S
Co84 O97 2.244 . S
O85 Co84 2.216 . S
O85 C92 1.247 . S
O86 Co84 2.091 . S
O86 C92 1.261 . S
C87 O96 1.247 . S
C87 O97 1.272 . S
O88 Co84 2.004 . S
O88 C93 1.259 1_655 S
Co89 O90 2.061 1_554 S
Co89 O95 2.052 1_554 S
Co89 O97 2.135 1_554 S
O90 Co89 2.061 1_556 S
O90 C93 1.235 1_655 S
C91 O94 1.238 . S
C91 O95 1.241 . S
C92 O85 1.247 . S
C92 O86 1.261 . S
C93 O88 1.259 1_455 S
C93 O90 1.235 1_455 S
O94 Co84 2.021 . S
O94 C91 1.238 . S
O95 Co89 2.052 1_556 S
O95 C91 1.241 . S
O96 Co84 2.137 . S
O96 C87 1.247 . S
O97 Co84 2.244 . S
O97 C87 1.272 . S
O97 Co89 2.135 1_556 S
Co98 O99 2.216 . S
Co98 O100 2.091 . S
Co98 O102 2.004 . S
Co98 O108 2.021 . S
Co98 O110 2.137 . S
Co98 O111 2.244 . S
O99 Co98 2.216 . S
O99 C106 1.247 . S
O100 Co98 2.091 . S
O100 C106 1.261 . S
C101 O110 1.247 . S
C101 O111 1.272 . S
O102 Co98 2.004 . S
O102 C107 1.259 1_545 S
Co103 O104 2.061 1_556 S
Co103 O109 2.052 1_556 S
Co103 O111 2.135 1_556 S
O104 Co103 2.061 1_554 S
O104 C107 1.235 1_545 S
C105 O108 1.238 . S
C105 O109 1.241 . S
C106 O99 1.247 . S
C106 O100 1.261 . S
C107 O102 1.259 1_565 S
C107 O104 1.235 1_565 S
O108 Co98 2.021 . S
O108 C105 1.238 . S
O109 Co103 2.052 1_554 S
O109 C105 1.241 . S
O110 Co98 2.137 . S
O110 C101 1.247 . S
O111 Co98 2.244 . S
O111 C101 1.272 . S
O111 Co103 2.135 1_554 S
Co112 O113 2.216 . S
Co112 O114 2.091 . S
Co112 O116 2.004 . S
Co112 O122 2.021 . S
Co112 O124 2.137 . S
Co112 O125 2.244 . S
O113 Co112 2.216 . S
O113 C120 1.247 . S
O114 Co112 2.091 . S
O114 C120 1.261 . S
C115 O124 1.247 . S
C115 O125 1.272 . S
O116 Co112 2.004 . S
O116 C121 1.259 . S
Co117 O118 2.061 . S
Co117 O123 2.052 . S
Co117 O125 2.135 . S
O118 Co117 2.061 . S
O118 C121 1.235 . S
C119 O122 1.238 . S
C119 O123 1.241 . S
C120 O113 1.247 . S
C120 O114 1.261 . S
C121 O116 1.259 . S
C121 O118 1.235 . S
O122 Co112 2.021 . S
O122 C119 1.238 . S
O123 Co117 2.052 . S
O123 C119 1.241 . S
O124 Co112 2.137 . S
O124 C115 1.247 . S
O125 Co112 2.244 . S
O125 C115 1.272 . S
O125 Co117 2.135 . S
Co126 O127 2.216 . S
Co126 O128 2.091 . S
Co126 O130 2.004 . S
Co126 O136 2.021 . S
Co126 O138 2.137 . S
Co126 O139 2.244 . S
O127 Co126 2.216 . S
O127 C134 1.247 . S
O128 Co126 2.091 . S
O128 C134 1.261 . S
C129 O138 1.247 . S
C129 O139 1.272 . S
O130 Co126 2.004 . S
O130 C135 1.259 . S
Co131 O132 2.061 . S
Co131 O137 2.052 . S
Co131 O139 2.135 . S
O132 Co131 2.061 . S
O132 C135 1.235 . S
C133 O136 1.238 . S
C133 O137 1.241 . S
C134 O127 1.247 . S
C134 O128 1.261 . S
C135 O130 1.259 . S
C135 O132 1.235 . S
O136 Co126 2.021 . S
O136 C133 1.238 . S
O137 Co131 2.052 . S
O137 C133 1.241 . S
O138 Co126 2.137 . S
O138 C129 1.247 . S
O139 Co126 2.244 . S
O139 C129 1.272 . S
O139 Co131 2.135 . S
Co140 O141 2.216 . S
Co140 O142 2.091 . S
Co140 O144 2.004 . S
Co140 O150 2.021 . S
Co140 O152 2.137 . S
Co140 O153 2.244 . S
O141 Co140 2.216 . S
O141 C148 1.247 . S
O142 Co140 2.091 . S
O142 C148 1.261 . S
C143 O152 1.247 . S
C143 O153 1.272 . S
O144 Co140 2.004 . S
O144 C149 1.259 . S
Co145 O146 2.061 . S
Co145 O151 2.052 . S
Co145 O153 2.135 . S
O146 Co145 2.061 . S
O146 C149 1.235 . S
C147 O150 1.238 . S
C147 O151 1.241 . S
C148 O141 1.247 . S
C148 O142 1.261 . S
C149 O144 1.259 . S
C149 O146 1.235 . S
O150 Co140 2.021 . S
O150 C147 1.238 . S
O151 Co145 2.052 . S
O151 C147 1.241 . S
O152 Co140 2.137 . S
O152 C143 1.247 . S
O153 Co140 2.244 . S
O153 C143 1.272 . S
O153 Co145 2.135 . S
Co154 O155 2.216 . S
Co154 O156 2.091 . S
Co154 O158 2.004 . S
Co154 O164 2.021 . S
Co154 O166 2.137 . S
Co154 O167 2.244 . S
O155 Co154 2.216 . S
O155 C162 1.247 . S
O156 Co154 2.091 . S
O156 C162 1.261 . S
C157 O166 1.247 . S
C157 O167 1.272 . S
O158 Co154 2.004 . S
O158 C163 1.259 . S
Co159 O160 2.061 . S
Co159 O165 2.052 . S
Co159 O167 2.135 . S
O160 Co159 2.061 . S
O160 C163 1.235 . S
C161 O164 1.238 . S
C161 O165 1.241 . S
C162 O155 1.247 . S
C162 O156 1.261 . S
C163 O158 1.259 . S
C163 O160 1.235 . S
O164 Co154 2.021 . S
O164 C161 1.238 . S
O165 Co159 2.052 . S
O165 C161 1.241 . S
O166 Co154 2.137 . S
O166 C157 1.247 . S
O167 Co154 2.244 . S
O167 C157 1.272 . S
O167 Co159 2.135 . S
Co168 O169 2.216 . S
Co168 O170 2.091 . S
Co168 O172 2.004 . S
Co168 O178 2.021 . S
Co168 O180 2.137 . S
Co168 O181 2.244 . S
O169 Co168 2.216 . S
O169 C176 1.247 . S
O170 Co168 2.091 . S
O170 C176 1.261 . S
C171 O180 1.247 . S
C171 O181 1.272 . S
O172 Co168 2.004 . S
O172 C177 1.259 . S
Co173 O174 2.061 . S
Co173 O179 2.052 . S
Co173 O181 2.135 . S
O174 Co173 2.061 . S
O174 C177 1.235 . S
C175 O178 1.238 . S
C175 O179 1.241 . S
C176 O169 1.247 . S
C176 O170 1.261 . S
C177 O172 1.259 . S
C177 O174 1.235 . S
O178 Co168 2.021 . S
O178 C175 1.238 . S
O179 Co173 2.052 . S
O179 C175 1.241 . S
O180 Co168 2.137 . S
O180 C171 1.247 . S
O181 Co168 2.244 . S
O181 C171 1.272 . S
O181 Co173 2.135 . S
Co182 O183 2.216 . S
Co182 O184 2.091 . S
Co182 O186 2.004 . S
Co182 O192 2.021 . S
Co182 O194 2.137 . S
Co182 O195 2.244 . S
O183 Co182 2.216 . S
O183 C190 1.247 . S
O184 Co182 2.091 . S
O184 C190 1.261 . S
C185 O194 1.247 . S
C185 O195 1.272 . S
O186 Co182 2.004 . S
O186 C191 1.259 . S
Co187 O188 2.061 . S
Co187 O193 2.052 . S
Co187 O195 2.135 . S
O188 Co187 2.061 . S
O188 C191 1.235 . S
C189 O192 1.238 . S
C189 O193 1.241 . S
C190 O183 1.247 . S
C190 O184 1.261 . S
C191 O186 1.259 . S
C191 O188 1.235 . S
O192 Co182 2.021 . S
O192 C189 1.238 . S
O193 Co187 2.052 . S
O193 C189 1.241 . S
O194 Co182 2.137 . S
O194 C185 1.247 . S
O195 Co182 2.244 . S
O195 C185 1.272 . S
O195 Co187 2.135 . S
Co196 O197 2.216 . S
Co196 O198 2.091 . S
Co196 O200 2.004 . S
Co196 O206 2.021 . S
Co196 O208 2.137 . S
Co196 O209 2.244 . S
O197 Co196 2.216 . S
O197 C204 1.247 . S
O198 Co196 2.091 . S
O198 C204 1.261 . S
C199 O208 1.247 . S
C199 O209 1.272 . S
O200 Co196 2.004 . S
O200 C205 1.259 . S
Co201 O202 2.061 . S
Co201 O207 2.052 . S
Co201 O209 2.135 . S
O202 Co201 2.061 . S
O202 C205 1.235 . S
C203 O206 1.238 . S
C203 O207 1.241 . S
C204 O197 1.247 . S
C204 O198 1.261 . S
C205 O200 1.259 . S
C205 O202 1.235 . S
O206 Co196 2.021 . S
O206 C203 1.238 . S
O207 Co201 2.052 . S
O207 C203 1.241 . S
O208 Co196 2.137 . S
O208 C199 1.247 . S
O209 Co196 2.244 . S
O209 C199 1.272 . S
O209 Co201 2.135 . S
Co210 O211 2.216 . S
Co210 O212 2.091 . S
Co210 O214 2.004 . S
Co210 O220 2.021 . S
Co210 O222 2.137 . S
Co210 O223 2.244 . S
O211 Co210 2.216 . S
O211 C218 1.247 . S
O212 Co210 2.091 . S
O212 C218 1.261 . S
C213 O222 1.247 . S
C213 O223 1.272 . S
O214 Co210 2.004 . S
O214 C219 1.259 . S
Co215 O216 2.061 . S
Co215 O221 2.052 . S
Co215 O223 2.135 . S
O216 Co215 2.061 . S
O216 C219 1.235 . S
C217 O220 1.238 . S
C217 O221 1.241 . S
C218 O211 1.247 . S
C218 O212 1.261 . S
C219 O214 1.259 . S
C219 O216 1.235 . S
O220 Co210 2.021 . S
O220 C217 1.238 . S
O221 Co215 2.052 . S
O221 C217 1.241 . S
O222 Co210 2.137 . S
O222 C213 1.247 . S
O223 Co210 2.244 . S
O223 C213 1.272 . S
O223 Co215 2.135 . S
C224 C225 1.170 . S
C224 C226 1.380 . S
C225 C224 1.170 . S
C226 C224 1.380 . S
C226 C227 1.170 . S
C227 C226 1.170 . S
C228 C229 1.170 . S
C228 C230 1.380 . S
C229 C228 1.170 . S
C230 C228 1.380 . S
C230 C231 1.170 . S
C231 C230 1.170 . S
C232 C233 1.170 . S
C232 C234 1.380 . S
C233 C232 1.170 . S
C234 C232 1.380 . S
C234 C235 1.170 . S
C235 C234 1.170 . S
C236 C237 1.170 . S
C236 C238 1.380 . S
C237 C236 1.170 . S
C238 C236 1.380 . S
C238 C239 1.170 . S
C239 C238 1.170 . S
C240 C241 1.170 . S
C240 C242 1.380 . S
C241 C240 1.170 . S
C242 C240 1.380 . S
C242 C243 1.170 1_554 S
C243 C242 1.170 1_556 S
C244 C245 1.170 1_556 S
C244 C246 1.380 . S
C245 C244 1.170 1_554 S
C246 C244 1.380 . S
C246 C247 1.170 . S
C247 C246 1.170 . S
C248 C249 1.170 1_554 S
C248 C250 1.380 . S
C249 C248 1.170 1_556 S
C250 C248 1.380 . S
C250 C251 1.170 . S
C251 C250 1.170 . S
C252 C253 1.170 1_556 S
C252 C254 1.380 . S
C253 C252 1.170 1_554 S
C254 C252 1.380 . S
C254 C255 1.170 . S
C255 C254 1.170 . S
C256 C257 1.170 . S
C256 C258 1.380 . S
C257 C256 1.170 . S
C258 C256 1.380 . S
C258 C259 1.170 . S
C259 C258 1.170 . S
C260 C261 1.170 . S
C260 C262 1.380 . S
C261 C260 1.170 . S
C262 C260 1.380 . S
C262 C263 1.170 . S
C263 C262 1.170 . S
C264 C265 1.170 . S
C264 C266 1.380 . S
C265 C264 1.170 . S
C266 C264 1.380 . S
C266 C267 1.170 . S
C267 C266 1.170 . S
C268 C269 1.170 . S
C268 C270 1.380 . S
C269 C268 1.170 . S
C270 C268 1.380 . S
C270 C271 1.170 . S
C271 C270 1.170 . S
C272 C273 1.170 . S
C272 C274 1.380 . S
C273 C272 1.170 . S
C274 C272 1.380 . S
C274 C275 1.170 . S
C275 C274 1.170 . S
C276 C277 1.170 . S
C276 C278 1.380 . S
C277 C276 1.170 . S
C278 C276 1.380 . S
C278 C279 1.170 . S
C279 C278 1.170 . S
C280 C281 1.170 . S
C280 C282 1.380 . S
C281 C280 1.170 . S
C282 C280 1.380 . S
C282 C283 1.170 . S
C283 C282 1.170 . S
C284 C285 1.170 . S
C284 C286 1.380 . S
C285 C284 1.170 . S
C286 C284 1.380 . S
C286 C287 1.170 . S
C287 C286 1.170 . S
C288 C289 1.170 . S
C288 C290 1.380 . S
C289 C288 1.170 . S
C290 C288 1.380 . S
C290 C291 1.170 . S
C291 C290 1.170 . S
C292 C293 1.170 . S
C292 C294 1.380 . S
C293 C292 1.170 . S
C294 C292 1.380 . S
C294 C295 1.170 . S
C295 C294 1.170 . S
C296 C297 1.170 . S
C296 C298 1.380 . S
C297 C296 1.170 . S
C298 C296 1.380 . S
C298 C299 1.170 . S
C299 C298 1.170 . S
C300 C301 1.170 . S
C300 C302 1.380 . S
C301 C300 1.170 . S
C302 C300 1.380 . S
C302 C303 1.170 . S
C303 C302 1.170 . S
C304 C305 1.170 . S
C304 C306 1.380 . S
C305 C304 1.170 . S
C306 C304 1.380 . S
C306 C307 1.170 . S
C307 C306 1.170 . S
C308 C309 1.170 . S
C308 C310 1.380 . S
C309 C308 1.170 . S
C310 C308 1.380 . S
C310 C311 1.170 . S
C311 C310 1.170 . S
C312 C313 1.170 . S
C312 C314 1.380 . S
C313 C312 1.170 . S
C314 C312 1.380 . S
C314 C315 1.170 . S
C315 C314 1.170 . S
C316 C317 1.170 . S
C316 C318 1.380 . S
C317 C316 1.170 . S
C318 C316 1.380 . S
C318 C319 1.170 . S
C319 C318 1.170 . S
C320 C321 1.170 . S
C320 C322 1.380 1_665 S
C321 C320 1.170 . S
C322 C320 1.380 1_445 S
C322 C323 1.170 . S
C323 C322 1.170 . S
C324 C325 1.170 . S
C324 C326 1.380 1_645 S
C325 C324 1.170 . S
C326 C324 1.380 1_465 S
C326 C327 1.170 . S
C327 C326 1.170 . S
C328 C329 1.170 . S
C328 C330 1.380 1_455 S
C329 C328 1.170 . S
C330 C328 1.380 1_655 S
C330 C331 1.170 . S
C331 C330 1.170 . S
C332 C333 1.170 . S
C332 C334 1.380 1_565 S
C333 C332 1.170 . S
C334 C332 1.380 1_545 S
C334 C335 1.170 . S
C335 C334 1.170 . S
C336 C337 1.170 . S
C336 C338 1.380 . S
C337 C336 1.170 . S
C338 C336 1.380 . S
C338 C339 1.170 . S
C339 C338 1.170 . S
C340 C341 1.170 . S
C340 C342 1.380 . S
C341 C340 1.170 . S
C342 C340 1.380 . S
C342 C343 1.170 . S
C343 C342 1.170 . S
C344 C345 1.170 . S
C344 C346 1.380 1_545 S
C345 C344 1.170 . S
C346 C344 1.380 1_565 S
C346 C347 1.170 . S
C347 C346 1.170 . S
C348 C349 1.170 . S
C348 C350 1.380 1_655 S
C349 C348 1.170 . S
C350 C348 1.380 1_455 S
C350 C351 1.170 . S
C351 C350 1.170 . S
C225 C3 1.268 . S
C227 C163 1.252 . S
C229 C121 1.255 . S
C231 C17 1.234 . S
C233 C135 1.251 . S
C235 C31 1.264 . S
C237 C149 1.260 . S
C239 C45 1.237 . S
C241 C79 1.262 . S
C243 C59 1.277 . S
C245 C73 1.256 . S
C247 C93 1.261 . S
C249 C87 1.234 . S
C251 C107 1.268 . S
C253 C101 1.274 . S
C255 C65 1.287 . S
C257 C115 1.244 . S
C259 C51 1.254 . S
C261 C9 1.253 . S
C263 C129 1.245 . S
C265 C23 1.259 . S
C267 C143 1.276 . S
C269 C37 1.274 . S
C271 C157 1.271 . S
C273 C191 1.264 . S
C275 C171 1.277 . S
C277 C185 1.278 . S
C279 C205 1.285 . S
C281 C219 1.251 . S
C283 C199 1.264 . S
C285 C177 1.278 . S
C287 C213 1.257 . S
C289 C204 1.588 . S
C291 C8 1.573 . S
C293 C218 1.588 . S
C295 C22 1.582 . S
C297 C176 1.570 . S
C299 C36 1.588 . S
C301 C50 1.589 . S
C303 C190 1.579 . S
C305 C64 1.589 . S
C307 C148 1.571 . S
C309 C162 1.581 . S
C311 C78 1.589 . S
C313 C92 1.572 . S
C315 C120 1.589 . S
C317 C106 1.570 . S
C319 C134 1.580 . S
C321 C35 1.321 . S
C323 C7 1.305 . S
C325 C49 1.284 . S
C327 C21 1.311 . S
C329 C63 1.299 . S
C331 C91 1.318 . S
C333 C77 1.332 . S
C335 C105 1.292 . S
C337 C147 1.299 . S
C339 C119 1.318 . S
C341 C133 1.337 . S
C343 C161 1.303 . S
C345 C203 1.293 . S
C347 C175 1.325 . S
C349 C189 1.336 . S
C351 C217 1.297 . S
