# Generated by pormake.
# Topology umd, (4)-cn, num edge types: 1
# Building blocks:
#     Node 0, Type 0, BuildingBlock: CEKHIL_clean_sbu_0, # of connection points: 4
#     Node 1, Type 0, BuildingBlock: CEKHIL_clean_sbu_0, # of connection points: 4
#     Node 2, Type 0, BuildingBlock: CEKHIL_clean_sbu_0, # of connection points: 4
#     Node 3, Type 0, BuildingBlock: CEKHIL_clean_sbu_0, # of connection points: 4
#     Node 4, Type 0, BuildingBlock: CEKHIL_clean_sbu_0, # of connection points: 4
#     Node 5, Type 0, BuildingBlock: CEKHIL_clean_sbu_0, # of connection points: 4
#     Node 6, Type 0, BuildingBlock: CEKHIL_clean_sbu_0, # of connection points: 4
#     Node 7, Type 0, BuildingBlock: CEKHIL_clean_sbu_0, # of connection points: 4
#     Node 8, Type 0, BuildingBlock: CEKHIL_clean_sbu_0, # of connection points: 4
#     Node 9, Type 0, BuildingBlock: CEKHIL_clean_sbu_0, # of connection points: 4
#     Node 10, Type 0, BuildingBlock: CEKHIL_clean_sbu_0, # of connection points: 4
#     Node 11, Type 0, BuildingBlock: CEKHIL_clean_sbu_0, # of connection points: 4
#     Node 12, Type 0, BuildingBlock: CEKHIL_clean_sbu_0, # of connection points: 4
#     Node 13, Type 0, BuildingBlock: CEKHIL_clean_sbu_0, # of connection points: 4
#     Node 14, Type 0, BuildingBlock: CEKHIL_clean_sbu_0, # of connection points: 4
#     Node 15, Type 0, BuildingBlock: CEKHIL_clean_sbu_0, # of connection points: 4
#     Edge 16, Type (0, 0), BuildingBlock: KIFKEQ_clean_linker_1, # of connection points: 2
#     Edge 17, Type (0, 0), BuildingBlock: KIFKEQ_clean_linker_1, # of connection points: 2
#     Edge 18, Type (0, 0), BuildingBlock: KIFKEQ_clean_linker_1, # of connection points: 2
#     Edge 19, Type (0, 0), BuildingBlock: KIFKEQ_clean_linker_1, # of connection points: 2
#     Edge 20, Type (0, 0), BuildingBlock: KIFKEQ_clean_linker_1, # of connection points: 2
#     Edge 21, Type (0, 0), BuildingBlock: KIFKEQ_clean_linker_1, # of connection points: 2
#     Edge 22, Type (0, 0), BuildingBlock: KIFKEQ_clean_linker_1, # of connection points: 2
#     Edge 23, Type (0, 0), BuildingBlock: KIFKEQ_clean_linker_1, # of connection points: 2
#     Edge 24, Type (0, 0), BuildingBlock: KIFKEQ_clean_linker_1, # of connection points: 2
#     Edge 25, Type (0, 0), BuildingBlock: KIFKEQ_clean_linker_1, # of connection points: 2
#     Edge 26, Type (0, 0), BuildingBlock: KIFKEQ_clean_linker_1, # of connection points: 2
#     Edge 27, Type (0, 0), BuildingBlock: KIFKEQ_clean_linker_1, # of connection points: 2
#     Edge 28, Type (0, 0), BuildingBlock: KIFKEQ_clean_linker_1, # of connection points: 2
#     Edge 29, Type (0, 0), BuildingBlock: KIFKEQ_clean_linker_1, # of connection points: 2
#     Edge 30, Type (0, 0), BuildingBlock: KIFKEQ_clean_linker_1, # of connection points: 2
#     Edge 31, Type (0, 0), BuildingBlock: KIFKEQ_clean_linker_1, # of connection points: 2
#     Edge 32, Type (0, 0), BuildingBlock: KIFKEQ_clean_linker_1, # of connection points: 2
#     Edge 33, Type (0, 0), BuildingBlock: KIFKEQ_clean_linker_1, # of connection points: 2
#     Edge 34, Type (0, 0), BuildingBlock: KIFKEQ_clean_linker_1, # of connection points: 2
#     Edge 35, Type (0, 0), BuildingBlock: KIFKEQ_clean_linker_1, # of connection points: 2
#     Edge 36, Type (0, 0), BuildingBlock: KIFKEQ_clean_linker_1, # of connection points: 2
#     Edge 37, Type (0, 0), BuildingBlock: KIFKEQ_clean_linker_1, # of connection points: 2
#     Edge 38, Type (0, 0), BuildingBlock: KIFKEQ_clean_linker_1, # of connection points: 2
#     Edge 39, Type (0, 0), BuildingBlock: KIFKEQ_clean_linker_1, # of connection points: 2
#     Edge 40, Type (0, 0), BuildingBlock: KIFKEQ_clean_linker_1, # of connection points: 2
#     Edge 41, Type (0, 0), BuildingBlock: KIFKEQ_clean_linker_1, # of connection points: 2
#     Edge 42, Type (0, 0), BuildingBlock: KIFKEQ_clean_linker_1, # of connection points: 2
#     Edge 43, Type (0, 0), BuildingBlock: KIFKEQ_clean_linker_1, # of connection points: 2
#     Edge 44, Type (0, 0), BuildingBlock: KIFKEQ_clean_linker_1, # of connection points: 2
#     Edge 45, Type (0, 0), BuildingBlock: KIFKEQ_clean_linker_1, # of connection points: 2
#     Edge 46, Type (0, 0), BuildingBlock: KIFKEQ_clean_linker_1, # of connection points: 2
#     Edge 47, Type (0, 0), BuildingBlock: KIFKEQ_clean_linker_1, # of connection points: 2
# Relax obj value: 0.093
# Max RMSD: 0.228
# Mean RMSD: 0.228
data_MOF--net-umd--node1-CEKHIL_clean_sbu_0--edge1-KIFKEQ_clean_linker_1
_symmetry_space_group_name_H-M    P1
_symmetry_Int_Tables_number       1
_symmetry_cell_setting            triclinic
loop_
_symmetry_equiv_pos_as_xyz
'x, y, z'
_cell_length_a     39.255548
_cell_length_b     39.261871
_cell_length_c     56.560211
_cell_angle_alpha  90.023062
_cell_angle_beta   90.075916
_cell_angle_gamma 90.028169
loop_
_atom_site_label
_atom_site_type_symbol
_atom_site_fract_x
_atom_site_fract_y
_atom_site_fract_z
_atom_type_partial_charge
Co0 Co 0.20039 0.44919 0.1274 0.0
O1 O 0.24358 0.42661 0.1277 0.0
O2 O 0.19671 0.40484 0.11204 0.0
C3 C 0.20125 0.46529 0.16558 0.0
O4 O 0.15096 0.46576 0.12481 0.0
Co5 Co 0.19927 0.52714 0.13558 0.0
O6 O 0.14964 0.51955 0.13857 0.0
C7 C 0.21915 0.5012 0.08904 0.0
C8 C 0.22907 0.40157 0.11669 0.0
C9 C 0.1346 0.49279 0.1312 0.0
O10 O 0.2124 0.47094 0.09631 0.0
O11 O 0.21703 0.5276 0.10224 0.0
O12 O 0.19151 0.43484 0.15966 0.0
O13 O 0.21353 0.48367 0.14859 0.0
Co14 Co 0.5585 0.19533 0.62367 0.0
O15 O 0.57922 0.23931 0.62212 0.0
O16 O 0.60356 0.19203 0.60925 0.0
C17 C 0.54114 0.19938 0.66134 0.0
O18 O 0.54346 0.14529 0.62341 0.0
Co19 Co 0.48006 0.19362 0.63023 0.0
O20 O 0.48873 0.14448 0.63542 0.0
C21 C 0.50781 0.21055 0.58372 0.0
C22 C 0.60527 0.2249 0.61232 0.0
C23 C 0.51621 0.12922 0.62976 0.0
O24 O 0.53749 0.20298 0.59173 0.0
O25 O 0.48116 0.21107 0.59675 0.0
O26 O 0.57222 0.1906 0.6565 0.0
O27 O 0.52289 0.20917 0.64352 0.0
Co28 Co 0.81618 0.56212 0.12121 0.0
O29 O 0.77565 0.58938 0.12146 0.0
O30 O 0.82517 0.60611 0.10663 0.0
C31 C 0.81267 0.5452 0.15914 0.0
O32 O 0.86366 0.54087 0.11901 0.0
Co33 Co 0.81006 0.48434 0.12829 0.0
O34 O 0.86031 0.48657 0.13149 0.0
C35 C 0.79218 0.51349 0.08217 0.0
C36 C 0.79344 0.61294 0.11129 0.0
C37 C 0.87763 0.51234 0.12491 0.0
O38 O 0.8029 0.54251 0.08965 0.0
O39 O 0.7906 0.48707 0.09539 0.0
O40 O 0.82569 0.57459 0.15376 0.0
O41 O 0.7991 0.52853 0.14174 0.0
Co42 Co 0.45081 0.8086 0.6246 0.0
O43 O 0.42603 0.76664 0.62345 0.0
O44 O 0.40695 0.81561 0.60913 0.0
C45 C 0.46634 0.80497 0.6628 0.0
O46 O 0.46996 0.85716 0.62343 0.0
Co47 Co 0.52864 0.80553 0.63316 0.0
O48 O 0.52416 0.8555 0.63646 0.0
C49 C 0.50211 0.78844 0.58623 0.0
C50 C 0.40206 0.78321 0.61272 0.0
C51 C 0.49795 0.87199 0.62967 0.0
O52 O 0.47228 0.79703 0.59338 0.0
O53 O 0.52841 0.78841 0.59962 0.0
O54 O 0.43649 0.81648 0.65696 0.0
O55 O 0.48435 0.79266 0.64563 0.0
Co56 Co 0.19306 0.55806 0.37376 0.0
O57 O 0.23438 0.58409 0.37469 0.0
O58 O 0.1849 0.6017 0.38908 0.0
C59 C 0.19681 0.54228 0.33563 0.0
O60 O 0.14494 0.5378 0.37502 0.0
Co61 Co 0.19771 0.48032 0.36556 0.0
O62 O 0.1477 0.48378 0.36182 0.0
C63 C 0.21475 0.50755 0.41231 0.0
C64 C 0.21708 0.6076 0.38533 0.0
C65 C 0.13065 0.50963 0.36856 0.0
O66 O 0.2054 0.53713 0.40509 0.0
O67 O 0.21522 0.4812 0.399 0.0
O68 O 0.18462 0.57189 0.34136 0.0
O69 O 0.20971 0.52473 0.35285 0.0
Co70 Co 0.44693 0.19742 0.86907 0.0
O71 O 0.42575 0.24126 0.86985 0.0
O72 O 0.40244 0.19442 0.88431 0.0
C73 C 0.46295 0.19981 0.83104 0.0
O74 O 0.46215 0.14738 0.87032 0.0
Co75 Co 0.52503 0.19467 0.86088 0.0
O76 O 0.51555 0.14573 0.85582 0.0
C77 C 0.49946 0.21361 0.9077 0.0
C78 C 0.40017 0.22706 0.88039 0.0
C79 C 0.48857 0.13086 0.86292 0.0
O80 O 0.46909 0.20728 0.9004 0.0
O81 O 0.52578 0.21167 0.89443 0.0
O82 O 0.43215 0.19087 0.83659 0.0
O83 O 0.48181 0.21044 0.84833 0.0
Co84 Co 0.80778 0.44598 0.36591 0.0
O85 O 0.76401 0.42469 0.36602 0.0
O86 O 0.81069 0.40084 0.38035 0.0
C87 C 0.80599 0.46364 0.3281 0.0
O88 O 0.85755 0.46163 0.36781 0.0
Co89 Co 0.80896 0.52426 0.35973 0.0
O90 O 0.85844 0.51626 0.35563 0.0
C91 C 0.79064 0.49617 0.40588 0.0
C92 C 0.77803 0.39882 0.37631 0.0
C93 C 0.87369 0.48901 0.36184 0.0
O94 O 0.79793 0.46654 0.39771 0.0
O95 O 0.79099 0.52305 0.39308 0.0
O96 O 0.81503 0.43272 0.33325 0.0
O97 O 0.79458 0.48151 0.34565 0.0
Co98 Co 0.56027 0.81233 0.87078 0.0
O99 O 0.58602 0.77096 0.8717 0.0
O100 O 0.60429 0.82048 0.88573 0.0
C101 C 0.54369 0.80816 0.83284 0.0
O102 O 0.53994 0.86033 0.87206 0.0
Co103 Co 0.48241 0.80647 0.86379 0.0
O104 O 0.48481 0.85676 0.86123 0.0
C105 C 0.51135 0.7897 0.90998 0.0
C106 C 0.60979 0.78817 0.88215 0.0
C107 C 0.51099 0.87416 0.86697 0.0
O108 O 0.54009 0.80077 0.90238 0.0
O109 O 0.48495 0.78726 0.89678 0.0
O110 O 0.57345 0.82035 0.83824 0.0
O111 O 0.52655 0.79536 0.85028 0.0
Co112 Co 0.80413 0.55459 0.86718 0.0
O113 O 0.76132 0.57785 0.86662 0.0
O114 O 0.80852 0.59918 0.8821 0.0
C115 C 0.80312 0.53771 0.82919 0.0
O116 O 0.85327 0.53723 0.86998 0.0
Co117 Co 0.80394 0.47655 0.86006 0.0
O118 O 0.85367 0.48319 0.85668 0.0
C119 C 0.78426 0.50401 0.90619 0.0
C120 C 0.7762 0.60283 0.87745 0.0
C121 C 0.86917 0.50985 0.86374 0.0
O122 O 0.79169 0.53387 0.8985 0.0
O123 O 0.78593 0.4772 0.89337 0.0
O124 O 0.81335 0.56809 0.83485 0.0
O125 O 0.79042 0.51985 0.84631 0.0
Co126 Co 0.44459 0.8091 0.3701 0.0
O127 O 0.42342 0.76531 0.37179 0.0
O128 O 0.39961 0.81291 0.38459 0.0
C129 C 0.46174 0.80474 0.33241 0.0
O130 O 0.46008 0.85901 0.37026 0.0
Co131 Co 0.52303 0.81011 0.3633 0.0
O132 O 0.51488 0.85938 0.35837 0.0
C133 C 0.49538 0.79337 0.40989 0.0
C134 C 0.39754 0.78005 0.38157 0.0
C135 C 0.48751 0.87487 0.36401 0.0
O136 O 0.46571 0.80131 0.40202 0.0
O137 O 0.5219 0.79256 0.39675 0.0
O138 O 0.43076 0.81383 0.33729 0.0
O139 O 0.47998 0.79487 0.35021 0.0
Co140 Co 0.18991 0.44431 0.87423 0.0
O141 O 0.23227 0.42027 0.87562 0.0
O142 O 0.18338 0.40027 0.88948 0.0
C143 C 0.19372 0.46019 0.83614 0.0
O144 O 0.14114 0.46282 0.87502 0.0
Co145 Co 0.19299 0.52221 0.8664 0.0
O146 O 0.14296 0.51743 0.86291 0.0
C147 C 0.21028 0.49504 0.91303 0.0
C148 C 0.21593 0.396 0.88615 0.0
C149 C 0.12638 0.49095 0.86906 0.0
O150 O 0.20041 0.46568 0.90568 0.0
O151 O 0.21181 0.52118 0.89955 0.0
O152 O 0.18272 0.43008 0.84175 0.0
O153 O 0.20571 0.47816 0.85349 0.0
Co154 Co 0.55451 0.19517 0.36911 0.0
O155 O 0.57993 0.23684 0.37036 0.0
O156 O 0.59809 0.18752 0.38471 0.0
C157 C 0.53921 0.19899 0.33089 0.0
O158 O 0.53486 0.1468 0.37019 0.0
Co159 Co 0.47675 0.19874 0.36023 0.0
O160 O 0.48092 0.14877 0.35671 0.0
C161 C 0.50305 0.21553 0.40731 0.0
C162 C 0.60356 0.21981 0.38111 0.0
C163 C 0.50692 0.13211 0.36368 0.0
O164 O 0.53293 0.20693 0.40026 0.0
O165 O 0.47685 0.21563 0.39383 0.0
O166 O 0.56892 0.18718 0.33678 0.0
O167 O 0.52124 0.21146 0.34803 0.0
Co168 Co 0.80942 0.44726 0.6205 0.0
O169 O 0.7678 0.42178 0.61912 0.0
O170 O 0.81718 0.40389 0.60472 0.0
C171 C 0.80551 0.46213 0.6588 0.0
O172 O 0.85777 0.46695 0.61955 0.0
Co173 Co 0.80593 0.52484 0.62968 0.0
O174 O 0.85579 0.52038 0.63389 0.0
C175 C 0.78915 0.49909 0.58245 0.0
C176 C 0.78491 0.39831 0.60829 0.0
C177 C 0.87247 0.49459 0.62662 0.0
O178 O 0.79761 0.46912 0.58941 0.0
O179 O 0.78919 0.52517 0.59603 0.0
O180 O 0.81743 0.43253 0.65277 0.0
O181 O 0.79305 0.48029 0.64173 0.0
Co182 Co 0.55727 0.80503 0.12492 0.0
O183 O 0.58139 0.76275 0.12658 0.0
O184 O 0.60205 0.80963 0.11031 0.0
C185 C 0.54015 0.80464 0.16277 0.0
O186 O 0.53924 0.85389 0.12147 0.0
Co187 Co 0.47901 0.80405 0.1319 0.0
O188 O 0.48515 0.85387 0.13466 0.0
C189 C 0.50704 0.78351 0.08605 0.0
C190 C 0.60663 0.7779 0.1163 0.0
C191 C 0.51163 0.86956 0.12753 0.0
O192 O 0.53692 0.79134 0.09365 0.0
O193 O 0.48024 0.78523 0.09886 0.0
O194 O 0.57043 0.8152 0.15725 0.0
O195 O 0.5225 0.79149 0.14569 0.0
Co196 Co 0.19492 0.5584 0.6291 0.0
O197 O 0.2383 0.58005 0.63099 0.0
O198 O 0.19273 0.60409 0.61529 0.0
C199 C 0.19446 0.53964 0.66669 0.0
O200 O 0.14554 0.54219 0.62534 0.0
Co201 Co 0.1948 0.48001 0.634 0.0
O202 O 0.14495 0.48699 0.63624 0.0
C203 C 0.21523 0.5098 0.58884 0.0
C204 C 0.22496 0.6063 0.62077 0.0
C205 C 0.12958 0.51422 0.63015 0.0
O206 O 0.2072 0.53907 0.59732 0.0
O207 O 0.2145 0.48249 0.60118 0.0
O208 O 0.18516 0.57051 0.66164 0.0
O209 O 0.20733 0.52247 0.6493 0.0
Co210 Co 0.44454 0.1902 0.1231 0.0
O211 O 0.42027 0.23244 0.12169 0.0
O212 O 0.40031 0.18331 0.10814 0.0
C213 C 0.46099 0.19467 0.16107 0.0
O214 O 0.4632 0.14151 0.12229 0.0
Co215 Co 0.52255 0.19321 0.13061 0.0
O216 O 0.5178 0.14325 0.13449 0.0
C217 C 0.4948 0.20968 0.08393 0.0
C218 C 0.39592 0.21586 0.11138 0.0
C219 C 0.4913 0.12671 0.12828 0.0
O220 O 0.46542 0.20037 0.09151 0.0
O221 O 0.52117 0.21113 0.09724 0.0
O222 O 0.43087 0.18335 0.15571 0.0
O223 O 0.47868 0.20639 0.14354 0.0
H224 H 0.09314 0.54581 0.14307 0.0
H225 H 0.09014 0.44331 0.1151 0.0
H226 H 0.03183 0.54964 0.13988 0.0
H227 H 0.02808 0.44753 0.11156 0.0
H228 H 0.91581 0.45646 0.13662 0.0
H229 H 0.97745 0.45083 0.13666 0.0
H230 H 0.98693 0.55385 0.11073 0.0
H231 H 0.92507 0.55986 0.11111 0.0
C232 C 0.07947 0.52401 0.13613 0.0
C233 C 0.09681 0.49416 0.12935 0.0
C234 C 0.04416 0.52641 0.13411 0.0
C235 C 0.02498 0.49906 0.12527 0.0
C236 C 0.04212 0.46903 0.11858 0.0
C237 C 0.07768 0.46662 0.12056 0.0
C238 C 0.93092 0.47798 0.13084 0.0
C239 C 0.91532 0.50878 0.12403 0.0
C240 C 0.96636 0.47457 0.13069 0.0
C241 C 0.98719 0.50187 0.12377 0.0
C242 C 0.97163 0.53245 0.1165 0.0
C243 C 0.93613 0.53588 0.11664 0.0
H244 H 0.44818 0.91887 0.61877 0.0
H245 H 0.55453 0.91083 0.63801 0.0
H246 H 0.4537 0.98084 0.61762 0.0
H247 H 0.55974 0.97241 0.63722 0.0
H248 H 0.56397 0.08404 0.61243 0.0
H249 H 0.55957 0.02184 0.61089 0.0
H250 H 0.46196 0.02689 0.64585 0.0
H251 H 0.46599 0.08838 0.64716 0.0
C252 C 0.47267 0.93022 0.62277 0.0
C253 C 0.50078 0.90973 0.62862 0.0
C254 C 0.47584 0.96575 0.62219 0.0
C255 C 0.50719 0.98161 0.62738 0.0
C256 C 0.53536 0.96108 0.63286 0.0
C257 C 0.5322 0.92567 0.63351 0.0
C258 C 0.54168 0.07183 0.61987 0.0
C259 C 0.51533 0.09136 0.62982 0.0
C260 C 0.53914 0.0362 0.61899 0.0
C261 C 0.5102 0.0194 0.62803 0.0
C262 C 0.48422 0.03896 0.63825 0.0
C263 C 0.48674 0.07436 0.63915 0.0
H264 H 0.08283 0.55883 0.37864 0.0
H265 H 0.09274 0.4526 0.35966 0.0
H266 H 0.02088 0.55276 0.37831 0.0
H267 H 0.0312 0.44685 0.35894 0.0
H268 H 0.91827 0.44157 0.38034 0.0
H269 H 0.98029 0.44648 0.3837 0.0
H270 H 0.97642 0.54436 0.34899 0.0
H271 H 0.91507 0.53983 0.34591 0.0
C272 C 0.0719 0.53422 0.37443 0.0
C273 C 0.09292 0.50632 0.36905 0.0
C274 C 0.03637 0.53076 0.37413 0.0
C275 C 0.02104 0.4993 0.36852 0.0
C276 C 0.04208 0.47131 0.3636 0.0
C277 C 0.07749 0.47477 0.36382 0.0
C278 C 0.9307 0.46403 0.37335 0.0
C279 C 0.91153 0.49029 0.36294 0.0
C280 C 0.96624 0.46687 0.37527 0.0
C281 C 0.98331 0.49602 0.36683 0.0
C282 C 0.96411 0.52194 0.35615 0.0
C283 C 0.92881 0.51913 0.35423 0.0
H284 H 0.56087 0.92264 0.87301 0.0
H285 H 0.45221 0.91118 0.86321 0.0
H286 H 0.55402 0.98447 0.87323 0.0
H287 H 0.4456 0.97273 0.86309 0.0
H288 H 0.44439 0.0864 0.88518 0.0
H289 H 0.44959 0.02426 0.88783 0.0
H290 H 0.53967 0.028 0.84416 0.0
H291 H 0.53483 0.08935 0.84168 0.0
C292 C 0.53556 0.93322 0.87095 0.0
C293 C 0.50721 0.91182 0.8679 0.0
C294 C 0.53163 0.96867 0.87097 0.0
C295 C 0.49924 0.98356 0.86804 0.0
C296 C 0.47082 0.96215 0.86558 0.0
C297 C 0.47475 0.92678 0.86545 0.0
C298 C 0.46512 0.07388 0.87604 0.0
C299 C 0.48928 0.093 0.86338 0.0
C300 C 0.46815 0.03831 0.87756 0.0
C301 C 0.49537 0.02122 0.86648 0.0
C302 C 0.51892 0.04035 0.8534 0.0
C303 C 0.51592 0.07565 0.85187 0.0
H304 H 0.914 0.55748 0.88174 0.0
H305 H 0.91021 0.45774 0.84938 0.0
H306 H 0.976 0.55265 0.88488 0.0
H307 H 0.9716 0.45332 0.85215 0.0
H308 H 0.07943 0.44122 0.88005 0.0
H309 H 0.0174 0.44644 0.88048 0.0
H310 H 0.02586 0.55186 0.85946 0.0
H311 H 0.08744 0.54697 0.85944 0.0
C312 C 0.92629 0.53465 0.87521 0.0
C313 C 0.90696 0.50807 0.86532 0.0
C314 C 0.96183 0.53188 0.87696 0.0
C315 C 0.9788 0.50247 0.86888 0.0
C316 C 0.95941 0.47602 0.85897 0.0
C317 C 0.92408 0.47876 0.85722 0.0
C318 C 0.06807 0.46552 0.87559 0.0
C319 C 0.08858 0.49356 0.8696 0.0
C320 C 0.03249 0.46851 0.87575 0.0
C321 C 0.01661 0.4996 0.86998 0.0
C322 C 0.03716 0.52768 0.86431 0.0
C323 C 0.0726 0.52471 0.86411 0.0
H324 H 0.55572 0.08515 0.37635 0.0
H325 H 0.4509 0.09335 0.35345 0.0
H326 H 0.5499 0.02323 0.37765 0.0
H327 H 0.44542 0.03178 0.3544 0.0
H328 H 0.43891 0.92049 0.37964 0.0
H329 H 0.44349 0.98269 0.38102 0.0
H330 H 0.5435 0.97681 0.34956 0.0
H331 H 0.53929 0.91534 0.34843 0.0
C332 C 0.5315 0.07385 0.37157 0.0
C333 C 0.50391 0.09438 0.36468 0.0
C334 C 0.52817 0.03833 0.37224 0.0
C335 C 0.49716 0.02252 0.36609 0.0
C336 C 0.4695 0.04308 0.35952 0.0
C337 C 0.47283 0.07848 0.3588 0.0
C338 C 0.46179 0.93251 0.37296 0.0
C339 C 0.4887 0.91274 0.36401 0.0
C340 C 0.46443 0.96814 0.37372 0.0
C341 C 0.49405 0.98472 0.3656 0.0
C342 C 0.52066 0.96492 0.35643 0.0
C343 C 0.51804 0.92953 0.35563 0.0
H344 H 0.91901 0.44865 0.6091 0.0
H345 H 0.91165 0.54758 0.64233 0.0
H346 H 0.98092 0.45455 0.60784 0.0
H347 H 0.97321 0.55304 0.64147 0.0
H348 H 0.0841 0.56517 0.61828 0.0
H349 H 0.02199 0.56065 0.61549 0.0
H350 H 0.02785 0.4546 0.63537 0.0
H351 H 0.0892 0.45876 0.6377 0.0
C352 C 0.93051 0.47156 0.6162 0.0
C353 C 0.91021 0.49751 0.62588 0.0
C354 C 0.96602 0.47494 0.61552 0.0
C355 C 0.98208 0.50432 0.62455 0.0
C356 C 0.96174 0.53034 0.63402 0.0
C357 C 0.92634 0.52699 0.63469 0.0
C358 C 0.0721 0.54091 0.62197 0.0
C359 C 0.09182 0.51244 0.62827 0.0
C360 C 0.03651 0.53832 0.62046 0.0
C361 C 0.01991 0.50719 0.62513 0.0
C362 C 0.03971 0.47879 0.63125 0.0
C363 C 0.07506 0.48136 0.63279 0.0
H364 H 0.44438 0.08055 0.11142 0.0
H365 H 0.54474 0.08713 0.14268 0.0
H366 H 0.45023 0.01872 0.10908 0.0
H367 H 0.55018 0.02561 0.14076 0.0
H368 H 0.56172 0.91576 0.11523 0.0
H369 H 0.55681 0.97791 0.11372 0.0
H370 H 0.45163 0.97065 0.13549 0.0
H371 H 0.45615 0.90927 0.13654 0.0
C372 C 0.46757 0.06889 0.11791 0.0
C373 C 0.49398 0.08895 0.1273 0.0
C374 C 0.47094 0.03341 0.1166 0.0
C375 C 0.50074 0.01715 0.1247 0.0
C376 C 0.52714 0.03725 0.13399 0.0
C377 C 0.52381 0.07262 0.13528 0.0
C378 C 0.53754 0.92745 0.11957 0.0
C379 C 0.50944 0.90734 0.12606 0.0
C380 C 0.53474 0.96308 0.11881 0.0
C381 C 0.50376 0.97931 0.12444 0.0
C382 C 0.47569 0.95911 0.13067 0.0
C383 C 0.47847 0.92373 0.13146 0.0
H384 H 0.21873 0.48094 0.3183 0.0
H385 H 0.17469 0.57698 0.29698 0.0
H386 H 0.2197 0.46257 0.27696 0.0
H387 H 0.17533 0.55855 0.25587 0.0
H388 H 0.21823 0.52803 0.18314 0.0
H389 H 0.21716 0.54635 0.22447 0.0
H390 H 0.17937 0.44738 0.24509 0.0
H391 H 0.18077 0.42902 0.20396 0.0
C392 C 0.20916 0.49804 0.30481 0.0
C393 C 0.19672 0.53039 0.31086 0.0
C394 C 0.20958 0.4875 0.28118 0.0
C395 C 0.1977 0.50919 0.26316 0.0
C396 C 0.1851 0.54146 0.26929 0.0
C397 C 0.18454 0.5519 0.29288 0.0
C398 C 0.20965 0.51027 0.19652 0.0
C399 C 0.19966 0.47711 0.19034 0.0
C400 C 0.20891 0.52076 0.22015 0.0
C401 C 0.19831 0.49823 0.23804 0.0
C402 C 0.18812 0.46515 0.23177 0.0
C403 C 0.18871 0.45474 0.20818 0.0
H404 H 0.57774 0.21498 0.70023 0.0
H405 H 0.47722 0.18504 0.67749 0.0
H406 H 0.5588 0.21613 0.741 0.0
H407 H 0.45854 0.18299 0.71855 0.0
H408 H 0.42473 0.21153 0.79213 0.0
H409 H 0.44313 0.21268 0.75118 0.0
H410 H 0.5452 0.18538 0.77341 0.0
H411 H 0.52697 0.18747 0.81451 0.0
C412 C 0.55158 0.20819 0.70412 0.0
C413 C 0.52885 0.20002 0.68585 0.0
C414 C 0.54072 0.20843 0.72757 0.0
C415 C 0.50707 0.19936 0.73343 0.0
C416 C 0.48442 0.19087 0.71493 0.0
C417 C 0.49508 0.19176 0.69134 0.0
C418 C 0.45114 0.20596 0.78814 0.0
C419 C 0.47453 0.19958 0.80635 0.0
C420 C 0.46171 0.20625 0.7646 0.0
C421 C 0.49577 0.19905 0.75865 0.0
C422 C 0.51898 0.19197 0.77709 0.0
C423 C 0.50857 0.19283 0.80071 0.0
H424 H 0.78859 0.48428 0.17572 0.0
H425 H 0.83538 0.57849 0.19829 0.0
H426 H 0.78654 0.46511 0.21683 0.0
H427 H 0.83367 0.55923 0.2392 0.0
H428 H 0.79033 0.52749 0.31172 0.0
H429 H 0.79159 0.54719 0.27065 0.0
H430 H 0.82653 0.44798 0.24826 0.0
H431 H 0.82494 0.4283 0.28902 0.0
C432 C 0.79853 0.5008 0.18943 0.0
C433 C 0.81213 0.53285 0.18379 0.0
C434 C 0.79747 0.48982 0.21295 0.0
C435 C 0.80986 0.51074 0.23126 0.0
C436 C 0.8235 0.54275 0.22555 0.0
C437 C 0.8247 0.55364 0.20207 0.0
C438 C 0.79829 0.50998 0.29799 0.0
C439 C 0.80745 0.47637 0.30356 0.0
C440 C 0.79914 0.52125 0.27452 0.0
C441 C 0.809 0.49905 0.25621 0.0
C442 C 0.81832 0.46552 0.26189 0.0
C443 C 0.81763 0.45435 0.28529 0.0
H444 H 0.5783 0.82891 0.79389 0.0
H445 H 0.48202 0.78608 0.81589 0.0
H446 H 0.55966 0.82742 0.75287 0.0
H447 H 0.46339 0.78429 0.77456 0.0
H448 H 0.43025 0.82467 0.70143 0.0
H449 H 0.44853 0.82477 0.74259 0.0
H450 H 0.54667 0.78526 0.72169 0.0
H451 H 0.52842 0.78547 0.6803 0.0
C452 C 0.55312 0.81913 0.78995 0.0
C453 C 0.53159 0.80759 0.80811 0.0
C454 C 0.54257 0.81805 0.76641 0.0
C455 C 0.51016 0.80557 0.76046 0.0
C456 C 0.48845 0.79426 0.77864 0.0
C457 C 0.49912 0.79517 0.80226 0.0
C458 C 0.45575 0.81601 0.70559 0.0
C459 C 0.47796 0.8051 0.68764 0.0
C460 C 0.4661 0.81583 0.7292 0.0
C461 C 0.49897 0.80493 0.73539 0.0
C462 C 0.52125 0.79408 0.71742 0.0
C463 C 0.51081 0.79408 0.69376 0.0
H464 H 0.82498 0.57303 0.79081 0.0
H465 H 0.78398 0.47544 0.81168 0.0
H466 H 0.82558 0.5547 0.74972 0.0
H467 H 0.78425 0.45714 0.7703 0.0
H468 H 0.82581 0.42587 0.69727 0.0
H469 H 0.82541 0.44361 0.73855 0.0
H470 H 0.78438 0.54134 0.71808 0.0
H471 H 0.78511 0.52366 0.67661 0.0
C472 C 0.81608 0.54761 0.78662 0.0
C473 C 0.80435 0.52566 0.80447 0.0
C474 C 0.81621 0.53723 0.76303 0.0
C475 C 0.80475 0.50459 0.75674 0.0
C476 C 0.79344 0.48239 0.77463 0.0
C477 C 0.79317 0.49287 0.79829 0.0
C478 C 0.81673 0.45117 0.70156 0.0
C479 C 0.8055 0.47342 0.68371 0.0
C480 C 0.81629 0.46122 0.72523 0.0
C481 C 0.80478 0.49381 0.73158 0.0
C482 C 0.79369 0.51615 0.7137 0.0
C483 C 0.79397 0.50602 0.68999 0.0
H484 H 0.52533 0.82008 0.31617 0.0
H485 H 0.42538 0.78803 0.29363 0.0
H486 H 0.54391 0.82222 0.27511 0.0
H487 H 0.44431 0.78685 0.25283 0.0
H488 H 0.47571 0.81527 0.17909 0.0
H489 H 0.45726 0.81717 0.22018 0.0
H490 H 0.56001 0.79292 0.24264 0.0
H491 H 0.57849 0.79434 0.20174 0.0
C492 C 0.50759 0.81289 0.30236 0.0
C493 C 0.474 0.80403 0.3079 0.0
C494 C 0.5182 0.81382 0.27876 0.0
C495 C 0.49571 0.80471 0.2603 0.0
C496 C 0.46225 0.79502 0.26622 0.0
C497 C 0.45141 0.79527 0.28968 0.0
C498 C 0.49418 0.81056 0.19295 0.0
C499 C 0.52842 0.80478 0.18741 0.0
C500 C 0.48367 0.8113 0.21656 0.0
C501 C 0.50702 0.80505 0.23508 0.0
C502 C 0.54128 0.79875 0.2292 0.0
C503 C 0.55192 0.7992 0.20568 0.0
H504 H 0.17428 0.42429 0.79733 0.0
H505 H 0.2125 0.52269 0.819 0.0
H506 H 0.17406 0.44288 0.75627 0.0
H507 H 0.21263 0.54124 0.7777 0.0
H508 H 0.17126 0.57333 0.70536 0.0
H509 H 0.17104 0.55411 0.74624 0.0
H510 H 0.21466 0.45804 0.72462 0.0
H511 H 0.21454 0.47724 0.68343 0.0
C512 C 0.18269 0.44992 0.79331 0.0
C513 C 0.19342 0.47208 0.81138 0.0
C514 C 0.18278 0.46045 0.76975 0.0
C515 C 0.19342 0.49345 0.76373 0.0
C516 C 0.204 0.51572 0.78183 0.0
C517 C 0.20407 0.5051 0.80544 0.0
C518 C 0.18071 0.54804 0.70928 0.0
C519 C 0.19301 0.52679 0.6912 0.0
C520 C 0.18081 0.53716 0.73274 0.0
C521 C 0.19308 0.5047 0.73869 0.0
C522 C 0.20485 0.48315 0.72055 0.0
C523 C 0.20487 0.49412 0.697 0.0
H524 H 0.47732 0.21906 0.31341 0.0
H525 H 0.57481 0.17813 0.29233 0.0
H526 H 0.45881 0.21881 0.27209 0.0
H527 H 0.55624 0.17753 0.25123 0.0
H528 H 0.52312 0.21557 0.17779 0.0
H529 H 0.54194 0.21752 0.21904 0.0
H530 H 0.44487 0.17672 0.24119 0.0
H531 H 0.42601 0.17513 0.2002 0.0
C532 C 0.49473 0.20997 0.29997 0.0
C533 C 0.52748 0.19862 0.30608 0.0
C534 C 0.48412 0.20969 0.27635 0.0
C535 C 0.50612 0.19821 0.25841 0.0
C536 C 0.53888 0.18695 0.26459 0.0
C537 C 0.5494 0.18707 0.28817 0.0
C538 C 0.50588 0.20702 0.1915 0.0
C539 C 0.47312 0.19524 0.18579 0.0
C540 C 0.51666 0.20802 0.21509 0.0
C541 C 0.4948 0.1974 0.23337 0.0
C542 C 0.4621 0.18555 0.22756 0.0
C543 C 0.45142 0.18441 0.20404 0.0
H544 H 0.21127 0.44466 0.94608 0.0
H545 H 0.22838 0.55284 0.93789 0.0
H546 H 0.22 0.44968 0.98812 0.0
H547 H 0.23851 0.55767 0.98047 0.0
H548 H 0.20281 0.55431 0.05989 0.0
H549 H 0.20692 0.55532 0.01679 0.0
H550 H 0.2598 0.45875 0.01838 0.0
H551 H 0.25398 0.45706 0.06119 0.0
C552 C 0.21739 0.46956 0.95318 0.0
C553 C 0.2188 0.49841 0.9385 0.0
C554 C 0.22282 0.47237 0.97743 0.0
C555 C 0.23019 0.50407 0.98781 0.0
C556 C 0.23257 0.53291 0.9731 0.0
C557 C 0.22694 0.53011 0.94868 0.0
C558 C 0.21586 0.53367 0.05098 0.0
C559 C 0.22756 0.50533 0.06378 0.0
C560 C 0.21835 0.53427 0.02628 0.0
C561 C 0.23305 0.50675 0.01401 0.0
C562 C 0.24734 0.47987 0.02715 0.0
C563 C 0.24424 0.47896 0.0517 0.0
H564 H 0.54842 0.24834 0.43535 0.0
H565 H 0.4491 0.20118 0.43621 0.0
H566 H 0.5466 0.25447 0.47812 0.0
H567 H 0.4479 0.20552 0.47933 0.0
H568 H 0.45069 0.2291 0.55825 0.0
H569 H 0.44648 0.23772 0.51549 0.0
H570 H 0.55369 0.21471 0.50858 0.0
H571 H 0.55816 0.20746 0.55077 0.0
C572 C 0.52606 0.23951 0.44476 0.0
C573 C 0.4991 0.22391 0.43258 0.0
C574 C 0.52508 0.24278 0.46928 0.0
C575 C 0.4975 0.22968 0.4823 0.0
C576 C 0.4695 0.216 0.46993 0.0
C577 C 0.4702 0.21339 0.44523 0.0
C578 C 0.47339 0.22629 0.54757 0.0
C579 C 0.50474 0.21754 0.55802 0.0
C580 C 0.47094 0.23107 0.52305 0.0
C581 C 0.49977 0.22714 0.50852 0.0
C582 C 0.53107 0.21881 0.51914 0.0
C583 C 0.53356 0.21429 0.54347 0.0
H584 H 0.77109 0.45651 0.0577 0.0
H585 H 0.79329 0.56364 0.04885 0.0
H586 H 0.76114 0.45145 0.01518 0.0
H587 H 0.78465 0.55833 0.00673 0.0
H588 H 0.75116 0.55038 0.9333 0.0
H589 H 0.74502 0.55025 0.97609 0.0
H590 H 0.79361 0.45154 0.97925 0.0
H591 H 0.79816 0.4511 0.93618 0.0
C592 C 0.77364 0.47901 0.04677 0.0
C593 C 0.78321 0.51044 0.05675 0.0
C594 C 0.76813 0.47605 0.02236 0.0
C595 C 0.77207 0.50444 0.00744 0.0
C596 C 0.78069 0.53599 0.01761 0.0
C597 C 0.78601 0.53898 0.04188 0.0
C598 C 0.75991 0.52837 0.94313 0.0
C599 C 0.77552 0.50094 0.93148 0.0
C600 C 0.75662 0.52836 0.96768 0.0
C601 C 0.76958 0.50127 0.98124 0.0
C602 C 0.7832 0.47279 0.96942 0.0
C603 C 0.78593 0.47254 0.94473 0.0
H604 H 0.45645 0.75551 0.55849 0.0
H605 H 0.55577 0.80266 0.55702 0.0
H606 H 0.45773 0.74937 0.51571 0.0
H607 H 0.55644 0.79825 0.5139 0.0
H608 H 0.55266 0.77452 0.43503 0.0
H609 H 0.55735 0.76587 0.47776 0.0
H610 H 0.45031 0.78925 0.48529 0.0
H611 H 0.44537 0.79657 0.44312 0.0
C612 C 0.4787 0.76432 0.54895 0.0
C613 C 0.50581 0.77995 0.56097 0.0
C614 C 0.47938 0.76104 0.52442 0.0
C615 C 0.50679 0.77412 0.51124 0.0
C616 C 0.53496 0.78779 0.52344 0.0
C617 C 0.53457 0.79044 0.54814 0.0
C618 C 0.5301 0.77742 0.44584 0.0
C619 C 0.49867 0.78631 0.43557 0.0
C620 C 0.53282 0.77261 0.47034 0.0
C621 C 0.50419 0.77666 0.48503 0.0
C622 C 0.47278 0.78509 0.4746 0.0
C623 C 0.47002 0.78965 0.45027 0.0
H624 H 0.20289 0.45346 0.44162 0.0
H625 H 0.2469 0.55415 0.43983 0.0
H626 H 0.20933 0.45224 0.48457 0.0
H627 H 0.25536 0.55233 0.48241 0.0
H628 H 0.21316 0.56151 0.5568 0.0
H629 H 0.21919 0.55827 0.51448 0.0
H630 H 0.24235 0.45087 0.51971 0.0
H631 H 0.23467 0.45383 0.56256 0.0
C632 C 0.21482 0.47492 0.45039 0.0
C633 C 0.22388 0.50412 0.43752 0.0
C634 C 0.2187 0.47421 0.47501 0.0
C635 C 0.23229 0.50248 0.48714 0.0
C636 C 0.24376 0.53054 0.47385 0.0
C637 C 0.23916 0.53153 0.44941 0.0
C638 C 0.21987 0.53715 0.5491 0.0
C639 C 0.22315 0.50786 0.5632 0.0
C640 C 0.22368 0.53536 0.52466 0.0
C641 C 0.23138 0.5043 0.51348 0.0
C642 C 0.23595 0.47514 0.52764 0.0
C643 C 0.23178 0.47687 0.55223 0.0
H644 H 0.5523 0.19649 0.93696 0.0
H645 H 0.45591 0.24929 0.93536 0.0
H646 H 0.5537 0.20164 0.98003 0.0
H647 H 0.45804 0.25614 0.97808 0.0
H648 H 0.444 0.21051 0.05115 0.0
H649 H 0.44866 0.21755 0.00895 0.0
H650 H 0.55704 0.23457 0.01582 0.0
H651 H 0.55256 0.2261 0.05857 0.0
C652 C 0.53193 0.21005 0.9458 0.0
C653 C 0.50371 0.22197 0.93296 0.0
C654 C 0.53276 0.21315 0.97046 0.0
C655 C 0.50562 0.22871 0.98263 0.0
C656 C 0.47885 0.24306 0.96941 0.0
C657 C 0.47769 0.23934 0.94491 0.0
C658 C 0.4689 0.21596 0.04384 0.0
C659 C 0.49797 0.21743 0.05835 0.0
C660 C 0.47152 0.2204 0.0195 0.0
C661 C 0.50322 0.22683 0.00887 0.0
C662 C 0.53227 0.22932 0.02339 0.0
C663 C 0.52967 0.22467 0.04791 0.0
H664 H 0.79178 0.44506 0.43837 0.0
H665 H 0.77377 0.55331 0.43187 0.0
H666 H 0.7856 0.44904 0.48064 0.0
H667 H 0.76607 0.55708 0.47472 0.0
H668 H 0.80404 0.55283 0.55347 0.0
H669 H 0.79867 0.55444 0.51042 0.0
H670 H 0.74786 0.45669 0.51191 0.0
H671 H 0.75513 0.4544 0.55459 0.0
C672 C 0.7859 0.46974 0.4459 0.0
C673 C 0.78347 0.49891 0.43159 0.0
C674 C 0.78199 0.47197 0.4703 0.0
C675 C 0.77506 0.50336 0.48125 0.0
C676 C 0.77171 0.53252 0.46694 0.0
C677 C 0.77592 0.53033 0.44235 0.0
C678 C 0.79126 0.53202 0.54453 0.0
C679 C 0.7805 0.50324 0.55723 0.0
C680 C 0.78803 0.53296 0.51986 0.0
C681 C 0.77346 0.50535 0.50755 0.0
C682 C 0.76024 0.4779 0.52065 0.0
C683 C 0.76415 0.47665 0.54514 0.0
H684 H 0.55364 0.75141 0.05842 0.0
H685 H 0.45303 0.79569 0.0567 0.0
H686 H 0.55218 0.74451 0.01568 0.0
H687 H 0.45217 0.79056 0.01371 0.0
H688 H 0.56224 0.79194 0.94269 0.0
H689 H 0.55834 0.78356 0.9848 0.0
H690 H 0.45157 0.75829 0.97785 0.0
H691 H 0.45518 0.76815 0.93522 0.0
C692 C 0.53108 0.75942 0.04886 0.0
C693 C 0.50364 0.77448 0.06081 0.0
C694 C 0.5303 0.75569 0.02434 0.0
C695 C 0.50241 0.76774 0.01111 0.0
C696 C 0.47401 0.78083 0.02327 0.0
C697 C 0.47453 0.78392 0.04792 0.0
C698 C 0.53786 0.78439 0.94997 0.0
C699 C 0.50892 0.78108 0.93547 0.0
C700 C 0.53572 0.77916 0.97426 0.0
C701 C 0.50465 0.77007 0.98486 0.0
C702 C 0.47583 0.76563 0.97032 0.0
C703 C 0.47794 0.77111 0.94587 0.0
H704 H 0.29744 0.39834 0.11312 0.0
H705 H 0.20702 0.33659 0.10547 0.0
H706 H 0.3328 0.34909 0.10589 0.0
H707 H 0.24307 0.28634 0.09797 0.0
H708 H 0.33009 0.20803 0.12615 0.0
H709 H 0.2848 0.25081 0.12209 0.0
H710 H 0.34913 0.30905 0.07517 0.0
H711 H 0.39439 0.26711 0.08004 0.0
C712 C 0.28505 0.37419 0.10961 0.0
C713 C 0.24941 0.37134 0.10998 0.0
C714 C 0.3054 0.3459 0.10521 0.0
C715 C 0.29081 0.31375 0.10112 0.0
C716 C 0.25504 0.3108 0.10105 0.0
C717 C 0.23445 0.33951 0.10523 0.0
C718 C 0.33385 0.22936 0.1143 0.0
C719 C 0.36554 0.23451 0.10342 0.0
C720 C 0.308 0.25386 0.11197 0.0
C721 C 0.31365 0.28367 0.09868 0.0
C722 C 0.34423 0.28675 0.08593 0.0
C723 C 0.37005 0.26265 0.08853 0.0
H724 H 0.79421 0.33312 0.6237 0.0
H725 H 0.73455 0.39475 0.57616 0.0
H726 H 0.75333 0.28625 0.61911 0.0
H727 H 0.69466 0.3478 0.57057 0.0
H728 H 0.60566 0.29288 0.60611 0.0
H729 H 0.65361 0.32996 0.59923 0.0
H730 H 0.72067 0.24283 0.59588 0.0
H731 H 0.67167 0.20502 0.60324 0.0
C732 C 0.77317 0.33598 0.61145 0.0
C733 C 0.76729 0.36734 0.6003 0.0
C734 C 0.74977 0.30919 0.60879 0.0
C735 C 0.72032 0.31352 0.59484 0.0
C736 C 0.71661 0.34388 0.58187 0.0
C737 C 0.73957 0.37068 0.58487 0.0
C738 C 0.63049 0.28139 0.60365 0.0
C739 C 0.63488 0.24599 0.60537 0.0
C740 C 0.65809 0.30274 0.59943 0.0
C741 C 0.69108 0.28945 0.59678 0.0
C742 C 0.69555 0.25386 0.59787 0.0
C743 C 0.66756 0.23223 0.60195 0.0
H744 H 0.78884 0.66328 0.14321 0.0
H745 H 0.76087 0.63622 0.07194 0.0
H746 H 0.7483 0.71056 0.1423 0.0
H747 H 0.72025 0.68392 0.07088 0.0
H748 H 0.65818 0.78935 0.08386 0.0
H749 H 0.71121 0.75598 0.07947 0.0
H750 H 0.68128 0.69296 0.13837 0.0
H751 H 0.62881 0.72507 0.14236 0.0
C752 C 0.77516 0.66856 0.12696 0.0
C753 C 0.77816 0.64662 0.10754 0.0
C754 C 0.75191 0.69545 0.12647 0.0
C755 C 0.73123 0.7008 0.10652 0.0
C756 C 0.73627 0.68059 0.08632 0.0
C757 C 0.75946 0.65341 0.0869 0.0
C758 C 0.66318 0.76843 0.09585 0.0
C759 C 0.63935 0.75971 0.11339 0.0
C760 C 0.69335 0.74941 0.09332 0.0
C761 C 0.70034 0.72221 0.10876 0.0
C762 C 0.6767 0.71407 0.12643 0.0
C763 C 0.64653 0.73236 0.12859 0.0
H764 H 0.20785 0.66825 0.59993 0.0
H765 H 0.29181 0.61235 0.63066 0.0
H766 H 0.24684 0.71642 0.592 0.0
H767 H 0.32959 0.65931 0.6229 0.0
H768 H 0.40033 0.72484 0.58816 0.0
H769 H 0.35257 0.68552 0.58487 0.0
H770 H 0.28688 0.75913 0.61849 0.0
H771 H 0.33505 0.79926 0.6211 0.0
C772 C 0.2344 0.66619 0.60493 0.0
C773 C 0.24671 0.63634 0.61576 0.0
C774 C 0.25661 0.69368 0.60044 0.0
C775 C 0.29135 0.69129 0.60644 0.0
C776 C 0.30318 0.66164 0.61753 0.0
C777 C 0.2813 0.63468 0.62211 0.0
C778 C 0.3754 0.73311 0.59403 0.0
C779 C 0.37129 0.76481 0.60504 0.0
C780 C 0.34808 0.71062 0.5922 0.0
C781 C 0.31621 0.71904 0.60185 0.0
C782 C 0.31117 0.75207 0.61086 0.0
C783 C 0.33865 0.77497 0.61237 0.0
H784 H 0.33098 0.80051 0.38915 0.0
H785 H 0.39674 0.71239 0.38924 0.0
H786 H 0.28154 0.76318 0.3962 0.0
H787 H 0.34833 0.67572 0.3959 0.0
H788 H 0.26575 0.61235 0.4186 0.0
H789 H 0.30572 0.65928 0.42409 0.0
H790 H 0.25 0.71889 0.37279 0.0
H791 H 0.20908 0.67204 0.3682 0.0
C792 C 0.33492 0.77335 0.39106 0.0
C793 C 0.36767 0.75935 0.38853 0.0
C794 C 0.30668 0.75199 0.39496 0.0
C795 C 0.31095 0.71644 0.39678 0.0
C796 C 0.344 0.70293 0.39508 0.0
C797 C 0.37185 0.72402 0.39101 0.0
C798 C 0.26135 0.63603 0.40925 0.0
C799 C 0.23445 0.63882 0.39309 0.0
C800 C 0.28436 0.66281 0.41219 0.0
C801 C 0.28151 0.69258 0.39848 0.0
C802 C 0.25286 0.69641 0.38371 0.0
C803 C 0.22943 0.66965 0.38105 0.0
H804 H 0.33519 0.20618 0.89271 0.0
H805 H 0.39776 0.29558 0.88295 0.0
H806 H 0.28564 0.24307 0.90039 0.0
H807 H 0.34919 0.33173 0.89021 0.0
H808 H 0.26892 0.39533 0.91613 0.0
H809 H 0.31064 0.3499 0.92093 0.0
H810 H 0.2494 0.28412 0.87675 0.0
H811 H 0.20679 0.32962 0.87284 0.0
C812 C 0.33845 0.23357 0.8925 0.0
C813 C 0.37034 0.24797 0.88715 0.0
C814 C 0.31013 0.25464 0.89677 0.0
C815 C 0.31348 0.29037 0.89614 0.0
C816 C 0.34568 0.30441 0.89137 0.0
C817 C 0.3736 0.28358 0.88695 0.0
C818 C 0.2638 0.37068 0.90823 0.0
C819 C 0.23482 0.3658 0.89415 0.0
C820 C 0.28778 0.34476 0.91078 0.0
C821 C 0.28377 0.31366 0.89874 0.0
C822 C 0.25321 0.30773 0.8863 0.0
C823 C 0.22881 0.33369 0.88406 0.0
H824 H 0.60701 0.27123 0.41237 0.0
H825 H 0.66897 0.20961 0.36633 0.0
H826 H 0.65411 0.31103 0.41762 0.0
H827 H 0.71605 0.25039 0.37059 0.0
H828 H 0.7975 0.33256 0.38653 0.0
H829 H 0.75934 0.28382 0.39398 0.0
H830 H 0.67245 0.35082 0.38801 0.0
H831 H 0.70982 0.39848 0.38099 0.0
C832 C 0.63117 0.26579 0.40392 0.0
C833 C 0.63455 0.23754 0.38898 0.0
C834 C 0.65806 0.28868 0.40673 0.0
C835 C 0.6886 0.28436 0.39406 0.0
C836 C 0.69296 0.25443 0.38066 0.0
C837 C 0.66606 0.23109 0.37819 0.0
C838 C 0.77025 0.33671 0.38721 0.0
C839 C 0.75666 0.36929 0.38305 0.0
C840 C 0.74843 0.30887 0.39136 0.0
C841 C 0.71282 0.31342 0.39181 0.0
C842 C 0.69967 0.34631 0.38832 0.0
C843 C 0.7212 0.37373 0.38401 0.0
H844 H 0.79891 0.66802 0.88729 0.0
H845 H 0.70805 0.60637 0.8823 0.0
H846 H 0.7633 0.71865 0.89463 0.0
H847 H 0.67311 0.65598 0.88947 0.0
H848 H 0.61294 0.73916 0.9151 0.0
H849 H 0.65847 0.6975 0.92007 0.0
H850 H 0.7204 0.75294 0.87008 0.0
H851 H 0.67483 0.79536 0.86579 0.0
C852 C 0.77149 0.66522 0.8881 0.0
C853 C 0.75624 0.63331 0.8841 0.0
C854 C 0.75115 0.69413 0.89219 0.0
C855 C 0.71539 0.6913 0.89284 0.0
C856 C 0.70053 0.65908 0.88956 0.0
C857 C 0.72062 0.63059 0.8852 0.0
C858 C 0.63687 0.74315 0.90597 0.0
C859 C 0.64061 0.77035 0.89016 0.0
C860 C 0.66283 0.7192 0.90864 0.0
C861 C 0.69276 0.72154 0.89509 0.0
C862 C 0.69772 0.75051 0.88084 0.0
C863 C 0.67172 0.77482 0.87838 0.0
loop_
_geom_bond_atom_site_label_1
_geom_bond_atom_site_label_2
_geom_bond_distance
_geom_bond_site_symmetry_2
_ccdc_geom_bond_type
Co0 O1 2.216 . S
Co0 O2 2.091 . S
Co0 O4 2.004 . S
Co0 O10 2.021 . S
Co0 O12 2.137 . S
Co0 O13 2.244 . S
O1 Co0 2.216 . S
O1 C8 1.247 . S
O2 Co0 2.091 . S
O2 C8 1.261 . S
C3 O12 1.247 . S
C3 O13 1.272 . S
O4 Co0 2.004 . S
O4 C9 1.259 . S
Co5 O6 2.061 . S
Co5 O11 2.052 . S
Co5 O13 2.135 . S
O6 Co5 2.061 . S
O6 C9 1.235 . S
C7 O10 1.238 . S
C7 O11 1.241 . S
C8 O1 1.247 . S
C8 O2 1.261 . S
C9 O4 1.259 . S
C9 O6 1.235 . S
O10 Co0 2.021 . S
O10 C7 1.238 . S
O11 Co5 2.052 . S
O11 C7 1.241 . S
O12 Co0 2.137 . S
O12 C3 1.247 . S
O13 Co0 2.244 . S
O13 C3 1.272 . S
O13 Co5 2.135 . S
Co14 O15 2.216 . S
Co14 O16 2.091 . S
Co14 O18 2.004 . S
Co14 O24 2.021 . S
Co14 O26 2.137 . S
Co14 O27 2.244 . S
O15 Co14 2.216 . S
O15 C22 1.247 . S
O16 Co14 2.091 . S
O16 C22 1.261 . S
C17 O26 1.247 . S
C17 O27 1.272 . S
O18 Co14 2.004 . S
O18 C23 1.259 . S
Co19 O20 2.061 . S
Co19 O25 2.052 . S
Co19 O27 2.135 . S
O20 Co19 2.061 . S
O20 C23 1.235 . S
C21 O24 1.238 . S
C21 O25 1.241 . S
C22 O15 1.247 . S
C22 O16 1.261 . S
C23 O18 1.259 . S
C23 O20 1.235 . S
O24 Co14 2.021 . S
O24 C21 1.238 . S
O25 Co19 2.052 . S
O25 C21 1.241 . S
O26 Co14 2.137 . S
O26 C17 1.247 . S
O27 Co14 2.244 . S
O27 C17 1.272 . S
O27 Co19 2.135 . S
Co28 O29 2.216 . S
Co28 O30 2.091 . S
Co28 O32 2.004 . S
Co28 O38 2.021 . S
Co28 O40 2.137 . S
Co28 O41 2.244 . S
O29 Co28 2.216 . S
O29 C36 1.247 . S
O30 Co28 2.091 . S
O30 C36 1.261 . S
C31 O40 1.247 . S
C31 O41 1.272 . S
O32 Co28 2.004 . S
O32 C37 1.259 . S
Co33 O34 2.061 . S
Co33 O39 2.052 . S
Co33 O41 2.135 . S
O34 Co33 2.061 . S
O34 C37 1.235 . S
C35 O38 1.238 . S
C35 O39 1.241 . S
C36 O29 1.247 . S
C36 O30 1.261 . S
C37 O32 1.259 . S
C37 O34 1.235 . S
O38 Co28 2.021 . S
O38 C35 1.238 . S
O39 Co33 2.052 . S
O39 C35 1.241 . S
O40 Co28 2.137 . S
O40 C31 1.247 . S
O41 Co28 2.244 . S
O41 C31 1.272 . S
O41 Co33 2.135 . S
Co42 O43 2.216 . S
Co42 O44 2.091 . S
Co42 O46 2.004 . S
Co42 O52 2.021 . S
Co42 O54 2.137 . S
Co42 O55 2.244 . S
O43 Co42 2.216 . S
O43 C50 1.247 . S
O44 Co42 2.091 . S
O44 C50 1.261 . S
C45 O54 1.247 . S
C45 O55 1.272 . S
O46 Co42 2.004 . S
O46 C51 1.259 . S
Co47 O48 2.061 . S
Co47 O53 2.052 . S
Co47 O55 2.135 . S
O48 Co47 2.061 . S
O48 C51 1.235 . S
C49 O52 1.238 . S
C49 O53 1.241 . S
C50 O43 1.247 . S
C50 O44 1.261 . S
C51 O46 1.259 . S
C51 O48 1.235 . S
O52 Co42 2.021 . S
O52 C49 1.238 . S
O53 Co47 2.052 . S
O53 C49 1.241 . S
O54 Co42 2.137 . S
O54 C45 1.247 . S
O55 Co42 2.244 . S
O55 C45 1.272 . S
O55 Co47 2.135 . S
Co56 O57 2.216 . S
Co56 O58 2.091 . S
Co56 O60 2.004 . S
Co56 O66 2.021 . S
Co56 O68 2.137 . S
Co56 O69 2.244 . S
O57 Co56 2.216 . S
O57 C64 1.247 . S
O58 Co56 2.091 . S
O58 C64 1.261 . S
C59 O68 1.247 . S
C59 O69 1.272 . S
O60 Co56 2.004 . S
O60 C65 1.259 . S
Co61 O62 2.061 . S
Co61 O67 2.052 . S
Co61 O69 2.135 . S
O62 Co61 2.061 . S
O62 C65 1.235 . S
C63 O66 1.238 . S
C63 O67 1.241 . S
C64 O57 1.247 . S
C64 O58 1.261 . S
C65 O60 1.259 . S
C65 O62 1.235 . S
O66 Co56 2.021 . S
O66 C63 1.238 . S
O67 Co61 2.052 . S
O67 C63 1.241 . S
O68 Co56 2.137 . S
O68 C59 1.247 . S
O69 Co56 2.244 . S
O69 C59 1.272 . S
O69 Co61 2.135 . S
Co70 O71 2.216 . S
Co70 O72 2.091 . S
Co70 O74 2.004 . S
Co70 O80 2.021 . S
Co70 O82 2.137 . S
Co70 O83 2.244 . S
O71 Co70 2.216 . S
O71 C78 1.247 . S
O72 Co70 2.091 . S
O72 C78 1.261 . S
C73 O82 1.247 . S
C73 O83 1.272 . S
O74 Co70 2.004 . S
O74 C79 1.259 . S
Co75 O76 2.061 . S
Co75 O81 2.052 . S
Co75 O83 2.135 . S
O76 Co75 2.061 . S
O76 C79 1.235 . S
C77 O80 1.238 . S
C77 O81 1.241 . S
C78 O71 1.247 . S
C78 O72 1.261 . S
C79 O74 1.259 . S
C79 O76 1.235 . S
O80 Co70 2.021 . S
O80 C77 1.238 . S
O81 Co75 2.052 . S
O81 C77 1.241 . S
O82 Co70 2.137 . S
O82 C73 1.247 . S
O83 Co70 2.244 . S
O83 C73 1.272 . S
O83 Co75 2.135 . S
Co84 O85 2.216 . S
Co84 O86 2.091 . S
Co84 O88 2.004 . S
Co84 O94 2.021 . S
Co84 O96 2.137 . S
Co84 O97 2.244 . S
O85 Co84 2.216 . S
O85 C92 1.247 . S
O86 Co84 2.091 . S
O86 C92 1.261 . S
C87 O96 1.247 . S
C87 O97 1.272 . S
O88 Co84 2.004 . S
O88 C93 1.259 . S
Co89 O90 2.061 . S
Co89 O95 2.052 . S
Co89 O97 2.135 . S
O90 Co89 2.061 . S
O90 C93 1.235 . S
C91 O94 1.238 . S
C91 O95 1.241 . S
C92 O85 1.247 . S
C92 O86 1.261 . S
C93 O88 1.259 . S
C93 O90 1.235 . S
O94 Co84 2.021 . S
O94 C91 1.238 . S
O95 Co89 2.052 . S
O95 C91 1.241 . S
O96 Co84 2.137 . S
O96 C87 1.247 . S
O97 Co84 2.244 . S
O97 C87 1.272 . S
O97 Co89 2.135 . S
Co98 O99 2.216 . S
Co98 O100 2.091 . S
Co98 O102 2.004 . S
Co98 O108 2.021 . S
Co98 O110 2.137 . S
Co98 O111 2.244 . S
O99 Co98 2.216 . S
O99 C106 1.247 . S
O100 Co98 2.091 . S
O100 C106 1.261 . S
C101 O110 1.247 . S
C101 O111 1.272 . S
O102 Co98 2.004 . S
O102 C107 1.259 . S
Co103 O104 2.061 . S
Co103 O109 2.052 . S
Co103 O111 2.135 . S
O104 Co103 2.061 . S
O104 C107 1.235 . S
C105 O108 1.238 . S
C105 O109 1.241 . S
C106 O99 1.247 . S
C106 O100 1.261 . S
C107 O102 1.259 . S
C107 O104 1.235 . S
O108 Co98 2.021 . S
O108 C105 1.238 . S
O109 Co103 2.052 . S
O109 C105 1.241 . S
O110 Co98 2.137 . S
O110 C101 1.247 . S
O111 Co98 2.244 . S
O111 C101 1.272 . S
O111 Co103 2.135 . S
Co112 O113 2.216 . S
Co112 O114 2.091 . S
Co112 O116 2.004 . S
Co112 O122 2.021 . S
Co112 O124 2.137 . S
Co112 O125 2.244 . S
O113 Co112 2.216 . S
O113 C120 1.247 . S
O114 Co112 2.091 . S
O114 C120 1.261 . S
C115 O124 1.247 . S
C115 O125 1.272 . S
O116 Co112 2.004 . S
O116 C121 1.259 . S
Co117 O118 2.061 . S
Co117 O123 2.052 . S
Co117 O125 2.135 . S
O118 Co117 2.061 . S
O118 C121 1.235 . S
C119 O122 1.238 . S
C119 O123 1.241 . S
C120 O113 1.247 . S
C120 O114 1.261 . S
C121 O116 1.259 . S
C121 O118 1.235 . S
O122 Co112 2.021 . S
O122 C119 1.238 . S
O123 Co117 2.052 . S
O123 C119 1.241 . S
O124 Co112 2.137 . S
O124 C115 1.247 . S
O125 Co112 2.244 . S
O125 C115 1.272 . S
O125 Co117 2.135 . S
Co126 O127 2.216 . S
Co126 O128 2.091 . S
Co126 O130 2.004 . S
Co126 O136 2.021 . S
Co126 O138 2.137 . S
Co126 O139 2.244 . S
O127 Co126 2.216 . S
O127 C134 1.247 . S
O128 Co126 2.091 . S
O128 C134 1.261 . S
C129 O138 1.247 . S
C129 O139 1.272 . S
O130 Co126 2.004 . S
O130 C135 1.259 . S
Co131 O132 2.061 . S
Co131 O137 2.052 . S
Co131 O139 2.135 . S
O132 Co131 2.061 . S
O132 C135 1.235 . S
C133 O136 1.238 . S
C133 O137 1.241 . S
C134 O127 1.247 . S
C134 O128 1.261 . S
C135 O130 1.259 . S
C135 O132 1.235 . S
O136 Co126 2.021 . S
O136 C133 1.238 . S
O137 Co131 2.052 . S
O137 C133 1.241 . S
O138 Co126 2.137 . S
O138 C129 1.247 . S
O139 Co126 2.244 . S
O139 C129 1.272 . S
O139 Co131 2.135 . S
Co140 O141 2.216 . S
Co140 O142 2.091 . S
Co140 O144 2.004 . S
Co140 O150 2.021 . S
Co140 O152 2.137 . S
Co140 O153 2.244 . S
O141 Co140 2.216 . S
O141 C148 1.247 . S
O142 Co140 2.091 . S
O142 C148 1.261 . S
C143 O152 1.247 . S
C143 O153 1.272 . S
O144 Co140 2.004 . S
O144 C149 1.259 . S
Co145 O146 2.061 . S
Co145 O151 2.052 . S
Co145 O153 2.135 . S
O146 Co145 2.061 . S
O146 C149 1.235 . S
C147 O150 1.238 . S
C147 O151 1.241 . S
C148 O141 1.247 . S
C148 O142 1.261 . S
C149 O144 1.259 . S
C149 O146 1.235 . S
O150 Co140 2.021 . S
O150 C147 1.238 . S
O151 Co145 2.052 . S
O151 C147 1.241 . S
O152 Co140 2.137 . S
O152 C143 1.247 . S
O153 Co140 2.244 . S
O153 C143 1.272 . S
O153 Co145 2.135 . S
Co154 O155 2.216 . S
Co154 O156 2.091 . S
Co154 O158 2.004 . S
Co154 O164 2.021 . S
Co154 O166 2.137 . S
Co154 O167 2.244 . S
O155 Co154 2.216 . S
O155 C162 1.247 . S
O156 Co154 2.091 . S
O156 C162 1.261 . S
C157 O166 1.247 . S
C157 O167 1.272 . S
O158 Co154 2.004 . S
O158 C163 1.259 . S
Co159 O160 2.061 . S
Co159 O165 2.052 . S
Co159 O167 2.135 . S
O160 Co159 2.061 . S
O160 C163 1.235 . S
C161 O164 1.238 . S
C161 O165 1.241 . S
C162 O155 1.247 . S
C162 O156 1.261 . S
C163 O158 1.259 . S
C163 O160 1.235 . S
O164 Co154 2.021 . S
O164 C161 1.238 . S
O165 Co159 2.052 . S
O165 C161 1.241 . S
O166 Co154 2.137 . S
O166 C157 1.247 . S
O167 Co154 2.244 . S
O167 C157 1.272 . S
O167 Co159 2.135 . S
Co168 O169 2.216 . S
Co168 O170 2.091 . S
Co168 O172 2.004 . S
Co168 O178 2.021 . S
Co168 O180 2.137 . S
Co168 O181 2.244 . S
O169 Co168 2.216 . S
O169 C176 1.247 . S
O170 Co168 2.091 . S
O170 C176 1.261 . S
C171 O180 1.247 . S
C171 O181 1.272 . S
O172 Co168 2.004 . S
O172 C177 1.259 . S
Co173 O174 2.061 . S
Co173 O179 2.052 . S
Co173 O181 2.135 . S
O174 Co173 2.061 . S
O174 C177 1.235 . S
C175 O178 1.238 . S
C175 O179 1.241 . S
C176 O169 1.247 . S
C176 O170 1.261 . S
C177 O172 1.259 . S
C177 O174 1.235 . S
O178 Co168 2.021 . S
O178 C175 1.238 . S
O179 Co173 2.052 . S
O179 C175 1.241 . S
O180 Co168 2.137 . S
O180 C171 1.247 . S
O181 Co168 2.244 . S
O181 C171 1.272 . S
O181 Co173 2.135 . S
Co182 O183 2.216 . S
Co182 O184 2.091 . S
Co182 O186 2.004 . S
Co182 O192 2.021 . S
Co182 O194 2.137 . S
Co182 O195 2.244 . S
O183 Co182 2.216 . S
O183 C190 1.247 . S
O184 Co182 2.091 . S
O184 C190 1.261 . S
C185 O194 1.247 . S
C185 O195 1.272 . S
O186 Co182 2.004 . S
O186 C191 1.259 . S
Co187 O188 2.061 . S
Co187 O193 2.052 . S
Co187 O195 2.135 . S
O188 Co187 2.061 . S
O188 C191 1.235 . S
C189 O192 1.238 . S
C189 O193 1.241 . S
C190 O183 1.247 . S
C190 O184 1.261 . S
C191 O186 1.259 . S
C191 O188 1.235 . S
O192 Co182 2.021 . S
O192 C189 1.238 . S
O193 Co187 2.052 . S
O193 C189 1.241 . S
O194 Co182 2.137 . S
O194 C185 1.247 . S
O195 Co182 2.244 . S
O195 C185 1.272 . S
O195 Co187 2.135 . S
Co196 O197 2.216 . S
Co196 O198 2.091 . S
Co196 O200 2.004 . S
Co196 O206 2.021 . S
Co196 O208 2.137 . S
Co196 O209 2.244 . S
O197 Co196 2.216 . S
O197 C204 1.247 . S
O198 Co196 2.091 . S
O198 C204 1.261 . S
C199 O208 1.247 . S
C199 O209 1.272 . S
O200 Co196 2.004 . S
O200 C205 1.259 . S
Co201 O202 2.061 . S
Co201 O207 2.052 . S
Co201 O209 2.135 . S
O202 Co201 2.061 . S
O202 C205 1.235 . S
C203 O206 1.238 . S
C203 O207 1.241 . S
C204 O197 1.247 . S
C204 O198 1.261 . S
C205 O200 1.259 . S
C205 O202 1.235 . S
O206 Co196 2.021 . S
O206 C203 1.238 . S
O207 Co201 2.052 . S
O207 C203 1.241 . S
O208 Co196 2.137 . S
O208 C199 1.247 . S
O209 Co196 2.244 . S
O209 C199 1.272 . S
O209 Co201 2.135 . S
Co210 O211 2.216 . S
Co210 O212 2.091 . S
Co210 O214 2.004 . S
Co210 O220 2.021 . S
Co210 O222 2.137 . S
Co210 O223 2.244 . S
O211 Co210 2.216 . S
O211 C218 1.247 . S
O212 Co210 2.091 . S
O212 C218 1.261 . S
C213 O222 1.247 . S
C213 O223 1.272 . S
O214 Co210 2.004 . S
O214 C219 1.259 . S
Co215 O216 2.061 . S
Co215 O221 2.052 . S
Co215 O223 2.135 . S
O216 Co215 2.061 . S
O216 C219 1.235 . S
C217 O220 1.238 . S
C217 O221 1.241 . S
C218 O211 1.247 . S
C218 O212 1.261 . S
C219 O214 1.259 . S
C219 O216 1.235 . S
O220 Co210 2.021 . S
O220 C217 1.238 . S
O221 Co215 2.052 . S
O221 C217 1.241 . S
O222 Co210 2.137 . S
O222 C213 1.247 . S
O223 Co210 2.244 . S
O223 C213 1.272 . S
O223 Co215 2.135 . S
H224 C232 0.950 . S
H225 C237 0.950 . S
H226 C234 0.950 . S
H227 C236 0.950 . S
H228 C238 0.950 . S
H229 C240 0.950 . S
H230 C242 0.950 . S
H231 C243 0.950 . S
C232 H224 0.950 . S
C232 C233 1.386 . S
C232 C234 1.391 . S
C233 C232 1.386 . S
C233 C237 1.393 . S
C234 H226 0.950 . S
C234 C232 1.391 . S
C234 C235 1.400 . S
C235 C234 1.400 . S
C235 C236 1.398 . S
C235 C241 1.491 1_455 S
C236 H227 0.950 . S
C236 C235 1.398 . S
C236 C237 1.391 . S
C237 H225 0.950 . S
C237 C233 1.393 . S
C237 C236 1.391 . S
C238 H228 0.950 . S
C238 C239 1.386 . S
C238 C240 1.391 . S
C239 C238 1.386 . S
C239 C243 1.393 . S
C240 H229 0.950 . S
C240 C238 1.391 . S
C240 C241 1.400 . S
C241 C235 1.491 1_655 S
C241 C240 1.400 . S
C241 C242 1.398 . S
C242 H230 0.950 . S
C242 C241 1.398 . S
C242 C243 1.391 . S
C243 H231 0.950 . S
C243 C239 1.393 . S
C243 C242 1.391 . S
H244 C252 0.950 . S
H245 C257 0.950 . S
H246 C254 0.950 . S
H247 C256 0.950 . S
H248 C258 0.950 . S
H249 C260 0.950 . S
H250 C262 0.950 . S
H251 C263 0.950 . S
C252 H244 0.950 . S
C252 C253 1.386 . S
C252 C254 1.391 . S
C253 C252 1.386 . S
C253 C257 1.393 . S
C254 H246 0.950 . S
C254 C252 1.391 . S
C254 C255 1.400 . S
C255 C254 1.400 . S
C255 C256 1.398 . S
C255 C261 1.491 1_565 S
C256 H247 0.950 . S
C256 C255 1.398 . S
C256 C257 1.391 . S
C257 H245 0.950 . S
C257 C253 1.393 . S
C257 C256 1.391 . S
C258 H248 0.950 . S
C258 C259 1.386 . S
C258 C260 1.391 . S
C259 C258 1.386 . S
C259 C263 1.393 . S
C260 H249 0.950 . S
C260 C258 1.391 . S
C260 C261 1.400 . S
C261 C255 1.491 1_545 S
C261 C260 1.400 . S
C261 C262 1.398 . S
C262 H250 0.950 . S
C262 C261 1.398 . S
C262 C263 1.391 . S
C263 H251 0.950 . S
C263 C259 1.393 . S
C263 C262 1.391 . S
H264 C272 0.950 . S
H265 C277 0.950 . S
H266 C274 0.950 . S
H267 C276 0.950 . S
H268 C278 0.950 . S
H269 C280 0.950 . S
H270 C282 0.950 . S
H271 C283 0.950 . S
C272 H264 0.950 . S
C272 C273 1.386 . S
C272 C274 1.391 . S
C273 C272 1.386 . S
C273 C277 1.393 . S
C274 H266 0.950 . S
C274 C272 1.391 . S
C274 C275 1.400 . S
C275 C274 1.400 . S
C275 C276 1.398 . S
C275 C281 1.491 1_455 S
C276 H267 0.950 . S
C276 C275 1.398 . S
C276 C277 1.391 . S
C277 H265 0.950 . S
C277 C273 1.393 . S
C277 C276 1.391 . S
C278 H268 0.950 . S
C278 C279 1.386 . S
C278 C280 1.391 . S
C279 C278 1.386 . S
C279 C283 1.393 . S
C280 H269 0.950 . S
C280 C278 1.391 . S
C280 C281 1.400 . S
C281 C275 1.491 1_655 S
C281 C280 1.400 . S
C281 C282 1.398 . S
C282 H270 0.950 . S
C282 C281 1.398 . S
C282 C283 1.391 . S
C283 H271 0.950 . S
C283 C279 1.393 . S
C283 C282 1.391 . S
H284 C292 0.950 . S
H285 C297 0.950 . S
H286 C294 0.950 . S
H287 C296 0.950 . S
H288 C298 0.950 . S
H289 C300 0.950 . S
H290 C302 0.950 . S
H291 C303 0.950 . S
C292 H284 0.950 . S
C292 C293 1.386 . S
C292 C294 1.391 . S
C293 C292 1.386 . S
C293 C297 1.393 . S
C294 H286 0.950 . S
C294 C292 1.391 . S
C294 C295 1.400 . S
C295 C294 1.400 . S
C295 C296 1.398 . S
C295 C301 1.491 1_565 S
C296 H287 0.950 . S
C296 C295 1.398 . S
C296 C297 1.391 . S
C297 H285 0.950 . S
C297 C293 1.393 . S
C297 C296 1.391 . S
C298 H288 0.950 . S
C298 C299 1.386 . S
C298 C300 1.391 . S
C299 C298 1.386 . S
C299 C303 1.393 . S
C300 H289 0.950 . S
C300 C298 1.391 . S
C300 C301 1.400 . S
C301 C295 1.491 1_545 S
C301 C300 1.400 . S
C301 C302 1.398 . S
C302 H290 0.950 . S
C302 C301 1.398 . S
C302 C303 1.391 . S
C303 H291 0.950 . S
C303 C299 1.393 . S
C303 C302 1.391 . S
H304 C312 0.950 . S
H305 C317 0.950 . S
H306 C314 0.950 . S
H307 C316 0.950 . S
H308 C318 0.950 . S
H309 C320 0.950 . S
H310 C322 0.950 . S
H311 C323 0.950 . S
C312 H304 0.950 . S
C312 C313 1.386 . S
C312 C314 1.391 . S
C313 C312 1.386 . S
C313 C317 1.393 . S
C314 H306 0.950 . S
C314 C312 1.391 . S
C314 C315 1.400 . S
C315 C314 1.400 . S
C315 C316 1.398 . S
C315 C321 1.491 1_655 S
C316 H307 0.950 . S
C316 C315 1.398 . S
C316 C317 1.391 . S
C317 H305 0.950 . S
C317 C313 1.393 . S
C317 C316 1.391 . S
C318 H308 0.950 . S
C318 C319 1.386 . S
C318 C320 1.391 . S
C319 C318 1.386 . S
C319 C323 1.393 . S
C320 H309 0.950 . S
C320 C318 1.391 . S
C320 C321 1.400 . S
C321 C315 1.491 1_455 S
C321 C320 1.400 . S
C321 C322 1.398 . S
C322 H310 0.950 . S
C322 C321 1.398 . S
C322 C323 1.391 . S
C323 H311 0.950 . S
C323 C319 1.393 . S
C323 C322 1.391 . S
H324 C332 0.950 . S
H325 C337 0.950 . S
H326 C334 0.950 . S
H327 C336 0.950 . S
H328 C338 0.950 . S
H329 C340 0.950 . S
H330 C342 0.950 . S
H331 C343 0.950 . S
C332 H324 0.950 . S
C332 C333 1.386 . S
C332 C334 1.391 . S
C333 C332 1.386 . S
C333 C337 1.393 . S
C334 H326 0.950 . S
C334 C332 1.391 . S
C334 C335 1.400 . S
C335 C334 1.400 . S
C335 C336 1.398 . S
C335 C341 1.491 1_545 S
C336 H327 0.950 . S
C336 C335 1.398 . S
C336 C337 1.391 . S
C337 H325 0.950 . S
C337 C333 1.393 . S
C337 C336 1.391 . S
C338 H328 0.950 . S
C338 C339 1.386 . S
C338 C340 1.391 . S
C339 C338 1.386 . S
C339 C343 1.393 . S
C340 H329 0.950 . S
C340 C338 1.391 . S
C340 C341 1.400 . S
C341 C335 1.491 1_565 S
C341 C340 1.400 . S
C341 C342 1.398 . S
C342 H330 0.950 . S
C342 C341 1.398 . S
C342 C343 1.391 . S
C343 H331 0.950 . S
C343 C339 1.393 . S
C343 C342 1.391 . S
H344 C352 0.950 . S
H345 C357 0.950 . S
H346 C354 0.950 . S
H347 C356 0.950 . S
H348 C358 0.950 . S
H349 C360 0.950 . S
H350 C362 0.950 . S
H351 C363 0.950 . S
C352 H344 0.950 . S
C352 C353 1.386 . S
C352 C354 1.391 . S
C353 C352 1.386 . S
C353 C357 1.393 . S
C354 H346 0.950 . S
C354 C352 1.391 . S
C354 C355 1.400 . S
C355 C354 1.400 . S
C355 C356 1.398 . S
C355 C361 1.491 1_655 S
C356 H347 0.950 . S
C356 C355 1.398 . S
C356 C357 1.391 . S
C357 H345 0.950 . S
C357 C353 1.393 . S
C357 C356 1.391 . S
C358 H348 0.950 . S
C358 C359 1.386 . S
C358 C360 1.391 . S
C359 C358 1.386 . S
C359 C363 1.393 . S
C360 H349 0.950 . S
C360 C358 1.391 . S
C360 C361 1.400 . S
C361 C355 1.491 1_455 S
C361 C360 1.400 . S
C361 C362 1.398 . S
C362 H350 0.950 . S
C362 C361 1.398 . S
C362 C363 1.391 . S
C363 H351 0.950 . S
C363 C359 1.393 . S
C363 C362 1.391 . S
H364 C372 0.950 . S
H365 C377 0.950 . S
H366 C374 0.950 . S
H367 C376 0.950 . S
H368 C378 0.950 . S
H369 C380 0.950 . S
H370 C382 0.950 . S
H371 C383 0.950 . S
C372 H364 0.950 . S
C372 C373 1.386 . S
C372 C374 1.391 . S
C373 C372 1.386 . S
C373 C377 1.393 . S
C374 H366 0.950 . S
C374 C372 1.391 . S
C374 C375 1.400 . S
C375 C374 1.400 . S
C375 C376 1.398 . S
C375 C381 1.491 1_545 S
C376 H367 0.950 . S
C376 C375 1.398 . S
C376 C377 1.391 . S
C377 H365 0.950 . S
C377 C373 1.393 . S
C377 C376 1.391 . S
C378 H368 0.950 . S
C378 C379 1.386 . S
C378 C380 1.391 . S
C379 C378 1.386 . S
C379 C383 1.393 . S
C380 H369 0.950 . S
C380 C378 1.391 . S
C380 C381 1.400 . S
C381 C375 1.491 1_565 S
C381 C380 1.400 . S
C381 C382 1.398 . S
C382 H370 0.950 . S
C382 C381 1.398 . S
C382 C383 1.391 . S
C383 H371 0.950 . S
C383 C379 1.393 . S
C383 C382 1.391 . S
H384 C392 0.950 . S
H385 C397 0.950 . S
H386 C394 0.950 . S
H387 C396 0.950 . S
H388 C398 0.950 . S
H389 C400 0.950 . S
H390 C402 0.950 . S
H391 C403 0.950 . S
C392 H384 0.950 . S
C392 C393 1.386 . S
C392 C394 1.391 . S
C393 C392 1.386 . S
C393 C397 1.393 . S
C394 H386 0.950 . S
C394 C392 1.391 . S
C394 C395 1.400 . S
C395 C394 1.400 . S
C395 C396 1.398 . S
C395 C401 1.491 . S
C396 H387 0.950 . S
C396 C395 1.398 . S
C396 C397 1.391 . S
C397 H385 0.950 . S
C397 C393 1.393 . S
C397 C396 1.391 . S
C398 H388 0.950 . S
C398 C399 1.386 . S
C398 C400 1.391 . S
C399 C398 1.386 . S
C399 C403 1.393 . S
C400 H389 0.950 . S
C400 C398 1.391 . S
C400 C401 1.400 . S
C401 C395 1.491 . S
C401 C400 1.400 . S
C401 C402 1.398 . S
C402 H390 0.950 . S
C402 C401 1.398 . S
C402 C403 1.391 . S
C403 H391 0.950 . S
C403 C399 1.393 . S
C403 C402 1.391 . S
H404 C412 0.950 . S
H405 C417 0.950 . S
H406 C414 0.950 . S
H407 C416 0.950 . S
H408 C418 0.950 . S
H409 C420 0.950 . S
H410 C422 0.950 . S
H411 C423 0.950 . S
C412 H404 0.950 . S
C412 C413 1.386 . S
C412 C414 1.391 . S
C413 C412 1.386 . S
C413 C417 1.393 . S
C414 H406 0.950 . S
C414 C412 1.391 . S
C414 C415 1.400 . S
C415 C414 1.400 . S
C415 C416 1.398 . S
C415 C421 1.491 . S
C416 H407 0.950 . S
C416 C415 1.398 . S
C416 C417 1.391 . S
C417 H405 0.950 . S
C417 C413 1.393 . S
C417 C416 1.391 . S
C418 H408 0.950 . S
C418 C419 1.386 . S
C418 C420 1.391 . S
C419 C418 1.386 . S
C419 C423 1.393 . S
C420 H409 0.950 . S
C420 C418 1.391 . S
C420 C421 1.400 . S
C421 C415 1.491 . S
C421 C420 1.400 . S
C421 C422 1.398 . S
C422 H410 0.950 . S
C422 C421 1.398 . S
C422 C423 1.391 . S
C423 H411 0.950 . S
C423 C419 1.393 . S
C423 C422 1.391 . S
H424 C432 0.950 . S
H425 C437 0.950 . S
H426 C434 0.950 . S
H427 C436 0.950 . S
H428 C438 0.950 . S
H429 C440 0.950 . S
H430 C442 0.950 . S
H431 C443 0.950 . S
C432 H424 0.950 . S
C432 C433 1.386 . S
C432 C434 1.391 . S
C433 C432 1.386 . S
C433 C437 1.393 . S
C434 H426 0.950 . S
C434 C432 1.391 . S
C434 C435 1.400 . S
C435 C434 1.400 . S
C435 C436 1.398 . S
C435 C441 1.491 . S
C436 H427 0.950 . S
C436 C435 1.398 . S
C436 C437 1.391 . S
C437 H425 0.950 . S
C437 C433 1.393 . S
C437 C436 1.391 . S
C438 H428 0.950 . S
C438 C439 1.386 . S
C438 C440 1.391 . S
C439 C438 1.386 . S
C439 C443 1.393 . S
C440 H429 0.950 . S
C440 C438 1.391 . S
C440 C441 1.400 . S
C441 C435 1.491 . S
C441 C440 1.400 . S
C441 C442 1.398 . S
C442 H430 0.950 . S
C442 C441 1.398 . S
C442 C443 1.391 . S
C443 H431 0.950 . S
C443 C439 1.393 . S
C443 C442 1.391 . S
H444 C452 0.950 . S
H445 C457 0.950 . S
H446 C454 0.950 . S
H447 C456 0.950 . S
H448 C458 0.950 . S
H449 C460 0.950 . S
H450 C462 0.950 . S
H451 C463 0.950 . S
C452 H444 0.950 . S
C452 C453 1.386 . S
C452 C454 1.391 . S
C453 C452 1.386 . S
C453 C457 1.393 . S
C454 H446 0.950 . S
C454 C452 1.391 . S
C454 C455 1.400 . S
C455 C454 1.400 . S
C455 C456 1.398 . S
C455 C461 1.491 . S
C456 H447 0.950 . S
C456 C455 1.398 . S
C456 C457 1.391 . S
C457 H445 0.950 . S
C457 C453 1.393 . S
C457 C456 1.391 . S
C458 H448 0.950 . S
C458 C459 1.386 . S
C458 C460 1.391 . S
C459 C458 1.386 . S
C459 C463 1.393 . S
C460 H449 0.950 . S
C460 C458 1.391 . S
C460 C461 1.400 . S
C461 C455 1.491 . S
C461 C460 1.400 . S
C461 C462 1.398 . S
C462 H450 0.950 . S
C462 C461 1.398 . S
C462 C463 1.391 . S
C463 H451 0.950 . S
C463 C459 1.393 . S
C463 C462 1.391 . S
H464 C472 0.950 . S
H465 C477 0.950 . S
H466 C474 0.950 . S
H467 C476 0.950 . S
H468 C478 0.950 . S
H469 C480 0.950 . S
H470 C482 0.950 . S
H471 C483 0.950 . S
C472 H464 0.950 . S
C472 C473 1.386 . S
C472 C474 1.391 . S
C473 C472 1.386 . S
C473 C477 1.393 . S
C474 H466 0.950 . S
C474 C472 1.391 . S
C474 C475 1.400 . S
C475 C474 1.400 . S
C475 C476 1.398 . S
C475 C481 1.491 . S
C476 H467 0.950 . S
C476 C475 1.398 . S
C476 C477 1.391 . S
C477 H465 0.950 . S
C477 C473 1.393 . S
C477 C476 1.391 . S
C478 H468 0.950 . S
C478 C479 1.386 . S
C478 C480 1.391 . S
C479 C478 1.386 . S
C479 C483 1.393 . S
C480 H469 0.950 . S
C480 C478 1.391 . S
C480 C481 1.400 . S
C481 C475 1.491 . S
C481 C480 1.400 . S
C481 C482 1.398 . S
C482 H470 0.950 . S
C482 C481 1.398 . S
C482 C483 1.391 . S
C483 H471 0.950 . S
C483 C479 1.393 . S
C483 C482 1.391 . S
H484 C492 0.950 . S
H485 C497 0.950 . S
H486 C494 0.950 . S
H487 C496 0.950 . S
H488 C498 0.950 . S
H489 C500 0.950 . S
H490 C502 0.950 . S
H491 C503 0.950 . S
C492 H484 0.950 . S
C492 C493 1.386 . S
C492 C494 1.391 . S
C493 C492 1.386 . S
C493 C497 1.393 . S
C494 H486 0.950 . S
C494 C492 1.391 . S
C494 C495 1.400 . S
C495 C494 1.400 . S
C495 C496 1.398 . S
C495 C501 1.491 . S
C496 H487 0.950 . S
C496 C495 1.398 . S
C496 C497 1.391 . S
C497 H485 0.950 . S
C497 C493 1.393 . S
C497 C496 1.391 . S
C498 H488 0.950 . S
C498 C499 1.386 . S
C498 C500 1.391 . S
C499 C498 1.386 . S
C499 C503 1.393 . S
C500 H489 0.950 . S
C500 C498 1.391 . S
C500 C501 1.400 . S
C501 C495 1.491 . S
C501 C500 1.400 . S
C501 C502 1.398 . S
C502 H490 0.950 . S
C502 C501 1.398 . S
C502 C503 1.391 . S
C503 H491 0.950 . S
C503 C499 1.393 . S
C503 C502 1.391 . S
H504 C512 0.950 . S
H505 C517 0.950 . S
H506 C514 0.950 . S
H507 C516 0.950 . S
H508 C518 0.950 . S
H509 C520 0.950 . S
H510 C522 0.950 . S
H511 C523 0.950 . S
C512 H504 0.950 . S
C512 C513 1.386 . S
C512 C514 1.391 . S
C513 C512 1.386 . S
C513 C517 1.393 . S
C514 H506 0.950 . S
C514 C512 1.391 . S
C514 C515 1.400 . S
C515 C514 1.400 . S
C515 C516 1.398 . S
C515 C521 1.491 . S
C516 H507 0.950 . S
C516 C515 1.398 . S
C516 C517 1.391 . S
C517 H505 0.950 . S
C517 C513 1.393 . S
C517 C516 1.391 . S
C518 H508 0.950 . S
C518 C519 1.386 . S
C518 C520 1.391 . S
C519 C518 1.386 . S
C519 C523 1.393 . S
C520 H509 0.950 . S
C520 C518 1.391 . S
C520 C521 1.400 . S
C521 C515 1.491 . S
C521 C520 1.400 . S
C521 C522 1.398 . S
C522 H510 0.950 . S
C522 C521 1.398 . S
C522 C523 1.391 . S
C523 H511 0.950 . S
C523 C519 1.393 . S
C523 C522 1.391 . S
H524 C532 0.950 . S
H525 C537 0.950 . S
H526 C534 0.950 . S
H527 C536 0.950 . S
H528 C538 0.950 . S
H529 C540 0.950 . S
H530 C542 0.950 . S
H531 C543 0.950 . S
C532 H524 0.950 . S
C532 C533 1.386 . S
C532 C534 1.391 . S
C533 C532 1.386 . S
C533 C537 1.393 . S
C534 H526 0.950 . S
C534 C532 1.391 . S
C534 C535 1.400 . S
C535 C534 1.400 . S
C535 C536 1.398 . S
C535 C541 1.491 . S
C536 H527 0.950 . S
C536 C535 1.398 . S
C536 C537 1.391 . S
C537 H525 0.950 . S
C537 C533 1.393 . S
C537 C536 1.391 . S
C538 H528 0.950 . S
C538 C539 1.386 . S
C538 C540 1.391 . S
C539 C538 1.386 . S
C539 C543 1.393 . S
C540 H529 0.950 . S
C540 C538 1.391 . S
C540 C541 1.400 . S
C541 C535 1.491 . S
C541 C540 1.400 . S
C541 C542 1.398 . S
C542 H530 0.950 . S
C542 C541 1.398 . S
C542 C543 1.391 . S
C543 H531 0.950 . S
C543 C539 1.393 . S
C543 C542 1.391 . S
H544 C552 0.950 . S
H545 C557 0.950 . S
H546 C554 0.950 . S
H547 C556 0.950 . S
H548 C558 0.950 . S
H549 C560 0.950 . S
H550 C562 0.950 . S
H551 C563 0.950 . S
C552 H544 0.950 . S
C552 C553 1.386 . S
C552 C554 1.391 . S
C553 C552 1.386 . S
C553 C557 1.393 . S
C554 H546 0.950 . S
C554 C552 1.391 . S
C554 C555 1.400 . S
C555 C554 1.400 . S
C555 C556 1.398 . S
C555 C561 1.491 1_556 S
C556 H547 0.950 . S
C556 C555 1.398 . S
C556 C557 1.391 . S
C557 H545 0.950 . S
C557 C553 1.393 . S
C557 C556 1.391 . S
C558 H548 0.950 . S
C558 C559 1.386 . S
C558 C560 1.391 . S
C559 C558 1.386 . S
C559 C563 1.393 . S
C560 H549 0.950 . S
C560 C558 1.391 . S
C560 C561 1.400 . S
C561 C555 1.491 1_554 S
C561 C560 1.400 . S
C561 C562 1.398 . S
C562 H550 0.950 . S
C562 C561 1.398 . S
C562 C563 1.391 . S
C563 H551 0.950 . S
C563 C559 1.393 . S
C563 C562 1.391 . S
H564 C572 0.950 . S
H565 C577 0.950 . S
H566 C574 0.950 . S
H567 C576 0.950 . S
H568 C578 0.950 . S
H569 C580 0.950 . S
H570 C582 0.950 . S
H571 C583 0.950 . S
C572 H564 0.950 . S
C572 C573 1.386 . S
C572 C574 1.391 . S
C573 C572 1.386 . S
C573 C577 1.393 . S
C574 H566 0.950 . S
C574 C572 1.391 . S
C574 C575 1.400 . S
C575 C574 1.400 . S
C575 C576 1.398 . S
C575 C581 1.491 . S
C576 H567 0.950 . S
C576 C575 1.398 . S
C576 C577 1.391 . S
C577 H565 0.950 . S
C577 C573 1.393 . S
C577 C576 1.391 . S
C578 H568 0.950 . S
C578 C579 1.386 . S
C578 C580 1.391 . S
C579 C578 1.386 . S
C579 C583 1.393 . S
C580 H569 0.950 . S
C580 C578 1.391 . S
C580 C581 1.400 . S
C581 C575 1.491 . S
C581 C580 1.400 . S
C581 C582 1.398 . S
C582 H570 0.950 . S
C582 C581 1.398 . S
C582 C583 1.391 . S
C583 H571 0.950 . S
C583 C579 1.393 . S
C583 C582 1.391 . S
H584 C592 0.950 . S
H585 C597 0.950 . S
H586 C594 0.950 . S
H587 C596 0.950 . S
H588 C598 0.950 . S
H589 C600 0.950 . S
H590 C602 0.950 . S
H591 C603 0.950 . S
C592 H584 0.950 . S
C592 C593 1.386 . S
C592 C594 1.391 . S
C593 C592 1.386 . S
C593 C597 1.393 . S
C594 H586 0.950 . S
C594 C592 1.391 . S
C594 C595 1.400 . S
C595 C594 1.400 . S
C595 C596 1.398 . S
C595 C601 1.491 1_554 S
C596 H587 0.950 . S
C596 C595 1.398 . S
C596 C597 1.391 . S
C597 H585 0.950 . S
C597 C593 1.393 . S
C597 C596 1.391 . S
C598 H588 0.950 . S
C598 C599 1.386 . S
C598 C600 1.391 . S
C599 C598 1.386 . S
C599 C603 1.393 . S
C600 H589 0.950 . S
C600 C598 1.391 . S
C600 C601 1.400 . S
C601 C595 1.491 1_556 S
C601 C600 1.400 . S
C601 C602 1.398 . S
C602 H590 0.950 . S
C602 C601 1.398 . S
C602 C603 1.391 . S
C603 H591 0.950 . S
C603 C599 1.393 . S
C603 C602 1.391 . S
H604 C612 0.950 . S
H605 C617 0.950 . S
H606 C614 0.950 . S
H607 C616 0.950 . S
H608 C618 0.950 . S
H609 C620 0.950 . S
H610 C622 0.950 . S
H611 C623 0.950 . S
C612 H604 0.950 . S
C612 C613 1.386 . S
C612 C614 1.391 . S
C613 C612 1.386 . S
C613 C617 1.393 . S
C614 H606 0.950 . S
C614 C612 1.391 . S
C614 C615 1.400 . S
C615 C614 1.400 . S
C615 C616 1.398 . S
C615 C621 1.491 . S
C616 H607 0.950 . S
C616 C615 1.398 . S
C616 C617 1.391 . S
C617 H605 0.950 . S
C617 C613 1.393 . S
C617 C616 1.391 . S
C618 H608 0.950 . S
C618 C619 1.386 . S
C618 C620 1.391 . S
C619 C618 1.386 . S
C619 C623 1.393 . S
C620 H609 0.950 . S
C620 C618 1.391 . S
C620 C621 1.400 . S
C621 C615 1.491 . S
C621 C620 1.400 . S
C621 C622 1.398 . S
C622 H610 0.950 . S
C622 C621 1.398 . S
C622 C623 1.391 . S
C623 H611 0.950 . S
C623 C619 1.393 . S
C623 C622 1.391 . S
H624 C632 0.950 . S
H625 C637 0.950 . S
H626 C634 0.950 . S
H627 C636 0.950 . S
H628 C638 0.950 . S
H629 C640 0.950 . S
H630 C642 0.950 . S
H631 C643 0.950 . S
C632 H624 0.950 . S
C632 C633 1.386 . S
C632 C634 1.391 . S
C633 C632 1.386 . S
C633 C637 1.393 . S
C634 H626 0.950 . S
C634 C632 1.391 . S
C634 C635 1.400 . S
C635 C634 1.400 . S
C635 C636 1.398 . S
C635 C641 1.491 . S
C636 H627 0.950 . S
C636 C635 1.398 . S
C636 C637 1.391 . S
C637 H625 0.950 . S
C637 C633 1.393 . S
C637 C636 1.391 . S
C638 H628 0.950 . S
C638 C639 1.386 . S
C638 C640 1.391 . S
C639 C638 1.386 . S
C639 C643 1.393 . S
C640 H629 0.950 . S
C640 C638 1.391 . S
C640 C641 1.400 . S
C641 C635 1.491 . S
C641 C640 1.400 . S
C641 C642 1.398 . S
C642 H630 0.950 . S
C642 C641 1.398 . S
C642 C643 1.391 . S
C643 H631 0.950 . S
C643 C639 1.393 . S
C643 C642 1.391 . S
H644 C652 0.950 . S
H645 C657 0.950 . S
H646 C654 0.950 . S
H647 C656 0.950 . S
H648 C658 0.950 . S
H649 C660 0.950 . S
H650 C662 0.950 . S
H651 C663 0.950 . S
C652 H644 0.950 . S
C652 C653 1.386 . S
C652 C654 1.391 . S
C653 C652 1.386 . S
C653 C657 1.393 . S
C654 H646 0.950 . S
C654 C652 1.391 . S
C654 C655 1.400 . S
C655 C654 1.400 . S
C655 C656 1.398 . S
C655 C661 1.491 1_556 S
C656 H647 0.950 . S
C656 C655 1.398 . S
C656 C657 1.391 . S
C657 H645 0.950 . S
C657 C653 1.393 . S
C657 C656 1.391 . S
C658 H648 0.950 . S
C658 C659 1.386 . S
C658 C660 1.391 . S
C659 C658 1.386 . S
C659 C663 1.393 . S
C660 H649 0.950 . S
C660 C658 1.391 . S
C660 C661 1.400 . S
C661 C655 1.491 1_554 S
C661 C660 1.400 . S
C661 C662 1.398 . S
C662 H650 0.950 . S
C662 C661 1.398 . S
C662 C663 1.391 . S
C663 H651 0.950 . S
C663 C659 1.393 . S
C663 C662 1.391 . S
H664 C672 0.950 . S
H665 C677 0.950 . S
H666 C674 0.950 . S
H667 C676 0.950 . S
H668 C678 0.950 . S
H669 C680 0.950 . S
H670 C682 0.950 . S
H671 C683 0.950 . S
C672 H664 0.950 . S
C672 C673 1.386 . S
C672 C674 1.391 . S
C673 C672 1.386 . S
C673 C677 1.393 . S
C674 H666 0.950 . S
C674 C672 1.391 . S
C674 C675 1.400 . S
C675 C674 1.400 . S
C675 C676 1.398 . S
C675 C681 1.491 . S
C676 H667 0.950 . S
C676 C675 1.398 . S
C676 C677 1.391 . S
C677 H665 0.950 . S
C677 C673 1.393 . S
C677 C676 1.391 . S
C678 H668 0.950 . S
C678 C679 1.386 . S
C678 C680 1.391 . S
C679 C678 1.386 . S
C679 C683 1.393 . S
C680 H669 0.950 . S
C680 C678 1.391 . S
C680 C681 1.400 . S
C681 C675 1.491 . S
C681 C680 1.400 . S
C681 C682 1.398 . S
C682 H670 0.950 . S
C682 C681 1.398 . S
C682 C683 1.391 . S
C683 H671 0.950 . S
C683 C679 1.393 . S
C683 C682 1.391 . S
H684 C692 0.950 . S
H685 C697 0.950 . S
H686 C694 0.950 . S
H687 C696 0.950 . S
H688 C698 0.950 . S
H689 C700 0.950 . S
H690 C702 0.950 . S
H691 C703 0.950 . S
C692 H684 0.950 . S
C692 C693 1.386 . S
C692 C694 1.391 . S
C693 C692 1.386 . S
C693 C697 1.393 . S
C694 H686 0.950 . S
C694 C692 1.391 . S
C694 C695 1.400 . S
C695 C694 1.400 . S
C695 C696 1.398 . S
C695 C701 1.491 1_554 S
C696 H687 0.950 . S
C696 C695 1.398 . S
C696 C697 1.391 . S
C697 H685 0.950 . S
C697 C693 1.393 . S
C697 C696 1.391 . S
C698 H688 0.950 . S
C698 C699 1.386 . S
C698 C700 1.391 . S
C699 C698 1.386 . S
C699 C703 1.393 . S
C700 H689 0.950 . S
C700 C698 1.391 . S
C700 C701 1.400 . S
C701 C695 1.491 1_556 S
C701 C700 1.400 . S
C701 C702 1.398 . S
C702 H690 0.950 . S
C702 C701 1.398 . S
C702 C703 1.391 . S
C703 H691 0.950 . S
C703 C699 1.393 . S
C703 C702 1.391 . S
H704 C712 0.950 . S
H705 C717 0.950 . S
H706 C714 0.950 . S
H707 C716 0.950 . S
H708 C718 0.950 . S
H709 C720 0.950 . S
H710 C722 0.950 . S
H711 C723 0.950 . S
C712 H704 0.950 . S
C712 C713 1.386 . S
C712 C714 1.391 . S
C713 C712 1.386 . S
C713 C717 1.393 . S
C714 H706 0.950 . S
C714 C712 1.391 . S
C714 C715 1.400 . S
C715 C714 1.400 . S
C715 C716 1.398 . S
C715 C721 1.491 . S
C716 H707 0.950 . S
C716 C715 1.398 . S
C716 C717 1.391 . S
C717 H705 0.950 . S
C717 C713 1.393 . S
C717 C716 1.391 . S
C718 H708 0.950 . S
C718 C719 1.386 . S
C718 C720 1.391 . S
C719 C718 1.386 . S
C719 C723 1.393 . S
C720 H709 0.950 . S
C720 C718 1.391 . S
C720 C721 1.400 . S
C721 C715 1.491 . S
C721 C720 1.400 . S
C721 C722 1.398 . S
C722 H710 0.950 . S
C722 C721 1.398 . S
C722 C723 1.391 . S
C723 H711 0.950 . S
C723 C719 1.393 . S
C723 C722 1.391 . S
H724 C732 0.950 . S
H725 C737 0.950 . S
H726 C734 0.950 . S
H727 C736 0.950 . S
H728 C738 0.950 . S
H729 C740 0.950 . S
H730 C742 0.950 . S
H731 C743 0.950 . S
C732 H724 0.950 . S
C732 C733 1.386 . S
C732 C734 1.391 . S
C733 C732 1.386 . S
C733 C737 1.393 . S
C734 H726 0.950 . S
C734 C732 1.391 . S
C734 C735 1.400 . S
C735 C734 1.400 . S
C735 C736 1.398 . S
C735 C741 1.491 . S
C736 H727 0.950 . S
C736 C735 1.398 . S
C736 C737 1.391 . S
C737 H725 0.950 . S
C737 C733 1.393 . S
C737 C736 1.391 . S
C738 H728 0.950 . S
C738 C739 1.386 . S
C738 C740 1.391 . S
C739 C738 1.386 . S
C739 C743 1.393 . S
C740 H729 0.950 . S
C740 C738 1.391 . S
C740 C741 1.400 . S
C741 C735 1.491 . S
C741 C740 1.400 . S
C741 C742 1.398 . S
C742 H730 0.950 . S
C742 C741 1.398 . S
C742 C743 1.391 . S
C743 H731 0.950 . S
C743 C739 1.393 . S
C743 C742 1.391 . S
H744 C752 0.950 . S
H745 C757 0.950 . S
H746 C754 0.950 . S
H747 C756 0.950 . S
H748 C758 0.950 . S
H749 C760 0.950 . S
H750 C762 0.950 . S
H751 C763 0.950 . S
C752 H744 0.950 . S
C752 C753 1.386 . S
C752 C754 1.391 . S
C753 C752 1.386 . S
C753 C757 1.393 . S
C754 H746 0.950 . S
C754 C752 1.391 . S
C754 C755 1.400 . S
C755 C754 1.400 . S
C755 C756 1.398 . S
C755 C761 1.491 . S
C756 H747 0.950 . S
C756 C755 1.398 . S
C756 C757 1.391 . S
C757 H745 0.950 . S
C757 C753 1.393 . S
C757 C756 1.391 . S
C758 H748 0.950 . S
C758 C759 1.386 . S
C758 C760 1.391 . S
C759 C758 1.386 . S
C759 C763 1.393 . S
C760 H749 0.950 . S
C760 C758 1.391 . S
C760 C761 1.400 . S
C761 C755 1.491 . S
C761 C760 1.400 . S
C761 C762 1.398 . S
C762 H750 0.950 . S
C762 C761 1.398 . S
C762 C763 1.391 . S
C763 H751 0.950 . S
C763 C759 1.393 . S
C763 C762 1.391 . S
H764 C772 0.950 . S
H765 C777 0.950 . S
H766 C774 0.950 . S
H767 C776 0.950 . S
H768 C778 0.950 . S
H769 C780 0.950 . S
H770 C782 0.950 . S
H771 C783 0.950 . S
C772 H764 0.950 . S
C772 C773 1.386 . S
C772 C774 1.391 . S
C773 C772 1.386 . S
C773 C777 1.393 . S
C774 H766 0.950 . S
C774 C772 1.391 . S
C774 C775 1.400 . S
C775 C774 1.400 . S
C775 C776 1.398 . S
C775 C781 1.491 . S
C776 H767 0.950 . S
C776 C775 1.398 . S
C776 C777 1.391 . S
C777 H765 0.950 . S
C777 C773 1.393 . S
C777 C776 1.391 . S
C778 H768 0.950 . S
C778 C779 1.386 . S
C778 C780 1.391 . S
C779 C778 1.386 . S
C779 C783 1.393 . S
C780 H769 0.950 . S
C780 C778 1.391 . S
C780 C781 1.400 . S
C781 C775 1.491 . S
C781 C780 1.400 . S
C781 C782 1.398 . S
C782 H770 0.950 . S
C782 C781 1.398 . S
C782 C783 1.391 . S
C783 H771 0.950 . S
C783 C779 1.393 . S
C783 C782 1.391 . S
H784 C792 0.950 . S
H785 C797 0.950 . S
H786 C794 0.950 . S
H787 C796 0.950 . S
H788 C798 0.950 . S
H789 C800 0.950 . S
H790 C802 0.950 . S
H791 C803 0.950 . S
C792 H784 0.950 . S
C792 C793 1.386 . S
C792 C794 1.391 . S
C793 C792 1.386 . S
C793 C797 1.393 . S
C794 H786 0.950 . S
C794 C792 1.391 . S
C794 C795 1.400 . S
C795 C794 1.400 . S
C795 C796 1.398 . S
C795 C801 1.491 . S
C796 H787 0.950 . S
C796 C795 1.398 . S
C796 C797 1.391 . S
C797 H785 0.950 . S
C797 C793 1.393 . S
C797 C796 1.391 . S
C798 H788 0.950 . S
C798 C799 1.386 . S
C798 C800 1.391 . S
C799 C798 1.386 . S
C799 C803 1.393 . S
C800 H789 0.950 . S
C800 C798 1.391 . S
C800 C801 1.400 . S
C801 C795 1.491 . S
C801 C800 1.400 . S
C801 C802 1.398 . S
C802 H790 0.950 . S
C802 C801 1.398 . S
C802 C803 1.391 . S
C803 H791 0.950 . S
C803 C799 1.393 . S
C803 C802 1.391 . S
H804 C812 0.950 . S
H805 C817 0.950 . S
H806 C814 0.950 . S
H807 C816 0.950 . S
H808 C818 0.950 . S
H809 C820 0.950 . S
H810 C822 0.950 . S
H811 C823 0.950 . S
C812 H804 0.950 . S
C812 C813 1.386 . S
C812 C814 1.391 . S
C813 C812 1.386 . S
C813 C817 1.393 . S
C814 H806 0.950 . S
C814 C812 1.391 . S
C814 C815 1.400 . S
C815 C814 1.400 . S
C815 C816 1.398 . S
C815 C821 1.491 . S
C816 H807 0.950 . S
C816 C815 1.398 . S
C816 C817 1.391 . S
C817 H805 0.950 . S
C817 C813 1.393 . S
C817 C816 1.391 . S
C818 H808 0.950 . S
C818 C819 1.386 . S
C818 C820 1.391 . S
C819 C818 1.386 . S
C819 C823 1.393 . S
C820 H809 0.950 . S
C820 C818 1.391 . S
C820 C821 1.400 . S
C821 C815 1.491 . S
C821 C820 1.400 . S
C821 C822 1.398 . S
C822 H810 0.950 . S
C822 C821 1.398 . S
C822 C823 1.391 . S
C823 H811 0.950 . S
C823 C819 1.393 . S
C823 C822 1.391 . S
H824 C832 0.950 . S
H825 C837 0.950 . S
H826 C834 0.950 . S
H827 C836 0.950 . S
H828 C838 0.950 . S
H829 C840 0.950 . S
H830 C842 0.950 . S
H831 C843 0.950 . S
C832 H824 0.950 . S
C832 C833 1.386 . S
C832 C834 1.391 . S
C833 C832 1.386 . S
C833 C837 1.393 . S
C834 H826 0.950 . S
C834 C832 1.391 . S
C834 C835 1.400 . S
C835 C834 1.400 . S
C835 C836 1.398 . S
C835 C841 1.491 . S
C836 H827 0.950 . S
C836 C835 1.398 . S
C836 C837 1.391 . S
C837 H825 0.950 . S
C837 C833 1.393 . S
C837 C836 1.391 . S
C838 H828 0.950 . S
C838 C839 1.386 . S
C838 C840 1.391 . S
C839 C838 1.386 . S
C839 C843 1.393 . S
C840 H829 0.950 . S
C840 C838 1.391 . S
C840 C841 1.400 . S
C841 C835 1.491 . S
C841 C840 1.400 . S
C841 C842 1.398 . S
C842 H830 0.950 . S
C842 C841 1.398 . S
C842 C843 1.391 . S
C843 H831 0.950 . S
C843 C839 1.393 . S
C843 C842 1.391 . S
H844 C852 0.950 . S
H845 C857 0.950 . S
H846 C854 0.950 . S
H847 C856 0.950 . S
H848 C858 0.950 . S
H849 C860 0.950 . S
H850 C862 0.950 . S
H851 C863 0.950 . S
C852 H844 0.950 . S
C852 C853 1.386 . S
C852 C854 1.391 . S
C853 C852 1.386 . S
C853 C857 1.393 . S
C854 H846 0.950 . S
C854 C852 1.391 . S
C854 C855 1.400 . S
C855 C854 1.400 . S
C855 C856 1.398 . S
C855 C861 1.491 . S
C856 H847 0.950 . S
C856 C855 1.398 . S
C856 C857 1.391 . S
C857 H845 0.950 . S
C857 C853 1.393 . S
C857 C856 1.391 . S
C858 H848 0.950 . S
C858 C859 1.386 . S
C858 C860 1.391 . S
C859 C858 1.386 . S
C859 C863 1.393 . S
C860 H849 0.950 . S
C860 C858 1.391 . S
C860 C861 1.400 . S
C861 C855 1.491 . S
C861 C860 1.400 . S
C861 C862 1.398 . S
C862 H850 0.950 . S
C862 C861 1.398 . S
C862 C863 1.391 . S
C863 H851 0.950 . S
C863 C859 1.393 . S
C863 C862 1.391 . S
C233 C9 1.364 . S
C239 C37 1.363 . S
C253 C51 1.344 . S
C259 C23 1.344 . S
C273 C65 1.344 . S
C279 C93 1.344 . S
C293 C107 1.344 . S
C299 C79 1.344 . S
C313 C121 1.344 . S
C319 C149 1.344 . S
C333 C163 1.358 . S
C339 C135 1.358 . S
C353 C177 1.350 . S
C359 C205 1.349 . S
C373 C219 1.344 . S
C379 C191 1.344 . S
C393 C59 1.284 . S
C399 C3 1.293 . S
C413 C17 1.285 . S
C419 C73 1.274 . S
C433 C31 1.276 . S
C439 C87 1.287 . S
C453 C101 1.270 . S
C459 C45 1.263 . S
C473 C115 1.296 . S
C479 C171 1.298 . S
C493 C129 1.284 . S
C499 C185 1.273 . S
C513 C143 1.261 . S
C519 C199 1.265 . S
C533 C157 1.298 . S
C539 C213 1.295 . S
C553 C147 1.249 . S
C559 C7 1.241 . S
C573 C161 1.255 . S
C579 C21 1.236 . S
C593 C35 1.255 . S
C599 C119 1.235 . S
C613 C49 1.237 . S
C619 C133 1.254 . S
C633 C63 1.250 . S
C639 C203 1.241 . S
C653 C77 1.254 . S
C659 C217 1.237 . S
C673 C91 1.238 . S
C679 C175 1.252 . S
C693 C189 1.244 . S
C699 C105 1.247 . S
C713 C8 1.383 . S
C719 C218 1.386 . S
C733 C176 1.383 . S
C739 C22 1.386 . S
C753 C36 1.385 . S
C759 C190 1.383 . S
C773 C204 1.384 . S
C779 C50 1.385 . S
C793 C134 1.383 . S
C799 C64 1.386 . S
C813 C78 1.384 . S
C819 C148 1.385 . S
C833 C162 1.386 . S
C839 C92 1.383 . S
C853 C120 1.383 . S
C859 C106 1.386 . S
