# Generated by pormake.
# Topology sxg, (6)-cn, num edge types: 1
# Building blocks:
#     Node 0, Type 0, BuildingBlock: PAMTUU_clean_sbu_0, # of connection points: 6
#     Node 1, Type 0, BuildingBlock: PAMTUU_clean_sbu_0, # of connection points: 6
#     Node 2, Type 0, BuildingBlock: PAMTUU_clean_sbu_0, # of connection points: 6
#     Node 3, Type 0, BuildingBlock: PAMTUU_clean_sbu_0, # of connection points: 6
#     Node 4, Type 0, BuildingBlock: PAMTUU_clean_sbu_0, # of connection points: 6
#     Node 5, Type 0, BuildingBlock: PAMTUU_clean_sbu_0, # of connection points: 6
#     Node 6, Type 0, BuildingBlock: PAMTUU_clean_sbu_0, # of connection points: 6
#     Node 7, Type 0, BuildingBlock: PAMTUU_clean_sbu_0, # of connection points: 6
#     Node 8, Type 0, BuildingBlock: PAMTUU_clean_sbu_0, # of connection points: 6
#     Node 9, Type 0, BuildingBlock: PAMTUU_clean_sbu_0, # of connection points: 6
#     Node 10, Type 0, BuildingBlock: PAMTUU_clean_sbu_0, # of connection points: 6
#     Node 11, Type 0, BuildingBlock: PAMTUU_clean_sbu_0, # of connection points: 6
#     Node 12, Type 0, BuildingBlock: PAMTUU_clean_sbu_0, # of connection points: 6
#     Node 13, Type 0, BuildingBlock: PAMTUU_clean_sbu_0, # of connection points: 6
#     Node 14, Type 0, BuildingBlock: PAMTUU_clean_sbu_0, # of connection points: 6
#     Node 15, Type 0, BuildingBlock: PAMTUU_clean_sbu_0, # of connection points: 6
#     Node 16, Type 0, BuildingBlock: PAMTUU_clean_sbu_0, # of connection points: 6
#     Node 17, Type 0, BuildingBlock: PAMTUU_clean_sbu_0, # of connection points: 6
#     Node 18, Type 0, BuildingBlock: PAMTUU_clean_sbu_0, # of connection points: 6
#     Node 19, Type 0, BuildingBlock: PAMTUU_clean_sbu_0, # of connection points: 6
#     Node 20, Type 0, BuildingBlock: PAMTUU_clean_sbu_0, # of connection points: 6
#     Node 21, Type 0, BuildingBlock: PAMTUU_clean_sbu_0, # of connection points: 6
#     Node 22, Type 0, BuildingBlock: PAMTUU_clean_sbu_0, # of connection points: 6
#     Node 23, Type 0, BuildingBlock: PAMTUU_clean_sbu_0, # of connection points: 6
#     Edge 24, Type (0, 0), None
#     Edge 25, Type (0, 0), None
#     Edge 26, Type (0, 0), None
#     Edge 27, Type (0, 0), None
#     Edge 28, Type (0, 0), None
#     Edge 29, Type (0, 0), None
#     Edge 30, Type (0, 0), None
#     Edge 31, Type (0, 0), None
#     Edge 32, Type (0, 0), None
#     Edge 33, Type (0, 0), None
#     Edge 34, Type (0, 0), None
#     Edge 35, Type (0, 0), None
#     Edge 36, Type (0, 0), None
#     Edge 37, Type (0, 0), None
#     Edge 38, Type (0, 0), None
#     Edge 39, Type (0, 0), None
#     Edge 40, Type (0, 0), None
#     Edge 41, Type (0, 0), None
#     Edge 42, Type (0, 0), None
#     Edge 43, Type (0, 0), None
#     Edge 44, Type (0, 0), None
#     Edge 45, Type (0, 0), None
#     Edge 46, Type (0, 0), None
#     Edge 47, Type (0, 0), None
#     Edge 48, Type (0, 0), None
#     Edge 49, Type (0, 0), None
#     Edge 50, Type (0, 0), None
#     Edge 51, Type (0, 0), None
#     Edge 52, Type (0, 0), None
#     Edge 53, Type (0, 0), None
#     Edge 54, Type (0, 0), None
#     Edge 55, Type (0, 0), None
#     Edge 56, Type (0, 0), None
#     Edge 57, Type (0, 0), None
#     Edge 58, Type (0, 0), None
#     Edge 59, Type (0, 0), None
#     Edge 60, Type (0, 0), None
#     Edge 61, Type (0, 0), None
#     Edge 62, Type (0, 0), None
#     Edge 63, Type (0, 0), None
#     Edge 64, Type (0, 0), None
#     Edge 65, Type (0, 0), None
#     Edge 66, Type (0, 0), None
#     Edge 67, Type (0, 0), None
#     Edge 68, Type (0, 0), None
#     Edge 69, Type (0, 0), None
#     Edge 70, Type (0, 0), None
#     Edge 71, Type (0, 0), None
#     Edge 72, Type (0, 0), None
#     Edge 73, Type (0, 0), None
#     Edge 74, Type (0, 0), None
#     Edge 75, Type (0, 0), None
#     Edge 76, Type (0, 0), None
#     Edge 77, Type (0, 0), None
#     Edge 78, Type (0, 0), None
#     Edge 79, Type (0, 0), None
#     Edge 80, Type (0, 0), None
#     Edge 81, Type (0, 0), None
#     Edge 82, Type (0, 0), None
#     Edge 83, Type (0, 0), None
#     Edge 84, Type (0, 0), None
#     Edge 85, Type (0, 0), None
#     Edge 86, Type (0, 0), None
#     Edge 87, Type (0, 0), None
#     Edge 88, Type (0, 0), None
#     Edge 89, Type (0, 0), None
#     Edge 90, Type (0, 0), None
#     Edge 91, Type (0, 0), None
#     Edge 92, Type (0, 0), None
#     Edge 93, Type (0, 0), None
#     Edge 94, Type (0, 0), None
#     Edge 95, Type (0, 0), None
# Relax obj value: 0.402
# Max RMSD: 0.322
# Mean RMSD: 0.256
data_MOF--net-sxg--node1-PAMTUU_clean_sbu_0--edge1-none
_symmetry_space_group_name_H-M    P1
_symmetry_Int_Tables_number       1
_symmetry_cell_setting            triclinic
loop_
_symmetry_equiv_pos_as_xyz
'x, y, z'
_cell_length_a     25.928923
_cell_length_b     30.660227
_cell_length_c     24.445602
_cell_angle_alpha  85.919895
_cell_angle_beta   105.66944
_cell_angle_gamma 84.601252
loop_
_atom_site_label
_atom_site_type_symbol
_atom_site_fract_x
_atom_site_fract_y
_atom_site_fract_z
_atom_type_partial_charge
Tb0 Tb 1.06175 0.27876 0.28884 0.0
Tb1 Tb 1.02884 0.36499 0.2724 0.0
C2 C 1.00798 0.3257 0.16068 0.0
C3 C 0.14276 0.17985 0.3329 0.0
C4 C 0.23849 0.15077 0.4212 0.0
C5 C 0.19498 0.12532 0.41014 0.0
C6 C 0.14818 0.13923 0.36514 0.0
C7 C 0.18528 0.20604 0.34648 0.0
C8 C 0.23221 0.19193 0.3899 0.0
C9 C 0.09088 0.19879 0.29151 0.0
O10 O 0.13578 0.3059 0.27688 0.0
O11 O 0.09713 0.37457 0.24093 0.0
O12 O 0.08469 0.36152 0.35628 0.0
O13 O 0.11505 0.28856 0.36815 0.0
O14 O 0.95426 0.40013 0.23234 0.0
O15 O 1.02657 0.43359 0.2576 0.0
O16 O 1.00243 0.35704 0.35017 0.0
O17 O 1.00962 0.28351 0.35013 0.0
O18 O 0.99912 0.31294 0.2106 0.0
O19 O 1.00215 0.31516 0.21158 0.0
C20 C 0.1393 0.34524 0.25332 0.0
O21 O 0.09442 0.22735 0.25075 0.0
O22 O 1.05378 0.21323 0.31478 0.0
C23 C 0.11354 0.32648 0.38754 0.0
C24 C 0.95349 0.45675 0.29171 0.0
C25 C 0.89798 0.50113 0.35733 0.0
C26 C 0.93852 0.52058 0.33998 0.0
C27 C 0.96577 0.49862 0.30618 0.0
C28 C 0.91988 0.43472 0.31818 0.0
C29 C 0.89287 0.45674 0.35162 0.0
C30 C 0.97424 0.43636 0.24836 0.0
C31 C 0.99623 0.31925 0.37369 0.0
H32 H 0.1985 0.09335 0.43355 0.0
H33 H 0.11655 0.11811 0.35487 0.0
H34 H 0.18308 0.23745 0.32301 0.0
H35 H 0.26458 0.21262 0.39716 0.0
H36 H 0.94349 0.55479 0.34534 0.0
H37 H 0.99296 0.51552 0.28782 0.0
H38 H 0.9106 0.4018 0.30946 0.0
H39 H 0.86155 0.44133 0.36477 0.0
Tb40 Tb 0.45021 0.76129 0.92125 0.0
Tb41 Tb 0.48878 0.70053 0.83152 0.0
C42 C 0.48993 0.79852 0.81939 0.0
C43 C 0.40667 0.86967 0.96895 0.0
C44 C 0.37279 0.9632 0.95026 0.0
C45 C 0.35652 0.93519 0.90665 0.0
C46 C 0.37319 0.88935 0.91576 0.0
C47 C 0.42351 0.89756 1.01218 0.0
C48 C 0.40686 0.94343 1.00312 0.0
C49 C 0.42467 0.82071 0.98024 0.0
O50 O 0.38604 0.77761 0.84262 0.0
O51 O 0.40006 0.7161 0.7967 0.0
O52 O 0.46218 0.65155 0.87948 0.0
O53 O 0.43063 0.69265 0.94254 0.0
O54 O 0.50543 0.69226 0.75309 0.0
O55 O 0.53343 0.64155 0.82361 0.0
O56 O 0.55956 0.71672 0.89549 0.0
O57 O 0.52196 0.7178 0.96887 0.0
O58 O 0.49865 0.79624 0.87501 0.0
O59 O 0.47116 0.76627 0.79195 0.0
C60 C 0.36988 0.75256 0.80186 0.0
O61 O 0.47409 0.8078 0.98025 0.0
O62 O 0.39162 0.79403 0.9545 0.0
C63 C 0.44191 0.65417 0.92243 0.0
C64 C 0.59761 0.66219 0.77809 0.0
C65 C 0.70515 0.67011 0.77843 0.0
C66 C 0.69226 0.63141 0.80334 0.0
C67 C 0.63873 0.6275 0.80331 0.0
C68 C 0.61205 0.7022 0.75873 0.0
C69 C 0.66529 0.706 0.75964 0.0
C70 C 0.54071 0.65816 0.77619 0.0
C71 C 0.5649 0.71093 0.95034 0.0
H72 H 0.33022 0.94858 0.86526 0.0
H73 H 0.35957 0.86927 0.88114 0.0
H74 H 0.44948 0.88373 1.05354 0.0
H75 H 0.42029 0.96332 1.03795 0.0
H76 H 0.72214 0.60277 0.81726 0.0
H77 H 0.62911 0.59677 0.82063 0.0
H78 H 0.58197 0.73014 0.74066 0.0
H79 H 0.67471 0.73538 0.73981 0.0
Tb80 Tb 0.69339 0.22583 0.80354 0.0
Tb81 Tb 0.663 0.17602 0.88267 0.0
C82 C 0.63636 0.27182 0.88545 0.0
C83 C 0.74753 0.31916 0.73873 0.0
C84 C 0.72211 0.40611 0.68835 0.0
C85 C 0.71525 0.39506 0.74282 0.0
C86 C 0.7274 0.35157 0.76769 0.0
C87 C 0.75993 0.33081 0.68803 0.0
C88 C 0.74644 0.37367 0.66243 0.0
C89 C 0.73811 0.2738 0.74763 0.0
O90 O 0.74318 0.20469 0.89269 0.0
O91 O 0.74669 0.2008 0.89647 0.0
O92 O 0.6986 0.12391 0.84411 0.0
O93 O 0.70471 0.16485 0.76622 0.0
O94 O 0.64247 0.16385 0.96012 0.0
O95 O 0.64151 0.11364 0.90279 0.0
O96 O 0.58674 0.19793 0.81872 0.0
O97 O 0.62612 0.20056 0.74847 0.0
O98 O 0.63954 0.27407 0.83244 0.0
O99 O 0.65327 0.23561 0.91875 0.0
C100 C 0.75966 0.24084 0.91213 0.0
O101 O 0.76497 0.25003 0.79497 0.0
O102 O 0.68709 0.26874 0.73261 0.0
C103 C 0.70454 0.12655 0.79258 0.0
C104 C 0.56166 0.12773 0.93187 0.0
C105 C 0.44698 0.12895 0.90625 0.0
C106 C 0.47786 0.09814 0.88439 0.0
C107 C 0.53424 0.09751 0.89702 0.0
C108 C 0.53033 0.15975 0.95151 0.0
C109 C 0.474 0.16041 0.93873 0.0
C110 C 0.62154 0.1284 0.94235 0.0
C111 C 0.58314 0.19701 0.76494 0.0
H112 H 0.6988 0.41944 0.76541 0.0
H113 H 0.71708 0.34271 0.80682 0.0
H114 H 0.77438 0.30576 0.66477 0.0
H115 H 0.75169 0.38023 0.62034 0.0
H116 H 0.4587 0.07361 0.85879 0.0
H117 H 0.55644 0.07311 0.87947 0.0
H118 H 0.54927 0.18458 0.9767 0.0
H119 H 0.45177 0.18565 0.95468 0.0
Tb120 Tb 1.065 0.79901 0.37591 0.0
Tb121 Tb 0.10686 0.89262 0.40293 0.0
C122 C 0.13946 0.8127 0.50315 0.0
C123 C 0.98769 0.7003 0.32485 0.0
C124 C 0.90183 0.64736 0.29064 0.0
C125 C 0.94998 0.63887 0.2751 0.0
C126 C 0.99228 0.66492 0.29214 0.0
C127 C 0.93975 0.70922 0.3403 0.0
C128 C 0.89743 0.68312 0.32344 0.0
C129 C 1.03398 0.72645 0.34229 0.0
O130 O 1.01716 0.82064 0.42874 0.0
O131 O 1.04628 0.88838 0.45034 0.0
O132 O 1.02606 0.91735 0.35358 0.0
O133 O 0.99494 0.85103 0.32999 0.0
O134 O 0.1699 0.92375 0.45111 0.0
O135 O 0.10601 0.96003 0.3825 0.0
O136 O 0.13731 0.87496 0.33104 0.0
O137 O 0.13603 0.80143 0.34301 0.0
O138 O 0.11693 0.78489 0.46676 0.0
O139 O 0.14181 0.85375 0.48546 0.0
C140 C 1.01587 0.85656 0.45434 0.0
O141 O 1.03524 0.76085 0.3083 0.0
O142 O 1.05101 0.73375 0.39573 0.0
C143 C 0.98725 0.89507 0.32873 0.0
C144 C 0.19391 0.97587 0.38973 0.0
C145 C 0.27921 1.01387 0.36596 0.0
C146 C 0.22782 1.03764 0.34942 0.0
C147 C 0.18528 1.01897 0.36306 0.0
C148 C 0.24181 0.94919 0.39239 0.0
C149 C 0.28406 0.96807 0.37886 0.0
C150 C 0.15422 0.95982 0.41649 0.0
C151 C 0.15148 0.83574 0.31915 0.0
H152 H 0.95564 0.61142 0.25095 0.0
H153 H 1.0291 0.6571 0.28012 0.0
H154 H 0.93513 0.73611 0.3657 0.0
H155 H 0.86134 0.69083 0.3368 0.0
H156 H 0.22279 0.07245 0.33549 0.0
H157 H 0.14731 1.03919 0.35702 0.0
H158 H 0.24854 0.91497 0.40975 0.0
H159 H 0.3233 0.94871 0.3895 0.0
Tb160 Tb 0.39952 0.10938 0.4223 0.0
Tb161 Tb 0.37411 0.05001 0.52896 0.0
C162 C 0.32232 1.03611 0.39963 0.0
C163 C 0.45256 0.17796 0.31894 0.0
C164 C 0.48414 0.24907 0.26455 0.0
C165 C 0.47507 0.25207 0.31845 0.0
C166 C 0.45989 0.21635 0.34601 0.0
C167 C 0.46487 0.17368 0.26723 0.0
C168 C 0.48119 0.20899 0.24025 0.0
C169 C 0.43087 0.14189 0.34233 0.0
O170 O 0.33392 0.14797 0.44187 0.0
O171 O 0.29949 0.09201 0.48351 0.0
O172 O 0.40417 0.11048 0.56477 0.0
O173 O 0.43902 0.14213 0.49577 0.0
O174 O 0.31709 1.02466 0.56548 0.0
O175 O 0.40219 1.00653 0.60491 0.0
O176 O 0.4382 1.00898 0.50741 0.0
O177 O 0.43366 1.04364 0.42008 0.0
O178 O 0.33178 0.07506 0.38138 0.0
O179 O 0.3421 1.01891 0.45278 0.0
C180 C 0.29332 0.13107 0.45459 0.0
O181 O 0.46312 0.11917 0.38795 0.0
O182 O 0.38076 0.14838 0.34416 0.0
C183 C 0.4281 0.14224 0.54518 0.0
C184 C 0.34413 0.94979 0.60619 0.0
C185 C 0.31338 0.86361 0.62423 0.0
C186 C 0.35321 0.88064 0.66579 0.0
C187 C 0.36926 0.92242 0.65663 0.0
C188 C 0.30615 0.93229 0.5628 0.0
C189 C 0.29119 0.88973 0.5717 0.0
C190 C 0.35349 0.9974 0.60279 0.0
C191 C 0.44707 1.00921 0.45698 0.0
H192 H 0.47634 0.28284 0.33765 0.0
H193 H 0.45131 0.21939 0.38667 0.0
H194 H 0.45956 0.14365 0.24651 0.0
H195 H 0.48708 0.20589 0.19841 0.0
H196 H 0.36669 0.86403 0.70867 0.0
H197 H 0.398 0.93484 0.69121 0.0
H198 H 0.28537 0.95251 0.52343 0.0
H199 H 0.25782 0.8794 0.54001 0.0
Tb200 Tb 0.27719 0.09387 0.86284 0.0
Tb201 Tb 0.32786 0.10545 0.98959 0.0
C202 C 0.38855 0.12524 0.9008 0.0
C203 C 0.16565 0.09002 0.74196 0.0
C204 C 1.08108 1.03877 0.73234 0.0
C205 C 0.10467 1.04456 0.68723 0.0
C206 C 0.14697 0.07013 0.69205 0.0
C207 C 0.13622 0.0905 0.78238 0.0
C208 C 0.09406 0.06488 0.77753 0.0
C209 C 0.22232 0.09675 0.76066 0.0
O210 O 0.31659 1.02686 0.89175 0.0
O211 O 0.36484 1.03784 0.9829 0.0
O212 O 0.28316 0.05206 0.99804 0.0
O213 O 0.22295 0.06698 0.90903 0.0
O214 O 0.39777 0.11252 1.05421 0.0
O215 O 0.31845 0.12534 1.06696 0.0
O216 O 0.24857 0.14681 0.96358 0.0
O217 O 0.25713 0.16317 0.8772 0.0
O218 O 0.36211 0.09797 0.86847 0.0
O219 O 0.36514 0.14403 0.9355 0.0
C220 C 0.35172 1.01187 0.94096 0.0
O221 O 0.23223 0.13126 0.78764 0.0
O222 O 0.25386 0.06204 0.78816 0.0
C223 C 0.23825 1.04635 0.96101 0.0
C224 C 0.37547 0.17922 1.08864 0.0
C225 C 0.37651 0.27057 1.09049 0.0
C226 C 0.3622 0.24526 0.13359 0.0
C227 C 0.36186 0.19988 0.13267 0.0
C228 C 0.38696 0.20481 1.04434 0.0
C229 C 0.38755 0.24997 1.04509 0.0
C230 C 0.36872 0.13275 1.08303 0.0
C231 C 0.23365 0.17351 0.91648 0.0
H232 H 0.09785 1.02296 0.65361 0.0
H233 H 0.16995 0.0688 0.66113 0.0
H234 H 0.15065 0.10533 0.82163 0.0
H235 H 1.07871 0.05901 0.81398 0.0
H236 H 0.35345 0.26005 0.16951 0.0
H237 H 0.351 0.18099 0.1662 0.0
H238 H 0.39574 0.18998 1.00905 0.0
H239 H 0.39854 0.26835 1.01124 0.0
Tb240 Tb 0.85463 0.63596 0.72391 0.0
Tb241 Tb 0.74888 0.61881 0.64314 0.0
C242 C 0.84979 0.57291 0.62979 0.0
C243 C 0.96872 0.69052 0.7569 0.0
C244 C 1.0184 0.76314 0.78319 0.0
C245 C 1.04134 0.73213 0.75447 0.0
C246 C 1.01735 0.69401 0.7439 0.0
C247 C 0.93891 0.7277 0.76842 0.0
C248 C 0.96382 0.76515 0.78038 0.0
C249 C 0.94927 0.64857 0.75913 0.0
O250 O 0.82655 0.70213 0.68055 0.0
O251 O 0.75409 0.68643 0.61034 0.0
O252 O 0.72739 0.66845 0.69287 0.0
O253 O 0.79728 0.65172 0.77311 0.0
O254 O 0.69949 0.60071 0.56649 0.0
O255 O 0.67054 0.60536 0.64117 0.0
O256 O 0.77733 0.5617 0.71041 0.0
O257 O 0.83935 0.58824 0.78168 0.0
O258 O 0.86593 0.57631 0.68413 0.0
O259 O 0.80729 0.59808 0.59946 0.0
C260 C 0.78697 0.71461 0.63451 0.0
O261 O 0.91881 0.64362 0.79356 0.0
O262 O 0.92961 0.63603 0.7085 0.0
C263 C 0.74659 0.66655 0.74805 0.0
C264 C 0.67008 0.53745 0.60464 0.0
C265 C 0.7024 0.45054 0.65744 0.0
C266 C 0.65814 0.4759 0.6668 0.0
C267 C 0.64365 0.51927 0.64246 0.0
C268 C 0.71166 0.5108 0.5919 0.0
C269 C 0.72846 0.4684 0.619 0.0
C270 C 0.6676 0.58578 0.59496 0.0
C271 C 0.80823 0.55849 0.76376 0.0
H272 H 0.08295 0.73195 0.75384 0.0
H273 H 1.03888 0.66618 0.73128 0.0
H274 H 0.89926 0.72617 0.77465 0.0
H275 H 0.94491 0.7903 0.8001 0.0
H276 H 0.63609 0.46321 0.69502 0.0
H277 H 0.61479 0.53957 0.65718 0.0
H278 H 0.73483 0.52388 0.56508 0.0
H279 H 0.76384 0.45079 0.61186 0.0
Tb280 Tb 0.75717 0.58572 0.32492 0.0
Tb281 Tb 0.8072 0.53451 0.21397 0.0
C282 C 0.84756 0.52827 0.34874 0.0
C283 C 0.70063 0.66936 0.41103 0.0
C284 C 0.6916 0.74691 0.46734 0.0
C285 C 0.66164 0.71207 0.4744 0.0
C286 C 0.66617 0.6738 0.44654 0.0
C287 C 0.72923 0.70461 0.40234 0.0
C288 C 0.7246 0.74286 0.42989 0.0
C289 C 0.71113 0.62589 0.39001 0.0
O290 O 0.82174 0.62222 0.30703 0.0
O291 O 0.86053 0.58632 0.24158 0.0
O292 O 0.74367 0.58389 0.16762 0.0
O293 O 0.73496 0.62684 0.24125 0.0
O294 O 0.86765 0.48896 0.2026 0.0
O295 O 0.79799 0.51472 0.13162 0.0
O296 O 0.76666 0.48373 0.24653 0.0
O297 O 0.72569 0.51973 0.30904 0.0
O298 O 0.83007 0.54838 0.38542 0.0
O299 O 0.81379 0.53795 0.29941 0.0
C300 C 0.85825 0.61735 0.27757 0.0
O301 O 0.68656 0.61953 0.33746 0.0
O302 O 0.76118 0.60816 0.40481 0.0
C303 C 0.73035 0.62118 0.1865 0.0
C304 C 0.83245 0.43941 0.13238 0.0
C305 C 0.83195 0.35425 1.09157 0.0
C306 C 0.81128 0.39328 1.0544 0.0
C307 C 0.81383 0.43489 1.07411 0.0
C308 C 0.84465 0.40067 0.17071 0.0
C309 C 0.84694 0.35845 0.1506 0.0
C310 C 0.84006 0.48471 0.15018 0.0
C311 C 0.73784 0.48401 0.28346 0.0
H312 H 0.63668 0.7134 0.50347 0.0
H313 H 0.6443 0.64676 0.45466 0.0
H314 H 0.75668 0.70196 0.37594 0.0
H315 H 0.74868 0.76872 0.42334 0.0
H316 H 0.7957 0.39221 1.00883 0.0
H317 H 0.80202 0.46377 1.04326 0.0
H318 H 0.85444 0.403 0.21612 0.0
H319 H 0.86097 0.32946 0.18095 0.0
Tb320 Tb 0.42082 0.38376 0.18955 0.0
Tb321 Tb 0.50296 0.33706 0.11731 0.0
C322 C 0.38965 0.31563 1.09911 0.0
C323 C 0.28871 0.3898 0.23002 0.0
C324 C 0.19113 0.3588 0.24386 0.0
C325 C 0.19185 0.40219 0.2208 0.0
C326 C 0.2395 0.41725 0.21407 0.0
C327 C 0.28844 0.34587 0.252 0.0
C328 C 0.24027 0.33063 0.25901 0.0
C329 C 0.33828 0.40859 0.22203 0.0
O330 O 0.46281 0.32561 0.24308 0.0
O331 O 0.49677 0.28597 0.18049 0.0
O332 O 0.55319 0.36041 0.19132 0.0
O333 O 0.50068 0.39759 0.24106 0.0
O334 O 0.52674 0.28659 1.07239 0.0
O335 O 0.57514 0.34007 1.09571 0.0
O336 O 0.4714 0.39884 1.06703 0.0
O337 O 0.43226 0.43556 0.1282 0.0
O338 O 0.38927 0.3283 0.14865 0.0
O339 O 0.42062 0.33254 1.07123 0.0
C340 C 0.48482 0.28927 0.22919 0.0
O341 O 0.3856 0.39425 0.2571 0.0
O342 O 0.34105 0.41481 0.16959 0.0
C343 C 0.54796 0.38223 0.23386 0.0
C344 C 0.57637 0.31174 1.0096 0.0
C345 C 0.60673 0.30489 0.90865 0.0
C346 C 0.63838 0.32523 0.95336 0.0
C347 C 0.62369 0.32803 1.00395 0.0
C348 C 0.54078 0.29759 0.96186 0.0
C349 C 0.55556 0.29495 0.91124 0.0
C350 C 0.56806 0.30605 1.06663 0.0
C351 C 0.44864 0.43437 1.08143 0.0
H352 H 0.15536 0.42517 0.20829 0.0
H353 H 0.23786 0.45097 0.19648 0.0
H354 H 0.32538 0.32342 0.264 0.0
H355 H 0.24164 0.297 0.27673 0.0
H356 H 0.67849 0.33224 0.95292 0.0
H357 H 0.6516 0.33941 1.04019 0.0
H358 H 0.50378 0.28518 0.96489 0.0
H359 H 0.53106 0.27814 0.87787 0.0
Tb360 Tb 0.92069 0.23354 1.04276 0.0
Tb361 Tb 0.89439 0.32781 0.97529 0.0
C362 C 0.97934 0.26581 0.94719 0.0
C363 C 0.96226 0.13559 0.15109 0.0
C364 C 0.95803 0.0805 0.24544 0.0
C365 C 0.98923 0.06604 0.21004 0.0
C366 C 0.99114 0.09351 0.16278 0.0
C367 C 0.93771 0.15236 0.19101 0.0
C368 C 0.93582 0.12484 0.23824 0.0
C369 C 0.94944 0.15738 1.09315 0.0
O370 O 0.97024 0.26789 1.10779 0.0
O371 O 0.95059 0.33793 1.06061 0.0
O372 O 0.82954 0.31631 1.01048 0.0
O373 O 0.8803 0.27993 1.09113 0.0
O374 O 0.87654 0.36228 0.89486 0.0
O375 O 0.87588 0.39712 0.97052 0.0
O376 O 0.83528 0.28503 0.92684 0.0
O377 O 0.84074 0.22541 0.99092 0.0
O378 O 0.95646 0.23395 0.96795 0.0
O379 O 0.96917 0.30563 0.95891 0.0
C380 C 0.97553 0.3099 1.10666 0.0
O381 O 0.89919 0.17404 1.07095 0.0
O382 O 0.98336 0.18322 1.08215 0.0
C383 C 0.84172 0.31211 1.06542 0.0
C384 C 0.84997 0.44037 0.87691 0.0
C385 C 0.8165 0.51809 0.80265 0.0
C386 C 0.83961 0.51974 0.86157 0.0
C387 C 0.85613 0.48118 0.89844 0.0
C388 C 0.82635 0.4386 0.81831 0.0
C389 C 0.80945 0.47724 0.78142 0.0
C390 C 0.86725 0.39956 0.91511 0.0
C391 C 0.81636 0.24846 0.94244 0.0
H392 H 1.00547 1.03171 0.21398 0.0
H393 H 1.01029 0.08024 0.13224 0.0
H394 H 0.91525 0.18493 0.18256 0.0
H395 H 0.91037 0.13634 0.26417 0.0
H396 H 0.84625 0.5509 0.87905 0.0
H397 H 0.87456 0.48328 0.94344 0.0
H398 H 0.82182 0.40726 0.80087 0.0
H399 H 0.79356 0.47508 0.73617 0.0
Tb400 Tb 0.75568 0.85959 0.55853 0.0
Tb401 Tb 0.66913 0.83136 0.6129 0.0
C402 C 0.76541 0.762 0.62276 0.0
C403 C 0.8821 0.87948 0.52095 0.0
C404 C 0.9724 0.8626 0.4815 0.0
C405 C 0.97358 0.89167 0.52331 0.0
C406 C 0.92805 0.90051 0.54253 0.0
C407 C 0.88247 0.84799 0.48252 0.0
C408 C 0.92711 0.83986 0.4626 0.0
C409 C 0.83308 0.89263 0.53616 0.0
O410 O 0.73624 0.80712 0.50615 0.0
O411 O 0.66273 0.79123 0.53756 0.0
O412 O 0.63078 0.88868 0.55715 0.0
O413 O 0.67876 0.87885 0.49315 0.0
O414 O 0.65801 0.80468 0.68764 0.0
O415 O 0.58874 0.82804 0.61506 0.0
O416 O 0.71707 0.87578 0.66867 0.0
O417 O 0.72774 0.91681 0.59484 0.0
O418 O 0.79204 0.79493 0.6112 0.0
O419 O 0.71532 0.76922 0.62196 0.0
C420 C 0.69515 0.78459 0.50366 0.0
O421 O 0.78784 0.88899 0.49787 0.0
O422 O 0.83283 0.87899 0.58796 0.0
C423 C 0.63371 0.89224 0.50489 0.0
C424 C 0.57798 0.82853 0.70947 0.0
C425 C 0.51815 0.82594 0.7888 0.0
C426 C 0.49259 0.83835 0.73072 0.0
C427 C 0.52215 0.83962 0.69115 0.0
C428 C 0.60435 0.82253 0.76851 0.0
C429 C 0.57437 0.82144 0.80806 0.0
C430 C 0.60561 0.81187 0.66881 0.0
C431 C 0.72504 0.91421 0.64695 0.0
H432 H 1.00832 0.90903 0.53884 0.0
H433 H 0.92799 0.92483 0.5726 0.0
H434 H 0.84758 0.83092 0.46618 0.0
H435 H 0.925 0.81692 0.43054 0.0
H436 H 0.44974 0.83896 0.71468 0.0
H437 H 0.50069 0.84357 0.64608 0.0
H438 H 0.64751 0.81328 0.78395 0.0
H439 H 0.59462 0.80988 0.85222 0.0
Tb440 Tb 0.21946 0.75046 0.68147 0.0
Tb441 Tb 0.19676 0.82051 0.69984 0.0
C442 C 0.19897 0.77721 0.80635 0.0
C443 C 0.24684 0.63204 0.66141 0.0
C444 C 0.29226 0.55937 0.61963 0.0
C445 C 0.31359 0.56798 0.67636 0.0
C446 C 0.2909 0.60402 0.69714 0.0
C447 C 0.22618 0.62384 0.60438 0.0
C448 C 0.2487 0.58785 0.5837 0.0
C449 C 0.22154 0.66837 0.6848 0.0
O450 O 0.17655 0.75971 0.59012 0.0
O451 O 0.16691 0.83029 0.60356 0.0
O452 O 0.25134 0.85685 0.67579 0.0
O453 O 0.27153 0.79319 0.64032 0.0
O454 O 0.11631 0.84519 0.68983 0.0
O455 O 0.18524 0.87477 0.74374 0.0
O456 O 0.28037 0.79914 0.76355 0.0
O457 O 0.30313 0.74278 0.71771 0.0
O458 O 0.17797 0.76643 0.75249 0.0
O459 O 0.17998 0.76745 0.75391 0.0
C460 C 0.16097 0.79995 0.56741 0.0
O461 O 0.25431 0.68831 0.72256 0.0
O462 O 0.18365 0.69585 0.64901 0.0
C463 C 0.27831 0.83585 0.64688 0.0
C464 C 0.09542 0.90695 0.73863 0.0
C465 C 1.06569 0.99487 0.74368 0.0
C466 C 0.09979 0.96919 0.79222 0.0
C467 C 0.11382 0.92497 0.78996 0.0
C468 C 1.05246 0.92943 0.6949 0.0
C469 C 1.03672 0.97372 0.69801 0.0
C470 C 0.13284 0.87498 0.72418 0.0
C471 C 0.31669 0.76621 0.75955 0.0
H472 H 0.34762 0.54694 0.70466 0.0
H473 H 0.30757 0.6098 0.74132 0.0
H474 H 0.19234 0.6449 0.57577 0.0
H475 H 0.23175 0.58237 0.53946 0.0
H476 H 0.12276 0.9841 0.8285 0.0
H477 H 0.1465 0.90745 0.82422 0.0
H478 H 1.03746 0.9154 0.65498 0.0
H479 H 1.00967 0.99283 0.66063 0.0
Tb480 Tb 0.13664 0.73002 0.95373 0.0
Tb481 Tb 0.10368 0.81625 0.93746 0.0
C482 C 1.05191 0.76861 0.83867 0.0
C483 C 0.21198 0.63825 0.93436 0.0
C484 C 0.26752 0.59382 0.86881 0.0
C485 C 0.22696 0.57439 0.88616 0.0
C486 C 0.19969 0.59638 0.91992 0.0
C487 C 0.24561 0.66026 0.90788 0.0
C488 C 0.27263 0.63821 0.87448 0.0
C489 C 0.19125 0.65865 0.97772 0.0
O490 O 0.16303 0.73805 0.87594 0.0
O491 O 0.15582 0.81157 0.8762 0.0
O492 O 0.16634 0.78202 1.01562 0.0
O493 O 0.16333 0.7798 1.01464 0.0
O494 O 1.07104 0.86762 0.97563 0.0
O495 O 0.11165 0.88179 0.91159 0.0
O496 O 1.02968 0.78909 0.94945 0.0
O497 O 1.06831 0.72036 0.98511 0.0
O498 O 1.08085 0.73357 0.86983 0.0
O499 O 1.05031 0.80648 0.85817 0.0
C500 C 0.16925 0.77588 0.85255 0.0
O501 O 0.21123 0.69488 0.99372 0.0
O502 O 0.13892 0.66142 0.96849 0.0
C503 C 0.15752 0.76922 1.06554 0.0
C504 C 1.02268 0.91516 0.89351 0.0
C505 C 0.927 0.9442 0.80513 0.0
C506 C 0.97049 0.96965 0.8162 0.0
C507 C 1.01727 0.95576 0.86124 0.0
C508 C 0.98016 0.88896 0.87993 0.0
C509 C 0.93325 0.90306 0.83647 0.0
C510 C 1.07456 0.89622 0.93489 0.0
C511 C 1.02616 0.74971 0.97286 0.0
H512 H 0.22199 0.54017 0.88083 0.0
H513 H 0.1725 0.57949 0.93829 0.0
H514 H 0.25488 0.69318 0.91659 0.0
H515 H 0.30397 0.65361 0.86134 0.0
H516 H 0.96699 1.00161 0.79277 0.0
H517 H 1.04891 0.97688 0.8715 0.0
H518 H 0.98234 0.85757 0.90343 0.0
H519 H 0.90088 0.88236 0.82921 0.0
Tb520 Tb 0.67663 0.39436 0.39481 0.0
Tb521 Tb 0.71519 0.33363 0.30501 0.0
C522 C 0.72349 0.44075 0.30387 0.0
C523 C 0.56767 0.43275 0.44802 0.0
C524 C 0.45993 0.42513 0.4471 0.0
C525 C 0.47335 0.46418 0.42362 0.0
C526 C 0.52697 0.46795 0.42394 0.0
C527 C 0.55269 0.39248 0.46581 0.0
C528 C 0.49932 0.38881 0.46458 0.0
C529 C 0.62468 0.43663 0.45024 0.0
O530 O 0.60585 0.37823 0.33078 0.0
O531 O 0.64348 0.37715 0.2574 0.0
O532 O 0.66676 0.29866 0.35126 0.0
O533 O 0.69438 0.32861 0.43432 0.0
O534 O 0.69128 0.28714 0.24599 0.0
O535 O 0.77376 0.3009 0.27171 0.0
O536 O 0.77942 0.31732 0.38359 0.0
O537 O 0.76537 0.37877 0.42962 0.0
O538 O 0.7032 0.44337 0.34682 0.0
O539 O 0.73479 0.40227 0.28377 0.0
C540 C 0.60054 0.38403 0.27593 0.0
O541 O 0.65975 0.40237 0.47319 0.0
O542 O 0.63222 0.45338 0.40302 0.0
C543 C 0.67555 0.29637 0.40689 0.0
C544 C 0.75869 0.22527 0.25723 0.0
C545 C 0.79255 0.13174 0.27591 0.0
C546 C 0.80871 0.15974 0.31957 0.0
C547 C 0.79205 0.20558 0.31046 0.0
C548 C 0.74197 0.19741 0.21394 0.0
C549 C 0.75861 0.15154 0.223 0.0
C550 C 0.74069 0.27424 0.24596 0.0
C551 C 0.79559 0.34235 0.42438 0.0
H552 H 0.44383 0.49311 0.41066 0.0
H553 H 0.537 0.49891 0.40776 0.0
H554 H 0.58245 0.36417 0.48284 0.0
H555 H 0.48943 0.359 0.48299 0.0
H556 H 0.83491 0.14633 0.361 0.0
H557 H 0.80558 0.22564 0.34513 0.0
H558 H 0.71609 0.21126 0.17255 0.0
H559 H 0.74527 0.13167 0.18813 0.0
Tb560 Tb 0.5025 0.9189 0.34354 0.0
Tb561 Tb 0.47208 0.86908 0.4227 0.0
C562 C 0.46094 0.96836 0.43364 0.0
C563 C 0.60382 0.96718 0.2943 0.0
C564 C 0.71848 0.96601 0.31997 0.0
C565 C 0.68756 0.99686 0.34171 0.0
C566 C 0.63118 0.99746 0.32906 0.0
C567 C 0.63518 0.93511 0.27477 0.0
C568 C 0.69151 0.93448 0.28758 0.0
C569 C 0.54394 0.96649 0.28381 0.0
O570 O 0.57876 0.89701 0.4075 0.0
O571 O 0.53937 0.89433 0.47776 0.0
O572 O 0.52595 0.82083 0.39384 0.0
O573 O 0.51226 0.85928 0.30753 0.0
O574 O 0.40053 0.84476 0.43117 0.0
O575 O 0.47832 0.82628 0.49373 0.0
O576 O 0.42232 0.89023 0.33354 0.0
O577 O 0.41881 0.89411 0.32975 0.0
O578 O 0.46698 0.97102 0.38216 0.0
O579 O 0.46066 0.93007 0.45994 0.0
C580 C 0.58235 0.8979 0.46128 0.0
O581 O 0.52304 0.93102 0.26609 0.0
O582 O 0.52394 0.98128 0.32333 0.0
C583 C 0.52917 0.82308 0.34084 0.0
C584 C 0.41809 0.77569 0.48754 0.0
C585 C 0.4437 0.6887 0.5378 0.0
C586 C 0.45045 0.69984 0.4833 0.0
C587 C 0.43821 0.74334 0.45849 0.0
C588 C 0.40585 0.76396 0.53831 0.0
C589 C 0.41943 0.72109 0.56384 0.0
C590 C 0.42734 0.82109 0.47859 0.0
C591 C 0.40586 0.85408 0.31405 0.0
H592 H 0.70669 1.02144 0.36725 0.0
H593 H 0.60896 1.0219 0.34653 0.0
H594 H 0.61628 0.91024 0.24966 0.0
H595 H 0.71378 0.9092 0.27173 0.0
H596 H 0.46686 0.67549 0.46063 0.0
H597 H 0.44842 0.75225 0.41931 0.0
H598 H 0.39142 0.78898 0.56163 0.0
H599 H 0.41428 0.71449 0.60597 0.0
Tb600 Tb 1.0587 0.20223 0.8233 0.0
Tb601 Tb 0.10048 0.29589 0.85024 0.0
C602 C 0.17829 0.19988 0.89751 0.0
C603 C 0.97162 0.11902 0.83655 0.0
C604 C 0.88626 0.0811 0.86028 0.0
C605 C 0.93764 0.05731 0.87689 0.0
C606 C 0.98021 0.07595 0.86328 0.0
C607 C 0.92373 0.14573 0.83381 0.0
C608 C 0.88144 0.1269 0.84733 0.0
C609 C 1.01135 0.13502 0.8098 0.0
O610 O 1.02824 0.21993 0.89517 0.0
O611 O 1.02944 0.29346 0.88312 0.0
O612 O 1.04855 0.30995 0.75939 0.0
O613 O 1.02376 0.24107 0.74072 0.0
O614 O 0.13015 0.33411 0.91782 0.0
O615 O 0.11448 0.36114 0.83038 0.0
O616 O 0.14836 0.27424 0.79745 0.0
O617 O 0.11929 0.20649 0.77589 0.0
O618 O 0.13953 0.17756 0.87263 0.0
O619 O 0.17055 0.24391 0.89625 0.0
C620 C 1.01402 0.25915 0.90703 0.0
O621 O 0.99571 0.17106 0.77512 0.0
O622 O 1.05955 0.13484 0.84382 0.0
C623 C 1.02608 0.28212 0.72301 0.0
C624 C 0.17774 0.39462 0.90127 0.0
C625 C 0.2636 0.44756 0.9355 0.0
C626 C 0.21549 0.45599 0.95112 0.0
C627 C 0.1732 0.42994 0.93408 0.0
C628 C 0.22564 0.38576 0.88572 0.0
C629 C 0.26796 0.41186 0.90259 0.0
C630 C 0.13145 0.36848 0.88381 0.0
C631 C 0.14967 0.23832 0.77188 0.0
H632 H 0.94265 1.02251 0.89087 0.0
H633 H 1.01818 0.05572 0.86942 0.0
H634 H 0.91702 0.17995 0.8164 0.0
H635 H 0.84221 0.14627 0.83663 0.0
H636 H 0.20987 0.48338 0.97536 0.0
H637 H 0.1364 0.43772 0.94618 0.0
H638 H 0.23023 0.35892 0.86023 0.0
H639 H 0.30402 0.40419 0.88915 0.0
Tb640 Tb 0.79141 1.04495 0.69728 0.0
Tb641 Tb 0.76598 0.98555 0.80391 0.0
C642 C 0.73744 0.95275 0.68098 0.0
C643 C 0.82141 0.14517 0.62009 0.0
C644 C 0.85214 0.23135 0.60205 0.0
C645 C 0.81232 0.2143 0.56048 0.0
C646 C 0.79627 0.17253 0.56965 0.0
C647 C 0.85938 0.16267 0.66348 0.0
C648 C 0.87432 0.20524 0.65458 0.0
C649 C 0.81206 0.09756 0.62348 0.0
O650 O 0.72727 0.08595 0.7188 0.0
O651 O 0.73182 0.05129 0.80614 0.0
O652 O 0.83371 1.0199 0.84484 0.0
O653 O 0.82335 0.07606 0.77347 0.0
O654 O 0.70237 0.97574 0.83823 0.0
O655 O 0.78474 0.94654 0.88205 0.0
O656 O 0.83156 0.94696 0.78432 0.0
O657 O 0.86602 1.00294 0.74277 0.0
O658 O 0.76138 0.9845 0.66142 0.0
O659 O 0.7265 0.95284 0.73039 0.0
C660 C 0.71837 0.08571 0.76922 0.0
O661 O 0.84845 0.0703 0.66081 0.0
O662 O 0.76336 0.08842 0.62133 0.0
C663 C 0.84315 0.05886 0.8266 0.0
C664 C 0.71293 0.91697 0.90728 0.0
C665 C 0.68135 0.84588 0.9617 0.0
C666 C 0.69039 0.84287 0.90779 0.0
C667 C 0.70557 0.87857 0.88021 0.0
C668 C 0.70066 0.92125 0.959 0.0
C669 C 0.68433 0.88595 0.986 0.0
C670 C 0.73462 0.95303 0.88386 0.0
C671 C 0.87218 0.96388 0.77167 0.0
H672 H 0.79886 0.23089 0.51759 0.0
H673 H 0.76754 0.16011 0.53507 0.0
H674 H 0.88017 0.14245 0.70285 0.0
H675 H 0.90769 0.21557 0.68626 0.0
H676 H 0.68911 0.81209 0.88861 0.0
H677 H 0.71413 0.87553 0.83955 0.0
H678 H 0.706 0.95128 0.97973 0.0
H679 H 0.67847 0.88906 1.02785 0.0
Tb680 Tb 0.83762 0.98947 0.23669 0.0
Tb681 Tb 0.88825 1.00116 0.36346 0.0
C682 C 0.92724 0.04858 0.26531 0.0
C683 C 0.78999 0.91571 0.13763 0.0
C684 C 0.78897 0.82436 0.13578 0.0
C685 C 0.8033 0.84968 1.09269 0.0
C686 C 0.80362 0.89505 1.09361 0.0
C687 C 0.77848 0.89012 0.18192 0.0
C688 C 0.77789 0.84496 0.18117 0.0
C689 C 0.79673 0.96218 0.14325 0.0
O690 O 0.91687 0.94807 0.26266 0.0
O691 O 0.9086 0.93188 0.34925 0.0
O692 O 0.8033 0.99707 0.3577 0.0
O693 O 0.8004 0.95089 0.29083 0.0
O694 O 0.93263 0.96385 0.43897 0.0
O695 O 0.9118 1.03324 0.43789 0.0
O696 O 0.84865 0.0681 0.3345 0.0
O697 O 0.80063 0.05711 0.24327 0.0
O698 O 0.88233 1.04286 0.22829 0.0
O699 O 0.94255 1.02795 0.3173 0.0
C700 C 0.93193 0.9215 0.30987 0.0
O701 O 0.76769 0.9824 0.17209 0.0
O702 O 0.847 0.96959 0.1593 0.0
C703 C 0.77692 0.96972 0.32546 0.0
C704 C 0.99967 1.00476 0.48458 0.0
C705 C 0.08441 0.05582 0.49422 0.0
C706 C 1.06082 0.05009 0.53933 0.0
C707 C 1.01843 1.02461 0.5345 0.0
C708 C 1.02917 1.00413 0.44421 0.0
C709 C 1.07141 1.02967 0.44907 0.0
C710 C 0.94288 0.99842 0.46571 0.0
C711 C 0.81363 0.08308 0.28523 0.0
H712 H 0.81208 0.83488 1.05679 0.0
H713 H 0.8145 0.91394 1.0601 0.0
H714 H 0.76968 0.90495 0.2172 0.0
H715 H 0.76688 0.82658 0.215 0.0
H716 H 1.06768 0.0717 0.57294 0.0
H717 H 0.99541 1.02605 0.56538 0.0
H718 H 1.01468 0.98933 0.40495 0.0
H719 H 0.08676 1.03552 0.41262 0.0
Tb720 Tb 0.41684 0.47602 0.58282 0.0
Tb721 Tb 0.31084 0.45897 0.50235 0.0
C722 C 0.41866 0.42834 0.47772 0.0
C723 C 0.49582 0.55728 0.6212 0.0
C724 C 0.46346 0.64425 0.56861 0.0
C725 C 0.50765 0.61891 0.55909 0.0
C726 C 0.52216 0.57551 0.58332 0.0
C727 C 0.45432 0.5839 0.6341 0.0
C728 C 0.43749 0.62633 0.6071 0.0
C729 C 0.49829 0.50894 0.63077 0.0
O730 O 0.38828 0.53316 0.51565 0.0
O731 O 0.32598 0.50673 0.44454 0.0
O732 O 0.29971 0.51862 0.54216 0.0
O733 O 0.35867 0.49699 0.6267 0.0
O734 O 0.24646 0.45142 0.43287 0.0
O735 O 0.23601 0.45883 0.51811 0.0
O736 O 0.33903 0.39278 0.54559 0.0
O737 O 0.41149 0.40849 0.61579 0.0
O738 O 0.43806 0.42638 0.53289 0.0
O739 O 0.36794 0.44324 0.45287 0.0
C740 C 0.3572 0.53643 0.46237 0.0
O741 O 0.46653 0.49398 0.6594 0.0
O742 O 0.49512 0.48944 0.58447 0.0
C743 C 0.31607 0.52211 0.59646 0.0
C744 C 0.19663 0.4045 0.46958 0.0
C745 C 0.14693 0.33194 0.44309 0.0
C746 C 0.12384 0.363 0.47163 0.0
C747 C 0.14788 0.40106 0.48236 0.0
C748 C 0.22646 0.36732 0.45807 0.0
C749 C 0.20151 0.32991 0.44595 0.0
C750 C 0.21615 0.44643 0.46744 0.0
C751 C 0.3786 0.38032 0.59164 0.0
H752 H 0.52964 0.63164 0.53082 0.0
H753 H 0.55098 0.55523 0.5685 0.0
H754 H 0.43121 0.57078 0.66097 0.0
H755 H 0.40216 0.64392 0.61438 0.0
H756 H 1.08218 0.36321 0.47208 0.0
H757 H 0.12633 0.42891 0.4949 0.0
H758 H 0.26614 0.36884 0.45195 0.0
H759 H 0.22046 0.30476 0.42626 0.0
Tb760 Tb 0.35819 0.56039 1.01225 0.0
Tb761 Tb 0.4083 0.5092 0.90131 0.0
C762 C 0.43513 0.47376 1.03974 0.0
C763 C 0.33295 0.65549 1.09379 0.0
C764 C 0.33352 0.74065 0.13461 0.0
C765 C 0.35417 0.70162 0.17178 0.0
C766 C 0.35157 0.66001 0.15207 0.0
C767 C 0.3208 0.69423 1.05546 0.0
C768 C 0.31854 0.73646 1.07558 0.0
C769 C 0.32529 0.61021 1.07599 0.0
O770 O 0.39874 0.61117 0.97974 0.0
O771 O 0.43977 0.57519 0.91726 0.0
O772 O 0.33546 0.54658 0.84079 0.0
O773 O 0.35164 0.55694 0.92681 0.0
O774 O 0.47893 0.47541 0.8888 0.0
O775 O 0.40431 0.48676 0.82144 0.0
O776 O 0.34371 0.4727 0.91915 0.0
O777 O 0.30488 0.50858 0.9846 0.0
O778 O 0.42175 0.51104 1.05862 0.0
O779 O 0.43049 0.46808 0.98499 0.0
C780 C 0.4276 0.6109 0.94285 0.0
O781 O 0.29775 0.60597 1.02354 0.0
O782 O 0.36731 0.58016 1.0946 0.0
C783 C 0.31792 0.56666 0.87746 0.0
C784 C 0.46487 0.42557 0.81522 0.0
C785 C 0.47392 0.34802 0.75892 0.0
C786 C 0.50389 0.38286 0.75187 0.0
C787 C 0.49936 0.42113 0.77973 0.0
C788 C 0.43627 0.39031 0.8239 0.0
C789 C 0.4409 0.35207 0.79634 0.0
C790 C 0.45437 0.46903 0.83624 0.0
C791 C 0.30718 0.47756 0.9486 0.0
H792 H 0.36975 0.70269 0.21735 0.0
H793 H 0.36336 0.63113 0.18291 0.0
H794 H 0.31102 0.69191 1.01006 0.0
H795 H 0.30454 0.76545 1.04523 0.0
H796 H 0.52885 0.38153 0.72281 0.0
H797 H 0.52122 0.44816 0.77162 0.0
H798 H 0.40882 0.39296 0.85028 0.0
H799 H 0.41682 0.32621 0.80288 0.0
Tb800 Tb 0.66252 0.75789 1.10895 0.0
Tb801 Tb 0.74465 0.71119 1.03669 0.0
C802 C 0.6175 0.71272 0.9924 0.0
C803 C 0.58914 0.78319 0.21668 0.0
C804 C 0.5588 0.79 0.31766 0.0
C805 C 0.52715 0.76966 0.27294 0.0
C806 C 0.54183 0.76688 0.22234 0.0
C807 C 0.62473 0.79733 0.26443 0.0
C808 C 0.60997 0.79995 0.31506 0.0
C809 C 0.59744 0.78889 0.15965 0.0
O810 O 0.69406 0.6961 0.15921 0.0
O811 O 0.73322 0.65938 1.09805 0.0
O812 O 0.7762 0.76664 1.0776 0.0
O813 O 0.74487 0.76238 0.15502 0.0
O814 O 0.77987 0.70068 0.96914 0.0
O815 O 0.82443 0.68016 1.05666 0.0
O816 O 0.70266 0.76933 0.98317 0.0
O817 O 0.66872 0.80898 1.04577 0.0
O818 O 0.61228 0.73454 1.03495 0.0
O819 O 0.66478 0.69738 0.98519 0.0
C820 C 0.71681 0.66057 0.1448 0.0
O821 O 0.63877 0.80835 0.1539 0.0
O822 O 0.59034 0.75489 0.13055 0.0
C823 C 0.77583 0.7793 0.12715 0.0
C824 C 0.87676 0.70514 0.99619 0.0
C825 C 0.97434 0.73613 0.98232 0.0
C826 C 0.97358 0.6927 1.00521 0.0
C827 C 0.92593 0.67763 1.01195 0.0
C828 C 0.87707 0.7491 0.97439 0.0
C829 C 0.92524 0.76434 0.96736 0.0
C830 C 0.8272 0.68635 1.00421 0.0
C831 C 0.68066 0.80567 0.99706 0.0
H832 H 0.48704 0.76265 0.27338 0.0
H833 H 0.51392 0.75551 0.1861 0.0
H834 H 0.66173 0.80974 0.2614 0.0
H835 H 0.63447 0.81674 0.34843 0.0
H836 H 1.01004 0.66968 1.01758 0.0
H837 H 0.92755 0.64388 1.02941 0.0
H838 H 0.84016 0.77159 0.96254 0.0
H839 H 0.9239 0.798 0.94979 0.0
Tb840 Tb 0.27113 0.76711 0.25091 0.0
Tb841 Tb 0.24483 0.86136 0.18346 0.0
C842 C 0.32378 0.7828 0.16077 0.0
C843 C 0.31552 0.65455 0.34925 0.0
C844 C 0.34894 0.57682 0.42348 0.0
C845 C 0.3257 0.57519 0.36458 0.0
C846 C 0.30922 0.61375 0.32773 0.0
C847 C 0.33926 0.65631 0.40783 0.0
C848 C 0.35614 0.61766 0.44471 0.0
C849 C 0.29824 0.69536 0.31107 0.0
O850 O 0.33023 0.80989 0.29937 0.0
O851 O 0.32478 0.86949 0.23526 0.0
O852 O 0.20907 0.86094 0.25827 0.0
O853 O 0.19633 0.78928 0.26725 0.0
O854 O 0.26632 0.92087 0.15528 0.0
O855 O 0.18216 0.91169 0.14409 0.0
O856 O 0.19525 0.82703 0.11843 0.0
O857 O 0.21492 0.75699 0.1656 0.0
O858 O 0.33597 0.7786 0.21571 0.0
O859 O 0.2852 0.81499 0.13506 0.0
C860 C 0.34915 0.84645 0.28375 0.0
O861 O 0.28899 0.73264 0.33133 0.0
O862 O 0.2896 0.6978 0.25566 0.0
C863 C 0.18617 0.82908 0.27899 0.0
C864 C 0.20325 0.95934 1.07517 0.0
C865 C 0.20743 1.01443 0.98085 0.0
C866 C 0.17629 1.02892 1.01627 0.0
C867 C 0.1744 1.00144 1.06353 0.0
C868 C 0.22778 0.94258 1.03524 0.0
C869 C 0.22967 0.9701 0.98801 0.0
C870 C 0.21608 0.93753 0.1331 0.0
C871 C 0.18996 0.78501 0.11956 0.0
H872 H 0.31895 0.54403 0.34711 0.0
H873 H 0.29069 0.61167 0.28274 0.0
H874 H 0.34391 0.68764 0.42526 0.0
H875 H 0.37213 0.6198 0.48995 0.0
H876 H 0.16008 0.06325 1.01235 0.0
H877 H 0.15527 1.0147 1.09409 0.0
H878 H 0.25023 0.91 1.04367 0.0
H879 H 0.25509 0.95861 0.96206 0.0
Tb880 Tb 0.49649 0.26363 0.61333 0.0
Tb881 Tb 0.40984 0.23537 0.66765 0.0
C882 C 0.53178 0.20269 0.72132 0.0
C883 C 0.58778 0.26634 0.51704 0.0
C884 C 0.64748 0.26889 0.43759 0.0
C885 C 0.67312 0.25663 0.49569 0.0
C886 C 0.64363 0.25539 0.53531 0.0
C887 C 0.56133 0.27209 0.45801 0.0
C888 C 0.59126 0.27317 0.4184 0.0
C889 C 0.56026 0.28313 0.55773 0.0
O890 O 0.44861 0.21919 0.5575 0.0
O891 O 0.43779 0.17818 0.6313 0.0
O892 O 0.37351 0.3 0.61494 0.0
O893 O 0.45025 0.32574 0.60428 0.0
O894 O 0.37771 0.20594 0.72832 0.0
O895 O 0.33269 0.21597 0.63823 0.0
O896 O 0.42924 0.28786 0.72 0.0
O897 O 0.50286 0.30367 0.68875 0.0
O898 O 0.53474 0.20627 0.66907 0.0
O899 O 0.48675 0.2161 0.73306 0.0
C900 C 0.44053 0.18078 0.5792 0.0
O901 O 0.50789 0.29075 0.53887 0.0
O902 O 0.57695 0.26671 0.61137 0.0
C903 C 0.40016 0.33294 0.60342 0.0
C904 C 0.28345 0.21543 0.70527 0.0
C905 C 0.19315 0.23229 0.74472 0.0
C906 C 0.19198 0.20323 0.70291 0.0
C907 C 0.23751 0.19438 0.6837 0.0
C908 C 0.28307 0.24691 0.74371 0.0
C909 C 0.23843 0.25503 0.76363 0.0
C910 C 0.33246 0.20231 0.69003 0.0
C911 C 0.47037 0.31035 0.72258 0.0
H912 H 0.71595 0.25621 0.51168 0.0
H913 H 0.66515 0.25161 0.58036 0.0
H914 H 0.51814 0.28115 0.44261 0.0
H915 H 0.57093 0.28459 0.37422 0.0
H916 H 0.15724 0.18586 0.68737 0.0
H917 H 0.23758 0.17007 0.65363 0.0
H918 H 0.31796 0.26399 0.76005 0.0
H919 H 0.24054 0.27797 0.7957 0.0
Tb920 Tb 0.96873 0.27432 0.52627 0.0
Tb921 Tb 0.94606 0.34445 0.54477 0.0
C922 C 0.88721 0.25909 0.57938 0.0
C923 C 1.06993 0.18771 0.48753 0.0
C924 C 0.09974 0.09974 0.48277 0.0
C925 C 1.06564 0.12534 0.43415 0.0
C926 C 1.05155 0.16957 0.43628 0.0
C927 C 0.11289 0.16529 0.53132 0.0
C928 C 0.12866 0.12098 0.52836 0.0
C929 C 1.03252 0.21974 0.50188 0.0
O930 O 0.8851 0.29575 0.46262 0.0
O931 O 0.86239 0.35213 0.50849 0.0
O932 O 0.98755 0.32849 0.47378 0.0
O933 O 0.98556 0.32746 0.47237 0.0
O934 O 0.91124 0.40663 0.50374 0.0
O935 O 0.98194 0.39902 0.57726 0.0
O936 O 0.98895 0.33512 0.6361 0.0
O937 O 0.99864 0.26455 0.62257 0.0
O938 O 0.91415 0.23807 0.55046 0.0
O939 O 0.89399 0.30175 0.58593 0.0
C940 C 0.8488 0.32869 0.46665 0.0
O941 O 1.0491 0.2495 0.53626 0.0
O942 O 0.9801 0.22008 0.48223 0.0
C943 C 0.96633 0.31817 0.41975 0.0
C944 C 0.91885 0.46289 0.56489 0.0
C945 C 0.87357 0.53562 0.60666 0.0
C946 C 0.85236 0.52711 0.54986 0.0
C947 C 0.87497 0.49104 0.52909 0.0
C948 C 0.93939 0.47098 0.62198 0.0
C949 C 0.91694 0.50701 0.64265 0.0
C950 C 0.94407 0.42653 0.54149 0.0
C951 C 1.00456 0.29488 0.65875 0.0
H952 H 1.04272 0.11036 0.39791 0.0
H953 H 1.01887 0.18703 0.40197 0.0
H954 H 0.12787 0.1794 0.57119 0.0
H955 H 0.15571 0.10193 0.5658 0.0
H956 H 0.81845 0.54826 0.5215 0.0
H957 H 0.85839 0.48535 0.48487 0.0
H958 H 0.97308 0.4498 0.65065 0.0
H959 H 0.93379 0.51241 0.68694 0.0
loop_
_geom_bond_atom_site_label_1
_geom_bond_atom_site_label_2
_geom_bond_distance
_geom_bond_site_symmetry_2
_ccdc_geom_bond_type
Tb0 C9 2.764 . S
Tb0 O10 2.325 . S
Tb0 O13 2.303 . S
Tb0 O17 2.322 1_455 S
Tb0 O18 2.349 1_455 S
Tb0 O21 2.415 . S
Tb0 O22 2.399 . S
Tb1 O11 2.322 1_655 S
Tb1 O12 2.349 1_655 S
Tb1 O14 2.415 . S
Tb1 O15 2.399 . S
Tb1 O16 2.325 . S
Tb1 O19 2.303 . S
Tb1 C30 2.764 . S
C2 O18 1.261 . S
C2 O19 1.257 . S
C3 C6 1.358 . S
C3 C7 1.332 . S
C3 C9 1.504 . S
C4 C5 1.373 . S
C4 C8 1.308 . S
C5 C4 1.373 . S
C5 C6 1.429 . S
C5 H32 0.932 . S
C6 C3 1.358 . S
C6 C5 1.429 . S
C6 H33 0.930 . S
C7 C3 1.332 . S
C7 C8 1.394 . S
C7 H34 0.932 . S
C8 C4 1.308 . S
C8 C7 1.394 . S
C8 H35 0.929 . S
C9 Tb0 2.764 . S
C9 C3 1.504 . S
C9 O21 1.239 . S
C9 O22 1.263 . S
O10 Tb0 2.325 . S
O10 C20 1.236 . S
O11 Tb1 2.322 1_455 S
O11 C20 1.257 . S
O12 Tb1 2.349 1_455 S
O12 C23 1.261 . S
O13 Tb0 2.303 . S
O13 C23 1.257 . S
O14 Tb1 2.415 . S
O14 C30 1.239 . S
O15 Tb1 2.399 . S
O15 C30 1.263 . S
O16 Tb1 2.325 . S
O16 C31 1.236 . S
O17 Tb0 2.322 1_655 S
O17 C31 1.257 . S
O18 Tb0 2.349 1_655 S
O18 C2 1.261 . S
O19 Tb1 2.303 . S
O19 C2 1.257 . S
C20 O10 1.236 . S
C20 O11 1.257 . S
O21 Tb0 2.415 . S
O21 C9 1.239 . S
O22 Tb0 2.399 . S
O22 C9 1.263 . S
C23 O12 1.261 . S
C23 O13 1.257 . S
C24 C27 1.358 . S
C24 C28 1.332 . S
C24 C30 1.504 . S
C25 C26 1.373 . S
C25 C29 1.308 . S
C26 C25 1.373 . S
C26 C27 1.429 . S
C26 H36 0.932 . S
C27 C24 1.358 . S
C27 C26 1.429 . S
C27 H37 0.930 . S
C28 C24 1.332 . S
C28 C29 1.394 . S
C28 H38 0.932 . S
C29 C25 1.308 . S
C29 C28 1.394 . S
C29 H39 0.929 . S
C30 Tb1 2.764 . S
C30 O14 1.239 . S
C30 O15 1.263 . S
C30 C24 1.504 . S
C31 O16 1.236 . S
C31 O17 1.257 . S
H32 C5 0.932 . S
H33 C6 0.930 . S
H34 C7 0.932 . S
H35 C8 0.929 . S
H36 C26 0.932 . S
H37 C27 0.930 . S
H38 C28 0.932 . S
H39 C29 0.929 . S
Tb40 C49 2.764 . S
Tb40 O50 2.325 . S
Tb40 O53 2.303 . S
Tb40 O57 2.322 . S
Tb40 O58 2.349 . S
Tb40 O61 2.415 . S
Tb40 O62 2.399 . S
Tb41 O51 2.322 . S
Tb41 O52 2.349 . S
Tb41 O54 2.415 . S
Tb41 O55 2.399 . S
Tb41 O56 2.325 . S
Tb41 O59 2.303 . S
Tb41 C70 2.764 . S
C42 O58 1.261 . S
C42 O59 1.257 . S
C43 C46 1.358 . S
C43 C47 1.332 . S
C43 C49 1.504 . S
C44 C45 1.373 . S
C44 C48 1.308 . S
C45 C44 1.373 . S
C45 C46 1.429 . S
C45 H72 0.932 . S
C46 C43 1.358 . S
C46 C45 1.429 . S
C46 H73 0.930 . S
C47 C43 1.332 . S
C47 C48 1.394 . S
C47 H74 0.932 . S
C48 C44 1.308 . S
C48 C47 1.394 . S
C48 H75 0.929 . S
C49 Tb40 2.764 . S
C49 C43 1.504 . S
C49 O61 1.239 . S
C49 O62 1.263 . S
O50 Tb40 2.325 . S
O50 C60 1.236 . S
O51 Tb41 2.322 . S
O51 C60 1.257 . S
O52 Tb41 2.349 . S
O52 C63 1.261 . S
O53 Tb40 2.303 . S
O53 C63 1.257 . S
O54 Tb41 2.415 . S
O54 C70 1.239 . S
O55 Tb41 2.399 . S
O55 C70 1.263 . S
O56 Tb41 2.325 . S
O56 C71 1.236 . S
O57 Tb40 2.322 . S
O57 C71 1.257 . S
O58 Tb40 2.349 . S
O58 C42 1.261 . S
O59 Tb41 2.303 . S
O59 C42 1.257 . S
C60 O50 1.236 . S
C60 O51 1.257 . S
O61 Tb40 2.415 . S
O61 C49 1.239 . S
O62 Tb40 2.399 . S
O62 C49 1.263 . S
C63 O52 1.261 . S
C63 O53 1.257 . S
C64 C67 1.358 . S
C64 C68 1.332 . S
C64 C70 1.504 . S
C65 C66 1.373 . S
C65 C69 1.308 . S
C66 C65 1.373 . S
C66 C67 1.429 . S
C66 H76 0.932 . S
C67 C64 1.358 . S
C67 C66 1.429 . S
C67 H77 0.930 . S
C68 C64 1.332 . S
C68 C69 1.394 . S
C68 H78 0.932 . S
C69 C65 1.308 . S
C69 C68 1.394 . S
C69 H79 0.929 . S
C70 Tb41 2.764 . S
C70 O54 1.239 . S
C70 O55 1.263 . S
C70 C64 1.504 . S
C71 O56 1.236 . S
C71 O57 1.257 . S
H72 C45 0.932 . S
H73 C46 0.930 . S
H74 C47 0.932 . S
H75 C48 0.929 . S
H76 C66 0.932 . S
H77 C67 0.930 . S
H78 C68 0.932 . S
H79 C69 0.929 . S
Tb80 C89 2.764 . S
Tb80 O90 2.325 . S
Tb80 O93 2.303 . S
Tb80 O97 2.322 . S
Tb80 O98 2.349 . S
Tb80 O101 2.415 . S
Tb80 O102 2.399 . S
Tb81 O91 2.322 . S
Tb81 O92 2.349 . S
Tb81 O94 2.415 . S
Tb81 O95 2.399 . S
Tb81 O96 2.325 . S
Tb81 O99 2.303 . S
Tb81 C110 2.764 . S
C82 O98 1.261 . S
C82 O99 1.257 . S
C83 C86 1.358 . S
C83 C87 1.332 . S
C83 C89 1.504 . S
C84 C85 1.373 . S
C84 C88 1.308 . S
C85 C84 1.373 . S
C85 C86 1.429 . S
C85 H112 0.932 . S
C86 C83 1.358 . S
C86 C85 1.429 . S
C86 H113 0.930 . S
C87 C83 1.332 . S
C87 C88 1.394 . S
C87 H114 0.932 . S
C88 C84 1.308 . S
C88 C87 1.394 . S
C88 H115 0.929 . S
C89 Tb80 2.764 . S
C89 C83 1.504 . S
C89 O101 1.239 . S
C89 O102 1.263 . S
O90 Tb80 2.325 . S
O90 C100 1.236 . S
O91 Tb81 2.322 . S
O91 C100 1.257 . S
O92 Tb81 2.349 . S
O92 C103 1.261 . S
O93 Tb80 2.303 . S
O93 C103 1.257 . S
O94 Tb81 2.415 . S
O94 C110 1.239 . S
O95 Tb81 2.399 . S
O95 C110 1.263 . S
O96 Tb81 2.325 . S
O96 C111 1.236 . S
O97 Tb80 2.322 . S
O97 C111 1.257 . S
O98 Tb80 2.349 . S
O98 C82 1.261 . S
O99 Tb81 2.303 . S
O99 C82 1.257 . S
C100 O90 1.236 . S
C100 O91 1.257 . S
O101 Tb80 2.415 . S
O101 C89 1.239 . S
O102 Tb80 2.399 . S
O102 C89 1.263 . S
C103 O92 1.261 . S
C103 O93 1.257 . S
C104 C107 1.358 . S
C104 C108 1.332 . S
C104 C110 1.504 . S
C105 C106 1.373 . S
C105 C109 1.308 1_565 S
C106 C105 1.373 . S
C106 C107 1.429 1_565 S
C106 H116 0.932 . S
C107 C104 1.358 . S
C107 C106 1.429 1_545 S
C107 H117 0.930 1_545 S
C108 C104 1.332 . S
C108 C109 1.394 . S
C108 H118 0.932 . S
C109 C105 1.308 1_545 S
C109 C108 1.394 . S
C109 H119 0.929 . S
C110 Tb81 2.764 . S
C110 O94 1.239 . S
C110 O95 1.263 . S
C110 C104 1.504 . S
C111 O96 1.236 . S
C111 O97 1.257 . S
H112 C85 0.932 . S
H113 C86 0.930 . S
H114 C87 0.932 . S
H115 C88 0.929 . S
H116 C106 0.932 . S
H117 C107 0.930 1_565 S
H118 C108 0.932 . S
H119 C109 0.929 . S
Tb120 C129 2.764 . S
Tb120 O130 2.325 . S
Tb120 O133 2.303 . S
Tb120 O137 2.322 1_655 S
Tb120 O138 2.349 1_655 S
Tb120 O141 2.415 . S
Tb120 O142 2.399 . S
Tb121 O131 2.322 1_455 S
Tb121 O132 2.349 1_455 S
Tb121 O134 2.415 . S
Tb121 O135 2.399 . S
Tb121 O136 2.325 . S
Tb121 O139 2.303 . S
Tb121 C150 2.764 . S
C122 O138 1.261 . S
C122 O139 1.257 . S
C123 C126 1.358 . S
C123 C127 1.332 . S
C123 C129 1.504 . S
C124 C125 1.373 . S
C124 C128 1.308 . S
C125 C124 1.373 . S
C125 C126 1.429 . S
C125 H152 0.932 . S
C126 C123 1.358 . S
C126 C125 1.429 . S
C126 H153 0.930 . S
C127 C123 1.332 . S
C127 C128 1.394 . S
C127 H154 0.932 . S
C128 C124 1.308 . S
C128 C127 1.394 . S
C128 H155 0.929 . S
C129 Tb120 2.764 . S
C129 C123 1.504 . S
C129 O141 1.239 . S
C129 O142 1.263 . S
O130 Tb120 2.325 . S
O130 C140 1.236 . S
O131 Tb121 2.322 1_655 S
O131 C140 1.257 . S
O132 Tb121 2.349 1_655 S
O132 C143 1.261 . S
O133 Tb120 2.303 . S
O133 C143 1.257 . S
O134 Tb121 2.415 . S
O134 C150 1.239 . S
O135 Tb121 2.399 . S
O135 C150 1.263 . S
O136 Tb121 2.325 . S
O136 C151 1.236 . S
O137 Tb120 2.322 1_455 S
O137 C151 1.257 . S
O138 Tb120 2.349 1_455 S
O138 C122 1.261 . S
O139 Tb121 2.303 . S
O139 C122 1.257 . S
C140 O130 1.236 . S
C140 O131 1.257 . S
O141 Tb120 2.415 . S
O141 C129 1.239 . S
O142 Tb120 2.399 . S
O142 C129 1.263 . S
C143 O132 1.261 . S
C143 O133 1.257 . S
C144 C147 1.358 . S
C144 C148 1.332 . S
C144 C150 1.504 . S
C145 C146 1.373 . S
C145 C149 1.308 . S
C146 C145 1.373 . S
C146 C147 1.429 . S
C146 H156 0.932 . S
C147 C144 1.358 . S
C147 C146 1.429 . S
C147 H157 0.930 . S
C148 C144 1.332 . S
C148 C149 1.394 . S
C148 H158 0.932 . S
C149 C145 1.308 . S
C149 C148 1.394 . S
C149 H159 0.929 . S
C150 Tb121 2.764 . S
C150 O134 1.239 . S
C150 O135 1.263 . S
C150 C144 1.504 . S
C151 O136 1.236 . S
C151 O137 1.257 . S
H152 C125 0.932 . S
H153 C126 0.930 . S
H154 C127 0.932 . S
H155 C128 0.929 . S
H156 C146 0.932 . S
H157 C147 0.930 . S
H158 C148 0.932 . S
H159 C149 0.929 . S
Tb160 C169 2.764 . S
Tb160 O170 2.325 . S
Tb160 O173 2.303 . S
Tb160 O177 2.322 1_545 S
Tb160 O178 2.349 1_545 S
Tb160 O181 2.415 . S
Tb160 O182 2.399 . S
Tb161 O171 2.322 1_565 S
Tb161 O172 2.349 1_565 S
Tb161 O174 2.415 . S
Tb161 O175 2.399 . S
Tb161 O176 2.325 . S
Tb161 O179 2.303 . S
Tb161 C190 2.764 . S
C162 O178 1.261 . S
C162 O179 1.257 . S
C163 C166 1.358 . S
C163 C167 1.332 . S
C163 C169 1.504 . S
C164 C165 1.373 . S
C164 C168 1.308 . S
C165 C164 1.373 . S
C165 C166 1.429 . S
C165 H192 0.932 . S
C166 C163 1.358 . S
C166 C165 1.429 . S
C166 H193 0.930 . S
C167 C163 1.332 . S
C167 C168 1.394 . S
C167 H194 0.932 . S
C168 C164 1.308 . S
C168 C167 1.394 . S
C168 H195 0.929 . S
C169 Tb160 2.764 . S
C169 C163 1.504 . S
C169 O181 1.239 . S
C169 O182 1.263 . S
O170 Tb160 2.325 . S
O170 C180 1.236 . S
O171 Tb161 2.322 1_545 S
O171 C180 1.257 . S
O172 Tb161 2.349 1_545 S
O172 C183 1.261 . S
O173 Tb160 2.303 . S
O173 C183 1.257 . S
O174 Tb161 2.415 . S
O174 C190 1.239 . S
O175 Tb161 2.399 . S
O175 C190 1.263 . S
O176 Tb161 2.325 . S
O176 C191 1.236 . S
O177 Tb160 2.322 1_565 S
O177 C191 1.257 . S
O178 Tb160 2.349 1_565 S
O178 C162 1.261 . S
O179 Tb161 2.303 . S
O179 C162 1.257 . S
C180 O170 1.236 . S
C180 O171 1.257 . S
O181 Tb160 2.415 . S
O181 C169 1.239 . S
O182 Tb160 2.399 . S
O182 C169 1.263 . S
C183 O172 1.261 . S
C183 O173 1.257 . S
C184 C187 1.358 . S
C184 C188 1.332 . S
C184 C190 1.504 . S
C185 C186 1.373 . S
C185 C189 1.308 . S
C186 C185 1.373 . S
C186 C187 1.429 . S
C186 H196 0.932 . S
C187 C184 1.358 . S
C187 C186 1.429 . S
C187 H197 0.930 . S
C188 C184 1.332 . S
C188 C189 1.394 . S
C188 H198 0.932 . S
C189 C185 1.308 . S
C189 C188 1.394 . S
C189 H199 0.929 . S
C190 Tb161 2.764 . S
C190 O174 1.239 . S
C190 O175 1.263 . S
C190 C184 1.504 . S
C191 O176 1.236 . S
C191 O177 1.257 . S
H192 C165 0.932 . S
H193 C166 0.930 . S
H194 C167 0.932 . S
H195 C168 0.929 . S
H196 C186 0.932 . S
H197 C187 0.930 . S
H198 C188 0.932 . S
H199 C189 0.929 . S
Tb200 C209 2.764 . S
Tb200 O210 2.325 . S
Tb200 O213 2.303 . S
Tb200 O217 2.322 1_565 S
Tb200 O218 2.349 1_565 S
Tb200 O221 2.415 . S
Tb200 O222 2.399 . S
Tb201 O211 2.322 1_545 S
Tb201 O212 2.349 1_545 S
Tb201 O214 2.415 . S
Tb201 O215 2.399 1_556 S
Tb201 O216 2.325 . S
Tb201 O219 2.303 . S
Tb201 C230 2.764 . S
C202 O218 1.261 . S
C202 O219 1.257 . S
C203 C206 1.358 . S
C203 C207 1.332 . S
C203 C209 1.504 . S
C204 C205 1.373 . S
C204 C208 1.308 . S
C205 C204 1.373 . S
C205 C206 1.429 . S
C205 H232 0.932 . S
C206 C203 1.358 . S
C206 C205 1.429 . S
C206 H233 0.930 . S
C207 C203 1.332 . S
C207 C208 1.394 . S
C207 H234 0.932 . S
C208 C204 1.308 . S
C208 C207 1.394 . S
C208 H235 0.929 . S
C209 Tb200 2.764 . S
C209 C203 1.504 . S
C209 O221 1.239 . S
C209 O222 1.263 . S
O210 Tb200 2.325 . S
O210 C220 1.236 . S
O211 Tb201 2.322 1_565 S
O211 C220 1.257 . S
O212 Tb201 2.349 1_565 S
O212 C223 1.261 . S
O213 Tb200 2.303 . S
O213 C223 1.257 . S
O214 Tb201 2.415 . S
O214 C230 1.239 . S
O215 Tb201 2.399 1_554 S
O215 C230 1.263 1_554 S
O216 Tb201 2.325 . S
O216 C231 1.236 . S
O217 Tb200 2.322 1_545 S
O217 C231 1.257 . S
O218 Tb200 2.349 1_545 S
O218 C202 1.261 . S
O219 Tb201 2.303 . S
O219 C202 1.257 . S
C220 O210 1.236 . S
C220 O211 1.257 . S
O221 Tb200 2.415 . S
O221 C209 1.239 . S
O222 Tb200 2.399 . S
O222 C209 1.263 . S
C223 O212 1.261 . S
C223 O213 1.257 . S
C224 C227 1.358 . S
C224 C228 1.332 . S
C224 C230 1.504 1_554 S
C225 C226 1.373 . S
C225 C229 1.308 . S
C226 C225 1.373 . S
C226 C227 1.429 . S
C226 H236 0.932 . S
C227 C224 1.358 . S
C227 C226 1.429 . S
C227 H237 0.930 . S
C228 C224 1.332 . S
C228 C229 1.394 . S
C228 H238 0.932 1_554 S
C229 C225 1.308 . S
C229 C228 1.394 . S
C229 H239 0.929 . S
C230 Tb201 2.764 . S
C230 O214 1.239 . S
C230 O215 1.263 1_556 S
C230 C224 1.504 1_556 S
C231 O216 1.236 . S
C231 O217 1.257 . S
H232 C205 0.932 . S
H233 C206 0.930 . S
H234 C207 0.932 . S
H235 C208 0.929 . S
H236 C226 0.932 . S
H237 C227 0.930 . S
H238 C228 0.932 1_556 S
H239 C229 0.929 . S
Tb240 C249 2.764 . S
Tb240 O250 2.325 . S
Tb240 O253 2.303 . S
Tb240 O257 2.322 . S
Tb240 O258 2.349 . S
Tb240 O261 2.415 . S
Tb240 O262 2.399 . S
Tb241 O251 2.322 . S
Tb241 O252 2.349 . S
Tb241 O254 2.415 . S
Tb241 O255 2.399 . S
Tb241 O256 2.325 . S
Tb241 O259 2.303 . S
Tb241 C270 2.764 . S
C242 O258 1.261 . S
C242 O259 1.257 . S
C243 C246 1.358 . S
C243 C247 1.332 . S
C243 C249 1.504 . S
C244 C245 1.373 . S
C244 C248 1.308 . S
C245 C244 1.373 . S
C245 C246 1.429 . S
C245 H272 0.932 . S
C246 C243 1.358 . S
C246 C245 1.429 . S
C246 H273 0.930 . S
C247 C243 1.332 . S
C247 C248 1.394 . S
C247 H274 0.932 . S
C248 C244 1.308 . S
C248 C247 1.394 . S
C248 H275 0.929 . S
C249 Tb240 2.764 . S
C249 C243 1.504 . S
C249 O261 1.239 . S
C249 O262 1.263 . S
O250 Tb240 2.325 . S
O250 C260 1.236 . S
O251 Tb241 2.322 . S
O251 C260 1.257 . S
O252 Tb241 2.349 . S
O252 C263 1.261 . S
O253 Tb240 2.303 . S
O253 C263 1.257 . S
O254 Tb241 2.415 . S
O254 C270 1.239 . S
O255 Tb241 2.399 . S
O255 C270 1.263 . S
O256 Tb241 2.325 . S
O256 C271 1.236 . S
O257 Tb240 2.322 . S
O257 C271 1.257 . S
O258 Tb240 2.349 . S
O258 C242 1.261 . S
O259 Tb241 2.303 . S
O259 C242 1.257 . S
C260 O250 1.236 . S
C260 O251 1.257 . S
O261 Tb240 2.415 . S
O261 C249 1.239 . S
O262 Tb240 2.399 . S
O262 C249 1.263 . S
C263 O252 1.261 . S
C263 O253 1.257 . S
C264 C267 1.358 . S
C264 C268 1.332 . S
C264 C270 1.504 . S
C265 C266 1.373 . S
C265 C269 1.308 . S
C266 C265 1.373 . S
C266 C267 1.429 . S
C266 H276 0.932 . S
C267 C264 1.358 . S
C267 C266 1.429 . S
C267 H277 0.930 . S
C268 C264 1.332 . S
C268 C269 1.394 . S
C268 H278 0.932 . S
C269 C265 1.308 . S
C269 C268 1.394 . S
C269 H279 0.929 . S
C270 Tb241 2.764 . S
C270 O254 1.239 . S
C270 O255 1.263 . S
C270 C264 1.504 . S
C271 O256 1.236 . S
C271 O257 1.257 . S
H272 C245 0.932 . S
H273 C246 0.930 . S
H274 C247 0.932 . S
H275 C248 0.929 . S
H276 C266 0.932 . S
H277 C267 0.930 . S
H278 C268 0.932 . S
H279 C269 0.929 . S
Tb280 C289 2.764 . S
Tb280 O290 2.325 . S
Tb280 O293 2.303 . S
Tb280 O297 2.322 . S
Tb280 O298 2.349 . S
Tb280 O301 2.415 . S
Tb280 O302 2.399 . S
Tb281 O291 2.322 . S
Tb281 O292 2.349 . S
Tb281 O294 2.415 . S
Tb281 O295 2.399 . S
Tb281 O296 2.325 . S
Tb281 O299 2.303 . S
Tb281 C310 2.764 . S
C282 O298 1.261 . S
C282 O299 1.257 . S
C283 C286 1.358 . S
C283 C287 1.332 . S
C283 C289 1.504 . S
C284 C285 1.373 . S
C284 C288 1.308 . S
C285 C284 1.373 . S
C285 C286 1.429 . S
C285 H312 0.932 . S
C286 C283 1.358 . S
C286 C285 1.429 . S
C286 H313 0.930 . S
C287 C283 1.332 . S
C287 C288 1.394 . S
C287 H314 0.932 . S
C288 C284 1.308 . S
C288 C287 1.394 . S
C288 H315 0.929 . S
C289 Tb280 2.764 . S
C289 C283 1.504 . S
C289 O301 1.239 . S
C289 O302 1.263 . S
O290 Tb280 2.325 . S
O290 C300 1.236 . S
O291 Tb281 2.322 . S
O291 C300 1.257 . S
O292 Tb281 2.349 . S
O292 C303 1.261 . S
O293 Tb280 2.303 . S
O293 C303 1.257 . S
O294 Tb281 2.415 . S
O294 C310 1.239 . S
O295 Tb281 2.399 . S
O295 C310 1.263 . S
O296 Tb281 2.325 . S
O296 C311 1.236 . S
O297 Tb280 2.322 . S
O297 C311 1.257 . S
O298 Tb280 2.349 . S
O298 C282 1.261 . S
O299 Tb281 2.303 . S
O299 C282 1.257 . S
C300 O290 1.236 . S
C300 O291 1.257 . S
O301 Tb280 2.415 . S
O301 C289 1.239 . S
O302 Tb280 2.399 . S
O302 C289 1.263 . S
C303 O292 1.261 . S
C303 O293 1.257 . S
C304 C307 1.358 1_554 S
C304 C308 1.332 . S
C304 C310 1.504 . S
C305 C306 1.373 . S
C305 C309 1.308 . S
C306 C305 1.373 . S
C306 C307 1.429 . S
C306 H316 0.932 . S
C307 C304 1.358 1_556 S
C307 C306 1.429 . S
C307 H317 0.930 . S
C308 C304 1.332 . S
C308 C309 1.394 1_554 S
C308 H318 0.932 . S
C309 C305 1.308 . S
C309 C308 1.394 1_556 S
C309 H319 0.929 1_556 S
C310 Tb281 2.764 . S
C310 O294 1.239 . S
C310 O295 1.263 . S
C310 C304 1.504 . S
C311 O296 1.236 . S
C311 O297 1.257 . S
H312 C285 0.932 . S
H313 C286 0.930 . S
H314 C287 0.932 . S
H315 C288 0.929 . S
H316 C306 0.932 . S
H317 C307 0.930 . S
H318 C308 0.932 . S
H319 C309 0.929 1_554 S
Tb320 C329 2.764 . S
Tb320 O330 2.325 . S
Tb320 O333 2.303 . S
Tb320 O337 2.322 . S
Tb320 O338 2.349 . S
Tb320 O341 2.415 . S
Tb320 O342 2.399 . S
Tb321 O331 2.322 . S
Tb321 O332 2.349 . S
Tb321 O334 2.415 1_554 S
Tb321 O335 2.399 . S
Tb321 O336 2.325 . S
Tb321 O339 2.303 . S
Tb321 C350 2.764 1_554 S
C322 O338 1.261 . S
C322 O339 1.257 . S
C323 C326 1.358 . S
C323 C327 1.332 . S
C323 C329 1.504 . S
C324 C325 1.373 . S
C324 C328 1.308 . S
C325 C324 1.373 . S
C325 C326 1.429 . S
C325 H352 0.932 . S
C326 C323 1.358 . S
C326 C325 1.429 . S
C326 H353 0.930 . S
C327 C323 1.332 . S
C327 C328 1.394 . S
C327 H354 0.932 . S
C328 C324 1.308 . S
C328 C327 1.394 . S
C328 H355 0.929 . S
C329 Tb320 2.764 . S
C329 C323 1.504 . S
C329 O341 1.239 . S
C329 O342 1.263 . S
O330 Tb320 2.325 . S
O330 C340 1.236 . S
O331 Tb321 2.322 . S
O331 C340 1.257 . S
O332 Tb321 2.349 . S
O332 C343 1.261 . S
O333 Tb320 2.303 . S
O333 C343 1.257 . S
O334 Tb321 2.415 1_556 S
O334 C350 1.239 . S
O335 Tb321 2.399 . S
O335 C350 1.263 1_554 S
O336 Tb321 2.325 . S
O336 C351 1.236 1_554 S
O337 Tb320 2.322 . S
O337 C351 1.257 1_554 S
O338 Tb320 2.349 . S
O338 C322 1.261 . S
O339 Tb321 2.303 . S
O339 C322 1.257 . S
C340 O330 1.236 . S
C340 O331 1.257 . S
O341 Tb320 2.415 . S
O341 C329 1.239 . S
O342 Tb320 2.399 . S
O342 C329 1.263 . S
C343 O332 1.261 . S
C343 O333 1.257 . S
C344 C347 1.358 . S
C344 C348 1.332 . S
C344 C350 1.504 . S
C345 C346 1.373 . S
C345 C349 1.308 . S
C346 C345 1.373 . S
C346 C347 1.429 . S
C346 H356 0.932 . S
C347 C344 1.358 . S
C347 C346 1.429 . S
C347 H357 0.930 . S
C348 C344 1.332 . S
C348 C349 1.394 . S
C348 H358 0.932 . S
C349 C345 1.308 . S
C349 C348 1.394 . S
C349 H359 0.929 . S
C350 Tb321 2.764 1_556 S
C350 O334 1.239 . S
C350 O335 1.263 1_556 S
C350 C344 1.504 . S
C351 O336 1.236 1_556 S
C351 O337 1.257 1_556 S
H352 C325 0.932 . S
H353 C326 0.930 . S
H354 C327 0.932 . S
H355 C328 0.929 . S
H356 C346 0.932 . S
H357 C347 0.930 . S
H358 C348 0.932 . S
H359 C349 0.929 . S
Tb360 C369 2.764 1_556 S
Tb360 O370 2.325 . S
Tb360 O373 2.303 . S
Tb360 O377 2.322 . S
Tb360 O378 2.349 . S
Tb360 O381 2.415 1_556 S
Tb360 O382 2.399 . S
Tb361 O371 2.322 . S
Tb361 O372 2.349 . S
Tb361 O374 2.415 . S
Tb361 O375 2.399 . S
Tb361 O376 2.325 . S
Tb361 O379 2.303 . S
Tb361 C390 2.764 . S
C362 O378 1.261 . S
C362 O379 1.257 . S
C363 C366 1.358 . S
C363 C367 1.332 . S
C363 C369 1.504 . S
C364 C365 1.373 . S
C364 C368 1.308 . S
C365 C364 1.373 . S
C365 C366 1.429 . S
C365 H392 0.932 . S
C366 C363 1.358 . S
C366 C365 1.429 . S
C366 H393 0.930 . S
C367 C363 1.332 . S
C367 C368 1.394 . S
C367 H394 0.932 . S
C368 C364 1.308 . S
C368 C367 1.394 . S
C368 H395 0.929 . S
C369 Tb360 2.764 1_554 S
C369 C363 1.504 . S
C369 O381 1.239 . S
C369 O382 1.263 1_554 S
O370 Tb360 2.325 . S
O370 C380 1.236 . S
O371 Tb361 2.322 . S
O371 C380 1.257 . S
O372 Tb361 2.349 . S
O372 C383 1.261 . S
O373 Tb360 2.303 . S
O373 C383 1.257 . S
O374 Tb361 2.415 . S
O374 C390 1.239 . S
O375 Tb361 2.399 . S
O375 C390 1.263 . S
O376 Tb361 2.325 . S
O376 C391 1.236 . S
O377 Tb360 2.322 . S
O377 C391 1.257 . S
O378 Tb360 2.349 . S
O378 C362 1.261 . S
O379 Tb361 2.303 . S
O379 C362 1.257 . S
C380 O370 1.236 . S
C380 O371 1.257 . S
O381 Tb360 2.415 1_554 S
O381 C369 1.239 . S
O382 Tb360 2.399 . S
O382 C369 1.263 1_556 S
C383 O372 1.261 . S
C383 O373 1.257 . S
C384 C387 1.358 . S
C384 C388 1.332 . S
C384 C390 1.504 . S
C385 C386 1.373 . S
C385 C389 1.308 . S
C386 C385 1.373 . S
C386 C387 1.429 . S
C386 H396 0.932 . S
C387 C384 1.358 . S
C387 C386 1.429 . S
C387 H397 0.930 . S
C388 C384 1.332 . S
C388 C389 1.394 . S
C388 H398 0.932 . S
C389 C385 1.308 . S
C389 C388 1.394 . S
C389 H399 0.929 . S
C390 Tb361 2.764 . S
C390 O374 1.239 . S
C390 O375 1.263 . S
C390 C384 1.504 . S
C391 O376 1.236 . S
C391 O377 1.257 . S
H392 C365 0.932 . S
H393 C366 0.930 . S
H394 C367 0.932 . S
H395 C368 0.929 . S
H396 C386 0.932 . S
H397 C387 0.930 . S
H398 C388 0.932 . S
H399 C389 0.929 . S
Tb400 C409 2.764 . S
Tb400 O410 2.325 . S
Tb400 O413 2.303 . S
Tb400 O417 2.322 . S
Tb400 O418 2.349 . S
Tb400 O421 2.415 . S
Tb400 O422 2.399 . S
Tb401 O411 2.322 . S
Tb401 O412 2.349 . S
Tb401 O414 2.415 . S
Tb401 O415 2.399 . S
Tb401 O416 2.325 . S
Tb401 O419 2.303 . S
Tb401 C430 2.764 . S
C402 O418 1.261 . S
C402 O419 1.257 . S
C403 C406 1.358 . S
C403 C407 1.332 . S
C403 C409 1.504 . S
C404 C405 1.373 . S
C404 C408 1.308 . S
C405 C404 1.373 . S
C405 C406 1.429 . S
C405 H432 0.932 . S
C406 C403 1.358 . S
C406 C405 1.429 . S
C406 H433 0.930 . S
C407 C403 1.332 . S
C407 C408 1.394 . S
C407 H434 0.932 . S
C408 C404 1.308 . S
C408 C407 1.394 . S
C408 H435 0.929 . S
C409 Tb400 2.764 . S
C409 C403 1.504 . S
C409 O421 1.239 . S
C409 O422 1.263 . S
O410 Tb400 2.325 . S
O410 C420 1.236 . S
O411 Tb401 2.322 . S
O411 C420 1.257 . S
O412 Tb401 2.349 . S
O412 C423 1.261 . S
O413 Tb400 2.303 . S
O413 C423 1.257 . S
O414 Tb401 2.415 . S
O414 C430 1.239 . S
O415 Tb401 2.399 . S
O415 C430 1.263 . S
O416 Tb401 2.325 . S
O416 C431 1.236 . S
O417 Tb400 2.322 . S
O417 C431 1.257 . S
O418 Tb400 2.349 . S
O418 C402 1.261 . S
O419 Tb401 2.303 . S
O419 C402 1.257 . S
C420 O410 1.236 . S
C420 O411 1.257 . S
O421 Tb400 2.415 . S
O421 C409 1.239 . S
O422 Tb400 2.399 . S
O422 C409 1.263 . S
C423 O412 1.261 . S
C423 O413 1.257 . S
C424 C427 1.358 . S
C424 C428 1.332 . S
C424 C430 1.504 . S
C425 C426 1.373 . S
C425 C429 1.308 . S
C426 C425 1.373 . S
C426 C427 1.429 . S
C426 H436 0.932 . S
C427 C424 1.358 . S
C427 C426 1.429 . S
C427 H437 0.930 . S
C428 C424 1.332 . S
C428 C429 1.394 . S
C428 H438 0.932 . S
C429 C425 1.308 . S
C429 C428 1.394 . S
C429 H439 0.929 . S
C430 Tb401 2.764 . S
C430 O414 1.239 . S
C430 O415 1.263 . S
C430 C424 1.504 . S
C431 O416 1.236 . S
C431 O417 1.257 . S
H432 C405 0.932 . S
H433 C406 0.930 . S
H434 C407 0.932 . S
H435 C408 0.929 . S
H436 C426 0.932 . S
H437 C427 0.930 . S
H438 C428 0.932 . S
H439 C429 0.929 . S
Tb440 C449 2.764 . S
Tb440 O450 2.325 . S
Tb440 O453 2.303 . S
Tb440 O457 2.322 . S
Tb440 O458 2.349 . S
Tb440 O461 2.415 . S
Tb440 O462 2.399 . S
Tb441 O451 2.322 . S
Tb441 O452 2.349 . S
Tb441 O454 2.415 . S
Tb441 O455 2.399 . S
Tb441 O456 2.325 . S
Tb441 O459 2.303 . S
Tb441 C470 2.764 . S
C442 O458 1.261 . S
C442 O459 1.257 . S
C443 C446 1.358 . S
C443 C447 1.332 . S
C443 C449 1.504 . S
C444 C445 1.373 . S
C444 C448 1.308 . S
C445 C444 1.373 . S
C445 C446 1.429 . S
C445 H472 0.932 . S
C446 C443 1.358 . S
C446 C445 1.429 . S
C446 H473 0.930 . S
C447 C443 1.332 . S
C447 C448 1.394 . S
C447 H474 0.932 . S
C448 C444 1.308 . S
C448 C447 1.394 . S
C448 H475 0.929 . S
C449 Tb440 2.764 . S
C449 C443 1.504 . S
C449 O461 1.239 . S
C449 O462 1.263 . S
O450 Tb440 2.325 . S
O450 C460 1.236 . S
O451 Tb441 2.322 . S
O451 C460 1.257 . S
O452 Tb441 2.349 . S
O452 C463 1.261 . S
O453 Tb440 2.303 . S
O453 C463 1.257 . S
O454 Tb441 2.415 . S
O454 C470 1.239 . S
O455 Tb441 2.399 . S
O455 C470 1.263 . S
O456 Tb441 2.325 . S
O456 C471 1.236 . S
O457 Tb440 2.322 . S
O457 C471 1.257 . S
O458 Tb440 2.349 . S
O458 C442 1.261 . S
O459 Tb441 2.303 . S
O459 C442 1.257 . S
C460 O450 1.236 . S
C460 O451 1.257 . S
O461 Tb440 2.415 . S
O461 C449 1.239 . S
O462 Tb440 2.399 . S
O462 C449 1.263 . S
C463 O452 1.261 . S
C463 O453 1.257 . S
C464 C467 1.358 . S
C464 C468 1.332 . S
C464 C470 1.504 . S
C465 C466 1.373 . S
C465 C469 1.308 . S
C466 C465 1.373 . S
C466 C467 1.429 . S
C466 H476 0.932 . S
C467 C464 1.358 . S
C467 C466 1.429 . S
C467 H477 0.930 . S
C468 C464 1.332 . S
C468 C469 1.394 . S
C468 H478 0.932 . S
C469 C465 1.308 . S
C469 C468 1.394 . S
C469 H479 0.929 . S
C470 Tb441 2.764 . S
C470 O454 1.239 . S
C470 O455 1.263 . S
C470 C464 1.504 . S
C471 O456 1.236 . S
C471 O457 1.257 . S
H472 C445 0.932 . S
H473 C446 0.930 . S
H474 C447 0.932 . S
H475 C448 0.929 . S
H476 C466 0.932 . S
H477 C467 0.930 . S
H478 C468 0.932 . S
H479 C469 0.929 . S
Tb480 C489 2.764 . S
Tb480 O490 2.325 . S
Tb480 O493 2.303 . S
Tb480 O497 2.322 1_455 S
Tb480 O498 2.349 1_455 S
Tb480 O501 2.415 . S
Tb480 O502 2.399 . S
Tb481 O491 2.322 1_655 S
Tb481 O492 2.349 1_655 S
Tb481 O494 2.415 . S
Tb481 O495 2.399 . S
Tb481 O496 2.325 . S
Tb481 O499 2.303 . S
Tb481 C510 2.764 . S
C482 O498 1.261 . S
C482 O499 1.257 . S
C483 C486 1.358 . S
C483 C487 1.332 . S
C483 C489 1.504 . S
C484 C485 1.373 . S
C484 C488 1.308 . S
C485 C484 1.373 . S
C485 C486 1.429 . S
C485 H512 0.932 . S
C486 C483 1.358 . S
C486 C485 1.429 . S
C486 H513 0.930 . S
C487 C483 1.332 . S
C487 C488 1.394 . S
C487 H514 0.932 . S
C488 C484 1.308 . S
C488 C487 1.394 . S
C488 H515 0.929 . S
C489 Tb480 2.764 . S
C489 C483 1.504 . S
C489 O501 1.239 . S
C489 O502 1.263 . S
O490 Tb480 2.325 . S
O490 C500 1.236 . S
O491 Tb481 2.322 1_455 S
O491 C500 1.257 . S
O492 Tb481 2.349 1_455 S
O492 C503 1.261 . S
O493 Tb480 2.303 . S
O493 C503 1.257 . S
O494 Tb481 2.415 . S
O494 C510 1.239 . S
O495 Tb481 2.399 . S
O495 C510 1.263 . S
O496 Tb481 2.325 . S
O496 C511 1.236 . S
O497 Tb480 2.322 1_655 S
O497 C511 1.257 . S
O498 Tb480 2.349 1_655 S
O498 C482 1.261 . S
O499 Tb481 2.303 . S
O499 C482 1.257 . S
C500 O490 1.236 . S
C500 O491 1.257 . S
O501 Tb480 2.415 . S
O501 C489 1.239 . S
O502 Tb480 2.399 . S
O502 C489 1.263 . S
C503 O492 1.261 . S
C503 O493 1.257 . S
C504 C507 1.358 . S
C504 C508 1.332 . S
C504 C510 1.504 . S
C505 C506 1.373 . S
C505 C509 1.308 . S
C506 C505 1.373 . S
C506 C507 1.429 . S
C506 H516 0.932 . S
C507 C504 1.358 . S
C507 C506 1.429 . S
C507 H517 0.930 . S
C508 C504 1.332 . S
C508 C509 1.394 . S
C508 H518 0.932 . S
C509 C505 1.308 . S
C509 C508 1.394 . S
C509 H519 0.929 . S
C510 Tb481 2.764 . S
C510 O494 1.239 . S
C510 O495 1.263 . S
C510 C504 1.504 . S
C511 O496 1.236 . S
C511 O497 1.257 . S
H512 C485 0.932 . S
H513 C486 0.930 . S
H514 C487 0.932 . S
H515 C488 0.929 . S
H516 C506 0.932 . S
H517 C507 0.930 . S
H518 C508 0.932 . S
H519 C509 0.929 . S
Tb520 C529 2.764 . S
Tb520 O530 2.325 . S
Tb520 O533 2.303 . S
Tb520 O537 2.322 . S
Tb520 O538 2.349 . S
Tb520 O541 2.415 . S
Tb520 O542 2.399 . S
Tb521 O531 2.322 . S
Tb521 O532 2.349 . S
Tb521 O534 2.415 . S
Tb521 O535 2.399 . S
Tb521 O536 2.325 . S
Tb521 O539 2.303 . S
Tb521 C550 2.764 . S
C522 O538 1.261 . S
C522 O539 1.257 . S
C523 C526 1.358 . S
C523 C527 1.332 . S
C523 C529 1.504 . S
C524 C525 1.373 . S
C524 C528 1.308 . S
C525 C524 1.373 . S
C525 C526 1.429 . S
C525 H552 0.932 . S
C526 C523 1.358 . S
C526 C525 1.429 . S
C526 H553 0.930 . S
C527 C523 1.332 . S
C527 C528 1.394 . S
C527 H554 0.932 . S
C528 C524 1.308 . S
C528 C527 1.394 . S
C528 H555 0.929 . S
C529 Tb520 2.764 . S
C529 C523 1.504 . S
C529 O541 1.239 . S
C529 O542 1.263 . S
O530 Tb520 2.325 . S
O530 C540 1.236 . S
O531 Tb521 2.322 . S
O531 C540 1.257 . S
O532 Tb521 2.349 . S
O532 C543 1.261 . S
O533 Tb520 2.303 . S
O533 C543 1.257 . S
O534 Tb521 2.415 . S
O534 C550 1.239 . S
O535 Tb521 2.399 . S
O535 C550 1.263 . S
O536 Tb521 2.325 . S
O536 C551 1.236 . S
O537 Tb520 2.322 . S
O537 C551 1.257 . S
O538 Tb520 2.349 . S
O538 C522 1.261 . S
O539 Tb521 2.303 . S
O539 C522 1.257 . S
C540 O530 1.236 . S
C540 O531 1.257 . S
O541 Tb520 2.415 . S
O541 C529 1.239 . S
O542 Tb520 2.399 . S
O542 C529 1.263 . S
C543 O532 1.261 . S
C543 O533 1.257 . S
C544 C547 1.358 . S
C544 C548 1.332 . S
C544 C550 1.504 . S
C545 C546 1.373 . S
C545 C549 1.308 . S
C546 C545 1.373 . S
C546 C547 1.429 . S
C546 H556 0.932 . S
C547 C544 1.358 . S
C547 C546 1.429 . S
C547 H557 0.930 . S
C548 C544 1.332 . S
C548 C549 1.394 . S
C548 H558 0.932 . S
C549 C545 1.308 . S
C549 C548 1.394 . S
C549 H559 0.929 . S
C550 Tb521 2.764 . S
C550 O534 1.239 . S
C550 O535 1.263 . S
C550 C544 1.504 . S
C551 O536 1.236 . S
C551 O537 1.257 . S
H552 C525 0.932 . S
H553 C526 0.930 . S
H554 C527 0.932 . S
H555 C528 0.929 . S
H556 C546 0.932 . S
H557 C547 0.930 . S
H558 C548 0.932 . S
H559 C549 0.929 . S
Tb560 C569 2.764 . S
Tb560 O570 2.325 . S
Tb560 O573 2.303 . S
Tb560 O577 2.322 . S
Tb560 O578 2.349 . S
Tb560 O581 2.415 . S
Tb560 O582 2.399 . S
Tb561 O571 2.322 . S
Tb561 O572 2.349 . S
Tb561 O574 2.415 . S
Tb561 O575 2.399 . S
Tb561 O576 2.325 . S
Tb561 O579 2.303 . S
Tb561 C590 2.764 . S
C562 O578 1.261 . S
C562 O579 1.257 . S
C563 C566 1.358 . S
C563 C567 1.332 . S
C563 C569 1.504 . S
C564 C565 1.373 . S
C564 C568 1.308 1_545 S
C565 C564 1.373 . S
C565 C566 1.429 1_545 S
C565 H592 0.932 . S
C566 C563 1.358 . S
C566 C565 1.429 1_565 S
C566 H593 0.930 1_565 S
C567 C563 1.332 . S
C567 C568 1.394 . S
C567 H594 0.932 . S
C568 C564 1.308 1_565 S
C568 C567 1.394 . S
C568 H595 0.929 . S
C569 Tb560 2.764 . S
C569 C563 1.504 . S
C569 O581 1.239 . S
C569 O582 1.263 . S
O570 Tb560 2.325 . S
O570 C580 1.236 . S
O571 Tb561 2.322 . S
O571 C580 1.257 . S
O572 Tb561 2.349 . S
O572 C583 1.261 . S
O573 Tb560 2.303 . S
O573 C583 1.257 . S
O574 Tb561 2.415 . S
O574 C590 1.239 . S
O575 Tb561 2.399 . S
O575 C590 1.263 . S
O576 Tb561 2.325 . S
O576 C591 1.236 . S
O577 Tb560 2.322 . S
O577 C591 1.257 . S
O578 Tb560 2.349 . S
O578 C562 1.261 . S
O579 Tb561 2.303 . S
O579 C562 1.257 . S
C580 O570 1.236 . S
C580 O571 1.257 . S
O581 Tb560 2.415 . S
O581 C569 1.239 . S
O582 Tb560 2.399 . S
O582 C569 1.263 . S
C583 O572 1.261 . S
C583 O573 1.257 . S
C584 C587 1.358 . S
C584 C588 1.332 . S
C584 C590 1.504 . S
C585 C586 1.373 . S
C585 C589 1.308 . S
C586 C585 1.373 . S
C586 C587 1.429 . S
C586 H596 0.932 . S
C587 C584 1.358 . S
C587 C586 1.429 . S
C587 H597 0.930 . S
C588 C584 1.332 . S
C588 C589 1.394 . S
C588 H598 0.932 . S
C589 C585 1.308 . S
C589 C588 1.394 . S
C589 H599 0.929 . S
C590 Tb561 2.764 . S
C590 O574 1.239 . S
C590 O575 1.263 . S
C590 C584 1.504 . S
C591 O576 1.236 . S
C591 O577 1.257 . S
H592 C565 0.932 . S
H593 C566 0.930 1_545 S
H594 C567 0.932 . S
H595 C568 0.929 . S
H596 C586 0.932 . S
H597 C587 0.930 . S
H598 C588 0.932 . S
H599 C589 0.929 . S
Tb600 C609 2.764 . S
Tb600 O610 2.325 . S
Tb600 O613 2.303 . S
Tb600 O617 2.322 1_655 S
Tb600 O618 2.349 1_655 S
Tb600 O621 2.415 . S
Tb600 O622 2.399 . S
Tb601 O611 2.322 1_455 S
Tb601 O612 2.349 1_455 S
Tb601 O614 2.415 . S
Tb601 O615 2.399 . S
Tb601 O616 2.325 . S
Tb601 O619 2.303 . S
Tb601 C630 2.764 . S
C602 O618 1.261 . S
C602 O619 1.257 . S
C603 C606 1.358 . S
C603 C607 1.332 . S
C603 C609 1.504 . S
C604 C605 1.373 . S
C604 C608 1.308 . S
C605 C604 1.373 . S
C605 C606 1.429 . S
C605 H632 0.932 . S
C606 C603 1.358 . S
C606 C605 1.429 . S
C606 H633 0.930 . S
C607 C603 1.332 . S
C607 C608 1.394 . S
C607 H634 0.932 . S
C608 C604 1.308 . S
C608 C607 1.394 . S
C608 H635 0.929 . S
C609 Tb600 2.764 . S
C609 C603 1.504 . S
C609 O621 1.239 . S
C609 O622 1.263 . S
O610 Tb600 2.325 . S
O610 C620 1.236 . S
O611 Tb601 2.322 1_655 S
O611 C620 1.257 . S
O612 Tb601 2.349 1_655 S
O612 C623 1.261 . S
O613 Tb600 2.303 . S
O613 C623 1.257 . S
O614 Tb601 2.415 . S
O614 C630 1.239 . S
O615 Tb601 2.399 . S
O615 C630 1.263 . S
O616 Tb601 2.325 . S
O616 C631 1.236 . S
O617 Tb600 2.322 1_455 S
O617 C631 1.257 . S
O618 Tb600 2.349 1_455 S
O618 C602 1.261 . S
O619 Tb601 2.303 . S
O619 C602 1.257 . S
C620 O610 1.236 . S
C620 O611 1.257 . S
O621 Tb600 2.415 . S
O621 C609 1.239 . S
O622 Tb600 2.399 . S
O622 C609 1.263 . S
C623 O612 1.261 . S
C623 O613 1.257 . S
C624 C627 1.358 . S
C624 C628 1.332 . S
C624 C630 1.504 . S
C625 C626 1.373 . S
C625 C629 1.308 . S
C626 C625 1.373 . S
C626 C627 1.429 . S
C626 H636 0.932 . S
C627 C624 1.358 . S
C627 C626 1.429 . S
C627 H637 0.930 . S
C628 C624 1.332 . S
C628 C629 1.394 . S
C628 H638 0.932 . S
C629 C625 1.308 . S
C629 C628 1.394 . S
C629 H639 0.929 . S
C630 Tb601 2.764 . S
C630 O614 1.239 . S
C630 O615 1.263 . S
C630 C624 1.504 . S
C631 O616 1.236 . S
C631 O617 1.257 . S
H632 C605 0.932 . S
H633 C606 0.930 . S
H634 C607 0.932 . S
H635 C608 0.929 . S
H636 C626 0.932 . S
H637 C627 0.930 . S
H638 C628 0.932 . S
H639 C629 0.929 . S
Tb640 C649 2.764 . S
Tb640 O650 2.325 . S
Tb640 O653 2.303 . S
Tb640 O657 2.322 1_545 S
Tb640 O658 2.349 1_545 S
Tb640 O661 2.415 . S
Tb640 O662 2.399 . S
Tb641 O651 2.322 1_565 S
Tb641 O652 2.349 1_565 S
Tb641 O654 2.415 . S
Tb641 O655 2.399 . S
Tb641 O656 2.325 . S
Tb641 O659 2.303 . S
Tb641 C670 2.764 . S
C642 O658 1.261 . S
C642 O659 1.257 . S
C643 C646 1.358 . S
C643 C647 1.332 . S
C643 C649 1.504 . S
C644 C645 1.373 . S
C644 C648 1.308 . S
C645 C644 1.373 . S
C645 C646 1.429 . S
C645 H672 0.932 . S
C646 C643 1.358 . S
C646 C645 1.429 . S
C646 H673 0.930 . S
C647 C643 1.332 . S
C647 C648 1.394 . S
C647 H674 0.932 . S
C648 C644 1.308 . S
C648 C647 1.394 . S
C648 H675 0.929 . S
C649 Tb640 2.764 . S
C649 C643 1.504 . S
C649 O661 1.239 . S
C649 O662 1.263 . S
O650 Tb640 2.325 . S
O650 C660 1.236 . S
O651 Tb641 2.322 1_545 S
O651 C660 1.257 . S
O652 Tb641 2.349 1_545 S
O652 C663 1.261 . S
O653 Tb640 2.303 . S
O653 C663 1.257 . S
O654 Tb641 2.415 . S
O654 C670 1.239 . S
O655 Tb641 2.399 . S
O655 C670 1.263 . S
O656 Tb641 2.325 . S
O656 C671 1.236 . S
O657 Tb640 2.322 1_565 S
O657 C671 1.257 . S
O658 Tb640 2.349 1_565 S
O658 C642 1.261 . S
O659 Tb641 2.303 . S
O659 C642 1.257 . S
C660 O650 1.236 . S
C660 O651 1.257 . S
O661 Tb640 2.415 . S
O661 C649 1.239 . S
O662 Tb640 2.399 . S
O662 C649 1.263 . S
C663 O652 1.261 . S
C663 O653 1.257 . S
C664 C667 1.358 . S
C664 C668 1.332 . S
C664 C670 1.504 . S
C665 C666 1.373 . S
C665 C669 1.308 . S
C666 C665 1.373 . S
C666 C667 1.429 . S
C666 H676 0.932 . S
C667 C664 1.358 . S
C667 C666 1.429 . S
C667 H677 0.930 . S
C668 C664 1.332 . S
C668 C669 1.394 . S
C668 H678 0.932 . S
C669 C665 1.308 . S
C669 C668 1.394 . S
C669 H679 0.929 . S
C670 Tb641 2.764 . S
C670 O654 1.239 . S
C670 O655 1.263 . S
C670 C664 1.504 . S
C671 O656 1.236 . S
C671 O657 1.257 . S
H672 C645 0.932 . S
H673 C646 0.930 . S
H674 C647 0.932 . S
H675 C648 0.929 . S
H676 C666 0.932 . S
H677 C667 0.930 . S
H678 C668 0.932 . S
H679 C669 0.929 . S
Tb680 C689 2.764 . S
Tb680 O690 2.325 . S
Tb680 O693 2.303 . S
Tb680 O697 2.322 1_565 S
Tb680 O698 2.349 1_565 S
Tb680 O701 2.415 . S
Tb680 O702 2.399 1_554 S
Tb681 O691 2.322 1_545 S
Tb681 O692 2.349 1_545 S
Tb681 O694 2.415 . S
Tb681 O695 2.399 . S
Tb681 O696 2.325 . S
Tb681 O699 2.303 . S
Tb681 C710 2.764 . S
C682 O698 1.261 . S
C682 O699 1.257 . S
C683 C686 1.358 . S
C683 C687 1.332 . S
C683 C689 1.504 1_556 S
C684 C685 1.373 . S
C684 C688 1.308 . S
C685 C684 1.373 . S
C685 C686 1.429 . S
C685 H712 0.932 . S
C686 C683 1.358 . S
C686 C685 1.429 . S
C686 H713 0.930 . S
C687 C683 1.332 . S
C687 C688 1.394 . S
C687 H714 0.932 1_556 S
C688 C684 1.308 . S
C688 C687 1.394 . S
C688 H715 0.929 . S
C689 Tb680 2.764 . S
C689 C683 1.504 1_554 S
C689 O701 1.239 . S
C689 O702 1.263 1_554 S
O690 Tb680 2.325 . S
O690 C700 1.236 . S
O691 Tb681 2.322 1_565 S
O691 C700 1.257 . S
O692 Tb681 2.349 1_565 S
O692 C703 1.261 . S
O693 Tb680 2.303 . S
O693 C703 1.257 . S
O694 Tb681 2.415 . S
O694 C710 1.239 . S
O695 Tb681 2.399 . S
O695 C710 1.263 . S
O696 Tb681 2.325 . S
O696 C711 1.236 . S
O697 Tb680 2.322 1_545 S
O697 C711 1.257 . S
O698 Tb680 2.349 1_545 S
O698 C682 1.261 . S
O699 Tb681 2.303 . S
O699 C682 1.257 . S
C700 O690 1.236 . S
C700 O691 1.257 . S
O701 Tb680 2.415 . S
O701 C689 1.239 . S
O702 Tb680 2.399 1_556 S
O702 C689 1.263 1_556 S
C703 O692 1.261 . S
C703 O693 1.257 . S
C704 C707 1.358 . S
C704 C708 1.332 . S
C704 C710 1.504 . S
C705 C706 1.373 . S
C705 C709 1.308 . S
C706 C705 1.373 . S
C706 C707 1.429 . S
C706 H716 0.932 . S
C707 C704 1.358 . S
C707 C706 1.429 . S
C707 H717 0.930 . S
C708 C704 1.332 . S
C708 C709 1.394 . S
C708 H718 0.932 . S
C709 C705 1.308 . S
C709 C708 1.394 . S
C709 H719 0.929 . S
C710 Tb681 2.764 . S
C710 O694 1.239 . S
C710 O695 1.263 . S
C710 C704 1.504 . S
C711 O696 1.236 . S
C711 O697 1.257 . S
H712 C685 0.932 . S
H713 C686 0.930 . S
H714 C687 0.932 1_554 S
H715 C688 0.929 . S
H716 C706 0.932 . S
H717 C707 0.930 . S
H718 C708 0.932 . S
H719 C709 0.929 . S
Tb720 C729 2.764 . S
Tb720 O730 2.325 . S
Tb720 O733 2.303 . S
Tb720 O737 2.322 . S
Tb720 O738 2.349 . S
Tb720 O741 2.415 . S
Tb720 O742 2.399 . S
Tb721 O731 2.322 . S
Tb721 O732 2.349 . S
Tb721 O734 2.415 . S
Tb721 O735 2.399 . S
Tb721 O736 2.325 . S
Tb721 O739 2.303 . S
Tb721 C750 2.764 . S
C722 O738 1.261 . S
C722 O739 1.257 . S
C723 C726 1.358 . S
C723 C727 1.332 . S
C723 C729 1.504 . S
C724 C725 1.373 . S
C724 C728 1.308 . S
C725 C724 1.373 . S
C725 C726 1.429 . S
C725 H752 0.932 . S
C726 C723 1.358 . S
C726 C725 1.429 . S
C726 H753 0.930 . S
C727 C723 1.332 . S
C727 C728 1.394 . S
C727 H754 0.932 . S
C728 C724 1.308 . S
C728 C727 1.394 . S
C728 H755 0.929 . S
C729 Tb720 2.764 . S
C729 C723 1.504 . S
C729 O741 1.239 . S
C729 O742 1.263 . S
O730 Tb720 2.325 . S
O730 C740 1.236 . S
O731 Tb721 2.322 . S
O731 C740 1.257 . S
O732 Tb721 2.349 . S
O732 C743 1.261 . S
O733 Tb720 2.303 . S
O733 C743 1.257 . S
O734 Tb721 2.415 . S
O734 C750 1.239 . S
O735 Tb721 2.399 . S
O735 C750 1.263 . S
O736 Tb721 2.325 . S
O736 C751 1.236 . S
O737 Tb720 2.322 . S
O737 C751 1.257 . S
O738 Tb720 2.349 . S
O738 C722 1.261 . S
O739 Tb721 2.303 . S
O739 C722 1.257 . S
C740 O730 1.236 . S
C740 O731 1.257 . S
O741 Tb720 2.415 . S
O741 C729 1.239 . S
O742 Tb720 2.399 . S
O742 C729 1.263 . S
C743 O732 1.261 . S
C743 O733 1.257 . S
C744 C747 1.358 . S
C744 C748 1.332 . S
C744 C750 1.504 . S
C745 C746 1.373 . S
C745 C749 1.308 . S
C746 C745 1.373 . S
C746 C747 1.429 . S
C746 H756 0.932 . S
C747 C744 1.358 . S
C747 C746 1.429 . S
C747 H757 0.930 . S
C748 C744 1.332 . S
C748 C749 1.394 . S
C748 H758 0.932 . S
C749 C745 1.308 . S
C749 C748 1.394 . S
C749 H759 0.929 . S
C750 Tb721 2.764 . S
C750 O734 1.239 . S
C750 O735 1.263 . S
C750 C744 1.504 . S
C751 O736 1.236 . S
C751 O737 1.257 . S
H752 C725 0.932 . S
H753 C726 0.930 . S
H754 C727 0.932 . S
H755 C728 0.929 . S
H756 C746 0.932 . S
H757 C747 0.930 . S
H758 C748 0.932 . S
H759 C749 0.929 . S
Tb760 C769 2.764 . S
Tb760 O770 2.325 . S
Tb760 O773 2.303 . S
Tb760 O777 2.322 . S
Tb760 O778 2.349 . S
Tb760 O781 2.415 . S
Tb760 O782 2.399 . S
Tb761 O771 2.322 . S
Tb761 O772 2.349 . S
Tb761 O774 2.415 . S
Tb761 O775 2.399 . S
Tb761 O776 2.325 . S
Tb761 O779 2.303 . S
Tb761 C790 2.764 . S
C762 O778 1.261 . S
C762 O779 1.257 . S
C763 C766 1.358 1_556 S
C763 C767 1.332 . S
C763 C769 1.504 . S
C764 C765 1.373 . S
C764 C768 1.308 . S
C765 C764 1.373 . S
C765 C766 1.429 . S
C765 H792 0.932 . S
C766 C763 1.358 1_554 S
C766 C765 1.429 . S
C766 H793 0.930 . S
C767 C763 1.332 . S
C767 C768 1.394 1_556 S
C767 H794 0.932 . S
C768 C764 1.308 . S
C768 C767 1.394 1_554 S
C768 H795 0.929 1_554 S
C769 Tb760 2.764 . S
C769 C763 1.504 . S
C769 O781 1.239 . S
C769 O782 1.263 . S
O770 Tb760 2.325 . S
O770 C780 1.236 . S
O771 Tb761 2.322 . S
O771 C780 1.257 . S
O772 Tb761 2.349 . S
O772 C783 1.261 . S
O773 Tb760 2.303 . S
O773 C783 1.257 . S
O774 Tb761 2.415 . S
O774 C790 1.239 . S
O775 Tb761 2.399 . S
O775 C790 1.263 . S
O776 Tb761 2.325 . S
O776 C791 1.236 . S
O777 Tb760 2.322 . S
O777 C791 1.257 . S
O778 Tb760 2.349 . S
O778 C762 1.261 . S
O779 Tb761 2.303 . S
O779 C762 1.257 . S
C780 O770 1.236 . S
C780 O771 1.257 . S
O781 Tb760 2.415 . S
O781 C769 1.239 . S
O782 Tb760 2.399 . S
O782 C769 1.263 . S
C783 O772 1.261 . S
C783 O773 1.257 . S
C784 C787 1.358 . S
C784 C788 1.332 . S
C784 C790 1.504 . S
C785 C786 1.373 . S
C785 C789 1.308 . S
C786 C785 1.373 . S
C786 C787 1.429 . S
C786 H796 0.932 . S
C787 C784 1.358 . S
C787 C786 1.429 . S
C787 H797 0.930 . S
C788 C784 1.332 . S
C788 C789 1.394 . S
C788 H798 0.932 . S
C789 C785 1.308 . S
C789 C788 1.394 . S
C789 H799 0.929 . S
C790 Tb761 2.764 . S
C790 O774 1.239 . S
C790 O775 1.263 . S
C790 C784 1.504 . S
C791 O776 1.236 . S
C791 O777 1.257 . S
H792 C765 0.932 . S
H793 C766 0.930 . S
H794 C767 0.932 . S
H795 C768 0.929 1_556 S
H796 C786 0.932 . S
H797 C787 0.930 . S
H798 C788 0.932 . S
H799 C789 0.929 . S
Tb800 C809 2.764 1_556 S
Tb800 O810 2.325 . S
Tb800 O813 2.303 . S
Tb800 O817 2.322 . S
Tb800 O818 2.349 . S
Tb800 O821 2.415 1_556 S
Tb800 O822 2.399 . S
Tb801 O811 2.322 . S
Tb801 O812 2.349 . S
Tb801 O814 2.415 . S
Tb801 O815 2.399 . S
Tb801 O816 2.325 . S
Tb801 O819 2.303 . S
Tb801 C830 2.764 . S
C802 O818 1.261 . S
C802 O819 1.257 . S
C803 C806 1.358 . S
C803 C807 1.332 . S
C803 C809 1.504 . S
C804 C805 1.373 . S
C804 C808 1.308 . S
C805 C804 1.373 . S
C805 C806 1.429 . S
C805 H832 0.932 . S
C806 C803 1.358 . S
C806 C805 1.429 . S
C806 H833 0.930 . S
C807 C803 1.332 . S
C807 C808 1.394 . S
C807 H834 0.932 . S
C808 C804 1.308 . S
C808 C807 1.394 . S
C808 H835 0.929 . S
C809 Tb800 2.764 1_554 S
C809 C803 1.504 . S
C809 O821 1.239 . S
C809 O822 1.263 1_554 S
O810 Tb800 2.325 . S
O810 C820 1.236 1_556 S
O811 Tb801 2.322 . S
O811 C820 1.257 1_556 S
O812 Tb801 2.349 . S
O812 C823 1.261 . S
O813 Tb800 2.303 . S
O813 C823 1.257 . S
O814 Tb801 2.415 . S
O814 C830 1.239 . S
O815 Tb801 2.399 . S
O815 C830 1.263 . S
O816 Tb801 2.325 . S
O816 C831 1.236 . S
O817 Tb800 2.322 . S
O817 C831 1.257 . S
O818 Tb800 2.349 . S
O818 C802 1.261 . S
O819 Tb801 2.303 . S
O819 C802 1.257 . S
C820 O810 1.236 1_554 S
C820 O811 1.257 1_554 S
O821 Tb800 2.415 1_554 S
O821 C809 1.239 . S
O822 Tb800 2.399 . S
O822 C809 1.263 1_556 S
C823 O812 1.261 . S
C823 O813 1.257 . S
C824 C827 1.358 . S
C824 C828 1.332 . S
C824 C830 1.504 . S
C825 C826 1.373 . S
C825 C829 1.308 . S
C826 C825 1.373 . S
C826 C827 1.429 . S
C826 H836 0.932 . S
C827 C824 1.358 . S
C827 C826 1.429 . S
C827 H837 0.930 . S
C828 C824 1.332 . S
C828 C829 1.394 . S
C828 H838 0.932 . S
C829 C825 1.308 . S
C829 C828 1.394 . S
C829 H839 0.929 . S
C830 Tb801 2.764 . S
C830 O814 1.239 . S
C830 O815 1.263 . S
C830 C824 1.504 . S
C831 O816 1.236 . S
C831 O817 1.257 . S
H832 C805 0.932 . S
H833 C806 0.930 . S
H834 C807 0.932 . S
H835 C808 0.929 . S
H836 C826 0.932 . S
H837 C827 0.930 . S
H838 C828 0.932 . S
H839 C829 0.929 . S
Tb840 C849 2.764 . S
Tb840 O850 2.325 . S
Tb840 O853 2.303 . S
Tb840 O857 2.322 . S
Tb840 O858 2.349 . S
Tb840 O861 2.415 . S
Tb840 O862 2.399 . S
Tb841 O851 2.322 . S
Tb841 O852 2.349 . S
Tb841 O854 2.415 1_554 S
Tb841 O855 2.399 . S
Tb841 O856 2.325 . S
Tb841 O859 2.303 . S
Tb841 C870 2.764 1_554 S
C842 O858 1.261 . S
C842 O859 1.257 . S
C843 C846 1.358 . S
C843 C847 1.332 . S
C843 C849 1.504 . S
C844 C845 1.373 . S
C844 C848 1.308 . S
C845 C844 1.373 . S
C845 C846 1.429 . S
C845 H872 0.932 . S
C846 C843 1.358 . S
C846 C845 1.429 . S
C846 H873 0.930 . S
C847 C843 1.332 . S
C847 C848 1.394 . S
C847 H874 0.932 . S
C848 C844 1.308 . S
C848 C847 1.394 . S
C848 H875 0.929 . S
C849 Tb840 2.764 . S
C849 C843 1.504 . S
C849 O861 1.239 . S
C849 O862 1.263 . S
O850 Tb840 2.325 . S
O850 C860 1.236 . S
O851 Tb841 2.322 . S
O851 C860 1.257 . S
O852 Tb841 2.349 . S
O852 C863 1.261 . S
O853 Tb840 2.303 . S
O853 C863 1.257 . S
O854 Tb841 2.415 1_556 S
O854 C870 1.239 . S
O855 Tb841 2.399 . S
O855 C870 1.263 1_554 S
O856 Tb841 2.325 . S
O856 C871 1.236 . S
O857 Tb840 2.322 . S
O857 C871 1.257 . S
O858 Tb840 2.349 . S
O858 C842 1.261 . S
O859 Tb841 2.303 . S
O859 C842 1.257 . S
C860 O850 1.236 . S
C860 O851 1.257 . S
O861 Tb840 2.415 . S
O861 C849 1.239 . S
O862 Tb840 2.399 . S
O862 C849 1.263 . S
C863 O852 1.261 . S
C863 O853 1.257 . S
C864 C867 1.358 . S
C864 C868 1.332 . S
C864 C870 1.504 . S
C865 C866 1.373 . S
C865 C869 1.308 . S
C866 C865 1.373 . S
C866 C867 1.429 . S
C866 H876 0.932 . S
C867 C864 1.358 . S
C867 C866 1.429 . S
C867 H877 0.930 . S
C868 C864 1.332 . S
C868 C869 1.394 . S
C868 H878 0.932 . S
C869 C865 1.308 . S
C869 C868 1.394 . S
C869 H879 0.929 . S
C870 Tb841 2.764 1_556 S
C870 O854 1.239 . S
C870 O855 1.263 1_556 S
C870 C864 1.504 . S
C871 O856 1.236 . S
C871 O857 1.257 . S
H872 C845 0.932 . S
H873 C846 0.930 . S
H874 C847 0.932 . S
H875 C848 0.929 . S
H876 C866 0.932 . S
H877 C867 0.930 . S
H878 C868 0.932 . S
H879 C869 0.929 . S
Tb880 C889 2.764 . S
Tb880 O890 2.325 . S
Tb880 O893 2.303 . S
Tb880 O897 2.322 . S
Tb880 O898 2.349 . S
Tb880 O901 2.415 . S
Tb880 O902 2.399 . S
Tb881 O891 2.322 . S
Tb881 O892 2.349 . S
Tb881 O894 2.415 . S
Tb881 O895 2.399 . S
Tb881 O896 2.325 . S
Tb881 O899 2.303 . S
Tb881 C910 2.764 . S
C882 O898 1.261 . S
C882 O899 1.257 . S
C883 C886 1.358 . S
C883 C887 1.332 . S
C883 C889 1.504 . S
C884 C885 1.373 . S
C884 C888 1.308 . S
C885 C884 1.373 . S
C885 C886 1.429 . S
C885 H912 0.932 . S
C886 C883 1.358 . S
C886 C885 1.429 . S
C886 H913 0.930 . S
C887 C883 1.332 . S
C887 C888 1.394 . S
C887 H914 0.932 . S
C888 C884 1.308 . S
C888 C887 1.394 . S
C888 H915 0.929 . S
C889 Tb880 2.764 . S
C889 C883 1.504 . S
C889 O901 1.239 . S
C889 O902 1.263 . S
O890 Tb880 2.325 . S
O890 C900 1.236 . S
O891 Tb881 2.322 . S
O891 C900 1.257 . S
O892 Tb881 2.349 . S
O892 C903 1.261 . S
O893 Tb880 2.303 . S
O893 C903 1.257 . S
O894 Tb881 2.415 . S
O894 C910 1.239 . S
O895 Tb881 2.399 . S
O895 C910 1.263 . S
O896 Tb881 2.325 . S
O896 C911 1.236 . S
O897 Tb880 2.322 . S
O897 C911 1.257 . S
O898 Tb880 2.349 . S
O898 C882 1.261 . S
O899 Tb881 2.303 . S
O899 C882 1.257 . S
C900 O890 1.236 . S
C900 O891 1.257 . S
O901 Tb880 2.415 . S
O901 C889 1.239 . S
O902 Tb880 2.399 . S
O902 C889 1.263 . S
C903 O892 1.261 . S
C903 O893 1.257 . S
C904 C907 1.358 . S
C904 C908 1.332 . S
C904 C910 1.504 . S
C905 C906 1.373 . S
C905 C909 1.308 . S
C906 C905 1.373 . S
C906 C907 1.429 . S
C906 H916 0.932 . S
C907 C904 1.358 . S
C907 C906 1.429 . S
C907 H917 0.930 . S
C908 C904 1.332 . S
C908 C909 1.394 . S
C908 H918 0.932 . S
C909 C905 1.308 . S
C909 C908 1.394 . S
C909 H919 0.929 . S
C910 Tb881 2.764 . S
C910 O894 1.239 . S
C910 O895 1.263 . S
C910 C904 1.504 . S
C911 O896 1.236 . S
C911 O897 1.257 . S
H912 C885 0.932 . S
H913 C886 0.930 . S
H914 C887 0.932 . S
H915 C888 0.929 . S
H916 C906 0.932 . S
H917 C907 0.930 . S
H918 C908 0.932 . S
H919 C909 0.929 . S
Tb920 C929 2.764 . S
Tb920 O930 2.325 . S
Tb920 O933 2.303 . S
Tb920 O937 2.322 . S
Tb920 O938 2.349 . S
Tb920 O941 2.415 . S
Tb920 O942 2.399 . S
Tb921 O931 2.322 . S
Tb921 O932 2.349 . S
Tb921 O934 2.415 . S
Tb921 O935 2.399 . S
Tb921 O936 2.325 . S
Tb921 O939 2.303 . S
Tb921 C950 2.764 . S
C922 O938 1.261 . S
C922 O939 1.257 . S
C923 C926 1.358 . S
C923 C927 1.332 . S
C923 C929 1.504 . S
C924 C925 1.373 . S
C924 C928 1.308 . S
C925 C924 1.373 . S
C925 C926 1.429 . S
C925 H952 0.932 . S
C926 C923 1.358 . S
C926 C925 1.429 . S
C926 H953 0.930 . S
C927 C923 1.332 . S
C927 C928 1.394 . S
C927 H954 0.932 . S
C928 C924 1.308 . S
C928 C927 1.394 . S
C928 H955 0.929 . S
C929 Tb920 2.764 . S
C929 C923 1.504 . S
C929 O941 1.239 . S
C929 O942 1.263 . S
O930 Tb920 2.325 . S
O930 C940 1.236 . S
O931 Tb921 2.322 . S
O931 C940 1.257 . S
O932 Tb921 2.349 . S
O932 C943 1.261 . S
O933 Tb920 2.303 . S
O933 C943 1.257 . S
O934 Tb921 2.415 . S
O934 C950 1.239 . S
O935 Tb921 2.399 . S
O935 C950 1.263 . S
O936 Tb921 2.325 . S
O936 C951 1.236 . S
O937 Tb920 2.322 . S
O937 C951 1.257 . S
O938 Tb920 2.349 . S
O938 C922 1.261 . S
O939 Tb921 2.303 . S
O939 C922 1.257 . S
C940 O930 1.236 . S
C940 O931 1.257 . S
O941 Tb920 2.415 . S
O941 C929 1.239 . S
O942 Tb920 2.399 . S
O942 C929 1.263 . S
C943 O932 1.261 . S
C943 O933 1.257 . S
C944 C947 1.358 . S
C944 C948 1.332 . S
C944 C950 1.504 . S
C945 C946 1.373 . S
C945 C949 1.308 . S
C946 C945 1.373 . S
C946 C947 1.429 . S
C946 H956 0.932 . S
C947 C944 1.358 . S
C947 C946 1.429 . S
C947 H957 0.930 . S
C948 C944 1.332 . S
C948 C949 1.394 . S
C948 H958 0.932 . S
C949 C945 1.308 . S
C949 C948 1.394 . S
C949 H959 0.929 . S
C950 Tb921 2.764 . S
C950 O934 1.239 . S
C950 O935 1.263 . S
C950 C944 1.504 . S
C951 O936 1.236 . S
C951 O937 1.257 . S
H952 C925 0.932 . S
H953 C926 0.930 . S
H954 C927 0.932 . S
H955 C928 0.929 . S
H956 C946 0.932 . S
H957 C947 0.930 . S
H958 C948 0.932 . S
H959 C949 0.929 . S
C23 C745 2.288 . S
C780 C63 4.719 . S
C103 C660 3.547 . S
C143 C700 3.698 . S
C900 C183 4.962 . S
C223 C865 2.759 . S
C945 C242 2.265 . S
C303 C820 3.659 . S
C343 C540 2.425 . S
C362 C620 3.481 . S
C580 C423 1.918 . S
C442 C500 4.725 . S
C482 C244 2.288 . S
C522 C311 4.719 . S
C562 C191 3.547 . S
C231 C602 3.698 . S
C642 C431 4.962 . S
C364 C682 2.759 . S
C444 C743 2.265 . S
C351 C762 3.659 . S
C71 C802 2.425 . S
C151 C863 3.481 . S
C111 C882 1.918 . S
C943 C31 4.725 . S
C180 C4 0.678 . S
C220 C44 4.499 . S
C265 C84 2.967 . S
C300 C124 2.312 . S
C164 C340 1.543 . S
C204 C465 2.037 . S
C271 C385 1.942 . S
C284 C420 2.255 . S
C324 C20 3.119 . S
C391 C100 5.235 . S
C404 C140 1.854 . S
C60 C471 3.863 . S
C671 C505 0.678 . S
C711 C545 4.499 . S
C585 C724 2.967 . S
C625 C791 2.312 . S
C831 C665 1.543 . S
C705 C924 2.037 . S
C844 C740 1.942 . S
C785 C911 2.255 . S
C511 C825 3.119 . S
C860 C591 5.235 . S
C905 C631 1.854 . S
C551 C940 3.863 . S
C2 C380 5.782 1_554 S
C425 C42 2.204 . S
C345 C82 3.627 . S
C460 C122 4.671 . S
C162 C145 1.673 . S
C105 C202 3.383 1_565 S
C263 C65 3.213 . S
C25 C282 1.425 . S
C322 C225 3.271 . S
C383 C305 2.390 . S
C402 C260 3.709 . S
C463 C185 4.049 . S
C503 C871 5.782 1_556 S
C543 C884 2.204 . S
C804 C583 3.627 . S
C951 C623 4.671 . S
C663 C604 1.673 . S
C703 C564 3.383 1_565 S
C524 C722 3.213 . S
C783 C484 1.425 . S
C823 C684 3.271 . S
C764 C842 2.390 . S
C903 C751 3.709 . S
C922 C644 4.049 . S
