# Generated by pormake.
# Topology wib, (6)-cn, num edge types: 1
# Building blocks:
#     Node 0, Type 0, BuildingBlock: VOLQOD_clean_sbu_1, # of connection points: 6
#     Node 1, Type 0, BuildingBlock: VOLQOD_clean_sbu_1, # of connection points: 6
#     Node 2, Type 0, BuildingBlock: VOLQOD_clean_sbu_1, # of connection points: 6
#     Node 3, Type 0, BuildingBlock: VOLQOD_clean_sbu_1, # of connection points: 6
#     Node 4, Type 0, BuildingBlock: VOLQOD_clean_sbu_1, # of connection points: 6
#     Node 5, Type 0, BuildingBlock: VOLQOD_clean_sbu_1, # of connection points: 6
#     Node 6, Type 0, BuildingBlock: VOLQOD_clean_sbu_1, # of connection points: 6
#     Node 7, Type 0, BuildingBlock: VOLQOD_clean_sbu_1, # of connection points: 6
#     Node 8, Type 0, BuildingBlock: VOLQOD_clean_sbu_1, # of connection points: 6
#     Node 9, Type 0, BuildingBlock: VOLQOD_clean_sbu_1, # of connection points: 6
#     Node 10, Type 0, BuildingBlock: VOLQOD_clean_sbu_1, # of connection points: 6
#     Node 11, Type 0, BuildingBlock: VOLQOD_clean_sbu_1, # of connection points: 6
#     Node 12, Type 0, BuildingBlock: VOLQOD_clean_sbu_1, # of connection points: 6
#     Node 13, Type 0, BuildingBlock: VOLQOD_clean_sbu_1, # of connection points: 6
#     Node 14, Type 0, BuildingBlock: VOLQOD_clean_sbu_1, # of connection points: 6
#     Node 15, Type 0, BuildingBlock: VOLQOD_clean_sbu_1, # of connection points: 6
#     Edge 16, Type (0, 0), BuildingBlock: TEMPAE_clean_linker_10, # of connection points: 2
#     Edge 17, Type (0, 0), BuildingBlock: TEMPAE_clean_linker_10, # of connection points: 2
#     Edge 18, Type (0, 0), BuildingBlock: TEMPAE_clean_linker_10, # of connection points: 2
#     Edge 19, Type (0, 0), BuildingBlock: TEMPAE_clean_linker_10, # of connection points: 2
#     Edge 20, Type (0, 0), BuildingBlock: TEMPAE_clean_linker_10, # of connection points: 2
#     Edge 21, Type (0, 0), BuildingBlock: TEMPAE_clean_linker_10, # of connection points: 2
#     Edge 22, Type (0, 0), BuildingBlock: TEMPAE_clean_linker_10, # of connection points: 2
#     Edge 23, Type (0, 0), BuildingBlock: TEMPAE_clean_linker_10, # of connection points: 2
#     Edge 24, Type (0, 0), BuildingBlock: TEMPAE_clean_linker_10, # of connection points: 2
#     Edge 25, Type (0, 0), BuildingBlock: TEMPAE_clean_linker_10, # of connection points: 2
#     Edge 26, Type (0, 0), BuildingBlock: TEMPAE_clean_linker_10, # of connection points: 2
#     Edge 27, Type (0, 0), BuildingBlock: TEMPAE_clean_linker_10, # of connection points: 2
#     Edge 28, Type (0, 0), BuildingBlock: TEMPAE_clean_linker_10, # of connection points: 2
#     Edge 29, Type (0, 0), BuildingBlock: TEMPAE_clean_linker_10, # of connection points: 2
#     Edge 30, Type (0, 0), BuildingBlock: TEMPAE_clean_linker_10, # of connection points: 2
#     Edge 31, Type (0, 0), BuildingBlock: TEMPAE_clean_linker_10, # of connection points: 2
#     Edge 32, Type (0, 0), BuildingBlock: TEMPAE_clean_linker_10, # of connection points: 2
#     Edge 33, Type (0, 0), BuildingBlock: TEMPAE_clean_linker_10, # of connection points: 2
#     Edge 34, Type (0, 0), BuildingBlock: TEMPAE_clean_linker_10, # of connection points: 2
#     Edge 35, Type (0, 0), BuildingBlock: TEMPAE_clean_linker_10, # of connection points: 2
#     Edge 36, Type (0, 0), BuildingBlock: TEMPAE_clean_linker_10, # of connection points: 2
#     Edge 37, Type (0, 0), BuildingBlock: TEMPAE_clean_linker_10, # of connection points: 2
#     Edge 38, Type (0, 0), BuildingBlock: TEMPAE_clean_linker_10, # of connection points: 2
#     Edge 39, Type (0, 0), BuildingBlock: TEMPAE_clean_linker_10, # of connection points: 2
#     Edge 40, Type (0, 0), BuildingBlock: TEMPAE_clean_linker_10, # of connection points: 2
#     Edge 41, Type (0, 0), BuildingBlock: TEMPAE_clean_linker_10, # of connection points: 2
#     Edge 42, Type (0, 0), BuildingBlock: TEMPAE_clean_linker_10, # of connection points: 2
#     Edge 43, Type (0, 0), BuildingBlock: TEMPAE_clean_linker_10, # of connection points: 2
#     Edge 44, Type (0, 0), BuildingBlock: TEMPAE_clean_linker_10, # of connection points: 2
#     Edge 45, Type (0, 0), BuildingBlock: TEMPAE_clean_linker_10, # of connection points: 2
#     Edge 46, Type (0, 0), BuildingBlock: TEMPAE_clean_linker_10, # of connection points: 2
#     Edge 47, Type (0, 0), BuildingBlock: TEMPAE_clean_linker_10, # of connection points: 2
#     Edge 48, Type (0, 0), BuildingBlock: TEMPAE_clean_linker_10, # of connection points: 2
#     Edge 49, Type (0, 0), BuildingBlock: TEMPAE_clean_linker_10, # of connection points: 2
#     Edge 50, Type (0, 0), BuildingBlock: TEMPAE_clean_linker_10, # of connection points: 2
#     Edge 51, Type (0, 0), BuildingBlock: TEMPAE_clean_linker_10, # of connection points: 2
#     Edge 52, Type (0, 0), BuildingBlock: TEMPAE_clean_linker_10, # of connection points: 2
#     Edge 53, Type (0, 0), BuildingBlock: TEMPAE_clean_linker_10, # of connection points: 2
#     Edge 54, Type (0, 0), BuildingBlock: TEMPAE_clean_linker_10, # of connection points: 2
#     Edge 55, Type (0, 0), BuildingBlock: TEMPAE_clean_linker_10, # of connection points: 2
#     Edge 56, Type (0, 0), BuildingBlock: TEMPAE_clean_linker_10, # of connection points: 2
#     Edge 57, Type (0, 0), BuildingBlock: TEMPAE_clean_linker_10, # of connection points: 2
#     Edge 58, Type (0, 0), BuildingBlock: TEMPAE_clean_linker_10, # of connection points: 2
#     Edge 59, Type (0, 0), BuildingBlock: TEMPAE_clean_linker_10, # of connection points: 2
#     Edge 60, Type (0, 0), BuildingBlock: TEMPAE_clean_linker_10, # of connection points: 2
#     Edge 61, Type (0, 0), BuildingBlock: TEMPAE_clean_linker_10, # of connection points: 2
#     Edge 62, Type (0, 0), BuildingBlock: TEMPAE_clean_linker_10, # of connection points: 2
#     Edge 63, Type (0, 0), BuildingBlock: TEMPAE_clean_linker_10, # of connection points: 2
# Relax obj value: 0.536
# Max RMSD: 0.268
# Mean RMSD: 0.267
data_MOF--net-wib--node1-VOLQOD_clean_sbu_1--edge1-TEMPAE_clean_linker_10
_symmetry_space_group_name_H-M    P1
_symmetry_Int_Tables_number       1
_symmetry_cell_setting            triclinic
loop_
_symmetry_equiv_pos_as_xyz
'x, y, z'
_cell_length_a     30.41295
_cell_length_b     30.397478
_cell_length_c     65.97381
_cell_angle_alpha  90.017547
_cell_angle_beta   90.011289
_cell_angle_gamma 89.770168
loop_
_atom_site_label
_atom_site_type_symbol
_atom_site_fract_x
_atom_site_fract_y
_atom_site_fract_z
_atom_type_partial_charge
O0 O 0.10997 0.59838 0.26788 0.0
Zn1 Zn 0.15742 0.55207 0.26494 0.0
O2 O 0.14177 0.51046 0.2437 0.0
Zn3 Zn 0.13999 0.45063 0.25442 0.0
Zn4 Zn 0.08959 0.52939 0.22956 0.0
Zn5 Zn 0.18606 0.51368 0.22346 0.0
O6 O 0.1983 0.41742 0.24679 0.0
O7 O 0.23231 0.4699 0.22936 0.0
O8 O 0.16743 0.52103 0.2917 0.0
O9 O 0.1439 0.4533 0.28504 0.0
O10 O 0.07881 0.42358 0.24752 0.0
O11 O 0.04549 0.48152 0.23328 0.0
O12 O 0.10037 0.53964 0.19931 0.0
O13 O 0.20959 0.58894 0.25697 0.0
O14 O 0.16414 0.50551 0.19525 0.0
O15 O 0.21022 0.57443 0.22402 0.0
C16 C 0.07757 0.60957 0.25672 0.0
C17 C 0.23281 0.43251 0.23803 0.0
C18 C 0.04446 0.44207 0.23992 0.0
C19 C 0.15804 0.48211 0.29746 0.0
C20 C 0.13064 0.52469 0.18781 0.0
C21 C 0.22024 0.59895 0.2389 0.0
O22 O 0.06652 0.58653 0.24139 0.0
O23 O 0.18265 0.31158 0.51963 0.0
Zn24 Zn 0.21656 0.36807 0.52167 0.0
O25 O 0.24841 0.38184 0.49689 0.0
Zn26 Zn 0.31147 0.38442 0.50268 0.0
Zn27 Zn 0.23458 0.3366 0.47752 0.0
Zn28 Zn 0.22734 0.43628 0.48561 0.0
O29 O 0.33753 0.4438 0.49257 0.0
O30 O 0.27473 0.48061 0.48783 0.0
O31 O 0.25488 0.37243 0.54662 0.0
O32 O 0.31931 0.38972 0.53296 0.0
O33 O 0.34005 0.32456 0.49407 0.0
O34 O 0.28329 0.29276 0.47856 0.0
O35 O 0.22685 0.36044 0.4489 0.0
O36 O 0.16704 0.41037 0.52509 0.0
O37 O 0.21367 0.43059 0.456 0.0
O38 O 0.17189 0.4569 0.49931 0.0
C39 C 0.16374 0.29705 0.50374 0.0
C40 C 0.31652 0.47981 0.48923 0.0
C41 C 0.32262 0.29121 0.48523 0.0
C42 C 0.29503 0.38365 0.54843 0.0
C43 C 0.21631 0.39922 0.44329 0.0
C44 C 0.15206 0.44265 0.51497 0.0
O45 O 0.17796 0.30673 0.4861 0.0
O46 O 0.43981 0.43346 0.76903 0.0
Zn47 Zn 0.38365 0.4697 0.76856 0.0
O48 O 0.37747 0.50699 0.74458 0.0
Zn49 Zn 0.37829 0.56897 0.75252 0.0
Zn50 Zn 0.42517 0.49 0.7272 0.0
Zn51 Zn 0.32465 0.494 0.72981 0.0
O52 O 0.32097 0.60102 0.74286 0.0
O53 O 0.28202 0.54235 0.73361 0.0
O54 O 0.3747 0.50396 0.79452 0.0
O55 O 0.37086 0.57254 0.78291 0.0
O56 O 0.44063 0.59382 0.74568 0.0
O57 O 0.47189 0.53535 0.73093 0.0
O58 O 0.40783 0.48408 0.69766 0.0
O59 O 0.33914 0.42198 0.76656 0.0
O60 O 0.33522 0.48801 0.69992 0.0
O61 O 0.29954 0.43651 0.73901 0.0
C62 C 0.45375 0.41386 0.75321 0.0
C63 C 0.28448 0.58324 0.73756 0.0
C64 C 0.47441 0.57441 0.73799 0.0
C65 C 0.36955 0.54511 0.79749 0.0
C66 C 0.36998 0.48359 0.68941 0.0
C67 C 0.30931 0.41178 0.75391 0.0
O68 O 0.44683 0.42987 0.73566 0.0
O69 O 0.33167 0.67824 0.02016 0.0
Zn70 Zn 0.28935 0.62673 0.01939 0.0
O71 O 0.253 0.6266 0.99481 0.0
Zn72 Zn 0.1906 0.62817 0.00183 0.0
Zn73 Zn 0.27159 0.67456 0.97797 0.0
Zn74 Zn 0.2657 0.57558 0.97906 0.0
O75 O 0.15987 0.57035 0.99212 0.0
O76 O 0.21944 0.53154 0.98351 0.0
O77 O 0.25242 0.62228 0.04481 0.0
O78 O 0.18462 0.62261 0.03224 0.0
O79 O 0.16602 0.69036 0.9941 0.0
O80 O 0.22627 0.72161 0.98123 0.0
O81 O 0.27846 0.6588 0.94816 0.0
O82 O 0.33238 0.57641 0.01868 0.0
O83 O 0.26817 0.58683 0.94924 0.0
O84 O 0.32506 0.55347 0.98687 0.0
C85 C 0.34939 0.69629 0.00477 0.0
C86 C 0.17842 0.53382 0.98719 0.0
C87 C 0.18634 0.72419 0.98713 0.0
C88 C 0.21088 0.62022 0.04726 0.0
C89 C 0.27529 0.62178 0.93926 0.0
C90 C 0.34603 0.55442 0.00353 0.0
O91 O 0.33117 0.69487 0.98739 0.0
O92 O 0.91975 0.42467 0.73143 0.0
Zn93 Zn 0.87105 0.46974 0.73287 0.0
O94 O 0.8769 0.50704 0.75704 0.0
Zn95 Zn 0.8783 0.5696 0.74936 0.0
Zn96 Zn 0.92815 0.48874 0.77246 0.0
Zn97 Zn 0.82739 0.49685 0.77432 0.0
O98 O 0.82095 0.60189 0.75877 0.0
O99 O 0.78435 0.54518 0.77167 0.0
O100 O 0.86652 0.50592 0.70718 0.0
O101 O 0.87207 0.57414 0.71902 0.0
O102 O 0.94012 0.59536 0.75647 0.0
O103 O 0.973 0.53585 0.76936 0.0
O104 O 0.91533 0.47892 0.8025 0.0
O105 O 0.81873 0.42955 0.73495 0.0
O106 O 0.84308 0.48887 0.8033 0.0
O107 O 0.7993 0.44058 0.76692 0.0
C108 C 0.94648 0.41047 0.74481 0.0
C109 C 0.78561 0.58514 0.76601 0.0
C110 C 0.97448 0.57579 0.76346 0.0
C111 C 0.86704 0.54742 0.70434 0.0
C112 C 0.87916 0.48063 0.81219 0.0
C113 C 0.79718 0.41843 0.75064 0.0
O114 O 0.95206 0.43097 0.76148 0.0
O115 O 0.84258 0.6472 0.48447 0.0
Zn116 Zn 0.79446 0.60194 0.48729 0.0
O117 O 0.75347 0.61869 0.50862 0.0
Zn118 Zn 0.69355 0.62323 0.4978 0.0
Zn119 Zn 0.77396 0.6706 0.52254 0.0
Zn120 Zn 0.7552 0.57378 0.52882 0.0
O121 O 0.658 0.56669 0.50544 0.0
O122 O 0.70815 0.53085 0.52369 0.0
O123 O 0.76314 0.59353 0.46065 0.0
O124 O 0.69587 0.61898 0.46713 0.0
O125 O 0.66837 0.68542 0.50481 0.0
O126 O 0.72743 0.71654 0.51882 0.0
O127 O 0.78424 0.65983 0.55275 0.0
O128 O 0.82887 0.54775 0.49469 0.0
O129 O 0.75048 0.59614 0.55709 0.0
O130 O 0.8135 0.54366 0.52749 0.0
C131 C 0.85453 0.67947 0.49549 0.0
C132 C 0.67104 0.532 0.51482 0.0
C133 C 0.68797 0.71913 0.51229 0.0
C134 C 0.72449 0.60386 0.4548 0.0
C135 C 0.76973 0.62964 0.56434 0.0
C136 C 0.83739 0.53344 0.51239 0.0
O137 O 0.83162 0.69174 0.51068 0.0
O138 O 0.57563 0.57965 0.23031 0.0
Zn139 Zn 0.62979 0.54169 0.22958 0.0
O140 O 0.63845 0.50881 0.25464 0.0
Zn141 Zn 0.63903 0.4454 0.24882 0.0
Zn142 Zn 0.59157 0.52516 0.27289 0.0
Zn143 Zn 0.69218 0.52708 0.26746 0.0
O144 O 0.69778 0.41702 0.25891 0.0
O145 O 0.73505 0.47815 0.26606 0.0
O146 O 0.6327 0.50281 0.2048 0.0
O147 O 0.64344 0.43685 0.21848 0.0
O148 O 0.57832 0.41898 0.25742 0.0
O149 O 0.54666 0.47797 0.27136 0.0
O150 O 0.61215 0.53298 0.30201 0.0
O151 O 0.67558 0.58817 0.22701 0.0
O152 O 0.68364 0.54141 0.2968 0.0
O153 O 0.71676 0.58133 0.25457 0.0
C154 C 0.55865 0.5983 0.24576 0.0
C155 C 0.73367 0.43663 0.26364 0.0
C156 C 0.54473 0.43814 0.26537 0.0
C157 C 0.63992 0.46166 0.203 0.0
C158 C 0.65061 0.54133 0.3086 0.0
C159 C 0.70652 0.60156 0.23837 0.0
O160 O 0.56439 0.58283 0.26354 0.0
O161 O 0.67665 0.3327 0.97949 0.0
Zn162 Zn 0.71649 0.38527 0.98197 0.0
O163 O 0.75362 0.3826 0.00597 0.0
Zn164 Zn 0.81596 0.38119 0.99779 0.0
Zn165 Zn 0.73585 0.33227 0.02194 0.0
Zn166 Zn 0.7423 0.43347 0.02257 0.0
O167 O 0.84742 0.43913 0.0067 0.0
O168 O 0.78999 0.47648 0.01879 0.0
O169 O 0.75173 0.3952 0.95659 0.0
O170 O 0.82041 0.38573 0.96723 0.0
O171 O 0.84264 0.32027 0.00565 0.0
O172 O 0.78434 0.28808 0.0198 0.0
O173 O 0.72503 0.34733 0.05165 0.0
O174 O 0.67218 0.43313 0.9848 0.0
O175 O 0.7388 0.4189 0.05203 0.0
O176 O 0.68433 0.46117 0.01529 0.0
C177 C 0.66176 0.30744 0.99327 0.0
C178 C 0.83008 0.47491 0.01334 0.0
C179 C 0.82406 0.28651 0.01358 0.0
C180 C 0.79289 0.39334 0.95308 0.0
C181 C 0.72932 0.38348 0.06123 0.0
C182 C 0.66108 0.45829 0.99932 0.0
O183 O 0.6798 0.30569 0.01071 0.0
O184 O 0.57017 0.07879 0.76935 0.0
Zn185 Zn 0.62709 0.04395 0.76984 0.0
O186 O 0.63622 0.0066 0.7461 0.0
Zn187 Zn 0.637 0.94475 0.7542 0.0
Zn188 Zn 0.58908 0.02201 0.72813 0.0
Zn189 Zn 0.68931 0.02129 0.73191 0.0
O190 O 0.69539 0.91429 0.74477 0.0
O191 O 0.73314 0.97419 0.73616 0.0
O192 O 0.63452 0.01036 0.79601 0.0
O193 O 0.64301 0.94183 0.78476 0.0
O194 O 0.57574 0.91811 0.74674 0.0
O195 O 0.54359 0.97551 0.7315 0.0
O196 O 0.60757 0.02729 0.69883 0.0
O197 O 0.67031 0.09282 0.76847 0.0
O198 O 0.68017 0.02607 0.7018 0.0
O199 O 0.7118 0.07983 0.74133 0.0
C200 C 0.55737 0.09819 0.75329 0.0
C201 C 0.73159 0.93311 0.73982 0.0
C202 C 0.54189 0.93644 0.73857 0.0
C203 C 0.64144 0.96958 0.79924 0.0
C204 C 0.64572 0.02874 0.69094 0.0
C205 C 0.70038 0.10412 0.75616 0.0
O206 O 0.56572 0.08194 0.73592 0.0
O207 O 0.68473 0.81148 0.02151 0.0
Zn208 Zn 0.71897 0.86872 0.02219 0.0
O209 O 0.75208 0.87989 0.99735 0.0
Zn210 Zn 0.81502 0.88022 0.00318 0.0
Zn211 Zn 0.73541 0.8341 0.97896 0.0
Zn212 Zn 0.7342 0.93406 0.98482 0.0
O213 O 0.84328 0.93898 0.99333 0.0
O214 O 0.78171 0.97758 0.98816 0.0
O215 O 0.75703 0.87552 0.04722 0.0
O216 O 0.82293 0.88517 0.03343 0.0
O217 O 0.84108 0.81928 0.99468 0.0
O218 O 0.78213 0.78799 0.98066 0.0
O219 O 0.72711 0.85516 0.95007 0.0
O220 O 0.66962 0.91198 0.02362 0.0
O221 O 0.72538 0.92738 0.95477 0.0
O222 O 0.6772 0.95573 0.99687 0.0
C223 C 0.66383 0.79941 0.00573 0.0
C224 C 0.82336 0.97561 0.98997 0.0
C225 C 0.8219 0.78576 0.98679 0.0
C226 C 0.79811 0.88305 0.04894 0.0
C227 C 0.72325 0.89409 0.94313 0.0
C228 C 0.65584 0.94319 0.01243 0.0
O229 O 0.67718 0.80984 0.98809 0.0
O230 O 0.91585 0.92605 0.26929 0.0
Zn231 Zn 0.865 0.96865 0.26653 0.0
O232 O 0.87356 0.00845 0.24355 0.0
Zn233 Zn 0.87332 0.07005 0.25236 0.0
Zn234 Zn 0.92526 0.99078 0.22855 0.0
Zn235 Zn 0.82647 1.00072 0.22485 0.0
O236 O 0.81545 0.10198 0.24329 0.0
O237 O 0.78026 0.04507 0.22977 0.0
O238 O 0.85548 1.00253 0.29267 0.0
O239 O 0.86556 0.07168 0.28266 0.0
O240 O 0.93487 0.0971 0.24602 0.0
O241 O 0.96846 0.03952 0.23162 0.0
O242 O 0.91295 0.97934 0.19856 0.0
O243 O 0.81493 0.92682 0.2611 0.0
O244 O 0.84444 1.00349 0.19585 0.0
O245 O 0.80258 0.94062 0.22853 0.0
C246 C 0.94533 0.91394 0.25672 0.0
C247 C 0.78029 0.08452 0.2362 0.0
C248 C 0.96928 0.07891 0.23832 0.0
C249 C 0.85738 0.04365 0.29648 0.0
C250 C 0.87947 0.98889 0.18777 0.0
C251 C 0.79829 0.91633 0.24406 0.0
O252 O 0.95138 0.93485 0.2402 0.0
O253 O 0.83983 0.15346 0.51712 0.0
Zn254 Zn 0.78957 0.11056 0.51698 0.0
O255 O 0.75075 0.12105 0.49392 0.0
Zn256 Zn 0.68927 0.12355 0.50264 0.0
Zn257 Zn 0.77078 0.17144 0.47868 0.0
Zn258 Zn 0.75871 0.07283 0.47596 0.0
O259 O 0.65639 0.06634 0.49362 0.0
O260 O 0.71303 0.02856 0.48096 0.0
O261 O 0.7566 0.11102 0.54345 0.0
O262 O 0.68714 0.11739 0.53319 0.0
O263 O 0.66468 0.18634 0.49559 0.0
O264 O 0.72475 0.21753 0.4825 0.0
O265 O 0.77831 0.15859 0.44846 0.0
O266 O 0.82149 0.05285 0.51427 0.0
O267 O 0.75647 0.08926 0.44681 0.0
O268 O 0.81867 0.04862 0.4808 0.0
C269 C 0.85284 0.18248 0.50458 0.0
C270 C 0.67326 0.03039 0.48687 0.0
C271 C 0.685 0.22021 0.48862 0.0
C272 C 0.71556 0.11275 0.54723 0.0
C273 C 0.76887 0.12439 0.43818 0.0
C274 C 0.83733 0.03956 0.49752 0.0
O275 O 0.82988 0.19276 0.4891 0.0
O276 O 0.43238 0.92954 0.2279 0.0
Zn277 Zn 0.38129 0.97173 0.22727 0.0
O278 O 0.3749 1.00358 0.25282 0.0
Zn279 Zn 0.37434 0.06734 0.24774 0.0
Zn280 Zn 0.42291 0.98702 0.27049 0.0
Zn281 Zn 0.32181 0.98476 0.26609 0.0
O282 O 0.31568 0.0953 0.25812 0.0
O283 O 0.27911 0.03412 0.2658 0.0
O284 O 0.38099 0.0123 0.203 0.0
O285 O 0.37016 0.07732 0.21758 0.0
O286 O 0.43495 0.09385 0.25632 0.0
O287 O 0.46781 0.03431 0.26907 0.0
O288 O 0.40371 0.97767 0.29969 0.0
O289 O 0.33226 0.92892 0.22356 0.0
O290 O 0.33221 0.96761 0.29498 0.0
O291 O 0.29545 0.93215 0.25248 0.0
C292 C 0.45214 0.91253 0.24304 0.0
C293 C 0.28012 0.07564 0.2633 0.0
C294 C 0.4691 0.07453 0.26364 0.0
C295 C 0.374 0.05361 0.20175 0.0
C296 C 0.36581 0.96769 0.30645 0.0
C297 C 0.30252 0.91448 0.23531 0.0
O298 O 0.44975 0.92973 0.26064 0.0
O299 O 0.34138 0.15489 0.98148 0.0
Zn300 Zn 0.29463 0.10839 0.98505 0.0
O301 O 0.25504 0.12371 0.00718 0.0
Zn302 Zn 0.19418 0.12706 0.99745 0.0
Zn303 Zn 0.27523 0.176 0.02084 0.0
Zn304 Zn 0.25954 0.07852 0.02714 0.0
O305 O 0.16014 0.07034 0.00597 0.0
O306 O 0.21297 0.03466 0.02262 0.0
O307 O 0.26106 0.09824 0.95908 0.0
O308 O 0.19366 0.12144 0.96688 0.0
O309 O 0.16859 0.18905 0.00437 0.0
O310 O 0.22808 0.22132 0.01741 0.0
O311 O 0.28637 0.16601 0.05101 0.0
O312 O 0.33151 0.05547 0.99183 0.0
O313 O 0.25638 0.10048 0.05551 0.0
O314 O 0.31844 0.04982 0.02479 0.0
C315 C 0.35409 0.18634 0.99283 0.0
C316 C 0.17485 0.03553 0.0147 0.0
C317 C 0.18819 0.22317 0.01143 0.0
C318 C 0.22144 0.10679 0.95405 0.0
C319 C 0.27389 0.13503 0.06267 0.0
C320 C 0.34165 0.04086 0.0093 0.0
O321 O 0.3323 0.19741 0.00855 0.0
O322 O 0.0857 0.08387 0.7305 0.0
Zn323 Zn 0.13759 0.04269 0.73087 0.0
O324 O 0.13728 0.00526 0.75513 0.0
Zn325 Zn 0.13744 0.94268 0.7474 0.0
Zn326 Zn 0.08769 0.0216 0.77213 0.0
Zn327 Zn 0.18859 0.01782 0.77078 0.0
O328 O 0.19539 0.91162 0.75691 0.0
O329 O 0.23222 0.97014 0.76788 0.0
O330 O 0.1418 0.00689 0.70512 0.0
O331 O 0.14306 0.93835 0.71691 0.0
O332 O 0.07646 0.9157 0.75501 0.0
O333 O 0.04373 0.97358 0.7695 0.0
O334 O 0.10371 0.02981 0.80204 0.0
O335 O 0.18693 0.08679 0.73171 0.0
O336 O 0.17636 0.02642 0.79997 0.0
O337 O 0.21367 0.07477 0.76247 0.0
C338 C 0.06201 0.09856 0.74495 0.0
C339 C 0.23098 0.92954 0.76325 0.0
C340 C 0.0425 0.93404 0.76303 0.0
C341 C 0.14452 0.9655 0.70221 0.0
C342 C 0.14154 0.03149 0.8103 0.0
C343 C 0.21122 0.09792 0.74652 0.0
O344 O 0.06106 0.07926 0.76213 0.0
O345 O 0.174 0.83102 0.47882 0.0
Zn346 Zn 0.213 0.88441 0.48006 0.0
O347 O 0.25087 0.88472 0.5038 0.0
Zn348 Zn 0.31295 0.88474 0.4951 0.0
Zn349 Zn 0.23503 0.83502 0.52062 0.0
Zn350 Zn 0.23813 0.93624 0.51974 0.0
O351 O 0.34311 0.94395 0.50352 0.0
O352 O 0.28468 0.9802 0.5153 0.0
O353 O 0.24678 0.89314 0.45431 0.0
O354 O 0.31633 0.88754 0.46436 0.0
O355 O 0.34118 0.82476 0.50329 0.0
O356 O 0.28443 0.79193 0.51847 0.0
O357 O 0.2252 0.85152 0.55022 0.0
O358 O 0.16821 0.93167 0.48206 0.0
O359 O 0.23571 0.92364 0.54945 0.0
O360 O 0.1792 0.96166 0.51223 0.0
C361 C 0.1602 0.80656 0.49313 0.0
C362 C 0.32482 0.97953 0.50988 0.0
C363 C 0.32381 0.79101 0.5118 0.0
C364 C 0.28777 0.89271 0.45042 0.0
C365 C 0.22821 0.88847 0.55924 0.0
C366 C 0.15627 0.95736 0.49622 0.0
O367 O 0.17906 0.80646 0.5104 0.0
C368 C 0.31097 0.42495 0.22729 0.0
C369 C 0.27661 0.41047 0.23984 0.0
C370 C 0.35511 0.41636 0.23202 0.0
C371 C 0.3656 0.39124 0.24945 0.0
C372 C 0.33098 0.37149 0.26063 0.0
C373 C 0.28677 0.38185 0.25589 0.0
C374 C 0.39044 0.43827 0.21952 0.0
C375 C 0.34044 0.34206 0.2785 0.0
C376 C 0.49035 0.38032 0.25349 0.0
C377 C 0.50025 0.41732 0.26539 0.0
C378 C 0.44624 0.36793 0.2499 0.0
C379 C 0.41137 0.39397 0.25784 0.0
C380 C 0.42146 0.42876 0.27132 0.0
C381 C 0.46548 0.43935 0.27518 0.0
C382 C 0.43725 0.32875 0.23654 0.0
C383 C 0.38586 0.45782 0.28019 0.0
H384 H 0.30356 0.44619 0.21452 0.0
H385 H 0.26062 0.36991 0.26556 0.0
H386 H 0.4076 0.46326 0.22887 0.0
H387 H 0.41528 0.41378 0.21457 0.0
H388 H 0.37693 0.45484 0.20585 0.0
H389 H 0.31335 0.31819 0.28087 0.0
H390 H 0.37175 0.3237 0.27645 0.0
H391 H 0.34324 0.36232 0.29242 0.0
H392 H 0.51675 0.36248 0.24607 0.0
H393 H 0.47249 0.46731 0.28484 0.0
H394 H 0.43584 0.33948 0.22049 0.0
H395 H 0.40545 0.31303 0.24041 0.0
H396 H 0.46397 0.30388 0.23788 0.0
H397 H 0.36861 0.47562 0.26781 0.0
H398 H 0.3991 0.48247 0.29099 0.0
H399 H 0.36113 0.43765 0.28823 0.0
C400 C 0.32953 0.71378 0.52412 0.0
C401 C 0.34602 0.7472 0.51158 0.0
C402 C 0.33865 0.66932 0.52028 0.0
C403 C 0.36591 0.65766 0.5037 0.0
C404 C 0.38754 0.69141 0.49274 0.0
C405 C 0.37697 0.73593 0.49664 0.0
C406 C 0.31501 0.63484 0.5326 0.0
C407 C 0.41898 0.68059 0.47578 0.0
C408 C 0.37545 0.53274 0.50068 0.0
C409 C 0.33895 0.52317 0.48846 0.0
C410 C 0.3882 0.57677 0.50418 0.0
C411 C 0.36331 0.61171 0.49557 0.0
C412 C 0.3294 0.6017 0.4816 0.0
C413 C 0.31806 0.55774 0.47811 0.0
C414 C 0.42607 0.58565 0.51833 0.0
C415 C 0.30177 0.63742 0.47192 0.0
H416 H 0.30642 0.72216 0.53604 0.0
H417 H 0.39043 0.76141 0.487 0.0
H418 H 0.29022 0.61817 0.52296 0.0
H419 H 0.33845 0.60943 0.53801 0.0
H420 H 0.29788 0.64914 0.54596 0.0
H421 H 0.44242 0.70795 0.47315 0.0
H422 H 0.43781 0.65007 0.4791 0.0
H423 H 0.40023 0.6753 0.46157 0.0
H424 H 0.39203 0.50628 0.50867 0.0
H425 H 0.29036 0.55056 0.46831 0.0
H426 H 0.41365 0.58787 0.5341 0.0
H427 H 0.44269 0.61706 0.51459 0.0
H428 H 0.45058 0.55848 0.51776 0.0
H429 H 0.28233 0.65466 0.48376 0.0
H430 H 0.27864 0.62421 0.46041 0.0
H431 H 0.32304 0.66215 0.4645 0.0
C432 C 0.23106 0.63634 0.75369 0.0
C433 C 0.242 0.6076 0.73782 0.0
C434 C 0.18661 0.64647 0.75797 0.0
C435 C 0.15267 0.62653 0.74641 0.0
C436 C 0.16413 0.60201 0.72892 0.0
C437 C 0.20853 0.59331 0.72476 0.0
C438 C 0.17606 0.67517 0.77597 0.0
C439 C 0.12955 0.58023 0.71595 0.0
C440 C 0.05444 0.57463 0.77194 0.0
C441 C 0.01889 0.5967 0.76281 0.0
C442 C 0.09809 0.58624 0.76786 0.0
C443 C 0.10702 0.622 0.75475 0.0
C444 C 0.07138 0.64766 0.7473 0.0
C445 C 0.02765 0.63436 0.75117 0.0
C446 C 0.13455 0.5575 0.77619 0.0
C447 C 0.07908 0.68756 0.73423 0.0
H448 H 0.25667 0.64777 0.76382 0.0
H449 H 0.21685 0.57165 0.71226 0.0
H450 H 0.14523 0.69409 0.77348 0.0
H451 H 0.17155 0.65428 0.78959 0.0
H452 H 0.20325 0.69847 0.77915 0.0
H453 H 0.14367 0.56546 0.70197 0.0
H454 H 0.11328 0.55379 0.72476 0.0
H455 H 0.10389 0.60433 0.71149 0.0
H456 H 0.04834 0.54611 0.78138 0.0
H457 H 1.00062 0.65217 0.74423 0.0
H458 H 0.15898 0.57775 0.7844 0.0
H459 H 0.15195 0.54084 0.76352 0.0
H460 H 0.12214 0.53188 0.78672 0.0
H461 H 0.11089 0.70355 0.73783 0.0
H462 H 0.05214 0.71199 0.73615 0.0
H463 H 0.07962 0.67755 0.71806 0.0
C464 C 0.18883 0.30295 0.02032 0.0
C465 C 0.16713 0.26766 0.01093 0.0
C466 C 0.17676 0.34671 0.01653 0.0
C467 C 0.14102 0.35596 0.00341 0.0
C468 C 0.11578 0.32052 0.99568 0.0
C469 C 0.12945 0.2767 0.9993 0.0
C470 C 0.20502 0.38299 0.02518 0.0
C471 C 0.07599 0.32857 0.98255 0.0
C472 C 0.12562 0.48001 0.00292 0.0
C473 C 0.15458 0.49127 0.98723 0.0
C474 C 0.1158 0.43544 0.00694 0.0
C475 C 0.13624 0.40178 0.99529 0.0
C476 C 0.16099 0.41362 0.97796 0.0
C477 C 0.16941 0.45811 0.97407 0.0
C478 C 0.08686 0.42443 0.02476 0.0
C479 C 0.18328 0.37933 0.96491 0.0
H480 H 0.21733 0.29659 0.02975 0.0
H481 H 0.11193 0.24983 0.99218 0.0
H482 H 0.22182 0.40065 0.01267 0.0
H483 H 0.1844 0.40728 0.03339 0.0
H484 H 0.23046 0.37033 0.03579 0.0
H485 H 0.05186 0.30144 0.98416 0.0
H486 H 0.05958 0.36018 0.98636 0.0
H487 H 0.08621 0.32978 0.96642 0.0
H488 H 0.11377 0.50541 0.01311 0.0
H489 H 0.19122 0.46674 0.9617 0.0
H490 H 0.10755 0.41926 0.0384 0.0
H491 H 0.06805 0.3938 0.02196 0.0
H492 H 0.06347 0.45166 0.02807 0.0
H493 H 0.20974 0.36291 0.97374 0.0
H494 H 0.19811 0.39377 0.95105 0.0
H495 H 0.15952 0.35371 0.96026 0.0
C496 C 0.52791 0.63262 0.75042 0.0
C497 C 0.51932 0.5942 0.73926 0.0
C498 C 0.57156 0.64583 0.75457 0.0
C499 C 0.60734 0.61935 0.74793 0.0
C500 C 0.59872 0.58239 0.73548 0.0
C501 C 0.55517 0.57083 0.73109 0.0
C502 C 0.57897 0.68674 0.76702 0.0
C503 C 0.63536 0.55268 0.72808 0.0
C504 C 0.73118 0.63562 0.74884 0.0
C505 C 0.74258 0.60861 0.76529 0.0
C506 C 0.68659 0.64447 0.74429 0.0
C507 C 0.65294 0.62509 0.75619 0.0
C508 C 0.6647 0.60244 0.77416 0.0
C509 C 0.70924 0.59494 0.77856 0.0
C510 C 0.67561 0.67112 0.72569 0.0
C511 C 0.63039 0.58134 0.78751 0.0
H512 H 0.50071 0.65138 0.75665 0.0
H513 H 0.54934 0.54155 0.72212 0.0
H514 H 0.57969 0.67792 0.78332 0.0
H515 H 0.61066 0.70267 0.76315 0.0
H516 H 0.55187 0.71087 0.76475 0.0
H517 H 0.62325 0.52608 0.718 0.0
H518 H 0.66023 0.57199 0.71968 0.0
H519 H 0.65217 0.53726 0.74124 0.0
H520 H 0.75662 0.64659 0.73852 0.0
H521 H 0.71781 0.57465 0.79151 0.0
H522 H 0.64527 0.69088 0.72806 0.0
H523 H 0.66981 0.64868 0.71271 0.0
H524 H 0.703 0.69349 0.72157 0.0
H525 H 0.60403 0.60525 0.79126 0.0
H526 H 0.64457 0.56854 0.80187 0.0
H527 H 0.61497 0.55352 0.77927 0.0
C528 C 0.62486 0.27432 0.499 0.0
C529 C 0.66511 0.26533 0.48936 0.0
C530 C 0.61085 0.31816 0.50242 0.0
C531 C 0.63836 0.35371 0.49667 0.0
C532 C 0.67751 0.34463 0.4858 0.0
C533 C 0.68982 0.30095 0.48201 0.0
C534 C 0.56769 0.32594 0.51309 0.0
C535 C 0.70853 0.38094 0.47949 0.0
C536 C 0.62372 0.47776 0.49578 0.0
C537 C 0.64738 0.48929 0.51325 0.0
C538 C 0.61483 0.43317 0.49134 0.0
C539 C 0.63104 0.39962 0.50436 0.0
C540 C 0.6499 0.4117 0.52316 0.0
C541 C 0.65725 0.45626 0.52746 0.0
C542 C 0.59165 0.42189 0.47184 0.0
C543 C 0.66734 0.37751 0.53773 0.0
H544 H 0.60506 0.24731 0.50453 0.0
H545 H 0.72056 0.29486 0.47417 0.0
H546 H 0.57289 0.32431 0.52972 0.0
H547 H 0.55343 0.3586 0.50933 0.0
H548 H 0.54357 0.30003 0.50904 0.0
H549 H 0.73741 0.36834 0.47093 0.0
H550 H 0.69113 0.40526 0.46985 0.0
H551 H 0.72066 0.39856 0.49312 0.0
H552 H 0.6154 0.50294 0.48479 0.0
H553 H 0.67462 0.46493 0.54124 0.0
H554 H 0.57108 0.39207 0.47369 0.0
H555 H 0.61634 0.41502 0.45986 0.0
H556 H 0.57056 0.44956 0.4666 0.0
H557 H 0.64198 0.35232 0.54081 0.0
H558 H 0.6778 0.39214 0.55239 0.0
H559 H 0.69609 0.36053 0.53085 0.0
C560 C 0.8098 0.43108 0.2768 0.0
C561 C 0.77669 0.4133 0.26449 0.0
C562 C 0.85433 0.42194 0.27323 0.0
C563 C 0.86632 0.39348 0.25713 0.0
C564 C 0.83281 0.37056 0.24654 0.0
C565 C 0.78819 0.3811 0.25018 0.0
C566 C 0.88847 0.44705 0.28513 0.0
C567 C 0.84396 0.33789 0.23012 0.0
C568 C 0.96526 0.4401 0.23016 0.0
C569 C 1.00041 0.42055 0.2407 0.0
C570 C 0.92151 0.42888 0.23424 0.0
C571 C 0.91217 0.39618 0.24889 0.0
C572 C 0.94756 0.37258 0.25785 0.0
C573 C 0.99136 0.3854 0.25386 0.0
C574 C 0.88527 0.4552 0.22419 0.0
C575 C 0.93942 0.3358 0.27269 0.0
H576 H 0.80106 0.45543 0.28815 0.0
H577 H 0.76285 0.36695 0.24066 0.0
H578 H 0.91428 0.42444 0.29087 0.0
H579 H 0.90466 0.47139 0.27508 0.0
H580 H 0.87396 0.46494 0.29823 0.0
H581 H 0.81703 0.31372 0.22803 0.0
H582 H 0.84858 0.3555 0.21556 0.0
H583 H 0.8749 0.31995 0.23365 0.0
H584 H 0.97172 0.46656 0.21957 0.0
H585 H 0.01814 0.36955 0.26192 0.0
H586 H 0.86757 0.47499 0.23578 0.0
H587 H 0.86103 0.43295 0.21703 0.0
H588 H 0.89798 0.47792 0.2124 0.0
H589 H 0.93717 0.34953 0.28824 0.0
H590 H 0.96693 0.31164 0.2725 0.0
H591 H 0.90825 0.3184 0.26932 0.0
C592 C 0.83889 0.55171 0.02541 0.0
C593 C 0.85345 0.51781 0.01257 0.0
C594 C 0.84724 0.596 0.02097 0.0
C595 C 0.87176 0.60696 0.00345 0.0
C596 C 0.89185 0.57268 0.99207 0.0
C597 C 0.88204 0.52833 0.99661 0.0
C598 C 0.82527 0.63099 0.03376 0.0
C599 C 0.92053 0.58272 0.97404 0.0
C600 C 0.82055 0.70594 0.97787 0.0
C601 C 0.84278 0.74114 0.98708 0.0
C602 C 0.83194 0.66208 0.98191 0.0
C603 C 0.8676 0.65261 0.99505 0.0
C604 C 0.89348 0.68786 0.00251 0.0
C605 C 0.88042 0.73179 0.99869 0.0
C606 C 0.803 0.62602 0.97357 0.0
C607 C 0.93327 0.67953 0.01561 0.0
H608 H 0.81747 0.5438 0.03802 0.0
H609 H 0.89379 0.50243 0.98667 0.0
H610 H 0.84928 0.65657 0.03819 0.0
H611 H 0.79895 0.64732 0.0248 0.0
H612 H 0.81033 0.61724 0.04774 0.0
H613 H 0.94371 0.55522 0.9709 0.0
H614 H 0.89962 0.58743 0.96043 0.0
H615 H 0.93958 0.61335 0.97648 0.0
H616 H 0.79202 0.71249 0.96848 0.0
H617 H 0.89834 0.75853 0.0057 0.0
H618 H 0.7859 0.60917 0.98622 0.0
H619 H 0.82314 0.60103 0.96555 0.0
H620 H 0.77777 0.63875 0.96287 0.0
H621 H 0.92312 0.6784 0.03174 0.0
H622 H 0.95763 0.70643 0.01396 0.0
H623 H 0.94937 0.64776 0.01178 0.0
C624 C 0.78509 0.87734 0.75418 0.0
C625 C 0.77452 0.90946 0.73969 0.0
C626 C 0.82943 0.86575 0.75795 0.0
C627 C 0.86364 0.88762 0.74736 0.0
C628 C 0.85251 0.91623 0.7312 0.0
C629 C 0.80825 0.92626 0.72744 0.0
C630 C 0.8395 0.83282 0.7744 0.0
C631 C 0.88735 0.94041 0.71931 0.0
C632 C 0.96402 0.93206 0.7739 0.0
C633 C 0.99847 0.91243 0.76289 0.0
C634 C 0.91997 0.92137 0.7702 0.0
C635 C 0.90963 0.889 0.75553 0.0
C636 C 0.94437 0.86496 0.74627 0.0
C637 C 0.98848 0.87737 0.74982 0.0
C638 C 0.88449 0.94807 0.7806 0.0
C639 C 0.93515 0.8282 0.73155 0.0
H640 H 0.75929 0.86383 0.76362 0.0
H641 H 0.80025 0.95041 0.7159 0.0
H642 H 0.87101 0.81537 0.77149 0.0
H643 H 0.84215 0.85009 0.78916 0.0
H644 H 0.81272 0.80824 0.77573 0.0
H645 H 0.8733 0.95934 0.70643 0.0
H646 H 0.90479 0.96369 0.72946 0.0
H647 H 0.91206 0.91697 0.71326 0.0
H648 H 0.97124 0.95837 0.78447 0.0
H649 H 0.0147 0.86136 0.74145 0.0
H650 H 0.86036 0.92606 0.78798 0.0
H651 H 0.86648 0.96807 0.7692 0.0
H652 H 0.89798 0.97062 0.79228 0.0
H653 H 0.90374 0.81143 0.73513 0.0
H654 H 0.96222 0.80354 0.73166 0.0
H655 H 0.9328 0.84176 0.71598 0.0
C656 C 0.8286 0.05247 0.97782 0.0
C657 C 0.84677 0.01842 0.98952 0.0
C658 C 0.83876 0.09662 0.9816 0.0
C659 C 0.86867 0.1073 0.99729 0.0
C660 C 0.89155 0.07279 0.00735 0.0
C661 C 0.88 0.02856 0.00349 0.0
C662 C 0.81348 0.13183 0.97031 0.0
C663 C 0.9255 0.08243 0.02337 0.0
C664 C 0.8799 0.23192 0.99994 0.0
C665 C 0.84558 0.24229 0.01339 0.0
C666 C 0.89176 0.18766 0.99614 0.0
C667 C 0.86802 0.1532 0.00561 0.0
C668 C 0.83659 0.16386 0.02068 0.0
C669 C 0.82628 0.20806 0.02454 0.0
C670 C 0.92739 0.17799 0.98088 0.0
C671 C 0.81034 0.12862 0.03133 0.0
H672 H 0.80341 0.04475 0.96674 0.0
H673 H 0.8944 1.00247 0.01255 0.0
H674 H 0.79053 0.14867 0.98089 0.0
H675 H 0.83619 0.15698 0.96422 0.0
H676 H 0.79405 0.11818 0.95753 0.0
H677 H 0.94982 0.05517 0.02454 0.0
H678 H 0.94314 0.11354 0.02014 0.0
H679 H 0.90907 0.08578 0.0383 0.0
H680 H 0.89556 0.25799 0.99142 0.0
H681 H 0.8005 0.2156 0.03536 0.0
H682 H 0.91252 0.17432 0.96562 0.0
H683 H 0.94505 0.14698 0.98458 0.0
H684 H 0.95151 0.2053 0.98015 0.0
H685 H 0.78897 0.11158 0.02019 0.0
H686 H 0.78917 0.14224 0.04356 0.0
H687 H 0.83258 0.10363 0.03806 0.0
C688 C 0.52246 0.1332 0.25173 0.0
C689 C 0.51333 0.09586 0.26353 0.0
C690 C 0.56631 0.14623 0.24797 0.0
C691 C 0.60171 0.1206 0.25567 0.0
C692 C 0.5924 0.08543 0.26906 0.0
C693 C 0.54861 0.07407 0.27303 0.0
C694 C 0.57449 0.18565 0.23465 0.0
C695 C 0.62861 0.05685 0.27771 0.0
C696 C 0.7025 0.09137 0.22505 0.0
C697 C 0.73657 0.10666 0.23755 0.0
C698 C 0.65822 0.09932 0.22976 0.0
C699 C 0.64733 0.12431 0.24719 0.0
C700 C 0.68161 0.14482 0.25831 0.0
C701 C 0.72597 0.13533 0.25352 0.0
C702 C 0.62327 0.07668 0.21731 0.0
C703 C 0.67169 0.17387 0.27627 0.0
H704 H 0.49564 0.15079 0.2445 0.0
H705 H 0.54218 0.04582 0.28259 0.0
H706 H 0.60569 0.20229 0.23874 0.0
H707 H 0.57681 0.17491 0.21862 0.0
H708 H 0.54702 0.20974 0.23579 0.0
H709 H 0.61599 0.03204 0.28859 0.0
H710 H 0.64572 0.03924 0.26523 0.0
H711 H 0.65333 0.07734 0.2856 0.0
H712 H 0.71036 0.06989 0.21242 0.0
H713 H 0.75195 0.14763 0.26322 0.0
H714 H 0.59748 0.10048 0.21268 0.0
H715 H 0.60722 0.05085 0.22659 0.0
H716 H 0.63694 0.06098 0.20345 0.0
H717 H 0.64016 0.19186 0.27422 0.0
H718 H 0.69846 0.19805 0.27877 0.0
H719 H 0.66902 0.15337 0.29011 0.0
C720 C 0.62815 0.77273 0.50124 0.0
C721 C 0.66756 0.76397 0.51164 0.0
C722 C 0.61396 0.81646 0.49777 0.0
C723 C 0.64043 0.85214 0.50431 0.0
C724 C 0.67844 0.84327 0.51604 0.0
C725 C 0.69099 0.79962 0.5198 0.0
C726 C 0.57195 0.82409 0.48614 0.0
C727 C 0.7082 0.8798 0.5233 0.0
C728 C 0.66207 0.95468 0.47398 0.0
C729 C 0.64969 0.98767 0.48776 0.0
C730 C 0.65481 0.91008 0.47815 0.0
C731 C 0.63368 0.89794 0.49643 0.0
C732 C 0.61534 0.93138 0.50891 0.0
C733 C 0.62401 0.97605 0.50457 0.0
C734 C 0.67474 0.87602 0.46419 0.0
C735 C 0.59009 0.92003 0.52784 0.0
H736 H 0.6093 0.74565 0.49509 0.0
H737 H 0.721 0.79362 0.52823 0.0
H738 H 0.55635 0.85595 0.49023 0.0
H739 H 0.57921 0.82446 0.46966 0.0
H740 H 0.54812 0.79716 0.48896 0.0
H741 H 0.73584 0.8674 0.53274 0.0
H742 H 0.72217 0.89743 0.51006 0.0
H743 H 0.68927 0.90405 0.53235 0.0
H744 H 0.68128 0.96352 0.46075 0.0
H745 H 0.61402 1.00128 0.51526 0.0
H746 H 0.65038 0.8502 0.46055 0.0
H747 H 0.70297 0.85983 0.47187 0.0
H748 H 0.68664 0.89063 0.44978 0.0
H749 H 0.57066 0.88954 0.52569 0.0
H750 H 0.56758 0.94724 0.5323 0.0
H751 H 0.61342 0.91438 0.54051 0.0
C752 C 0.04801 0.08199 0.22797 0.0
C753 C 0.01334 0.1003 0.2393 0.0
C754 C 0.09202 0.0916 0.23238 0.0
C755 C 0.1021 0.12141 0.2482 0.0
C756 C 0.06724 0.14427 0.25798 0.0
C757 C 0.02316 0.13307 0.2536 0.0
C758 C 0.12766 0.06624 0.22141 0.0
C759 C 0.07626 0.17822 0.27409 0.0
C760 C 0.20294 0.07957 0.27545 0.0
C761 C 0.23694 0.09882 0.26417 0.0
C762 C 0.15871 0.08997 0.27176 0.0
C763 C 0.14788 0.12132 0.25666 0.0
C764 C 0.18223 0.14523 0.24718 0.0
C765 C 0.22652 0.13337 0.25087 0.0
C766 C 0.12365 0.06357 0.28242 0.0
C767 C 0.17237 0.18075 0.23189 0.0
H768 H 0.0409 0.05742 0.21653 0.0
H769 H 0.99676 0.14792 0.2623 0.0
H770 H 0.15267 0.08903 0.21525 0.0
H771 H 0.14455 0.04382 0.2322 0.0
H772 H 0.11448 0.04624 0.2087 0.0
H773 H 0.04901 0.2026 0.27503 0.0
H774 H 0.07899 0.16178 0.28904 0.0
H775 H 0.1075 0.19585 0.27113 0.0
H776 H 0.21074 0.05343 0.28606 0.0
H777 H 0.25249 0.14874 0.24216 0.0
H778 H 0.10715 0.04163 0.27135 0.0
H779 H 0.09823 0.08566 0.28891 0.0
H780 H 0.13734 0.04294 0.29483 0.0
H781 H 0.16849 0.16575 0.21667 0.0
H782 H 0.19966 0.20487 0.23104 0.0
H783 H 0.14142 0.19843 0.23566 0.0
C784 C 0.16396 0.95887 0.02676 0.0
C785 C 0.15169 0.99253 0.01329 0.0
C786 C 0.15633 0.91449 0.02221 0.0
C787 C 0.13476 0.9032 0.00392 0.0
C788 C 0.11658 0.93726 0.99176 0.0
C789 C 0.12572 0.98167 0.99644 0.0
C790 C 0.17612 0.87972 0.03584 0.0
C791 C 0.09082 0.92683 0.97286 0.0
C792 C 0.18999 0.80465 0.9797 0.0
C793 C 0.16624 0.76916 0.9878 0.0
C794 C 0.17819 0.84838 0.98375 0.0
C795 C 0.1406 0.85753 0.99572 0.0
C796 C 0.11369 0.8221 0.00215 0.0
C797 C 0.12715 0.77825 0.99838 0.0
C798 C 0.20837 0.88463 0.97659 0.0
C799 C 0.07204 0.83007 0.014 0.0
H800 H 0.1832 0.96699 0.04008 0.0
H801 H 0.11562 0.00735 0.98601 0.0
H802 H 0.15146 0.85417 0.03945 0.0
H803 H 0.20389 0.86333 0.0279 0.0
H804 H 0.18863 0.8937 0.05028 0.0
H805 H 0.06859 0.95446 0.96867 0.0
H806 H 0.11383 0.92124 0.96006 0.0
H807 H 0.07103 0.89653 0.97488 0.0
H808 H 0.21974 0.79838 0.97111 0.0
H809 H 0.10807 0.75131 0.00451 0.0
H810 H 0.22296 0.90162 0.98987 0.0
H811 H 0.18962 0.90947 0.9678 0.0
H812 H 0.23556 0.87207 0.96692 0.0
H813 H 0.07966 0.82997 0.03044 0.0
H814 H 0.04776 0.80357 0.01115 0.0
H815 H 0.05683 0.86225 0.01013 0.0
C816 C 0.46228 0.93628 0.72935 0.0
C817 C 0.49757 0.91535 0.73923 0.0
C818 C 0.41854 0.92484 0.73334 0.0
C819 C 0.4093 0.89038 0.74713 0.0
C820 C 0.44477 0.86563 0.75536 0.0
C821 C 0.48856 0.87879 0.75156 0.0
C822 C 0.38226 0.95257 0.72416 0.0
C823 C 0.43678 0.82699 0.76917 0.0
C824 C 0.3072 0.92156 0.77615 0.0
C825 C 0.27395 0.90596 0.76329 0.0
C826 C 0.35169 0.91274 0.77227 0.0
C827 C 0.36348 0.88665 0.75532 0.0
C828 C 0.32981 0.86553 0.74406 0.0
C829 C 0.28526 0.87586 0.748 0.0
C830 C 0.38599 0.93584 0.78492 0.0
C831 C 0.34076 0.83508 0.72673 0.0
H832 H 0.4686 0.96389 0.71939 0.0
H833 H 0.51539 0.86181 0.75907 0.0
H834 H 0.35814 0.93141 0.71625 0.0
H835 H 0.36444 0.97045 0.73634 0.0
H836 H 0.39492 0.97711 0.71316 0.0
H837 H 0.46374 0.80239 0.76782 0.0
H838 H 0.436 0.83848 0.78512 0.0
H839 H 0.40503 0.81069 0.76577 0.0
H840 H 0.29865 0.94412 0.78828 0.0
H841 H 0.25985 0.86327 0.73806 0.0
H842 H 0.40266 0.96118 0.77559 0.0
H843 H 0.4114 0.91216 0.7901 0.0
H844 H 0.37157 0.95221 0.79845 0.0
H845 H 0.34538 0.85457 0.71269 0.0
H846 H 0.31371 0.81135 0.72399 0.0
H847 H 0.37163 0.81656 0.72972 0.0
C848 C 0.32506 0.21287 0.47398 0.0
C849 C 0.34456 0.24711 0.4851 0.0
C850 C 0.33549 0.16864 0.47773 0.0
C851 C 0.3675 0.1579 0.49253 0.0
C852 C 0.39156 0.19239 0.50185 0.0
C853 C 0.37936 0.23667 0.49828 0.0
C854 C 0.30875 0.13346 0.46729 0.0
C855 C 0.42803 0.18273 0.51668 0.0
C856 C 0.33029 0.05729 0.5212 0.0
C857 C 0.34742 0.02297 0.50928 0.0
C858 C 0.33982 0.10143 0.51701 0.0
C859 C 0.36846 0.11194 0.50081 0.0
C860 C 0.39052 0.07727 0.49047 0.0
C861 C 0.3793 0.03305 0.49463 0.0
C862 C 0.31535 0.13677 0.52859 0.0
C863 C 0.42348 0.08667 0.474 0.0
H864 H 0.29892 0.22039 0.46334 0.0
H865 H 0.39527 0.26269 0.50675 0.0
H866 H 0.3307 0.10883 0.46011 0.0
H867 H 0.28832 0.11595 0.47865 0.0
H868 H 0.28662 0.14717 0.45546 0.0
H869 H 0.45261 0.20968 0.51679 0.0
H870 H 0.41418 0.18009 0.53218 0.0
H871 H 0.44496 0.15129 0.51302 0.0
H872 H 0.30641 0.04983 0.53289 0.0
H873 H 0.39316 0.00687 0.48545 0.0
H874 H 0.29246 0.15429 0.51823 0.0
H875 H 0.33864 0.16136 0.53471 0.0
H876 H 0.29598 0.12319 0.54141 0.0
H877 H 0.40629 0.08892 0.4592 0.0
H878 H 0.44816 0.05974 0.47287 0.0
H879 H 0.4408 0.11821 0.47671 0.0
C880 C 0.2132 0.66804 0.21944 0.0
C881 C 0.23454 0.64411 0.23475 0.0
C882 C 0.22035 0.71324 0.21715 0.0
C883 C 0.25061 0.7345 0.23008 0.0
C884 C 0.27383 0.70997 0.24495 0.0
C885 C 0.26476 0.66508 0.2474 0.0
C886 C 0.19374 0.73847 0.20166 0.0
C887 C 0.30757 0.73134 0.25852 0.0
C888 C 0.30221 0.84337 0.21654 0.0
C889 C 0.28215 0.87158 0.23067 0.0
C890 C 0.29056 0.79892 0.21541 0.0
C891 C 0.25765 0.78257 0.22848 0.0
C892 C 0.23436 0.8117 0.24137 0.0
C893 C 0.2472 0.8559 0.24246 0.0
C894 C 0.31547 0.76886 0.20121 0.0
C895 C 0.19774 0.79566 0.25492 0.0
H896 H 0.18897 0.6519 0.20998 0.0
H897 H 0.28092 0.64646 0.25929 0.0
H898 H 0.21499 0.76068 0.19268 0.0
H899 H 0.17597 0.71627 0.19111 0.0
H900 H 0.16917 0.75935 0.2096 0.0
H901 H 0.32476 0.70709 0.26835 0.0
H902 H 0.33246 0.74876 0.24923 0.0
H903 H 0.29136 0.75621 0.26833 0.0
H904 H 0.32918 0.85517 0.20731 0.0
H905 H 0.2312 0.87764 0.25323 0.0
H906 H 0.2923 0.7501 0.19156 0.0
H907 H 0.33459 0.7445 0.21015 0.0
H908 H 0.33834 0.78719 0.1912 0.0
H909 H 0.17488 0.77422 0.24635 0.0
H910 H 0.17868 0.8233 0.26164 0.0
H911 H 0.21184 0.77573 0.26744 0.0
C912 C 0.09197 0.49861 0.51179 0.0
C913 C 0.10707 0.45825 0.51936 0.0
C914 C 0.0473 0.50999 0.51297 0.0
C915 C 0.01714 0.47972 0.52146 0.0
C916 C 0.03252 0.43987 0.52996 0.0
C917 C 0.07738 0.42978 0.52895 0.0
C918 C 0.03212 0.55352 0.50435 0.0
C919 C 1.00147 0.40634 0.53883 0.0
C920 C 0.903 0.52152 0.53408 0.0
C921 C 0.88043 0.51259 0.516 0.0
C922 C 0.94744 0.51026 0.53626 0.0
C923 C 0.96929 0.48855 0.52019 0.0
C924 C 0.94583 0.47671 0.50247 0.0
C925 C 0.90173 0.48954 0.50045 0.0
C926 C 0.97152 0.52353 0.55532 0.0
C927 C 0.96773 0.4519 0.48538 0.0
H928 H 0.11486 0.52073 0.50444 0.0
H929 H 0.08868 0.39821 0.53462 0.0
H930 H 0.01208 0.54773 0.49055 0.0
H931 H 0.01094 0.57108 0.51543 0.0
H932 H 0.0601 0.57516 0.50025 0.0
H933 H 0.01897 0.38268 0.54883 0.0
H934 H 0.9748 0.42225 0.54768 0.0
H935 H 0.98594 0.38761 0.52631 0.0
H936 H 0.88674 0.53982 0.54605 0.0
H937 H 0.88422 0.48256 0.4865 0.0
H938 H 0.99744 0.54775 0.5515 0.0
H939 H 0.98812 0.49457 0.56216 0.0
H940 H 0.94922 0.53839 0.56679 0.0
H941 H 0.99379 0.47254 0.47851 0.0
H942 H 0.94407 0.44248 0.47332 0.0
H943 H 0.98376 0.42164 0.49127 0.0
C944 C 0.2501 0.35676 0.74737 0.0
C945 C 0.29254 0.36656 0.75418 0.0
C946 C 0.23615 0.31291 0.74584 0.0
C947 C 0.26609 0.27851 0.75046 0.0
C948 C 0.30906 0.28842 0.75717 0.0
C949 C 0.32152 0.33235 0.75926 0.0
C950 C 0.18952 0.30337 0.73935 0.0
C951 C 0.34215 0.25266 0.76186 0.0
C952 C 0.22562 0.16611 0.7656 0.0
C953 C 0.22864 0.14287 0.74729 0.0
C954 C 0.23649 0.21063 0.76665 0.0
C955 C 0.25227 0.23201 0.7491 0.0
C956 C 0.25644 0.20851 0.73064 0.0
C957 C 0.24363 0.16421 0.72984 0.0
C958 C 0.23039 0.23493 0.78645 0.0
C959 C 0.27468 0.23007 0.71185 0.0
H960 H 0.22791 0.38335 0.74331 0.0
H961 H 0.35475 0.33993 0.76407 0.0
H962 H 0.1896 0.28429 0.72502 0.0
H963 H 0.17294 0.28289 0.75096 0.0
H964 H 0.16992 0.33388 0.73704 0.0
H965 H 0.37484 0.26628 0.76581 0.0
H966 H 0.3305 0.23239 0.77474 0.0
H967 H 0.3459 0.23045 0.74862 0.0
H968 H 0.21296 0.14989 0.77901 0.0
H969 H 0.24555 0.1462 0.71568 0.0
H970 H 0.2088 0.26401 0.78413 0.0
H971 H 0.26251 0.24719 0.792 0.0
H972 H 0.2157 0.21386 0.7984 0.0
H973 H 0.25383 0.25855 0.70748 0.0
H974 H 0.27656 0.20698 0.69882 0.0
H975 H 0.30813 0.24289 0.71497 0.0
C976 C 0.60439 0.5101 0.01325 0.0
C977 C 0.61683 0.4784 0.99888 0.0
C978 C 0.56064 0.52468 0.01455 0.0
C979 C 0.52865 0.50627 0.0015 0.0
C980 C 0.54119 0.47496 0.98672 0.0
C981 C 0.58519 0.4618 0.98544 0.0
C982 C 0.54853 0.55855 0.03035 0.0
C983 C 0.5079 0.45433 0.97264 0.0
C984 C 0.40804 0.50811 0.01623 0.0
C985 C 0.39215 0.54093 0.00333 0.0
C986 C 0.45282 0.49666 0.016 0.0
C987 C 0.48193 0.5197 0.00302 0.0
C988 C 0.46594 0.55403 0.99057 0.0
C989 C 0.42103 0.56384 0.99069 0.0
C990 C 0.46885 0.4595 0.02928 0.0
C991 C 0.49621 0.58037 0.97713 0.0
H992 H 0.62865 0.5229 0.02372 0.0
H993 H 0.59434 0.43692 0.97443 0.0
H994 H 0.52509 0.58316 0.02416 0.0
H995 H 0.53214 0.54198 0.04326 0.0
H996 H 0.57791 0.57602 0.03623 0.0
H997 H 0.52306 0.43002 0.96215 0.0
H998 H 0.48212 0.43747 0.98161 0.0
H999 H 0.49138 0.48019 0.96351 0.0
H1000 H 0.38541 0.49106 0.02617 0.0
H1001 H 0.40845 0.59011 0.98115 0.0
H1002 H 0.49544 0.47128 0.03941 0.0
H1003 H 0.48293 0.43289 0.01973 0.0
H1004 H 0.44213 0.44547 0.03874 0.0
H1005 H 0.52233 0.59587 0.98643 0.0
H1006 H 0.47846 0.60659 0.96868 0.0
H1007 H 0.51268 0.55837 0.96603 0.0
C1008 C 0.77624 0.35192 0.76994 0.0
C1009 C 0.77694 0.37456 0.75141 0.0
C1010 C 0.76433 0.30763 0.77086 0.0
C1011 C 0.75143 0.28585 0.75291 0.0
C1012 C 0.75012 0.30897 0.73428 0.0
C1013 C 0.76367 0.35303 0.73368 0.0
C1014 C 0.76702 0.28378 0.79093 0.0
C1015 C 0.73499 0.287 0.71499 0.0
C1016 C 0.75825 0.16126 0.75128 0.0
C1017 C 0.71526 0.14995 0.75665 0.0
C1018 C 0.7708 0.2056 0.75021 0.0
C1019 C 0.73897 0.23891 0.75381 0.0
C1020 C 0.69539 0.22746 0.75893 0.0
C1021 C 0.68426 0.18308 0.76061 0.0
C1022 C 0.81797 0.21681 0.74533 0.0
C1023 C 0.66031 0.262 0.76231 0.0
H1024 H 0.78722 0.36818 0.78366 0.0
H1025 H 0.76435 0.37049 0.71936 0.0
H1026 H 0.73435 0.27044 0.79507 0.0
H1027 H 0.78997 0.25543 0.78965 0.0
H1028 H 0.77847 0.30543 0.80341 0.0
H1029 H 0.73354 0.31028 0.70202 0.0
H1030 H 0.75772 0.25969 0.71103 0.0
H1031 H 0.70191 0.27249 0.71721 0.0
H1032 H 0.78199 0.13548 0.74806 0.0
H1033 H 0.65064 0.17425 0.76426 0.0
H1034 H 0.832 0.23757 0.75756 0.0
H1035 H 0.81951 0.23619 0.73111 0.0
H1036 H 0.83889 0.18702 0.74356 0.0
H1037 H 0.66932 0.28328 0.77531 0.0
H1038 H 0.62764 0.24727 0.7654 0.0
H1039 H 0.65757 0.28349 0.74877 0.0
C1040 C 0.79289 0.84854 0.2235 0.0
C1041 C 0.78165 0.87145 0.24123 0.0
C1042 C 0.78303 0.80388 0.22133 0.0
C1043 C 0.76011 0.78211 0.237 0.0
C1044 C 0.74711 0.80552 0.2546 0.0
C1045 C 0.7589 0.84987 0.2567 0.0
C1046 C 0.79786 0.77981 0.20249 0.0
C1047 C 0.72101 0.78365 0.27122 0.0
C1048 C 0.69835 0.67755 0.22515 0.0
C1049 C 0.72457 0.64582 0.23484 0.0
C1050 C 0.71015 0.72197 0.22524 0.0
C1051 C 0.7495 0.73481 0.23495 0.0
C1052 C 0.7777 0.70259 0.24351 0.0
C1053 C 0.76455 0.6584 0.24361 0.0
C1054 C 0.67875 0.75521 0.2162 0.0
C1055 C 0.82087 0.71502 0.25323 0.0
H1056 H 0.81122 0.86507 0.21166 0.0
H1057 H 0.75038 0.86769 0.2704 0.0
H1058 H 0.81944 0.75175 0.20673 0.0
H1059 H 0.76901 0.76603 0.19443 0.0
H1060 H 0.81608 0.80147 0.19187 0.0
H1061 H 0.71209 0.80691 0.28356 0.0
H1062 H 0.69037 0.76952 0.26485 0.0
H1063 H 0.74029 0.75612 0.27783 0.0
H1064 H 0.66705 0.66818 0.21859 0.0
H1065 H 0.78491 0.63391 0.25106 0.0
H1066 H 0.69636 0.78248 0.20861 0.0
H1067 H 0.65844 0.76965 0.22851 0.0
H1068 H 0.65642 0.7397 0.20499 0.0
H1069 H 0.84022 0.73621 0.24288 0.0
H1070 H 0.841 0.68571 0.25725 0.0
H1071 H 0.81454 0.73423 0.26724 0.0
C1072 C 0.57923 0.93147 0.0241 0.0
C1073 C 0.61073 0.95966 0.01566 0.0
C1074 C 0.53468 0.94308 0.02443 0.0
C1075 C 0.52153 0.98446 0.01671 0.0
C1076 C 0.55345 0.01414 0.0092 0.0
C1077 C 0.59773 1.00104 0.00844 0.0
C1078 C 0.50159 0.91041 0.03239 0.0
C1079 C 0.54067 0.05916 0.00143 0.0
C1080 C 0.40644 0.99976 0.99585 0.0
C1081 C 0.38524 0.02048 0.01211 0.0
C1082 C 0.45054 0.98667 0.99739 0.0
C1083 C 0.47414 0.99563 0.01543 0.0
C1084 C 0.4526 0.01558 0.03207 0.0
C1085 C 0.40816 0.02726 0.0303 0.0
C1086 C 0.47216 0.96434 0.97952 0.0
C1087 C 0.47701 0.02671 0.05133 0.0
H1088 H 0.58905 0.89919 0.02949 0.0
H1089 H 0.62207 0.02286 0.00195 0.0
H1090 H 0.486 0.92346 0.04635 0.0
H1091 H 0.47502 0.90527 0.02112 0.0
H1092 H 0.51685 0.87807 0.03598 0.0
H1093 H 0.5698 0.07991 0.99813 0.0
H1094 H 0.52114 0.0558 0.98731 0.0
H1095 H 0.51968 0.07644 0.01268 0.0
H1096 H 0.38877 0.99461 0.98178 0.0
H1097 H 0.39208 0.044 0.04279 0.0
H1098 H 0.48905 0.93381 0.98449 0.0
H1099 H 0.49747 0.98629 0.97295 0.0
H1100 H 0.44817 0.95586 0.96745 0.0
H1101 H 0.49357 0.99707 0.05752 0.0
H1102 H 0.45495 0.04051 0.06318 0.0
H1103 H 0.503 0.05116 0.04797 0.0
C1104 C 0.09502 1.00178 0.51131 0.0
C1105 C 0.11151 0.97629 0.49529 0.0
C1106 C 0.05045 0.01362 0.51206 0.0
C1107 C 0.02177 0.99905 0.49656 0.0
C1108 C 0.03846 0.97455 0.48004 0.0
C1109 C 0.08318 0.96387 0.4795 0.0
C1110 C 0.03412 0.0399 0.52997 0.0
C1111 C 0.00875 0.95809 0.46333 0.0
C1112 C 0.89964 0.99066 0.50755 0.0
C1113 C 0.88378 0.0273 0.49703 0.0
C1114 C 0.9448 0.98088 0.50753 0.0
C1115 C 0.97425 0.00943 0.49738 0.0
C1116 C 0.9582 0.04737 0.48741 0.0
C1117 C 0.91298 0.05543 0.48707 0.0
C1118 C 0.96102 0.94008 0.51826 0.0
C1119 C 0.98876 0.07955 0.4772 0.0
H1120 H 0.11656 0.01134 0.52364 0.0
H1121 H 0.09547 0.94403 0.46706 0.0
H1122 H 0.00523 0.06054 0.52606 0.0
H1123 H 0.02419 0.01689 0.54218 0.0
H1124 H 0.06039 0.06144 0.5361 0.0
H1125 H 0.027 0.93928 0.45157 0.0
H1126 H 0.98301 0.93649 0.46983 0.0
H1127 H 0.99177 0.98617 0.45593 0.0
H1128 H 0.87675 0.96957 0.51551 0.0
H1129 H 0.90042 0.08453 0.47946 0.0
H1130 H 0.98423 0.9494 0.53049 0.0
H1131 H 0.97924 0.9187 0.50748 0.0
H1132 H 0.93374 0.92079 0.52501 0.0
H1133 H 0.01577 0.08882 0.48766 0.0
H1134 H 0.97143 0.10997 0.47227 0.0
H1135 H 1.00398 0.06389 0.46372 0.0
C1136 C 0.14134 0.43493 0.32758 0.0
C1137 C 0.16546 0.46932 0.31886 0.0
C1138 C 0.14868 0.4219 0.34774 0.0
C1139 C 0.18173 0.44298 0.35928 0.0
C1140 C 0.20659 0.47732 0.35046 0.0
C1141 C 0.19775 0.49046 0.33045 0.0
C1142 C 0.12067 0.38598 0.35676 0.0
C1143 C 0.24272 0.50003 0.36211 0.0
C1144 C 0.17686 0.44252 0.4168 0.0
C1145 C 0.20637 0.40859 0.42175 0.0
C1146 C 0.16769 0.45317 0.39655 0.0
C1147 C 0.18946 0.43015 0.3808 0.0
C1148 C 0.21921 0.39571 0.38568 0.0
C1149 C 0.22685 0.38491 0.40613 0.0
C1150 C 0.13489 0.4893 0.39202 0.0
C1151 C 0.24376 0.37106 0.36933 0.0
H1152 H 0.11623 0.41858 0.31871 0.0
H1153 H 0.21686 0.5167 0.32371 0.0
H1154 H 0.14176 0.35829 0.36189 0.0
H1155 H 0.10304 0.39869 0.37029 0.0
H1156 H 0.0961 0.37314 0.34582 0.0
H1157 H 0.26039 0.52466 0.35275 0.0
H1158 H 0.22875 0.51693 0.37556 0.0
H1159 H 0.26683 0.47538 0.36772 0.0
H1160 H 0.16059 0.46063 0.42883 0.0
H1161 H 0.24986 0.35884 0.4099 0.0
H1162 H 0.10898 0.47691 0.38166 0.0
H1163 H 0.15153 0.51691 0.3842 0.0
H1164 H 0.11892 0.50224 0.40596 0.0
H1165 H 0.22023 0.35561 0.35867 0.0
H1166 H 0.26558 0.34503 0.37562 0.0
H1167 H 0.26406 0.39435 0.36042 0.0
C1168 C 0.39411 0.44244 0.65855 0.0
C1169 C 0.36553 0.4729 0.66764 0.0
C1170 C 0.38616 0.42666 0.63886 0.0
C1171 C 0.34948 0.44272 0.62785 0.0
C1172 C 0.32186 0.47519 0.63662 0.0
C1173 C 0.32982 0.48935 0.65653 0.0
C1174 C 0.41573 0.39131 0.63025 0.0
C1175 C 0.2832 0.49417 0.62516 0.0
C1176 C 0.34423 0.42802 0.57068 0.0
C1177 C 0.31238 0.39499 0.56873 0.0
C1178 C 0.35718 0.44343 0.58983 0.0
C1179 C 0.33876 0.42451 0.60747 0.0
C1180 C 0.30815 0.38969 0.6056 0.0
C1181 C 0.29479 0.37582 0.58624 0.0
C1182 C 0.38898 0.48137 0.59112 0.0
C1183 C 0.28865 0.36783 0.62405 0.0
H1184 H 0.42139 0.42918 0.66723 0.0
H1185 H 0.30773 0.51296 0.66353 0.0
H1186 H 0.39653 0.36075 0.6279 0.0
H1187 H 0.4286 0.40144 0.61524 0.0
H1188 H 0.44397 0.38373 0.64036 0.0
H1189 H 0.26731 0.5218 0.63345 0.0
H1190 H 0.29391 0.50616 0.61007 0.0
H1191 H 0.25829 0.46821 0.62258 0.0
H1192 H 0.35754 0.44336 0.55719 0.0
H1193 H 0.27028 0.3502 0.58479 0.0
H1194 H 0.41717 0.47269 0.60103 0.0
H1195 H 0.37229 0.51022 0.59806 0.0
H1196 H 0.40179 0.49114 0.57602 0.0
H1197 H 0.31514 0.35741 0.6346 0.0
H1198 H 0.26859 0.33862 0.62005 0.0
H1199 H 0.26743 0.39159 0.6323 0.0
C1200 C 0.32862 0.59673 0.82013 0.0
C1201 C 0.35776 0.56113 0.81797 0.0
C1202 C 0.31376 0.61008 0.83934 0.0
C1203 C 0.3295 0.58819 0.85684 0.0
C1204 C 0.3602 0.55324 0.85477 0.0
C1205 C 0.37338 0.53963 0.83533 0.0
C1206 C 0.28001 0.64652 0.84082 0.0
C1207 C 0.37866 0.5298 0.87309 0.0
C1208 C 0.31852 0.6427 0.90858 0.0
C1209 C 0.28479 0.61786 0.91736 0.0
C1210 C 0.33307 0.63392 0.88875 0.0
C1211 C 0.31247 0.60038 0.87729 0.0
C1212 C 0.27672 0.57695 0.88574 0.0
C1213 C 0.26382 0.58546 0.90579 0.0
C1214 C 0.37194 0.65889 0.88049 0.0
C1215 C 0.25294 0.54192 0.87382 0.0
H1216 H 0.316 0.61306 0.80672 0.0
H1217 H 0.39602 0.51221 0.83369 0.0
H1218 H 0.24946 0.63365 0.8478 0.0
H1219 H 0.29223 0.67322 0.85077 0.0
H1220 H 0.2717 0.66073 0.82578 0.0
H1221 H 0.40483 0.5058 0.86898 0.0
H1222 H 0.39246 0.55401 0.88393 0.0
H1223 H 0.35201 0.51196 0.88104 0.0
H1224 H 0.33522 0.66731 0.91762 0.0
H1225 H 0.2377 0.56626 0.91257 0.0
H1226 H 0.36371 0.67374 0.86561 0.0
H1227 H 0.3998 0.63582 0.87799 0.0
H1228 H 0.38292 0.68537 0.89091 0.0
H1229 H 0.24293 0.55489 0.85878 0.0
H1230 H 0.22322 0.52985 0.88183 0.0
H1231 H 0.27527 0.51359 0.87112 0.0
C1232 C 0.15179 0.58995 0.06962 0.0
C1233 C 0.19283 0.61057 0.06767 0.0
C1234 C 0.13627 0.57599 0.0886 0.0
C1235 C 0.16197 0.58359 0.10613 0.0
C1236 C 0.2025 0.60613 0.10437 0.0
C1237 C 0.21768 0.6189 0.08514 0.0
C1238 C 0.0933 0.5514 0.08977 0.0
C1239 C 0.2305 0.61567 0.12275 0.0
C1240 C 0.11317 0.57564 0.15914 0.0
C1241 C 0.13124 0.53577 0.16596 0.0
C1242 C 0.12165 0.59111 0.13944 0.0
C1243 C 0.14807 0.56564 0.12616 0.0
C1244 C 0.16385 0.52399 0.13255 0.0
C1245 C 0.15566 0.50981 0.15243 0.0
C1246 C 0.10468 0.6359 0.13331 0.0
C1247 C 0.19122 0.4953 0.11872 0.0
H1248 H 0.13253 0.58301 0.05617 0.0
H1249 H 0.24927 0.63501 0.08376 0.0
H1250 H 0.0996 0.51705 0.09469 0.0
H1251 H 0.07133 0.5667 0.10121 0.0
H1252 H 0.07589 0.55062 0.07497 0.0
H1253 H 0.25926 0.6366 0.11904 0.0
H1254 H 0.2106 0.63247 0.13456 0.0
H1255 H 0.24267 0.58435 0.12935 0.0
H1256 H 0.09474 0.59612 0.1696 0.0
H1257 H 0.16961 0.47892 0.15762 0.0
H1258 H 0.08814 0.63426 0.11835 0.0
H1259 H 0.13273 0.65891 0.13178 0.0
H1260 H 0.08122 0.64968 0.14457 0.0
H1261 H 0.17479 0.49153 0.10381 0.0
H1262 H 0.19714 0.4621 0.12523 0.0
H1263 H 0.22349 0.5111 0.11597 0.0
C1264 C 0.75499 0.60597 0.59985 0.0
C1265 C 0.78137 0.62905 0.5861 0.0
C1266 C 0.76954 0.59734 0.61964 0.0
C1267 C 0.81197 0.61121 0.62567 0.0
C1268 C 0.83794 0.63633 0.61216 0.0
C1269 C 0.8221 0.64538 0.59257 0.0
C1270 C 0.74032 0.57148 0.63375 0.0
C1271 C 0.88357 0.6512 0.61791 0.0
C1272 C 0.83821 0.60731 0.68197 0.0
C1273 C 0.8572 0.56532 0.68393 0.0
C1274 C 0.82413 0.62313 0.66306 0.0
C1275 C 0.83004 0.59675 0.64559 0.0
C1276 C 0.85094 0.55515 0.64734 0.0
C1277 C 0.86376 0.53969 0.66653 0.0
C1278 C 0.80122 0.66723 0.66191 0.0
C1279 C 0.85868 0.52641 0.629 0.0
H1280 H 0.72346 0.59336 0.5949 0.0
H1281 H 0.84287 0.66272 0.5819 0.0
H1282 H 0.75489 0.53847 0.63644 0.0
H1283 H 0.7378 0.5882 0.64866 0.0
H1284 H 0.70668 0.56713 0.62752 0.0
H1285 H 0.89785 0.67386 0.60648 0.0
H1286 H 0.88316 0.66796 0.63284 0.0
H1287 H 0.90547 0.62206 0.61933 0.0
H1288 H 0.8326 0.62716 0.69539 0.0
H1289 H 0.8786 0.50735 0.66793 0.0
H1290 H 0.76652 0.66248 0.65721 0.0
H1291 H 0.817 0.68831 0.65031 0.0
H1292 H 0.80155 0.68487 0.67666 0.0
H1293 H 0.82669 0.51565 0.62266 0.0
H1294 H 0.87856 0.49672 0.63266 0.0
H1295 H 0.87582 0.54531 0.61699 0.0
C1296 C 0.63203 0.5333 0.34547 0.0
C1297 C 0.65764 0.55238 0.33019 0.0
C1298 C 0.64082 0.54186 0.36603 0.0
C1299 C 0.67513 0.57115 0.37132 0.0
C1300 C 0.69989 0.59174 0.35587 0.0
C1301 C 0.69126 0.58161 0.33553 0.0
C1302 C 0.61439 0.5185 0.3821 0.0
C1303 C 0.73596 0.62405 0.36082 0.0
C1304 C 0.67812 0.62057 0.42433 0.0
C1305 C 0.71184 0.59594 0.43344 0.0
C1306 C 0.66569 0.61286 0.40412 0.0
C1307 C 0.68667 0.57893 0.39297 0.0
C1308 C 0.72014 0.55342 0.40225 0.0
C1309 C 0.73271 0.56262 0.42227 0.0
C1310 C 0.63071 0.64152 0.39459 0.0
C1311 C 0.7427 0.51636 0.39103 0.0
H1312 H 0.60616 0.51054 0.34136 0.0
H1313 H 0.71078 0.59685 0.32373 0.0
H1314 H 0.63648 0.49741 0.39135 0.0
H1315 H 0.59903 0.54275 0.3925 0.0
H1316 H 0.58814 0.4976 0.3755 0.0
H1317 H 0.74985 0.63967 0.34702 0.0
H1318 H 0.7232 0.65026 0.37097 0.0
H1319 H 0.76294 0.60699 0.369 0.0
H1320 H 0.66197 0.64642 0.4329 0.0
H1321 H 0.75838 0.54308 0.42933 0.0
H1322 H 0.60319 0.62096 0.38902 0.0
H1323 H 0.64455 0.65895 0.38127 0.0
H1324 H 0.61739 0.66634 0.40535 0.0
H1325 H 0.71789 0.49298 0.38509 0.0
H1326 H 0.76618 0.49799 0.4008 0.0
H1327 H 0.76092 0.52962 0.37783 0.0
C1328 C 0.74081 0.41711 0.09524 0.0
C1329 C 0.7193 0.38603 0.08313 0.0
C1330 C 0.72769 0.42468 0.11532 0.0
C1331 C 0.69132 0.40149 0.12332 0.0
C1332 C 0.67033 0.36901 0.11137 0.0
C1333 C 0.68496 0.36126 0.09145 0.0
C1334 C 0.75179 0.45871 0.12772 0.0
C1335 C 0.63095 0.34421 0.11921 0.0
C1336 C 0.67632 0.40626 0.18048 0.0
C1337 C 0.64867 0.44307 0.18263 0.0
C1338 C 0.68956 0.39148 0.16125 0.0
C1339 C 0.67394 0.41339 0.14372 0.0
C1340 C 0.64417 0.44911 0.14578 0.0
C1341 C 0.63237 0.46389 0.16522 0.0
C1342 C 0.72205 0.35393 0.15974 0.0
C1343 C 0.62596 0.47272 0.12746 0.0
H1344 H 0.76749 0.43617 0.08884 0.0
H1345 H 0.66793 0.33759 0.08203 0.0
H1346 H 0.72983 0.48724 0.13063 0.0
H1347 H 0.76131 0.44483 0.14265 0.0
H1348 H 0.78186 0.47074 0.11997 0.0
H1349 H 0.62047 0.31773 0.10867 0.0
H1350 H 0.63826 0.32941 0.1342 0.0
H1351 H 0.60305 0.36739 0.12133 0.0
H1352 H 0.68937 0.39024 0.19389 0.0
H1353 H 0.61077 0.49215 0.16679 0.0
H1354 H 0.75365 0.3663 0.15361 0.0
H1355 H 0.70991 0.32849 0.14909 0.0
H1356 H 0.72845 0.33827 0.17467 0.0
H1357 H 0.65278 0.49059 0.11964 0.0
H1358 H 0.59983 0.49677 0.13156 0.0
H1359 H 0.61221 0.4487 0.11652 0.0
C1360 C 0.85646 0.42457 0.83694 0.0
C1361 C 0.87676 0.465 0.83321 0.0
C1362 C 0.84717 0.41091 0.85675 0.0
C1363 C 0.85772 0.43886 0.8732 0.0
C1364 C 0.87984 0.47911 0.86951 0.0
C1365 C 0.88929 0.4917 0.84945 0.0
C1366 C 0.82407 0.36757 0.85996 0.0
C1367 C 0.89125 0.50994 0.88664 0.0
C1368 C 0.78305 0.42782 0.91899 0.0
C1369 C 0.80936 0.40364 0.93248 0.0
C1370 C 0.79889 0.44034 0.89989 0.0
C1371 C 0.84183 0.42767 0.89391 0.0
C1372 C 0.86846 0.40288 0.90734 0.0
C1373 C 0.85206 0.39152 0.92656 0.0
C1374 C 0.7696 0.46723 0.8861 0.0
C1375 C 0.91404 0.388 0.90133 0.0
H1376 H 0.84662 0.40418 0.82424 0.0
H1377 H 0.90453 0.5232 0.84641 0.0
H1378 H 0.84122 0.34795 0.87176 0.0
H1379 H 0.79008 0.3737 0.86541 0.0
H1380 H 0.82229 0.34778 0.84583 0.0
H1381 H 0.91197 0.5378 0.88149 0.0
H1382 H 0.86057 0.52345 0.89333 0.0
H1383 H 0.90888 0.49199 0.89883 0.0
H1384 H 0.75025 0.43783 0.92354 0.0
H1385 H 0.87258 0.37282 0.9369 0.0
H1386 H 0.76256 0.44849 0.87205 0.0
H1387 H 0.78658 0.49794 0.88157 0.0
H1388 H 0.73786 0.47612 0.8934 0.0
H1389 H 0.91215 0.36667 0.88771 0.0
H1390 H 0.93082 0.36946 0.91363 0.0
H1391 H 0.93444 0.41684 0.89726 0.0
C1392 C 0.68493 0.92361 0.82331 0.0
C1393 C 0.65144 0.95463 0.82005 0.0
C1394 C 0.69768 0.91171 0.84303 0.0
C1395 C 0.67527 0.9301 0.85986 0.0
C1396 C 0.64028 0.96022 0.85658 0.0
C1397 C 0.62937 0.97282 0.8367 0.0
C1398 C 0.73613 0.88073 0.84585 0.0
C1399 C 0.61464 0.97949 0.87408 0.0
C1400 C 0.6854 0.87276 0.91099 0.0
C1401 C 0.71371 0.90115 0.9214 0.0
C1402 C 0.67248 0.88176 0.89094 0.0
C1403 C 0.6895 0.91922 0.8809 0.0
C1404 C 0.7195 0.94699 0.89115 0.0
C1405 C 0.73059 0.93806 0.9114 0.0
C1406 C 0.63944 0.85211 0.88077 0.0
C1407 C 0.73955 0.98641 0.8808 0.0
H1408 H 0.70241 0.90996 0.81042 0.0
H1409 H 0.60336 0.99669 0.83416 0.0
H1410 H 0.76257 0.89755 0.85444 0.0
H1411 H 0.72603 0.85171 0.85488 0.0
H1412 H 0.74986 0.8691 0.83119 0.0
H1413 H 0.5861 0.99947 0.86891 0.0
H1414 H 0.60251 0.9528 0.88408 0.0
H1415 H 0.63636 1.00071 0.88335 0.0
H1416 H 0.67189 0.84451 0.9188 0.0
H1417 H 0.75263 0.95994 0.91943 0.0
H1418 H 0.65318 0.83875 0.86646 0.0
H1419 H 0.6096 0.87136 0.87675 0.0
H1420 H 0.62957 0.82416 0.89059 0.0
H1421 H 0.75496 0.97635 0.86627 0.0
H1422 H 0.76481 1.00268 0.89035 0.0
H1423 H 0.71353 0.01084 0.87718 0.0
C1424 C 0.85555 0.91894 0.0704 0.0
C1425 C 0.81674 0.89418 0.06909 0.0
C1426 C 0.87105 0.93443 0.08913 0.0
C1427 C 0.84769 0.92424 0.10705 0.0
C1428 C 0.80966 0.89751 0.10594 0.0
C1429 C 0.79437 0.8832 0.08695 0.0
C1430 C 0.91124 0.96343 0.08961 0.0
C1431 C 0.7843 0.88517 0.12476 0.0
C1432 C 0.89969 0.93895 0.15911 0.0
C1433 C 0.87806 0.97691 0.16605 0.0
C1434 C 0.89114 0.92194 0.13968 0.0
C1435 C 0.86099 0.94398 0.1268 0.0
C1436 C 0.84135 0.9839 0.13328 0.0
C1437 C 0.84973 0.99958 0.1529 0.0
C1438 C 0.91229 0.87902 0.13344 0.0
C1439 C 0.8099 0.00906 0.11984 0.0
H1440 H 0.8729 0.92792 0.05667 0.0
H1441 H 0.76453 0.86391 0.08607 0.0
H1442 H 0.90169 0.99704 0.09455 0.0
H1443 H 0.93548 0.95075 0.10075 0.0
H1444 H 0.92743 0.96579 0.07455 0.0
H1445 H 0.75783 0.86108 0.12153 0.0
H1446 H 0.80679 0.87092 0.13628 0.0
H1447 H 0.76917 0.91506 0.13149 0.0
H1448 H 0.92116 0.92098 0.16932 0.0
H1449 H 0.83301 0.02898 0.15821 0.0
H1450 H 0.92745 0.88204 0.11822 0.0
H1451 H 0.88676 0.85313 0.13243 0.0
H1452 H 0.93788 0.86808 0.14437 0.0
H1453 H 0.82468 0.01437 0.10467 0.0
H1454 H 0.80076 0.04153 0.12636 0.0
H1455 H 0.77945 0.98966 0.11763 0.0
C1456 C 0.7512 0.09686 0.4036 0.0
C1457 C 0.77784 0.12257 0.4162 0.0
C1458 C 0.76345 0.08789 0.38352 0.0
C1459 C 0.80406 0.1038 0.37608 0.0
C1460 C 0.83035 0.13115 0.38853 0.0
C1461 C 0.81657 0.14073 0.4084 0.0
C1462 C 0.73376 0.05982 0.37054 0.0
C1463 C 0.87427 0.14801 0.38132 0.0
C1464 C 0.85513 0.03439 0.3342 0.0
C1465 C 0.84621 0.05988 0.317 0.0
C1466 C 0.84296 0.04911 0.35361 0.0
C1467 C 0.82005 0.08958 0.35575 0.0
C1468 C 0.81096 0.1154 0.3384 0.0
C1469 C 0.82472 0.10053 0.31927 0.0
C1470 C 0.85418 0.02111 0.3718 0.0
C1471 C 0.78545 0.15799 0.33995 0.0
H1472 H 0.72124 0.08278 0.40966 0.0
H1473 H 0.83756 0.16002 0.41824 0.0
H1474 H 0.72842 0.07556 0.35557 0.0
H1475 H 0.74957 0.02742 0.36779 0.0
H1476 H 0.70129 0.05419 0.37778 0.0
H1477 H 0.88934 0.17123 0.39229 0.0
H1478 H 0.89711 0.11986 0.37907 0.0
H1479 H 0.87073 0.16481 0.36649 0.0
H1480 H 0.87187 1.00305 0.33248 0.0
H1481 H 0.81724 0.12009 0.30596 0.0
H1482 H 0.82356 0.00909 0.37901 0.0
H1483 H 0.87193 0.04103 0.38326 0.0
H1484 H 0.87488 0.99223 0.36772 0.0
H1485 H 0.75223 0.15146 0.34618 0.0
H1486 H 0.78174 0.17457 0.32503 0.0
H1487 H 0.80206 0.18085 0.35055 0.0
C1488 C 0.7226 0.12159 0.58474 0.0
C1489 C 0.70043 0.10383 0.56806 0.0
C1490 C 0.71053 0.11022 0.6046 0.0
C1491 C 0.67681 0.07889 0.60777 0.0
C1492 C 0.65425 0.06099 0.59092 0.0
C1493 C 0.66581 0.07434 0.57126 0.0
C1494 C 0.73434 0.13121 0.62219 0.0
C1495 C 0.61927 0.02635 0.59358 0.0
C1496 C 0.68401 0.01774 0.6579 0.0
C1497 C 0.65055 0.03806 0.66912 0.0
C1498 C 0.69166 0.02946 0.63762 0.0
C1499 C 0.66643 0.06361 0.62867 0.0
C1500 C 0.63235 0.08401 0.63995 0.0
C1501 C 0.6243 0.07039 0.65995 0.0
C1502 C 0.72723 0.00579 0.62589 0.0
C1503 C 0.60573 0.1215 0.63121 0.0
H1504 H 0.74938 0.14439 0.58221 0.0
H1505 H 0.64916 0.06005 0.55832 0.0
H1506 H 0.7103 0.14502 0.63316 0.0
H1507 H 0.75402 0.10601 0.63033 0.0
H1508 H 0.75673 0.1579 0.61722 0.0
H1509 H 0.60449 0.01615 0.57892 0.0
H1510 H 0.63374 0.99691 0.60101 0.0
H1511 H 0.59272 0.03873 0.60361 0.0
H1512 H 0.70428 0.99272 0.66503 0.0
H1513 H 0.59887 0.08659 0.66877 0.0
H1514 H 0.75438 0.02883 0.62243 0.0
H1515 H 0.71405 0.99378 0.61122 0.0
H1516 H 0.74098 0.97737 0.63441 0.0
H1517 H 0.62781 0.14941 0.62759 0.0
H1518 H 0.57986 0.13327 0.64181 0.0
H1519 H 0.58985 0.11128 0.61684 0.0
C1520 C 0.32438 0.15586 0.09098 0.0
C1521 C 0.28567 0.13534 0.08442 0.0
C1522 C 0.34105 0.14822 0.11056 0.0
C1523 C 0.318 0.12003 0.12391 0.0
C1524 C 0.27729 0.10187 0.11781 0.0
C1525 C 0.26184 0.10942 0.09809 0.0
C1526 C 0.38469 0.16794 0.11644 0.0
C1527 C 0.25116 0.07244 0.13173 0.0
C1528 C 0.37595 0.05102 0.16379 0.0
C1529 C 0.3653 0.07368 0.18165 0.0
C1530 C 0.36278 0.06713 0.14477 0.0
C1531 C 0.33773 0.10647 0.14361 0.0
C1532 C 0.32849 0.13047 0.16149 0.0
C1533 C 0.34266 0.11396 0.18028 0.0
C1534 C 0.37402 0.04097 0.126 0.0
C1535 C 0.30153 0.17227 0.16093 0.0
H1536 H 0.34316 0.17556 0.08041 0.0
H1537 H 0.23179 0.09366 0.0931 0.0
H1538 H 0.38272 0.18323 0.13168 0.0
H1539 H 0.40993 0.14153 0.1172 0.0
H1540 H 0.39582 0.19313 0.10539 0.0
H1541 H 0.21822 0.06456 0.12545 0.0
H1542 H 0.26933 0.04116 0.13419 0.0
H1543 H 0.2468 0.08829 0.14675 0.0
H1544 H 0.3937 0.02009 0.16469 0.0
H1545 H 0.33409 0.13168 0.19399 0.0
H1546 H 0.38886 0.06265 0.11435 0.0
H1547 H 0.34357 0.02696 0.11941 0.0
H1548 H 0.39724 0.01356 0.12925 0.0
H1549 H 0.31449 0.19512 0.14929 0.0
H1550 H 0.3011 0.18939 0.1758 0.0
H1551 H 0.26717 0.16435 0.15665 0.0
C1552 C 0.16995 0.11847 0.92485 0.0
C1553 C 0.2065 0.09676 0.93319 0.0
C1554 C 0.15515 0.10853 0.90519 0.0
C1555 C 0.17677 0.07534 0.89384 0.0
C1556 C 0.21301 0.05259 0.90241 0.0
C1557 C 0.22776 0.06396 0.92186 0.0
C1558 C 0.11717 0.13432 0.89638 0.0
C1559 C 0.23651 0.01649 0.89094 0.0
C1560 C 0.1227 0.02455 0.84723 0.0
C1561 C 0.14655 0.04469 0.83167 0.0
C1562 C 0.13153 0.0347 0.86767 0.0
C1563 C 0.16394 0.06656 0.87243 0.0
C1564 C 0.18633 0.08847 0.85661 0.0
C1565 C 0.17782 0.07678 0.83648 0.0
C1566 C 0.10765 0.01004 0.88415 0.0
C1567 C 0.22023 0.12345 0.86093 0.0
H1568 H 0.15338 0.14383 0.93356 0.0
H1569 H 0.25559 0.04657 0.92835 0.0
H1570 H 0.12847 0.15295 0.8829 0.0
H1571 H 0.09096 0.11166 0.89122 0.0
H1572 H 0.10283 0.15789 0.90745 0.0
H1573 H 0.26174 0.99961 0.90035 0.0
H1574 H 0.21254 0.99168 0.88553 0.0
H1575 H 0.25292 0.03043 0.87739 0.0
H1576 H 0.09866 0.99962 0.84346 0.0
H1577 H 0.19588 0.09272 0.82437 0.0
H1578 H 0.09239 0.03341 0.895 0.0
H1579 H 0.13149 0.98968 0.89281 0.0
H1580 H 0.08168 0.98819 0.87799 0.0
H1581 H 0.20654 0.14859 0.87139 0.0
H1582 H 0.23159 0.14015 0.84691 0.0
H1583 H 0.24918 0.1084 0.86851 0.0
C1584 C 0.13805 0.97138 0.66449 0.0
C1585 C 0.15354 0.94875 0.68156 0.0
C1586 C 0.14918 0.9574 0.64484 0.0
C1587 C 0.17768 0.92081 0.64224 0.0
C1588 C 0.19299 0.89754 0.65945 0.0
C1589 C 0.18019 0.9114 0.6789 0.0
C1590 C 0.13117 0.98239 0.62686 0.0
C1591 C 0.22443 0.85923 0.65739 0.0
C1592 C 0.18441 0.86841 0.58988 0.0
C1593 C 0.21911 0.89198 0.58117 0.0
C1594 C 0.17085 0.87689 0.60989 0.0
C1595 C 0.19347 0.90872 0.62158 0.0
C1596 C 0.23012 0.93076 0.61315 0.0
C1597 C 0.24199 0.92268 0.59294 0.0
C1598 C 0.13097 0.85352 0.61813 0.0
C1599 C 0.25603 0.96387 0.62529 0.0
H1600 H 0.11728 1.00012 0.66651 0.0
H1601 H 0.19267 0.89411 0.69208 0.0
H1602 H 0.15834 0.99937 0.61888 0.0
H1603 H 0.11595 0.95931 0.6159 0.0
H1604 H 0.10625 0.00735 0.63137 0.0
H1605 H 0.23184 0.84349 0.67221 0.0
H1606 H 0.21067 0.83404 0.64705 0.0
H1607 H 0.25573 0.87073 0.6506 0.0
H1608 H 0.1663 0.84511 0.58068 0.0
H1609 H 0.26889 0.94086 0.58621 0.0
H1610 H 0.10431 0.87781 0.62092 0.0
H1611 H 0.13874 0.83775 0.63286 0.0
H1612 H 0.11854 0.828 0.60755 0.0
H1613 H 0.23525 0.99315 0.62846 0.0
H1614 H 0.2861 0.97484 0.61721 0.0
H1615 H 0.26581 0.9496 0.64011 0.0
C1616 C 0.33192 0.91936 0.33238 0.0
C1617 C 0.36024 0.95419 0.32776 0.0
C1618 C 0.32391 0.90708 0.35251 0.0
C1619 C 0.34349 0.93125 0.36845 0.0
C1620 C 0.37277 0.96605 0.36386 0.0
C1621 C 0.38141 0.97665 0.34349 0.0
C1622 C 0.29355 0.86894 0.3567 0.0
C1623 C 0.39329 0.99338 0.38043 0.0
C1624 C 0.27799 0.93097 0.41738 0.0
C1625 C 0.30242 0.90196 0.4295 0.0
C1626 C 0.2919 0.94185 0.39776 0.0
C1627 C 0.33046 0.92213 0.38979 0.0
C1628 C 0.35512 0.89248 0.40191 0.0
C1629 C 0.34118 0.88332 0.42179 0.0
C1630 C 0.26526 0.97449 0.38555 0.0
C1631 C 0.3956 0.86975 0.39372 0.0
H1632 H 0.31596 0.90164 0.32017 0.0
H1633 H 0.40316 1.0037 0.33988 0.0
H1634 H 0.30908 0.84573 0.36756 0.0
H1635 H 0.26275 0.88118 0.36376 0.0
H1636 H 0.28489 0.85066 0.34268 0.0
H1637 H 0.41712 0.01768 0.3744 0.0
H1638 H 0.36714 0.01135 0.38879 0.0
H1639 H 0.41044 0.97193 0.39152 0.0
H1640 H 0.24836 0.94598 0.42342 0.0
H1641 H 0.36007 0.86085 0.43116 0.0
H1642 H 0.25108 0.95802 0.37206 0.0
H1643 H 0.28674 1.00134 0.38001 0.0
H1644 H 0.23797 0.98922 0.39449 0.0
H1645 H 0.38671 0.84976 0.38026 0.0
H1646 H 0.41132 0.8479 0.40513 0.0
H1647 H 0.42002 0.89443 0.38867 0.0
C1648 C 0.07515 0.68411 0.27308 0.0
C1649 C 0.05583 0.65286 0.26018 0.0
C1650 C 0.05847 0.7272 0.27444 0.0
C1651 C 0.02133 0.73937 0.26276 0.0
C1652 C 1.00056 0.70754 0.25036 0.0
C1653 C 0.01814 0.66478 0.24916 0.0
C1654 C 0.08162 0.76012 0.28781 0.0
C1655 C 0.96059 0.71906 0.23781 0.0
C1656 C 0.95449 0.84211 0.27505 0.0
C1657 C 0.96898 0.87161 0.2601 0.0
C1658 C 0.97208 0.79939 0.27648 0.0
C1659 C 0.00521 0.78581 0.26274 0.0
C1660 C 0.02148 0.81606 0.24826 0.0
C1661 C 1.00309 0.85848 0.24707 0.0
C1662 C 0.95389 0.76821 0.29217 0.0
C1663 C 0.05718 0.80306 0.23349 0.0
H1664 H 0.10443 0.67545 0.28158 0.0
H1665 H 1.00287 0.64095 0.23919 0.0
H1666 H 0.09677 0.78602 0.27828 0.0
H1667 H 0.05771 0.77659 0.29803 0.0
H1668 H 0.10782 0.74462 0.29716 0.0
H1669 H 0.94695 0.69004 0.22977 0.0
H1670 H 0.93449 0.73332 0.24759 0.0
H1671 H 0.96938 0.74437 0.22641 0.0
H1672 H 0.92805 0.85172 0.28516 0.0
H1673 H 0.01467 0.88097 0.23551 0.0
H1674 H 0.93103 0.78489 0.30285 0.0
H1675 H 0.98101 0.75295 0.30098 0.0
H1676 H 0.9359 0.74123 0.2845 0.0
H1677 H 0.08606 0.78965 0.24173 0.0
H1678 H 0.06813 0.83116 0.22401 0.0
H1679 H 0.04496 0.77668 0.22334 0.0
C1680 C 0.09364 0.28446 0.52256 0.0
C1681 C 0.1205 0.27507 0.50577 0.0
C1682 C 0.05004 0.26955 0.52347 0.0
C1683 C 0.03304 0.24387 0.5074 0.0
C1684 C 0.06057 0.23265 0.49084 0.0
C1685 C 0.10379 0.24888 0.49009 0.0
C1686 C 0.02176 0.28235 0.54134 0.0
C1687 C 0.0441 0.20409 0.47375 0.0
C1688 C 0.93038 0.17572 0.51679 0.0
C1689 C 0.89791 0.20043 0.50675 0.0
C1690 C 0.97432 0.18967 0.51733 0.0
C1691 C 0.98619 0.22951 0.50772 0.0
C1692 C 0.95332 0.25536 0.49812 0.0
C1693 C 0.90968 0.24024 0.49753 0.0
C1694 C 0.0082 0.16086 0.52758 0.0
C1695 C 0.96439 0.29878 0.48828 0.0
H1696 H 0.10604 0.30522 0.53462 0.0
H1697 H 0.12435 0.24153 0.47709 0.0
H1698 H 0.99312 0.30194 0.53605 0.0
H1699 H 0.00864 0.25251 0.54885 0.0
H1700 H 0.04013 0.30189 0.55276 0.0
H1701 H 0.07019 0.19661 0.46247 0.0
H1702 H 0.03138 0.17267 0.47991 0.0
H1703 H 0.01643 0.22075 0.46588 0.0
H1704 H 0.92179 0.1445 0.52365 0.0
H1705 H 0.88477 0.25949 0.48976 0.0
H1706 H 0.03104 0.18063 0.53696 0.0
H1707 H 0.02816 0.14386 0.51586 0.0
H1708 H 0.99271 0.13568 0.53743 0.0
H1709 H 0.98151 0.32042 0.49927 0.0
H1710 H 0.9347 0.31624 0.48258 0.0
H1711 H 0.98714 0.29322 0.47538 0.0
C1712 C 0.50164 0.35571 0.76901 0.0
C1713 C 0.46974 0.36803 0.7548 0.0
C1714 C 0.51628 0.31177 0.77035 0.0
C1715 C 0.49733 0.27924 0.75759 0.0
C1716 C 0.46353 0.29151 0.74391 0.0
C1717 C 0.45084 0.33579 0.74241 0.0
C1718 C 0.55294 0.30151 0.78503 0.0
C1719 C 0.44073 0.25795 0.73072 0.0
C1720 C 0.55674 0.17531 0.74083 0.0
C1721 C 0.54084 0.14395 0.75456 0.0
C1722 C 0.54457 0.21974 0.74234 0.0
C1723 C 0.51413 0.23299 0.75741 0.0
C1724 C 0.49816 0.20148 0.77143 0.0
C1725 C 0.51236 0.1574 0.77006 0.0
C1726 C 0.56458 0.25247 0.72783 0.0
C1727 C 0.46595 0.21433 0.78778 0.0
H1728 H 0.516 0.38059 0.77873 0.0
H1729 H 0.42525 0.34513 0.73177 0.0
H1730 H 0.5457 0.31664 0.8 0.0
H1731 H 0.55877 0.26583 0.78723 0.0
H1732 H 0.58375 0.31667 0.77939 0.0
H1733 H 0.40986 0.27115 0.72402 0.0
H1734 H 0.46285 0.24797 0.71817 0.0
H1735 H 0.43277 0.22798 0.73958 0.0
H1736 H 0.57992 0.16529 0.7292 0.0
H1737 H 0.50065 0.13332 0.78089 0.0
H1738 H 0.57401 0.28306 0.73591 0.0
H1739 H 0.54012 0.26149 0.71607 0.0
H1740 H 0.59416 0.2389 0.72012 0.0
H1741 H 0.48063 0.23988 0.79768 0.0
H1742 H 0.45614 0.1859 0.79732 0.0
H1743 H 0.43605 0.22877 0.7808 0.0
C1744 C 0.60853 0.74296 0.01659 0.0
C1745 C 0.61832 0.78366 0.00782 0.0
C1746 C 0.56477 0.72791 0.01741 0.0
C1747 C 0.53028 0.75489 0.00982 0.0
C1748 C 0.54026 0.79674 0.00166 0.0
C1749 C 0.58416 0.81032 0.00054 0.0
C1750 C 0.55561 0.68257 0.02564 0.0
C1751 C 0.50474 0.82674 0.99352 0.0
C1752 C 0.42396 0.70595 0.98999 0.0
C1753 C 0.39504 0.71277 0.00626 0.0
C1754 C 0.46832 0.71808 0.99127 0.0
C1755 C 0.48408 0.73861 0.00909 0.0
C1756 C 0.455 0.74577 0.02558 0.0
C1757 C 0.41092 0.73209 0.0241 0.0
C1758 C 0.49837 0.70874 0.97354 0.0
C1759 C 0.47024 0.76873 0.04459 0.0
H1760 H 0.63512 0.72244 0.02219 0.0
H1761 H 0.59191 0.84206 0.99395 0.0
H1762 H 0.53031 0.68424 0.03772 0.0
H1763 H 0.54226 0.66155 0.01336 0.0
H1764 H 0.5856 0.66656 0.03186 0.0
H1765 H 0.51732 0.86026 0.99034 0.0
H1766 H 0.4914 0.81293 0.97923 0.0
H1767 H 0.47708 0.82928 0.00443 0.0
H1768 H 0.41214 0.68996 0.97635 0.0
H1769 H 0.38871 0.73708 0.03675 0.0
H1770 H 0.52654 0.68815 0.97856 0.0
H1771 H 0.51202 0.73992 0.96756 0.0
H1772 H 0.48121 0.69149 0.96099 0.0
H1773 H 0.49936 0.75161 0.051 0.0
H1774 H 0.44415 0.77024 0.05636 0.0
H1775 H 0.48044 0.80277 0.04086 0.0
C1776 C 0.05622 0.1717 0.72774 0.0
C1777 C 0.04083 0.14244 0.74261 0.0
C1778 C 0.04147 0.21551 0.72698 0.0
C1779 C 0.00989 0.23043 0.74118 0.0
C1780 C 0.99285 0.20065 0.7557 0.0
C1781 C 0.00885 0.15715 0.75638 0.0
C1782 C 0.06094 0.24626 0.71143 0.0
C1783 C 0.95846 0.21504 0.77084 0.0
C1784 C 1.00233 0.35256 0.75388 0.0
C1785 C 0.96608 0.36595 0.74224 0.0
C1786 C 0.01761 0.30882 0.75329 0.0
C1787 C 0.99548 0.27745 0.74113 0.0
C1788 C 0.95931 0.29093 0.72911 0.0
C1789 C 0.94536 0.33503 0.72965 0.0
C1790 C 0.05687 0.29596 0.76603 0.0
C1791 C 0.93443 0.25848 0.71616 0.0
H1792 H 0.08134 0.16095 0.71717 0.0
H1793 H 0.9968 0.13484 0.76791 0.0
H1794 H 0.03444 0.26222 0.70247 0.0
H1795 H 0.0794 0.27277 0.71921 0.0
H1796 H 0.08363 0.22905 0.70085 0.0
H1797 H 0.94705 0.18744 0.78051 0.0
H1798 H 0.97205 0.24112 0.78077 0.0
H1799 H 0.92964 0.22931 0.76284 0.0
H1800 H 0.01844 0.37619 0.76367 0.0
H1801 H 0.9169 0.34483 0.72082 0.0
H1802 H 0.08234 0.28014 0.75641 0.0
H1803 H 0.04685 0.27153 0.77761 0.0
H1804 H 0.07176 0.32464 0.77385 0.0
H1805 H 0.95719 0.2419 0.70543 0.0
H1806 H 0.9076 0.27439 0.70735 0.0
H1807 H 0.91988 0.23258 0.72589 0.0
C1808 C 0.92994 0.67786 0.48009 0.0
C1809 C 0.89837 0.69965 0.49202 0.0
C1810 C 0.97329 0.69343 0.47869 0.0
C1811 C 0.98537 0.73205 0.48928 0.0
C1812 C 0.95328 0.75515 0.50072 0.0
C1813 C 0.9103 0.73855 0.50205 0.0
C1814 C 0.00652 0.66768 0.46645 0.0
C1815 C 0.96467 0.7968 0.51202 0.0
C1816 C 0.10424 0.75161 0.50487 0.0
C1817 C 0.11788 0.78284 0.49056 0.0
C1818 C 0.06173 0.73363 0.50419 0.0
C1819 C 0.03186 0.74764 0.48899 0.0
C1820 C 0.0459 0.778 0.47409 0.0
C1821 C 0.08876 0.795 0.47497 0.0
C1822 C 0.04827 0.70077 0.52017 0.0
C1823 C 0.01507 0.79398 0.4577 0.0
H1824 H 0.92127 0.64758 0.47241 0.0
H1825 H 0.8862 0.75567 0.51126 0.0
H1826 H 0.02318 0.68954 0.45542 0.0
H1827 H 0.03222 0.65418 0.47667 0.0
H1828 H 0.99128 0.63994 0.45807 0.0
H1829 H 0.9355 0.81205 0.51939 0.0
H1830 H 0.98953 0.78945 0.52387 0.0
H1831 H 0.97941 0.82114 0.50152 0.0
H1832 H 0.12647 0.74194 0.51693 0.0
H1833 H 0.09873 0.81939 0.46393 0.0
H1834 H 0.03505 0.67064 0.51293 0.0
H1835 H 0.02164 0.71496 0.52966 0.0
H1836 H 0.07608 0.69129 0.53019 0.0
H1837 H 1.0003 0.76564 0.44962 0.0
H1838 H 0.03187 0.81531 0.44647 0.0
H1839 H 0.98772 0.81299 0.46464 0.0
C1840 C 0.50949 0.6595 0.25781 0.0
C1841 C 0.53865 0.64255 0.24329 0.0
C1842 C 0.49473 0.70337 0.25676 0.0
C1843 C 0.51064 0.73127 0.24121 0.0
C1844 C 0.53932 0.71402 0.22628 0.0
C1845 C 0.55264 0.66983 0.22739 0.0
C1846 C 0.46244 0.72002 0.27237 0.0
C1847 C 0.55671 0.74257 0.20939 0.0
C1848 C 0.4485 0.83676 0.22899 0.0
C1849 C 0.47074 0.86773 0.24092 0.0
C1850 C 0.46118 0.79233 0.22887 0.0
C1851 C 0.49765 0.77862 0.24063 0.0
C1852 C 0.52144 0.81013 0.25205 0.0
C1853 C 0.50713 0.85422 0.25239 0.0
C1854 C 0.43396 0.75996 0.21694 0.0
C1855 C 0.56166 0.79714 0.26409 0.0
H1856 H 0.49852 0.63856 0.27009 0.0
H1857 H 0.57563 0.6572 0.21624 0.0
H1858 H 0.47761 0.74675 0.2814 0.0
H1859 H 0.43307 0.73409 0.26472 0.0
H1860 H 0.45158 0.69365 0.28288 0.0
H1861 H 0.57786 0.72387 0.19867 0.0
H1862 H 0.52907 0.75732 0.20074 0.0
H1863 H 0.576 0.7701 0.21588 0.0
H1864 H 0.41963 0.84683 0.22048 0.0
H1865 H 0.52422 0.87808 0.26168 0.0
H1866 H 0.41129 0.74278 0.22744 0.0
H1867 H 0.45471 0.73461 0.2095 0.0
H1868 H 0.41405 0.7767 0.20511 0.0
H1869 H 0.5523 0.77389 0.27628 0.0
H1870 H 0.5781 0.82597 0.27108 0.0
H1871 H 0.58563 0.77992 0.25415 0.0
C1872 C 0.41069 0.24429 0.99983 0.0
C1873 C 0.39796 0.20636 0.98925 0.0
C1874 C 0.45401 0.26008 0.99873 0.0
C1875 C 0.48561 0.23713 0.98695 0.0
C1876 C 0.47266 0.19968 0.97571 0.0
C1877 C 0.42899 0.1849 0.9769 0.0
C1878 C 0.46632 0.30052 0.01074 0.0
C1879 C 0.50534 0.17411 0.96308 0.0
C1880 C 0.59081 0.29879 0.97437 0.0
C1881 C 0.61915 0.28473 0.98992 0.0
C1882 C 0.54766 0.28274 0.97287 0.0
C1883 C 0.53251 0.25144 0.98711 0.0
C1884 C 0.56162 0.23546 0.00221 0.0
C1885 C 0.60445 0.25251 0.00352 0.0
C1886 C 0.51768 0.3008 0.95661 0.0
C1887 C 0.547 0.20154 0.01748 0.0
H1888 H 0.38701 0.26115 0.00937 0.0
H1889 H 0.4197 0.15534 0.96879 0.0
H1890 H 0.49074 0.29158 0.02255 0.0
H1891 H 0.48192 0.32522 0.0007 0.0
H1892 H 0.43743 0.31598 0.01824 0.0
H1893 H 0.48936 0.14793 0.95395 0.0
H1894 H 0.52321 0.19649 0.9527 0.0
H1895 H 0.53014 0.15851 0.97314 0.0
H1896 H 0.60161 0.32395 0.96387 0.0
H1897 H 0.62608 0.24135 0.01554 0.0
H1898 H 0.49088 0.32029 0.96372 0.0
H1899 H 0.50209 0.27354 0.94808 0.0
H1900 H 0.5354 0.32228 0.94574 0.0
H1901 H 0.52061 0.21558 0.02716 0.0
H1902 H 0.57437 0.19038 0.0274 0.0
H1903 H 0.53309 0.17247 0.00962 0.0
loop_
_geom_bond_atom_site_label_1
_geom_bond_atom_site_label_2
_geom_bond_distance
_geom_bond_site_symmetry_2
_ccdc_geom_bond_type
O0 Zn1 1.953 . S
O0 C16 1.225 . S
Zn1 O0 1.953 . S
Zn1 O2 1.949 . S
Zn1 O8 1.919 . S
Zn1 O13 1.924 . S
O2 Zn1 1.949 . S
O2 Zn3 1.923 . S
O2 Zn4 1.950 . S
O2 Zn5 1.945 . S
Zn3 O2 1.923 . S
Zn3 O6 1.933 . S
Zn3 O9 1.941 . S
Zn3 O10 1.965 . S
Zn4 O2 1.950 . S
Zn4 O11 1.938 . S
Zn4 O12 1.906 . S
Zn4 O22 1.953 . S
Zn5 O2 1.945 . S
Zn5 O7 1.932 . S
Zn5 O14 1.977 . S
Zn5 O15 1.910 . S
O6 Zn3 1.933 . S
O6 C17 1.226 . S
O7 Zn5 1.932 . S
O7 C17 1.307 . S
O8 Zn1 1.919 . S
O8 C19 1.253 . S
O9 Zn3 1.941 . S
O9 C19 1.283 . S
O10 Zn3 1.965 . S
O10 C18 1.303 . S
O11 Zn4 1.938 . S
O11 C18 1.247 . S
O12 Zn4 1.906 . S
O12 C20 1.304 . S
O13 Zn1 1.924 . S
O13 C21 1.311 . S
O14 Zn5 1.977 . S
O14 C20 1.272 . S
O15 Zn5 1.910 . S
O15 C21 1.231 . S
C16 O0 1.225 . S
C16 O22 1.298 . S
C17 O6 1.226 . S
C17 O7 1.307 . S
C18 O10 1.303 . S
C18 O11 1.247 . S
C19 O8 1.253 . S
C19 O9 1.283 . S
C20 O12 1.304 . S
C20 O14 1.272 . S
C21 O13 1.311 . S
C21 O15 1.231 . S
O22 Zn4 1.953 . S
O22 C16 1.298 . S
O23 Zn24 1.953 . S
O23 C39 1.225 . S
Zn24 O23 1.953 . S
Zn24 O25 1.949 . S
Zn24 O31 1.919 . S
Zn24 O36 1.924 . S
O25 Zn24 1.949 . S
O25 Zn26 1.923 . S
O25 Zn27 1.950 . S
O25 Zn28 1.945 . S
Zn26 O25 1.923 . S
Zn26 O29 1.933 . S
Zn26 O32 1.941 . S
Zn26 O33 1.965 . S
Zn27 O25 1.950 . S
Zn27 O34 1.938 . S
Zn27 O35 1.906 . S
Zn27 O45 1.953 . S
Zn28 O25 1.945 . S
Zn28 O30 1.932 . S
Zn28 O37 1.977 . S
Zn28 O38 1.910 . S
O29 Zn26 1.933 . S
O29 C40 1.226 . S
O30 Zn28 1.932 . S
O30 C40 1.307 . S
O31 Zn24 1.919 . S
O31 C42 1.253 . S
O32 Zn26 1.941 . S
O32 C42 1.283 . S
O33 Zn26 1.965 . S
O33 C41 1.303 . S
O34 Zn27 1.938 . S
O34 C41 1.247 . S
O35 Zn27 1.906 . S
O35 C43 1.304 . S
O36 Zn24 1.924 . S
O36 C44 1.311 . S
O37 Zn28 1.977 . S
O37 C43 1.272 . S
O38 Zn28 1.910 . S
O38 C44 1.231 . S
C39 O23 1.225 . S
C39 O45 1.298 . S
C40 O29 1.226 . S
C40 O30 1.307 . S
C41 O33 1.303 . S
C41 O34 1.247 . S
C42 O31 1.253 . S
C42 O32 1.283 . S
C43 O35 1.304 . S
C43 O37 1.272 . S
C44 O36 1.311 . S
C44 O38 1.231 . S
O45 Zn27 1.953 . S
O45 C39 1.298 . S
O46 Zn47 1.953 . S
O46 C62 1.225 . S
Zn47 O46 1.953 . S
Zn47 O48 1.949 . S
Zn47 O54 1.919 . S
Zn47 O59 1.924 . S
O48 Zn47 1.949 . S
O48 Zn49 1.923 . S
O48 Zn50 1.950 . S
O48 Zn51 1.945 . S
Zn49 O48 1.923 . S
Zn49 O52 1.933 . S
Zn49 O55 1.941 . S
Zn49 O56 1.965 . S
Zn50 O48 1.950 . S
Zn50 O57 1.938 . S
Zn50 O58 1.906 . S
Zn50 O68 1.953 . S
Zn51 O48 1.945 . S
Zn51 O53 1.932 . S
Zn51 O60 1.977 . S
Zn51 O61 1.910 . S
O52 Zn49 1.933 . S
O52 C63 1.226 . S
O53 Zn51 1.932 . S
O53 C63 1.307 . S
O54 Zn47 1.919 . S
O54 C65 1.253 . S
O55 Zn49 1.941 . S
O55 C65 1.283 . S
O56 Zn49 1.965 . S
O56 C64 1.303 . S
O57 Zn50 1.938 . S
O57 C64 1.247 . S
O58 Zn50 1.906 . S
O58 C66 1.304 . S
O59 Zn47 1.924 . S
O59 C67 1.311 . S
O60 Zn51 1.977 . S
O60 C66 1.272 . S
O61 Zn51 1.910 . S
O61 C67 1.231 . S
C62 O46 1.225 . S
C62 O68 1.298 . S
C63 O52 1.226 . S
C63 O53 1.307 . S
C64 O56 1.303 . S
C64 O57 1.247 . S
C65 O54 1.253 . S
C65 O55 1.283 . S
C66 O58 1.304 . S
C66 O60 1.272 . S
C67 O59 1.311 . S
C67 O61 1.231 . S
O68 Zn50 1.953 . S
O68 C62 1.298 . S
O69 Zn70 1.953 . S
O69 C85 1.225 . S
Zn70 O69 1.953 . S
Zn70 O71 1.938 1_554 S
Zn70 O77 1.919 . S
Zn70 O82 1.924 . S
O71 Zn70 1.938 1_556 S
O71 Zn72 1.918 1_556 S
O71 Zn73 1.960 . S
O71 Zn74 1.950 . S
Zn72 O71 1.918 1_554 S
Zn72 O75 1.933 . S
Zn72 O78 1.941 . S
Zn72 O79 1.965 . S
Zn73 O71 1.960 . S
Zn73 O80 1.938 . S
Zn73 O81 1.906 . S
Zn73 O91 1.953 . S
Zn74 O71 1.950 . S
Zn74 O76 1.932 . S
Zn74 O83 1.977 . S
Zn74 O84 1.910 . S
O75 Zn72 1.933 . S
O75 C86 1.226 1_554 S
O76 Zn74 1.932 . S
O76 C86 1.307 . S
O77 Zn70 1.919 . S
O77 C88 1.253 . S
O78 Zn72 1.941 . S
O78 C88 1.283 . S
O79 Zn72 1.965 . S
O79 C87 1.303 1_554 S
O80 Zn73 1.938 . S
O80 C87 1.247 . S
O81 Zn73 1.906 . S
O81 C89 1.304 . S
O82 Zn70 1.924 . S
O82 C90 1.311 . S
O83 Zn74 1.977 . S
O83 C89 1.272 . S
O84 Zn74 1.910 . S
O84 C90 1.231 1_556 S
C85 O69 1.225 . S
C85 O91 1.298 1_554 S
C86 O75 1.226 1_556 S
C86 O76 1.307 . S
C87 O79 1.303 1_556 S
C87 O80 1.247 . S
C88 O77 1.253 . S
C88 O78 1.283 . S
C89 O81 1.304 . S
C89 O83 1.272 . S
C90 O82 1.311 . S
C90 O84 1.231 1_554 S
O91 Zn73 1.953 . S
O91 C85 1.298 1_556 S
O92 Zn93 1.953 . S
O92 C108 1.225 . S
Zn93 O92 1.953 . S
Zn93 O94 1.949 . S
Zn93 O100 1.919 . S
Zn93 O105 1.924 . S
O94 Zn93 1.949 . S
O94 Zn95 1.923 . S
O94 Zn96 1.950 . S
O94 Zn97 1.945 . S
Zn95 O94 1.923 . S
Zn95 O98 1.933 . S
Zn95 O101 1.941 . S
Zn95 O102 1.965 . S
Zn96 O94 1.950 . S
Zn96 O103 1.938 . S
Zn96 O104 1.906 . S
Zn96 O114 1.953 . S
Zn97 O94 1.945 . S
Zn97 O99 1.932 . S
Zn97 O106 1.977 . S
Zn97 O107 1.910 . S
O98 Zn95 1.933 . S
O98 C109 1.226 . S
O99 Zn97 1.932 . S
O99 C109 1.307 . S
O100 Zn93 1.919 . S
O100 C111 1.253 . S
O101 Zn95 1.941 . S
O101 C111 1.283 . S
O102 Zn95 1.965 . S
O102 C110 1.303 . S
O103 Zn96 1.938 . S
O103 C110 1.247 . S
O104 Zn96 1.906 . S
O104 C112 1.304 . S
O105 Zn93 1.924 . S
O105 C113 1.311 . S
O106 Zn97 1.977 . S
O106 C112 1.272 . S
O107 Zn97 1.910 . S
O107 C113 1.231 . S
C108 O92 1.225 . S
C108 O114 1.298 . S
C109 O98 1.226 . S
C109 O99 1.307 . S
C110 O102 1.303 . S
C110 O103 1.247 . S
C111 O100 1.253 . S
C111 O101 1.283 . S
C112 O104 1.304 . S
C112 O106 1.272 . S
C113 O105 1.311 . S
C113 O107 1.231 . S
O114 Zn96 1.953 . S
O114 C108 1.298 . S
O115 Zn116 1.953 . S
O115 C131 1.225 . S
Zn116 O115 1.953 . S
Zn116 O117 1.949 . S
Zn116 O123 1.919 . S
Zn116 O128 1.924 . S
O117 Zn116 1.949 . S
O117 Zn118 1.923 . S
O117 Zn119 1.950 . S
O117 Zn120 1.945 . S
Zn118 O117 1.923 . S
Zn118 O121 1.933 . S
Zn118 O124 1.941 . S
Zn118 O125 1.965 . S
Zn119 O117 1.950 . S
Zn119 O126 1.938 . S
Zn119 O127 1.906 . S
Zn119 O137 1.953 . S
Zn120 O117 1.945 . S
Zn120 O122 1.932 . S
Zn120 O129 1.977 . S
Zn120 O130 1.910 . S
O121 Zn118 1.933 . S
O121 C132 1.226 . S
O122 Zn120 1.932 . S
O122 C132 1.307 . S
O123 Zn116 1.919 . S
O123 C134 1.253 . S
O124 Zn118 1.941 . S
O124 C134 1.283 . S
O125 Zn118 1.965 . S
O125 C133 1.303 . S
O126 Zn119 1.938 . S
O126 C133 1.247 . S
O127 Zn119 1.906 . S
O127 C135 1.304 . S
O128 Zn116 1.924 . S
O128 C136 1.311 . S
O129 Zn120 1.977 . S
O129 C135 1.272 . S
O130 Zn120 1.910 . S
O130 C136 1.231 . S
C131 O115 1.225 . S
C131 O137 1.298 . S
C132 O121 1.226 . S
C132 O122 1.307 . S
C133 O125 1.303 . S
C133 O126 1.247 . S
C134 O123 1.253 . S
C134 O124 1.283 . S
C135 O127 1.304 . S
C135 O129 1.272 . S
C136 O128 1.311 . S
C136 O130 1.231 . S
O137 Zn119 1.953 . S
O137 C131 1.298 . S
O138 Zn139 1.953 . S
O138 C154 1.225 . S
Zn139 O138 1.953 . S
Zn139 O140 1.949 . S
Zn139 O146 1.919 . S
Zn139 O151 1.924 . S
O140 Zn139 1.949 . S
O140 Zn141 1.923 . S
O140 Zn142 1.950 . S
O140 Zn143 1.945 . S
Zn141 O140 1.923 . S
Zn141 O144 1.933 . S
Zn141 O147 1.941 . S
Zn141 O148 1.965 . S
Zn142 O140 1.950 . S
Zn142 O149 1.938 . S
Zn142 O150 1.906 . S
Zn142 O160 1.953 . S
Zn143 O140 1.945 . S
Zn143 O145 1.932 . S
Zn143 O152 1.977 . S
Zn143 O153 1.910 . S
O144 Zn141 1.933 . S
O144 C155 1.226 . S
O145 Zn143 1.932 . S
O145 C155 1.307 . S
O146 Zn139 1.919 . S
O146 C157 1.253 . S
O147 Zn141 1.941 . S
O147 C157 1.283 . S
O148 Zn141 1.965 . S
O148 C156 1.303 . S
O149 Zn142 1.938 . S
O149 C156 1.247 . S
O150 Zn142 1.906 . S
O150 C158 1.304 . S
O151 Zn139 1.924 . S
O151 C159 1.311 . S
O152 Zn143 1.977 . S
O152 C158 1.272 . S
O153 Zn143 1.910 . S
O153 C159 1.231 . S
C154 O138 1.225 . S
C154 O160 1.298 . S
C155 O144 1.226 . S
C155 O145 1.307 . S
C156 O148 1.303 . S
C156 O149 1.247 . S
C157 O146 1.253 . S
C157 O147 1.283 . S
C158 O150 1.304 . S
C158 O152 1.272 . S
C159 O151 1.311 . S
C159 O153 1.231 . S
O160 Zn142 1.953 . S
O160 C154 1.298 . S
O161 Zn162 1.953 . S
O161 C177 1.225 . S
Zn162 O161 1.953 . S
Zn162 O163 1.938 1_556 S
Zn162 O169 1.919 . S
Zn162 O174 1.924 . S
O163 Zn162 1.938 1_554 S
O163 Zn164 1.918 1_554 S
O163 Zn165 1.960 . S
O163 Zn166 1.950 . S
Zn164 O163 1.918 1_556 S
Zn164 O167 1.933 . S
Zn164 O170 1.941 . S
Zn164 O171 1.965 . S
Zn165 O163 1.960 . S
Zn165 O172 1.938 . S
Zn165 O173 1.906 . S
Zn165 O183 1.953 . S
Zn166 O163 1.950 . S
Zn166 O168 1.932 . S
Zn166 O175 1.977 . S
Zn166 O176 1.910 . S
O167 Zn164 1.933 . S
O167 C178 1.226 1_556 S
O168 Zn166 1.932 . S
O168 C178 1.307 . S
O169 Zn162 1.919 . S
O169 C180 1.253 . S
O170 Zn164 1.941 . S
O170 C180 1.283 . S
O171 Zn164 1.965 . S
O171 C179 1.303 1_556 S
O172 Zn165 1.938 . S
O172 C179 1.247 . S
O173 Zn165 1.906 . S
O173 C181 1.304 . S
O174 Zn162 1.924 . S
O174 C182 1.311 . S
O175 Zn166 1.977 . S
O175 C181 1.272 . S
O176 Zn166 1.910 . S
O176 C182 1.231 1_554 S
C177 O161 1.225 . S
C177 O183 1.298 1_556 S
C178 O167 1.226 1_554 S
C178 O168 1.307 . S
C179 O171 1.303 1_554 S
C179 O172 1.247 . S
C180 O169 1.253 . S
C180 O170 1.283 . S
C181 O173 1.304 . S
C181 O175 1.272 . S
C182 O174 1.311 . S
C182 O176 1.231 1_556 S
O183 Zn165 1.953 . S
O183 C177 1.298 1_554 S
O184 Zn185 1.953 . S
O184 C200 1.225 . S
Zn185 O184 1.953 . S
Zn185 O186 1.949 . S
Zn185 O192 1.919 . S
Zn185 O197 1.924 . S
O186 Zn185 1.949 . S
O186 Zn187 1.923 1_545 S
O186 Zn188 1.950 . S
O186 Zn189 1.945 . S
Zn187 O186 1.923 1_565 S
Zn187 O190 1.933 . S
Zn187 O193 1.941 . S
Zn187 O194 1.965 . S
Zn188 O186 1.950 . S
Zn188 O195 1.938 1_545 S
Zn188 O196 1.906 . S
Zn188 O206 1.953 . S
Zn189 O186 1.945 . S
Zn189 O191 1.932 1_545 S
Zn189 O198 1.977 . S
Zn189 O199 1.910 . S
O190 Zn187 1.933 . S
O190 C201 1.226 . S
O191 Zn189 1.932 1_565 S
O191 C201 1.307 . S
O192 Zn185 1.919 . S
O192 C203 1.253 . S
O193 Zn187 1.941 . S
O193 C203 1.283 1_565 S
O194 Zn187 1.965 . S
O194 C202 1.303 . S
O195 Zn188 1.938 1_565 S
O195 C202 1.247 . S
O196 Zn188 1.906 . S
O196 C204 1.304 . S
O197 Zn185 1.924 . S
O197 C205 1.311 . S
O198 Zn189 1.977 . S
O198 C204 1.272 . S
O199 Zn189 1.910 . S
O199 C205 1.231 . S
C200 O184 1.225 . S
C200 O206 1.298 . S
C201 O190 1.226 . S
C201 O191 1.307 . S
C202 O194 1.303 . S
C202 O195 1.247 . S
C203 O192 1.253 . S
C203 O193 1.283 1_545 S
C204 O196 1.304 . S
C204 O198 1.272 . S
C205 O197 1.311 . S
C205 O199 1.231 . S
O206 Zn188 1.953 . S
O206 C200 1.298 . S
O207 Zn208 1.953 . S
O207 C223 1.225 . S
Zn208 O207 1.953 . S
Zn208 O209 1.938 1_554 S
Zn208 O215 1.919 . S
Zn208 O220 1.924 . S
O209 Zn208 1.938 1_556 S
O209 Zn210 1.918 1_556 S
O209 Zn211 1.960 . S
O209 Zn212 1.950 . S
Zn210 O209 1.918 1_554 S
Zn210 O213 1.933 . S
Zn210 O216 1.941 . S
Zn210 O217 1.965 . S
Zn211 O209 1.960 . S
Zn211 O218 1.938 . S
Zn211 O219 1.906 . S
Zn211 O229 1.953 . S
Zn212 O209 1.950 . S
Zn212 O214 1.932 1_565 S
Zn212 O221 1.977 . S
Zn212 O222 1.910 . S
O213 Zn210 1.933 . S
O213 C224 1.226 1_564 S
O214 Zn212 1.932 1_545 S
O214 C224 1.307 . S
O215 Zn208 1.919 . S
O215 C226 1.253 . S
O216 Zn210 1.941 . S
O216 C226 1.283 . S
O217 Zn210 1.965 . S
O217 C225 1.303 1_554 S
O218 Zn211 1.938 . S
O218 C225 1.247 . S
O219 Zn211 1.906 . S
O219 C227 1.304 . S
O220 Zn208 1.924 . S
O220 C228 1.311 . S
O221 Zn212 1.977 . S
O221 C227 1.272 . S
O222 Zn212 1.910 . S
O222 C228 1.231 1_556 S
C223 O207 1.225 . S
C223 O229 1.298 1_554 S
C224 O213 1.226 1_546 S
C224 O214 1.307 . S
C225 O217 1.303 1_556 S
C225 O218 1.247 . S
C226 O215 1.253 . S
C226 O216 1.283 . S
C227 O219 1.304 . S
C227 O221 1.272 . S
C228 O220 1.311 . S
C228 O222 1.231 1_554 S
O229 Zn211 1.953 . S
O229 C223 1.298 1_556 S
O230 Zn231 1.953 . S
O230 C246 1.225 . S
Zn231 O230 1.953 . S
Zn231 O232 1.949 . S
Zn231 O238 1.919 . S
Zn231 O243 1.924 . S
O232 Zn231 1.949 . S
O232 Zn233 1.923 1_565 S
O232 Zn234 1.950 . S
O232 Zn235 1.945 . S
Zn233 O232 1.923 1_545 S
Zn233 O236 1.933 . S
Zn233 O239 1.941 . S
Zn233 O240 1.965 . S
Zn234 O232 1.950 . S
Zn234 O241 1.938 1_565 S
Zn234 O242 1.906 . S
Zn234 O252 1.953 . S
Zn235 O232 1.945 . S
Zn235 O237 1.932 1_565 S
Zn235 O244 1.977 . S
Zn235 O245 1.910 . S
O236 Zn233 1.933 . S
O236 C247 1.226 . S
O237 Zn235 1.932 1_545 S
O237 C247 1.307 . S
O238 Zn231 1.919 . S
O238 C249 1.253 . S
O239 Zn233 1.941 . S
O239 C249 1.283 1_545 S
O240 Zn233 1.965 . S
O240 C248 1.303 . S
O241 Zn234 1.938 1_545 S
O241 C248 1.247 . S
O242 Zn234 1.906 . S
O242 C250 1.304 . S
O243 Zn231 1.924 . S
O243 C251 1.311 . S
O244 Zn235 1.977 . S
O244 C250 1.272 . S
O245 Zn235 1.910 . S
O245 C251 1.231 . S
C246 O230 1.225 . S
C246 O252 1.298 . S
C247 O236 1.226 . S
C247 O237 1.307 . S
C248 O240 1.303 . S
C248 O241 1.247 . S
C249 O238 1.253 . S
C249 O239 1.283 1_565 S
C250 O242 1.304 . S
C250 O244 1.272 . S
C251 O243 1.311 . S
C251 O245 1.231 . S
O252 Zn234 1.953 . S
O252 C246 1.298 . S
O253 Zn254 1.953 . S
O253 C269 1.225 . S
Zn254 O253 1.953 . S
Zn254 O255 1.949 . S
Zn254 O261 1.919 . S
Zn254 O266 1.924 . S
O255 Zn254 1.949 . S
O255 Zn256 1.923 . S
O255 Zn257 1.950 . S
O255 Zn258 1.945 . S
Zn256 O255 1.923 . S
Zn256 O259 1.933 . S
Zn256 O262 1.941 . S
Zn256 O263 1.965 . S
Zn257 O255 1.950 . S
Zn257 O264 1.938 . S
Zn257 O265 1.906 . S
Zn257 O275 1.953 . S
Zn258 O255 1.945 . S
Zn258 O260 1.932 1_545 S
Zn258 O267 1.977 . S
Zn258 O268 1.910 . S
O259 Zn256 1.933 . S
O259 C270 1.226 1_545 S
O260 Zn258 1.932 1_565 S
O260 C270 1.307 . S
O261 Zn254 1.919 . S
O261 C272 1.253 . S
O262 Zn256 1.941 . S
O262 C272 1.283 . S
O263 Zn256 1.965 . S
O263 C271 1.303 . S
O264 Zn257 1.938 . S
O264 C271 1.247 . S
O265 Zn257 1.906 . S
O265 C273 1.304 . S
O266 Zn254 1.924 . S
O266 C274 1.311 . S
O267 Zn258 1.977 . S
O267 C273 1.272 . S
O268 Zn258 1.910 . S
O268 C274 1.231 . S
C269 O253 1.225 . S
C269 O275 1.298 . S
C270 O259 1.226 1_565 S
C270 O260 1.307 . S
C271 O263 1.303 . S
C271 O264 1.247 . S
C272 O261 1.253 . S
C272 O262 1.283 . S
C273 O265 1.304 . S
C273 O267 1.272 . S
C274 O266 1.311 . S
C274 O268 1.231 . S
O275 Zn257 1.953 . S
O275 C269 1.298 . S
O276 Zn277 1.953 . S
O276 C292 1.225 . S
Zn277 O276 1.953 . S
Zn277 O278 1.949 . S
Zn277 O284 1.919 . S
Zn277 O289 1.924 . S
O278 Zn277 1.949 . S
O278 Zn279 1.923 1_565 S
O278 Zn280 1.950 . S
O278 Zn281 1.945 . S
Zn279 O278 1.923 1_545 S
Zn279 O282 1.933 . S
Zn279 O285 1.941 . S
Zn279 O286 1.965 . S
Zn280 O278 1.950 . S
Zn280 O287 1.938 1_565 S
Zn280 O288 1.906 . S
Zn280 O298 1.953 . S
Zn281 O278 1.945 . S
Zn281 O283 1.932 1_565 S
Zn281 O290 1.977 . S
Zn281 O291 1.910 . S
O282 Zn279 1.933 . S
O282 C293 1.226 . S
O283 Zn281 1.932 1_545 S
O283 C293 1.307 . S
O284 Zn277 1.919 . S
O284 C295 1.253 . S
O285 Zn279 1.941 . S
O285 C295 1.283 1_545 S
O286 Zn279 1.965 . S
O286 C294 1.303 . S
O287 Zn280 1.938 1_545 S
O287 C294 1.247 . S
O288 Zn280 1.906 . S
O288 C296 1.304 . S
O289 Zn277 1.924 . S
O289 C297 1.311 . S
O290 Zn281 1.977 . S
O290 C296 1.272 . S
O291 Zn281 1.910 . S
O291 C297 1.231 . S
C292 O276 1.225 . S
C292 O298 1.298 . S
C293 O282 1.226 . S
C293 O283 1.307 . S
C294 O286 1.303 . S
C294 O287 1.247 . S
C295 O284 1.253 . S
C295 O285 1.283 1_565 S
C296 O288 1.304 . S
C296 O290 1.272 . S
C297 O289 1.311 . S
C297 O291 1.231 . S
O298 Zn280 1.953 . S
O298 C292 1.298 . S
O299 Zn300 1.953 . S
O299 C315 1.225 . S
Zn300 O299 1.953 . S
Zn300 O301 1.938 1_556 S
Zn300 O307 1.919 . S
Zn300 O312 1.924 . S
O301 Zn300 1.938 1_554 S
O301 Zn302 1.918 1_554 S
O301 Zn303 1.960 . S
O301 Zn304 1.950 . S
Zn302 O301 1.918 1_556 S
Zn302 O305 1.933 . S
Zn302 O308 1.941 . S
Zn302 O309 1.965 . S
Zn303 O301 1.960 . S
Zn303 O310 1.938 . S
Zn303 O311 1.906 . S
Zn303 O321 1.953 . S
Zn304 O301 1.950 . S
Zn304 O306 1.932 1_545 S
Zn304 O313 1.977 . S
Zn304 O314 1.910 . S
O305 Zn302 1.933 . S
O305 C316 1.226 1_546 S
O306 Zn304 1.932 1_565 S
O306 C316 1.307 . S
O307 Zn300 1.919 . S
O307 C318 1.253 . S
O308 Zn302 1.941 . S
O308 C318 1.283 . S
O309 Zn302 1.965 . S
O309 C317 1.303 1_556 S
O310 Zn303 1.938 . S
O310 C317 1.247 . S
O311 Zn303 1.906 . S
O311 C319 1.304 . S
O312 Zn300 1.924 . S
O312 C320 1.311 . S
O313 Zn304 1.977 . S
O313 C319 1.272 . S
O314 Zn304 1.910 . S
O314 C320 1.231 1_554 S
C315 O299 1.225 . S
C315 O321 1.298 1_556 S
C316 O305 1.226 1_564 S
C316 O306 1.307 . S
C317 O309 1.303 1_554 S
C317 O310 1.247 . S
C318 O307 1.253 . S
C318 O308 1.283 . S
C319 O311 1.304 . S
C319 O313 1.272 . S
C320 O312 1.311 . S
C320 O314 1.231 1_556 S
O321 Zn303 1.953 . S
O321 C315 1.298 1_554 S
O322 Zn323 1.953 . S
O322 C338 1.225 . S
Zn323 O322 1.953 . S
Zn323 O324 1.949 . S
Zn323 O330 1.919 . S
Zn323 O335 1.924 . S
O324 Zn323 1.949 . S
O324 Zn325 1.923 1_545 S
O324 Zn326 1.950 . S
O324 Zn327 1.945 . S
Zn325 O324 1.923 1_565 S
Zn325 O328 1.933 . S
Zn325 O331 1.941 . S
Zn325 O332 1.965 . S
Zn326 O324 1.950 . S
Zn326 O333 1.938 1_545 S
Zn326 O334 1.906 . S
Zn326 O344 1.953 . S
Zn327 O324 1.945 . S
Zn327 O329 1.932 1_545 S
Zn327 O336 1.977 . S
Zn327 O337 1.910 . S
O328 Zn325 1.933 . S
O328 C339 1.226 . S
O329 Zn327 1.932 1_565 S
O329 C339 1.307 . S
O330 Zn323 1.919 . S
O330 C341 1.253 . S
O331 Zn325 1.941 . S
O331 C341 1.283 1_565 S
O332 Zn325 1.965 . S
O332 C340 1.303 . S
O333 Zn326 1.938 1_565 S
O333 C340 1.247 . S
O334 Zn326 1.906 . S
O334 C342 1.304 . S
O335 Zn323 1.924 . S
O335 C343 1.311 . S
O336 Zn327 1.977 . S
O336 C342 1.272 . S
O337 Zn327 1.910 . S
O337 C343 1.231 . S
C338 O322 1.225 . S
C338 O344 1.298 . S
C339 O328 1.226 . S
C339 O329 1.307 . S
C340 O332 1.303 . S
C340 O333 1.247 . S
C341 O330 1.253 . S
C341 O331 1.283 1_545 S
C342 O334 1.304 . S
C342 O336 1.272 . S
C343 O335 1.311 . S
C343 O337 1.231 . S
O344 Zn326 1.953 . S
O344 C338 1.298 . S
O345 Zn346 1.953 . S
O345 C361 1.225 . S
Zn346 O345 1.953 . S
Zn346 O347 1.949 . S
Zn346 O353 1.919 . S
Zn346 O358 1.924 . S
O347 Zn346 1.949 . S
O347 Zn348 1.923 . S
O347 Zn349 1.950 . S
O347 Zn350 1.945 . S
Zn348 O347 1.923 . S
Zn348 O351 1.933 . S
Zn348 O354 1.941 . S
Zn348 O355 1.965 . S
Zn349 O347 1.950 . S
Zn349 O356 1.938 . S
Zn349 O357 1.906 . S
Zn349 O367 1.953 . S
Zn350 O347 1.945 . S
Zn350 O352 1.932 1_565 S
Zn350 O359 1.977 . S
Zn350 O360 1.910 . S
O351 Zn348 1.933 . S
O351 C362 1.226 1_565 S
O352 Zn350 1.932 1_545 S
O352 C362 1.307 . S
O353 Zn346 1.919 . S
O353 C364 1.253 . S
O354 Zn348 1.941 . S
O354 C364 1.283 . S
O355 Zn348 1.965 . S
O355 C363 1.303 . S
O356 Zn349 1.938 . S
O356 C363 1.247 . S
O357 Zn349 1.906 . S
O357 C365 1.304 . S
O358 Zn346 1.924 . S
O358 C366 1.311 . S
O359 Zn350 1.977 . S
O359 C365 1.272 . S
O360 Zn350 1.910 . S
O360 C366 1.231 . S
C361 O345 1.225 . S
C361 O367 1.298 . S
C362 O351 1.226 1_545 S
C362 O352 1.307 . S
C363 O355 1.303 . S
C363 O356 1.247 . S
C364 O353 1.253 . S
C364 O354 1.283 . S
C365 O357 1.304 . S
C365 O359 1.272 . S
C366 O358 1.311 . S
C366 O360 1.231 . S
O367 Zn349 1.953 . S
O367 C361 1.298 . S
C368 C369 1.391 . S
C368 C370 1.394 . S
C368 H384 0.931 . S
C369 C368 1.391 . S
C369 C373 1.376 . S
C370 C368 1.394 . S
C370 C371 1.369 . S
C370 C374 1.531 . S
C371 C370 1.369 . S
C371 C372 1.410 . S
C371 C379 1.503 . S
C372 C371 1.410 . S
C372 C373 1.392 . S
C372 C375 1.511 . S
C373 C369 1.376 . S
C373 C372 1.392 . S
C373 H385 0.929 . S
C374 C370 1.531 . S
C374 H386 0.960 . S
C374 H387 0.962 . S
C374 H388 0.960 . S
C375 C372 1.511 . S
C375 H389 0.961 . S
C375 H390 0.961 . S
C375 H391 0.961 . S
C376 C377 1.370 . S
C376 C378 1.363 . S
C376 H392 0.931 . S
C377 C376 1.370 . S
C377 C381 1.408 . S
C378 C376 1.363 . S
C378 C379 1.370 . S
C378 C382 1.524 . S
C379 C371 1.503 . S
C379 C378 1.370 . S
C379 C380 1.403 . S
C380 C379 1.403 . S
C380 C381 1.404 . S
C380 C383 1.539 . S
C381 C377 1.408 . S
C381 C380 1.404 . S
C381 H393 0.930 . S
C382 C378 1.524 . S
C382 H394 0.956 . S
C382 H395 0.961 . S
C382 H396 0.961 . S
C383 C380 1.539 . S
C383 H397 0.958 . S
C383 H398 0.961 . S
C383 H399 0.960 . S
H384 C368 0.931 . S
H385 C373 0.929 . S
H386 C374 0.960 . S
H387 C374 0.962 . S
H388 C374 0.960 . S
H389 C375 0.961 . S
H390 C375 0.961 . S
H391 C375 0.961 . S
H392 C376 0.931 . S
H393 C381 0.930 . S
H394 C382 0.956 . S
H395 C382 0.961 . S
H396 C382 0.961 . S
H397 C383 0.958 . S
H398 C383 0.961 . S
H399 C383 0.960 . S
C400 C401 1.391 . S
C400 C402 1.394 . S
C400 H416 0.931 . S
C401 C400 1.391 . S
C401 C405 1.376 . S
C402 C400 1.394 . S
C402 C403 1.369 . S
C402 C406 1.531 . S
C403 C402 1.369 . S
C403 C404 1.410 . S
C403 C411 1.503 . S
C404 C403 1.410 . S
C404 C405 1.392 . S
C404 C407 1.511 . S
C405 C401 1.376 . S
C405 C404 1.392 . S
C405 H417 0.929 . S
C406 C402 1.531 . S
C406 H418 0.960 . S
C406 H419 0.962 . S
C406 H420 0.960 . S
C407 C404 1.511 . S
C407 H421 0.961 . S
C407 H422 0.961 . S
C407 H423 0.961 . S
C408 C409 1.370 . S
C408 C410 1.363 . S
C408 H424 0.931 . S
C409 C408 1.370 . S
C409 C413 1.408 . S
C410 C408 1.363 . S
C410 C411 1.370 . S
C410 C414 1.524 . S
C411 C403 1.503 . S
C411 C410 1.370 . S
C411 C412 1.403 . S
C412 C411 1.403 . S
C412 C413 1.404 . S
C412 C415 1.539 . S
C413 C409 1.408 . S
C413 C412 1.404 . S
C413 H425 0.930 . S
C414 C410 1.524 . S
C414 H426 0.956 . S
C414 H427 0.961 . S
C414 H428 0.961 . S
C415 C412 1.539 . S
C415 H429 0.958 . S
C415 H430 0.961 . S
C415 H431 0.960 . S
H416 C400 0.931 . S
H417 C405 0.929 . S
H418 C406 0.960 . S
H419 C406 0.962 . S
H420 C406 0.960 . S
H421 C407 0.961 . S
H422 C407 0.961 . S
H423 C407 0.961 . S
H424 C408 0.931 . S
H425 C413 0.930 . S
H426 C414 0.956 . S
H427 C414 0.961 . S
H428 C414 0.961 . S
H429 C415 0.958 . S
H430 C415 0.961 . S
H431 C415 0.960 . S
C432 C433 1.391 . S
C432 C434 1.394 . S
C432 H448 0.931 . S
C433 C432 1.391 . S
C433 C437 1.376 . S
C434 C432 1.394 . S
C434 C435 1.369 . S
C434 C438 1.531 . S
C435 C434 1.369 . S
C435 C436 1.410 . S
C435 C443 1.503 . S
C436 C435 1.410 . S
C436 C437 1.392 . S
C436 C439 1.511 . S
C437 C433 1.376 . S
C437 C436 1.392 . S
C437 H449 0.929 . S
C438 C434 1.531 . S
C438 H450 0.960 . S
C438 H451 0.962 . S
C438 H452 0.960 . S
C439 C436 1.511 . S
C439 H453 0.961 . S
C439 H454 0.961 . S
C439 H455 0.961 . S
C440 C441 1.370 . S
C440 C442 1.363 1_655 S
C440 H456 0.931 . S
C441 C440 1.370 . S
C441 C445 1.408 . S
C442 C440 1.363 1_455 S
C442 C443 1.370 . S
C442 C446 1.524 . S
C443 C435 1.503 . S
C443 C442 1.370 . S
C443 C444 1.403 . S
C444 C443 1.403 . S
C444 C445 1.404 1_455 S
C444 C447 1.539 . S
C445 C441 1.408 . S
C445 C444 1.404 1_655 S
C445 H457 0.930 . S
C446 C442 1.524 . S
C446 H458 0.956 . S
C446 H459 0.961 . S
C446 H460 0.961 . S
C447 C444 1.539 . S
C447 H461 0.958 . S
C447 H462 0.961 . S
C447 H463 0.960 . S
H448 C432 0.931 . S
H449 C437 0.929 . S
H450 C438 0.960 . S
H451 C438 0.962 . S
H452 C438 0.960 . S
H453 C439 0.961 . S
H454 C439 0.961 . S
H455 C439 0.961 . S
H456 C440 0.931 . S
H457 C445 0.930 . S
H458 C446 0.956 . S
H459 C446 0.961 . S
H460 C446 0.961 . S
H461 C447 0.958 . S
H462 C447 0.961 . S
H463 C447 0.960 . S
C464 C465 1.391 . S
C464 C466 1.394 . S
C464 H480 0.931 . S
C465 C464 1.391 . S
C465 C469 1.376 1_554 S
C466 C464 1.394 . S
C466 C467 1.369 . S
C466 C470 1.531 . S
C467 C466 1.369 . S
C467 C468 1.410 1_554 S
C467 C475 1.503 . S
C468 C467 1.410 1_556 S
C468 C469 1.392 . S
C468 C471 1.511 . S
C469 C465 1.376 1_556 S
C469 C468 1.392 . S
C469 H481 0.929 . S
C470 C466 1.531 . S
C470 H482 0.960 . S
C470 H483 0.962 . S
C470 H484 0.960 . S
C471 C468 1.511 . S
C471 H485 0.961 . S
C471 H486 0.961 . S
C471 H487 0.961 . S
C472 C473 1.370 . S
C472 C474 1.363 . S
C472 H488 0.931 . S
C473 C472 1.370 . S
C473 C477 1.408 1_556 S
C474 C472 1.363 . S
C474 C475 1.370 1_556 S
C474 C478 1.524 . S
C475 C467 1.503 . S
C475 C474 1.370 1_554 S
C475 C476 1.403 . S
C476 C475 1.403 . S
C476 C477 1.404 . S
C476 C479 1.539 . S
C477 C473 1.408 1_554 S
C477 C476 1.404 . S
C477 H489 0.930 . S
C478 C474 1.524 . S
C478 H490 0.960 . S
C478 H491 0.961 . S
C478 H492 0.961 . S
C479 C476 1.539 . S
C479 H493 0.958 . S
C479 H494 0.961 . S
C479 H495 0.960 . S
H480 C464 0.931 . S
H481 C469 0.929 . S
H482 C470 0.960 . S
H483 C470 0.962 . S
H484 C470 0.960 . S
H485 C471 0.961 . S
H486 C471 0.961 . S
H487 C471 0.961 . S
H488 C472 0.931 . S
H489 C477 0.930 . S
H490 C478 0.960 . S
H491 C478 0.961 . S
H492 C478 0.961 . S
H493 C479 0.958 . S
H494 C479 0.961 . S
H495 C479 0.960 . S
C496 C497 1.391 . S
C496 C498 1.394 . S
C496 H512 0.931 . S
C497 C496 1.391 . S
C497 C501 1.376 . S
C498 C496 1.394 . S
C498 C499 1.369 . S
C498 C502 1.531 . S
C499 C498 1.369 . S
C499 C500 1.410 . S
C499 C507 1.503 . S
C500 C499 1.410 . S
C500 C501 1.392 . S
C500 C503 1.511 . S
C501 C497 1.376 . S
C501 C500 1.392 . S
C501 H513 0.929 . S
C502 C498 1.531 . S
C502 H514 0.960 . S
C502 H515 0.962 . S
C502 H516 0.960 . S
C503 C500 1.511 . S
C503 H517 0.961 . S
C503 H518 0.961 . S
C503 H519 0.961 . S
C504 C505 1.370 . S
C504 C506 1.363 . S
C504 H520 0.931 . S
C505 C504 1.370 . S
C505 C509 1.408 . S
C506 C504 1.363 . S
C506 C507 1.370 . S
C506 C510 1.524 . S
C507 C499 1.503 . S
C507 C506 1.370 . S
C507 C508 1.403 . S
C508 C507 1.403 . S
C508 C509 1.404 . S
C508 C511 1.539 . S
C509 C505 1.408 . S
C509 C508 1.404 . S
C509 H521 0.930 . S
C510 C506 1.524 . S
C510 H522 0.956 . S
C510 H523 0.961 . S
C510 H524 0.961 . S
C511 C508 1.539 . S
C511 H525 0.958 . S
C511 H526 0.961 . S
C511 H527 0.960 . S
H512 C496 0.931 . S
H513 C501 0.929 . S
H514 C502 0.960 . S
H515 C502 0.962 . S
H516 C502 0.960 . S
H517 C503 0.961 . S
H518 C503 0.961 . S
H519 C503 0.961 . S
H520 C504 0.931 . S
H521 C509 0.930 . S
H522 C510 0.956 . S
H523 C510 0.961 . S
H524 C510 0.961 . S
H525 C511 0.958 . S
H526 C511 0.961 . S
H527 C511 0.960 . S
C528 C529 1.391 . S
C528 C530 1.394 . S
C528 H544 0.931 . S
C529 C528 1.391 . S
C529 C533 1.376 . S
C530 C528 1.394 . S
C530 C531 1.369 . S
C530 C534 1.531 . S
C531 C530 1.369 . S
C531 C532 1.410 . S
C531 C539 1.503 . S
C532 C531 1.410 . S
C532 C533 1.392 . S
C532 C535 1.511 . S
C533 C529 1.376 . S
C533 C532 1.392 . S
C533 H545 0.929 . S
C534 C530 1.531 . S
C534 H546 0.960 . S
C534 H547 0.962 . S
C534 H548 0.960 . S
C535 C532 1.511 . S
C535 H549 0.961 . S
C535 H550 0.961 . S
C535 H551 0.961 . S
C536 C537 1.370 . S
C536 C538 1.363 . S
C536 H552 0.931 . S
C537 C536 1.370 . S
C537 C541 1.408 . S
C538 C536 1.363 . S
C538 C539 1.370 . S
C538 C542 1.524 . S
C539 C531 1.503 . S
C539 C538 1.370 . S
C539 C540 1.403 . S
C540 C539 1.403 . S
C540 C541 1.404 . S
C540 C543 1.539 . S
C541 C537 1.408 . S
C541 C540 1.404 . S
C541 H553 0.930 . S
C542 C538 1.524 . S
C542 H554 0.956 . S
C542 H555 0.961 . S
C542 H556 0.961 . S
C543 C540 1.539 . S
C543 H557 0.958 . S
C543 H558 0.961 . S
C543 H559 0.960 . S
H544 C528 0.931 . S
H545 C533 0.929 . S
H546 C534 0.960 . S
H547 C534 0.962 . S
H548 C534 0.960 . S
H549 C535 0.961 . S
H550 C535 0.961 . S
H551 C535 0.961 . S
H552 C536 0.931 . S
H553 C541 0.930 . S
H554 C542 0.956 . S
H555 C542 0.961 . S
H556 C542 0.961 . S
H557 C543 0.958 . S
H558 C543 0.961 . S
H559 C543 0.960 . S
C560 C561 1.391 . S
C560 C562 1.394 . S
C560 H576 0.931 . S
C561 C560 1.391 . S
C561 C565 1.376 . S
C562 C560 1.394 . S
C562 C563 1.369 . S
C562 C566 1.531 . S
C563 C562 1.369 . S
C563 C564 1.410 . S
C563 C571 1.503 . S
C564 C563 1.410 . S
C564 C565 1.392 . S
C564 C567 1.511 . S
C565 C561 1.376 . S
C565 C564 1.392 . S
C565 H577 0.929 . S
C566 C562 1.531 . S
C566 H578 0.960 . S
C566 H579 0.962 . S
C566 H580 0.960 . S
C567 C564 1.511 . S
C567 H581 0.961 . S
C567 H582 0.961 . S
C567 H583 0.961 . S
C568 C569 1.370 1_655 S
C568 C570 1.363 . S
C568 H584 0.931 1_655 S
C569 C568 1.370 1_455 S
C569 C573 1.408 . S
C570 C568 1.363 . S
C570 C571 1.370 . S
C570 C574 1.524 . S
C571 C563 1.503 . S
C571 C570 1.370 . S
C571 C572 1.403 . S
C572 C571 1.403 . S
C572 C573 1.404 1_655 S
C572 C575 1.539 . S
C573 C569 1.408 . S
C573 C572 1.404 1_455 S
C573 H585 0.930 . S
C574 C570 1.524 . S
C574 H586 0.956 . S
C574 H587 0.961 . S
C574 H588 0.961 . S
C575 C572 1.539 . S
C575 H589 0.958 . S
C575 H590 0.961 . S
C575 H591 0.960 . S
H576 C560 0.931 . S
H577 C565 0.929 . S
H578 C566 0.960 . S
H579 C566 0.962 . S
H580 C566 0.960 . S
H581 C567 0.961 . S
H582 C567 0.961 . S
H583 C567 0.961 . S
H584 C568 0.931 1_455 S
H585 C573 0.930 . S
H586 C574 0.956 . S
H587 C574 0.961 . S
H588 C574 0.961 . S
H589 C575 0.958 . S
H590 C575 0.961 . S
H591 C575 0.960 . S
C592 C593 1.391 . S
C592 C594 1.394 . S
C592 H608 0.931 . S
C593 C592 1.391 . S
C593 C597 1.376 1_554 S
C594 C592 1.394 . S
C594 C595 1.369 . S
C594 C598 1.531 . S
C595 C594 1.369 . S
C595 C596 1.410 1_554 S
C595 C603 1.503 1_554 S
C596 C595 1.410 1_556 S
C596 C597 1.392 . S
C596 C599 1.511 . S
C597 C593 1.376 1_556 S
C597 C596 1.392 . S
C597 H609 0.929 . S
C598 C594 1.531 . S
C598 H610 0.960 . S
C598 H611 0.962 . S
C598 H612 0.960 . S
C599 C596 1.511 . S
C599 H613 0.961 . S
C599 H614 0.961 . S
C599 H615 0.961 . S
C600 C601 1.370 . S
C600 C602 1.363 . S
C600 H616 0.931 . S
C601 C600 1.370 . S
C601 C605 1.408 1_556 S
C602 C600 1.363 . S
C602 C603 1.372 . S
C602 C606 1.524 . S
C603 C595 1.503 1_556 S
C603 C602 1.372 . S
C603 C604 1.402 1_556 S
C604 C603 1.402 1_554 S
C604 C605 1.404 . S
C604 C607 1.539 . S
C605 C601 1.408 1_554 S
C605 C604 1.404 . S
C605 H617 0.930 . S
C606 C602 1.524 . S
C606 H618 0.977 . S
C606 H619 0.961 . S
C606 H620 0.961 . S
C607 C604 1.539 . S
C607 H621 0.958 . S
C607 H622 0.961 . S
C607 H623 0.960 . S
H608 C592 0.931 . S
H609 C597 0.929 . S
H610 C598 0.960 . S
H611 C598 0.962 . S
H612 C598 0.960 . S
H613 C599 0.961 . S
H614 C599 0.961 . S
H615 C599 0.961 . S
H616 C600 0.931 . S
H617 C605 0.930 . S
H618 C606 0.977 . S
H619 C606 0.961 . S
H620 C606 0.961 . S
H621 C607 0.958 . S
H622 C607 0.961 . S
H623 C607 0.960 . S
C624 C625 1.391 . S
C624 C626 1.394 . S
C624 H640 0.931 . S
C625 C624 1.391 . S
C625 C629 1.376 . S
C626 C624 1.394 . S
C626 C627 1.369 . S
C626 C630 1.531 . S
C627 C626 1.369 . S
C627 C628 1.410 . S
C627 C635 1.503 . S
C628 C627 1.410 . S
C628 C629 1.392 . S
C628 C631 1.511 . S
C629 C625 1.376 . S
C629 C628 1.392 . S
C629 H641 0.929 . S
C630 C626 1.531 . S
C630 H642 0.960 . S
C630 H643 0.962 . S
C630 H644 0.960 . S
C631 C628 1.511 . S
C631 H645 0.961 1_565 S
C631 H646 0.962 . S
C631 H647 0.961 . S
C632 C633 1.360 1_655 S
C632 C634 1.378 . S
C632 H648 0.926 1_655 S
C633 C632 1.360 1_455 S
C633 C637 1.408 . S
C634 C632 1.378 . S
C634 C635 1.370 . S
C634 C638 1.524 . S
C635 C627 1.503 . S
C635 C634 1.370 . S
C635 C636 1.403 . S
C636 C635 1.403 . S
C636 C637 1.404 1_655 S
C636 C639 1.539 . S
C637 C633 1.408 . S
C637 C636 1.404 1_455 S
C637 H649 0.930 . S
C638 C634 1.524 . S
C638 H650 0.956 . S
C638 H651 0.961 1_565 S
C638 H652 0.961 1_565 S
C639 C636 1.539 . S
C639 H653 0.958 . S
C639 H654 0.961 . S
C639 H655 0.960 . S
H640 C624 0.931 . S
H641 C629 0.929 . S
H642 C630 0.960 . S
H643 C630 0.962 . S
H644 C630 0.960 . S
H645 C631 0.961 1_545 S
H646 C631 0.962 . S
H647 C631 0.961 . S
H648 C632 0.926 1_455 S
H649 C637 0.930 . S
H650 C638 0.956 . S
H651 C638 0.961 1_545 S
H652 C638 0.961 1_545 S
H653 C639 0.958 . S
H654 C639 0.961 . S
H655 C639 0.960 . S
C656 C657 1.391 . S
C656 C658 1.394 . S
C656 H672 0.931 . S
C657 C656 1.391 . S
C657 C661 1.376 1_556 S
C658 C656 1.394 . S
C658 C659 1.369 . S
C658 C662 1.531 . S
C659 C658 1.369 . S
C659 C660 1.410 1_556 S
C659 C667 1.503 . S
C660 C659 1.410 1_554 S
C660 C661 1.392 . S
C660 C663 1.511 . S
C661 C657 1.376 1_554 S
C661 C660 1.392 . S
C661 H673 0.929 . S
C662 C658 1.531 . S
C662 H674 0.960 . S
C662 H675 0.962 . S
C662 H676 0.960 . S
C663 C660 1.511 . S
C663 H677 0.961 . S
C663 H678 0.961 . S
C663 H679 0.961 . S
C664 C665 1.370 . S
C664 C666 1.363 . S
C664 H680 0.931 . S
C665 C664 1.370 . S
C665 C669 1.408 1_554 S
C666 C664 1.363 . S
C666 C667 1.370 1_554 S
C666 C670 1.524 . S
C667 C659 1.503 . S
C667 C666 1.370 1_556 S
C667 C668 1.403 . S
C668 C667 1.403 . S
C668 C669 1.404 . S
C668 C671 1.539 . S
C669 C665 1.408 1_556 S
C669 C668 1.404 . S
C669 H681 0.930 . S
C670 C666 1.524 . S
C670 H682 0.956 . S
C670 H683 0.961 . S
C670 H684 0.961 . S
C671 C668 1.539 . S
C671 H685 0.958 . S
C671 H686 0.961 . S
C671 H687 0.960 . S
H672 C656 0.931 . S
H673 C661 0.929 . S
H674 C662 0.960 . S
H675 C662 0.962 . S
H676 C662 0.960 . S
H677 C663 0.961 . S
H678 C663 0.961 . S
H679 C663 0.961 . S
H680 C664 0.931 . S
H681 C669 0.930 . S
H682 C670 0.956 . S
H683 C670 0.961 . S
H684 C670 0.961 . S
H685 C671 0.958 . S
H686 C671 0.961 . S
H687 C671 0.960 . S
C688 C689 1.391 . S
C688 C690 1.394 . S
C688 H704 0.931 . S
C689 C688 1.391 . S
C689 C693 1.376 . S
C690 C688 1.394 . S
C690 C691 1.369 . S
C690 C694 1.531 . S
C691 C690 1.369 . S
C691 C692 1.410 . S
C691 C699 1.503 . S
C692 C691 1.410 . S
C692 C693 1.392 . S
C692 C695 1.511 1_545 S
C693 C689 1.376 . S
C693 C692 1.392 . S
C693 H705 0.929 1_545 S
C694 C690 1.531 . S
C694 H706 0.960 . S
C694 H707 0.962 . S
C694 H708 0.960 . S
C695 C692 1.511 1_565 S
C695 H709 0.961 . S
C695 H710 0.961 . S
C695 H711 0.961 . S
C696 C697 1.370 . S
C696 C698 1.363 . S
C696 H712 0.931 . S
C697 C696 1.370 . S
C697 C701 1.408 . S
C698 C696 1.363 . S
C698 C699 1.370 . S
C698 C702 1.524 . S
C699 C691 1.503 . S
C699 C698 1.370 . S
C699 C700 1.403 . S
C700 C699 1.403 . S
C700 C701 1.404 . S
C700 C703 1.539 . S
C701 C697 1.408 . S
C701 C700 1.404 . S
C701 H713 0.930 . S
C702 C698 1.524 . S
C702 H714 0.956 . S
C702 H715 0.961 . S
C702 H716 0.961 . S
C703 C700 1.539 . S
C703 H717 0.958 . S
C703 H718 0.961 . S
C703 H719 0.960 . S
H704 C688 0.931 . S
H705 C693 0.929 1_565 S
H706 C694 0.960 . S
H707 C694 0.962 . S
H708 C694 0.960 . S
H709 C695 0.961 . S
H710 C695 0.961 . S
H711 C695 0.961 . S
H712 C696 0.931 . S
H713 C701 0.930 . S
H714 C702 0.956 . S
H715 C702 0.961 . S
H716 C702 0.961 . S
H717 C703 0.958 . S
H718 C703 0.961 . S
H719 C703 0.960 . S
C720 C721 1.391 . S
C720 C722 1.394 . S
C720 H736 0.931 . S
C721 C720 1.391 . S
C721 C725 1.376 . S
C722 C720 1.394 . S
C722 C723 1.369 . S
C722 C726 1.531 . S
C723 C722 1.369 . S
C723 C724 1.410 . S
C723 C731 1.503 . S
C724 C723 1.410 . S
C724 C725 1.392 . S
C724 C727 1.511 . S
C725 C721 1.376 . S
C725 C724 1.392 . S
C725 H737 0.929 . S
C726 C722 1.531 . S
C726 H738 0.960 . S
C726 H739 0.962 . S
C726 H740 0.960 . S
C727 C724 1.511 . S
C727 H741 0.961 . S
C727 H742 0.961 . S
C727 H743 0.961 . S
C728 C729 1.370 . S
C728 C730 1.363 . S
C728 H744 0.931 . S
C729 C728 1.370 . S
C729 C733 1.408 . S
C730 C728 1.363 . S
C730 C731 1.370 . S
C730 C734 1.524 . S
C731 C723 1.503 . S
C731 C730 1.370 . S
C731 C732 1.403 . S
C732 C731 1.403 . S
C732 C733 1.404 . S
C732 C735 1.539 . S
C733 C729 1.408 . S
C733 C732 1.404 . S
C733 H745 0.930 . S
C734 C730 1.524 . S
C734 H746 0.956 . S
C734 H747 0.961 . S
C734 H748 0.961 . S
C735 C732 1.539 . S
C735 H749 0.958 . S
C735 H750 0.961 . S
C735 H751 0.960 . S
H736 C720 0.931 . S
H737 C725 0.929 . S
H738 C726 0.960 . S
H739 C726 0.962 . S
H740 C726 0.960 . S
H741 C727 0.961 . S
H742 C727 0.961 . S
H743 C727 0.961 . S
H744 C728 0.931 . S
H745 C733 0.930 . S
H746 C734 0.956 . S
H747 C734 0.961 . S
H748 C734 0.961 . S
H749 C735 0.958 . S
H750 C735 0.961 . S
H751 C735 0.960 . S
C752 C753 1.391 . S
C752 C754 1.394 1_655 S
C752 H768 0.931 . S
C753 C752 1.391 . S
C753 C757 1.376 . S
C754 C752 1.394 1_455 S
C754 C755 1.369 . S
C754 C758 1.531 . S
C755 C754 1.369 . S
C755 C756 1.410 . S
C755 C763 1.503 . S
C756 C755 1.410 . S
C756 C757 1.392 1_455 S
C756 C759 1.511 . S
C757 C753 1.376 . S
C757 C756 1.392 1_655 S
C757 H769 0.929 . S
C758 C754 1.531 . S
C758 H770 0.960 . S
C758 H771 0.962 . S
C758 H772 0.960 . S
C759 C756 1.511 . S
C759 H773 0.961 . S
C759 H774 0.961 . S
C759 H775 0.961 . S
C760 C761 1.370 . S
C760 C762 1.363 . S
C760 H776 0.931 1_545 S
C761 C760 1.370 . S
C761 C765 1.408 . S
C762 C760 1.363 . S
C762 C763 1.370 . S
C762 C766 1.524 1_545 S
C763 C755 1.503 . S
C763 C762 1.370 . S
C763 C764 1.403 . S
C764 C763 1.403 . S
C764 C765 1.404 . S
C764 C767 1.539 . S
C765 C761 1.408 . S
C765 C764 1.404 . S
C765 H777 0.930 . S
C766 C762 1.524 1_565 S
C766 H778 0.956 . S
C766 H779 0.961 . S
C766 H780 0.961 . S
C767 C764 1.539 . S
C767 H781 0.958 . S
C767 H782 0.961 . S
C767 H783 0.960 . S
H768 C752 0.931 . S
H769 C757 0.929 . S
H770 C758 0.960 . S
H771 C758 0.962 . S
H772 C758 0.960 . S
H773 C759 0.961 . S
H774 C759 0.961 . S
H775 C759 0.961 . S
H776 C760 0.931 1_565 S
H777 C765 0.930 . S
H778 C766 0.956 . S
H779 C766 0.961 . S
H780 C766 0.961 . S
H781 C767 0.958 . S
H782 C767 0.961 . S
H783 C767 0.960 . S
C784 C785 1.391 . S
C784 C786 1.394 . S
C784 H800 0.931 . S
C785 C784 1.391 . S
C785 C789 1.370 1_554 S
C786 C784 1.394 . S
C786 C787 1.369 . S
C786 C790 1.531 . S
C787 C786 1.369 . S
C787 C788 1.411 1_554 S
C787 C795 1.503 . S
C788 C787 1.411 1_556 S
C788 C789 1.391 . S
C788 C791 1.510 . S
C789 C785 1.370 1_556 S
C789 C788 1.391 . S
C789 H801 0.938 . S
C790 C786 1.531 . S
C790 H802 0.960 . S
C790 H803 1.011 . S
C790 H804 0.960 . S
C791 C788 1.510 . S
C791 H805 0.961 . S
C791 H806 0.961 . S
C791 H807 0.961 1_556 S
C792 C793 1.370 . S
C792 C794 1.363 . S
C792 H808 0.931 . S
C793 C792 1.370 . S
C793 C797 1.408 1_556 S
C794 C792 1.363 . S
C794 C795 1.370 1_556 S
C794 C798 1.524 . S
C795 C787 1.503 . S
C795 C794 1.370 1_554 S
C795 C796 1.403 . S
C796 C795 1.403 . S
C796 C797 1.404 . S
C796 C799 1.539 . S
C797 C793 1.408 1_554 S
C797 C796 1.404 . S
C797 H809 0.930 . S
C798 C794 1.524 . S
C798 H810 0.956 . S
C798 H811 0.961 . S
C798 H812 0.961 . S
C799 C796 1.539 . S
C799 H813 0.958 . S
C799 H814 0.961 . S
C799 H815 0.960 . S
H800 C784 0.931 . S
H801 C789 0.938 . S
H802 C790 0.960 . S
H803 C790 1.011 . S
H804 C790 0.960 . S
H805 C791 0.961 . S
H806 C791 0.961 . S
H807 C791 0.961 1_554 S
H808 C792 0.931 . S
H809 C797 0.930 . S
H810 C798 0.956 . S
H811 C798 0.961 . S
H812 C798 0.961 . S
H813 C799 0.958 . S
H814 C799 0.961 . S
H815 C799 0.960 . S
C816 C817 1.391 . S
C816 C818 1.394 . S
C816 H832 0.931 . S
C817 C816 1.391 . S
C817 C821 1.376 . S
C818 C816 1.394 . S
C818 C819 1.369 . S
C818 C822 1.531 . S
C819 C818 1.369 . S
C819 C820 1.410 . S
C819 C827 1.503 . S
C820 C819 1.410 . S
C820 C821 1.392 . S
C820 C823 1.511 . S
C821 C817 1.376 . S
C821 C820 1.392 . S
C821 H833 0.929 . S
C822 C818 1.531 . S
C822 H834 0.960 . S
C822 H835 0.962 . S
C822 H836 0.960 . S
C823 C820 1.511 . S
C823 H837 0.961 . S
C823 H838 0.961 . S
C823 H839 0.961 . S
C824 C825 1.370 . S
C824 C826 1.363 . S
C824 H840 0.939 . S
C825 C824 1.370 . S
C825 C829 1.408 . S
C826 C824 1.363 . S
C826 C827 1.370 . S
C826 C830 1.524 1_565 S
C827 C819 1.503 . S
C827 C826 1.370 . S
C827 C828 1.403 . S
C828 C827 1.403 . S
C828 C829 1.404 . S
C828 C831 1.539 . S
C829 C825 1.408 . S
C829 C828 1.404 . S
C829 H841 0.930 . S
C830 C826 1.524 1_545 S
C830 H842 0.956 . S
C830 H843 0.961 . S
C830 H844 0.961 . S
C831 C828 1.539 . S
C831 H845 0.958 . S
C831 H846 0.961 . S
C831 H847 0.960 . S
H832 C816 0.931 . S
H833 C821 0.929 . S
H834 C822 0.960 . S
H835 C822 0.962 . S
H836 C822 0.960 . S
H837 C823 0.961 . S
H838 C823 0.961 . S
H839 C823 0.961 . S
H840 C824 0.939 . S
H841 C829 0.930 . S
H842 C830 0.956 . S
H843 C830 0.961 . S
H844 C830 0.961 . S
H845 C831 0.958 . S
H846 C831 0.961 . S
H847 C831 0.960 . S
C848 C849 1.391 . S
C848 C850 1.394 . S
C848 H864 0.931 . S
C849 C848 1.391 . S
C849 C853 1.376 . S
C850 C848 1.394 . S
C850 C851 1.369 . S
C850 C854 1.531 . S
C851 C850 1.369 . S
C851 C852 1.410 . S
C851 C859 1.503 . S
C852 C851 1.410 . S
C852 C853 1.392 . S
C852 C855 1.511 . S
C853 C849 1.376 . S
C853 C852 1.392 . S
C853 H865 0.929 . S
C854 C850 1.531 . S
C854 H866 0.960 . S
C854 H867 0.962 . S
C854 H868 0.960 . S
C855 C852 1.511 . S
C855 H869 0.961 . S
C855 H870 0.961 . S
C855 H871 0.961 . S
C856 C857 1.370 . S
C856 C858 1.363 . S
C856 H872 0.931 . S
C857 C856 1.370 . S
C857 C861 1.408 . S
C858 C856 1.363 . S
C858 C859 1.370 . S
C858 C862 1.524 . S
C859 C851 1.503 . S
C859 C858 1.370 . S
C859 C860 1.403 . S
C860 C859 1.403 . S
C860 C861 1.404 . S
C860 C863 1.539 . S
C861 C857 1.408 . S
C861 C860 1.404 . S
C861 H873 0.930 . S
C862 C858 1.524 . S
C862 H874 0.956 . S
C862 H875 0.961 . S
C862 H876 0.961 . S
C863 C860 1.539 . S
C863 H877 0.958 . S
C863 H878 0.961 . S
C863 H879 0.960 . S
H864 C848 0.931 . S
H865 C853 0.929 . S
H866 C854 0.960 . S
H867 C854 0.962 . S
H868 C854 0.960 . S
H869 C855 0.961 . S
H870 C855 0.961 . S
H871 C855 0.961 . S
H872 C856 0.931 . S
H873 C861 0.930 . S
H874 C862 0.956 . S
H875 C862 0.961 . S
H876 C862 0.961 . S
H877 C863 0.958 . S
H878 C863 0.961 . S
H879 C863 0.960 . S
C880 C881 1.391 . S
C880 C882 1.394 . S
C880 H896 0.931 . S
C881 C880 1.391 . S
C881 C885 1.376 . S
C882 C880 1.394 . S
C882 C883 1.369 . S
C882 C886 1.531 . S
C883 C882 1.369 . S
C883 C884 1.410 . S
C883 C891 1.503 . S
C884 C883 1.410 . S
C884 C885 1.392 . S
C884 C887 1.511 . S
C885 C881 1.376 . S
C885 C884 1.392 . S
C885 H897 0.929 . S
C886 C882 1.531 . S
C886 H898 0.960 . S
C886 H899 0.962 . S
C886 H900 0.960 . S
C887 C884 1.511 . S
C887 H901 0.961 . S
C887 H902 0.961 . S
C887 H903 0.961 . S
C888 C889 1.370 . S
C888 C890 1.363 . S
C888 H904 0.931 . S
C889 C888 1.370 . S
C889 C893 1.408 . S
C890 C888 1.363 . S
C890 C891 1.370 . S
C890 C894 1.524 . S
C891 C883 1.503 . S
C891 C890 1.370 . S
C891 C892 1.403 . S
C892 C891 1.403 . S
C892 C893 1.404 . S
C892 C895 1.539 . S
C893 C889 1.408 . S
C893 C892 1.404 . S
C893 H905 0.930 . S
C894 C890 1.524 . S
C894 H906 0.956 . S
C894 H907 0.961 . S
C894 H908 0.961 . S
C895 C892 1.539 . S
C895 H909 0.958 . S
C895 H910 0.961 . S
C895 H911 0.960 . S
H896 C880 0.931 . S
H897 C885 0.929 . S
H898 C886 0.960 . S
H899 C886 0.962 . S
H900 C886 0.960 . S
H901 C887 0.961 . S
H902 C887 0.961 . S
H903 C887 0.961 . S
H904 C888 0.931 . S
H905 C893 0.930 . S
H906 C894 0.956 . S
H907 C894 0.961 . S
H908 C894 0.961 . S
H909 C895 0.958 . S
H910 C895 0.961 . S
H911 C895 0.960 . S
C912 C913 1.391 . S
C912 C914 1.394 . S
C912 H928 0.931 . S
C913 C912 1.391 . S
C913 C917 1.376 . S
C914 C912 1.394 . S
C914 C915 1.369 . S
C914 C918 1.531 . S
C915 C914 1.369 . S
C915 C916 1.410 . S
C915 C923 1.503 1_455 S
C916 C915 1.410 . S
C916 C917 1.392 . S
C916 C919 1.511 . S
C917 C913 1.376 . S
C917 C916 1.392 . S
C917 H929 0.929 . S
C918 C914 1.531 . S
C918 H930 0.960 . S
C918 H931 0.962 . S
C918 H932 0.960 . S
C919 C916 1.511 . S
C919 H933 0.961 . S
C919 H934 0.961 1_455 S
C919 H935 0.961 . S
C920 C921 1.370 . S
C920 C922 1.363 . S
C920 H936 0.931 . S
C921 C920 1.370 . S
C921 C925 1.408 . S
C922 C920 1.363 . S
C922 C923 1.370 . S
C922 C926 1.524 . S
C923 C915 1.503 1_655 S
C923 C922 1.370 . S
C923 C924 1.403 . S
C924 C923 1.403 . S
C924 C925 1.404 . S
C924 C927 1.539 . S
C925 C921 1.408 . S
C925 C924 1.404 . S
C925 H937 0.930 . S
C926 C922 1.524 . S
C926 H938 0.956 1_655 S
C926 H939 0.961 . S
C926 H940 0.961 . S
C927 C924 1.539 . S
C927 H941 0.958 . S
C927 H942 0.961 . S
C927 H943 0.960 . S
H928 C912 0.931 . S
H929 C917 0.929 . S
H930 C918 0.960 . S
H931 C918 0.962 . S
H932 C918 0.960 . S
H933 C919 0.961 . S
H934 C919 0.961 1_655 S
H935 C919 0.961 . S
H936 C920 0.931 . S
H937 C925 0.930 . S
H938 C926 0.956 1_455 S
H939 C926 0.961 . S
H940 C926 0.961 . S
H941 C927 0.958 . S
H942 C927 0.961 . S
H943 C927 0.960 . S
C944 C945 1.391 . S
C944 C946 1.394 . S
C944 H960 0.931 . S
C945 C944 1.391 . S
C945 C949 1.376 . S
C946 C944 1.394 . S
C946 C947 1.369 . S
C946 C950 1.531 . S
C947 C946 1.369 . S
C947 C948 1.410 . S
C947 C955 1.503 . S
C948 C947 1.410 . S
C948 C949 1.392 . S
C948 C951 1.511 . S
C949 C945 1.376 . S
C949 C948 1.392 . S
C949 H961 0.929 . S
C950 C946 1.531 . S
C950 H962 0.960 . S
C950 H963 0.962 . S
C950 H964 0.960 . S
C951 C948 1.511 . S
C951 H965 0.961 . S
C951 H966 0.961 . S
C951 H967 0.961 . S
C952 C953 1.370 . S
C952 C954 1.363 . S
C952 H968 0.931 . S
C953 C952 1.370 . S
C953 C957 1.408 . S
C954 C952 1.363 . S
C954 C955 1.370 . S
C954 C958 1.524 . S
C955 C947 1.503 . S
C955 C954 1.370 . S
C955 C956 1.403 . S
C956 C955 1.403 . S
C956 C957 1.404 . S
C956 C959 1.539 . S
C957 C953 1.408 . S
C957 C956 1.404 . S
C957 H969 0.930 . S
C958 C954 1.524 . S
C958 H970 0.956 . S
C958 H971 0.961 . S
C958 H972 0.961 . S
C959 C956 1.539 . S
C959 H973 0.958 . S
C959 H974 0.961 . S
C959 H975 0.960 . S
H960 C944 0.931 . S
H961 C949 0.929 . S
H962 C950 0.960 . S
H963 C950 0.962 . S
H964 C950 0.960 . S
H965 C951 0.961 . S
H966 C951 0.961 . S
H967 C951 0.961 . S
H968 C952 0.931 . S
H969 C957 0.930 . S
H970 C958 0.956 . S
H971 C958 0.961 . S
H972 C958 0.961 . S
H973 C959 0.958 . S
H974 C959 0.961 . S
H975 C959 0.960 . S
C976 C977 1.391 1_554 S
C976 C978 1.394 . S
C976 H992 0.931 . S
C977 C976 1.391 1_556 S
C977 C981 1.376 . S
C978 C976 1.394 . S
C978 C979 1.369 1_554 S
C978 C982 1.531 . S
C979 C978 1.369 1_556 S
C979 C980 1.410 . S
C979 C987 1.503 . S
C980 C979 1.410 . S
C980 C981 1.392 . S
C980 C983 1.511 . S
C981 C977 1.376 . S
C981 C980 1.392 . S
C981 H993 0.929 . S
C982 C978 1.531 . S
C982 H994 0.960 . S
C982 H995 0.962 . S
C982 H996 0.960 . S
C983 C980 1.511 . S
C983 H997 0.961 . S
C983 H998 0.961 . S
C983 H999 0.961 . S
C984 C985 1.370 . S
C984 C986 1.363 . S
C984 H1000 0.931 . S
C985 C984 1.370 . S
C985 C989 1.408 1_554 S
C986 C984 1.363 . S
C986 C987 1.370 1_554 S
C986 C990 1.524 . S
C987 C979 1.503 . S
C987 C986 1.370 1_556 S
C987 C988 1.403 . S
C988 C987 1.403 . S
C988 C989 1.404 . S
C988 C991 1.539 . S
C989 C985 1.408 1_556 S
C989 C988 1.404 . S
C989 H1001 0.930 . S
C990 C986 1.524 . S
C990 H1002 0.956 . S
C990 H1003 0.961 . S
C990 H1004 0.961 . S
C991 C988 1.539 . S
C991 H1005 0.958 . S
C991 H1006 0.961 . S
C991 H1007 0.960 . S
H992 C976 0.931 . S
H993 C981 0.929 . S
H994 C982 0.960 . S
H995 C982 0.962 . S
H996 C982 0.960 . S
H997 C983 0.961 . S
H998 C983 0.961 . S
H999 C983 0.961 . S
H1000 C984 0.931 . S
H1001 C989 0.930 . S
H1002 C990 0.956 . S
H1003 C990 0.961 . S
H1004 C990 0.961 . S
H1005 C991 0.958 . S
H1006 C991 0.961 . S
H1007 C991 0.960 . S
C1008 C1009 1.391 . S
C1008 C1010 1.394 . S
C1008 H1024 0.931 . S
C1009 C1008 1.391 . S
C1009 C1013 1.376 . S
C1010 C1008 1.394 . S
C1010 C1011 1.369 . S
C1010 C1014 1.531 . S
C1011 C1010 1.369 . S
C1011 C1012 1.410 . S
C1011 C1019 1.503 . S
C1012 C1011 1.410 . S
C1012 C1013 1.392 . S
C1012 C1015 1.511 . S
C1013 C1009 1.376 . S
C1013 C1012 1.392 . S
C1013 H1025 0.929 . S
C1014 C1010 1.531 . S
C1014 H1026 0.960 . S
C1014 H1027 0.962 . S
C1014 H1028 0.960 . S
C1015 C1012 1.511 . S
C1015 H1029 0.961 . S
C1015 H1030 0.961 . S
C1015 H1031 0.961 . S
C1016 C1017 1.370 . S
C1016 C1018 1.363 . S
C1016 H1032 0.931 . S
C1017 C1016 1.370 . S
C1017 C1021 1.408 . S
C1018 C1016 1.363 . S
C1018 C1019 1.370 . S
C1018 C1022 1.524 . S
C1019 C1011 1.503 . S
C1019 C1018 1.370 . S
C1019 C1020 1.403 . S
C1020 C1019 1.403 . S
C1020 C1021 1.404 . S
C1020 C1023 1.539 . S
C1021 C1017 1.408 . S
C1021 C1020 1.404 . S
C1021 H1033 0.930 . S
C1022 C1018 1.524 . S
C1022 H1034 0.956 . S
C1022 H1035 0.961 . S
C1022 H1036 0.961 . S
C1023 C1020 1.539 . S
C1023 H1037 0.958 . S
C1023 H1038 0.961 . S
C1023 H1039 0.960 . S
H1024 C1008 0.931 . S
H1025 C1013 0.929 . S
H1026 C1014 0.960 . S
H1027 C1014 0.962 . S
H1028 C1014 0.960 . S
H1029 C1015 0.961 . S
H1030 C1015 0.961 . S
H1031 C1015 0.961 . S
H1032 C1016 0.931 . S
H1033 C1021 0.930 . S
H1034 C1022 0.956 . S
H1035 C1022 0.961 . S
H1036 C1022 0.961 . S
H1037 C1023 0.958 . S
H1038 C1023 0.961 . S
H1039 C1023 0.960 . S
C1040 C1041 1.391 . S
C1040 C1042 1.394 . S
C1040 H1056 0.931 . S
C1041 C1040 1.391 . S
C1041 C1045 1.376 . S
C1042 C1040 1.394 . S
C1042 C1043 1.369 . S
C1042 C1046 1.531 . S
C1043 C1042 1.369 . S
C1043 C1044 1.410 . S
C1043 C1051 1.503 . S
C1044 C1043 1.410 . S
C1044 C1045 1.392 . S
C1044 C1047 1.511 . S
C1045 C1041 1.376 . S
C1045 C1044 1.392 . S
C1045 H1057 0.929 . S
C1046 C1042 1.531 . S
C1046 H1058 0.960 . S
C1046 H1059 0.962 . S
C1046 H1060 0.960 . S
C1047 C1044 1.511 . S
C1047 H1061 0.961 . S
C1047 H1062 0.961 . S
C1047 H1063 0.961 . S
C1048 C1049 1.370 . S
C1048 C1050 1.363 . S
C1048 H1064 0.931 . S
C1049 C1048 1.370 . S
C1049 C1053 1.408 . S
C1050 C1048 1.363 . S
C1050 C1051 1.370 . S
C1050 C1054 1.524 . S
C1051 C1043 1.503 . S
C1051 C1050 1.370 . S
C1051 C1052 1.403 . S
C1052 C1051 1.403 . S
C1052 C1053 1.404 . S
C1052 C1055 1.539 . S
C1053 C1049 1.408 . S
C1053 C1052 1.404 . S
C1053 H1065 0.930 . S
C1054 C1050 1.524 . S
C1054 H1066 0.956 . S
C1054 H1067 0.961 . S
C1054 H1068 0.961 . S
C1055 C1052 1.539 . S
C1055 H1069 0.958 . S
C1055 H1070 0.961 . S
C1055 H1071 0.960 . S
H1056 C1040 0.931 . S
H1057 C1045 0.929 . S
H1058 C1046 0.960 . S
H1059 C1046 0.962 . S
H1060 C1046 0.960 . S
H1061 C1047 0.961 . S
H1062 C1047 0.961 . S
H1063 C1047 0.961 . S
H1064 C1048 0.931 . S
H1065 C1053 0.930 . S
H1066 C1054 0.956 . S
H1067 C1054 0.961 . S
H1068 C1054 0.961 . S
H1069 C1055 0.958 . S
H1070 C1055 0.961 . S
H1071 C1055 0.960 . S
C1072 C1073 1.391 . S
C1072 C1074 1.394 . S
C1072 H1088 0.931 . S
C1073 C1072 1.391 . S
C1073 C1077 1.376 1_564 S
C1074 C1072 1.394 . S
C1074 C1075 1.369 1_565 S
C1074 C1078 1.531 . S
C1075 C1074 1.369 1_545 S
C1075 C1076 1.410 1_554 S
C1075 C1083 1.503 . S
C1076 C1075 1.410 1_556 S
C1076 C1077 1.392 . S
C1076 C1079 1.511 . S
C1077 C1073 1.376 1_546 S
C1077 C1076 1.392 . S
C1077 H1089 0.929 . S
C1078 C1074 1.531 . S
C1078 H1090 0.960 . S
C1078 H1091 0.962 . S
C1078 H1092 0.960 . S
C1079 C1076 1.511 . S
C1079 H1093 0.961 . S
C1079 H1094 0.961 . S
C1079 H1095 0.961 . S
C1080 C1081 1.370 1_565 S
C1080 C1082 1.363 . S
C1080 H1096 0.931 . S
C1081 C1080 1.370 1_545 S
C1081 C1085 1.408 1_556 S
C1082 C1080 1.363 . S
C1082 C1083 1.370 1_566 S
C1082 C1086 1.524 . S
C1083 C1075 1.503 . S
C1083 C1082 1.370 1_544 S
C1083 C1084 1.403 . S
C1084 C1083 1.403 . S
C1084 C1085 1.404 . S
C1084 C1087 1.539 . S
C1085 C1081 1.408 1_554 S
C1085 C1084 1.404 . S
C1085 H1097 0.930 . S
C1086 C1082 1.524 . S
C1086 H1098 0.956 . S
C1086 H1099 0.961 . S
C1086 H1100 0.961 . S
C1087 C1084 1.539 . S
C1087 H1101 0.958 . S
C1087 H1102 0.961 . S
C1087 H1103 0.960 . S
H1088 C1072 0.931 . S
H1089 C1077 0.929 . S
H1090 C1078 0.960 . S
H1091 C1078 0.962 . S
H1092 C1078 0.960 . S
H1093 C1079 0.961 . S
H1094 C1079 0.961 . S
H1095 C1079 0.961 . S
H1096 C1080 0.931 . S
H1097 C1085 0.930 . S
H1098 C1086 0.956 . S
H1099 C1086 0.961 . S
H1100 C1086 0.961 . S
H1101 C1087 0.958 . S
H1102 C1087 0.961 . S
H1103 C1087 0.960 . S
C1104 C1105 1.391 1_545 S
C1104 C1106 1.394 . S
C1104 H1120 0.931 . S
C1105 C1104 1.391 1_565 S
C1105 C1109 1.376 . S
C1106 C1104 1.394 . S
C1106 C1107 1.369 1_545 S
C1106 C1110 1.531 . S
C1107 C1106 1.369 1_565 S
C1107 C1108 1.410 . S
C1107 C1115 1.503 1_465 S
C1108 C1107 1.410 . S
C1108 C1109 1.392 . S
C1108 C1111 1.511 . S
C1109 C1105 1.376 . S
C1109 C1108 1.392 . S
C1109 H1121 0.929 . S
C1110 C1106 1.531 . S
C1110 H1122 0.960 . S
C1110 H1123 0.962 . S
C1110 H1124 0.960 . S
C1111 C1108 1.511 . S
C1111 H1125 0.961 . S
C1111 H1126 0.961 1_455 S
C1111 H1127 0.961 . S
C1112 C1113 1.370 . S
C1112 C1114 1.363 . S
C1112 H1128 0.931 . S
C1113 C1112 1.370 . S
C1113 C1117 1.408 . S
C1114 C1112 1.363 . S
C1114 C1115 1.370 . S
C1114 C1118 1.524 1_545 S
C1115 C1107 1.503 1_645 S
C1115 C1114 1.370 . S
C1115 C1116 1.403 . S
C1116 C1115 1.403 . S
C1116 C1117 1.404 . S
C1116 C1119 1.539 . S
C1117 C1113 1.408 . S
C1117 C1116 1.404 . S
C1117 H1129 0.930 . S
C1118 C1114 1.524 1_565 S
C1118 H1130 0.956 1_565 S
C1118 H1131 0.961 . S
C1118 H1132 0.961 . S
C1119 C1116 1.539 . S
C1119 H1133 0.958 . S
C1119 H1134 0.961 1_545 S
C1119 H1135 0.960 1_645 S
H1120 C1104 0.931 . S
H1121 C1109 0.929 . S
H1122 C1110 0.960 . S
H1123 C1110 0.962 . S
H1124 C1110 0.960 . S
H1125 C1111 0.961 . S
H1126 C1111 0.961 1_655 S
H1127 C1111 0.961 . S
H1128 C1112 0.931 . S
H1129 C1117 0.930 . S
H1130 C1118 0.956 1_545 S
H1131 C1118 0.961 . S
H1132 C1118 0.961 . S
H1133 C1119 0.958 . S
H1134 C1119 0.961 1_565 S
H1135 C1119 0.960 1_465 S
C1136 C1137 1.391 . S
C1136 C1138 1.394 . S
C1136 H1152 0.931 . S
C1137 C1136 1.391 . S
C1137 C1141 1.376 . S
C1138 C1136 1.394 . S
C1138 C1139 1.369 . S
C1138 C1142 1.531 . S
C1139 C1138 1.369 . S
C1139 C1140 1.410 . S
C1139 C1147 1.503 . S
C1140 C1139 1.410 . S
C1140 C1141 1.392 . S
C1140 C1143 1.511 . S
C1141 C1137 1.376 . S
C1141 C1140 1.392 . S
C1141 H1153 0.929 . S
C1142 C1138 1.531 . S
C1142 H1154 0.960 . S
C1142 H1155 0.962 . S
C1142 H1156 0.960 . S
C1143 C1140 1.511 . S
C1143 H1157 0.961 . S
C1143 H1158 0.961 . S
C1143 H1159 0.961 . S
C1144 C1145 1.370 . S
C1144 C1146 1.363 . S
C1144 H1160 0.931 . S
C1145 C1144 1.370 . S
C1145 C1149 1.408 . S
C1146 C1144 1.363 . S
C1146 C1147 1.370 . S
C1146 C1150 1.524 . S
C1147 C1139 1.503 . S
C1147 C1146 1.370 . S
C1147 C1148 1.403 . S
C1148 C1147 1.403 . S
C1148 C1149 1.404 . S
C1148 C1151 1.539 . S
C1149 C1145 1.408 . S
C1149 C1148 1.404 . S
C1149 H1161 0.930 . S
C1150 C1146 1.524 . S
C1150 H1162 0.956 . S
C1150 H1163 0.961 . S
C1150 H1164 0.961 . S
C1151 C1148 1.539 . S
C1151 H1165 0.958 . S
C1151 H1166 0.961 . S
C1151 H1167 0.960 . S
H1152 C1136 0.931 . S
H1153 C1141 0.929 . S
H1154 C1142 0.960 . S
H1155 C1142 0.962 . S
H1156 C1142 0.960 . S
H1157 C1143 0.961 . S
H1158 C1143 0.961 . S
H1159 C1143 0.961 . S
H1160 C1144 0.931 . S
H1161 C1149 0.930 . S
H1162 C1150 0.956 . S
H1163 C1150 0.961 . S
H1164 C1150 0.961 . S
H1165 C1151 0.958 . S
H1166 C1151 0.961 . S
H1167 C1151 0.960 . S
C1168 C1169 1.391 . S
C1168 C1170 1.394 . S
C1168 H1184 0.931 . S
C1169 C1168 1.391 . S
C1169 C1173 1.376 . S
C1170 C1168 1.394 . S
C1170 C1171 1.369 . S
C1170 C1174 1.531 . S
C1171 C1170 1.369 . S
C1171 C1172 1.410 . S
C1171 C1179 1.503 . S
C1172 C1171 1.410 . S
C1172 C1173 1.392 . S
C1172 C1175 1.511 . S
C1173 C1169 1.376 . S
C1173 C1172 1.392 . S
C1173 H1185 0.929 . S
C1174 C1170 1.531 . S
C1174 H1186 0.960 . S
C1174 H1187 0.962 . S
C1174 H1188 0.960 . S
C1175 C1172 1.511 . S
C1175 H1189 0.961 . S
C1175 H1190 0.961 . S
C1175 H1191 0.961 . S
C1176 C1177 1.370 . S
C1176 C1178 1.363 . S
C1176 H1192 0.931 . S
C1177 C1176 1.370 . S
C1177 C1181 1.408 . S
C1178 C1176 1.363 . S
C1178 C1179 1.370 . S
C1178 C1182 1.524 . S
C1179 C1171 1.503 . S
C1179 C1178 1.370 . S
C1179 C1180 1.403 . S
C1180 C1179 1.403 . S
C1180 C1181 1.404 . S
C1180 C1183 1.539 . S
C1181 C1177 1.408 . S
C1181 C1180 1.404 . S
C1181 H1193 0.930 . S
C1182 C1178 1.524 . S
C1182 H1194 0.956 . S
C1182 H1195 0.961 . S
C1182 H1196 0.961 . S
C1183 C1180 1.539 . S
C1183 H1197 0.958 . S
C1183 H1198 0.961 . S
C1183 H1199 0.960 . S
H1184 C1168 0.931 . S
H1185 C1173 0.929 . S
H1186 C1174 0.960 . S
H1187 C1174 0.962 . S
H1188 C1174 0.960 . S
H1189 C1175 0.961 . S
H1190 C1175 0.961 . S
H1191 C1175 0.961 . S
H1192 C1176 0.931 . S
H1193 C1181 0.930 . S
H1194 C1182 0.956 . S
H1195 C1182 0.961 . S
H1196 C1182 0.961 . S
H1197 C1183 0.958 . S
H1198 C1183 0.961 . S
H1199 C1183 0.960 . S
C1200 C1201 1.391 . S
C1200 C1202 1.394 . S
C1200 H1216 0.931 . S
C1201 C1200 1.391 . S
C1201 C1205 1.376 . S
C1202 C1200 1.394 . S
C1202 C1203 1.369 . S
C1202 C1206 1.531 . S
C1203 C1202 1.369 . S
C1203 C1204 1.410 . S
C1203 C1211 1.503 . S
C1204 C1203 1.410 . S
C1204 C1205 1.392 . S
C1204 C1207 1.511 . S
C1205 C1201 1.376 . S
C1205 C1204 1.392 . S
C1205 H1217 0.929 . S
C1206 C1202 1.531 . S
C1206 H1218 0.960 . S
C1206 H1219 0.962 . S
C1206 H1220 0.960 . S
C1207 C1204 1.511 . S
C1207 H1221 0.961 . S
C1207 H1222 0.961 . S
C1207 H1223 0.961 . S
C1208 C1209 1.370 . S
C1208 C1210 1.363 . S
C1208 H1224 0.931 . S
C1209 C1208 1.370 . S
C1209 C1213 1.408 . S
C1210 C1208 1.363 . S
C1210 C1211 1.370 . S
C1210 C1214 1.524 . S
C1211 C1203 1.503 . S
C1211 C1210 1.370 . S
C1211 C1212 1.403 . S
C1212 C1211 1.403 . S
C1212 C1213 1.404 . S
C1212 C1215 1.539 . S
C1213 C1209 1.408 . S
C1213 C1212 1.404 . S
C1213 H1225 0.930 . S
C1214 C1210 1.524 . S
C1214 H1226 0.956 . S
C1214 H1227 0.961 . S
C1214 H1228 0.961 . S
C1215 C1212 1.539 . S
C1215 H1229 0.958 . S
C1215 H1230 0.961 . S
C1215 H1231 0.960 . S
H1216 C1200 0.931 . S
H1217 C1205 0.929 . S
H1218 C1206 0.960 . S
H1219 C1206 0.962 . S
H1220 C1206 0.960 . S
H1221 C1207 0.961 . S
H1222 C1207 0.961 . S
H1223 C1207 0.961 . S
H1224 C1208 0.931 . S
H1225 C1213 0.930 . S
H1226 C1214 0.956 . S
H1227 C1214 0.961 . S
H1228 C1214 0.961 . S
H1229 C1215 0.958 . S
H1230 C1215 0.961 . S
H1231 C1215 0.960 . S
C1232 C1233 1.391 . S
C1232 C1234 1.394 . S
C1232 H1248 0.931 . S
C1233 C1232 1.391 . S
C1233 C1237 1.376 . S
C1234 C1232 1.394 . S
C1234 C1235 1.369 . S
C1234 C1238 1.531 . S
C1235 C1234 1.369 . S
C1235 C1236 1.410 . S
C1235 C1243 1.503 . S
C1236 C1235 1.410 . S
C1236 C1237 1.392 . S
C1236 C1239 1.511 . S
C1237 C1233 1.376 . S
C1237 C1236 1.392 . S
C1237 H1249 0.929 . S
C1238 C1234 1.531 . S
C1238 H1250 0.960 . S
C1238 H1251 0.962 . S
C1238 H1252 0.960 . S
C1239 C1236 1.511 . S
C1239 H1253 0.961 . S
C1239 H1254 0.961 . S
C1239 H1255 0.961 . S
C1240 C1241 1.370 . S
C1240 C1242 1.363 . S
C1240 H1256 0.931 . S
C1241 C1240 1.370 . S
C1241 C1245 1.408 . S
C1242 C1240 1.363 . S
C1242 C1243 1.370 . S
C1242 C1246 1.524 . S
C1243 C1235 1.503 . S
C1243 C1242 1.370 . S
C1243 C1244 1.403 . S
C1244 C1243 1.403 . S
C1244 C1245 1.404 . S
C1244 C1247 1.539 . S
C1245 C1241 1.408 . S
C1245 C1244 1.404 . S
C1245 H1257 0.930 . S
C1246 C1242 1.524 . S
C1246 H1258 0.956 . S
C1246 H1259 0.961 . S
C1246 H1260 0.961 . S
C1247 C1244 1.539 . S
C1247 H1261 0.958 . S
C1247 H1262 0.961 . S
C1247 H1263 0.960 . S
H1248 C1232 0.931 . S
H1249 C1237 0.929 . S
H1250 C1238 0.960 . S
H1251 C1238 0.962 . S
H1252 C1238 0.960 . S
H1253 C1239 0.961 . S
H1254 C1239 0.961 . S
H1255 C1239 0.961 . S
H1256 C1240 0.931 . S
H1257 C1245 0.930 . S
H1258 C1246 0.956 . S
H1259 C1246 0.961 . S
H1260 C1246 0.961 . S
H1261 C1247 0.958 . S
H1262 C1247 0.961 . S
H1263 C1247 0.960 . S
C1264 C1265 1.391 . S
C1264 C1266 1.394 . S
C1264 H1280 0.931 . S
C1265 C1264 1.391 . S
C1265 C1269 1.376 . S
C1266 C1264 1.394 . S
C1266 C1267 1.369 . S
C1266 C1270 1.531 . S
C1267 C1266 1.369 . S
C1267 C1268 1.410 . S
C1267 C1275 1.503 . S
C1268 C1267 1.410 . S
C1268 C1269 1.392 . S
C1268 C1271 1.511 . S
C1269 C1265 1.376 . S
C1269 C1268 1.392 . S
C1269 H1281 0.929 . S
C1270 C1266 1.531 . S
C1270 H1282 0.960 . S
C1270 H1283 0.962 . S
C1270 H1284 0.960 . S
C1271 C1268 1.511 . S
C1271 H1285 0.961 . S
C1271 H1286 0.961 . S
C1271 H1287 0.961 . S
C1272 C1273 1.370 . S
C1272 C1274 1.363 . S
C1272 H1288 0.931 . S
C1273 C1272 1.370 . S
C1273 C1277 1.408 . S
C1274 C1272 1.363 . S
C1274 C1275 1.370 . S
C1274 C1278 1.524 . S
C1275 C1267 1.503 . S
C1275 C1274 1.370 . S
C1275 C1276 1.403 . S
C1276 C1275 1.403 . S
C1276 C1277 1.404 . S
C1276 C1279 1.539 . S
C1277 C1273 1.408 . S
C1277 C1276 1.404 . S
C1277 H1289 0.930 . S
C1278 C1274 1.524 . S
C1278 H1290 0.956 . S
C1278 H1291 0.961 . S
C1278 H1292 0.961 . S
C1279 C1276 1.539 . S
C1279 H1293 0.958 . S
C1279 H1294 0.961 . S
C1279 H1295 0.960 . S
H1280 C1264 0.931 . S
H1281 C1269 0.929 . S
H1282 C1270 0.960 . S
H1283 C1270 0.962 . S
H1284 C1270 0.960 . S
H1285 C1271 0.961 . S
H1286 C1271 0.961 . S
H1287 C1271 0.961 . S
H1288 C1272 0.931 . S
H1289 C1277 0.930 . S
H1290 C1278 0.956 . S
H1291 C1278 0.961 . S
H1292 C1278 0.961 . S
H1293 C1279 0.958 . S
H1294 C1279 0.961 . S
H1295 C1279 0.960 . S
C1296 C1297 1.391 . S
C1296 C1298 1.394 . S
C1296 H1312 0.931 . S
C1297 C1296 1.391 . S
C1297 C1301 1.376 . S
C1298 C1296 1.394 . S
C1298 C1299 1.369 . S
C1298 C1302 1.531 . S
C1299 C1298 1.369 . S
C1299 C1300 1.410 . S
C1299 C1307 1.503 . S
C1300 C1299 1.410 . S
C1300 C1301 1.392 . S
C1300 C1303 1.511 . S
C1301 C1297 1.376 . S
C1301 C1300 1.392 . S
C1301 H1313 0.929 . S
C1302 C1298 1.531 . S
C1302 H1314 0.960 . S
C1302 H1315 0.962 . S
C1302 H1316 0.960 . S
C1303 C1300 1.511 . S
C1303 H1317 0.961 . S
C1303 H1318 0.961 . S
C1303 H1319 0.961 . S
C1304 C1305 1.370 . S
C1304 C1306 1.363 . S
C1304 H1320 0.931 . S
C1305 C1304 1.370 . S
C1305 C1309 1.408 . S
C1306 C1304 1.363 . S
C1306 C1307 1.370 . S
C1306 C1310 1.524 . S
C1307 C1299 1.503 . S
C1307 C1306 1.370 . S
C1307 C1308 1.403 . S
C1308 C1307 1.403 . S
C1308 C1309 1.404 . S
C1308 C1311 1.539 . S
C1309 C1305 1.408 . S
C1309 C1308 1.404 . S
C1309 H1321 0.930 . S
C1310 C1306 1.524 . S
C1310 H1322 0.956 . S
C1310 H1323 0.961 . S
C1310 H1324 0.961 . S
C1311 C1308 1.539 . S
C1311 H1325 0.958 . S
C1311 H1326 0.961 . S
C1311 H1327 0.960 . S
H1312 C1296 0.931 . S
H1313 C1301 0.929 . S
H1314 C1302 0.960 . S
H1315 C1302 0.962 . S
H1316 C1302 0.960 . S
H1317 C1303 0.961 . S
H1318 C1303 0.961 . S
H1319 C1303 0.961 . S
H1320 C1304 0.931 . S
H1321 C1309 0.930 . S
H1322 C1310 0.956 . S
H1323 C1310 0.961 . S
H1324 C1310 0.961 . S
H1325 C1311 0.958 . S
H1326 C1311 0.961 . S
H1327 C1311 0.960 . S
C1328 C1329 1.391 . S
C1328 C1330 1.394 . S
C1328 H1344 0.931 . S
C1329 C1328 1.391 . S
C1329 C1333 1.376 . S
C1330 C1328 1.394 . S
C1330 C1331 1.369 . S
C1330 C1334 1.531 . S
C1331 C1330 1.369 . S
C1331 C1332 1.410 . S
C1331 C1339 1.503 . S
C1332 C1331 1.410 . S
C1332 C1333 1.392 . S
C1332 C1335 1.511 . S
C1333 C1329 1.376 . S
C1333 C1332 1.392 . S
C1333 H1345 0.929 . S
C1334 C1330 1.531 . S
C1334 H1346 0.960 . S
C1334 H1347 0.962 . S
C1334 H1348 0.960 . S
C1335 C1332 1.511 . S
C1335 H1349 0.961 . S
C1335 H1350 0.961 . S
C1335 H1351 0.961 . S
C1336 C1337 1.370 . S
C1336 C1338 1.363 . S
C1336 H1352 0.931 . S
C1337 C1336 1.370 . S
C1337 C1341 1.408 . S
C1338 C1336 1.363 . S
C1338 C1339 1.370 . S
C1338 C1342 1.524 . S
C1339 C1331 1.503 . S
C1339 C1338 1.370 . S
C1339 C1340 1.403 . S
C1340 C1339 1.403 . S
C1340 C1341 1.404 . S
C1340 C1343 1.539 . S
C1341 C1337 1.408 . S
C1341 C1340 1.404 . S
C1341 H1353 0.930 . S
C1342 C1338 1.524 . S
C1342 H1354 0.956 . S
C1342 H1355 0.961 . S
C1342 H1356 0.961 . S
C1343 C1340 1.539 . S
C1343 H1357 0.958 . S
C1343 H1358 0.961 . S
C1343 H1359 0.960 . S
H1344 C1328 0.931 . S
H1345 C1333 0.929 . S
H1346 C1334 0.960 . S
H1347 C1334 0.962 . S
H1348 C1334 0.960 . S
H1349 C1335 0.961 . S
H1350 C1335 0.961 . S
H1351 C1335 0.961 . S
H1352 C1336 0.931 . S
H1353 C1341 0.930 . S
H1354 C1342 0.956 . S
H1355 C1342 0.961 . S
H1356 C1342 0.961 . S
H1357 C1343 0.958 . S
H1358 C1343 0.961 . S
H1359 C1343 0.960 . S
C1360 C1361 1.391 . S
C1360 C1362 1.394 . S
C1360 H1376 0.931 . S
C1361 C1360 1.391 . S
C1361 C1365 1.376 . S
C1362 C1360 1.394 . S
C1362 C1363 1.369 . S
C1362 C1366 1.531 . S
C1363 C1362 1.369 . S
C1363 C1364 1.410 . S
C1363 C1371 1.503 . S
C1364 C1363 1.410 . S
C1364 C1365 1.392 . S
C1364 C1367 1.511 . S
C1365 C1361 1.376 . S
C1365 C1364 1.392 . S
C1365 H1377 0.929 . S
C1366 C1362 1.531 . S
C1366 H1378 0.960 . S
C1366 H1379 0.962 . S
C1366 H1380 0.960 . S
C1367 C1364 1.511 . S
C1367 H1381 0.961 . S
C1367 H1382 0.961 . S
C1367 H1383 0.961 . S
C1368 C1369 1.370 . S
C1368 C1370 1.363 . S
C1368 H1384 0.931 . S
C1369 C1368 1.370 . S
C1369 C1373 1.408 . S
C1370 C1368 1.363 . S
C1370 C1371 1.370 . S
C1370 C1374 1.524 . S
C1371 C1363 1.503 . S
C1371 C1370 1.370 . S
C1371 C1372 1.403 . S
C1372 C1371 1.403 . S
C1372 C1373 1.404 . S
C1372 C1375 1.539 . S
C1373 C1369 1.408 . S
C1373 C1372 1.404 . S
C1373 H1385 0.930 . S
C1374 C1370 1.524 . S
C1374 H1386 0.956 . S
C1374 H1387 0.961 . S
C1374 H1388 0.961 . S
C1375 C1372 1.539 . S
C1375 H1389 0.958 . S
C1375 H1390 0.961 . S
C1375 H1391 0.960 . S
H1376 C1360 0.931 . S
H1377 C1365 0.929 . S
H1378 C1366 0.960 . S
H1379 C1366 0.962 . S
H1380 C1366 0.960 . S
H1381 C1367 0.961 . S
H1382 C1367 0.961 . S
H1383 C1367 0.961 . S
H1384 C1368 0.931 . S
H1385 C1373 0.930 . S
H1386 C1374 0.956 . S
H1387 C1374 0.961 . S
H1388 C1374 0.961 . S
H1389 C1375 0.958 . S
H1390 C1375 0.961 . S
H1391 C1375 0.960 . S
C1392 C1393 1.391 1_545 S
C1392 C1394 1.394 . S
C1392 H1408 0.931 . S
C1393 C1392 1.391 1_565 S
C1393 C1397 1.376 . S
C1394 C1392 1.394 . S
C1394 C1395 1.369 1_545 S
C1394 C1398 1.531 . S
C1395 C1394 1.369 1_565 S
C1395 C1396 1.410 . S
C1395 C1403 1.503 . S
C1396 C1395 1.410 . S
C1396 C1397 1.392 . S
C1396 C1399 1.511 . S
C1397 C1393 1.376 . S
C1397 C1396 1.392 . S
C1397 H1409 0.929 . S
C1398 C1394 1.531 . S
C1398 H1410 0.960 . S
C1398 H1411 0.962 1_545 S
C1398 H1412 0.960 . S
C1399 C1396 1.511 . S
C1399 H1413 0.961 . S
C1399 H1414 0.961 . S
C1399 H1415 0.961 . S
C1400 C1401 1.370 . S
C1400 C1402 1.363 . S
C1400 H1416 0.931 . S
C1401 C1400 1.370 . S
C1401 C1405 1.408 . S
C1402 C1400 1.363 . S
C1402 C1403 1.370 . S
C1402 C1406 1.524 . S
C1403 C1395 1.503 . S
C1403 C1402 1.370 . S
C1403 C1404 1.403 . S
C1404 C1403 1.403 . S
C1404 C1405 1.404 . S
C1404 C1407 1.539 1_565 S
C1405 C1401 1.408 . S
C1405 C1404 1.404 . S
C1405 H1417 0.930 1_565 S
C1406 C1402 1.524 . S
C1406 H1418 0.956 . S
C1406 H1419 0.961 . S
C1406 H1420 0.961 . S
C1407 C1404 1.539 1_545 S
C1407 H1421 0.958 . S
C1407 H1422 0.961 . S
C1407 H1423 0.960 . S
H1408 C1392 0.931 . S
H1409 C1397 0.929 . S
H1410 C1398 0.960 . S
H1411 C1398 0.962 1_565 S
H1412 C1398 0.960 . S
H1413 C1399 0.961 . S
H1414 C1399 0.961 . S
H1415 C1399 0.961 . S
H1416 C1400 0.931 . S
H1417 C1405 0.930 1_545 S
H1418 C1406 0.956 . S
H1419 C1406 0.961 . S
H1420 C1406 0.961 . S
H1421 C1407 0.958 . S
H1422 C1407 0.961 . S
H1423 C1407 0.960 . S
C1424 C1425 1.391 . S
C1424 C1426 1.394 . S
C1424 H1440 0.931 . S
C1425 C1424 1.391 . S
C1425 C1429 1.376 . S
C1426 C1424 1.394 . S
C1426 C1427 1.369 . S
C1426 C1430 1.531 . S
C1427 C1426 1.369 . S
C1427 C1428 1.410 . S
C1427 C1435 1.503 . S
C1428 C1427 1.410 . S
C1428 C1429 1.392 . S
C1428 C1431 1.511 . S
C1429 C1425 1.376 . S
C1429 C1428 1.392 . S
C1429 H1441 0.929 . S
C1430 C1426 1.531 . S
C1430 H1442 0.960 1_565 S
C1430 H1443 0.962 . S
C1430 H1444 0.960 1_565 S
C1431 C1428 1.511 . S
C1431 H1445 0.961 . S
C1431 H1446 0.961 . S
C1431 H1447 0.961 . S
C1432 C1433 1.370 . S
C1432 C1434 1.363 . S
C1432 H1448 0.931 . S
C1433 C1432 1.370 . S
C1433 C1437 1.408 1_565 S
C1434 C1432 1.363 . S
C1434 C1435 1.370 . S
C1434 C1438 1.524 . S
C1435 C1427 1.503 . S
C1435 C1434 1.370 . S
C1435 C1436 1.418 . S
C1436 C1435 1.418 . S
C1436 C1437 1.401 1_565 S
C1436 C1439 1.526 1_565 S
C1437 C1433 1.408 1_545 S
C1437 C1436 1.401 1_545 S
C1437 H1449 0.930 . S
C1438 C1434 1.524 . S
C1438 H1450 0.956 . S
C1438 H1451 0.961 . S
C1438 H1452 0.961 . S
C1439 C1436 1.526 1_545 S
C1439 H1453 0.958 . S
C1439 H1454 0.961 . S
C1439 H1455 0.960 . S
H1440 C1424 0.931 . S
H1441 C1429 0.929 . S
H1442 C1430 0.960 1_545 S
H1443 C1430 0.962 . S
H1444 C1430 0.960 1_545 S
H1445 C1431 0.961 . S
H1446 C1431 0.961 . S
H1447 C1431 0.961 . S
H1448 C1432 0.931 . S
H1449 C1437 0.930 . S
H1450 C1438 0.956 . S
H1451 C1438 0.961 . S
H1452 C1438 0.961 . S
H1453 C1439 0.958 . S
H1454 C1439 0.961 . S
H1455 C1439 0.960 . S
C1456 C1457 1.391 . S
C1456 C1458 1.394 . S
C1456 H1472 0.931 . S
C1457 C1456 1.391 . S
C1457 C1461 1.376 . S
C1458 C1456 1.394 . S
C1458 C1459 1.369 . S
C1458 C1462 1.531 . S
C1459 C1458 1.369 . S
C1459 C1460 1.410 . S
C1459 C1467 1.503 . S
C1460 C1459 1.410 . S
C1460 C1461 1.392 . S
C1460 C1463 1.511 . S
C1461 C1457 1.376 . S
C1461 C1460 1.392 . S
C1461 H1473 0.929 . S
C1462 C1458 1.531 . S
C1462 H1474 0.960 . S
C1462 H1475 0.962 . S
C1462 H1476 0.960 . S
C1463 C1460 1.511 . S
C1463 H1477 0.961 . S
C1463 H1478 0.961 . S
C1463 H1479 0.961 . S
C1464 C1465 1.370 1_565 S
C1464 C1466 1.363 . S
C1464 H1480 0.931 . S
C1465 C1464 1.370 1_545 S
C1465 C1469 1.408 . S
C1466 C1464 1.363 . S
C1466 C1467 1.370 1_565 S
C1466 C1470 1.524 . S
C1467 C1459 1.503 . S
C1467 C1466 1.370 1_545 S
C1467 C1468 1.403 . S
C1468 C1467 1.403 . S
C1468 C1469 1.404 . S
C1468 C1471 1.539 . S
C1469 C1465 1.408 . S
C1469 C1468 1.404 . S
C1469 H1481 0.930 . S
C1470 C1466 1.524 . S
C1470 H1482 0.956 . S
C1470 H1483 0.961 . S
C1470 H1484 0.961 . S
C1471 C1468 1.539 . S
C1471 H1485 0.958 . S
C1471 H1486 0.961 . S
C1471 H1487 0.960 . S
H1472 C1456 0.931 . S
H1473 C1461 0.929 . S
H1474 C1462 0.960 . S
H1475 C1462 0.962 . S
H1476 C1462 0.960 . S
H1477 C1463 0.961 . S
H1478 C1463 0.961 . S
H1479 C1463 0.961 . S
H1480 C1464 0.931 . S
H1481 C1469 0.930 . S
H1482 C1470 0.956 . S
H1483 C1470 0.961 . S
H1484 C1470 0.961 . S
H1485 C1471 0.958 . S
H1486 C1471 0.961 . S
H1487 C1471 0.960 . S
C1488 C1489 1.391 . S
C1488 C1490 1.394 . S
C1488 H1504 0.931 . S
C1489 C1488 1.391 . S
C1489 C1493 1.376 . S
C1490 C1488 1.394 . S
C1490 C1491 1.369 . S
C1490 C1494 1.531 . S
C1491 C1490 1.369 . S
C1491 C1492 1.410 . S
C1491 C1499 1.503 . S
C1492 C1491 1.410 . S
C1492 C1493 1.392 . S
C1492 C1495 1.511 . S
C1493 C1489 1.376 . S
C1493 C1492 1.392 . S
C1493 H1505 0.929 . S
C1494 C1490 1.531 . S
C1494 H1506 0.960 . S
C1494 H1507 0.962 . S
C1494 H1508 0.960 . S
C1495 C1492 1.511 . S
C1495 H1509 0.961 1_545 S
C1495 H1510 0.960 1_545 S
C1495 H1511 0.961 . S
C1496 C1497 1.370 . S
C1496 C1498 1.363 . S
C1496 H1512 0.931 1_545 S
C1497 C1496 1.370 . S
C1497 C1501 1.408 . S
C1498 C1496 1.363 . S
C1498 C1499 1.370 . S
C1498 C1502 1.524 1_545 S
C1499 C1491 1.503 . S
C1499 C1498 1.370 . S
C1499 C1500 1.403 . S
C1500 C1499 1.403 . S
C1500 C1501 1.404 . S
C1500 C1503 1.539 . S
C1501 C1497 1.408 . S
C1501 C1500 1.404 . S
C1501 H1513 0.930 . S
C1502 C1498 1.524 1_565 S
C1502 H1514 0.956 1_565 S
C1502 H1515 0.961 . S
C1502 H1516 0.961 . S
C1503 C1500 1.539 . S
C1503 H1517 0.958 . S
C1503 H1518 0.961 . S
C1503 H1519 0.960 . S
H1504 C1488 0.931 . S
H1505 C1493 0.929 . S
H1506 C1494 0.960 . S
H1507 C1494 0.962 . S
H1508 C1494 0.960 . S
H1509 C1495 0.961 1_565 S
H1510 C1495 0.960 1_565 S
H1511 C1495 0.961 . S
H1512 C1496 0.931 1_565 S
H1513 C1501 0.930 . S
H1514 C1502 0.956 1_545 S
H1515 C1502 0.961 . S
H1516 C1502 0.961 . S
H1517 C1503 0.958 . S
H1518 C1503 0.961 . S
H1519 C1503 0.960 . S
C1520 C1521 1.391 . S
C1520 C1522 1.394 . S
C1520 H1536 0.931 . S
C1521 C1520 1.391 . S
C1521 C1525 1.376 . S
C1522 C1520 1.394 . S
C1522 C1523 1.369 . S
C1522 C1526 1.531 . S
C1523 C1522 1.369 . S
C1523 C1524 1.410 . S
C1523 C1531 1.503 . S
C1524 C1523 1.410 . S
C1524 C1525 1.392 . S
C1524 C1527 1.511 1_545 S
C1525 C1521 1.376 . S
C1525 C1524 1.392 . S
C1525 H1537 0.929 . S
C1526 C1522 1.531 . S
C1526 H1538 0.960 . S
C1526 H1539 0.962 . S
C1526 H1540 0.960 . S
C1527 C1524 1.511 1_565 S
C1527 H1541 0.961 . S
C1527 H1542 0.961 . S
C1527 H1543 0.961 . S
C1528 C1529 1.370 1_565 S
C1528 C1530 1.363 1_565 S
C1528 H1544 0.931 . S
C1529 C1528 1.370 1_545 S
C1529 C1533 1.408 . S
C1530 C1528 1.363 1_545 S
C1530 C1531 1.370 . S
C1530 C1534 1.524 1_545 S
C1531 C1523 1.503 . S
C1531 C1530 1.370 . S
C1531 C1532 1.403 . S
C1532 C1531 1.403 . S
C1532 C1533 1.404 . S
C1532 C1535 1.539 . S
C1533 C1529 1.408 . S
C1533 C1532 1.404 . S
C1533 H1545 0.930 . S
C1534 C1530 1.524 1_565 S
C1534 H1546 0.956 1_565 S
C1534 H1547 0.961 . S
C1534 H1548 0.961 . S
C1535 C1532 1.539 . S
C1535 H1549 0.958 . S
C1535 H1550 0.961 . S
C1535 H1551 0.960 . S
H1536 C1520 0.931 . S
H1537 C1525 0.929 . S
H1538 C1526 0.960 . S
H1539 C1526 0.962 . S
H1540 C1526 0.960 . S
H1541 C1527 0.961 . S
H1542 C1527 0.961 . S
H1543 C1527 0.961 . S
H1544 C1528 0.931 . S
H1545 C1533 0.930 . S
H1546 C1534 0.956 1_545 S
H1547 C1534 0.961 . S
H1548 C1534 0.961 . S
H1549 C1535 0.958 . S
H1550 C1535 0.961 . S
H1551 C1535 0.960 . S
C1552 C1553 1.391 . S
C1552 C1554 1.394 . S
C1552 H1568 0.931 . S
C1553 C1552 1.391 . S
C1553 C1557 1.376 . S
C1554 C1552 1.394 . S
C1554 C1555 1.369 . S
C1554 C1558 1.531 . S
C1555 C1554 1.369 . S
C1555 C1556 1.410 . S
C1555 C1563 1.503 . S
C1556 C1555 1.410 . S
C1556 C1557 1.392 . S
C1556 C1559 1.511 . S
C1557 C1553 1.376 . S
C1557 C1556 1.392 . S
C1557 H1569 0.929 . S
C1558 C1554 1.531 . S
C1558 H1570 0.960 . S
C1558 H1571 0.962 . S
C1558 H1572 0.960 . S
C1559 C1556 1.511 . S
C1559 H1573 0.975 . S
C1559 H1574 0.961 . S
C1559 H1575 0.961 . S
C1560 C1561 1.370 . S
C1560 C1562 1.363 . S
C1560 H1576 0.931 1_545 S
C1561 C1560 1.370 . S
C1561 C1565 1.408 . S
C1562 C1560 1.363 . S
C1562 C1563 1.370 . S
C1562 C1566 1.524 1_545 S
C1563 C1555 1.503 . S
C1563 C1562 1.370 . S
C1563 C1564 1.403 . S
C1564 C1563 1.403 . S
C1564 C1565 1.404 . S
C1564 C1567 1.539 . S
C1565 C1561 1.408 . S
C1565 C1564 1.404 . S
C1565 H1577 0.930 . S
C1566 C1562 1.524 1_565 S
C1566 H1578 0.956 1_565 S
C1566 H1579 0.961 . S
C1566 H1580 0.961 . S
C1567 C1564 1.539 . S
C1567 H1581 0.958 . S
C1567 H1582 0.961 . S
C1567 H1583 0.960 . S
H1568 C1552 0.931 . S
H1569 C1557 0.929 . S
H1570 C1558 0.960 . S
H1571 C1558 0.962 . S
H1572 C1558 0.960 . S
H1573 C1559 0.975 . S
H1574 C1559 0.961 . S
H1575 C1559 0.961 . S
H1576 C1560 0.931 1_565 S
H1577 C1565 0.930 . S
H1578 C1566 0.956 1_545 S
H1579 C1566 0.961 . S
H1580 C1566 0.961 . S
H1581 C1567 0.958 . S
H1582 C1567 0.961 . S
H1583 C1567 0.960 . S
C1584 C1585 1.391 1_545 S
C1584 C1586 1.394 . S
C1584 H1600 0.931 . S
C1585 C1584 1.391 1_565 S
C1585 C1589 1.376 . S
C1586 C1584 1.394 . S
C1586 C1587 1.369 1_545 S
C1586 C1590 1.531 . S
C1587 C1586 1.369 1_565 S
C1587 C1588 1.410 . S
C1587 C1595 1.503 . S
C1588 C1587 1.410 . S
C1588 C1589 1.392 . S
C1588 C1591 1.511 . S
C1589 C1585 1.376 . S
C1589 C1588 1.392 . S
C1589 H1601 0.929 . S
C1590 C1586 1.531 . S
C1590 H1602 0.960 . S
C1590 H1603 0.962 . S
C1590 H1604 0.960 . S
C1591 C1588 1.511 . S
C1591 H1605 0.961 . S
C1591 H1606 0.961 . S
C1591 H1607 0.961 . S
C1592 C1593 1.370 . S
C1592 C1594 1.363 . S
C1592 H1608 0.931 . S
C1593 C1592 1.370 . S
C1593 C1597 1.408 . S
C1594 C1592 1.363 . S
C1594 C1595 1.370 . S
C1594 C1598 1.524 . S
C1595 C1587 1.503 . S
C1595 C1594 1.370 . S
C1595 C1596 1.403 . S
C1596 C1595 1.403 . S
C1596 C1597 1.404 . S
C1596 C1599 1.539 1_565 S
C1597 C1593 1.408 . S
C1597 C1596 1.404 . S
C1597 H1609 0.930 . S
C1598 C1594 1.524 . S
C1598 H1610 0.956 . S
C1598 H1611 0.961 . S
C1598 H1612 0.961 . S
C1599 C1596 1.539 1_545 S
C1599 H1613 0.958 . S
C1599 H1614 0.961 . S
C1599 H1615 0.960 . S
H1600 C1584 0.931 . S
H1601 C1589 0.929 . S
H1602 C1590 0.960 . S
H1603 C1590 0.962 . S
H1604 C1590 0.960 . S
H1605 C1591 0.961 . S
H1606 C1591 0.961 . S
H1607 C1591 0.961 . S
H1608 C1592 0.931 . S
H1609 C1597 0.930 . S
H1610 C1598 0.956 . S
H1611 C1598 0.961 . S
H1612 C1598 0.961 . S
H1613 C1599 0.958 . S
H1614 C1599 0.961 . S
H1615 C1599 0.960 . S
C1616 C1617 1.391 . S
C1616 C1618 1.394 . S
C1616 H1632 0.931 . S
C1617 C1616 1.391 . S
C1617 C1621 1.376 . S
C1618 C1616 1.394 . S
C1618 C1619 1.369 . S
C1618 C1622 1.531 . S
C1619 C1618 1.369 . S
C1619 C1620 1.410 . S
C1619 C1627 1.503 . S
C1620 C1619 1.410 . S
C1620 C1621 1.392 . S
C1620 C1623 1.511 1_565 S
C1621 C1617 1.376 . S
C1621 C1620 1.392 . S
C1621 H1633 0.929 1_565 S
C1622 C1618 1.531 . S
C1622 H1634 0.960 . S
C1622 H1635 0.962 . S
C1622 H1636 0.960 . S
C1623 C1620 1.511 1_545 S
C1623 H1637 0.961 . S
C1623 H1638 0.961 . S
C1623 H1639 0.961 . S
C1624 C1625 1.370 . S
C1624 C1626 1.363 . S
C1624 H1640 0.931 . S
C1625 C1624 1.370 . S
C1625 C1629 1.408 . S
C1626 C1624 1.363 . S
C1626 C1627 1.370 . S
C1626 C1630 1.524 . S
C1627 C1619 1.503 . S
C1627 C1626 1.370 . S
C1627 C1628 1.403 . S
C1628 C1627 1.403 . S
C1628 C1629 1.404 . S
C1628 C1631 1.539 . S
C1629 C1625 1.408 . S
C1629 C1628 1.404 . S
C1629 H1641 0.930 . S
C1630 C1626 1.524 . S
C1630 H1642 0.956 . S
C1630 H1643 0.961 1_565 S
C1630 H1644 0.961 . S
C1631 C1628 1.539 . S
C1631 H1645 0.958 . S
C1631 H1646 0.961 . S
C1631 H1647 0.960 . S
H1632 C1616 0.931 . S
H1633 C1621 0.929 1_545 S
H1634 C1622 0.960 . S
H1635 C1622 0.962 . S
H1636 C1622 0.960 . S
H1637 C1623 0.961 . S
H1638 C1623 0.961 . S
H1639 C1623 0.961 . S
H1640 C1624 0.931 . S
H1641 C1629 0.930 . S
H1642 C1630 0.956 . S
H1643 C1630 0.961 1_545 S
H1644 C1630 0.961 . S
H1645 C1631 0.958 . S
H1646 C1631 0.961 . S
H1647 C1631 0.960 . S
C1648 C1649 1.391 . S
C1648 C1650 1.394 1_455 S
C1648 H1664 0.925 1_455 S
C1649 C1648 1.391 . S
C1649 C1653 1.376 . S
C1650 C1648 1.394 1_655 S
C1650 C1651 1.369 1_655 S
C1650 C1654 1.531 . S
C1651 C1650 1.369 1_455 S
C1651 C1652 1.410 . S
C1651 C1659 1.503 1_455 S
C1652 C1651 1.410 . S
C1652 C1653 1.392 . S
C1652 C1655 1.511 . S
C1653 C1649 1.376 . S
C1653 C1652 1.392 . S
C1653 H1665 0.929 . S
C1654 C1650 1.531 . S
C1654 H1666 0.960 . S
C1654 H1667 0.962 . S
C1654 H1668 0.960 . S
C1655 C1652 1.511 . S
C1655 H1669 0.961 . S
C1655 H1670 0.961 . S
C1655 H1671 0.961 . S
C1656 C1657 1.370 . S
C1656 C1658 1.363 . S
C1656 H1672 0.931 . S
C1657 C1656 1.370 . S
C1657 C1661 1.408 . S
C1658 C1656 1.363 . S
C1658 C1659 1.370 . S
C1658 C1662 1.524 . S
C1659 C1651 1.503 1_655 S
C1659 C1658 1.370 . S
C1659 C1660 1.403 1_655 S
C1660 C1659 1.403 1_455 S
C1660 C1661 1.404 1_455 S
C1660 C1663 1.539 . S
C1661 C1657 1.408 . S
C1661 C1660 1.404 1_655 S
C1661 H1673 0.930 . S
C1662 C1658 1.524 . S
C1662 H1674 0.956 . S
C1662 H1675 0.961 . S
C1662 H1676 0.961 . S
C1663 C1660 1.539 . S
C1663 H1677 0.958 . S
C1663 H1678 0.961 . S
C1663 H1679 0.960 . S
H1664 C1648 0.925 1_655 S
H1665 C1653 0.929 . S
H1666 C1654 0.960 . S
H1667 C1654 0.962 . S
H1668 C1654 0.960 . S
H1669 C1655 0.961 . S
H1670 C1655 0.961 . S
H1671 C1655 0.961 . S
H1672 C1656 0.931 . S
H1673 C1661 0.930 . S
H1674 C1662 0.956 . S
H1675 C1662 0.961 . S
H1676 C1662 0.961 . S
H1677 C1663 0.958 . S
H1678 C1663 0.961 . S
H1679 C1663 0.960 . S
C1680 C1681 1.391 . S
C1680 C1682 1.394 . S
C1680 H1696 0.931 . S
C1681 C1680 1.391 . S
C1681 C1685 1.376 . S
C1682 C1680 1.394 . S
C1682 C1683 1.369 . S
C1682 C1686 1.531 . S
C1683 C1682 1.369 . S
C1683 C1684 1.410 . S
C1683 C1691 1.503 1_455 S
C1684 C1683 1.410 . S
C1684 C1685 1.392 . S
C1684 C1687 1.511 . S
C1685 C1681 1.376 . S
C1685 C1684 1.392 . S
C1685 H1697 0.929 . S
C1686 C1682 1.531 . S
C1686 H1698 0.960 1_455 S
C1686 H1699 0.962 . S
C1686 H1700 0.960 . S
C1687 C1684 1.511 . S
C1687 H1701 0.961 . S
C1687 H1702 0.961 1_455 S
C1687 H1703 0.961 1_455 S
C1688 C1689 1.370 . S
C1688 C1690 1.363 . S
C1688 H1704 0.931 . S
C1689 C1688 1.370 . S
C1689 C1693 1.408 . S
C1690 C1688 1.363 . S
C1690 C1691 1.370 . S
C1690 C1694 1.524 1_655 S
C1691 C1683 1.503 1_655 S
C1691 C1690 1.370 . S
C1691 C1692 1.403 . S
C1692 C1691 1.403 . S
C1692 C1693 1.404 . S
C1692 C1695 1.539 . S
C1693 C1689 1.408 . S
C1693 C1692 1.404 . S
C1693 H1705 0.930 . S
C1694 C1690 1.524 1_455 S
C1694 H1706 0.956 . S
C1694 H1707 0.961 . S
C1694 H1708 0.961 . S
C1695 C1692 1.539 . S
C1695 H1709 0.958 . S
C1695 H1710 0.961 . S
C1695 H1711 0.960 . S
H1696 C1680 0.931 . S
H1697 C1685 0.929 . S
H1698 C1686 0.960 1_655 S
H1699 C1686 0.962 . S
H1700 C1686 0.960 . S
H1701 C1687 0.961 . S
H1702 C1687 0.961 1_655 S
H1703 C1687 0.961 1_655 S
H1704 C1688 0.931 . S
H1705 C1693 0.930 . S
H1706 C1694 0.956 . S
H1707 C1694 0.961 . S
H1708 C1694 0.961 . S
H1709 C1695 0.958 . S
H1710 C1695 0.961 . S
H1711 C1695 0.960 . S
C1712 C1713 1.391 . S
C1712 C1714 1.394 . S
C1712 H1728 0.931 . S
C1713 C1712 1.391 . S
C1713 C1717 1.376 . S
C1714 C1712 1.394 . S
C1714 C1715 1.369 . S
C1714 C1718 1.531 . S
C1715 C1714 1.369 . S
C1715 C1716 1.410 . S
C1715 C1723 1.503 . S
C1716 C1715 1.410 . S
C1716 C1717 1.392 . S
C1716 C1719 1.511 . S
C1717 C1713 1.376 . S
C1717 C1716 1.392 . S
C1717 H1729 0.929 . S
C1718 C1714 1.531 . S
C1718 H1730 0.960 . S
C1718 H1731 0.962 . S
C1718 H1732 0.960 . S
C1719 C1716 1.511 . S
C1719 H1733 0.961 . S
C1719 H1734 0.961 . S
C1719 H1735 0.961 . S
C1720 C1721 1.370 . S
C1720 C1722 1.363 . S
C1720 H1736 0.931 . S
C1721 C1720 1.370 . S
C1721 C1725 1.408 . S
C1722 C1720 1.363 . S
C1722 C1723 1.370 . S
C1722 C1726 1.524 . S
C1723 C1715 1.503 . S
C1723 C1722 1.370 . S
C1723 C1724 1.403 . S
C1724 C1723 1.403 . S
C1724 C1725 1.404 . S
C1724 C1727 1.539 . S
C1725 C1721 1.408 . S
C1725 C1724 1.404 . S
C1725 H1737 0.930 . S
C1726 C1722 1.524 . S
C1726 H1738 0.956 . S
C1726 H1739 0.961 . S
C1726 H1740 0.961 . S
C1727 C1724 1.539 . S
C1727 H1741 0.958 . S
C1727 H1742 0.961 . S
C1727 H1743 0.960 . S
H1728 C1712 0.931 . S
H1729 C1717 0.929 . S
H1730 C1718 0.960 . S
H1731 C1718 0.962 . S
H1732 C1718 0.960 . S
H1733 C1719 0.961 . S
H1734 C1719 0.961 . S
H1735 C1719 0.961 . S
H1736 C1720 0.931 . S
H1737 C1725 0.930 . S
H1738 C1726 0.956 . S
H1739 C1726 0.961 . S
H1740 C1726 0.961 . S
H1741 C1727 0.958 . S
H1742 C1727 0.961 . S
H1743 C1727 0.960 . S
C1744 C1745 1.391 . S
C1744 C1746 1.394 . S
C1744 H1760 0.931 . S
C1745 C1744 1.391 . S
C1745 C1749 1.383 . S
C1746 C1744 1.394 . S
C1746 C1747 1.369 . S
C1746 C1750 1.531 . S
C1747 C1746 1.369 . S
C1747 C1748 1.410 . S
C1747 C1755 1.503 . S
C1748 C1747 1.410 . S
C1748 C1749 1.395 . S
C1748 C1751 1.511 1_554 S
C1749 C1745 1.383 . S
C1749 C1748 1.395 . S
C1749 H1761 0.920 1_554 S
C1750 C1746 1.531 . S
C1750 H1762 0.960 . S
C1750 H1763 0.962 . S
C1750 H1764 0.960 . S
C1751 C1748 1.511 1_556 S
C1751 H1765 0.961 . S
C1751 H1766 0.961 . S
C1751 H1767 0.961 1_556 S
C1752 C1753 1.370 1_556 S
C1752 C1754 1.363 . S
C1752 H1768 0.931 . S
C1753 C1752 1.370 1_554 S
C1753 C1757 1.408 . S
C1754 C1752 1.363 . S
C1754 C1755 1.370 1_556 S
C1754 C1758 1.524 . S
C1755 C1747 1.503 . S
C1755 C1754 1.370 1_554 S
C1755 C1756 1.403 . S
C1756 C1755 1.403 . S
C1756 C1757 1.404 . S
C1756 C1759 1.539 . S
C1757 C1753 1.408 . S
C1757 C1756 1.404 . S
C1757 H1769 0.930 . S
C1758 C1754 1.524 . S
C1758 H1770 0.956 . S
C1758 H1771 0.961 . S
C1758 H1772 0.961 . S
C1759 C1756 1.539 . S
C1759 H1773 0.958 . S
C1759 H1774 0.961 . S
C1759 H1775 0.960 . S
H1760 C1744 0.931 . S
H1761 C1749 0.920 1_556 S
H1762 C1750 0.960 . S
H1763 C1750 0.962 . S
H1764 C1750 0.960 . S
H1765 C1751 0.961 . S
H1766 C1751 0.961 . S
H1767 C1751 0.961 1_554 S
H1768 C1752 0.931 . S
H1769 C1757 0.930 . S
H1770 C1758 0.956 . S
H1771 C1758 0.961 . S
H1772 C1758 0.961 . S
H1773 C1759 0.958 . S
H1774 C1759 0.961 . S
H1775 C1759 0.960 . S
C1776 C1777 1.391 . S
C1776 C1778 1.394 . S
C1776 H1792 0.931 . S
C1777 C1776 1.391 . S
C1777 C1781 1.376 . S
C1778 C1776 1.394 . S
C1778 C1779 1.369 . S
C1778 C1782 1.531 . S
C1779 C1778 1.369 . S
C1779 C1780 1.410 1_455 S
C1779 C1787 1.503 1_455 S
C1780 C1779 1.410 1_655 S
C1780 C1781 1.392 1_655 S
C1780 C1783 1.511 . S
C1781 C1777 1.376 . S
C1781 C1780 1.392 1_455 S
C1781 H1793 0.929 1_455 S
C1782 C1778 1.531 . S
C1782 H1794 0.960 . S
C1782 H1795 0.962 . S
C1782 H1796 0.960 . S
C1783 C1780 1.511 . S
C1783 H1797 0.961 . S
C1783 H1798 0.961 . S
C1783 H1799 0.961 . S
C1784 C1785 1.370 . S
C1784 C1786 1.363 . S
C1784 H1800 0.931 . S
C1785 C1784 1.370 . S
C1785 C1789 1.408 . S
C1786 C1784 1.363 . S
C1786 C1787 1.370 . S
C1786 C1790 1.524 1_655 S
C1787 C1779 1.503 1_655 S
C1787 C1786 1.370 . S
C1787 C1788 1.403 . S
C1788 C1787 1.403 . S
C1788 C1789 1.404 . S
C1788 C1791 1.539 . S
C1789 C1785 1.408 . S
C1789 C1788 1.404 . S
C1789 H1801 0.930 . S
C1790 C1786 1.524 1_455 S
C1790 H1802 0.956 . S
C1790 H1803 0.961 1_455 S
C1790 H1804 0.961 1_455 S
C1791 C1788 1.539 . S
C1791 H1805 0.958 . S
C1791 H1806 0.961 . S
C1791 H1807 0.960 . S
H1792 C1776 0.931 . S
H1793 C1781 0.929 1_655 S
H1794 C1782 0.960 . S
H1795 C1782 0.962 . S
H1796 C1782 0.960 . S
H1797 C1783 0.961 . S
H1798 C1783 0.961 . S
H1799 C1783 0.961 . S
H1800 C1784 0.931 . S
H1801 C1789 0.930 . S
H1802 C1790 0.956 . S
H1803 C1790 0.961 1_655 S
H1804 C1790 0.961 1_655 S
H1805 C1791 0.958 . S
H1806 C1791 0.961 . S
H1807 C1791 0.960 . S
C1808 C1809 1.391 . S
C1808 C1810 1.394 . S
C1808 H1824 0.931 . S
C1809 C1808 1.391 . S
C1809 C1813 1.376 . S
C1810 C1808 1.394 . S
C1810 C1811 1.369 . S
C1810 C1814 1.531 . S
C1811 C1810 1.369 . S
C1811 C1812 1.410 . S
C1811 C1819 1.503 1_655 S
C1812 C1811 1.410 . S
C1812 C1813 1.392 . S
C1812 C1815 1.511 . S
C1813 C1809 1.376 . S
C1813 C1812 1.392 . S
C1813 H1825 0.929 . S
C1814 C1810 1.531 . S
C1814 H1826 0.960 . S
C1814 H1827 0.962 . S
C1814 H1828 0.960 . S
C1815 C1812 1.511 . S
C1815 H1829 0.961 . S
C1815 H1830 0.961 1_655 S
C1815 H1831 0.961 . S
C1816 C1817 1.370 . S
C1816 C1818 1.363 . S
C1816 H1832 0.931 . S
C1817 C1816 1.370 . S
C1817 C1821 1.408 . S
C1818 C1816 1.363 . S
C1818 C1819 1.370 . S
C1818 C1822 1.524 . S
C1819 C1811 1.503 1_455 S
C1819 C1818 1.370 . S
C1819 C1820 1.403 . S
C1820 C1819 1.403 . S
C1820 C1821 1.404 . S
C1820 C1823 1.539 1_455 S
C1821 C1817 1.408 . S
C1821 C1820 1.404 . S
C1821 H1833 0.930 . S
C1822 C1818 1.524 . S
C1822 H1834 0.956 . S
C1822 H1835 0.961 . S
C1822 H1836 0.961 . S
C1823 C1820 1.539 1_655 S
C1823 H1837 0.958 . S
C1823 H1838 0.961 1_655 S
C1823 H1839 0.960 . S
H1824 C1808 0.931 . S
H1825 C1813 0.929 . S
H1826 C1814 0.960 . S
H1827 C1814 0.962 . S
H1828 C1814 0.960 . S
H1829 C1815 0.961 . S
H1830 C1815 0.961 1_455 S
H1831 C1815 0.961 . S
H1832 C1816 0.931 . S
H1833 C1821 0.930 . S
H1834 C1822 0.956 . S
H1835 C1822 0.961 . S
H1836 C1822 0.961 . S
H1837 C1823 0.958 . S
H1838 C1823 0.961 1_455 S
H1839 C1823 0.960 . S
C1840 C1841 1.391 . S
C1840 C1842 1.394 . S
C1840 H1856 0.931 . S
C1841 C1840 1.391 . S
C1841 C1845 1.376 . S
C1842 C1840 1.394 . S
C1842 C1843 1.369 . S
C1842 C1846 1.531 . S
C1843 C1842 1.369 . S
C1843 C1844 1.410 . S
C1843 C1851 1.503 . S
C1844 C1843 1.410 . S
C1844 C1845 1.392 . S
C1844 C1847 1.511 . S
C1845 C1841 1.376 . S
C1845 C1844 1.392 . S
C1845 H1857 0.929 . S
C1846 C1842 1.531 . S
C1846 H1858 0.960 . S
C1846 H1859 0.962 . S
C1846 H1860 0.960 . S
C1847 C1844 1.511 . S
C1847 H1861 0.961 . S
C1847 H1862 0.961 . S
C1847 H1863 0.961 . S
C1848 C1849 1.370 . S
C1848 C1850 1.363 . S
C1848 H1864 0.931 . S
C1849 C1848 1.370 . S
C1849 C1853 1.408 . S
C1850 C1848 1.363 . S
C1850 C1851 1.370 . S
C1850 C1854 1.524 . S
C1851 C1843 1.503 . S
C1851 C1850 1.370 . S
C1851 C1852 1.403 . S
C1852 C1851 1.403 . S
C1852 C1853 1.404 . S
C1852 C1855 1.539 . S
C1853 C1849 1.408 . S
C1853 C1852 1.404 . S
C1853 H1865 0.930 . S
C1854 C1850 1.524 . S
C1854 H1866 0.956 . S
C1854 H1867 0.961 . S
C1854 H1868 0.961 . S
C1855 C1852 1.539 . S
C1855 H1869 0.958 . S
C1855 H1870 0.961 . S
C1855 H1871 0.960 . S
H1856 C1840 0.931 . S
H1857 C1845 0.929 . S
H1858 C1846 0.960 . S
H1859 C1846 0.962 . S
H1860 C1846 0.960 . S
H1861 C1847 0.961 . S
H1862 C1847 0.961 . S
H1863 C1847 0.961 . S
H1864 C1848 0.931 . S
H1865 C1853 0.930 . S
H1866 C1854 0.956 . S
H1867 C1854 0.961 . S
H1868 C1854 0.961 . S
H1869 C1855 0.958 . S
H1870 C1855 0.961 . S
H1871 C1855 0.960 . S
C1872 C1873 1.391 1_554 S
C1872 C1874 1.394 . S
C1872 H1888 0.931 . S
C1873 C1872 1.391 1_556 S
C1873 C1877 1.376 . S
C1874 C1872 1.394 . S
C1874 C1875 1.369 . S
C1874 C1878 1.531 . S
C1875 C1874 1.369 . S
C1875 C1876 1.410 1_554 S
C1875 C1883 1.504 . S
C1876 C1875 1.410 1_556 S
C1876 C1877 1.392 . S
C1876 C1879 1.511 . S
C1877 C1873 1.376 . S
C1877 C1876 1.392 . S
C1877 H1889 0.929 . S
C1878 C1874 1.531 . S
C1878 H1890 0.960 . S
C1878 H1891 0.962 . S
C1878 H1892 0.960 . S
C1879 C1876 1.511 . S
C1879 H1893 0.961 . S
C1879 H1894 0.961 . S
C1879 H1895 0.961 . S
C1880 C1881 1.370 . S
C1880 C1882 1.363 . S
C1880 H1896 0.931 . S
C1881 C1880 1.370 . S
C1881 C1885 1.408 1_556 S
C1882 C1880 1.363 . S
C1882 C1883 1.358 1_556 S
C1882 C1886 1.524 . S
C1883 C1875 1.504 . S
C1883 C1882 1.358 1_554 S
C1883 C1884 1.414 . S
C1884 C1883 1.414 . S
C1884 C1885 1.404 . S
C1884 C1887 1.539 . S
C1885 C1881 1.408 1_554 S
C1885 C1884 1.404 . S
C1885 H1897 0.930 . S
C1886 C1882 1.524 . S
C1886 H1898 0.956 . S
C1886 H1899 0.961 . S
C1886 H1900 0.961 . S
C1887 C1884 1.539 . S
C1887 H1901 0.958 . S
C1887 H1902 0.961 . S
C1887 H1903 0.960 . S
H1888 C1872 0.931 . S
H1889 C1877 0.929 . S
H1890 C1878 0.960 . S
H1891 C1878 0.962 . S
H1892 C1878 0.960 . S
H1893 C1879 0.961 . S
H1894 C1879 0.961 . S
H1895 C1879 0.961 . S
H1896 C1880 0.931 . S
H1897 C1885 0.930 . S
H1898 C1886 0.956 . S
H1899 C1886 0.961 . S
H1900 C1886 0.961 . S
H1901 C1887 0.958 . S
H1902 C1887 0.961 . S
H1903 C1887 0.960 . S
C369 C17 1.517 . S
C377 C156 1.599 . S
C401 C363 1.568 . S
C409 C40 1.530 . S
C433 C63 1.580 . S
C441 C110 1.610 . S
C465 C317 1.523 . S
C473 C86 1.497 . S
C497 C64 1.627 . S
C505 C109 1.567 . S
C529 C271 1.569 . S
C537 C132 1.530 . S
C561 C155 1.566 . S
C569 C18 1.609 . S
C593 C178 1.545 . S
C601 C225 1.564 . S
C625 C201 1.572 . S
C633 C340 1.608 . S
C657 C224 1.488 . S
C665 C179 1.549 . S
C689 C294 1.606 . S
C697 C247 1.558 . S
C721 C133 1.618 . S
C729 C270 1.561 . S
C753 C248 1.618 . S
C761 C293 1.563 . S
C785 C316 1.519 . S
C793 C87 1.561 . S
C817 C202 1.629 . S
C825 C339 1.571 . S
C849 C41 1.618 . S
C857 C362 1.560 . S
C881 C21 0.381 . S
C889 C297 0.416 . S
C913 C44 0.425 . S
C921 C136 0.383 . S
C945 C67 0.403 . S
C953 C343 0.411 . S
C977 C182 0.412 . S
C985 C90 0.362 . S
C1009 C113 0.443 . S
C1017 C205 0.390 . S
C1041 C251 0.381 . S
C1049 C159 0.416 . S
C1073 C228 0.409 . S
C1081 C320 0.361 . S
C1105 C366 0.381 . S
C1113 C274 0.402 . S
C1137 C19 1.511 . S
C1145 C43 1.480 . S
C1169 C66 1.489 . S
C1177 C42 1.547 . S
C1201 C65 1.703 . S
C1209 C89 1.677 . S
C1233 C88 1.348 . S
C1241 C20 1.311 . S
C1265 C135 1.451 . S
C1273 C111 1.504 . S
C1297 C158 1.527 . S
C1305 C134 1.552 . S
C1329 C181 1.641 . S
C1337 C157 1.702 . S
C1361 C112 1.276 . S
C1369 C180 1.329 . S
C1393 C203 1.690 1_565 S
C1401 C227 1.667 . S
C1425 C226 1.348 . S
C1433 C250 1.310 . S
C1457 C273 1.464 . S
C1465 C249 1.507 1_545 S
C1489 C272 1.539 . S
C1497 C204 1.504 . S
C1521 C319 1.684 . S
C1529 C295 1.712 1_545 S
C1553 C318 1.323 . S
C1561 C342 1.289 . S
C1585 C341 1.513 1_565 S
C1593 C365 1.482 . S
C1617 C296 1.495 . S
C1625 C364 1.549 . S
C1649 C16 1.466 . S
C1657 C246 1.494 . S
C1681 C39 1.451 . S
C1689 C269 1.492 . S
C1713 C62 1.472 . S
C1721 C200 1.502 . S
C1745 C223 1.451 . S
C1753 C85 1.468 . S
C1777 C338 1.487 . S
C1785 C108 1.482 . S
C1809 C131 1.502 . S
C1817 C361 1.472 . S
C1841 C154 1.477 . S
C1849 C292 1.502 . S
C1873 C315 1.449 . S
C1881 C177 1.469 . S
