# Generated by pormake.
# Topology mmt, (4)-cn, num edge types: 1
# Building blocks:
#     Node 0, Type 0, BuildingBlock: QUQFOY_clean_sbu_3, # of connection points: 4
#     Node 1, Type 0, BuildingBlock: QUQFOY_clean_sbu_3, # of connection points: 4
#     Node 2, Type 0, BuildingBlock: QUQFOY_clean_sbu_3, # of connection points: 4
#     Node 3, Type 0, BuildingBlock: QUQFOY_clean_sbu_3, # of connection points: 4
#     Node 4, Type 0, BuildingBlock: QUQFOY_clean_sbu_3, # of connection points: 4
#     Node 5, Type 0, BuildingBlock: QUQFOY_clean_sbu_3, # of connection points: 4
#     Node 6, Type 0, BuildingBlock: QUQFOY_clean_sbu_3, # of connection points: 4
#     Node 7, Type 0, BuildingBlock: QUQFOY_clean_sbu_3, # of connection points: 4
#     Edge 8, Type (0, 0), BuildingBlock: MIFKUJ_clean_linker_0, # of connection points: 2
#     Edge 9, Type (0, 0), BuildingBlock: MIFKUJ_clean_linker_0, # of connection points: 2
#     Edge 10, Type (0, 0), BuildingBlock: MIFKUJ_clean_linker_0, # of connection points: 2
#     Edge 11, Type (0, 0), BuildingBlock: MIFKUJ_clean_linker_0, # of connection points: 2
#     Edge 12, Type (0, 0), BuildingBlock: MIFKUJ_clean_linker_0, # of connection points: 2
#     Edge 13, Type (0, 0), BuildingBlock: MIFKUJ_clean_linker_0, # of connection points: 2
#     Edge 14, Type (0, 0), BuildingBlock: MIFKUJ_clean_linker_0, # of connection points: 2
#     Edge 15, Type (0, 0), BuildingBlock: MIFKUJ_clean_linker_0, # of connection points: 2
#     Edge 16, Type (0, 0), BuildingBlock: MIFKUJ_clean_linker_0, # of connection points: 2
#     Edge 17, Type (0, 0), BuildingBlock: MIFKUJ_clean_linker_0, # of connection points: 2
#     Edge 18, Type (0, 0), BuildingBlock: MIFKUJ_clean_linker_0, # of connection points: 2
#     Edge 19, Type (0, 0), BuildingBlock: MIFKUJ_clean_linker_0, # of connection points: 2
#     Edge 20, Type (0, 0), BuildingBlock: MIFKUJ_clean_linker_0, # of connection points: 2
#     Edge 21, Type (0, 0), BuildingBlock: MIFKUJ_clean_linker_0, # of connection points: 2
#     Edge 22, Type (0, 0), BuildingBlock: MIFKUJ_clean_linker_0, # of connection points: 2
#     Edge 23, Type (0, 0), BuildingBlock: MIFKUJ_clean_linker_0, # of connection points: 2
# Relax obj value: 0.027
# Max RMSD: 0.041
# Mean RMSD: 0.041
data_MOF--net-mmt--node1-QUQFOY_clean_sbu_3--edge1-MIFKUJ_clean_linker_0
_symmetry_space_group_name_H-M    P1
_symmetry_Int_Tables_number       1
_symmetry_cell_setting            triclinic
loop_
_symmetry_equiv_pos_as_xyz
'x, y, z'
_cell_length_a     29.402972
_cell_length_b     49.408108
_cell_length_c     59.900643
_cell_angle_alpha  90.029767
_cell_angle_beta   89.956158
_cell_angle_gamma 89.91302
loop_
_atom_site_label
_atom_site_type_symbol
_atom_site_fract_x
_atom_site_fract_y
_atom_site_fract_z
_atom_type_partial_charge
C0 C 0.08207 0.64212 0.32596 0.0
O1 O 0.06104 0.642 0.30746 0.0
Cd2 Cd 0.02469 0.60253 0.29198 0.0
O3 O 0.08199 0.62119 0.33835 0.0
Cd4 Cd 0.04894 0.57527 0.33826 0.0
C5 C 0.11534 0.5584 0.29471 0.0
O6 O 0.9763 0.58034 0.31816 0.0
O7 O 0.00438 0.54007 0.32144 0.0
O8 O 0.01947 0.58029 0.376 0.0
C9 C 0.97187 0.55501 0.31503 0.0
O10 O 0.08677 0.57174 0.28309 0.0
C11 C 0.04046 0.55999 0.38394 0.0
O12 O 0.11237 0.55776 0.31594 0.0
O13 O 0.06696 0.54735 0.37076 0.0
C14 C 0.40274 0.85566 0.33331 0.0
O15 O 0.42763 0.85533 0.31598 0.0
Cd16 Cd 0.46468 0.8947 0.30074 0.0
O17 O 0.39886 0.87718 0.34485 0.0
Cd18 Cd 0.42883 0.92387 0.3449 0.0
C19 C 0.37081 0.93652 0.29778 0.0
O20 O 0.50502 0.9195 0.32845 0.0
O21 O 0.47389 0.95914 0.32824 0.0
O22 O 0.45082 0.92137 0.38388 0.0
C23 C 0.5083 0.94457 0.32395 0.0
O24 O 0.4027 0.92363 0.28799 0.0
C25 C 0.4273 0.94156 0.39017 0.0
O26 O 0.36911 0.93805 0.31902 0.0
O27 O 0.40291 0.95308 0.37544 0.0
C28 C 0.57929 0.34418 0.15297 0.0
O29 O 0.5564 0.34284 0.17089 0.0
Cd30 Cd 0.52712 0.38227 0.18936 0.0
O31 O 0.5829 0.3665 0.1425 0.0
Cd32 Cd 0.55111 0.41291 0.14537 0.0
C33 C 0.62124 0.4242 0.18818 0.0
O34 O 0.47849 0.40761 0.16539 0.0
O35 O 0.51051 0.44694 0.16635 0.0
O36 O 0.5205 0.4113 0.10767 0.0
C37 C 0.4764 0.43237 0.17105 0.0
O38 O 0.59288 0.41011 0.19932 0.0
C39 C 0.54096 0.43232 0.1008 0.0
O40 O 0.61654 0.42732 0.1672 0.0
O41 O 0.56753 0.44393 0.11452 0.0
C42 C 0.90019 0.131 0.14995 0.0
O43 O 0.92427 0.13266 0.16748 0.0
Cd44 Cd 0.96052 0.0946 0.18491 0.0
O45 O 0.89749 0.10874 0.13931 0.0
Cd46 Cd 0.93022 0.06264 0.14157 0.0
C47 C 0.86725 0.0524 0.18756 0.0
O48 O 0.00503 0.07001 0.1586 0.0
O49 O 0.97736 0.02958 0.1602 0.0
O50 O 0.9535 0.06422 0.10273 0.0
C51 C 0.01051 0.04532 0.16387 0.0
O52 O 0.89749 0.06635 0.19754 0.0
C53 C 0.93339 0.04257 0.09701 0.0
O54 O 0.86855 0.04912 0.16646 0.0
O55 O 0.91003 0.03068 0.11193 0.0
C56 C 0.91434 0.35406 0.64905 0.0
O57 O 0.9407 0.35212 0.66574 0.0
Cd58 Cd 0.97478 0.3908 0.68339 0.0
O59 O 0.90876 0.37675 0.63936 0.0
Cd60 Cd 0.93928 0.42332 0.64189 0.0
C61 C 0.87939 0.43115 0.68902 0.0
O62 O 0.01598 0.4179 0.65745 0.0
O63 O 0.98374 0.45698 0.66128 0.0
O64 O 0.96152 0.42302 0.60295 0.0
C65 C 0.01894 0.44243 0.66366 0.0
O66 O 0.91119 0.41742 0.69804 0.0
C67 C 0.93895 0.4439 0.59746 0.0
O68 O 0.87863 0.43506 0.66798 0.0
O69 O 0.91492 0.45493 0.61261 0.0
C70 C 0.58878 0.14298 0.65664 0.0
O71 O 0.56875 0.14392 0.6754 0.0
Cd72 Cd 0.53678 0.10494 0.69317 0.0
O73 O 0.58817 0.12138 0.64503 0.0
Cd74 Cd 0.55185 0.07598 0.64717 0.0
C75 C 0.62546 0.05954 0.68773 0.0
O76 O 0.48237 0.08397 0.66922 0.0
O77 O 0.50641 0.04276 0.66653 0.0
O78 O 0.51825 0.07981 0.61009 0.0
C79 C 0.47582 0.059 0.67311 0.0
O80 O 0.60118 0.07473 0.70016 0.0
C81 C 0.53718 0.05869 0.60233 0.0
O82 O 0.61661 0.05689 0.66704 0.0
O83 O 0.5643 0.04617 0.61522 0.0
C84 C 0.41629 0.63419 0.82973 0.0
O85 O 0.44215 0.6339 0.81275 0.0
Cd86 Cd 0.47624 0.59328 0.79808 0.0
O87 O 0.41052 0.61285 0.84129 0.0
Cd88 Cd 0.43969 0.56585 0.84205 0.0
C89 C 0.38065 0.55315 0.79541 0.0
O90 O 0.51665 0.56965 0.82644 0.0
O91 O 0.48519 0.5302 0.82555 0.0
O92 O 0.45969 0.5695 0.8813 0.0
C93 C 0.52021 0.54455 0.82217 0.0
O94 O 0.41333 0.56485 0.78531 0.0
C95 C 0.43745 0.54882 0.88751 0.0
O96 O 0.37886 0.55245 0.81667 0.0
O97 O 0.41453 0.53657 0.87263 0.0
C98 C 0.09189 0.84833 0.82367 0.0
O99 O 0.07042 0.84806 0.80527 0.0
Cd100 Cd 0.02844 0.88575 0.79015 0.0
O101 O 0.08938 0.86874 0.83662 0.0
Cd102 Cd 0.04981 0.91293 0.83816 0.0
C103 C 0.1124 0.93419 0.79406 0.0
O104 O 0.97885 0.90344 0.81798 0.0
O105 O -0.00452 0.94531 0.82435 0.0
O106 O 0.02569 0.90588 0.87667 0.0
C107 C 0.96782 0.92823 0.81637 0.0
O108 O 0.08656 0.9195 0.78204 0.0
C109 C 0.04424 0.92726 0.88412 0.0
O110 O 0.10839 0.93447 0.81526 0.0
O111 O 0.06688 0.94136 0.8703 0.0
H112 H 0.12272 0.54905 0.25008 0.0
H113 H 0.1826 0.5248 0.23042 0.0
H114 H 0.25124 0.50977 0.29286 0.0
H115 H 0.19045 0.53361 0.31288 0.0
H116 H 0.26815 0.53638 0.22637 0.0
H117 H 0.31214 0.45035 0.28823 0.0
H118 H 0.27456 0.42273 0.31715 0.0
H119 H 0.14567 0.43436 0.28487 0.0
H120 H 0.18255 0.46173 0.25561 0.0
H121 H 0.47603 0.47929 0.19469 0.0
H122 H 0.41459 0.49794 0.21725 0.0
H123 H 0.33061 0.42909 0.20117 0.0
H124 H 0.39298 0.40971 0.17906 0.0
H125 H 0.31952 0.44307 0.24387 0.0
H126 H 0.31784 0.48964 0.17354 0.0
H127 H 0.35089 0.51567 0.14239 0.0
H128 H 0.3851 0.58017 0.18738 0.0
H129 H 0.35278 0.55437 0.21886 0.0
C130 C 0.15042 0.54056 0.25972 0.0
C131 C 0.15187 0.54335 0.28307 0.0
C132 C 0.18468 0.52669 0.24842 0.0
C133 C 0.22129 0.51537 0.26015 0.0
C134 C 0.22293 0.51802 0.28349 0.0
C135 C 0.18832 0.53175 0.29489 0.0
C136 C 0.2583 0.50171 0.24765 0.0
C137 C 0.27935 0.51598 0.23024 0.0
C138 C 0.27256 0.47497 0.25248 0.0
C139 C 0.25007 0.45834 0.26988 0.0
C140 C 0.2758 0.44694 0.28727 0.0
C141 C 0.25462 0.43134 0.30373 0.0
C142 C 0.20774 0.42687 0.30289 0.0
C143 C 0.18195 0.43792 0.28555 0.0
C144 C 0.20297 0.45352 0.26904 0.0
C145 C 0.44453 0.46805 0.19595 0.0
C146 C 0.43905 0.44318 0.18489 0.0
C147 C 0.40942 0.47876 0.20885 0.0
C148 C 0.36774 0.46516 0.21056 0.0
C149 C 0.3625 0.43995 0.20002 0.0
C150 C 0.39799 0.42898 0.18731 0.0
C151 C 0.32929 0.47782 0.2227 0.0
C152 C 0.3082 0.46345 0.24006 0.0
C153 C 0.31417 0.50429 0.21752 0.0
C154 C 0.33322 0.51998 0.19857 0.0
C155 C 0.33265 0.50931 0.1768 0.0
C156 C 0.35123 0.52403 0.15909 0.0
C157 C 0.37017 0.54953 0.16291 0.0
C158 C 0.37046 0.56041 0.18445 0.0
C159 C 0.35197 0.54576 0.20223 0.0
H160 H 0.38455 0.56089 0.14917 0.0
H161 H 0.1914 0.4148 0.31565 0.0
H162 H 0.08689 0.07405 0.17498 0.0
H163 H 0.15229 0.05805 0.1967 0.0
H164 H 0.08885 0.9798 0.20359 0.0
H165 H 0.02432 -0.00468 0.18158 0.0
H166 H 0.15947 0.04024 0.23856 0.0
H167 H 0.16683 0.93067 0.20348 0.0
H168 H 0.15092 0.90656 0.16827 0.0
H169 H 0.17337 0.97975 0.13128 0.0
H170 H 0.19002 0.00421 0.16622 0.0
H171 H 0.28661 0.95459 0.31074 0.0
H172 H 0.22854 0.97579 0.28724 0.0
H173 H 0.31898 0.97113 0.23056 0.0
H174 H 0.37625 0.94914 0.25367 0.0
H175 H 0.2401 0.95537 0.21845 0.0
H176 H 0.29598 0.03197 0.25877 0.0
H177 H 0.3169 0.05846 0.29211 0.0
H178 H 0.17852 0.05594 0.31498 0.0
H179 H 0.15688 0.02912 0.2819 0.0
C180 C 0.08712 0.05339 0.18101 0.0
C181 C 0.05064 0.03589 0.17646 0.0
C182 C 0.12434 0.04433 0.19348 0.0
C183 C 0.12562 0.01766 0.20154 0.0
C184 C 0.08898 0.0003 0.19719 0.0
C185 C 0.05203 0.00925 0.18464 0.0
C186 C 0.16497 0.00781 0.21466 0.0
C187 C 0.17729 0.02176 0.23414 0.0
C188 C 0.18867 0.98394 0.20866 0.0
C189 C 0.17929 0.96931 0.1875 0.0
C190 C 0.16858 0.94159 0.18782 0.0
C191 C 0.15939 0.92787 0.16791 0.0
C192 C 0.16101 0.94163 0.14756 0.0
C193 C 0.17197 0.96913 0.14706 0.0
C194 C 0.18123 0.98294 0.16692 0.0
C195 C 0.29409 0.95819 0.29329 0.0
C196 C 0.33589 0.9501 0.28403 0.0
C197 C 0.26101 0.97044 0.2799 0.0
C198 C 0.26957 0.97531 0.25716 0.0
C199 C 0.31152 0.9675 0.24802 0.0
C200 C 0.34424 0.95493 0.26127 0.0
C201 C 0.23436 0.98757 0.2426 0.0
C202 C 0.22261 0.97398 0.22285 0.0
C203 C 0.21205 0.01211 0.24809 0.0
C204 C 0.2249 0.02834 0.26795 0.0
C205 C 0.27007 0.03691 0.27098 0.0
C206 C 0.28205 0.052 0.28982 0.0
C207 C 0.24908 0.05882 0.30568 0.0
C208 C 0.20403 0.05062 0.30269 0.0
C209 C 0.19189 0.0355 0.28389 0.0
H210 H 0.25842 0.07051 0.32025 0.0
H211 H 0.15384 0.93098 0.13217 0.0
H212 H 0.68659 0.4577 0.17072 0.0
H213 H 0.7459 0.48211 0.19108 0.0
H214 H 0.69988 0.44642 0.25279 0.0
H215 H 0.64041 0.42222 0.23273 0.0
H216 H 0.71395 0.49982 0.2576 0.0
H217 H 0.79439 0.42316 0.22709 0.0
H218 H 0.8213 0.39279 0.19716 0.0
H219 H 0.88944 0.4593 0.16547 0.0
H220 H 0.8624 0.49015 0.19507 0.0
H221 H 0.95685 0.50189 0.30619 0.0
H222 H 0.89688 0.48216 0.28345 0.0
H223 H 0.84145 0.56168 0.27122 0.0
H224 H 0.90161 0.58175 0.29429 0.0
H225 H 0.87787 0.48883 0.24008 0.0
H226 H 0.72453 0.55412 0.26645 0.0
H227 H 0.69814 0.58092 0.29876 0.0
H228 H 0.7768 0.53085 0.34285 0.0
H229 H 0.80315 0.50357 0.31084 0.0
C230 C 0.68923 0.45494 0.18861 0.0
C231 C 0.65875 0.43798 0.20009 0.0
C232 C 0.72314 0.4689 0.20021 0.0
C233 C 0.72727 0.46604 0.22343 0.0
C234 C 0.69709 0.44903 0.23488 0.0
C235 C 0.66326 0.43509 0.22334 0.0
C236 C 0.76298 0.48066 0.23597 0.0
C237 C 0.74979 0.49756 0.25369 0.0
C238 C 0.8097 0.47752 0.23096 0.0
C239 C 0.82593 0.45902 0.21314 0.0
C240 C 0.81478 0.43135 0.21363 0.0
C241 C 0.83012 0.41404 0.19675 0.0
C242 C 0.85694 0.42412 0.17939 0.0
C243 C 0.86858 0.45153 0.1789 0.0
C244 C 0.85328 0.46893 0.19573 0.0
C245 C 0.93186 0.51526 0.29876 0.0
C246 C 0.93394 0.54341 0.30204 0.0
C247 C 0.89773 0.50392 0.28566 0.0
C248 C 0.8648 0.52043 0.27563 0.0
C249 C 0.86644 0.54857 0.27896 0.0
C250 C 0.90075 0.55999 0.29213 0.0
C251 C 0.82885 0.50784 0.26181 0.0
C252 C 0.84199 0.4914 0.2438 0.0
C253 C 0.78215 0.51097 0.26683 0.0
C254 C 0.76622 0.52705 0.28622 0.0
C255 C 0.73609 0.54882 0.28305 0.0
C256 C 0.72115 0.56408 0.30131 0.0
C257 C 0.73593 0.55765 0.32283 0.0
C258 C 0.76554 0.53588 0.32616 0.0
C259 C 0.78054 0.52054 0.30796 0.0
H260 H 0.72434 0.5695 0.33694 0.0
H261 H 0.8688 0.41069 0.16634 0.0
H262 H 0.78908 0.02843 0.17234 0.0
H263 H 0.72675 0.00995 0.19476 0.0
H264 H 0.79999 0.02959 0.25501 0.0
H265 H 0.86163 0.0486 0.23288 0.0
H266 H 0.71961 0.96989 0.22358 0.0
H267 H 0.72858 0.04985 0.29504 0.0
H268 H 0.74786 0.09811 0.29973 0.0
H269 H 0.71625 0.11291 0.23085 0.0
H270 H 0.69634 0.06485 0.22579 0.0
H271 H 0.59093 0.92106 0.31517 0.0
H272 H 0.65194 0.93913 0.29161 0.0
H273 H 0.57073 0.01015 0.27817 0.0
H274 H 0.51097 0.99285 0.30233 0.0
H275 H 0.65155 0.02548 0.28403 0.0
H276 H 0.5827 0.95651 0.23991 0.0
H277 H 0.5543 0.91082 0.23105 0.0
H278 H 0.68923 0.87854 0.23796 0.0
H279 H 0.71834 0.92402 0.24717 0.0
C280 C 0.79189 0.02878 0.19036 0.0
C281 C 0.83012 0.04021 0.20082 0.0
C282 C 0.75632 0.01815 0.20314 0.0
C283 C 0.75846 0.01875 0.22655 0.0
C284 C 0.79719 0.02942 0.23698 0.0
C285 C 0.83248 0.04023 0.22427 0.0
C286 C 0.72012 0.00855 0.24022 0.0
C287 C 0.70466 0.98202 0.23679 0.0
C288 C 0.69979 0.02465 0.25705 0.0
C289 C 0.71142 0.05367 0.26 0.0
C290 C 0.72562 0.06342 0.28091 0.0
C291 C 0.7367 0.09074 0.28363 0.0
C292 C 0.73347 0.10855 0.26557 0.0
C293 C 0.71899 0.09908 0.24478 0.0
C294 C 0.70788 0.07179 0.24198 0.0
C295 C 0.58636 0.94059 0.30728 0.0
C296 C 0.54622 0.95551 0.31057 0.0
C297 C 0.62105 0.95083 0.29371 0.0
C298 C 0.61567 0.97585 0.28282 0.0
C299 C 0.57579 0.99086 0.28639 0.0
C300 C 0.54157 0.98088 0.30021 0.0
C301 C 0.65136 0.98658 0.26768 0.0
C302 C 0.66643 0.01326 0.27085 0.0
C303 C 0.66993 0.97099 0.25003 0.0
C304 C 0.65261 0.94362 0.24445 0.0
C305 C 0.60625 0.93964 0.2397 0.0
C306 C 0.59004 0.91378 0.23459 0.0
C307 C 0.61992 0.89178 0.234 0.0
C308 C 0.66611 0.8956 0.23846 0.0
C309 C 0.6825 0.92141 0.24361 0.0
H310 H 0.60731 0.87178 0.23004 0.0
H311 H 0.74206 0.12968 0.26771 0.0
H312 H 0.52725 0.49521 0.80227 0.0
H313 H 0.59124 0.47718 0.78114 0.0
H314 H 0.66783 0.54984 0.79457 0.0
H315 H 0.60289 0.56852 0.81516 0.0
H316 H 0.67804 0.53644 0.75291 0.0
H317 H 0.69048 0.4888 0.82188 0.0
H318 H 0.66415 0.46117 0.85362 0.0
H319 H 0.63284 0.39573 0.80904 0.0
H320 H 0.65841 0.4231 0.77699 0.0
H321 H 0.87928 0.43508 0.73443 0.0
H322 H 0.82169 0.4558 0.75824 0.0
H323 H 0.74046 0.4743 0.70022 0.0
H324 H 0.79875 0.45429 0.67616 0.0
H325 H 0.73805 0.44402 0.76659 0.0
H326 H 0.68014 0.53167 0.70871 0.0
H327 H 0.71223 0.56116 0.67946 0.0
H328 H 0.84596 0.55019 0.70679 0.0
H329 H 0.8146 0.52094 0.73636 0.0
C330 C 0.55779 0.50733 0.80087 0.0
C331 C 0.56014 0.53327 0.81044 0.0
C332 C 0.59446 0.49692 0.78884 0.0
C333 C 0.63464 0.51196 0.78654 0.0
C334 C 0.63718 0.53785 0.79616 0.0
C335 C 0.60018 0.54846 0.80798 0.0
C336 C 0.67339 0.50084 0.77356 0.0
C337 C 0.69129 0.51627 0.75597 0.0
C338 C 0.69124 0.4747 0.77775 0.0
C339 C 0.67605 0.4581 0.79701 0.0
C340 C 0.6777 0.46858 0.81883 0.0
C341 C 0.66295 0.45296 0.83688 0.0
C342 C 0.64675 0.42673 0.83335 0.0
C343 C 0.64537 0.41605 0.81175 0.0
C344 C 0.66004 0.4316 0.79364 0.0
C345 C 0.84919 0.44356 0.72669 0.0
C346 C 0.84367 0.44312 0.70337 0.0
C347 C 0.81625 0.45538 0.74035 0.0
C348 C 0.77699 0.46689 0.73103 0.0
C349 C 0.77093 0.46604 0.70777 0.0
C350 C 0.80416 0.45448 0.69404 0.0
C351 C 0.74225 0.47946 0.74574 0.0
C352 C 0.72499 0.46425 0.76361 0.0
C353 C 0.7259 0.50607 0.74218 0.0
C354 C 0.74503 0.5239 0.72461 0.0
C355 C 0.71636 0.53564 0.70852 0.0
C356 C 0.73443 0.5523 0.69188 0.0
C357 C 0.78112 0.55747 0.69122 0.0
C358 C 0.80982 0.54608 0.70726 0.0
C359 C 0.79192 0.52944 0.72395 0.0
H360 H 0.79504 0.57036 0.67831 0.0
H361 H 0.63534 0.41467 0.84734 0.0
H362 H 0.66471 0.01268 0.67268 0.0
H363 H 0.72471 0.98619 0.69107 0.0
H364 H 0.73219 0.04583 0.74352 0.0
H365 H 0.67188 0.07205 0.7256 0.0
H366 H 0.8192 0.02762 0.72458 0.0
H367 H 0.67548 0.99354 0.75446 0.0
H368 H 0.59956 0.97294 0.75051 0.0
H369 H 0.65901 0.90347 0.71869 0.0
H370 H 0.73527 0.92387 0.72218 0.0
H371 H 0.92732 0.97742 0.81778 0.0
H372 H 0.87006 -0.00464 0.79241 0.0
H373 H 0.86461 0.9186 0.75811 0.0
H374 H 0.92149 0.90017 0.78405 0.0
H375 H 0.78117 0.94058 0.7615 0.0
H376 H 0.92494 0.97001 0.73578 0.0
H377 H 0.002 0.98936 0.73823 0.0
H378 H 0.94585 0.06568 0.75879 0.0
H379 H 0.86844 0.04667 0.75683 0.0
C380 C 0.67945 0.02021 0.68804 0.0
C381 C 0.66357 0.04436 0.69777 0.0
C382 C 0.71352 0.00505 0.69851 0.0
C383 C 0.73259 0.0141 0.71862 0.0
C384 C 0.71779 0.03859 0.72798 0.0
C385 C 0.68326 0.05346 0.71777 0.0
C386 C 0.76719 -0.0021 0.73047 0.0
C387 C 0.811 0.00863 0.73273 0.0
C388 C 0.75671 0.97265 0.74029 0.0
C389 C 0.71095 0.96037 0.73832 0.0
C390 C 0.6723 0.97399 0.74643 0.0
C391 C 0.62923 0.96233 0.74432 0.0
C392 C 0.62444 0.93695 0.73429 0.0
C393 C 0.66275 0.92315 0.72641 0.0
C394 C 0.7059 0.93474 0.72846 0.0
C395 C 0.91359 0.96424 0.805 0.0
C396 C 0.92912 0.9375 0.80273 0.0
C397 C 0.88107 0.97456 0.79042 0.0
C398 C 0.86404 0.95855 0.77299 0.0
C399 C 0.87768 0.93136 0.77134 0.0
C400 C 0.91003 0.92086 0.78616 0.0
C401 C 0.83296 0.97078 0.75633 0.0
C402 C 0.78985 0.9593 0.75307 0.0
C403 C 0.84433 -0.00483 0.74524 0.0
C404 C 0.89084 0.00684 0.74628 0.0
C405 C 0.92901 0.99087 0.74096 0.0
C406 C 0.97277 0.00179 0.74226 0.0
C407 C 0.97882 0.02872 0.74869 0.0
C408 C 0.94111 0.04482 0.75381 0.0
C409 C 0.89727 0.03399 0.75259 0.0
H410 H 0.01273 0.03714 0.74969 0.0
H411 H 0.59107 0.92796 0.73267 0.0
H412 H 0.38912 0.53011 0.75445 0.0
H413 H 0.32972 0.50902 0.732 0.0
H414 H 0.23104 0.52705 0.78337 0.0
H415 H 0.29121 0.54669 0.80648 0.0
H416 H 0.21242 0.48088 0.76822 0.0
H417 H 0.2428 0.56529 0.73288 0.0
H418 H 0.28865 0.60135 0.71551 0.0
H419 H 0.33033 0.54659 0.66368 0.0
H420 H 0.28518 0.51008 0.68091 0.0
H421 H 0.02178 0.48646 0.69084 0.0
H422 H 0.08603 0.50265 0.71297 0.0
H423 H 0.16974 0.43821 0.68703 0.0
H424 H 0.10497 0.42124 0.66518 0.0
H425 H 0.19554 0.50629 0.6885 0.0
H426 H 0.16071 0.42116 0.72883 0.0
H427 H 0.10547 0.39051 0.74672 0.0
H428 H 0.06167 0.45481 0.78999 0.0
H429 H 0.11621 0.48594 0.77208 0.0
C430 C 0.35473 0.52951 0.76094 0.0
C431 C 0.3446 0.54018 0.78211 0.0
C432 C 0.32073 0.5176 0.74805 0.0
C433 C 0.27557 0.51699 0.7557 0.0
C434 C 0.26556 0.52731 0.77703 0.0
C435 C 0.29988 0.53859 0.79021 0.0
C436 C 0.23889 0.50558 0.74148 0.0
C437 C 0.20883 0.48662 0.75084 0.0
C438 C 0.23376 0.51298 0.71873 0.0
C439 C 0.26099 0.53487 0.70832 0.0
C440 C 0.26203 0.56088 0.71787 0.0
C441 C 0.28784 0.58141 0.70804 0.0
C442 C 0.31249 0.57624 0.68854 0.0
C443 C 0.31128 0.55055 0.67881 0.0
C444 C 0.28555 0.52993 0.68859 0.0
C445 C 0.05386 0.47572 0.68977 0.0
C446 C 0.05844 0.45256 0.6763 0.0
C447 C 0.09039 0.48498 0.70246 0.0
C448 C 0.13223 0.47149 0.70163 0.0
C449 C 0.13742 0.44871 0.68788 0.0
C450 C 0.10053 0.43908 0.67547 0.0
C451 C 0.17037 0.48149 0.71524 0.0
C452 C 0.20007 0.5004 0.70581 0.0
C453 C 0.17438 0.4747 0.73802 0.0
C454 C 0.14211 0.45591 0.74895 0.0
C455 C 0.13896 0.42882 0.742 0.0
C456 C 0.10786 0.41135 0.75218 0.0
C457 C 0.07997 0.42073 0.76943 0.0
C458 C 0.08324 0.44758 0.7766 0.0
C459 C 0.11425 0.46513 0.76645 0.0
H460 H 0.05591 0.40718 0.77729 0.0
H461 H 0.33245 0.59216 0.68095 0.0
H462 H 0.13095 0.93743 0.7495 0.0
H463 H 0.19101 0.96315 0.73131 0.0
H464 H 0.23366 -0.00523 0.79508 0.0
H465 H 0.17387 0.96863 0.8136 0.0
H466 H 0.2101 0.01559 0.7279 0.0
H467 H 0.35015 0.00053 0.79391 0.0
H468 H 0.37123 0.96852 0.82381 0.0
H469 H 0.30218 0.9044 0.78934 0.0
H470 H 0.28122 0.93594 0.75913 0.0
H471 H 0.40827 0.08898 0.69293 0.0
H472 H 0.3452 0.07208 0.71583 0.0
H473 H 0.39288 0.99026 0.70623 0.0
H474 H 0.4559 0.00689 0.68371 0.0
H475 H 0.37087 -0.00146 0.74878 0.0
H476 H 0.30358 0.01492 0.67656 0.0
H477 H 0.28291 0.04251 0.64379 0.0
H478 H 0.2069 0.09659 0.68583 0.0
H479 H 0.22764 0.06948 0.71891 0.0
C480 C 0.15296 0.9499 0.75974 0.0
C481 C 0.14781 0.95078 0.78307 0.0
C482 C 0.18713 0.96472 0.74924 0.0
C483 C 0.21696 0.98073 0.76184 0.0
C484 C 0.21127 0.98228 0.78508 0.0
C485 C 0.17708 0.96736 0.79564 0.0
C486 C 0.25505 -0.00527 0.75052 0.0
C487 C 0.24525 0.01208 0.7326 0.0
C488 C 0.3009 0.98989 0.75648 0.0
C489 C 0.31366 0.97068 0.77443 0.0
C490 C 0.33957 0.97958 0.79271 0.0
C491 C 0.35149 0.96153 0.8097 0.0
C492 C 0.33789 0.93447 0.80852 0.0
C493 C 0.31252 0.92539 0.79029 0.0
C494 C 0.30057 0.94335 0.77324 0.0
C495 C 0.40519 0.0674 0.6957 0.0
C496 C 0.43697 0.04926 0.6865 0.0
C497 C 0.3692 0.05779 0.70876 0.0
C498 C 0.36436 0.02991 0.71268 0.0
C499 C 0.39614 0.01185 0.70354 0.0
C500 C 0.43202 0.02141 0.69056 0.0
C501 C 0.32595 0.01917 0.726 0.0
C502 C 0.3357 0.00248 0.74435 0.0
C503 C 0.28012 0.02409 0.72007 0.0
C504 C 0.26761 0.04038 0.70023 0.0
C505 C 0.28278 0.03283 0.67884 0.0
C506 C 0.27099 0.04835 0.66021 0.0
C507 C 0.24373 0.07134 0.66274 0.0
C508 C 0.2281 0.07881 0.68391 0.0
C509 C 0.23984 0.06337 0.7026 0.0
H510 H 0.23463 0.08333 0.6483 0.0
H511 H 0.34713 0.92054 0.8217 0.0
H512 H 0.98435 0.58258 0.4152 0.0
H513 H 0.96422 0.56419 0.45177 0.0
H514 H 0.05617 0.49729 0.44115 0.0
H515 H 0.07615 0.51538 0.40444 0.0
H516 H 0.97303 0.48047 0.45499 0.0
H517 H 0.08235 0.54791 0.47741 0.0
H518 H 0.11469 0.59387 0.47931 0.0
H519 H 0.99222 0.62311 0.51016 0.0
H520 H 0.9589 0.57736 0.50817 0.0
H521 H 0.98938 0.42467 0.56275 0.0
H522 H 0.00166 0.44574 0.52649 0.0
H523 H 0.91035 0.51065 0.54447 0.0
H524 H 0.89846 0.48982 0.58115 0.0
H525 H 0.98708 0.53004 0.52669 0.0
H526 H 0.87869 0.46295 0.50625 0.0
H527 H 0.84485 0.41739 0.50429 0.0
H528 H 0.96267 0.38799 0.46946 0.0
H529 H -0.00247 0.4333 0.47148 0.0
C530 C 0.00071 0.56412 0.42075 0.0
C531 C 0.03183 0.55041 0.40693 0.0
C532 C 0.98921 0.55367 0.44167 0.0
C533 C 0.00881 0.52942 0.44919 0.0
C534 C 0.0406 0.516 0.43562 0.0
C535 C 0.05214 0.52644 0.41471 0.0
C536 C -0.00518 0.51739 0.47079 0.0
C537 C 0.97662 0.49116 0.47071 0.0
C538 C -0.00209 0.53178 0.49116 0.0
C539 C 0.01796 0.55927 0.49242 0.0
C540 C 0.06217 0.56419 0.48443 0.0
C541 C 0.0807 0.59019 0.48556 0.0
C542 C 0.05548 0.61141 0.49479 0.0
C543 C 0.0117 0.60666 0.50298 0.0
C544 C -0.00701 0.58069 0.50187 0.0
C545 C 0.97148 0.44328 0.55894 0.0
C546 C 0.9429 0.45557 0.57482 0.0
C547 C 0.97842 0.45526 0.53815 0.0
C548 C 0.95658 0.47964 0.53267 0.0
C549 C 0.92748 0.4918 0.54835 0.0
C550 C 0.92057 0.47983 0.56924 0.0
C551 C 0.96601 0.49289 0.51095 0.0
C552 C 0.98322 0.51938 0.51096 0.0
C553 C 0.96175 0.4788 0.49048 0.0
C554 C 0.94088 0.4515 0.48918 0.0
C555 C 0.89755 0.44673 0.49833 0.0
C556 C 0.87815 0.42095 0.49718 0.0
C557 C 0.90164 0.3998 0.4868 0.0
C558 C 0.94453 0.40439 0.47751 0.0
C559 C 0.9641 0.43013 0.47863 0.0
H560 H 0.88656 0.37985 0.48593 0.0
H561 H 0.06989 0.63153 0.49565 0.0
H562 H 0.38513 0.98613 0.40787 0.0
H563 H 0.3982 0.00639 0.44461 0.0
H564 H 0.49181 0.942 0.46076 0.0
H565 H 0.47841 0.92143 0.42431 0.0
H566 H 0.43944 0.95463 0.49609 0.0
H567 H 0.53004 0.00296 0.44196 0.0
H568 H 0.54268 0.02944 0.40763 0.0
H569 H 0.45371 0.09179 0.43204 0.0
H570 H 0.44007 0.06549 0.46642 0.0
H571 H 0.56975 0.01295 0.58224 0.0
H572 H 0.54629 0.99374 0.54646 0.0
H573 H 0.45497 0.06099 0.53615 0.0
H574 H 0.47864 0.08054 0.57182 0.0
H575 H 0.5006 0.04817 0.49831 0.0
H576 H 0.41384 0.00107 0.55361 0.0
H577 H 0.40181 0.97466 0.58802 0.0
H578 H 0.4835 0.91004 0.56158 0.0
H579 H 0.49658 0.93624 0.52712 0.0
C580 C 0.40803 0.97611 0.41937 0.0
C581 C 0.43101 0.9523 0.41313 0.0
C582 C 0.41562 0.98777 0.4403 0.0
C583 C 0.44655 0.97592 0.45526 0.0
C584 C 0.46791 0.95152 0.44945 0.0
C585 C 0.46028 0.93982 0.42857 0.0
C586 C 0.45835 0.98944 0.47658 0.0
C587 C 0.45316 0.97499 0.49657 0.0
C588 C 0.4753 0.01624 0.47723 0.0
C589 C 0.48365 0.03213 0.45664 0.0
C590 C 0.51291 0.02222 0.43993 0.0
C591 C 0.52029 0.03721 0.42048 0.0
C592 C 0.4989 0.06224 0.41763 0.0
C593 C 0.47018 0.07238 0.43426 0.0
C594 C 0.46264 0.05745 0.45373 0.0
C595 C 0.54495 0.02378 0.57228 0.0
C596 C 0.52589 0.0482 0.5799 0.0
C597 C 0.53138 0.01269 0.55191 0.0
C598 C 0.49832 0.02571 0.53885 0.0
C599 C 0.48037 0.05056 0.54604 0.0
C600 C 0.49392 0.06168 0.56642 0.0
C601 C 0.48219 0.01323 0.5178 0.0
C602 C 0.48656 0.02788 0.49786 0.0
C603 C 0.4645 0.98661 0.5172 0.0
C604 C 0.45652 0.97073 0.53786 0.0
C605 C 0.42953 0.98131 0.5552 0.0
C606 C 0.42247 0.96637 0.5747 0.0
C607 C 0.44196 0.94071 0.57701 0.0
C608 C 0.46846 0.92992 0.55978 0.0
C609 C 0.47567 0.9448 0.54025 0.0
H610 H 0.43646 0.92917 0.59212 0.0
H611 H 0.50467 0.07382 0.40255 0.0
H612 H 0.4891 0.41027 0.06771 0.0
H613 H 0.46993 0.43028 0.03163 0.0
H614 H 0.55287 0.49976 0.04702 0.0
H615 H 0.57207 0.47993 0.08327 0.0
H616 H 0.46908 0.51416 0.03106 0.0
H617 H 0.58978 0.45388 0.01003 0.0
H618 H 0.63021 0.4102 0.00785 0.0
H619 H 0.51703 0.37515 0.97308 0.0
H620 H 0.47563 0.41855 0.97532 0.0
H621 H 0.4827 0.57162 0.92252 0.0
H622 H 0.49633 0.5519 0.95927 0.0
H623 H 0.4151 0.48256 0.94143 0.0
H624 H 0.40163 0.50206 0.90445 0.0
H625 H 0.49601 0.46769 0.9588 0.0
H626 H 0.37591 0.52826 0.97896 0.0
H627 H 0.33543 0.57192 0.98111 0.0
H628 H 0.44699 0.60642 0.01748 0.0
H629 H 0.48845 0.56305 0.01528 0.0
C630 C 0.50361 0.4297 0.06335 0.0
C631 C 0.53217 0.44351 0.07833 0.0
C632 C 0.49267 0.44108 0.04271 0.0
C633 C 0.51015 0.46644 0.03662 0.0
C634 C 0.539 0.48017 0.05143 0.0
C635 C 0.55012 0.46875 0.07207 0.0
C636 C 0.49733 0.47891 0.01502 0.0
C637 C 0.4755 0.50419 0.01522 0.0
C638 C 0.50459 0.46551 -0.00556 0.0
C639 C 0.52942 0.43939 -0.00695 0.0
C640 C 0.57335 0.43679 0.00209 0.0
C641 C 0.59647 0.4121 0.00081 0.0
C642 C 0.57615 0.38989 0.99039 0.0
C643 C 0.5327 0.39236 0.98117 0.0
C644 C 0.5094 0.41701 0.98243 0.0
C645 C 0.46718 0.55234 0.9265 0.0
C646 C 0.44113 0.53837 0.91056 0.0
C647 C 0.47491 0.54114 0.94756 0.0
C648 C 0.45657 0.51581 0.95312 0.0
C649 C 0.42958 0.50212 0.93745 0.0
C650 C 0.42175 0.51335 0.91638 0.0
C651 C 0.46782 0.503 0.97481 0.0
C652 C 0.48941 0.47764 0.97463 0.0
C653 C 0.46031 0.51633 -0.0046 0.0
C654 C 0.43547 0.54246 -0.00323 0.0
C655 C 0.39199 0.54521 0.98725 0.0
C656 C 0.36883 0.5699 0.98851 0.0
C657 C 0.38867 0.59195 -0.00063 0.0
C658 C 0.43168 0.58933 0.00905 0.0
C659 C 0.45501 0.56469 0.00782 0.0
H660 H 0.37068 0.61104 0.00034 0.0
H661 H 0.59412 0.37079 0.98941 0.0
H662 H 0.0741 0.97399 0.90345 0.0
H663 H 0.05538 0.99125 0.94052 0.0
H664 H 0.97904 0.91867 0.95444 0.0
H665 H -0.00305 0.90145 0.91714 0.0
H666 H 0.93119 0.96252 0.96532 0.0
H667 H 0.08184 0.93051 0.97961 0.0
H668 H 0.16426 0.92542 0.97323 0.0
H669 H 0.18249 0.01101 0.98181 0.0
H670 H 0.10005 0.01667 0.98793 0.0
H671 H 0.90227 0.99398 0.0813 0.0
H672 H 0.92032 0.97271 0.04546 0.0
H673 H -0.00253 0.04318 0.02625 0.0
H674 H 0.98017 0.06437 0.0621 0.0
H675 H 0.04488 -0.00235 0.01911 0.0
H676 H 0.89352 0.02964 0.00322 0.0
H677 H 0.81105 0.03453 0.00959 0.0
H678 H 0.79438 0.94845 0.00424 0.0
H679 H 0.87689 0.94301 -0.00186 0.0
C680 C 0.05382 0.96153 0.91449 0.0
C681 C 0.037 0.93636 0.90737 0.0
C682 C 0.04324 0.97139 0.93571 0.0
C683 C 0.01606 0.95616 0.95032 0.0
C684 C 4e-05 0.93075 0.94343 0.0
C685 C 0.01048 0.92091 0.92215 0.0
C686 C 0.0026 0.96739 0.97232 0.0
C687 C 0.95607 0.96978 0.97726 0.0
C688 C 0.03504 0.97738 0.98767 0.0
C689 C 0.08468 0.97404 0.98404 0.0
C690 C 0.10336 0.94828 0.97997 0.0
C691 C 0.1501 0.94529 0.97643 0.0
C692 C 0.17858 0.96789 0.97706 0.0
C693 C 0.16039 0.99352 0.9813 0.0
C694 C 0.11366 -0.00337 0.98483 0.0
C695 C 0.92258 0.00508 0.06932 0.0
C696 C 0.93986 0.03084 0.07453 0.0
C697 C 0.93282 0.99291 0.04884 0.0
C698 C 0.96017 0.0064 0.03317 0.0
C699 C 0.97646 0.03238 0.03814 0.0
C700 C 0.96636 0.04451 0.0586 0.0
C701 C 0.97351 0.99308 0.01197 0.0
C702 C 0.02003 0.99026 0.00721 0.0
C703 C 0.94107 0.98266 -0.00318 0.0
C704 C 0.89145 0.9859 0.00046 0.0
C705 C 0.87233 0.01174 0.00359 0.0
C706 C 0.82556 0.01461 0.00711 0.0
C707 C 0.79751 0.99181 0.00738 0.0
C708 C 0.81616 0.96609 0.00407 0.0
C709 C 0.86291 0.9631 0.00056 0.0
H710 H 0.76131 0.99408 0.01011 0.0
H711 H 0.21476 0.96553 0.97432 0.0
H712 H 0.13392 0.64866 0.36354 0.0
H713 H 0.18683 0.68544 0.37178 0.0
H714 H 0.14838 0.7253 0.31056 0.0
H715 H 0.09499 0.6889 0.30235 0.0
H716 H 0.26008 0.69976 0.3489 0.0
H717 H 0.15914 0.7927 0.31563 0.0
H718 H 0.07974 0.8087 0.31375 0.0
H719 H 0.04554 0.75992 0.37062 0.0
H720 H 0.12485 0.74391 0.37305 0.0
H721 H 0.39927 0.80703 0.31144 0.0
H722 H 0.34518 0.77035 0.31742 0.0
H723 H 0.28762 0.8134 0.37341 0.0
H724 H 0.34129 0.8504 0.3674 0.0
H725 H 0.22279 0.79763 0.34559 0.0
H726 H 0.34792 0.75541 0.3817 0.0
H727 H 0.42685 0.73947 0.38631 0.0
H728 H 0.4118 0.6871 0.32958 0.0
H729 H 0.33296 0.70301 0.32442 0.0
C730 C 0.13617 0.66546 0.35199 0.0
C731 C 0.11022 0.66579 0.33225 0.0
C732 C 0.16658 0.68641 0.35669 0.0
C733 C 0.17145 0.70817 0.34185 0.0
C734 C 0.14472 0.70892 0.32244 0.0
C735 C 0.11427 0.68802 0.31773 0.0
C736 C 0.20639 0.72926 0.34584 0.0
C737 C 0.2519 0.72117 0.34834 0.0
C738 C 0.19562 0.75718 0.34557 0.0
C739 C 0.14791 0.76696 0.34441 0.0
C740 C 0.13474 0.78549 0.32781 0.0
C741 C 0.08973 0.79454 0.32663 0.0
C742 C 0.05759 0.78528 0.34202 0.0
C743 C 0.07043 0.767 0.35866 0.0
C744 C 0.1154 0.75791 0.35993 0.0
C745 C 0.37565 0.80855 0.32527 0.0
C746 C 0.37449 0.83176 0.33886 0.0
C747 C 0.34481 0.78748 0.32872 0.0
C748 C 0.31242 0.78909 0.34591 0.0
C749 C 0.31228 0.81176 0.36002 0.0
C750 C 0.34312 0.83285 0.3566 0.0
C751 C 0.2766 0.76812 0.34795 0.0
C752 C 0.23092 0.77623 0.34649 0.0
C753 C 0.28716 0.74024 0.34955 0.0
C754 C 0.33458 0.73055 0.35259 0.0
C755 C 0.36153 0.74064 0.3701 0.0
C756 C 0.40625 0.73158 0.37283 0.0
C757 C 0.42435 0.71232 0.35823 0.0
C758 C 0.39774 0.70203 0.34088 0.0
C759 C 0.353 0.71103 0.33807 0.0
H760 H 0.45898 0.70533 0.36037 0.0
H761 H 0.02276 0.79229 0.34106 0.0
H762 H 0.89837 0.18167 0.16825 0.0
H763 H 0.84117 0.21671 0.16228 0.0
H764 H 0.77758 0.16772 0.11157 0.0
H765 H 0.83507 0.13254 0.11722 0.0
H766 H 0.7736 0.22216 0.10132 0.0
H767 H 0.73624 0.164 0.16162 0.0
H768 H 0.74944 0.13851 0.19638 0.0
H769 H 0.77121 0.21287 0.23192 0.0
H770 H 0.75898 0.23881 0.19723 0.0
H771 H 0.562 0.29105 0.16194 0.0
H772 H 0.6112 0.25229 0.15413 0.0
H773 H 0.70679 0.30505 0.12102 0.0
H774 H 0.65655 0.34352 0.12777 0.0
H775 H 0.68775 0.2434 0.17051 0.0
H776 H 0.777 0.27162 0.08653 0.0
H777 H 0.75729 0.29252 0.05042 0.0
H778 H 0.61738 0.2704 0.05967 0.0
H779 H 0.63632 0.24905 0.09568 0.0
C780 C 0.87281 0.1785 0.15551 0.0
C781 C 0.87089 0.15409 0.14347 0.0
C782 C 0.8401 0.19856 0.15214 0.0
C783 C 0.80469 0.19454 0.1368 0.0
C784 C 0.80455 0.17113 0.12356 0.0
C785 C 0.8374 0.15103 0.12687 0.0
C786 C 0.76569 0.21353 0.13631 0.0
C787 C 0.75468 0.2269 0.11638 0.0
C788 C 0.73996 0.21879 0.15579 0.0
C789 C 0.74709 0.20334 0.17677 0.0
C790 C 0.74419 0.17491 0.17681 0.0
C791 C 0.75145 0.16038 0.19651 0.0
C792 C 0.76121 0.17406 0.21635 0.0
C793 C 0.76368 0.2023 0.21653 0.0
C794 C 0.75658 0.21694 0.19685 0.0
C795 C 0.59301 0.29423 0.15254 0.0
C796 C 0.60552 0.32029 0.14553 0.0
C797 C 0.62119 0.27208 0.14812 0.0
C798 C 0.66282 0.27562 0.13695 0.0
C799 C 0.6745 0.30155 0.12923 0.0
C800 C 0.64583 0.32362 0.13321 0.0
C801 C 0.69602 0.25294 0.13558 0.0
C802 C 0.70613 0.23874 0.15528 0.0
C803 C 0.71972 0.24634 0.11567 0.0
C804 C 0.70807 0.25893 0.09392 0.0
C805 C 0.74207 0.2711 0.08082 0.0
C806 C 0.73102 0.28305 0.06037 0.0
C807 C 0.6861 0.28285 0.05278 0.0
C808 C 0.65214 0.27063 0.0656 0.0
C809 C 0.663 0.25864 0.08605 0.0
H810 H 0.67761 0.29213 0.03696 0.0
H811 H 0.76678 0.16277 0.23159 0.0
H812 H 0.58326 0.1951 0.67141 0.0
H813 H 0.63613 0.23197 0.66378 0.0
H814 H 0.7117 0.1802 0.61903 0.0
H815 H 0.65792 0.14349 0.62603 0.0
H816 H 0.71997 0.2328 0.67491 0.0
H817 H 0.77378 0.21821 0.5823 0.0
H818 H 0.73974 0.20412 0.54651 0.0
H819 H 0.60766 0.22804 0.57001 0.0
H820 H 0.64096 0.24261 0.60581 0.0
H821 H 0.92398 0.30128 0.66201 0.0
H822 H 0.8692 0.26469 0.65689 0.0
H823 H 0.7846 0.31738 0.61724 0.0
H824 H 0.83981 0.35387 0.62173 0.0
H825 H 0.77876 0.26607 0.60228 0.0
H826 H 0.76603 0.31207 0.67263 0.0
H827 H 0.79414 0.33023 0.70841 0.0
H828 H 0.83129 0.25011 0.72942 0.0
H829 H 0.80396 0.23153 0.69361 0.0
C830 C 0.6106 0.19173 0.6596 0.0
C831 C 0.61658 0.16634 0.64944 0.0
C832 C 0.64088 0.21281 0.65528 0.0
C833 C 0.67804 0.2089 0.64088 0.0
C834 C 0.68298 0.18389 0.62996 0.0
C835 C 0.65226 0.16287 0.63403 0.0
C836 C 0.71374 0.23005 0.63911 0.0
C837 C 0.73262 0.24005 0.65898 0.0
C838 C 0.7302 0.23975 0.61837 0.0
C839 C 0.70985 0.23124 0.59683 0.0
C840 C 0.7375 0.22055 0.5798 0.0
C841 C 0.71832 0.21246 0.55952 0.0
C842 C 0.67155 0.2151 0.55602 0.0
C843 C 0.64386 0.22591 0.57278 0.0
C844 C 0.66286 0.23404 0.59308 0.0
C845 C 0.89422 0.30493 0.65179 0.0
C846 C 0.88588 0.33063 0.64259 0.0
C847 C 0.86291 0.284 0.64891 0.0
C848 C 0.82232 0.28852 0.63713 0.0
C849 C 0.81558 0.31348 0.62648 0.0
C850 C 0.84716 0.33436 0.62914 0.0
C851 C 0.78492 0.26843 0.63805 0.0
C852 C 0.76593 0.25866 0.61812 0.0
C853 C 0.76731 0.25939 0.65874 0.0
C854 C 0.78335 0.27046 0.68037 0.0
C855 C 0.78045 0.29836 0.68483 0.0
C856 C 0.79622 0.30872 0.70511 0.0
C857 C 0.81459 0.29134 0.72115 0.0
C858 C 0.81711 0.26355 0.71697 0.0
C859 C 0.80147 0.25309 0.69669 0.0
H860 H 0.82679 0.2994 0.73685 0.0
H861 H 0.65677 0.20882 0.54031 0.0
H862 H 0.43333 0.68619 0.81663 0.0
H863 H 0.38373 0.72556 0.82115 0.0
H864 H 0.28716 0.67642 0.85723 0.0
H865 H 0.33758 0.63746 0.8537 0.0
H866 H 0.30707 0.73346 0.8042 0.0
H867 H 0.21801 0.71299 0.88976 0.0
H868 H 0.23782 0.69533 0.92701 0.0
H869 H 0.37782 0.71621 0.91624 0.0
H870 H 0.35879 0.73433 0.87905 0.0
H871 H 0.09777 0.79883 0.80344 0.0
H872 H 0.15586 0.76419 0.8092 0.0
H873 H 0.21652 0.81262 0.86117 0.0
H874 H 0.15772 0.84707 0.85595 0.0
H875 H 0.2219 0.76103 0.87205 0.0
H876 H 0.26017 0.81375 0.80854 0.0
H877 H 0.24807 0.8363 0.77231 0.0
H878 H 0.22473 0.75928 0.74115 0.0
H879 H 0.23608 0.73628 0.77729 0.0
C880 C 0.40195 0.68396 0.82593 0.0
C881 C 0.38933 0.65873 0.83478 0.0
C882 C 0.37354 0.70645 0.82845 0.0
C883 C 0.33165 0.7041 0.8396 0.0
C884 C 0.31966 0.67905 0.849 0.0
C885 C 0.34847 0.65669 0.84686 0.0
C886 C 0.29874 0.727 0.83959 0.0
C887 C 0.28876 0.73953 0.81912 0.0
C888 C 0.27529 0.73546 0.85907 0.0
C889 C 0.28698 0.72481 0.88152 0.0
C890 C 0.25299 0.71393 0.89537 0.0
C891 C 0.26409 0.70381 0.91647 0.0
C892 C 0.30907 0.70457 0.92396 0.0
C893 C 0.34302 0.71554 0.91039 0.0
C894 C 0.3321 0.7257 0.88928 0.0
C895 C 0.12308 0.80197 0.81631 0.0
C896 C 0.12338 0.82585 0.82907 0.0
C897 C 0.15639 0.7822 0.81952 0.0
C898 C 0.19115 0.7861 0.83527 0.0
C899 C 0.19018 0.80924 0.84885 0.0
C900 C 0.15654 0.82893 0.84581 0.0
C901 C 0.22971 0.76675 0.83663 0.0
C902 C 0.24062 0.75497 0.85726 0.0
C903 C 0.25528 0.75962 0.81747 0.0
C904 C 0.2486 0.77332 0.79566 0.0
C905 C 0.25215 0.80164 0.79399 0.0
C906 C 0.24546 0.8145 0.77347 0.0
C907 C 0.23553 0.79924 0.75445 0.0
C908 C 0.23238 0.77107 0.75591 0.0
C909 C 0.23898 0.75811 0.7764 0.0
H910 H 0.23037 0.80923 0.73858 0.0
H911 H 0.31759 0.69671 0.94029 0.0
loop_
_geom_bond_atom_site_label_1
_geom_bond_atom_site_label_2
_geom_bond_distance
_geom_bond_site_symmetry_2
_ccdc_geom_bond_type
C0 O1 1.306 . S
C0 O3 1.160 . S
O1 C0 1.306 . S
O1 Cd2 2.228 . S
Cd2 O1 2.228 . S
Cd2 O6 2.273 . S
Cd2 O10 2.277 . S
O3 C0 1.160 . S
O3 Cd4 2.203 . S
Cd4 O3 2.203 . S
Cd4 O6 2.411 . S
Cd4 O7 2.333 . S
Cd4 O8 2.352 . S
Cd4 O12 2.277 . S
Cd4 O13 2.356 . S
C5 O10 1.209 . S
C5 O12 1.226 . S
O6 Cd2 2.273 . S
O6 Cd4 2.411 . S
O6 C9 1.320 . S
O7 Cd4 2.333 . S
O7 C9 1.214 . S
O8 Cd4 2.352 . S
O8 C11 1.258 . S
C9 O6 1.320 . S
C9 O7 1.214 . S
O10 Cd2 2.277 . S
O10 C5 1.209 . S
C11 O8 1.258 . S
C11 O13 1.282 . S
O12 Cd4 2.277 . S
O12 C5 1.226 . S
O13 Cd4 2.356 . S
O13 C11 1.282 . S
C14 O15 1.306 . S
C14 O17 1.160 . S
O15 C14 1.306 . S
O15 Cd16 2.228 . S
Cd16 O15 2.228 . S
Cd16 O20 2.273 . S
Cd16 O24 2.277 . S
O17 C14 1.160 . S
O17 Cd18 2.203 . S
Cd18 O17 2.203 . S
Cd18 O20 2.411 . S
Cd18 O21 2.333 . S
Cd18 O22 2.352 . S
Cd18 O26 2.277 . S
Cd18 O27 2.356 . S
C19 O24 1.209 . S
C19 O26 1.226 . S
O20 Cd16 2.273 . S
O20 Cd18 2.411 . S
O20 C23 1.320 . S
O21 Cd18 2.333 . S
O21 C23 1.214 . S
O22 Cd18 2.352 . S
O22 C25 1.258 . S
C23 O20 1.320 . S
C23 O21 1.214 . S
O24 Cd16 2.277 . S
O24 C19 1.209 . S
C25 O22 1.258 . S
C25 O27 1.282 . S
O26 Cd18 2.277 . S
O26 C19 1.226 . S
O27 Cd18 2.356 . S
O27 C25 1.282 . S
C28 O29 1.306 . S
C28 O31 1.160 . S
O29 C28 1.306 . S
O29 Cd30 2.228 . S
Cd30 O29 2.228 . S
Cd30 O34 2.273 . S
Cd30 O38 2.277 . S
O31 C28 1.160 . S
O31 Cd32 2.203 . S
Cd32 O31 2.203 . S
Cd32 O34 2.411 . S
Cd32 O35 2.333 . S
Cd32 O36 2.352 . S
Cd32 O40 2.277 . S
Cd32 O41 2.356 . S
C33 O38 1.209 . S
C33 O40 1.226 . S
O34 Cd30 2.273 . S
O34 Cd32 2.411 . S
O34 C37 1.320 . S
O35 Cd32 2.333 . S
O35 C37 1.214 . S
O36 Cd32 2.352 . S
O36 C39 1.258 . S
C37 O34 1.320 . S
C37 O35 1.214 . S
O38 Cd30 2.277 . S
O38 C33 1.209 . S
C39 O36 1.258 . S
C39 O41 1.282 . S
O40 Cd32 2.277 . S
O40 C33 1.226 . S
O41 Cd32 2.356 . S
O41 C39 1.282 . S
C42 O43 1.306 . S
C42 O45 1.160 . S
O43 C42 1.306 . S
O43 Cd44 2.228 . S
Cd44 O43 2.228 . S
Cd44 O48 2.273 . S
Cd44 O52 2.277 . S
O45 C42 1.160 . S
O45 Cd46 2.203 . S
Cd46 O45 2.203 . S
Cd46 O48 2.411 . S
Cd46 O49 2.333 . S
Cd46 O50 2.352 . S
Cd46 O54 2.277 . S
Cd46 O55 2.356 . S
C47 O52 1.209 . S
C47 O54 1.226 . S
O48 Cd44 2.273 . S
O48 Cd46 2.411 . S
O48 C51 1.320 . S
O49 Cd46 2.333 . S
O49 C51 1.214 . S
O50 Cd46 2.352 . S
O50 C53 1.258 . S
C51 O48 1.320 . S
C51 O49 1.214 . S
O52 Cd44 2.277 . S
O52 C47 1.209 . S
C53 O50 1.258 . S
C53 O55 1.282 . S
O54 Cd46 2.277 . S
O54 C47 1.226 . S
O55 Cd46 2.356 . S
O55 C53 1.282 . S
C56 O57 1.306 . S
C56 O59 1.160 . S
O57 C56 1.306 . S
O57 Cd58 2.228 . S
Cd58 O57 2.228 . S
Cd58 O62 2.273 . S
Cd58 O66 2.277 . S
O59 C56 1.160 . S
O59 Cd60 2.203 . S
Cd60 O59 2.203 . S
Cd60 O62 2.411 . S
Cd60 O63 2.333 . S
Cd60 O64 2.352 . S
Cd60 O68 2.277 . S
Cd60 O69 2.356 . S
C61 O66 1.209 . S
C61 O68 1.226 . S
O62 Cd58 2.273 . S
O62 Cd60 2.411 . S
O62 C65 1.320 . S
O63 Cd60 2.333 . S
O63 C65 1.214 . S
O64 Cd60 2.352 . S
O64 C67 1.258 . S
C65 O62 1.320 . S
C65 O63 1.214 . S
O66 Cd58 2.277 . S
O66 C61 1.209 . S
C67 O64 1.258 . S
C67 O69 1.282 . S
O68 Cd60 2.277 . S
O68 C61 1.226 . S
O69 Cd60 2.356 . S
O69 C67 1.282 . S
C70 O71 1.306 . S
C70 O73 1.160 . S
O71 C70 1.306 . S
O71 Cd72 2.228 . S
Cd72 O71 2.228 . S
Cd72 O76 2.273 . S
Cd72 O80 2.277 . S
O73 C70 1.160 . S
O73 Cd74 2.203 . S
Cd74 O73 2.203 . S
Cd74 O76 2.411 . S
Cd74 O77 2.333 . S
Cd74 O78 2.352 . S
Cd74 O82 2.277 . S
Cd74 O83 2.356 . S
C75 O80 1.209 . S
C75 O82 1.226 . S
O76 Cd72 2.273 . S
O76 Cd74 2.411 . S
O76 C79 1.320 . S
O77 Cd74 2.333 . S
O77 C79 1.214 . S
O78 Cd74 2.352 . S
O78 C81 1.258 . S
C79 O76 1.320 . S
C79 O77 1.214 . S
O80 Cd72 2.277 . S
O80 C75 1.209 . S
C81 O78 1.258 . S
C81 O83 1.282 . S
O82 Cd74 2.277 . S
O82 C75 1.226 . S
O83 Cd74 2.356 . S
O83 C81 1.282 . S
C84 O85 1.306 . S
C84 O87 1.160 . S
O85 C84 1.306 . S
O85 Cd86 2.228 . S
Cd86 O85 2.228 . S
Cd86 O90 2.273 . S
Cd86 O94 2.277 . S
O87 C84 1.160 . S
O87 Cd88 2.203 . S
Cd88 O87 2.203 . S
Cd88 O90 2.411 . S
Cd88 O91 2.333 . S
Cd88 O92 2.352 . S
Cd88 O96 2.277 . S
Cd88 O97 2.356 . S
C89 O94 1.209 . S
C89 O96 1.226 . S
O90 Cd86 2.273 . S
O90 Cd88 2.411 . S
O90 C93 1.320 . S
O91 Cd88 2.333 . S
O91 C93 1.214 . S
O92 Cd88 2.352 . S
O92 C95 1.258 . S
C93 O90 1.320 . S
C93 O91 1.214 . S
O94 Cd86 2.277 . S
O94 C89 1.209 . S
C95 O92 1.258 . S
C95 O97 1.282 . S
O96 Cd88 2.277 . S
O96 C89 1.226 . S
O97 Cd88 2.356 . S
O97 C95 1.282 . S
C98 O99 1.306 . S
C98 O101 1.160 . S
O99 C98 1.306 . S
O99 Cd100 2.228 . S
Cd100 O99 2.228 . S
Cd100 O104 2.273 . S
Cd100 O108 2.277 . S
O101 C98 1.160 . S
O101 Cd102 2.203 . S
Cd102 O101 2.203 . S
Cd102 O104 2.411 . S
Cd102 O105 2.333 . S
Cd102 O106 2.352 . S
Cd102 O110 2.277 . S
Cd102 O111 2.356 . S
C103 O108 1.209 . S
C103 O110 1.226 . S
O104 Cd100 2.273 . S
O104 Cd102 2.411 . S
O104 C107 1.320 . S
O105 Cd102 2.333 . S
O105 C107 1.214 . S
O106 Cd102 2.352 . S
O106 C109 1.258 . S
C107 O104 1.320 . S
C107 O105 1.214 . S
O108 Cd100 2.277 . S
O108 C103 1.209 . S
C109 O106 1.258 . S
C109 O111 1.282 . S
O110 Cd102 2.277 . S
O110 C103 1.226 . S
O111 Cd102 2.356 . S
O111 C109 1.282 . S
H112 C130 0.951 . S
H113 C132 0.951 . S
H114 C134 0.950 . S
H115 C135 0.950 . S
H116 C137 0.950 . S
H117 C140 0.950 . S
H118 C141 0.950 . S
H119 C143 0.950 . S
H120 C144 0.950 . S
H121 C145 0.951 . S
H122 C147 0.951 . S
H123 C149 0.950 . S
H124 C150 0.950 . S
H125 C152 0.950 . S
H126 C155 0.950 . S
H127 C156 0.950 . S
H128 C158 0.950 . S
H129 C159 0.950 . S
C130 H112 0.951 . S
C130 C131 1.366 . S
C130 C132 1.388 . S
C131 C130 1.366 . S
C131 C135 1.385 . S
C132 H113 0.951 . S
C132 C130 1.388 . S
C132 C133 1.366 . S
C133 C132 1.366 . S
C133 C134 1.414 . S
C133 C136 1.499 . S
C134 H114 0.950 . S
C134 C133 1.414 . S
C134 C135 1.374 . S
C135 H115 0.950 . S
C135 C131 1.385 . S
C135 C134 1.374 . S
C136 C133 1.499 . S
C136 C137 1.373 . S
C136 C138 1.389 . S
C137 H116 0.950 . S
C137 C136 1.373 . S
C137 C153 1.377 . S
C138 C136 1.389 . S
C138 C139 1.524 . S
C138 C152 1.377 . S
C139 C138 1.524 . S
C139 C140 1.397 . S
C139 C144 1.363 . S
C140 H117 0.950 . S
C140 C139 1.397 . S
C140 C141 1.334 . S
C141 H118 0.950 . S
C141 C140 1.334 . S
C141 C142 1.287 . S
C142 C141 1.287 . S
C142 C143 1.524 . S
C142 H161 0.913 . S
C143 H119 0.950 . S
C143 C142 1.524 . S
C143 C144 1.415 . S
C144 H120 0.950 . S
C144 C139 1.363 . S
C144 C143 1.415 . S
C145 H121 0.951 . S
C145 C146 1.366 . S
C145 C147 1.388 . S
C146 C145 1.366 . S
C146 C150 1.385 . S
C147 H122 0.951 . S
C147 C145 1.388 . S
C147 C148 1.366 . S
C148 C147 1.366 . S
C148 C149 1.414 . S
C148 C151 1.499 . S
C149 H123 0.950 . S
C149 C148 1.414 . S
C149 C150 1.374 . S
C150 H124 0.950 . S
C150 C146 1.385 . S
C150 C149 1.374 . S
C151 C148 1.499 . S
C151 C152 1.373 . S
C151 C153 1.389 . S
C152 H125 0.950 . S
C152 C138 1.377 . S
C152 C151 1.373 . S
C153 C137 1.377 . S
C153 C151 1.389 . S
C153 C154 1.524 . S
C154 C153 1.524 . S
C154 C155 1.397 . S
C154 C159 1.363 . S
C155 H126 0.950 . S
C155 C154 1.397 . S
C155 C156 1.334 . S
C156 H127 0.950 . S
C156 C155 1.334 . S
C156 C157 1.287 . S
C157 C156 1.287 . S
C157 C158 1.524 . S
C157 H160 0.999 . S
C158 H128 0.950 . S
C158 C157 1.524 . S
C158 C159 1.415 . S
C159 H129 0.950 . S
C159 C154 1.363 . S
C159 C158 1.415 . S
H160 C157 0.999 . S
H161 C142 0.913 . S
H162 C180 0.951 . S
H163 C182 0.951 . S
H164 C184 0.948 1_655 S
H165 C185 0.950 . S
H166 C187 0.950 . S
H167 C190 0.950 . S
H168 C191 0.950 . S
H169 C193 0.950 . S
H170 C194 0.950 . S
H171 C195 0.951 . S
H172 C197 0.951 . S
H173 C199 0.950 . S
H174 C200 0.950 . S
H175 C202 0.950 . S
H176 C205 0.950 . S
H177 C206 0.950 . S
H178 C208 0.950 . S
H179 C209 0.950 . S
C180 H162 0.951 . S
C180 C181 1.366 1_455 S
C180 C182 1.388 . S
C181 C180 1.366 1_655 S
C181 C185 1.385 . S
C182 H163 0.951 . S
C182 C180 1.388 . S
C182 C183 1.366 . S
C183 C182 1.366 . S
C183 C184 1.423 . S
C183 C186 1.499 . S
C184 H164 0.948 1_455 S
C184 C183 1.423 . S
C184 C185 1.367 1_455 S
C185 H165 0.950 . S
C185 C181 1.385 . S
C185 C184 1.367 1_655 S
C186 C183 1.499 . S
C186 C187 1.373 . S
C186 C188 1.389 1_545 S
C187 H166 0.950 . S
C187 C186 1.373 . S
C187 C203 1.377 . S
C188 C186 1.389 1_565 S
C188 C189 1.524 . S
C188 C202 1.377 . S
C189 C188 1.524 . S
C189 C190 1.397 . S
C189 C194 1.363 . S
C190 H167 0.950 . S
C190 C189 1.397 . S
C190 C191 1.334 . S
C191 H168 0.950 . S
C191 C190 1.334 . S
C191 C192 1.287 . S
C192 C191 1.287 . S
C192 C193 1.524 . S
C192 H211 0.913 . S
C193 H169 0.950 . S
C193 C192 1.524 . S
C193 C194 1.415 . S
C194 H170 0.950 . S
C194 C189 1.363 . S
C194 C193 1.415 . S
C195 H171 0.951 . S
C195 C196 1.366 . S
C195 C197 1.388 . S
C196 C195 1.366 . S
C196 C200 1.385 . S
C197 H172 0.951 . S
C197 C195 1.388 . S
C197 C198 1.366 . S
C198 C197 1.366 . S
C198 C199 1.414 . S
C198 C201 1.499 . S
C199 H173 0.950 . S
C199 C198 1.414 . S
C199 C200 1.374 . S
C200 H174 0.950 . S
C200 C196 1.385 . S
C200 C199 1.374 . S
C201 C198 1.499 . S
C201 C202 1.373 . S
C201 C203 1.389 1_565 S
C202 H175 0.950 . S
C202 C188 1.377 . S
C202 C201 1.373 . S
C203 C187 1.377 . S
C203 C201 1.389 1_545 S
C203 C204 1.524 . S
C204 C203 1.524 . S
C204 C205 1.397 . S
C204 C209 1.363 . S
C205 H176 0.950 . S
C205 C204 1.397 . S
C205 C206 1.334 . S
C206 H177 0.950 . S
C206 C205 1.334 . S
C206 C207 1.287 . S
C207 C206 1.287 . S
C207 C208 1.524 . S
C207 H210 0.999 . S
C208 H178 0.950 . S
C208 C207 1.524 . S
C208 C209 1.415 . S
C209 H179 0.950 . S
C209 C204 1.363 . S
C209 C208 1.415 . S
H210 C207 0.999 . S
H211 C192 0.913 . S
H212 C230 0.951 . S
H213 C232 0.951 . S
H214 C234 0.950 . S
H215 C235 0.950 . S
H216 C237 0.950 . S
H217 C240 0.950 . S
H218 C241 0.950 . S
H219 C243 0.950 . S
H220 C244 0.950 . S
H221 C245 0.951 . S
H222 C247 0.951 . S
H223 C249 0.949 1_455 S
H224 C250 0.950 . S
H225 C252 0.950 . S
H226 C255 0.950 . S
H227 C256 0.950 . S
H228 C258 0.950 . S
H229 C259 0.950 . S
C230 H212 0.951 . S
C230 C231 1.366 . S
C230 C232 1.388 . S
C231 C230 1.366 . S
C231 C235 1.385 . S
C232 H213 0.951 . S
C232 C230 1.388 . S
C232 C233 1.366 . S
C233 C232 1.366 . S
C233 C234 1.414 . S
C233 C236 1.499 . S
C234 H214 0.950 . S
C234 C233 1.414 . S
C234 C235 1.374 . S
C235 H215 0.950 . S
C235 C231 1.385 . S
C235 C234 1.374 . S
C236 C233 1.499 . S
C236 C237 1.373 . S
C236 C238 1.389 . S
C237 H216 0.950 . S
C237 C236 1.373 . S
C237 C253 1.377 . S
C238 C236 1.389 . S
C238 C239 1.524 . S
C238 C252 1.377 . S
C239 C238 1.524 . S
C239 C240 1.397 . S
C239 C244 1.363 . S
C240 H217 0.950 . S
C240 C239 1.397 . S
C240 C241 1.334 . S
C241 H218 0.950 . S
C241 C240 1.334 . S
C241 C242 1.287 . S
C242 C241 1.287 . S
C242 C243 1.524 . S
C242 H261 0.913 . S
C243 H219 0.950 . S
C243 C242 1.524 . S
C243 C244 1.415 . S
C244 H220 0.950 . S
C244 C239 1.363 . S
C244 C243 1.415 . S
C245 H221 0.951 . S
C245 C246 1.366 1_655 S
C245 C247 1.388 . S
C246 C245 1.366 1_455 S
C246 C250 1.385 . S
C247 H222 0.951 . S
C247 C245 1.388 . S
C247 C248 1.366 . S
C248 C247 1.366 . S
C248 C249 1.414 . S
C248 C251 1.499 . S
C249 H223 0.949 1_655 S
C249 C248 1.414 . S
C249 C250 1.374 1_655 S
C250 H224 0.950 . S
C250 C246 1.385 . S
C250 C249 1.374 1_455 S
C251 C248 1.499 . S
C251 C252 1.373 . S
C251 C253 1.389 . S
C252 H225 0.950 . S
C252 C238 1.377 . S
C252 C251 1.373 . S
C253 C237 1.377 . S
C253 C251 1.389 . S
C253 C254 1.524 . S
C254 C253 1.524 . S
C254 C255 1.397 . S
C254 C259 1.363 . S
C255 H226 0.950 . S
C255 C254 1.397 . S
C255 C256 1.334 . S
C256 H227 0.950 . S
C256 C255 1.334 . S
C256 C257 1.287 . S
C257 C256 1.287 . S
C257 C258 1.524 . S
C257 H260 0.999 . S
C258 H228 0.950 . S
C258 C257 1.524 . S
C258 C259 1.415 . S
C259 H229 0.950 . S
C259 C254 1.363 . S
C259 C258 1.415 . S
H260 C257 0.999 . S
H261 C242 0.913 . S
H262 C280 0.951 . S
H263 C282 0.951 . S
H264 C284 0.950 1_565 S
H265 C285 0.941 1_565 S
H266 C287 0.950 . S
H267 C290 0.950 . S
H268 C291 0.950 . S
H269 C293 0.950 . S
H270 C294 0.950 . S
H271 C295 0.951 . S
H272 C297 0.951 . S
H273 C299 0.950 1_545 S
H274 C300 0.950 . S
H275 C302 0.950 . S
H276 C305 0.950 . S
H277 C306 0.950 . S
H278 C308 0.950 . S
H279 C309 0.950 . S
C280 H262 0.951 . S
C280 C281 1.366 . S
C280 C282 1.388 . S
C281 C280 1.366 . S
C281 C285 1.385 . S
C282 H263 0.951 . S
C282 C280 1.388 . S
C282 C283 1.366 . S
C283 C282 1.366 . S
C283 C284 1.414 . S
C283 C286 1.499 . S
C284 H264 0.950 1_545 S
C284 C283 1.414 . S
C284 C285 1.374 . S
C285 H265 0.941 1_545 S
C285 C281 1.385 . S
C285 C284 1.374 . S
C286 C283 1.499 . S
C286 C287 1.373 1_545 S
C286 C288 1.389 . S
C287 H266 0.950 . S
C287 C286 1.373 1_565 S
C287 C303 1.377 . S
C288 C286 1.389 . S
C288 C289 1.524 . S
C288 C302 1.377 . S
C289 C288 1.524 . S
C289 C290 1.397 . S
C289 C294 1.363 . S
C290 H267 0.950 . S
C290 C289 1.397 . S
C290 C291 1.334 . S
C291 H268 0.950 . S
C291 C290 1.334 . S
C291 C292 1.287 . S
C292 C291 1.287 . S
C292 C293 1.524 . S
C292 H311 0.913 . S
C293 H269 0.950 . S
C293 C292 1.524 . S
C293 C294 1.415 . S
C294 H270 0.950 . S
C294 C289 1.363 . S
C294 C293 1.415 . S
C295 H271 0.951 . S
C295 C296 1.366 . S
C295 C297 1.388 . S
C296 C295 1.366 . S
C296 C300 1.385 . S
C297 H272 0.951 . S
C297 C295 1.388 . S
C297 C298 1.366 . S
C298 C297 1.366 . S
C298 C299 1.414 . S
C298 C301 1.499 . S
C299 H273 0.950 1_565 S
C299 C298 1.414 . S
C299 C300 1.374 . S
C300 H274 0.950 . S
C300 C296 1.385 . S
C300 C299 1.374 . S
C301 C298 1.499 . S
C301 C302 1.373 1_565 S
C301 C303 1.389 . S
C302 H275 0.950 . S
C302 C288 1.377 . S
C302 C301 1.373 1_545 S
C303 C287 1.377 . S
C303 C301 1.389 . S
C303 C304 1.524 . S
C304 C303 1.524 . S
C304 C305 1.397 . S
C304 C309 1.363 . S
C305 H276 0.950 . S
C305 C304 1.397 . S
C305 C306 1.334 . S
C306 H277 0.950 . S
C306 C305 1.334 . S
C306 C307 1.287 . S
C307 C306 1.287 . S
C307 C308 1.524 . S
C307 H310 0.999 . S
C308 H278 0.950 . S
C308 C307 1.524 . S
C308 C309 1.415 . S
C309 H279 0.950 . S
C309 C304 1.363 . S
C309 C308 1.415 . S
H310 C307 0.999 . S
H311 C292 0.913 . S
H312 C330 0.951 . S
H313 C332 0.951 . S
H314 C334 0.950 . S
H315 C335 0.950 . S
H316 C337 0.950 . S
H317 C340 0.950 . S
H318 C341 0.950 . S
H319 C343 0.950 . S
H320 C344 0.950 . S
H321 C345 0.951 . S
H322 C347 0.951 . S
H323 C349 0.950 . S
H324 C350 0.950 . S
H325 C352 0.950 . S
H326 C355 0.950 . S
H327 C356 0.950 . S
H328 C358 0.950 . S
H329 C359 0.950 . S
C330 H312 0.951 . S
C330 C331 1.366 . S
C330 C332 1.388 . S
C331 C330 1.366 . S
C331 C335 1.385 . S
C332 H313 0.951 . S
C332 C330 1.388 . S
C332 C333 1.366 . S
C333 C332 1.366 . S
C333 C334 1.414 . S
C333 C336 1.499 . S
C334 H314 0.950 . S
C334 C333 1.414 . S
C334 C335 1.374 . S
C335 H315 0.950 . S
C335 C331 1.385 . S
C335 C334 1.374 . S
C336 C333 1.499 . S
C336 C337 1.373 . S
C336 C338 1.389 . S
C337 H316 0.950 . S
C337 C336 1.373 . S
C337 C353 1.377 . S
C338 C336 1.389 . S
C338 C339 1.524 . S
C338 C352 1.377 . S
C339 C338 1.524 . S
C339 C340 1.397 . S
C339 C344 1.363 . S
C340 H317 0.950 . S
C340 C339 1.397 . S
C340 C341 1.334 . S
C341 H318 0.950 . S
C341 C340 1.334 . S
C341 C342 1.287 . S
C342 C341 1.287 . S
C342 C343 1.524 . S
C342 H361 0.913 . S
C343 H319 0.950 . S
C343 C342 1.524 . S
C343 C344 1.415 . S
C344 H320 0.950 . S
C344 C339 1.363 . S
C344 C343 1.415 . S
C345 H321 0.951 . S
C345 C346 1.366 . S
C345 C347 1.388 . S
C346 C345 1.366 . S
C346 C350 1.385 . S
C347 H322 0.951 . S
C347 C345 1.388 . S
C347 C348 1.366 . S
C348 C347 1.366 . S
C348 C349 1.414 . S
C348 C351 1.499 . S
C349 H323 0.950 . S
C349 C348 1.414 . S
C349 C350 1.374 . S
C350 H324 0.950 . S
C350 C346 1.385 . S
C350 C349 1.374 . S
C351 C348 1.499 . S
C351 C352 1.373 . S
C351 C353 1.389 . S
C352 H325 0.950 . S
C352 C338 1.377 . S
C352 C351 1.373 . S
C353 C337 1.377 . S
C353 C351 1.389 . S
C353 C354 1.524 . S
C354 C353 1.524 . S
C354 C355 1.397 . S
C354 C359 1.363 . S
C355 H326 0.950 . S
C355 C354 1.397 . S
C355 C356 1.334 . S
C356 H327 0.950 . S
C356 C355 1.334 . S
C356 C357 1.287 . S
C357 C356 1.287 . S
C357 C358 1.524 . S
C357 H360 0.999 . S
C358 H328 0.950 . S
C358 C357 1.524 . S
C358 C359 1.415 . S
C359 H329 0.950 . S
C359 C354 1.363 . S
C359 C358 1.415 . S
H360 C357 0.999 . S
H361 C342 0.913 . S
H362 C380 0.951 1_565 S
H363 C382 0.935 1_565 S
H364 C384 0.950 . S
H365 C385 0.950 . S
H366 C387 0.950 . S
H367 C390 0.950 . S
H368 C391 0.950 . S
H369 C393 0.950 . S
H370 C394 0.950 . S
H371 C395 0.976 . S
H372 C397 0.951 1_545 S
H373 C399 0.950 . S
H374 C400 0.950 . S
H375 C402 0.950 . S
H376 C405 0.946 1_455 S
H377 C406 0.950 . S
H378 C408 0.950 . S
H379 C409 0.950 . S
C380 H362 0.951 1_545 S
C380 C381 1.366 . S
C380 C382 1.394 . S
C381 C380 1.366 . S
C381 C385 1.385 . S
C382 H363 0.935 1_545 S
C382 C380 1.394 . S
C382 C383 1.376 . S
C383 C382 1.376 . S
C383 C384 1.414 . S
C383 C386 1.499 . S
C384 H364 0.950 . S
C384 C383 1.414 . S
C384 C385 1.374 . S
C385 H365 0.950 . S
C385 C381 1.385 . S
C385 C384 1.374 . S
C386 C383 1.499 . S
C386 C387 1.373 . S
C386 C388 1.389 1_545 S
C387 H366 0.950 . S
C387 C386 1.373 . S
C387 C403 1.377 . S
C388 C386 1.389 1_565 S
C388 C389 1.524 . S
C388 C402 1.377 . S
C389 C388 1.524 . S
C389 C390 1.397 . S
C389 C394 1.363 . S
C390 H367 0.950 . S
C390 C389 1.397 . S
C390 C391 1.334 . S
C391 H368 0.950 . S
C391 C390 1.334 . S
C391 C392 1.287 . S
C392 C391 1.287 . S
C392 C393 1.524 . S
C392 H411 0.913 . S
C393 H369 0.950 . S
C393 C392 1.524 . S
C393 C394 1.415 . S
C394 H370 0.950 . S
C394 C389 1.363 . S
C394 C393 1.415 . S
C395 H371 0.976 . S
C395 C396 1.372 . S
C395 C397 1.378 1_455 S
C396 C395 1.372 . S
C396 C400 1.385 . S
C397 H372 0.951 1_565 S
C397 C395 1.378 1_655 S
C397 C398 1.366 . S
C398 C397 1.366 . S
C398 C399 1.414 . S
C398 C401 1.499 . S
C399 H373 0.950 . S
C399 C398 1.414 . S
C399 C400 1.374 1_655 S
C400 H374 0.950 . S
C400 C396 1.385 . S
C400 C399 1.374 1_455 S
C401 C398 1.499 . S
C401 C402 1.373 . S
C401 C403 1.389 1_565 S
C402 H375 0.950 . S
C402 C388 1.377 . S
C402 C401 1.373 . S
C403 C387 1.377 . S
C403 C401 1.389 1_545 S
C403 C404 1.524 . S
C404 C403 1.524 . S
C404 C405 1.397 . S
C404 C409 1.363 . S
C405 H376 0.946 1_655 S
C405 C404 1.397 . S
C405 C406 1.334 1_655 S
C406 H377 0.950 . S
C406 C405 1.334 1_455 S
C406 C407 1.287 . S
C407 C406 1.287 . S
C407 C408 1.524 1_455 S
C407 H410 0.999 . S
C408 H378 0.950 . S
C408 C407 1.524 1_655 S
C408 C409 1.415 . S
C409 H379 0.950 . S
C409 C404 1.363 . S
C409 C408 1.415 . S
H410 C407 0.999 . S
H411 C392 0.913 . S
H412 C430 0.951 . S
H413 C432 0.951 . S
H414 C434 0.950 . S
H415 C435 0.950 . S
H416 C437 0.950 . S
H417 C440 0.950 . S
H418 C441 0.950 . S
H419 C443 0.950 . S
H420 C444 0.950 . S
H421 C445 0.951 . S
H422 C447 0.954 . S
H423 C449 0.950 . S
H424 C450 0.950 . S
H425 C452 0.950 . S
H426 C455 0.950 . S
H427 C456 0.950 . S
H428 C458 0.950 . S
H429 C459 0.950 . S
C430 H412 0.951 . S
C430 C431 1.366 . S
C430 C432 1.388 . S
C431 C430 1.366 . S
C431 C435 1.385 . S
C432 H413 0.951 . S
C432 C430 1.388 . S
C432 C433 1.366 . S
C433 C432 1.366 . S
C433 C434 1.414 . S
C433 C436 1.499 . S
C434 H414 0.950 . S
C434 C433 1.414 . S
C434 C435 1.374 . S
C435 H415 0.950 . S
C435 C431 1.385 . S
C435 C434 1.374 . S
C436 C433 1.499 . S
C436 C437 1.373 . S
C436 C438 1.389 . S
C437 H416 0.950 . S
C437 C436 1.373 . S
C437 C453 1.377 . S
C438 C436 1.389 . S
C438 C439 1.524 . S
C438 C452 1.377 . S
C439 C438 1.524 . S
C439 C440 1.397 . S
C439 C444 1.363 . S
C440 H417 0.950 . S
C440 C439 1.397 . S
C440 C441 1.334 . S
C441 H418 0.950 . S
C441 C440 1.334 . S
C441 C442 1.287 . S
C442 C441 1.287 . S
C442 C443 1.524 . S
C442 H461 0.913 . S
C443 H419 0.950 . S
C443 C442 1.524 . S
C443 C444 1.415 . S
C444 H420 0.950 . S
C444 C439 1.363 . S
C444 C443 1.415 . S
C445 H421 0.951 . S
C445 C446 1.366 . S
C445 C447 1.388 1_655 S
C446 C445 1.366 . S
C446 C450 1.385 1_655 S
C447 H422 0.954 . S
C447 C445 1.388 1_455 S
C447 C448 1.366 . S
C448 C447 1.366 . S
C448 C449 1.414 . S
C448 C451 1.499 . S
C449 H423 0.950 . S
C449 C448 1.414 . S
C449 C450 1.374 . S
C450 H424 0.950 . S
C450 C446 1.385 1_455 S
C450 C449 1.374 . S
C451 C448 1.499 . S
C451 C452 1.373 . S
C451 C453 1.389 . S
C452 H425 0.950 . S
C452 C438 1.377 . S
C452 C451 1.373 . S
C453 C437 1.377 . S
C453 C451 1.389 . S
C453 C454 1.524 . S
C454 C453 1.524 . S
C454 C455 1.397 . S
C454 C459 1.363 . S
C455 H426 0.950 . S
C455 C454 1.397 . S
C455 C456 1.334 1_455 S
C456 H427 0.950 . S
C456 C455 1.334 1_655 S
C456 C457 1.287 . S
C457 C456 1.287 . S
C457 C458 1.524 . S
C457 H460 0.999 . S
C458 H428 0.950 . S
C458 C457 1.524 . S
C458 C459 1.415 1_655 S
C459 H429 0.950 . S
C459 C454 1.363 . S
C459 C458 1.415 1_455 S
H460 C457 0.999 . S
H461 C442 0.913 . S
H462 C480 0.951 . S
H463 C482 0.951 . S
H464 C484 0.950 . S
H465 C485 0.950 1_545 S
H466 C487 0.950 . S
H467 C490 0.950 1_545 S
H468 C491 0.950 . S
H469 C493 0.950 . S
H470 C494 0.950 . S
H471 C495 0.951 . S
H472 C497 0.951 . S
H473 C499 0.922 1_565 S
H474 C500 0.950 1_565 S
H475 C502 0.950 . S
H476 C505 0.950 1_565 S
H477 C506 0.950 . S
H478 C508 0.950 . S
H479 C509 0.950 . S
C480 H462 0.951 . S
C480 C481 1.366 . S
C480 C482 1.388 . S
C481 C480 1.366 . S
C481 C485 1.385 . S
C482 H463 0.951 . S
C482 C480 1.388 . S
C482 C483 1.366 . S
C483 C482 1.366 . S
C483 C484 1.414 1_565 S
C483 C486 1.499 . S
C484 H464 0.950 . S
C484 C483 1.414 1_545 S
C484 C485 1.374 1_545 S
C485 H465 0.950 1_565 S
C485 C481 1.385 . S
C485 C484 1.374 1_565 S
C486 C483 1.499 . S
C486 C487 1.373 1_565 S
C486 C488 1.389 . S
C487 H466 0.950 . S
C487 C486 1.373 1_545 S
C487 C503 1.377 . S
C488 C486 1.389 . S
C488 C489 1.524 . S
C488 C502 1.377 . S
C489 C488 1.524 . S
C489 C490 1.397 . S
C489 C494 1.363 . S
C490 H467 0.950 1_565 S
C490 C489 1.397 . S
C490 C491 1.334 . S
C491 H468 0.950 . S
C491 C490 1.334 . S
C491 C492 1.287 . S
C492 C491 1.287 . S
C492 C493 1.524 . S
C492 H511 0.913 . S
C493 H469 0.950 . S
C493 C492 1.524 . S
C493 C494 1.415 . S
C494 H470 0.950 . S
C494 C489 1.363 . S
C494 C493 1.415 . S
C495 H471 0.951 . S
C495 C496 1.366 . S
C495 C497 1.388 . S
C496 C495 1.366 . S
C496 C500 1.385 . S
C497 H472 0.951 . S
C497 C495 1.388 . S
C497 C498 1.366 . S
C498 C497 1.366 . S
C498 C499 1.433 . S
C498 C501 1.499 . S
C499 H473 0.922 1_545 S
C499 C498 1.433 . S
C499 C500 1.384 . S
C500 H474 0.950 1_545 S
C500 C496 1.385 . S
C500 C499 1.384 . S
C501 C498 1.499 . S
C501 C502 1.373 1_545 S
C501 C503 1.389 . S
C502 H475 0.950 . S
C502 C488 1.377 . S
C502 C501 1.373 1_565 S
C503 C487 1.377 . S
C503 C501 1.389 . S
C503 C504 1.524 . S
C504 C503 1.524 . S
C504 C505 1.397 . S
C504 C509 1.363 . S
C505 H476 0.950 1_545 S
C505 C504 1.397 . S
C505 C506 1.334 . S
C506 H477 0.950 . S
C506 C505 1.334 . S
C506 C507 1.287 . S
C507 C506 1.287 . S
C507 C508 1.524 . S
C507 H510 0.999 . S
C508 H478 0.950 . S
C508 C507 1.524 . S
C508 C509 1.415 . S
C509 H479 0.950 . S
C509 C504 1.363 . S
C509 C508 1.415 . S
H510 C507 0.999 . S
H511 C492 0.913 . S
H512 C530 0.951 . S
H513 C532 0.951 1_655 S
H514 C534 0.950 . S
H515 C535 0.950 . S
H516 C537 0.950 . S
H517 C540 0.936 1_455 S
H518 C541 0.950 1_455 S
H519 C543 0.950 . S
H520 C544 0.950 . S
H521 C545 0.951 . S
H522 C547 0.951 1_455 S
H523 C549 0.950 . S
H524 C550 0.950 . S
H525 C552 0.950 . S
H526 C555 0.936 1_655 S
H527 C556 0.950 1_655 S
H528 C558 0.950 . S
H529 C559 0.950 . S
C530 H512 0.951 . S
C530 C531 1.366 . S
C530 C532 1.388 . S
C531 C530 1.366 . S
C531 C535 1.385 . S
C532 H513 0.951 1_455 S
C532 C530 1.388 . S
C532 C533 1.366 . S
C533 C532 1.366 . S
C533 C534 1.414 . S
C533 C536 1.499 . S
C534 H514 0.950 . S
C534 C533 1.414 . S
C534 C535 1.374 . S
C535 H515 0.950 . S
C535 C531 1.385 . S
C535 C534 1.374 . S
C536 C533 1.499 . S
C536 C537 1.373 . S
C536 C538 1.389 1_455 S
C537 H516 0.950 . S
C537 C536 1.373 . S
C537 C553 1.377 . S
C538 C536 1.389 1_655 S
C538 C539 1.524 . S
C538 C552 1.377 . S
C539 C538 1.524 . S
C539 C540 1.407 . S
C539 C544 1.363 . S
C540 H517 0.936 1_655 S
C540 C539 1.407 . S
C540 C541 1.338 . S
C541 H518 0.950 1_655 S
C541 C540 1.338 . S
C541 C542 1.287 . S
C542 C541 1.287 . S
C542 C543 1.524 . S
C542 H561 0.913 . S
C543 H519 0.950 . S
C543 C542 1.524 . S
C543 C544 1.415 . S
C544 H520 0.950 . S
C544 C539 1.363 . S
C544 C543 1.415 . S
C545 H521 0.951 . S
C545 C546 1.366 . S
C545 C547 1.388 . S
C546 C545 1.366 . S
C546 C550 1.385 . S
C547 H522 0.951 1_655 S
C547 C545 1.388 . S
C547 C548 1.366 . S
C548 C547 1.366 . S
C548 C549 1.414 . S
C548 C551 1.499 . S
C549 H523 0.950 . S
C549 C548 1.414 . S
C549 C550 1.374 . S
C550 H524 0.950 . S
C550 C546 1.385 . S
C550 C549 1.374 . S
C551 C548 1.499 . S
C551 C552 1.373 . S
C551 C553 1.389 1_655 S
C552 H525 0.950 . S
C552 C538 1.377 . S
C552 C551 1.373 . S
C553 C537 1.377 . S
C553 C551 1.389 1_455 S
C553 C554 1.524 . S
C554 C553 1.524 . S
C554 C555 1.407 . S
C554 C559 1.363 . S
C555 H526 0.936 1_455 S
C555 C554 1.407 . S
C555 C556 1.338 . S
C556 H527 0.950 1_455 S
C556 C555 1.338 . S
C556 C557 1.287 . S
C557 C556 1.287 . S
C557 C558 1.524 . S
C557 H560 0.999 . S
C558 H528 0.950 . S
C558 C557 1.524 . S
C558 C559 1.415 . S
C559 H529 0.950 . S
C559 C554 1.363 . S
C559 C558 1.415 . S
H560 C557 0.999 . S
H561 C542 0.913 . S
H562 C580 0.951 . S
H563 C582 0.951 . S
H564 C584 0.950 . S
H565 C585 0.950 . S
H566 C587 0.950 . S
H567 C590 0.950 . S
H568 C591 0.950 . S
H569 C593 0.950 . S
H570 C594 0.950 . S
H571 C595 0.951 . S
H572 C597 0.951 . S
H573 C599 0.950 . S
H574 C600 0.950 . S
H575 C602 0.950 . S
H576 C605 0.950 . S
H577 C606 0.950 . S
H578 C608 0.950 . S
H579 C609 0.950 . S
C580 H562 0.951 . S
C580 C581 1.366 . S
C580 C582 1.388 . S
C581 C580 1.366 . S
C581 C585 1.385 . S
C582 H563 0.951 . S
C582 C580 1.388 . S
C582 C583 1.366 . S
C583 C582 1.366 . S
C583 C584 1.414 . S
C583 C586 1.499 . S
C584 H564 0.950 . S
C584 C583 1.414 . S
C584 C585 1.374 . S
C585 H565 0.950 . S
C585 C581 1.385 . S
C585 C584 1.374 . S
C586 C583 1.499 . S
C586 C587 1.373 . S
C586 C588 1.389 1_565 S
C587 H566 0.950 . S
C587 C586 1.373 . S
C587 C603 1.377 . S
C588 C586 1.389 1_545 S
C588 C589 1.524 . S
C588 C602 1.377 . S
C589 C588 1.524 . S
C589 C590 1.397 . S
C589 C594 1.363 . S
C590 H567 0.950 . S
C590 C589 1.397 . S
C590 C591 1.334 . S
C591 H568 0.950 . S
C591 C590 1.334 . S
C591 C592 1.287 . S
C592 C591 1.287 . S
C592 C593 1.524 . S
C592 H611 0.913 . S
C593 H569 0.950 . S
C593 C592 1.524 . S
C593 C594 1.415 . S
C594 H570 0.950 . S
C594 C589 1.363 . S
C594 C593 1.415 . S
C595 H571 0.951 . S
C595 C596 1.366 . S
C595 C597 1.388 . S
C596 C595 1.366 . S
C596 C600 1.385 . S
C597 H572 0.951 . S
C597 C595 1.388 . S
C597 C598 1.366 . S
C598 C597 1.366 . S
C598 C599 1.414 . S
C598 C601 1.499 . S
C599 H573 0.950 . S
C599 C598 1.414 . S
C599 C600 1.374 . S
C600 H574 0.950 . S
C600 C596 1.385 . S
C600 C599 1.374 . S
C601 C598 1.499 . S
C601 C602 1.373 . S
C601 C603 1.389 1_545 S
C602 H575 0.950 . S
C602 C588 1.377 . S
C602 C601 1.373 . S
C603 C587 1.377 . S
C603 C601 1.389 1_565 S
C603 C604 1.524 . S
C604 C603 1.524 . S
C604 C605 1.397 . S
C604 C609 1.363 . S
C605 H576 0.950 . S
C605 C604 1.397 . S
C605 C606 1.334 . S
C606 H577 0.950 . S
C606 C605 1.334 . S
C606 C607 1.287 . S
C607 C606 1.287 . S
C607 C608 1.524 . S
C607 H610 0.999 . S
C608 H578 0.950 . S
C608 C607 1.524 . S
C608 C609 1.415 . S
C609 H579 0.950 . S
C609 C604 1.363 . S
C609 C608 1.415 . S
H610 C607 0.999 . S
H611 C592 0.913 . S
H612 C630 0.951 . S
H613 C632 0.951 . S
H614 C634 0.950 . S
H615 C635 0.950 . S
H616 C637 0.950 . S
H617 C640 0.950 . S
H618 C641 0.950 . S
H619 C643 0.950 . S
H620 C644 0.950 . S
H621 C645 0.951 . S
H622 C647 0.951 . S
H623 C649 0.950 . S
H624 C650 0.950 . S
H625 C652 0.950 . S
H626 C655 0.950 . S
H627 C656 0.950 . S
H628 C658 0.950 . S
H629 C659 0.950 . S
C630 H612 0.951 . S
C630 C631 1.366 . S
C630 C632 1.388 . S
C631 C630 1.366 . S
C631 C635 1.385 . S
C632 H613 0.951 . S
C632 C630 1.388 . S
C632 C633 1.366 . S
C633 C632 1.366 . S
C633 C634 1.414 . S
C633 C636 1.499 . S
C634 H614 0.950 . S
C634 C633 1.414 . S
C634 C635 1.374 . S
C635 H615 0.950 . S
C635 C631 1.385 . S
C635 C634 1.374 . S
C636 C633 1.499 . S
C636 C637 1.373 . S
C636 C638 1.433 . S
C637 H616 0.950 . S
C637 C636 1.373 . S
C637 C653 1.331 1_554 S
C638 C636 1.433 . S
C638 C639 1.524 . S
C638 C652 1.331 1_554 S
C639 C638 1.524 . S
C639 C640 1.425 . S
C639 C644 1.334 1_554 S
C640 H617 0.950 . S
C640 C639 1.425 . S
C640 C641 1.334 . S
C641 H618 0.950 . S
C641 C640 1.334 . S
C641 C642 1.287 . S
C642 C641 1.287 . S
C642 C643 1.524 1_554 S
C642 H661 0.913 . S
C643 H619 0.950 . S
C643 C642 1.524 1_556 S
C643 C644 1.415 . S
C644 H620 0.950 . S
C644 C639 1.334 1_556 S
C644 C643 1.415 . S
C645 H621 0.951 . S
C645 C646 1.366 . S
C645 C647 1.388 . S
C646 C645 1.366 . S
C646 C650 1.385 . S
C647 H622 0.951 . S
C647 C645 1.388 . S
C647 C648 1.366 . S
C648 C647 1.366 . S
C648 C649 1.414 . S
C648 C651 1.499 . S
C649 H623 0.950 . S
C649 C648 1.414 . S
C649 C650 1.374 . S
C650 H624 0.950 . S
C650 C646 1.385 . S
C650 C649 1.374 . S
C651 C648 1.499 . S
C651 C652 1.373 . S
C651 C653 1.433 . S
C652 H625 0.950 . S
C652 C638 1.331 1_556 S
C652 C651 1.373 . S
C653 C637 1.331 1_556 S
C653 C651 1.433 . S
C653 C654 1.524 . S
C654 C653 1.524 . S
C654 C655 1.425 . S
C654 C659 1.334 1_556 S
C655 H626 0.950 . S
C655 C654 1.425 . S
C655 C656 1.334 . S
C656 H627 0.950 . S
C656 C655 1.334 . S
C656 C657 1.287 . S
C657 C656 1.287 . S
C657 C658 1.524 1_556 S
C657 H660 0.999 . S
C658 H628 0.950 . S
C658 C657 1.524 1_554 S
C658 C659 1.415 . S
C659 H629 0.950 . S
C659 C654 1.334 1_554 S
C659 C658 1.415 . S
H660 C657 0.999 . S
H661 C642 0.913 . S
H662 C680 0.951 . S
H663 C682 0.951 1_545 S
H664 C684 0.950 . S
H665 C685 0.950 . S
H666 C687 0.951 . S
H667 C690 0.950 . S
H668 C691 0.950 . S
H669 C693 0.950 . S
H670 C694 0.950 1_655 S
H671 C695 0.951 . S
H672 C697 0.951 1_565 S
H673 C699 0.950 . S
H674 C700 0.950 . S
H675 C702 0.951 . S
H676 C705 0.950 . S
H677 C706 0.950 . S
H678 C708 0.950 . S
H679 C709 0.950 1_455 S
C680 H662 0.951 . S
C680 C681 1.366 . S
C680 C682 1.388 . S
C681 C680 1.366 . S
C681 C685 1.385 . S
C682 H663 0.951 1_565 S
C682 C680 1.388 . S
C682 C683 1.366 . S
C683 C682 1.366 . S
C683 C684 1.414 . S
C683 C686 1.499 . S
C684 H664 0.950 . S
C684 C683 1.414 . S
C684 C685 1.374 . S
C685 H665 0.950 . S
C685 C681 1.385 . S
C685 C684 1.374 . S
C686 C683 1.499 . S
C686 C687 1.383 . S
C686 C688 1.389 1_565 S
C687 H666 0.951 . S
C687 C686 1.383 . S
C687 C703 1.367 1_456 S
C688 C686 1.389 1_545 S
C688 C689 1.524 . S
C688 C702 1.367 1_456 S
C689 C688 1.524 . S
C689 C690 1.397 . S
C689 C694 1.363 . S
C690 H667 0.950 . S
C690 C689 1.397 . S
C690 C691 1.334 . S
C691 H668 0.950 . S
C691 C690 1.334 . S
C691 C692 1.287 . S
C692 C691 1.287 . S
C692 C693 1.524 . S
C692 H711 0.913 . S
C693 H669 0.950 . S
C693 C692 1.524 . S
C693 C694 1.415 . S
C694 H670 0.950 1_455 S
C694 C689 1.363 . S
C694 C693 1.415 . S
C695 H671 0.951 . S
C695 C696 1.366 . S
C695 C697 1.388 . S
C696 C695 1.366 . S
C696 C700 1.385 . S
C697 H672 0.951 1_545 S
C697 C695 1.388 . S
C697 C698 1.366 . S
C698 C697 1.366 . S
C698 C699 1.414 . S
C698 C701 1.499 . S
C699 H673 0.950 . S
C699 C698 1.414 . S
C699 C700 1.374 . S
C700 H674 0.950 . S
C700 C696 1.385 . S
C700 C699 1.374 . S
C701 C698 1.499 . S
C701 C702 1.383 . S
C701 C703 1.389 1_545 S
C702 H675 0.951 . S
C702 C688 1.367 1_654 S
C702 C701 1.383 . S
C703 C687 1.367 1_654 S
C703 C701 1.389 1_565 S
C703 C704 1.524 . S
C704 C703 1.524 . S
C704 C705 1.397 . S
C704 C709 1.363 . S
C705 H676 0.950 . S
C705 C704 1.397 . S
C705 C706 1.334 . S
C706 H677 0.950 . S
C706 C705 1.334 . S
C706 C707 1.287 . S
C707 C706 1.287 . S
C707 C708 1.524 . S
C707 H710 0.999 . S
C708 H678 0.950 . S
C708 C707 1.524 . S
C708 C709 1.415 . S
C709 H679 0.950 1_655 S
C709 C704 1.363 . S
C709 C708 1.415 . S
H710 C707 0.999 . S
H711 C692 0.913 . S
H712 C730 0.951 . S
H713 C732 0.951 . S
H714 C734 0.950 . S
H715 C735 0.950 . S
H716 C737 0.950 . S
H717 C740 0.950 . S
H718 C741 0.950 . S
H719 C743 0.950 . S
H720 C744 0.950 . S
H721 C745 0.951 . S
H722 C747 0.951 . S
H723 C749 0.950 . S
H724 C750 0.950 . S
H725 C752 0.950 . S
H726 C755 0.950 . S
H727 C756 0.950 . S
H728 C758 0.950 . S
H729 C759 0.950 . S
C730 H712 0.951 . S
C730 C731 1.366 . S
C730 C732 1.388 . S
C731 C730 1.366 . S
C731 C735 1.385 . S
C732 H713 0.951 . S
C732 C730 1.388 . S
C732 C733 1.366 . S
C733 C732 1.366 . S
C733 C734 1.414 . S
C733 C736 1.499 . S
C734 H714 0.950 . S
C734 C733 1.414 . S
C734 C735 1.374 . S
C735 H715 0.950 . S
C735 C731 1.385 . S
C735 C734 1.374 . S
C736 C733 1.499 . S
C736 C737 1.373 . S
C736 C738 1.389 . S
C737 H716 0.950 . S
C737 C736 1.373 . S
C737 C753 1.377 . S
C738 C736 1.389 . S
C738 C739 1.524 . S
C738 C752 1.377 . S
C739 C738 1.524 . S
C739 C740 1.397 . S
C739 C744 1.363 . S
C740 H717 0.950 . S
C740 C739 1.397 . S
C740 C741 1.334 . S
C741 H718 0.950 . S
C741 C740 1.334 . S
C741 C742 1.287 . S
C742 C741 1.287 . S
C742 C743 1.524 . S
C742 H761 0.913 . S
C743 H719 0.950 . S
C743 C742 1.524 . S
C743 C744 1.415 . S
C744 H720 0.950 . S
C744 C739 1.363 . S
C744 C743 1.415 . S
C745 H721 0.951 . S
C745 C746 1.366 . S
C745 C747 1.388 . S
C746 C745 1.366 . S
C746 C750 1.385 . S
C747 H722 0.951 . S
C747 C745 1.388 . S
C747 C748 1.366 . S
C748 C747 1.366 . S
C748 C749 1.414 . S
C748 C751 1.499 . S
C749 H723 0.950 . S
C749 C748 1.414 . S
C749 C750 1.374 . S
C750 H724 0.950 . S
C750 C746 1.385 . S
C750 C749 1.374 . S
C751 C748 1.499 . S
C751 C752 1.373 . S
C751 C753 1.389 . S
C752 H725 0.950 . S
C752 C738 1.377 . S
C752 C751 1.373 . S
C753 C737 1.377 . S
C753 C751 1.389 . S
C753 C754 1.524 . S
C754 C753 1.524 . S
C754 C755 1.397 . S
C754 C759 1.363 . S
C755 H726 0.950 . S
C755 C754 1.397 . S
C755 C756 1.334 . S
C756 H727 0.950 . S
C756 C755 1.334 . S
C756 C757 1.287 . S
C757 C756 1.287 . S
C757 C758 1.524 . S
C757 H760 0.999 . S
C758 H728 0.950 . S
C758 C757 1.524 . S
C758 C759 1.415 . S
C759 H729 0.950 . S
C759 C754 1.363 . S
C759 C758 1.415 . S
H760 C757 0.999 . S
H761 C742 0.913 . S
H762 C780 0.951 . S
H763 C782 0.951 . S
H764 C784 0.950 . S
H765 C785 0.950 . S
H766 C787 0.950 . S
H767 C790 0.950 . S
H768 C791 0.950 . S
H769 C793 0.950 . S
H770 C794 0.950 . S
H771 C795 0.951 . S
H772 C797 0.951 . S
H773 C799 0.950 . S
H774 C800 0.950 . S
H775 C802 0.950 . S
H776 C805 0.950 . S
H777 C806 0.950 . S
H778 C808 0.950 . S
H779 C809 0.950 . S
C780 H762 0.951 . S
C780 C781 1.366 . S
C780 C782 1.388 . S
C781 C780 1.366 . S
C781 C785 1.385 . S
C782 H763 0.951 . S
C782 C780 1.388 . S
C782 C783 1.366 . S
C783 C782 1.366 . S
C783 C784 1.414 . S
C783 C786 1.499 . S
C784 H764 0.950 . S
C784 C783 1.414 . S
C784 C785 1.374 . S
C785 H765 0.950 . S
C785 C781 1.385 . S
C785 C784 1.374 . S
C786 C783 1.499 . S
C786 C787 1.373 . S
C786 C788 1.389 . S
C787 H766 0.950 . S
C787 C786 1.373 . S
C787 C803 1.377 . S
C788 C786 1.389 . S
C788 C789 1.524 . S
C788 C802 1.377 . S
C789 C788 1.524 . S
C789 C790 1.397 . S
C789 C794 1.363 . S
C790 H767 0.950 . S
C790 C789 1.397 . S
C790 C791 1.334 . S
C791 H768 0.950 . S
C791 C790 1.334 . S
C791 C792 1.287 . S
C792 C791 1.287 . S
C792 C793 1.524 . S
C792 H811 0.913 . S
C793 H769 0.950 . S
C793 C792 1.524 . S
C793 C794 1.415 . S
C794 H770 0.950 . S
C794 C789 1.363 . S
C794 C793 1.415 . S
C795 H771 0.951 . S
C795 C796 1.366 . S
C795 C797 1.388 . S
C796 C795 1.366 . S
C796 C800 1.385 . S
C797 H772 0.951 . S
C797 C795 1.388 . S
C797 C798 1.366 . S
C798 C797 1.366 . S
C798 C799 1.414 . S
C798 C801 1.499 . S
C799 H773 0.950 . S
C799 C798 1.414 . S
C799 C800 1.374 . S
C800 H774 0.950 . S
C800 C796 1.385 . S
C800 C799 1.374 . S
C801 C798 1.499 . S
C801 C802 1.373 . S
C801 C803 1.389 . S
C802 H775 0.950 . S
C802 C788 1.377 . S
C802 C801 1.373 . S
C803 C787 1.377 . S
C803 C801 1.389 . S
C803 C804 1.524 . S
C804 C803 1.524 . S
C804 C805 1.397 . S
C804 C809 1.363 . S
C805 H776 0.950 . S
C805 C804 1.397 . S
C805 C806 1.334 . S
C806 H777 0.950 . S
C806 C805 1.334 . S
C806 C807 1.287 . S
C807 C806 1.287 . S
C807 C808 1.524 . S
C807 H810 0.999 . S
C808 H778 0.950 . S
C808 C807 1.524 . S
C808 C809 1.415 . S
C809 H779 0.950 . S
C809 C804 1.363 . S
C809 C808 1.415 . S
H810 C807 0.999 . S
H811 C792 0.913 . S
H812 C830 0.951 . S
H813 C832 0.951 . S
H814 C834 0.950 . S
H815 C835 0.950 . S
H816 C837 0.950 . S
H817 C840 0.950 . S
H818 C841 0.950 . S
H819 C843 0.950 . S
H820 C844 0.950 . S
H821 C845 0.951 . S
H822 C847 0.951 . S
H823 C849 0.950 . S
H824 C850 0.950 . S
H825 C852 0.950 . S
H826 C855 0.950 . S
H827 C856 0.950 . S
H828 C858 0.950 . S
H829 C859 0.950 . S
C830 H812 0.951 . S
C830 C831 1.366 . S
C830 C832 1.388 . S
C831 C830 1.366 . S
C831 C835 1.385 . S
C832 H813 0.951 . S
C832 C830 1.388 . S
C832 C833 1.366 . S
C833 C832 1.366 . S
C833 C834 1.414 . S
C833 C836 1.499 . S
C834 H814 0.950 . S
C834 C833 1.414 . S
C834 C835 1.374 . S
C835 H815 0.950 . S
C835 C831 1.385 . S
C835 C834 1.374 . S
C836 C833 1.499 . S
C836 C837 1.373 . S
C836 C838 1.389 . S
C837 H816 0.950 . S
C837 C836 1.373 . S
C837 C853 1.377 . S
C838 C836 1.389 . S
C838 C839 1.524 . S
C838 C852 1.377 . S
C839 C838 1.524 . S
C839 C840 1.397 . S
C839 C844 1.363 . S
C840 H817 0.950 . S
C840 C839 1.397 . S
C840 C841 1.334 . S
C841 H818 0.950 . S
C841 C840 1.334 . S
C841 C842 1.287 . S
C842 C841 1.287 . S
C842 C843 1.524 . S
C842 H861 0.913 . S
C843 H819 0.950 . S
C843 C842 1.524 . S
C843 C844 1.415 . S
C844 H820 0.950 . S
C844 C839 1.363 . S
C844 C843 1.415 . S
C845 H821 0.951 . S
C845 C846 1.366 . S
C845 C847 1.388 . S
C846 C845 1.366 . S
C846 C850 1.385 . S
C847 H822 0.951 . S
C847 C845 1.388 . S
C847 C848 1.366 . S
C848 C847 1.366 . S
C848 C849 1.414 . S
C848 C851 1.499 . S
C849 H823 0.950 . S
C849 C848 1.414 . S
C849 C850 1.374 . S
C850 H824 0.950 . S
C850 C846 1.385 . S
C850 C849 1.374 . S
C851 C848 1.499 . S
C851 C852 1.373 . S
C851 C853 1.389 . S
C852 H825 0.950 . S
C852 C838 1.377 . S
C852 C851 1.373 . S
C853 C837 1.377 . S
C853 C851 1.389 . S
C853 C854 1.524 . S
C854 C853 1.524 . S
C854 C855 1.397 . S
C854 C859 1.363 . S
C855 H826 0.950 . S
C855 C854 1.397 . S
C855 C856 1.334 . S
C856 H827 0.950 . S
C856 C855 1.334 . S
C856 C857 1.287 . S
C857 C856 1.287 . S
C857 C858 1.524 . S
C857 H860 0.999 . S
C858 H828 0.950 . S
C858 C857 1.524 . S
C858 C859 1.415 . S
C859 H829 0.950 . S
C859 C854 1.363 . S
C859 C858 1.415 . S
H860 C857 0.999 . S
H861 C842 0.913 . S
H862 C880 0.951 . S
H863 C882 0.951 . S
H864 C884 0.950 . S
H865 C885 0.950 . S
H866 C887 0.950 . S
H867 C890 0.950 . S
H868 C891 0.950 . S
H869 C893 0.950 . S
H870 C894 0.950 . S
H871 C895 0.951 . S
H872 C897 0.951 . S
H873 C899 0.950 . S
H874 C900 0.950 . S
H875 C902 0.950 . S
H876 C905 0.950 . S
H877 C906 0.950 . S
H878 C908 0.950 . S
H879 C909 0.950 . S
C880 H862 0.951 . S
C880 C881 1.366 . S
C880 C882 1.388 . S
C881 C880 1.366 . S
C881 C885 1.385 . S
C882 H863 0.951 . S
C882 C880 1.388 . S
C882 C883 1.366 . S
C883 C882 1.366 . S
C883 C884 1.414 . S
C883 C886 1.499 . S
C884 H864 0.950 . S
C884 C883 1.414 . S
C884 C885 1.374 . S
C885 H865 0.950 . S
C885 C881 1.385 . S
C885 C884 1.374 . S
C886 C883 1.499 . S
C886 C887 1.373 . S
C886 C888 1.389 . S
C887 H866 0.950 . S
C887 C886 1.373 . S
C887 C903 1.377 . S
C888 C886 1.389 . S
C888 C889 1.524 . S
C888 C902 1.377 . S
C889 C888 1.524 . S
C889 C890 1.397 . S
C889 C894 1.363 . S
C890 H867 0.950 . S
C890 C889 1.397 . S
C890 C891 1.334 . S
C891 H868 0.950 . S
C891 C890 1.334 . S
C891 C892 1.287 . S
C892 C891 1.287 . S
C892 C893 1.524 . S
C892 H911 0.913 . S
C893 H869 0.950 . S
C893 C892 1.524 . S
C893 C894 1.415 . S
C894 H870 0.950 . S
C894 C889 1.363 . S
C894 C893 1.415 . S
C895 H871 0.951 . S
C895 C896 1.366 . S
C895 C897 1.388 . S
C896 C895 1.366 . S
C896 C900 1.385 . S
C897 H872 0.951 . S
C897 C895 1.388 . S
C897 C898 1.366 . S
C898 C897 1.366 . S
C898 C899 1.414 . S
C898 C901 1.499 . S
C899 H873 0.950 . S
C899 C898 1.414 . S
C899 C900 1.374 . S
C900 H874 0.950 . S
C900 C896 1.385 . S
C900 C899 1.374 . S
C901 C898 1.499 . S
C901 C902 1.373 . S
C901 C903 1.389 . S
C902 H875 0.950 . S
C902 C888 1.377 . S
C902 C901 1.373 . S
C903 C887 1.377 . S
C903 C901 1.389 . S
C903 C904 1.524 . S
C904 C903 1.524 . S
C904 C905 1.397 . S
C904 C909 1.363 . S
C905 H876 0.950 . S
C905 C904 1.397 . S
C905 C906 1.334 . S
C906 H877 0.950 . S
C906 C905 1.334 . S
C906 C907 1.287 . S
C907 C906 1.287 . S
C907 C908 1.524 . S
C907 H910 0.999 . S
C908 H878 0.950 . S
C908 C907 1.524 . S
C908 C909 1.415 . S
C909 H879 0.950 . S
C909 C904 1.363 . S
C909 C908 1.415 . S
H910 C907 0.999 . S
H911 C892 0.913 . S
C131 C5 1.389 . S
C146 C37 1.391 . S
C181 C51 1.391 . S
C196 C19 1.389 . S
C231 C33 1.390 . S
C246 C9 1.390 . S
C281 C47 1.390 . S
C296 C23 1.390 . S
C331 C93 1.391 . S
C346 C61 1.389 . S
C381 C75 1.390 . S
C396 C107 1.391 . S
C431 C89 1.390 . S
C446 C65 1.390 . S
C481 C103 1.389 . S
C496 C79 1.391 . S
C531 C11 1.510 . S
C546 C67 1.510 . S
C581 C25 1.511 . S
C596 C81 1.511 . S
C631 C39 1.511 . S
C646 C95 1.511 . S
C681 C109 1.511 . S
C696 C53 1.511 . S
C731 C0 1.509 . S
C746 C14 1.509 . S
C781 C42 1.510 . S
C796 C28 1.509 . S
C831 C70 1.509 . S
C846 C56 1.509 . S
C881 C84 1.509 . S
C896 C98 1.510 . S
