# Generated by pormake.
# Topology wjd, (6)-cn, num edge types: 1
# Building blocks:
#     Node 0, Type 0, BuildingBlock: BETDAH_clean_sbu_0, # of connection points: 6
#     Node 1, Type 0, BuildingBlock: BETDAH_clean_sbu_0, # of connection points: 6
#     Node 2, Type 0, BuildingBlock: BETDAH_clean_sbu_0, # of connection points: 6
#     Node 3, Type 0, BuildingBlock: BETDAH_clean_sbu_0, # of connection points: 6
#     Node 4, Type 0, BuildingBlock: BETDAH_clean_sbu_0, # of connection points: 6
#     Node 5, Type 0, BuildingBlock: BETDAH_clean_sbu_0, # of connection points: 6
#     Node 6, Type 0, BuildingBlock: BETDAH_clean_sbu_0, # of connection points: 6
#     Node 7, Type 0, BuildingBlock: BETDAH_clean_sbu_0, # of connection points: 6
#     Node 8, Type 0, BuildingBlock: BETDAH_clean_sbu_0, # of connection points: 6
#     Node 9, Type 0, BuildingBlock: BETDAH_clean_sbu_0, # of connection points: 6
#     Node 10, Type 0, BuildingBlock: BETDAH_clean_sbu_0, # of connection points: 6
#     Node 11, Type 0, BuildingBlock: BETDAH_clean_sbu_0, # of connection points: 6
#     Edge 12, Type (0, 0), BuildingBlock: EZIPEK_clean_linker_0, # of connection points: 2
#     Edge 13, Type (0, 0), BuildingBlock: EZIPEK_clean_linker_0, # of connection points: 2
#     Edge 14, Type (0, 0), BuildingBlock: EZIPEK_clean_linker_0, # of connection points: 2
#     Edge 15, Type (0, 0), BuildingBlock: EZIPEK_clean_linker_0, # of connection points: 2
#     Edge 16, Type (0, 0), BuildingBlock: EZIPEK_clean_linker_0, # of connection points: 2
#     Edge 17, Type (0, 0), BuildingBlock: EZIPEK_clean_linker_0, # of connection points: 2
#     Edge 18, Type (0, 0), BuildingBlock: EZIPEK_clean_linker_0, # of connection points: 2
#     Edge 19, Type (0, 0), BuildingBlock: EZIPEK_clean_linker_0, # of connection points: 2
#     Edge 20, Type (0, 0), BuildingBlock: EZIPEK_clean_linker_0, # of connection points: 2
#     Edge 21, Type (0, 0), BuildingBlock: EZIPEK_clean_linker_0, # of connection points: 2
#     Edge 22, Type (0, 0), BuildingBlock: EZIPEK_clean_linker_0, # of connection points: 2
#     Edge 23, Type (0, 0), BuildingBlock: EZIPEK_clean_linker_0, # of connection points: 2
#     Edge 24, Type (0, 0), BuildingBlock: EZIPEK_clean_linker_0, # of connection points: 2
#     Edge 25, Type (0, 0), BuildingBlock: EZIPEK_clean_linker_0, # of connection points: 2
#     Edge 26, Type (0, 0), BuildingBlock: EZIPEK_clean_linker_0, # of connection points: 2
#     Edge 27, Type (0, 0), BuildingBlock: EZIPEK_clean_linker_0, # of connection points: 2
#     Edge 28, Type (0, 0), BuildingBlock: EZIPEK_clean_linker_0, # of connection points: 2
#     Edge 29, Type (0, 0), BuildingBlock: EZIPEK_clean_linker_0, # of connection points: 2
#     Edge 30, Type (0, 0), BuildingBlock: EZIPEK_clean_linker_0, # of connection points: 2
#     Edge 31, Type (0, 0), BuildingBlock: EZIPEK_clean_linker_0, # of connection points: 2
#     Edge 32, Type (0, 0), BuildingBlock: EZIPEK_clean_linker_0, # of connection points: 2
#     Edge 33, Type (0, 0), BuildingBlock: EZIPEK_clean_linker_0, # of connection points: 2
#     Edge 34, Type (0, 0), BuildingBlock: EZIPEK_clean_linker_0, # of connection points: 2
#     Edge 35, Type (0, 0), BuildingBlock: EZIPEK_clean_linker_0, # of connection points: 2
#     Edge 36, Type (0, 0), BuildingBlock: EZIPEK_clean_linker_0, # of connection points: 2
#     Edge 37, Type (0, 0), BuildingBlock: EZIPEK_clean_linker_0, # of connection points: 2
#     Edge 38, Type (0, 0), BuildingBlock: EZIPEK_clean_linker_0, # of connection points: 2
#     Edge 39, Type (0, 0), BuildingBlock: EZIPEK_clean_linker_0, # of connection points: 2
#     Edge 40, Type (0, 0), BuildingBlock: EZIPEK_clean_linker_0, # of connection points: 2
#     Edge 41, Type (0, 0), BuildingBlock: EZIPEK_clean_linker_0, # of connection points: 2
#     Edge 42, Type (0, 0), BuildingBlock: EZIPEK_clean_linker_0, # of connection points: 2
#     Edge 43, Type (0, 0), BuildingBlock: EZIPEK_clean_linker_0, # of connection points: 2
#     Edge 44, Type (0, 0), BuildingBlock: EZIPEK_clean_linker_0, # of connection points: 2
#     Edge 45, Type (0, 0), BuildingBlock: EZIPEK_clean_linker_0, # of connection points: 2
#     Edge 46, Type (0, 0), BuildingBlock: EZIPEK_clean_linker_0, # of connection points: 2
#     Edge 47, Type (0, 0), BuildingBlock: EZIPEK_clean_linker_0, # of connection points: 2
# Relax obj value: 0.113
# Max RMSD: 0.241
# Mean RMSD: 0.241
data_MOF--net-wjd--node1-BETDAH_clean_sbu_0--edge1-EZIPEK_clean_linker_0
_symmetry_space_group_name_H-M    P1
_symmetry_Int_Tables_number       1
_symmetry_cell_setting            triclinic
loop_
_symmetry_equiv_pos_as_xyz
'x, y, z'
_cell_length_a     32.0644
_cell_length_b     32.14831
_cell_length_c     37.85159
_cell_angle_alpha  90.174067
_cell_angle_beta   89.827401
_cell_angle_gamma 120.04583
loop_
_atom_site_label
_atom_site_type_symbol
_atom_site_fract_x
_atom_site_fract_y
_atom_site_fract_z
_atom_type_partial_charge
Ho0 Ho 0.39184 0.1821 0.10579 0.0
Ho1 Ho 0.33442 0.08192 0.13155 0.0
C2 C 0.45124 0.13012 0.12608 0.0
C3 C 0.44656 0.27173 0.08829 0.0
C4 C 0.48967 0.31877 0.09585 0.0
C5 C 0.51901 0.32691 0.12555 0.0
C6 C 0.55813 0.37316 0.13239 0.0
C7 C 0.56805 0.41177 0.10976 0.0
C8 C 0.53845 0.40331 0.08024 0.0
C9 C 0.49978 0.35733 0.07336 0.0
C10 C 0.34444 0.11044 0.05536 0.0
C11 C 0.28403 0.14641 0.12187 0.0
C12 C 0.2765 0.99024 0.1335 0.0
C13 C 0.22306 0.96087 0.1356 0.0
C14 C 0.19734 0.93309 0.10615 0.0
C15 C 0.14692 0.90751 0.10607 0.0
C16 C 0.12099 0.90887 0.13551 0.0
C17 C 0.14637 0.93671 0.16499 0.0
C18 C 0.19699 0.96267 0.16501 0.0
C19 C 0.35806 0.14625 0.18581 0.0
O20 O 0.45282 0.17176 0.12251 0.0
O21 O 0.40933 0.08903 0.12904 0.0
O22 O 0.45227 0.23696 0.07566 0.0
O23 O 0.41079 0.2565 0.11067 0.0
O24 O 0.34668 0.15167 0.05452 0.0
O25 O 0.36804 0.11114 0.08158 0.0
O26 O 0.27814 0.10291 0.1171 0.0
O27 O 0.32729 0.18362 0.12526 0.0
O28 O 0.30065 1.01498 0.16133 0.0
O29 O 0.29248 1.01469 0.10426 0.0
O30 O 0.31713 0.10732 0.18134 0.0
O31 O 0.38523 0.15004 0.15989 0.0
H32 H 0.51157 0.29771 0.1434 0.0
H33 H 0.58073 0.37883 0.15517 0.0
H34 H 0.54555 0.43238 0.06234 0.0
H35 H 0.47738 0.35193 0.05047 0.0
H36 H 0.21635 0.93146 0.08294 0.0
H37 H 0.12809 0.886 0.0832 0.0
H38 H 0.12696 0.93786 0.1881 0.0
H39 H 0.21558 0.9842 0.18791 0.0
Ho40 Ho 0.79783 0.72321 0.38601 0.0
Ho41 Ho 0.83869 0.66571 0.41543 0.0
C42 C 0.9134 0.7737 0.40236 0.0
C43 C 0.77641 0.79047 0.37744 0.0
C44 C 0.80285 0.84364 0.38179 0.0
C45 C 0.83457 0.86623 0.41027 0.0
C46 C 0.85773 0.91634 0.41458 0.0
C47 C 0.8498 0.94487 0.39047 0.0
C48 C 0.81909 0.92244 0.3616 0.0
C49 C 0.79585 0.87236 0.35733 0.0
C50 C 0.81863 0.67833 0.33396 0.0
C51 C 0.72962 0.60942 0.39093 0.0
C52 C 0.86695 0.60564 0.43429 0.0
C53 C 0.87485 0.56579 0.42286 0.0
C54 C 0.90081 0.5684 0.39204 0.0
C55 C 0.91231 0.53243 0.38443 0.0
C56 C 0.89821 0.49338 0.40751 0.0
C57 C 0.87148 0.49034 0.43781 0.0
C58 C 0.85994 0.5261 0.44537 0.0
C59 C 0.80572 0.70755 0.46408 0.0
O60 O 0.875 0.77904 0.40201 0.0
O61 O 0.90834 0.73064 0.40242 0.0
O62 O 0.79048 0.77326 0.35165 0.0
O63 O 0.76677 0.76482 0.40622 0.0
O64 O 0.78119 0.68383 0.33512 0.0
O65 O 0.8445 0.6976 0.36142 0.0
O66 O 0.77048 0.60887 0.39034 0.0
O67 O 0.72955 0.65074 0.39328 0.0
O68 O 0.82276 0.59678 0.43765 0.0
O69 O 0.89555 0.64854 0.42181 0.0
O70 O 0.84423 0.70456 0.46821 0.0
O71 O 0.78723 0.68695 0.43572 0.0
H72 H 0.84099 0.84513 0.42946 0.0
H73 H 0.88114 0.93282 0.43709 0.0
H74 H 0.81231 0.94365 0.34275 0.0
H75 H 0.77182 0.85595 0.33511 0.0
H76 H 0.91304 0.59863 0.37425 0.0
H77 H 0.93287 0.53542 0.36086 0.0
H78 H 0.86014 0.46055 0.45593 0.0
H79 H 0.8403 0.52337 0.46941 0.0
Ho80 Ho 0.8757 0.21636 0.10902 0.0
Ho81 Ho 0.9724 0.25077 0.13665 0.0
C82 C 0.93043 0.32574 0.12793 0.0
C83 C 0.78427 0.17107 0.09305 0.0
C84 C 0.73676 0.16691 0.09966 0.0
C85 C 0.72829 0.18983 0.12822 0.0
C86 C 0.68182 0.1828 0.13425 0.0
C87 C 0.64324 0.15258 0.11195 0.0
C88 C 0.652 0.12981 0.08353 0.0
C89 C 0.69821 0.13692 0.07749 0.0
C90 C 0.94756 0.2437 0.05796 0.0
C91 C 0.90547 0.13758 0.12737 0.0
C92 C 0.06416 0.28506 0.14547 0.0
C93 C 0.09428 0.26232 0.14191 0.0
C94 C 0.07346 0.21396 0.13157 0.0
C95 C 0.10163 0.19221 0.12783 0.0
C96 C 0.15111 0.21814 0.13512 0.0
C97 C 0.17205 0.26642 0.14587 0.0
C98 C 0.14383 0.28841 0.14911 0.0
C99 C 0.90633 0.22041 0.18972 0.0
O100 O 0.88742 0.28743 0.1252 0.0
O101 O 0.96945 0.32095 0.12992 0.0
O102 O 0.81677 0.20848 0.0758 0.0
O103 O 0.8029 0.15862 0.11864 0.0
O104 O 0.91319 0.2537 0.05764 0.0
O105 O 0.94144 0.21962 0.08559 0.0
O106 O 0.95057 0.17294 0.12748 0.0
O107 O 0.86982 0.14631 0.12451 0.0
O108 O 1.03291 0.26899 0.17126 0.0
O109 O 0.04544 0.29001 0.11626 0.0
O110 O 0.94208 0.21261 0.18721 0.0
O111 O 0.90669 0.24444 0.1628 0.0
H112 H 0.75745 0.21292 0.1458 0.0
H113 H 0.67598 0.20107 0.15614 0.0
H114 H 0.62299 0.10669 0.06586 0.0
H115 H 0.70381 0.11864 0.05546 0.0
H116 H 1.03544 0.19295 0.1261 0.0
H117 H 0.08481 0.15508 0.11931 0.0
H118 H 0.21029 0.28715 0.15137 0.0
H119 H 0.16068 0.3257 0.1572 0.0
Ho120 Ho 0.33067 0.08739 0.39164 0.0
Ho121 Ho 0.39493 0.18519 0.41478 0.0
C122 C 0.28483 0.15415 0.40036 0.0
C123 C 0.27254 0.99553 0.38595 0.0
C124 C 0.21956 0.96582 0.38975 0.0
C125 C 0.19362 0.98256 0.40945 0.0
C126 C 0.1434 0.95469 0.41257 0.0
C127 C 0.11818 0.90978 0.39577 0.0
C128 C 0.14401 0.89315 0.37588 0.0
C129 C 0.19431 0.92096 0.3729 0.0
C130 C 0.36213 0.14957 0.33594 0.0
C131 C 0.44726 0.12942 0.39699 0.0
C132 C 0.44313 0.27669 0.42986 0.0
C133 C 0.48403 0.32459 0.42052 0.0
C134 C 0.51959 0.33098 0.39581 0.0
C135 C 0.55829 0.37736 0.38861 0.0
C136 C 0.56181 0.41782 0.40598 0.0
C137 C 0.52589 0.41119 0.43029 0.0
C138 C 0.48743 0.36511 0.43742 0.0
C139 C 0.35399 0.1171 0.46846 0.0
O140 O 0.27512 0.10924 0.4029 0.0
O141 O 0.32963 0.18973 0.39993 0.0
O142 O 0.28784 0.02459 0.35894 0.0
O143 O 0.29655 1.01622 0.41472 0.0
O144 O 0.31878 0.11442 0.34079 0.0
O145 O 0.38795 0.15075 0.36187 0.0
O146 O 0.45142 0.17191 0.39326 0.0
O147 O 0.40372 0.09065 0.40085 0.0
O148 O 0.45265 0.24502 0.4433 0.0
O149 O 0.40657 0.25731 0.40827 0.0
O150 O 0.39865 0.15044 0.4665 0.0
O151 O 0.33407 0.12211 0.44161 0.0
H152 H 0.21218 1.01719 0.42243 0.0
H153 H 0.12419 0.9681 0.42811 0.0
H154 H 0.1252 0.8585 0.36286 0.0
H155 H 0.21351 0.90746 0.35744 0.0
H156 H 0.5177 0.30023 0.38246 0.0
H157 H 0.58591 0.38163 0.37003 0.0
H158 H 0.52809 0.44171 0.44424 0.0
H159 H 0.46045 0.36104 0.45658 0.0
Ho160 Ho 0.84466 0.66388 0.10448 0.0
Ho161 Ho 0.79887 0.71737 0.13462 0.0
C162 C 0.73435 0.60373 0.12662 0.0
C163 C 0.87867 0.60803 0.08621 0.0
C164 C 0.88435 0.56632 0.09597 0.0
C165 C 0.8848 0.55309 0.13131 0.0
C166 C 0.89523 0.51654 0.13953 0.0
C167 C 0.90517 0.4923 0.11259 0.0
C168 C 0.90421 0.5054 0.07732 0.0
C169 C 0.89406 0.54198 0.06917 0.0
C170 C 0.81366 0.70801 0.0566 0.0
C171 C 0.91689 0.7721 0.1236 0.0
C172 C 0.77102 0.77992 0.14075 0.0
C173 C 0.79522 0.833 0.13981 0.0
C174 C 0.78014 0.85507 0.11495 0.0
C175 C 0.80236 0.90513 0.11321 0.0
C176 C 0.84003 0.93405 0.13635 0.0
C177 C 0.85585 0.91223 0.16086 0.0
C178 C 0.83367 0.86205 0.16256 0.0
C179 C 0.82004 0.67357 0.18646 0.0
O180 O 0.77582 0.60439 0.12705 0.0
O181 O 0.73287 0.64426 0.12532 0.0
O182 O 0.83627 0.60041 0.07667 0.0
O183 O 0.90205 0.64702 0.10508 0.0
O184 O 0.85267 0.7057 0.05284 0.0
O185 O 0.79358 0.68497 0.08393 0.0
O186 O 0.87818 0.77644 0.12863 0.0
O187 O 0.91297 0.73053 0.11581 0.0
O188 O 0.77931 0.75996 0.16789 0.0
O189 O 0.77081 0.75938 0.11087 0.0
O190 O 0.7814 0.67701 0.18481 0.0
O191 O 0.84631 0.69339 0.15917 0.0
H192 H 0.87783 0.57148 0.15254 0.0
H193 H 0.8956 0.50716 0.16693 0.0
H194 H 0.91164 0.48744 0.05603 0.0
H195 H 0.89463 0.5519 0.04176 0.0
H196 H 0.75096 0.83349 0.0969 0.0
H197 H 0.78973 0.92135 0.09411 0.0
H198 H 0.8849 0.93406 0.17891 0.0
H199 H 0.84651 0.8461 0.18172 0.0
Ho200 Ho 0.97714 0.26233 0.39125 0.0
Ho201 Ho 0.87682 0.22007 0.41954 0.0
C202 C 0.91427 0.14857 0.40376 0.0
C203 C 0.06909 0.29797 0.38575 0.0
C204 C 0.09765 0.27329 0.38627 0.0
C205 C 0.0834 0.23286 0.40802 0.0
C206 C 0.11123 0.21062 0.41006 0.0
C207 C 0.15364 0.22807 0.39018 0.0
C208 C 0.1675 0.26771 0.36779 0.0
C209 C 0.13969 0.29023 0.36589 0.0
C210 C 0.91015 0.22192 0.33871 0.0
C211 C 0.93051 0.33179 0.39776 0.0
C212 C 0.78605 0.18365 0.43573 0.0
C213 C 0.73869 0.18025 0.42911 0.0
C214 C 0.72429 0.18642 0.39553 0.0
C215 C 0.67747 0.17871 0.38999 0.0
C216 C 0.64398 0.16725 0.41822 0.0
C217 C 0.65779 0.15555 0.45064 0.0
C218 C 0.70445 0.16351 0.45626 0.0
C219 C 0.9504 0.24506 0.46838 0.0
O220 O 0.95778 0.18652 0.40776 0.0
O221 O 0.87663 0.15415 0.40086 0.0
O222 O 0.04143 0.29036 0.35828 0.0
O223 O 0.04734 0.29608 0.41544 0.0
O224 O 0.94897 0.21932 0.34177 0.0
O225 O 0.90772 0.24534 0.36512 0.0
O226 O 0.8892 0.29325 0.40627 0.0
O227 O 0.97034 0.32972 0.39124 0.0
O228 O 0.82056 0.22213 0.45094 0.0
O229 O 0.80224 0.16586 0.4118 0.0
O230 O 0.90841 0.20669 0.47069 0.0
O231 O 0.94908 0.26713 0.44185 0.0
H232 H 0.05109 0.2188 0.42397 0.0
H233 H 0.10002 0.18015 0.42749 0.0
H234 H 0.20022 0.28165 0.35229 0.0
H235 H 0.1513 0.32117 0.34889 0.0
H236 H 0.74871 0.1958 0.37329 0.0
H237 H 0.66786 0.1802 0.36296 0.0
H238 H 0.63261 0.13847 0.47199 0.0
H239 H 0.71324 0.15479 0.4818 0.0
Ho240 Ho 0.10187 0.32939 0.63507 0.0
Ho241 Ho 0.20012 0.37931 0.60631 0.0
C242 C 0.15986 0.27016 0.62137 0.0
C243 C 1.01109 0.26814 0.6421 0.0
C244 C 0.98214 0.21512 0.63902 0.0
C245 C 0.94715 0.19435 0.61236 0.0
C246 C 0.91914 0.14439 0.60914 0.0
C247 C 0.92566 0.11434 0.63249 0.0
C248 C 0.96119 0.1348 0.65871 0.0
C249 C 0.98929 0.1848 0.66194 0.0
C250 C 0.1668 0.37095 0.68786 0.0
C251 C 0.15364 0.44356 0.63061 0.0
C252 C 0.29079 0.43211 0.58849 0.0
C253 C 0.33875 0.47457 0.59641 0.0
C254 C 0.3499 0.49879 0.6291 0.0
C255 C 0.39692 0.537 0.63591 0.0
C256 C 0.43359 0.55129 0.61029 0.0
C257 C 0.42218 0.5267 0.57784 0.0
C258 C 0.37544 0.48892 0.57103 0.0
C259 C 0.12524 0.33575 0.55778 0.0
O260 O 0.11749 0.26795 0.6242 0.0
O261 O 0.1995 0.31166 0.618 0.0
O262 O 0.04068 0.28584 0.66883 0.0
O263 O 1.03014 0.29128 0.61275 0.0
O264 O 0.12578 0.36965 0.68558 0.0
O265 O 0.17214 0.35002 0.66079 0.0
O266 O 0.19342 0.44105 0.62777 0.0
O267 O 0.11123 0.40357 0.62792 0.0
O268 O 0.25659 0.43867 0.57594 0.0
O269 O 0.2743 0.39618 0.61047 0.0
O270 O 0.16509 0.33477 0.55567 0.0
O271 O 0.12898 0.36095 0.58411 0.0
H272 H 0.94116 0.21683 0.59419 0.0
H273 H 0.89168 0.12913 0.58886 0.0
H274 H 0.96645 0.11206 0.67707 0.0
H275 H 1.01619 0.19959 0.6826 0.0
H276 H 0.3224 0.48819 0.64926 0.0
H277 H 0.40456 0.55576 0.66096 0.0
H278 H 0.44946 0.53726 0.5575 0.0
H279 H 0.36798 0.47058 0.54579 0.0
Ho280 Ho 0.23442 0.86706 0.91463 0.0
Ho281 Ho 0.28035 0.96753 0.88587 0.0
C282 C 0.34831 0.92172 0.89551 0.0
C283 C 0.19883 0.77616 0.92906 0.0
C284 C 0.19881 0.73078 0.92116 0.0
C285 C 0.2001 0.71587 0.88652 0.0
C286 C 0.19485 0.67039 0.8798 0.0
C287 C 0.19097 0.63902 0.90763 0.0
C288 C 0.18487 0.65316 0.94195 0.0
C289 C 0.19 0.6984 0.94865 0.0
C290 C 0.25868 0.93948 0.96347 0.0
C291 C 0.16242 0.9039 0.89658 0.0
C292 C 0.30375 0.05703 0.88066 0.0
C293 C 0.27697 0.08343 0.88495 0.0
C294 C 0.24458 0.07342 0.91319 0.0
C295 C 0.22055 0.09951 0.91744 0.0
C296 C 0.22853 0.13622 0.89361 0.0
C297 C 0.26021 0.14571 0.8651 0.0
C298 C 0.28419 0.11956 0.86082 0.0
C299 C 0.26068 0.90211 0.83386 0.0
O300 O 0.30757 0.88003 0.89764 0.0
O301 O 0.34814 0.96294 0.89328 0.0
O302 O 0.23524 0.81057 0.94616 0.0
O303 O 0.18209 0.79264 0.90478 0.0
O304 O 0.22054 0.89727 0.96582 0.0
O305 O 0.28221 0.93899 0.93715 0.0
O306 O 0.20104 0.94667 0.8913 0.0
O307 O 0.16616 0.86614 0.90424 0.0
O308 O 0.29245 0.02832 0.85339 0.0
O309 O 0.31015 0.03818 0.90926 0.0
O310 O 0.29869 0.94475 0.83538 0.0
O311 O 0.23415 0.89627 0.86079 0.0
H312 H 0.20356 0.7387 0.8644 0.0
H313 H 0.19197 0.66043 0.85244 0.0
H314 H 0.1751 0.62901 0.96419 0.0
H315 H 0.18551 0.70749 0.97545 0.0
H316 H 0.23825 0.04583 0.93223 0.0
H317 H 0.19636 0.09163 0.93965 0.0
H318 H 0.26697 0.17394 0.84648 0.0
H319 H 0.30884 0.12794 0.83884 0.0
Ho320 Ho 0.73777 0.79565 0.63965 0.0
Ho321 Ho 0.68028 0.83125 0.60602 0.0
C322 C 0.78794 0.91013 0.62141 0.0
C323 C 0.80455 0.77702 0.65878 0.0
C324 C 0.85773 0.80106 0.6565 0.0
C325 C 0.88417 0.84094 0.63453 0.0
C326 C 0.93373 0.85981 0.62947 0.0
C327 C 0.95867 0.8417 0.64866 0.0
C328 C 0.9327 0.80499 0.67354 0.0
C329 C 0.8826 0.78405 0.6767 0.0
C330 C 0.68217 0.80727 0.68858 0.0
C331 C 0.62477 0.72317 0.6249 0.0
C332 C 0.63408 0.87517 0.58703 0.0
C333 C 0.59166 0.88015 0.59518 0.0
C334 C 0.56223 0.85842 0.62485 0.0
C335 C 0.52327 0.86565 0.6322 0.0
C336 C 0.5135 0.8949 0.61011 0.0
C337 C 0.54317 0.9166 0.58063 0.0
C338 C 0.5818 0.90928 0.57327 0.0
C339 C 0.72075 0.79353 0.55939 0.0
O340 O 0.79107 0.87637 0.63922 0.0
O341 O 0.7499 0.89992 0.60232 0.0
O342 O 0.78049 0.76172 0.62915 0.0
O343 O 0.78745 0.7977 0.67917 0.0
O344 O 0.68774 0.77015 0.68591 0.0
O345 O 0.70357 0.83502 0.66257 0.0
O346 O 0.62197 0.7624 0.628 0.0
O347 O 0.66808 0.72676 0.62316 0.0
O348 O 0.62666 0.83489 0.57304 0.0
O349 O 0.66823 0.89153 0.61055 0.0
O350 O 0.67782 0.78735 0.55762 0.0
O351 O 0.73963 0.82037 0.58571 0.0
H352 H 0.86645 0.85717 0.62099 0.0
H353 H 0.95249 0.88841 0.61044 0.0
H354 H 0.95092 0.79089 0.68934 0.0
H355 H 0.86324 0.75423 0.69469 0.0
H356 H 0.56939 0.836 0.64221 0.0
H357 H 0.50054 0.84818 0.65488 0.0
H358 H 0.53606 0.93888 0.56307 0.0
H359 H 0.60417 0.92656 0.55037 0.0
Ho360 Ho 0.19686 0.38033 0.91748 0.0
Ho361 Ho 0.0995 0.32651 0.88896 0.0
C362 C 0.14869 0.44037 0.89326 0.0
C363 C 0.28566 0.44055 0.93591 0.0
C364 C 0.33452 0.47592 0.9223 0.0
C365 C 0.34379 0.51846 0.90493 0.0
C366 C 0.39131 0.55442 0.89718 0.0
C367 C 0.4305 0.54863 0.90664 0.0
C368 C 0.42114 0.50546 0.92273 0.0
C369 C 0.37376 0.46963 0.93051 0.0
C370 C 0.12314 0.34089 0.96786 0.0
C371 C 0.16196 0.27315 0.90305 0.0
C372 C 1.00998 0.26096 0.87951 0.0
C373 C 0.98148 0.2074 0.88142 0.0
C374 C 0.95059 0.1848 0.91031 0.0
C375 C 0.92176 0.13461 0.91169 0.0
C376 C 0.92291 0.10581 0.88416 0.0
C377 C 0.95435 0.12806 0.85558 0.0
C378 C 0.9833 0.17831 0.85418 0.0
C379 C 0.16458 0.36833 0.836 0.0
O380 O 0.18869 0.43853 0.89213 0.0
O381 O 0.1063 0.40023 0.89638 0.0
O382 O 0.25171 0.45158 0.93418 0.0
O383 O 0.26934 0.39502 0.9298 0.0
O384 O 0.16343 0.34097 0.96967 0.0
O385 O 0.12508 0.36178 0.93954 0.0
O386 O 0.11874 0.26908 0.9045 0.0
O387 O 0.20053 0.31587 0.90151 0.0
O388 O 0.04112 0.28019 0.85379 0.0
O389 O 1.02667 0.28405 0.90926 0.0
O390 O 0.12264 0.36507 0.83775 0.0
O391 O 0.17068 0.34876 0.8634 0.0
H392 H 0.31453 0.52475 0.8984 0.0
H393 H 0.39763 0.58753 0.885 0.0
H394 H 0.45072 0.50031 0.93054 0.0
H395 H 0.36793 0.43763 0.94425 0.0
H396 H 0.94815 0.20601 0.93166 0.0
H397 H 0.8977 0.11824 0.93394 0.0
H398 H 0.95574 0.10656 0.83401 0.0
H399 H 1.00656 0.19431 0.8315 0.0
Ho400 Ho 0.27835 0.96448 0.63628 0.0
Ho401 Ho 0.23498 0.8658 0.60411 0.0
C402 C 0.16065 0.89981 0.62182 0.0
C403 C 0.301 0.05373 0.64154 0.0
C404 C 0.27333 0.07936 0.63884 0.0
C405 C 0.24117 0.07014 0.61069 0.0
C406 C 0.21653 0.09567 0.60759 0.0
C407 C 0.22417 0.13161 0.63218 0.0
C408 C 0.2557 0.14042 0.66059 0.0
C409 C 0.27997 0.11444 0.66392 0.0
C410 C 0.25703 0.89788 0.68666 0.0
C411 C 0.34524 0.91763 0.62758 0.0
C412 C 0.20179 0.77603 0.58691 0.0
C413 C 0.19992 0.73001 0.59538 0.0
C414 C 0.20249 0.71663 0.6303 0.0
C415 C 0.19447 0.67035 0.63773 0.0
C416 C 0.18357 0.63657 0.61045 0.0
C417 C 0.1821 0.65036 0.57552 0.0
C418 C 0.19009 0.69655 0.56811 0.0
C419 C 0.26663 0.94174 0.55725 0.0
O420 O 0.198 0.94055 0.63323 0.0
O421 O 0.16646 0.866 0.60734 0.0
O422 O 0.29265 0.02606 0.66906 0.0
O423 O 0.30508 0.03413 0.61239 0.0
O424 O 0.29493 0.94075 0.68636 0.0
O425 O 0.23126 0.89185 0.65909 0.0
O426 O 0.30429 0.87638 0.62647 0.0
O427 O 0.34587 0.95933 0.62808 0.0
O428 O 0.2414 0.81141 0.57365 0.0
O429 O 0.18069 0.79095 0.60901 0.0
O430 O 0.22943 0.89959 0.55182 0.0
O431 O 0.28551 0.93877 0.58528 0.0
H432 H 0.23551 0.04364 0.59071 0.0
H433 H 0.19252 0.08836 0.58542 0.0
H434 H 0.26225 0.1681 0.67978 0.0
H435 H 0.3046 0.12236 0.68577 0.0
H436 H 0.20968 0.74155 0.65187 0.0
H437 H 0.19619 0.66064 0.66484 0.0
H438 H 0.17409 0.62511 0.55406 0.0
H439 H 0.18738 0.70577 0.54103 0.0
Ho440 Ho 0.67889 0.82452 0.92206 0.0
Ho441 Ho 0.73842 0.78443 0.88965 0.0
C442 C 0.62385 0.7142 0.89589 0.0
C443 C 0.61749 0.85042 0.94316 0.0
C444 C 0.57765 0.85841 0.93135 0.0
C445 C 0.57927 0.88067 0.89896 0.0
C446 C 0.54377 0.8926 0.89048 0.0
C447 C 0.50595 0.88257 0.91418 0.0
C448 C 0.50387 0.85948 0.94616 0.0
C449 C 0.53926 0.84757 0.95461 0.0
C450 C 0.73124 0.80048 0.96767 0.0
C451 C 0.78111 0.9011 0.89486 0.0
C452 C 0.80346 0.75907 0.8893 0.0
C453 C 0.85682 0.78557 0.88835 0.0
C454 C 0.88233 0.77885 0.91575 0.0
C455 C 0.93274 0.80368 0.91578 0.0
C456 C 0.95854 0.83555 0.88831 0.0
C457 C 0.93328 0.84296 0.86113 0.0
C458 C 0.88279 0.81833 0.8612 0.0
C459 C 0.70421 0.80861 0.83391 0.0
O460 O 0.62077 0.75302 0.90215 0.0
O461 O 0.66594 0.71571 0.89297 0.0
O462 O 0.60928 0.80637 0.94519 0.0
O463 O 0.66081 0.88007 0.93154 0.0
O464 O 0.72625 0.83776 0.97167 0.0
O465 O 0.70667 0.77817 0.94133 0.0
O466 O 0.79136 0.86573 0.89546 0.0
O467 O 0.73689 0.89231 0.89936 0.0
O468 O 0.78043 0.75936 0.86093 0.0
O469 O 0.78428 0.76463 0.91799 0.0
O470 O 0.72904 0.78703 0.83242 0.0
O471 O 0.69486 0.81454 0.86597 0.0
H472 H 0.6085 0.88978 0.88053 0.0
H473 H 0.54624 0.91039 0.86567 0.0
H474 H 0.47519 0.85136 0.96489 0.0
H475 H 0.53727 0.83088 0.97986 0.0
H476 H 0.86318 0.75421 0.93716 0.0
H477 H 0.95164 0.79737 0.93688 0.0
H478 H 0.95267 0.86726 0.83963 0.0
H479 H 0.86419 0.82474 0.83993 0.0
C480 C 0.18056 0.16261 0.15589 0.0
C481 C 0.18129 0.19512 0.13015 0.0
C482 C 0.2395 0.18419 0.09472 0.0
C483 C 0.24269 0.15568 0.12211 0.0
N484 N 0.21598 0.11647 0.1784 0.0
N485 N 0.21045 0.23703 0.07492 0.0
C486 C 0.21251 0.1439 0.15235 0.0
C487 C 0.21026 0.20565 0.09939 0.0
N488 N 0.1492 0.14969 0.18373 0.0
N489 N 0.26366 0.18964 0.06374 0.0
H490 H 0.18727 0.25095 0.07616 0.0
H491 H 0.23488 0.25128 0.05413 0.0
H492 H 0.2853 0.17456 0.05959 0.0
H493 H 0.2595 0.20549 0.04113 0.0
H494 H 0.14271 0.12246 0.20147 0.0
H495 H 0.12744 0.16473 0.1883 0.0
H496 H 0.20053 0.11173 0.20333 0.0
H497 H 0.23559 0.09893 0.17529 0.0
C498 C 0.04566 0.84492 0.42747 0.0
C499 C 0.06479 0.87932 0.39991 0.0
C500 C 0.98276 0.85145 0.37766 0.0
C501 C 0.96371 0.81577 0.40458 0.0
N502 N 0.97531 0.78786 0.46064 0.0
N503 N 0.05231 0.92184 0.35269 0.0
C504 C 0.99479 0.81542 0.43115 0.0
C505 C 1.03346 0.88463 0.37625 0.0
N506 N 0.07628 0.83949 0.44957 0.0
N507 N 0.95276 0.85256 0.35264 0.0
H508 H 0.08921 0.94572 0.35024 0.0
H509 H 1.03162 0.93122 0.33712 0.0
H510 H 0.91547 0.8331 0.35492 0.0
H511 H 0.96455 0.87209 0.32929 0.0
H512 H 0.06511 0.81122 0.46735 0.0
H513 H 0.11362 0.86174 0.44875 0.0
H514 H 0.99527 0.78943 0.48276 0.0
H515 H 0.93828 0.76672 0.46452 0.0
C516 C 0.90239 0.06293 0.10288 0.0
C517 C 0.89351 0.0867 0.13107 0.0
C518 C 0.84857 1.00995 0.16256 0.0
C519 C 0.86111 0.98716 0.13578 0.0
N520 N 0.90821 0.99379 0.08415 0.0
N521 N 0.86601 0.08458 0.19076 0.0
C522 C 0.89084 1.01434 0.10715 0.0
C523 C 0.86902 0.06068 0.16186 0.0
N524 N 0.91861 0.08552 0.07115 0.0
N525 N 0.81542 0.98296 0.18779 0.0
H526 H 0.88091 0.1217 0.19128 0.0
H527 H 0.8529 0.06833 0.21518 0.0
H528 H 0.79953 0.94569 0.18931 0.0
H529 H 0.8006 0.997 0.20539 0.0
H530 H 0.9216 0.06849 0.04863 0.0
H531 H 0.9238 0.11964 0.06632 0.0
H532 H 0.93386 1.01321 0.06484 0.0
H533 H 0.90031 0.95823 0.08651 0.0
C534 C 0.24637 0.1982 0.42669 0.0
C535 C 0.24586 0.1665 0.40025 0.0
C536 C 0.17923 0.16924 0.3704 0.0
C537 C 0.18453 0.20589 0.39408 0.0
N538 N 0.22523 0.25823 0.44339 0.0
N539 N 0.21385 0.12367 0.3455 0.0
C540 C 0.21855 0.22104 0.42197 0.0
C541 C 0.21242 0.15199 0.37191 0.0
N542 N 0.2724 0.20523 0.45691 0.0
N543 N 0.14199 0.15045 0.34681 0.0
H544 H 0.23627 0.10893 0.34616 0.0
H545 H 0.19491 0.11698 0.32192 0.0
H546 H 0.11777 0.163 0.34444 0.0
H547 H 0.13277 0.12008 0.33152 0.0
H548 H 0.27054 0.22395 0.47879 0.0
H549 H 0.29231 0.18822 0.46157 0.0
H550 H 0.25326 0.27468 0.46153 0.0
H551 H 0.2048 0.27514 0.44134 0.0
C552 C 0.04681 0.83272 0.15392 0.0
C553 C 0.0674 0.87756 0.13637 0.0
C554 C 0.98723 0.85718 0.11378 0.0
C555 C 0.96669 0.81231 0.13164 0.0
N556 N 0.97505 0.7645 0.17725 0.0
N557 N 0.05695 0.93698 0.10543 0.0
C558 C 0.99598 0.80244 0.15439 0.0
C559 C 1.03741 0.89124 0.11817 0.0
N560 N 0.07594 0.81784 0.16883 0.0
N561 N 0.9595 0.86643 0.09143 0.0
H562 H 0.09348 0.96232 0.10795 0.0
H563 H 1.03665 0.95105 0.09495 0.0
H564 H 0.92252 0.84361 0.08885 0.0
H565 H 0.97335 0.89553 0.07422 0.0
H566 H 0.0633 0.78296 0.17787 0.0
H567 H 0.11339 0.83901 0.16964 0.0
H568 H 0.99393 0.75874 0.19716 0.0
H569 H 0.93799 0.7415 0.17885 0.0
C570 C 0.85018 1.01432 0.42208 0.0
C571 C 0.87106 0.99783 0.39653 0.0
C572 C 0.92566 0.08157 0.37789 0.0
C573 C 0.90545 0.09808 0.40413 0.0
N574 N 0.85808 0.0809 0.45728 0.0
N575 N 0.93501 1.01578 0.35515 0.0
C576 C 0.87065 0.06457 0.42807 0.0
C577 C 0.91089 0.03156 0.37604 0.0
N578 N 0.80939 0.98205 0.43967 0.0
N579 N 0.95704 0.11307 0.35355 0.0
H580 H 0.92482 0.97954 0.353 0.0
H581 H 0.96729 0.03868 0.34236 0.0
H582 H 0.96969 0.14985 0.35446 0.0
H583 H 0.96834 0.10245 0.3312 0.0
H584 H 0.78914 0.99208 0.45537 0.0
H585 H 0.79337 0.94495 0.43638 0.0
H586 H 0.83673 0.05861 0.47763 0.0
H587 H 0.87332 0.11731 0.46304 0.0
C588 C 0.16433 0.15761 0.64978 0.0
C589 C 0.20162 0.16216 0.62691 0.0
C590 C 0.19568 0.2243 0.59357 0.0
C591 C 0.16507 0.2262 0.62002 0.0
N592 N 0.11834 0.19271 0.67315 0.0
N593 N 0.25632 0.20337 0.57871 0.0
C594 C 0.14824 0.1918 0.64784 0.0
C595 C 0.21788 0.1961 0.59901 0.0
N596 N 0.14355 0.11986 0.67279 0.0
N597 N 0.20276 0.24884 0.56269 0.0
H598 H 0.27427 0.18412 0.58196 0.0
H599 H 0.2732 0.23142 0.56068 0.0
H600 H 0.1862 0.26891 0.55745 0.0
H601 H 0.22042 0.24493 0.54088 0.0
H602 H 0.11302 0.11143 0.68774 0.0
H603 H 0.15446 0.09434 0.67479 0.0
H604 H 0.11081 0.17396 0.69687 0.0
H605 H 0.10175 0.2132 0.67079 0.0
C606 C 0.09246 0.91887 0.90783 0.0
C607 C 0.11276 0.89484 0.88905 0.0
C608 C 1.03254 0.8352 0.86719 0.0
C609 C 1.01197 0.85816 0.88672 0.0
N610 N 1.02179 0.92632 0.92006 0.0
N611 N 0.10448 0.84073 0.84181 0.0
C612 C 0.04188 0.90157 0.90526 0.0
C613 C 0.0834 0.85626 0.86592 0.0
N614 N 0.12113 0.95711 0.92892 0.0
N615 N 1.00338 0.79214 0.85093 0.0
H616 H 0.14171 0.85626 0.83938 0.0
H617 H 0.08556 0.81622 0.82178 0.0
H618 H 0.96593 0.77597 0.85035 0.0
H619 H 1.01602 0.77065 0.84017 0.0
H620 H 0.10823 0.97255 0.94689 0.0
H621 H 0.15843 0.97299 0.92899 0.0
H622 H 0.0416 0.96038 0.93118 0.0
H623 H 0.98489 0.91404 0.9191 0.0
C624 C 0.87121 0.98106 0.60966 0.0
C625 C 0.82509 0.96187 0.62586 0.0
C626 C 0.84709 0.0421 0.64858 0.0
C627 C 0.89223 0.0615 0.63126 0.0
N628 N 0.9505 0.05071 0.59851 0.0
N629 N 0.76611 0.97551 0.65576 0.0
C630 C 0.90527 0.03124 0.61274 0.0
C631 C 0.8123 0.99276 0.64405 0.0
N632 N 0.88106 0.95173 0.58948 0.0
N633 N 0.83815 0.07069 0.67053 0.0
H634 H 0.7395 0.9395 0.65441 0.0
H635 H 0.75281 0.99732 0.66461 0.0
H636 H 0.86225 0.10727 0.67407 0.0
H637 H 0.80879 0.05761 0.68762 0.0
H638 H 0.91212 0.96302 0.57454 0.0
H639 H 0.85635 0.91552 0.58605 0.0
H640 H 0.96459 0.03094 0.58709 0.0
H641 H 0.97549 0.0874 0.59948 0.0
C642 C 0.14864 0.1924 0.88046 0.0
C643 C 0.16924 0.23063 0.90548 0.0
C644 C 0.22511 0.20377 0.92499 0.0
C645 C 0.20569 0.16649 0.89938 0.0
N646 N 0.1424 0.11823 0.85835 0.0
N647 N 0.21468 0.26182 0.95913 0.0
C648 C 0.16529 0.1586 0.87886 0.0
C649 C 0.20366 0.23282 0.9301 0.0
N650 N 0.1145 0.18926 0.8574 0.0
N651 N 0.26538 0.21281 0.94349 0.0
H652 H 0.19806 0.28198 0.96434 0.0
H653 H 0.23586 0.26175 0.97991 0.0
H654 H 0.28194 0.19211 0.94093 0.0
H655 H 0.28455 0.24298 0.95943 0.0
H656 H 0.10303 0.16681 0.83539 0.0
H657 H 0.09833 0.21027 0.85959 0.0
H658 H 0.10996 0.10744 0.84541 0.0
H659 H 0.15396 0.09319 0.85646 0.0
C660 C 0.07505 0.83886 0.63772 0.0
C661 C 0.10977 0.88743 0.62981 0.0
C662 C 0.04667 0.90819 0.64054 0.0
C663 C 1.01091 0.85849 0.64139 0.0
N664 N 0.99287 0.7774 0.62798 0.0
N665 N 0.12398 0.96696 0.61627 0.0
C666 C 1.02558 0.82405 0.63595 0.0
C667 C 0.09439 0.92194 0.62913 0.0
N668 N 0.08869 0.80717 0.64913 0.0
N669 N 1.03608 0.94219 0.65184 0.0
H670 H 0.15731 0.97694 0.605 0.0
H671 H 0.1128 0.99208 0.61293 0.0
H672 H 1.00269 0.93353 0.66253 0.0
H673 H 0.06219 0.97838 0.65428 0.0
H674 H 0.06371 0.77225 0.65691 0.0
H675 H 0.12413 0.81763 0.65583 0.0
H676 H 1.0033 0.7523 0.62164 0.0
H677 H 0.95656 0.76556 0.62338 0.0
C678 C 0.84686 0.03223 0.86323 0.0
C679 C 0.88894 0.0526 0.88452 0.0
C680 C 0.85898 0.97488 0.91416 0.0
C681 C 0.81962 0.95281 0.89024 0.0
N682 N 0.77848 0.96062 0.83941 0.0
N683 N 0.93946 0.04109 0.92563 0.0
C684 C 0.81438 0.98157 0.86395 0.0
C685 C 0.89651 1.02306 0.90832 0.0
N686 N 0.83656 0.06159 0.84358 0.0
N687 N 0.85814 0.95178 0.94453 0.0
H688 H 0.96754 0.07633 0.92221 0.0
H689 H 0.94865 1.01978 0.94069 0.0
H690 H 0.82782 0.91992 0.95216 0.0
H691 H 0.88396 0.96747 0.96435 0.0
H692 H 0.80367 0.04986 0.83103 0.0
H693 H 0.85934 0.09869 0.84211 0.0
H694 H 0.77667 0.97837 0.81701 0.0
H695 H 0.75225 0.9244 0.83984 0.0
C696 C 0.37883 0.19736 0.27984 0.0
C697 C 0.37941 0.1594 0.29846 0.0
C698 C 0.38377 0.12361 0.24192 0.0
C699 C 0.37565 0.15733 0.22329 0.0
N700 N 0.36814 0.22795 0.22361 0.0
N701 N 0.38399 0.08688 0.29784 0.0
C702 C 0.37488 0.1953 0.24202 0.0
C703 C 0.38375 0.12346 0.2796 0.0
N704 N 0.38142 0.23491 0.29865 0.0
N705 N 0.39005 0.09058 0.22345 0.0
H706 H 0.38631 0.08653 0.32526 0.0
H707 H 0.37988 0.05567 0.28626 0.0
H708 H 0.38659 0.08701 0.19616 0.0
H709 H 0.40171 0.06867 0.23464 0.0
H710 H 0.38402 0.26554 0.2873 0.0
H711 H 0.38458 0.23676 0.32614 0.0
H712 H 0.36237 0.25397 0.23529 0.0
H713 H 0.36712 0.22808 0.19605 0.0
C714 C 0.85735 0.72344 0.27828 0.0
C715 C 0.83885 0.68016 0.29794 0.0
C716 C 0.82554 0.63468 0.24257 0.0
C717 C 0.83976 0.6773 0.22291 0.0
N718 N 0.88083 0.76399 0.22182 0.0
N719 N 0.81698 0.59726 0.30029 0.0
C720 C 0.86024 0.72228 0.24077 0.0
C721 C 0.82725 0.63666 0.28043 0.0
N722 N 0.86812 0.76514 0.29537 0.0
N723 N 0.80814 0.59211 0.22487 0.0
H724 H 0.81852 0.59872 0.32785 0.0
H725 H 0.81074 0.56468 0.28982 0.0
H726 H 0.80879 0.5905 0.19732 0.0
H727 H 0.79239 0.55867 0.23706 0.0
H728 H 0.87479 0.79661 0.28274 0.0
H729 H 0.86787 0.76757 0.32275 0.0
H730 H 0.90142 0.79793 0.23299 0.0
H731 H 0.88082 0.76478 0.19444 0.0
C732 C 0.92583 0.27006 0.24514 0.0
C733 C 0.89346 0.22765 0.22645 0.0
C734 C 0.86124 0.18571 0.2831 0.0
C735 C 0.89612 0.22695 0.30172 0.0
N736 N 0.95304 0.31214 0.30085 0.0
N737 N 0.82192 0.15035 0.22694 0.0
C738 C 0.92511 0.27044 0.28282 0.0
C739 C 0.85812 0.18726 0.24538 0.0
N740 N 0.96008 0.30895 0.22694 0.0
N741 N 0.8327 0.14445 0.30145 0.0
H742 H 0.81924 0.15161 0.19951 0.0
H743 H 0.79282 0.12083 0.23869 0.0
H744 H 0.83287 0.14318 0.32901 0.0
H745 H 0.8102 0.1114 0.28958 0.0
H746 H 0.98964 0.33802 0.2387 0.0
H747 H 0.96034 0.31141 0.19955 0.0
H748 H 0.97016 0.34596 0.28915 0.0
H749 H 0.95594 0.31361 0.32812 0.0
C750 C 0.21443 0.40877 0.74316 0.0
C751 C 0.18188 0.36659 0.72451 0.0
C752 C 0.15882 0.32246 0.78085 0.0
C753 C 0.18254 0.3665 0.79971 0.0
N754 N 0.23551 0.45201 0.79919 0.0
N755 N 0.12127 0.28259 0.72604 0.0
C756 C 0.21186 0.40978 0.78094 0.0
C757 C 0.15444 0.32293 0.74344 0.0
N758 N 0.24746 0.44771 0.72454 0.0
N759 N 0.13934 0.28011 0.79887 0.0
H760 H 0.11721 0.28138 0.69875 0.0
H761 H 0.09565 0.25147 0.73875 0.0
H762 H 0.1425 0.27896 0.82612 0.0
H763 H 0.12501 0.24668 0.78662 0.0
H764 H 0.27443 0.47899 0.73624 0.0
H765 H 0.25055 0.44628 0.69716 0.0
H766 H 0.25311 0.48561 0.78715 0.0
H767 H 0.23591 0.45312 0.82677 0.0
C768 C 0.21808 0.90438 0.77828 0.0
C769 C 0.241 0.88356 0.79767 0.0
C770 C 0.2573 0.85452 0.74195 0.0
C771 C 0.23719 0.87797 0.72258 0.0
N772 N 0.18178 0.90783 0.72305 0.0
N773 N 0.26663 0.82519 0.79904 0.0
C774 C 0.21163 0.89669 0.74109 0.0
C775 C 0.25517 0.85383 0.77976 0.0
N776 N 0.20539 0.93428 0.79479 0.0
N777 N 0.28036 0.83488 0.72414 0.0
H778 H 0.26373 0.82354 0.82656 0.0
H779 H 0.27426 0.80012 0.78783 0.0
H780 H 0.28021 0.83305 0.69658 0.0
H781 H 0.30068 0.82209 0.73651 0.0
H782 H 0.19451 0.9554 0.78128 0.0
H783 H 0.20847 0.94031 0.82192 0.0
H784 H 0.15928 0.91819 0.73534 0.0
H785 H 0.17508 0.90076 0.69621 0.0
C786 C 0.72547 0.85933 0.74162 0.0
C787 C 0.6816 0.82439 0.72565 0.0
C788 C 0.64656 0.79947 0.7855 0.0
C789 C 0.69327 0.82558 0.80035 0.0
N790 N 0.7785 0.87909 0.79184 0.0
N791 N 0.59846 0.76366 0.73256 0.0
C792 C 0.73283 0.85603 0.77829 0.0
C793 C 0.64123 0.79588 0.74779 0.0
N794 N 0.76065 0.89534 0.72199 0.0
N795 N 0.60777 0.77684 0.80749 0.0
H796 H 0.59323 0.76218 0.70526 0.0
H797 H 0.56898 0.73771 0.74664 0.0
H798 H 0.61153 0.77942 0.8349 0.0
H799 H 0.57219 0.75935 0.79885 0.0
H800 H 0.79132 0.92413 0.73299 0.0
H801 H 0.75658 0.90005 0.69547 0.0
H802 H 0.80941 0.89601 0.77624 0.0
H803 H 0.78571 0.87874 0.81865 0.0
C804 C 0.32598 1.00221 1.00093 0.0
C805 C 0.27724 0.98029 0.99004 0.0
C806 C 0.27051 0.04381 0.02277 0.0
C807 C 0.32108 0.06873 0.02953 0.0
N808 N 0.39801 0.07572 0.01714 0.0
N809 N 0.20191 0.97969 0.99153 0.0
C810 C 0.34894 0.04888 0.01642 0.0
C811 C 0.24905 1.00082 1.00146 0.0
N812 N 0.34984 0.9771 0.99853 0.0
N813 N 0.24267 0.06024 0.03766 0.0
H814 H 0.18444 0.94695 0.97821 0.0
H815 H 0.1806 0.99535 0.9951 0.0
H816 H 0.25727 0.09258 0.05136 0.0
H817 H 0.20519 0.04102 0.038 0.0
H818 H 0.38361 0.98911 1.00979 0.0
H819 H 0.33357 0.9419 0.98905 0.0
H820 H 0.42031 0.06482 1.0052 0.0
H821 H 0.41597 0.11132 0.02562 0.0
C822 C 0.81534 0.77307 0.50731 0.0
C823 C 0.78503 0.73029 0.48845 0.0
C824 C 0.71591 0.73879 0.50757 0.0
C825 C 0.74448 0.77477 0.53311 0.0
N826 N 0.82522 0.82212 0.55789 0.0
N827 N 0.70307 0.66647 0.4785 0.0
C828 C 0.79519 0.79053 0.53329 0.0
C829 C 0.73437 0.71135 0.49098 0.0
N830 N 0.86328 0.79913 0.49923 0.0
N831 N 0.67221 0.7319 0.49699 0.0
H832 H 0.71426 0.64361 0.46832 0.0
H833 H 0.66596 0.64987 0.48255 0.0
H834 H 0.65955 0.75508 0.50323 0.0
H835 H 0.65232 0.70801 0.47684 0.0
H836 H 0.88606 0.83342 0.50931 0.0
H837 H 0.87907 0.78955 0.47912 0.0
H838 H 0.86059 0.8296 0.56111 0.0
H839 H 0.81469 0.83821 0.57667 0.0
C840 C 0.07612 0.28629 0.02095 0.0
C841 C 0.07994 0.31812 0.99327 0.0
C842 C 0.99432 0.29401 1.00411 0.0
C843 C 0.99095 0.26391 0.03271 0.0
N844 N 1.0238 0.21642 0.05577 0.0
N845 N 0.0459 0.36504 0.97056 0.0
C846 C 1.03052 0.25592 0.03772 0.0
C847 C 0.0399 0.32542 0.98814 0.0
N848 N 0.11643 0.28728 0.03368 0.0
N849 N 0.95343 0.28992 0.98969 0.0
H850 H 0.07949 0.39295 0.96311 0.0
H851 H 1.01895 0.37405 0.96874 0.0
H852 H 0.91904 0.26286 0.9968 0.0
H853 H 0.95368 0.30788 0.96674 0.0
H854 H 0.11616 0.26853 0.05618 0.0
H855 H 0.15118 0.31202 0.02569 0.0
H856 H 0.0492 0.20524 0.05625 0.0
H857 H 0.99057 0.19079 0.06552 0.0
C858 C 0.35948 0.06238 0.51565 0.0
C859 C 0.33091 0.07523 0.49465 0.0
C860 C 0.25802 1.00106 0.51617 0.0
C861 C 0.28766 0.9859 0.5335 0.0
N862 N 0.36784 0.99774 0.54004 0.0
N863 N 0.25181 0.06498 0.48665 0.0
C864 C 0.33863 1.01544 0.53057 0.0
C865 C 0.27967 0.04637 0.49771 0.0
N866 N 0.40577 0.09583 0.52412 0.0
N867 N 0.20905 0.97232 0.51724 0.0
H868 H 0.26636 0.10019 0.47779 0.0
H869 H 0.21474 0.04842 0.49023 0.0
H870 H 0.19143 0.94214 0.53327 0.0
H871 H 0.18557 0.97678 0.50089 0.0
H872 H 0.42642 0.08902 0.54188 0.0
H873 H 0.42106 0.13216 0.51841 0.0
H874 H 0.40479 1.01588 0.53504 0.0
H875 H 0.35462 0.96251 0.54831 0.0
C876 C 0.74303 0.71253 0.02945 0.0
C877 C 0.79393 0.73281 0.03324 0.0
C878 C 0.80468 0.79911 0.99393 0.0
C879 C 0.75397 0.78096 0.99313 0.0
N880 N 0.67692 0.72732 0.019 0.0
N881 N 0.87294 0.80198 0.02383 0.0
C882 C 0.7239 0.73985 0.01369 0.0
C883 C 0.82469 0.77803 0.01685 0.0
N884 N 0.71249 0.66588 0.03885 0.0
N885 N 0.83386 0.83515 0.97147 0.0
H886 H 0.88936 0.78855 0.04023 0.0
H887 H 0.8961 0.83729 0.01597 0.0
H888 H 0.82007 0.84925 0.95335 0.0
H889 H 0.87031 0.84687 0.9679 0.0
H890 H 0.67562 0.64818 0.03374 0.0
H891 H 0.72445 0.64292 0.04742 0.0
H892 H 0.65427 0.7004 0.0365 0.0
H893 H 0.66235 0.74748 1.00893 0.0
C894 C 0.05895 0.33768 0.52221 0.0
C895 C 0.08091 0.31118 0.53408 0.0
C896 C 1.01543 0.23899 0.50403 0.0
C897 C 0.99209 0.26508 0.4944 0.0
N898 N 0.98592 0.33598 0.50325 0.0
N899 N 0.07432 0.23351 0.54102 0.0
C900 C 1.01233 0.31347 0.50608 0.0
C901 C 0.05762 0.26097 0.52615 0.0
N902 N 0.08358 0.38668 0.52478 0.0
N903 N 0.99827 0.19356 0.49119 0.0
H904 H 0.10484 0.24786 0.55682 0.0
H905 H 0.05584 0.19611 0.54006 0.0
H906 H 0.96657 0.17553 0.47663 0.0
H907 H 1.01697 0.17491 0.49309 0.0
H908 H 0.07174 0.4083 0.51322 0.0
H909 H 0.11836 0.40616 0.535 0.0
H910 H 0.99633 0.36932 0.51462 0.0
H911 H 0.95106 0.31907 0.49299 0.0
C912 C 0.5625 0.11627 0.14363 0.0
C913 C 0.59401 0.14645 0.11667 0.0
C914 C 0.52869 0.15685 0.09288 0.0
C915 C 0.49851 0.13118 0.12204 0.0
N916 N 0.48919 0.09067 0.17745 0.0
N917 N 0.60971 0.20251 0.06946 0.0
C918 C 0.516 0.11174 0.14797 0.0
C919 C 0.57777 0.1687 0.09241 0.0
N920 N 0.57652 0.09089 0.16454 0.0
N921 N 0.50994 0.16839 0.06467 0.0
H922 H 0.64605 0.21246 0.06833 0.0
H923 H 0.6013 0.22401 0.05394 0.0
H924 H 0.47411 0.15983 0.06336 0.0
H925 H 0.52851 0.18198 0.04102 0.0
H926 H 0.5535 0.06428 0.18205 0.0
H927 H 0.61039 0.09391 0.1625 0.0
H928 H 0.50219 0.08126 0.19938 0.0
H929 H 0.45476 0.08542 0.18089 0.0
C930 C 0.64936 0.54279 0.36786 0.0
C931 C 0.68442 0.562 0.39509 0.0
C932 C 0.64172 0.48498 0.42702 0.0
C933 C 0.60481 0.46692 0.40116 0.0
N934 N 0.56993 0.47991 0.34908 0.0
N935 N 0.70977 0.55418 0.45354 0.0
C936 C 0.60763 0.49624 0.37214 0.0
C937 C 0.67935 0.5338 0.42548 0.0
N938 N 0.6569 0.56821 0.33735 0.0
N939 N 0.64167 0.4549 0.45254 0.0
H940 H 0.7382 0.5895 0.45354 0.0
H941 H 0.70447 0.5376 0.47803 0.0
H942 H 0.61461 0.41904 0.4548 0.0
H943 H 0.67042 0.4641 0.4696 0.0
H944 H 0.63581 0.55422 0.31482 0.0
H945 H 0.68648 0.60254 0.33372 0.0
H946 H 0.56717 0.50115 0.32957 0.0
H947 H 0.53957 0.44574 0.35094 0.0
C948 C 0.96644 0.41548 0.11195 0.0
C949 C 0.93195 0.37347 0.1303 0.0
C950 C 0.88054 0.40981 0.13744 0.0
C951 C 0.9158 0.45265 0.12089 0.0
N952 N 0.99845 0.50089 0.1022 0.0
N953 N 0.86634 0.34121 0.17241 0.0
C954 C 0.96078 0.45697 0.11132 0.0
C955 C 0.89231 0.37413 0.14688 0.0
N956 N 1.003 0.41549 0.09337 0.0
N957 N 0.83488 0.40167 0.14267 0.0
H958 H 0.87613 0.31692 0.18205 0.0
H959 H 0.83919 0.34224 0.18694 0.0
H960 H 0.82395 0.42586 0.13499 0.0
H961 H 0.80673 0.36869 0.15127 0.0
H962 H 1.0257 0.44343 0.07659 0.0
H963 H 1.00851 0.3863 0.0922 0.0
H964 H 1.03338 0.50723 0.09848 0.0
H965 H 0.99579 0.53194 0.10206 0.0
C966 C 0.5096 0.12563 0.43447 0.0
C967 C 0.49357 0.12886 0.40031 0.0
C968 C 0.57823 0.17145 0.38038 0.0
C969 C 0.59366 0.16213 0.41324 0.0
N970 N 0.57579 0.16695 0.47455 0.0
N971 N 0.51274 0.1499 0.33919 0.0
C972 C 0.55993 0.14861 0.44161 0.0
C973 C 0.52801 0.14981 0.37277 0.0
N974 N 0.477 0.10226 0.46076 0.0
N975 N 0.61036 0.20858 0.35984 0.0
H976 H 0.47629 0.13449 0.33292 0.0
H977 H 0.53588 0.16089 0.31745 0.0
H978 H 0.64468 0.23331 0.36906 0.0
H979 H 0.60061 0.21976 0.33707 0.0
H980 H 0.48713 0.09597 0.48545 0.0
H981 H 0.43992 0.08511 0.45664 0.0
H982 H 0.55261 0.16192 0.49556 0.0
H983 H 0.61141 0.19371 0.47904 0.0
C984 C 0.65015 0.47793 0.09158 0.0
C985 C 0.61077 0.46079 0.11541 0.0
C986 C 0.65251 0.53767 0.14786 0.0
C987 C 0.68979 0.55598 0.12213 0.0
N988 N 0.71812 0.54697 0.065 0.0
N989 N 0.5707 0.47664 0.16316 0.0
C990 C 0.68687 0.52703 0.09272 0.0
C991 C 0.61088 0.49133 0.14276 0.0
N992 N 0.6533 0.44685 0.06844 0.0
N993 N 0.65762 0.5637 0.17776 0.0
H994 H 0.53988 0.44297 0.16037 0.0
H995 H 0.5665 0.49906 0.18094 0.0
H996 H 0.68725 0.59777 0.1821 0.0
H997 H 0.63439 0.55018 0.19932 0.0
H998 H 0.68375 0.45608 0.05312 0.0
H999 H 0.62746 0.41044 0.06702 0.0
H1000 H 0.71447 0.52905 0.04123 0.0
H1001 H 0.74478 0.5831 0.0642 0.0
C1002 C 0.88384 0.41695 0.37743 0.0
C1003 C 0.91186 0.45577 0.40068 0.0
C1004 C 0.95808 0.41684 0.41841 0.0
C1005 C 0.93016 0.37806 0.39497 0.0
N1006 N 0.87469 0.34677 0.3462 0.0
N1007 N 0.98191 0.498 0.4376 0.0
C1008 C 0.89564 0.38 0.37258 0.0
C1009 C 0.95108 0.45739 0.41928 0.0
N1010 N 0.84458 0.41428 0.36113 0.0
N1011 N 0.98928 0.41378 0.44134 0.0
H1012 H 0.97747 0.52797 0.43913 0.0
H1013 H 1.01399 0.50369 0.44877 0.0
H1014 H 0.99654 0.38563 0.44093 0.0
H1015 H 1.00588 0.43757 0.46221 0.0
H1016 H 0.81919 0.38415 0.34733 0.0
H1017 H 0.83543 0.44108 0.36337 0.0
H1018 H 0.85301 0.34879 0.32665 0.0
H1019 H 0.88262 0.31942 0.34186 0.0
C1020 C 0.12663 0.54724 0.62003 0.0
C1021 C 0.17447 0.58701 0.61857 0.0
C1022 C 0.2051 0.53442 0.63762 0.0
C1023 C 0.15847 0.49311 0.63363 0.0
N1024 N 0.07338 0.46498 0.63886 0.0
N1025 N 0.25993 0.6171 0.62152 0.0
C1026 C 0.11849 0.5006 0.62963 0.0
C1027 C 0.21382 0.58018 0.62621 0.0
N1028 N 0.08895 0.55396 0.61173 0.0
N1029 N 0.23989 0.53101 0.65591 0.0
H1030 H 0.26807 0.65134 0.61339 0.0
H1031 H 0.28982 0.61243 0.62254 0.0
H1032 H 0.23225 0.50042 0.67025 0.0
H1033 H 0.27347 0.56046 0.66186 0.0
H1034 H 0.05391 0.52598 0.60771 0.0
H1035 H 0.09324 0.58774 0.60658 0.0
H1036 H 0.043 0.46875 0.63861 0.0
H1037 H 0.06727 0.43426 0.65233 0.0
C1038 C 0.43125 0.94572 0.92132 0.0
C1039 C 0.39464 0.9202 0.89566 0.0
C1040 C 0.43235 0.87159 0.88094 0.0
C1041 C 0.46914 0.8973 0.90622 0.0
N1042 N 0.51003 0.96621 0.94438 0.0
N1043 N 0.37041 0.87053 0.84367 0.0
C1044 C 0.47053 0.9367 0.92449 0.0
C1045 C 0.39835 0.88663 0.87326 0.0
N1046 N 0.42766 0.97703 0.94383 0.0
N1047 N 0.42864 0.83159 0.86516 0.0
H1048 H 0.34788 0.88368 0.83626 0.0
H1049 H 0.37389 0.8491 0.82454 0.0
H1050 H 0.45284 0.81952 0.8699 0.0
H1051 H 0.39939 0.80825 0.8496 0.0
H1052 H 0.4492 0.9915 0.96611 0.0
H1053 H 0.40149 0.98688 0.94141 0.0
H1054 H 0.51593 0.99847 0.9553 0.0
H1055 H 0.53921 0.96064 0.94737 0.0
C1056 C 0.56415 0.63604 0.64221 0.0
C1057 C 0.57791 0.67648 0.6199 0.0
C1058 C 0.49519 0.63686 0.59585 0.0
C1059 C 0.48276 0.59478 0.61544 0.0
N1060 N 0.50745 0.55154 0.65388 0.0
N1061 N 0.55829 0.70898 0.56915 0.0
C1062 C 0.51789 0.59356 0.63768 0.0
C1063 C 0.54385 0.67495 0.59497 0.0
N1064 N 0.59415 0.63885 0.6688 0.0
N1065 N 0.46007 0.64127 0.57875 0.0
H1066 H 0.59358 0.73667 0.56661 0.0
H1067 H 0.53658 0.70666 0.54795 0.0
H1068 H 0.42385 0.61453 0.57897 0.0
H1069 H 0.46603 0.6733 0.56743 0.0
H1070 H 0.58408 0.61287 0.6884 0.0
H1071 H 0.62795 0.66899 0.6729 0.0
H1072 H 0.53295 0.54666 0.66736 0.0
H1073 H 0.47396 0.52032 0.65161 0.0
C1074 C 0.18118 0.56743 0.86841 0.0
C1075 C 0.18836 0.59016 0.90202 0.0
C1076 C 0.17229 0.51407 0.92959 0.0
C1077 C 0.15487 0.48948 0.89692 0.0
N1078 N 0.14201 0.49331 0.8347 0.0
N1079 N 0.22488 0.59034 0.9575 0.0
C1080 C 0.15848 0.5163 0.86628 0.0
C1081 C 0.19325 0.56496 0.93109 0.0
N1082 N 0.20592 0.59408 0.83981 0.0
N1083 N 0.16964 0.489 0.95938 0.0
H1084 H 0.24726 0.62757 0.95614 0.0
H1085 H 0.23393 0.57446 0.97776 0.0
H1086 H 0.15772 0.45235 0.95919 0.0
H1087 H 0.17619 0.50411 0.98459 0.0
H1088 H 0.20485 0.57914 0.81511 0.0
H1089 H 0.23485 0.62897 0.84281 0.0
H1090 H 0.1405 0.51095 0.81208 0.0
H1091 H 0.12616 0.4561 0.83212 0.0
C1092 C 0.39356 0.88906 0.59372 0.0
C1093 C 0.39039 0.91533 0.62295 0.0
C1094 C 0.46989 0.93088 0.6432 0.0
C1095 C 0.47038 0.90053 0.61597 0.0
N1096 N 0.42796 0.84295 0.56976 0.0
N1097 N 0.42238 0.95551 0.67844 0.0
C1098 C 0.4308 0.87738 0.59254 0.0
C1099 C 0.42783 0.93491 0.64848 0.0
N1100 N 0.362 0.87673 0.56617 0.0
N1101 N 0.51005 0.9568 0.66343 0.0
H1102 H 0.39226 0.9591 0.68308 0.0
H1103 H 0.44582 0.96565 0.69985 0.0
H1104 H 0.54106 0.95424 0.66061 0.0
H1105 H 0.51395 0.98338 0.68112 0.0
H1106 H 0.36589 0.86239 0.54251 0.0
H1107 H 0.3347 0.88529 0.56532 0.0
H1108 H 0.39737 0.82098 0.55489 0.0
H1109 H 0.45427 0.83298 0.56824 0.0
C1110 C 0.55217 0.64327 0.86684 0.0
C1111 C 0.5777 0.66731 0.89787 0.0
C1112 C 0.50628 0.61547 0.9339 0.0
C1113 C 0.48137 0.58945 0.90321 0.0
N1114 N 0.48265 0.5737 0.84108 0.0
N1115 N 0.58292 0.6699 0.96129 0.0
C1116 C 0.50498 0.60195 0.86979 0.0
C1117 C 0.55582 0.65128 0.93149 0.0
N1118 N 0.57247 0.66086 0.83457 0.0
N1119 N 0.48199 0.60752 0.96519 0.0
H1120 H 0.61943 0.6956 0.96028 0.0
H1121 H 0.57074 0.65659 0.98657 0.0
H1122 H 0.44561 0.58199 0.96814 0.0
H1123 H 0.49661 0.62911 0.98744 0.0
H1124 H 0.55391 0.6488 0.8108 0.0
H1125 H 0.60754 0.6896 0.83174 0.0
H1126 H 0.49947 0.57782 0.81674 0.0
H1127 H 0.44812 0.54371 0.84231 0.0
loop_
_geom_bond_atom_site_label_1
_geom_bond_atom_site_label_2
_geom_bond_distance
_geom_bond_site_symmetry_2
_ccdc_geom_bond_type
Ho0 C3 2.811 . S
Ho0 O20 2.322 . S
Ho0 O22 2.378 . S
Ho0 O23 2.524 . S
Ho0 O24 2.381 . S
Ho0 O25 2.669 . S
Ho0 O27 2.346 . S
Ho0 O31 2.305 . S
Ho1 C12 2.803 1_545 S
Ho1 O21 2.346 . S
Ho1 O25 2.305 . S
Ho1 O26 2.322 . S
Ho1 O28 2.378 . S
Ho1 O29 2.524 . S
Ho1 O30 2.381 . S
Ho1 O31 2.669 . S
C2 O20 1.259 . S
C2 O21 1.268 . S
C3 Ho0 2.811 . S
C3 C4 1.488 . S
C3 O22 1.215 . S
C3 O23 1.289 . S
C4 C3 1.488 . S
C4 C5 1.348 . S
C4 C9 1.413 . S
C5 C4 1.348 . S
C5 C6 1.442 . S
C5 H32 0.930 . S
C6 C5 1.442 . S
C6 C7 1.381 . S
C6 H33 0.931 . S
C7 C6 1.381 . S
C7 C8 1.321 . S
C8 C7 1.321 . S
C8 C9 1.403 . S
C8 H34 0.934 . S
C9 C4 1.413 . S
C9 C8 1.403 . S
C9 H35 0.930 . S
C10 O24 1.275 . S
C10 O25 1.256 . S
C11 O26 1.259 . S
C11 O27 1.268 . S
C12 Ho1 2.803 1_565 S
C12 C13 1.495 . S
C12 O28 1.215 1_565 S
C12 O29 1.282 1_565 S
C13 C12 1.495 . S
C13 C14 1.348 . S
C13 C18 1.413 . S
C14 C13 1.348 . S
C14 C15 1.442 . S
C14 H36 0.930 . S
C15 C14 1.442 . S
C15 C16 1.381 . S
C15 H37 0.931 . S
C16 C15 1.381 . S
C16 C17 1.321 . S
C17 C16 1.321 . S
C17 C18 1.403 . S
C17 H38 0.934 . S
C18 C13 1.413 . S
C18 C17 1.403 . S
C18 H39 0.930 . S
C19 O30 1.275 . S
C19 O31 1.256 . S
O20 Ho0 2.322 . S
O20 C2 1.259 . S
O21 Ho1 2.346 . S
O21 C2 1.268 . S
O22 Ho0 2.378 . S
O22 C3 1.215 . S
O23 Ho0 2.524 . S
O23 C3 1.289 . S
O24 Ho0 2.381 . S
O24 C10 1.275 . S
O25 Ho0 2.669 . S
O25 Ho1 2.305 . S
O25 C10 1.256 . S
O26 Ho1 2.322 . S
O26 C11 1.259 . S
O27 Ho0 2.346 . S
O27 C11 1.268 . S
O28 Ho1 2.378 . S
O28 C12 1.215 1_545 S
O29 Ho1 2.524 . S
O29 C12 1.282 1_545 S
O30 Ho1 2.381 . S
O30 C19 1.275 . S
O31 Ho0 2.305 . S
O31 Ho1 2.669 . S
O31 C19 1.256 . S
H32 C5 0.930 . S
H33 C6 0.931 . S
H34 C8 0.934 . S
H35 C9 0.930 . S
H36 C14 0.930 . S
H37 C15 0.931 . S
H38 C17 0.934 . S
H39 C18 0.930 . S
Ho40 C43 2.811 . S
Ho40 O60 2.322 . S
Ho40 O62 2.378 . S
Ho40 O63 2.524 . S
Ho40 O64 2.381 . S
Ho40 O65 2.669 . S
Ho40 O67 2.346 . S
Ho40 O71 2.305 . S
Ho41 C52 2.811 . S
Ho41 O61 2.346 . S
Ho41 O65 2.305 . S
Ho41 O66 2.322 . S
Ho41 O68 2.378 . S
Ho41 O69 2.524 . S
Ho41 O70 2.381 . S
Ho41 O71 2.669 . S
C42 O60 1.259 . S
C42 O61 1.268 . S
C43 Ho40 2.811 . S
C43 C44 1.488 . S
C43 O62 1.215 . S
C43 O63 1.289 . S
C44 C43 1.488 . S
C44 C45 1.348 . S
C44 C49 1.413 . S
C45 C44 1.348 . S
C45 C46 1.442 . S
C45 H72 0.930 . S
C46 C45 1.442 . S
C46 C47 1.381 . S
C46 H73 0.931 . S
C47 C46 1.381 . S
C47 C48 1.321 . S
C48 C47 1.321 . S
C48 C49 1.403 . S
C48 H74 0.934 . S
C49 C44 1.413 . S
C49 C48 1.403 . S
C49 H75 0.930 . S
C50 O64 1.275 . S
C50 O65 1.256 . S
C51 O66 1.259 . S
C51 O67 1.268 . S
C52 Ho41 2.811 . S
C52 C53 1.488 . S
C52 O68 1.215 . S
C52 O69 1.289 . S
C53 C52 1.488 . S
C53 C54 1.348 . S
C53 C58 1.413 . S
C54 C53 1.348 . S
C54 C55 1.442 . S
C54 H76 0.930 . S
C55 C54 1.442 . S
C55 C56 1.381 . S
C55 H77 0.931 . S
C56 C55 1.381 . S
C56 C57 1.321 . S
C57 C56 1.321 . S
C57 C58 1.403 . S
C57 H78 0.934 . S
C58 C53 1.413 . S
C58 C57 1.403 . S
C58 H79 0.930 . S
C59 O70 1.275 . S
C59 O71 1.256 . S
O60 Ho40 2.322 . S
O60 C42 1.259 . S
O61 Ho41 2.346 . S
O61 C42 1.268 . S
O62 Ho40 2.378 . S
O62 C43 1.215 . S
O63 Ho40 2.524 . S
O63 C43 1.289 . S
O64 Ho40 2.381 . S
O64 C50 1.275 . S
O65 Ho40 2.669 . S
O65 Ho41 2.305 . S
O65 C50 1.256 . S
O66 Ho41 2.322 . S
O66 C51 1.259 . S
O67 Ho40 2.346 . S
O67 C51 1.268 . S
O68 Ho41 2.378 . S
O68 C52 1.215 . S
O69 Ho41 2.524 . S
O69 C52 1.289 . S
O70 Ho41 2.381 . S
O70 C59 1.275 . S
O71 Ho40 2.305 . S
O71 Ho41 2.669 . S
O71 C59 1.256 . S
H72 C45 0.930 . S
H73 C46 0.931 . S
H74 C48 0.934 . S
H75 C49 0.930 . S
H76 C54 0.930 . S
H77 C55 0.931 . S
H78 C57 0.934 . S
H79 C58 0.930 . S
Ho80 C83 2.811 . S
Ho80 O100 2.322 . S
Ho80 O102 2.378 . S
Ho80 O103 2.524 . S
Ho80 O104 2.381 . S
Ho80 O105 2.669 . S
Ho80 O107 2.346 . S
Ho80 O111 2.305 . S
Ho81 C92 2.787 1_655 S
Ho81 O101 2.346 . S
Ho81 O105 2.305 . S
Ho81 O106 2.322 . S
Ho81 O108 2.378 . S
Ho81 O109 2.524 . S
Ho81 O110 2.381 . S
Ho81 O111 2.669 . S
C82 O100 1.259 . S
C82 O101 1.268 . S
C83 Ho80 2.811 . S
C83 C84 1.488 . S
C83 O102 1.215 . S
C83 O103 1.289 . S
C84 C83 1.488 . S
C84 C85 1.348 . S
C84 C89 1.413 . S
C85 C84 1.348 . S
C85 C86 1.442 . S
C85 H112 0.930 . S
C86 C85 1.442 . S
C86 C87 1.381 . S
C86 H113 0.931 . S
C87 C86 1.381 . S
C87 C88 1.321 . S
C88 C87 1.321 . S
C88 C89 1.403 . S
C88 H114 0.934 . S
C89 C84 1.413 . S
C89 C88 1.403 . S
C89 H115 0.930 . S
C90 O104 1.275 . S
C90 O105 1.256 . S
C91 O106 1.259 . S
C91 O107 1.268 . S
C92 Ho81 2.787 1_455 S
C92 C93 1.512 . S
C92 O108 1.203 1_455 S
C92 O109 1.278 1_455 S
C93 C92 1.512 . S
C93 C94 1.348 . S
C93 C98 1.413 . S
C94 C93 1.348 . S
C94 C95 1.442 . S
C94 H116 0.930 . S
C95 C94 1.442 . S
C95 C96 1.381 . S
C95 H117 0.931 . S
C96 C95 1.381 . S
C96 C97 1.321 . S
C97 C96 1.321 . S
C97 C98 1.403 . S
C97 H118 0.934 . S
C98 C93 1.413 . S
C98 C97 1.403 . S
C98 H119 0.930 . S
C99 O110 1.275 . S
C99 O111 1.256 . S
O100 Ho80 2.322 . S
O100 C82 1.259 . S
O101 Ho81 2.346 . S
O101 C82 1.268 . S
O102 Ho80 2.378 . S
O102 C83 1.215 . S
O103 Ho80 2.524 . S
O103 C83 1.289 . S
O104 Ho80 2.381 . S
O104 C90 1.275 . S
O105 Ho80 2.669 . S
O105 Ho81 2.305 . S
O105 C90 1.256 . S
O106 Ho81 2.322 . S
O106 C91 1.259 . S
O107 Ho80 2.346 . S
O107 C91 1.268 . S
O108 Ho81 2.378 . S
O108 C92 1.203 1_655 S
O109 Ho81 2.524 . S
O109 C92 1.278 1_655 S
O110 Ho81 2.381 . S
O110 C99 1.275 . S
O111 Ho80 2.305 . S
O111 Ho81 2.669 . S
O111 C99 1.256 . S
H112 C85 0.930 . S
H113 C86 0.931 . S
H114 C88 0.934 . S
H115 C89 0.930 . S
H116 C94 0.930 . S
H117 C95 0.931 . S
H118 C97 0.934 . S
H119 C98 0.930 . S
Ho120 C123 2.803 1_545 S
Ho120 O140 2.322 . S
Ho120 O142 2.378 . S
Ho120 O143 2.524 . S
Ho120 O144 2.381 . S
Ho120 O145 2.669 . S
Ho120 O147 2.346 . S
Ho120 O151 2.305 . S
Ho121 C132 2.811 . S
Ho121 O141 2.346 . S
Ho121 O145 2.305 . S
Ho121 O146 2.322 . S
Ho121 O148 2.378 . S
Ho121 O149 2.524 . S
Ho121 O150 2.381 . S
Ho121 O151 2.669 . S
C122 O140 1.259 . S
C122 O141 1.268 . S
C123 Ho120 2.803 1_565 S
C123 C124 1.495 . S
C123 O142 1.215 1_565 S
C123 O143 1.282 1_565 S
C124 C123 1.495 . S
C124 C125 1.348 . S
C124 C129 1.413 . S
C125 C124 1.348 . S
C125 C126 1.442 . S
C125 H152 0.930 . S
C126 C125 1.442 . S
C126 C127 1.381 . S
C126 H153 0.931 . S
C127 C126 1.381 . S
C127 C128 1.321 . S
C128 C127 1.321 . S
C128 C129 1.403 . S
C128 H154 0.934 . S
C129 C124 1.413 . S
C129 C128 1.403 . S
C129 H155 0.930 . S
C130 O144 1.275 . S
C130 O145 1.256 . S
C131 O146 1.259 . S
C131 O147 1.268 . S
C132 Ho121 2.811 . S
C132 C133 1.488 . S
C132 O148 1.215 . S
C132 O149 1.289 . S
C133 C132 1.488 . S
C133 C134 1.348 . S
C133 C138 1.413 . S
C134 C133 1.348 . S
C134 C135 1.442 . S
C134 H156 0.930 . S
C135 C134 1.442 . S
C135 C136 1.381 . S
C135 H157 0.931 . S
C136 C135 1.381 . S
C136 C137 1.321 . S
C137 C136 1.321 . S
C137 C138 1.403 . S
C137 H158 0.934 . S
C138 C133 1.413 . S
C138 C137 1.403 . S
C138 H159 0.930 . S
C139 O150 1.275 . S
C139 O151 1.256 . S
O140 Ho120 2.322 . S
O140 C122 1.259 . S
O141 Ho121 2.346 . S
O141 C122 1.268 . S
O142 Ho120 2.378 . S
O142 C123 1.215 1_545 S
O143 Ho120 2.524 . S
O143 C123 1.282 1_545 S
O144 Ho120 2.381 . S
O144 C130 1.275 . S
O145 Ho120 2.669 . S
O145 Ho121 2.305 . S
O145 C130 1.256 . S
O146 Ho121 2.322 . S
O146 C131 1.259 . S
O147 Ho120 2.346 . S
O147 C131 1.268 . S
O148 Ho121 2.378 . S
O148 C132 1.215 . S
O149 Ho121 2.524 . S
O149 C132 1.289 . S
O150 Ho121 2.381 . S
O150 C139 1.275 . S
O151 Ho120 2.305 . S
O151 Ho121 2.669 . S
O151 C139 1.256 . S
H152 C125 0.930 . S
H153 C126 0.931 . S
H154 C128 0.934 . S
H155 C129 0.930 . S
H156 C134 0.930 . S
H157 C135 0.931 . S
H158 C137 0.934 . S
H159 C138 0.930 . S
Ho160 C163 2.811 . S
Ho160 O180 2.322 . S
Ho160 O182 2.378 . S
Ho160 O183 2.524 . S
Ho160 O184 2.381 . S
Ho160 O185 2.669 . S
Ho160 O187 2.346 . S
Ho160 O191 2.305 . S
Ho161 C172 2.811 . S
Ho161 O181 2.346 . S
Ho161 O185 2.305 . S
Ho161 O186 2.322 . S
Ho161 O188 2.378 . S
Ho161 O189 2.524 . S
Ho161 O190 2.381 . S
Ho161 O191 2.669 . S
C162 O180 1.259 . S
C162 O181 1.268 . S
C163 Ho160 2.811 . S
C163 C164 1.488 . S
C163 O182 1.215 . S
C163 O183 1.289 . S
C164 C163 1.488 . S
C164 C165 1.348 . S
C164 C169 1.413 . S
C165 C164 1.348 . S
C165 C166 1.442 . S
C165 H192 0.930 . S
C166 C165 1.442 . S
C166 C167 1.381 . S
C166 H193 0.931 . S
C167 C166 1.381 . S
C167 C168 1.321 . S
C168 C167 1.321 . S
C168 C169 1.403 . S
C168 H194 0.934 . S
C169 C164 1.413 . S
C169 C168 1.403 . S
C169 H195 0.930 . S
C170 O184 1.275 . S
C170 O185 1.256 . S
C171 O186 1.259 . S
C171 O187 1.268 . S
C172 Ho161 2.811 . S
C172 C173 1.488 . S
C172 O188 1.215 . S
C172 O189 1.289 . S
C173 C172 1.488 . S
C173 C174 1.348 . S
C173 C178 1.413 . S
C174 C173 1.348 . S
C174 C175 1.442 . S
C174 H196 0.930 . S
C175 C174 1.442 . S
C175 C176 1.381 . S
C175 H197 0.931 . S
C176 C175 1.381 . S
C176 C177 1.321 . S
C177 C176 1.321 . S
C177 C178 1.403 . S
C177 H198 0.934 . S
C178 C173 1.413 . S
C178 C177 1.403 . S
C178 H199 0.930 . S
C179 O190 1.275 . S
C179 O191 1.256 . S
O180 Ho160 2.322 . S
O180 C162 1.259 . S
O181 Ho161 2.346 . S
O181 C162 1.268 . S
O182 Ho160 2.378 . S
O182 C163 1.215 . S
O183 Ho160 2.524 . S
O183 C163 1.289 . S
O184 Ho160 2.381 . S
O184 C170 1.275 . S
O185 Ho160 2.669 . S
O185 Ho161 2.305 . S
O185 C170 1.256 . S
O186 Ho161 2.322 . S
O186 C171 1.259 . S
O187 Ho160 2.346 . S
O187 C171 1.268 . S
O188 Ho161 2.378 . S
O188 C172 1.215 . S
O189 Ho161 2.524 . S
O189 C172 1.289 . S
O190 Ho161 2.381 . S
O190 C179 1.275 . S
O191 Ho160 2.305 . S
O191 Ho161 2.669 . S
O191 C179 1.256 . S
H192 C165 0.930 . S
H193 C166 0.931 . S
H194 C168 0.934 . S
H195 C169 0.930 . S
H196 C174 0.930 . S
H197 C175 0.931 . S
H198 C177 0.934 . S
H199 C178 0.930 . S
Ho200 C203 2.787 1_655 S
Ho200 O220 2.322 . S
Ho200 O222 2.378 . S
Ho200 O223 2.524 . S
Ho200 O224 2.381 . S
Ho200 O225 2.669 . S
Ho200 O227 2.346 . S
Ho200 O231 2.305 . S
Ho201 C212 2.811 . S
Ho201 O221 2.346 . S
Ho201 O225 2.305 . S
Ho201 O226 2.322 . S
Ho201 O228 2.378 . S
Ho201 O229 2.524 . S
Ho201 O230 2.381 . S
Ho201 O231 2.669 . S
C202 O220 1.259 . S
C202 O221 1.268 . S
C203 Ho200 2.787 1_455 S
C203 C204 1.512 . S
C203 O222 1.203 1_455 S
C203 O223 1.278 1_455 S
C204 C203 1.512 . S
C204 C205 1.348 . S
C204 C209 1.413 . S
C205 C204 1.348 . S
C205 C206 1.442 . S
C205 H232 0.930 . S
C206 C205 1.442 . S
C206 C207 1.381 . S
C206 H233 0.931 . S
C207 C206 1.381 . S
C207 C208 1.321 . S
C208 C207 1.321 . S
C208 C209 1.403 . S
C208 H234 0.934 . S
C209 C204 1.413 . S
C209 C208 1.403 . S
C209 H235 0.930 . S
C210 O224 1.275 . S
C210 O225 1.256 . S
C211 O226 1.259 . S
C211 O227 1.268 . S
C212 Ho201 2.811 . S
C212 C213 1.488 . S
C212 O228 1.215 . S
C212 O229 1.289 . S
C213 C212 1.488 . S
C213 C214 1.348 . S
C213 C218 1.413 . S
C214 C213 1.348 . S
C214 C215 1.442 . S
C214 H236 0.930 . S
C215 C214 1.442 . S
C215 C216 1.381 . S
C215 H237 0.931 . S
C216 C215 1.381 . S
C216 C217 1.321 . S
C217 C216 1.321 . S
C217 C218 1.403 . S
C217 H238 0.934 . S
C218 C213 1.413 . S
C218 C217 1.403 . S
C218 H239 0.930 . S
C219 O230 1.275 . S
C219 O231 1.256 . S
O220 Ho200 2.322 . S
O220 C202 1.259 . S
O221 Ho201 2.346 . S
O221 C202 1.268 . S
O222 Ho200 2.378 . S
O222 C203 1.203 1_655 S
O223 Ho200 2.524 . S
O223 C203 1.278 1_655 S
O224 Ho200 2.381 . S
O224 C210 1.275 . S
O225 Ho200 2.669 . S
O225 Ho201 2.305 . S
O225 C210 1.256 . S
O226 Ho201 2.322 . S
O226 C211 1.259 . S
O227 Ho200 2.346 . S
O227 C211 1.268 . S
O228 Ho201 2.378 . S
O228 C212 1.215 . S
O229 Ho201 2.524 . S
O229 C212 1.289 . S
O230 Ho201 2.381 . S
O230 C219 1.275 . S
O231 Ho200 2.305 . S
O231 Ho201 2.669 . S
O231 C219 1.256 . S
H232 C205 0.930 . S
H233 C206 0.931 . S
H234 C208 0.934 . S
H235 C209 0.930 . S
H236 C214 0.930 . S
H237 C215 0.931 . S
H238 C217 0.934 . S
H239 C218 0.930 . S
Ho240 C243 2.803 1_455 S
Ho240 O260 2.322 . S
Ho240 O262 2.378 . S
Ho240 O263 2.524 . S
Ho240 O264 2.381 . S
Ho240 O265 2.669 . S
Ho240 O267 2.346 . S
Ho240 O271 2.305 . S
Ho241 C252 2.811 . S
Ho241 O261 2.346 . S
Ho241 O265 2.305 . S
Ho241 O266 2.322 . S
Ho241 O268 2.378 . S
Ho241 O269 2.524 . S
Ho241 O270 2.381 . S
Ho241 O271 2.669 . S
C242 O260 1.259 . S
C242 O261 1.268 . S
C243 Ho240 2.803 1_655 S
C243 C244 1.495 . S
C243 O262 1.215 1_655 S
C243 O263 1.282 1_655 S
C244 C243 1.495 . S
C244 C245 1.348 . S
C244 C249 1.413 . S
C245 C244 1.348 . S
C245 C246 1.442 . S
C245 H272 0.930 . S
C246 C245 1.442 . S
C246 C247 1.381 . S
C246 H273 0.931 . S
C247 C246 1.381 . S
C247 C248 1.321 . S
C248 C247 1.321 . S
C248 C249 1.403 . S
C248 H274 0.934 . S
C249 C244 1.413 . S
C249 C248 1.403 . S
C249 H275 0.930 . S
C250 O264 1.275 . S
C250 O265 1.256 . S
C251 O266 1.259 . S
C251 O267 1.268 . S
C252 Ho241 2.811 . S
C252 C253 1.488 . S
C252 O268 1.215 . S
C252 O269 1.289 . S
C253 C252 1.488 . S
C253 C254 1.348 . S
C253 C258 1.413 . S
C254 C253 1.348 . S
C254 C255 1.442 . S
C254 H276 0.930 . S
C255 C254 1.442 . S
C255 C256 1.381 . S
C255 H277 0.931 . S
C256 C255 1.381 . S
C256 C257 1.321 . S
C257 C256 1.321 . S
C257 C258 1.403 . S
C257 H278 0.934 . S
C258 C253 1.413 . S
C258 C257 1.403 . S
C258 H279 0.930 . S
C259 O270 1.275 . S
C259 O271 1.256 . S
O260 Ho240 2.322 . S
O260 C242 1.259 . S
O261 Ho241 2.346 . S
O261 C242 1.268 . S
O262 Ho240 2.378 . S
O262 C243 1.215 1_455 S
O263 Ho240 2.524 . S
O263 C243 1.282 1_455 S
O264 Ho240 2.381 . S
O264 C250 1.275 . S
O265 Ho240 2.669 . S
O265 Ho241 2.305 . S
O265 C250 1.256 . S
O266 Ho241 2.322 . S
O266 C251 1.259 . S
O267 Ho240 2.346 . S
O267 C251 1.268 . S
O268 Ho241 2.378 . S
O268 C252 1.215 . S
O269 Ho241 2.524 . S
O269 C252 1.289 . S
O270 Ho241 2.381 . S
O270 C259 1.275 . S
O271 Ho240 2.305 . S
O271 Ho241 2.669 . S
O271 C259 1.256 . S
H272 C245 0.930 . S
H273 C246 0.931 . S
H274 C248 0.934 . S
H275 C249 0.930 . S
H276 C254 0.930 . S
H277 C255 0.931 . S
H278 C257 0.934 . S
H279 C258 0.930 . S
Ho280 C283 2.811 . S
Ho280 O300 2.322 . S
Ho280 O302 2.378 . S
Ho280 O303 2.524 . S
Ho280 O304 2.381 . S
Ho280 O305 2.669 . S
Ho280 O307 2.346 . S
Ho280 O311 2.305 . S
Ho281 C292 2.787 1_565 S
Ho281 O301 2.346 . S
Ho281 O305 2.305 . S
Ho281 O306 2.322 . S
Ho281 O308 2.378 . S
Ho281 O309 2.524 . S
Ho281 O310 2.381 . S
Ho281 O311 2.669 . S
C282 O300 1.259 . S
C282 O301 1.268 . S
C283 Ho280 2.811 . S
C283 C284 1.488 . S
C283 O302 1.215 . S
C283 O303 1.289 . S
C284 C283 1.488 . S
C284 C285 1.348 . S
C284 C289 1.413 . S
C285 C284 1.348 . S
C285 C286 1.442 . S
C285 H312 0.930 . S
C286 C285 1.442 . S
C286 C287 1.381 . S
C286 H313 0.931 . S
C287 C286 1.381 . S
C287 C288 1.321 . S
C288 C287 1.321 . S
C288 C289 1.403 . S
C288 H314 0.934 . S
C289 C284 1.413 . S
C289 C288 1.403 . S
C289 H315 0.930 . S
C290 O304 1.275 . S
C290 O305 1.256 . S
C291 O306 1.259 . S
C291 O307 1.268 . S
C292 Ho281 2.787 1_545 S
C292 C293 1.512 . S
C292 O308 1.203 1_545 S
C292 O309 1.278 1_545 S
C293 C292 1.512 . S
C293 C294 1.348 . S
C293 C298 1.413 . S
C294 C293 1.348 . S
C294 C295 1.442 . S
C294 H316 0.930 . S
C295 C294 1.442 . S
C295 C296 1.381 . S
C295 H317 0.931 . S
C296 C295 1.381 . S
C296 C297 1.321 . S
C297 C296 1.321 . S
C297 C298 1.403 . S
C297 H318 0.934 . S
C298 C293 1.413 . S
C298 C297 1.403 . S
C298 H319 0.930 . S
C299 O310 1.275 . S
C299 O311 1.256 . S
O300 Ho280 2.322 . S
O300 C282 1.259 . S
O301 Ho281 2.346 . S
O301 C282 1.268 . S
O302 Ho280 2.378 . S
O302 C283 1.215 . S
O303 Ho280 2.524 . S
O303 C283 1.289 . S
O304 Ho280 2.381 . S
O304 C290 1.275 . S
O305 Ho280 2.669 . S
O305 Ho281 2.305 . S
O305 C290 1.256 . S
O306 Ho281 2.322 . S
O306 C291 1.259 . S
O307 Ho280 2.346 . S
O307 C291 1.268 . S
O308 Ho281 2.378 . S
O308 C292 1.203 1_565 S
O309 Ho281 2.524 . S
O309 C292 1.278 1_565 S
O310 Ho281 2.381 . S
O310 C299 1.275 . S
O311 Ho280 2.305 . S
O311 Ho281 2.669 . S
O311 C299 1.256 . S
H312 C285 0.930 . S
H313 C286 0.931 . S
H314 C288 0.934 . S
H315 C289 0.930 . S
H316 C294 0.930 . S
H317 C295 0.931 . S
H318 C297 0.934 . S
H319 C298 0.930 . S
Ho320 C323 2.811 . S
Ho320 O340 2.322 . S
Ho320 O342 2.378 . S
Ho320 O343 2.524 . S
Ho320 O344 2.381 . S
Ho320 O345 2.669 . S
Ho320 O347 2.346 . S
Ho320 O351 2.305 . S
Ho321 C332 2.811 . S
Ho321 O341 2.346 . S
Ho321 O345 2.305 . S
Ho321 O346 2.322 . S
Ho321 O348 2.378 . S
Ho321 O349 2.524 . S
Ho321 O350 2.381 . S
Ho321 O351 2.669 . S
C322 O340 1.259 . S
C322 O341 1.268 . S
C323 Ho320 2.811 . S
C323 C324 1.488 . S
C323 O342 1.215 . S
C323 O343 1.289 . S
C324 C323 1.488 . S
C324 C325 1.348 . S
C324 C329 1.413 . S
C325 C324 1.348 . S
C325 C326 1.442 . S
C325 H352 0.930 . S
C326 C325 1.442 . S
C326 C327 1.381 . S
C326 H353 0.931 . S
C327 C326 1.381 . S
C327 C328 1.321 . S
C328 C327 1.321 . S
C328 C329 1.403 . S
C328 H354 0.934 . S
C329 C324 1.413 . S
C329 C328 1.403 . S
C329 H355 0.930 . S
C330 O344 1.275 . S
C330 O345 1.256 . S
C331 O346 1.259 . S
C331 O347 1.268 . S
C332 Ho321 2.811 . S
C332 C333 1.488 . S
C332 O348 1.215 . S
C332 O349 1.289 . S
C333 C332 1.488 . S
C333 C334 1.348 . S
C333 C338 1.413 . S
C334 C333 1.348 . S
C334 C335 1.442 . S
C334 H356 0.930 . S
C335 C334 1.442 . S
C335 C336 1.381 . S
C335 H357 0.931 . S
C336 C335 1.381 . S
C336 C337 1.321 . S
C337 C336 1.321 . S
C337 C338 1.403 . S
C337 H358 0.934 . S
C338 C333 1.413 . S
C338 C337 1.403 . S
C338 H359 0.930 . S
C339 O350 1.275 . S
C339 O351 1.256 . S
O340 Ho320 2.322 . S
O340 C322 1.259 . S
O341 Ho321 2.346 . S
O341 C322 1.268 . S
O342 Ho320 2.378 . S
O342 C323 1.215 . S
O343 Ho320 2.524 . S
O343 C323 1.289 . S
O344 Ho320 2.381 . S
O344 C330 1.275 . S
O345 Ho320 2.669 . S
O345 Ho321 2.305 . S
O345 C330 1.256 . S
O346 Ho321 2.322 . S
O346 C331 1.259 . S
O347 Ho320 2.346 . S
O347 C331 1.268 . S
O348 Ho321 2.378 . S
O348 C332 1.215 . S
O349 Ho321 2.524 . S
O349 C332 1.289 . S
O350 Ho321 2.381 . S
O350 C339 1.275 . S
O351 Ho320 2.305 . S
O351 Ho321 2.669 . S
O351 C339 1.256 . S
H352 C325 0.930 . S
H353 C326 0.931 . S
H354 C328 0.934 . S
H355 C329 0.930 . S
H356 C334 0.930 . S
H357 C335 0.931 . S
H358 C337 0.934 . S
H359 C338 0.930 . S
Ho360 C363 2.811 . S
Ho360 O380 2.322 . S
Ho360 O382 2.378 . S
Ho360 O383 2.524 . S
Ho360 O384 2.381 . S
Ho360 O385 2.669 . S
Ho360 O387 2.346 . S
Ho360 O391 2.305 . S
Ho361 C372 2.803 1_455 S
Ho361 O381 2.346 . S
Ho361 O385 2.305 . S
Ho361 O386 2.322 . S
Ho361 O388 2.378 . S
Ho361 O389 2.524 . S
Ho361 O390 2.381 . S
Ho361 O391 2.669 . S
C362 O380 1.259 . S
C362 O381 1.268 . S
C363 Ho360 2.811 . S
C363 C364 1.488 . S
C363 O382 1.215 . S
C363 O383 1.289 . S
C364 C363 1.488 . S
C364 C365 1.348 . S
C364 C369 1.413 . S
C365 C364 1.348 . S
C365 C366 1.442 . S
C365 H392 0.930 . S
C366 C365 1.442 . S
C366 C367 1.381 . S
C366 H393 0.931 . S
C367 C366 1.381 . S
C367 C368 1.321 . S
C368 C367 1.321 . S
C368 C369 1.403 . S
C368 H394 0.934 . S
C369 C364 1.413 . S
C369 C368 1.403 . S
C369 H395 0.930 . S
C370 O384 1.275 . S
C370 O385 1.256 . S
C371 O386 1.259 . S
C371 O387 1.268 . S
C372 Ho361 2.803 1_655 S
C372 C373 1.495 . S
C372 O388 1.215 1_655 S
C372 O389 1.282 1_655 S
C373 C372 1.495 . S
C373 C374 1.348 . S
C373 C378 1.413 . S
C374 C373 1.348 . S
C374 C375 1.442 . S
C374 H396 0.930 . S
C375 C374 1.442 . S
C375 C376 1.381 . S
C375 H397 0.931 . S
C376 C375 1.381 . S
C376 C377 1.321 . S
C377 C376 1.321 . S
C377 C378 1.403 . S
C377 H398 0.934 . S
C378 C373 1.413 . S
C378 C377 1.403 . S
C378 H399 0.930 . S
C379 O390 1.275 . S
C379 O391 1.256 . S
O380 Ho360 2.322 . S
O380 C362 1.259 . S
O381 Ho361 2.346 . S
O381 C362 1.268 . S
O382 Ho360 2.378 . S
O382 C363 1.215 . S
O383 Ho360 2.524 . S
O383 C363 1.289 . S
O384 Ho360 2.381 . S
O384 C370 1.275 . S
O385 Ho360 2.669 . S
O385 Ho361 2.305 . S
O385 C370 1.256 . S
O386 Ho361 2.322 . S
O386 C371 1.259 . S
O387 Ho360 2.346 . S
O387 C371 1.268 . S
O388 Ho361 2.378 . S
O388 C372 1.215 1_455 S
O389 Ho361 2.524 . S
O389 C372 1.282 1_455 S
O390 Ho361 2.381 . S
O390 C379 1.275 . S
O391 Ho360 2.305 . S
O391 Ho361 2.669 . S
O391 C379 1.256 . S
H392 C365 0.930 . S
H393 C366 0.931 . S
H394 C368 0.934 . S
H395 C369 0.930 . S
H396 C374 0.930 . S
H397 C375 0.931 . S
H398 C377 0.934 . S
H399 C378 0.930 . S
Ho400 C403 2.787 1_565 S
Ho400 O420 2.322 . S
Ho400 O422 2.378 . S
Ho400 O423 2.524 . S
Ho400 O424 2.381 . S
Ho400 O425 2.669 . S
Ho400 O427 2.346 . S
Ho400 O431 2.305 . S
Ho401 C412 2.811 . S
Ho401 O421 2.346 . S
Ho401 O425 2.305 . S
Ho401 O426 2.322 . S
Ho401 O428 2.378 . S
Ho401 O429 2.524 . S
Ho401 O430 2.381 . S
Ho401 O431 2.669 . S
C402 O420 1.259 . S
C402 O421 1.268 . S
C403 Ho400 2.787 1_545 S
C403 C404 1.512 . S
C403 O422 1.203 1_545 S
C403 O423 1.278 1_545 S
C404 C403 1.512 . S
C404 C405 1.348 . S
C404 C409 1.413 . S
C405 C404 1.348 . S
C405 C406 1.442 . S
C405 H432 0.930 . S
C406 C405 1.442 . S
C406 C407 1.381 . S
C406 H433 0.931 . S
C407 C406 1.381 . S
C407 C408 1.321 . S
C408 C407 1.321 . S
C408 C409 1.403 . S
C408 H434 0.934 . S
C409 C404 1.413 . S
C409 C408 1.403 . S
C409 H435 0.930 . S
C410 O424 1.275 . S
C410 O425 1.256 . S
C411 O426 1.259 . S
C411 O427 1.268 . S
C412 Ho401 2.811 . S
C412 C413 1.488 . S
C412 O428 1.215 . S
C412 O429 1.289 . S
C413 C412 1.488 . S
C413 C414 1.348 . S
C413 C418 1.413 . S
C414 C413 1.348 . S
C414 C415 1.442 . S
C414 H436 0.930 . S
C415 C414 1.442 . S
C415 C416 1.381 . S
C415 H437 0.931 . S
C416 C415 1.381 . S
C416 C417 1.321 . S
C417 C416 1.321 . S
C417 C418 1.403 . S
C417 H438 0.934 . S
C418 C413 1.413 . S
C418 C417 1.403 . S
C418 H439 0.930 . S
C419 O430 1.275 . S
C419 O431 1.256 . S
O420 Ho400 2.322 . S
O420 C402 1.259 . S
O421 Ho401 2.346 . S
O421 C402 1.268 . S
O422 Ho400 2.378 . S
O422 C403 1.203 1_565 S
O423 Ho400 2.524 . S
O423 C403 1.278 1_565 S
O424 Ho400 2.381 . S
O424 C410 1.275 . S
O425 Ho400 2.669 . S
O425 Ho401 2.305 . S
O425 C410 1.256 . S
O426 Ho401 2.322 . S
O426 C411 1.259 . S
O427 Ho400 2.346 . S
O427 C411 1.268 . S
O428 Ho401 2.378 . S
O428 C412 1.215 . S
O429 Ho401 2.524 . S
O429 C412 1.289 . S
O430 Ho401 2.381 . S
O430 C419 1.275 . S
O431 Ho400 2.305 . S
O431 Ho401 2.669 . S
O431 C419 1.256 . S
H432 C405 0.930 . S
H433 C406 0.931 . S
H434 C408 0.934 . S
H435 C409 0.930 . S
H436 C414 0.930 . S
H437 C415 0.931 . S
H438 C417 0.934 . S
H439 C418 0.930 . S
Ho440 C443 2.811 . S
Ho440 O460 2.322 . S
Ho440 O462 2.378 . S
Ho440 O463 2.524 . S
Ho440 O464 2.381 . S
Ho440 O465 2.669 . S
Ho440 O467 2.346 . S
Ho440 O471 2.305 . S
Ho441 C452 2.811 . S
Ho441 O461 2.346 . S
Ho441 O465 2.305 . S
Ho441 O466 2.322 . S
Ho441 O468 2.378 . S
Ho441 O469 2.524 . S
Ho441 O470 2.381 . S
Ho441 O471 2.669 . S
C442 O460 1.259 . S
C442 O461 1.268 . S
C443 Ho440 2.811 . S
C443 C444 1.488 . S
C443 O462 1.215 . S
C443 O463 1.289 . S
C444 C443 1.488 . S
C444 C445 1.348 . S
C444 C449 1.413 . S
C445 C444 1.348 . S
C445 C446 1.442 . S
C445 H472 0.930 . S
C446 C445 1.442 . S
C446 C447 1.381 . S
C446 H473 0.931 . S
C447 C446 1.381 . S
C447 C448 1.321 . S
C448 C447 1.321 . S
C448 C449 1.403 . S
C448 H474 0.934 . S
C449 C444 1.413 . S
C449 C448 1.403 . S
C449 H475 0.930 . S
C450 O464 1.275 . S
C450 O465 1.256 . S
C451 O466 1.259 . S
C451 O467 1.268 . S
C452 Ho441 2.811 . S
C452 C453 1.488 . S
C452 O468 1.215 . S
C452 O469 1.289 . S
C453 C452 1.488 . S
C453 C454 1.348 . S
C453 C458 1.413 . S
C454 C453 1.348 . S
C454 C455 1.442 . S
C454 H476 0.930 . S
C455 C454 1.442 . S
C455 C456 1.381 . S
C455 H477 0.931 . S
C456 C455 1.381 . S
C456 C457 1.321 . S
C457 C456 1.321 . S
C457 C458 1.403 . S
C457 H478 0.934 . S
C458 C453 1.413 . S
C458 C457 1.403 . S
C458 H479 0.930 . S
C459 O470 1.275 . S
C459 O471 1.256 . S
O460 Ho440 2.322 . S
O460 C442 1.259 . S
O461 Ho441 2.346 . S
O461 C442 1.268 . S
O462 Ho440 2.378 . S
O462 C443 1.215 . S
O463 Ho440 2.524 . S
O463 C443 1.289 . S
O464 Ho440 2.381 . S
O464 C450 1.275 . S
O465 Ho440 2.669 . S
O465 Ho441 2.305 . S
O465 C450 1.256 . S
O466 Ho441 2.322 . S
O466 C451 1.259 . S
O467 Ho440 2.346 . S
O467 C451 1.268 . S
O468 Ho441 2.378 . S
O468 C452 1.215 . S
O469 Ho441 2.524 . S
O469 C452 1.289 . S
O470 Ho441 2.381 . S
O470 C459 1.275 . S
O471 Ho440 2.305 . S
O471 Ho441 2.669 . S
O471 C459 1.256 . S
H472 C445 0.930 . S
H473 C446 0.931 . S
H474 C448 0.934 . S
H475 C449 0.930 . S
H476 C454 0.930 . S
H477 C455 0.931 . S
H478 C457 0.934 . S
H479 C458 0.930 . S
C480 C481 1.363 . S
C480 C486 1.379 . S
C480 N488 1.356 . S
C481 C480 1.363 . S
C481 C487 1.363 . S
C482 C483 1.363 . S
C482 C487 1.379 . S
C482 N489 1.356 . S
C483 C482 1.363 . S
C483 C486 1.363 . S
N484 C486 1.356 . S
N484 H496 0.984 . S
N484 H497 0.985 . S
N485 C487 1.356 . S
N485 H490 0.984 . S
N485 H491 0.985 . S
C486 C480 1.379 . S
C486 C483 1.363 . S
C486 N484 1.356 . S
C487 C481 1.363 . S
C487 C482 1.379 . S
C487 N485 1.356 . S
N488 C480 1.356 . S
N488 H494 0.984 . S
N488 H495 0.984 . S
N489 C482 1.356 . S
N489 H492 0.984 . S
N489 H493 0.985 . S
H490 N485 0.984 . S
H491 N485 0.985 . S
H492 N489 0.984 . S
H493 N489 0.985 . S
H494 N488 0.984 . S
H495 N488 0.984 . S
H496 N484 0.984 . S
H497 N484 0.985 . S
C498 C499 1.363 . S
C498 C504 1.379 1_455 S
C498 N506 1.356 . S
C499 C498 1.363 . S
C499 C505 1.363 1_455 S
C500 C501 1.363 . S
C500 C505 1.379 . S
C500 N507 1.356 . S
C501 C500 1.363 . S
C501 C504 1.363 . S
N502 C504 1.356 . S
N502 H514 0.984 . S
N502 H515 0.985 . S
N503 C505 1.356 1_455 S
N503 H508 0.984 . S
N503 H509 0.985 1_455 S
C504 C498 1.379 1_655 S
C504 C501 1.363 . S
C504 N502 1.356 . S
C505 C499 1.363 1_655 S
C505 C500 1.379 . S
C505 N503 1.356 1_655 S
N506 C498 1.356 . S
N506 H512 0.984 . S
N506 H513 0.984 . S
N507 C500 1.356 . S
N507 H510 0.984 . S
N507 H511 0.985 . S
H508 N503 0.984 . S
H509 N503 0.985 1_655 S
H510 N507 0.984 . S
H511 N507 0.985 . S
H512 N506 0.984 . S
H513 N506 0.984 . S
H514 N502 0.984 . S
H515 N502 0.985 . S
C516 C517 1.363 . S
C516 C522 1.379 1_545 S
C516 N524 1.356 . S
C517 C516 1.363 . S
C517 C523 1.363 . S
C518 C519 1.363 1_545 S
C518 C523 1.379 . S
C518 N525 1.356 1_545 S
C519 C518 1.363 1_565 S
C519 C522 1.363 . S
N520 C522 1.356 . S
N520 H532 0.984 . S
N520 H533 0.985 . S
N521 C523 1.356 . S
N521 H526 0.984 . S
N521 H527 0.985 . S
C522 C516 1.379 1_565 S
C522 C519 1.363 . S
C522 N520 1.356 . S
C523 C517 1.363 . S
C523 C518 1.379 . S
C523 N521 1.356 . S
N524 C516 1.356 . S
N524 H530 0.984 . S
N524 H531 0.984 . S
N525 C518 1.356 1_565 S
N525 H528 0.984 . S
N525 H529 0.985 . S
H526 N521 0.984 . S
H527 N521 0.985 . S
H528 N525 0.984 . S
H529 N525 0.985 . S
H530 N524 0.984 . S
H531 N524 0.984 . S
H532 N520 0.984 . S
H533 N520 0.985 . S
C534 C535 1.363 . S
C534 C540 1.379 . S
C534 N542 1.356 . S
C535 C534 1.363 . S
C535 C541 1.363 . S
C536 C537 1.363 . S
C536 C541 1.379 . S
C536 N543 1.356 . S
C537 C536 1.363 . S
C537 C540 1.363 . S
N538 C540 1.356 . S
N538 H550 0.984 . S
N538 H551 0.985 . S
N539 C541 1.356 . S
N539 H544 0.984 . S
N539 H545 0.985 . S
C540 C534 1.379 . S
C540 C537 1.363 . S
C540 N538 1.356 . S
C541 C535 1.363 . S
C541 C536 1.379 . S
C541 N539 1.356 . S
N542 C534 1.356 . S
N542 H548 0.984 . S
N542 H549 0.984 . S
N543 C536 1.356 . S
N543 H546 0.984 . S
N543 H547 0.985 . S
H544 N539 0.984 . S
H545 N539 0.985 . S
H546 N543 0.984 . S
H547 N543 0.985 . S
H548 N542 0.984 . S
H549 N542 0.984 . S
H550 N538 0.984 . S
H551 N538 0.985 . S
C552 C553 1.363 1_655 S
C552 C558 1.379 . S
C552 N560 1.356 1_655 S
C553 C552 1.363 1_455 S
C553 C559 1.363 1_455 S
C554 C555 1.363 . S
C554 C559 1.379 . S
C554 N561 1.356 . S
C555 C554 1.363 . S
C555 C558 1.363 . S
N556 C558 1.356 . S
N556 H568 0.984 . S
N556 H569 0.985 . S
N557 C559 1.356 1_455 S
N557 H562 0.984 . S
N557 H563 0.985 . S
C558 C552 1.379 . S
C558 C555 1.363 . S
C558 N556 1.356 . S
C559 C553 1.363 1_655 S
C559 C554 1.379 . S
C559 N557 1.356 1_655 S
N560 C552 1.356 1_455 S
N560 H566 0.984 . S
N560 H567 0.984 . S
N561 C554 1.356 . S
N561 H564 0.984 . S
N561 H565 0.985 . S
H562 N557 0.984 . S
H563 N557 0.985 . S
H564 N561 0.984 . S
H565 N561 0.985 . S
H566 N560 0.984 . S
H567 N560 0.984 . S
H568 N556 0.984 . S
H569 N556 0.985 . S
C570 C571 1.363 . S
C570 C576 1.379 1_565 S
C570 N578 1.356 . S
C571 C570 1.363 . S
C571 C577 1.363 1_565 S
C572 C573 1.363 . S
C572 C577 1.379 . S
C572 N579 1.356 . S
C573 C572 1.363 . S
C573 C576 1.363 . S
N574 C576 1.356 . S
N574 H586 0.984 . S
N574 H587 0.985 . S
N575 C577 1.356 1_565 S
N575 H580 0.984 . S
N575 H581 0.985 1_565 S
C576 C570 1.379 1_545 S
C576 C573 1.363 . S
C576 N574 1.356 . S
C577 C571 1.363 1_545 S
C577 C572 1.379 . S
C577 N575 1.356 1_545 S
N578 C570 1.356 . S
N578 H584 0.984 . S
N578 H585 0.984 . S
N579 C572 1.356 . S
N579 H582 0.984 . S
N579 H583 0.985 . S
H580 N575 0.984 . S
H581 N575 0.985 1_545 S
H582 N579 0.984 . S
H583 N579 0.985 . S
H584 N578 0.984 . S
H585 N578 0.984 . S
H586 N574 0.984 . S
H587 N574 0.985 . S
C588 C589 1.363 . S
C588 C594 1.379 . S
C588 N596 1.356 . S
C589 C588 1.363 . S
C589 C595 1.363 . S
C590 C591 1.363 . S
C590 C595 1.379 . S
C590 N597 1.356 . S
C591 C590 1.363 . S
C591 C594 1.363 . S
N592 C594 1.356 . S
N592 H604 0.984 . S
N592 H605 0.985 . S
N593 C595 1.356 . S
N593 H598 0.984 . S
N593 H599 0.985 . S
C594 C588 1.379 . S
C594 C591 1.363 . S
C594 N592 1.356 . S
C595 C589 1.363 . S
C595 C590 1.379 . S
C595 N593 1.356 . S
N596 C588 1.356 . S
N596 H602 0.984 . S
N596 H603 0.984 . S
N597 C590 1.356 . S
N597 H600 0.984 . S
N597 H601 0.985 . S
H598 N593 0.984 . S
H599 N593 0.985 . S
H600 N597 0.984 . S
H601 N597 0.985 . S
H602 N596 0.984 . S
H603 N596 0.984 . S
H604 N592 0.984 . S
H605 N592 0.985 . S
C606 C607 1.363 . S
C606 C612 1.379 1_455 S
C606 N614 1.356 . S
C607 C606 1.363 . S
C607 C613 1.363 . S
C608 C609 1.363 1_455 S
C608 C613 1.379 . S
C608 N615 1.356 1_455 S
C609 C608 1.363 1_655 S
C609 C612 1.363 . S
N610 C612 1.356 . S
N610 H622 0.984 . S
N610 H623 0.985 . S
N611 C613 1.356 . S
N611 H616 0.984 . S
N611 H617 0.985 . S
C612 C606 1.379 1_655 S
C612 C609 1.363 . S
C612 N610 1.356 . S
C613 C607 1.363 . S
C613 C608 1.379 . S
C613 N611 1.356 . S
N614 C606 1.356 . S
N614 H620 0.984 . S
N614 H621 0.984 . S
N615 C608 1.356 1_655 S
N615 H618 0.984 . S
N615 H619 0.985 . S
H616 N611 0.984 . S
H617 N611 0.985 . S
H618 N615 0.984 . S
H619 N615 0.985 . S
H620 N614 0.984 . S
H621 N614 0.984 . S
H622 N610 0.984 . S
H623 N610 0.985 . S
C624 C625 1.363 . S
C624 C630 1.379 1_565 S
C624 N632 1.356 . S
C625 C624 1.363 . S
C625 C631 1.363 . S
C626 C627 1.363 1_565 S
C626 C631 1.379 . S
C626 N633 1.356 1_565 S
C627 C626 1.363 1_545 S
C627 C630 1.363 . S
N628 C630 1.356 . S
N628 H640 0.984 . S
N628 H641 0.985 . S
N629 C631 1.356 . S
N629 H634 0.984 . S
N629 H635 0.985 . S
C630 C624 1.379 1_545 S
C630 C627 1.363 . S
C630 N628 1.356 . S
C631 C625 1.363 . S
C631 C626 1.379 . S
C631 N629 1.356 . S
N632 C624 1.356 . S
N632 H638 0.984 . S
N632 H639 0.984 . S
N633 C626 1.356 1_545 S
N633 H636 0.984 . S
N633 H637 0.985 . S
H634 N629 0.984 . S
H635 N629 0.985 . S
H636 N633 0.984 . S
H637 N633 0.985 . S
H638 N632 0.984 . S
H639 N632 0.984 . S
H640 N628 0.984 . S
H641 N628 0.985 . S
C642 C643 1.363 . S
C642 C648 1.379 . S
C642 N650 1.356 . S
C643 C642 1.363 . S
C643 C649 1.363 . S
C644 C645 1.363 . S
C644 C649 1.379 . S
C644 N651 1.356 . S
C645 C644 1.363 . S
C645 C648 1.363 . S
N646 C648 1.356 . S
N646 H658 0.984 . S
N646 H659 0.985 . S
N647 C649 1.356 . S
N647 H652 0.984 . S
N647 H653 0.985 . S
C648 C642 1.379 . S
C648 C645 1.363 . S
C648 N646 1.356 . S
C649 C643 1.363 . S
C649 C644 1.379 . S
C649 N647 1.356 . S
N650 C642 1.356 . S
N650 H656 0.984 . S
N650 H657 0.984 . S
N651 C644 1.356 . S
N651 H654 0.984 . S
N651 H655 0.985 . S
H652 N647 0.984 . S
H653 N647 0.985 . S
H654 N651 0.984 . S
H655 N651 0.985 . S
H656 N650 0.984 . S
H657 N650 0.984 . S
H658 N646 0.984 . S
H659 N646 0.985 . S
C660 C661 1.363 . S
C660 C666 1.379 1_455 S
C660 N668 1.356 . S
C661 C660 1.363 . S
C661 C667 1.363 . S
C662 C663 1.363 1_455 S
C662 C667 1.379 . S
C662 N669 1.356 1_455 S
C663 C662 1.363 1_655 S
C663 C666 1.363 . S
N664 C666 1.356 . S
N664 H676 0.984 . S
N664 H677 0.985 . S
N665 C667 1.356 . S
N665 H670 0.984 . S
N665 H671 0.985 . S
C666 C660 1.379 1_655 S
C666 C663 1.363 . S
C666 N664 1.356 . S
C667 C661 1.363 . S
C667 C662 1.379 . S
C667 N665 1.356 . S
N668 C660 1.356 . S
N668 H674 0.984 . S
N668 H675 0.984 . S
N669 C662 1.356 1_655 S
N669 H672 0.984 . S
N669 H673 0.985 1_655 S
H670 N665 0.984 . S
H671 N665 0.985 . S
H672 N669 0.984 . S
H673 N669 0.985 1_455 S
H674 N668 0.984 . S
H675 N668 0.984 . S
H676 N664 0.984 . S
H677 N664 0.985 . S
C678 C679 1.363 1_565 S
C678 C684 1.379 . S
C678 N686 1.356 1_565 S
C679 C678 1.363 1_545 S
C679 C685 1.368 . S
C680 C681 1.363 . S
C680 C685 1.373 1_565 S
C680 N687 1.356 . S
C681 C680 1.363 . S
C681 C684 1.363 . S
N682 C684 1.356 . S
N682 H694 0.984 . S
N682 H695 0.985 . S
N683 C685 1.360 . S
N683 H688 0.984 . S
N683 H689 0.985 . S
C684 C678 1.379 . S
C684 C681 1.363 . S
C684 N682 1.356 . S
C685 C679 1.368 . S
C685 C680 1.373 1_545 S
C685 N683 1.360 . S
N686 C678 1.356 1_545 S
N686 H692 0.984 . S
N686 H693 0.984 . S
N687 C680 1.356 . S
N687 H690 0.984 . S
N687 H691 0.985 . S
H688 N683 0.984 . S
H689 N683 0.985 . S
H690 N687 0.984 . S
H691 N687 0.985 . S
H692 N686 0.984 . S
H693 N686 0.984 . S
H694 N682 0.984 . S
H695 N682 0.985 . S
C696 C697 1.363 . S
C696 C702 1.379 . S
C696 N704 1.356 . S
C697 C696 1.363 . S
C697 C703 1.363 . S
C698 C699 1.363 . S
C698 C703 1.379 . S
C698 N705 1.356 . S
C699 C698 1.363 . S
C699 C702 1.363 . S
N700 C702 1.356 . S
N700 H712 0.984 . S
N700 H713 0.985 . S
N701 C703 1.356 . S
N701 H706 0.984 . S
N701 H707 0.985 . S
C702 C696 1.379 . S
C702 C699 1.363 . S
C702 N700 1.356 . S
C703 C697 1.363 . S
C703 C698 1.379 . S
C703 N701 1.356 . S
N704 C696 1.356 . S
N704 H710 0.984 . S
N704 H711 0.984 . S
N705 C698 1.356 . S
N705 H708 0.984 . S
N705 H709 0.985 . S
H706 N701 0.984 . S
H707 N701 0.985 . S
H708 N705 0.984 . S
H709 N705 0.985 . S
H710 N704 0.984 . S
H711 N704 0.984 . S
H712 N700 0.984 . S
H713 N700 0.985 . S
C714 C715 1.363 . S
C714 C720 1.379 . S
C714 N722 1.356 . S
C715 C714 1.363 . S
C715 C721 1.363 . S
C716 C717 1.363 . S
C716 C721 1.379 . S
C716 N723 1.356 . S
C717 C716 1.363 . S
C717 C720 1.363 . S
N718 C720 1.356 . S
N718 H730 0.984 . S
N718 H731 0.985 . S
N719 C721 1.356 . S
N719 H724 0.984 . S
N719 H725 0.985 . S
C720 C714 1.379 . S
C720 C717 1.363 . S
C720 N718 1.356 . S
C721 C715 1.363 . S
C721 C716 1.379 . S
C721 N719 1.356 . S
N722 C714 1.356 . S
N722 H728 0.984 . S
N722 H729 0.984 . S
N723 C716 1.356 . S
N723 H726 0.984 . S
N723 H727 0.985 . S
H724 N719 0.984 . S
H725 N719 0.985 . S
H726 N723 0.984 . S
H727 N723 0.985 . S
H728 N722 0.984 . S
H729 N722 0.984 . S
H730 N718 0.984 . S
H731 N718 0.985 . S
C732 C733 1.363 . S
C732 C738 1.379 . S
C732 N740 1.356 . S
C733 C732 1.363 . S
C733 C739 1.363 . S
C734 C735 1.363 . S
C734 C739 1.379 . S
C734 N741 1.356 . S
C735 C734 1.363 . S
C735 C738 1.363 . S
N736 C738 1.356 . S
N736 H748 0.984 . S
N736 H749 0.985 . S
N737 C739 1.356 . S
N737 H742 0.984 . S
N737 H743 0.985 . S
C738 C732 1.379 . S
C738 C735 1.363 . S
C738 N736 1.356 . S
C739 C733 1.363 . S
C739 C734 1.379 . S
C739 N737 1.356 . S
N740 C732 1.356 . S
N740 H746 0.984 . S
N740 H747 0.984 . S
N741 C734 1.356 . S
N741 H744 0.984 . S
N741 H745 0.985 . S
H742 N737 0.984 . S
H743 N737 0.985 . S
H744 N741 0.984 . S
H745 N741 0.985 . S
H746 N740 0.984 . S
H747 N740 0.984 . S
H748 N736 0.984 . S
H749 N736 0.985 . S
C750 C751 1.363 . S
C750 C756 1.379 . S
C750 N758 1.356 . S
C751 C750 1.363 . S
C751 C757 1.363 . S
C752 C753 1.363 . S
C752 C757 1.379 . S
C752 N759 1.356 . S
C753 C752 1.363 . S
C753 C756 1.363 . S
N754 C756 1.356 . S
N754 H766 0.984 . S
N754 H767 0.985 . S
N755 C757 1.356 . S
N755 H760 0.984 . S
N755 H761 0.985 . S
C756 C750 1.379 . S
C756 C753 1.363 . S
C756 N754 1.356 . S
C757 C751 1.363 . S
C757 C752 1.379 . S
C757 N755 1.356 . S
N758 C750 1.356 . S
N758 H764 0.984 . S
N758 H765 0.984 . S
N759 C752 1.356 . S
N759 H762 0.984 . S
N759 H763 0.985 . S
H760 N755 0.984 . S
H761 N755 0.985 . S
H762 N759 0.984 . S
H763 N759 0.985 . S
H764 N758 0.984 . S
H765 N758 0.984 . S
H766 N754 0.984 . S
H767 N754 0.985 . S
C768 C769 1.363 . S
C768 C774 1.379 . S
C768 N776 1.356 . S
C769 C768 1.363 . S
C769 C775 1.363 . S
C770 C771 1.363 . S
C770 C775 1.379 . S
C770 N777 1.356 . S
C771 C770 1.363 . S
C771 C774 1.363 . S
N772 C774 1.356 . S
N772 H784 0.984 . S
N772 H785 0.985 . S
N773 C775 1.356 . S
N773 H778 0.984 . S
N773 H779 0.985 . S
C774 C768 1.379 . S
C774 C771 1.363 . S
C774 N772 1.356 . S
C775 C769 1.363 . S
C775 C770 1.379 . S
C775 N773 1.356 . S
N776 C768 1.356 . S
N776 H782 0.984 . S
N776 H783 0.984 . S
N777 C770 1.356 . S
N777 H780 0.984 . S
N777 H781 0.985 . S
H778 N773 0.984 . S
H779 N773 0.985 . S
H780 N777 0.984 . S
H781 N777 0.985 . S
H782 N776 0.984 . S
H783 N776 0.984 . S
H784 N772 0.984 . S
H785 N772 0.985 . S
C786 C787 1.363 . S
C786 C792 1.379 . S
C786 N794 1.356 . S
C787 C786 1.363 . S
C787 C793 1.363 . S
C788 C789 1.363 . S
C788 C793 1.379 . S
C788 N795 1.356 . S
C789 C788 1.363 . S
C789 C792 1.363 . S
N790 C792 1.356 . S
N790 H802 0.984 . S
N790 H803 0.985 . S
N791 C793 1.356 . S
N791 H796 0.984 . S
N791 H797 0.985 . S
C792 C786 1.379 . S
C792 C789 1.363 . S
C792 N790 1.356 . S
C793 C787 1.363 . S
C793 C788 1.379 . S
C793 N791 1.356 . S
N794 C786 1.356 . S
N794 H800 0.984 . S
N794 H801 0.984 . S
N795 C788 1.356 . S
N795 H798 0.984 . S
N795 H799 0.985 . S
H796 N791 0.984 . S
H797 N791 0.985 . S
H798 N795 0.984 . S
H799 N795 0.985 . S
H800 N794 0.984 . S
H801 N794 0.984 . S
H802 N790 0.984 . S
H803 N790 0.985 . S
C804 C805 1.363 . S
C804 C810 1.379 1_566 S
C804 N812 1.356 . S
C805 C804 1.363 . S
C805 C811 1.363 . S
C806 C807 1.363 . S
C806 C811 1.379 1_544 S
C806 N813 1.356 . S
C807 C806 1.363 . S
C807 C810 1.363 . S
N808 C810 1.356 . S
N808 H820 0.984 . S
N808 H821 0.985 . S
N809 C811 1.356 . S
N809 H814 0.984 . S
N809 H815 0.985 . S
C810 C804 1.379 1_544 S
C810 C807 1.363 . S
C810 N808 1.356 . S
C811 C805 1.363 . S
C811 C806 1.379 1_566 S
C811 N809 1.356 . S
N812 C804 1.356 . S
N812 H818 0.984 . S
N812 H819 0.984 . S
N813 C806 1.356 . S
N813 H816 0.984 . S
N813 H817 0.985 . S
H814 N809 0.984 . S
H815 N809 0.985 . S
H816 N813 0.984 . S
H817 N813 0.985 . S
H818 N812 0.984 . S
H819 N812 0.984 . S
H820 N808 0.984 . S
H821 N808 0.985 . S
C822 C823 1.363 . S
C822 C828 1.379 . S
C822 N830 1.356 . S
C823 C822 1.363 . S
C823 C829 1.363 . S
C824 C825 1.363 . S
C824 C829 1.379 . S
C824 N831 1.356 . S
C825 C824 1.363 . S
C825 C828 1.363 . S
N826 C828 1.356 . S
N826 H838 0.984 . S
N826 H839 0.985 . S
N827 C829 1.356 . S
N827 H832 0.984 . S
N827 H833 0.985 . S
C828 C822 1.379 . S
C828 C825 1.363 . S
C828 N826 1.356 . S
C829 C823 1.363 . S
C829 C824 1.379 . S
C829 N827 1.356 . S
N830 C822 1.356 . S
N830 H836 0.984 . S
N830 H837 0.984 . S
N831 C824 1.356 . S
N831 H834 0.984 . S
N831 H835 0.985 . S
H832 N827 0.984 . S
H833 N827 0.985 . S
H834 N831 0.984 . S
H835 N831 0.985 . S
H836 N830 0.984 . S
H837 N830 0.984 . S
H838 N826 0.984 . S
H839 N826 0.985 . S
C840 C841 1.363 1_554 S
C840 C846 1.379 1_455 S
C840 N848 1.356 . S
C841 C840 1.363 1_556 S
C841 C847 1.363 . S
C842 C843 1.363 1_556 S
C842 C847 1.379 1_655 S
C842 N849 1.356 . S
C843 C842 1.363 1_554 S
C843 C846 1.363 . S
N844 C846 1.356 . S
N844 H856 0.984 . S
N844 H857 0.985 . S
N845 C847 1.356 . S
N845 H850 0.984 . S
N845 H851 0.985 . S
C846 C840 1.379 1_655 S
C846 C843 1.363 . S
C846 N844 1.356 . S
C847 C841 1.363 . S
C847 C842 1.379 1_455 S
C847 N845 1.356 . S
N848 C840 1.356 . S
N848 H854 0.984 . S
N848 H855 0.984 . S
N849 C842 1.356 . S
N849 H852 0.984 . S
N849 H853 0.985 . S
H850 N845 0.984 . S
H851 N845 0.985 . S
H852 N849 0.984 . S
H853 N849 0.985 . S
H854 N848 0.984 . S
H855 N848 0.984 . S
H856 N844 0.984 . S
H857 N844 0.985 . S
C858 C859 1.363 . S
C858 C864 1.379 1_545 S
C858 N866 1.356 . S
C859 C858 1.363 . S
C859 C865 1.363 . S
C860 C861 1.363 . S
C860 C865 1.379 1_565 S
C860 N867 1.356 . S
C861 C860 1.363 . S
C861 C864 1.363 . S
N862 C864 1.356 . S
N862 H874 0.984 . S
N862 H875 0.985 . S
N863 C865 1.356 . S
N863 H868 0.984 . S
N863 H869 0.985 . S
C864 C858 1.379 1_565 S
C864 C861 1.363 . S
C864 N862 1.356 . S
C865 C859 1.363 . S
C865 C860 1.379 1_545 S
C865 N863 1.356 . S
N866 C858 1.356 . S
N866 H872 0.984 . S
N866 H873 0.984 . S
N867 C860 1.356 . S
N867 H870 0.984 . S
N867 H871 0.985 . S
H868 N863 0.984 . S
H869 N863 0.985 . S
H870 N867 0.984 . S
H871 N867 0.985 . S
H872 N866 0.984 . S
H873 N866 0.984 . S
H874 N862 0.984 . S
H875 N862 0.985 . S
C876 C877 1.363 . S
C876 C882 1.379 . S
C876 N884 1.356 . S
C877 C876 1.363 . S
C877 C883 1.363 1_554 S
C878 C879 1.363 . S
C878 C883 1.379 . S
C878 N885 1.356 . S
C879 C878 1.363 . S
C879 C882 1.363 1_556 S
N880 C882 1.356 . S
N880 H892 0.984 . S
N880 H893 0.985 . S
N881 C883 1.356 . S
N881 H886 0.984 . S
N881 H887 0.985 . S
C882 C876 1.379 . S
C882 C879 1.363 1_554 S
C882 N880 1.356 . S
C883 C877 1.363 1_556 S
C883 C878 1.379 . S
C883 N881 1.356 . S
N884 C876 1.356 . S
N884 H890 0.984 . S
N884 H891 0.984 . S
N885 C878 1.356 . S
N885 H888 0.984 . S
N885 H889 0.985 . S
H886 N881 0.984 . S
H887 N881 0.985 . S
H888 N885 0.984 . S
H889 N885 0.985 . S
H890 N884 0.984 . S
H891 N884 0.984 . S
H892 N880 0.984 . S
H893 N880 0.985 . S
C894 C895 1.363 . S
C894 C900 1.379 1_455 S
C894 N902 1.356 . S
C895 C894 1.363 . S
C895 C901 1.363 . S
C896 C897 1.363 . S
C896 C901 1.379 1_655 S
C896 N903 1.356 . S
C897 C896 1.363 . S
C897 C900 1.363 . S
N898 C900 1.356 . S
N898 H910 0.984 . S
N898 H911 0.985 . S
N899 C901 1.356 . S
N899 H904 0.984 . S
N899 H905 0.985 . S
C900 C894 1.379 1_655 S
C900 C897 1.363 . S
C900 N898 1.356 . S
C901 C895 1.363 . S
C901 C896 1.379 1_455 S
C901 N899 1.356 . S
N902 C894 1.356 . S
N902 H908 0.984 . S
N902 H909 0.984 . S
N903 C896 1.356 . S
N903 H906 0.984 . S
N903 H907 0.985 . S
H904 N899 0.984 . S
H905 N899 0.985 . S
H906 N903 0.984 . S
H907 N903 0.985 . S
H908 N902 0.984 . S
H909 N902 0.984 . S
H910 N898 0.984 . S
H911 N898 0.985 . S
C912 C913 1.363 . S
C912 C918 1.379 . S
C912 N920 1.356 . S
C913 C912 1.363 . S
C913 C919 1.363 . S
C914 C915 1.363 . S
C914 C919 1.379 . S
C914 N921 1.356 . S
C915 C914 1.363 . S
C915 C918 1.363 . S
N916 C918 1.356 . S
N916 H928 0.984 . S
N916 H929 0.985 . S
N917 C919 1.356 . S
N917 H922 0.984 . S
N917 H923 0.985 . S
C918 C912 1.379 . S
C918 C915 1.363 . S
C918 N916 1.356 . S
C919 C913 1.363 . S
C919 C914 1.379 . S
C919 N917 1.356 . S
N920 C912 1.356 . S
N920 H926 0.984 . S
N920 H927 0.984 . S
N921 C914 1.356 . S
N921 H924 0.984 . S
N921 H925 0.985 . S
H922 N917 0.984 . S
H923 N917 0.985 . S
H924 N921 0.984 . S
H925 N921 0.985 . S
H926 N920 0.984 . S
H927 N920 0.984 . S
H928 N916 0.984 . S
H929 N916 0.985 . S
C930 C931 1.363 . S
C930 C936 1.379 . S
C930 N938 1.356 . S
C931 C930 1.363 . S
C931 C937 1.363 . S
C932 C933 1.363 . S
C932 C937 1.379 . S
C932 N939 1.356 . S
C933 C932 1.363 . S
C933 C936 1.363 . S
N934 C936 1.356 . S
N934 H946 0.984 . S
N934 H947 0.985 . S
N935 C937 1.356 . S
N935 H940 0.984 . S
N935 H941 0.985 . S
C936 C930 1.379 . S
C936 C933 1.363 . S
C936 N934 1.356 . S
C937 C931 1.363 . S
C937 C932 1.379 . S
C937 N935 1.356 . S
N938 C930 1.356 . S
N938 H944 0.984 . S
N938 H945 0.984 . S
N939 C932 1.356 . S
N939 H942 0.984 . S
N939 H943 0.985 . S
H940 N935 0.984 . S
H941 N935 0.985 . S
H942 N939 0.984 . S
H943 N939 0.985 . S
H944 N938 0.984 . S
H945 N938 0.984 . S
H946 N934 0.984 . S
H947 N934 0.985 . S
C948 C949 1.363 . S
C948 C954 1.379 . S
C948 N956 1.356 . S
C949 C948 1.363 . S
C949 C955 1.363 . S
C950 C951 1.363 . S
C950 C955 1.379 . S
C950 N957 1.356 . S
C951 C950 1.363 . S
C951 C954 1.363 . S
N952 C954 1.356 . S
N952 H964 0.984 . S
N952 H965 0.985 . S
N953 C955 1.356 . S
N953 H958 0.984 . S
N953 H959 0.985 . S
C954 C948 1.379 . S
C954 C951 1.363 . S
C954 N952 1.356 . S
C955 C949 1.363 . S
C955 C950 1.379 . S
C955 N953 1.356 . S
N956 C948 1.356 . S
N956 H962 0.984 . S
N956 H963 0.984 . S
N957 C950 1.356 . S
N957 H960 0.984 . S
N957 H961 0.985 . S
H958 N953 0.984 . S
H959 N953 0.985 . S
H960 N957 0.984 . S
H961 N957 0.985 . S
H962 N956 0.984 . S
H963 N956 0.984 . S
H964 N952 0.984 . S
H965 N952 0.985 . S
C966 C967 1.363 . S
C966 C972 1.379 . S
C966 N974 1.356 . S
C967 C966 1.363 . S
C967 C973 1.363 . S
C968 C969 1.363 . S
C968 C973 1.379 . S
C968 N975 1.356 . S
C969 C968 1.363 . S
C969 C972 1.363 . S
N970 C972 1.356 . S
N970 H982 0.984 . S
N970 H983 0.985 . S
N971 C973 1.356 . S
N971 H976 0.984 . S
N971 H977 0.985 . S
C972 C966 1.379 . S
C972 C969 1.363 . S
C972 N970 1.356 . S
C973 C967 1.363 . S
C973 C968 1.379 . S
C973 N971 1.356 . S
N974 C966 1.356 . S
N974 H980 0.984 . S
N974 H981 0.984 . S
N975 C968 1.356 . S
N975 H978 0.984 . S
N975 H979 0.985 . S
H976 N971 0.984 . S
H977 N971 0.985 . S
H978 N975 0.984 . S
H979 N975 0.985 . S
H980 N974 0.984 . S
H981 N974 0.984 . S
H982 N970 0.984 . S
H983 N970 0.985 . S
C984 C985 1.363 . S
C984 C990 1.379 . S
C984 N992 1.356 . S
C985 C984 1.363 . S
C985 C991 1.363 . S
C986 C987 1.363 . S
C986 C991 1.379 . S
C986 N993 1.356 . S
C987 C986 1.363 . S
C987 C990 1.363 . S
N988 C990 1.356 . S
N988 H1000 0.984 . S
N988 H1001 0.985 . S
N989 C991 1.356 . S
N989 H994 0.984 . S
N989 H995 0.985 . S
C990 C984 1.379 . S
C990 C987 1.363 . S
C990 N988 1.356 . S
C991 C985 1.363 . S
C991 C986 1.379 . S
C991 N989 1.356 . S
N992 C984 1.356 . S
N992 H998 0.984 . S
N992 H999 0.984 . S
N993 C986 1.356 . S
N993 H996 0.984 . S
N993 H997 0.985 . S
H994 N989 0.984 . S
H995 N989 0.985 . S
H996 N993 0.984 . S
H997 N993 0.985 . S
H998 N992 0.984 . S
H999 N992 0.984 . S
H1000 N988 0.984 . S
H1001 N988 0.985 . S
C1002 C1003 1.363 . S
C1002 C1008 1.379 . S
C1002 N1010 1.356 . S
C1003 C1002 1.363 . S
C1003 C1009 1.363 . S
C1004 C1005 1.363 . S
C1004 C1009 1.379 . S
C1004 N1011 1.356 . S
C1005 C1004 1.363 . S
C1005 C1008 1.363 . S
N1006 C1008 1.356 . S
N1006 H1018 0.984 . S
N1006 H1019 0.985 . S
N1007 C1009 1.356 . S
N1007 H1012 0.984 . S
N1007 H1013 0.985 . S
C1008 C1002 1.379 . S
C1008 C1005 1.363 . S
C1008 N1006 1.356 . S
C1009 C1003 1.363 . S
C1009 C1004 1.379 . S
C1009 N1007 1.356 . S
N1010 C1002 1.356 . S
N1010 H1016 0.984 . S
N1010 H1017 0.984 . S
N1011 C1004 1.356 . S
N1011 H1014 0.984 . S
N1011 H1015 0.985 . S
H1012 N1007 0.984 . S
H1013 N1007 0.985 . S
H1014 N1011 0.984 . S
H1015 N1011 0.985 . S
H1016 N1010 0.984 . S
H1017 N1010 0.984 . S
H1018 N1006 0.984 . S
H1019 N1006 0.985 . S
C1020 C1021 1.363 . S
C1020 C1026 1.379 . S
C1020 N1028 1.356 . S
C1021 C1020 1.363 . S
C1021 C1027 1.363 . S
C1022 C1023 1.363 . S
C1022 C1027 1.379 . S
C1022 N1029 1.356 . S
C1023 C1022 1.363 . S
C1023 C1026 1.363 . S
N1024 C1026 1.356 . S
N1024 H1036 0.984 . S
N1024 H1037 0.985 . S
N1025 C1027 1.356 . S
N1025 H1030 0.984 . S
N1025 H1031 0.985 . S
C1026 C1020 1.379 . S
C1026 C1023 1.363 . S
C1026 N1024 1.356 . S
C1027 C1021 1.363 . S
C1027 C1022 1.379 . S
C1027 N1025 1.356 . S
N1028 C1020 1.356 . S
N1028 H1034 0.984 . S
N1028 H1035 0.984 . S
N1029 C1022 1.356 . S
N1029 H1032 0.984 . S
N1029 H1033 0.985 . S
H1030 N1025 0.984 . S
H1031 N1025 0.985 . S
H1032 N1029 0.984 . S
H1033 N1029 0.985 . S
H1034 N1028 0.984 . S
H1035 N1028 0.984 . S
H1036 N1024 0.984 . S
H1037 N1024 0.985 . S
C1038 C1039 1.363 . S
C1038 C1044 1.379 . S
C1038 N1046 1.356 . S
C1039 C1038 1.363 . S
C1039 C1045 1.363 . S
C1040 C1041 1.363 . S
C1040 C1045 1.379 . S
C1040 N1047 1.356 . S
C1041 C1040 1.363 . S
C1041 C1044 1.363 . S
N1042 C1044 1.356 . S
N1042 H1054 0.984 . S
N1042 H1055 0.985 . S
N1043 C1045 1.356 . S
N1043 H1048 0.984 . S
N1043 H1049 0.985 . S
C1044 C1038 1.379 . S
C1044 C1041 1.363 . S
C1044 N1042 1.356 . S
C1045 C1039 1.363 . S
C1045 C1040 1.379 . S
C1045 N1043 1.356 . S
N1046 C1038 1.356 . S
N1046 H1052 0.984 . S
N1046 H1053 0.984 . S
N1047 C1040 1.356 . S
N1047 H1050 0.984 . S
N1047 H1051 0.985 . S
H1048 N1043 0.984 . S
H1049 N1043 0.985 . S
H1050 N1047 0.984 . S
H1051 N1047 0.985 . S
H1052 N1046 0.984 . S
H1053 N1046 0.984 . S
H1054 N1042 0.984 . S
H1055 N1042 0.985 . S
C1056 C1057 1.363 . S
C1056 C1062 1.379 . S
C1056 N1064 1.356 . S
C1057 C1056 1.363 . S
C1057 C1063 1.363 . S
C1058 C1059 1.363 . S
C1058 C1063 1.379 . S
C1058 N1065 1.356 . S
C1059 C1058 1.363 . S
C1059 C1062 1.363 . S
N1060 C1062 1.356 . S
N1060 H1072 0.984 . S
N1060 H1073 0.985 . S
N1061 C1063 1.356 . S
N1061 H1066 0.984 . S
N1061 H1067 0.985 . S
C1062 C1056 1.379 . S
C1062 C1059 1.363 . S
C1062 N1060 1.356 . S
C1063 C1057 1.363 . S
C1063 C1058 1.379 . S
C1063 N1061 1.356 . S
N1064 C1056 1.356 . S
N1064 H1070 0.984 . S
N1064 H1071 0.984 . S
N1065 C1058 1.356 . S
N1065 H1068 0.984 . S
N1065 H1069 0.985 . S
H1066 N1061 0.984 . S
H1067 N1061 0.985 . S
H1068 N1065 0.984 . S
H1069 N1065 0.985 . S
H1070 N1064 0.984 . S
H1071 N1064 0.984 . S
H1072 N1060 0.984 . S
H1073 N1060 0.985 . S
C1074 C1075 1.363 . S
C1074 C1080 1.379 . S
C1074 N1082 1.356 . S
C1075 C1074 1.363 . S
C1075 C1081 1.363 . S
C1076 C1077 1.363 . S
C1076 C1081 1.379 . S
C1076 N1083 1.356 . S
C1077 C1076 1.363 . S
C1077 C1080 1.363 . S
N1078 C1080 1.356 . S
N1078 H1090 0.984 . S
N1078 H1091 0.985 . S
N1079 C1081 1.356 . S
N1079 H1084 0.984 . S
N1079 H1085 0.985 . S
C1080 C1074 1.379 . S
C1080 C1077 1.363 . S
C1080 N1078 1.356 . S
C1081 C1075 1.363 . S
C1081 C1076 1.379 . S
C1081 N1079 1.356 . S
N1082 C1074 1.356 . S
N1082 H1088 0.984 . S
N1082 H1089 0.984 . S
N1083 C1076 1.356 . S
N1083 H1086 0.984 . S
N1083 H1087 0.985 . S
H1084 N1079 0.984 . S
H1085 N1079 0.985 . S
H1086 N1083 0.984 . S
H1087 N1083 0.985 . S
H1088 N1082 0.984 . S
H1089 N1082 0.984 . S
H1090 N1078 0.984 . S
H1091 N1078 0.985 . S
C1092 C1093 1.363 . S
C1092 C1098 1.379 . S
C1092 N1100 1.356 . S
C1093 C1092 1.363 . S
C1093 C1099 1.363 . S
C1094 C1095 1.363 . S
C1094 C1099 1.379 . S
C1094 N1101 1.356 . S
C1095 C1094 1.363 . S
C1095 C1098 1.363 . S
N1096 C1098 1.356 . S
N1096 H1108 0.984 . S
N1096 H1109 0.985 . S
N1097 C1099 1.356 . S
N1097 H1102 0.984 . S
N1097 H1103 0.985 . S
C1098 C1092 1.379 . S
C1098 C1095 1.363 . S
C1098 N1096 1.356 . S
C1099 C1093 1.363 . S
C1099 C1094 1.379 . S
C1099 N1097 1.356 . S
N1100 C1092 1.356 . S
N1100 H1106 0.984 . S
N1100 H1107 0.984 . S
N1101 C1094 1.356 . S
N1101 H1104 0.984 . S
N1101 H1105 0.985 . S
H1102 N1097 0.984 . S
H1103 N1097 0.985 . S
H1104 N1101 0.984 . S
H1105 N1101 0.985 . S
H1106 N1100 0.984 . S
H1107 N1100 0.984 . S
H1108 N1096 0.984 . S
H1109 N1096 0.985 . S
C1110 C1111 1.363 . S
C1110 C1116 1.379 . S
C1110 N1118 1.356 . S
C1111 C1110 1.363 . S
C1111 C1117 1.363 . S
C1112 C1113 1.363 . S
C1112 C1117 1.379 . S
C1112 N1119 1.356 . S
C1113 C1112 1.363 . S
C1113 C1116 1.363 . S
N1114 C1116 1.356 . S
N1114 H1126 0.984 . S
N1114 H1127 0.985 . S
N1115 C1117 1.356 . S
N1115 H1120 0.984 . S
N1115 H1121 0.985 . S
C1116 C1110 1.379 . S
C1116 C1113 1.363 . S
C1116 N1114 1.356 . S
C1117 C1111 1.363 . S
C1117 C1112 1.379 . S
C1117 N1115 1.356 . S
N1118 C1110 1.356 . S
N1118 H1124 0.984 . S
N1118 H1125 0.984 . S
N1119 C1112 1.356 . S
N1119 H1122 0.984 . S
N1119 H1123 0.985 . S
H1120 N1115 0.984 . S
H1121 N1115 0.985 . S
H1122 N1119 0.984 . S
H1123 N1119 0.985 . S
H1124 N1118 0.984 . S
H1125 N1118 0.984 . S
H1126 N1114 0.984 . S
H1127 N1114 0.985 . S
C481 C96 1.438 . S
C483 C11 1.374 . S
C499 C127 1.438 . S
C501 C42 1.374 . S
C517 C91 1.374 . S
C519 C176 1.438 . S
C535 C122 1.374 . S
C537 C207 1.438 . S
C553 C16 1.438 . S
C555 C171 1.374 . S
C571 C47 1.438 . S
C573 C202 1.374 . S
C589 C407 1.438 . S
C591 C242 1.374 . S
C607 C291 1.374 . S
C609 C456 1.438 . S
C625 C322 1.374 . S
C627 C247 1.438 . S
C643 C371 1.374 . S
C645 C296 1.438 . S
C661 C402 1.374 . S
C663 C327 1.438 . S
C679 C376 1.438 . S
C681 C451 1.374 . S
C697 C130 1.694 . S
C699 C19 1.694 . S
C715 C50 1.694 . S
C717 C179 1.694 . S
C733 C99 1.694 . S
C735 C210 1.694 . S
C751 C250 1.694 . S
C753 C379 1.694 . S
C769 C299 1.694 . S
C771 C410 1.694 . S
C787 C330 1.694 . S
C789 C459 1.694 . S
C805 C290 2.545 . S
C807 C10 2.545 . S
C823 C59 2.545 . S
C825 C339 2.545 . S
C841 C370 2.545 . S
C843 C90 2.545 . S
C859 C139 2.545 . S
C861 C419 2.545 . S
C877 C170 2.545 . S
C879 C450 2.545 . S
C895 C259 2.545 . S
C897 C219 2.545 . S
C913 C87 1.824 . S
C915 C2 1.851 . S
C931 C51 1.851 . S
C933 C136 1.824 . S
C949 C82 1.851 . S
C951 C167 1.824 . S
C967 C131 1.851 . S
C969 C216 1.824 . S
C985 C7 1.824 . S
C987 C162 1.851 . S
C1003 C56 1.824 . S
C1005 C211 1.851 . S
C1021 C416 1.824 . S
C1023 C251 1.851 . S
C1039 C282 1.851 . S
C1041 C447 1.824 . S
C1057 C331 1.851 . S
C1059 C256 1.824 . S
C1075 C287 1.824 . S
C1077 C362 1.851 . S
C1093 C411 1.851 . S
C1095 C336 1.824 . S
C1111 C442 1.851 . S
C1113 C367 1.824 . S
