# Generated by pormake.
# Topology upb, (4)-cn, num edge types: 1
# Building blocks:
#     Node 0, Type 0, BuildingBlock: UXUYUI_clean_sbu_0, # of connection points: 4
#     Node 1, Type 0, BuildingBlock: UXUYUI_clean_sbu_0, # of connection points: 4
#     Node 2, Type 0, BuildingBlock: UXUYUI_clean_sbu_0, # of connection points: 4
#     Node 3, Type 0, BuildingBlock: UXUYUI_clean_sbu_0, # of connection points: 4
#     Node 4, Type 0, BuildingBlock: UXUYUI_clean_sbu_0, # of connection points: 4
#     Node 5, Type 0, BuildingBlock: UXUYUI_clean_sbu_0, # of connection points: 4
#     Node 6, Type 0, BuildingBlock: UXUYUI_clean_sbu_0, # of connection points: 4
#     Node 7, Type 0, BuildingBlock: UXUYUI_clean_sbu_0, # of connection points: 4
#     Node 8, Type 0, BuildingBlock: UXUYUI_clean_sbu_0, # of connection points: 4
#     Node 9, Type 0, BuildingBlock: UXUYUI_clean_sbu_0, # of connection points: 4
#     Node 10, Type 0, BuildingBlock: UXUYUI_clean_sbu_0, # of connection points: 4
#     Node 11, Type 0, BuildingBlock: UXUYUI_clean_sbu_0, # of connection points: 4
#     Node 12, Type 0, BuildingBlock: UXUYUI_clean_sbu_0, # of connection points: 4
#     Node 13, Type 0, BuildingBlock: UXUYUI_clean_sbu_0, # of connection points: 4
#     Node 14, Type 0, BuildingBlock: UXUYUI_clean_sbu_0, # of connection points: 4
#     Node 15, Type 0, BuildingBlock: UXUYUI_clean_sbu_0, # of connection points: 4
#     Edge 16, Type (0, 0), BuildingBlock: MIFKUJ_clean_linker_0, # of connection points: 2
#     Edge 17, Type (0, 0), BuildingBlock: MIFKUJ_clean_linker_0, # of connection points: 2
#     Edge 18, Type (0, 0), BuildingBlock: MIFKUJ_clean_linker_0, # of connection points: 2
#     Edge 19, Type (0, 0), BuildingBlock: MIFKUJ_clean_linker_0, # of connection points: 2
#     Edge 20, Type (0, 0), BuildingBlock: MIFKUJ_clean_linker_0, # of connection points: 2
#     Edge 21, Type (0, 0), BuildingBlock: MIFKUJ_clean_linker_0, # of connection points: 2
#     Edge 22, Type (0, 0), BuildingBlock: MIFKUJ_clean_linker_0, # of connection points: 2
#     Edge 23, Type (0, 0), BuildingBlock: MIFKUJ_clean_linker_0, # of connection points: 2
#     Edge 24, Type (0, 0), BuildingBlock: MIFKUJ_clean_linker_0, # of connection points: 2
#     Edge 25, Type (0, 0), BuildingBlock: MIFKUJ_clean_linker_0, # of connection points: 2
#     Edge 26, Type (0, 0), BuildingBlock: MIFKUJ_clean_linker_0, # of connection points: 2
#     Edge 27, Type (0, 0), BuildingBlock: MIFKUJ_clean_linker_0, # of connection points: 2
#     Edge 28, Type (0, 0), BuildingBlock: MIFKUJ_clean_linker_0, # of connection points: 2
#     Edge 29, Type (0, 0), BuildingBlock: MIFKUJ_clean_linker_0, # of connection points: 2
#     Edge 30, Type (0, 0), BuildingBlock: MIFKUJ_clean_linker_0, # of connection points: 2
#     Edge 31, Type (0, 0), BuildingBlock: MIFKUJ_clean_linker_0, # of connection points: 2
#     Edge 32, Type (0, 0), BuildingBlock: MIFKUJ_clean_linker_0, # of connection points: 2
#     Edge 33, Type (0, 0), BuildingBlock: MIFKUJ_clean_linker_0, # of connection points: 2
#     Edge 34, Type (0, 0), BuildingBlock: MIFKUJ_clean_linker_0, # of connection points: 2
#     Edge 35, Type (0, 0), BuildingBlock: MIFKUJ_clean_linker_0, # of connection points: 2
#     Edge 36, Type (0, 0), BuildingBlock: MIFKUJ_clean_linker_0, # of connection points: 2
#     Edge 37, Type (0, 0), BuildingBlock: MIFKUJ_clean_linker_0, # of connection points: 2
#     Edge 38, Type (0, 0), BuildingBlock: MIFKUJ_clean_linker_0, # of connection points: 2
#     Edge 39, Type (0, 0), BuildingBlock: MIFKUJ_clean_linker_0, # of connection points: 2
#     Edge 40, Type (0, 0), BuildingBlock: MIFKUJ_clean_linker_0, # of connection points: 2
#     Edge 41, Type (0, 0), BuildingBlock: MIFKUJ_clean_linker_0, # of connection points: 2
#     Edge 42, Type (0, 0), BuildingBlock: MIFKUJ_clean_linker_0, # of connection points: 2
#     Edge 43, Type (0, 0), BuildingBlock: MIFKUJ_clean_linker_0, # of connection points: 2
#     Edge 44, Type (0, 0), BuildingBlock: MIFKUJ_clean_linker_0, # of connection points: 2
#     Edge 45, Type (0, 0), BuildingBlock: MIFKUJ_clean_linker_0, # of connection points: 2
#     Edge 46, Type (0, 0), BuildingBlock: MIFKUJ_clean_linker_0, # of connection points: 2
#     Edge 47, Type (0, 0), BuildingBlock: MIFKUJ_clean_linker_0, # of connection points: 2
# Relax obj value: 0.322
# Max RMSD: 0.141
# Mean RMSD: 0.140
data_MOF--net-upb--node1-UXUYUI_clean_sbu_0--edge1-MIFKUJ_clean_linker_0
_symmetry_space_group_name_H-M    P1
_symmetry_Int_Tables_number       1
_symmetry_cell_setting            triclinic
loop_
_symmetry_equiv_pos_as_xyz
'x, y, z'
_cell_length_a     61.713489
_cell_length_b     61.638232
_cell_length_c     86.90916
_cell_angle_alpha  90.001099
_cell_angle_beta   90.003007
_cell_angle_gamma 89.987892
loop_
_atom_site_label
_atom_site_type_symbol
_atom_site_fract_x
_atom_site_fract_y
_atom_site_fract_z
_atom_type_partial_charge
Li0 Li 0.01276 0.28758 0.35042 0.0
Li1 Li 0.99352 0.31214 0.36815 0.0
Li2 Li 0.97332 0.28867 0.34891 0.0
Li3 Li 0.99381 0.32068 0.34044 0.0
C4 C 0.99965 0.26159 0.3733 0.0
N5 N 0.01675 0.22442 0.38625 0.0
C6 C 0.00932 0.2624 0.38783 0.0
C7 C 0.99842 0.24185 0.36544 0.0
C8 C 0.01793 0.24343 0.39417 0.0
C9 C 0.00724 0.22325 0.37216 0.0
C10 C 0.03051 0.33584 0.35997 0.0
C11 C 0.03329 0.37406 0.36551 0.0
N12 N 0.05408 0.37105 0.37026 0.0
C13 C 0.05194 0.33313 0.3648 0.0
C14 C 0.02112 0.35645 0.36024 0.0
C15 C 0.06357 0.35113 0.37001 0.0
C16 C 0.04227 0.26036 0.33466 0.0
N17 N 0.03781 0.26974 0.34845 0.0
C18 C 0.06867 0.25272 0.35987 0.0
C19 C 0.05081 0.26657 0.36086 0.0
C20 C 0.07351 0.24238 0.34584 0.0
C21 C 0.06014 0.24663 0.33308 0.0
H22 H 0.03195 0.26355 0.32487 0.0
H23 H 0.04716 0.2746 0.37161 0.0
C24 C 0.97414 0.32783 0.39534 0.0
N25 N 0.99343 0.32316 0.38855 0.0
C26 C 0.97343 0.33419 0.41076 0.0
C27 C 0.01248 0.3313 0.41179 0.0
C28 C 0.01241 0.32478 0.39641 0.0
C29 C 0.99278 0.33581 0.41921 0.0
H30 H 0.95927 0.32611 0.38886 0.0
H31 H 0.02744 0.3203 0.3909 0.0
C32 C 0.98575 0.28076 0.31927 0.0
N33 N 0.96755 0.26031 0.29411 0.0
C34 C 0.97672 0.29301 0.30735 0.0
C35 C 0.98573 0.25812 0.31833 0.0
C36 C 0.96756 0.28236 0.29474 0.0
C37 C 0.97637 0.24809 0.30554 0.0
C38 C 0.95396 0.33595 0.35211 0.0
C39 C 0.93629 0.33259 0.34234 0.0
C40 C 0.95641 0.35592 0.35952 0.0
C41 C 0.92157 0.34947 0.33989 0.0
C42 C 0.94136 0.3724 0.35676 0.0
N43 N 0.9244 0.36887 0.34707 0.0
C44 C 0.94306 0.2579 0.35859 0.0
C45 C 0.93611 0.27049 0.33333 0.0
C46 C 0.92592 0.24322 0.35759 0.0
N47 N 0.94811 0.27086 0.34645 0.0
C48 C 0.91889 0.25591 0.33178 0.0
C49 C 0.91379 0.24176 0.34394 0.0
H50 H 0.9525 0.25881 0.36904 0.0
H51 H 0.94003 0.28125 0.32394 0.0
C52 C 0.01815 0.34632 0.32127 0.0
N53 N 0.99721 0.34329 0.32556 0.0
C54 C 0.02345 0.36167 0.31014 0.0
C55 C 0.98547 0.37053 0.30775 0.0
C56 C 0.9809 0.35501 0.31906 0.0
C57 C 0.00701 0.37387 0.30305 0.0
H58 H 0.0308 0.33663 0.32646 0.0
H59 H 0.96432 0.35208 0.32235 0.0
O60 O 0.99141 0.28005 0.36681 0.0
O61 O 0.01889 0.31834 0.35493 0.0
O62 O 0.99482 0.29091 0.3317 0.0
O63 O 0.96838 0.31954 0.35477 0.0
H64 H 0.0103 0.27752 0.3941 0.0
H65 H 0.99081 0.24094 0.35426 0.0
H66 H 0.02558 0.24382 0.40536 0.0
H67 H 0.00653 0.20789 0.36616 0.0
H68 H 0.02622 0.39011 0.3658 0.0
H69 H 0.05945 0.31726 0.36461 0.0
H70 H 0.00468 0.35884 0.35634 0.0
H71 H 0.08014 0.34927 0.37386 0.0
H72 H 0.07829 0.24985 0.37008 0.0
H73 H 0.06346 0.23954 0.32193 0.0
H74 H 0.95792 0.33757 0.41608 0.0
H75 H 0.0277 0.33195 0.41798 0.0
H76 H 0.97666 0.31053 0.30787 0.0
H77 H 0.99279 0.24841 0.32738 0.0
H78 H 0.96043 0.29163 0.28546 0.0
H79 H 0.97613 0.23058 0.30469 0.0
H80 H 0.93406 0.31719 0.33661 0.0
H81 H 0.96969 0.35864 0.3674 0.0
H82 H 0.9079 0.34715 0.33228 0.0
H83 H 0.9431 0.38797 0.36237 0.0
H84 H 0.92227 0.23307 0.36743 0.0
H85 H 0.91008 0.25536 0.32101 0.0
H86 H 0.04033 0.36393 0.30714 0.0
H87 H 0.97226 0.37939 0.30248 0.0
Li88 Li 0.67185 0.99443 0.33792 0.0
Li89 Li 0.70555 0.01418 0.34422 0.0
Li90 Li 0.70387 0.97465 0.34313 0.0
Li91 Li 0.6846 0.99356 0.36405 0.0
C92 C 0.71008 0.98819 0.31367 0.0
N93 N 0.73269 0.97228 0.28863 0.0
C94 C 0.72685 0.00033 0.30714 0.0
C95 C 0.70461 0.96809 0.30731 0.0
C96 C 0.73813 0.99198 0.29452 0.0
C97 C 0.71629 0.96029 0.29471 0.0
C98 C 0.67564 0.03735 0.36187 0.0
C99 C 0.69367 0.05939 0.38093 0.0
N100 N 0.67624 0.07288 0.3813 0.0
C101 C 0.65792 0.05147 0.36244 0.0
C102 C 0.69368 0.04137 0.37119 0.0
C103 C 0.65854 0.06933 0.37234 0.0
C104 C 0.63002 0.00939 0.33059 0.0
N105 N 0.64628 0.99632 0.32559 0.0
C106 C 0.6262 0.9874 0.30294 0.0
C107 C 0.64461 0.98518 0.31215 0.0
C108 C 0.60942 0.00143 0.30752 0.0
C109 C 0.61141 0.01226 0.32169 0.0
H110 H 0.63165 0.01783 0.34142 0.0
H111 H 0.65763 0.9747 0.30849 0.0
C112 C 0.74559 0.0341 0.33978 0.0
N113 N 0.72406 0.03846 0.34064 0.0
C114 C 0.76056 0.05092 0.33832 0.0
C115 C 0.73089 0.07651 0.33824 0.0
C116 C 0.71645 0.05912 0.33953 0.0
C117 C 0.75334 0.07254 0.33784 0.0
H118 H 0.75111 0.01748 0.34022 0.0
H119 H 0.69922 0.06217 0.34002 0.0
C120 C 0.65724 0.95699 0.34592 0.0
N121 N 0.62187 0.93527 0.33387 0.0
C122 C 0.63625 0.96242 0.3506 0.0
C123 C 0.66019 0.94043 0.33512 0.0
C124 C 0.61859 0.9513 0.34436 0.0
C125 C 0.64212 0.92965 0.32917 0.0
C126 C 0.72963 0.98022 0.36802 0.0
C127 C 0.72112 0.96221 0.37572 0.0
C128 C 0.75189 0.98427 0.36863 0.0
C129 C 0.73505 0.94851 0.38385 0.0
C130 C 0.76529 0.97018 0.37688 0.0
N131 N 0.75667 0.95273 0.38424 0.0
C132 C 0.74254 0.95541 0.33297 0.0
C133 C 0.71811 0.93044 0.3443 0.0
C134 C 0.75811 0.93922 0.33124 0.0
N135 N 0.7229 0.95075 0.33922 0.0
C136 C 0.73333 0.91375 0.34293 0.0
C137 C 0.75374 0.91808 0.33642 0.0
H138 H 0.74635 0.97188 0.32969 0.0
H139 H 0.70284 0.92738 0.34998 0.0
C140 C 0.6567 0.99069 0.3902 0.0
N141 N 0.6774 0.9943 0.3855 0.0
C142 C 0.65123 0.99228 0.40577 0.0
C143 C 0.68846 0.00143 0.41138 0.0
C144 C 0.69318 0.99965 0.39574 0.0
C145 C 0.66722 0.99782 0.41658 0.0
H146 H 0.64432 0.98694 0.38188 0.0
H147 H 0.70945 0.00287 0.39178 0.0
O148 O 0.69898 0.99611 0.3261 0.0
O149 O 0.67513 0.01965 0.35232 0.0
O150 O 0.67474 0.96803 0.35167 0.0
O151 O 0.71629 0.99338 0.35957 0.0
H152 H 0.73108 0.01608 0.31172 0.0
H153 H 0.69176 0.95844 0.31221 0.0
H154 H 0.7512 0.00118 0.2894 0.0
H155 H 0.71236 0.94466 0.28978 0.0
H156 H 0.70753 0.06266 0.38819 0.0
H157 H 0.64383 0.04872 0.35532 0.0
H158 H 0.70763 0.03081 0.37088 0.0
H159 H 0.64493 0.08037 0.37288 0.0
H160 H 0.62526 0.97843 0.29224 0.0
H161 H 0.59912 0.02348 0.32566 0.0
H162 H 0.77763 0.04698 0.33761 0.0
H163 H 0.72453 0.09287 0.33798 0.0
H164 H 0.63352 0.9755 0.35861 0.0
H165 H 0.6762 0.93601 0.33123 0.0
H166 H 0.60228 0.95552 0.34778 0.0
H167 H 0.64421 0.91686 0.32077 0.0
H168 H 0.70395 0.95869 0.37527 0.0
H169 H 0.7588 0.99813 0.3628 0.0
H170 H 0.72869 0.93446 0.38978 0.0
H171 H 0.78256 0.9731 0.37741 0.0
H172 H 0.77353 0.94335 0.32607 0.0
H173 H 0.72943 0.89786 0.34747 0.0
H174 H 0.63459 0.98966 0.40925 0.0
H175 H 0.70135 0.00552 0.41932 0.0
Li176 Li 0.98659 0.71643 0.34859 0.0
Li177 Li 0.00512 0.69407 0.36794 0.0
Li178 Li 0.02553 0.71328 0.34799 0.0
Li179 Li 0.00346 0.68162 0.34184 0.0
C180 C 0.0201 0.74158 0.37023 0.0
N181 N 0.04834 0.77294 0.38088 0.0
C182 C 0.03265 0.73768 0.38333 0.0
C183 C 0.02181 0.76148 0.3626 0.0
C184 C 0.04683 0.75375 0.38853 0.0
C185 C 0.03624 0.7771 0.36814 0.0
C186 C 0.965 0.67873 0.36637 0.0
C187 C 0.95502 0.65047 0.38423 0.0
N188 N 0.93779 0.66257 0.38888 0.0
C189 C 0.94713 0.69084 0.37128 0.0
C190 C 0.96893 0.65832 0.37284 0.0
C191 C 0.93358 0.68239 0.38268 0.0
C192 C 0.94611 0.72909 0.33577 0.0
N193 N 0.96234 0.73504 0.34546 0.0
C194 C 0.94399 0.76802 0.35161 0.0
C195 C 0.9615 0.75395 0.35346 0.0
C196 C 0.92715 0.76262 0.34141 0.0
C197 C 0.92837 0.74279 0.33345 0.0
H198 H 0.94699 0.71373 0.32979 0.0
H199 H 0.97432 0.75802 0.36141 0.0
C200 C 0.01838 0.67186 0.39521 0.0
N201 N 0.0043 0.68642 0.38907 0.0
C202 C 0.01724 0.66663 0.41084 0.0
C203 C 0.98695 0.69125 0.41336 0.0
C204 C 0.98901 0.69635 0.39783 0.0
C205 C 0.00127 0.6763 0.42017 0.0
H206 H 0.03061 0.66447 0.388 0.0
H207 H 0.97825 0.70812 0.39265 0.0
C208 C 0.994 0.71878 0.31882 0.0
N209 N 0.96961 0.73742 0.29565 0.0
C210 C 0.98259 0.7057 0.30847 0.0
C211 C 0.99302 0.74136 0.31735 0.0
C212 C 0.97037 0.71543 0.29683 0.0
C213 C 0.98057 0.75046 0.30558 0.0
C214 C 0.04069 0.66559 0.35034 0.0
C215 C 0.05752 0.66837 0.33976 0.0
C216 C 0.03501 0.64473 0.35516 0.0
C217 C 0.06832 0.65013 0.33409 0.0
C218 C 0.04618 0.6269 0.34919 0.0
N219 N 0.06246 0.62995 0.33886 0.0
C220 C 0.06837 0.72703 0.35418 0.0
C221 C 0.05234 0.74307 0.33216 0.0
C222 C 0.08641 0.74061 0.35287 0.0
N223 N 0.05162 0.72888 0.3441 0.0
C224 C 0.06997 0.75703 0.33047 0.0
C225 C 0.08708 0.75622 0.3411 0.0
H226 H 0.06731 0.71561 0.3636 0.0
H227 H 0.03893 0.74404 0.32422 0.0
C228 C 0.98312 0.64363 0.33178 0.0
N229 N 1.0002 0.6569 0.32889 0.0
C230 C 0.97805 0.62685 0.32167 0.0
C231 C 0.00871 0.63715 0.30598 0.0
C232 C 0.01319 0.65382 0.31643 0.0
C233 C 0.99058 0.6238 0.30837 0.0
H234 H 0.97286 0.64659 0.3416 0.0
H235 H 0.02642 0.6649 0.31424 0.0
O236 O 0.00659 0.72582 0.36469 0.0
O237 O 0.97862 0.68684 0.35536 0.0
O238 O 0.00593 0.70956 0.33038 0.0
O239 O 0.02969 0.68321 0.35584 0.0
H240 H 0.03164 0.72233 0.38932 0.0
H241 H 0.01236 0.76468 0.35236 0.0
H242 H 0.05672 0.75092 0.39861 0.0
H243 H 0.03788 0.79248 0.36227 0.0
H244 H 0.95797 0.63479 0.38941 0.0
H245 H 0.94384 0.70666 0.36644 0.0
H246 H 0.98275 0.64879 0.36925 0.0
H247 H 0.91975 0.69163 0.38663 0.0
H248 H 0.94354 0.78283 0.35831 0.0
H249 H 0.91589 0.73797 0.32539 0.0
H250 H 0.02896 0.65538 0.41556 0.0
H251 H 0.9741 0.69887 0.41989 0.0
H252 H 0.98301 0.68823 0.30946 0.0
H253 H 0.00141 0.75176 0.32541 0.0
H254 H 0.96143 0.7055 0.28877 0.0
H255 H 0.97954 0.7679 0.30439 0.0
H256 H 0.06205 0.68442 0.33588 0.0
H257 H 0.02198 0.64232 0.36331 0.0
H258 H 0.08132 0.65202 0.32584 0.0
H259 H 0.04189 0.61064 0.35274 0.0
H260 H 0.09921 0.73956 0.36137 0.0
H261 H 0.07004 0.7686 0.32109 0.0
H262 H 0.96402 0.61681 0.32398 0.0
H263 H 0.0186 0.63547 0.29575 0.0
Li264 Li 0.31541 0.00538 0.36716 0.0
Li265 Li 0.29342 0.02644 0.34775 0.0
Li266 Li 0.29363 0.98525 0.34905 0.0
Li267 Li 0.32458 0.00482 0.3403 0.0
C268 C 0.27605 0.01056 0.37913 0.0
N269 N 0.26268 0.01898 0.40889 0.0
C270 C 0.26977 0.03152 0.38337 0.0
C271 C 0.27533 0.99385 0.39 0.0
C272 C 0.26309 0.03545 0.39848 0.0
C273 C 0.2686 0.99845 0.40499 0.0
C274 C 0.34321 0.03993 0.35118 0.0
C275 C 0.36523 0.06498 0.33673 0.0
N276 N 0.38318 0.05732 0.34401 0.0
C277 C 0.36185 0.03235 0.35857 0.0
C278 C 0.34486 0.0564 0.3402 0.0
C279 C 0.38192 0.04134 0.35476 0.0
C280 C 0.33652 0.98892 0.39365 0.0
N281 N 0.32603 0.00641 0.38772 0.0
C282 C 0.32804 0.02481 0.41187 0.0
C283 C 0.32233 0.02444 0.39633 0.0
C284 C 0.33794 0.00654 0.41853 0.0
C285 C 0.34259 0.98861 0.40911 0.0
H286 H 0.33995 0.97508 0.38643 0.0
H287 H 0.31438 0.03831 0.39122 0.0
C288 C 0.25421 0.04602 0.34088 0.0
N289 N 0.27513 0.05064 0.34443 0.0
C290 C 0.23906 0.06267 0.33935 0.0
C291 C 0.26738 0.08862 0.34489 0.0
C292 C 0.28199 0.07139 0.3464 0.0
C293 C 0.2455 0.08435 0.34145 0.0
H294 H 0.24922 0.02929 0.33959 0.0
H295 H 0.29869 0.07455 0.34943 0.0
C296 C 0.32406 0.95789 0.35504 0.0
N297 N 0.32238 0.91305 0.35528 0.0
C298 C 0.33225 0.946 0.34262 0.0
C299 C 0.31499 0.94692 0.36756 0.0
C300 C 0.3313 0.92335 0.34298 0.0
C301 C 0.31427 0.92427 0.36746 0.0
C302 C 0.29844 0.00537 0.31543 0.0
C303 C 0.30713 0.98737 0.30784 0.0
C304 C 0.29311 0.02398 0.30706 0.0
C305 C 0.31058 0.98839 0.29197 0.0
C306 C 0.29676 0.02433 0.2912 0.0
N307 N 0.30537 0.00669 0.28405 0.0
C308 C 0.25711 0.95977 0.35607 0.0
C309 C 0.27834 0.94534 0.3358 0.0
C310 C 0.24265 0.94244 0.35501 0.0
N311 N 0.27465 0.96084 0.34664 0.0
C312 C 0.26446 0.92753 0.33449 0.0
C313 C 0.24632 0.92598 0.34416 0.0
H314 H 0.25425 0.97245 0.3644 0.0
H315 H 0.29206 0.94673 0.32818 0.0
C316 C 0.36555 0.99075 0.33048 0.0
N317 N 0.34923 0.00455 0.3267 0.0
C318 C 0.38336 0.98825 0.32077 0.0
C319 C 0.36825 0.01563 0.30403 0.0
C320 C 0.35064 0.01749 0.31405 0.0
C321 C 0.38469 0.00044 0.30713 0.0
H322 H 0.36454 0.98131 0.34093 0.0
H323 H 0.33799 0.0291 0.31162 0.0
O324 O 0.28306 0.00647 0.36446 0.0
O325 O 0.32353 0.03091 0.35446 0.0
O326 O 0.32466 0.98012 0.35487 0.0
O327 O 0.29494 0.00476 0.33095 0.0
H328 H 0.27027 0.04468 0.37517 0.0
H329 H 0.28006 0.97753 0.38692 0.0
H330 H 0.25831 0.05161 0.40194 0.0
H331 H 0.26812 0.9857 0.41354 0.0
H332 H 0.36678 0.07764 0.32818 0.0
H333 H 0.36083 0.01949 0.36703 0.0
H334 H 0.3306 0.06226 0.33426 0.0
H335 H 0.39651 0.03556 0.36032 0.0
H336 H 0.32405 0.03896 0.4187 0.0
H337 H 0.35067 0.9744 0.41367 0.0
H338 H 0.22234 0.0585 0.337 0.0
H339 H 0.27315 0.10505 0.34647 0.0
H340 H 0.33891 0.95409 0.33266 0.0
H341 H 0.30838 0.95579 0.3772 0.0
H342 H 0.33749 0.91398 0.33342 0.0
H343 H 0.3072 0.91561 0.37706 0.0
H344 H 0.31154 0.97294 0.31417 0.0
H345 H 0.28632 0.03803 0.31277 0.0
H346 H 0.31749 0.97465 0.28597 0.0
H347 H 0.29279 0.03865 0.28457 0.0
H348 H 0.22885 0.9418 0.3627 0.0
H349 H 0.26766 0.9153 0.32583 0.0
H350 H 0.39549 0.97623 0.32366 0.0
H351 H 0.36883 0.02576 0.29386 0.0
Li352 Li 0.99612 0.67492 0.66175 0.0
Li353 Li 0.97632 0.70781 0.65468 0.0
Li354 Li 0.99611 0.68523 0.63495 0.0
Li355 Li 0.01646 0.70836 0.65316 0.0
C356 C 0.9574 0.66116 0.65258 0.0
N357 N 0.93123 0.62778 0.66277 0.0
C358 C 0.94004 0.66552 0.66243 0.0
C359 C 0.96132 0.63989 0.64776 0.0
C360 C 0.92701 0.64841 0.66748 0.0
C361 C 0.94795 0.62322 0.6531 0.0
C362 C 0.99332 0.71739 0.68389 0.0
C363 C 0.99367 0.75279 0.69571 0.0
N364 N 0.98429 0.74428 0.70852 0.0
C365 C 0.98392 0.70894 0.69724 0.0
C366 C 0.99845 0.73944 0.68318 0.0
C367 C 0.97939 0.72282 0.70954 0.0
C368 C 0.01449 0.63694 0.6737 0.0
N369 N 0.99727 0.6505 0.67532 0.0
C370 C 0.98345 0.6289 0.696 0.0
C371 C 0.98186 0.64686 0.68622 0.0
C372 C 0.00102 0.61457 0.69447 0.0
C373 C 0.01663 0.61878 0.68312 0.0
H374 H 0.02679 0.64037 0.66523 0.0
H375 H 0.96839 0.65792 0.68739 0.0
C376 C 0.94445 0.7358 0.64416 0.0
N377 N 0.95155 0.72605 0.65724 0.0
C378 C 0.9278 0.75106 0.64472 0.0
C379 C 0.92485 0.74488 0.6721 0.0
C380 C 0.9418 0.72987 0.67103 0.0
C381 C 0.91802 0.75602 0.65885 0.0
H382 H 0.95206 0.73205 0.63327 0.0
H383 H 0.94727 0.72151 0.68121 0.0
C384 C 0.03501 0.66578 0.63837 0.0
N385 N 0.06175 0.64243 0.61898 0.0
C386 C 0.05507 0.67425 0.63395 0.0
C387 C 0.02866 0.64532 0.63309 0.0
C388 C 0.06833 0.66222 0.6241 0.0
C389 C 0.04237 0.63381 0.62324 0.0
C390 C 0.99806 0.73695 0.63075 0.0
C391 C 0.00456 0.73856 0.61538 0.0
C392 C 0.99421 0.75583 0.63922 0.0
C393 C 0.00752 0.75905 0.60884 0.0
C394 C 0.99732 0.77602 0.63227 0.0
N395 N 0.00389 0.7772 0.61736 0.0
C396 C 0.97646 0.6675 0.60849 0.0
C397 C 0.0129 0.67866 0.60495 0.0
C398 C 0.97487 0.66173 0.59298 0.0
N399 N 0.99526 0.67585 0.61411 0.0
C400 C 0.0122 0.67261 0.58951 0.0
C401 C 0.99294 0.66427 0.58337 0.0
H402 H 0.96257 0.66576 0.61598 0.0
H403 H 0.02739 0.68605 0.60955 0.0
C404 C 0.05035 0.72986 0.6694 0.0
N405 N 0.0415 0.72619 0.6553 0.0
C406 C 0.06781 0.74415 0.67099 0.0
C407 C 0.06705 0.75005 0.6435 0.0
C408 C 0.04986 0.73548 0.64242 0.0
C409 C 0.07604 0.75475 0.65794 0.0
H410 H 0.04358 0.722 0.67944 0.0
H411 H 0.0431 0.73166 0.6313 0.0
O412 O 0.97045 0.67765 0.64765 0.0
O413 O 0.99784 0.70401 0.67174 0.0
O414 O 0.02176 0.67739 0.64794 0.0
O415 O 0.99513 0.71697 0.63733 0.0
H416 H 0.93678 0.68191 0.66622 0.0
H417 H 0.97458 0.63629 0.64004 0.0
H418 H 0.91359 0.65151 0.67517 0.0
H419 H 0.95086 0.60665 0.64954 0.0
H420 H 0.9975 0.76991 0.69529 0.0
H421 H 0.98006 0.69189 0.69808 0.0
H422 H 0.00624 0.74617 0.67313 0.0
H423 H 0.97199 0.71652 0.7199 0.0
H424 H 0.97109 0.62624 0.70465 0.0
H425 H 0.03073 0.60847 0.6818 0.0
H426 H 0.92268 0.75897 0.6342 0.0
H427 H 0.91762 0.74821 0.6832 0.0
H428 H 0.06033 0.68996 0.63804 0.0
H429 H 0.01324 0.63849 0.63646 0.0
H430 H 0.08386 0.66862 0.62052 0.0
H431 H 0.0376 0.61803 0.61898 0.0
H432 H 0.00741 0.72414 0.60859 0.0
H433 H 0.98859 0.75495 0.65096 0.0
H434 H 0.01269 0.76051 0.59699 0.0
H435 H 0.99442 0.79076 0.63871 0.0
H436 H 0.95971 0.65551 0.58851 0.0
H437 H 0.02629 0.67517 0.58229 0.0
H438 H 0.07437 0.74736 0.68232 0.0
H439 H 0.07327 0.75758 0.63314 0.0
Li440 Li 0.28993 0.01714 0.65267 0.0
Li441 Li 0.3208 0.99708 0.6605 0.0
Li442 Li 0.31145 0.9956 0.634 0.0
Li443 Li 0.28909 0.97684 0.65432 0.0
C444 C 0.32147 0.0393 0.63619 0.0
N445 N 0.32319 0.07472 0.61672 0.0
C446 C 0.33771 0.0549 0.63797 0.0
C447 C 0.30609 0.04174 0.6245 0.0
C448 C 0.33831 0.07268 0.62802 0.0
C449 C 0.30725 0.05974 0.61477 0.0
C450 C 0.29302 0.01099 0.68396 0.0
C451 C 0.28212 0.01837 0.71009 0.0
N452 N 0.2942 0.03682 0.70993 0.0
C453 C 0.30533 0.03003 0.68406 0.0
C454 C 0.28131 0.00509 0.69707 0.0
C455 C 0.30572 0.04286 0.6973 0.0
C456 C 0.25015 0.03798 0.65673 0.0
N457 N 0.27175 0.04183 0.65545 0.0
C458 C 0.26592 0.08004 0.65775 0.0
C459 C 0.27986 0.06232 0.65621 0.0
C460 C 0.24347 0.07658 0.65874 0.0
C461 C 0.23563 0.05519 0.65837 0.0
H462 H 0.24419 0.02148 0.65628 0.0
H463 H 0.29713 0.06498 0.65562 0.0
C464 C 0.36217 0.01014 0.67064 0.0
N465 N 0.34463 0.99795 0.67439 0.0
C466 C 0.37902 0.01288 0.68118 0.0
C467 C 0.35974 0.98977 0.69901 0.0
C468 C 0.34323 0.98758 0.68815 0.0
C469 C 0.37777 0.00293 0.69572 0.0
H470 H 0.36279 0.01823 0.65961 0.0
H471 H 0.32903 0.97799 0.69081 0.0
C472 C 0.26304 0.99199 0.62743 0.0
N473 N 0.22913 0.98327 0.60758 0.0
C474 C 0.25848 0.97063 0.62309 0.0
C475 C 0.25034 0.00892 0.62165 0.0
C476 C 0.24128 0.96655 0.61305 0.0
C477 C 0.23328 0.00418 0.61163 0.0
C478 C 0.33769 0.96083 0.65182 0.0
C479 C 0.35732 0.96634 0.64483 0.0
C480 C 0.33744 0.94589 0.66392 0.0
C481 C 0.37648 0.95691 0.65017 0.0
C482 C 0.35696 0.93681 0.66891 0.0
N483 N 0.37591 0.94248 0.662 0.0
C484 C 0.33973 0.00465 0.60908 0.0
C485 C 0.30904 0.9835 0.60255 0.0
C486 C 0.34627 0.00528 0.5937 0.0
N487 N 0.32116 0.99423 0.61314 0.0
C488 C 0.31497 0.98368 0.58706 0.0
C489 C 0.33367 0.99491 0.58242 0.0
H490 H 0.3493 0.01277 0.61777 0.0
H491 H 0.2946 0.97503 0.60605 0.0
C492 C 0.25 0.95802 0.66325 0.0
N493 N 0.27031 0.95327 0.65827 0.0
C494 C 0.23473 0.94153 0.66507 0.0
C495 C 0.26177 0.91553 0.65694 0.0
C496 C 0.27651 0.93255 0.65522 0.0
C497 C 0.24047 0.91997 0.66173 0.0
H498 H 0.24556 0.97471 0.66547 0.0
H499 H 0.29269 0.92935 0.65102 0.0
O500 O 0.32077 0.02186 0.64595 0.0
O501 O 0.29239 0.99804 0.67118 0.0
O502 O 0.27953 0.9963 0.63752 0.0
O503 O 0.31885 0.97032 0.64702 0.0
H504 H 0.3497 0.0533 0.64699 0.0
H505 H 0.29348 0.02987 0.62287 0.0
H506 H 0.35079 0.08488 0.62928 0.0
H507 H 0.29547 0.06179 0.60567 0.0
H508 H 0.27314 0.014 0.72032 0.0
H509 H 0.31456 0.03486 0.67407 0.0
H510 H 0.27172 0.99039 0.69717 0.0
H511 H 0.31519 0.05762 0.69754 0.0
H512 H 0.27265 0.09625 0.65827 0.0
H513 H 0.21843 0.05182 0.65901 0.0
H514 H 0.3924 0.02342 0.67819 0.0
H515 H 0.35822 0.98156 0.70997 0.0
H516 H 0.2683 0.95734 0.62726 0.0
H517 H 0.2536 0.02556 0.62485 0.0
H518 H 0.23762 0.9501 0.60959 0.0
H519 H 0.22333 0.01713 0.60708 0.0
H520 H 0.35776 0.97796 0.6355 0.0
H521 H 0.32239 0.94161 0.66953 0.0
H522 H 0.39182 0.96112 0.64494 0.0
H523 H 0.35705 0.92533 0.67833 0.0
H524 H 0.36099 0.01384 0.59067 0.0
H525 H 0.30465 0.9756 0.57877 0.0
H526 H 0.21855 0.94563 0.66893 0.0
H527 H 0.26677 0.89919 0.65403 0.0
Li528 Li 0.00602 0.32733 0.66235 0.0
Li529 Li 0.02607 0.29476 0.65485 0.0
Li530 Li 0.0048 0.31677 0.63559 0.0
Li531 Li 0.98579 0.29348 0.65433 0.0
C532 C 0.04427 0.34152 0.6522 0.0
N533 N 0.07092 0.37484 0.66184 0.0
C534 C 0.06236 0.33705 0.66133 0.0
C535 C 0.03987 0.36287 0.6478 0.0
C536 C 0.07561 0.35414 0.66613 0.0
C537 C 0.05349 0.37951 0.65285 0.0
C538 C 0.0084 0.28501 0.68473 0.0
C539 C 0.00609 0.24986 0.69684 0.0
N540 N 0.01452 0.2584 0.70997 0.0
C541 C 0.01679 0.29349 0.69841 0.0
C542 C 0.0028 0.26307 0.68398 0.0
C543 C 0.01986 0.27975 0.71101 0.0
C544 C 0.98746 0.36401 0.67641 0.0
N545 N 0.00529 0.35108 0.67648 0.0
C546 C 0.01991 0.37045 0.69797 0.0
C547 C 0.02146 0.35406 0.6869 0.0
C548 C 0.00145 0.3838 0.69837 0.0
C549 C 0.98522 0.38054 0.68726 0.0
H550 H 0.97461 0.36107 0.66824 0.0
H551 H 0.03533 0.34337 0.68688 0.0
C552 C 0.06035 0.26922 0.64427 0.0
N553 N 0.05133 0.27725 0.65735 0.0
C554 C 0.07776 0.2548 0.64506 0.0
C555 C 0.07686 0.2578 0.67277 0.0
C556 C 0.05952 0.27225 0.67144 0.0
C557 C 0.086 0.24864 0.65947 0.0
H558 H 0.05361 0.27361 0.6332 0.0
H559 H 0.05254 0.27926 0.68166 0.0
C560 C 0.96604 0.33609 0.6402 0.0
N561 N 0.93837 0.35962 0.6216 0.0
C562 C 0.94597 0.32745 0.63595 0.0
C563 C 0.97193 0.35679 0.63514 0.0
C564 C 0.93223 0.33958 0.62651 0.0
C565 C 0.95775 0.3684 0.6257 0.0
C566 C 0.00544 0.26451 0.63205 0.0
C567 C 0.99912 0.26147 0.61676 0.0
C568 C 0.01101 0.24654 0.64103 0.0
C569 C 0.9981 0.24045 0.61079 0.0
C570 C 0.00982 0.22579 0.63463 0.0
N571 N 0.00341 0.22319 0.61978 0.0
C572 C 0.02022 0.33579 0.60771 0.0
C573 C 0.98526 0.32001 0.60661 0.0
C574 C 0.01936 0.34067 0.59199 0.0
N575 N 0.00334 0.32551 0.61462 0.0
C576 C 0.98352 0.32495 0.59103 0.0
C577 C 0.00086 0.33508 0.58337 0.0
H578 H 0.03455 0.3397 0.61432 0.0
H579 H 0.97229 0.31138 0.61229 0.0
C580 C 0.95143 0.27374 0.67111 0.0
N581 N 0.96091 0.27566 0.65706 0.0
C582 C 0.93342 0.26025 0.67308 0.0
C583 C 0.93507 0.25138 0.64602 0.0
C584 C 0.95288 0.26512 0.64457 0.0
C585 C 0.92508 0.2487 0.66044 0.0
H586 H 0.95791 0.28264 0.68081 0.0
H587 H 0.9603 0.2674 0.63345 0.0
O588 O 0.03103 0.32504 0.64749 0.0
O589 O 0.0053 0.29827 0.67229 0.0
O590 O 0.97979 0.32435 0.64931 0.0
O591 O 0.00653 0.28503 0.63806 0.0
H592 H 0.06602 0.32059 0.66479 0.0
H593 H 0.02606 0.36656 0.64059 0.0
H594 H 0.0896 0.35094 0.67328 0.0
H595 H 0.05022 0.39614 0.64961 0.0
H596 H 0.00186 0.23284 0.69639 0.0
H597 H 0.02102 0.31046 0.69927 0.0
H598 H 0.99574 0.25632 0.67368 0.0
H599 H 0.02648 0.28608 0.72163 0.0
H600 H 0.03287 0.37242 0.70625 0.0
H601 H 0.97047 0.39007 0.68731 0.0
H602 H 0.08422 0.24803 0.63452 0.0
H603 H 0.083 0.25377 0.6841 0.0
H604 H 0.94111 0.31151 0.63984 0.0
H605 H 0.98734 0.36374 0.63841 0.0
H606 H 0.9167 0.33306 0.62306 0.0
H607 H 0.96215 0.38438 0.62163 0.0
H608 H 0.99496 0.27517 0.60958 0.0
H609 H 0.01652 0.24857 0.65272 0.0
H610 H 0.99311 0.23786 0.59899 0.0
H611 H 0.0141 0.21175 0.64146 0.0
H612 H 0.0333 0.34816 0.58661 0.0
H613 H 0.96874 0.32066 0.58505 0.0
H614 H 0.92604 0.25904 0.68435 0.0
H615 H 0.92943 0.2427 0.63596 0.0
Li616 Li 0.71467 0.0251 0.65103 0.0
Li617 Li 0.69065 0.00648 0.63077 0.0
Li618 Li 0.68207 0.00562 0.65826 0.0
Li619 Li 0.71206 0.98571 0.64905 0.0
C620 C 0.66772 0.04354 0.65074 0.0
N621 N 0.63381 0.06602 0.66399 0.0
C622 C 0.64669 0.04108 0.64504 0.0
C623 C 0.67155 0.05747 0.66313 0.0
C624 C 0.62975 0.05257 0.65192 0.0
C625 C 0.65417 0.06869 0.66968 0.0
C626 C 0.74098 0.99613 0.62799 0.0
C627 C 0.75788 0.96825 0.61265 0.0
N628 N 0.77755 0.97407 0.61838 0.0
C629 C 0.76138 0.00198 0.63361 0.0
C630 C 0.73922 0.97927 0.61731 0.0
C631 C 0.77966 0.99059 0.62865 0.0
C632 C 0.75041 0.04683 0.66406 0.0
N633 N 0.73283 0.04919 0.6548 0.0
C634 C 0.74184 0.08623 0.64993 0.0
C635 C 0.72823 0.06838 0.64785 0.0
C636 C 0.76047 0.08423 0.65915 0.0
C637 C 0.76458 0.0642 0.66635 0.0
H638 H 0.75365 0.03131 0.66939 0.0
H639 H 0.71405 0.06974 0.6406 0.0
C640 C 0.6595 0.00448 0.60662 0.0
N641 N 0.68048 0.00876 0.6103 0.0
C642 C 0.65271 0.00538 0.59128 0.0
C643 C 0.68921 0.01523 0.58396 0.0
C644 C 0.69525 0.0142 0.59939 0.0
C645 C 0.6677 0.01073 0.5797 0.0
H646 H 0.64815 1.00007 0.61558 0.0
H647 H 0.71184 0.01742 0.60267 0.0
C648 C 0.71091 0.99221 0.68106 0.0
N649 N 0.70983 0.96845 0.708 0.0
C650 C 0.70024 0.97223 0.68152 0.0
C651 C 0.72109 1.00009 0.69429 0.0
C652 C 0.69985 0.96047 0.69525 0.0
C653 C 0.72036 0.98783 0.70781 0.0
C654 C 0.67449 0.96199 0.63807 0.0
C655 C 0.66346 0.9478 0.64788 0.0
C656 C 0.67827 0.9559 0.6228 0.0
C657 C 0.6567 0.92764 0.64233 0.0
C658 C 0.67123 0.93561 0.61768 0.0
N659 N 0.6607 0.92201 0.62747 0.0
C660 C 0.64023 0.99475 0.66852 0.0
C661 C 0.66148 0.01371 0.68683 0.0
C662 C 0.62401 0.99123 0.67943 0.0
N663 N 0.65874 0.00522 0.67253 0.0
C664 C 0.6457 0.01058 0.69811 0.0
C665 C 0.62695 0.99862 0.69458 0.0
H666 H 0.63845 0.98834 0.657 0.0
H667 H 0.6763 0.0222 0.68964 0.0
C668 C 0.749 0.9641 0.65942 0.0
N669 N 0.73005 0.96046 0.65185 0.0
C670 C 0.76392 0.94734 0.66152 0.0
C671 C 0.73924 0.92303 0.64856 0.0
C672 C 0.72494 0.94035 0.64651 0.0
C673 C 0.7591 0.9265 0.65601 0.0
H674 H 0.75268 0.98021 0.66362 0.0
H675 H 0.70999 0.93761 0.64047 0.0
O676 O 0.6844 0.03194 0.64449 0.0
O677 O 0.72282 0.00666 0.63307 0.0
O678 O 0.71127 0.0042 0.66782 0.0
O679 O 0.68095 0.98193 0.64328 0.0
H680 H 0.64348 0.03024 0.63552 0.0
H681 H 0.68772 0.05939 0.66775 0.0
H682 H 0.61337 0.05076 0.64768 0.0
H683 H 0.65686 0.07946 0.67932 0.0
H684 H 0.75673 0.95505 0.60449 0.0
H685 H 0.76305 0.01502 0.64184 0.0
H686 H 0.72361 0.97461 0.61277 0.0
H687 H 0.79553 0.99484 0.633 0.0
H688 H 0.73779 0.10141 0.64436 0.0
H689 H 0.77887 0.06177 0.67337 0.0
H690 H 0.63594 0.00194 0.58854 0.0
H691 H 0.70143 0.019 0.57543 0.0
H692 H 0.69237 0.96589 0.67139 0.0
H693 H 0.72939 0.01556 0.69411 0.0
H694 H 0.69161 0.94499 0.69576 0.0
H695 H 0.72813 0.99375 0.71814 0.0
H696 H 0.6601 0.95228 0.65968 0.0
H697 H 0.68666 0.9666 0.61499 0.0
H698 H 0.64822 0.91649 0.64982 0.0
H699 H 0.67415 0.93067 0.60591 0.0
H700 H 0.60993 0.98176 0.67624 0.0
H701 H 0.64846 0.0168 0.70959 0.0
H702 H 0.77903 0.95062 0.66741 0.0
H703 H 0.73505 0.90721 0.64402 0.0
Li704 Li 0.51119 0.78579 0.84794 0.0
Li705 Li 0.48931 0.8099 0.86647 0.0
Li706 Li 0.47175 0.78819 0.84634 0.0
Li707 Li 0.49281 0.81849 0.83947 0.0
C708 C 0.47996 0.75819 0.867 0.0
N709 N 0.4588 0.71935 0.87207 0.0
C710 C 0.46331 0.75696 0.87786 0.0
C711 C 0.48596 0.73963 0.85878 0.0
C712 C 0.45278 0.73718 0.88023 0.0
C713 C 0.47505 0.72015 0.86151 0.0
C714 C 0.53056 0.83202 0.85055 0.0
C715 C 0.54062 0.8698 0.84945 0.0
N716 N 0.55786 0.86456 0.84044 0.0
C717 C 0.54851 0.82698 0.84143 0.0
C718 C 0.5267 0.85357 0.85475 0.0
C719 C 0.56208 0.84367 0.83638 0.0
C720 C 0.54508 0.76424 0.83229 0.0
N721 N 0.53572 0.76754 0.84625 0.0
C722 C 0.56113 0.74379 0.85832 0.0
C723 C 0.54337 0.75776 0.85916 0.0
C724 C 0.57113 0.73993 0.84404 0.0
C725 C 0.56297 0.75046 0.83092 0.0
H726 H 0.5386 0.77227 0.82223 0.0
H727 H 0.53555 0.76075 0.8701 0.0
C728 C 0.46915 0.81672 0.8951 0.0
N729 N 0.48794 0.81931 0.88716 0.0
C730 C 0.46829 0.82162 0.91077 0.0
C731 C 0.50585 0.83273 0.90959 0.0
C732 C 0.50604 0.8274 0.89397 0.0
C733 C 0.48691 0.82944 0.91824 0.0
H734 H 0.45498 0.81041 0.8893 0.0
H735 H 0.52077 0.8292 0.88735 0.0
C736 C 0.48295 0.78938 0.81548 0.0
N737 N 0.46216 0.78911 0.78733 0.0
C738 C 0.46504 0.80278 0.81296 0.0
C739 C 0.4903 0.77584 0.8037 0.0
C740 C 0.45475 0.80242 0.79865 0.0
C741 C 0.47956 0.77593 0.78954 0.0
C742 C 0.45496 0.83756 0.85302 0.0
C743 C 0.43587 0.84031 0.84458 0.0
C744 C 0.46228 0.8543 0.86255 0.0
C745 C 0.42467 0.85995 0.84556 0.0
C746 C 0.4506 0.87369 0.86323 0.0
N747 N 0.43221 0.87611 0.85478 0.0
C748 C 0.42826 0.77621 0.85062 0.0
C749 C 0.44745 0.75375 0.83315 0.0
C750 C 0.41005 0.76285 0.84959 0.0
N751 N 0.44652 0.77128 0.84261 0.0
C752 C 0.42958 0.74002 0.83171 0.0
C753 C 0.41067 0.74432 0.84018 0.0
H754 H 0.4281 0.79016 0.85817 0.0
H755 H 0.46233 0.75 0.82714 0.0
C756 C 0.51285 0.83623 0.81418 0.0
N757 N 0.49746 0.84133 0.82477 0.0
C758 C 0.5201 0.85173 0.80374 0.0
C759 C 0.49459 0.87728 0.81453 0.0
C760 C 0.48802 0.8613 0.82497 0.0
C761 C 0.51119 0.87265 0.80401 0.0
H762 H 0.5201 0.82026 0.81424 0.0
H763 H 0.47588 0.86517 0.83343 0.0
O764 O 0.48992 0.77757 0.86407 0.0
O765 O 0.51671 0.81596 0.85519 0.0
O766 O 0.49327 0.78937 0.82941 0.0
O767 O 0.46591 0.81829 0.85234 0.0
H768 H 0.4584 0.77119 0.88425 0.0
H769 H 0.49865 0.74035 0.85021 0.0
H770 H 0.43975 0.73604 0.88852 0.0
H771 H 0.47941 0.7057 0.85517 0.0
H772 H 0.53771 0.88656 0.85249 0.0
H773 H 0.55177 0.81039 0.83809 0.0
H774 H 0.51299 0.85775 0.86189 0.0
H775 H 0.57592 0.84002 0.82919 0.0
H776 H 0.56705 0.7362 0.86874 0.0
H777 H 0.57006 0.74777 0.81968 0.0
H778 H 0.45332 0.81907 0.91702 0.0
H779 H 0.52058 0.83852 0.91497 0.0
H780 H 0.45921 0.81339 0.82192 0.0
H781 H 0.50412 0.76532 0.80549 0.0
H782 H 0.44088 0.81273 0.79654 0.0
H783 H 0.48506 0.76551 0.78032 0.0
H784 H 0.42971 0.82737 0.83738 0.0
H785 H 0.47684 0.85243 0.8693 0.0
H786 H 0.40993 0.86233 0.83903 0.0
H787 H 0.45615 0.88682 0.87049 0.0
H788 H 0.39574 0.76683 0.85622 0.0
H789 H 0.43085 0.72573 0.82451 0.0
H790 H 0.53281 0.8475 0.79568 0.0
H791 H 0.48742 0.89331 0.81507 0.0
Li792 Li 0.17387 0.49419 0.83543 0.0
Li793 Li 0.20386 0.51529 0.84467 0.0
Li794 Li 0.20671 0.47413 0.84188 0.0
Li795 Li 0.18384 0.49238 0.86218 0.0
C796 C 0.20111 0.4987 0.81033 0.0
N797 N 0.19691 0.5024 0.77878 0.0
C798 C 0.19175 0.51725 0.8039 0.0
C799 C 0.20835 0.48202 0.80071 0.0
C800 C 0.18975 0.51881 0.78793 0.0
C801 C 0.2061 0.48421 0.78479 0.0
C802 C 0.17063 0.53979 0.8507 0.0
C803 C 0.17653 0.57474 0.86247 0.0
N804 N 0.16699 0.58448 0.85017 0.0
C805 C 0.16083 0.55015 0.83819 0.0
C806 C 0.17847 0.55218 0.86297 0.0
C807 C 0.15914 0.57275 0.83814 0.0
C808 C 0.13029 0.50231 0.82826 0.0
N809 N 0.14876 0.49381 0.82224 0.0
C810 C 0.13082 0.48702 0.79833 0.0
C811 C 0.14903 0.48536 0.80779 0.0
C812 C 0.11175 0.49677 0.80394 0.0
C813 C 0.11152 0.50379 0.81935 0.0
H814 H 0.13023 0.50821 0.83998 0.0
H815 H 0.16345 0.47762 0.80344 0.0
C816 C 0.23868 0.54226 0.85275 0.0
N817 N 0.22126 0.5411 0.84321 0.0
C818 C 0.25228 0.56031 0.8525 0.0
C819 C 0.23017 0.57565 0.83231 0.0
C820 C 0.21689 0.55729 0.83302 0.0
C821 C 0.24811 0.57733 0.84219 0.0
H822 H 0.24222 0.52904 0.86047 0.0
H823 H 0.20309 0.55608 0.82546 0.0
C824 C 0.16014 0.4555 0.84312 0.0
N825 N 0.12548 0.43263 0.83129 0.0
C826 C 0.13977 0.45708 0.85005 0.0
C827 C 0.16296 0.44221 0.83025 0.0
C828 C 0.12243 0.44541 0.84387 0.0
C829 C 0.14521 0.43079 0.82443 0.0
C830 C 0.224 0.49017 0.87362 0.0
C831 C 0.23361 0.47033 0.87739 0.0
C832 C 0.22229 0.50637 0.88483 0.0
C833 C 0.2411 0.46693 0.89237 0.0
C834 C 0.22992 0.50232 0.89968 0.0
N835 N 0.23908 0.48284 0.90312 0.0
C836 C 0.24475 0.45545 0.83031 0.0
C837 C 0.22141 0.43069 0.84299 0.0
C838 C 0.26021 0.43922 0.8281 0.0
N839 N 0.2259 0.45094 0.8377 0.0
C840 C 0.23649 0.41398 0.84114 0.0
C841 C 0.25634 0.41819 0.83376 0.0
H842 H 0.24789 0.47179 0.82633 0.0
H843 H 0.20639 0.4277 0.84904 0.0
C844 C 0.16278 0.50573 0.88957 0.0
N845 N 0.17425 0.48944 0.88287 0.0
C846 C 0.15838 0.50516 0.90533 0.0
C847 C 0.17696 0.47068 0.90683 0.0
C848 C 0.18063 0.47172 0.89101 0.0
C849 C 0.16609 0.48777 0.91419 0.0
H850 H 0.15766 0.51949 0.88278 0.0
H851 H 0.18945 0.45885 0.88531 0.0
O852 O 0.20329 0.49683 0.82593 0.0
O853 O 0.17264 0.51768 0.85091 0.0
O854 O 0.17714 0.46729 0.84871 0.0
O855 O 0.21616 0.49364 0.85909 0.0
H856 H 0.18569 0.53009 0.81117 0.0
H857 H 0.2155 0.46748 0.80549 0.0
H858 H 0.1824 0.53302 0.78281 0.0
H859 H 0.21159 0.47142 0.77721 0.0
H860 H 0.18265 0.58452 0.87185 0.0
H861 H 0.15478 0.54089 0.82854 0.0
H862 H 0.18616 0.54447 0.87272 0.0
H863 H 0.15168 0.58098 0.82851 0.0
H864 H 0.13207 0.48136 0.78658 0.0
H865 H 0.09711 0.5107 0.82448 0.0
H866 H 0.26618 0.56074 0.8601 0.0
H867 H 0.22634 0.58846 0.82423 0.0
H868 H 0.13737 0.46741 0.85998 0.0
H869 H 0.17862 0.44097 0.82471 0.0
H870 H 0.10653 0.44657 0.84904 0.0
H871 H 0.1471 0.42054 0.81441 0.0
H872 H 0.23515 0.45764 0.86888 0.0
H873 H 0.21491 0.52182 0.88212 0.0
H874 H 0.24847 0.45161 0.89546 0.0
H875 H 0.2285 0.51464 0.90849 0.0
H876 H 0.27509 0.44316 0.82214 0.0
H877 H 0.23292 0.39814 0.84591 0.0
H878 H 0.14996 0.51864 0.91064 0.0
H879 H 0.18296 0.45692 0.91331 0.0
Li880 Li 0.48786 0.21536 0.84698 0.0
Li881 Li 0.50605 0.19199 0.86604 0.0
Li882 Li 0.52609 0.21296 0.84726 0.0
Li883 Li 0.50463 0.18163 0.83894 0.0
C884 C 0.51972 0.23955 0.87066 0.0
N885 N 0.54645 0.27062 0.88356 0.0
C886 C 0.5308 0.23519 0.88434 0.0
C887 C 0.52198 0.25987 0.86368 0.0
C888 C 0.54428 0.25108 0.89065 0.0
C889 C 0.53566 0.27531 0.87033 0.0
C890 C 0.47176 0.16563 0.8573 0.0
C891 C 0.47692 0.12831 0.86478 0.0
N892 N 0.45506 0.12553 0.86508 0.0
C893 C 0.44936 0.16241 0.85766 0.0
C894 C 0.48569 0.14845 0.86087 0.0
C895 C 0.44123 0.14201 0.86163 0.0
C896 C 0.44765 0.22801 0.83381 0.0
N897 N 0.46337 0.23368 0.84401 0.0
C898 C 0.44467 0.26646 0.8502 0.0
C899 C 0.4621 0.25235 0.85226 0.0
C900 C 0.42834 0.26132 0.83952 0.0
C901 C 0.42994 0.24172 0.83131 0.0
H902 H 0.44902 0.21296 0.82748 0.0
H903 H 0.47461 0.25627 0.86049 0.0
C904 C 0.5238 0.17493 0.89341 0.0
N905 N 0.50517 0.18159 0.88653 0.0
C906 C 0.52374 0.16896 0.90891 0.0
C907 C 0.48515 0.17581 0.90968 0.0
C908 C 0.48601 0.18194 0.89423 0.0
C909 C 0.50427 0.16961 0.91726 0.0
H910 H 0.5388 0.17495 0.88698 0.0
H911 H 0.4715 0.18746 0.88846 0.0
C912 C 0.49724 0.22245 0.81779 0.0
N913 N 0.47605 0.24675 0.79568 0.0
C914 C 0.48726 0.21222 0.80531 0.0
C915 C 0.4968 0.24508 0.81884 0.0
C916 C 0.47655 0.22477 0.79429 0.0
C917 C 0.48589 0.25707 0.80761 0.0
C918 C 0.54837 0.17343 0.84619 0.0
C919 C 0.5542 0.18015 0.83138 0.0
C920 C 0.5612 0.15824 0.85391 0.0
C921 C 0.57276 0.17148 0.82454 0.0
C922 C 0.57962 0.14993 0.84665 0.0
N923 N 0.58497 0.15667 0.83225 0.0
C924 C 0.56782 0.22701 0.85574 0.0
C925 C 0.55534 0.2417 0.83213 0.0
C926 C 0.58648 0.23975 0.85508 0.0
N927 N 0.55249 0.22863 0.84456 0.0
C928 C 0.57391 0.25454 0.8309 0.0
C929 C 0.58955 0.25395 0.84264 0.0
H930 H 0.56524 0.21622 0.86538 0.0
H931 H 0.54304 0.24246 0.82331 0.0
C932 C 0.48004 0.1563 0.81945 0.0
N933 N 0.50026 0.15729 0.82561 0.0
C934 C 0.4741 0.139 0.81003 0.0
C935 C 0.50984 0.12376 0.81348 0.0
C936 C 0.51506 0.14133 0.82296 0.0
C937 C 0.48908 0.12244 0.80693 0.0
H938 H 0.46846 0.169 0.82195 0.0
H939 H 0.53079 0.14191 0.82832 0.0
O940 O 0.5068 0.22401 0.86411 0.0
O941 O 0.4799 0.18547 0.85325 0.0
O942 O 0.50753 0.2104 0.82883 0.0
O943 O 0.53049 0.18189 0.8533 0.0
H944 H 0.52918 0.21968 0.88998 0.0
H945 H 0.51345 0.26364 0.85316 0.0
H946 H 0.55306 0.24784 0.90118 0.0
H947 H 0.53771 0.291 0.86495 0.0
H948 H 0.48749 0.11487 0.86756 0.0
H949 H 0.43839 0.17554 0.85486 0.0
H950 H 0.50307 0.15059 0.86058 0.0
H951 H 0.42392 0.13928 0.86195 0.0
H952 H 0.4439 0.28113 0.85703 0.0
H953 H 0.41785 0.23717 0.82289 0.0
H954 H 0.53879 0.16421 0.91437 0.0
H955 H 0.46989 0.17678 0.9158 0.0
H956 H 0.48785 0.1948 0.80408 0.0
H957 H 0.50455 0.25329 0.82833 0.0
H958 H 0.46866 0.21704 0.78462 0.0
H959 H 0.48523 0.27457 0.8084 0.0
H960 H 0.54452 0.19185 0.82519 0.0
H961 H 0.55694 0.1529 0.86538 0.0
H962 H 0.57744 0.17651 0.81309 0.0
H963 H 0.58968 0.13814 0.85249 0.0
H964 H 0.59831 0.23863 0.86425 0.0
H965 H 0.57565 0.26534 0.82115 0.0
H966 H 0.45798 0.13873 0.8051 0.0
H967 H 0.52175 0.11116 0.81153 0.0
Li968 Li 0.79097 0.52481 0.84437 0.0
Li969 Li 0.81059 0.50807 0.86611 0.0
Li970 Li 0.82352 0.50604 0.83986 0.0
Li971 Li 0.79077 0.48563 0.84737 0.0
C972 C 0.83791 0.54403 0.84903 0.0
N973 N 0.87511 0.56633 0.8411 0.0
C974 C 0.85489 0.54599 0.85957 0.0
C975 C 0.83969 0.55375 0.83455 0.0
C976 C 0.87361 0.55725 0.85532 0.0
C977 C 0.85867 0.56484 0.83073 0.0
C978 C 0.76677 0.52025 0.87128 0.0
C979 C 0.73526 0.52629 0.88716 0.0
N980 N 0.74228 0.54677 0.89016 0.0
C981 C 0.77371 0.54136 0.87459 0.0
C982 C 0.7474 0.51264 0.87764 0.0
C983 C 0.76108 0.55451 0.88413 0.0
C984 C 0.75075 0.54298 0.83761 0.0
N985 N 0.77204 0.54814 0.83911 0.0
C986 C 0.76387 0.58595 0.83719 0.0
C987 C 0.7789 0.56909 0.83873 0.0
C988 C 0.74165 0.58111 0.83611 0.0
C989 C 0.73524 0.55924 0.83596 0.0
H990 H 0.74572 0.52621 0.8383 0.0
H991 H 0.79587 0.57277 0.84034 0.0
C992 C 0.84094 0.50399 0.89011 0.0
N993 N 0.81973 0.50853 0.88727 0.0
C994 C 0.84867 0.50293 0.90522 0.0
C995 C 0.81257 0.51111 0.91425 0.0
C996 C 0.80551 0.51169 0.89903 0.0
C997 C 0.83439 0.50671 0.9175 0.0
H998 H 0.85182 0.5009 0.88059 0.0
H999 H 0.78857 0.5142 0.89679 0.0
C1000 C 0.78273 0.50926 0.81679 0.0
N1001 N 0.75506 0.52383 0.79401 0.0
C1002 C 0.76283 0.49899 0.81438 0.0
C1003 C 0.78869 0.52673 0.80745 0.0
C1004 C 0.74903 0.50664 0.80284 0.0
C1005 C 0.77444 0.53392 0.79605 0.0
C1006 C 0.82198 0.46475 0.86491 0.0
C1007 C 0.83983 0.45082 0.86466 0.0
C1008 C 0.80514 0.46103 0.87535 0.0
C1009 C 0.84053 0.4333 0.87486 0.0
C1010 C 0.80645 0.44335 0.88536 0.0
N1011 N 0.82397 0.42996 0.88491 0.0
C1012 C 0.86882 0.50296 0.83494 0.0
C1013 C 0.84745 0.50266 0.81229 0.0
C1014 C 0.88771 0.50012 0.8263 0.0
N1015 N 0.84923 0.50409 0.82783 0.0
C1016 C 0.86586 0.49957 0.80323 0.0
C1017 C 0.88638 0.49799 0.81021 0.0
H1018 H 0.86971 0.50389 0.84735 0.0
H1019 H 0.83164 0.50327 0.80695 0.0
C1020 C 0.75294 0.4609 0.84915 0.0
N1021 N 0.77421 0.45984 0.84523 0.0
C1022 C 0.74 0.44238 0.84854 0.0
C1023 C 0.77097 0.42206 0.83943 0.0
C1024 C 0.78339 0.441 0.84033 0.0
C1025 C 0.74902 0.4226 0.84374 0.0
H1026 H 0.74602 0.47619 0.85268 0.0
H1027 H 0.80038 0.44066 0.83728 0.0
O1028 O 0.81958 0.53279 0.85289 0.0
O1029 O 0.77852 0.50729 0.86155 0.0
O1030 O 0.79633 0.50218 0.82817 0.0
O1031 O 0.82121 0.48203 0.85505 0.0
H1032 H 0.85367 0.5389 0.8709 0.0
H1033 H 0.82663 0.55259 0.82633 0.0
H1034 H 0.88693 0.55877 0.86333 0.0
H1035 H 0.86034 0.57227 0.81951 0.0
H1036 H 0.72025 0.52059 0.89215 0.0
H1037 H 0.78868 0.54757 0.86989 0.0
H1038 H 0.74179 0.49635 0.87532 0.0
H1039 H 0.76624 0.57087 0.88674 0.0
H1040 H 0.76951 0.60258 0.83757 0.0
H1041 H 0.71835 0.55472 0.83496 0.0
H1042 H 0.8656 0.49934 0.90729 0.0
H1043 H 0.80093 0.51354 0.92342 0.0
H1044 H 0.75799 0.48535 0.82139 0.0
H1045 H 0.80411 0.53472 0.80902 0.0
H1046 H 0.73352 0.49893 0.80092 0.0
H1047 H 0.7788 0.54752 0.78882 0.0
H1048 H 0.85302 0.45354 0.85667 0.0
H1049 H 0.79123 0.47167 0.87577 0.0
H1050 H 0.85425 0.42238 0.87479 0.0
H1051 H 0.79354 0.44027 0.89349 0.0
H1052 H 0.90313 0.49923 0.83221 0.0
H1053 H 0.86386 0.49752 0.79094 0.0
H1054 H 0.72306 0.44357 0.85168 0.0
H1055 H 0.77853 0.40708 0.83572 0.0
Li1056 Li 0.47668 0.21093 0.1531 0.0
Li1057 Li 0.49634 0.17831 0.16133 0.0
Li1058 Li 0.5166 0.2115 0.15239 0.0
Li1059 Li 0.49745 0.1881 0.13408 0.0
C1060 C 0.49041 0.2185 0.18344 0.0
N1061 N 0.47613 0.23994 0.20947 0.0
C1062 C 0.48065 0.20694 0.19542 0.0
C1063 C 0.49306 0.24095 0.18477 0.0
C1064 C 0.4735 0.21808 0.20847 0.0
C1065 C 0.48568 0.2515 0.19799 0.0
C1066 C 0.4562 0.16526 0.15009 0.0
C1067 C 0.44177 0.12904 0.14792 0.0
N1068 N 0.42489 0.13481 0.15711 0.0
C1069 C 0.4386 0.17091 0.15939 0.0
C1070 C 0.45771 0.14424 0.14417 0.0
C1071 C 0.42297 0.15526 0.16285 0.0
C1072 C 0.44375 0.23645 0.14122 0.0
N1073 N 0.45142 0.22873 0.15481 0.0
C1074 C 0.42407 0.24813 0.16862 0.0
C1075 C 0.44168 0.23389 0.16836 0.0
C1076 C 0.41612 0.25685 0.15477 0.0
C1077 C 0.42603 0.2505 0.14092 0.0
H1078 H 0.45158 0.23181 0.13058 0.0
H1079 H 0.44754 0.22714 0.179 0.0
C1080 C 0.51851 0.14799 0.17888 0.0
N1081 N 0.4981 0.15502 0.17581 0.0
C1082 C 0.52208 0.13209 0.18999 0.0
C1083 C 0.48352 0.13079 0.19468 0.0
C1084 C 0.48069 0.14673 0.18341 0.0
C1085 C 0.5045 0.12349 0.19823 0.0
H1086 H 0.53214 0.15507 0.17291 0.0
H1087 H 0.46468 0.15298 0.18118 0.0
C1088 C 0.50148 0.2403 0.13099 0.0
N1089 N 0.51297 0.28126 0.121 0.0
C1090 C 0.51208 0.24295 0.11691 0.0
C1091 C 0.49647 0.25849 0.1399 0.0
C1092 C 0.51784 0.26378 0.11209 0.0
C1093 C 0.50247 0.27906 0.13468 0.0
C1094 C 0.53362 0.16443 0.14059 0.0
C1095 C 0.55451 0.16843 0.13507 0.0
C1096 C 0.5245 0.14383 0.13889 0.0
C1097 C 0.56583 0.15176 0.12771 0.0
C1098 C 0.53634 0.12759 0.13148 0.0
N1099 N 0.55658 0.13186 0.12608 0.0
C1100 C 0.54742 0.23729 0.1685 0.0
C1101 C 0.55415 0.23237 0.14188 0.0
C1102 C 0.5656 0.25065 0.16984 0.0
N1103 N 0.54188 0.22879 0.15461 0.0
C1104 C 0.57245 0.24561 0.14269 0.0
C1105 C 0.57829 0.25511 0.15679 0.0
H1106 H 0.53774 0.2337 0.17853 0.0
H1107 H 0.5496 0.22504 0.13105 0.0
C1108 C 0.48043 0.1706 0.10637 0.0
N1109 N 0.49843 0.17857 0.11337 0.0
C1110 C 0.48072 0.1659 0.09063 0.0
C1111 C 0.51827 0.17702 0.08983 0.0
C1112 C 0.51716 0.18173 0.10548 0.0
C1113 C 0.49975 0.16946 0.08207 0.0
H1114 H 0.46564 0.16861 0.1129 0.0
H1115 H 0.53107 0.18859 0.11126 0.0
O1116 O 0.49757 0.20782 0.17062 0.0
O1117 O 0.47153 0.18042 0.14645 0.0
O1118 O 0.49594 0.22 0.13598 0.0
O1119 O 0.5222 0.18061 0.14766 0.0
H1120 H 0.47852 0.18958 0.19463 0.0
H1121 H 0.50077 0.25014 0.1757 0.0
H1122 H 0.46585 0.20934 0.2178 0.0
H1123 H 0.48758 0.26887 0.19914 0.0
H1124 H 0.44278 0.11268 0.14348 0.0
H1125 H 0.43713 0.18712 0.16401 0.0
H1126 H 0.47099 0.13972 0.13671 0.0
H1127 H 0.40934 0.15935 0.17011 0.0
H1128 H 0.4171 0.25257 0.17961 0.0
H1129 H 0.4202 0.2563 0.12991 0.0
H1130 H 0.53851 0.12678 0.19222 0.0
H1131 H 0.46955 0.12484 0.20092 0.0
H1132 H 0.51596 0.22904 0.10983 0.0
H1133 H 0.48797 0.25675 0.1507 0.0
H1134 H 0.52618 0.26607 0.10126 0.0
H1135 H 0.49875 0.29327 0.14148 0.0
H1136 H 0.56183 0.18427 0.13636 0.0
H1137 H 0.50846 0.14045 0.14327 0.0
H1138 H 0.58196 0.15464 0.1233 0.0
H1139 H 0.52945 0.11158 0.13004 0.0
H1140 H 0.56976 0.2573 0.18099 0.0
H1141 H 0.58167 0.24869 0.13232 0.0
H1142 H 0.46596 0.16042 0.08514 0.0
H1143 H 0.53339 0.17972 0.08381 0.0
Li1144 Li 0.793 0.51431 0.14685 0.0
Li1145 Li 0.8237 0.49453 0.15811 0.0
Li1146 Li 0.81733 0.49427 0.13044 0.0
Li1147 Li 0.7935 0.47465 0.14812 0.0
C1148 C 0.82546 0.54122 0.14539 0.0
N1149 N 0.82549 0.58563 0.14977 0.0
C1150 C 0.83292 0.55001 0.15924 0.0
C1151 C 0.81807 0.55503 0.13376 0.0
C1152 C 0.83282 0.5725 0.16123 0.0
C1153 C 0.81817 0.57743 0.1362 0.0
C1154 C 0.77811 0.48714 0.17476 0.0
C1155 C 0.76634 0.45967 0.19266 0.0
N1156 N 0.74609 0.46837 0.19254 0.0
C1157 C 0.7572 0.49586 0.17485 0.0
C1158 C 0.78277 0.46895 0.18378 0.0
C1159 C 0.74123 0.48613 0.18391 0.0
C1160 C 0.76079 0.54394 0.13709 0.0
N1161 N 0.77487 0.53927 0.14865 0.0
C1162 C 0.76279 0.5701 0.16299 0.0
C1163 C 0.776 0.55179 0.16151 0.0
C1164 C 0.74824 0.57547 0.15114 0.0
C1165 C 0.74734 0.56208 0.13807 0.0
H1166 H 0.75986 0.53347 0.12716 0.0
H1167 H 0.78718 0.54754 0.1706 0.0
C1168 C 0.86633 0.50035 0.16932 0.0
N1169 N 0.84553 0.49615 0.17354 0.0
C1170 C 0.88213 0.50423 0.1805 0.0
C1171 C 0.85487 0.49896 0.20012 0.0
C1172 C 0.83964 0.49507 0.18858 0.0
C1173 C 0.87631 0.50412 0.19612 0.0
H1174 H 0.87044 0.50158 0.15726 0.0
H1175 H 0.82294 0.49206 0.19162 0.0
C1176 C 0.78053 0.48987 0.11558 0.0
N1177 N 0.77333 0.48194 0.0847 0.0
C1178 C 0.7751 0.469 0.11059 0.0
C1179 C 0.78221 0.50671 0.10487 0.0
C1180 C 0.77151 0.46533 0.09493 0.0
C1181 C 0.77857 0.50236 0.08931 0.0
C1182 C 0.84321 0.45955 0.14821 0.0
C1183 C 0.8619 0.46224 0.13934 0.0
C1184 C 0.84416 0.44756 0.16185 0.0
C1185 C 0.88133 0.45297 0.14434 0.0
C1186 C 0.86391 0.43859 0.16646 0.0
N1187 N 0.88193 0.44146 0.15768 0.0
C1188 C 0.83905 0.51211 0.10474 0.0
C1189 C 0.82928 0.4751 0.10214 0.0
C1190 C 0.84603 0.51279 0.08948 0.0
N1191 N 0.83034 0.49363 0.11059 0.0
C1192 C 0.83601 0.47506 0.0868 0.0
C1193 C 0.84405 0.49424 0.08018 0.0
H1194 H 0.84004 0.52649 0.11179 0.0
H1195 H 0.82236 0.46061 0.10715 0.0
C1196 C 0.7534 0.4538 0.14928 0.0
N1197 N 0.77505 0.45019 0.15053 0.0
C1198 C 0.73876 0.43679 0.15118 0.0
C1199 C 0.76899 0.41249 0.15528 0.0
C1200 C 0.78308 0.43005 0.15339 0.0
C1201 C 0.7465 0.4158 0.15425 0.0
H1202 H 0.74754 0.46997 0.14681 0.0
H1203 H 0.80038 0.42763 0.15421 0.0
O1204 O 0.82502 0.51921 0.14333 0.0
O1205 O 0.79384 0.49613 0.16568 0.0
O1206 O 0.78459 0.49369 0.13083 0.0
O1207 O 0.82411 0.46877 0.14364 0.0
H1208 H 0.83854 0.53961 0.16843 0.0
H1209 H 0.81192 0.54851 0.12306 0.0
H1210 H 0.83849 0.57952 0.1719 0.0
H1211 H 0.81234 0.58828 0.12734 0.0
H1212 H 0.76968 0.44549 0.19961 0.0
H1213 H 0.75326 0.50984 0.16786 0.0
H1214 H 0.79881 0.46188 0.18374 0.0
H1215 H 0.72496 0.49264 0.18404 0.0
H1216 H 0.76408 0.58002 0.17323 0.0
H1217 H 0.73605 0.56534 0.12882 0.0
H1218 H 0.8984 0.50849 0.17693 0.0
H1219 H 0.84976 0.49867 0.21204 0.0
H1220 H 0.77392 0.45572 0.11867 0.0
H1221 H 0.78673 0.52289 0.10848 0.0
H1222 H 0.76738 0.44925 0.0909 0.0
H1223 H 0.78003 0.51519 0.08088 0.0
H1224 H 0.86147 0.47153 0.12879 0.0
H1225 H 0.82987 0.44546 0.1689 0.0
H1226 H 0.89596 0.45499 0.13762 0.0
H1227 H 0.86492 0.4294 0.17704 0.0
H1228 H 0.85251 0.52779 0.08493 0.0
H1229 H 0.83402 0.46044 0.08004 0.0
H1230 H 0.72158 0.43999 0.15002 0.0
H1231 H 0.7756 0.39658 0.15769 0.0
Li1232 Li 0.50694 0.82098 0.16125 0.0
Li1233 Li 0.52693 0.78945 0.15464 0.0
Li1234 Li 0.50732 0.8092 0.13502 0.0
Li1235 Li 0.48749 0.78587 0.15427 0.0
C1236 C 0.54296 0.83772 0.15159 0.0
N1237 N 0.56355 0.87522 0.16109 0.0
C1238 C 0.5604 0.83661 0.16182 0.0
C1239 C 0.53614 0.85789 0.14607 0.0
C1240 C 0.57057 0.85575 0.16651 0.0
C1241 C 0.5467 0.87666 0.15105 0.0
C1242 C 0.51612 0.78191 0.18414 0.0
C1243 C 0.51727 0.75226 0.20223 0.0
N1244 N 0.53608 0.76025 0.2081 0.0
C1245 C 0.53539 0.78988 0.1904 0.0
C1246 C 0.50692 0.76298 0.19012 0.0
C1247 C 0.54527 0.77867 0.20248 0.0
C1248 C 0.48512 0.85723 0.17276 0.0
N1249 N 0.50364 0.84557 0.17457 0.0
C1250 C 0.51342 0.86689 0.19654 0.0
C1251 C 0.51787 0.85021 0.18608 0.0
C1252 C 0.49398 0.87859 0.19525 0.0
C1253 C 0.47998 0.87388 0.18297 0.0
H1254 H 0.4739 0.85313 0.16371 0.0
H1255 H 0.53233 0.84059 0.18749 0.0
C1256 C 0.57142 0.77857 0.15153 0.0
N1257 N 0.55224 0.77178 0.15755 0.0
C1258 C 0.5896 0.76507 0.15196 0.0
C1259 C 0.56802 0.73786 0.16482 0.0
C1260 C 0.55024 0.75179 0.16402 0.0
C1261 C 0.58799 0.74437 0.15862 0.0
H1262 H 0.57241 0.7942 0.14593 0.0
H1263 H 0.53463 0.74627 0.16802 0.0
C1264 C 0.4675 0.82526 0.13707 0.0
N1265 N 0.44034 0.84266 0.11498 0.0
C1266 C 0.44944 0.81361 0.13199 0.0
C1267 C 0.47155 0.84591 0.13107 0.0
C1268 C 0.43595 0.82265 0.12078 0.0
C1269 C 0.4577 0.85439 0.11987 0.0
C1270 C 0.51993 0.76152 0.1316 0.0
C1271 C 0.53641 0.76685 0.12124 0.0
C1272 C 0.51642 0.73984 0.13557 0.0
C1273 C 0.54931 0.75034 0.11513 0.0
C1274 C 0.52966 0.7238 0.12919 0.0
N1275 N 0.5457 0.72934 0.1192 0.0
C1276 C 0.52024 0.83071 0.1072 0.0
C1277 C 0.4909 0.80605 0.10537 0.0
C1278 C 0.51905 0.83499 0.09141 0.0
N1279 N 0.5062 0.8165 0.1138 0.0
C1280 C 0.48892 0.81005 0.08966 0.0
C1281 C 0.50323 0.82454 0.08239 0.0
H1282 H 0.53255 0.83846 0.11413 0.0
H1283 H 0.48021 0.79454 0.1109 0.0
C1284 C 0.45189 0.76788 0.17057 0.0
N1285 N 0.4632 0.7676 0.15715 0.0
C1286 C 0.43379 0.75451 0.17243 0.0
C1287 C 0.43912 0.74127 0.1465 0.0
C1288 C 0.45724 0.75466 0.14522 0.0
C1289 C 0.42715 0.74108 0.16025 0.0
H1290 H 0.45694 0.77851 0.17981 0.0
H1291 H 0.46648 0.75494 0.13465 0.0
O1292 O 0.53264 0.81917 0.14698 0.0
O1293 O 0.50622 0.79259 0.17226 0.0
O1294 O 0.48115 0.8165 0.14783 0.0
O1295 O 0.50762 0.77752 0.13808 0.0
H1296 H 0.56592 0.82117 0.16624 0.0
H1297 H 0.52279 0.85905 0.13808 0.0
H1298 H 0.584 0.85513 0.17449 0.0
H1299 H 0.5415 0.89239 0.14693 0.0
H1300 H 0.51039 0.73754 0.20693 0.0
H1301 H 0.54285 0.80433 0.1858 0.0
H1302 H 0.49208 0.7565 0.18538 0.0
H1303 H 0.56028 0.78458 0.20735 0.0
H1304 H 0.52453 0.86989 0.20595 0.0
H1305 H 0.4649 0.88265 0.1815 0.0
H1306 H 0.60469 0.77068 0.147 0.0
H1307 H 0.56592 0.72183 0.16969 0.0
H1308 H 0.44591 0.7977 0.13657 0.0
H1309 H 0.48532 0.85525 0.13495 0.0
H1310 H 0.42199 0.81374 0.11668 0.0
H1311 H 0.46075 0.87027 0.11505 0.0
H1312 H 0.53941 0.78359 0.11814 0.0
H1313 H 0.50381 0.7355 0.14366 0.0
H1314 H 0.56223 0.75422 0.10719 0.0
H1315 H 0.52724 0.70696 0.13224 0.0
H1316 H 0.53068 0.84598 0.0863 0.0
H1317 H 0.47622 0.80187 0.08332 0.0
H1318 H 0.42487 0.75492 0.18316 0.0
H1319 H 0.43463 0.731 0.1369 0.0
Li1320 Li 0.20905 0.52599 0.15043 0.0
Li1321 Li 0.18724 0.50794 0.13047 0.0
Li1322 Li 0.17739 0.50622 0.15775 0.0
Li1323 Li 0.20912 0.48606 0.14801 0.0
C1324 C 0.15967 0.54192 0.14758 0.0
N1325 N 0.12002 0.55984 0.15502 0.0
C1326 C 0.14203 0.53937 0.13767 0.0
C1327 C 0.15724 0.5537 0.16121 0.0
C1328 C 0.12209 0.54855 0.14165 0.0
C1329 C 0.13703 0.56258 0.16479 0.0
C1330 C 0.22806 0.50969 0.11898 0.0
C1331 C 0.23655 0.49448 0.09414 0.0
N1332 N 0.24462 0.514 0.08962 0.0
C1333 C 0.23659 0.52956 0.11414 0.0
C1334 C 0.22818 0.49195 0.10897 0.0
C1335 C 0.24485 0.53141 0.09923 0.0
C1336 C 0.24914 0.54566 0.15587 0.0
N1337 N 0.22766 0.54993 0.15425 0.0
C1338 C 0.23396 0.58793 0.15728 0.0
C1339 C 0.21984 0.57053 0.15488 0.0
C1340 C 0.25621 0.58394 0.15921 0.0
C1341 C 0.26375 0.56248 0.15855 0.0
H1342 H 0.25492 0.52914 0.15498 0.0
H1343 H 0.20269 0.57344 0.15337 0.0
C1344 C 0.16545 0.49315 0.10378 0.0
N1345 N 0.17755 0.50957 0.10972 0.0
C1346 C 0.16076 0.49262 0.08806 0.0
C1347 C 0.18033 0.52633 0.08502 0.0
C1348 C 0.18429 0.52642 0.10083 0.0
C1349 C 0.1688 0.50904 0.07845 0.0
H1350 H 0.15999 0.48015 0.11115 0.0
H1351 H 0.19345 0.53951 0.10594 0.0
C1352 C 0.22072 0.51126 0.17768 0.0
N1353 N 0.25027 0.52757 0.19857 0.0
C1354 C 0.24062 0.50086 0.17987 0.0
C1355 C 0.21577 0.52983 0.18622 0.0
C1356 C 0.25535 0.50939 0.19047 0.0
C1357 C 0.23095 0.53787 0.19669 0.0
C1358 C 0.17421 0.46066 0.14201 0.0
C1359 C 0.16291 0.45068 0.15402 0.0
C1360 C 0.18191 0.44813 0.12977 0.0
C1361 C 0.15961 0.42826 0.15362 0.0
C1362 C 0.17832 0.42575 0.12981 0.0
N1363 N 0.16734 0.41636 0.14163 0.0
C1364 C 0.13341 0.50056 0.16718 0.0
C1365 C 0.15929 0.50379 0.18721 0.0
C1366 C 0.11704 0.49608 0.17786 0.0
N1367 N 0.15409 0.504 0.17203 0.0
C1368 C 0.14353 0.49927 0.19823 0.0
C1369 C 0.12221 0.49483 0.19357 0.0
H1370 H 0.12982 0.50036 0.155 0.0
H1371 H 0.17587 0.50626 0.19075 0.0
C1372 C 0.24692 0.46216 0.14292 0.0
N1373 N 0.22711 0.46101 0.14967 0.0
C1374 C 0.26116 0.44463 0.14367 0.0
C1375 C 0.23441 0.42495 0.1584 0.0
C1376 C 0.22086 0.44308 0.15762 0.0
C1377 C 0.25492 0.42551 0.15132 0.0
H1378 H 0.25181 0.47686 0.1371 0.0
H1379 H 0.20535 0.4428 0.16337 0.0
O1380 O 0.17921 0.53279 0.144 0.0
O1381 O 0.21954 0.50766 0.13343 0.0
O1382 O 0.20623 0.50337 0.16717 0.0
O1383 O 0.1776 0.48259 0.14219 0.0
H1384 H 0.14366 0.53027 0.12708 0.0
H1385 H 0.17076 0.55578 0.169 0.0
H1386 H 0.10825 0.54663 0.13413 0.0
H1387 H 0.13486 0.57163 0.17534 0.0
H1388 H 0.2366 0.48094 0.08622 0.0
H1389 H 0.2366 0.54345 0.12175 0.0
H1390 H 0.22176 0.47645 0.11258 0.0
H1391 H 0.25138 0.54672 0.09529 0.0
H1392 H 0.22759 0.6043 0.15771 0.0
H1393 H 0.28083 0.55881 0.15974 0.0
H1394 H 0.15181 0.47902 0.08337 0.0
H1395 H 0.18655 0.5394 0.07796 0.0
H1396 H 0.2447 0.48645 0.17339 0.0
H1397 H 0.20047 0.53811 0.18463 0.0
H1398 H 0.27085 0.50157 0.19223 0.0
H1399 H 0.22741 0.55232 0.20328 0.0
H1400 H 0.15691 0.46007 0.16362 0.0
H1401 H 0.19066 0.45558 0.12038 0.0
H1402 H 0.15097 0.42031 0.16286 0.0
H1403 H 0.18427 0.41585 0.12045 0.0
H1404 H 0.10083 0.4925 0.17381 0.0
H1405 H 0.14812 0.49859 0.21025 0.0
H1406 H 0.277 0.44624 0.13846 0.0
H1407 H 0.22873 0.41063 0.16437 0.0
H1408 H 0.07618 0.20508 0.32866 0.0
H1409 H 0.10641 0.17985 0.32684 0.0
H1410 H 0.14281 0.21858 0.3591 0.0
H1411 H 0.11322 0.2448 0.36015 0.0
H1412 H 0.16875 0.20509 0.33766 0.0
H1413 H 0.11602 0.17056 0.36971 0.0
H1414 H 0.07996 0.15659 0.37686 0.0
H1415 H 0.08127 0.11298 0.33834 0.0
H1416 H 0.11723 0.1269 0.33084 0.0
H1417 H 0.24288 0.12085 0.35948 0.0
H1418 H 0.21492 0.14892 0.35904 0.0
H1419 H 0.1829 0.11607 0.32161 0.0
H1420 H 0.2111 0.08824 0.32163 0.0
H1421 H 0.1552 0.12658 0.34576 0.0
H1422 H 0.20937 0.1616 0.31454 0.0
H1423 H 0.24592 0.17552 0.30873 0.0
H1424 H 0.24244 0.2181 0.34776 0.0
H1425 H 0.20596 0.2042 0.35393 0.0
C1426 C 0.09073 0.20853 0.33517 0.0
C1427 C 0.09212 0.22704 0.34461 0.0
C1428 C 0.10793 0.19385 0.33429 0.0
C1429 C 0.12676 0.19703 0.34308 0.0
C1430 C 0.1284 0.21567 0.35228 0.0
C1431 C 0.11132 0.23054 0.35301 0.0
C1432 C 0.14463 0.18084 0.34275 0.0
C1433 C 0.1658 0.18797 0.33963 0.0
C1434 C 0.14082 0.15841 0.34511 0.0
C1435 C 0.11923 0.14992 0.34963 0.0
C1436 C 0.10856 0.1581 0.36271 0.0
C1437 C 0.08814 0.15017 0.36683 0.0
C1438 C 0.07831 0.13395 0.35804 0.0
C1439 C 0.0889 0.12557 0.34513 0.0
C1440 C 0.1093 0.13345 0.34094 0.0
C1441 C 0.23016 0.11979 0.35093 0.0
C1442 C 0.22926 0.1022 0.34061 0.0
C1443 C 0.21413 0.13582 0.35075 0.0
C1444 C 0.19687 0.13457 0.34028 0.0
C1445 C 0.19604 0.11725 0.32984 0.0
C1446 C 0.21214 0.10131 0.32992 0.0
C1447 C 0.17919 0.15086 0.3406 0.0
C1448 C 0.15808 0.14372 0.34377 0.0
C1449 C 0.18313 0.17327 0.33851 0.0
C1450 C 0.20502 0.18171 0.33478 0.0
C1451 C 0.21647 0.1738 0.32196 0.0
C1452 C 0.23716 0.18171 0.31859 0.0
C1453 C 0.24652 0.19764 0.32789 0.0
C1454 C 0.23518 0.20574 0.34057 0.0
C1455 C 0.21449 0.19787 0.344 0.0
H1456 H 0.26254 0.20374 0.32527 0.0
H1457 H 0.0625 0.12784 0.36125 0.0
H1458 H 0.91382 0.20006 0.35473 0.0
H1459 H 0.88549 0.17283 0.35224 0.0
H1460 H 0.8464 0.21793 0.32634 0.0
H1461 H 0.87433 0.24578 0.32947 0.0
H1462 H 0.82197 0.19654 0.34638 0.0
H1463 H 0.87391 0.17649 0.30838 0.0
H1464 H 0.91012 0.16793 0.29804 0.0
H1465 H 0.91517 0.11368 0.32883 0.0
H1466 H 0.87911 0.1221 0.33952 0.0
H1467 H 0.75025 0.11114 0.32204 0.0
H1468 H 0.77634 0.14106 0.32173 0.0
H1469 H 0.81849 0.10501 0.35193 0.0
H1470 H 0.79236 0.07536 0.35269 0.0
H1471 H 0.84018 0.12297 0.32711 0.0
H1472 H 0.78877 0.14516 0.36603 0.0
H1473 H 0.75237 0.15399 0.37591 0.0
H1474 H 0.74603 0.20451 0.34219 0.0
H1475 H 0.78231 0.19576 0.33196 0.0
C1476 C 0.8991 0.20436 0.34868 0.0
C1477 C 0.8964 0.22518 0.34232 0.0
C1478 C 0.883 0.18863 0.34708 0.0
C1479 C 0.86395 0.19319 0.33887 0.0
C1480 C 0.86103 0.214 0.33264 0.0
C1481 C 0.87711 0.22984 0.33432 0.0
C1482 C 0.8471 0.17618 0.33697 0.0
C1483 C 0.82587 0.18058 0.3419 0.0
C1484 C 0.85221 0.15526 0.33129 0.0
C1485 C 0.87386 0.15004 0.32483 0.0
C1486 C 0.8828 0.16282 0.31302 0.0
C1487 C 0.90329 0.15798 0.30709 0.0
C1488 C 0.91496 0.1403 0.3128 0.0
C1489 C 0.90613 0.12738 0.32443 0.0
C1490 C 0.88565 0.13217 0.33041 0.0
C1491 C 0.76496 0.10965 0.32875 0.0
C1492 C 0.76919 0.09076 0.33736 0.0
C1493 C 0.77988 0.12674 0.3285 0.0
C1494 C 0.79931 0.12525 0.33683 0.0
C1495 C 0.80365 0.10642 0.34534 0.0
C1496 C 0.78871 0.08942 0.34568 0.0
C1497 C 0.81525 0.14325 0.33677 0.0
C1498 C 0.83628 0.13902 0.33144 0.0
C1499 C 0.80991 0.16434 0.34195 0.0
C1500 C 0.78814 0.16964 0.34812 0.0
C1501 C 0.77954 0.15802 0.36063 0.0
C1502 C 0.75894 0.16304 0.36632 0.0
C1503 C 0.74687 0.17975 0.35965 0.0
C1504 C 0.75539 0.19153 0.34732 0.0
C1505 C 0.77597 0.18656 0.34158 0.0
H1506 H 0.73093 0.18362 0.36407 0.0
H1507 H 0.93082 0.13658 0.30819 0.0
H1508 H 0.74872 0.87472 0.32989 0.0
H1509 H 0.77685 0.8467 0.32923 0.0
H1510 H 0.82525 0.89469 0.34022 0.0
H1511 H 0.79732 0.92262 0.34138 0.0
H1512 H 0.83738 0.8673 0.31607 0.0
H1513 H 0.80777 0.86218 0.36753 0.0
H1514 H 0.77837 0.85746 0.38646 0.0
H1515 H 0.76376 0.7948 0.36752 0.0
H1516 H 0.79289 0.7993 0.34832 0.0
H1517 H 0.92759 0.80705 0.34049 0.0
H1518 H 0.89684 0.83156 0.3381 0.0
H1519 H 0.85362 0.77683 0.33416 0.0
H1520 H 0.88423 0.7521 0.33748 0.0
H1521 H 0.83675 0.80552 0.35267 0.0
H1522 H 0.86763 0.80869 0.30251 0.0
H1523 H 0.89648 0.81291 0.28311 0.0
H1524 H 0.90786 0.87816 0.2984 0.0
H1525 H 0.87928 0.87424 0.31805 0.0
C1526 C 0.76532 0.87929 0.3323 0.0
C1527 C 0.77073 0.90097 0.33565 0.0
C1528 C 0.78137 0.86327 0.33184 0.0
C1529 C 0.8031 0.86865 0.33469 0.0
C1530 C 0.80859 0.89025 0.33787 0.0
C1531 C 0.79258 0.90622 0.33845 0.0
C1532 C 0.82021 0.8518 0.33461 0.0
C1533 C 0.83738 0.85386 0.32414 0.0
C1534 C 0.81976 0.83393 0.34481 0.0
C1535 C 0.80233 0.83119 0.35639 0.0
C1536 C 0.79816 0.84748 0.36732 0.0
C1537 C 0.78157 0.84483 0.37811 0.0
C1538 C 0.76916 0.82587 0.37816 0.0
C1539 C 0.77336 0.8095 0.36745 0.0
C1540 C 0.78991 0.81208 0.35662 0.0
C1541 C 0.91155 0.80016 0.33926 0.0
C1542 C 0.90844 0.77755 0.33922 0.0
C1543 C 0.89397 0.81424 0.33767 0.0
C1544 C 0.87292 0.80607 0.33569 0.0
C1545 C 0.86973 0.78352 0.33559 0.0
C1546 C 0.8873 0.7694 0.33733 0.0
C1547 C 0.85423 0.82114 0.33427 0.0
C1548 C 0.83672 0.81877 0.34446 0.0
C1549 C 0.85427 0.83863 0.32369 0.0
C1550 C 0.87141 0.8411 0.31183 0.0
C1551 C 0.87638 0.82389 0.30181 0.0
C1552 C 0.89268 0.82624 0.29076 0.0
C1553 C 0.90402 0.84578 0.28955 0.0
C1554 C 0.89907 0.86303 0.29936 0.0
C1555 C 0.8828 0.86076 0.31044 0.0
H1556 H 0.91663 0.84756 0.28098 0.0
H1557 H 0.75633 0.82385 0.38653 0.0
H1558 H 0.08348 0.79979 0.3367 0.0
H1559 H 0.11241 0.82673 0.33602 0.0
H1560 H 0.15983 0.77631 0.34336 0.0
H1561 H 0.13075 0.74921 0.34429 0.0
H1562 H 0.16881 0.81002 0.36082 0.0
H1563 H 0.15311 0.80033 0.30767 0.0
H1564 H 0.13034 0.79761 0.28444 0.0
H1565 H 0.1095 0.86352 0.29054 0.0
H1566 H 0.13191 0.86654 0.31394 0.0
H1567 H 0.25614 0.88279 0.34257 0.0
H1568 H 0.23075 0.85221 0.34101 0.0
H1569 H 0.17697 0.89691 0.34122 0.0
H1570 H 0.20222 0.92747 0.34282 0.0
H1571 H 0.17392 0.86394 0.31857 0.0
H1572 H 0.18847 0.87184 0.37298 0.0
H1573 H 0.21204 0.8739 0.39585 0.0
H1574 H 0.23649 0.81006 0.38636 0.0
H1575 H 0.21327 0.80775 0.36329 0.0
C1576 C 0.10009 0.79439 0.33798 0.0
C1577 C 0.10488 0.77236 0.34038 0.0
C1578 C 0.11663 0.80981 0.33758 0.0
C1579 C 0.13836 0.80352 0.33935 0.0
C1580 C 0.1432 0.78154 0.3419 0.0
C1581 C 0.12659 0.76609 0.34244 0.0
C1582 C 0.15586 0.82006 0.33891 0.0
C1583 C 0.17017 0.82154 0.35143 0.0
C1584 C 0.15751 0.8353 0.32675 0.0
C1585 C 0.14407 0.8336 0.31263 0.0
C1586 C 0.14355 0.8142 0.30412 0.0
C1587 C 0.13073 0.81261 0.29091 0.0
C1588 C 0.11845 0.83037 0.28603 0.0
C1589 C 0.11901 0.84977 0.29434 0.0
C1590 C 0.13179 0.85144 0.30757 0.0
C1591 C 0.2389 0.88605 0.34219 0.0
C1592 C 0.23111 0.90747 0.34287 0.0
C1593 C 0.22444 0.86861 0.34137 0.0
C1594 C 0.20201 0.87234 0.34107 0.0
C1595 C 0.19423 0.89372 0.34145 0.0
C1596 C 0.20864 0.91112 0.34246 0.0
C1597 C 0.18652 0.854 0.34055 0.0
C1598 C 0.17264 0.85222 0.32784 0.0
C1599 C 0.18542 0.83837 0.35243 0.0
C1600 C 0.19933 0.83973 0.36631 0.0
C1601 C 0.19903 0.85832 0.37569 0.0
C1602 C 0.21229 0.85952 0.3887 0.0
C1603 C 0.22581 0.84215 0.39253 0.0
C1604 C 0.22604 0.82352 0.38337 0.0
C1605 C 0.21283 0.82225 0.37033 0.0
H1606 H 0.23606 0.84311 0.40261 0.0
H1607 H 0.10852 0.82911 0.2758 0.0
H1608 H 0.11463 0.75103 0.67323 0.0
H1609 H 0.14381 0.77795 0.67468 0.0
H1610 H 0.10548 0.8224 0.64758 0.0
H1611 H 0.07673 0.79529 0.6457 0.0
H1612 H 0.14459 0.82274 0.63743 0.0
H1613 H 0.11287 0.82724 0.68797 0.0
H1614 H 0.10045 0.81312 0.71302 0.0
H1615 H 0.1651 0.79196 0.72347 0.0
H1616 H 0.17785 0.80572 0.69839 0.0
H1617 H 0.19854 0.92131 0.65176 0.0
H1618 H 0.17179 0.89214 0.65219 0.0
H1619 H 0.21848 0.84953 0.67344 0.0
H1620 H 0.2453 0.87888 0.67334 0.0
H1621 H 0.17745 0.84661 0.68671 0.0
H1622 H 0.20896 0.84445 0.63619 0.0
H1623 H 0.22066 0.85992 0.61138 0.0
H1624 H 0.15505 0.87811 0.60117 0.0
H1625 H 0.14299 0.86302 0.62603 0.0
C1626 C 0.11247 0.76661 0.66767 0.0
C1627 C 0.0935 0.7711 0.65932 0.0
C1628 C 0.12909 0.78201 0.66854 0.0
C1629 C 0.12678 0.80234 0.66138 0.0
C1630 C 0.10771 0.80683 0.65315 0.0
C1631 C 0.09129 0.79135 0.65208 0.0
C1632 C 0.14431 0.81886 0.66209 0.0
C1633 C 0.15156 0.82811 0.64825 0.0
C1634 C 0.15389 0.8255 0.67614 0.0
C1635 C 0.14626 0.8173 0.69124 0.0
C1636 C 0.1244 0.81943 0.69557 0.0
C1637 C 0.11731 0.81152 0.70977 0.0
C1638 C 0.13196 0.80159 0.71981 0.0
C1639 C 0.15376 0.79962 0.71568 0.0
C1640 C 0.16093 0.80749 0.70147 0.0
C1641 C 0.20306 0.90583 0.65672 0.0
C1642 C 0.22405 0.9024 0.66251 0.0
C1643 C 0.1878 0.88913 0.65684 0.0
C1644 C 0.19324 0.86862 0.66269 0.0
C1645 C 0.214 0.86523 0.66882 0.0
C1646 C 0.22933 0.88195 0.66865 0.0
C1647 C 0.17729 0.85067 0.66211 0.0
C1648 C 0.17046 0.84113 0.67594 0.0
C1649 C 0.16792 0.84387 0.64807 0.0
C1650 C 0.17511 0.85275 0.63303 0.0
C1651 C 0.19705 0.85188 0.6287 0.0
C1652 C 0.20374 0.86056 0.61462 0.0
C1653 C 0.18862 0.87003 0.60472 0.0
C1654 C 0.16675 0.87078 0.60886 0.0
C1655 C 0.15998 0.86215 0.62293 0.0
H1656 H 0.19383 0.87675 0.59383 0.0
H1657 H 0.12644 0.79547 0.7308 0.0
H1658 H 0.20817 0.08061 0.67757 0.0
H1659 H 0.18236 0.11067 0.67869 0.0
H1660 H 0.21843 0.14448 0.64357 0.0
H1661 H 0.24442 0.11455 0.64251 0.0
H1662 H 0.20608 0.17197 0.66541 0.0
H1663 H 0.1715 0.11701 0.6351 0.0
H1664 H 0.1578 0.08033 0.62929 0.0
H1665 H 0.115 0.08374 0.66817 0.0
H1666 H 0.12868 0.12034 0.67434 0.0
H1667 H 0.12281 0.24538 0.64203 0.0
H1668 H 0.15047 0.21693 0.64308 0.0
H1669 H 0.11628 0.18622 0.68049 0.0
H1670 H 0.0884 0.2144 0.67934 0.0
H1671 H 0.12772 0.15742 0.65792 0.0
H1672 H 0.16214 0.21347 0.68751 0.0
H1673 H 0.17581 0.25039 0.69252 0.0
H1674 H 0.21881 0.24522 0.65385 0.0
H1675 H 0.20517 0.20837 0.64848 0.0
C1676 C 0.21056 0.09443 0.67006 0.0
C1677 C 0.22825 0.09517 0.65989 0.0
C1678 C 0.19581 0.1116 0.67071 0.0
C1679 C 0.19827 0.1297 0.66105 0.0
C1680 C 0.2162 0.13069 0.65113 0.0
C1681 C 0.23105 0.11359 0.65055 0.0
C1682 C 0.18198 0.14743 0.6611 0.0
C1683 C 0.18898 0.16882 0.66359 0.0
C1684 C 0.1596 0.14329 0.65899 0.0
C1685 C 0.15127 0.12132 0.65527 0.0
C1686 C 0.15928 0.10987 0.64248 0.0
C1687 C 0.15151 0.08911 0.63911 0.0
C1688 C 0.13558 0.07969 0.64838 0.0
C1689 C 0.12736 0.09104 0.66102 0.0
C1690 C 0.13511 0.1118 0.66445 0.0
C1691 C 0.12121 0.23257 0.65048 0.0
C1692 C 0.10345 0.23214 0.66061 0.0
C1693 C 0.13709 0.21642 0.65114 0.0
C1694 C 0.13549 0.19955 0.66194 0.0
C1695 C 0.11785 0.19913 0.67211 0.0
C1696 C 0.10203 0.21533 0.67151 0.0
C1697 C 0.15183 0.18191 0.66227 0.0
C1698 C 0.14482 0.16054 0.6598 0.0
C1699 C 0.17419 0.18611 0.66427 0.0
C1700 C 0.18247 0.20824 0.66751 0.0
C1701 C 0.17438 0.22028 0.68 0.0
C1702 C 0.18215 0.24118 0.68292 0.0
C1703 C 0.19813 0.25017 0.67348 0.0
C1704 C 0.20642 0.23825 0.66113 0.0
C1705 C 0.19868 0.21735 0.65816 0.0
H1706 H 0.20413 0.26635 0.67576 0.0
H1707 H 0.12958 0.06361 0.64576 0.0
H1708 H 0.89183 0.24155 0.64011 0.0
H1709 H 0.86273 0.21506 0.6421 0.0
H1710 H 0.88574 0.19612 0.68702 0.0
H1711 H 0.9158 0.22169 0.6847 0.0
H1712 H 0.87705 0.16165 0.67117 0.0
H1713 H 0.83833 0.22687 0.6817 0.0
H1714 H 0.82606 0.2645 0.67759 0.0
H1715 H 0.79694 0.24607 0.63466 0.0
H1716 H 0.80929 0.20838 0.63841 0.0
H1717 H 0.78316 0.09661 0.68491 0.0
H1718 H 0.80972 0.12588 0.68716 0.0
H1719 H 0.79889 0.1432 0.63971 0.0
H1720 H 0.77281 0.11366 0.63719 0.0
H1721 H 0.80032 0.17908 0.6594 0.0
H1722 H 0.84197 0.11431 0.64861 0.0
H1723 H 0.85397 0.07673 0.65335 0.0
H1724 H 0.87708 0.09498 0.69812 0.0
H1725 H 0.86493 0.13262 0.69373 0.0
C1726 C 0.89085 0.23167 0.65039 0.0
C1727 C 0.9063 0.23373 0.66221 0.0
C1728 C 0.87395 0.21672 0.65161 0.0
C1729 C 0.87181 0.20377 0.66481 0.0
C1730 C 0.88699 0.20599 0.67675 0.0
C1731 C 0.90406 0.2208 0.67546 0.0
C1732 C 0.85438 0.18718 0.66577 0.0
C1733 C 0.86021 0.16559 0.6689 0.0
C1734 C 0.83242 0.19217 0.66256 0.0
C1735 C 0.82489 0.21482 0.66028 0.0
C1736 C 0.82944 0.23087 0.67133 0.0
C1737 C 0.82245 0.25221 0.66907 0.0
C1738 C 0.81076 0.25768 0.65586 0.0
C1739 C 0.806 0.24181 0.64489 0.0
C1740 C 0.81297 0.22045 0.64708 0.0
C1741 C 0.78651 0.10653 0.67491 0.0
C1742 C 0.77586 0.10268 0.66085 0.0
C1743 C 0.80161 0.12333 0.67625 0.0
C1744 C 0.80632 0.13662 0.66358 0.0
C1745 C 0.79538 0.13318 0.64965 0.0
C1746 C 0.7804 0.11632 0.64826 0.0
C1747 C 0.82312 0.15372 0.66463 0.0
C1748 C 0.81715 0.17532 0.66186 0.0
C1749 C 0.8449 0.1488 0.6683 0.0
C1750 C 0.85232 0.12621 0.67091 0.0
C1751 C 0.84944 0.11026 0.65952 0.0
C1752 C 0.8563 0.08896 0.66213 0.0
C1753 C 0.86622 0.08345 0.67605 0.0
C1754 C 0.86936 0.09926 0.68736 0.0
C1755 C 0.8625 0.12058 0.68481 0.0
H1756 H 0.87153 0.06696 0.67805 0.0
H1757 H 0.80537 0.27421 0.65413 0.0
H1758 H 0.80217 0.92744 0.64917 0.0
H1759 H 0.82817 0.89747 0.6507 0.0
H1760 H 0.77794 0.8553 0.66788 0.0
H1761 H 0.75177 0.88524 0.66628 0.0
H1762 H 0.81917 0.85281 0.6841 0.0
H1763 H 0.78975 0.84941 0.63286 0.0
H1764 H 0.77955 0.86444 0.60759 0.0
H1765 H 0.84596 0.88106 0.59876 0.0
H1766 H 0.85651 0.86643 0.62411 0.0
H1767 H 0.87868 0.75445 0.67341 0.0
H1768 H 0.85068 0.78266 0.67391 0.0
H1769 H 0.89196 0.82463 0.64705 0.0
H1770 H 0.91961 0.79632 0.6462 0.0
H1771 H 0.85323 0.82614 0.63597 0.0
H1772 H 0.88324 0.83149 0.68679 0.0
H1773 H 0.89448 0.8182 0.71234 0.0
H1774 H 0.82888 0.79982 0.72237 0.0
H1775 H 0.81729 0.81274 0.69678 0.0
C1776 C 0.79673 0.91183 0.65341 0.0
C1777 C 0.77498 0.90861 0.65759 0.0
C1778 C 0.81155 0.89474 0.65422 0.0
C1779 C 0.8049 0.8742 0.65934 0.0
C1780 C 0.78333 0.87106 0.6639 0.0
C1781 C 0.76842 0.88809 0.6629 0.0
C1782 C 0.82042 0.85589 0.65946 0.0
C1783 C 0.82643 0.84671 0.67359 0.0
C1784 C 0.83016 0.84836 0.64575 0.0
C1785 C 0.82388 0.85701 0.63045 0.0
C1786 C 0.80215 0.85644 0.62559 0.0
C1787 C 0.79631 0.86485 0.61124 0.0
C1788 C 0.81209 0.87375 0.60159 0.0
C1789 C 0.83375 0.87419 0.60626 0.0
C1790 C 0.83967 0.86582 0.62061 0.0
C1791 C 0.88177 0.76977 0.66771 0.0
C1792 C 0.90125 0.77319 0.65972 0.0
C1793 C 0.8658 0.7859 0.66803 0.0
C1794 C 0.86926 0.80589 0.66063 0.0
C1795 C 0.88884 0.80934 0.65278 0.0
C1796 C 0.90463 0.79315 0.65229 0.0
C1797 C 0.85238 0.82311 0.66068 0.0
C1798 C 0.84601 0.8321 0.64654 0.0
C1799 C 0.84252 0.83062 0.67442 0.0
C1800 C 0.84944 0.82287 0.68981 0.0
C1801 C 0.87124 0.82446 0.6944 0.0
C1802 C 0.87767 0.81702 0.70889 0.0
C1803 C 0.86241 0.80811 0.71895 0.0
C1804 C 0.84068 0.80669 0.71455 0.0
C1805 C 0.83417 0.81408 0.70006 0.0
H1806 H 0.86742 0.80237 0.73017 0.0
H1807 H 0.80753 0.88025 0.59048 0.0
H1808 H 0.60854 0.74504 0.82743 0.0
H1809 H 0.63909 0.71984 0.82552 0.0
H1810 H 0.60632 0.67537 0.85599 0.0
H1811 H 0.57583 0.70048 0.85798 0.0
H1812 H 0.64776 0.67934 0.86386 0.0
H1813 H 0.60833 0.6672 0.81669 0.0
H1814 H 0.59125 0.67794 0.7922 0.0
H1815 H 0.65253 0.70097 0.77544 0.0
H1816 H 0.66992 0.69062 0.79994 0.0
H1817 H 0.70312 0.58166 0.85155 0.0
H1818 H 0.67598 0.61032 0.85207 0.0
H1819 H 0.71568 0.64947 0.82212 0.0
H1820 H 0.74272 0.62034 0.82104 0.0
H1821 H 0.6734 0.65083 0.81366 0.0
H1822 H 0.71331 0.66045 0.8603 0.0
H1823 H 0.73026 0.64909 0.88469 0.0
H1824 H 0.66804 0.6306 0.90248 0.0
H1825 H 0.65074 0.64155 0.8781 0.0
C1826 C 0.60779 0.72982 0.83363 0.0
C1827 C 0.58976 0.72474 0.84285 0.0
C1828 C 0.62526 0.71544 0.83254 0.0
C1829 C 0.62492 0.69562 0.8405 0.0
C1830 C 0.60699 0.6906 0.84978 0.0
C1831 C 0.58959 0.70499 0.85094 0.0
C1832 C 0.64321 0.68005 0.83929 0.0
C1833 C 0.65322 0.67295 0.85289 0.0
C1834 C 0.65079 0.67221 0.82495 0.0
C1835 C 0.64037 0.67835 0.81021 0.0
C1836 C 0.61812 0.67471 0.80783 0.0
C1837 C 0.60839 0.6807 0.79394 0.0
C1838 C 0.62078 0.69019 0.78229 0.0
C1839 C 0.64294 0.69365 0.78449 0.0
C1840 C 0.65275 0.68771 0.79837 0.0
C1841 C 0.706 0.59621 0.84487 0.0
C1842 C 0.72509 0.59865 0.83619 0.0
C1843 C 0.69056 0.61271 0.84534 0.0
C1844 C 0.69394 0.63217 0.83733 0.0
C1845 C 0.71281 0.63462 0.82846 0.0
C1846 C 0.7283 0.61803 0.82795 0.0
C1847 C 0.67764 0.64983 0.83825 0.0
C1848 C 0.66805 0.65736 0.82462 0.0
C1849 C 0.67042 0.65807 0.85256 0.0
C1850 C 0.68075 0.65168 0.86732 0.0
C1851 C 0.70325 0.65383 0.86937 0.0
C1852 C 0.71293 0.64748 0.8832 0.0
C1853 C 0.70024 0.63909 0.89512 0.0
C1854 C 0.67785 0.63709 0.89323 0.0
C1855 C 0.66809 0.64339 0.87942 0.0
H1856 H 0.70776 0.63417 0.90581 0.0
H1857 H 0.61322 0.69481 0.77154 0.0
H1858 H 0.38691 0.72956 0.86451 0.0
H1859 H 0.35771 0.70278 0.8642 0.0
H1860 H 0.36377 0.69699 0.81494 0.0
H1861 H 0.39281 0.72414 0.81512 0.0
H1862 H 0.32073 0.69828 0.82477 0.0
H1863 H 0.38626 0.65973 0.83682 0.0
H1864 H 0.41997 0.65278 0.85122 0.0
H1865 H 0.38344 0.64461 0.89287 0.0
H1866 H 0.34951 0.65186 0.87875 0.0
H1867 H 0.26445 0.5977 0.81672 0.0
H1868 H 0.29045 0.62765 0.81593 0.0
H1869 H 0.29086 0.62997 0.86556 0.0
H1870 H 0.26506 0.59991 0.8664 0.0
H1871 H 0.33072 0.63077 0.85505 0.0
H1872 H 0.26519 0.66919 0.8434 0.0
H1873 H 0.2313 0.67686 0.82939 0.0
H1874 H 0.2672 0.68577 0.78754 0.0
H1875 H 0.3013 0.67786 0.80127 0.0
C1876 C 0.38181 0.72285 0.85358 0.0
C1877 C 0.39218 0.72894 0.83983 0.0
C1878 C 0.36524 0.70743 0.85344 0.0
C1879 C 0.35874 0.69776 0.83957 0.0
C1880 C 0.3686 0.70424 0.82576 0.0
C1881 C 0.38527 0.71961 0.8259 0.0
C1882 C 0.34219 0.68033 0.83958 0.0
C1883 C 0.32298 0.68338 0.83123 0.0
C1884 C 0.345 0.66113 0.84827 0.0
C1885 C 0.36536 0.65655 0.85675 0.0
C1886 C 0.38543 0.65662 0.84907 0.0
C1887 C 0.40457 0.6526 0.85718 0.0
C1888 C 0.40386 0.64831 0.87296 0.0
C1889 C 0.38398 0.64797 0.88065 0.0
C1890 C 0.36478 0.65201 0.8726 0.0
C1891 C 0.26985 0.60481 0.82745 0.0
C1892 C 0.26275 0.59643 0.84162 0.0
C1893 C 0.28472 0.62193 0.82699 0.0
C1894 C 0.29252 0.63119 0.84069 0.0
C1895 C 0.28514 0.62305 0.85484 0.0
C1896 C 0.27043 0.60586 0.8553 0.0
C1897 C 0.30904 0.64871 0.84034 0.0
C1898 C 0.32836 0.64566 0.8486 0.0
C1899 C 0.30625 0.66793 0.83162 0.0
C1900 C 0.28578 0.67272 0.82334 0.0
C1901 C 0.26584 0.67261 0.83119 0.0
C1902 C 0.2466 0.67703 0.8233 0.0
C1903 C 0.24709 0.68174 0.80758 0.0
C1904 C 0.26684 0.68209 0.79972 0.0
C1905 C 0.28613 0.67766 0.80755 0.0
H1906 H 0.23218 0.68516 0.80149 0.0
H1907 H 0.4187 0.64521 0.87922 0.0
H1908 H 0.25087 0.37468 0.82794 0.0
H1909 H 0.2788 0.3465 0.82711 0.0
H1910 H 0.32797 0.39468 0.83576 0.0
H1911 H 0.30024 0.42282 0.83698 0.0
H1912 H 0.33958 0.36616 0.81269 0.0
H1913 H 0.31076 0.36322 0.86437 0.0
H1914 H 0.28175 0.3596 0.88371 0.0
H1915 H 0.26593 0.29644 0.86616 0.0
H1916 H 0.29468 0.29982 0.84656 0.0
H1917 H 0.42919 0.30569 0.83844 0.0
H1918 H 0.39868 0.33047 0.83558 0.0
H1919 H 0.35507 0.27608 0.83152 0.0
H1920 H 0.38548 0.25109 0.8351 0.0
H1921 H 0.33864 0.30557 0.85028 0.0
H1922 H 0.36918 0.30687 0.79994 0.0
H1923 H 0.398 0.3102 0.78044 0.0
H1924 H 0.41016 0.37575 0.79476 0.0
H1925 H 0.38161 0.37271 0.8145 0.0
C1926 C 0.26761 0.37928 0.82976 0.0
C1927 C 0.27327 0.40105 0.83255 0.0
C1928 C 0.28355 0.36316 0.82922 0.0
C1929 C 0.30544 0.3685 0.83145 0.0
C1930 C 0.31118 0.39023 0.83393 0.0
C1931 C 0.29528 0.40632 0.83455 0.0
C1932 C 0.32241 0.35147 0.83156 0.0
C1933 C 0.3395 0.35299 0.82097 0.0
C1934 C 0.32191 0.33396 0.84208 0.0
C1935 C 0.30469 0.33188 0.85389 0.0
C1936 C 0.30097 0.34864 0.86455 0.0
C1937 C 0.2846 0.34662 0.87558 0.0
C1938 C 0.27196 0.32783 0.87614 0.0
C1939 C 0.27571 0.311 0.8657 0.0
C1940 C 0.29204 0.31295 0.85463 0.0
C1941 C 0.4131 0.29895 0.83705 0.0
C1942 C 0.40981 0.27637 0.83705 0.0
C1943 C 0.39569 0.31317 0.83521 0.0
C1944 C 0.3746 0.30515 0.83311 0.0
C1945 C 0.37122 0.28263 0.83305 0.0
C1946 C 0.38865 0.26837 0.83496 0.0
C1947 C 0.35607 0.32038 0.83153 0.0
C1948 C 0.33866 0.31856 0.84185 0.0
C1949 C 0.35622 0.33755 0.8207 0.0
C1950 C 0.37335 0.3395 0.80879 0.0
C1951 C 0.3781 0.32194 0.79901 0.0
C1952 C 0.39438 0.32379 0.7879 0.0
C1953 C 0.40593 0.34316 0.78638 0.0
C1954 C 0.4012 0.36075 0.79595 0.0
C1955 C 0.38495 0.35898 0.80709 0.0
H1956 H 0.41853 0.34455 0.77777 0.0
H1957 H 0.2593 0.32629 0.88468 0.0
H1958 H 0.74634 0.39224 0.8208 0.0
H1959 H 0.72231 0.36055 0.81973 0.0
H1960 H 0.69711 0.37665 0.8646 0.0
H1961 H 0.72114 0.40815 0.86578 0.0
H1962 H 0.70544 0.3325 0.86108 0.0
H1963 H 0.66932 0.39064 0.83359 0.0
H1964 H 0.66651 0.41878 0.81352 0.0
H1965 H 0.67497 0.37043 0.77846 0.0
H1966 H 0.67814 0.34202 0.79835 0.0
H1967 H 0.60494 0.27909 0.86596 0.0
H1968 H 0.63503 0.30475 0.86518 0.0
H1969 H 0.64703 0.28798 0.81771 0.0
H1970 H 0.61648 0.26258 0.81837 0.0
H1971 H 0.64854 0.32983 0.82079 0.0
H1972 H 0.68119 0.27098 0.84763 0.0
H1973 H 0.68445 0.2424 0.86734 0.0
H1974 H 0.68376 0.29065 0.90297 0.0
H1975 H 0.68018 0.31952 0.88349 0.0
C1976 C 0.73585 0.38884 0.8305 0.0
C1977 C 0.73548 0.40273 0.84333 0.0
C1978 C 0.72207 0.37084 0.82984 0.0
C1979 C 0.70783 0.36639 0.84204 0.0
C1980 C 0.70796 0.37983 0.85506 0.0
C1981 C 0.72157 0.39789 0.85567 0.0
C1982 C 0.69213 0.34824 0.8411 0.0
C1983 C 0.6929 0.33193 0.85234 0.0
C1984 C 0.67622 0.34721 0.82941 0.0
C1985 C 0.67422 0.36426 0.81746 0.0
C1986 C 0.67076 0.38604 0.82161 0.0
C1987 C 0.66907 0.40203 0.81026 0.0
C1988 C 0.67063 0.39641 0.79473 0.0
C1989 C 0.67381 0.37477 0.7905 0.0
C1990 C 0.67555 0.35871 0.8018 0.0
C1991 C 0.61418 0.28067 0.85542 0.0
C1992 C 0.60847 0.26876 0.84225 0.0
C1993 C 0.63142 0.29531 0.85499 0.0
C1994 C 0.64359 0.29806 0.84146 0.0
C1995 C 0.63794 0.28611 0.82829 0.0
C1996 C 0.6205 0.27163 0.82867 0.0
C1997 C 0.66155 0.31412 0.84094 0.0
C1998 C 0.66122 0.33011 0.82943 0.0
C1999 C 0.67799 0.31473 0.85232 0.0
C2000 C 0.68026 0.29741 0.86409 0.0
C2001 C 0.68159 0.2755 0.85967 0.0
C2002 C 0.68351 0.25924 0.87081 0.0
C2003 C 0.68427 0.2647 0.8864 0.0
C2004 C 0.68316 0.28644 0.89089 0.0
C2005 C 0.68121 0.30276 0.8798 0.0
H2006 H 0.68576 0.25209 0.895 0.0
H2007 H 0.66931 0.40881 0.78596 0.0
H2008 H 0.74968 0.37491 0.14219 0.0
H2009 H 0.72313 0.3455 0.14395 0.0
H2010 H 0.68181 0.38608 0.17179 0.0
H2011 H 0.70848 0.41536 0.17036 0.0
H2012 H 0.68348 0.34436 0.18261 0.0
H2013 H 0.67177 0.3806 0.13421 0.0
H2014 H 0.68247 0.39504 0.10886 0.0
H2015 H 0.70075 0.3311 0.09414 0.0
H2016 H 0.69044 0.31632 0.1195 0.0
H2017 H 0.58144 0.29334 0.17261 0.0
H2018 H 0.61214 0.31831 0.17345 0.0
H2019 H 0.64865 0.27555 0.14391 0.0
H2020 H 0.618 0.25042 0.14306 0.0
H2021 H 0.65122 0.31657 0.13417 0.0
H2022 H 0.66068 0.27984 0.18212 0.0
H2023 H 0.6498 0.26549 0.20745 0.0
H2024 H 0.63571 0.33004 0.2231 0.0
H2025 H 0.64621 0.34477 0.19778 0.0
C2026 C 0.73509 0.37744 0.14887 0.0
C2027 C 0.73109 0.3975 0.15605 0.0
C2028 C 0.71987 0.3607 0.14978 0.0
C2029 C 0.70039 0.36372 0.15785 0.0
C2030 C 0.6967 0.38344 0.16546 0.0
C2031 C 0.71186 0.40021 0.16452 0.0
C2032 C 0.68346 0.34666 0.15789 0.0
C2033 C 0.67627 0.33839 0.17204 0.0
C2034 C 0.67444 0.33856 0.14407 0.0
C2035 C 0.68056 0.3474 0.1288 0.0
C2036 C 0.67824 0.36965 0.12561 0.0
C2037 C 0.68421 0.37789 0.11124 0.0
C2038 C 0.69235 0.36401 0.09992 0.0
C2039 C 0.69448 0.34184 0.10293 0.0
C2040 C 0.68857 0.33352 0.1173 0.0
C2041 C 0.59611 0.28907 0.16649 0.0
C2042 C 0.59728 0.26987 0.15778 0.0
C2043 C 0.61365 0.30338 0.16697 0.0
C2044 C 0.63278 0.2987 0.15887 0.0
C2045 C 0.63404 0.27949 0.15024 0.0
C2046 C 0.61649 0.26519 0.14973 0.0
C2047 C 0.6511 0.31428 0.15891 0.0
C2048 C 0.65853 0.32234 0.14476 0.0
C2049 C 0.66033 0.32217 0.17274 0.0
C2050 C 0.65406 0.31338 0.188 0.0
C2051 C 0.6551 0.29096 0.19092 0.0
C2052 C 0.64903 0.28276 0.20529 0.0
C2053 C 0.64202 0.29684 0.21686 0.0
C2054 C 0.64112 0.31915 0.21411 0.0
C2055 C 0.64715 0.32744 0.19976 0.0
H2056 H 0.63733 0.29046 0.22798 0.0
H2057 H 0.69696 0.37042 0.08879 0.0
H2058 H 0.60229 0.71814 0.1819 0.0
H2059 H 0.63147 0.69127 0.1809 0.0
H2060 H 0.64487 0.70921 0.13388 0.0
H2061 H 0.61548 0.73586 0.13472 0.0
H2062 H 0.64163 0.66537 0.13756 0.0
H2063 H 0.679 0.72423 0.16195 0.0
H2064 H 0.68461 0.75285 0.18137 0.0
H2065 H 0.68542 0.70488 0.21719 0.0
H2066 H 0.6795 0.67598 0.198 0.0
H2067 H 0.73809 0.60504 0.12882 0.0
H2068 H 0.7126 0.63529 0.13052 0.0
H2069 H 0.70008 0.61958 0.17807 0.0
H2070 H 0.72559 0.58925 0.17644 0.0
H2071 H 0.70342 0.66291 0.17405 0.0
H2072 H 0.66485 0.60435 0.15024 0.0
H2073 H 0.65865 0.57536 0.13119 0.0
H2074 H 0.6592 0.62238 0.09474 0.0
H2075 H 0.66573 0.65163 0.11356 0.0
C2076 C 0.6115 0.71639 0.17137 0.0
C2077 C 0.60662 0.72913 0.1584 0.0
C2078 C 0.62827 0.70116 0.17084 0.0
C2079 C 0.64044 0.69836 0.15734 0.0
C2080 C 0.63572 0.71117 0.14442 0.0
C2081 C 0.61904 0.7265 0.14496 0.0
C2082 C 0.65746 0.6814 0.15649 0.0
C2083 C 0.65534 0.66503 0.14537 0.0
C2084 C 0.67498 0.68063 0.16698 0.0
C2085 C 0.6786 0.69796 0.17854 0.0
C2086 C 0.68019 0.7198 0.17398 0.0
C2087 C 0.68346 0.73607 0.18495 0.0
C2088 C 0.68531 0.73069 0.20051 0.0
C2089 C 0.68395 0.70902 0.20513 0.0
C2090 C 0.68066 0.69269 0.19421 0.0
C2091 C 0.72987 0.60798 0.13963 0.0
C2092 C 0.73372 0.59462 0.15246 0.0
C2093 C 0.71534 0.6253 0.14059 0.0
C2094 C 0.70419 0.6295 0.15436 0.0
C2095 C 0.7085 0.61663 0.16733 0.0
C2096 C 0.72311 0.59933 0.16639 0.0
C2097 C 0.68762 0.64693 0.15508 0.0
C2098 C 0.68977 0.66333 0.16619 0.0
C2099 C 0.67002 0.64769 0.14464 0.0
C2100 C 0.66601 0.63014 0.1333 0.0
C2101 C 0.66383 0.60848 0.13815 0.0
C2102 C 0.66022 0.59201 0.1274 0.0
C2103 C 0.65859 0.59702 0.11176 0.0
C2104 C 0.66051 0.61852 0.10685 0.0
C2105 C 0.66414 0.63505 0.11756 0.0
H2106 H 0.6558 0.58424 0.10345 0.0
H2107 H 0.68785 0.74331 0.20898 0.0
H2108 H 0.41695 0.71427 0.18421 0.0
H2109 H 0.38618 0.68923 0.18605 0.0
H2110 H 0.36337 0.71068 0.14168 0.0
H2111 H 0.39406 0.73575 0.13977 0.0
H2112 H 0.33011 0.70628 0.16424 0.0
H2113 H 0.3903 0.66579 0.143 0.0
H2114 H 0.42774 0.6518 0.14287 0.0
H2115 H 0.41626 0.61916 0.18575 0.0
H2116 H 0.37881 0.63322 0.18624 0.0
H2117 H 0.25972 0.6209 0.14218 0.0
H2118 H 0.28724 0.64927 0.14444 0.0
H2119 H 0.31492 0.61619 0.18358 0.0
H2120 H 0.28784 0.58741 0.18096 0.0
H2121 H 0.34561 0.62731 0.16547 0.0
H2122 H 0.28516 0.66528 0.18659 0.0
H2123 H 0.24783 0.67949 0.18767 0.0
H2124 H 0.25935 0.71709 0.1469 0.0
H2125 H 0.29667 0.70288 0.14545 0.0
C2126 C 0.40523 0.71381 0.17494 0.0
C2127 C 0.40794 0.72683 0.16181 0.0
C2128 C 0.38774 0.69947 0.17598 0.0
C2129 C 0.37262 0.69806 0.16395 0.0
C2130 C 0.37489 0.71156 0.15107 0.0
C2131 C 0.39249 0.72571 0.14995 0.0
C2132 C 0.35497 0.6818 0.16446 0.0
C2133 C 0.33341 0.68899 0.16439 0.0
C2134 C 0.35939 0.65932 0.16508 0.0
C2135 C 0.38185 0.65075 0.16474 0.0
C2136 C 0.39582 0.65578 0.15246 0.0
C2137 C 0.41703 0.64781 0.15231 0.0
C2138 C 0.42439 0.63465 0.16432 0.0
C2139 C 0.41054 0.62938 0.17647 0.0
C2140 C 0.38932 0.63734 0.17669 0.0
C2141 C 0.27152 0.61989 0.15138 0.0
C2142 C 0.27169 0.60201 0.1614 0.0
C2143 C 0.2872 0.63614 0.15272 0.0
C2144 C 0.30304 0.63507 0.16432 0.0
C2145 C 0.30291 0.6174 0.17453 0.0
C2146 C 0.28745 0.60098 0.17304 0.0
C2147 C 0.32049 0.65166 0.16524 0.0
C2148 C 0.34212 0.64456 0.16551 0.0
C2149 C 0.31608 0.67423 0.16499 0.0
C2150 C 0.29366 0.68287 0.16584 0.0
C2151 C 0.27969 0.67646 0.17779 0.0
C2152 C 0.25854 0.68453 0.17848 0.0
C2153 C 0.25121 0.69914 0.16734 0.0
C2154 C 0.26504 0.70576 0.15551 0.0
C2155 C 0.2862 0.69772 0.15476 0.0
H2156 H 0.23483 0.70537 0.1679 0.0
H2157 H 0.44082 0.6285 0.16418 0.0
H2158 H 0.25996 0.39579 0.17477 0.0
H2159 H 0.28459 0.36495 0.17571 0.0
H2160 H 0.30955 0.38204 0.13094 0.0
H2161 H 0.28369 0.41168 0.12929 0.0
H2162 H 0.3066 0.3411 0.1321 0.0
H2163 H 0.33623 0.39436 0.16663 0.0
H2164 H 0.33609 0.41968 0.18861 0.0
H2165 H 0.32316 0.36689 0.21951 0.0
H2166 H 0.32295 0.34128 0.19768 0.0
H2167 H 0.41071 0.29213 0.13593 0.0
H2168 H 0.38098 0.31819 0.13585 0.0
H2169 H 0.35113 0.28476 0.1739 0.0
H2170 H 0.38034 0.25792 0.17369 0.0
H2171 H 0.35489 0.33141 0.17722 0.0
H2172 H 0.32885 0.27803 0.14128 0.0
H2173 H 0.3316 0.25412 0.11862 0.0
H2174 H 0.34096 0.30955 0.08944 0.0
H2175 H 0.33859 0.33378 0.11197 0.0
C2176 C 0.27036 0.39281 0.16497 0.0
C2177 C 0.26984 0.40648 0.15199 0.0
C2178 C 0.28473 0.3753 0.16564 0.0
C2179 C 0.29933 0.37138 0.15355 0.0
C2180 C 0.29858 0.38475 0.14048 0.0
C2181 C 0.28393 0.40196 0.13966 0.0
C2182 C 0.31547 0.35349 0.15444 0.0
C2183 C 0.31727 0.33917 0.14192 0.0
C2184 C 0.32918 0.35059 0.16737 0.0
C2185 C 0.32934 0.36595 0.18051 0.0
C2186 C 0.3332 0.38818 0.1781 0.0
C2187 C 0.33321 0.40258 0.19053 0.0
C2188 C 0.32955 0.39491 0.20544 0.0
C2189 C 0.32595 0.37281 0.20795 0.0
C2190 C 0.32589 0.35834 0.19556 0.0
C2191 C 0.39767 0.28999 0.14412 0.0
C2192 C 0.39794 0.27276 0.15476 0.0
C2193 C 0.38076 0.30503 0.14412 0.0
C2194 C 0.36386 0.30329 0.15482 0.0
C2195 C 0.3641 0.28635 0.16557 0.0
C2196 C 0.38089 0.27111 0.16547 0.0
C2197 C 0.34612 0.31943 0.15482 0.0
C2198 C 0.34405 0.33335 0.16749 0.0
C2199 C 0.33247 0.32225 0.14192 0.0
C2200 C 0.33371 0.30771 0.12834 0.0
C2201 C 0.33166 0.28511 0.13005 0.0
C2202 C 0.33313 0.2715 0.11723 0.0
C2203 C 0.3365 0.2803 0.10261 0.0
C2204 C 0.33836 0.30275 0.10078 0.0
C2205 C 0.33694 0.31643 0.11357 0.0
H2206 H 0.33763 0.26974 0.09269 0.0
H2207 H 0.32957 0.40608 0.21504 0.0
H2208 H 0.98979 0.41452 0.29783 0.0
H2209 H 0.00188 0.44135 0.27873 0.0
H2210 H 0.04921 0.3959 0.26173 0.0
H2211 H 0.03688 0.36888 0.2802 0.0
H2212 H 0.06002 0.44488 0.27576 0.0
H2213 H 0.01668 0.39838 0.24039 0.0
H2214 H 0.98159 0.38431 0.2313 0.0
H2215 H 0.959 0.44937 0.22382 0.0
H2216 H 0.9939 0.46381 0.2331 0.0
H2217 H 0.12829 0.46365 0.21508 0.0
H2218 H 0.10244 0.44987 0.23378 0.0
H2219 H 0.05381 0.49397 0.21657 0.0
H2220 H 0.07981 0.50758 0.19738 0.0
H2221 H 0.0361 0.45588 0.22181 0.0
H2222 H 0.07805 0.50332 0.25178 0.0
H2223 H 0.11079 0.52132 0.26183 0.0
H2224 H 0.13283 0.46091 0.28082 0.0
H2225 H 0.10039 0.44246 0.27069 0.0
C2226 C 0.00241 0.41007 0.28977 0.0
C2227 C 0.01258 0.38964 0.2907 0.0
C2228 C 0.00927 0.42542 0.2789 0.0
C2229 C 0.02629 0.42046 0.2688 0.0
C2230 C 0.03596 0.39993 0.2694 0.0
C2231 C 0.02904 0.3846 0.28009 0.0
C2232 C 0.036 0.43708 0.25872 0.0
C2233 C 0.05479 0.44743 0.26397 0.0
C2234 C 0.02848 0.44112 0.24363 0.0
C2235 C 0.0077 0.4322 0.23788 0.0
C2236 C 0.00412 0.4097 0.23711 0.0
C2237 C 0.98429 0.40165 0.23181 0.0
C2238 C 0.968 0.41593 0.2271 0.0
C2239 C 0.97159 0.4383 0.22753 0.0
C2240 C 0.99139 0.44642 0.23279 0.0
C2241 C 0.11218 0.47063 0.21538 0.0
C2242 C 0.10616 0.48693 0.20495 0.0
C2243 C 0.0974 0.46277 0.22611 0.0
C2244 C 0.07632 0.47128 0.22688 0.0
C2245 C 0.07005 0.48732 0.21628 0.0
C2246 C 0.08487 0.49507 0.20535 0.0
C2247 C 0.061 0.46265 0.23856 0.0
C2248 C 0.04113 0.45389 0.23369 0.0
C2249 C 0.06723 0.46048 0.25417 0.0
C2250 C 0.08677 0.47149 0.26042 0.0
C2251 C 0.08993 0.49384 0.25803 0.0
C2252 C 0.10844 0.50413 0.26375 0.0
C2253 C 0.12388 0.49226 0.27195 0.0
C2254 C 0.12083 0.47009 0.27448 0.0
C2255 C 0.10236 0.45971 0.26878 0.0
H2256 H 0.13821 0.50026 0.27636 0.0
H2257 H 0.95266 0.40966 0.22303 0.0
H2258 H 0.56675 0.00869 0.31523 0.0
H2259 H 0.538 0.02236 0.29843 0.0
H2260 H 0.58122 0.01848 0.25953 0.0
H2261 H 0.61005 0.00543 0.27617 0.0
H2262 H 0.54008 0.05992 0.28416 0.0
H2263 H 0.55403 0.01143 0.22661 0.0
H2264 H 0.55891 0.97347 0.21842 0.0
H2265 H 0.52978 0.95127 0.26041 0.0
H2266 H 0.5245 0.98909 0.26881 0.0
H2267 H 0.53636 0.12491 0.21989 0.0
H2268 H 0.54379 0.09884 0.24021 0.0
H2269 H 0.48837 0.06094 0.2263 0.0
H2270 H 0.48123 0.08679 0.2054 0.0
H2271 H 0.52195 0.03536 0.23138 0.0
H2272 H 0.48663 0.08941 0.26002 0.0
H2273 H 0.47736 0.12632 0.26876 0.0
H2274 H 0.5419 0.13477 0.2862 0.0
H2275 H 0.55169 0.09805 0.27737 0.0
C2276 C 0.57007 0.01054 0.30307 0.0
C2277 C 0.59085 0.00618 0.29711 0.0
C2278 C 0.55355 0.01818 0.29347 0.0
C2279 C 0.55739 0.02133 0.27771 0.0
C2280 C 0.5777 0.01577 0.27159 0.0
C2281 C 0.59424 0.0083 0.28117 0.0
C2282 C 0.54171 0.03343 0.26802 0.0
C2283 C 0.53581 0.0544 0.27271 0.0
C2284 C 0.53545 0.02598 0.25328 0.0
C2285 C 0.53906 0.00316 0.24841 0.0
C2286 C 0.54865 0.99848 0.23411 0.0
C2287 C 0.55151 0.97696 0.22943 0.0
C2288 C 0.54481 0.95997 0.23894 0.0
C2289 C 0.53514 0.96445 0.25312 0.0
C2290 C 0.53228 0.98593 0.25787 0.0
C2291 C 0.52579 0.11098 0.22105 0.0
C2292 C 0.50829 0.10785 0.21095 0.0
C2293 C 0.52987 0.09623 0.23284 0.0
C2294 C 0.51641 0.07813 0.23496 0.0
C2295 C 0.49885 0.07491 0.22495 0.0
C2296 C 0.49473 0.08973 0.21308 0.0
C2297 C 0.52172 0.06219 0.24719 0.0
C2298 C 0.52566 0.04058 0.24298 0.0
C2299 C 0.52568 0.06884 0.26252 0.0
C2300 C 0.5199 0.09094 0.26799 0.0
C2301 C 0.49889 0.09917 0.26565 0.0
C2302 C 0.49354 0.12007 0.27062 0.0
C2303 C 0.50904 0.13288 0.27802 0.0
C2304 C 0.52991 0.12481 0.28048 0.0
C2305 C 0.53535 0.10393 0.27552 0.0
H2306 H 0.50487 0.14906 0.28186 0.0
H2307 H 0.54702 0.94333 0.23528 0.0
H2308 H 0.91928 0.49327 0.19986 0.0
H2309 H 0.94513 0.50935 0.2182 0.0
H2310 H 0.89393 0.54896 0.23695 0.0
H2311 H 0.86826 0.53311 0.21887 0.0
H2312 H 0.93174 0.57181 0.22675 0.0
H2313 H 0.9103 0.50793 0.2555 0.0
H2314 H 0.9075 0.46887 0.26107 0.0
H2315 H 0.97683 0.46371 0.26195 0.0
H2316 H 0.98011 0.50253 0.25557 0.0
H2317 H 0.94977 0.61879 0.29741 0.0
H2318 H 0.93733 0.59459 0.2771 0.0
H2319 H 0.00223 0.56987 0.27148 0.0
H2320 H 0.01494 0.59425 0.29208 0.0
H2321 H 0.9668 0.53714 0.27187 0.0
H2322 H 0.98865 0.601 0.24546 0.0
H2323 H 0.99183 0.64038 0.24105 0.0
H2324 H 0.9227 0.64541 0.23674 0.0
H2325 H 0.91907 0.6061 0.24138 0.0
C2326 C 0.91358 0.50524 0.20803 0.0
C2327 C 0.89174 0.51189 0.20798 0.0
C2328 C 0.9283 0.51432 0.2185 0.0
C2329 C 0.92138 0.53032 0.22888 0.0
C2330 C 0.89954 0.5366 0.22903 0.0
C2331 C 0.88486 0.52741 0.21876 0.0
C2332 C 0.93679 0.54187 0.23901 0.0
C2333 C 0.93949 0.5642 0.23658 0.0
C2334 C 0.94752 0.5317 0.25148 0.0
C2335 C 0.94545 0.50812 0.25468 0.0
C2336 C 0.92497 0.4984 0.25646 0.0
C2337 C 0.9233 0.47627 0.25979 0.0
C2338 C 0.94198 0.46375 0.26168 0.0
C2339 C 0.96238 0.47335 0.26028 0.0
C2340 C 0.96415 0.4954 0.25671 0.0
C2341 C 0.96139 0.60801 0.29203 0.0
C2342 C 0.98331 0.60832 0.29638 0.0
C2343 C 0.95428 0.59429 0.28037 0.0
C2344 C 0.96889 0.58057 0.27277 0.0
C2345 C 0.99074 0.58039 0.27724 0.0
C2346 C 0.99797 0.59436 0.2889 0.0
C2347 C 0.96094 0.56712 0.25987 0.0
C2348 C 0.95962 0.54455 0.26175 0.0
C2349 C 0.95153 0.57694 0.2468 0.0
C2350 C 0.95359 0.60059 0.24385 0.0
C2351 C 0.97411 0.61052 0.24368 0.0
C2352 C 0.976 0.63283 0.24112 0.0
C2353 C 0.95748 0.64539 0.23863 0.0
C2354 C 0.93704 0.63565 0.23867 0.0
C2355 C 0.93506 0.61335 0.24124 0.0
H2356 H 0.95898 0.66266 0.23665 0.0
H2357 H 0.94067 0.44665 0.26435 0.0
H2358 H 0.38137 0.99949 0.27572 0.0
H2359 H 0.40781 0.98534 0.25747 0.0
H2360 H 0.45364 0.97592 0.2943 0.0
H2361 H 0.4275 0.99074 0.31267 0.0
H2362 H 0.45266 0.99191 0.24856 0.0
H2363 H 0.46976 0.92261 0.29001 0.0
H2364 H 0.45418 0.9057 0.31328 0.0
H2365 H 0.39018 0.92326 0.29837 0.0
H2366 H 0.40537 0.93991 0.27492 0.0
H2367 H 0.51815 0.91108 0.20856 0.0
H2368 H 0.50632 0.93671 0.2286 0.0
H2369 H 0.44321 0.90674 0.22906 0.0
H2370 H 0.4548 0.88126 0.20926 0.0
H2371 H 0.45964 0.91281 0.25813 0.0
H2372 H 0.4515 0.95299 0.21022 0.0
H2373 H 0.46538 0.9695 0.18634 0.0
H2374 H 0.50854 0.0096 0.21261 0.0
H2375 H 0.49493 0.99325 0.23669 0.0
C2376 C 0.39733 0.99522 0.27992 0.0
C2377 C 0.40214 0.99591 0.29575 0.0
C2378 C 0.41246 0.98713 0.26943 0.0
C2379 C 0.43257 0.97941 0.27457 0.0
C2380 C 0.43813 0.9817 0.29014 0.0
C2381 C 0.42307 0.98994 0.30063 0.0
C2382 C 0.44581 0.96571 0.26422 0.0
C2383 C 0.45454 0.97468 0.25073 0.0
C2384 C 0.44811 0.94322 0.26703 0.0
C2385 C 0.43873 0.93272 0.28085 0.0
C2386 C 0.45236 0.92276 0.29169 0.0
C2387 C 0.4436 0.91323 0.3049 0.0
C2388 C 0.42121 0.91348 0.30733 0.0
C2389 C 0.40752 0.92314 0.29651 0.0
C2390 C 0.4162 0.93262 0.28326 0.0
C2391 C 0.50179 0.90999 0.21301 0.0
C2392 C 0.48732 0.89431 0.20727 0.0
C2393 C 0.49508 0.92463 0.22439 0.0
C2394 C 0.47392 0.92359 0.23029 0.0
C2395 C 0.45962 0.90779 0.22468 0.0
C2396 C 0.4662 0.89337 0.21327 0.0
C2397 C 0.46622 0.93886 0.24227 0.0
C2398 C 0.45846 0.93015 0.25612 0.0
C2399 C 0.46468 0.96149 0.23967 0.0
C2400 C 0.47251 0.97161 0.22523 0.0
C2401 C 0.46408 0.9652 0.21091 0.0
C2402 C 0.47184 0.97458 0.19734 0.0
C2403 C 0.4879 0.99053 0.19797 0.0
C2404 C 0.49614 0.99722 0.21217 0.0
C2405 C 0.48841 0.98791 0.22577 0.0
H2406 H 0.49391 0.99776 0.18745 0.0
H2407 H 0.41447 0.90615 0.31758 0.0
H2408 H 0.08297 0.53083 0.80492 0.0
H2409 H 0.05561 0.5405 0.78607 0.0
H2410 H 0.07124 0.48364 0.75949 0.0
H2411 H 0.09776 0.47274 0.77891 0.0
H2412 H 0.07713 0.52602 0.7448 0.0
H2413 H 0.02534 0.48419 0.77067 0.0
H2414 H 0.0034 0.4695 0.79188 0.0
H2415 H 0.97469 0.53209 0.79912 0.0
H2416 H 0.99681 0.54737 0.77816 0.0
H2417 H 0.01295 0.57312 0.68728 0.0
H2418 H 0.02405 0.54455 0.70508 0.0
H2419 H 0.00733 0.58552 0.74354 0.0
H2420 H 0.99617 0.61419 0.72575 0.0
H2421 H 0.99879 0.5427 0.74979 0.0
H2422 H 0.05822 0.5852 0.72878 0.0
H2423 H 0.08033 0.60018 0.70766 0.0
H2424 H 0.09487 0.53571 0.69202 0.0
H2425 H 0.07258 0.52037 0.71294 0.0
C2426 C 0.08014 0.51976 0.79548 0.0
C2427 C 0.09296 0.50104 0.79349 0.0
C2428 C 0.06444 0.52543 0.78464 0.0
C2429 C 0.06141 0.51276 0.77143 0.0
C2430 C 0.07336 0.49359 0.76966 0.0
C2431 C 0.08874 0.48759 0.7807 0.0
C2432 C 0.04848 0.52161 0.75856 0.0
C2433 C 0.05987 0.52918 0.7457 0.0
C2434 C 0.02606 0.52599 0.75996 0.0
C2435 C 0.01298 0.51701 0.77285 0.0
C2436 C 0.01462 0.49496 0.7769 0.0
C2437 C 0.00211 0.4865 0.78889 0.0
C2438 C 0.98776 0.49989 0.7969 0.0
C2439 C 0.98586 0.52175 0.79292 0.0
C2440 C 0.99839 0.53032 0.78097 0.0
C2441 C 0.01133 0.5759 0.69953 0.0
C2442 C 0.00403 0.59601 0.70513 0.0
C2443 C 0.01757 0.55952 0.70969 0.0
C2444 C 0.01684 0.56301 0.72565 0.0
C2445 C 0.00802 0.58246 0.73127 0.0
C2446 C 0.00166 0.59884 0.72109 0.0
C2447 C 0.02767 0.54776 0.73639 0.0
C2448 C 0.01594 0.53914 0.74882 0.0
C2449 C 0.04988 0.54245 0.73473 0.0
C2450 C 0.06349 0.55166 0.72228 0.0
C2451 C 0.066 0.57423 0.72077 0.0
C2452 C 0.07858 0.58278 0.70885 0.0
C2453 C 0.08893 0.5689 0.69847 0.0
C2454 C 0.08679 0.54644 0.70004 0.0
C2455 C 0.07418 0.53781 0.71192 0.0
H2456 H 0.09866 0.57555 0.68925 0.0
H2457 H 0.97808 0.49331 0.80617 0.0
H2458 H 0.51289 0.10415 0.78371 0.0
H2459 H 0.50101 0.07639 0.76535 0.0
H2460 H 0.43955 0.07192 0.78877 0.0
H2461 H 0.45144 0.09927 0.80728 0.0
H2462 H 0.45437 0.0318 0.77895 0.0
H2463 H 0.44503 0.10485 0.75838 0.0
H2464 H 0.45821 0.14094 0.75045 0.0
H2465 H 0.50223 0.11122 0.7185 0.0
H2466 H 0.48949 0.07493 0.72641 0.0
H2467 H 0.37096 0.00987 0.7264 0.0
H2468 H 0.39705 0.02202 0.74553 0.0
H2469 H 0.44788 0.02007 0.7115 0.0
H2470 H 0.42183 0.00743 0.69223 0.0
H2471 H 0.4463 0.05852 0.72541 0.0
H2472 H 0.44963 0.98582 0.74191 0.0
H2473 H 0.43706 0.94958 0.74985 0.0
H2474 H 0.40523 0.97734 0.78912 0.0
H2475 H 0.41736 0.01382 0.78131 0.0
C2476 C 0.49702 0.09691 0.78512 0.0
C2477 C 0.48296 0.10407 0.7968 0.0
C2478 C 0.49024 0.08113 0.7746 0.0
C2479 C 0.46932 0.07229 0.77562 0.0
C2480 C 0.45575 0.07855 0.78777 0.0
C2481 C 0.46247 0.09434 0.79824 0.0
C2482 C 0.46062 0.05812 0.76331 0.0
C2483 C 0.45252 0.03759 0.76724 0.0
C2484 C 0.45896 0.06541 0.74792 0.0
C2485 C 0.46652 0.08721 0.74312 0.0
C2486 C 0.45764 0.10602 0.74975 0.0
C2487 C 0.46501 0.1265 0.74525 0.0
C2488 C 0.4811 0.12837 0.73401 0.0
C2489 C 0.48981 0.10975 0.72722 0.0
C2490 C 0.48252 0.08922 0.73171 0.0
C2491 C 0.38779 0.01135 0.72304 0.0
C2492 C 0.39425 0.00772 0.70773 0.0
C2493 C 0.40272 0.01834 0.73403 0.0
C2494 C 0.42446 0.02182 0.72999 0.0
C2495 C 0.43118 0.01747 0.71487 0.0
C2496 C 0.41624 0.01038 0.70386 0.0
C2497 C 0.43933 0.03237 0.74112 0.0
C2498 C 0.44855 0.05235 0.73699 0.0
C2499 C 0.44202 0.0245 0.7563 0.0
C2500 C 0.43427 0.00263 0.76093 0.0
C2501 C 0.43973 0.98426 0.75214 0.0
C2502 C 0.43275 0.96365 0.75665 0.0
C2503 C 0.42031 0.96117 0.76996 0.0
C2504 C 0.41486 0.97929 0.7788 0.0
C2505 C 0.42183 0.99994 0.77435 0.0
H2506 H 0.41493 0.94519 0.77344 0.0
H2507 H 0.48678 0.14424 0.73053 0.0
H2508 H 0.98369 0.4245 0.69637 0.0
H2509 H 0.97284 0.44807 0.71756 0.0
H2510 H 0.0013 0.40345 0.75003 0.0
H2511 H 0.01136 0.3793 0.72894 0.0
H2512 H 0.96084 0.41159 0.75721 0.0
H2513 H 0.02221 0.45654 0.74607 0.0
H2514 H 0.04693 0.47637 0.72875 0.0
H2515 H 0.99422 0.5165 0.71358 0.0
H2516 H 0.9693 0.49718 0.73099 0.0
H2517 H 0.92036 0.47155 0.81826 0.0
H2518 H 0.94881 0.45757 0.80159 0.0
H2519 H 0.92439 0.49612 0.76399 0.0
H2520 H 0.89659 0.51129 0.78086 0.0
H2521 H 0.96768 0.49158 0.76156 0.0
H2522 H 0.90628 0.44435 0.76979 0.0
H2523 H 0.88028 0.42353 0.78549 0.0
H2524 H 0.93251 0.38626 0.80467 0.0
H2525 H 0.95885 0.4071 0.78922 0.0
C2526 C 0.98784 0.41979 0.70801 0.0
C2527 C 0.99818 0.39987 0.71094 0.0
C2528 C 0.9819 0.43347 0.72012 0.0
C2529 C 0.98639 0.42764 0.73541 0.0
C2530 C 0.99775 0.40833 0.73832 0.0
C2531 C 0.00361 0.39459 0.72622 0.0
C2532 C 0.97666 0.44011 0.74831 0.0
C2533 C 0.96288 0.42899 0.75843 0.0
C2534 C 0.97874 0.46291 0.74964 0.0
C2535 C 0.99387 0.47529 0.73972 0.0
C2536 C 0.01591 0.4696 0.73902 0.0
C2537 C 0.02997 0.48077 0.72922 0.0
C2538 C 0.02211 0.49753 0.71996 0.0
C2539 C 0.00028 0.50345 0.72071 0.0
C2540 C 0.98622 0.49252 0.73065 0.0
C2541 C 0.92139 0.47769 0.80661 0.0
C2542 C 0.9058 0.49226 0.80085 0.0
C2543 C 0.93761 0.46949 0.79704 0.0
C2544 C 0.93835 0.47533 0.78143 0.0
C2545 C 0.924 0.49121 0.77596 0.0
C2546 C 0.90791 0.49963 0.78558 0.0
C2547 C 0.95203 0.46295 0.77046 0.0
C2548 C 0.96623 0.47409 0.7606 0.0
C2549 C 0.95035 0.44009 0.7693 0.0
C2550 C 0.93453 0.42743 0.77849 0.0
C2551 C 0.91222 0.43181 0.77743 0.0
C2552 C 0.89743 0.42 0.78627 0.0
C2553 C 0.90475 0.40363 0.7961 0.0
C2554 C 0.92687 0.39898 0.79707 0.0
C2555 C 0.94174 0.41078 0.78828 0.0
H2556 H 0.89327 0.3945 0.80294 0.0
H2557 H 0.03297 0.506 0.71226 0.0
H2558 H 0.6375 0.98403 0.72317 0.0
H2559 H 0.61361 0.96725 0.74205 0.0
H2560 H 0.55855 0.9795 0.71278 0.0
H2561 H 0.58243 0.99678 0.69378 0.0
H2562 H 0.55099 0.98477 0.74629 0.0
H2563 H 0.57756 0.93343 0.70925 0.0
H2564 H 0.60588 0.91603 0.6935 0.0
H2565 H 0.63914 0.89581 0.73447 0.0
H2566 H 0.61119 0.91345 0.75046 0.0
H2567 H 0.48932 0.89975 0.78438 0.0
H2568 H 0.50522 0.92544 0.76591 0.0
H2569 H 0.5691 0.90965 0.78281 0.0
H2570 H 0.55335 0.88374 0.80084 0.0
H2571 H 0.56833 0.90674 0.75302 0.0
H2572 H 0.5414 0.95832 0.79032 0.0
H2573 H 0.51397 0.97743 0.80587 0.0
H2574 H 0.48174 0.99837 0.76471 0.0
H2575 H 0.50845 0.97878 0.74892 0.0
C2576 C 0.62024 0.9838 0.72091 0.0
C2577 C 0.61187 0.99165 0.70693 0.0
C2578 C 0.60663 0.97409 0.73169 0.0
C2579 C 0.5844 0.97198 0.72871 0.0
C2580 C 0.57569 0.981 0.71525 0.0
C2581 C 0.58936 0.99068 0.70438 0.0
C2582 C 0.571 0.9582 0.73887 0.0
C2583 C 0.55445 0.96763 0.74767 0.0
C2584 C 0.57575 0.93592 0.74063 0.0
C2585 C 0.59237 0.92492 0.73105 0.0
C2586 C 0.59099 0.92541 0.7149 0.0
C2587 C 0.60697 0.91549 0.70593 0.0
C2588 C 0.62433 0.90485 0.71298 0.0
C2589 C 0.6257 0.90407 0.72902 0.0
C2590 C 0.60978 0.91401 0.73804 0.0
C2591 C 0.50672 0.90203 0.7842 0.0
C2592 C 0.52018 0.88964 0.79385 0.0
C2593 C 0.51578 0.91673 0.77371 0.0
C2594 C 0.53838 0.91948 0.77296 0.0
C2595 C 0.55165 0.90769 0.78307 0.0
C2596 C 0.54267 0.89287 0.79335 0.0
C2597 C 0.54863 0.93336 0.76104 0.0
C2598 C 0.56459 0.92385 0.7517 0.0
C2599 C 0.54322 0.95551 0.75885 0.0
C2600 C 0.52678 0.96677 0.76842 0.0
C2601 C 0.52824 0.96668 0.78458 0.0
C2602 C 0.5128 0.97762 0.79344 0.0
C2603 C 0.49598 0.98896 0.78629 0.0
C2604 C 0.49459 0.9894 0.77025 0.0
C2605 C 0.50986 0.97834 0.76134 0.0
H2606 H 0.4841 0.99752 0.79316 0.0
H2607 H 0.63669 0.89719 0.70602 0.0
H2608 H 0.9664 0.31819 0.44098 0.0
H2609 H 0.9675 0.32391 0.46873 0.0
H2610 H 0.01937 0.37019 0.46302 0.0
H2611 H 0.01869 0.36401 0.43516 0.0
H2612 H 0.02911 0.34461 0.48531 0.0
H2613 H 0.96662 0.38591 0.47364 0.0
H2614 H 0.93116 0.39449 0.46208 0.0
H2615 H 0.90168 0.34282 0.48776 0.0
H2616 H 0.93703 0.33371 0.49931 0.0
H2617 H 0.01825 0.36899 0.56668 0.0
H2618 H 0.0171 0.3743 0.53876 0.0
H2619 H 0.97941 0.31588 0.53382 0.0
H2620 H 0.98143 0.30967 0.56142 0.0
H2621 H 0.96325 0.35442 0.5173 0.0
H2622 H 0.02866 0.31154 0.52597 0.0
H2623 H 0.06447 0.30507 0.5377 0.0
H2624 H 0.08849 0.36403 0.51766 0.0
H2625 H 0.05268 0.37099 0.50599 0.0
C2626 C 0.97779 0.32987 0.44561 0.0
C2627 C 0.99239 0.34074 0.43591 0.0
C2628 C 0.97838 0.33318 0.46149 0.0
C2629 C 0.99329 0.34776 0.46801 0.0
C2630 C 0.0077 0.35889 0.45829 0.0
C2631 C 0.0073 0.35536 0.44239 0.0
C2632 C 0.9946 0.35027 0.485 0.0
C2633 C 0.01474 0.34726 0.49225 0.0
C2634 C 0.97589 0.35362 0.49416 0.0
C2635 C 0.95454 0.35904 0.48727 0.0
C2636 C 0.95262 0.37627 0.47674 0.0
C2637 C 0.93252 0.38125 0.4702 0.0
C2638 C 0.91419 0.36919 0.47416 0.0
C2639 C 0.9159 0.35215 0.4847 0.0
C2640 C 0.93596 0.34709 0.49126 0.0
C2641 C 0.00991 0.3571 0.55967 0.0
C2642 C 0.99985 0.33892 0.56643 0.0
C2643 C 0.00913 0.3603 0.54373 0.0
C2644 C 0.99806 0.34554 0.5343 0.0
C2645 C 0.98782 0.32758 0.54096 0.0
C2646 C 0.98889 0.32416 0.5568 0.0
C2647 C 0.99755 0.34825 0.5174 0.0
C2648 C 0.97758 0.35222 0.51024 0.0
C2649 C 0.01643 0.34618 0.50833 0.0
C2650 C 0.03794 0.34193 0.51528 0.0
C2651 C 0.04152 0.32323 0.52419 0.0
C2652 C 0.06182 0.31945 0.5308 0.0
C2653 C 0.07872 0.33417 0.52847 0.0
C2654 C 0.07537 0.35266 0.51948 0.0
C2655 C 0.05508 0.35653 0.51287 0.0
H2656 H 0.09443 0.33121 0.53359 0.0
H2657 H 0.89865 0.37306 0.46909 0.0
H2658 H 0.64068 0.98252 0.56456 0.0
H2659 H 0.63313 0.98107 0.53696 0.0
H2660 H 0.67357 0.03727 0.52984 0.0
H2661 H 0.68032 0.03947 0.55744 0.0
H2662 H 0.63917 0.03893 0.51147 0.0
H2663 H 0.69291 0.98477 0.52525 0.0
H2664 H 0.70636 0.95285 0.53946 0.0
H2665 H 0.65448 0.91428 0.52113 0.0
H2666 H 0.64058 0.94607 0.50695 0.0
H2667 H 0.68136 0.0289 0.43663 0.0
H2668 H 0.67448 0.03128 0.46421 0.0
H2669 H 0.63362 0.9746 0.46168 0.0
H2670 H 0.64105 0.97167 0.43407 0.0
H2671 H 0.66176 0.97141 0.48484 0.0
H2672 H 0.61164 0.02492 0.46768 0.0
H2673 H 0.59918 0.05697 0.45319 0.0
H2674 H 0.64465 0.09702 0.4775 0.0
H2675 H 0.65762 0.06516 0.49199 0.0
C2676 C 0.64757 0.99487 0.55717 0.0
C2677 C 0.66135 0.01095 0.5632 0.0
C2678 C 0.6434 0.99389 0.54137 0.0
C2679 C 0.65312 0.00881 0.5313 0.0
C2680 C 0.66598 0.0255 0.53738 0.0
C2681 C 0.67003 0.02659 0.55315 0.0
C2682 C 0.65117 0.00638 0.51436 0.0
C2683 C 0.64418 0.02421 0.50563 0.0
C2684 C 0.65713 0.98696 0.50676 0.0
C2685 C 0.66557 0.96783 0.51519 0.0
C2686 C 0.6843 0.96951 0.52434 0.0
C2687 C 0.69201 0.95144 0.53237 0.0
C2688 C 0.68124 0.93156 0.53124 0.0
C2689 C 0.66278 0.9297 0.52203 0.0
C2690 C 0.65498 0.94773 0.51398 0.0
C2691 C 0.67094 0.0169 0.44193 0.0
C2692 C 0.66186 1.00001 0.43317 0.0
C2693 C 0.66679 0.01845 0.45767 0.0
C2694 C 0.65331 0.00328 0.46498 0.0
C2695 C 0.64397 0.98656 0.45625 0.0
C2696 C 0.64813 0.98498 0.44047 0.0
C2697 C 0.65024 0.00415 0.4819 0.0
C2698 C 0.65633 0.98602 0.49065 0.0
C2699 C 0.64353 0.02334 0.48949 0.0
C2700 C 0.6357 0.04259 0.48086 0.0
C2701 C 0.61909 0.04053 0.46986 0.0
C2702 C 0.61192 0.05867 0.46166 0.0
C2703 C 0.62114 0.07901 0.46441 0.0
C2704 C 0.63752 0.08125 0.47538 0.0
C2705 C 0.64477 0.06316 0.48361 0.0
H2706 H 0.61556 0.09303 0.45804 0.0
H2707 H 0.68724 0.9176 0.53747 0.0
H2708 H 0.96615 0.68351 0.56285 0.0
H2709 H 0.96632 0.67947 0.53491 0.0
H2710 H 0.01611 0.63045 0.53861 0.0
H2711 H 0.01683 0.63563 0.5666 0.0
H2712 H 0.02701 0.65504 0.51733 0.0
H2713 H 0.96081 0.61934 0.52732 0.0
H2714 H 0.9246 0.61307 0.53844 0.0
H2715 H 0.90013 0.6692 0.5149 0.0
H2716 H 0.93627 0.67601 0.5038 0.0
H2717 H 0.00983 0.63752 0.43485 0.0
H2718 H 0.00771 0.6298 0.46244 0.0
H2719 H 0.98581 0.69506 0.47094 0.0
H2720 H 0.98925 0.70354 0.4437 0.0
H2721 H 0.9607 0.65493 0.48505 0.0
H2722 H 0.03148 0.69145 0.47907 0.0
H2723 H 0.0678 0.69413 0.46738 0.0
H2724 H 0.08289 0.62978 0.483 0.0
H2725 H 0.0465 0.62663 0.49459 0.0
C2726 C 0.97686 0.67166 0.55766 0.0
C2727 C 0.99139 0.65978 0.56675 0.0
C2728 C 0.97687 0.66921 0.5417 0.0
C2729 C 0.99094 0.65432 0.53456 0.0
C2730 C 0.00508 0.64201 0.54378 0.0
C2731 C 0.00545 0.64488 0.55974 0.0
C2732 C 0.99204 0.65299 0.51748 0.0
C2733 C 0.01245 0.6545 0.51035 0.0
C2734 C 0.97315 0.65228 0.50819 0.0
C2735 C 0.95132 0.64825 0.5148 0.0
C2736 C 0.94775 0.63043 0.52459 0.0
C2737 C 0.92722 0.62677 0.53088 0.0
C2738 C 0.91009 0.64074 0.52739 0.0
C2739 C 0.91343 0.65839 0.51759 0.0
C2740 C 0.93392 0.66214 0.51127 0.0
C2741 C 0.00487 0.65038 0.44256 0.0
C2742 C 0.99967 0.67119 0.43691 0.0
C2743 C 0.00344 0.64582 0.4583 0.0
C2744 C 0.99645 0.66184 0.46859 0.0
C2745 C 0.991 0.68245 0.46307 0.0
C2746 C 0.99285 0.68718 0.44744 0.0
C2747 C 0.99543 0.65754 0.48527 0.0
C2748 C 0.9751 0.65499 0.49221 0.0
C2749 C 0.01434 0.65669 0.49436 0.0
C2750 C 0.03621 0.6587 0.4875 0.0
C2751 C 0.04247 0.6778 0.47987 0.0
C2752 C 0.06308 0.67942 0.47329 0.0
C2753 C 0.07762 0.66211 0.4744 0.0
C2754 C 0.0716 0.64316 0.48213 0.0
C2755 C 0.05099 0.64145 0.4887 0.0
H2756 H 0.09357 0.66339 0.46931 0.0
H2757 H 0.89421 0.63788 0.53228 0.0
H2758 H 0.33144 0.96292 0.56062 0.0
H2759 H 0.3376 0.96634 0.53299 0.0
H2760 H 0.35551 0.03346 0.53906 0.0
H2761 H 0.34858 0.03037 0.56668 0.0
H2762 H 0.32716 0.02932 0.51637 0.0
H2763 H 0.39361 0.99489 0.52984 0.0
H2764 H 0.41722 0.96752 0.54196 0.0
H2765 H 0.38766 0.91746 0.51478 0.0
H2766 H 0.36364 0.94448 0.50263 0.0
H2767 H 0.35375 0.03901 0.43702 0.0
H2768 H 0.35836 0.03825 0.465 0.0
H2769 H 0.33682 0.97169 0.46594 0.0
H2770 H 0.33196 0.97237 0.43809 0.0
H2771 H 0.37117 0.97827 0.48519 0.0
H2772 H 0.30221 0.01223 0.47416 0.0
H2773 H 0.27842 0.03948 0.46206 0.0
H2774 H 0.3131 0.09054 0.48495 0.0
H2775 H 0.33731 0.06357 0.49701 0.0
C2776 C 0.33672 0.97841 0.55609 0.0
C2777 C 0.33943 0.9964 0.56585 0.0
C2778 C 0.34048 0.98028 0.5403 0.0
C2779 C 0.34723 1.00011 0.53396 0.0
C2780 C 0.3504 0.01798 0.54371 0.0
C2781 C 0.3466 0.01613 0.55952 0.0
C2782 C 0.34953 0.00248 0.51705 0.0
C2783 C 0.33716 0.01845 0.50959 0.0
C2784 C 0.36225 0.98803 0.50816 0.0
C2785 C 0.37671 0.97171 0.51541 0.0
C2786 C 0.39202 0.97802 0.52653 0.0
C2787 C 0.4055 0.96257 0.53339 0.0
C2788 C 0.40391 0.94076 0.52916 0.0
C2789 C 0.38887 0.93436 0.51804 0.0
C2790 C 0.37533 0.94974 0.51115 0.0
C2791 C 0.35 0.02421 0.44319 0.0
C2792 C 0.34239 0.00578 0.43532 0.0
C2793 C 0.35273 0.02378 0.45916 0.0
C2794 C 0.34775 0.00497 0.46755 0.0
C2795 C 0.34084 0.98635 0.45968 0.0
C2796 C 0.33813 0.98676 0.44374 0.0
C2797 C 0.34859 0.00489 0.4846 0.0
C2798 C 0.36147 0.98934 0.49204 0.0
C2799 C 0.33636 0.01971 0.4935 0.0
C2800 C 0.32172 0.03591 0.48634 0.0
C2801 C 0.30486 0.02928 0.47652 0.0
C2802 C 0.29129 0.04467 0.46968 0.0
C2803 C 0.29429 0.06673 0.4727 0.0
C2804 C 0.31083 0.07344 0.4826 0.0
C2805 C 0.32447 0.05812 0.48944 0.0
H2806 H 0.28376 0.07863 0.46739 0.0
H2807 H 0.41436 0.92882 0.53449 0.0
H2808 H 0.50309 0.864 0.93441 0.0
H2809 H 0.50485 0.86822 0.96243 0.0
H2810 H 0.47345 0.80615 0.96806 0.0
H2811 H 0.47118 0.80218 0.94018 0.0
H2812 H 0.45773 0.83312 0.98801 0.0
H2813 H 0.52993 0.81374 0.97143 0.0
H2814 H 0.56371 0.81813 0.95658 0.0
H2815 H 0.57411 0.88049 0.97733 0.0
H2816 H 0.54022 0.87658 0.99216 0.0
H2817 H 0.49341 0.79492 0.05995 0.0
H2818 H 0.48942 0.80117 0.03243 0.0
H2819 H 0.50699 0.86828 0.03854 0.0
H2820 H 0.5101 0.8625 0.06635 0.0
H2821 H 0.52884 0.84493 0.01332 0.0
H2822 H 0.45782 0.86081 0.0325 0.0
H2823 H 0.42488 0.85399 0.0478 0.0
H2824 H 0.41311 0.79545 0.02235 0.0
H2825 H 0.44619 0.80174 0.00705 0.0
C2826 C 0.4965 0.85134 0.94167 0.0
C2827 C 0.48701 0.83276 0.93513 0.0
C2828 C 0.49755 0.85372 0.95766 0.0
C2829 C 0.48955 0.83736 0.96738 0.0
C2830 C 0.47967 0.81903 0.96083 0.0
C2831 C 0.47836 0.81678 0.94488 0.0
C2832 C 0.4918 0.83886 0.98438 0.0
C2833 C 0.47332 0.83561 0.99351 0.0
C2834 C 0.51204 0.84264 0.99162 0.0
C2835 C 0.53242 0.84498 0.98275 0.0
C2836 C 0.53934 0.82846 0.97273 0.0
C2837 C 0.55851 0.83085 0.96433 0.0
C2838 C 0.57101 0.84961 0.96597 0.0
C2839 C 0.56439 0.86599 0.97605 0.0
C2840 C 0.5452 0.86369 0.98445 0.0
C2841 C 0.49611 0.81113 0.05556 0.0
C2842 C 0.50181 0.82827 0.06548 0.0
C2843 C 0.49398 0.81461 0.03979 0.0
C2844 C 0.49773 0.83521 0.03352 0.0
C2845 C 0.50402 0.85226 0.04321 0.0
C2846 C 0.50589 0.84887 0.05909 0.0
C2847 C 0.4949 0.83865 0.01679 0.0
C2848 C 0.51324 0.84282 0.00776 0.0
C2849 C 0.47461 0.83543 0.00962 0.0
C2850 C 0.45459 0.83168 0.01871 0.0
C2851 C 0.44831 0.84639 0.03025 0.0
C2852 C 0.42959 0.84263 0.0389 0.0
C2853 C 0.41693 0.82428 0.03607 0.0
C2854 C 0.42294 0.80966 0.02454 0.0
C2855 C 0.44166 0.81333 0.01586 0.0
H2856 H 0.40245 0.8214 0.04278 0.0
H2857 H 0.58585 0.85143 0.95946 0.0
H2858 H 0.19849 0.48288 0.93495 0.0
H2859 H 0.19623 0.48547 0.96293 0.0
H2860 H 0.1272 0.49602 0.95968 0.0
H2861 H 0.12969 0.49441 0.93151 0.0
H2862 H 0.14233 0.52216 0.97974 0.0
H2863 H 0.15032 0.44626 0.97229 0.0
H2864 H 0.16608 0.41243 0.9621 0.0
H2865 H 0.22627 0.4265 0.98478 0.0
H2866 H 0.21097 0.46059 0.99494 0.0
H2867 H 0.13182 0.50184 0.06185 0.0
H2868 H 0.1287 0.49754 0.0338 0.0
H2869 H 0.1976 0.50721 0.02918 0.0
H2870 H 0.20074 0.5119 0.05709 0.0
H2871 H 0.17884 0.46876 0.0137 0.0
H2872 H 0.16919 0.54663 0.01955 0.0
H2873 H 0.15124 0.57912 0.03013 0.0
H2874 H 0.09059 0.55844 0.01086 0.0
H2875 H 0.10814 0.52564 0.00036 0.0
C2876 C 0.18282 0.48551 0.94024 0.0
C2877 C 0.16422 0.48822 0.93114 0.0
C2878 C 0.1815 0.48692 0.95624 0.0
C2879 C 0.16145 0.49047 0.9635 0.0
C2880 C 0.14283 0.49318 0.95438 0.0
C2881 C 0.14423 0.49221 0.93832 0.0
C2882 C 0.1602 0.49208 0.98055 0.0
C2883 C 0.14998 0.51023 0.98714 0.0
C2884 C 0.17027 0.47663 0.9903 0.0
C2885 C 0.17953 0.45607 0.98428 0.0
C2886 C 0.16696 0.44222 0.97502 0.0
C2887 C 0.17581 0.42298 0.96926 0.0
C2888 C 0.19718 0.41734 0.97277 0.0
C2889 C 0.20973 0.4309 0.98207 0.0
C2890 C 0.20097 0.45017 0.98785 0.0
C2891 C 0.14623 0.50316 0.05479 0.0
C2892 C 0.1665 0.50733 0.06155 0.0
C2893 C 0.14443 0.50074 0.03884 0.0
C2894 C 0.16293 0.50207 0.0295 0.0
C2895 C 0.18317 0.50615 0.03624 0.0
C2896 C 0.18491 0.50896 0.05212 0.0
C2897 C 0.16138 0.49891 0.01267 0.0
C2898 C 0.17103 0.48047 0.00621 0.0
C2899 C 0.15042 0.51381 0.00308 0.0
C2900 C 0.13992 0.53356 0.00934 0.0
C2901 C 0.15198 0.5489 0.01771 0.0
C2902 C 0.14189 0.5674 0.02366 0.0
C2903 C 0.11977 0.57081 0.02121 0.0
C2904 C 0.10771 0.55575 0.01277 0.0
C2905 C 0.11772 0.53722 0.00681 0.0
H2906 H 0.11199 0.58514 0.02582 0.0
H2907 H 0.204 0.40244 0.96829 0.0
H2908 H 0.47933 0.1382 0.06465 0.0
H2909 H 0.47859 0.13519 0.03658 0.0
H2910 H 0.52055 0.19095 0.033 0.0
H2911 H 0.52035 0.19483 0.06083 0.0
H2912 H 0.48924 0.19473 0.01345 0.0
H2913 H 0.53855 0.13745 0.0274 0.0
H2914 H 0.55005 0.1041 0.04077 0.0
H2915 H 0.49896 0.06845 0.01874 0.0
H2916 H 0.48697 0.10169 0.00538 0.0
H2917 H 0.53165 0.18637 0.93867 0.0
H2918 H 0.52945 0.18266 0.96666 0.0
H2919 H 0.47431 0.14026 0.96182 0.0
H2920 H 0.47629 0.14406 0.93369 0.0
H2921 H 0.50873 0.12762 0.98508 0.0
H2922 H 0.46115 0.18599 0.97015 0.0
H2923 H 0.45188 0.21965 0.9563 0.0
H2924 H 0.50244 0.25359 0.98023 0.0
H2925 H 0.51224 0.22002 0.99405 0.0
C2926 C 0.48829 0.1499 0.05788 0.0
C2927 C 0.49999 0.16669 0.06506 0.0
C2928 C 0.48804 0.14801 0.04183 0.0
C2929 C 0.49971 0.16271 0.03267 0.0
C2930 C 0.51146 0.17937 0.03982 0.0
C2931 C 0.51155 0.1814 0.05579 0.0
C2932 C 0.49928 0.16135 0.01561 0.0
C2933 C 0.49368 0.18007 0.0073 0.0
C2934 C 0.50454 0.14209 0.00752 0.0
C2935 C 0.51171 0.12211 0.01554 0.0
C2936 C 0.52965 0.12254 0.02551 0.0
C2937 C 0.53628 0.10365 0.03307 0.0
C2938 C 0.5252 0.08418 0.03065 0.0
C2939 C 0.5075 0.08355 0.02063 0.0
C2940 C 0.50079 0.10241 0.01306 0.0
C2941 C 0.5193 0.17594 0.94355 0.0
C2942 C 0.50412 0.16551 0.93405 0.0
C2943 C 0.51802 0.17391 0.95951 0.0
C2944 C 0.50169 0.16125 0.96623 0.0
C2945 C 0.48704 0.15006 0.95679 0.0
C2946 C 0.48812 0.15234 0.94079 0.0
C2947 C 0.49917 0.16108 0.98314 0.0
C2948 C 0.50413 0.14214 0.99134 0.0
C2949 C 0.49356 0.18017 0.99119 0.0
C2950 C 0.48755 0.20044 0.98302 0.0
C2951 C 0.47041 0.20059 0.97236 0.0
C2952 C 0.46504 0.21966 0.96453 0.0
C2953 C 0.4766 0.23874 0.96736 0.0
C2954 C 0.49351 0.2388 0.97804 0.0
C2955 C 0.49897 0.21975 0.98588 0.0
H2956 H 0.47241 0.25349 0.96129 0.0
H2957 H 0.53036 0.06957 0.0365 0.0
H2958 H 0.82625 0.53565 0.94041 0.0
H2959 H 0.83533 0.53226 0.96767 0.0
H2960 H 0.86802 0.47175 0.95852 0.0
H2961 H 0.85885 0.47505 0.93111 0.0
H2962 H 0.83849 0.469 0.98241 0.0
H2963 H 0.89772 0.51421 0.96831 0.0
H2964 H 0.91588 0.54538 0.95609 0.0
H2965 H 0.87962 0.58923 0.98457 0.0
H2966 H 0.86098 0.55834 0.9968 0.0
H2967 H 0.86457 0.46384 0.06224 0.0
H2968 H 0.86982 0.46477 0.0343 0.0
H2969 H 0.83955 0.52781 0.03246 0.0
H2970 H 0.83418 0.52696 0.06024 0.0
H2971 H 0.87423 0.52609 0.01365 0.0
H2972 H 0.81118 0.48204 0.02441 0.0
H2973 H 0.79157 0.45156 0.0364 0.0
H2974 H 0.83385 0.40623 0.01388 0.0
H2975 H 0.85392 0.4365 0.00193 0.0
C2976 C 0.83554 0.52173 0.94419 0.0
C2977 C 0.8418 0.50559 0.93369 0.0
C2978 C 0.84085 0.51988 0.95974 0.0
C2979 C 0.85248 0.50182 0.96509 0.0
C2980 C 0.85913 0.48585 0.95459 0.0
C2981 C 0.85399 0.48781 0.93896 0.0
C2982 C 0.85621 0.49909 0.98182 0.0
C2983 C 0.84678 0.4812 0.98922 0.0
C2984 C 0.86663 0.51526 0.9907 0.0
C2985 C 0.87785 0.53393 0.98341 0.0
C2986 C 0.89349 0.5305 0.97189 0.0
C2987 C 0.9039 0.54812 0.96497 0.0
C2988 C 0.89889 0.56927 0.96953 0.0
C2989 C 0.88348 0.57284 0.98104 0.0
C2990 C 0.87301 0.55527 0.98799 0.0
C2991 C 0.8591 0.47791 0.05587 0.0
C2992 C 0.84892 0.49531 0.06346 0.0
C2993 C 0.86216 0.47845 0.03993 0.0
C2994 C 0.85492 0.49629 0.03129 0.0
C2995 C 0.84538 0.51394 0.03891 0.0
C2996 C 0.84237 0.51344 0.05481 0.0
C2997 C 0.85609 0.49625 0.01424 0.0
C2998 C 0.86638 0.51365 0.00681 0.0
C2999 C 0.84632 0.47972 0.00532 0.0
C3000 C 0.83421 0.46152 0.01243 0.0
C3001 C 0.8164 0.46558 0.02211 0.0
C3002 C 0.80519 0.44834 0.02889 0.0
C3003 C 0.8115 0.42697 0.02594 0.0
C3004 C 0.82901 0.4228 0.01618 0.0
C3005 C 0.84031 0.43998 0.0094 0.0
H3006 H 0.8028 0.41365 0.03119 0.0
H3007 H 0.90696 0.5829 0.96417 0.0
loop_
_geom_bond_atom_site_label_1
_geom_bond_atom_site_label_2
_geom_bond_distance
_geom_bond_site_symmetry_2
_ccdc_geom_bond_type
Li0 N17 1.990 . S
Li0 O60 1.956 1_455 S
Li0 O61 1.970 . S
Li0 O62 1.961 . S
Li1 N25 1.990 . S
Li1 O60 1.970 1_455 S
Li1 O61 1.956 . S
Li1 O63 1.961 1_455 S
Li2 N47 1.990 . S
Li2 O60 1.961 . S
Li2 O62 1.956 1_655 S
Li2 O63 1.970 . S
Li3 N53 1.990 . S
Li3 O61 1.961 . S
Li3 O62 1.970 . S
Li3 O63 1.956 1_455 S
C4 C6 1.358 . S
C4 C7 1.356 . S
C4 O60 1.325 . S
N5 C8 1.314 . S
N5 C9 1.279 . S
C6 C4 1.358 . S
C6 C8 1.362 . S
C6 H64 0.913 1_655 S
C7 C4 1.356 . S
C7 C9 1.358 . S
C7 H65 0.930 . S
C8 N5 1.314 . S
C8 C6 1.362 . S
C8 H66 0.930 . S
C9 N5 1.279 . S
C9 C7 1.358 . S
C9 H67 0.930 . S
C10 C13 1.348 . S
C10 C14 1.356 . S
C10 O61 1.325 . S
C11 N12 1.279 . S
C11 C14 1.358 . S
C11 H68 0.930 . S
N12 C11 1.279 . S
N12 C15 1.314 . S
C13 C10 1.348 . S
C13 C15 1.353 . S
C13 H69 0.929 . S
C14 C10 1.356 . S
C14 C11 1.358 . S
C14 H70 0.930 . S
C15 N12 1.314 . S
C15 C13 1.353 . S
C15 H71 0.930 . S
C16 N17 1.314 . S
C16 C21 1.353 . S
C16 H22 0.930 . S
N17 Li0 1.990 . S
N17 C16 1.314 . S
N17 C19 1.279 . S
C18 C19 1.358 . S
C18 C20 1.356 . S
C18 H72 0.930 . S
C19 N17 1.279 . S
C19 C18 1.358 . S
C19 H23 0.930 . S
C20 C18 1.356 . S
C20 C21 1.348 . S
C21 C16 1.353 . S
C21 C20 1.348 . S
C21 H73 0.929 . S
H22 C16 0.930 . S
H23 C19 0.930 . S
C24 N25 1.314 1_655 S
C24 C26 1.353 . S
C24 H30 0.930 . S
N25 Li1 1.990 . S
N25 C24 1.314 1_455 S
N25 C28 1.279 . S
C26 C24 1.353 . S
C26 C29 1.348 . S
C26 H74 0.929 . S
C27 C28 1.358 . S
C27 C29 1.356 1_455 S
C27 H75 0.930 . S
C28 N25 1.279 . S
C28 C27 1.358 . S
C28 H31 0.930 . S
C29 C26 1.348 . S
C29 C27 1.356 1_655 S
H30 C24 0.930 . S
H31 C28 0.930 . S
C32 C34 1.348 . S
C32 C35 1.356 . S
C32 O62 1.325 . S
N33 C36 1.314 . S
N33 C37 1.279 . S
C34 C32 1.348 . S
C34 C36 1.353 . S
C34 H76 0.934 . S
C35 C32 1.356 . S
C35 C37 1.358 . S
C35 H77 0.930 . S
C36 N33 1.314 . S
C36 C34 1.353 . S
C36 H78 0.930 . S
C37 N33 1.279 . S
C37 C35 1.358 . S
C37 H79 0.930 . S
C38 C39 1.348 . S
C38 C40 1.356 . S
C38 O63 1.325 . S
C39 C38 1.348 . S
C39 C41 1.353 . S
C39 H80 0.929 . S
C40 C38 1.356 . S
C40 C42 1.358 . S
C40 H81 0.930 . S
C41 C39 1.353 . S
C41 N43 1.314 . S
C41 H82 0.930 . S
C42 C40 1.358 . S
C42 N43 1.279 . S
C42 H83 0.930 . S
N43 C41 1.314 . S
N43 C42 1.279 . S
C44 C46 1.353 . S
C44 N47 1.314 . S
C44 H50 0.930 . S
C45 N47 1.279 . S
C45 C48 1.358 . S
C45 H51 0.930 . S
C46 C44 1.353 . S
C46 C49 1.348 . S
C46 H84 0.929 . S
N47 Li2 1.990 . S
N47 C44 1.314 . S
N47 C45 1.279 . S
C48 C45 1.358 . S
C48 C49 1.356 . S
C48 H85 0.930 . S
C49 C46 1.348 . S
C49 C48 1.356 . S
H50 C44 0.930 . S
H51 C45 0.930 . S
C52 N53 1.314 . S
C52 C54 1.353 . S
C52 H58 0.930 . S
N53 Li3 1.990 . S
N53 C52 1.314 . S
N53 C56 1.279 1_455 S
C54 C52 1.353 . S
C54 C57 1.348 . S
C54 H86 0.929 . S
C55 C56 1.358 1_455 S
C55 C57 1.356 . S
C55 H87 0.930 1_455 S
C56 N53 1.279 1_655 S
C56 C55 1.358 1_655 S
C56 H59 0.930 . S
C57 C54 1.348 . S
C57 C55 1.356 . S
H58 C52 0.930 . S
H59 C56 0.930 . S
O60 Li0 1.956 1_655 S
O60 Li1 1.970 1_655 S
O60 Li2 1.961 . S
O60 C4 1.325 . S
O61 Li0 1.970 . S
O61 Li1 1.956 . S
O61 Li3 1.961 . S
O61 C10 1.325 . S
O62 Li0 1.961 . S
O62 Li2 1.956 1_455 S
O62 Li3 1.970 . S
O62 C32 1.325 . S
O63 Li1 1.961 1_655 S
O63 Li2 1.970 . S
O63 Li3 1.956 1_655 S
O63 C38 1.325 . S
H64 C6 0.913 1_455 S
H65 C7 0.930 . S
H66 C8 0.930 . S
H67 C9 0.930 . S
H68 C11 0.930 . S
H69 C13 0.929 . S
H70 C14 0.930 . S
H71 C15 0.930 . S
H72 C18 0.930 . S
H73 C21 0.929 . S
H74 C26 0.929 . S
H75 C27 0.930 . S
H76 C34 0.934 . S
H77 C35 0.930 . S
H78 C36 0.930 . S
H79 C37 0.930 . S
H80 C39 0.929 . S
H81 C40 0.930 . S
H82 C41 0.930 . S
H83 C42 0.930 . S
H84 C46 0.929 . S
H85 C48 0.930 . S
H86 C54 0.929 . S
H87 C55 0.930 1_655 S
Li88 N105 1.990 . S
Li88 O148 1.956 . S
Li88 O149 1.970 . S
Li88 O150 1.961 1_545 S
Li89 N113 1.990 . S
Li89 O148 1.970 . S
Li89 O149 1.956 . S
Li89 O151 1.961 1_545 S
Li90 N135 1.990 . S
Li90 O148 1.961 1_565 S
Li90 O150 1.956 . S
Li90 O151 1.970 . S
Li91 N141 1.990 . S
Li91 O149 1.961 . S
Li91 O150 1.970 1_545 S
Li91 O151 1.956 1_545 S
C92 C94 1.348 . S
C92 C95 1.356 1_545 S
C92 O148 1.325 . S
N93 C96 1.314 . S
N93 C97 1.279 1_545 S
C94 C92 1.348 . S
C94 C96 1.353 . S
C94 H152 0.929 . S
C95 C92 1.356 1_565 S
C95 C97 1.358 . S
C95 H153 0.930 . S
C96 N93 1.314 . S
C96 C94 1.353 . S
C96 H154 0.930 . S
C97 N93 1.279 1_565 S
C97 C95 1.358 . S
C97 H155 0.930 . S
C98 C101 1.348 . S
C98 C102 1.356 . S
C98 O149 1.325 . S
C99 N100 1.279 . S
C99 C102 1.358 . S
C99 H156 0.930 . S
N100 C99 1.279 . S
N100 C103 1.314 . S
C101 C98 1.348 . S
C101 C103 1.353 . S
C101 H157 0.929 . S
C102 C98 1.356 . S
C102 C99 1.358 . S
C102 H158 0.930 . S
C103 N100 1.314 . S
C103 C101 1.353 . S
C103 H159 0.930 . S
C104 N105 1.314 . S
C104 C109 1.353 . S
C104 H110 0.930 . S
N105 Li88 1.990 . S
N105 C104 1.314 . S
N105 C107 1.279 . S
C106 C107 1.358 . S
C106 C108 1.356 . S
C106 H160 0.930 . S
C107 N105 1.279 . S
C107 C106 1.358 . S
C107 H111 0.930 . S
C108 C106 1.356 . S
C108 C109 1.348 . S
C109 C104 1.353 . S
C109 C108 1.348 . S
C109 H161 0.929 . S
H110 C104 0.930 . S
H111 C107 0.930 . S
C112 N113 1.314 . S
C112 C114 1.353 . S
C112 H118 0.930 . S
N113 Li89 1.990 . S
N113 C112 1.314 . S
N113 C116 1.279 . S
C114 C112 1.353 . S
C114 C117 1.348 . S
C114 H162 0.929 . S
C115 C116 1.358 . S
C115 C117 1.356 . S
C115 H163 0.930 . S
C116 N113 1.279 . S
C116 C115 1.358 . S
C116 H119 0.930 . S
C117 C114 1.348 . S
C117 C115 1.356 . S
H118 C112 0.930 . S
H119 C116 0.930 . S
C120 C122 1.348 . S
C120 C123 1.356 . S
C120 O150 1.325 . S
N121 C124 1.314 . S
N121 C125 1.279 . S
C122 C120 1.348 . S
C122 C124 1.353 . S
C122 H164 0.929 . S
C123 C120 1.356 . S
C123 C125 1.358 . S
C123 H165 0.930 . S
C124 N121 1.314 . S
C124 C122 1.353 . S
C124 H166 0.930 . S
C125 N121 1.279 . S
C125 C123 1.358 . S
C125 H167 0.930 . S
C126 C127 1.348 . S
C126 C128 1.356 1_565 S
C126 O151 1.325 . S
C127 C126 1.348 . S
C127 C129 1.353 . S
C127 H168 0.929 . S
C128 C126 1.356 1_545 S
C128 C130 1.358 . S
C128 H169 0.930 . S
C129 C127 1.353 . S
C129 N131 1.314 . S
C129 H170 0.930 . S
C130 C128 1.358 . S
C130 N131 1.279 1_545 S
C130 H171 0.930 . S
N131 C129 1.314 . S
N131 C130 1.279 1_565 S
C132 C134 1.353 . S
C132 N135 1.314 . S
C132 H138 0.930 . S
C133 N135 1.279 . S
C133 C136 1.358 . S
C133 H139 0.930 . S
C134 C132 1.353 . S
C134 C137 1.348 . S
C134 H172 0.929 . S
N135 Li90 1.990 . S
N135 C132 1.314 . S
N135 C133 1.279 . S
C136 C133 1.358 . S
C136 C137 1.356 . S
C136 H173 0.930 . S
C137 C134 1.348 . S
C137 C136 1.356 . S
H138 C132 0.930 . S
H139 C133 0.930 . S
C140 N141 1.314 . S
C140 C142 1.353 . S
C140 H146 0.930 . S
N141 Li91 1.990 . S
N141 C140 1.314 . S
N141 C144 1.279 1_545 S
C142 C140 1.353 . S
C142 C145 1.348 1_545 S
C142 H174 0.929 . S
C143 C144 1.358 . S
C143 C145 1.356 . S
C143 H175 0.930 . S
C144 N141 1.279 1_565 S
C144 C143 1.358 . S
C144 H147 0.930 . S
C145 C142 1.348 1_565 S
C145 C143 1.356 . S
H146 C140 0.930 . S
H147 C144 0.930 . S
O148 Li88 1.956 . S
O148 Li89 1.970 . S
O148 Li90 1.961 1_545 S
O148 C92 1.325 . S
O149 Li88 1.970 . S
O149 Li89 1.956 . S
O149 Li91 1.961 . S
O149 C98 1.325 . S
O150 Li88 1.961 1_565 S
O150 Li90 1.956 . S
O150 Li91 1.970 1_565 S
O150 C120 1.325 . S
O151 Li89 1.961 1_565 S
O151 Li90 1.970 . S
O151 Li91 1.956 1_565 S
O151 C126 1.325 . S
H152 C94 0.929 . S
H153 C95 0.930 . S
H154 C96 0.930 . S
H155 C97 0.930 . S
H156 C99 0.930 . S
H157 C101 0.929 . S
H158 C102 0.930 . S
H159 C103 0.930 . S
H160 C106 0.930 . S
H161 C109 0.929 . S
H162 C114 0.929 . S
H163 C115 0.930 . S
H164 C122 0.929 . S
H165 C123 0.930 . S
H166 C124 0.930 . S
H167 C125 0.930 . S
H168 C127 0.929 . S
H169 C128 0.930 . S
H170 C129 0.930 . S
H171 C130 0.930 . S
H172 C134 0.929 . S
H173 C136 0.930 . S
H174 C142 0.929 . S
H175 C143 0.930 . S
Li176 N193 1.990 . S
Li176 O236 1.956 1_655 S
Li176 O237 1.970 . S
Li176 O238 1.961 . S
Li177 N201 1.990 . S
Li177 O236 1.970 1_655 S
Li177 O237 1.956 . S
Li177 O239 1.961 1_655 S
Li178 N223 1.990 . S
Li178 O236 1.961 . S
Li178 O238 1.956 1_455 S
Li178 O239 1.970 . S
Li179 N229 1.990 . S
Li179 O237 1.961 . S
Li179 O238 1.970 . S
Li179 O239 1.956 1_655 S
C180 C182 1.358 . S
C180 C183 1.356 . S
C180 O236 1.325 . S
N181 C184 1.314 . S
N181 C185 1.279 . S
C182 C180 1.358 . S
C182 C184 1.362 . S
C182 H240 0.913 1_455 S
C183 C180 1.356 . S
C183 C185 1.358 . S
C183 H241 0.930 . S
C184 N181 1.314 . S
C184 C182 1.362 . S
C184 H242 0.930 . S
C185 N181 1.279 . S
C185 C183 1.358 . S
C185 H243 0.930 . S
C186 C189 1.348 . S
C186 C190 1.356 . S
C186 O237 1.325 . S
C187 N188 1.279 . S
C187 C190 1.358 . S
C187 H244 0.930 . S
N188 C187 1.279 . S
N188 C191 1.314 . S
C189 C186 1.348 . S
C189 C191 1.353 . S
C189 H245 0.929 . S
C190 C186 1.356 . S
C190 C187 1.358 . S
C190 H246 0.930 . S
C191 N188 1.314 . S
C191 C189 1.353 . S
C191 H247 0.930 . S
C192 N193 1.314 . S
C192 C197 1.353 . S
C192 H198 0.930 . S
N193 Li176 1.990 . S
N193 C192 1.314 . S
N193 C195 1.279 . S
C194 C195 1.358 . S
C194 C196 1.356 . S
C194 H248 0.930 . S
C195 N193 1.279 . S
C195 C194 1.358 . S
C195 H199 0.930 . S
C196 C194 1.356 . S
C196 C197 1.348 . S
C197 C192 1.353 . S
C197 C196 1.348 . S
C197 H249 0.929 . S
H198 C192 0.930 . S
H199 C195 0.930 . S
C200 N201 1.314 1_455 S
C200 C202 1.353 . S
C200 H206 0.930 . S
N201 Li177 1.990 . S
N201 C200 1.314 1_655 S
N201 C204 1.279 . S
C202 C200 1.353 . S
C202 C205 1.348 . S
C202 H250 0.929 . S
C203 C204 1.358 . S
C203 C205 1.356 1_655 S
C203 H251 0.930 . S
C204 N201 1.279 . S
C204 C203 1.358 . S
C204 H207 0.930 . S
C205 C202 1.348 . S
C205 C203 1.356 1_455 S
H206 C200 0.930 . S
H207 C204 0.930 . S
C208 C210 1.348 . S
C208 C211 1.356 . S
C208 O238 1.325 . S
N209 C212 1.314 . S
N209 C213 1.279 . S
C210 C208 1.348 . S
C210 C212 1.353 . S
C210 H252 0.934 . S
C211 C208 1.356 . S
C211 C213 1.358 . S
C211 H253 0.930 . S
C212 N209 1.314 . S
C212 C210 1.353 . S
C212 H254 0.930 . S
C213 N209 1.279 . S
C213 C211 1.358 . S
C213 H255 0.930 . S
C214 C215 1.348 . S
C214 C216 1.356 . S
C214 O239 1.325 . S
C215 C214 1.348 . S
C215 C217 1.353 . S
C215 H256 0.929 . S
C216 C214 1.356 . S
C216 C218 1.358 . S
C216 H257 0.930 . S
C217 C215 1.353 . S
C217 N219 1.314 . S
C217 H258 0.930 . S
C218 C216 1.358 . S
C218 N219 1.279 . S
C218 H259 0.930 . S
N219 C217 1.314 . S
N219 C218 1.279 . S
C220 C222 1.353 . S
C220 N223 1.314 . S
C220 H226 0.930 . S
C221 N223 1.279 . S
C221 C224 1.358 . S
C221 H227 0.930 . S
C222 C220 1.353 . S
C222 C225 1.348 . S
C222 H260 0.929 . S
N223 Li178 1.990 . S
N223 C220 1.314 . S
N223 C221 1.279 . S
C224 C221 1.358 . S
C224 C225 1.356 . S
C224 H261 0.930 . S
C225 C222 1.348 . S
C225 C224 1.356 . S
H226 C220 0.930 . S
H227 C221 0.930 . S
C228 N229 1.314 . S
C228 C230 1.353 . S
C228 H234 0.930 . S
N229 Li179 1.990 . S
N229 C228 1.314 . S
N229 C232 1.279 1_655 S
C230 C228 1.353 . S
C230 C233 1.348 . S
C230 H262 0.929 . S
C231 C232 1.358 1_655 S
C231 C233 1.356 . S
C231 H263 0.930 1_655 S
C232 N229 1.279 1_455 S
C232 C231 1.358 1_455 S
C232 H235 0.930 . S
C233 C230 1.348 . S
C233 C231 1.356 . S
H234 C228 0.930 . S
H235 C232 0.930 . S
O236 Li176 1.956 1_455 S
O236 Li177 1.970 1_455 S
O236 Li178 1.961 . S
O236 C180 1.325 . S
O237 Li176 1.970 . S
O237 Li177 1.956 . S
O237 Li179 1.961 . S
O237 C186 1.325 . S
O238 Li176 1.961 . S
O238 Li178 1.956 1_655 S
O238 Li179 1.970 . S
O238 C208 1.325 . S
O239 Li177 1.961 1_455 S
O239 Li178 1.970 . S
O239 Li179 1.956 1_455 S
O239 C214 1.325 . S
H240 C182 0.913 1_655 S
H241 C183 0.930 . S
H242 C184 0.930 . S
H243 C185 0.930 . S
H244 C187 0.930 . S
H245 C189 0.929 . S
H246 C190 0.930 . S
H247 C191 0.930 . S
H248 C194 0.930 . S
H249 C197 0.929 . S
H250 C202 0.929 . S
H251 C203 0.930 . S
H252 C210 0.934 . S
H253 C211 0.930 . S
H254 C212 0.930 . S
H255 C213 0.930 . S
H256 C215 0.929 . S
H257 C216 0.930 . S
H258 C217 0.930 . S
H259 C218 0.930 . S
H260 C222 0.929 . S
H261 C224 0.930 . S
H262 C230 0.929 . S
H263 C231 0.930 1_455 S
Li264 N281 1.990 . S
Li264 O324 1.956 1_565 S
Li264 O325 1.970 1_565 S
Li264 O326 1.961 . S
Li265 N289 1.990 . S
Li265 O324 1.970 . S
Li265 O325 1.956 . S
Li265 O327 1.961 1_545 S
Li266 N311 1.990 . S
Li266 O324 1.961 1_565 S
Li266 O326 1.956 . S
Li266 O327 1.970 . S
Li267 N317 1.990 . S
Li267 O325 1.961 1_565 S
Li267 O326 1.970 . S
Li267 O327 1.956 . S
C268 C270 1.348 . S
C268 C271 1.356 1_545 S
C268 O324 1.325 . S
N269 C272 1.314 . S
N269 C273 1.279 1_545 S
C270 C268 1.348 . S
C270 C272 1.353 . S
C270 H328 0.929 . S
C271 C268 1.356 1_565 S
C271 C273 1.358 . S
C271 H329 0.930 . S
C272 N269 1.314 . S
C272 C270 1.353 . S
C272 H330 0.930 . S
C273 N269 1.279 1_565 S
C273 C271 1.358 . S
C273 H331 0.930 . S
C274 C277 1.348 . S
C274 C278 1.356 . S
C274 O325 1.325 . S
C275 N276 1.279 . S
C275 C278 1.358 . S
C275 H332 0.930 . S
N276 C275 1.279 . S
N276 C279 1.314 . S
C277 C274 1.348 . S
C277 C279 1.353 . S
C277 H333 0.929 . S
C278 C274 1.356 . S
C278 C275 1.358 . S
C278 H334 0.930 . S
C279 N276 1.314 . S
C279 C277 1.353 . S
C279 H335 0.930 . S
C280 N281 1.314 . S
C280 C285 1.353 . S
C280 H286 0.930 . S
N281 Li264 1.990 . S
N281 C280 1.314 . S
N281 C283 1.279 1_565 S
C282 C283 1.358 . S
C282 C284 1.356 . S
C282 H336 0.930 . S
C283 N281 1.279 1_545 S
C283 C282 1.358 . S
C283 H287 0.930 . S
C284 C282 1.356 . S
C284 C285 1.348 1_545 S
C285 C280 1.353 . S
C285 C284 1.348 1_565 S
C285 H337 0.929 . S
H286 C280 0.930 . S
H287 C283 0.930 . S
C288 N289 1.314 . S
C288 C290 1.353 . S
C288 H294 0.930 . S
N289 Li265 1.990 . S
N289 C288 1.314 . S
N289 C292 1.279 . S
C290 C288 1.353 . S
C290 C293 1.348 . S
C290 H338 0.929 . S
C291 C292 1.358 . S
C291 C293 1.356 . S
C291 H339 0.930 . S
C292 N289 1.279 . S
C292 C291 1.358 . S
C292 H295 0.930 . S
C293 C290 1.348 . S
C293 C291 1.356 . S
H294 C288 0.930 . S
H295 C292 0.930 . S
C296 C298 1.348 . S
C296 C299 1.356 . S
C296 O326 1.325 . S
N297 C300 1.314 . S
N297 C301 1.279 . S
C298 C296 1.348 . S
C298 C300 1.353 . S
C298 H340 0.929 . S
C299 C296 1.356 . S
C299 C301 1.358 . S
C299 H341 0.930 . S
C300 N297 1.314 . S
C300 C298 1.353 . S
C300 H342 0.930 . S
C301 N297 1.279 . S
C301 C299 1.358 . S
C301 H343 0.930 . S
C302 C303 1.348 . S
C302 C304 1.356 1_565 S
C302 O327 1.325 . S
C303 C302 1.348 . S
C303 C305 1.353 . S
C303 H344 0.929 . S
C304 C302 1.356 1_545 S
C304 C306 1.358 . S
C304 H345 0.930 . S
C305 C303 1.353 . S
C305 N307 1.314 . S
C305 H346 0.930 . S
C306 C304 1.358 . S
C306 N307 1.279 1_545 S
C306 H347 0.930 . S
N307 C305 1.314 . S
N307 C306 1.279 1_565 S
C308 C310 1.353 . S
C308 N311 1.314 . S
C308 H314 0.930 . S
C309 N311 1.279 . S
C309 C312 1.358 . S
C309 H315 0.930 . S
C310 C308 1.353 . S
C310 C313 1.348 . S
C310 H348 0.929 . S
N311 Li266 1.990 . S
N311 C308 1.314 . S
N311 C309 1.279 . S
C312 C309 1.358 . S
C312 C313 1.356 . S
C312 H349 0.930 . S
C313 C310 1.348 . S
C313 C312 1.356 . S
H314 C308 0.930 . S
H315 C309 0.930 . S
C316 N317 1.314 . S
C316 C318 1.353 . S
C316 H322 0.930 . S
N317 Li267 1.990 . S
N317 C316 1.314 . S
N317 C320 1.279 . S
C318 C316 1.353 . S
C318 C321 1.348 . S
C318 H350 0.929 . S
C319 C320 1.358 . S
C319 C321 1.356 . S
C319 H351 0.930 . S
C320 N317 1.279 . S
C320 C319 1.358 . S
C320 H323 0.930 . S
C321 C318 1.348 . S
C321 C319 1.356 . S
H322 C316 0.930 . S
H323 C320 0.930 . S
O324 Li264 1.956 1_545 S
O324 Li265 1.970 . S
O324 Li266 1.961 1_545 S
O324 C268 1.325 . S
O325 Li264 1.970 1_545 S
O325 Li265 1.956 . S
O325 Li267 1.961 1_545 S
O325 C274 1.325 . S
O326 Li264 1.961 . S
O326 Li266 1.956 . S
O326 Li267 1.970 . S
O326 C296 1.325 . S
O327 Li265 1.961 1_565 S
O327 Li266 1.970 . S
O327 Li267 1.956 . S
O327 C302 1.325 . S
H328 C270 0.929 . S
H329 C271 0.930 . S
H330 C272 0.930 . S
H331 C273 0.930 . S
H332 C275 0.930 . S
H333 C277 0.929 . S
H334 C278 0.930 . S
H335 C279 0.930 . S
H336 C282 0.930 . S
H337 C285 0.929 . S
H338 C290 0.929 . S
H339 C291 0.930 . S
H340 C298 0.929 . S
H341 C299 0.930 . S
H342 C300 0.930 . S
H343 C301 0.930 . S
H344 C303 0.929 . S
H345 C304 0.930 . S
H346 C305 0.930 . S
H347 C306 0.930 . S
H348 C310 0.929 . S
H349 C312 0.930 . S
H350 C318 0.929 . S
H351 C319 0.930 . S
Li352 N369 1.990 . S
Li352 O412 1.956 1_455 S
Li352 O413 1.970 . S
Li352 O414 1.961 . S
Li353 N377 1.990 . S
Li353 O412 1.970 . S
Li353 O413 1.956 1_655 S
Li353 O415 1.961 . S
Li354 N399 1.990 . S
Li354 O412 1.961 1_455 S
Li354 O414 1.956 . S
Li354 O415 1.970 1_455 S
Li355 N405 1.990 . S
Li355 O413 1.961 . S
Li355 O414 1.970 . S
Li355 O415 1.956 1_455 S
C356 C358 1.348 . S
C356 C359 1.356 . S
C356 O412 1.325 . S
N357 C360 1.314 . S
N357 C361 1.279 . S
C358 C356 1.348 . S
C358 C360 1.353 . S
C358 H416 0.929 . S
C359 C356 1.356 . S
C359 C361 1.358 . S
C359 H417 0.930 . S
C360 N357 1.314 . S
C360 C358 1.353 . S
C360 H418 0.930 . S
C361 N357 1.279 . S
C361 C359 1.358 . S
C361 H419 0.930 . S
C362 C365 1.348 . S
C362 C366 1.356 . S
C362 O413 1.325 . S
C363 N364 1.279 . S
C363 C366 1.358 . S
C363 H420 0.930 . S
N364 C363 1.279 . S
N364 C367 1.314 . S
C365 C362 1.348 . S
C365 C367 1.353 . S
C365 H421 0.934 . S
C366 C362 1.356 . S
C366 C363 1.358 . S
C366 H422 0.930 . S
C367 N364 1.314 . S
C367 C365 1.353 . S
C367 H423 0.930 . S
C368 N369 1.314 . S
C368 C373 1.353 . S
C368 H374 0.930 . S
N369 Li352 1.990 . S
N369 C368 1.314 . S
N369 C371 1.279 1_455 S
C370 C371 1.358 1_455 S
C370 C372 1.356 . S
C370 H424 0.930 1_455 S
C371 N369 1.279 1_655 S
C371 C370 1.358 1_655 S
C371 H375 0.930 . S
C372 C370 1.356 . S
C372 C373 1.348 . S
C373 C368 1.353 . S
C373 C372 1.348 . S
C373 H425 0.929 . S
H374 C368 0.930 . S
H375 C371 0.930 . S
C376 N377 1.314 . S
C376 C378 1.353 . S
C376 H382 0.930 . S
N377 Li353 1.990 . S
N377 C376 1.314 . S
N377 C380 1.279 . S
C378 C376 1.353 . S
C378 C381 1.348 . S
C378 H426 0.929 . S
C379 C380 1.358 . S
C379 C381 1.356 . S
C379 H427 0.930 . S
C380 N377 1.279 . S
C380 C379 1.358 . S
C380 H383 0.930 . S
C381 C378 1.348 . S
C381 C379 1.356 . S
H382 C376 0.930 . S
H383 C380 0.930 . S
C384 C386 1.348 . S
C384 C387 1.356 . S
C384 O414 1.325 . S
N385 C388 1.314 . S
N385 C389 1.279 . S
C386 C384 1.348 . S
C386 C388 1.353 . S
C386 H428 0.929 . S
C387 C384 1.356 . S
C387 C389 1.358 . S
C387 H429 0.930 . S
C388 N385 1.314 . S
C388 C386 1.353 . S
C388 H430 0.930 . S
C389 N385 1.279 . S
C389 C387 1.358 . S
C389 H431 0.930 . S
C390 C391 1.358 . S
C390 C392 1.356 . S
C390 O415 1.325 . S
C391 C390 1.358 . S
C391 C393 1.362 . S
C391 H432 0.913 1_655 S
C392 C390 1.356 . S
C392 C394 1.358 . S
C392 H433 0.930 . S
C393 C391 1.362 . S
C393 N395 1.314 . S
C393 H434 0.930 . S
C394 C392 1.358 . S
C394 N395 1.279 . S
C394 H435 0.930 . S
N395 C393 1.314 . S
N395 C394 1.279 . S
C396 C398 1.353 . S
C396 N399 1.314 1_655 S
C396 H402 0.930 . S
C397 N399 1.279 . S
C397 C400 1.358 . S
C397 H403 0.930 . S
C398 C396 1.353 . S
C398 C401 1.348 . S
C398 H436 0.929 . S
N399 Li354 1.990 . S
N399 C396 1.314 1_455 S
N399 C397 1.279 . S
C400 C397 1.358 . S
C400 C401 1.356 1_455 S
C400 H437 0.930 . S
C401 C398 1.348 . S
C401 C400 1.356 1_655 S
H402 C396 0.930 . S
H403 C397 0.930 . S
C404 N405 1.314 . S
C404 C406 1.353 . S
C404 H410 0.930 . S
N405 Li355 1.990 . S
N405 C404 1.314 . S
N405 C408 1.279 . S
C406 C404 1.353 . S
C406 C409 1.348 . S
C406 H438 0.929 . S
C407 C408 1.358 . S
C407 C409 1.356 . S
C407 H439 0.930 . S
C408 N405 1.279 . S
C408 C407 1.358 . S
C408 H411 0.930 . S
C409 C406 1.348 . S
C409 C407 1.356 . S
H410 C404 0.930 . S
H411 C408 0.930 . S
O412 Li352 1.956 1_655 S
O412 Li353 1.970 . S
O412 Li354 1.961 1_655 S
O412 C356 1.325 . S
O413 Li352 1.970 . S
O413 Li353 1.956 1_455 S
O413 Li355 1.961 . S
O413 C362 1.325 . S
O414 Li352 1.961 . S
O414 Li354 1.956 . S
O414 Li355 1.970 . S
O414 C384 1.325 . S
O415 Li353 1.961 . S
O415 Li354 1.970 1_655 S
O415 Li355 1.956 1_655 S
O415 C390 1.325 . S
H416 C358 0.929 . S
H417 C359 0.930 . S
H418 C360 0.930 . S
H419 C361 0.930 . S
H420 C363 0.930 . S
H421 C365 0.934 . S
H422 C366 0.930 . S
H423 C367 0.930 . S
H424 C370 0.930 1_655 S
H425 C373 0.929 . S
H426 C378 0.929 . S
H427 C379 0.930 . S
H428 C386 0.929 . S
H429 C387 0.930 . S
H430 C388 0.930 . S
H431 C389 0.930 . S
H432 C391 0.913 1_455 S
H433 C392 0.930 . S
H434 C393 0.930 . S
H435 C394 0.930 . S
H436 C398 0.929 . S
H437 C400 0.930 . S
H438 C406 0.929 . S
H439 C407 0.930 . S
Li440 N457 1.990 . S
Li440 O500 1.956 . S
Li440 O501 1.970 . S
Li440 O502 1.961 1_545 S
Li441 N465 1.990 . S
Li441 O500 1.970 . S
Li441 O501 1.956 . S
Li441 O503 1.961 1_545 S
Li442 N487 1.990 . S
Li442 O500 1.961 . S
Li442 O502 1.956 1_545 S
Li442 O503 1.970 1_545 S
Li443 N493 1.990 . S
Li443 O501 1.961 1_565 S
Li443 O502 1.970 . S
Li443 O503 1.956 . S
C444 C446 1.348 . S
C444 C447 1.356 . S
C444 O500 1.325 . S
N445 C448 1.314 . S
N445 C449 1.279 . S
C446 C444 1.348 . S
C446 C448 1.353 . S
C446 H504 0.929 . S
C447 C444 1.356 . S
C447 C449 1.358 . S
C447 H505 0.930 . S
C448 N445 1.314 . S
C448 C446 1.353 . S
C448 H506 0.930 . S
C449 N445 1.279 . S
C449 C447 1.358 . S
C449 H507 0.930 . S
C450 C453 1.348 . S
C450 C454 1.356 1_545 S
C450 O501 1.325 . S
C451 N452 1.279 1_565 S
C451 C454 1.358 . S
C451 H508 0.930 . S
N452 C451 1.279 1_545 S
N452 C455 1.314 . S
C453 C450 1.348 . S
C453 C455 1.353 . S
C453 H509 0.929 . S
C454 C450 1.356 1_565 S
C454 C451 1.358 . S
C454 H510 0.930 . S
C455 N452 1.314 . S
C455 C453 1.353 . S
C455 H511 0.930 . S
C456 N457 1.314 . S
C456 C461 1.353 . S
C456 H462 0.930 . S
N457 Li440 1.990 . S
N457 C456 1.314 . S
N457 C459 1.279 . S
C458 C459 1.358 . S
C458 C460 1.356 . S
C458 H512 0.930 . S
C459 N457 1.279 . S
C459 C458 1.358 . S
C459 H463 0.930 . S
C460 C458 1.356 . S
C460 C461 1.348 . S
C461 C456 1.353 . S
C461 C460 1.348 . S
C461 H513 0.929 . S
H462 C456 0.930 . S
H463 C459 0.930 . S
C464 N465 1.314 . S
C464 C466 1.353 . S
C464 H470 0.930 . S
N465 Li441 1.990 . S
N465 C464 1.314 . S
N465 C468 1.279 . S
C466 C464 1.353 . S
C466 C469 1.348 . S
C466 H514 0.929 . S
C467 C468 1.358 . S
C467 C469 1.356 . S
C467 H515 0.930 . S
C468 N465 1.279 . S
C468 C467 1.358 . S
C468 H471 0.930 . S
C469 C466 1.348 . S
C469 C467 1.356 . S
H470 C464 0.930 . S
H471 C468 0.930 . S
C472 C474 1.348 . S
C472 C475 1.356 1_565 S
C472 O502 1.325 . S
N473 C476 1.314 . S
N473 C477 1.279 1_565 S
C474 C472 1.348 . S
C474 C476 1.353 . S
C474 H516 0.929 . S
C475 C472 1.356 1_545 S
C475 C477 1.358 . S
C475 H517 0.930 . S
C476 N473 1.314 . S
C476 C474 1.353 . S
C476 H518 0.930 . S
C477 N473 1.279 1_545 S
C477 C475 1.358 . S
C477 H519 0.930 . S
C478 C479 1.348 . S
C478 C480 1.356 . S
C478 O503 1.325 . S
C479 C478 1.348 . S
C479 C481 1.353 . S
C479 H520 0.929 . S
C480 C478 1.356 . S
C480 C482 1.358 . S
C480 H521 0.930 . S
C481 C479 1.353 . S
C481 N483 1.314 . S
C481 H522 0.930 . S
C482 C480 1.358 . S
C482 N483 1.279 . S
C482 H523 0.930 . S
N483 C481 1.314 . S
N483 C482 1.279 . S
C484 C486 1.353 . S
C484 N487 1.314 . S
C484 H490 0.930 . S
C485 N487 1.279 1_565 S
C485 C488 1.358 . S
C485 H491 0.930 . S
C486 C484 1.353 . S
C486 C489 1.348 1_545 S
C486 H524 0.929 . S
N487 Li442 1.990 . S
N487 C484 1.314 . S
N487 C485 1.279 1_545 S
C488 C485 1.358 . S
C488 C489 1.356 . S
C488 H525 0.930 . S
C489 C486 1.348 1_565 S
C489 C488 1.356 . S
H490 C484 0.930 . S
H491 C485 0.930 . S
C492 N493 1.314 . S
C492 C494 1.353 . S
C492 H498 0.930 . S
N493 Li443 1.990 . S
N493 C492 1.314 . S
N493 C496 1.279 . S
C494 C492 1.353 . S
C494 C497 1.348 . S
C494 H526 0.929 . S
C495 C496 1.358 . S
C495 C497 1.356 . S
C495 H527 0.930 . S
C496 N493 1.279 . S
C496 C495 1.358 . S
C496 H499 0.930 . S
C497 C494 1.348 . S
C497 C495 1.356 . S
H498 C492 0.930 . S
H499 C496 0.930 . S
O500 Li440 1.956 . S
O500 Li441 1.970 . S
O500 Li442 1.961 . S
O500 C444 1.325 . S
O501 Li440 1.970 . S
O501 Li441 1.956 . S
O501 Li443 1.961 1_545 S
O501 C450 1.325 . S
O502 Li440 1.961 1_565 S
O502 Li442 1.956 1_565 S
O502 Li443 1.970 . S
O502 C472 1.325 . S
O503 Li441 1.961 1_565 S
O503 Li442 1.970 1_565 S
O503 Li443 1.956 . S
O503 C478 1.325 . S
H504 C446 0.929 . S
H505 C447 0.930 . S
H506 C448 0.930 . S
H507 C449 0.930 . S
H508 C451 0.930 . S
H509 C453 0.929 . S
H510 C454 0.930 . S
H511 C455 0.930 . S
H512 C458 0.930 . S
H513 C461 0.929 . S
H514 C466 0.929 . S
H515 C467 0.930 . S
H516 C474 0.929 . S
H517 C475 0.930 . S
H518 C476 0.930 . S
H519 C477 0.930 . S
H520 C479 0.929 . S
H521 C480 0.930 . S
H522 C481 0.930 . S
H523 C482 0.930 . S
H524 C486 0.929 . S
H525 C488 0.930 . S
H526 C494 0.929 . S
H527 C495 0.930 . S
Li528 N545 1.990 . S
Li528 O588 1.956 1_655 S
Li528 O589 1.970 . S
Li528 O590 1.961 . S
Li529 N553 1.990 . S
Li529 O588 1.970 . S
Li529 O589 1.956 1_455 S
Li529 O591 1.961 . S
Li530 N575 1.990 . S
Li530 O588 1.961 1_655 S
Li530 O590 1.956 . S
Li530 O591 1.970 1_655 S
Li531 N581 1.990 . S
Li531 O589 1.961 . S
Li531 O590 1.970 . S
Li531 O591 1.956 1_655 S
C532 C534 1.348 . S
C532 C535 1.356 . S
C532 O588 1.325 . S
N533 C536 1.314 . S
N533 C537 1.279 . S
C534 C532 1.348 . S
C534 C536 1.353 . S
C534 H592 0.929 . S
C535 C532 1.356 . S
C535 C537 1.358 . S
C535 H593 0.930 . S
C536 N533 1.314 . S
C536 C534 1.353 . S
C536 H594 0.930 . S
C537 N533 1.279 . S
C537 C535 1.358 . S
C537 H595 0.930 . S
C538 C541 1.348 . S
C538 C542 1.356 . S
C538 O589 1.325 . S
C539 N540 1.279 . S
C539 C542 1.358 . S
C539 H596 0.930 . S
N540 C539 1.279 . S
N540 C543 1.314 . S
C541 C538 1.348 . S
C541 C543 1.353 . S
C541 H597 0.934 . S
C542 C538 1.356 . S
C542 C539 1.358 . S
C542 H598 0.930 . S
C543 N540 1.314 . S
C543 C541 1.353 . S
C543 H599 0.930 . S
C544 N545 1.314 . S
C544 C549 1.353 . S
C544 H550 0.930 . S
N545 Li528 1.990 . S
N545 C544 1.314 . S
N545 C547 1.279 1_655 S
C546 C547 1.358 1_655 S
C546 C548 1.356 . S
C546 H600 0.930 1_655 S
C547 N545 1.279 1_455 S
C547 C546 1.358 1_455 S
C547 H551 0.930 . S
C548 C546 1.356 . S
C548 C549 1.348 . S
C549 C544 1.353 . S
C549 C548 1.348 . S
C549 H601 0.929 . S
H550 C544 0.930 . S
H551 C547 0.930 . S
C552 N553 1.314 . S
C552 C554 1.353 . S
C552 H558 0.930 . S
N553 Li529 1.990 . S
N553 C552 1.314 . S
N553 C556 1.279 . S
C554 C552 1.353 . S
C554 C557 1.348 . S
C554 H602 0.929 . S
C555 C556 1.358 . S
C555 C557 1.356 . S
C555 H603 0.930 . S
C556 N553 1.279 . S
C556 C555 1.358 . S
C556 H559 0.930 . S
C557 C554 1.348 . S
C557 C555 1.356 . S
H558 C552 0.930 . S
H559 C556 0.930 . S
C560 C562 1.348 . S
C560 C563 1.356 . S
C560 O590 1.325 . S
N561 C564 1.314 . S
N561 C565 1.279 . S
C562 C560 1.348 . S
C562 C564 1.353 . S
C562 H604 0.929 . S
C563 C560 1.356 . S
C563 C565 1.358 . S
C563 H605 0.930 . S
C564 N561 1.314 . S
C564 C562 1.353 . S
C564 H606 0.930 . S
C565 N561 1.279 . S
C565 C563 1.358 . S
C565 H607 0.930 . S
C566 C567 1.358 . S
C566 C568 1.356 . S
C566 O591 1.325 . S
C567 C566 1.358 . S
C567 C569 1.362 . S
C567 H608 0.913 1_455 S
C568 C566 1.356 . S
C568 C570 1.358 . S
C568 H609 0.930 . S
C569 C567 1.362 . S
C569 N571 1.314 . S
C569 H610 0.930 . S
C570 C568 1.358 . S
C570 N571 1.279 . S
C570 H611 0.930 . S
N571 C569 1.314 . S
N571 C570 1.279 . S
C572 C574 1.353 . S
C572 N575 1.314 1_455 S
C572 H578 0.930 . S
C573 N575 1.279 . S
C573 C576 1.358 . S
C573 H579 0.930 . S
C574 C572 1.353 . S
C574 C577 1.348 . S
C574 H612 0.929 . S
N575 Li530 1.990 . S
N575 C572 1.314 1_655 S
N575 C573 1.279 . S
C576 C573 1.358 . S
C576 C577 1.356 1_655 S
C576 H613 0.930 . S
C577 C574 1.348 . S
C577 C576 1.356 1_455 S
H578 C572 0.930 . S
H579 C573 0.930 . S
C580 N581 1.314 . S
C580 C582 1.353 . S
C580 H586 0.930 . S
N581 Li531 1.990 . S
N581 C580 1.314 . S
N581 C584 1.279 . S
C582 C580 1.353 . S
C582 C585 1.348 . S
C582 H614 0.929 . S
C583 C584 1.358 . S
C583 C585 1.356 . S
C583 H615 0.930 . S
C584 N581 1.279 . S
C584 C583 1.358 . S
C584 H587 0.930 . S
C585 C582 1.348 . S
C585 C583 1.356 . S
H586 C580 0.930 . S
H587 C584 0.930 . S
O588 Li528 1.956 1_455 S
O588 Li529 1.970 . S
O588 Li530 1.961 1_455 S
O588 C532 1.325 . S
O589 Li528 1.970 . S
O589 Li529 1.956 1_655 S
O589 Li531 1.961 . S
O589 C538 1.325 . S
O590 Li528 1.961 . S
O590 Li530 1.956 . S
O590 Li531 1.970 . S
O590 C560 1.325 . S
O591 Li529 1.961 . S
O591 Li530 1.970 1_455 S
O591 Li531 1.956 1_455 S
O591 C566 1.325 . S
H592 C534 0.929 . S
H593 C535 0.930 . S
H594 C536 0.930 . S
H595 C537 0.930 . S
H596 C539 0.930 . S
H597 C541 0.934 . S
H598 C542 0.930 . S
H599 C543 0.930 . S
H600 C546 0.930 1_455 S
H601 C549 0.929 . S
H602 C554 0.929 . S
H603 C555 0.930 . S
H604 C562 0.929 . S
H605 C563 0.930 . S
H606 C564 0.930 . S
H607 C565 0.930 . S
H608 C567 0.913 1_655 S
H609 C568 0.930 . S
H610 C569 0.930 . S
H611 C570 0.930 . S
H612 C574 0.929 . S
H613 C576 0.930 . S
H614 C582 0.929 . S
H615 C583 0.930 . S
Li616 N633 1.990 . S
Li616 O676 1.956 . S
Li616 O677 1.970 . S
Li616 O678 1.961 1_545 S
Li617 N641 1.990 . S
Li617 O676 1.970 1_565 S
Li617 O677 1.956 1_565 S
Li617 O679 1.961 . S
Li618 N663 1.990 . S
Li618 O676 1.961 1_565 S
Li618 O678 1.956 . S
Li618 O679 1.970 . S
Li619 N669 1.990 . S
Li619 O677 1.961 1_565 S
Li619 O678 1.970 . S
Li619 O679 1.956 . S
C620 C622 1.348 . S
C620 C623 1.356 . S
C620 O676 1.325 . S
N621 C624 1.314 . S
N621 C625 1.279 . S
C622 C620 1.348 . S
C622 C624 1.353 . S
C622 H680 0.929 . S
C623 C620 1.356 . S
C623 C625 1.358 . S
C623 H681 0.930 . S
C624 N621 1.314 . S
C624 C622 1.353 . S
C624 H682 0.930 . S
C625 N621 1.279 . S
C625 C623 1.358 . S
C625 H683 0.930 . S
C626 C629 1.348 . S
C626 C630 1.356 1_545 S
C626 O677 1.325 . S
C627 N628 1.279 1_565 S
C627 C630 1.358 . S
C627 H684 0.930 . S
N628 C627 1.279 1_545 S
N628 C631 1.314 . S
C629 C626 1.348 . S
C629 C631 1.353 . S
C629 H685 0.929 . S
C630 C626 1.356 1_565 S
C630 C627 1.358 . S
C630 H686 0.930 . S
C631 N628 1.314 . S
C631 C629 1.353 . S
C631 H687 0.930 . S
C632 N633 1.314 . S
C632 C637 1.353 . S
C632 H638 0.930 . S
N633 Li616 1.990 . S
N633 C632 1.314 . S
N633 C635 1.279 . S
C634 C635 1.358 . S
C634 C636 1.356 . S
C634 H688 0.930 . S
C635 N633 1.279 . S
C635 C634 1.358 . S
C635 H639 0.930 . S
C636 C634 1.356 . S
C636 C637 1.348 . S
C637 C632 1.353 . S
C637 C636 1.348 . S
C637 H689 0.929 . S
H638 C632 0.930 . S
H639 C635 0.930 . S
C640 N641 1.314 . S
C640 C642 1.353 . S
C640 H646 0.930 . S
N641 Li617 1.990 . S
N641 C640 1.314 . S
N641 C644 1.279 1_565 S
C642 C640 1.353 . S
C642 C645 1.348 1_565 S
C642 H690 0.929 . S
C643 C644 1.358 . S
C643 C645 1.356 . S
C643 H691 0.930 . S
C644 N641 1.279 1_545 S
C644 C643 1.358 . S
C644 H647 0.930 . S
C645 C642 1.348 1_545 S
C645 C643 1.356 . S
H646 C640 0.930 . S
H647 C644 0.930 . S
C648 C650 1.348 . S
C648 C651 1.356 1_565 S
C648 O678 1.325 . S
N649 C652 1.314 . S
N649 C653 1.279 1_565 S
C650 C648 1.348 . S
C650 C652 1.353 . S
C650 H692 0.929 . S
C651 C648 1.356 1_545 S
C651 C653 1.358 . S
C651 H693 0.930 . S
C652 N649 1.314 . S
C652 C650 1.353 . S
C652 H694 0.930 . S
C653 N649 1.279 1_545 S
C653 C651 1.358 . S
C653 H695 0.930 . S
C654 C655 1.348 . S
C654 C656 1.356 . S
C654 O679 1.325 . S
C655 C654 1.348 . S
C655 C657 1.353 . S
C655 H696 0.929 . S
C656 C654 1.356 . S
C656 C658 1.358 . S
C656 H697 0.930 . S
C657 C655 1.353 . S
C657 N659 1.314 . S
C657 H698 0.930 . S
C658 C656 1.358 . S
C658 N659 1.279 . S
C658 H699 0.930 . S
N659 C657 1.314 . S
N659 C658 1.279 . S
C660 C662 1.353 . S
C660 N663 1.314 . S
C660 H666 0.930 . S
C661 N663 1.279 . S
C661 C664 1.358 . S
C661 H667 0.930 . S
C662 C660 1.353 . S
C662 C665 1.348 . S
C662 H700 0.929 . S
N663 Li618 1.990 . S
N663 C660 1.314 . S
N663 C661 1.279 . S
C664 C661 1.358 . S
C664 C665 1.356 . S
C664 H701 0.930 . S
C665 C662 1.348 . S
C665 C664 1.356 . S
H666 C660 0.930 . S
H667 C661 0.930 . S
C668 N669 1.314 . S
C668 C670 1.353 . S
C668 H674 0.930 . S
N669 Li619 1.990 . S
N669 C668 1.314 . S
N669 C672 1.279 . S
C670 C668 1.353 . S
C670 C673 1.348 . S
C670 H702 0.929 . S
C671 C672 1.358 . S
C671 C673 1.356 . S
C671 H703 0.930 . S
C672 N669 1.279 . S
C672 C671 1.358 . S
C672 H675 0.930 . S
C673 C670 1.348 . S
C673 C671 1.356 . S
H674 C668 0.930 . S
H675 C672 0.930 . S
O676 Li616 1.956 . S
O676 Li617 1.970 1_545 S
O676 Li618 1.961 1_545 S
O676 C620 1.325 . S
O677 Li616 1.970 . S
O677 Li617 1.956 1_545 S
O677 Li619 1.961 1_545 S
O677 C626 1.325 . S
O678 Li616 1.961 1_565 S
O678 Li618 1.956 . S
O678 Li619 1.970 . S
O678 C648 1.325 . S
O679 Li617 1.961 . S
O679 Li618 1.970 . S
O679 Li619 1.956 . S
O679 C654 1.325 . S
H680 C622 0.929 . S
H681 C623 0.930 . S
H682 C624 0.930 . S
H683 C625 0.930 . S
H684 C627 0.930 . S
H685 C629 0.929 . S
H686 C630 0.930 . S
H687 C631 0.930 . S
H688 C634 0.930 . S
H689 C637 0.929 . S
H690 C642 0.929 . S
H691 C643 0.930 . S
H692 C650 0.929 . S
H693 C651 0.930 . S
H694 C652 0.930 . S
H695 C653 0.930 . S
H696 C655 0.929 . S
H697 C656 0.930 . S
H698 C657 0.930 . S
H699 C658 0.930 . S
H700 C662 0.929 . S
H701 C664 0.930 . S
H702 C670 0.929 . S
H703 C671 0.930 . S
Li704 N721 1.990 . S
Li704 O764 1.956 . S
Li704 O765 1.970 . S
Li704 O766 1.961 . S
Li705 N729 1.990 . S
Li705 O764 1.970 . S
Li705 O765 1.956 . S
Li705 O767 1.961 . S
Li706 N751 1.990 . S
Li706 O764 1.961 . S
Li706 O766 1.956 . S
Li706 O767 1.970 . S
Li707 N757 1.990 . S
Li707 O765 1.961 . S
Li707 O766 1.970 . S
Li707 O767 1.956 . S
C708 C710 1.348 . S
C708 C711 1.356 . S
C708 O764 1.325 . S
N709 C712 1.314 . S
N709 C713 1.279 . S
C710 C708 1.348 . S
C710 C712 1.353 . S
C710 H768 0.929 . S
C711 C708 1.356 . S
C711 C713 1.358 . S
C711 H769 0.930 . S
C712 N709 1.314 . S
C712 C710 1.353 . S
C712 H770 0.930 . S
C713 N709 1.279 . S
C713 C711 1.358 . S
C713 H771 0.930 . S
C714 C717 1.348 . S
C714 C718 1.356 . S
C714 O765 1.325 . S
C715 N716 1.279 . S
C715 C718 1.358 . S
C715 H772 0.930 . S
N716 C715 1.279 . S
N716 C719 1.314 . S
C717 C714 1.348 . S
C717 C719 1.353 . S
C717 H773 0.929 . S
C718 C714 1.356 . S
C718 C715 1.358 . S
C718 H774 0.930 . S
C719 N716 1.314 . S
C719 C717 1.353 . S
C719 H775 0.930 . S
C720 N721 1.314 . S
C720 C725 1.353 . S
C720 H726 0.930 . S
N721 Li704 1.990 . S
N721 C720 1.314 . S
N721 C723 1.279 . S
C722 C723 1.358 . S
C722 C724 1.356 . S
C722 H776 0.930 . S
C723 N721 1.279 . S
C723 C722 1.358 . S
C723 H727 0.930 . S
C724 C722 1.356 . S
C724 C725 1.348 . S
C725 C720 1.353 . S
C725 C724 1.348 . S
C725 H777 0.929 . S
H726 C720 0.930 . S
H727 C723 0.930 . S
C728 N729 1.314 . S
C728 C730 1.353 . S
C728 H734 0.930 . S
N729 Li705 1.990 . S
N729 C728 1.314 . S
N729 C732 1.279 . S
C730 C728 1.353 . S
C730 C733 1.348 . S
C730 H778 0.929 . S
C731 C732 1.358 . S
C731 C733 1.356 . S
C731 H779 0.930 . S
C732 N729 1.279 . S
C732 C731 1.358 . S
C732 H735 0.930 . S
C733 C730 1.348 . S
C733 C731 1.356 . S
H734 C728 0.930 . S
H735 C732 0.930 . S
C736 C738 1.348 . S
C736 C739 1.356 . S
C736 O766 1.325 . S
N737 C740 1.314 . S
N737 C741 1.279 . S
C738 C736 1.348 . S
C738 C740 1.353 . S
C738 H780 0.929 . S
C739 C736 1.356 . S
C739 C741 1.358 . S
C739 H781 0.930 . S
C740 N737 1.314 . S
C740 C738 1.353 . S
C740 H782 0.930 . S
C741 N737 1.279 . S
C741 C739 1.358 . S
C741 H783 0.930 . S
C742 C743 1.348 . S
C742 C744 1.356 . S
C742 O767 1.325 . S
C743 C742 1.348 . S
C743 C745 1.353 . S
C743 H784 0.929 . S
C744 C742 1.356 . S
C744 C746 1.358 . S
C744 H785 0.930 . S
C745 C743 1.353 . S
C745 N747 1.314 . S
C745 H786 0.930 . S
C746 C744 1.358 . S
C746 N747 1.279 . S
C746 H787 0.930 . S
N747 C745 1.314 . S
N747 C746 1.279 . S
C748 C750 1.353 . S
C748 N751 1.314 . S
C748 H754 0.930 . S
C749 N751 1.279 . S
C749 C752 1.358 . S
C749 H755 0.930 . S
C750 C748 1.353 . S
C750 C753 1.348 . S
C750 H788 0.929 . S
N751 Li706 1.990 . S
N751 C748 1.314 . S
N751 C749 1.279 . S
C752 C749 1.358 . S
C752 C753 1.356 . S
C752 H789 0.930 . S
C753 C750 1.348 . S
C753 C752 1.356 . S
H754 C748 0.930 . S
H755 C749 0.930 . S
C756 N757 1.314 . S
C756 C758 1.353 . S
C756 H762 0.930 . S
N757 Li707 1.990 . S
N757 C756 1.314 . S
N757 C760 1.279 . S
C758 C756 1.353 . S
C758 C761 1.348 . S
C758 H790 0.929 . S
C759 C760 1.358 . S
C759 C761 1.356 . S
C759 H791 0.930 . S
C760 N757 1.279 . S
C760 C759 1.358 . S
C760 H763 0.930 . S
C761 C758 1.348 . S
C761 C759 1.356 . S
H762 C756 0.930 . S
H763 C760 0.930 . S
O764 Li704 1.956 . S
O764 Li705 1.970 . S
O764 Li706 1.961 . S
O764 C708 1.325 . S
O765 Li704 1.970 . S
O765 Li705 1.956 . S
O765 Li707 1.961 . S
O765 C714 1.325 . S
O766 Li704 1.961 . S
O766 Li706 1.956 . S
O766 Li707 1.970 . S
O766 C736 1.325 . S
O767 Li705 1.961 . S
O767 Li706 1.970 . S
O767 Li707 1.956 . S
O767 C742 1.325 . S
H768 C710 0.929 . S
H769 C711 0.930 . S
H770 C712 0.930 . S
H771 C713 0.930 . S
H772 C715 0.930 . S
H773 C717 0.929 . S
H774 C718 0.930 . S
H775 C719 0.930 . S
H776 C722 0.930 . S
H777 C725 0.929 . S
H778 C730 0.929 . S
H779 C731 0.930 . S
H780 C738 0.929 . S
H781 C739 0.930 . S
H782 C740 0.930 . S
H783 C741 0.930 . S
H784 C743 0.929 . S
H785 C744 0.930 . S
H786 C745 0.930 . S
H787 C746 0.930 . S
H788 C750 0.929 . S
H789 C752 0.930 . S
H790 C758 0.929 . S
H791 C759 0.930 . S
Li792 N809 1.990 . S
Li792 O852 1.956 . S
Li792 O853 1.970 . S
Li792 O854 1.961 . S
Li793 N817 1.990 . S
Li793 O852 1.970 . S
Li793 O853 1.956 . S
Li793 O855 1.961 . S
Li794 N839 1.990 . S
Li794 O852 1.961 . S
Li794 O854 1.956 . S
Li794 O855 1.970 . S
Li795 N845 1.990 . S
Li795 O853 1.961 . S
Li795 O854 1.970 . S
Li795 O855 1.956 . S
C796 C798 1.348 . S
C796 C799 1.356 . S
C796 O852 1.325 . S
N797 C800 1.314 . S
N797 C801 1.279 . S
C798 C796 1.348 . S
C798 C800 1.353 . S
C798 H856 0.929 . S
C799 C796 1.356 . S
C799 C801 1.358 . S
C799 H857 0.930 . S
C800 N797 1.314 . S
C800 C798 1.353 . S
C800 H858 0.930 . S
C801 N797 1.279 . S
C801 C799 1.358 . S
C801 H859 0.930 . S
C802 C805 1.348 . S
C802 C806 1.356 . S
C802 O853 1.325 . S
C803 N804 1.279 . S
C803 C806 1.358 . S
C803 H860 0.930 . S
N804 C803 1.279 . S
N804 C807 1.314 . S
C805 C802 1.348 . S
C805 C807 1.353 . S
C805 H861 0.929 . S
C806 C802 1.356 . S
C806 C803 1.358 . S
C806 H862 0.930 . S
C807 N804 1.314 . S
C807 C805 1.353 . S
C807 H863 0.930 . S
C808 N809 1.314 . S
C808 C813 1.353 . S
C808 H814 0.930 . S
N809 Li792 1.990 . S
N809 C808 1.314 . S
N809 C811 1.279 . S
C810 C811 1.358 . S
C810 C812 1.356 . S
C810 H864 0.930 . S
C811 N809 1.279 . S
C811 C810 1.358 . S
C811 H815 0.930 . S
C812 C810 1.356 . S
C812 C813 1.348 . S
C813 C808 1.353 . S
C813 C812 1.348 . S
C813 H865 0.929 . S
H814 C808 0.930 . S
H815 C811 0.930 . S
C816 N817 1.314 . S
C816 C818 1.353 . S
C816 H822 0.930 . S
N817 Li793 1.990 . S
N817 C816 1.314 . S
N817 C820 1.279 . S
C818 C816 1.353 . S
C818 C821 1.348 . S
C818 H866 0.929 . S
C819 C820 1.358 . S
C819 C821 1.356 . S
C819 H867 0.930 . S
C820 N817 1.279 . S
C820 C819 1.358 . S
C820 H823 0.930 . S
C821 C818 1.348 . S
C821 C819 1.356 . S
H822 C816 0.930 . S
H823 C820 0.930 . S
C824 C826 1.348 . S
C824 C827 1.356 . S
C824 O854 1.325 . S
N825 C828 1.314 . S
N825 C829 1.279 . S
C826 C824 1.348 . S
C826 C828 1.353 . S
C826 H868 0.929 . S
C827 C824 1.356 . S
C827 C829 1.358 . S
C827 H869 0.930 . S
C828 N825 1.314 . S
C828 C826 1.353 . S
C828 H870 0.930 . S
C829 N825 1.279 . S
C829 C827 1.358 . S
C829 H871 0.930 . S
C830 C831 1.348 . S
C830 C832 1.356 . S
C830 O855 1.325 . S
C831 C830 1.348 . S
C831 C833 1.353 . S
C831 H872 0.929 . S
C832 C830 1.356 . S
C832 C834 1.358 . S
C832 H873 0.930 . S
C833 C831 1.353 . S
C833 N835 1.314 . S
C833 H874 0.930 . S
C834 C832 1.358 . S
C834 N835 1.279 . S
C834 H875 0.930 . S
N835 C833 1.314 . S
N835 C834 1.279 . S
C836 C838 1.353 . S
C836 N839 1.314 . S
C836 H842 0.930 . S
C837 N839 1.279 . S
C837 C840 1.358 . S
C837 H843 0.930 . S
C838 C836 1.353 . S
C838 C841 1.348 . S
C838 H876 0.929 . S
N839 Li794 1.990 . S
N839 C836 1.314 . S
N839 C837 1.279 . S
C840 C837 1.358 . S
C840 C841 1.356 . S
C840 H877 0.930 . S
C841 C838 1.348 . S
C841 C840 1.356 . S
H842 C836 0.930 . S
H843 C837 0.930 . S
C844 N845 1.314 . S
C844 C846 1.353 . S
C844 H850 0.930 . S
N845 Li795 1.990 . S
N845 C844 1.314 . S
N845 C848 1.279 . S
C846 C844 1.353 . S
C846 C849 1.348 . S
C846 H878 0.929 . S
C847 C848 1.358 . S
C847 C849 1.356 . S
C847 H879 0.930 . S
C848 N845 1.279 . S
C848 C847 1.358 . S
C848 H851 0.930 . S
C849 C846 1.348 . S
C849 C847 1.356 . S
H850 C844 0.930 . S
H851 C848 0.930 . S
O852 Li792 1.956 . S
O852 Li793 1.970 . S
O852 Li794 1.961 . S
O852 C796 1.325 . S
O853 Li792 1.970 . S
O853 Li793 1.956 . S
O853 Li795 1.961 . S
O853 C802 1.325 . S
O854 Li792 1.961 . S
O854 Li794 1.956 . S
O854 Li795 1.970 . S
O854 C824 1.325 . S
O855 Li793 1.961 . S
O855 Li794 1.970 . S
O855 Li795 1.956 . S
O855 C830 1.325 . S
H856 C798 0.929 . S
H857 C799 0.930 . S
H858 C800 0.930 . S
H859 C801 0.930 . S
H860 C803 0.930 . S
H861 C805 0.929 . S
H862 C806 0.930 . S
H863 C807 0.930 . S
H864 C810 0.930 . S
H865 C813 0.929 . S
H866 C818 0.929 . S
H867 C819 0.930 . S
H868 C826 0.929 . S
H869 C827 0.930 . S
H870 C828 0.930 . S
H871 C829 0.930 . S
H872 C831 0.929 . S
H873 C832 0.930 . S
H874 C833 0.930 . S
H875 C834 0.930 . S
H876 C838 0.929 . S
H877 C840 0.930 . S
H878 C846 0.929 . S
H879 C847 0.930 . S
Li880 N897 1.990 . S
Li880 O940 1.956 . S
Li880 O941 1.970 . S
Li880 O942 1.961 . S
Li881 N905 1.990 . S
Li881 O940 1.970 . S
Li881 O941 1.956 . S
Li881 O943 1.961 . S
Li882 N927 1.990 . S
Li882 O940 1.961 . S
Li882 O942 1.956 . S
Li882 O943 1.970 . S
Li883 N933 1.990 . S
Li883 O941 1.961 . S
Li883 O942 1.970 . S
Li883 O943 1.956 . S
C884 C886 1.348 . S
C884 C887 1.356 . S
C884 O940 1.325 . S
N885 C888 1.314 . S
N885 C889 1.279 . S
C886 C884 1.348 . S
C886 C888 1.353 . S
C886 H944 0.929 . S
C887 C884 1.356 . S
C887 C889 1.358 . S
C887 H945 0.930 . S
C888 N885 1.314 . S
C888 C886 1.353 . S
C888 H946 0.930 . S
C889 N885 1.279 . S
C889 C887 1.358 . S
C889 H947 0.930 . S
C890 C893 1.348 . S
C890 C894 1.356 . S
C890 O941 1.325 . S
C891 N892 1.279 . S
C891 C894 1.358 . S
C891 H948 0.930 . S
N892 C891 1.279 . S
N892 C895 1.314 . S
C893 C890 1.348 . S
C893 C895 1.353 . S
C893 H949 0.929 . S
C894 C890 1.356 . S
C894 C891 1.358 . S
C894 H950 0.930 . S
C895 N892 1.314 . S
C895 C893 1.353 . S
C895 H951 0.930 . S
C896 N897 1.314 . S
C896 C901 1.353 . S
C896 H902 0.930 . S
N897 Li880 1.990 . S
N897 C896 1.314 . S
N897 C899 1.279 . S
C898 C899 1.358 . S
C898 C900 1.356 . S
C898 H952 0.930 . S
C899 N897 1.279 . S
C899 C898 1.358 . S
C899 H903 0.930 . S
C900 C898 1.356 . S
C900 C901 1.348 . S
C901 C896 1.353 . S
C901 C900 1.348 . S
C901 H953 0.929 . S
H902 C896 0.930 . S
H903 C899 0.930 . S
C904 N905 1.314 . S
C904 C906 1.353 . S
C904 H910 0.930 . S
N905 Li881 1.990 . S
N905 C904 1.314 . S
N905 C908 1.279 . S
C906 C904 1.353 . S
C906 C909 1.348 . S
C906 H954 0.929 . S
C907 C908 1.358 . S
C907 C909 1.356 . S
C907 H955 0.930 . S
C908 N905 1.279 . S
C908 C907 1.358 . S
C908 H911 0.930 . S
C909 C906 1.348 . S
C909 C907 1.356 . S
H910 C904 0.930 . S
H911 C908 0.930 . S
C912 C914 1.348 . S
C912 C915 1.356 . S
C912 O942 1.325 . S
N913 C916 1.314 . S
N913 C917 1.279 . S
C914 C912 1.348 . S
C914 C916 1.353 . S
C914 H956 0.929 . S
C915 C912 1.356 . S
C915 C917 1.358 . S
C915 H957 0.930 . S
C916 N913 1.314 . S
C916 C914 1.353 . S
C916 H958 0.930 . S
C917 N913 1.279 . S
C917 C915 1.358 . S
C917 H959 0.930 . S
C918 C919 1.348 . S
C918 C920 1.356 . S
C918 O943 1.325 . S
C919 C918 1.348 . S
C919 C921 1.353 . S
C919 H960 0.929 . S
C920 C918 1.356 . S
C920 C922 1.358 . S
C920 H961 0.930 . S
C921 C919 1.353 . S
C921 N923 1.314 . S
C921 H962 0.930 . S
C922 C920 1.358 . S
C922 N923 1.279 . S
C922 H963 0.930 . S
N923 C921 1.314 . S
N923 C922 1.279 . S
C924 C926 1.353 . S
C924 N927 1.314 . S
C924 H930 0.930 . S
C925 N927 1.279 . S
C925 C928 1.358 . S
C925 H931 0.930 . S
C926 C924 1.353 . S
C926 C929 1.348 . S
C926 H964 0.929 . S
N927 Li882 1.990 . S
N927 C924 1.314 . S
N927 C925 1.279 . S
C928 C925 1.358 . S
C928 C929 1.356 . S
C928 H965 0.930 . S
C929 C926 1.348 . S
C929 C928 1.356 . S
H930 C924 0.930 . S
H931 C925 0.930 . S
C932 N933 1.314 . S
C932 C934 1.353 . S
C932 H938 0.930 . S
N933 Li883 1.990 . S
N933 C932 1.314 . S
N933 C936 1.279 . S
C934 C932 1.353 . S
C934 C937 1.348 . S
C934 H966 0.929 . S
C935 C936 1.358 . S
C935 C937 1.356 . S
C935 H967 0.930 . S
C936 N933 1.279 . S
C936 C935 1.358 . S
C936 H939 0.930 . S
C937 C934 1.348 . S
C937 C935 1.356 . S
H938 C932 0.930 . S
H939 C936 0.930 . S
O940 Li880 1.956 . S
O940 Li881 1.970 . S
O940 Li882 1.961 . S
O940 C884 1.325 . S
O941 Li880 1.970 . S
O941 Li881 1.956 . S
O941 Li883 1.961 . S
O941 C890 1.325 . S
O942 Li880 1.961 . S
O942 Li882 1.956 . S
O942 Li883 1.970 . S
O942 C912 1.325 . S
O943 Li881 1.961 . S
O943 Li882 1.970 . S
O943 Li883 1.956 . S
O943 C918 1.325 . S
H944 C886 0.929 . S
H945 C887 0.930 . S
H946 C888 0.930 . S
H947 C889 0.930 . S
H948 C891 0.930 . S
H949 C893 0.929 . S
H950 C894 0.930 . S
H951 C895 0.930 . S
H952 C898 0.930 . S
H953 C901 0.929 . S
H954 C906 0.929 . S
H955 C907 0.930 . S
H956 C914 0.929 . S
H957 C915 0.930 . S
H958 C916 0.930 . S
H959 C917 0.930 . S
H960 C919 0.929 . S
H961 C920 0.930 . S
H962 C921 0.930 . S
H963 C922 0.930 . S
H964 C926 0.929 . S
H965 C928 0.930 . S
H966 C934 0.929 . S
H967 C935 0.930 . S
Li968 N985 1.990 . S
Li968 O1028 1.956 . S
Li968 O1029 1.970 . S
Li968 O1030 1.961 . S
Li969 N993 1.990 . S
Li969 O1028 1.970 . S
Li969 O1029 1.956 . S
Li969 O1031 1.961 . S
Li970 N1015 1.990 . S
Li970 O1028 1.961 . S
Li970 O1030 1.956 . S
Li970 O1031 1.970 . S
Li971 N1021 1.990 . S
Li971 O1029 1.961 . S
Li971 O1030 1.970 . S
Li971 O1031 1.956 . S
C972 C974 1.348 . S
C972 C975 1.356 . S
C972 O1028 1.325 . S
N973 C976 1.314 . S
N973 C977 1.279 . S
C974 C972 1.348 . S
C974 C976 1.353 . S
C974 H1032 0.929 . S
C975 C972 1.356 . S
C975 C977 1.358 . S
C975 H1033 0.930 . S
C976 N973 1.314 . S
C976 C974 1.353 . S
C976 H1034 0.930 . S
C977 N973 1.279 . S
C977 C975 1.358 . S
C977 H1035 0.930 . S
C978 C981 1.348 . S
C978 C982 1.356 . S
C978 O1029 1.325 . S
C979 N980 1.279 . S
C979 C982 1.358 . S
C979 H1036 0.930 . S
N980 C979 1.279 . S
N980 C983 1.314 . S
C981 C978 1.348 . S
C981 C983 1.353 . S
C981 H1037 0.929 . S
C982 C978 1.356 . S
C982 C979 1.358 . S
C982 H1038 0.930 . S
C983 N980 1.314 . S
C983 C981 1.353 . S
C983 H1039 0.930 . S
C984 N985 1.314 . S
C984 C989 1.353 . S
C984 H990 0.930 . S
N985 Li968 1.990 . S
N985 C984 1.314 . S
N985 C987 1.279 . S
C986 C987 1.358 . S
C986 C988 1.356 . S
C986 H1040 0.930 . S
C987 N985 1.279 . S
C987 C986 1.358 . S
C987 H991 0.930 . S
C988 C986 1.356 . S
C988 C989 1.348 . S
C989 C984 1.353 . S
C989 C988 1.348 . S
C989 H1041 0.929 . S
H990 C984 0.930 . S
H991 C987 0.930 . S
C992 N993 1.314 . S
C992 C994 1.353 . S
C992 H998 0.930 . S
N993 Li969 1.990 . S
N993 C992 1.314 . S
N993 C996 1.279 . S
C994 C992 1.353 . S
C994 C997 1.348 . S
C994 H1042 0.929 . S
C995 C996 1.358 . S
C995 C997 1.356 . S
C995 H1043 0.930 . S
C996 N993 1.279 . S
C996 C995 1.358 . S
C996 H999 0.930 . S
C997 C994 1.348 . S
C997 C995 1.356 . S
H998 C992 0.930 . S
H999 C996 0.930 . S
C1000 C1002 1.348 . S
C1000 C1003 1.356 . S
C1000 O1030 1.325 . S
N1001 C1004 1.314 . S
N1001 C1005 1.279 . S
C1002 C1000 1.348 . S
C1002 C1004 1.353 . S
C1002 H1044 0.929 . S
C1003 C1000 1.356 . S
C1003 C1005 1.358 . S
C1003 H1045 0.930 . S
C1004 N1001 1.314 . S
C1004 C1002 1.353 . S
C1004 H1046 0.930 . S
C1005 N1001 1.279 . S
C1005 C1003 1.358 . S
C1005 H1047 0.930 . S
C1006 C1007 1.348 . S
C1006 C1008 1.356 . S
C1006 O1031 1.325 . S
C1007 C1006 1.348 . S
C1007 C1009 1.353 . S
C1007 H1048 0.929 . S
C1008 C1006 1.356 . S
C1008 C1010 1.358 . S
C1008 H1049 0.930 . S
C1009 C1007 1.353 . S
C1009 N1011 1.314 . S
C1009 H1050 0.930 . S
C1010 C1008 1.358 . S
C1010 N1011 1.279 . S
C1010 H1051 0.930 . S
N1011 C1009 1.314 . S
N1011 C1010 1.279 . S
C1012 C1014 1.353 . S
C1012 N1015 1.314 . S
C1012 H1018 0.930 . S
C1013 N1015 1.279 . S
C1013 C1016 1.358 . S
C1013 H1019 0.930 . S
C1014 C1012 1.353 . S
C1014 C1017 1.348 . S
C1014 H1052 0.929 . S
N1015 Li970 1.990 . S
N1015 C1012 1.314 . S
N1015 C1013 1.279 . S
C1016 C1013 1.358 . S
C1016 C1017 1.356 . S
C1016 H1053 0.930 . S
C1017 C1014 1.348 . S
C1017 C1016 1.356 . S
H1018 C1012 0.930 . S
H1019 C1013 0.930 . S
C1020 N1021 1.314 . S
C1020 C1022 1.353 . S
C1020 H1026 0.930 . S
N1021 Li971 1.990 . S
N1021 C1020 1.314 . S
N1021 C1024 1.279 . S
C1022 C1020 1.353 . S
C1022 C1025 1.348 . S
C1022 H1054 0.929 . S
C1023 C1024 1.358 . S
C1023 C1025 1.356 . S
C1023 H1055 0.930 . S
C1024 N1021 1.279 . S
C1024 C1023 1.358 . S
C1024 H1027 0.930 . S
C1025 C1022 1.348 . S
C1025 C1023 1.356 . S
H1026 C1020 0.930 . S
H1027 C1024 0.930 . S
O1028 Li968 1.956 . S
O1028 Li969 1.970 . S
O1028 Li970 1.961 . S
O1028 C972 1.325 . S
O1029 Li968 1.970 . S
O1029 Li969 1.956 . S
O1029 Li971 1.961 . S
O1029 C978 1.325 . S
O1030 Li968 1.961 . S
O1030 Li970 1.956 . S
O1030 Li971 1.970 . S
O1030 C1000 1.325 . S
O1031 Li969 1.961 . S
O1031 Li970 1.970 . S
O1031 Li971 1.956 . S
O1031 C1006 1.325 . S
H1032 C974 0.929 . S
H1033 C975 0.930 . S
H1034 C976 0.930 . S
H1035 C977 0.930 . S
H1036 C979 0.930 . S
H1037 C981 0.929 . S
H1038 C982 0.930 . S
H1039 C983 0.930 . S
H1040 C986 0.930 . S
H1041 C989 0.929 . S
H1042 C994 0.929 . S
H1043 C995 0.930 . S
H1044 C1002 0.929 . S
H1045 C1003 0.930 . S
H1046 C1004 0.930 . S
H1047 C1005 0.930 . S
H1048 C1007 0.929 . S
H1049 C1008 0.930 . S
H1050 C1009 0.930 . S
H1051 C1010 0.930 . S
H1052 C1014 0.929 . S
H1053 C1016 0.930 . S
H1054 C1022 0.929 . S
H1055 C1023 0.930 . S
Li1056 N1073 1.990 . S
Li1056 O1116 1.956 . S
Li1056 O1117 1.970 . S
Li1056 O1118 1.961 . S
Li1057 N1081 1.990 . S
Li1057 O1116 1.970 . S
Li1057 O1117 1.956 . S
Li1057 O1119 1.961 . S
Li1058 N1103 1.990 . S
Li1058 O1116 1.961 . S
Li1058 O1118 1.956 . S
Li1058 O1119 1.970 . S
Li1059 N1109 1.990 . S
Li1059 O1117 1.961 . S
Li1059 O1118 1.970 . S
Li1059 O1119 1.956 . S
C1060 C1062 1.348 . S
C1060 C1063 1.356 . S
C1060 O1116 1.325 . S
N1061 C1064 1.314 . S
N1061 C1065 1.279 . S
C1062 C1060 1.348 . S
C1062 C1064 1.353 . S
C1062 H1120 0.929 . S
C1063 C1060 1.356 . S
C1063 C1065 1.358 . S
C1063 H1121 0.930 . S
C1064 N1061 1.314 . S
C1064 C1062 1.353 . S
C1064 H1122 0.930 . S
C1065 N1061 1.279 . S
C1065 C1063 1.358 . S
C1065 H1123 0.930 . S
C1066 C1069 1.348 . S
C1066 C1070 1.356 . S
C1066 O1117 1.325 . S
C1067 N1068 1.279 . S
C1067 C1070 1.358 . S
C1067 H1124 0.930 . S
N1068 C1067 1.279 . S
N1068 C1071 1.314 . S
C1069 C1066 1.348 . S
C1069 C1071 1.353 . S
C1069 H1125 0.929 . S
C1070 C1066 1.356 . S
C1070 C1067 1.358 . S
C1070 H1126 0.930 . S
C1071 N1068 1.314 . S
C1071 C1069 1.353 . S
C1071 H1127 0.930 . S
C1072 N1073 1.314 . S
C1072 C1077 1.353 . S
C1072 H1078 0.930 . S
N1073 Li1056 1.990 . S
N1073 C1072 1.314 . S
N1073 C1075 1.279 . S
C1074 C1075 1.358 . S
C1074 C1076 1.356 . S
C1074 H1128 0.930 . S
C1075 N1073 1.279 . S
C1075 C1074 1.358 . S
C1075 H1079 0.930 . S
C1076 C1074 1.356 . S
C1076 C1077 1.348 . S
C1077 C1072 1.353 . S
C1077 C1076 1.348 . S
C1077 H1129 0.929 . S
H1078 C1072 0.930 . S
H1079 C1075 0.930 . S
C1080 N1081 1.314 . S
C1080 C1082 1.353 . S
C1080 H1086 0.930 . S
N1081 Li1057 1.990 . S
N1081 C1080 1.314 . S
N1081 C1084 1.279 . S
C1082 C1080 1.353 . S
C1082 C1085 1.348 . S
C1082 H1130 0.929 . S
C1083 C1084 1.358 . S
C1083 C1085 1.356 . S
C1083 H1131 0.930 . S
C1084 N1081 1.279 . S
C1084 C1083 1.358 . S
C1084 H1087 0.930 . S
C1085 C1082 1.348 . S
C1085 C1083 1.356 . S
H1086 C1080 0.930 . S
H1087 C1084 0.930 . S
C1088 C1090 1.348 . S
C1088 C1091 1.356 . S
C1088 O1118 1.325 . S
N1089 C1092 1.314 . S
N1089 C1093 1.279 . S
C1090 C1088 1.348 . S
C1090 C1092 1.353 . S
C1090 H1132 0.929 . S
C1091 C1088 1.356 . S
C1091 C1093 1.358 . S
C1091 H1133 0.930 . S
C1092 N1089 1.314 . S
C1092 C1090 1.353 . S
C1092 H1134 0.930 . S
C1093 N1089 1.279 . S
C1093 C1091 1.358 . S
C1093 H1135 0.930 . S
C1094 C1095 1.348 . S
C1094 C1096 1.356 . S
C1094 O1119 1.325 . S
C1095 C1094 1.348 . S
C1095 C1097 1.353 . S
C1095 H1136 0.929 . S
C1096 C1094 1.356 . S
C1096 C1098 1.358 . S
C1096 H1137 0.930 . S
C1097 C1095 1.353 . S
C1097 N1099 1.314 . S
C1097 H1138 0.930 . S
C1098 C1096 1.358 . S
C1098 N1099 1.279 . S
C1098 H1139 0.930 . S
N1099 C1097 1.314 . S
N1099 C1098 1.279 . S
C1100 C1102 1.353 . S
C1100 N1103 1.314 . S
C1100 H1106 0.930 . S
C1101 N1103 1.279 . S
C1101 C1104 1.358 . S
C1101 H1107 0.930 . S
C1102 C1100 1.353 . S
C1102 C1105 1.348 . S
C1102 H1140 0.929 . S
N1103 Li1058 1.990 . S
N1103 C1100 1.314 . S
N1103 C1101 1.279 . S
C1104 C1101 1.358 . S
C1104 C1105 1.356 . S
C1104 H1141 0.930 . S
C1105 C1102 1.348 . S
C1105 C1104 1.356 . S
H1106 C1100 0.930 . S
H1107 C1101 0.930 . S
C1108 N1109 1.314 . S
C1108 C1110 1.353 . S
C1108 H1114 0.930 . S
N1109 Li1059 1.990 . S
N1109 C1108 1.314 . S
N1109 C1112 1.279 . S
C1110 C1108 1.353 . S
C1110 C1113 1.348 . S
C1110 H1142 0.929 . S
C1111 C1112 1.358 . S
C1111 C1113 1.356 . S
C1111 H1143 0.930 . S
C1112 N1109 1.279 . S
C1112 C1111 1.358 . S
C1112 H1115 0.930 . S
C1113 C1110 1.348 . S
C1113 C1111 1.356 . S
H1114 C1108 0.930 . S
H1115 C1112 0.930 . S
O1116 Li1056 1.956 . S
O1116 Li1057 1.970 . S
O1116 Li1058 1.961 . S
O1116 C1060 1.325 . S
O1117 Li1056 1.970 . S
O1117 Li1057 1.956 . S
O1117 Li1059 1.961 . S
O1117 C1066 1.325 . S
O1118 Li1056 1.961 . S
O1118 Li1058 1.956 . S
O1118 Li1059 1.970 . S
O1118 C1088 1.325 . S
O1119 Li1057 1.961 . S
O1119 Li1058 1.970 . S
O1119 Li1059 1.956 . S
O1119 C1094 1.325 . S
H1120 C1062 0.929 . S
H1121 C1063 0.930 . S
H1122 C1064 0.930 . S
H1123 C1065 0.930 . S
H1124 C1067 0.930 . S
H1125 C1069 0.929 . S
H1126 C1070 0.930 . S
H1127 C1071 0.930 . S
H1128 C1074 0.930 . S
H1129 C1077 0.929 . S
H1130 C1082 0.929 . S
H1131 C1083 0.930 . S
H1132 C1090 0.929 . S
H1133 C1091 0.930 . S
H1134 C1092 0.930 . S
H1135 C1093 0.930 . S
H1136 C1095 0.929 . S
H1137 C1096 0.930 . S
H1138 C1097 0.930 . S
H1139 C1098 0.930 . S
H1140 C1102 0.929 . S
H1141 C1104 0.930 . S
H1142 C1110 0.929 . S
H1143 C1111 0.930 . S
Li1144 N1161 1.990 . S
Li1144 O1204 1.956 . S
Li1144 O1205 1.970 . S
Li1144 O1206 1.961 . S
Li1145 N1169 1.990 . S
Li1145 O1204 1.970 . S
Li1145 O1205 1.956 . S
Li1145 O1207 1.961 . S
Li1146 N1191 1.990 . S
Li1146 O1204 1.961 . S
Li1146 O1206 1.956 . S
Li1146 O1207 1.970 . S
Li1147 N1197 1.990 . S
Li1147 O1205 1.961 . S
Li1147 O1206 1.970 . S
Li1147 O1207 1.956 . S
C1148 C1150 1.348 . S
C1148 C1151 1.356 . S
C1148 O1204 1.325 . S
N1149 C1152 1.314 . S
N1149 C1153 1.279 . S
C1150 C1148 1.348 . S
C1150 C1152 1.353 . S
C1150 H1208 0.929 . S
C1151 C1148 1.356 . S
C1151 C1153 1.358 . S
C1151 H1209 0.930 . S
C1152 N1149 1.314 . S
C1152 C1150 1.353 . S
C1152 H1210 0.930 . S
C1153 N1149 1.279 . S
C1153 C1151 1.358 . S
C1153 H1211 0.930 . S
C1154 C1157 1.348 . S
C1154 C1158 1.356 . S
C1154 O1205 1.325 . S
C1155 N1156 1.279 . S
C1155 C1158 1.358 . S
C1155 H1212 0.930 . S
N1156 C1155 1.279 . S
N1156 C1159 1.314 . S
C1157 C1154 1.348 . S
C1157 C1159 1.353 . S
C1157 H1213 0.929 . S
C1158 C1154 1.356 . S
C1158 C1155 1.358 . S
C1158 H1214 0.930 . S
C1159 N1156 1.314 . S
C1159 C1157 1.353 . S
C1159 H1215 0.930 . S
C1160 N1161 1.314 . S
C1160 C1165 1.353 . S
C1160 H1166 0.930 . S
N1161 Li1144 1.990 . S
N1161 C1160 1.314 . S
N1161 C1163 1.279 . S
C1162 C1163 1.358 . S
C1162 C1164 1.356 . S
C1162 H1216 0.930 . S
C1163 N1161 1.279 . S
C1163 C1162 1.358 . S
C1163 H1167 0.930 . S
C1164 C1162 1.356 . S
C1164 C1165 1.348 . S
C1165 C1160 1.353 . S
C1165 C1164 1.348 . S
C1165 H1217 0.929 . S
H1166 C1160 0.930 . S
H1167 C1163 0.930 . S
C1168 N1169 1.314 . S
C1168 C1170 1.353 . S
C1168 H1174 0.930 . S
N1169 Li1145 1.990 . S
N1169 C1168 1.314 . S
N1169 C1172 1.279 . S
C1170 C1168 1.353 . S
C1170 C1173 1.348 . S
C1170 H1218 0.929 . S
C1171 C1172 1.358 . S
C1171 C1173 1.356 . S
C1171 H1219 0.930 . S
C1172 N1169 1.279 . S
C1172 C1171 1.358 . S
C1172 H1175 0.930 . S
C1173 C1170 1.348 . S
C1173 C1171 1.356 . S
H1174 C1168 0.930 . S
H1175 C1172 0.930 . S
C1176 C1178 1.348 . S
C1176 C1179 1.356 . S
C1176 O1206 1.325 . S
N1177 C1180 1.314 . S
N1177 C1181 1.279 . S
C1178 C1176 1.348 . S
C1178 C1180 1.353 . S
C1178 H1220 0.929 . S
C1179 C1176 1.356 . S
C1179 C1181 1.358 . S
C1179 H1221 0.930 . S
C1180 N1177 1.314 . S
C1180 C1178 1.353 . S
C1180 H1222 0.930 . S
C1181 N1177 1.279 . S
C1181 C1179 1.358 . S
C1181 H1223 0.930 . S
C1182 C1183 1.348 . S
C1182 C1184 1.356 . S
C1182 O1207 1.325 . S
C1183 C1182 1.348 . S
C1183 C1185 1.353 . S
C1183 H1224 0.929 . S
C1184 C1182 1.356 . S
C1184 C1186 1.358 . S
C1184 H1225 0.930 . S
C1185 C1183 1.353 . S
C1185 N1187 1.314 . S
C1185 H1226 0.930 . S
C1186 C1184 1.358 . S
C1186 N1187 1.279 . S
C1186 H1227 0.930 . S
N1187 C1185 1.314 . S
N1187 C1186 1.279 . S
C1188 C1190 1.353 . S
C1188 N1191 1.314 . S
C1188 H1194 0.930 . S
C1189 N1191 1.279 . S
C1189 C1192 1.358 . S
C1189 H1195 0.930 . S
C1190 C1188 1.353 . S
C1190 C1193 1.348 . S
C1190 H1228 0.929 . S
N1191 Li1146 1.990 . S
N1191 C1188 1.314 . S
N1191 C1189 1.279 . S
C1192 C1189 1.358 . S
C1192 C1193 1.356 . S
C1192 H1229 0.930 . S
C1193 C1190 1.348 . S
C1193 C1192 1.356 . S
H1194 C1188 0.930 . S
H1195 C1189 0.930 . S
C1196 N1197 1.314 . S
C1196 C1198 1.353 . S
C1196 H1202 0.930 . S
N1197 Li1147 1.990 . S
N1197 C1196 1.314 . S
N1197 C1200 1.279 . S
C1198 C1196 1.353 . S
C1198 C1201 1.348 . S
C1198 H1230 0.929 . S
C1199 C1200 1.358 . S
C1199 C1201 1.356 . S
C1199 H1231 0.930 . S
C1200 N1197 1.279 . S
C1200 C1199 1.358 . S
C1200 H1203 0.930 . S
C1201 C1198 1.348 . S
C1201 C1199 1.356 . S
H1202 C1196 0.930 . S
H1203 C1200 0.930 . S
O1204 Li1144 1.956 . S
O1204 Li1145 1.970 . S
O1204 Li1146 1.961 . S
O1204 C1148 1.325 . S
O1205 Li1144 1.970 . S
O1205 Li1145 1.956 . S
O1205 Li1147 1.961 . S
O1205 C1154 1.325 . S
O1206 Li1144 1.961 . S
O1206 Li1146 1.956 . S
O1206 Li1147 1.970 . S
O1206 C1176 1.325 . S
O1207 Li1145 1.961 . S
O1207 Li1146 1.970 . S
O1207 Li1147 1.956 . S
O1207 C1182 1.325 . S
H1208 C1150 0.929 . S
H1209 C1151 0.930 . S
H1210 C1152 0.930 . S
H1211 C1153 0.930 . S
H1212 C1155 0.930 . S
H1213 C1157 0.929 . S
H1214 C1158 0.930 . S
H1215 C1159 0.930 . S
H1216 C1162 0.930 . S
H1217 C1165 0.929 . S
H1218 C1170 0.929 . S
H1219 C1171 0.930 . S
H1220 C1178 0.929 . S
H1221 C1179 0.930 . S
H1222 C1180 0.930 . S
H1223 C1181 0.930 . S
H1224 C1183 0.929 . S
H1225 C1184 0.930 . S
H1226 C1185 0.930 . S
H1227 C1186 0.930 . S
H1228 C1190 0.929 . S
H1229 C1192 0.930 . S
H1230 C1198 0.929 . S
H1231 C1199 0.930 . S
Li1232 N1249 1.990 . S
Li1232 O1292 1.956 . S
Li1232 O1293 1.970 . S
Li1232 O1294 1.961 . S
Li1233 N1257 1.990 . S
Li1233 O1292 1.970 . S
Li1233 O1293 1.956 . S
Li1233 O1295 1.961 . S
Li1234 N1279 1.990 . S
Li1234 O1292 1.961 . S
Li1234 O1294 1.956 . S
Li1234 O1295 1.970 . S
Li1235 N1285 1.990 . S
Li1235 O1293 1.961 . S
Li1235 O1294 1.970 . S
Li1235 O1295 1.956 . S
C1236 C1238 1.348 . S
C1236 C1239 1.356 . S
C1236 O1292 1.325 . S
N1237 C1240 1.314 . S
N1237 C1241 1.279 . S
C1238 C1236 1.348 . S
C1238 C1240 1.353 . S
C1238 H1296 0.929 . S
C1239 C1236 1.356 . S
C1239 C1241 1.358 . S
C1239 H1297 0.930 . S
C1240 N1237 1.314 . S
C1240 C1238 1.353 . S
C1240 H1298 0.930 . S
C1241 N1237 1.279 . S
C1241 C1239 1.358 . S
C1241 H1299 0.930 . S
C1242 C1245 1.348 . S
C1242 C1246 1.356 . S
C1242 O1293 1.325 . S
C1243 N1244 1.279 . S
C1243 C1246 1.358 . S
C1243 H1300 0.930 . S
N1244 C1243 1.279 . S
N1244 C1247 1.314 . S
C1245 C1242 1.348 . S
C1245 C1247 1.353 . S
C1245 H1301 0.929 . S
C1246 C1242 1.356 . S
C1246 C1243 1.358 . S
C1246 H1302 0.930 . S
C1247 N1244 1.314 . S
C1247 C1245 1.353 . S
C1247 H1303 0.930 . S
C1248 N1249 1.314 . S
C1248 C1253 1.353 . S
C1248 H1254 0.930 . S
N1249 Li1232 1.990 . S
N1249 C1248 1.314 . S
N1249 C1251 1.279 . S
C1250 C1251 1.358 . S
C1250 C1252 1.356 . S
C1250 H1304 0.930 . S
C1251 N1249 1.279 . S
C1251 C1250 1.358 . S
C1251 H1255 0.930 . S
C1252 C1250 1.356 . S
C1252 C1253 1.348 . S
C1253 C1248 1.353 . S
C1253 C1252 1.348 . S
C1253 H1305 0.929 . S
H1254 C1248 0.930 . S
H1255 C1251 0.930 . S
C1256 N1257 1.314 . S
C1256 C1258 1.353 . S
C1256 H1262 0.930 . S
N1257 Li1233 1.990 . S
N1257 C1256 1.314 . S
N1257 C1260 1.279 . S
C1258 C1256 1.353 . S
C1258 C1261 1.348 . S
C1258 H1306 0.929 . S
C1259 C1260 1.358 . S
C1259 C1261 1.356 . S
C1259 H1307 0.930 . S
C1260 N1257 1.279 . S
C1260 C1259 1.358 . S
C1260 H1263 0.930 . S
C1261 C1258 1.348 . S
C1261 C1259 1.356 . S
H1262 C1256 0.930 . S
H1263 C1260 0.930 . S
C1264 C1266 1.348 . S
C1264 C1267 1.356 . S
C1264 O1294 1.325 . S
N1265 C1268 1.314 . S
N1265 C1269 1.279 . S
C1266 C1264 1.348 . S
C1266 C1268 1.353 . S
C1266 H1308 0.929 . S
C1267 C1264 1.356 . S
C1267 C1269 1.358 . S
C1267 H1309 0.930 . S
C1268 N1265 1.314 . S
C1268 C1266 1.353 . S
C1268 H1310 0.930 . S
C1269 N1265 1.279 . S
C1269 C1267 1.358 . S
C1269 H1311 0.930 . S
C1270 C1271 1.348 . S
C1270 C1272 1.356 . S
C1270 O1295 1.325 . S
C1271 C1270 1.348 . S
C1271 C1273 1.353 . S
C1271 H1312 0.929 . S
C1272 C1270 1.356 . S
C1272 C1274 1.358 . S
C1272 H1313 0.930 . S
C1273 C1271 1.353 . S
C1273 N1275 1.314 . S
C1273 H1314 0.930 . S
C1274 C1272 1.358 . S
C1274 N1275 1.279 . S
C1274 H1315 0.930 . S
N1275 C1273 1.314 . S
N1275 C1274 1.279 . S
C1276 C1278 1.353 . S
C1276 N1279 1.314 . S
C1276 H1282 0.930 . S
C1277 N1279 1.279 . S
C1277 C1280 1.358 . S
C1277 H1283 0.930 . S
C1278 C1276 1.353 . S
C1278 C1281 1.348 . S
C1278 H1316 0.929 . S
N1279 Li1234 1.990 . S
N1279 C1276 1.314 . S
N1279 C1277 1.279 . S
C1280 C1277 1.358 . S
C1280 C1281 1.356 . S
C1280 H1317 0.930 . S
C1281 C1278 1.348 . S
C1281 C1280 1.356 . S
H1282 C1276 0.930 . S
H1283 C1277 0.930 . S
C1284 N1285 1.314 . S
C1284 C1286 1.353 . S
C1284 H1290 0.930 . S
N1285 Li1235 1.990 . S
N1285 C1284 1.314 . S
N1285 C1288 1.279 . S
C1286 C1284 1.353 . S
C1286 C1289 1.348 . S
C1286 H1318 0.929 . S
C1287 C1288 1.358 . S
C1287 C1289 1.356 . S
C1287 H1319 0.930 . S
C1288 N1285 1.279 . S
C1288 C1287 1.358 . S
C1288 H1291 0.930 . S
C1289 C1286 1.348 . S
C1289 C1287 1.356 . S
H1290 C1284 0.930 . S
H1291 C1288 0.930 . S
O1292 Li1232 1.956 . S
O1292 Li1233 1.970 . S
O1292 Li1234 1.961 . S
O1292 C1236 1.325 . S
O1293 Li1232 1.970 . S
O1293 Li1233 1.956 . S
O1293 Li1235 1.961 . S
O1293 C1242 1.325 . S
O1294 Li1232 1.961 . S
O1294 Li1234 1.956 . S
O1294 Li1235 1.970 . S
O1294 C1264 1.325 . S
O1295 Li1233 1.961 . S
O1295 Li1234 1.970 . S
O1295 Li1235 1.956 . S
O1295 C1270 1.325 . S
H1296 C1238 0.929 . S
H1297 C1239 0.930 . S
H1298 C1240 0.930 . S
H1299 C1241 0.930 . S
H1300 C1243 0.930 . S
H1301 C1245 0.929 . S
H1302 C1246 0.930 . S
H1303 C1247 0.930 . S
H1304 C1250 0.930 . S
H1305 C1253 0.929 . S
H1306 C1258 0.929 . S
H1307 C1259 0.930 . S
H1308 C1266 0.929 . S
H1309 C1267 0.930 . S
H1310 C1268 0.930 . S
H1311 C1269 0.930 . S
H1312 C1271 0.929 . S
H1313 C1272 0.930 . S
H1314 C1273 0.930 . S
H1315 C1274 0.930 . S
H1316 C1278 0.929 . S
H1317 C1280 0.930 . S
H1318 C1286 0.929 . S
H1319 C1287 0.930 . S
Li1320 N1337 1.990 . S
Li1320 O1380 1.956 . S
Li1320 O1381 1.970 . S
Li1320 O1382 1.961 . S
Li1321 N1345 1.990 . S
Li1321 O1380 1.970 . S
Li1321 O1381 1.956 . S
Li1321 O1383 1.961 . S
Li1322 N1367 1.990 . S
Li1322 O1380 1.961 . S
Li1322 O1382 1.956 . S
Li1322 O1383 1.970 . S
Li1323 N1373 1.990 . S
Li1323 O1381 1.961 . S
Li1323 O1382 1.970 . S
Li1323 O1383 1.956 . S
C1324 C1326 1.348 . S
C1324 C1327 1.356 . S
C1324 O1380 1.325 . S
N1325 C1328 1.314 . S
N1325 C1329 1.279 . S
C1326 C1324 1.348 . S
C1326 C1328 1.353 . S
C1326 H1384 0.929 . S
C1327 C1324 1.356 . S
C1327 C1329 1.358 . S
C1327 H1385 0.930 . S
C1328 N1325 1.314 . S
C1328 C1326 1.353 . S
C1328 H1386 0.930 . S
C1329 N1325 1.279 . S
C1329 C1327 1.358 . S
C1329 H1387 0.930 . S
C1330 C1333 1.348 . S
C1330 C1334 1.356 . S
C1330 O1381 1.325 . S
C1331 N1332 1.279 . S
C1331 C1334 1.358 . S
C1331 H1388 0.930 . S
N1332 C1331 1.279 . S
N1332 C1335 1.314 . S
C1333 C1330 1.348 . S
C1333 C1335 1.353 . S
C1333 H1389 0.929 . S
C1334 C1330 1.356 . S
C1334 C1331 1.358 . S
C1334 H1390 0.930 . S
C1335 N1332 1.314 . S
C1335 C1333 1.353 . S
C1335 H1391 0.930 . S
C1336 N1337 1.314 . S
C1336 C1341 1.353 . S
C1336 H1342 0.930 . S
N1337 Li1320 1.990 . S
N1337 C1336 1.314 . S
N1337 C1339 1.279 . S
C1338 C1339 1.358 . S
C1338 C1340 1.356 . S
C1338 H1392 0.930 . S
C1339 N1337 1.279 . S
C1339 C1338 1.358 . S
C1339 H1343 0.930 . S
C1340 C1338 1.356 . S
C1340 C1341 1.348 . S
C1341 C1336 1.353 . S
C1341 C1340 1.348 . S
C1341 H1393 0.929 . S
H1342 C1336 0.930 . S
H1343 C1339 0.930 . S
C1344 N1345 1.314 . S
C1344 C1346 1.353 . S
C1344 H1350 0.930 . S
N1345 Li1321 1.990 . S
N1345 C1344 1.314 . S
N1345 C1348 1.279 . S
C1346 C1344 1.353 . S
C1346 C1349 1.348 . S
C1346 H1394 0.929 . S
C1347 C1348 1.358 . S
C1347 C1349 1.356 . S
C1347 H1395 0.930 . S
C1348 N1345 1.279 . S
C1348 C1347 1.358 . S
C1348 H1351 0.930 . S
C1349 C1346 1.348 . S
C1349 C1347 1.356 . S
H1350 C1344 0.930 . S
H1351 C1348 0.930 . S
C1352 C1354 1.348 . S
C1352 C1355 1.356 . S
C1352 O1382 1.325 . S
N1353 C1356 1.314 . S
N1353 C1357 1.279 . S
C1354 C1352 1.348 . S
C1354 C1356 1.353 . S
C1354 H1396 0.929 . S
C1355 C1352 1.356 . S
C1355 C1357 1.358 . S
C1355 H1397 0.930 . S
C1356 N1353 1.314 . S
C1356 C1354 1.353 . S
C1356 H1398 0.930 . S
C1357 N1353 1.279 . S
C1357 C1355 1.358 . S
C1357 H1399 0.930 . S
C1358 C1359 1.348 . S
C1358 C1360 1.356 . S
C1358 O1383 1.325 . S
C1359 C1358 1.348 . S
C1359 C1361 1.353 . S
C1359 H1400 0.929 . S
C1360 C1358 1.356 . S
C1360 C1362 1.358 . S
C1360 H1401 0.930 . S
C1361 C1359 1.353 . S
C1361 N1363 1.314 . S
C1361 H1402 0.930 . S
C1362 C1360 1.358 . S
C1362 N1363 1.279 . S
C1362 H1403 0.930 . S
N1363 C1361 1.314 . S
N1363 C1362 1.279 . S
C1364 C1366 1.353 . S
C1364 N1367 1.314 . S
C1364 H1370 0.930 . S
C1365 N1367 1.279 . S
C1365 C1368 1.358 . S
C1365 H1371 0.930 . S
C1366 C1364 1.353 . S
C1366 C1369 1.348 . S
C1366 H1404 0.929 . S
N1367 Li1322 1.990 . S
N1367 C1364 1.314 . S
N1367 C1365 1.279 . S
C1368 C1365 1.358 . S
C1368 C1369 1.356 . S
C1368 H1405 0.930 . S
C1369 C1366 1.348 . S
C1369 C1368 1.356 . S
H1370 C1364 0.930 . S
H1371 C1365 0.930 . S
C1372 N1373 1.314 . S
C1372 C1374 1.353 . S
C1372 H1378 0.930 . S
N1373 Li1323 1.990 . S
N1373 C1372 1.314 . S
N1373 C1376 1.279 . S
C1374 C1372 1.353 . S
C1374 C1377 1.348 . S
C1374 H1406 0.929 . S
C1375 C1376 1.358 . S
C1375 C1377 1.356 . S
C1375 H1407 0.930 . S
C1376 N1373 1.279 . S
C1376 C1375 1.358 . S
C1376 H1379 0.930 . S
C1377 C1374 1.348 . S
C1377 C1375 1.356 . S
H1378 C1372 0.930 . S
H1379 C1376 0.930 . S
O1380 Li1320 1.956 . S
O1380 Li1321 1.970 . S
O1380 Li1322 1.961 . S
O1380 C1324 1.325 . S
O1381 Li1320 1.970 . S
O1381 Li1321 1.956 . S
O1381 Li1323 1.961 . S
O1381 C1330 1.325 . S
O1382 Li1320 1.961 . S
O1382 Li1322 1.956 . S
O1382 Li1323 1.970 . S
O1382 C1352 1.325 . S
O1383 Li1321 1.961 . S
O1383 Li1322 1.970 . S
O1383 Li1323 1.956 . S
O1383 C1358 1.325 . S
H1384 C1326 0.929 . S
H1385 C1327 0.930 . S
H1386 C1328 0.930 . S
H1387 C1329 0.930 . S
H1388 C1331 0.930 . S
H1389 C1333 0.929 . S
H1390 C1334 0.930 . S
H1391 C1335 0.930 . S
H1392 C1338 0.930 . S
H1393 C1341 0.929 . S
H1394 C1346 0.929 . S
H1395 C1347 0.930 . S
H1396 C1354 0.929 . S
H1397 C1355 0.930 . S
H1398 C1356 0.930 . S
H1399 C1357 0.930 . S
H1400 C1359 0.929 . S
H1401 C1360 0.930 . S
H1402 C1361 0.930 . S
H1403 C1362 0.930 . S
H1404 C1366 0.929 . S
H1405 C1368 0.930 . S
H1406 C1374 0.929 . S
H1407 C1375 0.930 . S
H1408 C1426 0.951 . S
H1409 C1428 0.951 . S
H1410 C1430 0.950 . S
H1411 C1431 0.950 . S
H1412 C1433 0.950 . S
H1413 C1436 0.950 . S
H1414 C1437 0.950 . S
H1415 C1439 0.950 . S
H1416 C1440 0.950 . S
H1417 C1441 0.951 . S
H1418 C1443 0.951 . S
H1419 C1445 0.950 . S
H1420 C1446 0.950 . S
H1421 C1448 0.950 . S
H1422 C1451 0.950 . S
H1423 C1452 0.950 . S
H1424 C1454 0.950 . S
H1425 C1455 0.950 . S
C1426 H1408 0.951 . S
C1426 C1427 1.366 . S
C1426 C1428 1.388 . S
C1427 C1426 1.366 . S
C1427 C1431 1.385 . S
C1428 H1409 0.951 . S
C1428 C1426 1.388 . S
C1428 C1429 1.366 . S
C1429 C1428 1.366 . S
C1429 C1430 1.414 . S
C1429 C1432 1.499 . S
C1430 H1410 0.950 . S
C1430 C1429 1.414 . S
C1430 C1431 1.374 . S
C1431 H1411 0.950 . S
C1431 C1427 1.385 . S
C1431 C1430 1.374 . S
C1432 C1429 1.499 . S
C1432 C1433 1.373 . S
C1432 C1434 1.389 . S
C1433 H1412 0.950 . S
C1433 C1432 1.373 . S
C1433 C1449 1.377 . S
C1434 C1432 1.389 . S
C1434 C1435 1.524 . S
C1434 C1448 1.377 . S
C1435 C1434 1.524 . S
C1435 C1436 1.397 . S
C1435 C1440 1.363 . S
C1436 H1413 0.950 . S
C1436 C1435 1.397 . S
C1436 C1437 1.334 . S
C1437 H1414 0.950 . S
C1437 C1436 1.334 . S
C1437 C1438 1.287 . S
C1438 C1437 1.287 . S
C1438 C1439 1.524 . S
C1438 H1457 0.913 . S
C1439 H1415 0.950 . S
C1439 C1438 1.524 . S
C1439 C1440 1.415 . S
C1440 H1416 0.950 . S
C1440 C1435 1.363 . S
C1440 C1439 1.415 . S
C1441 H1417 0.951 . S
C1441 C1442 1.366 . S
C1441 C1443 1.388 . S
C1442 C1441 1.366 . S
C1442 C1446 1.385 . S
C1443 H1418 0.951 . S
C1443 C1441 1.388 . S
C1443 C1444 1.366 . S
C1444 C1443 1.366 . S
C1444 C1445 1.414 . S
C1444 C1447 1.499 . S
C1445 H1419 0.950 . S
C1445 C1444 1.414 . S
C1445 C1446 1.374 . S
C1446 H1420 0.950 . S
C1446 C1442 1.385 . S
C1446 C1445 1.374 . S
C1447 C1444 1.499 . S
C1447 C1448 1.373 . S
C1447 C1449 1.389 . S
C1448 H1421 0.950 . S
C1448 C1434 1.377 . S
C1448 C1447 1.373 . S
C1449 C1433 1.377 . S
C1449 C1447 1.389 . S
C1449 C1450 1.524 . S
C1450 C1449 1.524 . S
C1450 C1451 1.397 . S
C1450 C1455 1.363 . S
C1451 H1422 0.950 . S
C1451 C1450 1.397 . S
C1451 C1452 1.334 . S
C1452 H1423 0.950 . S
C1452 C1451 1.334 . S
C1452 C1453 1.287 . S
C1453 C1452 1.287 . S
C1453 C1454 1.524 . S
C1453 H1456 0.999 . S
C1454 H1424 0.950 . S
C1454 C1453 1.524 . S
C1454 C1455 1.415 . S
C1455 H1425 0.950 . S
C1455 C1450 1.363 . S
C1455 C1454 1.415 . S
H1456 C1453 0.999 . S
H1457 C1438 0.913 . S
H1458 C1476 0.951 . S
H1459 C1478 0.951 . S
H1460 C1480 0.950 . S
H1461 C1481 0.950 . S
H1462 C1483 0.950 . S
H1463 C1486 0.950 . S
H1464 C1487 0.950 . S
H1465 C1489 0.950 . S
H1466 C1490 0.950 . S
H1467 C1491 0.951 . S
H1468 C1493 0.951 . S
H1469 C1495 0.950 . S
H1470 C1496 0.950 . S
H1471 C1498 0.950 . S
H1472 C1501 0.950 . S
H1473 C1502 0.950 . S
H1474 C1504 0.950 . S
H1475 C1505 0.950 . S
C1476 H1458 0.951 . S
C1476 C1477 1.366 . S
C1476 C1478 1.388 . S
C1477 C1476 1.366 . S
C1477 C1481 1.385 . S
C1478 H1459 0.951 . S
C1478 C1476 1.388 . S
C1478 C1479 1.366 . S
C1479 C1478 1.366 . S
C1479 C1480 1.414 . S
C1479 C1482 1.499 . S
C1480 H1460 0.950 . S
C1480 C1479 1.414 . S
C1480 C1481 1.374 . S
C1481 H1461 0.950 . S
C1481 C1477 1.385 . S
C1481 C1480 1.374 . S
C1482 C1479 1.499 . S
C1482 C1483 1.373 . S
C1482 C1484 1.389 . S
C1483 H1462 0.950 . S
C1483 C1482 1.373 . S
C1483 C1499 1.377 . S
C1484 C1482 1.389 . S
C1484 C1485 1.524 . S
C1484 C1498 1.377 . S
C1485 C1484 1.524 . S
C1485 C1486 1.397 . S
C1485 C1490 1.363 . S
C1486 H1463 0.950 . S
C1486 C1485 1.397 . S
C1486 C1487 1.334 . S
C1487 H1464 0.950 . S
C1487 C1486 1.334 . S
C1487 C1488 1.287 . S
C1488 C1487 1.287 . S
C1488 C1489 1.524 . S
C1488 H1507 0.913 . S
C1489 H1465 0.950 . S
C1489 C1488 1.524 . S
C1489 C1490 1.415 . S
C1490 H1466 0.950 . S
C1490 C1485 1.363 . S
C1490 C1489 1.415 . S
C1491 H1467 0.951 . S
C1491 C1492 1.366 . S
C1491 C1493 1.388 . S
C1492 C1491 1.366 . S
C1492 C1496 1.385 . S
C1493 H1468 0.951 . S
C1493 C1491 1.388 . S
C1493 C1494 1.366 . S
C1494 C1493 1.366 . S
C1494 C1495 1.414 . S
C1494 C1497 1.499 . S
C1495 H1469 0.950 . S
C1495 C1494 1.414 . S
C1495 C1496 1.374 . S
C1496 H1470 0.950 . S
C1496 C1492 1.385 . S
C1496 C1495 1.374 . S
C1497 C1494 1.499 . S
C1497 C1498 1.373 . S
C1497 C1499 1.389 . S
C1498 H1471 0.950 . S
C1498 C1484 1.377 . S
C1498 C1497 1.373 . S
C1499 C1483 1.377 . S
C1499 C1497 1.389 . S
C1499 C1500 1.524 . S
C1500 C1499 1.524 . S
C1500 C1501 1.397 . S
C1500 C1505 1.363 . S
C1501 H1472 0.950 . S
C1501 C1500 1.397 . S
C1501 C1502 1.334 . S
C1502 H1473 0.950 . S
C1502 C1501 1.334 . S
C1502 C1503 1.287 . S
C1503 C1502 1.287 . S
C1503 C1504 1.524 . S
C1503 H1506 0.999 . S
C1504 H1474 0.950 . S
C1504 C1503 1.524 . S
C1504 C1505 1.415 . S
C1505 H1475 0.950 . S
C1505 C1500 1.363 . S
C1505 C1504 1.415 . S
H1506 C1503 0.999 . S
H1507 C1488 0.913 . S
H1508 C1526 0.951 . S
H1509 C1528 0.951 . S
H1510 C1530 0.950 . S
H1511 C1531 0.950 . S
H1512 C1533 0.950 . S
H1513 C1536 0.950 . S
H1514 C1537 0.950 . S
H1515 C1539 0.950 . S
H1516 C1540 0.950 . S
H1517 C1541 0.951 . S
H1518 C1543 0.951 . S
H1519 C1545 0.950 . S
H1520 C1546 0.950 . S
H1521 C1548 0.950 . S
H1522 C1551 0.950 . S
H1523 C1552 0.950 . S
H1524 C1554 0.950 . S
H1525 C1555 0.950 . S
C1526 H1508 0.951 . S
C1526 C1527 1.366 . S
C1526 C1528 1.388 . S
C1527 C1526 1.366 . S
C1527 C1531 1.385 . S
C1528 H1509 0.951 . S
C1528 C1526 1.388 . S
C1528 C1529 1.366 . S
C1529 C1528 1.366 . S
C1529 C1530 1.414 . S
C1529 C1532 1.499 . S
C1530 H1510 0.950 . S
C1530 C1529 1.414 . S
C1530 C1531 1.374 . S
C1531 H1511 0.950 . S
C1531 C1527 1.385 . S
C1531 C1530 1.374 . S
C1532 C1529 1.499 . S
C1532 C1533 1.373 . S
C1532 C1534 1.389 . S
C1533 H1512 0.950 . S
C1533 C1532 1.373 . S
C1533 C1549 1.377 . S
C1534 C1532 1.389 . S
C1534 C1535 1.524 . S
C1534 C1548 1.377 . S
C1535 C1534 1.524 . S
C1535 C1536 1.397 . S
C1535 C1540 1.363 . S
C1536 H1513 0.950 . S
C1536 C1535 1.397 . S
C1536 C1537 1.334 . S
C1537 H1514 0.950 . S
C1537 C1536 1.334 . S
C1537 C1538 1.287 . S
C1538 C1537 1.287 . S
C1538 C1539 1.524 . S
C1538 H1557 0.913 . S
C1539 H1515 0.950 . S
C1539 C1538 1.524 . S
C1539 C1540 1.415 . S
C1540 H1516 0.950 . S
C1540 C1535 1.363 . S
C1540 C1539 1.415 . S
C1541 H1517 0.951 . S
C1541 C1542 1.366 . S
C1541 C1543 1.388 . S
C1542 C1541 1.366 . S
C1542 C1546 1.385 . S
C1543 H1518 0.951 . S
C1543 C1541 1.388 . S
C1543 C1544 1.366 . S
C1544 C1543 1.366 . S
C1544 C1545 1.414 . S
C1544 C1547 1.499 . S
C1545 H1519 0.950 . S
C1545 C1544 1.414 . S
C1545 C1546 1.374 . S
C1546 H1520 0.950 . S
C1546 C1542 1.385 . S
C1546 C1545 1.374 . S
C1547 C1544 1.499 . S
C1547 C1548 1.373 . S
C1547 C1549 1.389 . S
C1548 H1521 0.950 . S
C1548 C1534 1.377 . S
C1548 C1547 1.373 . S
C1549 C1533 1.377 . S
C1549 C1547 1.389 . S
C1549 C1550 1.524 . S
C1550 C1549 1.524 . S
C1550 C1551 1.397 . S
C1550 C1555 1.363 . S
C1551 H1522 0.950 . S
C1551 C1550 1.397 . S
C1551 C1552 1.334 . S
C1552 H1523 0.950 . S
C1552 C1551 1.334 . S
C1552 C1553 1.287 . S
C1553 C1552 1.287 . S
C1553 C1554 1.524 . S
C1553 H1556 0.999 . S
C1554 H1524 0.950 . S
C1554 C1553 1.524 . S
C1554 C1555 1.415 . S
C1555 H1525 0.950 . S
C1555 C1550 1.363 . S
C1555 C1554 1.415 . S
H1556 C1553 0.999 . S
H1557 C1538 0.913 . S
H1558 C1576 0.951 . S
H1559 C1578 0.951 . S
H1560 C1580 0.950 . S
H1561 C1581 0.950 . S
H1562 C1583 0.950 . S
H1563 C1586 0.950 . S
H1564 C1587 0.950 . S
H1565 C1589 0.950 . S
H1566 C1590 0.950 . S
H1567 C1591 0.951 . S
H1568 C1593 0.951 . S
H1569 C1595 0.950 . S
H1570 C1596 0.950 . S
H1571 C1598 0.950 . S
H1572 C1601 0.950 . S
H1573 C1602 0.950 . S
H1574 C1604 0.950 . S
H1575 C1605 0.950 . S
C1576 H1558 0.951 . S
C1576 C1577 1.366 . S
C1576 C1578 1.388 . S
C1577 C1576 1.366 . S
C1577 C1581 1.385 . S
C1578 H1559 0.951 . S
C1578 C1576 1.388 . S
C1578 C1579 1.366 . S
C1579 C1578 1.366 . S
C1579 C1580 1.414 . S
C1579 C1582 1.499 . S
C1580 H1560 0.950 . S
C1580 C1579 1.414 . S
C1580 C1581 1.374 . S
C1581 H1561 0.950 . S
C1581 C1577 1.385 . S
C1581 C1580 1.374 . S
C1582 C1579 1.499 . S
C1582 C1583 1.373 . S
C1582 C1584 1.389 . S
C1583 H1562 0.950 . S
C1583 C1582 1.373 . S
C1583 C1599 1.377 . S
C1584 C1582 1.389 . S
C1584 C1585 1.524 . S
C1584 C1598 1.377 . S
C1585 C1584 1.524 . S
C1585 C1586 1.397 . S
C1585 C1590 1.363 . S
C1586 H1563 0.950 . S
C1586 C1585 1.397 . S
C1586 C1587 1.334 . S
C1587 H1564 0.950 . S
C1587 C1586 1.334 . S
C1587 C1588 1.287 . S
C1588 C1587 1.287 . S
C1588 C1589 1.524 . S
C1588 H1607 0.913 . S
C1589 H1565 0.950 . S
C1589 C1588 1.524 . S
C1589 C1590 1.415 . S
C1590 H1566 0.950 . S
C1590 C1585 1.363 . S
C1590 C1589 1.415 . S
C1591 H1567 0.951 . S
C1591 C1592 1.366 . S
C1591 C1593 1.388 . S
C1592 C1591 1.366 . S
C1592 C1596 1.385 . S
C1593 H1568 0.951 . S
C1593 C1591 1.388 . S
C1593 C1594 1.366 . S
C1594 C1593 1.366 . S
C1594 C1595 1.414 . S
C1594 C1597 1.499 . S
C1595 H1569 0.950 . S
C1595 C1594 1.414 . S
C1595 C1596 1.374 . S
C1596 H1570 0.950 . S
C1596 C1592 1.385 . S
C1596 C1595 1.374 . S
C1597 C1594 1.499 . S
C1597 C1598 1.373 . S
C1597 C1599 1.389 . S
C1598 H1571 0.950 . S
C1598 C1584 1.377 . S
C1598 C1597 1.373 . S
C1599 C1583 1.377 . S
C1599 C1597 1.389 . S
C1599 C1600 1.524 . S
C1600 C1599 1.524 . S
C1600 C1601 1.397 . S
C1600 C1605 1.363 . S
C1601 H1572 0.950 . S
C1601 C1600 1.397 . S
C1601 C1602 1.334 . S
C1602 H1573 0.950 . S
C1602 C1601 1.334 . S
C1602 C1603 1.287 . S
C1603 C1602 1.287 . S
C1603 C1604 1.524 . S
C1603 H1606 0.999 . S
C1604 H1574 0.950 . S
C1604 C1603 1.524 . S
C1604 C1605 1.415 . S
C1605 H1575 0.950 . S
C1605 C1600 1.363 . S
C1605 C1604 1.415 . S
H1606 C1603 0.999 . S
H1607 C1588 0.913 . S
H1608 C1626 0.951 . S
H1609 C1628 0.951 . S
H1610 C1630 0.950 . S
H1611 C1631 0.950 . S
H1612 C1633 0.950 . S
H1613 C1636 0.950 . S
H1614 C1637 0.950 . S
H1615 C1639 0.950 . S
H1616 C1640 0.950 . S
H1617 C1641 0.951 . S
H1618 C1643 0.951 . S
H1619 C1645 0.950 . S
H1620 C1646 0.950 . S
H1621 C1648 0.950 . S
H1622 C1651 0.950 . S
H1623 C1652 0.950 . S
H1624 C1654 0.950 . S
H1625 C1655 0.950 . S
C1626 H1608 0.951 . S
C1626 C1627 1.366 . S
C1626 C1628 1.388 . S
C1627 C1626 1.366 . S
C1627 C1631 1.385 . S
C1628 H1609 0.951 . S
C1628 C1626 1.388 . S
C1628 C1629 1.366 . S
C1629 C1628 1.366 . S
C1629 C1630 1.414 . S
C1629 C1632 1.499 . S
C1630 H1610 0.950 . S
C1630 C1629 1.414 . S
C1630 C1631 1.374 . S
C1631 H1611 0.950 . S
C1631 C1627 1.385 . S
C1631 C1630 1.374 . S
C1632 C1629 1.499 . S
C1632 C1633 1.373 . S
C1632 C1634 1.389 . S
C1633 H1612 0.950 . S
C1633 C1632 1.373 . S
C1633 C1649 1.377 . S
C1634 C1632 1.389 . S
C1634 C1635 1.524 . S
C1634 C1648 1.377 . S
C1635 C1634 1.524 . S
C1635 C1636 1.397 . S
C1635 C1640 1.363 . S
C1636 H1613 0.950 . S
C1636 C1635 1.397 . S
C1636 C1637 1.334 . S
C1637 H1614 0.950 . S
C1637 C1636 1.334 . S
C1637 C1638 1.287 . S
C1638 C1637 1.287 . S
C1638 C1639 1.524 . S
C1638 H1657 0.913 . S
C1639 H1615 0.950 . S
C1639 C1638 1.524 . S
C1639 C1640 1.415 . S
C1640 H1616 0.950 . S
C1640 C1635 1.363 . S
C1640 C1639 1.415 . S
C1641 H1617 0.951 . S
C1641 C1642 1.366 . S
C1641 C1643 1.388 . S
C1642 C1641 1.366 . S
C1642 C1646 1.385 . S
C1643 H1618 0.951 . S
C1643 C1641 1.388 . S
C1643 C1644 1.366 . S
C1644 C1643 1.366 . S
C1644 C1645 1.414 . S
C1644 C1647 1.499 . S
C1645 H1619 0.950 . S
C1645 C1644 1.414 . S
C1645 C1646 1.374 . S
C1646 H1620 0.950 . S
C1646 C1642 1.385 . S
C1646 C1645 1.374 . S
C1647 C1644 1.499 . S
C1647 C1648 1.373 . S
C1647 C1649 1.389 . S
C1648 H1621 0.950 . S
C1648 C1634 1.377 . S
C1648 C1647 1.373 . S
C1649 C1633 1.377 . S
C1649 C1647 1.389 . S
C1649 C1650 1.524 . S
C1650 C1649 1.524 . S
C1650 C1651 1.397 . S
C1650 C1655 1.363 . S
C1651 H1622 0.950 . S
C1651 C1650 1.397 . S
C1651 C1652 1.334 . S
C1652 H1623 0.950 . S
C1652 C1651 1.334 . S
C1652 C1653 1.287 . S
C1653 C1652 1.287 . S
C1653 C1654 1.524 . S
C1653 H1656 0.999 . S
C1654 H1624 0.950 . S
C1654 C1653 1.524 . S
C1654 C1655 1.415 . S
C1655 H1625 0.950 . S
C1655 C1650 1.363 . S
C1655 C1654 1.415 . S
H1656 C1653 0.999 . S
H1657 C1638 0.913 . S
H1658 C1676 0.951 . S
H1659 C1678 0.951 . S
H1660 C1680 0.950 . S
H1661 C1681 0.950 . S
H1662 C1683 0.950 . S
H1663 C1686 0.950 . S
H1664 C1687 0.950 . S
H1665 C1689 0.950 . S
H1666 C1690 0.950 . S
H1667 C1691 0.951 . S
H1668 C1693 0.951 . S
H1669 C1695 0.950 . S
H1670 C1696 0.950 . S
H1671 C1698 0.950 . S
H1672 C1701 0.950 . S
H1673 C1702 0.950 . S
H1674 C1704 0.950 . S
H1675 C1705 0.950 . S
C1676 H1658 0.951 . S
C1676 C1677 1.366 . S
C1676 C1678 1.388 . S
C1677 C1676 1.366 . S
C1677 C1681 1.385 . S
C1678 H1659 0.951 . S
C1678 C1676 1.388 . S
C1678 C1679 1.366 . S
C1679 C1678 1.366 . S
C1679 C1680 1.414 . S
C1679 C1682 1.499 . S
C1680 H1660 0.950 . S
C1680 C1679 1.414 . S
C1680 C1681 1.374 . S
C1681 H1661 0.950 . S
C1681 C1677 1.385 . S
C1681 C1680 1.374 . S
C1682 C1679 1.499 . S
C1682 C1683 1.373 . S
C1682 C1684 1.389 . S
C1683 H1662 0.950 . S
C1683 C1682 1.373 . S
C1683 C1699 1.377 . S
C1684 C1682 1.389 . S
C1684 C1685 1.524 . S
C1684 C1698 1.377 . S
C1685 C1684 1.524 . S
C1685 C1686 1.397 . S
C1685 C1690 1.363 . S
C1686 H1663 0.950 . S
C1686 C1685 1.397 . S
C1686 C1687 1.334 . S
C1687 H1664 0.950 . S
C1687 C1686 1.334 . S
C1687 C1688 1.287 . S
C1688 C1687 1.287 . S
C1688 C1689 1.524 . S
C1688 H1707 0.913 . S
C1689 H1665 0.950 . S
C1689 C1688 1.524 . S
C1689 C1690 1.415 . S
C1690 H1666 0.950 . S
C1690 C1685 1.363 . S
C1690 C1689 1.415 . S
C1691 H1667 0.951 . S
C1691 C1692 1.366 . S
C1691 C1693 1.388 . S
C1692 C1691 1.366 . S
C1692 C1696 1.385 . S
C1693 H1668 0.951 . S
C1693 C1691 1.388 . S
C1693 C1694 1.366 . S
C1694 C1693 1.366 . S
C1694 C1695 1.414 . S
C1694 C1697 1.499 . S
C1695 H1669 0.950 . S
C1695 C1694 1.414 . S
C1695 C1696 1.374 . S
C1696 H1670 0.950 . S
C1696 C1692 1.385 . S
C1696 C1695 1.374 . S
C1697 C1694 1.499 . S
C1697 C1698 1.373 . S
C1697 C1699 1.389 . S
C1698 H1671 0.950 . S
C1698 C1684 1.377 . S
C1698 C1697 1.373 . S
C1699 C1683 1.377 . S
C1699 C1697 1.389 . S
C1699 C1700 1.524 . S
C1700 C1699 1.524 . S
C1700 C1701 1.397 . S
C1700 C1705 1.363 . S
C1701 H1672 0.950 . S
C1701 C1700 1.397 . S
C1701 C1702 1.334 . S
C1702 H1673 0.950 . S
C1702 C1701 1.334 . S
C1702 C1703 1.287 . S
C1703 C1702 1.287 . S
C1703 C1704 1.524 . S
C1703 H1706 0.999 . S
C1704 H1674 0.950 . S
C1704 C1703 1.524 . S
C1704 C1705 1.415 . S
C1705 H1675 0.950 . S
C1705 C1700 1.363 . S
C1705 C1704 1.415 . S
H1706 C1703 0.999 . S
H1707 C1688 0.913 . S
H1708 C1726 0.951 . S
H1709 C1728 0.951 . S
H1710 C1730 0.950 . S
H1711 C1731 0.950 . S
H1712 C1733 0.950 . S
H1713 C1736 0.950 . S
H1714 C1737 0.950 . S
H1715 C1739 0.950 . S
H1716 C1740 0.950 . S
H1717 C1741 0.951 . S
H1718 C1743 0.951 . S
H1719 C1745 0.950 . S
H1720 C1746 0.950 . S
H1721 C1748 0.950 . S
H1722 C1751 0.950 . S
H1723 C1752 0.950 . S
H1724 C1754 0.950 . S
H1725 C1755 0.950 . S
C1726 H1708 0.951 . S
C1726 C1727 1.366 . S
C1726 C1728 1.388 . S
C1727 C1726 1.366 . S
C1727 C1731 1.385 . S
C1728 H1709 0.951 . S
C1728 C1726 1.388 . S
C1728 C1729 1.366 . S
C1729 C1728 1.366 . S
C1729 C1730 1.414 . S
C1729 C1732 1.499 . S
C1730 H1710 0.950 . S
C1730 C1729 1.414 . S
C1730 C1731 1.374 . S
C1731 H1711 0.950 . S
C1731 C1727 1.385 . S
C1731 C1730 1.374 . S
C1732 C1729 1.499 . S
C1732 C1733 1.373 . S
C1732 C1734 1.389 . S
C1733 H1712 0.950 . S
C1733 C1732 1.373 . S
C1733 C1749 1.377 . S
C1734 C1732 1.389 . S
C1734 C1735 1.524 . S
C1734 C1748 1.377 . S
C1735 C1734 1.524 . S
C1735 C1736 1.397 . S
C1735 C1740 1.363 . S
C1736 H1713 0.950 . S
C1736 C1735 1.397 . S
C1736 C1737 1.334 . S
C1737 H1714 0.950 . S
C1737 C1736 1.334 . S
C1737 C1738 1.287 . S
C1738 C1737 1.287 . S
C1738 C1739 1.524 . S
C1738 H1757 0.913 . S
C1739 H1715 0.950 . S
C1739 C1738 1.524 . S
C1739 C1740 1.415 . S
C1740 H1716 0.950 . S
C1740 C1735 1.363 . S
C1740 C1739 1.415 . S
C1741 H1717 0.951 . S
C1741 C1742 1.366 . S
C1741 C1743 1.388 . S
C1742 C1741 1.366 . S
C1742 C1746 1.385 . S
C1743 H1718 0.951 . S
C1743 C1741 1.388 . S
C1743 C1744 1.366 . S
C1744 C1743 1.366 . S
C1744 C1745 1.414 . S
C1744 C1747 1.499 . S
C1745 H1719 0.950 . S
C1745 C1744 1.414 . S
C1745 C1746 1.374 . S
C1746 H1720 0.950 . S
C1746 C1742 1.385 . S
C1746 C1745 1.374 . S
C1747 C1744 1.499 . S
C1747 C1748 1.373 . S
C1747 C1749 1.389 . S
C1748 H1721 0.950 . S
C1748 C1734 1.377 . S
C1748 C1747 1.373 . S
C1749 C1733 1.377 . S
C1749 C1747 1.389 . S
C1749 C1750 1.524 . S
C1750 C1749 1.524 . S
C1750 C1751 1.397 . S
C1750 C1755 1.363 . S
C1751 H1722 0.950 . S
C1751 C1750 1.397 . S
C1751 C1752 1.334 . S
C1752 H1723 0.950 . S
C1752 C1751 1.334 . S
C1752 C1753 1.287 . S
C1753 C1752 1.287 . S
C1753 C1754 1.524 . S
C1753 H1756 0.999 . S
C1754 H1724 0.950 . S
C1754 C1753 1.524 . S
C1754 C1755 1.415 . S
C1755 H1725 0.950 . S
C1755 C1750 1.363 . S
C1755 C1754 1.415 . S
H1756 C1753 0.999 . S
H1757 C1738 0.913 . S
H1758 C1776 0.951 . S
H1759 C1778 0.951 . S
H1760 C1780 0.950 . S
H1761 C1781 0.950 . S
H1762 C1783 0.950 . S
H1763 C1786 0.950 . S
H1764 C1787 0.950 . S
H1765 C1789 0.950 . S
H1766 C1790 0.950 . S
H1767 C1791 0.951 . S
H1768 C1793 0.951 . S
H1769 C1795 0.950 . S
H1770 C1796 0.950 . S
H1771 C1798 0.950 . S
H1772 C1801 0.950 . S
H1773 C1802 0.950 . S
H1774 C1804 0.950 . S
H1775 C1805 0.950 . S
C1776 H1758 0.951 . S
C1776 C1777 1.366 . S
C1776 C1778 1.388 . S
C1777 C1776 1.366 . S
C1777 C1781 1.385 . S
C1778 H1759 0.951 . S
C1778 C1776 1.388 . S
C1778 C1779 1.366 . S
C1779 C1778 1.366 . S
C1779 C1780 1.414 . S
C1779 C1782 1.499 . S
C1780 H1760 0.950 . S
C1780 C1779 1.414 . S
C1780 C1781 1.374 . S
C1781 H1761 0.950 . S
C1781 C1777 1.385 . S
C1781 C1780 1.374 . S
C1782 C1779 1.499 . S
C1782 C1783 1.373 . S
C1782 C1784 1.389 . S
C1783 H1762 0.950 . S
C1783 C1782 1.373 . S
C1783 C1799 1.377 . S
C1784 C1782 1.389 . S
C1784 C1785 1.524 . S
C1784 C1798 1.377 . S
C1785 C1784 1.524 . S
C1785 C1786 1.397 . S
C1785 C1790 1.363 . S
C1786 H1763 0.950 . S
C1786 C1785 1.397 . S
C1786 C1787 1.334 . S
C1787 H1764 0.950 . S
C1787 C1786 1.334 . S
C1787 C1788 1.287 . S
C1788 C1787 1.287 . S
C1788 C1789 1.524 . S
C1788 H1807 0.913 . S
C1789 H1765 0.950 . S
C1789 C1788 1.524 . S
C1789 C1790 1.415 . S
C1790 H1766 0.950 . S
C1790 C1785 1.363 . S
C1790 C1789 1.415 . S
C1791 H1767 0.951 . S
C1791 C1792 1.366 . S
C1791 C1793 1.388 . S
C1792 C1791 1.366 . S
C1792 C1796 1.385 . S
C1793 H1768 0.951 . S
C1793 C1791 1.388 . S
C1793 C1794 1.366 . S
C1794 C1793 1.366 . S
C1794 C1795 1.414 . S
C1794 C1797 1.499 . S
C1795 H1769 0.950 . S
C1795 C1794 1.414 . S
C1795 C1796 1.374 . S
C1796 H1770 0.950 . S
C1796 C1792 1.385 . S
C1796 C1795 1.374 . S
C1797 C1794 1.499 . S
C1797 C1798 1.373 . S
C1797 C1799 1.389 . S
C1798 H1771 0.950 . S
C1798 C1784 1.377 . S
C1798 C1797 1.373 . S
C1799 C1783 1.377 . S
C1799 C1797 1.389 . S
C1799 C1800 1.524 . S
C1800 C1799 1.524 . S
C1800 C1801 1.397 . S
C1800 C1805 1.363 . S
C1801 H1772 0.950 . S
C1801 C1800 1.397 . S
C1801 C1802 1.334 . S
C1802 H1773 0.950 . S
C1802 C1801 1.334 . S
C1802 C1803 1.287 . S
C1803 C1802 1.287 . S
C1803 C1804 1.524 . S
C1803 H1806 0.999 . S
C1804 H1774 0.950 . S
C1804 C1803 1.524 . S
C1804 C1805 1.415 . S
C1805 H1775 0.950 . S
C1805 C1800 1.363 . S
C1805 C1804 1.415 . S
H1806 C1803 0.999 . S
H1807 C1788 0.913 . S
H1808 C1826 0.951 . S
H1809 C1828 0.951 . S
H1810 C1830 0.950 . S
H1811 C1831 0.950 . S
H1812 C1833 0.950 . S
H1813 C1836 0.950 . S
H1814 C1837 0.950 . S
H1815 C1839 0.950 . S
H1816 C1840 0.950 . S
H1817 C1841 0.951 . S
H1818 C1843 0.951 . S
H1819 C1845 0.950 . S
H1820 C1846 0.950 . S
H1821 C1848 0.950 . S
H1822 C1851 0.950 . S
H1823 C1852 0.950 . S
H1824 C1854 0.950 . S
H1825 C1855 0.950 . S
C1826 H1808 0.951 . S
C1826 C1827 1.366 . S
C1826 C1828 1.388 . S
C1827 C1826 1.366 . S
C1827 C1831 1.385 . S
C1828 H1809 0.951 . S
C1828 C1826 1.388 . S
C1828 C1829 1.366 . S
C1829 C1828 1.366 . S
C1829 C1830 1.414 . S
C1829 C1832 1.499 . S
C1830 H1810 0.950 . S
C1830 C1829 1.414 . S
C1830 C1831 1.374 . S
C1831 H1811 0.950 . S
C1831 C1827 1.385 . S
C1831 C1830 1.374 . S
C1832 C1829 1.499 . S
C1832 C1833 1.373 . S
C1832 C1834 1.389 . S
C1833 H1812 0.950 . S
C1833 C1832 1.373 . S
C1833 C1849 1.377 . S
C1834 C1832 1.389 . S
C1834 C1835 1.524 . S
C1834 C1848 1.377 . S
C1835 C1834 1.524 . S
C1835 C1836 1.397 . S
C1835 C1840 1.363 . S
C1836 H1813 0.950 . S
C1836 C1835 1.397 . S
C1836 C1837 1.334 . S
C1837 H1814 0.950 . S
C1837 C1836 1.334 . S
C1837 C1838 1.287 . S
C1838 C1837 1.287 . S
C1838 C1839 1.524 . S
C1838 H1857 0.913 . S
C1839 H1815 0.950 . S
C1839 C1838 1.524 . S
C1839 C1840 1.415 . S
C1840 H1816 0.950 . S
C1840 C1835 1.363 . S
C1840 C1839 1.415 . S
C1841 H1817 0.951 . S
C1841 C1842 1.366 . S
C1841 C1843 1.388 . S
C1842 C1841 1.366 . S
C1842 C1846 1.385 . S
C1843 H1818 0.951 . S
C1843 C1841 1.388 . S
C1843 C1844 1.366 . S
C1844 C1843 1.366 . S
C1844 C1845 1.414 . S
C1844 C1847 1.499 . S
C1845 H1819 0.950 . S
C1845 C1844 1.414 . S
C1845 C1846 1.374 . S
C1846 H1820 0.950 . S
C1846 C1842 1.385 . S
C1846 C1845 1.374 . S
C1847 C1844 1.499 . S
C1847 C1848 1.373 . S
C1847 C1849 1.389 . S
C1848 H1821 0.950 . S
C1848 C1834 1.377 . S
C1848 C1847 1.373 . S
C1849 C1833 1.377 . S
C1849 C1847 1.389 . S
C1849 C1850 1.524 . S
C1850 C1849 1.524 . S
C1850 C1851 1.397 . S
C1850 C1855 1.363 . S
C1851 H1822 0.950 . S
C1851 C1850 1.397 . S
C1851 C1852 1.334 . S
C1852 H1823 0.950 . S
C1852 C1851 1.334 . S
C1852 C1853 1.287 . S
C1853 C1852 1.287 . S
C1853 C1854 1.524 . S
C1853 H1856 0.999 . S
C1854 H1824 0.950 . S
C1854 C1853 1.524 . S
C1854 C1855 1.415 . S
C1855 H1825 0.950 . S
C1855 C1850 1.363 . S
C1855 C1854 1.415 . S
H1856 C1853 0.999 . S
H1857 C1838 0.913 . S
H1858 C1876 0.951 . S
H1859 C1878 0.951 . S
H1860 C1880 0.950 . S
H1861 C1881 0.950 . S
H1862 C1883 0.950 . S
H1863 C1886 0.950 . S
H1864 C1887 0.950 . S
H1865 C1889 0.950 . S
H1866 C1890 0.950 . S
H1867 C1891 0.951 . S
H1868 C1893 0.951 . S
H1869 C1895 0.950 . S
H1870 C1896 0.950 . S
H1871 C1898 0.950 . S
H1872 C1901 0.950 . S
H1873 C1902 0.950 . S
H1874 C1904 0.950 . S
H1875 C1905 0.950 . S
C1876 H1858 0.951 . S
C1876 C1877 1.366 . S
C1876 C1878 1.388 . S
C1877 C1876 1.366 . S
C1877 C1881 1.385 . S
C1878 H1859 0.951 . S
C1878 C1876 1.388 . S
C1878 C1879 1.366 . S
C1879 C1878 1.366 . S
C1879 C1880 1.414 . S
C1879 C1882 1.499 . S
C1880 H1860 0.950 . S
C1880 C1879 1.414 . S
C1880 C1881 1.374 . S
C1881 H1861 0.950 . S
C1881 C1877 1.385 . S
C1881 C1880 1.374 . S
C1882 C1879 1.499 . S
C1882 C1883 1.373 . S
C1882 C1884 1.389 . S
C1883 H1862 0.950 . S
C1883 C1882 1.373 . S
C1883 C1899 1.377 . S
C1884 C1882 1.389 . S
C1884 C1885 1.524 . S
C1884 C1898 1.377 . S
C1885 C1884 1.524 . S
C1885 C1886 1.397 . S
C1885 C1890 1.363 . S
C1886 H1863 0.950 . S
C1886 C1885 1.397 . S
C1886 C1887 1.334 . S
C1887 H1864 0.950 . S
C1887 C1886 1.334 . S
C1887 C1888 1.287 . S
C1888 C1887 1.287 . S
C1888 C1889 1.524 . S
C1888 H1907 0.913 . S
C1889 H1865 0.950 . S
C1889 C1888 1.524 . S
C1889 C1890 1.415 . S
C1890 H1866 0.950 . S
C1890 C1885 1.363 . S
C1890 C1889 1.415 . S
C1891 H1867 0.951 . S
C1891 C1892 1.366 . S
C1891 C1893 1.388 . S
C1892 C1891 1.366 . S
C1892 C1896 1.385 . S
C1893 H1868 0.951 . S
C1893 C1891 1.388 . S
C1893 C1894 1.366 . S
C1894 C1893 1.366 . S
C1894 C1895 1.414 . S
C1894 C1897 1.499 . S
C1895 H1869 0.950 . S
C1895 C1894 1.414 . S
C1895 C1896 1.374 . S
C1896 H1870 0.950 . S
C1896 C1892 1.385 . S
C1896 C1895 1.374 . S
C1897 C1894 1.499 . S
C1897 C1898 1.373 . S
C1897 C1899 1.389 . S
C1898 H1871 0.950 . S
C1898 C1884 1.377 . S
C1898 C1897 1.373 . S
C1899 C1883 1.377 . S
C1899 C1897 1.389 . S
C1899 C1900 1.524 . S
C1900 C1899 1.524 . S
C1900 C1901 1.397 . S
C1900 C1905 1.363 . S
C1901 H1872 0.950 . S
C1901 C1900 1.397 . S
C1901 C1902 1.334 . S
C1902 H1873 0.950 . S
C1902 C1901 1.334 . S
C1902 C1903 1.287 . S
C1903 C1902 1.287 . S
C1903 C1904 1.524 . S
C1903 H1906 0.999 . S
C1904 H1874 0.950 . S
C1904 C1903 1.524 . S
C1904 C1905 1.415 . S
C1905 H1875 0.950 . S
C1905 C1900 1.363 . S
C1905 C1904 1.415 . S
H1906 C1903 0.999 . S
H1907 C1888 0.913 . S
H1908 C1926 0.951 . S
H1909 C1928 0.951 . S
H1910 C1930 0.950 . S
H1911 C1931 0.950 . S
H1912 C1933 0.950 . S
H1913 C1936 0.950 . S
H1914 C1937 0.950 . S
H1915 C1939 0.950 . S
H1916 C1940 0.950 . S
H1917 C1941 0.951 . S
H1918 C1943 0.951 . S
H1919 C1945 0.950 . S
H1920 C1946 0.950 . S
H1921 C1948 0.950 . S
H1922 C1951 0.950 . S
H1923 C1952 0.950 . S
H1924 C1954 0.950 . S
H1925 C1955 0.950 . S
C1926 H1908 0.951 . S
C1926 C1927 1.366 . S
C1926 C1928 1.388 . S
C1927 C1926 1.366 . S
C1927 C1931 1.385 . S
C1928 H1909 0.951 . S
C1928 C1926 1.388 . S
C1928 C1929 1.366 . S
C1929 C1928 1.366 . S
C1929 C1930 1.414 . S
C1929 C1932 1.499 . S
C1930 H1910 0.950 . S
C1930 C1929 1.414 . S
C1930 C1931 1.374 . S
C1931 H1911 0.950 . S
C1931 C1927 1.385 . S
C1931 C1930 1.374 . S
C1932 C1929 1.499 . S
C1932 C1933 1.373 . S
C1932 C1934 1.389 . S
C1933 H1912 0.950 . S
C1933 C1932 1.373 . S
C1933 C1949 1.377 . S
C1934 C1932 1.389 . S
C1934 C1935 1.524 . S
C1934 C1948 1.377 . S
C1935 C1934 1.524 . S
C1935 C1936 1.397 . S
C1935 C1940 1.363 . S
C1936 H1913 0.950 . S
C1936 C1935 1.397 . S
C1936 C1937 1.334 . S
C1937 H1914 0.950 . S
C1937 C1936 1.334 . S
C1937 C1938 1.287 . S
C1938 C1937 1.287 . S
C1938 C1939 1.524 . S
C1938 H1957 0.913 . S
C1939 H1915 0.950 . S
C1939 C1938 1.524 . S
C1939 C1940 1.415 . S
C1940 H1916 0.950 . S
C1940 C1935 1.363 . S
C1940 C1939 1.415 . S
C1941 H1917 0.951 . S
C1941 C1942 1.366 . S
C1941 C1943 1.388 . S
C1942 C1941 1.366 . S
C1942 C1946 1.385 . S
C1943 H1918 0.951 . S
C1943 C1941 1.388 . S
C1943 C1944 1.366 . S
C1944 C1943 1.366 . S
C1944 C1945 1.414 . S
C1944 C1947 1.499 . S
C1945 H1919 0.950 . S
C1945 C1944 1.414 . S
C1945 C1946 1.374 . S
C1946 H1920 0.950 . S
C1946 C1942 1.385 . S
C1946 C1945 1.374 . S
C1947 C1944 1.499 . S
C1947 C1948 1.373 . S
C1947 C1949 1.389 . S
C1948 H1921 0.950 . S
C1948 C1934 1.377 . S
C1948 C1947 1.373 . S
C1949 C1933 1.377 . S
C1949 C1947 1.389 . S
C1949 C1950 1.524 . S
C1950 C1949 1.524 . S
C1950 C1951 1.397 . S
C1950 C1955 1.363 . S
C1951 H1922 0.950 . S
C1951 C1950 1.397 . S
C1951 C1952 1.334 . S
C1952 H1923 0.950 . S
C1952 C1951 1.334 . S
C1952 C1953 1.287 . S
C1953 C1952 1.287 . S
C1953 C1954 1.524 . S
C1953 H1956 0.999 . S
C1954 H1924 0.950 . S
C1954 C1953 1.524 . S
C1954 C1955 1.415 . S
C1955 H1925 0.950 . S
C1955 C1950 1.363 . S
C1955 C1954 1.415 . S
H1956 C1953 0.999 . S
H1957 C1938 0.913 . S
H1958 C1976 0.951 . S
H1959 C1978 0.951 . S
H1960 C1980 0.950 . S
H1961 C1981 0.950 . S
H1962 C1983 0.950 . S
H1963 C1986 0.950 . S
H1964 C1987 0.950 . S
H1965 C1989 0.950 . S
H1966 C1990 0.950 . S
H1967 C1991 0.951 . S
H1968 C1993 0.951 . S
H1969 C1995 0.950 . S
H1970 C1996 0.950 . S
H1971 C1998 0.950 . S
H1972 C2001 0.950 . S
H1973 C2002 0.950 . S
H1974 C2004 0.950 . S
H1975 C2005 0.950 . S
C1976 H1958 0.951 . S
C1976 C1977 1.366 . S
C1976 C1978 1.388 . S
C1977 C1976 1.366 . S
C1977 C1981 1.385 . S
C1978 H1959 0.951 . S
C1978 C1976 1.388 . S
C1978 C1979 1.366 . S
C1979 C1978 1.366 . S
C1979 C1980 1.414 . S
C1979 C1982 1.499 . S
C1980 H1960 0.950 . S
C1980 C1979 1.414 . S
C1980 C1981 1.374 . S
C1981 H1961 0.950 . S
C1981 C1977 1.385 . S
C1981 C1980 1.374 . S
C1982 C1979 1.499 . S
C1982 C1983 1.373 . S
C1982 C1984 1.389 . S
C1983 H1962 0.950 . S
C1983 C1982 1.373 . S
C1983 C1999 1.377 . S
C1984 C1982 1.389 . S
C1984 C1985 1.524 . S
C1984 C1998 1.377 . S
C1985 C1984 1.524 . S
C1985 C1986 1.397 . S
C1985 C1990 1.363 . S
C1986 H1963 0.950 . S
C1986 C1985 1.397 . S
C1986 C1987 1.334 . S
C1987 H1964 0.950 . S
C1987 C1986 1.334 . S
C1987 C1988 1.287 . S
C1988 C1987 1.287 . S
C1988 C1989 1.524 . S
C1988 H2007 0.913 . S
C1989 H1965 0.950 . S
C1989 C1988 1.524 . S
C1989 C1990 1.415 . S
C1990 H1966 0.950 . S
C1990 C1985 1.363 . S
C1990 C1989 1.415 . S
C1991 H1967 0.951 . S
C1991 C1992 1.366 . S
C1991 C1993 1.388 . S
C1992 C1991 1.366 . S
C1992 C1996 1.385 . S
C1993 H1968 0.951 . S
C1993 C1991 1.388 . S
C1993 C1994 1.366 . S
C1994 C1993 1.366 . S
C1994 C1995 1.414 . S
C1994 C1997 1.499 . S
C1995 H1969 0.950 . S
C1995 C1994 1.414 . S
C1995 C1996 1.374 . S
C1996 H1970 0.950 . S
C1996 C1992 1.385 . S
C1996 C1995 1.374 . S
C1997 C1994 1.499 . S
C1997 C1998 1.373 . S
C1997 C1999 1.389 . S
C1998 H1971 0.950 . S
C1998 C1984 1.377 . S
C1998 C1997 1.373 . S
C1999 C1983 1.377 . S
C1999 C1997 1.389 . S
C1999 C2000 1.524 . S
C2000 C1999 1.524 . S
C2000 C2001 1.397 . S
C2000 C2005 1.363 . S
C2001 H1972 0.950 . S
C2001 C2000 1.397 . S
C2001 C2002 1.334 . S
C2002 H1973 0.950 . S
C2002 C2001 1.334 . S
C2002 C2003 1.287 . S
C2003 C2002 1.287 . S
C2003 C2004 1.524 . S
C2003 H2006 0.999 . S
C2004 H1974 0.950 . S
C2004 C2003 1.524 . S
C2004 C2005 1.415 . S
C2005 H1975 0.950 . S
C2005 C2000 1.363 . S
C2005 C2004 1.415 . S
H2006 C2003 0.999 . S
H2007 C1988 0.913 . S
H2008 C2026 0.951 . S
H2009 C2028 0.951 . S
H2010 C2030 0.950 . S
H2011 C2031 0.950 . S
H2012 C2033 0.950 . S
H2013 C2036 0.950 . S
H2014 C2037 0.950 . S
H2015 C2039 0.950 . S
H2016 C2040 0.950 . S
H2017 C2041 0.951 . S
H2018 C2043 0.951 . S
H2019 C2045 0.950 . S
H2020 C2046 0.950 . S
H2021 C2048 0.950 . S
H2022 C2051 0.950 . S
H2023 C2052 0.950 . S
H2024 C2054 0.950 . S
H2025 C2055 0.950 . S
C2026 H2008 0.951 . S
C2026 C2027 1.366 . S
C2026 C2028 1.388 . S
C2027 C2026 1.366 . S
C2027 C2031 1.385 . S
C2028 H2009 0.951 . S
C2028 C2026 1.388 . S
C2028 C2029 1.366 . S
C2029 C2028 1.366 . S
C2029 C2030 1.414 . S
C2029 C2032 1.499 . S
C2030 H2010 0.950 . S
C2030 C2029 1.414 . S
C2030 C2031 1.374 . S
C2031 H2011 0.950 . S
C2031 C2027 1.385 . S
C2031 C2030 1.374 . S
C2032 C2029 1.499 . S
C2032 C2033 1.373 . S
C2032 C2034 1.389 . S
C2033 H2012 0.950 . S
C2033 C2032 1.373 . S
C2033 C2049 1.377 . S
C2034 C2032 1.389 . S
C2034 C2035 1.524 . S
C2034 C2048 1.377 . S
C2035 C2034 1.524 . S
C2035 C2036 1.397 . S
C2035 C2040 1.363 . S
C2036 H2013 0.950 . S
C2036 C2035 1.397 . S
C2036 C2037 1.334 . S
C2037 H2014 0.950 . S
C2037 C2036 1.334 . S
C2037 C2038 1.287 . S
C2038 C2037 1.287 . S
C2038 C2039 1.524 . S
C2038 H2057 0.913 . S
C2039 H2015 0.950 . S
C2039 C2038 1.524 . S
C2039 C2040 1.415 . S
C2040 H2016 0.950 . S
C2040 C2035 1.363 . S
C2040 C2039 1.415 . S
C2041 H2017 0.951 . S
C2041 C2042 1.366 . S
C2041 C2043 1.388 . S
C2042 C2041 1.366 . S
C2042 C2046 1.385 . S
C2043 H2018 0.951 . S
C2043 C2041 1.388 . S
C2043 C2044 1.366 . S
C2044 C2043 1.366 . S
C2044 C2045 1.414 . S
C2044 C2047 1.499 . S
C2045 H2019 0.950 . S
C2045 C2044 1.414 . S
C2045 C2046 1.374 . S
C2046 H2020 0.950 . S
C2046 C2042 1.385 . S
C2046 C2045 1.374 . S
C2047 C2044 1.499 . S
C2047 C2048 1.373 . S
C2047 C2049 1.389 . S
C2048 H2021 0.950 . S
C2048 C2034 1.377 . S
C2048 C2047 1.373 . S
C2049 C2033 1.377 . S
C2049 C2047 1.389 . S
C2049 C2050 1.524 . S
C2050 C2049 1.524 . S
C2050 C2051 1.397 . S
C2050 C2055 1.363 . S
C2051 H2022 0.950 . S
C2051 C2050 1.397 . S
C2051 C2052 1.334 . S
C2052 H2023 0.950 . S
C2052 C2051 1.334 . S
C2052 C2053 1.287 . S
C2053 C2052 1.287 . S
C2053 C2054 1.524 . S
C2053 H2056 0.999 . S
C2054 H2024 0.950 . S
C2054 C2053 1.524 . S
C2054 C2055 1.415 . S
C2055 H2025 0.950 . S
C2055 C2050 1.363 . S
C2055 C2054 1.415 . S
H2056 C2053 0.999 . S
H2057 C2038 0.913 . S
H2058 C2076 0.951 . S
H2059 C2078 0.951 . S
H2060 C2080 0.950 . S
H2061 C2081 0.950 . S
H2062 C2083 0.950 . S
H2063 C2086 0.950 . S
H2064 C2087 0.950 . S
H2065 C2089 0.950 . S
H2066 C2090 0.950 . S
H2067 C2091 0.951 . S
H2068 C2093 0.951 . S
H2069 C2095 0.950 . S
H2070 C2096 0.950 . S
H2071 C2098 0.950 . S
H2072 C2101 0.950 . S
H2073 C2102 0.950 . S
H2074 C2104 0.950 . S
H2075 C2105 0.950 . S
C2076 H2058 0.951 . S
C2076 C2077 1.366 . S
C2076 C2078 1.388 . S
C2077 C2076 1.366 . S
C2077 C2081 1.385 . S
C2078 H2059 0.951 . S
C2078 C2076 1.388 . S
C2078 C2079 1.366 . S
C2079 C2078 1.366 . S
C2079 C2080 1.414 . S
C2079 C2082 1.499 . S
C2080 H2060 0.950 . S
C2080 C2079 1.414 . S
C2080 C2081 1.374 . S
C2081 H2061 0.950 . S
C2081 C2077 1.385 . S
C2081 C2080 1.374 . S
C2082 C2079 1.499 . S
C2082 C2083 1.373 . S
C2082 C2084 1.389 . S
C2083 H2062 0.950 . S
C2083 C2082 1.373 . S
C2083 C2099 1.377 . S
C2084 C2082 1.389 . S
C2084 C2085 1.524 . S
C2084 C2098 1.377 . S
C2085 C2084 1.524 . S
C2085 C2086 1.397 . S
C2085 C2090 1.363 . S
C2086 H2063 0.950 . S
C2086 C2085 1.397 . S
C2086 C2087 1.334 . S
C2087 H2064 0.950 . S
C2087 C2086 1.334 . S
C2087 C2088 1.287 . S
C2088 C2087 1.287 . S
C2088 C2089 1.524 . S
C2088 H2107 0.913 . S
C2089 H2065 0.950 . S
C2089 C2088 1.524 . S
C2089 C2090 1.415 . S
C2090 H2066 0.950 . S
C2090 C2085 1.363 . S
C2090 C2089 1.415 . S
C2091 H2067 0.951 . S
C2091 C2092 1.366 . S
C2091 C2093 1.388 . S
C2092 C2091 1.366 . S
C2092 C2096 1.385 . S
C2093 H2068 0.951 . S
C2093 C2091 1.388 . S
C2093 C2094 1.366 . S
C2094 C2093 1.366 . S
C2094 C2095 1.414 . S
C2094 C2097 1.499 . S
C2095 H2069 0.950 . S
C2095 C2094 1.414 . S
C2095 C2096 1.374 . S
C2096 H2070 0.950 . S
C2096 C2092 1.385 . S
C2096 C2095 1.374 . S
C2097 C2094 1.499 . S
C2097 C2098 1.373 . S
C2097 C2099 1.389 . S
C2098 H2071 0.950 . S
C2098 C2084 1.377 . S
C2098 C2097 1.373 . S
C2099 C2083 1.377 . S
C2099 C2097 1.389 . S
C2099 C2100 1.524 . S
C2100 C2099 1.524 . S
C2100 C2101 1.397 . S
C2100 C2105 1.363 . S
C2101 H2072 0.950 . S
C2101 C2100 1.397 . S
C2101 C2102 1.334 . S
C2102 H2073 0.950 . S
C2102 C2101 1.334 . S
C2102 C2103 1.287 . S
C2103 C2102 1.287 . S
C2103 C2104 1.524 . S
C2103 H2106 0.999 . S
C2104 H2074 0.950 . S
C2104 C2103 1.524 . S
C2104 C2105 1.415 . S
C2105 H2075 0.950 . S
C2105 C2100 1.363 . S
C2105 C2104 1.415 . S
H2106 C2103 0.999 . S
H2107 C2088 0.913 . S
H2108 C2126 0.951 . S
H2109 C2128 0.951 . S
H2110 C2130 0.950 . S
H2111 C2131 0.950 . S
H2112 C2133 0.950 . S
H2113 C2136 0.950 . S
H2114 C2137 0.950 . S
H2115 C2139 0.950 . S
H2116 C2140 0.950 . S
H2117 C2141 0.951 . S
H2118 C2143 0.951 . S
H2119 C2145 0.950 . S
H2120 C2146 0.950 . S
H2121 C2148 0.950 . S
H2122 C2151 0.950 . S
H2123 C2152 0.950 . S
H2124 C2154 0.950 . S
H2125 C2155 0.950 . S
C2126 H2108 0.951 . S
C2126 C2127 1.366 . S
C2126 C2128 1.388 . S
C2127 C2126 1.366 . S
C2127 C2131 1.385 . S
C2128 H2109 0.951 . S
C2128 C2126 1.388 . S
C2128 C2129 1.366 . S
C2129 C2128 1.366 . S
C2129 C2130 1.414 . S
C2129 C2132 1.499 . S
C2130 H2110 0.950 . S
C2130 C2129 1.414 . S
C2130 C2131 1.374 . S
C2131 H2111 0.950 . S
C2131 C2127 1.385 . S
C2131 C2130 1.374 . S
C2132 C2129 1.499 . S
C2132 C2133 1.373 . S
C2132 C2134 1.389 . S
C2133 H2112 0.950 . S
C2133 C2132 1.373 . S
C2133 C2149 1.377 . S
C2134 C2132 1.389 . S
C2134 C2135 1.524 . S
C2134 C2148 1.377 . S
C2135 C2134 1.524 . S
C2135 C2136 1.397 . S
C2135 C2140 1.363 . S
C2136 H2113 0.950 . S
C2136 C2135 1.397 . S
C2136 C2137 1.334 . S
C2137 H2114 0.950 . S
C2137 C2136 1.334 . S
C2137 C2138 1.287 . S
C2138 C2137 1.287 . S
C2138 C2139 1.524 . S
C2138 H2157 0.913 . S
C2139 H2115 0.950 . S
C2139 C2138 1.524 . S
C2139 C2140 1.415 . S
C2140 H2116 0.950 . S
C2140 C2135 1.363 . S
C2140 C2139 1.415 . S
C2141 H2117 0.951 . S
C2141 C2142 1.366 . S
C2141 C2143 1.388 . S
C2142 C2141 1.366 . S
C2142 C2146 1.385 . S
C2143 H2118 0.951 . S
C2143 C2141 1.388 . S
C2143 C2144 1.366 . S
C2144 C2143 1.366 . S
C2144 C2145 1.414 . S
C2144 C2147 1.499 . S
C2145 H2119 0.950 . S
C2145 C2144 1.414 . S
C2145 C2146 1.374 . S
C2146 H2120 0.950 . S
C2146 C2142 1.385 . S
C2146 C2145 1.374 . S
C2147 C2144 1.499 . S
C2147 C2148 1.373 . S
C2147 C2149 1.389 . S
C2148 H2121 0.950 . S
C2148 C2134 1.377 . S
C2148 C2147 1.373 . S
C2149 C2133 1.377 . S
C2149 C2147 1.389 . S
C2149 C2150 1.524 . S
C2150 C2149 1.524 . S
C2150 C2151 1.397 . S
C2150 C2155 1.363 . S
C2151 H2122 0.950 . S
C2151 C2150 1.397 . S
C2151 C2152 1.334 . S
C2152 H2123 0.950 . S
C2152 C2151 1.334 . S
C2152 C2153 1.287 . S
C2153 C2152 1.287 . S
C2153 C2154 1.524 . S
C2153 H2156 0.999 . S
C2154 H2124 0.950 . S
C2154 C2153 1.524 . S
C2154 C2155 1.415 . S
C2155 H2125 0.950 . S
C2155 C2150 1.363 . S
C2155 C2154 1.415 . S
H2156 C2153 0.999 . S
H2157 C2138 0.913 . S
H2158 C2176 0.951 . S
H2159 C2178 0.951 . S
H2160 C2180 0.950 . S
H2161 C2181 0.950 . S
H2162 C2183 0.950 . S
H2163 C2186 0.950 . S
H2164 C2187 0.950 . S
H2165 C2189 0.950 . S
H2166 C2190 0.950 . S
H2167 C2191 0.951 . S
H2168 C2193 0.951 . S
H2169 C2195 0.950 . S
H2170 C2196 0.950 . S
H2171 C2198 0.950 . S
H2172 C2201 0.950 . S
H2173 C2202 0.950 . S
H2174 C2204 0.950 . S
H2175 C2205 0.950 . S
C2176 H2158 0.951 . S
C2176 C2177 1.366 . S
C2176 C2178 1.388 . S
C2177 C2176 1.366 . S
C2177 C2181 1.385 . S
C2178 H2159 0.951 . S
C2178 C2176 1.388 . S
C2178 C2179 1.366 . S
C2179 C2178 1.366 . S
C2179 C2180 1.414 . S
C2179 C2182 1.499 . S
C2180 H2160 0.950 . S
C2180 C2179 1.414 . S
C2180 C2181 1.374 . S
C2181 H2161 0.950 . S
C2181 C2177 1.385 . S
C2181 C2180 1.374 . S
C2182 C2179 1.499 . S
C2182 C2183 1.373 . S
C2182 C2184 1.389 . S
C2183 H2162 0.950 . S
C2183 C2182 1.373 . S
C2183 C2199 1.377 . S
C2184 C2182 1.389 . S
C2184 C2185 1.524 . S
C2184 C2198 1.377 . S
C2185 C2184 1.524 . S
C2185 C2186 1.397 . S
C2185 C2190 1.363 . S
C2186 H2163 0.950 . S
C2186 C2185 1.397 . S
C2186 C2187 1.334 . S
C2187 H2164 0.950 . S
C2187 C2186 1.334 . S
C2187 C2188 1.287 . S
C2188 C2187 1.287 . S
C2188 C2189 1.524 . S
C2188 H2207 0.913 . S
C2189 H2165 0.950 . S
C2189 C2188 1.524 . S
C2189 C2190 1.415 . S
C2190 H2166 0.950 . S
C2190 C2185 1.363 . S
C2190 C2189 1.415 . S
C2191 H2167 0.951 . S
C2191 C2192 1.366 . S
C2191 C2193 1.388 . S
C2192 C2191 1.366 . S
C2192 C2196 1.385 . S
C2193 H2168 0.951 . S
C2193 C2191 1.388 . S
C2193 C2194 1.366 . S
C2194 C2193 1.366 . S
C2194 C2195 1.414 . S
C2194 C2197 1.499 . S
C2195 H2169 0.950 . S
C2195 C2194 1.414 . S
C2195 C2196 1.374 . S
C2196 H2170 0.950 . S
C2196 C2192 1.385 . S
C2196 C2195 1.374 . S
C2197 C2194 1.499 . S
C2197 C2198 1.373 . S
C2197 C2199 1.389 . S
C2198 H2171 0.950 . S
C2198 C2184 1.377 . S
C2198 C2197 1.373 . S
C2199 C2183 1.377 . S
C2199 C2197 1.389 . S
C2199 C2200 1.524 . S
C2200 C2199 1.524 . S
C2200 C2201 1.397 . S
C2200 C2205 1.363 . S
C2201 H2172 0.950 . S
C2201 C2200 1.397 . S
C2201 C2202 1.334 . S
C2202 H2173 0.950 . S
C2202 C2201 1.334 . S
C2202 C2203 1.287 . S
C2203 C2202 1.287 . S
C2203 C2204 1.524 . S
C2203 H2206 0.999 . S
C2204 H2174 0.950 . S
C2204 C2203 1.524 . S
C2204 C2205 1.415 . S
C2205 H2175 0.950 . S
C2205 C2200 1.363 . S
C2205 C2204 1.415 . S
H2206 C2203 0.999 . S
H2207 C2188 0.913 . S
H2208 C2226 0.951 . S
H2209 C2228 0.951 . S
H2210 C2230 0.950 . S
H2211 C2231 0.950 . S
H2212 C2233 0.950 . S
H2213 C2236 0.950 . S
H2214 C2237 0.950 . S
H2215 C2239 0.950 . S
H2216 C2240 0.950 . S
H2217 C2241 0.951 . S
H2218 C2243 0.951 . S
H2219 C2245 0.950 . S
H2220 C2246 0.950 . S
H2221 C2248 0.950 . S
H2222 C2251 0.950 . S
H2223 C2252 0.950 . S
H2224 C2254 0.950 . S
H2225 C2255 0.950 . S
C2226 H2208 0.951 . S
C2226 C2227 1.366 . S
C2226 C2228 1.388 . S
C2227 C2226 1.366 . S
C2227 C2231 1.385 . S
C2228 H2209 0.951 . S
C2228 C2226 1.388 . S
C2228 C2229 1.366 . S
C2229 C2228 1.366 . S
C2229 C2230 1.414 . S
C2229 C2232 1.499 . S
C2230 H2210 0.950 . S
C2230 C2229 1.414 . S
C2230 C2231 1.374 . S
C2231 H2211 0.950 . S
C2231 C2227 1.385 . S
C2231 C2230 1.374 . S
C2232 C2229 1.499 . S
C2232 C2233 1.373 . S
C2232 C2234 1.389 . S
C2233 H2212 0.950 . S
C2233 C2232 1.373 . S
C2233 C2249 1.377 . S
C2234 C2232 1.389 . S
C2234 C2235 1.524 . S
C2234 C2248 1.377 . S
C2235 C2234 1.524 . S
C2235 C2236 1.397 . S
C2235 C2240 1.363 . S
C2236 H2213 0.950 . S
C2236 C2235 1.397 . S
C2236 C2237 1.334 1_455 S
C2237 H2214 0.950 . S
C2237 C2236 1.334 1_655 S
C2237 C2238 1.287 . S
C2238 C2237 1.287 . S
C2238 C2239 1.524 . S
C2238 H2257 0.913 . S
C2239 H2215 0.950 . S
C2239 C2238 1.524 . S
C2239 C2240 1.415 1_655 S
C2240 H2216 0.950 . S
C2240 C2235 1.363 . S
C2240 C2239 1.415 1_455 S
C2241 H2217 0.951 . S
C2241 C2242 1.366 . S
C2241 C2243 1.388 . S
C2242 C2241 1.366 . S
C2242 C2246 1.385 . S
C2243 H2218 0.951 . S
C2243 C2241 1.388 . S
C2243 C2244 1.366 . S
C2244 C2243 1.366 . S
C2244 C2245 1.414 . S
C2244 C2247 1.499 . S
C2245 H2219 0.950 . S
C2245 C2244 1.414 . S
C2245 C2246 1.374 . S
C2246 H2220 0.950 . S
C2246 C2242 1.385 . S
C2246 C2245 1.374 . S
C2247 C2244 1.499 . S
C2247 C2248 1.373 . S
C2247 C2249 1.389 . S
C2248 H2221 0.950 . S
C2248 C2234 1.377 . S
C2248 C2247 1.373 . S
C2249 C2233 1.377 . S
C2249 C2247 1.389 . S
C2249 C2250 1.524 . S
C2250 C2249 1.524 . S
C2250 C2251 1.397 . S
C2250 C2255 1.363 . S
C2251 H2222 0.950 . S
C2251 C2250 1.397 . S
C2251 C2252 1.334 . S
C2252 H2223 0.950 . S
C2252 C2251 1.334 . S
C2252 C2253 1.287 . S
C2253 C2252 1.287 . S
C2253 C2254 1.524 . S
C2253 H2256 0.999 . S
C2254 H2224 0.950 . S
C2254 C2253 1.524 . S
C2254 C2255 1.415 . S
C2255 H2225 0.950 . S
C2255 C2250 1.363 . S
C2255 C2254 1.415 . S
H2256 C2253 0.999 . S
H2257 C2238 0.913 . S
H2258 C2276 0.951 . S
H2259 C2278 0.951 . S
H2260 C2280 0.950 . S
H2261 C2281 0.950 . S
H2262 C2283 0.950 . S
H2263 C2286 0.950 . S
H2264 C2287 0.950 . S
H2265 C2289 0.950 . S
H2266 C2290 0.950 . S
H2267 C2291 0.951 . S
H2268 C2293 0.951 . S
H2269 C2295 0.950 . S
H2270 C2296 0.950 . S
H2271 C2298 0.950 . S
H2272 C2301 0.950 . S
H2273 C2302 0.950 . S
H2274 C2304 0.950 . S
H2275 C2305 0.950 . S
C2276 H2258 0.951 . S
C2276 C2277 1.366 . S
C2276 C2278 1.388 . S
C2277 C2276 1.366 . S
C2277 C2281 1.385 . S
C2278 H2259 0.951 . S
C2278 C2276 1.388 . S
C2278 C2279 1.366 . S
C2279 C2278 1.366 . S
C2279 C2280 1.414 . S
C2279 C2282 1.499 . S
C2280 H2260 0.950 . S
C2280 C2279 1.414 . S
C2280 C2281 1.374 . S
C2281 H2261 0.950 . S
C2281 C2277 1.385 . S
C2281 C2280 1.374 . S
C2282 C2279 1.499 . S
C2282 C2283 1.373 . S
C2282 C2284 1.389 . S
C2283 H2262 0.950 . S
C2283 C2282 1.373 . S
C2283 C2299 1.377 . S
C2284 C2282 1.389 . S
C2284 C2285 1.524 . S
C2284 C2298 1.377 . S
C2285 C2284 1.524 . S
C2285 C2286 1.397 . S
C2285 C2290 1.363 . S
C2286 H2263 0.950 . S
C2286 C2285 1.397 . S
C2286 C2287 1.334 1_545 S
C2287 H2264 0.950 . S
C2287 C2286 1.334 1_565 S
C2287 C2288 1.287 . S
C2288 C2287 1.287 . S
C2288 C2289 1.524 . S
C2288 H2307 0.913 . S
C2289 H2265 0.950 . S
C2289 C2288 1.524 . S
C2289 C2290 1.415 1_565 S
C2290 H2266 0.950 . S
C2290 C2285 1.363 . S
C2290 C2289 1.415 1_545 S
C2291 H2267 0.951 . S
C2291 C2292 1.366 . S
C2291 C2293 1.388 . S
C2292 C2291 1.366 . S
C2292 C2296 1.385 . S
C2293 H2268 0.951 . S
C2293 C2291 1.388 . S
C2293 C2294 1.366 . S
C2294 C2293 1.366 . S
C2294 C2295 1.414 . S
C2294 C2297 1.499 . S
C2295 H2269 0.950 . S
C2295 C2294 1.414 . S
C2295 C2296 1.374 . S
C2296 H2270 0.950 . S
C2296 C2292 1.385 . S
C2296 C2295 1.374 . S
C2297 C2294 1.499 . S
C2297 C2298 1.373 . S
C2297 C2299 1.389 . S
C2298 H2271 0.950 . S
C2298 C2284 1.377 . S
C2298 C2297 1.373 . S
C2299 C2283 1.377 . S
C2299 C2297 1.389 . S
C2299 C2300 1.524 . S
C2300 C2299 1.524 . S
C2300 C2301 1.397 . S
C2300 C2305 1.363 . S
C2301 H2272 0.950 . S
C2301 C2300 1.397 . S
C2301 C2302 1.334 . S
C2302 H2273 0.950 . S
C2302 C2301 1.334 . S
C2302 C2303 1.287 . S
C2303 C2302 1.287 . S
C2303 C2304 1.524 . S
C2303 H2306 0.999 . S
C2304 H2274 0.950 . S
C2304 C2303 1.524 . S
C2304 C2305 1.415 . S
C2305 H2275 0.950 . S
C2305 C2300 1.363 . S
C2305 C2304 1.415 . S
H2306 C2303 0.999 . S
H2307 C2288 0.913 . S
H2308 C2326 0.951 . S
H2309 C2328 0.951 . S
H2310 C2330 0.950 . S
H2311 C2331 0.950 . S
H2312 C2333 0.950 . S
H2313 C2336 0.950 . S
H2314 C2337 0.950 . S
H2315 C2339 0.950 . S
H2316 C2340 0.950 . S
H2317 C2341 0.951 . S
H2318 C2343 0.951 . S
H2319 C2345 0.950 . S
H2320 C2346 0.950 1_455 S
H2321 C2348 0.950 . S
H2322 C2351 0.950 . S
H2323 C2352 0.950 . S
H2324 C2354 0.950 . S
H2325 C2355 0.950 . S
C2326 H2308 0.951 . S
C2326 C2327 1.366 . S
C2326 C2328 1.388 . S
C2327 C2326 1.366 . S
C2327 C2331 1.385 . S
C2328 H2309 0.951 . S
C2328 C2326 1.388 . S
C2328 C2329 1.366 . S
C2329 C2328 1.366 . S
C2329 C2330 1.414 . S
C2329 C2332 1.499 . S
C2330 H2310 0.950 . S
C2330 C2329 1.414 . S
C2330 C2331 1.374 . S
C2331 H2311 0.950 . S
C2331 C2327 1.385 . S
C2331 C2330 1.374 . S
C2332 C2329 1.499 . S
C2332 C2333 1.373 . S
C2332 C2334 1.389 . S
C2333 H2312 0.950 . S
C2333 C2332 1.373 . S
C2333 C2349 1.377 . S
C2334 C2332 1.389 . S
C2334 C2335 1.524 . S
C2334 C2348 1.377 . S
C2335 C2334 1.524 . S
C2335 C2336 1.397 . S
C2335 C2340 1.363 . S
C2336 H2313 0.950 . S
C2336 C2335 1.397 . S
C2336 C2337 1.334 . S
C2337 H2314 0.950 . S
C2337 C2336 1.334 . S
C2337 C2338 1.287 . S
C2338 C2337 1.287 . S
C2338 C2339 1.524 . S
C2338 H2357 0.913 . S
C2339 H2315 0.950 . S
C2339 C2338 1.524 . S
C2339 C2340 1.415 . S
C2340 H2316 0.950 . S
C2340 C2335 1.363 . S
C2340 C2339 1.415 . S
C2341 H2317 0.951 . S
C2341 C2342 1.366 . S
C2341 C2343 1.388 . S
C2342 C2341 1.366 . S
C2342 C2346 1.385 . S
C2343 H2318 0.951 . S
C2343 C2341 1.388 . S
C2343 C2344 1.366 . S
C2344 C2343 1.366 . S
C2344 C2345 1.414 . S
C2344 C2347 1.499 . S
C2345 H2319 0.950 . S
C2345 C2344 1.414 . S
C2345 C2346 1.374 . S
C2346 H2320 0.950 1_655 S
C2346 C2342 1.385 . S
C2346 C2345 1.374 . S
C2347 C2344 1.499 . S
C2347 C2348 1.373 . S
C2347 C2349 1.389 . S
C2348 H2321 0.950 . S
C2348 C2334 1.377 . S
C2348 C2347 1.373 . S
C2349 C2333 1.377 . S
C2349 C2347 1.389 . S
C2349 C2350 1.524 . S
C2350 C2349 1.524 . S
C2350 C2351 1.397 . S
C2350 C2355 1.363 . S
C2351 H2322 0.950 . S
C2351 C2350 1.397 . S
C2351 C2352 1.334 . S
C2352 H2323 0.950 . S
C2352 C2351 1.334 . S
C2352 C2353 1.287 . S
C2353 C2352 1.287 . S
C2353 C2354 1.524 . S
C2353 H2356 0.999 . S
C2354 H2324 0.950 . S
C2354 C2353 1.524 . S
C2354 C2355 1.415 . S
C2355 H2325 0.950 . S
C2355 C2350 1.363 . S
C2355 C2354 1.415 . S
H2356 C2353 0.999 . S
H2357 C2338 0.913 . S
H2358 C2376 0.951 . S
H2359 C2378 0.951 . S
H2360 C2380 0.950 . S
H2361 C2381 0.950 . S
H2362 C2383 0.950 . S
H2363 C2386 0.950 . S
H2364 C2387 0.950 . S
H2365 C2389 0.950 . S
H2366 C2390 0.950 . S
H2367 C2391 0.951 . S
H2368 C2393 0.951 . S
H2369 C2395 0.950 . S
H2370 C2396 0.950 . S
H2371 C2398 0.950 . S
H2372 C2401 0.950 . S
H2373 C2402 0.950 . S
H2374 C2404 0.950 1_545 S
H2375 C2405 0.950 . S
C2376 H2358 0.951 . S
C2376 C2377 1.366 . S
C2376 C2378 1.388 . S
C2377 C2376 1.366 . S
C2377 C2381 1.385 . S
C2378 H2359 0.951 . S
C2378 C2376 1.388 . S
C2378 C2379 1.366 . S
C2379 C2378 1.366 . S
C2379 C2380 1.414 . S
C2379 C2382 1.499 . S
C2380 H2360 0.950 . S
C2380 C2379 1.414 . S
C2380 C2381 1.374 . S
C2381 H2361 0.950 . S
C2381 C2377 1.385 . S
C2381 C2380 1.374 . S
C2382 C2379 1.499 . S
C2382 C2383 1.373 . S
C2382 C2384 1.389 . S
C2383 H2362 0.950 . S
C2383 C2382 1.373 . S
C2383 C2399 1.377 . S
C2384 C2382 1.389 . S
C2384 C2385 1.524 . S
C2384 C2398 1.377 . S
C2385 C2384 1.524 . S
C2385 C2386 1.397 . S
C2385 C2390 1.363 . S
C2386 H2363 0.950 . S
C2386 C2385 1.397 . S
C2386 C2387 1.334 . S
C2387 H2364 0.950 . S
C2387 C2386 1.334 . S
C2387 C2388 1.287 . S
C2388 C2387 1.287 . S
C2388 C2389 1.524 . S
C2388 H2407 0.913 . S
C2389 H2365 0.950 . S
C2389 C2388 1.524 . S
C2389 C2390 1.415 . S
C2390 H2366 0.950 . S
C2390 C2385 1.363 . S
C2390 C2389 1.415 . S
C2391 H2367 0.951 . S
C2391 C2392 1.366 . S
C2391 C2393 1.388 . S
C2392 C2391 1.366 . S
C2392 C2396 1.385 . S
C2393 H2368 0.951 . S
C2393 C2391 1.388 . S
C2393 C2394 1.366 . S
C2394 C2393 1.366 . S
C2394 C2395 1.414 . S
C2394 C2397 1.499 . S
C2395 H2369 0.950 . S
C2395 C2394 1.414 . S
C2395 C2396 1.374 . S
C2396 H2370 0.950 . S
C2396 C2392 1.385 . S
C2396 C2395 1.374 . S
C2397 C2394 1.499 . S
C2397 C2398 1.373 . S
C2397 C2399 1.389 . S
C2398 H2371 0.950 . S
C2398 C2384 1.377 . S
C2398 C2397 1.373 . S
C2399 C2383 1.377 . S
C2399 C2397 1.389 . S
C2399 C2400 1.524 . S
C2400 C2399 1.524 . S
C2400 C2401 1.397 . S
C2400 C2405 1.363 . S
C2401 H2372 0.950 . S
C2401 C2400 1.397 . S
C2401 C2402 1.334 . S
C2402 H2373 0.950 . S
C2402 C2401 1.334 . S
C2402 C2403 1.287 . S
C2403 C2402 1.287 . S
C2403 C2404 1.524 . S
C2403 H2406 0.999 . S
C2404 H2374 0.950 1_565 S
C2404 C2403 1.524 . S
C2404 C2405 1.415 . S
C2405 H2375 0.950 . S
C2405 C2400 1.363 . S
C2405 C2404 1.415 . S
H2406 C2403 0.999 . S
H2407 C2388 0.913 . S
H2408 C2426 0.951 . S
H2409 C2428 0.951 . S
H2410 C2430 0.950 . S
H2411 C2431 0.950 . S
H2412 C2433 0.950 . S
H2413 C2436 0.950 . S
H2414 C2437 0.950 . S
H2415 C2439 0.950 . S
H2416 C2440 0.950 . S
H2417 C2441 0.951 . S
H2418 C2443 0.951 . S
H2419 C2445 0.950 . S
H2420 C2446 0.950 . S
H2421 C2448 0.950 . S
H2422 C2451 0.950 . S
H2423 C2452 0.950 . S
H2424 C2454 0.950 . S
H2425 C2455 0.950 . S
C2426 H2408 0.951 . S
C2426 C2427 1.366 . S
C2426 C2428 1.388 . S
C2427 C2426 1.366 . S
C2427 C2431 1.385 . S
C2428 H2409 0.951 . S
C2428 C2426 1.388 . S
C2428 C2429 1.366 . S
C2429 C2428 1.366 . S
C2429 C2430 1.414 . S
C2429 C2432 1.499 . S
C2430 H2410 0.950 . S
C2430 C2429 1.414 . S
C2430 C2431 1.374 . S
C2431 H2411 0.950 . S
C2431 C2427 1.385 . S
C2431 C2430 1.374 . S
C2432 C2429 1.499 . S
C2432 C2433 1.373 . S
C2432 C2434 1.389 . S
C2433 H2412 0.950 . S
C2433 C2432 1.373 . S
C2433 C2449 1.377 . S
C2434 C2432 1.389 . S
C2434 C2435 1.524 . S
C2434 C2448 1.377 . S
C2435 C2434 1.524 . S
C2435 C2436 1.397 . S
C2435 C2440 1.363 . S
C2436 H2413 0.950 . S
C2436 C2435 1.397 . S
C2436 C2437 1.334 . S
C2437 H2414 0.950 . S
C2437 C2436 1.334 . S
C2437 C2438 1.287 . S
C2438 C2437 1.287 . S
C2438 C2439 1.524 . S
C2438 H2457 0.913 . S
C2439 H2415 0.950 . S
C2439 C2438 1.524 . S
C2439 C2440 1.415 . S
C2440 H2416 0.950 . S
C2440 C2435 1.363 . S
C2440 C2439 1.415 . S
C2441 H2417 0.951 . S
C2441 C2442 1.366 . S
C2441 C2443 1.388 . S
C2442 C2441 1.366 . S
C2442 C2446 1.385 . S
C2443 H2418 0.951 . S
C2443 C2441 1.388 . S
C2443 C2444 1.366 . S
C2444 C2443 1.366 . S
C2444 C2445 1.414 . S
C2444 C2447 1.499 . S
C2445 H2419 0.950 . S
C2445 C2444 1.414 . S
C2445 C2446 1.374 . S
C2446 H2420 0.950 . S
C2446 C2442 1.385 . S
C2446 C2445 1.374 . S
C2447 C2444 1.499 . S
C2447 C2448 1.373 . S
C2447 C2449 1.389 . S
C2448 H2421 0.950 . S
C2448 C2434 1.377 . S
C2448 C2447 1.373 . S
C2449 C2433 1.377 . S
C2449 C2447 1.389 . S
C2449 C2450 1.524 . S
C2450 C2449 1.524 . S
C2450 C2451 1.397 . S
C2450 C2455 1.363 . S
C2451 H2422 0.950 . S
C2451 C2450 1.397 . S
C2451 C2452 1.334 . S
C2452 H2423 0.950 . S
C2452 C2451 1.334 . S
C2452 C2453 1.287 . S
C2453 C2452 1.287 . S
C2453 C2454 1.524 . S
C2453 H2456 0.999 . S
C2454 H2424 0.950 . S
C2454 C2453 1.524 . S
C2454 C2455 1.415 . S
C2455 H2425 0.950 . S
C2455 C2450 1.363 . S
C2455 C2454 1.415 . S
H2456 C2453 0.999 . S
H2457 C2438 0.913 . S
H2458 C2476 0.951 . S
H2459 C2478 0.951 . S
H2460 C2480 0.950 . S
H2461 C2481 0.950 . S
H2462 C2483 0.950 . S
H2463 C2486 0.950 . S
H2464 C2487 0.950 . S
H2465 C2489 0.950 . S
H2466 C2490 0.950 . S
H2467 C2491 0.951 . S
H2468 C2493 0.951 . S
H2469 C2495 0.950 . S
H2470 C2496 0.950 . S
H2471 C2498 0.950 . S
H2472 C2501 0.950 . S
H2473 C2502 0.950 1_565 S
H2474 C2504 0.950 . S
H2475 C2505 0.950 . S
C2476 H2458 0.951 . S
C2476 C2477 1.366 . S
C2476 C2478 1.388 . S
C2477 C2476 1.366 . S
C2477 C2481 1.385 . S
C2478 H2459 0.951 . S
C2478 C2476 1.388 . S
C2478 C2479 1.366 . S
C2479 C2478 1.366 . S
C2479 C2480 1.414 . S
C2479 C2482 1.499 . S
C2480 H2460 0.950 . S
C2480 C2479 1.414 . S
C2480 C2481 1.374 . S
C2481 H2461 0.950 . S
C2481 C2477 1.385 . S
C2481 C2480 1.374 . S
C2482 C2479 1.499 . S
C2482 C2483 1.373 . S
C2482 C2484 1.389 . S
C2483 H2462 0.950 . S
C2483 C2482 1.373 . S
C2483 C2499 1.377 . S
C2484 C2482 1.389 . S
C2484 C2485 1.524 . S
C2484 C2498 1.377 . S
C2485 C2484 1.524 . S
C2485 C2486 1.397 . S
C2485 C2490 1.363 . S
C2486 H2463 0.950 . S
C2486 C2485 1.397 . S
C2486 C2487 1.334 . S
C2487 H2464 0.950 . S
C2487 C2486 1.334 . S
C2487 C2488 1.287 . S
C2488 C2487 1.287 . S
C2488 C2489 1.524 . S
C2488 H2507 0.913 . S
C2489 H2465 0.950 . S
C2489 C2488 1.524 . S
C2489 C2490 1.415 . S
C2490 H2466 0.950 . S
C2490 C2485 1.363 . S
C2490 C2489 1.415 . S
C2491 H2467 0.951 . S
C2491 C2492 1.366 . S
C2491 C2493 1.388 . S
C2492 C2491 1.366 . S
C2492 C2496 1.385 . S
C2493 H2468 0.951 . S
C2493 C2491 1.388 . S
C2493 C2494 1.366 . S
C2494 C2493 1.366 . S
C2494 C2495 1.414 . S
C2494 C2497 1.499 . S
C2495 H2469 0.950 . S
C2495 C2494 1.414 . S
C2495 C2496 1.374 . S
C2496 H2470 0.950 . S
C2496 C2492 1.385 . S
C2496 C2495 1.374 . S
C2497 C2494 1.499 . S
C2497 C2498 1.373 . S
C2497 C2499 1.389 . S
C2498 H2471 0.950 . S
C2498 C2484 1.377 . S
C2498 C2497 1.373 . S
C2499 C2483 1.377 . S
C2499 C2497 1.389 . S
C2499 C2500 1.524 . S
C2500 C2499 1.524 . S
C2500 C2501 1.397 . S
C2500 C2505 1.363 . S
C2501 H2472 0.950 . S
C2501 C2500 1.397 . S
C2501 C2502 1.334 . S
C2502 H2473 0.950 1_545 S
C2502 C2501 1.334 . S
C2502 C2503 1.287 . S
C2503 C2502 1.287 . S
C2503 C2504 1.524 . S
C2503 H2506 0.999 1_545 S
C2504 H2474 0.950 . S
C2504 C2503 1.524 . S
C2504 C2505 1.415 . S
C2505 H2475 0.950 . S
C2505 C2500 1.363 . S
C2505 C2504 1.415 . S
H2506 C2503 0.999 1_565 S
H2507 C2488 0.913 . S
H2508 C2526 0.951 . S
H2509 C2528 0.951 . S
H2510 C2530 0.950 . S
H2511 C2531 0.950 . S
H2512 C2533 0.950 . S
H2513 C2536 0.950 . S
H2514 C2537 0.950 . S
H2515 C2539 0.950 . S
H2516 C2540 0.950 . S
H2517 C2541 0.951 . S
H2518 C2543 0.951 . S
H2519 C2545 0.950 . S
H2520 C2546 0.950 . S
H2521 C2548 0.950 . S
H2522 C2551 0.950 . S
H2523 C2552 0.950 . S
H2524 C2554 0.950 . S
H2525 C2555 0.950 . S
C2526 H2508 0.951 . S
C2526 C2527 1.366 . S
C2526 C2528 1.388 . S
C2527 C2526 1.366 . S
C2527 C2531 1.385 . S
C2528 H2509 0.951 . S
C2528 C2526 1.388 . S
C2528 C2529 1.366 . S
C2529 C2528 1.366 . S
C2529 C2530 1.414 . S
C2529 C2532 1.499 . S
C2530 H2510 0.950 . S
C2530 C2529 1.414 . S
C2530 C2531 1.374 . S
C2531 H2511 0.950 . S
C2531 C2527 1.385 . S
C2531 C2530 1.374 . S
C2532 C2529 1.499 . S
C2532 C2533 1.373 . S
C2532 C2534 1.389 . S
C2533 H2512 0.950 . S
C2533 C2532 1.373 . S
C2533 C2549 1.377 . S
C2534 C2532 1.389 . S
C2534 C2535 1.524 . S
C2534 C2548 1.377 . S
C2535 C2534 1.524 . S
C2535 C2536 1.397 . S
C2535 C2540 1.363 . S
C2536 H2513 0.950 . S
C2536 C2535 1.397 . S
C2536 C2537 1.334 . S
C2537 H2514 0.950 . S
C2537 C2536 1.334 . S
C2537 C2538 1.287 . S
C2538 C2537 1.287 . S
C2538 C2539 1.524 . S
C2538 H2557 0.913 . S
C2539 H2515 0.950 . S
C2539 C2538 1.524 . S
C2539 C2540 1.415 . S
C2540 H2516 0.950 . S
C2540 C2535 1.363 . S
C2540 C2539 1.415 . S
C2541 H2517 0.951 . S
C2541 C2542 1.366 . S
C2541 C2543 1.388 . S
C2542 C2541 1.366 . S
C2542 C2546 1.385 . S
C2543 H2518 0.951 . S
C2543 C2541 1.388 . S
C2543 C2544 1.366 . S
C2544 C2543 1.366 . S
C2544 C2545 1.414 . S
C2544 C2547 1.499 . S
C2545 H2519 0.950 . S
C2545 C2544 1.414 . S
C2545 C2546 1.374 . S
C2546 H2520 0.950 . S
C2546 C2542 1.385 . S
C2546 C2545 1.374 . S
C2547 C2544 1.499 . S
C2547 C2548 1.373 . S
C2547 C2549 1.389 . S
C2548 H2521 0.950 . S
C2548 C2534 1.377 . S
C2548 C2547 1.373 . S
C2549 C2533 1.377 . S
C2549 C2547 1.389 . S
C2549 C2550 1.524 . S
C2550 C2549 1.524 . S
C2550 C2551 1.397 . S
C2550 C2555 1.363 . S
C2551 H2522 0.950 . S
C2551 C2550 1.397 . S
C2551 C2552 1.334 . S
C2552 H2523 0.950 . S
C2552 C2551 1.334 . S
C2552 C2553 1.287 . S
C2553 C2552 1.287 . S
C2553 C2554 1.524 . S
C2553 H2556 0.999 . S
C2554 H2524 0.950 . S
C2554 C2553 1.524 . S
C2554 C2555 1.415 . S
C2555 H2525 0.950 . S
C2555 C2550 1.363 . S
C2555 C2554 1.415 . S
H2556 C2553 0.999 . S
H2557 C2538 0.913 . S
H2558 C2576 0.951 . S
H2559 C2578 0.951 . S
H2560 C2580 0.950 . S
H2561 C2581 0.950 . S
H2562 C2583 0.950 . S
H2563 C2586 0.950 . S
H2564 C2587 0.950 . S
H2565 C2589 0.950 . S
H2566 C2590 0.950 . S
H2567 C2591 0.951 . S
H2568 C2593 0.951 . S
H2569 C2595 0.950 . S
H2570 C2596 0.950 . S
H2571 C2598 0.950 . S
H2572 C2601 0.950 . S
H2573 C2602 0.950 . S
H2574 C2604 0.914 1_545 S
H2575 C2605 0.950 . S
C2576 H2558 0.951 . S
C2576 C2577 1.366 . S
C2576 C2578 1.388 . S
C2577 C2576 1.366 . S
C2577 C2581 1.385 . S
C2578 H2559 0.951 . S
C2578 C2576 1.388 . S
C2578 C2579 1.366 . S
C2579 C2578 1.366 . S
C2579 C2580 1.414 . S
C2579 C2582 1.499 . S
C2580 H2560 0.950 . S
C2580 C2579 1.414 . S
C2580 C2581 1.374 . S
C2581 H2561 0.950 . S
C2581 C2577 1.385 . S
C2581 C2580 1.374 . S
C2582 C2579 1.499 . S
C2582 C2583 1.373 . S
C2582 C2584 1.389 . S
C2583 H2562 0.950 . S
C2583 C2582 1.373 . S
C2583 C2599 1.377 . S
C2584 C2582 1.389 . S
C2584 C2585 1.524 . S
C2584 C2598 1.377 . S
C2585 C2584 1.524 . S
C2585 C2586 1.397 . S
C2585 C2590 1.363 . S
C2586 H2563 0.950 . S
C2586 C2585 1.397 . S
C2586 C2587 1.334 . S
C2587 H2564 0.950 . S
C2587 C2586 1.334 . S
C2587 C2588 1.287 . S
C2588 C2587 1.287 . S
C2588 C2589 1.524 . S
C2588 H2607 0.913 . S
C2589 H2565 0.950 . S
C2589 C2588 1.524 . S
C2589 C2590 1.415 . S
C2590 H2566 0.950 . S
C2590 C2585 1.363 . S
C2590 C2589 1.415 . S
C2591 H2567 0.951 . S
C2591 C2592 1.366 . S
C2591 C2593 1.388 . S
C2592 C2591 1.366 . S
C2592 C2596 1.385 . S
C2593 H2568 0.951 . S
C2593 C2591 1.388 . S
C2593 C2594 1.366 . S
C2594 C2593 1.366 . S
C2594 C2595 1.414 . S
C2594 C2597 1.499 . S
C2595 H2569 0.950 . S
C2595 C2594 1.414 . S
C2595 C2596 1.374 . S
C2596 H2570 0.950 . S
C2596 C2592 1.385 . S
C2596 C2595 1.374 . S
C2597 C2594 1.499 . S
C2597 C2598 1.373 . S
C2597 C2599 1.389 . S
C2598 H2571 0.950 . S
C2598 C2584 1.377 . S
C2598 C2597 1.373 . S
C2599 C2583 1.377 . S
C2599 C2597 1.389 . S
C2599 C2600 1.524 . S
C2600 C2599 1.524 . S
C2600 C2601 1.397 . S
C2600 C2605 1.363 . S
C2601 H2572 0.950 . S
C2601 C2600 1.397 . S
C2601 C2602 1.334 . S
C2602 H2573 0.950 . S
C2602 C2601 1.334 . S
C2602 C2603 1.287 . S
C2603 C2602 1.287 . S
C2603 C2604 1.524 . S
C2603 H2606 0.999 . S
C2604 H2574 0.914 1_565 S
C2604 C2603 1.524 . S
C2604 C2605 1.415 . S
C2605 H2575 0.950 . S
C2605 C2600 1.363 . S
C2605 C2604 1.415 . S
H2606 C2603 0.999 . S
H2607 C2588 0.913 . S
H2608 C2626 0.951 . S
H2609 C2628 0.951 . S
H2610 C2630 0.950 . S
H2611 C2631 0.950 . S
H2612 C2633 0.950 . S
H2613 C2636 0.950 . S
H2614 C2637 0.950 . S
H2615 C2639 0.950 . S
H2616 C2640 0.950 . S
H2617 C2641 0.951 . S
H2618 C2643 0.951 . S
H2619 C2645 0.950 . S
H2620 C2646 0.950 . S
H2621 C2648 0.950 . S
H2622 C2651 0.950 . S
H2623 C2652 0.950 . S
H2624 C2654 0.950 . S
H2625 C2655 0.950 . S
C2626 H2608 0.951 . S
C2626 C2627 1.366 . S
C2626 C2628 1.388 . S
C2627 C2626 1.366 . S
C2627 C2631 1.385 1_655 S
C2628 H2609 0.951 . S
C2628 C2626 1.388 . S
C2628 C2629 1.366 . S
C2629 C2628 1.366 . S
C2629 C2630 1.414 1_655 S
C2629 C2632 1.499 . S
C2630 H2610 0.950 . S
C2630 C2629 1.414 1_455 S
C2630 C2631 1.374 . S
C2631 H2611 0.950 . S
C2631 C2627 1.385 1_455 S
C2631 C2630 1.374 . S
C2632 C2629 1.499 . S
C2632 C2633 1.373 1_655 S
C2632 C2634 1.389 . S
C2633 H2612 0.950 . S
C2633 C2632 1.373 1_455 S
C2633 C2649 1.377 . S
C2634 C2632 1.389 . S
C2634 C2635 1.524 . S
C2634 C2648 1.377 . S
C2635 C2634 1.524 . S
C2635 C2636 1.397 . S
C2635 C2640 1.363 . S
C2636 H2613 0.950 . S
C2636 C2635 1.397 . S
C2636 C2637 1.334 . S
C2637 H2614 0.950 . S
C2637 C2636 1.334 . S
C2637 C2638 1.287 . S
C2638 C2637 1.287 . S
C2638 C2639 1.524 . S
C2638 H2657 0.913 . S
C2639 H2615 0.950 . S
C2639 C2638 1.524 . S
C2639 C2640 1.415 . S
C2640 H2616 0.950 . S
C2640 C2635 1.363 . S
C2640 C2639 1.415 . S
C2641 H2617 0.951 . S
C2641 C2642 1.366 . S
C2641 C2643 1.388 . S
C2642 C2641 1.366 . S
C2642 C2646 1.385 1_455 S
C2643 H2618 0.951 . S
C2643 C2641 1.388 . S
C2643 C2644 1.366 . S
C2644 C2643 1.366 . S
C2644 C2645 1.414 1_455 S
C2644 C2647 1.499 . S
C2645 H2619 0.950 . S
C2645 C2644 1.414 1_655 S
C2645 C2646 1.374 . S
C2646 H2620 0.950 . S
C2646 C2642 1.385 1_655 S
C2646 C2645 1.374 . S
C2647 C2644 1.499 . S
C2647 C2648 1.373 1_455 S
C2647 C2649 1.389 . S
C2648 H2621 0.950 . S
C2648 C2634 1.377 . S
C2648 C2647 1.373 1_655 S
C2649 C2633 1.377 . S
C2649 C2647 1.389 . S
C2649 C2650 1.524 . S
C2650 C2649 1.524 . S
C2650 C2651 1.397 . S
C2650 C2655 1.363 . S
C2651 H2622 0.950 . S
C2651 C2650 1.397 . S
C2651 C2652 1.334 . S
C2652 H2623 0.950 . S
C2652 C2651 1.334 . S
C2652 C2653 1.287 . S
C2653 C2652 1.287 . S
C2653 C2654 1.524 . S
C2653 H2656 0.999 . S
C2654 H2624 0.950 . S
C2654 C2653 1.524 . S
C2654 C2655 1.415 . S
C2655 H2625 0.950 . S
C2655 C2650 1.363 . S
C2655 C2654 1.415 . S
H2656 C2653 0.999 . S
H2657 C2638 0.913 . S
H2658 C2676 0.951 . S
H2659 C2678 0.951 . S
H2660 C2680 0.950 . S
H2661 C2681 0.950 . S
H2662 C2683 0.950 . S
H2663 C2686 0.950 . S
H2664 C2687 0.950 . S
H2665 C2689 0.950 . S
H2666 C2690 0.950 . S
H2667 C2691 0.951 . S
H2668 C2693 0.951 . S
H2669 C2695 0.950 . S
H2670 C2696 0.950 . S
H2671 C2698 0.950 . S
H2672 C2701 0.950 . S
H2673 C2702 0.950 . S
H2674 C2704 0.950 . S
H2675 C2705 0.950 . S
C2676 H2658 0.951 . S
C2676 C2677 1.366 1_565 S
C2676 C2678 1.388 . S
C2677 C2676 1.366 1_545 S
C2677 C2681 1.385 . S
C2678 H2659 0.951 . S
C2678 C2676 1.388 . S
C2678 C2679 1.359 1_565 S
C2679 C2678 1.359 1_545 S
C2679 C2680 1.421 . S
C2679 C2682 1.499 . S
C2680 H2660 0.950 . S
C2680 C2679 1.421 . S
C2680 C2681 1.374 . S
C2681 H2661 0.950 . S
C2681 C2677 1.385 . S
C2681 C2680 1.374 . S
C2682 C2679 1.499 . S
C2682 C2683 1.371 . S
C2682 C2684 1.392 1_545 S
C2683 H2662 0.950 . S
C2683 C2682 1.371 . S
C2683 C2699 1.377 . S
C2684 C2682 1.392 1_565 S
C2684 C2685 1.524 . S
C2684 C2698 1.377 . S
C2685 C2684 1.524 . S
C2685 C2686 1.397 . S
C2685 C2690 1.363 . S
C2686 H2663 0.950 . S
C2686 C2685 1.397 . S
C2686 C2687 1.334 . S
C2687 H2664 0.950 . S
C2687 C2686 1.334 . S
C2687 C2688 1.287 . S
C2688 C2687 1.287 . S
C2688 C2689 1.524 . S
C2688 H2707 0.913 . S
C2689 H2665 0.950 . S
C2689 C2688 1.524 . S
C2689 C2690 1.415 . S
C2690 H2666 0.950 . S
C2690 C2685 1.363 . S
C2690 C2689 1.415 . S
C2691 H2667 0.951 . S
C2691 C2692 1.366 1_545 S
C2691 C2693 1.388 . S
C2692 C2691 1.366 1_565 S
C2692 C2696 1.385 . S
C2693 H2668 0.951 . S
C2693 C2691 1.388 . S
C2693 C2694 1.359 1_545 S
C2694 C2693 1.359 1_565 S
C2694 C2695 1.421 . S
C2694 C2697 1.499 . S
C2695 H2669 0.950 . S
C2695 C2694 1.421 . S
C2695 C2696 1.374 . S
C2696 H2670 0.950 . S
C2696 C2692 1.385 . S
C2696 C2695 1.374 . S
C2697 C2694 1.499 . S
C2697 C2698 1.371 . S
C2697 C2699 1.392 1_565 S
C2698 H2671 0.950 . S
C2698 C2684 1.377 . S
C2698 C2697 1.371 . S
C2699 C2683 1.377 . S
C2699 C2697 1.392 1_545 S
C2699 C2700 1.524 . S
C2700 C2699 1.524 . S
C2700 C2701 1.397 . S
C2700 C2705 1.363 . S
C2701 H2672 0.950 . S
C2701 C2700 1.397 . S
C2701 C2702 1.334 . S
C2702 H2673 0.950 . S
C2702 C2701 1.334 . S
C2702 C2703 1.287 . S
C2703 C2702 1.287 . S
C2703 C2704 1.524 . S
C2703 H2706 0.999 . S
C2704 H2674 0.950 . S
C2704 C2703 1.524 . S
C2704 C2705 1.415 . S
C2705 H2675 0.950 . S
C2705 C2700 1.363 . S
C2705 C2704 1.415 . S
H2706 C2703 0.999 . S
H2707 C2688 0.913 . S
H2708 C2726 0.951 . S
H2709 C2728 0.951 . S
H2710 C2730 0.950 . S
H2711 C2731 0.950 . S
H2712 C2733 0.950 . S
H2713 C2736 0.950 . S
H2714 C2737 0.950 . S
H2715 C2739 0.950 . S
H2716 C2740 0.950 . S
H2717 C2741 0.951 . S
H2718 C2743 0.951 . S
H2719 C2745 0.950 . S
H2720 C2746 0.950 . S
H2721 C2748 0.950 . S
H2722 C2751 0.950 . S
H2723 C2752 0.950 . S
H2724 C2754 0.950 . S
H2725 C2755 0.950 . S
C2726 H2708 0.951 . S
C2726 C2727 1.366 . S
C2726 C2728 1.388 . S
C2727 C2726 1.366 . S
C2727 C2731 1.385 1_655 S
C2728 H2709 0.951 . S
C2728 C2726 1.388 . S
C2728 C2729 1.366 . S
C2729 C2728 1.366 . S
C2729 C2730 1.414 1_655 S
C2729 C2732 1.499 . S
C2730 H2710 0.950 . S
C2730 C2729 1.414 1_455 S
C2730 C2731 1.374 . S
C2731 H2711 0.950 . S
C2731 C2727 1.385 1_455 S
C2731 C2730 1.374 . S
C2732 C2729 1.499 . S
C2732 C2733 1.373 1_655 S
C2732 C2734 1.389 . S
C2733 H2712 0.950 . S
C2733 C2732 1.373 1_455 S
C2733 C2749 1.377 . S
C2734 C2732 1.389 . S
C2734 C2735 1.524 . S
C2734 C2748 1.377 . S
C2735 C2734 1.524 . S
C2735 C2736 1.397 . S
C2735 C2740 1.363 . S
C2736 H2713 0.950 . S
C2736 C2735 1.397 . S
C2736 C2737 1.334 . S
C2737 H2714 0.950 . S
C2737 C2736 1.334 . S
C2737 C2738 1.287 . S
C2738 C2737 1.287 . S
C2738 C2739 1.524 . S
C2738 H2757 0.913 . S
C2739 H2715 0.950 . S
C2739 C2738 1.524 . S
C2739 C2740 1.415 . S
C2740 H2716 0.950 . S
C2740 C2735 1.363 . S
C2740 C2739 1.415 . S
C2741 H2717 0.951 . S
C2741 C2742 1.366 . S
C2741 C2743 1.388 . S
C2742 C2741 1.366 . S
C2742 C2746 1.385 1_455 S
C2743 H2718 0.951 . S
C2743 C2741 1.388 . S
C2743 C2744 1.366 . S
C2744 C2743 1.366 . S
C2744 C2745 1.414 1_455 S
C2744 C2747 1.499 . S
C2745 H2719 0.950 . S
C2745 C2744 1.414 1_655 S
C2745 C2746 1.374 . S
C2746 H2720 0.950 . S
C2746 C2742 1.385 1_655 S
C2746 C2745 1.374 . S
C2747 C2744 1.499 . S
C2747 C2748 1.373 1_455 S
C2747 C2749 1.389 . S
C2748 H2721 0.950 . S
C2748 C2734 1.377 . S
C2748 C2747 1.373 1_655 S
C2749 C2733 1.377 . S
C2749 C2747 1.389 . S
C2749 C2750 1.524 . S
C2750 C2749 1.524 . S
C2750 C2751 1.397 . S
C2750 C2755 1.363 . S
C2751 H2722 0.950 . S
C2751 C2750 1.397 . S
C2751 C2752 1.334 . S
C2752 H2723 0.950 . S
C2752 C2751 1.334 . S
C2752 C2753 1.287 . S
C2753 C2752 1.287 . S
C2753 C2754 1.524 . S
C2753 H2756 0.999 . S
C2754 H2724 0.950 . S
C2754 C2753 1.524 . S
C2754 C2755 1.415 . S
C2755 H2725 0.950 . S
C2755 C2750 1.363 . S
C2755 C2754 1.415 . S
H2756 C2753 0.999 . S
H2757 C2738 0.913 . S
H2758 C2776 0.951 . S
H2759 C2778 0.951 . S
H2760 C2780 0.950 . S
H2761 C2781 0.950 . S
H2762 C2783 0.950 . S
H2763 C2786 0.950 . S
H2764 C2787 0.950 . S
H2765 C2789 0.950 . S
H2766 C2790 0.950 . S
H2767 C2791 0.951 . S
H2768 C2793 0.951 . S
H2769 C2795 0.950 . S
H2770 C2796 0.950 . S
H2771 C2798 0.950 . S
H2772 C2801 0.950 . S
H2773 C2802 0.950 . S
H2774 C2804 0.950 . S
H2775 C2805 0.950 . S
C2776 H2758 0.951 . S
C2776 C2777 1.366 . S
C2776 C2778 1.388 . S
C2777 C2776 1.366 . S
C2777 C2781 1.385 1_565 S
C2778 H2759 0.951 . S
C2778 C2776 1.388 . S
C2778 C2779 1.366 . S
C2779 C2778 1.366 . S
C2779 C2780 1.414 1_565 S
C2779 C2782 1.501 . S
C2780 H2760 0.950 . S
C2780 C2779 1.414 1_545 S
C2780 C2781 1.374 . S
C2781 H2761 0.950 . S
C2781 C2777 1.385 1_545 S
C2781 C2780 1.374 . S
C2782 C2779 1.501 . S
C2782 C2783 1.340 1_565 S
C2782 C2784 1.421 . S
C2783 H2762 0.950 . S
C2783 C2782 1.340 1_545 S
C2783 C2799 1.377 . S
C2784 C2782 1.421 . S
C2784 C2785 1.524 . S
C2784 C2798 1.377 . S
C2785 C2784 1.524 . S
C2785 C2786 1.397 . S
C2785 C2790 1.363 . S
C2786 H2763 0.950 . S
C2786 C2785 1.397 . S
C2786 C2787 1.334 . S
C2787 H2764 0.950 . S
C2787 C2786 1.334 . S
C2787 C2788 1.287 . S
C2788 C2787 1.287 . S
C2788 C2789 1.524 . S
C2788 H2807 0.913 . S
C2789 H2765 0.950 . S
C2789 C2788 1.524 . S
C2789 C2790 1.415 . S
C2790 H2766 0.950 . S
C2790 C2785 1.363 . S
C2790 C2789 1.415 . S
C2791 H2767 0.951 . S
C2791 C2792 1.366 . S
C2791 C2793 1.388 . S
C2792 C2791 1.366 . S
C2792 C2796 1.385 1_545 S
C2793 H2768 0.951 . S
C2793 C2791 1.388 . S
C2793 C2794 1.366 . S
C2794 C2793 1.366 . S
C2794 C2795 1.414 1_545 S
C2794 C2797 1.501 . S
C2795 H2769 0.950 . S
C2795 C2794 1.414 1_565 S
C2795 C2796 1.374 . S
C2796 H2770 0.950 . S
C2796 C2792 1.385 1_565 S
C2796 C2795 1.374 . S
C2797 C2794 1.501 . S
C2797 C2798 1.340 1_545 S
C2797 C2799 1.421 . S
C2798 H2771 0.950 . S
C2798 C2784 1.377 . S
C2798 C2797 1.340 1_565 S
C2799 C2783 1.377 . S
C2799 C2797 1.421 . S
C2799 C2800 1.524 . S
C2800 C2799 1.524 . S
C2800 C2801 1.397 . S
C2800 C2805 1.363 . S
C2801 H2772 0.950 . S
C2801 C2800 1.397 . S
C2801 C2802 1.334 . S
C2802 H2773 0.950 . S
C2802 C2801 1.334 . S
C2802 C2803 1.287 . S
C2803 C2802 1.287 . S
C2803 C2804 1.524 . S
C2803 H2806 0.999 . S
C2804 H2774 0.950 . S
C2804 C2803 1.524 . S
C2804 C2805 1.415 . S
C2805 H2775 0.950 . S
C2805 C2800 1.363 . S
C2805 C2804 1.415 . S
H2806 C2803 0.999 . S
H2807 C2788 0.913 . S
H2808 C2826 0.951 . S
H2809 C2828 0.951 . S
H2810 C2830 0.950 . S
H2811 C2831 0.950 . S
H2812 C2833 0.950 . S
H2813 C2836 0.950 . S
H2814 C2837 0.950 . S
H2815 C2839 0.950 . S
H2816 C2840 0.950 . S
H2817 C2841 0.951 . S
H2818 C2843 0.951 . S
H2819 C2845 0.950 . S
H2820 C2846 0.950 . S
H2821 C2848 0.950 . S
H2822 C2851 0.950 . S
H2823 C2852 0.950 . S
H2824 C2854 0.950 . S
H2825 C2855 0.950 . S
C2826 H2808 0.951 . S
C2826 C2827 1.366 . S
C2826 C2828 1.388 . S
C2827 C2826 1.366 . S
C2827 C2831 1.385 . S
C2828 H2809 0.951 . S
C2828 C2826 1.388 . S
C2828 C2829 1.366 . S
C2829 C2828 1.366 . S
C2829 C2830 1.414 . S
C2829 C2832 1.499 . S
C2830 H2810 0.950 . S
C2830 C2829 1.414 . S
C2830 C2831 1.374 . S
C2831 H2811 0.950 . S
C2831 C2827 1.385 . S
C2831 C2830 1.374 . S
C2832 C2829 1.499 . S
C2832 C2833 1.373 . S
C2832 C2834 1.389 . S
C2833 H2812 0.950 . S
C2833 C2832 1.373 . S
C2833 C2849 1.377 1_556 S
C2834 C2832 1.389 . S
C2834 C2835 1.524 . S
C2834 C2848 1.377 1_556 S
C2835 C2834 1.524 . S
C2835 C2836 1.397 . S
C2835 C2840 1.363 . S
C2836 H2813 0.950 . S
C2836 C2835 1.397 . S
C2836 C2837 1.334 . S
C2837 H2814 0.950 . S
C2837 C2836 1.334 . S
C2837 C2838 1.287 . S
C2838 C2837 1.287 . S
C2838 C2839 1.524 . S
C2838 H2857 0.913 . S
C2839 H2815 0.950 . S
C2839 C2838 1.524 . S
C2839 C2840 1.415 . S
C2840 H2816 0.950 . S
C2840 C2835 1.363 . S
C2840 C2839 1.415 . S
C2841 H2817 0.951 . S
C2841 C2842 1.366 . S
C2841 C2843 1.388 . S
C2842 C2841 1.366 . S
C2842 C2846 1.385 . S
C2843 H2818 0.951 . S
C2843 C2841 1.388 . S
C2843 C2844 1.366 . S
C2844 C2843 1.366 . S
C2844 C2845 1.414 . S
C2844 C2847 1.499 . S
C2845 H2819 0.950 . S
C2845 C2844 1.414 . S
C2845 C2846 1.374 . S
C2846 H2820 0.950 . S
C2846 C2842 1.385 . S
C2846 C2845 1.374 . S
C2847 C2844 1.499 . S
C2847 C2848 1.373 . S
C2847 C2849 1.389 . S
C2848 H2821 0.950 . S
C2848 C2834 1.377 1_554 S
C2848 C2847 1.373 . S
C2849 C2833 1.377 1_554 S
C2849 C2847 1.389 . S
C2849 C2850 1.524 . S
C2850 C2849 1.524 . S
C2850 C2851 1.397 . S
C2850 C2855 1.363 . S
C2851 H2822 0.950 . S
C2851 C2850 1.397 . S
C2851 C2852 1.334 . S
C2852 H2823 0.950 . S
C2852 C2851 1.334 . S
C2852 C2853 1.287 . S
C2853 C2852 1.287 . S
C2853 C2854 1.524 . S
C2853 H2856 0.999 . S
C2854 H2824 0.950 . S
C2854 C2853 1.524 . S
C2854 C2855 1.415 . S
C2855 H2825 0.950 . S
C2855 C2850 1.363 . S
C2855 C2854 1.415 . S
H2856 C2853 0.999 . S
H2857 C2838 0.913 . S
H2858 C2876 0.951 . S
H2859 C2878 0.951 . S
H2860 C2880 0.950 . S
H2861 C2881 0.950 . S
H2862 C2883 0.950 . S
H2863 C2886 0.950 . S
H2864 C2887 0.950 . S
H2865 C2889 0.950 . S
H2866 C2890 0.950 . S
H2867 C2891 0.951 . S
H2868 C2893 0.951 . S
H2869 C2895 0.950 . S
H2870 C2896 0.950 . S
H2871 C2898 0.950 . S
H2872 C2901 0.950 . S
H2873 C2902 0.950 . S
H2874 C2904 0.950 . S
H2875 C2905 0.950 . S
C2876 H2858 0.951 . S
C2876 C2877 1.366 . S
C2876 C2878 1.388 . S
C2877 C2876 1.366 . S
C2877 C2881 1.385 . S
C2878 H2859 0.951 . S
C2878 C2876 1.388 . S
C2878 C2879 1.366 . S
C2879 C2878 1.366 . S
C2879 C2880 1.414 . S
C2879 C2882 1.499 . S
C2880 H2860 0.950 . S
C2880 C2879 1.414 . S
C2880 C2881 1.374 . S
C2881 H2861 0.950 . S
C2881 C2877 1.385 . S
C2881 C2880 1.374 . S
C2882 C2879 1.499 . S
C2882 C2883 1.373 . S
C2882 C2884 1.389 . S
C2883 H2862 0.950 . S
C2883 C2882 1.373 . S
C2883 C2899 1.377 1_556 S
C2884 C2882 1.389 . S
C2884 C2885 1.524 . S
C2884 C2898 1.377 1_556 S
C2885 C2884 1.524 . S
C2885 C2886 1.397 . S
C2885 C2890 1.363 . S
C2886 H2863 0.950 . S
C2886 C2885 1.397 . S
C2886 C2887 1.334 . S
C2887 H2864 0.950 . S
C2887 C2886 1.334 . S
C2887 C2888 1.287 . S
C2888 C2887 1.287 . S
C2888 C2889 1.524 . S
C2888 H2907 0.913 . S
C2889 H2865 0.950 . S
C2889 C2888 1.524 . S
C2889 C2890 1.415 . S
C2890 H2866 0.950 . S
C2890 C2885 1.363 . S
C2890 C2889 1.415 . S
C2891 H2867 0.951 . S
C2891 C2892 1.366 . S
C2891 C2893 1.388 . S
C2892 C2891 1.366 . S
C2892 C2896 1.385 . S
C2893 H2868 0.951 . S
C2893 C2891 1.388 . S
C2893 C2894 1.366 . S
C2894 C2893 1.366 . S
C2894 C2895 1.414 . S
C2894 C2897 1.499 . S
C2895 H2869 0.950 . S
C2895 C2894 1.414 . S
C2895 C2896 1.374 . S
C2896 H2870 0.950 . S
C2896 C2892 1.385 . S
C2896 C2895 1.374 . S
C2897 C2894 1.499 . S
C2897 C2898 1.373 . S
C2897 C2899 1.389 . S
C2898 H2871 0.950 . S
C2898 C2884 1.377 1_554 S
C2898 C2897 1.373 . S
C2899 C2883 1.377 1_554 S
C2899 C2897 1.389 . S
C2899 C2900 1.524 . S
C2900 C2899 1.524 . S
C2900 C2901 1.397 . S
C2900 C2905 1.363 . S
C2901 H2872 0.950 . S
C2901 C2900 1.397 . S
C2901 C2902 1.334 . S
C2902 H2873 0.950 . S
C2902 C2901 1.334 . S
C2902 C2903 1.287 . S
C2903 C2902 1.287 . S
C2903 C2904 1.524 . S
C2903 H2906 0.999 . S
C2904 H2874 0.950 . S
C2904 C2903 1.524 . S
C2904 C2905 1.415 . S
C2905 H2875 0.950 . S
C2905 C2900 1.363 . S
C2905 C2904 1.415 . S
H2906 C2903 0.999 . S
H2907 C2888 0.913 . S
H2908 C2926 0.951 . S
H2909 C2928 0.951 . S
H2910 C2930 0.950 . S
H2911 C2931 0.950 . S
H2912 C2933 0.950 . S
H2913 C2936 0.950 . S
H2914 C2937 0.950 . S
H2915 C2939 0.950 . S
H2916 C2940 0.950 . S
H2917 C2941 0.951 . S
H2918 C2943 0.951 . S
H2919 C2945 0.950 . S
H2920 C2946 0.950 . S
H2921 C2948 0.950 . S
H2922 C2951 0.950 . S
H2923 C2952 0.950 . S
H2924 C2954 0.950 . S
H2925 C2955 0.950 . S
C2926 H2908 0.951 . S
C2926 C2927 1.366 . S
C2926 C2928 1.388 . S
C2927 C2926 1.366 . S
C2927 C2931 1.385 . S
C2928 H2909 0.951 . S
C2928 C2926 1.388 . S
C2928 C2929 1.366 . S
C2929 C2928 1.366 . S
C2929 C2930 1.414 . S
C2929 C2932 1.499 . S
C2930 H2910 0.950 . S
C2930 C2929 1.414 . S
C2930 C2931 1.374 . S
C2931 H2911 0.950 . S
C2931 C2927 1.385 . S
C2931 C2930 1.374 . S
C2932 C2929 1.499 . S
C2932 C2933 1.373 . S
C2932 C2934 1.389 . S
C2933 H2912 0.950 . S
C2933 C2932 1.373 . S
C2933 C2949 1.377 1_554 S
C2934 C2932 1.389 . S
C2934 C2935 1.524 . S
C2934 C2948 1.377 1_554 S
C2935 C2934 1.524 . S
C2935 C2936 1.397 . S
C2935 C2940 1.363 . S
C2936 H2913 0.950 . S
C2936 C2935 1.397 . S
C2936 C2937 1.334 . S
C2937 H2914 0.950 . S
C2937 C2936 1.334 . S
C2937 C2938 1.287 . S
C2938 C2937 1.287 . S
C2938 C2939 1.524 . S
C2938 H2957 0.913 . S
C2939 H2915 0.950 . S
C2939 C2938 1.524 . S
C2939 C2940 1.415 . S
C2940 H2916 0.950 . S
C2940 C2935 1.363 . S
C2940 C2939 1.415 . S
C2941 H2917 0.951 . S
C2941 C2942 1.366 . S
C2941 C2943 1.388 . S
C2942 C2941 1.366 . S
C2942 C2946 1.385 . S
C2943 H2918 0.951 . S
C2943 C2941 1.388 . S
C2943 C2944 1.366 . S
C2944 C2943 1.366 . S
C2944 C2945 1.414 . S
C2944 C2947 1.499 . S
C2945 H2919 0.950 . S
C2945 C2944 1.414 . S
C2945 C2946 1.374 . S
C2946 H2920 0.950 . S
C2946 C2942 1.385 . S
C2946 C2945 1.374 . S
C2947 C2944 1.499 . S
C2947 C2948 1.373 . S
C2947 C2949 1.389 . S
C2948 H2921 0.950 . S
C2948 C2934 1.377 1_556 S
C2948 C2947 1.373 . S
C2949 C2933 1.377 1_556 S
C2949 C2947 1.389 . S
C2949 C2950 1.524 . S
C2950 C2949 1.524 . S
C2950 C2951 1.397 . S
C2950 C2955 1.363 . S
C2951 H2922 0.950 . S
C2951 C2950 1.397 . S
C2951 C2952 1.334 . S
C2952 H2923 0.950 . S
C2952 C2951 1.334 . S
C2952 C2953 1.287 . S
C2953 C2952 1.287 . S
C2953 C2954 1.524 . S
C2953 H2956 0.999 . S
C2954 H2924 0.950 . S
C2954 C2953 1.524 . S
C2954 C2955 1.415 . S
C2955 H2925 0.950 . S
C2955 C2950 1.363 . S
C2955 C2954 1.415 . S
H2956 C2953 0.999 . S
H2957 C2938 0.913 . S
H2958 C2976 0.951 . S
H2959 C2978 0.951 . S
H2960 C2980 0.950 . S
H2961 C2981 0.950 . S
H2962 C2983 0.950 . S
H2963 C2986 0.950 . S
H2964 C2987 0.950 . S
H2965 C2989 0.950 . S
H2966 C2990 0.950 . S
H2967 C2991 0.951 . S
H2968 C2993 0.951 . S
H2969 C2995 0.950 . S
H2970 C2996 0.950 . S
H2971 C2998 0.950 . S
H2972 C3001 0.950 . S
H2973 C3002 0.950 . S
H2974 C3004 0.950 . S
H2975 C3005 0.950 . S
C2976 H2958 0.951 . S
C2976 C2977 1.366 . S
C2976 C2978 1.388 . S
C2977 C2976 1.366 . S
C2977 C2981 1.385 . S
C2978 H2959 0.951 . S
C2978 C2976 1.388 . S
C2978 C2979 1.366 . S
C2979 C2978 1.366 . S
C2979 C2980 1.414 . S
C2979 C2982 1.499 . S
C2980 H2960 0.950 . S
C2980 C2979 1.414 . S
C2980 C2981 1.374 . S
C2981 H2961 0.950 . S
C2981 C2977 1.385 . S
C2981 C2980 1.374 . S
C2982 C2979 1.499 . S
C2982 C2983 1.373 . S
C2982 C2984 1.389 . S
C2983 H2962 0.950 . S
C2983 C2982 1.373 . S
C2983 C2999 1.377 1_556 S
C2984 C2982 1.389 . S
C2984 C2985 1.524 . S
C2984 C2998 1.377 1_556 S
C2985 C2984 1.524 . S
C2985 C2986 1.397 . S
C2985 C2990 1.363 . S
C2986 H2963 0.950 . S
C2986 C2985 1.397 . S
C2986 C2987 1.334 . S
C2987 H2964 0.950 . S
C2987 C2986 1.334 . S
C2987 C2988 1.287 . S
C2988 C2987 1.287 . S
C2988 C2989 1.524 . S
C2988 H3007 0.913 . S
C2989 H2965 0.950 . S
C2989 C2988 1.524 . S
C2989 C2990 1.415 . S
C2990 H2966 0.950 . S
C2990 C2985 1.363 . S
C2990 C2989 1.415 . S
C2991 H2967 0.951 . S
C2991 C2992 1.366 . S
C2991 C2993 1.388 . S
C2992 C2991 1.366 . S
C2992 C2996 1.385 . S
C2993 H2968 0.951 . S
C2993 C2991 1.388 . S
C2993 C2994 1.366 . S
C2994 C2993 1.366 . S
C2994 C2995 1.414 . S
C2994 C2997 1.499 . S
C2995 H2969 0.950 . S
C2995 C2994 1.414 . S
C2995 C2996 1.374 . S
C2996 H2970 0.950 . S
C2996 C2992 1.385 . S
C2996 C2995 1.374 . S
C2997 C2994 1.499 . S
C2997 C2998 1.373 . S
C2997 C2999 1.389 . S
C2998 H2971 0.950 . S
C2998 C2984 1.377 1_554 S
C2998 C2997 1.373 . S
C2999 C2983 1.377 1_554 S
C2999 C2997 1.389 . S
C2999 C3000 1.524 . S
C3000 C2999 1.524 . S
C3000 C3001 1.397 . S
C3000 C3005 1.363 . S
C3001 H2972 0.950 . S
C3001 C3000 1.397 . S
C3001 C3002 1.334 . S
C3002 H2973 0.950 . S
C3002 C3001 1.334 . S
C3002 C3003 1.287 . S
C3003 C3002 1.287 . S
C3003 C3004 1.524 . S
C3003 H3006 0.999 . S
C3004 H2974 0.950 . S
C3004 C3003 1.524 . S
C3004 C3005 1.415 . S
C3005 H2975 0.950 . S
C3005 C3000 1.363 . S
C3005 C3004 1.415 . S
H3006 C3003 0.999 . S
H3007 C2988 0.913 . S
C1427 C20 1.550 . S
C1442 C293 1.505 . S
C1477 C49 1.487 . S
C1492 C117 1.541 . S
C1527 C137 1.505 . S
C1542 C196 1.551 . S
C1577 C225 1.487 . S
C1592 C313 1.541 . S
C1627 C409 1.551 . S
C1642 C497 1.506 . S
C1677 C460 1.541 . S
C1692 C557 1.487 . S
C1727 C585 1.551 . S
C1742 C636 1.506 . S
C1777 C673 1.541 . S
C1792 C381 1.487 . S
C1827 C724 1.551 . S
C1842 C988 1.506 . S
C1877 C753 1.488 . S
C1892 C821 1.541 . S
C1927 C841 1.505 . S
C1942 C900 1.550 . S
C1977 C1025 1.541 . S
C1992 C929 1.487 . S
C2027 C1201 1.506 . S
C2042 C1105 1.551 . S
C2077 C1261 1.487 . S
C2092 C1164 1.541 . S
C2127 C1289 1.550 . S
C2142 C1340 1.505 . S
C2177 C1377 1.541 . S
C2192 C1076 1.487 . S
C2227 C57 0.598 . S
C2242 C1369 0.602 . S
C2277 C108 0.602 . S
C2292 C1085 0.599 . S
C2327 C1173 0.602 . S
C2342 C233 0.599 . S
C2377 C321 0.602 . S
C2392 C1252 0.598 . S
C2427 C812 0.601 . S
C2442 C372 0.599 . S
C2477 C937 0.599 . S
C2492 C469 0.602 . S
C2527 C548 0.598 . S
C2542 C1017 0.603 . S
C2577 C665 0.602 . S
C2592 C761 0.598 . S
C2627 C29 1.346 . S
C2642 C577 1.347 . S
C2677 C645 1.340 . S
C2692 C145 1.340 . S
C2727 C401 1.346 . S
C2742 C205 1.346 . S
C2777 C489 1.340 . S
C2792 C284 1.340 . S
C2827 C733 1.347 . S
C2842 C1281 1.347 . S
C2877 C849 1.340 . S
C2892 C1349 1.340 . S
C2927 C1113 1.346 . S
C2942 C909 1.347 . S
C2977 C997 1.340 . S
C2992 C1193 1.340 . S
