# Generated by pormake.
# Topology vmp, (7)-cn, num edge types: 1
# Building blocks:
#     Node 0, Type 0, BuildingBlock: HICVOG_clean_sbu_0, # of connection points: 7
#     Node 1, Type 0, BuildingBlock: HICVOG_clean_sbu_0, # of connection points: 7
#     Node 2, Type 0, BuildingBlock: HICVOG_clean_sbu_0, # of connection points: 7
#     Node 3, Type 0, BuildingBlock: HICVOG_clean_sbu_0, # of connection points: 7
#     Node 4, Type 0, BuildingBlock: HICVOG_clean_sbu_0, # of connection points: 7
#     Node 5, Type 0, BuildingBlock: HICVOG_clean_sbu_0, # of connection points: 7
#     Node 6, Type 0, BuildingBlock: HICVOG_clean_sbu_0, # of connection points: 7
#     Node 7, Type 0, BuildingBlock: HICVOG_clean_sbu_0, # of connection points: 7
#     Edge 8, Type (0, 0), BuildingBlock: AJUNOK_clean_linker_0, # of connection points: 2
#     Edge 9, Type (0, 0), BuildingBlock: AJUNOK_clean_linker_0, # of connection points: 2
#     Edge 10, Type (0, 0), BuildingBlock: AJUNOK_clean_linker_0, # of connection points: 2
#     Edge 11, Type (0, 0), BuildingBlock: AJUNOK_clean_linker_0, # of connection points: 2
#     Edge 12, Type (0, 0), BuildingBlock: AJUNOK_clean_linker_0, # of connection points: 2
#     Edge 13, Type (0, 0), BuildingBlock: AJUNOK_clean_linker_0, # of connection points: 2
#     Edge 14, Type (0, 0), BuildingBlock: AJUNOK_clean_linker_0, # of connection points: 2
#     Edge 15, Type (0, 0), BuildingBlock: AJUNOK_clean_linker_0, # of connection points: 2
#     Edge 16, Type (0, 0), BuildingBlock: AJUNOK_clean_linker_0, # of connection points: 2
#     Edge 17, Type (0, 0), BuildingBlock: AJUNOK_clean_linker_0, # of connection points: 2
#     Edge 18, Type (0, 0), BuildingBlock: AJUNOK_clean_linker_0, # of connection points: 2
#     Edge 19, Type (0, 0), BuildingBlock: AJUNOK_clean_linker_0, # of connection points: 2
#     Edge 20, Type (0, 0), BuildingBlock: AJUNOK_clean_linker_0, # of connection points: 2
#     Edge 21, Type (0, 0), BuildingBlock: AJUNOK_clean_linker_0, # of connection points: 2
#     Edge 22, Type (0, 0), BuildingBlock: AJUNOK_clean_linker_0, # of connection points: 2
#     Edge 23, Type (0, 0), BuildingBlock: AJUNOK_clean_linker_0, # of connection points: 2
#     Edge 24, Type (0, 0), BuildingBlock: AJUNOK_clean_linker_0, # of connection points: 2
#     Edge 25, Type (0, 0), BuildingBlock: AJUNOK_clean_linker_0, # of connection points: 2
#     Edge 26, Type (0, 0), BuildingBlock: AJUNOK_clean_linker_0, # of connection points: 2
#     Edge 27, Type (0, 0), BuildingBlock: AJUNOK_clean_linker_0, # of connection points: 2
#     Edge 28, Type (0, 0), BuildingBlock: AJUNOK_clean_linker_0, # of connection points: 2
#     Edge 29, Type (0, 0), BuildingBlock: AJUNOK_clean_linker_0, # of connection points: 2
#     Edge 30, Type (0, 0), BuildingBlock: AJUNOK_clean_linker_0, # of connection points: 2
#     Edge 31, Type (0, 0), BuildingBlock: AJUNOK_clean_linker_0, # of connection points: 2
#     Edge 32, Type (0, 0), BuildingBlock: AJUNOK_clean_linker_0, # of connection points: 2
#     Edge 33, Type (0, 0), BuildingBlock: AJUNOK_clean_linker_0, # of connection points: 2
#     Edge 34, Type (0, 0), BuildingBlock: AJUNOK_clean_linker_0, # of connection points: 2
#     Edge 35, Type (0, 0), BuildingBlock: AJUNOK_clean_linker_0, # of connection points: 2
# Relax obj value: 0.170
# Max RMSD: 0.213
# Mean RMSD: 0.213
data_MOF--net-vmp--node1-HICVOG_clean_sbu_0--edge1-AJUNOK_clean_linker_0
_symmetry_space_group_name_H-M    P1
_symmetry_Int_Tables_number       1
_symmetry_cell_setting            triclinic
loop_
_symmetry_equiv_pos_as_xyz
'x, y, z'
_cell_length_a     14.152453
_cell_length_b     63.455034
_cell_length_c     19.985198
_cell_angle_alpha  89.137433
_cell_angle_beta   112.51742
_cell_angle_gamma 89.817553
loop_
_atom_site_label
_atom_site_type_symbol
_atom_site_fract_x
_atom_site_fract_y
_atom_site_fract_z
_atom_type_partial_charge
Zn0 Zn 0.29055 0.1589 0.31386 0.0
C1 C 0.38693 0.13369 0.16929 0.0
N2 N 0.29493 0.13929 0.12061 0.0
C3 C 0.24731 0.14616 0.16267 0.0
N4 N 0.3072 0.14489 0.23391 0.0
N5 N 0.3949 0.1367 0.2375 0.0
C6 C 0.69636 0.13993 0.32242 0.0
O7 O 0.67225 0.15532 0.35632 0.0
O8 O 0.1414 0.16016 0.3032 0.0
Zn9 Zn 0.5025 0.12351 0.31879 0.0
N10 N 0.35227 0.18663 0.31926 0.0
C11 C 0.50424 0.204 0.32583 0.0
C12 C 0.44936 0.18561 0.32164 0.0
C13 C 0.30758 0.20554 0.3216 0.0
N14 N 0.45985 0.22283 0.32751 0.0
C15 C 0.36292 0.22436 0.32579 0.0
O16 O 0.52351 0.13544 0.41696 0.0
C17 C 0.46153 0.1397 0.44747 0.0
O18 O 0.36926 0.14543 0.4116 0.0
H19 H 0.48378 0.17051 0.32022 0.0
H20 H 0.22963 0.20579 0.3183 0.0
C21 C 0.50029 0.07673 0.30695 0.0
C22 C 0.4607 0.05678 0.31477 0.0
C23 C 0.34425 0.07365 0.3569 0.0
C24 C 0.38163 0.0932 0.3475 0.0
N25 N 0.45968 0.09448 0.32393 0.0
N26 N 0.38424 0.05604 0.34025 0.0
H27 H 0.56235 0.07818 0.28827 0.0
C28 C 0.08579 0.14381 0.28526 0.0
O29 O 0.12513 0.12649 0.27102 0.0
O30 O 0.63653 0.12426 0.30248 0.0
H31 H 0.34853 0.10734 0.35898 0.0
H32 H 0.58149 0.20335 0.32745 0.0
H33 H 0.2829 0.07247 0.37642 0.0
Zn34 Zn 0.77362 0.16334 0.88562 0.0
C35 C 0.68324 0.14631 0.04479 0.0
N36 N 0.77321 0.15498 0.08474 0.0
C37 C 0.81548 0.15834 1.03619 0.0
N38 N 0.75408 0.15225 0.96971 0.0
N39 N 0.67065 0.14426 0.97448 0.0
C40 C 0.38993 0.14442 0.91202 0.0
O41 O 0.44059 0.16215 0.92094 0.0
O42 O 0.92527 0.16382 0.90115 0.0
Zn43 Zn 0.576 0.12618 0.90077 0.0
N44 N 0.71227 0.19138 0.86921 0.0
C45 C 0.55687 0.20997 0.84796 0.0
C46 C 0.61255 0.19121 0.8612 0.0
C47 C 0.75897 0.20973 0.86374 0.0
N48 N 0.60265 0.22823 0.84196 0.0
C49 C 0.70207 0.22881 0.84871 0.0
O50 O 0.56071 0.13259 0.79744 0.0
C51 C 0.61313 0.13936 0.76221 0.0
O52 O 0.69786 0.14867 0.79294 0.0
H53 H 0.57659 0.17648 0.86485 0.0
H54 H 0.83894 0.20939 0.87164 0.0
C55 C 0.58093 0.07997 0.88736 0.0
C56 C 0.62693 0.0598 0.90694 0.0
C57 C 0.774 0.07558 0.99356 0.0
C58 C 0.72956 0.09541 0.97285 0.0
N59 N 0.63346 0.09735 0.92105 0.0
N60 N 0.72208 0.05835 0.96016 0.0
H61 H 0.50437 0.08188 0.84677 0.0
C62 C 0.96556 0.14676 0.89122 0.0
O63 O 0.90768 0.13001 0.87173 0.0
O64 O 0.43222 0.12753 0.90288 0.0
H65 H 0.77059 0.1091 0.99971 0.0
H66 H 0.47756 0.21002 0.8419 0.0
H67 H 0.84957 0.07389 1.03564 0.0
Zn68 Zn 0.76019 0.87884 0.79774 0.0
C69 C 0.66964 0.91071 0.9345 0.0
N70 N 0.76808 0.90872 0.97934 0.0
C71 C 0.81149 0.90015 0.93725 0.0
N72 N 0.74405 0.89713 0.86927 0.0
N73 N 0.65557 0.90456 0.86695 0.0
C74 C 0.36636 0.89491 0.80543 0.0
O75 O 0.41069 0.87694 0.80238 0.0
O76 O 0.90991 0.87769 0.80947 0.0
Zn77 Zn 0.54064 0.91319 0.78004 0.0
N78 N 0.71025 0.85094 0.81036 0.0
C79 C 0.60256 0.83087 0.85351 0.0
C80 C 0.64119 0.85017 0.84246 0.0
C81 C 0.74067 0.83301 0.78724 0.0
N82 N 0.63267 0.81302 0.83054 0.0
C83 C 0.69994 0.81342 0.79682 0.0
O84 O 0.52214 0.89737 0.68646 0.0
C85 C 0.58479 0.89216 0.65728 0.0
O86 O 0.67832 0.88789 0.69497 0.0
H87 H 0.61611 0.86442 0.8595 0.0
H88 H 0.79661 0.83404 0.76265 0.0
C89 C 0.54107 0.95993 0.78818 0.0
C90 C 0.56119 0.98022 0.76659 0.0
C91 C 0.62973 0.96444 0.68783 0.0
C92 C 0.61144 0.94458 0.71002 0.0
N93 N 0.56569 0.94251 0.75849 0.0
N94 N 0.60465 0.98169 0.71666 0.0
H95 H 0.50651 0.95805 0.82768 0.0
C96 C 0.95732 0.89491 0.81258 0.0
O97 O 0.90752 0.91273 0.8079 0.0
O98 O 0.40792 0.91203 0.79746 0.0
H99 H 0.63444 0.93094 0.68867 0.0
H100 H 0.5484 0.83009 0.87969 0.0
H101 H 0.66517 0.96618 0.64878 0.0
Zn102 Zn 0.48435 0.90926 0.20418 0.0
C103 C 0.23893 0.88093 0.06204 0.0
N104 N 0.28574 0.88497 1.01619 0.0
C105 C 0.37857 0.89113 0.0611 0.0
N106 N 0.3881 0.89151 0.13075 0.0
N107 N 0.30043 0.88463 0.13125 0.0
C108 C 0.0852 0.88783 0.19732 0.0
O109 O 0.13484 0.90551 0.201 0.0
O110 O 0.62507 0.90669 0.19832 0.0
Zn111 Zn 0.28255 0.87058 0.21208 0.0
N112 N 0.43682 0.93865 0.17792 0.0
C113 C 0.31911 0.96151 0.08871 0.0
C114 C 0.35381 0.94139 0.11497 0.0
C115 C 0.48401 0.95569 0.21775 0.0
N116 N 0.36675 0.97837 0.12742 0.0
C117 C 0.44804 0.9762 0.19154 0.0
O118 O 0.36552 0.88296 0.30859 0.0
C119 C 0.44463 0.89388 0.34147 0.0
O120 O 0.49425 0.90306 0.30786 0.0
H121 H 0.31467 0.92814 0.08424 0.0
H122 H 0.5488 0.95335 0.2684 0.0
C123 C 0.29734 0.8245 0.23724 0.0
C124 C 0.34614 0.8047 0.24227 0.0
C125 C 0.46816 0.82093 0.20379 0.0
C126 C 0.42123 0.84042 0.20047 0.0
N127 N 0.33637 0.84192 0.21651 0.0
N128 N 0.42979 0.80363 0.22454 0.0
H129 H 0.22924 0.8261 0.24907 0.0
C130 C 0.6805 0.89007 0.21318 0.0
O131 O 0.64779 0.87318 0.23615 0.0
O132 O 0.13213 0.87045 0.20012 0.0
H133 H 0.45303 0.8543 0.18573 0.0
H134 H 0.25415 0.96374 1.0381 0.0
H135 H 0.53531 0.81959 0.19065 0.0
Zn136 Zn 0.76735 0.66671 0.72501 0.0
C137 C 0.8594 0.63308 0.59263 0.0
N138 N 0.76282 0.637 0.54694 0.0
C139 C 0.72234 0.64613 0.58983 0.0
N140 N 0.7899 0.64766 0.65828 0.0
N141 N 0.87703 0.63946 0.66062 0.0
C142 C 0.15816 0.64626 0.71372 0.0
O143 O 0.09914 0.6631 0.69371 0.0
O144 O 0.61676 0.66585 0.71155 0.0
Zn145 Zn 0.98851 0.63009 0.74881 0.0
N146 N 0.80387 0.69483 0.70213 0.0
C147 C 0.90083 0.71471 0.64926 0.0
C148 C 0.86949 0.69544 0.66719 0.0
C149 C 0.76983 0.71299 0.72147 0.0
N150 N 0.86691 0.73277 0.66821 0.0
C151 C 0.80239 0.73264 0.70417 0.0
O152 O 1.00228 0.64538 0.84236 0.0
C153 C 0.94325 0.65416 0.86896 0.0
O154 O 0.85391 0.66066 0.82918 0.0
H155 H 0.89824 0.68105 0.65388 0.0
H156 H 0.71809 0.71209 0.74962 0.0
C157 C 0.99091 0.58299 0.75553 0.0
C158 C 0.95807 0.56386 0.77645 0.0
C159 C 0.85149 0.5832 0.82128 0.0
C160 C 0.88251 0.60192 0.79959 0.0
N161 N 0.95279 0.60163 0.76853 0.0
N162 N 0.88979 0.56471 0.80925 0.0
H163 H 0.04586 0.58308 0.72994 0.0
C164 C 0.58347 0.65081 0.73915 0.0
O165 O 0.64851 0.63627 0.77795 0.0
O166 O 0.12659 0.63024 0.73803 0.0
H167 H 0.85091 0.6167 0.80776 0.0
H168 H 0.95266 0.71534 0.62114 0.0
H169 H 0.79653 0.5833 0.84683 0.0
Zn170 Zn 0.25422 0.65895 0.3263 0.0
C171 C 0.14489 0.62613 0.4555 0.0
N172 N 0.23902 0.62825 0.5057 0.0
C173 C 0.28989 0.63715 0.46842 0.0
N174 N 0.2296 0.6408 0.3981 0.0
N175 N 0.13884 0.6333 0.38998 0.0
C176 C 0.85089 0.64297 0.31686 0.0
O177 O 0.89117 0.66082 0.30743 0.0
O178 O 0.40224 0.65846 0.33665 0.0
Zn179 Zn 0.02976 0.62644 0.29948 0.0
N180 N 0.21115 0.68753 0.33644 0.0
C181 C 0.08171 0.70807 0.35381 0.0
C182 C 0.12364 0.68858 0.34898 0.0
C183 C 0.25668 0.70542 0.32515 0.0
N184 N 0.12678 0.72588 0.34284 0.0
C185 C 0.21283 0.72529 0.32786 0.0
O186 O 1.01295 0.64605 0.21285 0.0
C187 C 0.07629 0.65147 0.18439 0.0
O188 O 0.17191 0.65239 0.22195 0.0
H189 H 0.08548 0.67428 0.35313 0.0
H190 H 0.32479 0.70413 0.31313 0.0
C191 C 0.03318 0.57979 0.29712 0.0
C192 C 0.05309 0.5604 0.27082 0.0
C193 C 0.12303 0.57896 0.19685 0.0
C194 C 0.10421 0.59795 0.22323 0.0
N195 N 0.05803 0.59823 0.27171 0.0
N196 N 0.09732 0.56074 0.2212 0.0
H197 H 0.99815 0.58023 0.33666 0.0
C198 C 0.45013 0.64148 0.33648 0.0
O199 O 0.40248 0.62345 0.33074 0.0
O200 O 0.89608 0.62581 0.31451 0.0
H201 H 0.12683 0.61231 0.20484 0.0
H202 H 1.01223 0.70906 0.36419 0.0
H203 H 0.1589 0.57866 0.15781 0.0
Zn204 Zn 0.06729 0.41067 0.3506 0.0
C205 C 0.30227 0.37485 0.48109 0.0
N206 N 0.24931 0.37479 0.52399 0.0
C207 C 0.16189 0.38435 0.48237 0.0
N208 N 0.16026 0.39019 0.41691 0.0
N209 N 0.24892 0.38395 0.41588 0.0
C210 C 0.47314 0.38934 0.36615 0.0
O211 O 0.4338 0.40622 0.38322 0.0
O212 O 0.92745 0.40854 0.35793 0.0
Zn213 Zn 0.26574 0.37463 0.3297 0.0
N214 N 0.12326 0.43857 0.3834 0.0
C215 C 0.26591 0.45808 0.46047 0.0
C216 C 0.22138 0.439 0.43242 0.0
C217 C 0.0688 0.45683 0.3589 0.0
N218 N 0.21233 0.47621 0.43581 0.0
C219 C 0.11525 0.47634 0.38487 0.0
O220 O 0.18676 0.39144 0.23749 0.0
C221 C 0.10448 0.40225 0.20848 0.0
O222 O 0.05314 0.40842 0.24515 0.0
H223 H 0.26474 0.42462 0.45019 0.0
H224 H 0.99102 0.45609 0.3196 0.0
C225 C 0.25238 0.32795 0.32239 0.0
C226 C 0.19516 0.30923 0.31277 0.0
C227 C 0.0435 0.32969 0.28369 0.0
C228 C 0.10005 0.34807 0.29326 0.0
N229 N 0.20305 0.34695 0.31275 0.0
N230 N 0.09217 0.31078 0.29376 0.0
H231 H 0.33465 0.32744 0.33878 0.0
C232 C 0.87695 0.39151 0.34941 0.0
O233 O 0.91423 0.37434 0.33249 0.0
O234 O 0.41612 0.37338 0.34317 0.0
H235 H 0.06246 0.36327 0.28615 0.0
H236 H 0.34332 0.45852 0.50047 0.0
H237 H 0.96154 0.33042 0.26866 0.0
Zn238 Zn 0.77954 0.37697 0.77708 0.0
C239 C 0.8717 0.38751 0.61605 0.0
N240 N 0.78228 0.37851 0.5776 0.0
C241 C 0.73598 0.37803 0.62454 0.0
N242 N 0.7942 0.38618 0.689 0.0
N243 N 0.88033 0.3924 0.68379 0.0
C244 C 0.1861 0.39785 0.79423 0.0
O245 O 0.16672 0.39064 0.84954 0.0
O246 O 0.62874 0.37625 0.76653 0.0
Zn247 Zn 0.9756 0.41243 0.74802 0.0
N248 N 0.84416 0.34921 0.79708 0.0
C249 C 1.00258 0.33162 0.81991 0.0
C250 C 0.94449 0.35005 0.80675 0.0
C251 C 0.79918 0.33047 0.80071 0.0
N252 N 0.95821 0.31296 0.82327 0.0
C253 C 0.85803 0.31167 0.81414 0.0
O254 O 0.99126 0.41076 0.85492 0.0
C255 C 0.94184 0.40441 0.893 0.0
O256 O 0.86159 0.39333 0.86642 0.0
H257 H 0.97898 0.36504 0.8039 0.0
H258 H 0.71896 0.3302 0.79224 0.0
C259 C 0.97336 0.45909 0.73148 0.0
C260 C 0.92807 0.47832 0.69738 0.0
C261 C 0.77997 0.45987 0.62424 0.0
C262 C 0.82429 0.44101 0.65802 0.0
N263 N 0.92077 0.44072 0.71 0.0
N264 N 0.83261 0.47797 0.64455 0.0
H265 H 0.04904 0.45873 0.77395 0.0
C266 C 0.59793 0.3909 0.79643 0.0
O267 O 0.66158 0.40593 0.82915 0.0
O268 O 0.11631 0.40784 0.74331 0.0
H269 H 0.78195 0.42667 0.64142 0.0
H270 H 0.08241 0.33212 0.82744 0.0
H271 H 0.70374 0.46016 0.5825 0.0
C272 C 0.63948 0.14025 0.64546 0.0
C273 C 0.57281 0.1376 0.68221 0.0
C274 C 0.60313 0.14045 0.56971 0.0
C275 C 0.49839 0.13827 0.52748 0.0
H276 H 0.72063 0.14245 0.67539 0.0
H277 H 0.6574 0.14287 0.54414 0.0
S278 S 0.29225 0.12952 0.59654 0.0
N279 N 0.39721 0.13168 0.6702 0.0
N280 N 0.32881 0.13218 0.52775 0.0
C281 C 0.43102 0.13504 0.56331 0.0
C282 C 0.46823 0.13462 0.64061 0.0
C283 C 0.41372 0.89058 0.45679 0.0
C284 C 0.48171 0.89476 0.42191 0.0
C285 C 0.4472 0.88996 0.53266 0.0
C286 C 0.5505 0.89308 0.57696 0.0
H287 H 0.33362 0.8877 0.42521 0.0
H288 H 0.39194 0.88663 0.55672 0.0
S289 S 0.75935 0.9053 0.51327 0.0
N290 N 0.65699 0.90271 0.43809 0.0
N291 N 0.72021 0.9013 0.58029 0.0
C292 C 0.61921 0.89753 0.5429 0.0
C293 C 0.58478 0.89847 0.46562 0.0
C294 C 0.07961 0.65256 0.9946 0.0
C295 C 0.9759 0.65516 0.94919 0.0
C296 C 0.11128 0.65203 0.07032 0.0
C297 C 0.04052 0.65377 0.10412 0.0
H298 H 0.13701 0.65072 0.97156 0.0
H299 H 0.19196 0.64966 0.10247 0.0
S300 S 0.75994 0.66144 1.01024 0.0
N301 N 0.80231 0.66007 0.94412 0.0
N302 N 0.86205 0.65888 0.08603 0.0
C303 C 0.93674 0.65675 0.05949 0.0
C304 C 0.90447 0.65751 0.98231 0.0
C305 C 0.08922 0.40432 1.01341 0.0
C306 C 0.98431 0.4076 0.97265 0.0
C307 C 0.12798 0.40338 0.08961 0.0
C308 C 0.06375 0.40606 0.12831 0.0
H309 H 0.14097 0.40131 0.98626 0.0
H310 H 0.20866 0.39994 0.11831 0.0
S311 S 0.78504 0.41787 0.04651 0.0
N312 N 0.81833 0.41534 0.97635 0.0
N313 N 0.89083 0.41411 0.119 0.0
C314 C 0.95969 0.41071 0.08796 0.0
C315 C 0.92011 0.4113 1.01041 0.0
C316 C 0.48852 0.99783 0.30237 0.0
C317 C 0.48834 0.99565 0.23256 0.0
C318 C 0.49028 1.01788 0.33169 0.0
C319 C 0.4924 0.03648 0.29252 0.0
H320 H 0.47756 0.98417 0.3317 0.0
H321 H 0.48232 0.01888 0.38336 0.0
S322 S 0.51217 0.0386 0.11266 0.0
N323 N 0.50583 1.01323 0.12946 0.0
N324 N 0.50814 0.05092 0.18376 0.0
C325 C 0.50318 0.03429 0.22582 0.0
C326 C 0.50121 1.01386 0.19607 0.0
C327 C 0.5809 1.00139 0.87607 0.0
C328 C 0.54674 1.00006 0.80033 0.0
C329 C 0.59777 0.02105 0.90994 0.0
C330 C 0.58038 0.04009 0.86946 0.0
H331 H 0.60318 0.98727 0.90977 0.0
H332 H 0.63101 0.02131 0.9686 0.0
S333 S 0.47512 0.04503 0.6689 0.0
N334 N 0.48319 0.01938 0.68544 0.0
N335 N 0.51618 0.0562 0.74896 0.0
C336 C 0.53712 0.03894 0.79351 0.0
C337 C 0.52014 0.01894 0.75906 0.0
C338 C 1.00566 0.52637 0.81266 0.0
C339 C 0.98754 0.54264 0.76024 0.0
C340 C 0.99951 0.50505 0.79367 0.0
C341 C 0.97359 0.49927 0.72128 0.0
H342 H 1.01658 0.53015 0.86782 0.0
H343 H 1.00475 0.49318 0.83453 0.0
S344 S 0.93606 0.53554 0.56564 0.0
N345 N 0.95653 0.55133 0.63469 0.0
N346 N 0.94417 0.5113 0.59887 0.0
C347 C 0.96571 0.51529 0.66982 0.0
C348 C 0.973 0.53699 0.6893 0.0
C349 C 0.07251 0.53536 0.3736 0.0
C350 C 0.03659 0.53947 0.29864 0.0
C351 C 0.08838 0.51457 0.40108 0.0
C352 C 0.0681 0.49715 0.35472 0.0
H353 H 0.09718 0.54819 0.41143 0.0
H354 H 0.12351 0.51214 0.45927 0.0
S355 S 0.95698 0.49968 0.15372 0.0
N356 N 0.96801 0.52456 0.17836 0.0
N357 N 0.99895 0.4856 0.22976 0.0
C358 C 0.02269 0.5011 0.27961 0.0
C359 C 1.00679 0.52224 0.25171 0.0
C360 C 0.97107 0.13905 0.05102 0.0
C361 C 0.92608 0.15789 0.06018 0.0
C362 C 0.07548 0.13561 0.08575 0.0
C363 C 0.13822 0.1508 0.13146 0.0
H364 H 0.92487 0.12653 1.0187 0.0
H365 H 0.10722 0.12074 0.0776 0.0
S366 S 0.0582 0.20344 0.16851 0.0
N367 N 0.95065 0.19224 0.11581 0.0
N368 N 0.1506 0.1861 0.17921 0.0
C369 C 0.09522 0.17004 0.13939 0.0
C370 C 0.98774 0.17346 0.10443 0.0
C371 C 0.09352 0.90491 1.03366 0.0
C372 C 0.12895 0.88414 1.03633 0.0
C373 C 0.99012 0.90981 0.9996 0.0
C374 C 0.9191 0.8941 0.96668 0.0
H375 H 0.14634 0.91759 0.05689 0.0
H376 H 0.96551 0.92605 0.99865 0.0
S377 S 0.97253 0.83702 0.96403 0.0
N378 N 0.08635 0.8476 1.0057 0.0
N379 N 0.88893 0.85671 0.94408 0.0
C380 C 0.95275 0.87312 0.97086 0.0
C381 C 0.05895 0.86815 1.0049 0.0
C382 C 0.55073 0.66201 0.5226 0.0
C383 C 0.61268 0.64645 0.56986 0.0
C384 C 0.44439 0.65943 0.49071 0.0
C385 C 0.39966 0.64085 0.50317 0.0
H386 H 0.5848 0.67585 0.50905 0.0
H387 H 0.3974 0.67178 0.4556 0.0
S388 S 0.53133 0.59628 0.62658 0.0
N389 N 0.62332 0.61283 0.63153 0.0
N390 N 0.42472 0.60744 0.56983 0.0
C391 C 0.46137 0.6257 0.55288 0.0
C392 C 0.56811 0.62857 0.58628 0.0
C393 C 0.47421 0.35847 0.51175 0.0
C394 C 0.41324 0.37545 0.51551 0.0
C395 C 0.57997 0.35861 0.55192 0.0
C396 C 0.62574 0.37536 0.59829 0.0
H397 H 0.44027 0.34522 0.47752 0.0
H398 H 0.62664 0.34583 0.54553 0.0
S399 S 0.49722 0.42354 0.62515 0.0
N400 N 0.40464 0.40938 0.56793 0.0
N401 N 0.60282 0.40951 0.64352 0.0
C402 C 0.56477 0.39221 0.60288 0.0
C403 C 0.45833 0.39227 0.5613 0.0
C404 C 0.59695 0.15628 0.12493 0.0
C405 C 0.60927 0.14139 0.07754 0.0
C406 C 0.53005 0.1527 0.15969 0.0
C407 C 0.47399 0.13405 0.14845 0.0
H408 H 0.63761 0.17108 0.13398 0.0
H409 H 0.51848 0.16502 0.19286 0.0
S410 S 0.48729 0.08905 1.03778 0.0
N411 N 0.56905 0.10626 1.02897 0.0
N412 N 0.43689 0.10013 0.09082 0.0
C413 C 0.48744 0.11873 0.10355 0.0
C414 C 0.55722 0.12223 0.06904 0.0
C415 C 0.51926 0.92115 0.96391 0.0
C416 C 0.59341 0.90628 0.96547 0.0
C417 C 0.45068 0.91652 0.99742 0.0
C418 C 0.45732 0.89723 1.03474 0.0
H419 H 0.51382 0.93621 0.93644 0.0
H420 H 0.39142 0.92788 0.99306 0.0
S421 S 0.63645 0.85306 0.05227 0.0
N422 N 0.66855 0.87148 1.00592 0.0
N423 N 0.53994 0.86306 0.06886 0.0
C424 C 0.53098 0.88237 1.03648 0.0
C425 C 0.59948 0.88689 1.00205 0.0
C426 C 0.03574 0.60894 0.51253 0.0
C427 C 0.05994 0.62678 0.47974 0.0
C428 C 0.97347 0.61085 0.55269 0.0
C429 C 0.93791 0.63074 0.56289 0.0
H430 H 0.06668 0.59361 0.50827 0.0
H431 H 0.95294 0.59685 0.57552 0.0
S432 S 0.98595 0.68218 0.49277 0.0
N433 N 0.04836 0.66483 0.46411 0.0
N434 N 0.93002 0.66832 0.53743 0.0
C435 C 0.96211 0.64853 0.5307 0.0
C436 C 0.02403 0.64659 0.48988 0.0
C437 C 0.03713 0.36833 0.52283 0.0
C438 C 0.07987 0.38681 0.50826 0.0
C439 C 0.97388 0.36893 0.56145 0.0
C440 C 0.95225 0.388 0.58753 0.0
H441 H 0.05444 0.35321 0.50537 0.0
H442 H 0.94083 0.35431 0.57057 0.0
S443 S 0.04635 0.44081 0.56341 0.0
N444 N 0.09948 0.42462 0.52365 0.0
N445 N 0.97566 0.42592 0.59412 0.0
C446 C 0.99406 0.40667 0.57303 0.0
C447 C 0.05942 0.40602 0.53381 0.0
C448 C 0.35134 0.26273 0.29233 0.0
C449 C 0.31929 0.24585 0.32521 0.0
C450 C 0.31391 0.28332 0.29061 0.0
C451 C 0.24243 0.28791 0.32148 0.0
H452 H 0.40481 0.25998 0.26642 0.0
H453 H 0.3388 0.29557 0.2629 0.0
S454 S 0.14196 0.25032 0.42158 0.0
N455 N 0.21846 0.23585 0.39555 0.0
N456 N 0.14566 0.27436 0.39003 0.0
C457 C 0.21132 0.2714 0.35601 0.0
C458 C 0.25024 0.25044 0.35849 0.0
C459 C 0.71327 0.26786 0.86507 0.0
C460 C 0.7454 0.24957 0.84015 0.0
C461 C 0.74775 0.28794 0.85517 0.0
C462 C 0.81565 0.29058 0.81964 0.0
H463 H 0.66149 0.26665 0.89321 0.0
H464 H 0.72276 0.30139 0.87704 0.0
S465 S 0.91516 0.2482 0.73738 0.0
N466 N 0.84335 0.23574 0.77338 0.0
N467 N 0.90945 0.27334 0.75583 0.0
C468 C 0.84712 0.27249 0.79332 0.0
C469 C 0.81175 0.25204 0.80323 0.0
C470 C 0.74014 0.77485 0.81519 0.0
C471 C 0.72752 0.7932 0.77192 0.0
C472 C 0.7621 0.75524 0.79261 0.0
C473 C 0.77152 0.75313 0.72543 0.0
H474 H 0.73419 0.77569 0.86754 0.0
H475 H 0.77411 0.74177 0.82893 0.0
S476 S 0.73474 0.79586 0.58833 0.0
N477 N 0.71858 0.80766 0.65628 0.0
N478 N 0.76049 0.77093 0.61396 0.0
C479 C 0.75703 0.7713 0.68098 0.0
C480 C 0.7348 0.79127 0.70407 0.0
C481 C 0.31791 0.7658 0.23241 0.0
C482 C 0.3103 0.78487 0.26539 0.0
C483 C 0.28938 0.74652 0.25413 0.0
C484 C 0.25253 0.74545 0.31022 0.0
H485 H 0.34503 0.76579 0.18854 0.0
H486 H 0.29365 0.73249 0.22523 0.0
S487 S 0.2278 0.79036 0.41968 0.0
N488 N 0.27041 0.80113 0.36101 0.0
N489 N 0.21553 0.765 0.40123 0.0
C490 C 0.24649 0.76432 0.34476 0.0
C491 C 0.27568 0.78398 0.32263 0.0
C492 C 0.86276 0.15726 0.33906 0.0
C493 C 0.79202 0.14112 0.30782 0.0
C494 C 0.95558 0.15848 0.32916 0.0
C495 C 0.98201 0.14358 0.28771 0.0
H496 H 0.84757 0.16889 0.37287 0.0
H497 H 1.00838 0.17084 0.35622 0.0
S498 S 0.81808 0.09995 0.18561 0.0
N499 N 0.75128 0.11103 0.22787 0.0
N500 N 0.92518 0.11344 0.20888 0.0
C501 C 0.91008 0.12794 0.25324 0.0
C502 C 0.81541 0.12667 0.26341 0.0
C503 C 0.23465 0.16356 0.91349 0.0
C504 C 0.28369 0.14439 0.91078 0.0
C505 C 0.13291 0.16418 0.90872 0.0
C506 C 0.07551 0.14565 0.90096 0.0
H507 H 0.27444 0.17835 0.9181 0.0
H508 H 0.09849 0.17938 0.90969 0.0
S509 S 0.17104 0.0911 0.89881 0.0
N510 N 0.26842 0.10624 0.90481 0.0
N511 N 0.07857 0.10733 0.8967 0.0
C512 C 0.12483 0.12629 0.90099 0.0
C513 C 0.22833 0.12567 0.90566 0.0
C514 C 0.20958 0.87637 0.80524 0.0
C515 C 0.26597 0.8951 0.81367 0.0
C516 C 0.11135 0.87631 0.80716 0.0
C517 C 0.06531 0.89498 0.81784 0.0
H518 H 0.2402 0.86165 0.79503 0.0
H519 H 0.07024 0.86158 0.79824 0.0
S520 S 0.18663 0.94768 0.85399 0.0
N521 N 0.27192 0.93248 0.84009 0.0
N522 N 0.08895 0.9323 0.84531 0.0
C523 C 0.12317 0.9136 0.83046 0.0
C524 C 0.22286 0.91369 0.8279 0.0
C525 C 0.84254 0.87126 0.22342 0.0
C526 C 0.78079 0.88961 0.20441 0.0
C527 C 0.93908 0.87056 0.21861 0.0
C528 C 0.9787 0.88825 0.19526 0.0
H529 H 0.8169 0.85731 0.2432 0.0
H530 H 0.98419 0.8562 0.23541 0.0
S531 S 0.84392 0.93948 0.13156 0.0
N532 N 0.7636 0.92539 0.1553 0.0
N533 N 0.94507 0.92419 0.14758 0.0
C534 C 0.9164 0.90646 0.17359 0.0
C535 C 0.81765 0.90711 0.17781 0.0
C536 C 0.33913 0.63265 0.75956 0.0
C537 C 0.26386 0.64671 0.71437 0.0
C538 C 0.44144 0.63398 0.7663 0.0
C539 C 0.47317 0.64939 0.72798 0.0
H540 H 0.31967 0.62084 0.79175 0.0
H541 H 0.49638 0.62301 0.80307 0.0
S542 S 0.30321 0.68819 0.59465 0.0
N543 N 0.22648 0.67533 0.62543 0.0
N544 N 0.41818 0.67782 0.63792 0.0
C545 C 0.39775 0.66298 0.6801 0.0
C546 C 0.29346 0.66164 0.67336 0.0
C547 C 0.60251 0.62352 0.32688 0.0
C548 C 0.55611 0.64208 0.33808 0.0
C549 C 0.6988 0.62387 0.32199 0.0
C550 C 0.75268 0.64281 0.32781 0.0
H551 H 0.56324 0.6086 0.32005 0.0
H552 H 0.72987 0.60921 0.31167 0.0
S553 S 0.67126 0.69538 0.36674 0.0
N554 N 0.5762 0.67966 0.36164 0.0
N555 N 0.75634 0.68033 0.35196 0.0
C556 C 0.70934 0.66133 0.34231 0.0
C557 C 0.61142 0.66097 0.34759 0.0
C558 C 0.61475 0.373 0.337 0.0
C559 C 0.57963 0.38954 0.36801 0.0
C560 C 0.71131 0.37365 0.33237 0.0
C561 C 0.77696 0.39091 0.35818 0.0
H562 H 0.56643 0.35959 0.31452 0.0
H563 H 0.73353 0.36067 0.30678 0.0
S564 S 0.727 0.4372 0.45155 0.0
N565 N 0.6228 0.42289 0.43081 0.0
N566 N 0.80288 0.42423 0.42087 0.0
C567 C 0.74453 0.40719 0.39173 0.0
C568 C 0.64647 0.40646 0.39701 0.0
C569 C 0.4067 0.38668 0.73419 0.0
C570 C 0.49313 0.39127 0.79669 0.0
C571 C 0.30686 0.38928 0.7327 0.0
C572 C 0.29065 0.39565 0.79474 0.0
H573 H 0.41616 0.38155 0.68576 0.0
H574 H 0.24216 0.38599 0.6832 0.0
S575 S 0.4912 0.40805 0.97323 0.0
N576 N 0.55533 0.4019 0.92237 0.0
N577 N 0.36915 0.40567 0.92077 0.0
C578 C 0.37648 0.39951 0.85805 0.0
C579 C 0.47732 0.39757 0.85879 0.0
loop_
_geom_bond_atom_site_label_1
_geom_bond_atom_site_label_2
_geom_bond_distance
_geom_bond_site_symmetry_2
_ccdc_geom_bond_type
Zn0 N4 2.020 . S
Zn0 O8 2.019 . S
Zn0 N10 2.119 . S
Zn0 O18 1.975 . S
C1 N2 1.334 . S
C1 N5 1.336 . S
N2 C1 1.334 . S
N2 C3 1.334 . S
C3 N2 1.334 . S
C3 N4 1.336 . S
N4 Zn0 2.020 . S
N4 C3 1.336 . S
N4 N5 1.354 . S
N5 C1 1.336 . S
N5 N4 1.354 . S
N5 Zn9 2.020 . S
C6 O7 1.244 . S
C6 O30 1.257 . S
O7 C6 1.244 . S
O8 Zn0 2.019 . S
O8 C28 1.257 . S
Zn9 N5 2.020 . S
Zn9 O16 1.975 . S
Zn9 N25 2.119 . S
Zn9 O30 2.019 . S
N10 Zn0 2.119 . S
N10 C12 1.334 . S
N10 C13 1.328 . S
C11 C12 1.391 . S
C11 N14 1.329 . S
C11 H32 0.930 . S
C12 N10 1.334 . S
C12 C11 1.391 . S
C12 H19 0.930 . S
C13 N10 1.328 . S
C13 C15 1.392 . S
C13 H20 0.930 . S
N14 C11 1.329 . S
N14 C15 1.331 . S
C15 C13 1.392 . S
C15 N14 1.331 . S
O16 Zn9 1.975 . S
O16 C17 1.252 . S
C17 O16 1.252 . S
C17 O18 1.252 . S
O18 Zn0 1.975 . S
O18 C17 1.252 . S
H19 C12 0.930 . S
H20 C13 0.930 . S
C21 C22 1.392 . S
C21 N25 1.328 . S
C21 H27 0.930 . S
C22 C21 1.392 . S
C22 N26 1.331 . S
C23 C24 1.391 . S
C23 N26 1.329 . S
C23 H33 0.930 . S
C24 C23 1.391 . S
C24 N25 1.334 . S
C24 H31 0.930 . S
N25 Zn9 2.119 . S
N25 C21 1.328 . S
N25 C24 1.334 . S
N26 C22 1.331 . S
N26 C23 1.329 . S
H27 C21 0.930 . S
C28 O8 1.257 . S
C28 O29 1.244 . S
O29 C28 1.244 . S
O30 C6 1.257 . S
O30 Zn9 2.019 . S
H31 C24 0.930 . S
H32 C11 0.930 . S
H33 C23 0.930 . S
Zn34 N38 2.020 . S
Zn34 O42 2.019 . S
Zn34 N44 2.119 . S
Zn34 O52 1.975 . S
C35 N36 1.334 . S
C35 N39 1.336 . S
N36 C35 1.334 . S
N36 C37 1.334 . S
C37 N36 1.334 . S
C37 N38 1.336 . S
N38 Zn34 2.020 . S
N38 C37 1.336 . S
N38 N39 1.354 . S
N39 C35 1.336 . S
N39 N38 1.354 . S
N39 Zn43 2.020 . S
C40 O41 1.244 . S
C40 O64 1.257 . S
O41 C40 1.244 . S
O42 Zn34 2.019 . S
O42 C62 1.257 . S
Zn43 N39 2.020 . S
Zn43 O50 1.975 . S
Zn43 N59 2.119 . S
Zn43 O64 2.019 . S
N44 Zn34 2.119 . S
N44 C46 1.334 . S
N44 C47 1.328 . S
C45 C46 1.391 . S
C45 N48 1.329 . S
C45 H66 0.930 . S
C46 N44 1.334 . S
C46 C45 1.391 . S
C46 H53 0.930 . S
C47 N44 1.328 . S
C47 C49 1.392 . S
C47 H54 0.930 . S
N48 C45 1.329 . S
N48 C49 1.331 . S
C49 C47 1.392 . S
C49 N48 1.331 . S
O50 Zn43 1.975 . S
O50 C51 1.252 . S
C51 O50 1.252 . S
C51 O52 1.252 . S
O52 Zn34 1.975 . S
O52 C51 1.252 . S
H53 C46 0.930 . S
H54 C47 0.930 . S
C55 C56 1.392 . S
C55 N59 1.328 . S
C55 H61 0.930 . S
C56 C55 1.392 . S
C56 N60 1.331 . S
C57 C58 1.391 . S
C57 N60 1.329 . S
C57 H67 0.930 . S
C58 C57 1.391 . S
C58 N59 1.334 . S
C58 H65 0.930 . S
N59 Zn43 2.119 . S
N59 C55 1.328 . S
N59 C58 1.334 . S
N60 C56 1.331 . S
N60 C57 1.329 . S
H61 C55 0.930 . S
C62 O42 1.257 . S
C62 O63 1.244 . S
O63 C62 1.244 . S
O64 C40 1.257 . S
O64 Zn43 2.019 . S
H65 C58 0.930 . S
H66 C45 0.930 . S
H67 C57 0.930 . S
Zn68 N72 2.020 . S
Zn68 O76 2.019 . S
Zn68 N78 2.119 . S
Zn68 O86 1.975 . S
C69 N70 1.334 . S
C69 N73 1.336 . S
N70 C69 1.334 . S
N70 C71 1.334 . S
C71 N70 1.334 . S
C71 N72 1.336 . S
N72 Zn68 2.020 . S
N72 C71 1.336 . S
N72 N73 1.354 . S
N73 C69 1.336 . S
N73 N72 1.354 . S
N73 Zn77 2.020 . S
C74 O75 1.244 . S
C74 O98 1.257 . S
O75 C74 1.244 . S
O76 Zn68 2.019 . S
O76 C96 1.257 . S
Zn77 N73 2.020 . S
Zn77 O84 1.975 . S
Zn77 N93 2.119 . S
Zn77 O98 2.019 . S
N78 Zn68 2.119 . S
N78 C80 1.334 . S
N78 C81 1.328 . S
C79 C80 1.391 . S
C79 N82 1.329 . S
C79 H100 0.930 . S
C80 N78 1.334 . S
C80 C79 1.391 . S
C80 H87 0.930 . S
C81 N78 1.328 . S
C81 C83 1.392 . S
C81 H88 0.930 . S
N82 C79 1.329 . S
N82 C83 1.331 . S
C83 C81 1.392 . S
C83 N82 1.331 . S
O84 Zn77 1.975 . S
O84 C85 1.252 . S
C85 O84 1.252 . S
C85 O86 1.252 . S
O86 Zn68 1.975 . S
O86 C85 1.252 . S
H87 C80 0.930 . S
H88 C81 0.930 . S
C89 C90 1.392 . S
C89 N93 1.328 . S
C89 H95 0.930 . S
C90 C89 1.392 . S
C90 N94 1.331 . S
C91 C92 1.391 . S
C91 N94 1.329 . S
C91 H101 0.930 . S
C92 C91 1.391 . S
C92 N93 1.334 . S
C92 H99 0.930 . S
N93 Zn77 2.119 . S
N93 C89 1.328 . S
N93 C92 1.334 . S
N94 C90 1.331 . S
N94 C91 1.329 . S
H95 C89 0.930 . S
C96 O76 1.257 . S
C96 O97 1.244 . S
O97 C96 1.244 . S
O98 C74 1.257 . S
O98 Zn77 2.019 . S
H99 C92 0.930 . S
H100 C79 0.930 . S
H101 C91 0.930 . S
Zn102 N106 2.020 . S
Zn102 O110 2.019 . S
Zn102 N112 2.119 . S
Zn102 O120 1.975 . S
C103 N104 1.334 . S
C103 N107 1.336 . S
N104 C103 1.334 . S
N104 C105 1.334 . S
C105 N104 1.334 . S
C105 N106 1.336 . S
N106 Zn102 2.020 . S
N106 C105 1.336 . S
N106 N107 1.354 . S
N107 C103 1.336 . S
N107 N106 1.354 . S
N107 Zn111 2.020 . S
C108 O109 1.244 . S
C108 O132 1.257 . S
O109 C108 1.244 . S
O110 Zn102 2.019 . S
O110 C130 1.257 . S
Zn111 N107 2.020 . S
Zn111 O118 1.975 . S
Zn111 N127 2.119 . S
Zn111 O132 2.019 . S
N112 Zn102 2.119 . S
N112 C114 1.334 . S
N112 C115 1.328 . S
C113 C114 1.391 . S
C113 N116 1.329 . S
C113 H134 0.930 . S
C114 N112 1.334 . S
C114 C113 1.391 . S
C114 H121 0.930 . S
C115 N112 1.328 . S
C115 C117 1.392 . S
C115 H122 0.930 . S
N116 C113 1.329 . S
N116 C117 1.331 . S
C117 C115 1.392 . S
C117 N116 1.331 . S
O118 Zn111 1.975 . S
O118 C119 1.252 . S
C119 O118 1.252 . S
C119 O120 1.252 . S
O120 Zn102 1.975 . S
O120 C119 1.252 . S
H121 C114 0.930 . S
H122 C115 0.930 . S
C123 C124 1.392 . S
C123 N127 1.328 . S
C123 H129 0.930 . S
C124 C123 1.392 . S
C124 N128 1.331 . S
C125 C126 1.391 . S
C125 N128 1.329 . S
C125 H135 0.930 . S
C126 C125 1.391 . S
C126 N127 1.334 . S
C126 H133 0.930 . S
N127 Zn111 2.119 . S
N127 C123 1.328 . S
N127 C126 1.334 . S
N128 C124 1.331 . S
N128 C125 1.329 . S
H129 C123 0.930 . S
C130 O110 1.257 . S
C130 O131 1.244 . S
O131 C130 1.244 . S
O132 C108 1.257 . S
O132 Zn111 2.019 . S
H133 C126 0.930 . S
H134 C113 0.930 . S
H135 C125 0.930 . S
Zn136 N140 2.020 . S
Zn136 O144 2.019 . S
Zn136 N146 2.119 . S
Zn136 O154 1.975 . S
C137 N138 1.334 . S
C137 N141 1.336 . S
N138 C137 1.334 . S
N138 C139 1.334 . S
C139 N138 1.334 . S
C139 N140 1.336 . S
N140 Zn136 2.020 . S
N140 C139 1.336 . S
N140 N141 1.354 . S
N141 C137 1.336 . S
N141 N140 1.354 . S
N141 Zn145 2.020 1_655 S
C142 O143 1.244 . S
C142 O166 1.257 . S
O143 C142 1.244 . S
O144 Zn136 2.019 . S
O144 C164 1.257 . S
Zn145 N141 2.020 1_455 S
Zn145 O152 1.975 . S
Zn145 N161 2.119 1_455 S
Zn145 O166 2.019 . S
N146 Zn136 2.119 . S
N146 C148 1.334 . S
N146 C149 1.328 . S
C147 C148 1.391 . S
C147 N150 1.329 . S
C147 H168 0.930 1_655 S
C148 N146 1.334 . S
C148 C147 1.391 . S
C148 H155 0.930 . S
C149 N146 1.328 . S
C149 C151 1.392 . S
C149 H156 0.930 . S
N150 C147 1.329 . S
N150 C151 1.331 . S
C151 C149 1.392 . S
C151 N150 1.331 . S
O152 Zn145 1.975 . S
O152 C153 1.252 1_455 S
C153 O152 1.252 1_655 S
C153 O154 1.252 . S
O154 Zn136 1.975 . S
O154 C153 1.252 . S
H155 C148 0.930 . S
H156 C149 0.930 . S
C157 C158 1.392 . S
C157 N161 1.328 1_455 S
C157 H163 0.930 . S
C158 C157 1.392 . S
C158 N162 1.331 1_455 S
C159 C160 1.391 . S
C159 N162 1.329 . S
C159 H169 0.930 . S
C160 C159 1.391 . S
C160 N161 1.334 . S
C160 H167 0.930 . S
N161 Zn145 2.119 1_655 S
N161 C157 1.328 1_655 S
N161 C160 1.334 . S
N162 C158 1.331 1_655 S
N162 C159 1.329 . S
H163 C157 0.930 . S
C164 O144 1.257 . S
C164 O165 1.244 . S
O165 C164 1.244 . S
O166 C142 1.257 . S
O166 Zn145 2.019 . S
H167 C160 0.930 . S
H168 C147 0.930 1_455 S
H169 C159 0.930 . S
Zn170 N174 2.020 . S
Zn170 O178 2.019 . S
Zn170 N180 2.119 . S
Zn170 O188 1.975 . S
C171 N172 1.334 . S
C171 N175 1.336 . S
N172 C171 1.334 . S
N172 C173 1.334 . S
C173 N172 1.334 . S
C173 N174 1.336 . S
N174 Zn170 2.020 . S
N174 C173 1.336 . S
N174 N175 1.354 . S
N175 C171 1.336 . S
N175 N174 1.354 . S
N175 Zn179 2.020 1_455 S
C176 O177 1.244 . S
C176 O200 1.257 . S
O177 C176 1.244 . S
O178 Zn170 2.019 . S
O178 C198 1.257 . S
Zn179 N175 2.020 1_655 S
Zn179 O186 1.975 . S
Zn179 N195 2.119 1_655 S
Zn179 O200 2.019 . S
N180 Zn170 2.119 . S
N180 C182 1.334 . S
N180 C183 1.328 . S
C181 C182 1.391 . S
C181 N184 1.329 . S
C181 H202 0.930 1_455 S
C182 N180 1.334 . S
C182 C181 1.391 . S
C182 H189 0.930 . S
C183 N180 1.328 . S
C183 C185 1.392 . S
C183 H190 0.930 . S
N184 C181 1.329 . S
N184 C185 1.331 . S
C185 C183 1.392 . S
C185 N184 1.331 . S
O186 Zn179 1.975 . S
O186 C187 1.252 1_655 S
C187 O186 1.252 1_455 S
C187 O188 1.252 . S
O188 Zn170 1.975 . S
O188 C187 1.252 . S
H189 C182 0.930 . S
H190 C183 0.930 . S
C191 C192 1.392 . S
C191 N195 1.328 1_655 S
C191 H197 0.930 . S
C192 C191 1.392 . S
C192 N196 1.331 1_655 S
C193 C194 1.391 . S
C193 N196 1.329 . S
C193 H203 0.930 . S
C194 C193 1.391 . S
C194 N195 1.334 . S
C194 H201 0.930 . S
N195 Zn179 2.119 1_455 S
N195 C191 1.328 1_455 S
N195 C194 1.334 . S
N196 C192 1.331 1_455 S
N196 C193 1.329 . S
H197 C191 0.930 . S
C198 O178 1.257 . S
C198 O199 1.244 . S
O199 C198 1.244 . S
O200 C176 1.257 . S
O200 Zn179 2.019 . S
H201 C194 0.930 . S
H202 C181 0.930 1_655 S
H203 C193 0.930 . S
Zn204 N208 2.020 1_655 S
Zn204 O212 2.019 . S
Zn204 N214 2.119 1_655 S
Zn204 O222 1.975 . S
C205 N206 1.334 . S
C205 N209 1.336 . S
N206 C205 1.334 . S
N206 C207 1.334 . S
C207 N206 1.334 . S
C207 N208 1.336 . S
N208 Zn204 2.020 1_455 S
N208 C207 1.336 . S
N208 N209 1.354 . S
N209 C205 1.336 . S
N209 N208 1.354 . S
N209 Zn213 2.020 . S
C210 O211 1.244 . S
C210 O234 1.257 . S
O211 C210 1.244 . S
O212 Zn204 2.019 . S
O212 C232 1.257 . S
Zn213 N209 2.020 . S
Zn213 O220 1.975 . S
Zn213 N229 2.119 . S
Zn213 O234 2.019 . S
N214 Zn204 2.119 1_455 S
N214 C216 1.334 . S
N214 C217 1.328 1_455 S
C215 C216 1.391 . S
C215 N218 1.329 . S
C215 H236 0.930 . S
C216 N214 1.334 . S
C216 C215 1.391 . S
C216 H223 0.930 . S
C217 N214 1.328 1_655 S
C217 C219 1.392 . S
C217 H224 0.930 . S
N218 C215 1.329 . S
N218 C219 1.331 1_455 S
C219 C217 1.392 . S
C219 N218 1.331 1_655 S
O220 Zn213 1.975 . S
O220 C221 1.252 . S
C221 O220 1.252 . S
C221 O222 1.252 1_455 S
O222 Zn204 1.975 . S
O222 C221 1.252 1_655 S
H223 C216 0.930 . S
H224 C217 0.930 . S
C225 C226 1.392 . S
C225 N229 1.328 . S
C225 H231 0.930 . S
C226 C225 1.392 . S
C226 N230 1.331 . S
C227 C228 1.391 . S
C227 N230 1.329 . S
C227 H237 0.930 1_455 S
C228 C227 1.391 . S
C228 N229 1.334 . S
C228 H235 0.930 . S
N229 Zn213 2.119 . S
N229 C225 1.328 . S
N229 C228 1.334 . S
N230 C226 1.331 . S
N230 C227 1.329 . S
H231 C225 0.930 . S
C232 O212 1.257 . S
C232 O233 1.244 . S
O233 C232 1.244 . S
O234 C210 1.257 . S
O234 Zn213 2.019 . S
H235 C228 0.930 . S
H236 C215 0.930 . S
H237 C227 0.930 1_655 S
Zn238 N242 2.020 . S
Zn238 O246 2.019 . S
Zn238 N248 2.119 . S
Zn238 O256 1.975 . S
C239 N240 1.334 . S
C239 N243 1.336 . S
N240 C239 1.334 . S
N240 C241 1.334 . S
C241 N240 1.334 . S
C241 N242 1.336 . S
N242 Zn238 2.020 . S
N242 C241 1.336 . S
N242 N243 1.354 . S
N243 C239 1.336 . S
N243 N242 1.354 . S
N243 Zn247 2.020 1_655 S
C244 O245 1.244 . S
C244 O268 1.257 . S
O245 C244 1.244 . S
O246 Zn238 2.019 . S
O246 C266 1.257 . S
Zn247 N243 2.020 1_455 S
Zn247 O254 1.975 . S
Zn247 N263 2.119 1_455 S
Zn247 O268 2.019 . S
N248 Zn238 2.119 . S
N248 C250 1.334 . S
N248 C251 1.328 . S
C249 C250 1.391 . S
C249 N252 1.329 . S
C249 H270 0.930 1_655 S
C250 N248 1.334 . S
C250 C249 1.391 . S
C250 H257 0.930 . S
C251 N248 1.328 . S
C251 C253 1.392 . S
C251 H258 0.930 . S
N252 C249 1.329 . S
N252 C253 1.331 . S
C253 C251 1.392 . S
C253 N252 1.331 . S
O254 Zn247 1.975 . S
O254 C255 1.252 1_455 S
C255 O254 1.252 1_655 S
C255 O256 1.252 . S
O256 Zn238 1.975 . S
O256 C255 1.252 . S
H257 C250 0.930 . S
H258 C251 0.930 . S
C259 C260 1.392 . S
C259 N263 1.328 1_455 S
C259 H265 0.930 . S
C260 C259 1.392 . S
C260 N264 1.331 1_455 S
C261 C262 1.391 . S
C261 N264 1.329 . S
C261 H271 0.930 . S
C262 C261 1.391 . S
C262 N263 1.334 . S
C262 H269 0.930 . S
N263 Zn247 2.119 1_655 S
N263 C259 1.328 1_655 S
N263 C262 1.334 . S
N264 C260 1.331 1_655 S
N264 C261 1.329 . S
H265 C259 0.930 . S
C266 O246 1.257 . S
C266 O267 1.244 . S
O267 C266 1.244 . S
O268 C244 1.257 . S
O268 Zn247 2.019 . S
H269 C262 0.930 . S
H270 C249 0.930 1_455 S
H271 C261 0.930 . S
C272 C273 1.369 . S
C272 C274 1.419 . S
C272 H276 0.930 . S
C273 C272 1.369 . S
C273 C282 1.429 . S
C274 C272 1.419 . S
C274 C275 1.363 . S
C274 H277 0.929 . S
C275 C274 1.363 . S
C275 C281 1.428 . S
H276 C272 0.930 . S
H277 C274 0.929 . S
S278 N279 1.613 . S
S278 N280 1.610 . S
N279 S278 1.613 . S
N279 C282 1.350 . S
N280 S278 1.610 . S
N280 C281 1.351 . S
C281 C275 1.428 . S
C281 N280 1.351 . S
C281 C282 1.434 . S
C282 C273 1.429 . S
C282 N279 1.350 . S
C282 C281 1.434 . S
C283 C284 1.369 . S
C283 C285 1.419 . S
C283 H287 0.930 . S
C284 C283 1.369 . S
C284 C293 1.429 . S
C285 C283 1.419 . S
C285 C286 1.363 . S
C285 H288 0.929 . S
C286 C285 1.363 . S
C286 C292 1.428 . S
H287 C283 0.930 . S
H288 C285 0.929 . S
S289 N290 1.613 . S
S289 N291 1.610 . S
N290 S289 1.613 . S
N290 C293 1.350 . S
N291 S289 1.610 . S
N291 C292 1.351 . S
C292 C286 1.428 . S
C292 N291 1.351 . S
C292 C293 1.434 . S
C293 C284 1.429 . S
C293 N290 1.350 . S
C293 C292 1.434 . S
C294 C295 1.369 1_455 S
C294 C296 1.419 1_556 S
C294 H298 0.930 . S
C295 C294 1.369 1_655 S
C295 C304 1.429 . S
C296 C294 1.419 1_554 S
C296 C297 1.363 . S
C296 H299 0.929 . S
C297 C296 1.363 . S
C297 C303 1.428 1_455 S
H298 C294 0.930 . S
H299 C296 0.929 . S
S300 N301 1.613 . S
S300 N302 1.610 1_556 S
N301 S300 1.613 . S
N301 C304 1.350 . S
N302 S300 1.610 1_554 S
N302 C303 1.351 . S
C303 C297 1.428 1_655 S
C303 N302 1.351 . S
C303 C304 1.434 1_554 S
C304 C295 1.429 . S
C304 N301 1.350 . S
C304 C303 1.434 1_556 S
C305 C306 1.369 1_455 S
C305 C307 1.419 1_556 S
C305 H309 0.930 . S
C306 C305 1.369 1_655 S
C306 C315 1.429 . S
C307 C305 1.419 1_554 S
C307 C308 1.363 . S
C307 H310 0.929 . S
C308 C307 1.363 . S
C308 C314 1.428 1_455 S
H309 C305 0.930 . S
H310 C307 0.929 . S
S311 N312 1.613 . S
S311 N313 1.610 1_556 S
N312 S311 1.613 . S
N312 C315 1.350 . S
N313 S311 1.610 1_554 S
N313 C314 1.351 . S
C314 C308 1.428 1_655 S
C314 N313 1.351 . S
C314 C315 1.434 1_554 S
C315 C306 1.429 . S
C315 N312 1.350 . S
C315 C314 1.434 1_556 S
C316 C317 1.369 . S
C316 C318 1.419 1_565 S
C316 H320 0.930 . S
C317 C316 1.369 . S
C317 C326 1.429 . S
C318 C316 1.419 1_545 S
C318 C319 1.363 . S
C318 H321 0.929 . S
C319 C318 1.363 . S
C319 C325 1.428 . S
H320 C316 0.930 . S
H321 C318 0.929 . S
S322 N323 1.617 1_545 S
S322 N324 1.606 . S
N323 S322 1.617 1_565 S
N323 C326 1.350 . S
N324 S322 1.606 . S
N324 C325 1.351 . S
C325 C319 1.428 . S
C325 N324 1.351 . S
C325 C326 1.434 1_545 S
C326 C317 1.429 . S
C326 N323 1.350 . S
C326 C325 1.434 1_565 S
C327 C328 1.369 . S
C327 C329 1.419 1_565 S
C327 H331 0.930 . S
C328 C327 1.369 . S
C328 C337 1.429 . S
C329 C327 1.419 1_545 S
C329 C330 1.363 . S
C329 H332 0.929 . S
C330 C329 1.363 . S
C330 C336 1.428 . S
H331 C327 0.930 . S
H332 C329 0.929 . S
S333 N334 1.618 1_545 S
S333 N335 1.606 . S
N334 S333 1.618 1_565 S
N334 C337 1.350 . S
N335 S333 1.606 . S
N335 C336 1.351 . S
C336 C330 1.428 . S
C336 N335 1.351 . S
C336 C337 1.434 1_545 S
C337 C328 1.429 . S
C337 N334 1.350 . S
C337 C336 1.434 1_565 S
C338 C339 1.369 1_655 S
C338 C340 1.419 . S
C338 H342 0.930 . S
C339 C338 1.369 1_455 S
C339 C348 1.429 . S
C340 C338 1.419 . S
C340 C341 1.363 1_655 S
C340 H343 0.929 . S
C341 C340 1.363 1_455 S
C341 C347 1.428 . S
H342 C338 0.930 . S
H343 C340 0.929 . S
S344 N345 1.613 . S
S344 N346 1.610 . S
N345 S344 1.613 . S
N345 C348 1.350 . S
N346 S344 1.610 . S
N346 C347 1.351 . S
C347 C341 1.428 . S
C347 N346 1.351 . S
C347 C348 1.434 . S
C348 C339 1.429 . S
C348 N345 1.350 . S
C348 C347 1.434 . S
C349 C350 1.369 . S
C349 C351 1.419 . S
C349 H353 0.930 . S
C350 C349 1.369 . S
C350 C359 1.429 . S
C351 C349 1.419 . S
C351 C352 1.363 . S
C351 H354 0.929 . S
C352 C351 1.363 . S
C352 C358 1.428 . S
H353 C349 0.930 . S
H354 C351 0.929 . S
S355 N356 1.613 . S
S355 N357 1.610 . S
N356 S355 1.613 . S
N356 C359 1.350 1_455 S
N357 S355 1.610 . S
N357 C358 1.351 1_455 S
C358 C352 1.428 . S
C358 N357 1.351 1_655 S
C358 C359 1.434 . S
C359 C350 1.429 . S
C359 N356 1.350 1_655 S
C359 C358 1.434 . S
C360 C361 1.369 . S
C360 C362 1.419 1_655 S
C360 H364 0.930 . S
C361 C360 1.369 . S
C361 C370 1.429 1_556 S
C362 C360 1.419 1_455 S
C362 C363 1.363 1_556 S
C362 H365 0.929 . S
C363 C362 1.363 1_554 S
C363 C369 1.428 . S
H364 C360 0.930 . S
H365 C362 0.929 . S
S366 N367 1.613 . S
S366 N368 1.610 1_655 S
N367 S366 1.613 . S
N367 C370 1.350 . S
N368 S366 1.610 1_455 S
N368 C369 1.351 . S
C369 C363 1.428 . S
C369 N368 1.351 . S
C369 C370 1.434 1_455 S
C370 C361 1.429 1_554 S
C370 N367 1.350 . S
C370 C369 1.434 1_655 S
C371 C372 1.369 . S
C371 C373 1.419 1_455 S
C371 H375 0.930 . S
C372 C371 1.369 . S
C372 C381 1.429 1_554 S
C373 C371 1.419 1_655 S
C373 C374 1.363 1_554 S
C373 H376 0.929 . S
C374 C373 1.363 1_556 S
C374 C380 1.428 . S
H375 C371 0.930 . S
H376 C373 0.929 . S
S377 N378 1.613 . S
S377 N379 1.610 1_455 S
N378 S377 1.613 . S
N378 C381 1.350 . S
N379 S377 1.610 1_655 S
N379 C380 1.351 . S
C380 C374 1.428 . S
C380 N379 1.351 . S
C380 C381 1.434 1_655 S
C381 C372 1.429 1_556 S
C381 N378 1.350 . S
C381 C380 1.434 1_455 S
C382 C383 1.369 . S
C382 C384 1.419 . S
C382 H386 0.930 . S
C383 C382 1.369 . S
C383 C392 1.429 . S
C384 C382 1.419 . S
C384 C385 1.363 . S
C384 H387 0.929 . S
C385 C384 1.363 . S
C385 C391 1.428 . S
H386 C382 0.930 . S
H387 C384 0.929 . S
S388 N389 1.613 . S
S388 N390 1.610 . S
N389 S388 1.613 . S
N389 C392 1.350 . S
N390 S388 1.610 . S
N390 C391 1.351 . S
C391 C385 1.428 . S
C391 N390 1.351 . S
C391 C392 1.434 . S
C392 C383 1.429 . S
C392 N389 1.350 . S
C392 C391 1.434 . S
C393 C394 1.369 . S
C393 C395 1.419 . S
C393 H397 0.930 . S
C394 C393 1.369 . S
C394 C403 1.429 . S
C395 C393 1.419 . S
C395 C396 1.363 . S
C395 H398 0.929 . S
C396 C395 1.363 . S
C396 C402 1.428 . S
H397 C393 0.930 . S
H398 C395 0.929 . S
S399 N400 1.613 . S
S399 N401 1.610 . S
N400 S399 1.613 . S
N400 C403 1.350 . S
N401 S399 1.610 . S
N401 C402 1.351 . S
C402 C396 1.428 . S
C402 N401 1.351 . S
C402 C403 1.434 . S
C403 C394 1.429 . S
C403 N400 1.350 . S
C403 C402 1.434 . S
C404 C405 1.369 . S
C404 C406 1.419 1_556 S
C404 H408 0.930 . S
C405 C404 1.369 . S
C405 C414 1.429 . S
C406 C404 1.419 1_554 S
C406 C407 1.363 . S
C406 H409 0.929 . S
C407 C406 1.363 . S
C407 C413 1.428 . S
H408 C404 0.930 . S
H409 C406 0.929 . S
S410 N411 1.613 . S
S410 N412 1.610 . S
N411 S410 1.613 . S
N411 C414 1.350 . S
N412 S410 1.610 . S
N412 C413 1.351 1_556 S
C413 C407 1.428 . S
C413 N412 1.351 1_554 S
C413 C414 1.434 1_554 S
C414 C405 1.429 . S
C414 N411 1.350 . S
C414 C413 1.434 1_556 S
C415 C416 1.369 . S
C415 C417 1.419 . S
C415 H419 0.930 . S
C416 C415 1.369 . S
C416 C425 1.429 1_556 S
C417 C415 1.419 . S
C417 C418 1.363 1_556 S
C417 H420 0.929 . S
C418 C417 1.363 1_554 S
C418 C424 1.428 . S
H419 C415 0.930 . S
H420 C417 0.929 . S
S421 N422 1.613 . S
S421 N423 1.610 . S
N422 S421 1.613 . S
N422 C425 1.350 . S
N423 S421 1.610 . S
N423 C424 1.351 . S
C424 C418 1.428 . S
C424 N423 1.351 . S
C424 C425 1.434 . S
C425 C416 1.429 1_554 S
C425 N422 1.350 . S
C425 C424 1.434 . S
C426 C427 1.369 . S
C426 C428 1.419 . S
C426 H430 0.930 . S
C427 C426 1.369 . S
C427 C436 1.429 1_455 S
C428 C426 1.419 . S
C428 C429 1.363 1_455 S
C428 H431 0.929 . S
C429 C428 1.363 1_655 S
C429 C435 1.428 . S
H430 C426 0.930 . S
H431 C428 0.929 . S
S432 N433 1.613 . S
S432 N434 1.610 . S
N433 S432 1.613 . S
N433 C436 1.350 . S
N434 S432 1.610 . S
N434 C435 1.351 . S
C435 C429 1.428 . S
C435 N434 1.351 . S
C435 C436 1.434 . S
C436 C427 1.429 1_655 S
C436 N433 1.350 . S
C436 C435 1.434 . S
C437 C438 1.369 1_655 S
C437 C439 1.419 . S
C437 H441 0.930 . S
C438 C437 1.369 1_455 S
C438 C447 1.429 . S
C439 C437 1.419 . S
C439 C440 1.363 . S
C439 H442 0.929 . S
C440 C439 1.363 . S
C440 C446 1.428 1_655 S
H441 C437 0.930 . S
H442 C439 0.929 . S
S443 N444 1.613 . S
S443 N445 1.610 . S
N444 S443 1.613 . S
N444 C447 1.350 . S
N445 S443 1.610 . S
N445 C446 1.351 . S
C446 C440 1.428 1_455 S
C446 N445 1.351 . S
C446 C447 1.434 . S
C447 C438 1.429 . S
C447 N444 1.350 . S
C447 C446 1.434 . S
C448 C449 1.369 . S
C448 C450 1.419 . S
C448 H452 0.930 . S
C449 C448 1.369 . S
C449 C458 1.429 . S
C450 C448 1.419 . S
C450 C451 1.363 . S
C450 H453 0.929 . S
C451 C450 1.363 . S
C451 C457 1.428 . S
H452 C448 0.930 . S
H453 C450 0.929 . S
S454 N455 1.613 . S
S454 N456 1.610 . S
N455 S454 1.613 . S
N455 C458 1.350 . S
N456 S454 1.610 . S
N456 C457 1.351 . S
C457 C451 1.428 . S
C457 N456 1.351 . S
C457 C458 1.434 . S
C458 C449 1.429 . S
C458 N455 1.350 . S
C458 C457 1.434 . S
C459 C460 1.369 . S
C459 C461 1.419 . S
C459 H463 0.930 . S
C460 C459 1.369 . S
C460 C469 1.429 . S
C461 C459 1.419 . S
C461 C462 1.363 . S
C461 H464 0.929 . S
C462 C461 1.363 . S
C462 C468 1.428 . S
H463 C459 0.930 . S
H464 C461 0.929 . S
S465 N466 1.613 . S
S465 N467 1.610 . S
N466 S465 1.613 . S
N466 C469 1.350 . S
N467 S465 1.610 . S
N467 C468 1.351 . S
C468 C462 1.428 . S
C468 N467 1.351 . S
C468 C469 1.434 . S
C469 C460 1.429 . S
C469 N466 1.350 . S
C469 C468 1.434 . S
C470 C471 1.369 . S
C470 C472 1.419 . S
C470 H474 0.930 . S
C471 C470 1.369 . S
C471 C480 1.429 . S
C472 C470 1.419 . S
C472 C473 1.363 . S
C472 H475 0.929 . S
C473 C472 1.363 . S
C473 C479 1.428 . S
H474 C470 0.930 . S
H475 C472 0.929 . S
S476 N477 1.613 . S
S476 N478 1.610 . S
N477 S476 1.613 . S
N477 C480 1.350 . S
N478 S476 1.610 . S
N478 C479 1.351 . S
C479 C473 1.428 . S
C479 N478 1.351 . S
C479 C480 1.434 . S
C480 C471 1.429 . S
C480 N477 1.350 . S
C480 C479 1.434 . S
C481 C482 1.369 . S
C481 C483 1.419 . S
C481 H485 0.930 . S
C482 C481 1.369 . S
C482 C491 1.429 . S
C483 C481 1.419 . S
C483 C484 1.363 . S
C483 H486 0.929 . S
C484 C483 1.363 . S
C484 C490 1.428 . S
H485 C481 0.930 . S
H486 C483 0.929 . S
S487 N488 1.613 . S
S487 N489 1.610 . S
N488 S487 1.613 . S
N488 C491 1.350 . S
N489 S487 1.610 . S
N489 C490 1.351 . S
C490 C484 1.428 . S
C490 N489 1.351 . S
C490 C491 1.434 . S
C491 C482 1.429 . S
C491 N488 1.350 . S
C491 C490 1.434 . S
C492 C493 1.369 . S
C492 C494 1.419 . S
C492 H496 0.930 . S
C493 C492 1.369 . S
C493 C502 1.429 . S
C494 C492 1.419 . S
C494 C495 1.363 1_655 S
C494 H497 0.929 . S
C495 C494 1.363 1_455 S
C495 C501 1.428 1_455 S
H496 C492 0.930 . S
H497 C494 0.929 . S
S498 N499 1.613 1_455 S
S498 N500 1.610 . S
N499 S498 1.613 1_655 S
N499 C502 1.350 . S
N500 S498 1.610 . S
N500 C501 1.351 1_455 S
C501 C495 1.428 1_655 S
C501 N500 1.351 1_655 S
C501 C502 1.434 . S
C502 C493 1.429 . S
C502 N499 1.350 . S
C502 C501 1.434 . S
C503 C504 1.369 . S
C503 C505 1.419 . S
C503 H507 0.930 . S
C504 C503 1.369 . S
C504 C513 1.429 . S
C505 C503 1.419 . S
C505 C506 1.363 1_455 S
C505 H508 0.929 1_455 S
C506 C505 1.363 1_655 S
C506 C512 1.428 1_655 S
H507 C503 0.930 . S
H508 C505 0.929 1_655 S
S509 N510 1.613 . S
S509 N511 1.610 . S
N510 S509 1.613 . S
N510 C513 1.350 . S
N511 S509 1.610 . S
N511 C512 1.351 . S
C512 C506 1.428 1_455 S
C512 N511 1.351 . S
C512 C513 1.434 . S
C513 C504 1.429 . S
C513 N510 1.350 . S
C513 C512 1.434 . S
C514 C515 1.369 . S
C514 C516 1.419 . S
C514 H518 0.930 . S
C515 C514 1.369 . S
C515 C524 1.429 . S
C516 C514 1.419 . S
C516 C517 1.363 1_455 S
C516 H519 0.929 1_455 S
C517 C516 1.363 1_655 S
C517 C523 1.428 1_655 S
H518 C514 0.930 . S
H519 C516 0.929 1_655 S
S520 N521 1.613 . S
S520 N522 1.610 . S
N521 S520 1.613 . S
N521 C524 1.350 . S
N522 S520 1.610 . S
N522 C523 1.351 . S
C523 C517 1.428 1_455 S
C523 N522 1.351 . S
C523 C524 1.434 . S
C524 C515 1.429 . S
C524 N521 1.350 . S
C524 C523 1.434 . S
C525 C526 1.369 . S
C525 C527 1.419 . S
C525 H529 0.930 . S
C526 C525 1.369 . S
C526 C535 1.429 . S
C527 C525 1.419 . S
C527 C528 1.363 1_655 S
C527 H530 0.929 . S
C528 C527 1.363 1_455 S
C528 C534 1.428 1_455 S
H529 C525 0.930 . S
H530 C527 0.929 . S
S531 N532 1.613 . S
S531 N533 1.610 . S
N532 S531 1.613 . S
N532 C535 1.350 . S
N533 S531 1.610 . S
N533 C534 1.351 . S
C534 C528 1.428 1_655 S
C534 N533 1.351 . S
C534 C535 1.434 . S
C535 C526 1.429 . S
C535 N532 1.350 . S
C535 C534 1.434 . S
C536 C537 1.369 . S
C536 C538 1.419 . S
C536 H540 0.930 . S
C537 C536 1.369 . S
C537 C546 1.429 . S
C538 C536 1.419 . S
C538 C539 1.363 . S
C538 H541 0.929 . S
C539 C538 1.363 . S
C539 C545 1.428 . S
H540 C536 0.930 . S
H541 C538 0.929 . S
S542 N543 1.613 . S
S542 N544 1.610 . S
N543 S542 1.613 . S
N543 C546 1.350 . S
N544 S542 1.610 . S
N544 C545 1.351 . S
C545 C539 1.428 . S
C545 N544 1.351 . S
C545 C546 1.434 . S
C546 C537 1.429 . S
C546 N543 1.350 . S
C546 C545 1.434 . S
C547 C548 1.369 . S
C547 C549 1.419 . S
C547 H551 0.930 . S
C548 C547 1.369 . S
C548 C557 1.429 . S
C549 C547 1.419 . S
C549 C550 1.363 . S
C549 H552 0.929 . S
C550 C549 1.363 . S
C550 C556 1.428 . S
H551 C547 0.930 . S
H552 C549 0.929 . S
S553 N554 1.613 . S
S553 N555 1.610 . S
N554 S553 1.613 . S
N554 C557 1.350 . S
N555 S553 1.610 . S
N555 C556 1.351 . S
C556 C550 1.428 . S
C556 N555 1.351 . S
C556 C557 1.434 . S
C557 C548 1.429 . S
C557 N554 1.350 . S
C557 C556 1.434 . S
C558 C559 1.369 . S
C558 C560 1.419 . S
C558 H562 0.930 . S
C559 C558 1.369 . S
C559 C568 1.429 . S
C560 C558 1.419 . S
C560 C561 1.363 . S
C560 H563 0.929 . S
C561 C560 1.363 . S
C561 C567 1.428 . S
H562 C558 0.930 . S
H563 C560 0.929 . S
S564 N565 1.613 . S
S564 N566 1.610 . S
N565 S564 1.613 . S
N565 C568 1.350 . S
N566 S564 1.610 . S
N566 C567 1.351 . S
C567 C561 1.428 . S
C567 N566 1.351 . S
C567 C568 1.434 . S
C568 C559 1.429 . S
C568 N565 1.350 . S
C568 C567 1.434 . S
C569 C570 1.369 . S
C569 C571 1.419 . S
C569 H573 0.930 . S
C570 C569 1.369 . S
C570 C579 1.429 . S
C571 C569 1.419 . S
C571 C572 1.363 . S
C571 H574 0.929 . S
C572 C571 1.363 . S
C572 C578 1.428 . S
H573 C569 0.930 . S
H574 C571 0.929 . S
S575 N576 1.613 . S
S575 N577 1.610 . S
N576 S575 1.613 . S
N576 C579 1.350 . S
N577 S575 1.610 . S
N577 C578 1.351 . S
C578 C572 1.428 . S
C578 N577 1.351 . S
C578 C579 1.434 . S
C579 C570 1.429 . S
C579 N576 1.350 . S
C579 C578 1.434 . S
C273 C51 1.726 . S
C275 C17 1.724 . S
C284 C119 1.724 . S
C286 C85 1.724 . S
C295 C153 1.723 . S
C297 C187 1.726 . S
C306 C255 1.725 . S
C308 C221 1.725 . S
C317 C117 1.799 . S
C319 C22 1.799 . S
C328 C90 1.801 . S
C330 C56 1.801 . S
C339 C158 1.802 . S
C341 C260 1.801 . S
C350 C192 1.796 . S
C352 C219 1.796 . S
C361 C37 2.053 . S
C363 C3 2.054 . S
C372 C103 2.049 . S
C374 C71 2.052 . S
C383 C139 2.052 . S
C385 C173 2.049 . S
C394 C205 2.048 . S
C396 C241 2.050 . S
C405 C35 1.574 . S
C407 C1 1.569 . S
C416 C69 1.564 . S
C418 C105 1.569 . S
C427 C171 1.570 . S
C429 C137 1.566 . S
C438 C207 1.565 . S
C440 C239 1.572 . S
C449 C15 1.548 . S
C451 C226 1.540 . S
C460 C49 1.549 . S
C462 C253 1.539 . S
C471 C83 1.549 . S
C473 C151 1.539 . S
C482 C124 1.546 . S
C484 C185 1.541 . S
C493 C6 1.377 . S
C495 C28 1.380 . S
C504 C40 1.376 . S
C506 C62 1.380 . S
C515 C74 1.374 . S
C517 C96 1.380 . S
C526 C130 1.375 . S
C528 C108 1.380 . S
C537 C142 1.373 . S
C539 C164 1.381 . S
C548 C198 1.382 . S
C550 C176 1.375 . S
C559 C210 1.379 . S
C561 C232 1.376 . S
C570 C266 1.381 . S
C572 C244 1.376 . S
