# Generated by pormake.
# Topology snp, (6)-cn, num edge types: 1
# Building blocks:
#     Node 0, Type 0, BuildingBlock: KUMJIN_clean_sbu_0, # of connection points: 6
#     Node 1, Type 0, BuildingBlock: KUMJIN_clean_sbu_0, # of connection points: 6
#     Node 2, Type 0, BuildingBlock: KUMJIN_clean_sbu_0, # of connection points: 6
#     Node 3, Type 0, BuildingBlock: KUMJIN_clean_sbu_0, # of connection points: 6
#     Edge 4, Type (0, 0), BuildingBlock: FUNLAD_clean_linker_0, # of connection points: 2
#     Edge 5, Type (0, 0), BuildingBlock: FUNLAD_clean_linker_0, # of connection points: 2
#     Edge 6, Type (0, 0), BuildingBlock: FUNLAD_clean_linker_0, # of connection points: 2
#     Edge 7, Type (0, 0), BuildingBlock: FUNLAD_clean_linker_0, # of connection points: 2
#     Edge 8, Type (0, 0), BuildingBlock: FUNLAD_clean_linker_0, # of connection points: 2
#     Edge 9, Type (0, 0), BuildingBlock: FUNLAD_clean_linker_0, # of connection points: 2
#     Edge 10, Type (0, 0), BuildingBlock: FUNLAD_clean_linker_0, # of connection points: 2
#     Edge 11, Type (0, 0), BuildingBlock: FUNLAD_clean_linker_0, # of connection points: 2
#     Edge 12, Type (0, 0), BuildingBlock: FUNLAD_clean_linker_0, # of connection points: 2
#     Edge 13, Type (0, 0), BuildingBlock: FUNLAD_clean_linker_0, # of connection points: 2
#     Edge 14, Type (0, 0), BuildingBlock: FUNLAD_clean_linker_0, # of connection points: 2
#     Edge 15, Type (0, 0), BuildingBlock: FUNLAD_clean_linker_0, # of connection points: 2
# Relax obj value: 0.239
# Max RMSD: 0.217
# Mean RMSD: 0.203
data_MOF--net-snp--node1-KUMJIN_clean_sbu_0--edge1-FUNLAD_clean_linker_0
_symmetry_space_group_name_H-M    P1
_symmetry_Int_Tables_number       1
_symmetry_cell_setting            triclinic
loop_
_symmetry_equiv_pos_as_xyz
'x, y, z'
_cell_length_a     29.096374
_cell_length_b     30.210715
_cell_length_c     35.540427
_cell_angle_alpha  113.7129
_cell_angle_beta   105.95276
_cell_angle_gamma 75.590376
loop_
_atom_site_label
_atom_site_type_symbol
_atom_site_fract_x
_atom_site_fract_y
_atom_site_fract_z
_atom_type_partial_charge
Eu0 Eu 0.28587 0.1479 0.12626 0.0
C1 C 0.31145 0.93077 1.03711 0.0
C2 C 0.26933 0.88734 0.05811 0.0
C3 C 0.27411 0.8611 0.98498 0.0
C4 C 0.29517 0.92571 0.06795 0.0
C5 C 0.30264 0.8972 0.99549 0.0
C6 C 0.2575 0.85614 1.01627 0.0
C7 C 0.357 0.93218 0.97905 0.0
N8 N 0.33954 0.96564 0.04848 0.0
C9 C 0.36455 0.96472 1.02059 0.0
C10 C 0.32477 0.89926 0.9661 0.0
Eu11 Eu 0.34436 0.02363 0.11867 0.0
N12 N 0.30766 0.9561 0.1081 0.0
C13 C 0.29905 0.94729 0.14032 0.0
C14 C 0.25768 0.88033 0.09076 0.0
C15 C 0.27338 0.90991 0.1321 0.0
H16 H 0.39024 0.98896 1.02936 0.0
H17 H 0.26548 0.90416 0.15769 0.0
H18 H 0.23707 0.82695 1.00804 0.0
H19 H 0.37592 0.93275 0.95698 0.0
H20 H 0.30984 0.97042 0.17242 0.0
H21 H 0.43299 0.20093 0.26319 0.0
H22 H 0.23789 0.85129 0.08447 0.0
H23 H 0.16706 0.18719 0.11983 0.0
H24 H 0.39592 0.15032 0.19318 0.0
H25 H 0.11126 0.25448 0.16022 0.0
H26 H 0.26638 0.83556 0.95307 0.0
H27 H 0.3833 0.27138 0.30723 0.0
H28 H 0.30174 0.32159 0.31635 0.0
H29 H 0.31896 0.87416 0.93387 0.0
H30 H 0.21428 0.33587 0.28861 0.0
N31 N 0.32526 0.19278 0.19534 0.0
C32 C 0.37353 0.18181 0.21093 0.0
C33 C 0.36672 0.24977 0.27592 0.0
C34 C 0.31727 0.26034 0.2604 0.0
C35 C 0.39486 0.2101 0.25116 0.0
C36 C 0.29738 0.2309 0.21947 0.0
H37 H 0.14302 0.31101 0.23057 0.0
N38 N 0.23007 0.20743 0.16596 0.0
C39 C 0.14965 0.25009 0.17314 0.0
C40 C 0.24825 0.23867 0.20414 0.0
C41 C 0.18133 0.21215 0.15041 0.0
C42 C 0.16776 0.28219 0.2127 0.0
C43 C 0.21753 0.27643 0.2289 0.0
O44 O 0.24046 0.1995 0.09707 0.0
O45 O 0.30616 0.0713 0.08093 0.0
O46 O 0.38145 0.05553 0.089 0.0
O47 O 0.36514 0.13933 0.12191 0.0
O48 O 0.23485 0.10514 0.07009 0.0
O49 O 0.31636 0.1809 0.09569 0.0
O50 O 0.41669 0.03867 0.1537 0.0
O51 O 0.32163 0.09929 0.16169 0.0
O52 O 0.2303 0.11115 0.1334 0.0
O53 O 0.26642 0.02891 0.12211 0.0
O54 O 0.33619 0.04637 0.18672 0.0
O55 O 0.40222 0.96473 0.12832 0.0
C56 C 0.26546 0.06658 0.05593 0.0
C57 C 0.26359 0.19337 1.03623 0.0
C58 C 0.28113 0.2036 0.97721 0.0
C59 C 0.28979 0.2128 1.02041 0.0
C60 C 0.2462 0.17412 0.94992 0.0
C61 C 0.22828 0.16468 1.0085 0.0
C62 C 0.22002 0.15484 0.96558 0.0
C63 C 0.39324 0.09957 0.10211 0.0
C64 C 0.27456 0.20227 0.08143 0.0
C65 C 0.23729 0.30666 0.26917 0.0
C66 C 0.28706 0.29856 0.28493 0.0
C67 C 0.32125 0.0924 0.19477 0.0
C68 C 0.45482 0.99075 0.19436 0.0
C69 C 0.42733 0.98157 0.21644 0.0
C70 C 0.44459 0.98664 0.25865 0.0
C71 C 0.49101 0.99904 0.27828 0.0
C72 C 0.50117 1.00283 0.21421 0.0
C73 C 0.51933 1.00647 0.25592 0.0
C74 C 0.2302 0.06557 0.13008 0.0
C75 C 0.4328 0.99433 0.15298 0.0
H76 H 0.31721 0.23471 0.04174 0.0
H77 H 0.23834 0.16684 0.91656 0.0
H78 H 0.20691 0.14986 1.01977 0.0
H79 H 0.19294 0.13251 0.9444 0.0
H80 H 0.39152 0.97254 0.20129 0.0
H81 H 0.5054 1.00277 0.31075 0.0
H82 H 0.52274 1.01062 0.19781 0.0
H83 H 0.55503 0.01607 0.27121 0.0
Eu84 Eu 0.06506 0.34089 0.57088 0.0
C85 C 0.24423 0.19204 0.51836 0.0
C86 C 0.24596 0.11149 0.51823 0.0
C87 C 0.28273 0.11989 0.4683 0.0
C88 C 0.23226 0.16282 0.53449 0.0
C89 C 0.27099 0.17101 0.48593 0.0
C90 C 0.27007 0.09017 0.48436 0.0
C91 C 0.27554 0.2526 0.49272 0.0
N92 N 0.23204 0.24123 0.53589 0.0
C93 C 0.24851 0.27165 0.52439 0.0
C94 C 0.28626 0.20204 0.47296 0.0
Eu95 Eu 0.18705 0.27193 0.59033 0.0
N96 N 0.20976 0.18479 0.56772 0.0
C97 C 0.20371 0.15739 0.5883 0.0
C98 C 0.23652 0.08323 0.53738 0.0
C99 C 0.21594 0.10639 0.57296 0.0
H100 H 0.2406 0.31081 0.5393 0.0
H101 H 0.20976 0.08501 0.5888 0.0
H102 H 0.28035 0.05087 0.47123 0.0
H103 H 0.28774 0.27699 0.48337 0.0
H104 H 0.18847 0.17433 0.61614 0.0
H105 H 0.02574 0.44029 0.72783 0.0
H106 H 0.24639 0.04373 0.52578 0.0
H107 H 0.99174 0.27915 0.4825 0.0
H108 H 0.07099 0.41533 0.67128 0.0
H109 H 0.91575 0.24618 0.46229 0.0
H110 H 0.3026 0.10305 0.44297 0.0
H111 H 0.95145 0.4061 0.71453 0.0
H112 H 0.89065 0.35276 0.66363 0.0
H113 H 0.30694 0.18736 0.44826 0.0
H114 H 0.86117 0.29936 0.59155 0.0
N115 N 0.02315 0.36706 0.62643 0.0
C116 C 0.03846 0.40039 0.66495 0.0
C117 C 0.97103 0.39522 0.6895 0.0
C118 C 0.9544 0.36272 0.64945 0.0
C119 C 0.0129 0.41464 0.69712 0.0
C120 C 0.98134 0.34961 0.61801 0.0
H121 H 0.87009 0.2597 0.51628 0.0
N122 N 0.99077 0.30953 0.54786 0.0
C123 C 0.92928 0.26652 0.49488 0.0
C124 C 0.96473 0.31974 0.57753 0.0
C125 C 0.97255 0.28524 0.50656 0.0
C126 C 0.90364 0.27419 0.52544 0.0
C127 C 0.92077 0.30187 0.56725 0.0
O128 O 0.04584 0.37791 0.52568 0.0
O129 O 0.13493 0.30623 0.54728 0.0
O130 O 0.18501 0.34679 0.58711 0.0
O131 O 0.11963 0.38903 0.61694 0.0
O132 O 0.07226 0.29819 0.50245 0.0
O133 O 0.02898 0.417 0.58692 0.0
O134 O 0.26144 0.2874 0.61167 0.0
O135 O 0.12221 0.31808 0.61927 0.0
O136 O 0.05745 0.26426 0.55892 0.0
O137 O 0.13469 0.21659 0.5529 0.0
O138 O 0.15696 0.25844 0.6366 0.0
O139 O 0.22515 0.28439 0.65531 0.0
C140 C 0.11864 0.28621 0.50832 0.0
C141 C 0.97068 0.43027 0.52945 0.0
C142 C 0.91084 0.42827 0.46531 0.0
C143 C 0.95928 0.42291 0.48659 0.0
C144 C 0.87377 0.44484 0.48843 0.0
C145 C 0.93303 0.44676 0.55196 0.0
C146 C 0.88497 0.45452 0.53156 0.0
C147 C 0.16023 0.38879 0.60745 0.0
C148 C 0.02131 0.41648 0.549 0.0
C149 C 0.89478 0.31313 0.59877 0.0
C150 C 0.91154 0.34356 0.63979 0.0
C151 C 0.12045 0.29305 0.64057 0.0
C152 C 0.28134 0.33909 0.68266 0.0
C153 C 0.30046 0.33938 0.72339 0.0
C154 C 0.31521 0.38173 0.75585 0.0
C155 C 0.31073 0.42428 0.74737 0.0
C156 C 0.27835 0.38139 0.67411 0.0
C157 C 0.29283 0.42382 0.70644 0.0
C158 C 0.08698 0.22205 0.54909 0.0
C159 C 0.2633 0.29472 0.65052 0.0
H160 H 0.98843 0.41134 0.46952 0.0
H161 H 0.83609 0.44885 0.47311 0.0
H162 H 0.94049 0.45275 0.58508 0.0
H163 H 0.85617 0.46672 0.54902 0.0
H164 H 0.30263 0.30684 0.73014 0.0
H165 H 0.3213 0.45749 0.77224 0.0
H166 H 0.26464 0.3818 0.64272 0.0
H167 H 0.28984 0.4565 0.69979 0.0
Eu168 Eu 0.86417 0.19151 1.02946 0.0
C169 C 0.91001 0.98354 1.02391 0.0
C170 C 0.84243 0.9487 1.02155 0.0
C171 C 0.90492 0.8977 0.98226 0.0
C172 C 0.86667 0.98915 1.03514 0.0
C173 C 0.93041 0.93737 0.99826 0.0
C174 C 0.86096 0.90335 0.99393 0.0
C175 C 1.00175 0.97173 1.00971 0.0
N176 N 0.93378 0.02252 1.04031 0.0
C177 C 0.9799 0.0168 1.03479 0.0
C178 C 0.97653 0.93205 0.99068 0.0
Eu179 Eu 0.895 0.09802 0.08294 0.0
N180 N 0.85038 0.03317 0.06236 0.0
C181 C 0.81342 0.03766 0.0812 0.0
C182 C 0.80173 0.95446 1.0378 0.0
C183 C 0.7878 0.99888 0.06848 0.0
H184 H 1.00032 0.04671 0.04957 0.0
H185 H 0.75743 1.00327 0.08237 0.0
H186 H 0.84254 0.87201 0.98268 0.0
H187 H 0.03798 0.96772 1.00499 0.0
H188 H 0.80269 0.07203 0.10507 0.0
H189 H 0.89965 0.37687 0.13072 0.0
H190 H 0.78212 0.92429 1.0282 0.0
H191 H 0.76784 0.16433 0.95014 0.0
H192 H 0.92063 0.28937 0.09062 0.0
H193 H 0.68298 0.20012 0.93089 0.0
H194 H 0.91968 0.86213 0.96205 0.0
H195 H 0.81391 0.41619 0.12602 0.0
H196 H 0.72681 0.40977 0.09093 0.0
H197 H 0.99349 0.89721 0.97121 0.0
H198 H 0.6674 0.3614 1.03565 0.0
N199 N 0.8473 0.27769 0.06527 0.0
C200 C 0.88295 0.30552 0.08855 0.0
C201 C 0.82287 0.37746 0.10864 0.0
C202 C 0.78686 0.34983 0.08158 0.0
C203 C 0.87128 0.35544 0.11125 0.0
C204 C 0.80058 0.29956 0.05966 0.0
H205 H 0.651 0.28345 0.97496 0.0
N206 N 0.78367 0.22604 1.00557 0.0
C207 C 0.70627 0.22089 0.95862 0.0
C208 C 0.76751 0.27276 1.02852 0.0
C209 C 0.75453 0.20083 0.96955 0.0
C210 C 0.68829 0.26783 0.98367 0.0
C211 C 0.71934 0.2949 1.01852 0.0
O212 O 0.87214 0.18075 0.96617 0.0
O213 O 0.89669 0.11396 1.0269 0.0
O214 O 0.95791 0.12646 0.07784 0.0
O215 O 0.92817 0.20581 0.085 0.0
O216 O 0.84756 0.12294 0.97467 0.0
O217 O 0.92326 0.21624 1.01866 0.0
O218 O 0.96358 0.08785 0.1262 0.0
O219 O 0.87354 0.17648 0.08834 0.0
O220 O 0.79415 0.1769 1.03762 0.0
O221 O 0.81561 0.10117 0.04764 0.0
O222 O 0.8493 0.15712 0.12805 0.0
O223 O 0.89803 0.09034 0.14309 0.0
C224 C 0.87504 0.09165 0.99035 0.0
C225 C 0.9062 0.24061 0.95908 0.0
C226 C 0.9299 0.27021 0.91183 0.0
C227 C 0.93363 0.23299 0.92839 0.0
C228 C 0.89765 0.31384 0.92612 0.0
C229 C 0.87469 0.28484 0.97174 0.0
C230 C 0.87052 0.32089 0.95545 0.0
C231 C 0.96356 0.17285 0.0948 0.0
C232 C 0.9091 0.2034 0.9782 0.0
C233 C 0.70442 0.34389 0.04244 0.0
C234 C 0.73821 0.37139 0.07395 0.0
C235 C 0.84892 0.1927 0.11666 0.0
C236 C 0.96769 0.03776 0.16514 0.0
C237 C 0.97237 0.03773 0.20633 0.0
C238 C 0.99548 0.99505 0.2165 0.0
C239 C 0.01465 0.95394 0.18504 0.0
C240 C 0.98662 0.99507 0.1351 0.0
C241 C 1.01001 0.95396 0.14503 0.0
C242 C 0.78299 0.13796 1.04009 0.0
C243 C 0.94491 0.08171 0.15277 0.0
H244 H 0.95798 0.19891 0.91804 0.0
H245 H 0.89268 0.34273 0.914 0.0
H246 H 0.85293 0.29153 0.99432 0.0
H247 H 0.84583 0.35474 0.96561 0.0
H248 H 0.95787 0.07027 0.22992 0.0
H249 H 0.03405 0.92132 0.19138 0.0
H250 H 0.98407 0.99349 0.10376 0.0
H251 H 0.02497 0.92174 0.12146 0.0
Eu252 Eu 0.08614 0.8452 0.58498 0.0
C253 C 0.2645 0.92902 0.70833 0.0
C254 C 0.25521 0.01705 0.73073 0.0
C255 C 0.30149 0.97636 0.77919 0.0
C256 C 0.24534 0.9713 0.70015 0.0
C257 C 0.29485 0.9308 0.74731 0.0
C258 C 0.28156 0.01955 0.77092 0.0
C259 C 0.31503 0.84291 0.71836 0.0
N260 N 0.25769 0.88587 0.67654 0.0
C261 C 0.28456 0.84319 0.68034 0.0
C262 C 0.31945 0.88685 0.75232 0.0
Eu263 Eu 0.20246 0.88836 0.61351 0.0
N264 N 0.22165 0.96706 0.66066 0.0
C265 C 0.21177 1.00656 0.64832 0.0
C266 C 0.24079 0.05839 0.71925 0.0
C267 C 0.21996 0.0529 0.67756 0.0
H268 H 0.28322 0.80898 0.65417 0.0
H269 H 0.21036 0.08426 0.66788 0.0
H270 H 0.28878 0.0544 0.7951 0.0
H271 H 0.33533 0.80882 0.72133 0.0
H272 H 0.19565 1.00265 0.61613 0.0
H273 H 0.06021 0.771 0.41395 0.0
H274 H 0.24767 0.09419 0.74178 0.0
H275 H 1.00109 0.91028 0.64423 0.0
H276 H 0.10073 0.77609 0.48578 0.0
H277 H 0.92151 0.96199 0.63721 0.0
H278 H 0.32372 0.9785 0.80965 0.0
H279 H 0.98425 0.82675 0.40183 0.0
H280 H 0.91799 0.89254 0.43146 0.0
H281 H 0.3432 0.8866 0.78168 0.0
H282 H 0.88054 0.94498 0.49229 0.0
N283 N 0.04866 0.83476 0.51454 0.0
C284 C 0.06749 0.8005 0.48117 0.0
C285 C 1.00172 0.829 0.43354 0.0
C286 C 0.98118 0.86209 0.46773 0.0
C287 C 0.04455 0.79741 0.44025 0.0
C288 C 1.00546 0.86363 0.5084 0.0
H289 H 0.88124 0.97062 0.56896 0.0
N290 N 1.00714 0.89134 0.581 0.0
C291 C 0.9389 0.9431 0.61043 0.0
C292 C 0.98418 0.89295 0.54262 0.0
C293 C 0.98412 0.91374 0.6143 0.0
C294 C 0.91633 0.94792 0.57188 0.0
C295 C 0.93838 0.92182 0.53713 0.0
O296 O 0.09438 0.79097 0.6135 0.0
O297 O 0.15202 0.86411 0.63506 0.0
O298 O 0.20471 0.81176 0.61343 0.0
O299 O 0.14629 0.7901 0.55569 0.0
O300 O 0.08744 0.88392 0.65566 0.0
O301 O 0.03967 0.78842 0.55842 0.0
O302 O 0.25219 0.82875 0.57856 0.0
O303 O 0.1398 0.86235 0.55954 0.0
O304 O 0.06888 0.92663 0.60428 0.0
O305 O 0.14385 0.95474 0.63435 0.0
O306 O 0.16539 0.9233 0.56502 0.0
O307 O 0.25626 0.90254 0.58874 0.0
C308 C 0.13344 0.88491 0.66741 0.0
C309 C 0.02281 0.76328 0.60723 0.0
C310 C 0.98094 0.78861 0.66521 0.0
C311 C 0.0141 0.79591 0.64678 0.0
C312 C 0.95647 0.74803 0.64336 0.0
C313 C 0.99806 0.72309 0.58587 0.0
C314 C 0.96502 0.71556 0.60391 0.0
C315 C 0.18416 0.77689 0.58117 0.0
C316 C 0.05769 0.77071 0.58807 0.0
C317 C 0.91544 0.92254 0.49703 0.0
C318 C 0.93675 0.89266 0.46239 0.0
C319 C 0.1334 0.89519 0.54368 0.0
C320 C 0.26735 0.84262 0.52257 0.0
C321 C 0.27465 0.87612 0.50732 0.0
C322 C 0.27081 0.86399 0.46415 0.0
C323 C 0.25952 0.81779 0.4362 0.0
C324 C 0.25703 0.79621 0.49409 0.0
C325 C 0.25298 0.78409 0.45119 0.0
C326 C 0.09577 0.9616 0.62487 0.0
C327 C 0.26934 0.85663 0.56785 0.0
H328 H 0.03375 0.82659 0.66349 0.0
H329 H 0.9303 0.7417 0.65648 0.0
H330 H 1.00433 0.69756 0.55529 0.0
H331 H 0.94591 0.68451 0.58723 0.0
H332 H 0.28288 0.91187 0.52901 0.0
H333 H 0.25697 0.80722 0.40283 0.0
H334 H 0.25145 0.76943 0.5048 0.0
H335 H 0.24472 0.74844 0.42949 0.0
C336 C 0.04348 0.18615 0.14214 0.0
C337 C 0.99376 0.18794 0.137 0.0
C338 C 0.07437 0.18299 0.17915 0.0
C339 C 0.05585 0.17859 0.20991 0.0
C340 C 1.0058 0.18685 0.20705 0.0
C341 C 0.97489 0.19225 0.17096 0.0
C342 C 0.08755 0.14967 0.23489 0.0
C343 C 0.08592 0.10121 0.21756 0.0
C344 C 0.1211 0.07225 0.19025 0.0
C345 C 0.10818 0.06869 0.14803 0.0
C346 C 0.14392 0.06373 0.12657 0.0
C347 C 0.19263 0.05806 0.14606 0.0
H348 H 0.18041 0.06392 0.24037 0.0
C349 C 0.20537 0.05272 0.18529 0.0
C350 C 0.16978 0.06138 0.20795 0.0
H351 H 0.24298 0.04719 0.20039 0.0
H352 H 0.05882 0.18242 0.11628 0.0
H353 H 0.11309 0.17609 0.18076 0.0
H354 H 0.99083 0.18326 0.23025 0.0
H355 H 0.93676 0.19316 0.16771 0.0
H356 H 0.12315 0.16056 0.24879 0.0
H357 H 0.05023 0.09042 0.20491 0.0
H358 H 0.07055 0.07662 0.13378 0.0
H359 H 0.13354 0.06734 0.09612 0.0
C360 C 0.07401 0.02599 0.59623 0.0
C361 C 0.06979 1.01009 0.62682 0.0
C362 C 0.03477 0.05424 0.57959 0.0
C363 C 0.99322 0.07334 0.59748 0.0
C364 C 0.99122 0.0613 0.63124 0.0
C365 C 0.02878 0.02897 0.64519 0.0
C366 C 0.94942 0.10121 0.57903 0.0
C367 C 0.94813 0.12915 0.55706 0.0
C368 C 0.99042 0.14362 0.55178 0.0
C369 C 0.9889 0.14907 0.51404 0.0
C370 C 0.02564 0.16816 0.51003 0.0
C371 C 0.06493 0.18091 0.54336 0.0
H372 H 0.03156 0.15463 0.61507 0.0
C373 C 0.06866 0.17124 0.57952 0.0
C374 C 0.03045 0.15559 0.58471 0.0
H375 H 0.0977 0.18259 0.60622 0.0
H376 H 0.10453 1.01043 0.58055 0.0
H377 H 0.0364 0.05834 0.55118 0.0
H378 H 0.95918 0.07431 0.64495 0.0
H379 H 0.02416 0.01572 0.66788 0.0
H380 H 0.91475 0.09754 0.58255 0.0
H381 H 0.91265 0.14319 0.54239 0.0
H382 H 0.95798 0.14109 0.48851 0.0
H383 H 0.02128 0.17697 0.48242 0.0
C384 C 0.71434 0.09466 1.03016 0.0
C385 C 0.7315 0.13839 1.04003 0.0
C386 C 0.66816 0.09535 1.03574 0.0
C387 C 0.63763 0.14005 0.05152 0.0
C388 C 0.65394 0.18364 0.0592 0.0
C389 C 0.70016 0.18289 0.05362 0.0
C390 C 0.58876 0.14289 0.06003 0.0
C391 C 0.57506 0.1062 0.06505 0.0
C392 C 0.52701 0.10723 0.07393 0.0
C393 C 0.49362 0.15026 0.08797 0.0
C394 C 0.45008 0.14826 0.09715 0.0
C395 C 0.43873 0.1033 0.09228 0.0
H396 H 0.54011 0.02884 0.05896 0.0
C397 C 0.47214 0.06065 0.07821 0.0
C398 C 0.51539 0.06266 0.06938 0.0
H399 H 0.46537 0.02532 0.0745 0.0
H400 H 0.7368 0.05968 1.01828 0.0
H401 H 0.65681 0.06061 1.02744 0.0
H402 H 0.63133 0.21867 0.07072 0.0
H403 H 0.71201 0.21739 0.06154 0.0
H404 H 0.56395 0.17699 0.0632 0.0
H405 H 0.6005 0.07261 0.06258 0.0
H406 H 0.50115 0.1856 0.09266 0.0
H407 H 0.4254 0.18192 0.10809 0.0
C408 C 0.15151 0.48039 0.6393 0.0
C409 C 0.17209 0.43596 0.61194 0.0
C410 C 0.15939 0.52519 0.64121 0.0
C411 C 0.18713 0.52677 0.61519 0.0
C412 C 0.20884 0.48228 0.58857 0.0
C413 C 0.20155 0.43739 0.58712 0.0
C414 C 0.19251 0.57534 0.61666 0.0
C415 C 0.19708 0.58296 0.58302 0.0
C416 C 0.19705 0.6324 0.58309 0.0
C417 C 0.17759 0.64196 0.54581 0.0
C418 C 0.17474 0.68849 0.54496 0.0
C419 C 0.19232 0.7264 0.5812 0.0
H420 H 0.23224 0.66361 0.64819 0.0
C421 C 0.21375 0.71639 0.61814 0.0
C422 C 0.21588 0.66996 0.61916 0.0
H423 H 0.22748 0.74483 0.64666 0.0
H424 H 0.12883 0.48059 0.65899 0.0
H425 H 0.14261 0.5588 0.6623 0.0
H426 H 0.23151 0.48199 0.56887 0.0
H427 H 0.21798 0.40386 0.56573 0.0
H428 H 0.18822 0.60653 0.64532 0.0
H429 H 0.19646 0.55262 0.5532 0.0
H430 H 0.16321 0.61368 0.51746 0.0
H431 H 0.15805 0.69502 0.51602 0.0
C432 C 0.15406 0.21828 0.44838 0.0
C433 C 0.14523 0.26841 0.47294 0.0
C434 C 0.17561 0.20219 0.41296 0.0
C435 C 0.18732 0.23599 0.40021 0.0
C436 C 0.17667 0.28617 0.424 0.0
C437 C 0.1563 0.3021 0.45989 0.0
C438 C 0.20769 0.22061 0.36109 0.0
C439 C 0.24073 0.17995 0.34801 0.0
C440 C 0.26235 0.16457 0.30951 0.0
C441 C 0.30899 0.1368 0.30865 0.0
C442 C 0.32871 0.11747 0.27216 0.0
C443 C 0.30247 0.12428 0.23461 0.0
H444 H 0.19982 0.19273 0.27116 0.0
C445 C 0.25561 0.15191 0.23548 0.0
C446 C 0.23632 0.17276 0.27246 0.0
H447 H 0.23212 0.15497 0.20727 0.0
H448 H 0.14444 0.19146 0.45669 0.0
H449 H 0.18202 0.16336 0.39504 0.0
H450 H 0.18433 0.31333 0.41487 0.0
H451 H 0.14853 0.341 0.47722 0.0
H452 H 0.19712 0.24544 0.34391 0.0
H453 H 0.25448 0.15767 0.36749 0.0
H454 H 0.33007 0.12899 0.3362 0.0
H455 H 0.36414 0.09503 0.27284 0.0
C456 C 0.05309 0.27825 0.6649 0.0
C457 C 0.0915 0.30382 0.6734 0.0
C458 C 0.03473 0.27711 0.69749 0.0
C459 C 0.05439 0.30157 0.74003 0.0
C460 C 0.09163 0.32856 0.74832 0.0
C461 C 0.11035 0.32897 0.71577 0.0
C462 C 0.03706 0.30126 0.77671 0.0
C463 C 0.0128 0.26728 0.77578 0.0
C464 C 0.99624 0.26701 0.81299 0.0
C465 C 0.97796 0.22585 0.80935 0.0
C466 C 0.95929 0.22518 0.842 0.0
C467 C 0.95773 0.26594 0.87958 0.0
H468 H 1.00942 0.33979 0.85634 0.0
C469 C 0.97758 0.30636 0.88378 0.0
C470 C 0.99633 0.307 0.85134 0.0
H471 H 0.97746 0.33857 0.91212 0.0
H472 H 0.03736 0.25864 0.63286 0.0
H473 H 1.00522 0.25696 0.68911 0.0
H474 H 0.10769 0.34825 0.78042 0.0
H475 H 0.14095 0.34768 0.72388 0.0
H476 H 0.04715 0.32983 0.80653 0.0
H477 H 1.00526 0.23715 0.74635 0.0
H478 H 0.97712 0.19416 0.78057 0.0
H479 H 0.94403 0.19355 0.837 0.0
C480 C 0.0686 0.93302 0.49674 0.0
C481 C 0.10741 0.89557 0.50101 0.0
C482 C 0.05248 0.94271 0.45912 0.0
C483 C 0.07469 0.91488 0.42432 0.0
C484 C 0.11222 0.87609 0.4281 0.0
C485 C 0.1288 0.86716 0.46598 0.0
C486 C 0.05882 0.92361 0.38324 0.0
C487 C 0.03963 0.96775 0.37894 0.0
C488 C 0.02554 0.97552 0.33738 0.0
C489 C 0.02604 0.02139 0.33571 0.0
C490 C 0.01438 0.02898 0.2971 0.0
C491 C 1.00118 0.99102 0.25889 0.0
H492 H 1.00735 0.90321 0.299 0.0
C493 C 0.99803 0.94614 0.26111 0.0
C494 C 1.01027 0.93841 0.29938 0.0
H495 H 0.98662 0.91621 0.23284 0.0
H496 H 0.05075 0.95514 0.5227 0.0
H497 H 0.02254 0.97188 0.45738 0.0
H498 H 0.13 0.85348 0.40199 0.0
H499 H 0.15937 0.83884 0.46829 0.0
H500 H 0.06615 0.89231 0.35546 0.0
H501 H 0.03635 0.99999 0.40706 0.0
H502 H 0.03683 0.05121 0.36434 0.0
H503 H 0.01743 0.06398 0.29712 0.0
C504 C 0.14233 0.95028 0.73936 0.0
C505 C 0.15858 0.90344 0.71212 0.0
C506 C 0.16301 0.96634 0.78248 0.0
C507 C 0.2002 0.93567 0.79949 0.0
C508 C 0.21568 0.88853 0.77225 0.0
C509 C 0.1947 0.8724 0.72926 0.0
C510 C 0.2243 0.95243 0.84505 0.0
C511 C 0.19945 0.97784 0.8764 0.0
C512 C 0.22185 0.99385 0.92235 0.0
C513 C 0.19545 0.99546 0.95073 0.0
C514 C 0.21213 0.01545 0.9942 0.0
C515 C 0.25563 0.03482 1.01079 0.0
H516 H 0.28696 0.01262 0.91802 0.0
C517 C 0.28245 0.03309 0.98257 0.0
C518 C 0.2662 1.01207 0.93882 0.0
H519 H 0.31487 0.0499 0.99431 0.0
H520 H 0.11355 0.97454 0.72725 0.0
H521 H 0.15028 1.00295 0.80239 0.0
H522 H 0.24384 0.86383 0.78436 0.0
H523 H 0.20626 0.83529 0.70946 0.0
H524 H 0.26302 0.94072 0.85295 0.0
H525 H 0.16019 0.98512 0.86816 0.0
H526 H 0.16095 0.98235 0.93921 0.0
H527 H 0.1898 0.01775 1.01501 0.0
C528 C 0.93816 0.03635 0.9515 0.0
C529 C 0.8932 0.04361 0.96205 0.0
C530 C 0.95191 0.99485 0.9183 0.0
C531 C 0.92026 0.96054 0.89445 0.0
C532 C 0.87612 0.96689 0.90626 0.0
C533 C 0.86223 1.0087 0.93936 0.0
C534 C 0.93086 0.92008 0.85542 0.0
C535 C 0.9532 0.92628 0.82975 0.0
C536 C 0.95918 0.88983 0.78774 0.0
C537 C 0.96408 0.90658 0.75774 0.0
C538 C 0.97017 0.87388 0.71785 0.0
C539 C 0.97231 0.82339 0.70717 0.0
H540 H 0.9586 0.82497 0.79985 0.0
C541 C 0.9675 0.80647 0.73723 0.0
C542 C 0.96102 0.83935 0.77718 0.0
H543 H 0.96986 0.76771 0.73023 0.0
H544 H 0.96195 0.06364 0.96807 0.0
H545 H 0.98675 0.99038 0.91069 0.0
H546 H 0.85124 0.94088 0.88844 0.0
H547 H 0.82686 0.01449 0.94654 0.0
H548 H 0.91523 0.8871 0.84553 0.0
H549 H 0.96418 0.96148 0.83828 0.0
H550 H 0.96278 0.94528 0.76505 0.0
H551 H 0.97296 0.88827 0.69529 0.0
C552 C 0.38656 0.94139 0.26353 0.0
C553 C 0.41316 0.98039 0.28206 0.0
C554 C 0.35635 0.93564 0.28508 0.0
C555 C 0.3522 0.9685 0.32573 0.0
C556 C 0.37761 1.00858 0.34384 0.0
C557 C 0.40801 0.01426 0.32223 0.0
C558 C 0.32266 0.95801 0.34834 0.0
C559 C 0.32942 0.97391 0.39044 0.0
C560 C 0.309 0.95238 0.41196 0.0
C561 C 0.33569 0.9487 0.45029 0.0
C562 C 0.32202 0.92178 0.46827 0.0
C563 C 0.28116 0.89824 0.44834 0.0
H564 H 0.24323 0.93611 0.36518 0.0
C565 C 0.2523 0.90508 0.41169 0.0
C566 C 0.2659 0.93216 0.39376 0.0
H567 H 0.21979 0.88853 0.39637 0.0
H568 H 0.38967 0.91477 0.23254 0.0
H569 H 0.33705 0.9046 0.27024 0.0
H570 H 0.37411 0.03573 0.37447 0.0
H571 H 0.42698 0.04552 0.3367 0.0
H572 H 0.29889 0.93101 0.32949 0.0
H573 H 0.35609 0.99772 0.40967 0.0
H574 H 0.36867 0.96448 0.46525 0.0
H575 H 0.34493 0.91726 0.4966 0.0
C576 C 0.37161 0.34614 0.80669 0.0
C577 C 0.33223 0.38101 0.79865 0.0
C578 C 0.38032 0.33607 0.84327 0.0
C579 C 0.3488 0.35985 0.8718 0.0
C580 C 0.31257 0.39831 0.86569 0.0
C581 C 0.30427 0.40882 0.82928 0.0
C582 C 0.34832 0.34149 0.90469 0.0
C583 C 0.36189 0.29375 0.8999 0.0
C584 C 0.34719 0.27071 0.92372 0.0
C585 C 0.34373 0.22062 0.90485 0.0
C586 C 0.3238 0.19842 0.92293 0.0
C587 C 0.30722 0.22579 0.96054 0.0
H588 H 0.33692 0.33572 0.979 0.0
C589 C 0.31346 0.27518 0.98089 0.0
C590 C 0.33339 0.29746 0.96274 0.0
H591 H 0.30119 0.29717 1.01003 0.0
H592 H 0.39393 0.32474 0.78352 0.0
H593 H 0.41011 0.30787 0.84786 0.0
H594 H 0.2882 0.4177 0.88745 0.0
H595 H 0.27364 0.43584 0.82354 0.0
H596 H 0.32874 0.36595 0.92925 0.0
H597 H 0.37796 0.26877 0.87326 0.0
H598 H 0.3546 0.19892 0.87504 0.0
H599 H 0.32045 0.16002 0.907 0.0
C600 C 0.8674 0.2768 0.15796 0.0
C601 C 0.83419 0.24408 0.14212 0.0
C602 C 0.86153 0.31967 0.19238 0.0
C603 C 0.82425 0.32874 0.21385 0.0
C604 C 0.78813 0.29878 0.1957 0.0
C605 C 0.79314 0.25658 0.16002 0.0
C606 C 0.82835 0.36173 0.2585 0.0
C607 C 0.87213 0.36341 0.28428 0.0
C608 C 0.8798 0.38168 0.33049 0.0
C609 C 0.91931 0.35757 0.35154 0.0
C610 C 0.92864 0.37239 0.39494 0.0
C611 C 0.89955 0.41289 0.41879 0.0
H612 H 0.81938 0.44127 0.33826 0.0
C613 C 0.85982 0.43735 0.39769 0.0
C614 C 0.84981 0.42166 0.35378 0.0
H615 H 0.83686 0.4689 0.41503 0.0
H616 H 0.9008 0.26726 0.14702 0.0
H617 H 0.8892 0.34291 0.20474 0.0
H618 H 0.75873 0.30516 0.21141 0.0
H619 H 0.76734 0.23145 0.14881 0.0
H620 H 0.79573 0.37685 0.27156 0.0
H621 H 0.90423 0.34369 0.27125 0.0
H622 H 0.94269 0.32633 0.33422 0.0
H623 H 0.9585 0.35142 0.40966 0.0
loop_
_geom_bond_atom_site_label_1
_geom_bond_atom_site_label_2
_geom_bond_distance
_geom_bond_site_symmetry_2
_ccdc_geom_bond_type
Eu0 N31 2.657 . S
Eu0 N38 2.609 . S
Eu0 O44 2.558 . S
Eu0 O45 2.612 1_545 S
Eu0 O47 2.339 . S
Eu0 O48 2.563 1_554 S
Eu0 O49 2.419 . S
Eu0 O51 2.380 . S
Eu0 O52 2.432 . S
Eu0 C64 2.848 . S
C1 C4 1.425 1_554 S
C1 C5 1.411 . S
C1 N8 1.377 . S
C2 C4 1.429 . S
C2 C6 1.423 . S
C2 C14 1.392 . S
C3 C5 1.420 1_556 S
C3 C6 1.351 . S
C3 H26 0.931 . S
C4 C1 1.425 1_556 S
C4 C2 1.429 . S
C4 N12 1.357 1_556 S
C5 C1 1.411 . S
C5 C3 1.420 1_554 S
C5 C10 1.395 . S
C6 C2 1.423 . S
C6 C3 1.351 . S
C6 H18 0.930 . S
C7 C9 1.400 . S
C7 C10 1.386 . S
C7 H19 0.930 . S
N8 C1 1.377 . S
N8 C9 1.321 . S
N8 Eu11 2.609 . S
C9 C7 1.400 . S
C9 N8 1.321 . S
C9 H16 0.930 . S
C10 C5 1.395 . S
C10 C7 1.386 . S
C10 H29 0.930 . S
Eu11 N8 2.609 . S
Eu11 N12 2.657 . S
Eu11 O45 2.380 . S
Eu11 O46 2.432 1_565 S
Eu11 O50 2.558 . S
Eu11 O51 2.612 1_565 S
Eu11 O53 2.339 . S
Eu11 O54 2.563 1_565 S
Eu11 O55 2.419 . S
Eu11 C75 2.848 . S
N12 C4 1.357 1_554 S
N12 Eu11 2.657 . S
N12 C13 1.334 1_554 S
C13 N12 1.334 1_556 S
C13 C15 1.413 . S
C13 H20 0.929 1_556 S
C14 C2 1.392 . S
C14 C15 1.367 . S
C14 H22 0.930 . S
C15 C13 1.413 . S
C15 C14 1.367 . S
C15 H17 0.930 . S
H16 C9 0.930 . S
H17 C15 0.930 . S
H18 C6 0.930 . S
H19 C7 0.930 . S
H20 C13 0.929 1_554 S
H21 C35 0.930 . S
H22 C14 0.930 . S
H23 C41 0.930 . S
H24 C32 0.929 . S
H25 C39 0.930 . S
H26 C3 0.931 . S
H27 C33 0.930 . S
H28 C66 0.930 . S
H29 C10 0.930 . S
H30 C65 0.931 . S
N31 Eu0 2.657 . S
N31 C32 1.334 . S
N31 C36 1.362 . S
C32 H24 0.929 . S
C32 N31 1.334 . S
C32 C35 1.413 . S
C33 H27 0.930 . S
C33 C34 1.392 . S
C33 C35 1.367 . S
C34 C33 1.392 . S
C34 C36 1.420 . S
C34 C66 1.423 . S
C35 H21 0.930 . S
C35 C32 1.413 . S
C35 C33 1.367 . S
C36 N31 1.362 . S
C36 C34 1.420 . S
C36 C40 1.429 . S
H37 C42 0.930 . S
N38 Eu0 2.609 . S
N38 C40 1.377 . S
N38 C41 1.321 . S
C39 H25 0.930 . S
C39 C41 1.400 . S
C39 C42 1.386 . S
C40 C36 1.429 . S
C40 N38 1.377 . S
C40 C43 1.411 . S
C41 H23 0.930 . S
C41 N38 1.321 . S
C41 C39 1.400 . S
C42 H37 0.930 . S
C42 C39 1.386 . S
C42 C43 1.395 . S
C43 C40 1.411 . S
C43 C42 1.395 . S
C43 C65 1.420 . S
O44 Eu0 2.558 . S
O44 C64 1.257 . S
O45 Eu0 2.612 1_565 S
O45 Eu11 2.380 . S
O45 C56 1.276 1_554 S
O46 Eu11 2.432 1_545 S
O46 C63 1.264 . S
O47 Eu0 2.339 . S
O47 C63 1.254 . S
O48 Eu0 2.563 1_556 S
O48 C56 1.235 1_545 S
O49 Eu0 2.419 . S
O49 C64 1.249 . S
O50 Eu11 2.558 . S
O50 C75 1.257 . S
O51 Eu0 2.380 . S
O51 Eu11 2.612 1_545 S
O51 C67 1.276 . S
O52 Eu0 2.432 . S
O52 C74 1.264 . S
O53 Eu11 2.339 . S
O53 C74 1.254 1_565 S
O54 Eu11 2.563 1_545 S
O54 C67 1.235 . S
O55 Eu11 2.419 . S
O55 C75 1.249 . S
C56 O45 1.276 1_556 S
C56 O48 1.235 1_565 S
C57 C59 1.393 . S
C57 C61 1.395 . S
C57 C64 1.492 1_556 S
C58 C59 1.392 . S
C58 C60 1.386 . S
C59 C57 1.393 . S
C59 C58 1.392 . S
C59 H76 0.930 . S
C60 C58 1.386 . S
C60 C62 1.395 . S
C60 H77 0.930 . S
C61 C57 1.395 . S
C61 C62 1.379 . S
C61 H78 0.930 . S
C62 C60 1.395 . S
C62 C61 1.379 . S
C62 H79 0.930 . S
C63 O46 1.264 . S
C63 O47 1.254 . S
C64 Eu0 2.848 . S
C64 O44 1.257 . S
C64 O49 1.249 . S
C64 C57 1.492 1_554 S
C65 H30 0.931 . S
C65 C43 1.420 . S
C65 C66 1.351 . S
C66 H28 0.930 . S
C66 C34 1.423 . S
C66 C65 1.351 . S
C67 O51 1.276 . S
C67 O54 1.235 . S
C68 C69 1.393 . S
C68 C72 1.395 . S
C68 C75 1.492 . S
C69 C68 1.393 . S
C69 C70 1.392 . S
C69 H80 0.930 . S
C70 C69 1.392 . S
C70 C71 1.386 . S
C71 C70 1.386 . S
C71 C73 1.395 . S
C71 H81 0.930 . S
C72 C68 1.395 . S
C72 C73 1.379 . S
C72 H82 0.930 . S
C73 C71 1.395 . S
C73 C72 1.379 . S
C73 H83 0.930 . S
C74 O52 1.264 . S
C74 O53 1.254 1_545 S
C75 Eu11 2.848 . S
C75 O50 1.257 . S
C75 O55 1.249 . S
C75 C68 1.492 . S
H76 C59 0.930 . S
H77 C60 0.930 . S
H78 C61 0.930 . S
H79 C62 0.930 . S
H80 C69 0.930 . S
H81 C71 0.930 . S
H82 C72 0.930 . S
H83 C73 0.930 . S
Eu84 N115 2.657 1_455 S
Eu84 N122 2.609 1_455 S
Eu84 O128 2.558 . S
Eu84 O129 2.612 . S
Eu84 O131 2.339 . S
Eu84 O132 2.563 . S
Eu84 O133 2.419 . S
Eu84 O135 2.380 . S
Eu84 O136 2.432 . S
Eu84 C148 2.848 1_455 S
C85 C88 1.429 . S
C85 C89 1.411 . S
C85 N92 1.377 . S
C86 C88 1.420 . S
C86 C90 1.423 . S
C86 C98 1.392 . S
C87 C89 1.420 . S
C87 C90 1.351 . S
C87 H110 0.931 . S
C88 C85 1.429 . S
C88 C86 1.420 . S
C88 N96 1.362 . S
C89 C85 1.411 . S
C89 C87 1.420 . S
C89 C94 1.395 . S
C90 C86 1.423 . S
C90 C87 1.351 . S
C90 H102 0.930 . S
C91 C93 1.400 . S
C91 C94 1.386 . S
C91 H103 0.930 . S
N92 C85 1.377 . S
N92 C93 1.321 . S
N92 Eu95 2.609 . S
C93 C91 1.400 . S
C93 N92 1.321 . S
C93 H100 0.930 . S
C94 C89 1.395 . S
C94 C91 1.386 . S
C94 H113 0.930 . S
Eu95 N92 2.609 . S
Eu95 N96 2.657 . S
Eu95 O129 2.380 . S
Eu95 O130 2.432 . S
Eu95 O134 2.558 . S
Eu95 O135 2.612 . S
Eu95 O137 2.339 . S
Eu95 O138 2.563 . S
Eu95 O139 2.419 . S
Eu95 C159 2.848 . S
N96 C88 1.362 . S
N96 Eu95 2.657 . S
N96 C97 1.334 . S
C97 N96 1.334 . S
C97 C99 1.413 . S
C97 H104 0.929 . S
C98 C86 1.392 . S
C98 C99 1.367 . S
C98 H106 0.930 . S
C99 C97 1.413 . S
C99 C98 1.367 . S
C99 H101 0.930 . S
H100 C93 0.930 . S
H101 C99 0.930 . S
H102 C90 0.930 . S
H103 C91 0.930 . S
H104 C97 0.929 . S
H105 C119 0.930 . S
H106 C98 0.930 . S
H107 C125 0.930 1_455 S
H108 C116 0.929 1_455 S
H109 C123 0.930 . S
H110 C87 0.931 . S
H111 C117 0.930 . S
H112 C150 0.930 . S
H113 C94 0.930 . S
H114 C149 0.931 . S
N115 Eu84 2.657 1_655 S
N115 C116 1.334 . S
N115 C120 1.362 . S
C116 H108 0.929 1_655 S
C116 N115 1.334 . S
C116 C119 1.413 . S
C117 H111 0.930 . S
C117 C118 1.392 . S
C117 C119 1.367 . S
C118 C117 1.392 . S
C118 C120 1.420 . S
C118 C150 1.423 . S
C119 H105 0.930 . S
C119 C116 1.413 . S
C119 C117 1.367 . S
C120 N115 1.362 . S
C120 C118 1.420 . S
C120 C124 1.429 . S
H121 C126 0.930 . S
N122 Eu84 2.609 1_655 S
N122 C124 1.377 . S
N122 C125 1.321 . S
C123 H109 0.930 . S
C123 C125 1.400 . S
C123 C126 1.386 . S
C124 C120 1.429 . S
C124 N122 1.377 . S
C124 C127 1.411 . S
C125 H107 0.930 1_655 S
C125 N122 1.321 . S
C125 C123 1.400 . S
C126 H121 0.930 . S
C126 C123 1.386 . S
C126 C127 1.395 . S
C127 C124 1.411 . S
C127 C126 1.395 . S
C127 C149 1.420 . S
O128 Eu84 2.558 . S
O128 C148 1.257 1_455 S
O129 Eu84 2.612 . S
O129 Eu95 2.380 . S
O129 C140 1.276 . S
O130 Eu95 2.432 . S
O130 C147 1.264 . S
O131 Eu84 2.339 . S
O131 C147 1.254 . S
O132 Eu84 2.563 . S
O132 C140 1.235 . S
O133 Eu84 2.419 . S
O133 C148 1.249 1_455 S
O134 Eu95 2.558 . S
O134 C159 1.257 . S
O135 Eu84 2.380 . S
O135 Eu95 2.612 . S
O135 C151 1.276 . S
O136 Eu84 2.432 . S
O136 C158 1.264 . S
O137 Eu95 2.339 . S
O137 C158 1.254 . S
O138 Eu95 2.563 . S
O138 C151 1.235 . S
O139 Eu95 2.419 . S
O139 C159 1.249 . S
C140 O129 1.276 . S
C140 O132 1.235 . S
C141 C143 1.393 . S
C141 C145 1.395 . S
C141 C148 1.492 . S
C142 C143 1.392 . S
C142 C144 1.386 . S
C143 C141 1.393 . S
C143 C142 1.392 . S
C143 H160 0.930 . S
C144 C142 1.386 . S
C144 C146 1.395 . S
C144 H161 0.930 . S
C145 C141 1.395 . S
C145 C146 1.379 . S
C145 H162 0.930 . S
C146 C144 1.395 . S
C146 C145 1.379 . S
C146 H163 0.930 . S
C147 O130 1.264 . S
C147 O131 1.254 . S
C148 Eu84 2.848 1_655 S
C148 O128 1.257 1_655 S
C148 O133 1.249 1_655 S
C148 C141 1.492 . S
C149 H114 0.931 . S
C149 C127 1.420 . S
C149 C150 1.351 . S
C150 H112 0.930 . S
C150 C118 1.423 . S
C150 C149 1.351 . S
C151 O135 1.276 . S
C151 O138 1.235 . S
C152 C153 1.393 . S
C152 C156 1.395 . S
C152 C159 1.492 . S
C153 C152 1.393 . S
C153 C154 1.392 . S
C153 H164 0.930 . S
C154 C153 1.392 . S
C154 C155 1.386 . S
C155 C154 1.386 . S
C155 C157 1.395 . S
C155 H165 0.930 . S
C156 C152 1.395 . S
C156 C157 1.379 . S
C156 H166 0.930 . S
C157 C155 1.395 . S
C157 C156 1.379 . S
C157 H167 0.930 . S
C158 O136 1.264 . S
C158 O137 1.254 . S
C159 Eu95 2.848 . S
C159 O134 1.257 . S
C159 O139 1.249 . S
C159 C152 1.492 . S
H160 C143 0.930 . S
H161 C144 0.930 . S
H162 C145 0.930 . S
H163 C146 0.930 . S
H164 C153 0.930 . S
H165 C155 0.930 . S
H166 C156 0.930 . S
H167 C157 0.930 . S
Eu168 N199 2.657 . S
Eu168 N206 2.609 . S
Eu168 O212 2.558 1_554 S
Eu168 O213 2.612 1_554 S
Eu168 O215 2.339 . S
Eu168 O216 2.563 1_554 S
Eu168 O217 2.419 1_554 S
Eu168 O219 2.380 . S
Eu168 O220 2.432 . S
Eu168 C232 2.848 1_554 S
C169 C172 1.429 . S
C169 C173 1.411 . S
C169 N176 1.377 1_566 S
C170 C172 1.420 . S
C170 C174 1.423 . S
C170 C182 1.392 . S
C171 C173 1.420 . S
C171 C174 1.351 . S
C171 H194 0.931 . S
C172 C169 1.429 . S
C172 C170 1.420 . S
C172 N180 1.362 1_565 S
C173 C169 1.411 . S
C173 C171 1.420 . S
C173 C178 1.400 . S
C174 C170 1.423 . S
C174 C171 1.351 . S
C174 H186 0.930 . S
C175 C177 1.400 1_465 S
C175 C178 1.384 1_454 S
C175 H187 0.930 . S
N176 C169 1.377 1_544 S
N176 C177 1.321 . S
N176 Eu179 2.609 . S
C177 C175 1.400 1_645 S
C177 N176 1.321 . S
C177 H184 0.930 . S
C178 C173 1.400 . S
C178 C175 1.384 1_656 S
C178 H197 0.926 1_655 S
Eu179 N176 2.609 . S
Eu179 N180 2.657 1_554 S
Eu179 O213 2.380 1_554 S
Eu179 O214 2.432 . S
Eu179 O218 2.558 . S
Eu179 O219 2.612 . S
Eu179 O221 2.339 . S
Eu179 O222 2.563 . S
Eu179 O223 2.419 . S
Eu179 C243 2.848 . S
N180 C172 1.362 1_545 S
N180 Eu179 2.657 1_556 S
N180 C181 1.334 . S
C181 N180 1.334 . S
C181 C183 1.413 1_545 S
C181 H188 0.929 . S
C182 C170 1.392 . S
C182 C183 1.367 . S
C182 H190 0.930 . S
C183 C181 1.413 1_565 S
C183 C182 1.367 . S
C183 H185 0.930 . S
H184 C177 0.930 . S
H185 C183 0.930 . S
H186 C174 0.930 . S
H187 C175 0.930 . S
H188 C181 0.929 . S
H189 C203 0.930 . S
H190 C182 0.930 . S
H191 C209 0.930 . S
H192 C200 0.929 . S
H193 C207 0.930 . S
H194 C171 0.931 . S
H195 C201 0.930 . S
H196 C234 0.930 . S
H197 C178 0.926 1_455 S
H198 C233 0.931 . S
N199 Eu168 2.657 . S
N199 C200 1.334 . S
N199 C204 1.362 . S
C200 H192 0.929 . S
C200 N199 1.334 . S
C200 C203 1.413 . S
C201 H195 0.930 . S
C201 C202 1.392 . S
C201 C203 1.367 . S
C202 C201 1.392 . S
C202 C204 1.420 . S
C202 C234 1.423 . S
C203 H189 0.930 . S
C203 C200 1.413 . S
C203 C201 1.367 . S
C204 N199 1.362 . S
C204 C202 1.420 . S
C204 C208 1.429 . S
H205 C210 0.930 . S
N206 Eu168 2.609 . S
N206 C208 1.377 . S
N206 C209 1.321 . S
C207 H193 0.930 . S
C207 C209 1.400 . S
C207 C210 1.386 . S
C208 C204 1.429 . S
C208 N206 1.377 . S
C208 C211 1.411 . S
C209 H191 0.930 . S
C209 N206 1.321 . S
C209 C207 1.400 . S
C210 H205 0.930 . S
C210 C207 1.386 . S
C210 C211 1.395 . S
C211 C208 1.411 . S
C211 C210 1.395 . S
C211 C233 1.420 . S
O212 Eu168 2.558 1_556 S
O212 C232 1.257 . S
O213 Eu168 2.612 1_556 S
O213 Eu179 2.380 1_556 S
O213 C224 1.276 . S
O214 Eu179 2.432 . S
O214 C231 1.264 . S
O215 Eu168 2.339 . S
O215 C231 1.254 . S
O216 Eu168 2.563 1_556 S
O216 C224 1.235 . S
O217 Eu168 2.419 1_556 S
O217 C232 1.249 . S
O218 Eu179 2.558 . S
O218 C243 1.257 . S
O219 Eu168 2.380 . S
O219 Eu179 2.612 . S
O219 C235 1.276 . S
O220 Eu168 2.432 . S
O220 C242 1.264 . S
O221 Eu179 2.339 . S
O221 C242 1.254 . S
O222 Eu179 2.563 . S
O222 C235 1.235 . S
O223 Eu179 2.419 . S
O223 C243 1.249 . S
C224 O213 1.276 . S
C224 O216 1.235 . S
C225 C227 1.393 . S
C225 C229 1.395 . S
C225 C232 1.492 . S
C226 C227 1.392 . S
C226 C228 1.386 . S
C227 C225 1.393 . S
C227 C226 1.392 . S
C227 H244 0.930 . S
C228 C226 1.386 . S
C228 C230 1.395 . S
C228 H245 0.930 . S
C229 C225 1.395 . S
C229 C230 1.379 . S
C229 H246 0.930 . S
C230 C228 1.395 . S
C230 C229 1.379 . S
C230 H247 0.930 . S
C231 O214 1.264 . S
C231 O215 1.254 . S
C232 Eu168 2.848 1_556 S
C232 O212 1.257 . S
C232 O217 1.249 . S
C232 C225 1.492 . S
C233 H198 0.931 . S
C233 C211 1.420 . S
C233 C234 1.351 . S
C234 H196 0.930 . S
C234 C202 1.423 . S
C234 C233 1.351 . S
C235 O219 1.276 . S
C235 O222 1.235 . S
C236 C237 1.393 . S
C236 C240 1.395 1_545 S
C236 C243 1.492 . S
C237 C236 1.393 . S
C237 C238 1.392 . S
C237 H248 0.930 . S
C238 C237 1.392 . S
C238 C239 1.386 1_545 S
C239 C238 1.386 1_565 S
C239 C241 1.395 . S
C239 H249 0.930 . S
C240 C236 1.395 1_565 S
C240 C241 1.379 . S
C240 H250 0.930 . S
C241 C239 1.395 . S
C241 C240 1.379 . S
C241 H251 0.930 . S
C242 O220 1.264 . S
C242 O221 1.254 . S
C243 Eu179 2.848 . S
C243 O218 1.257 . S
C243 O223 1.249 . S
C243 C236 1.492 . S
H244 C227 0.930 . S
H245 C228 0.930 . S
H246 C229 0.930 . S
H247 C230 0.930 . S
H248 C237 0.930 . S
H249 C239 0.930 . S
H250 C240 0.930 . S
H251 C241 0.930 . S
Eu252 N283 2.657 1_455 S
Eu252 N290 2.609 1_455 S
Eu252 O296 2.558 1_455 S
Eu252 O297 2.612 . S
Eu252 O299 2.339 . S
Eu252 O300 2.563 . S
Eu252 O301 2.419 1_455 S
Eu252 O303 2.380 . S
Eu252 O304 2.432 . S
Eu252 C316 2.848 1_455 S
C253 C256 1.429 . S
C253 C257 1.411 . S
C253 N260 1.377 . S
C254 C256 1.420 . S
C254 C258 1.423 . S
C254 C266 1.392 . S
C255 C257 1.420 . S
C255 C258 1.351 . S
C255 H278 0.931 . S
C256 C253 1.429 . S
C256 C254 1.420 . S
C256 N264 1.362 . S
C257 C253 1.411 . S
C257 C255 1.420 . S
C257 C262 1.395 . S
C258 C254 1.423 . S
C258 C255 1.351 . S
C258 H270 0.930 . S
C259 C261 1.400 . S
C259 C262 1.386 . S
C259 H271 0.930 . S
N260 C253 1.377 . S
N260 C261 1.321 . S
N260 Eu263 2.609 . S
C261 C259 1.400 . S
C261 N260 1.321 . S
C261 H268 0.930 . S
C262 C257 1.395 . S
C262 C259 1.386 . S
C262 H281 0.930 . S
Eu263 N260 2.609 . S
Eu263 N264 2.657 . S
Eu263 O297 2.380 . S
Eu263 O298 2.432 . S
Eu263 O302 2.558 . S
Eu263 O303 2.612 . S
Eu263 O305 2.339 . S
Eu263 O306 2.563 . S
Eu263 O307 2.419 . S
Eu263 C327 2.848 . S
N264 C256 1.362 . S
N264 Eu263 2.657 . S
N264 C265 1.334 . S
C265 N264 1.334 . S
C265 C267 1.413 . S
C265 H272 0.929 . S
C266 C254 1.392 . S
C266 C267 1.367 . S
C266 H274 0.930 . S
C267 C265 1.413 . S
C267 C266 1.367 . S
C267 H269 0.930 . S
H268 C261 0.930 . S
H269 C267 0.930 . S
H270 C258 0.930 . S
H271 C259 0.930 . S
H272 C265 0.929 . S
H273 C287 0.930 . S
H274 C266 0.930 . S
H275 C293 0.930 . S
H276 C284 0.929 . S
H277 C291 0.930 . S
H278 C255 0.931 . S
H279 C285 0.930 . S
H280 C318 0.930 . S
H281 C262 0.930 . S
H282 C317 0.931 . S
N283 Eu252 2.657 1_655 S
N283 C284 1.334 . S
N283 C288 1.362 . S
C284 H276 0.929 . S
C284 N283 1.334 . S
C284 C287 1.413 . S
C285 H279 0.930 . S
C285 C286 1.392 . S
C285 C287 1.367 . S
C286 C285 1.392 . S
C286 C288 1.420 . S
C286 C318 1.423 . S
C287 H273 0.930 . S
C287 C284 1.413 . S
C287 C285 1.367 . S
C288 N283 1.362 . S
C288 C286 1.420 . S
C288 C292 1.429 . S
H289 C294 0.930 . S
N290 Eu252 2.609 1_655 S
N290 C292 1.377 . S
N290 C293 1.321 1_565 S
C291 H277 0.930 . S
C291 C293 1.400 . S
C291 C294 1.386 . S
C292 C288 1.429 . S
C292 N290 1.377 . S
C292 C295 1.411 . S
C293 H275 0.930 . S
C293 N290 1.321 1_545 S
C293 C291 1.400 . S
C294 H289 0.930 . S
C294 C291 1.386 . S
C294 C295 1.395 1_545 S
C295 C292 1.411 . S
C295 C294 1.395 1_565 S
C295 C317 1.420 . S
O296 Eu252 2.558 1_655 S
O296 C316 1.257 . S
O297 Eu252 2.612 . S
O297 Eu263 2.380 . S
O297 C308 1.276 . S
O298 Eu263 2.432 . S
O298 C315 1.264 . S
O299 Eu252 2.339 . S
O299 C315 1.254 . S
O300 Eu252 2.563 . S
O300 C308 1.235 . S
O301 Eu252 2.419 1_655 S
O301 C316 1.249 . S
O302 Eu263 2.558 . S
O302 C327 1.257 . S
O303 Eu252 2.380 . S
O303 Eu263 2.612 . S
O303 C319 1.276 . S
O304 Eu252 2.432 . S
O304 C326 1.264 . S
O305 Eu263 2.339 . S
O305 C326 1.254 . S
O306 Eu263 2.563 . S
O306 C319 1.235 . S
O307 Eu263 2.419 . S
O307 C327 1.249 . S
C308 O297 1.276 . S
C308 O300 1.235 . S
C309 C311 1.393 . S
C309 C313 1.395 . S
C309 C316 1.492 . S
C310 C311 1.392 . S
C310 C312 1.386 . S
C311 C309 1.393 . S
C311 C310 1.392 . S
C311 H328 0.930 . S
C312 C310 1.386 . S
C312 C314 1.395 . S
C312 H329 0.930 . S
C313 C309 1.395 . S
C313 C314 1.379 . S
C313 H330 0.930 1_565 S
C314 C312 1.395 . S
C314 C313 1.379 . S
C314 H331 0.930 1_565 S
C315 O298 1.264 . S
C315 O299 1.254 . S
C316 Eu252 2.848 1_655 S
C316 O296 1.257 . S
C316 O301 1.249 . S
C316 C309 1.492 . S
C317 H282 0.931 . S
C317 C295 1.420 . S
C317 C318 1.351 . S
C318 H280 0.930 . S
C318 C286 1.423 . S
C318 C317 1.351 . S
C319 O303 1.276 . S
C319 O306 1.235 . S
C320 C321 1.393 . S
C320 C324 1.395 . S
C320 C327 1.492 . S
C321 C320 1.393 . S
C321 C322 1.392 . S
C321 H332 0.930 . S
C322 C321 1.392 . S
C322 C323 1.386 . S
C323 C322 1.386 . S
C323 C325 1.395 . S
C323 H333 0.930 . S
C324 C320 1.395 . S
C324 C325 1.379 . S
C324 H334 0.930 . S
C325 C323 1.395 . S
C325 C324 1.379 . S
C325 H335 0.930 . S
C326 O304 1.264 . S
C326 O305 1.254 . S
C327 Eu263 2.848 . S
C327 O302 1.257 . S
C327 O307 1.249 . S
C327 C320 1.492 . S
H328 C311 0.930 . S
H329 C312 0.930 . S
H330 C313 0.930 1_545 S
H331 C314 0.930 1_545 S
H332 C321 0.930 . S
H333 C323 0.930 . S
H334 C324 0.930 . S
H335 C325 0.930 . S
C336 C337 1.386 1_556 S
C336 C338 1.383 1_656 S
C336 H352 0.951 . S
C337 C336 1.386 1_554 S
C337 C341 1.383 . S
C338 C336 1.383 1_454 S
C338 C339 1.402 . S
C338 H353 0.951 1_554 S
C339 C338 1.402 . S
C339 C340 1.375 . S
C339 C342 1.481 . S
C340 C339 1.375 . S
C340 C341 1.367 1_455 S
C340 H354 0.951 . S
C341 C337 1.383 . S
C341 C340 1.367 1_655 S
C341 H355 0.950 . S
C342 C339 1.481 . S
C342 C343 1.297 . S
C342 H356 0.950 . S
C343 C342 1.297 . S
C343 C344 1.479 . S
C343 H357 0.950 . S
C344 C343 1.479 . S
C344 C345 1.375 . S
C344 C350 1.404 . S
C345 C344 1.375 . S
C345 C346 1.369 . S
C345 H358 0.950 . S
C346 C345 1.369 . S
C346 C347 1.392 . S
C346 H359 0.951 1_545 S
C347 C346 1.392 . S
C347 C349 1.384 . S
H348 C350 0.949 . S
C349 C347 1.384 . S
C349 C350 1.385 . S
C349 H351 0.950 . S
C350 C344 1.404 . S
C350 H348 0.949 . S
C350 C349 1.385 . S
H351 C349 0.950 . S
H352 C336 0.951 . S
H353 C338 0.951 1_556 S
H354 C340 0.951 . S
H355 C341 0.950 . S
H356 C342 0.950 . S
H357 C343 0.950 . S
H358 C345 0.950 . S
H359 C346 0.951 1_565 S
C360 C361 1.386 . S
C360 C362 1.383 1_565 S
C360 H376 0.951 . S
C361 C360 1.386 . S
C361 C365 1.383 . S
C362 C360 1.383 1_545 S
C362 C363 1.402 . S
C362 H377 0.951 . S
C363 C362 1.402 . S
C363 C364 1.375 . S
C363 C366 1.481 . S
C364 C363 1.375 . S
C364 C365 1.367 1_545 S
C364 H378 0.951 . S
C365 C361 1.383 . S
C365 C364 1.367 1_565 S
C365 H379 0.950 . S
C366 C363 1.481 . S
C366 C367 1.297 . S
C366 H380 0.950 . S
C367 C366 1.297 . S
C367 C368 1.479 . S
C367 H381 0.950 . S
C368 C367 1.479 . S
C368 C369 1.375 . S
C368 C374 1.404 . S
C369 C368 1.375 . S
C369 C370 1.369 . S
C369 H382 0.950 . S
C370 C369 1.369 . S
C370 C371 1.392 . S
C370 H383 0.951 . S
C371 C370 1.392 . S
C371 C373 1.384 . S
H372 C374 0.949 . S
C373 C371 1.384 . S
C373 C374 1.385 . S
C373 H375 0.950 . S
C374 C368 1.404 . S
C374 H372 0.949 . S
C374 C373 1.385 . S
H375 C373 0.950 . S
H376 C360 0.951 . S
H377 C362 0.951 . S
H378 C364 0.951 . S
H379 C365 0.950 . S
H380 C366 0.950 . S
H381 C367 0.950 . S
H382 C369 0.950 . S
H383 C370 0.951 . S
C384 C385 1.386 . S
C384 C386 1.383 . S
C384 H400 0.948 1_554 S
C385 C384 1.386 . S
C385 C389 1.383 . S
C386 C384 1.383 . S
C386 C387 1.402 . S
C386 H401 0.951 . S
C387 C386 1.402 . S
C387 C388 1.375 . S
C387 C390 1.481 . S
C388 C387 1.375 . S
C388 C389 1.367 . S
C388 H402 0.951 . S
C389 C385 1.383 . S
C389 C388 1.367 . S
C389 H403 0.950 . S
C390 C387 1.481 . S
C390 C391 1.297 . S
C390 H404 0.950 . S
C391 C390 1.297 . S
C391 C392 1.479 . S
C391 H405 0.950 . S
C392 C391 1.479 . S
C392 C393 1.375 . S
C392 C398 1.404 . S
C393 C392 1.375 . S
C393 C394 1.369 . S
C393 H406 0.950 1_554 S
C394 C393 1.369 . S
C394 C395 1.392 . S
C394 H407 0.951 . S
C395 C394 1.392 . S
C395 C397 1.384 . S
H396 C398 0.949 . S
C397 C395 1.384 . S
C397 C398 1.385 . S
C397 H399 0.954 . S
C398 C392 1.404 . S
C398 H396 0.949 . S
C398 C397 1.385 . S
H399 C397 0.954 . S
H400 C384 0.948 1_556 S
H401 C386 0.951 . S
H402 C388 0.951 . S
H403 C389 0.950 . S
H404 C390 0.950 . S
H405 C391 0.950 . S
H406 C393 0.950 1_556 S
H407 C394 0.951 . S
C408 C409 1.386 . S
C408 C410 1.383 . S
C408 H424 0.951 . S
C409 C408 1.386 . S
C409 C413 1.383 . S
C410 C408 1.383 . S
C410 C411 1.402 . S
C410 H425 0.951 . S
C411 C410 1.402 . S
C411 C412 1.375 . S
C411 C414 1.481 . S
C412 C411 1.375 . S
C412 C413 1.367 . S
C412 H426 0.951 . S
C413 C409 1.383 . S
C413 C412 1.367 . S
C413 H427 0.950 . S
C414 C411 1.481 . S
C414 C415 1.297 . S
C414 H428 0.950 . S
C415 C414 1.297 . S
C415 C416 1.479 . S
C415 H429 0.950 . S
C416 C415 1.479 . S
C416 C417 1.375 . S
C416 C422 1.404 . S
C417 C416 1.375 . S
C417 C418 1.369 . S
C417 H430 0.950 1_455 S
C418 C417 1.369 . S
C418 C419 1.392 . S
C418 H431 0.951 1_455 S
C419 C418 1.392 . S
C419 C421 1.384 . S
H420 C422 0.949 . S
C421 C419 1.384 . S
C421 C422 1.385 . S
C421 H423 0.950 . S
C422 C416 1.404 . S
C422 H420 0.949 . S
C422 C421 1.385 . S
H423 C421 0.950 . S
H424 C408 0.951 . S
H425 C410 0.951 . S
H426 C412 0.951 . S
H427 C413 0.950 . S
H428 C414 0.950 . S
H429 C415 0.950 . S
H430 C417 0.950 1_655 S
H431 C418 0.951 1_655 S
C432 C433 1.386 . S
C432 C434 1.383 . S
C432 H448 0.951 . S
C433 C432 1.386 . S
C433 C437 1.383 . S
C434 C432 1.383 . S
C434 C435 1.402 . S
C434 H449 0.951 . S
C435 C434 1.402 . S
C435 C436 1.375 . S
C435 C438 1.481 . S
C436 C435 1.375 . S
C436 C437 1.367 . S
C436 H450 0.951 . S
C437 C433 1.383 . S
C437 C436 1.367 . S
C437 H451 0.950 . S
C438 C435 1.481 . S
C438 C439 1.297 . S
C438 H452 0.950 . S
C439 C438 1.297 . S
C439 C440 1.479 . S
C439 H453 0.950 . S
C440 C439 1.479 . S
C440 C441 1.375 . S
C440 C446 1.404 . S
C441 C440 1.375 . S
C441 C442 1.369 . S
C441 H454 0.950 . S
C442 C441 1.369 . S
C442 C443 1.392 . S
C442 H455 0.951 . S
C443 C442 1.392 . S
C443 C445 1.384 . S
H444 C446 0.949 . S
C445 C443 1.384 . S
C445 C446 1.385 . S
C445 H447 0.950 . S
C446 C440 1.404 . S
C446 H444 0.949 . S
C446 C445 1.385 . S
H447 C445 0.950 . S
H448 C432 0.951 . S
H449 C434 0.951 . S
H450 C436 0.951 . S
H451 C437 0.950 . S
H452 C438 0.950 . S
H453 C439 0.950 . S
H454 C441 0.950 . S
H455 C442 0.951 . S
C456 C457 1.386 . S
C456 C458 1.383 . S
C456 H472 0.951 . S
C457 C456 1.386 . S
C457 C461 1.383 . S
C458 C456 1.383 . S
C458 C459 1.402 1_455 S
C458 H473 0.951 1_455 S
C459 C458 1.402 1_655 S
C459 C460 1.375 1_655 S
C459 C462 1.481 . S
C460 C459 1.375 1_455 S
C460 C461 1.367 . S
C460 H474 0.951 . S
C461 C457 1.383 . S
C461 C460 1.367 . S
C461 H475 0.950 . S
C462 C459 1.481 . S
C462 C463 1.297 . S
C462 H476 0.950 . S
C463 C462 1.297 . S
C463 C464 1.479 . S
C463 H477 0.950 . S
C464 C463 1.479 . S
C464 C465 1.375 . S
C464 C470 1.404 . S
C465 C464 1.375 . S
C465 C466 1.369 . S
C465 H478 0.950 . S
C466 C465 1.369 . S
C466 C467 1.392 . S
C466 H479 0.951 . S
C467 C466 1.392 . S
C467 C469 1.384 . S
H468 C470 0.949 . S
C469 C467 1.384 . S
C469 C470 1.385 . S
C469 H471 0.950 . S
C470 C464 1.404 . S
C470 H468 0.949 . S
C470 C469 1.385 . S
H471 C469 0.950 . S
H472 C456 0.951 . S
H473 C458 0.951 1_655 S
H474 C460 0.951 . S
H475 C461 0.950 . S
H476 C462 0.950 . S
H477 C463 0.950 . S
H478 C465 0.950 . S
H479 C466 0.951 . S
C480 C481 1.386 . S
C480 C482 1.383 . S
C480 H496 0.951 . S
C481 C480 1.386 . S
C481 C485 1.383 . S
C482 C480 1.383 . S
C482 C483 1.402 . S
C482 H497 0.951 . S
C483 C482 1.402 . S
C483 C484 1.375 . S
C483 C486 1.481 . S
C484 C483 1.375 . S
C484 C485 1.367 . S
C484 H498 0.951 . S
C485 C481 1.383 . S
C485 C484 1.367 . S
C485 H499 0.950 . S
C486 C483 1.481 . S
C486 C487 1.297 . S
C486 H500 0.950 . S
C487 C486 1.297 . S
C487 C488 1.479 . S
C487 H501 0.950 . S
C488 C487 1.479 . S
C488 C489 1.375 1_565 S
C488 C494 1.404 . S
C489 C488 1.375 1_545 S
C489 C490 1.369 . S
C489 H502 0.950 . S
C490 C489 1.369 . S
C490 C491 1.392 1_545 S
C490 H503 0.951 . S
C491 C490 1.392 1_565 S
C491 C493 1.384 . S
H492 C494 0.949 . S
C493 C491 1.384 . S
C493 C494 1.385 . S
C493 H495 0.950 . S
C494 C488 1.404 . S
C494 H492 0.949 . S
C494 C493 1.385 . S
H495 C493 0.950 . S
H496 C480 0.951 . S
H497 C482 0.951 . S
H498 C484 0.951 . S
H499 C485 0.950 . S
H500 C486 0.950 . S
H501 C487 0.950 . S
H502 C489 0.950 . S
H503 C490 0.951 . S
C504 C505 1.386 . S
C504 C506 1.383 . S
C504 H520 0.951 . S
C505 C504 1.386 . S
C505 C509 1.383 . S
C506 C504 1.383 . S
C506 C507 1.402 . S
C506 H521 0.951 . S
C507 C506 1.402 . S
C507 C508 1.375 . S
C507 C510 1.481 . S
C508 C507 1.375 . S
C508 C509 1.367 . S
C508 H522 0.951 . S
C509 C505 1.383 . S
C509 C508 1.367 . S
C509 H523 0.950 . S
C510 C507 1.481 . S
C510 C511 1.297 . S
C510 H524 0.950 . S
C511 C510 1.297 . S
C511 C512 1.479 . S
C511 H525 0.950 . S
C512 C511 1.479 . S
C512 C513 1.375 . S
C512 C518 1.404 . S
C513 C512 1.375 . S
C513 C514 1.369 . S
C513 H526 0.950 . S
C514 C513 1.369 . S
C514 C515 1.392 . S
C514 H527 0.951 . S
C515 C514 1.392 . S
C515 C517 1.384 . S
H516 C518 0.949 . S
C517 C515 1.384 . S
C517 C518 1.385 . S
C517 H519 0.950 . S
C518 C512 1.404 . S
C518 H516 0.949 . S
C518 C517 1.385 . S
H519 C517 0.950 . S
H520 C504 0.951 . S
H521 C506 0.951 . S
H522 C508 0.951 . S
H523 C509 0.950 . S
H524 C510 0.950 . S
H525 C511 0.950 . S
H526 C513 0.950 . S
H527 C514 0.951 . S
C528 C529 1.386 . S
C528 C530 1.383 . S
C528 H544 0.951 . S
C529 C528 1.386 . S
C529 C533 1.383 . S
C530 C528 1.383 . S
C530 C531 1.402 . S
C530 H545 0.951 . S
C531 C530 1.402 . S
C531 C532 1.373 1_545 S
C531 C534 1.481 1_545 S
C532 C531 1.373 1_565 S
C532 C533 1.366 1_565 S
C532 H546 0.954 . S
C533 C529 1.383 . S
C533 C532 1.366 1_545 S
C533 H547 0.950 . S
C534 C531 1.481 1_565 S
C534 C535 1.297 . S
C534 H548 0.950 . S
C535 C534 1.297 . S
C535 C536 1.479 . S
C535 H549 0.950 1_565 S
C536 C535 1.479 . S
C536 C537 1.375 . S
C536 C542 1.404 . S
C537 C536 1.375 . S
C537 C538 1.369 . S
C537 H550 0.950 . S
C538 C537 1.369 . S
C538 C539 1.392 . S
C538 H551 0.951 . S
C539 C538 1.392 . S
C539 C541 1.384 . S
H540 C542 0.949 . S
C541 C539 1.384 . S
C541 C542 1.385 . S
C541 H543 0.950 . S
C542 C536 1.404 . S
C542 H540 0.949 . S
C542 C541 1.385 . S
H543 C541 0.950 . S
H544 C528 0.951 . S
H545 C530 0.951 . S
H546 C532 0.954 . S
H547 C533 0.950 . S
H548 C534 0.950 . S
H549 C535 0.950 1_545 S
H550 C537 0.950 . S
H551 C538 0.951 . S
C552 C553 1.386 . S
C552 C554 1.383 . S
C552 H568 0.951 . S
C553 C552 1.386 . S
C553 C557 1.383 . S
C554 C552 1.383 . S
C554 C555 1.402 . S
C554 H569 0.951 . S
C555 C554 1.402 . S
C555 C556 1.375 . S
C555 C558 1.481 . S
C556 C555 1.375 . S
C556 C557 1.367 . S
C556 H570 0.951 . S
C557 C553 1.383 . S
C557 C556 1.367 . S
C557 H571 0.950 . S
C558 C555 1.481 . S
C558 C559 1.297 . S
C558 H572 0.950 . S
C559 C558 1.297 . S
C559 C560 1.479 . S
C559 H573 0.950 . S
C560 C559 1.479 . S
C560 C561 1.375 . S
C560 C566 1.404 . S
C561 C560 1.375 . S
C561 C562 1.369 . S
C561 H574 0.950 . S
C562 C561 1.369 . S
C562 C563 1.392 . S
C562 H575 0.951 . S
C563 C562 1.392 . S
C563 C565 1.384 . S
H564 C566 0.949 . S
C565 C563 1.384 . S
C565 C566 1.385 . S
C565 H567 0.950 . S
C566 C560 1.404 . S
C566 H564 0.949 . S
C566 C565 1.385 . S
H567 C565 0.950 . S
H568 C552 0.951 . S
H569 C554 0.951 . S
H570 C556 0.951 . S
H571 C557 0.950 . S
H572 C558 0.950 . S
H573 C559 0.950 . S
H574 C561 0.950 . S
H575 C562 0.951 . S
C576 C577 1.386 . S
C576 C578 1.383 . S
C576 H592 0.951 . S
C577 C576 1.386 . S
C577 C581 1.383 . S
C578 C576 1.383 . S
C578 C579 1.402 . S
C578 H593 0.951 . S
C579 C578 1.402 . S
C579 C580 1.375 . S
C579 C582 1.481 . S
C580 C579 1.375 . S
C580 C581 1.367 . S
C580 H594 0.951 . S
C581 C577 1.383 . S
C581 C580 1.367 . S
C581 H595 0.950 . S
C582 C579 1.481 . S
C582 C583 1.297 . S
C582 H596 0.950 . S
C583 C582 1.297 . S
C583 C584 1.479 . S
C583 H597 0.950 . S
C584 C583 1.479 . S
C584 C585 1.375 . S
C584 C590 1.404 . S
C585 C584 1.375 . S
C585 C586 1.369 . S
C585 H598 0.950 . S
C586 C585 1.369 . S
C586 C587 1.392 . S
C586 H599 0.951 . S
C587 C586 1.392 . S
C587 C589 1.384 . S
H588 C590 0.949 . S
C589 C587 1.384 . S
C589 C590 1.385 . S
C589 H591 0.950 . S
C590 C584 1.404 . S
C590 H588 0.949 . S
C590 C589 1.385 . S
H591 C589 0.950 . S
H592 C576 0.951 . S
H593 C578 0.951 . S
H594 C580 0.951 . S
H595 C581 0.950 . S
H596 C582 0.950 . S
H597 C583 0.950 . S
H598 C585 0.950 . S
H599 C586 0.951 . S
C600 C601 1.386 . S
C600 C602 1.383 . S
C600 H616 0.951 . S
C601 C600 1.386 . S
C601 C605 1.383 . S
C602 C600 1.383 . S
C602 C603 1.402 . S
C602 H617 0.951 . S
C603 C602 1.402 . S
C603 C604 1.375 . S
C603 C606 1.481 . S
C604 C603 1.375 . S
C604 C605 1.367 . S
C604 H618 0.951 . S
C605 C601 1.383 . S
C605 C604 1.367 . S
C605 H619 0.950 . S
C606 C603 1.481 . S
C606 C607 1.297 . S
C606 H620 0.950 . S
C607 C606 1.297 . S
C607 C608 1.479 . S
C607 H621 0.950 . S
C608 C607 1.479 . S
C608 C609 1.375 . S
C608 C614 1.404 . S
C609 C608 1.375 . S
C609 C610 1.369 . S
C609 H622 0.950 . S
C610 C609 1.369 . S
C610 C611 1.392 . S
C610 H623 0.951 . S
C611 C610 1.392 . S
C611 C613 1.384 . S
H612 C614 0.949 . S
C613 C611 1.384 . S
C613 C614 1.385 . S
C613 H615 0.950 . S
C614 C608 1.404 . S
C614 H612 0.949 . S
C614 C613 1.385 . S
H615 C613 0.950 . S
H616 C600 0.951 . S
H617 C602 0.951 . S
H618 C604 0.951 . S
H619 C605 0.950 . S
H620 C606 0.950 . S
H621 C607 0.950 . S
H622 C609 0.950 . S
H623 C610 0.951 . S
C337 C231 0.640 . S
C347 C74 0.578 . S
C361 C326 0.427 . S
C371 C158 0.461 . S
C385 C242 1.048 . S
C395 C63 1.140 . S
C409 C147 0.814 . S
C419 C315 0.870 . S
C433 C140 2.904 . S
C443 C67 2.959 . S
C457 C151 3.207 . S
C467 C226 3.263 . S
C481 C319 2.422 1_655 S
C491 C238 2.062 1_565 S
C505 C308 2.326 . S
C515 C56 2.196 . S
C529 C224 0.831 . S
C539 C310 0.811 . S
C553 C70 0.789 . S
C563 C322 0.761 . S
C577 C154 0.499 . S
C587 C58 0.922 . S
C601 C235 0.581 . S
C611 C142 1.069 . S
