# Generated by pormake.
# Topology tzs, (4)-cn, num edge types: 1
# Building blocks:
#     Node 0, Type 0, BuildingBlock: CEKHIL_clean_sbu_0, # of connection points: 4
#     Node 1, Type 0, BuildingBlock: CEKHIL_clean_sbu_0, # of connection points: 4
#     Node 2, Type 0, BuildingBlock: CEKHIL_clean_sbu_0, # of connection points: 4
#     Node 3, Type 0, BuildingBlock: CEKHIL_clean_sbu_0, # of connection points: 4
#     Node 4, Type 0, BuildingBlock: CEKHIL_clean_sbu_0, # of connection points: 4
#     Node 5, Type 0, BuildingBlock: CEKHIL_clean_sbu_0, # of connection points: 4
#     Node 6, Type 0, BuildingBlock: CEKHIL_clean_sbu_0, # of connection points: 4
#     Node 7, Type 0, BuildingBlock: CEKHIL_clean_sbu_0, # of connection points: 4
#     Node 8, Type 0, BuildingBlock: CEKHIL_clean_sbu_0, # of connection points: 4
#     Node 9, Type 0, BuildingBlock: CEKHIL_clean_sbu_0, # of connection points: 4
#     Node 10, Type 0, BuildingBlock: CEKHIL_clean_sbu_0, # of connection points: 4
#     Node 11, Type 0, BuildingBlock: CEKHIL_clean_sbu_0, # of connection points: 4
#     Node 12, Type 0, BuildingBlock: CEKHIL_clean_sbu_0, # of connection points: 4
#     Node 13, Type 0, BuildingBlock: CEKHIL_clean_sbu_0, # of connection points: 4
#     Node 14, Type 0, BuildingBlock: CEKHIL_clean_sbu_0, # of connection points: 4
#     Node 15, Type 0, BuildingBlock: CEKHIL_clean_sbu_0, # of connection points: 4
#     Edge 16, Type (0, 0), BuildingBlock: XUDNAN_clean_linker_2, # of connection points: 2
#     Edge 17, Type (0, 0), BuildingBlock: XUDNAN_clean_linker_2, # of connection points: 2
#     Edge 18, Type (0, 0), BuildingBlock: XUDNAN_clean_linker_2, # of connection points: 2
#     Edge 19, Type (0, 0), BuildingBlock: XUDNAN_clean_linker_2, # of connection points: 2
#     Edge 20, Type (0, 0), BuildingBlock: XUDNAN_clean_linker_2, # of connection points: 2
#     Edge 21, Type (0, 0), BuildingBlock: XUDNAN_clean_linker_2, # of connection points: 2
#     Edge 22, Type (0, 0), BuildingBlock: XUDNAN_clean_linker_2, # of connection points: 2
#     Edge 23, Type (0, 0), BuildingBlock: XUDNAN_clean_linker_2, # of connection points: 2
#     Edge 24, Type (0, 0), BuildingBlock: XUDNAN_clean_linker_2, # of connection points: 2
#     Edge 25, Type (0, 0), BuildingBlock: XUDNAN_clean_linker_2, # of connection points: 2
#     Edge 26, Type (0, 0), BuildingBlock: XUDNAN_clean_linker_2, # of connection points: 2
#     Edge 27, Type (0, 0), BuildingBlock: XUDNAN_clean_linker_2, # of connection points: 2
#     Edge 28, Type (0, 0), BuildingBlock: XUDNAN_clean_linker_2, # of connection points: 2
#     Edge 29, Type (0, 0), BuildingBlock: XUDNAN_clean_linker_2, # of connection points: 2
#     Edge 30, Type (0, 0), BuildingBlock: XUDNAN_clean_linker_2, # of connection points: 2
#     Edge 31, Type (0, 0), BuildingBlock: XUDNAN_clean_linker_2, # of connection points: 2
#     Edge 32, Type (0, 0), BuildingBlock: XUDNAN_clean_linker_2, # of connection points: 2
#     Edge 33, Type (0, 0), BuildingBlock: XUDNAN_clean_linker_2, # of connection points: 2
#     Edge 34, Type (0, 0), BuildingBlock: XUDNAN_clean_linker_2, # of connection points: 2
#     Edge 35, Type (0, 0), BuildingBlock: XUDNAN_clean_linker_2, # of connection points: 2
#     Edge 36, Type (0, 0), BuildingBlock: XUDNAN_clean_linker_2, # of connection points: 2
#     Edge 37, Type (0, 0), BuildingBlock: XUDNAN_clean_linker_2, # of connection points: 2
#     Edge 38, Type (0, 0), BuildingBlock: XUDNAN_clean_linker_2, # of connection points: 2
#     Edge 39, Type (0, 0), BuildingBlock: XUDNAN_clean_linker_2, # of connection points: 2
#     Edge 40, Type (0, 0), BuildingBlock: XUDNAN_clean_linker_2, # of connection points: 2
#     Edge 41, Type (0, 0), BuildingBlock: XUDNAN_clean_linker_2, # of connection points: 2
#     Edge 42, Type (0, 0), BuildingBlock: XUDNAN_clean_linker_2, # of connection points: 2
#     Edge 43, Type (0, 0), BuildingBlock: XUDNAN_clean_linker_2, # of connection points: 2
#     Edge 44, Type (0, 0), BuildingBlock: XUDNAN_clean_linker_2, # of connection points: 2
#     Edge 45, Type (0, 0), BuildingBlock: XUDNAN_clean_linker_2, # of connection points: 2
#     Edge 46, Type (0, 0), BuildingBlock: XUDNAN_clean_linker_2, # of connection points: 2
#     Edge 47, Type (0, 0), BuildingBlock: XUDNAN_clean_linker_2, # of connection points: 2
# Relax obj value: 0.124
# Max RMSD: 0.119
# Mean RMSD: 0.119
data_MOF--net-tzs--node1-CEKHIL_clean_sbu_0--edge1-XUDNAN_clean_linker_2
_symmetry_space_group_name_H-M    P1
_symmetry_Int_Tables_number       1
_symmetry_cell_setting            triclinic
loop_
_symmetry_equiv_pos_as_xyz
'x, y, z'
_cell_length_a     47.974024
_cell_length_b     48.098203
_cell_length_c     39.076627
_cell_angle_alpha  90.000439
_cell_angle_beta   89.939527
_cell_angle_gamma 90.016029
loop_
_atom_site_label
_atom_site_type_symbol
_atom_site_fract_x
_atom_site_fract_y
_atom_site_fract_z
_atom_type_partial_charge
Co0 Co 0.14564 0.34001 0.2039 0.0
O1 O 0.14985 0.30009 0.20215 0.0
O2 O 0.18285 0.3291 0.21872 0.0
C3 C 0.10336 0.33909 0.22972 0.0
O4 O 0.14877 0.38233 0.21166 0.0
Co5 Co 0.09699 0.37111 0.16783 0.0
O6 O 0.10715 0.40144 0.19971 0.0
C7 C 0.14466 0.34996 0.12714 0.0
C8 C 0.17488 0.30353 0.21399 0.0
C9 C 0.13141 0.40287 0.21282 0.0
O10 O 0.15813 0.34304 0.15439 0.0
O11 O 0.11994 0.35997 0.12734 0.0
O12 O 0.12603 0.3366 0.24769 0.0
O13 O 0.10689 0.34031 0.19708 0.0
Co14 Co 0.65871 0.14604 0.18896 0.0
O15 O 0.6973 0.15857 0.19303 0.0
O16 O 0.66037 0.18124 0.21216 0.0
C17 C 0.66583 0.10105 0.20379 0.0
O18 O 0.61647 0.14086 0.19275 0.0
Co19 Co 0.63765 0.10016 0.13925 0.0
O20 O 0.6004 0.10571 0.16039 0.0
C21 C 0.65882 0.15346 0.11288 0.0
C22 C 0.68722 0.18042 0.20833 0.0
C23 C 0.59662 0.12508 0.18211 0.0
O24 O 0.65563 0.16493 0.14253 0.0
O25 O 0.65626 0.1273 0.10794 0.0
O26 O 0.66377 0.11993 0.2276 0.0
O27 O 0.66542 0.11026 0.17298 0.0
Co28 Co 0.86859 0.66127 0.19879 0.0
O29 O 0.86583 0.70129 0.20199 0.0
O30 O 0.8352 0.67181 0.22373 0.0
C31 C 0.91451 0.65884 0.2117 0.0
O32 O 0.86477 0.61883 0.20322 0.0
Co33 Co 0.90773 0.63036 0.14777 0.0
O34 O 0.90249 0.59873 0.17972 0.0
C35 C 0.85805 0.66077 0.12296 0.0
C36 C 0.84281 0.69745 0.21892 0.0
C37 C 0.88107 0.59773 0.19894 0.0
O38 O 0.848 0.66259 0.15351 0.0
O39 O 0.88207 0.65065 0.11608 0.0
O40 O 0.8962 0.66101 0.23621 0.0
O41 O 0.90461 0.65985 0.18119 0.0
Co42 Co 0.35557 0.85588 0.19826 0.0
O43 O 0.31578 0.851 0.19969 0.0
O44 O 0.34609 0.81848 0.2139 0.0
C45 C 0.35552 0.8978 0.22441 0.0
O46 O 0.39836 0.85403 0.20244 0.0
Co47 Co 0.38243 0.9053 0.15869 0.0
O48 O 0.41539 0.8957 0.18677 0.0
C49 C 0.35911 0.85761 0.12067 0.0
C50 C 0.32014 0.82608 0.21116 0.0
C51 C 0.41842 0.87196 0.20077 0.0
O52 O 0.356 0.84358 0.14854 0.0
O53 O 0.36753 0.88283 0.11972 0.0
O54 O 0.3544 0.87508 0.24239 0.0
O55 O 0.35451 0.89449 0.19172 0.0
Co56 Co 0.15184 0.65474 0.30951 0.0
O57 O 0.15649 0.69434 0.30592 0.0
O58 O 0.18991 0.66394 0.29568 0.0
C59 C 0.11091 0.65361 0.28094 0.0
O60 O 0.15402 0.61191 0.3081 0.0
Co61 Co 0.10059 0.62934 0.34734 0.0
O62 O 0.11162 0.59539 0.32212 0.0
C63 C 0.14506 0.65811 0.38607 0.0
C64 C 0.18196 0.68982 0.29632 0.0
C65 C 0.13596 0.59195 0.30967 0.0
O66 O 0.16166 0.6568 0.36007 0.0
O67 O 0.1195 0.65052 0.38471 0.0
O68 O 0.13431 0.65399 0.26411 0.0
O69 O 0.1131 0.65579 0.31362 0.0
Co70 Co 0.35207 0.14004 0.30638 0.0
O71 O 0.31171 0.14259 0.30688 0.0
O72 O 0.33984 0.17353 0.28329 0.0
C73 C 0.35455 0.09441 0.29242 0.0
O74 O 0.39406 0.14433 0.29714 0.0
Co75 Co 0.38707 0.10158 0.35369 0.0
O76 O 0.41901 0.11133 0.32399 0.0
C77 C 0.35295 0.1472 0.38189 0.0
C78 C 0.31451 0.16581 0.29015 0.0
C79 C 0.41711 0.13119 0.30258 0.0
O80 O 0.35303 0.15962 0.35256 0.0
O81 O 0.36309 0.12286 0.38623 0.0
O82 O 0.35032 0.11282 0.26851 0.0
O83 O 0.35532 0.104 0.32308 0.0
Co84 Co 0.85846 0.34979 0.30428 0.0
O85 O 0.84693 0.31089 0.30076 0.0
O86 O 0.82398 0.34683 0.27969 0.0
C87 C 0.90419 0.34304 0.29177 0.0
O88 O 0.86222 0.39204 0.2996 0.0
Co89 Co 0.90301 0.37464 0.35312 0.0
O90 O 0.90108 0.4085 0.32408 0.0
C91 C 0.84833 0.35544 0.37994 0.0
C92 C 0.82518 0.32018 0.28444 0.0
C93 C 0.87975 0.4118 0.30517 0.0
O94 O 0.83807 0.35307 0.34957 0.0
O95 O 0.87377 0.36169 0.38605 0.0
O96 O 0.88601 0.34451 0.26704 0.0
O97 O 0.89404 0.3445 0.32212 0.0
Co98 Co 0.66947 0.86555 0.30864 0.0
O99 O 0.70949 0.8619 0.30836 0.0
O100 O 0.68028 0.82765 0.29707 0.0
C101 C 0.66887 0.90575 0.27863 0.0
O102 O 0.62684 0.86169 0.30384 0.0
Co103 Co 0.63951 0.91628 0.3417 0.0
O104 O 0.60796 0.90385 0.31286 0.0
C105 C 0.66744 0.874 0.38501 0.0
C106 C 0.70595 0.83617 0.29942 0.0
C107 C 0.60626 0.87896 0.3019 0.0
O108 O 0.66897 0.85696 0.35953 0.0
O109 O 0.65848 0.89896 0.382 0.0
O110 O 0.67086 0.88207 0.26274 0.0
O111 O 0.66899 0.90434 0.3115 0.0
Co112 Co 0.85511 0.6479 0.8136 0.0
O113 O 0.81615 0.65925 0.80862 0.0
O114 O 0.85279 0.68369 0.79215 0.0
C115 C 0.84943 0.60311 0.79674 0.0
O116 O 0.89768 0.64478 0.81097 0.0
Co117 Co 0.87871 0.60078 0.85947 0.0
O118 O 0.91366 0.60471 0.83266 0.0
C119 C 0.85321 0.65152 0.88955 0.0
C120 C 0.82593 0.68196 0.79494 0.0
C121 C 0.91739 0.627 0.81572 0.0
O122 O 0.85586 0.66499 0.86112 0.0
O123 O 0.85879 0.6256 0.89247 0.0
O124 O 0.85164 0.62259 0.77365 0.0
O125 O 0.84961 0.61155 0.82783 0.0
Co126 Co 0.36893 0.84579 0.80089 0.0
O127 O 0.36444 0.80598 0.80385 0.0
O128 O 0.33124 0.83487 0.78774 0.0
C129 C 0.41051 0.84382 0.7737 0.0
O130 O 0.3662 0.88801 0.79212 0.0
Co131 Co 0.41896 0.87696 0.83412 0.0
O132 O 0.40813 0.90719 0.80244 0.0
C133 C 0.37433 0.85223 0.87719 0.0
C134 C 0.33918 0.80933 0.79277 0.0
C135 C 0.38368 0.90843 0.78985 0.0
O136 O 0.35817 0.84947 0.85099 0.0
O137 O 0.39963 0.86057 0.87481 0.0
O138 O 0.38748 0.84134 0.75642 0.0
O139 O 0.40762 0.84583 0.80632 0.0
Co140 Co 0.15386 0.35944 0.80577 0.0
O141 O 0.19282 0.34808 0.80398 0.0
O142 O 0.15669 0.32047 0.79505 0.0
C143 C 0.15948 0.39922 0.77563 0.0
O144 O 0.11124 0.36223 0.80213 0.0
Co145 Co 0.13143 0.41431 0.83723 0.0
O146 O 0.09774 0.40648 0.80937 0.0
C147 C 0.15177 0.36869 0.88219 0.0
C148 C 0.18356 0.32342 0.79638 0.0
C149 C 0.09282 0.38166 0.79978 0.0
O150 O 0.15249 0.35145 0.85682 0.0
O151 O 0.146 0.39451 0.87856 0.0
O152 O 0.15724 0.37556 0.75965 0.0
O153 O 0.15969 0.39776 0.80846 0.0
Co154 Co 0.63668 0.16464 0.80147 0.0
O155 O 0.64098 0.20433 0.79765 0.0
O156 O 0.67448 0.1741 0.78697 0.0
C157 C 0.59537 0.16273 0.7738 0.0
O158 O 0.63948 0.12197 0.8002 0.0
Co159 Co 0.58685 0.13821 0.84077 0.0
O160 O 0.59759 0.10443 0.81459 0.0
C161 C 0.63114 0.1683 0.87792 0.0
C162 C 0.66641 0.19992 0.78775 0.0
C163 C 0.62188 0.10166 0.80175 0.0
O164 O 0.64731 0.16671 0.85162 0.0
O165 O 0.60559 0.16061 0.87756 0.0
O166 O 0.61857 0.16363 0.75657 0.0
O167 O 0.59788 0.165 0.80649 0.0
Co168 Co 0.8415 0.36656 0.69493 0.0
O169 O 0.80165 0.36204 0.6962 0.0
O170 O 0.83159 0.32869 0.70844 0.0
C171 C 0.84192 0.40747 0.72333 0.0
O172 O 0.88431 0.36416 0.69901 0.0
Co173 Co 0.86896 0.41719 0.65827 0.0
O174 O 0.90207 0.40598 0.68511 0.0
C175 C 0.84146 0.37279 0.61818 0.0
C176 C 0.80572 0.33666 0.70622 0.0
C177 C 0.90467 0.38182 0.69813 0.0
O178 O 0.84149 0.35647 0.64443 0.0
O179 O 0.84923 0.39823 0.61972 0.0
O180 O 0.8405 0.38417 0.74013 0.0
O181 O 0.84096 0.40527 0.69054 0.0
Co182 Co 0.65479 0.85186 0.70044 0.0
O183 O 0.66719 0.8132 0.70248 0.0
O184 O 0.68937 0.84908 0.72494 0.0
C185 C 0.60948 0.8432 0.71284 0.0
O186 O 0.64983 0.89392 0.70682 0.0
Co187 Co 0.60921 0.87657 0.653 0.0
O188 O 0.61015 0.90953 0.68354 0.0
C189 C 0.66448 0.86014 0.62504 0.0
C190 C 0.68863 0.8225 0.71938 0.0
C191 C 0.63148 0.91315 0.70235 0.0
O192 O 0.67492 0.85678 0.65519 0.0
O193 O 0.63888 0.86603 0.61942 0.0
O194 O 0.62763 0.84491 0.73757 0.0
O195 O 0.61936 0.84585 0.68249 0.0
Co196 Co 0.16516 0.64277 0.69826 0.0
O197 O 0.20524 0.64759 0.69757 0.0
O198 O 0.17576 0.67593 0.72349 0.0
C199 C 0.16621 0.59645 0.70921 0.0
O200 O 0.12293 0.64452 0.70729 0.0
Co201 Co 0.13197 0.60324 0.65013 0.0
O202 O 0.10247 0.60646 0.68547 0.0
C203 C 0.15606 0.65591 0.62359 0.0
C204 C 0.2014 0.66983 0.71588 0.0
C205 C 0.10204 0.62769 0.70491 0.0
O206 O 0.16216 0.66452 0.65395 0.0
O207 O 0.14568 0.63196 0.61716 0.0
O208 O 0.16889 0.61414 0.73425 0.0
O209 O 0.16428 0.60723 0.67924 0.0
Co210 Co 0.35252 0.15616 0.69074 0.0
O211 O 0.3418 0.19486 0.6989 0.0
O212 O 0.31786 0.15793 0.71515 0.0
C213 C 0.39813 0.16046 0.7051 0.0
O214 O 0.35534 0.11363 0.69075 0.0
Co215 Co 0.39717 0.13428 0.63995 0.0
O216 O 0.39493 0.09898 0.66625 0.0
C217 C 0.34431 0.15873 0.61466 0.0
C218 C 0.31987 0.18479 0.71424 0.0
C219 C 0.37333 0.09444 0.68434 0.0
O220 O 0.33299 0.15725 0.64462 0.0
O221 O 0.36984 0.15273 0.60868 0.0
O222 O 0.37941 0.15773 0.72908 0.0
O223 O 0.38856 0.1619 0.67448 0.0
H224 H 0.31311 0.22101 0.27115 0.0
H225 H 0.26056 0.14835 0.28429 0.0
H226 H 0.21981 0.17541 0.2647 0.0
H227 H 0.26231 0.27054 0.30215 0.0
H228 H 0.27233 0.29743 0.27246 0.0
H229 H 0.2976 0.27216 0.28636 0.0
H230 H 0.30776 0.25923 0.22324 0.0
H231 H 0.28244 0.2844 0.20914 0.0
H232 H 0.27945 0.24863 0.19588 0.0
H233 H 0.18508 0.20976 0.24205 0.0
H234 H 0.15759 0.25013 0.22288 0.0
H235 H 0.2316 0.30192 0.22762 0.0
C236 C 0.29303 0.21079 0.2698 0.0
C237 C 0.29005 0.18246 0.27905 0.0
C238 C 0.26336 0.16998 0.27735 0.0
C239 C 0.2401 0.18517 0.26614 0.0
C240 C 0.24374 0.21299 0.2571 0.0
C241 C 0.26944 0.22583 0.2592 0.0
C242 C 0.26736 0.25631 0.24918 0.0
C243 C 0.27537 0.27523 0.27934 0.0
C244 C 0.28532 0.2625 0.21747 0.0
C245 C 0.23649 0.25856 0.241 0.0
C246 C 0.22339 0.2332 0.24537 0.0
C247 C 0.19508 0.22975 0.23873 0.0
C248 C 0.17966 0.25284 0.2277 0.0
C249 C 0.19236 0.27926 0.22379 0.0
C250 C 0.22124 0.28206 0.2305 0.0
H251 H 0.82482 0.26324 0.27062 0.0
H252 H 0.77216 0.33663 0.27317 0.0
H253 H 0.73207 0.30862 0.2548 0.0
H254 H 0.79343 0.23384 0.19418 0.0
H255 H 0.79581 0.1983 0.20851 0.0
H256 H 0.82074 0.22364 0.22324 0.0
H257 H 0.80838 0.21177 0.28607 0.0
H258 H 0.78343 0.18639 0.27153 0.0
H259 H 0.7726 0.21383 0.30001 0.0
H260 H 0.69739 0.27357 0.23784 0.0
H261 H 0.6699 0.23319 0.21923 0.0
H262 H 0.74404 0.18151 0.22317 0.0
C263 C 0.80479 0.27328 0.26742 0.0
C264 C 0.80165 0.30219 0.27346 0.0
C265 C 0.77518 0.31462 0.26862 0.0
C266 C 0.75219 0.29885 0.25827 0.0
C267 C 0.7559 0.27059 0.25236 0.0
C268 C 0.78148 0.25781 0.25638 0.0
C269 C 0.77951 0.22712 0.247 0.0
C270 C 0.7985 0.22033 0.21641 0.0
C271 C 0.78639 0.20869 0.278 0.0
C272 C 0.74885 0.22481 0.23729 0.0
C273 C 0.73574 0.25021 0.24099 0.0
C274 C 0.70741 0.25359 0.23463 0.0
C275 C 0.69195 0.23045 0.22414 0.0
C276 C 0.70476 0.20418 0.21959 0.0
C277 C 0.73371 0.20138 0.22613 0.0
H278 H 0.7874 0.69845 0.23836 0.0
H279 H 0.86098 0.75043 0.22907 0.0
H280 H 0.83432 0.79054 0.25092 0.0
H281 H 0.73893 0.75065 0.20982 0.0
H282 H 0.71145 0.7402 0.23856 0.0
H283 H 0.73656 0.71503 0.22389 0.0
H284 H 0.7486 0.70279 0.2867 0.0
H285 H 0.72357 0.72799 0.30156 0.0
H286 H 0.7593 0.73001 0.31557 0.0
H287 H 0.80027 0.82488 0.27399 0.0
H288 H 0.75994 0.85259 0.29275 0.0
H289 H 0.70693 0.77969 0.28468 0.0
C290 C 0.79791 0.71824 0.24118 0.0
C291 C 0.82638 0.72127 0.23223 0.0
C292 C 0.83925 0.7476 0.23577 0.0
C293 C 0.8243 0.7705 0.24828 0.0
C294 C 0.79632 0.76688 0.25683 0.0
C295 C 0.7831 0.74154 0.25316 0.0
C296 C 0.75245 0.7438 0.26275 0.0
C297 C 0.73375 0.73702 0.23191 0.0
C298 C 0.74558 0.72503 0.29347 0.0
C299 C 0.75057 0.77436 0.27236 0.0
C300 C 0.77625 0.78711 0.26908 0.0
C301 C 0.78003 0.81515 0.27658 0.0
C302 C 0.75694 0.83071 0.28733 0.0
C303 C 0.73019 0.8184 0.2902 0.0
C304 C 0.72707 0.78974 0.28275 0.0
H305 H 0.31986 0.7701 0.22987 0.0
H306 H 0.26642 0.84243 0.21861 0.0
H307 H 0.22657 0.81546 0.23986 0.0
H308 H 0.26744 0.71965 0.20243 0.0
H309 H 0.27826 0.69325 0.23232 0.0
H310 H 0.30322 0.71809 0.21636 0.0
H311 H 0.31558 0.73206 0.2785 0.0
H312 H 0.29055 0.70737 0.29465 0.0
H313 H 0.28828 0.7434 0.30701 0.0
H314 H 0.19288 0.78232 0.26406 0.0
H315 H 0.16551 0.74303 0.28588 0.0
H316 H 0.23863 0.68995 0.27993 0.0
C317 C 0.29973 0.78016 0.23178 0.0
C318 C 0.29638 0.80849 0.22256 0.0
C319 C 0.26964 0.82083 0.22535 0.0
C320 C 0.2468 0.80569 0.23755 0.0
C321 C 0.25077 0.77802 0.24664 0.0
C322 C 0.27639 0.76514 0.24361 0.0
C323 C 0.27437 0.73482 0.25465 0.0
C324 C 0.28123 0.7153 0.22465 0.0
C325 C 0.29332 0.72908 0.28554 0.0
C326 C 0.24371 0.73292 0.26452 0.0
C327 C 0.23073 0.75827 0.25987 0.0
C328 C 0.20273 0.76229 0.26764 0.0
C329 C 0.18736 0.73977 0.28017 0.0
C330 C 0.1998 0.71328 0.28463 0.0
C331 C 0.22848 0.70988 0.27674 0.0
H332 H 0.68937 0.76514 0.7299 0.0
H333 H 0.74088 0.83929 0.73496 0.0
H334 H 0.78054 0.81115 0.7544 0.0
H335 H 0.71797 0.73307 0.80645 0.0
H336 H 0.7168 0.69814 0.78981 0.0
H337 H 0.69208 0.72367 0.77509 0.0
H338 H 0.70724 0.71462 0.71248 0.0
H339 H 0.73197 0.68903 0.72701 0.0
H340 H 0.74351 0.71777 0.70099 0.0
H341 H 0.8149 0.77606 0.77164 0.0
H342 H 0.84236 0.73543 0.78914 0.0
H343 H 0.76954 0.68266 0.77711 0.0
C344 C 0.70906 0.77533 0.73498 0.0
C345 C 0.71201 0.80449 0.73078 0.0
C346 C 0.73802 0.81709 0.73805 0.0
C347 C 0.76076 0.80126 0.74905 0.0
C348 C 0.75723 0.77275 0.75313 0.0
C349 C 0.73209 0.75977 0.74665 0.0
C350 C 0.73418 0.72875 0.75424 0.0
C351 C 0.71406 0.72043 0.78312 0.0
C352 C 0.72892 0.71153 0.72174 0.0
C353 C 0.76443 0.72649 0.76575 0.0
C354 C 0.7772 0.75223 0.76454 0.0
C355 C 0.80514 0.7558 0.77289 0.0
C356 C 0.82059 0.73251 0.78273 0.0
C357 C 0.80816 0.70583 0.78463 0.0
C358 C 0.77956 0.70282 0.7762 0.0
H359 H 0.20192 0.72557 0.73317 0.0
H360 H 0.25482 0.65267 0.72576 0.0
H361 H 0.29479 0.68013 0.74676 0.0
H362 H 0.25425 0.7739 0.70278 0.0
H363 H 0.24336 0.80184 0.73047 0.0
H364 H 0.21843 0.77625 0.71647 0.0
H365 H 0.20585 0.76556 0.77957 0.0
H366 H 0.23083 0.79104 0.79376 0.0
H367 H 0.23303 0.75574 0.80901 0.0
H368 H 0.32869 0.71476 0.76974 0.0
H369 H 0.35595 0.7555 0.7879 0.0
H370 H 0.28266 0.8077 0.77703 0.0
C371 C 0.22191 0.71542 0.73618 0.0
C372 C 0.22523 0.68688 0.72809 0.0
C373 C 0.25179 0.67445 0.73178 0.0
C374 C 0.2746 0.68986 0.74384 0.0
C375 C 0.27069 0.71788 0.75161 0.0
C376 C 0.24515 0.73072 0.74752 0.0
C377 C 0.24714 0.76152 0.7561 0.0
C378 C 0.2404 0.77943 0.72458 0.0
C379 C 0.22808 0.76889 0.78642 0.0
C380 C 0.27772 0.76389 0.76587 0.0
C381 C 0.29073 0.73833 0.76344 0.0
C382 C 0.31877 0.73491 0.77156 0.0
C383 C 0.33408 0.75824 0.782 0.0
C384 C 0.32155 0.7849 0.78389 0.0
C385 C 0.29288 0.78765 0.7758 0.0
H386 H 0.23686 0.32401 0.76897 0.0
H387 H 0.17202 0.26894 0.8065 0.0
H388 H 0.2009 0.22833 0.79163 0.0
H389 H 0.25472 0.28204 0.69651 0.0
H390 H 0.29159 0.28915 0.69824 0.0
H391 H 0.26708 0.31436 0.71429 0.0
H392 H 0.29202 0.31418 0.773 0.0
H393 H 0.31669 0.28904 0.75709 0.0
H394 H 0.29692 0.28174 0.7953 0.0
H395 H 0.23522 0.19384 0.77157 0.0
H396 H 0.27298 0.16652 0.74587 0.0
H397 H 0.3163 0.24266 0.71831 0.0
C398 C 0.22904 0.30337 0.77454 0.0
C399 C 0.20227 0.29959 0.78921 0.0
C400 C 0.19244 0.27231 0.79537 0.0
C401 C 0.20872 0.24911 0.78707 0.0
C402 C 0.23476 0.25343 0.77221 0.0
C403 C 0.24494 0.2798 0.76579 0.0
C404 C 0.27304 0.27825 0.74769 0.0
C405 C 0.2715 0.29175 0.71207 0.0
C406 C 0.29603 0.29159 0.76959 0.0
C407 C 0.27694 0.24692 0.74502 0.0
C408 C 0.25458 0.23318 0.75958 0.0
C409 C 0.25288 0.20433 0.76013 0.0
C410 C 0.27453 0.18898 0.74537 0.0
C411 C 0.29773 0.20233 0.72997 0.0
C412 C 0.29892 0.2318 0.72989 0.0
H413 H 0.72326 0.20025 0.77267 0.0
H414 H 0.64981 0.25297 0.7762 0.0
H415 H 0.67742 0.29231 0.75483 0.0
H416 H 0.77189 0.25382 0.80097 0.0
H417 H 0.79987 0.24242 0.77353 0.0
H418 H 0.77446 0.21776 0.7888 0.0
H419 H 0.76359 0.2034 0.72638 0.0
H420 H 0.78887 0.22812 0.71091 0.0
H421 H 0.75339 0.2296 0.69588 0.0
H422 H 0.71153 0.3256 0.73164 0.0
H423 H 0.75173 0.35273 0.71175 0.0
H424 H 0.80517 0.28057 0.72469 0.0
C425 C 0.71307 0.22011 0.76899 0.0
C426 C 0.68425 0.22342 0.7761 0.0
C427 C 0.67177 0.2498 0.77108 0.0
C428 C 0.68728 0.27234 0.7588 0.0
C429 C 0.71545 0.26843 0.75185 0.0
C430 C 0.72844 0.24315 0.75703 0.0
C431 C 0.75931 0.24517 0.7481 0.0
C432 C 0.77745 0.23946 0.77974 0.0
C433 C 0.76672 0.2254 0.71856 0.0
C434 C 0.76142 0.27545 0.73698 0.0
C435 C 0.7357 0.28824 0.73917 0.0
C436 C 0.73184 0.3159 0.72996 0.0
C437 C 0.75489 0.33113 0.71856 0.0
C438 C 0.78173 0.31891 0.71663 0.0
C439 C 0.78497 0.29056 0.72589 0.0
H440 H 0.15622 0.40109 0.93893 0.0
H441 H 0.1603 0.3149 0.90635 0.0
H442 H 0.16714 0.30063 0.96689 0.0
H443 H 0.20664 0.39676 0.00951 0.0
H444 H 0.18655 0.42041 0.03545 0.0
H445 H 0.18608 0.42358 0.98949 0.0
H446 H 0.13213 0.4197 0.98966 0.0
H447 H 0.13245 0.41685 0.03546 0.0
H448 H 0.11586 0.39027 0.01013 0.0
H449 H 0.16853 0.29616 0.0328 0.0
H450 H 0.16046 0.30176 0.09527 0.0
H451 H 0.15467 0.39083 0.08199 0.0
C452 C 0.15893 0.37915 0.94413 0.0
C453 C 0.15765 0.35912 0.91768 0.0
C454 C 0.16124 0.33068 0.92609 0.0
C455 C 0.16528 0.32243 0.9604 0.0
C456 C 0.16596 0.34288 0.98584 0.0
C457 C 0.16288 0.37068 0.97784 0.0
C458 C 0.16161 0.3887 0.00946 0.0
C459 C 0.18672 0.40853 0.01106 0.0
C460 C 0.13387 0.4048 0.01127 0.0
C461 C 0.1634 0.3667 0.03687 0.0
C462 C 0.16655 0.34038 0.02303 0.0
C463 C 0.1666 0.31672 0.0438 0.0
C464 C 0.16225 0.32005 0.07924 0.0
C465 C 0.15757 0.34677 0.09322 0.0
C466 C 0.15896 0.37028 0.07188 0.0
H467 H 0.67379 0.14776 0.91646 0.0
H468 H 0.61022 0.21145 0.91396 0.0
H469 H 0.62019 0.22332 0.9742 0.0
H470 H 0.65473 0.12128 0.99117 0.0
H471 H 0.68886 0.11262 0.00723 0.0
H472 H 0.68324 0.11515 0.96201 0.0
H473 H 0.72286 0.15161 0.95746 0.0
H474 H 0.72856 0.1492 0.00298 0.0
H475 H 0.72166 0.18248 0.98357 0.0
H476 H 0.62925 0.22129 0.03685 0.0
H477 H 0.63399 0.20298 0.09578 0.0
H478 H 0.69094 0.14 0.05867 0.0
C479 C 0.66314 0.16516 0.92823 0.0
C480 C 0.64181 0.17923 0.91059 0.0
C481 C 0.62706 0.20089 0.92707 0.0
C482 C 0.63268 0.20783 0.96122 0.0
C483 C 0.65305 0.1928 0.97865 0.0
C484 C 0.66819 0.17195 0.96263 0.0
C485 C 0.68501 0.15549 0.98838 0.0
C486 C 0.67747 0.12433 0.98712 0.0
C487 C 0.71639 0.15998 0.98276 0.0
C488 C 0.67541 0.16895 0.02144 0.0
C489 C 0.65778 0.19111 0.01533 0.0
C490 C 0.64364 0.20448 0.042 0.0
C491 C 0.64653 0.1941 0.07547 0.0
C492 C 0.66299 0.17029 0.08167 0.0
C493 C 0.6786 0.15856 0.05458 0.0
H494 H 0.82181 0.62789 0.93844 0.0
H495 H 0.86328 0.70506 0.91271 0.0
H496 H 0.85569 0.72176 0.97212 0.0
H497 H 0.77278 0.65625 0.008 0.0
H498 H 0.77788 0.62506 0.03278 0.0
H499 H 0.77804 0.62344 0.98666 0.0
H500 H 0.82667 0.6 0.98811 0.0
H501 H 0.8266 0.60151 0.03385 0.0
H502 H 0.85487 0.61709 0.0102 0.0
H503 H 0.85435 0.72462 0.03626 0.0
H504 H 0.86238 0.71249 0.09687 0.0
H505 H 0.82357 0.63253 0.08095 0.0
C506 C 0.82834 0.64879 0.94496 0.0
C507 C 0.84312 0.66524 0.92112 0.0
C508 C 0.85159 0.69231 0.9305 0.0
C509 C 0.84731 0.70189 0.9642 0.0
C510 C 0.83415 0.68429 0.98782 0.0
C511 C 0.82451 0.65834 0.97831 0.0
C512 C 0.81591 0.64112 0.009 0.0
C513 C 0.78427 0.63619 0.00911 0.0
C514 C 0.832 0.61334 0.01035 0.0
C515 C 0.82435 0.66043 0.03769 0.0
C516 C 0.83374 0.68571 0.02505 0.0
C517 C 0.84617 0.70535 0.04644 0.0
C518 C 0.85048 0.69839 0.08094 0.0
C519 C 0.84268 0.67196 0.09357 0.0
C520 C 0.82842 0.65332 0.0721 0.0
H521 H 0.39781 0.84072 0.07562 0.0
H522 H 0.30886 0.84912 0.08984 0.0
H523 H 0.30154 0.84167 0.02763 0.0
H524 H 0.40246 0.87934 0.00537 0.0
H525 H 0.42896 0.85949 0.98362 0.0
H526 H 0.42662 0.85831 0.02942 0.0
H527 H 0.42183 0.80465 0.02788 0.0
H528 H 0.42477 0.80553 0.98189 0.0
H529 H 0.39522 0.7889 0.00173 0.0
H530 H 0.30541 0.84234 0.96207 0.0
H531 H 0.31998 0.84911 0.90156 0.0
H532 H 0.40638 0.84024 0.93227 0.0
C533 C 0.37674 0.83941 0.06579 0.0
C534 C 0.35383 0.84456 0.08734 0.0
C535 C 0.32655 0.84421 0.07368 0.0
C536 C 0.32227 0.84019 0.03838 0.0
C537 C 0.34552 0.83636 0.01734 0.0
C538 C 0.37222 0.83539 0.03082 0.0
C539 C 0.39403 0.83449 0.00294 0.0
C540 C 0.41417 0.85938 0.00551 0.0
C541 C 0.40989 0.80673 0.00365 0.0
C542 C 0.37566 0.83659 0.97168 0.0
C543 C 0.34772 0.83717 0.98015 0.0
C544 C 0.32723 0.84131 0.95518 0.0
C545 C 0.33565 0.84521 0.92089 0.0
C546 C 0.36431 0.84539 0.91215 0.0
C547 C 0.38429 0.84036 0.93797 0.0
H548 H 0.11927 0.67939 0.58073 0.0
H549 H 0.20726 0.66588 0.59674 0.0
H550 H 0.2162 0.67466 0.53531 0.0
H551 H 0.11312 0.64249 0.51257 0.0
H552 H 0.08851 0.66341 0.48911 0.0
H553 H 0.08992 0.66586 0.5348 0.0
H554 H 0.09862 0.7189 0.53133 0.0
H555 H 0.09643 0.7169 0.48532 0.0
H556 H 0.12669 0.73207 0.50526 0.0
H557 H 0.21332 0.6716 0.47054 0.0
H558 H 0.19921 0.66106 0.41081 0.0
H559 H 0.11314 0.67747 0.43807 0.0
C560 C 0.14057 0.68032 0.57161 0.0
C561 C 0.16267 0.67284 0.59338 0.0
C562 C 0.19023 0.67261 0.58055 0.0
C563 C 0.19542 0.67732 0.54559 0.0
C564 C 0.17282 0.68268 0.52407 0.0
C565 C 0.14597 0.68505 0.5369 0.0
C566 C 0.12473 0.68657 0.50841 0.0
C567 C 0.10283 0.66319 0.51142 0.0
C568 C 0.1108 0.71533 0.50752 0.0
C569 C 0.14345 0.6824 0.47771 0.0
C570 C 0.1712 0.68082 0.48689 0.0
C571 C 0.19173 0.67366 0.46297 0.0
C572 C 0.18356 0.6676 0.42911 0.0
C573 C 0.15507 0.66829 0.41977 0.0
C574 C 0.13511 0.6767 0.44429 0.0
H575 H 0.31506 0.12648 0.57132 0.0
H576 H 0.34291 0.21065 0.5885 0.0
H577 H 0.33699 0.22114 0.5271 0.0
H578 H 0.35243 0.11448 0.50533 0.0
H579 H 0.32863 0.09372 0.48041 0.0
H580 H 0.32457 0.09557 0.52587 0.0
H581 H 0.27379 0.11288 0.51912 0.0
H582 H 0.27739 0.11051 0.47326 0.0
H583 H 0.26656 0.14274 0.49269 0.0
H584 H 0.34223 0.21796 0.46303 0.0
H585 H 0.35499 0.20183 0.40464 0.0
H586 H 0.32283 0.12012 0.42912 0.0
C587 C 0.31772 0.14764 0.56243 0.0
C588 C 0.32842 0.16803 0.58464 0.0
C589 C 0.33361 0.1951 0.572 0.0
C590 C 0.33053 0.20114 0.53703 0.0
C591 C 0.32195 0.17993 0.51508 0.0
C592 C 0.31481 0.15385 0.52753 0.0
C593 C 0.31103 0.13326 0.49863 0.0
C594 C 0.33033 0.10781 0.50283 0.0
C595 C 0.28036 0.12433 0.49575 0.0
C596 C 0.31954 0.15103 0.46842 0.0
C597 C 0.32506 0.17812 0.47801 0.0
C598 C 0.33704 0.19706 0.45501 0.0
C599 C 0.34424 0.18781 0.42187 0.0
C600 C 0.33982 0.1598 0.41248 0.0
C601 C 0.32624 0.14175 0.43563 0.0
H602 H 0.82633 0.39434 0.42108 0.0
H603 H 0.83636 0.30567 0.40899 0.0
H604 H 0.82648 0.29888 0.47059 0.0
H605 H 0.863 0.40043 0.49014 0.0
H606 H 0.84291 0.42664 0.51204 0.0
H607 H 0.8412 0.42409 0.46635 0.0
H608 H 0.78758 0.41823 0.46873 0.0
H609 H 0.78889 0.42158 0.51466 0.0
H610 H 0.77251 0.39166 0.49552 0.0
H611 H 0.82797 0.30333 0.53528 0.0
H612 H 0.83723 0.31843 0.59494 0.0
H613 H 0.82607 0.40425 0.56378 0.0
C614 C 0.8244 0.37342 0.43107 0.0
C615 C 0.83106 0.35045 0.41033 0.0
C616 C 0.83018 0.32338 0.42436 0.0
C617 C 0.82484 0.3194 0.45941 0.0
C618 C 0.82016 0.34274 0.47987 0.0
C619 C 0.81916 0.36924 0.46592 0.0
C620 C 0.81821 0.39124 0.49353 0.0
C621 C 0.84279 0.41176 0.49031 0.0
C622 C 0.79012 0.40658 0.49309 0.0
C623 C 0.82091 0.37324 0.52506 0.0
C624 C 0.8214 0.34529 0.51699 0.0
C625 C 0.82682 0.32514 0.54194 0.0
C626 C 0.83218 0.33386 0.57576 0.0
C627 C 0.83253 0.36251 0.58406 0.0
C628 C 0.82601 0.38216 0.55839 0.0
H629 H 0.68057 0.90047 0.58213 0.0
H630 H 0.68209 0.81151 0.59697 0.0
H631 H 0.69121 0.80477 0.53512 0.0
H632 H 0.64159 0.90016 0.5141 0.0
H633 H 0.65758 0.9284 0.49096 0.0
H634 H 0.66041 0.92695 0.53666 0.0
H635 H 0.71429 0.92825 0.53294 0.0
H636 H 0.71176 0.93063 0.487 0.0
H637 H 0.73233 0.90349 0.50629 0.0
H638 H 0.6882 0.80788 0.47001 0.0
H639 H 0.67734 0.82081 0.40995 0.0
H640 H 0.67748 0.90782 0.43926 0.0
C641 C 0.68483 0.87974 0.57262 0.0
C642 C 0.68163 0.85657 0.59423 0.0
C643 C 0.6856 0.82953 0.58089 0.0
C644 C 0.69048 0.82555 0.54571 0.0
C645 C 0.69159 0.84888 0.52446 0.0
C646 C 0.6896 0.87555 0.53771 0.0
C647 C 0.68714 0.89699 0.5096 0.0
C648 C 0.66008 0.91409 0.51306 0.0
C649 C 0.71292 0.91595 0.50892 0.0
C650 C 0.68632 0.87826 0.47861 0.0
C651 C 0.6894 0.85061 0.48732 0.0
C652 C 0.6865 0.82955 0.46286 0.0
C653 C 0.68018 0.83704 0.42883 0.0
C654 C 0.6764 0.8653 0.4198 0.0
C655 C 0.68017 0.88597 0.4451 0.0
H656 H 0.09921 0.55054 0.29459 0.0
H657 H 0.18763 0.56948 0.29295 0.0
H658 H 0.19714 0.5222 0.27 0.0
H659 H 0.10445 0.47887 0.31936 0.0
H660 H 0.07588 0.46829 0.29241 0.0
H661 H 0.07676 0.50297 0.30976 0.0
H662 H 0.07274 0.52346 0.2486 0.0
H663 H 0.07177 0.48888 0.23107 0.0
H664 H 0.09765 0.5133 0.21636 0.0
H665 H 0.19605 0.47115 0.2471 0.0
H666 H 0.18426 0.42464 0.22337 0.0
H667 H 0.09649 0.44202 0.23913 0.0
C668 C 0.1207 0.54484 0.2898 0.0
C669 C 0.14271 0.56377 0.29602 0.0
C670 C 0.1704 0.55537 0.28859 0.0
C671 C 0.17598 0.52851 0.27563 0.0
C672 C 0.15363 0.51038 0.26996 0.0
C673 C 0.12654 0.51847 0.27665 0.0
C674 C 0.10587 0.49599 0.26733 0.0
C675 C 0.0898 0.48594 0.29911 0.0
C676 C 0.08584 0.50601 0.23916 0.0
C677 C 0.12541 0.4738 0.25416 0.0
C678 C 0.15294 0.48214 0.2561 0.0
C679 C 0.17451 0.46458 0.24544 0.0
C680 C 0.16766 0.43815 0.23211 0.0
C681 C 0.13945 0.4297 0.22912 0.0
C682 C 0.11827 0.44785 0.24068 0.0
H683 H 0.57776 0.12128 0.24811 0.0
H684 H 0.55122 0.13945 0.1446 0.0
H685 H 0.50309 0.14776 0.16537 0.0
H686 H 0.51711 0.08232 0.26994 0.0
H687 H 0.51611 0.0938 0.31384 0.0
H688 H 0.54884 0.09234 0.29135 0.0
H689 H 0.55749 0.1443 0.30527 0.0
H690 H 0.52464 0.14596 0.32762 0.0
H691 H 0.53182 0.16983 0.29315 0.0
H692 H 0.45777 0.15392 0.19764 0.0
H693 H 0.41747 0.1508 0.23693 0.0
H694 H 0.47255 0.12435 0.31866 0.0
C695 C 0.56179 0.12736 0.23001 0.0
C696 C 0.56808 0.13016 0.19486 0.0
C697 C 0.54669 0.13742 0.17165 0.0
C698 C 0.5194 0.1423 0.18326 0.0
C699 C 0.51375 0.13936 0.21811 0.0
C700 C 0.53425 0.13159 0.24108 0.0
C701 C 0.52215 0.12734 0.27659 0.0
C702 C 0.5263 0.09716 0.28862 0.0
C703 C 0.53478 0.1481 0.30217 0.0
C704 C 0.49163 0.13366 0.26997 0.0
C705 C 0.48735 0.1412 0.23627 0.0
C706 C 0.4609 0.14802 0.22408 0.0
C707 C 0.43813 0.14637 0.24666 0.0
C708 C 0.44181 0.13738 0.28089 0.0
C709 C 0.46905 0.13133 0.29267 0.0
H710 H 0.91828 0.55899 0.22192 0.0
H711 H 0.82972 0.57617 0.21538 0.0
H712 H 0.81962 0.53043 0.24193 0.0
H713 H 0.91585 0.48644 0.20405 0.0
H714 H 0.94248 0.47733 0.23456 0.0
H715 H 0.94259 0.51122 0.215 0.0
H716 H 0.94207 0.53429 0.2749 0.0
H717 H 0.94207 0.50045 0.29467 0.0
H718 H 0.91509 0.52514 0.30502 0.0
H719 H 0.81948 0.48118 0.26564 0.0
H720 H 0.82909 0.43479 0.29025 0.0
H721 H 0.91786 0.45152 0.28558 0.0
C722 C 0.89674 0.55311 0.22606 0.0
C723 C 0.87473 0.571 0.21626 0.0
C724 C 0.84686 0.56279 0.22266 0.0
C725 C 0.84096 0.53682 0.23761 0.0
C726 C 0.86318 0.51956 0.24666 0.0
C727 C 0.89053 0.5276 0.24164 0.0
C728 C 0.91065 0.50566 0.25456 0.0
C729 C 0.92896 0.49451 0.22529 0.0
C730 C 0.92852 0.51707 0.28404 0.0
C731 C 0.89038 0.48373 0.26713 0.0
C732 C 0.8631 0.49202 0.26204 0.0
C733 C 0.84075 0.47467 0.27013 0.0
C734 C 0.84643 0.44829 0.28396 0.0
C735 C 0.8742 0.43962 0.29012 0.0
C736 C 0.8964 0.45772 0.28164 0.0
H737 H 0.5692 0.91223 0.2691 0.0
H738 H 0.58238 0.82649 0.29912 0.0
H739 H 0.53578 0.81419 0.27568 0.0
H740 H 0.49774 0.91685 0.28881 0.0
H741 H 0.4894 0.93829 0.2524 0.0
H742 H 0.52378 0.93953 0.27068 0.0
H743 H 0.54534 0.92756 0.21161 0.0
H744 H 0.51099 0.9264 0.1931 0.0
H745 H 0.53386 0.89684 0.18925 0.0
H746 H 0.48513 0.81278 0.2513 0.0
H747 H 0.43859 0.82171 0.22572 0.0
H748 H 0.46152 0.90814 0.21065 0.0
C749 C 0.56238 0.8908 0.27077 0.0
C750 C 0.57933 0.87036 0.28627 0.0
C751 C 0.56975 0.8425 0.28735 0.0
C752 C 0.54327 0.83538 0.27419 0.0
C753 C 0.5269 0.85628 0.2595 0.0
C754 C 0.53643 0.88335 0.25738 0.0
C755 C 0.5154 0.90214 0.24025 0.0
C756 C 0.50603 0.92557 0.26449 0.0
C757 C 0.5271 0.91392 0.20656 0.0
C758 C 0.49211 0.88168 0.23367 0.0
C759 C 0.49889 0.85528 0.24485 0.0
C760 C 0.47985 0.83336 0.24219 0.0
C761 C 0.45341 0.83862 0.22768 0.0
C762 C 0.44629 0.86557 0.21583 0.0
C763 C 0.46616 0.88718 0.21898 0.0
H764 H 0.84996 0.57412 0.73439 0.0
H765 H 0.84903 0.56289 0.84484 0.0
H766 H 0.84922 0.5126 0.83759 0.0
H767 H 0.80376 0.51706 0.71624 0.0
H768 H 0.82164 0.50608 0.67796 0.0
H769 H 0.82295 0.54197 0.69103 0.0
H770 H 0.87693 0.54018 0.69064 0.0
H771 H 0.87575 0.50425 0.67762 0.0
H772 H 0.89463 0.51408 0.7156 0.0
H773 H 0.84827 0.4637 0.82014 0.0
H774 H 0.84494 0.41795 0.79187 0.0
H775 H 0.84564 0.45871 0.69269 0.0
C776 C 0.84998 0.56102 0.75692 0.0
C777 C 0.84974 0.57272 0.79014 0.0
C778 C 0.84949 0.55476 0.81902 0.0
C779 C 0.84958 0.52596 0.81531 0.0
C780 C 0.8498 0.51505 0.78251 0.0
C781 C 0.84991 0.53182 0.75372 0.0
C782 C 0.84917 0.51413 0.72153 0.0
C783 C 0.82281 0.52017 0.70046 0.0
C784 C 0.8757 0.51842 0.70008 0.0
C785 C 0.8483 0.48512 0.73703 0.0
C786 C 0.8489 0.48627 0.77226 0.0
C787 C 0.84787 0.46241 0.7925 0.0
C788 C 0.84598 0.43653 0.77626 0.0
C789 C 0.84504 0.43476 0.74019 0.0
C790 C 0.8464 0.45941 0.72037 0.0
H791 H 0.57742 0.85123 0.77161 0.0
H792 H 0.57233 0.83011 0.66371 0.0
H793 H 0.52134 0.82904 0.66732 0.0
H794 H 0.51911 0.80794 0.79892 0.0
H795 H 0.50665 0.83268 0.83002 0.0
H796 H 0.54318 0.83141 0.81942 0.0
H797 H 0.54196 0.88381 0.80402 0.0
H798 H 0.50536 0.88515 0.81427 0.0
H799 H 0.51733 0.89607 0.77265 0.0
H800 H 0.47096 0.83132 0.68125 0.0
H801 H 0.42377 0.83419 0.70656 0.0
H802 H 0.46047 0.85333 0.80531 0.0
C803 C 0.56553 0.84612 0.74894 0.0
C804 C 0.57894 0.84085 0.71739 0.0
C805 C 0.56261 0.83441 0.68817 0.0
C806 C 0.53355 0.83374 0.68986 0.0
C807 C 0.52089 0.83952 0.72099 0.0
C808 C 0.53621 0.84539 0.75012 0.0
C809 C 0.51703 0.85088 0.78024 0.0
C810 C 0.52178 0.82944 0.80884 0.0
C811 C 0.52064 0.88075 0.79357 0.0
C812 C 0.48878 0.84699 0.76338 0.0
C813 C 0.49153 0.84063 0.72914 0.0
C814 C 0.46846 0.83623 0.7081 0.0
C815 C 0.44176 0.83798 0.72262 0.0
C816 C 0.43845 0.84394 0.75781 0.0
C817 C 0.46233 0.84871 0.77829 0.0
H818 H 0.16285 0.44999 0.80625 0.0
H819 H 0.15584 0.41061 0.70666 0.0
H820 H 0.15588 0.45713 0.67929 0.0
H821 H 0.11831 0.50872 0.78825 0.0
H822 H 0.13908 0.53266 0.81293 0.0
H823 H 0.13799 0.49641 0.82448 0.0
H824 H 0.19185 0.4939 0.82053 0.0
H825 H 0.19312 0.53011 0.80894 0.0
H826 H 0.209 0.50443 0.78155 0.0
H827 H 0.15735 0.50761 0.66319 0.0
H828 H 0.16053 0.5584 0.65847 0.0
H829 H 0.16664 0.56524 0.76904 0.0
C830 C 0.16123 0.45105 0.77864 0.0
C831 C 0.15932 0.42664 0.75849 0.0
C832 C 0.15732 0.42901 0.72252 0.0
C833 C 0.15729 0.45533 0.70683 0.0
C834 C 0.15923 0.47893 0.72755 0.0
C835 C 0.16114 0.47703 0.76268 0.0
C836 C 0.16333 0.50552 0.77915 0.0
C837 C 0.13818 0.51115 0.80258 0.0
C838 C 0.19097 0.50866 0.79869 0.0
C839 C 0.16266 0.52391 0.74772 0.0
C840 C 0.16014 0.50808 0.71829 0.0
C841 C 0.15926 0.52017 0.68604 0.0
C842 C 0.16107 0.54914 0.68372 0.0
C843 C 0.16381 0.56591 0.71344 0.0
C844 C 0.16453 0.55304 0.7459 0.0
H845 H 0.42824 0.15844 0.7662 0.0
H846 H 0.43753 0.15926 0.65555 0.0
H847 H 0.48818 0.1571 0.66147 0.0
H848 H 0.48681 0.20246 0.78304 0.0
H849 H 0.49778 0.18431 0.82106 0.0
H850 H 0.46163 0.18403 0.80873 0.0
H851 H 0.46191 0.13016 0.80902 0.0
H852 H 0.49812 0.1303 0.82128 0.0
H853 H 0.48723 0.11177 0.78349 0.0
H854 H 0.53775 0.15643 0.67803 0.0
H855 H 0.58402 0.15901 0.70546 0.0
H856 H 0.5443 0.15962 0.80537 0.0
C857 C 0.44098 0.15792 0.74332 0.0
C858 C 0.4287 0.15876 0.71044 0.0
C859 C 0.44618 0.15839 0.68109 0.0
C860 C 0.47514 0.15714 0.68408 0.0
C861 C 0.48661 0.1564 0.71663 0.0
C862 C 0.47025 0.15686 0.74581 0.0
C863 C 0.4884 0.1571 0.77762 0.0
C864 C 0.48335 0.18355 0.79886 0.0
C865 C 0.48362 0.13076 0.79912 0.0
C866 C 0.51727 0.15715 0.76153 0.0
C867 C 0.51566 0.15644 0.72631 0.0
C868 C 0.53938 0.15687 0.70565 0.0
C869 C 0.56556 0.15833 0.72142 0.0
C870 C 0.56778 0.15951 0.75746 0.0
C871 C 0.54327 0.15866 0.77771 0.0
H872 H 0.58675 0.06149 0.77729 0.0
H873 H 0.67435 0.0791 0.79419 0.0
H874 H 0.68645 0.03242 0.77166 0.0
H875 H 0.58784 0.98899 0.79923 0.0
H876 H 0.56367 0.97912 0.76609 0.0
H877 H 0.56206 0.01344 0.78442 0.0
H878 H 0.56712 0.03514 0.72404 0.0
H879 H 0.56868 1.00089 0.70553 0.0
H880 H 0.59631 0.02545 0.69751 0.0
H881 H 0.6885 0.98266 0.74894 0.0
H882 H 0.68088 0.93619 0.72347 0.0
H883 H 0.59209 0.95274 0.71814 0.0
C884 C 0.60851 0.0555 0.77648 0.0
C885 C 0.62962 0.07388 0.7879 0.0
C886 C 0.65783 0.06539 0.7857 0.0
C887 C 0.66487 0.03888 0.77304 0.0
C888 C 0.64349 0.02125 0.76215 0.0
C889 C 0.6159 0.0294 0.76337 0.0
C890 C 0.59688 0.00711 0.74891 0.0
C891 C 0.57641 0.99654 0.7763 0.0
C892 C 0.58134 0.01779 0.71711 0.0
C893 C 0.61802 0.98498 0.73951 0.0
C894 C 0.64477 0.99337 0.74768 0.0
C895 C 0.66765 0.97603 0.74223 0.0
C896 C 0.6631 0.9496 0.72784 0.0
C897 C 0.63592 0.94082 0.71854 0.0
C898 C 0.61316 0.95889 0.72458 0.0
H899 H 0.95776 0.58951 0.79648 0.0
H900 H 0.9402 0.67789 0.80129 0.0
H901 H 0.98647 0.68791 0.77621 0.0
H902 H 0.03198 0.59329 0.81501 0.0
H903 H 0.04093 0.56625 0.78502 0.0
H904 H 0.00727 0.56612 0.80552 0.0
H905 H 0.98319 0.56507 0.74621 0.0
H906 H 0.01675 0.56514 0.72556 0.0
H907 H 0.99147 0.59152 0.71512 0.0
H908 H 0.03536 0.68823 0.75102 0.0
H909 H 0.08054 0.6786 0.72256 0.0
H910 H 0.06449 0.59008 0.73027 0.0
C911 C 0.96379 0.61099 0.79263 0.0
C912 C 0.94544 0.63294 0.80123 0.0
C913 C 0.9539 0.66074 0.79503 0.0
C914 C 0.9802 0.66664 0.78091 0.0
C915 C 0.99776 0.64452 0.77264 0.0
C916 C 0.98976 0.61723 0.77793 0.0
C917 C 0.01177 0.59722 0.76491 0.0
C918 C 0.02369 0.57969 0.79437 0.0
C919 C 1.00009 0.57865 0.73625 0.0
C920 C 0.03331 0.61748 0.75126 0.0
C921 C 0.0251 0.64468 0.75651 0.0
C922 C 0.04191 0.667 0.74664 0.0
C923 C 0.06758 0.66135 0.73062 0.0
C924 C 0.07593 0.63364 0.72398 0.0
C925 C 0.05853 0.61151 0.73468 0.0
H926 H 0.41256 0.0547 0.69934 0.0
H927 H 0.32356 0.07034 0.7024 0.0
H928 H 0.3159 0.02367 0.72741 0.0
H929 H 0.4096 0.98114 0.67945 0.0
H930 H 0.43849 0.97254 0.70693 0.0
H931 H 0.43662 0.0064 0.68736 0.0
H932 H 0.44021 0.02952 0.74709 0.0
H933 H 0.4421 0.99575 0.76683 0.0
H934 H 0.41562 0.02008 0.78002 0.0
H935 H 0.31823 0.97442 0.75224 0.0
H936 H 0.33077 0.92915 0.77851 0.0
H937 H 0.4183 0.94754 0.76196 0.0
C938 C 0.39142 0.04819 0.70486 0.0
C939 C 0.36862 0.0661 0.69852 0.0
C940 C 0.34135 0.05698 0.7069 0.0
C941 C 0.33679 0.03045 0.72104 0.0
C942 C 0.35974 0.01334 0.72711 0.0
C943 C 0.38654 0.02201 0.71955 0.0
C944 C 0.4078 1.00042 0.73028 0.0
C945 C 0.42408 0.98948 0.69915 0.0
C946 C 0.42759 0.01215 0.75768 0.0
C947 C 0.38883 0.97822 0.74501 0.0
C948 C 0.36114 0.98582 0.74263 0.0
C949 C 0.33988 0.96834 0.75432 0.0
C950 C 0.34717 0.94262 0.76913 0.0
C951 C 0.37549 0.9348 0.7726 0.0
C952 C 0.39643 0.95293 0.76008 0.0
H953 H 0.05701 0.41711 0.76732 0.0
H954 H 0.06537 0.33132 0.7998 0.0
H955 H 0.01827 0.32112 0.77684 0.0
H956 H 0.98496 0.42585 0.78553 0.0
H957 H 0.97824 0.44665 0.74806 0.0
H958 H 0.01236 0.44676 0.76716 0.0
H959 H 0.03414 0.43225 0.70911 0.0
H960 H 1.00006 0.43207 0.68982 0.0
H961 H 0.02164 0.40145 0.6878 0.0
H962 H 0.96843 0.32132 0.75167 0.0
H963 H 0.92271 0.33142 0.72473 0.0
H964 H 0.94934 0.41649 0.70694 0.0
C965 C 0.04893 0.39618 0.76977 0.0
C966 C 0.06479 0.37508 0.78569 0.0
C967 C 0.05359 0.34784 0.78774 0.0
C968 C 0.02683 0.34187 0.77481 0.0
C969 C 0.0117 0.36325 0.75934 0.0
C970 C 0.02258 0.38978 0.75648 0.0
C971 C 1.00266 0.40901 0.73806 0.0
C972 C 0.99404 0.4335 0.76109 0.0
C973 C 0.01538 0.41929 0.70419 0.0
C974 C 0.9785 0.38944 0.73171 0.0
C975 C 0.98394 0.3631 0.74407 0.0
C976 C 0.96413 0.34186 0.74167 0.0
C977 C 0.93817 0.34777 0.72632 0.0
C978 C 0.93229 0.37469 0.71339 0.0
C979 C 0.953 0.39557 0.71617 0.0
H980 H 0.34945 0.06425 0.23192 0.0
H981 H 0.3693 0.05625 0.33995 0.0
H982 H 0.37382 0.00584 0.33338 0.0
H983 H 0.30794 1.00343 0.22646 0.0
H984 H 0.31985 0.99315 0.18457 0.0
H985 H 0.3201 0.02929 0.19656 0.0
H986 H 0.37279 0.03227 0.18244 0.0
H987 H 0.37267 0.99613 0.17024 0.0
H988 H 0.39663 0.00829 0.20243 0.0
H989 H 0.37288 0.95624 0.31722 0.0
H990 H 0.36822 0.9098 0.29087 0.0
H991 H 0.34995 0.94851 0.19307 0.0
C992 C 0.35515 0.05188 0.25398 0.0
C993 C 0.35906 0.06433 0.2864 0.0
C994 C 0.36622 0.04736 0.31478 0.0
C995 C 0.36888 0.01859 0.31139 0.0
C996 C 0.36445 0.00687 0.2794 0.0
C997 C 0.35794 0.02285 0.25107 0.0
C998 C 0.35335 0.00452 0.21996 0.0
C999 C 0.32354 0.0078 0.20608 0.0
C1000 C 0.37517 0.01067 0.19212 0.0
C1001 C 0.35778 0.97593 0.23557 0.0
C1002 C 0.36423 0.97786 0.26988 0.0
C1003 C 0.36813 0.95438 0.29025 0.0
C1004 C 0.36535 0.92811 0.27513 0.0
C1005 C 0.35886 0.92557 0.23999 0.0
C1006 C 0.3552 0.94984 0.21997 0.0
H1007 H 0.93595 0.34587 0.23173 0.0
H1008 H 0.94223 0.33858 0.34233 0.0
H1009 H 0.99309 0.33819 0.33826 0.0
H1010 H 0.99406 0.30053 0.21253 0.0
H1011 H 0.00642 0.32085 0.17685 0.0
H1012 H 0.96995 0.32115 0.18789 0.0
H1013 H 0.97139 0.37485 0.19294 0.0
H1014 H 0.0079 0.37468 0.18203 0.0
H1015 H 0.99638 0.39091 0.22113 0.0
H1016 H 0.0431 0.33817 0.32352 0.0
H1017 H 0.09008 0.33733 0.29769 0.0
H1018 H 0.0531 0.34433 0.19667 0.0
C1019 C 0.94808 0.34418 0.25498 0.0
C1020 C 0.93492 0.34237 0.28732 0.0
C1021 C 0.95162 0.34015 0.31719 0.0
C1022 C 0.98066 0.33991 0.31525 0.0
C1023 C 0.99302 0.34186 0.28325 0.0
C1024 C 0.97744 0.34388 0.25356 0.0
C1025 C 0.99645 0.34533 0.22251 0.0
C1026 C 0.99142 0.32048 0.19853 0.0
C1027 C 0.99281 0.3731 0.20354 0.0
C1028 C 0.02488 0.34356 0.23955 0.0
C1029 C 0.02232 0.34172 0.27463 0.0
C1030 C 0.04546 0.33964 0.29604 0.0
C1031 C 0.07206 0.33918 0.28117 0.0
C1032 C 0.07528 0.34075 0.24526 0.0
C1033 C 0.05132 0.34314 0.22426 0.0
H1034 H 0.66324 0.95718 0.30782 0.0
H1035 H 0.66996 0.9155 0.2096 0.0
H1036 H 0.66901 0.96114 0.18047 0.0
H1037 H 0.61649 0.01251 0.27969 0.0
H1038 H 0.6327 0.03844 0.30637 0.0
H1039 H 0.63272 1.0025 0.31941 0.0
H1040 H 0.68653 1.00379 0.32456 0.0
H1041 H 0.68673 0.03966 0.31133 0.0
H1042 H 0.70713 0.01439 0.28822 0.0
H1043 H 0.66958 0.01055 0.16244 0.0
H1044 H 0.66994 0.06111 0.15532 0.0
H1045 H 0.66235 0.07191 0.26536 0.0
C1046 C 0.66427 0.95762 0.28014 0.0
C1047 C 0.66667 0.93278 0.26087 0.0
C1048 C 0.66806 0.93424 0.22478 0.0
C1049 C 0.66756 0.96005 0.20808 0.0
C1050 C 0.66554 0.98411 0.22787 0.0
C1051 C 0.66373 0.98318 0.26308 0.0
C1052 C 0.6622 0.01223 0.27827 0.0
C1053 C 0.63437 0.01668 0.29704 0.0
C1054 C 0.68713 0.01784 0.30199 0.0
C1055 C 0.66383 0.02972 0.24604 0.0
C1056 C 0.66568 0.01292 0.21737 0.0
C1057 C 0.66793 0.0239 0.18465 0.0
C1058 C 0.66812 0.05277 0.18097 0.0
C1059 C 0.66603 0.07062 0.20981 0.0
C1060 C 0.66391 0.05886 0.24286 0.0
H1061 H 0.05986 0.65688 0.31165 0.0
H1062 H 0.09977 0.64409 0.21314 0.0
H1063 H 0.05338 0.6411 0.18576 0.0
H1064 H 1.00015 0.61095 0.29744 0.0
H1065 H 0.97624 0.63357 0.31961 0.0
H1066 H 0.01245 0.63272 0.33181 0.0
H1067 H 0.01584 0.68597 0.32268 0.0
H1068 H 0.9797 0.68699 0.31041 0.0
H1069 H 0.00598 0.7006 0.28197 0.0
H1070 H 1.0034 0.64206 0.16891 0.0
H1071 H 0.95285 0.64748 0.16263 0.0
H1072 H 0.94461 0.65992 0.27227 0.0
C1073 C 0.05886 0.65311 0.28435 0.0
C1074 C 0.0834 0.6506 0.26444 0.0
C1075 C 0.08123 0.64601 0.22881 0.0
C1076 C 0.055 0.64422 0.21311 0.0
C1077 C 0.03125 0.64705 0.23346 0.0
C1078 C 0.0329 0.65138 0.2683 0.0
C1079 C 1.00419 0.65505 0.28403 0.0
C1080 C 0.99789 0.63167 0.30974 0.0
C1081 C 1.00127 0.68387 0.30075 0.0
C1082 C 0.98608 0.65256 0.25245 0.0
C1083 C 1.0022 0.64773 0.22367 0.0
C1084 C 0.99056 0.64561 0.19126 0.0
C1085 C 0.96172 0.64875 0.18804 0.0
C1086 C 0.94466 0.65401 0.21702 0.0
C1087 C 0.95704 0.65567 0.24973 0.0
loop_
_geom_bond_atom_site_label_1
_geom_bond_atom_site_label_2
_geom_bond_distance
_geom_bond_site_symmetry_2
_ccdc_geom_bond_type
Co0 O1 2.216 . S
Co0 O2 2.091 . S
Co0 O4 2.004 . S
Co0 O10 2.021 . S
Co0 O12 2.137 . S
Co0 O13 2.244 . S
O1 Co0 2.216 . S
O1 C8 1.247 . S
O2 Co0 2.091 . S
O2 C8 1.261 . S
C3 O12 1.247 . S
C3 O13 1.272 . S
O4 Co0 2.004 . S
O4 C9 1.259 . S
Co5 O6 2.061 . S
Co5 O11 2.052 . S
Co5 O13 2.135 . S
O6 Co5 2.061 . S
O6 C9 1.235 . S
C7 O10 1.238 . S
C7 O11 1.241 . S
C8 O1 1.247 . S
C8 O2 1.261 . S
C9 O4 1.259 . S
C9 O6 1.235 . S
O10 Co0 2.021 . S
O10 C7 1.238 . S
O11 Co5 2.052 . S
O11 C7 1.241 . S
O12 Co0 2.137 . S
O12 C3 1.247 . S
O13 Co0 2.244 . S
O13 C3 1.272 . S
O13 Co5 2.135 . S
Co14 O15 2.216 . S
Co14 O16 2.091 . S
Co14 O18 2.004 . S
Co14 O24 2.021 . S
Co14 O26 2.137 . S
Co14 O27 2.244 . S
O15 Co14 2.216 . S
O15 C22 1.247 . S
O16 Co14 2.091 . S
O16 C22 1.261 . S
C17 O26 1.247 . S
C17 O27 1.272 . S
O18 Co14 2.004 . S
O18 C23 1.259 . S
Co19 O20 2.061 . S
Co19 O25 2.052 . S
Co19 O27 2.135 . S
O20 Co19 2.061 . S
O20 C23 1.235 . S
C21 O24 1.238 . S
C21 O25 1.241 . S
C22 O15 1.247 . S
C22 O16 1.261 . S
C23 O18 1.259 . S
C23 O20 1.235 . S
O24 Co14 2.021 . S
O24 C21 1.238 . S
O25 Co19 2.052 . S
O25 C21 1.241 . S
O26 Co14 2.137 . S
O26 C17 1.247 . S
O27 Co14 2.244 . S
O27 C17 1.272 . S
O27 Co19 2.135 . S
Co28 O29 2.216 . S
Co28 O30 2.091 . S
Co28 O32 2.004 . S
Co28 O38 2.021 . S
Co28 O40 2.137 . S
Co28 O41 2.244 . S
O29 Co28 2.216 . S
O29 C36 1.247 . S
O30 Co28 2.091 . S
O30 C36 1.261 . S
C31 O40 1.247 . S
C31 O41 1.272 . S
O32 Co28 2.004 . S
O32 C37 1.259 . S
Co33 O34 2.061 . S
Co33 O39 2.052 . S
Co33 O41 2.135 . S
O34 Co33 2.061 . S
O34 C37 1.235 . S
C35 O38 1.238 . S
C35 O39 1.241 . S
C36 O29 1.247 . S
C36 O30 1.261 . S
C37 O32 1.259 . S
C37 O34 1.235 . S
O38 Co28 2.021 . S
O38 C35 1.238 . S
O39 Co33 2.052 . S
O39 C35 1.241 . S
O40 Co28 2.137 . S
O40 C31 1.247 . S
O41 Co28 2.244 . S
O41 C31 1.272 . S
O41 Co33 2.135 . S
Co42 O43 2.216 . S
Co42 O44 2.091 . S
Co42 O46 2.004 . S
Co42 O52 2.021 . S
Co42 O54 2.137 . S
Co42 O55 2.244 . S
O43 Co42 2.216 . S
O43 C50 1.247 . S
O44 Co42 2.091 . S
O44 C50 1.261 . S
C45 O54 1.247 . S
C45 O55 1.272 . S
O46 Co42 2.004 . S
O46 C51 1.259 . S
Co47 O48 2.061 . S
Co47 O53 2.052 . S
Co47 O55 2.135 . S
O48 Co47 2.061 . S
O48 C51 1.235 . S
C49 O52 1.238 . S
C49 O53 1.241 . S
C50 O43 1.247 . S
C50 O44 1.261 . S
C51 O46 1.259 . S
C51 O48 1.235 . S
O52 Co42 2.021 . S
O52 C49 1.238 . S
O53 Co47 2.052 . S
O53 C49 1.241 . S
O54 Co42 2.137 . S
O54 C45 1.247 . S
O55 Co42 2.244 . S
O55 C45 1.272 . S
O55 Co47 2.135 . S
Co56 O57 2.216 . S
Co56 O58 2.091 . S
Co56 O60 2.004 . S
Co56 O66 2.021 . S
Co56 O68 2.137 . S
Co56 O69 2.244 . S
O57 Co56 2.216 . S
O57 C64 1.247 . S
O58 Co56 2.091 . S
O58 C64 1.261 . S
C59 O68 1.247 . S
C59 O69 1.272 . S
O60 Co56 2.004 . S
O60 C65 1.259 . S
Co61 O62 2.061 . S
Co61 O67 2.052 . S
Co61 O69 2.135 . S
O62 Co61 2.061 . S
O62 C65 1.235 . S
C63 O66 1.238 . S
C63 O67 1.241 . S
C64 O57 1.247 . S
C64 O58 1.261 . S
C65 O60 1.259 . S
C65 O62 1.235 . S
O66 Co56 2.021 . S
O66 C63 1.238 . S
O67 Co61 2.052 . S
O67 C63 1.241 . S
O68 Co56 2.137 . S
O68 C59 1.247 . S
O69 Co56 2.244 . S
O69 C59 1.272 . S
O69 Co61 2.135 . S
Co70 O71 2.216 . S
Co70 O72 2.091 . S
Co70 O74 2.004 . S
Co70 O80 2.021 . S
Co70 O82 2.137 . S
Co70 O83 2.244 . S
O71 Co70 2.216 . S
O71 C78 1.247 . S
O72 Co70 2.091 . S
O72 C78 1.261 . S
C73 O82 1.247 . S
C73 O83 1.272 . S
O74 Co70 2.004 . S
O74 C79 1.259 . S
Co75 O76 2.061 . S
Co75 O81 2.052 . S
Co75 O83 2.135 . S
O76 Co75 2.061 . S
O76 C79 1.235 . S
C77 O80 1.238 . S
C77 O81 1.241 . S
C78 O71 1.247 . S
C78 O72 1.261 . S
C79 O74 1.259 . S
C79 O76 1.235 . S
O80 Co70 2.021 . S
O80 C77 1.238 . S
O81 Co75 2.052 . S
O81 C77 1.241 . S
O82 Co70 2.137 . S
O82 C73 1.247 . S
O83 Co70 2.244 . S
O83 C73 1.272 . S
O83 Co75 2.135 . S
Co84 O85 2.216 . S
Co84 O86 2.091 . S
Co84 O88 2.004 . S
Co84 O94 2.021 . S
Co84 O96 2.137 . S
Co84 O97 2.244 . S
O85 Co84 2.216 . S
O85 C92 1.247 . S
O86 Co84 2.091 . S
O86 C92 1.261 . S
C87 O96 1.247 . S
C87 O97 1.272 . S
O88 Co84 2.004 . S
O88 C93 1.259 . S
Co89 O90 2.061 . S
Co89 O95 2.052 . S
Co89 O97 2.135 . S
O90 Co89 2.061 . S
O90 C93 1.235 . S
C91 O94 1.238 . S
C91 O95 1.241 . S
C92 O85 1.247 . S
C92 O86 1.261 . S
C93 O88 1.259 . S
C93 O90 1.235 . S
O94 Co84 2.021 . S
O94 C91 1.238 . S
O95 Co89 2.052 . S
O95 C91 1.241 . S
O96 Co84 2.137 . S
O96 C87 1.247 . S
O97 Co84 2.244 . S
O97 C87 1.272 . S
O97 Co89 2.135 . S
Co98 O99 2.216 . S
Co98 O100 2.091 . S
Co98 O102 2.004 . S
Co98 O108 2.021 . S
Co98 O110 2.137 . S
Co98 O111 2.244 . S
O99 Co98 2.216 . S
O99 C106 1.247 . S
O100 Co98 2.091 . S
O100 C106 1.261 . S
C101 O110 1.247 . S
C101 O111 1.272 . S
O102 Co98 2.004 . S
O102 C107 1.259 . S
Co103 O104 2.061 . S
Co103 O109 2.052 . S
Co103 O111 2.135 . S
O104 Co103 2.061 . S
O104 C107 1.235 . S
C105 O108 1.238 . S
C105 O109 1.241 . S
C106 O99 1.247 . S
C106 O100 1.261 . S
C107 O102 1.259 . S
C107 O104 1.235 . S
O108 Co98 2.021 . S
O108 C105 1.238 . S
O109 Co103 2.052 . S
O109 C105 1.241 . S
O110 Co98 2.137 . S
O110 C101 1.247 . S
O111 Co98 2.244 . S
O111 C101 1.272 . S
O111 Co103 2.135 . S
Co112 O113 2.216 . S
Co112 O114 2.091 . S
Co112 O116 2.004 . S
Co112 O122 2.021 . S
Co112 O124 2.137 . S
Co112 O125 2.244 . S
O113 Co112 2.216 . S
O113 C120 1.247 . S
O114 Co112 2.091 . S
O114 C120 1.261 . S
C115 O124 1.247 . S
C115 O125 1.272 . S
O116 Co112 2.004 . S
O116 C121 1.259 . S
Co117 O118 2.061 . S
Co117 O123 2.052 . S
Co117 O125 2.135 . S
O118 Co117 2.061 . S
O118 C121 1.235 . S
C119 O122 1.238 . S
C119 O123 1.241 . S
C120 O113 1.247 . S
C120 O114 1.261 . S
C121 O116 1.259 . S
C121 O118 1.235 . S
O122 Co112 2.021 . S
O122 C119 1.238 . S
O123 Co117 2.052 . S
O123 C119 1.241 . S
O124 Co112 2.137 . S
O124 C115 1.247 . S
O125 Co112 2.244 . S
O125 C115 1.272 . S
O125 Co117 2.135 . S
Co126 O127 2.216 . S
Co126 O128 2.091 . S
Co126 O130 2.004 . S
Co126 O136 2.021 . S
Co126 O138 2.137 . S
Co126 O139 2.244 . S
O127 Co126 2.216 . S
O127 C134 1.247 . S
O128 Co126 2.091 . S
O128 C134 1.261 . S
C129 O138 1.247 . S
C129 O139 1.272 . S
O130 Co126 2.004 . S
O130 C135 1.259 . S
Co131 O132 2.061 . S
Co131 O137 2.052 . S
Co131 O139 2.135 . S
O132 Co131 2.061 . S
O132 C135 1.235 . S
C133 O136 1.238 . S
C133 O137 1.241 . S
C134 O127 1.247 . S
C134 O128 1.261 . S
C135 O130 1.259 . S
C135 O132 1.235 . S
O136 Co126 2.021 . S
O136 C133 1.238 . S
O137 Co131 2.052 . S
O137 C133 1.241 . S
O138 Co126 2.137 . S
O138 C129 1.247 . S
O139 Co126 2.244 . S
O139 C129 1.272 . S
O139 Co131 2.135 . S
Co140 O141 2.216 . S
Co140 O142 2.091 . S
Co140 O144 2.004 . S
Co140 O150 2.021 . S
Co140 O152 2.137 . S
Co140 O153 2.244 . S
O141 Co140 2.216 . S
O141 C148 1.247 . S
O142 Co140 2.091 . S
O142 C148 1.261 . S
C143 O152 1.247 . S
C143 O153 1.272 . S
O144 Co140 2.004 . S
O144 C149 1.259 . S
Co145 O146 2.061 . S
Co145 O151 2.052 . S
Co145 O153 2.135 . S
O146 Co145 2.061 . S
O146 C149 1.235 . S
C147 O150 1.238 . S
C147 O151 1.241 . S
C148 O141 1.247 . S
C148 O142 1.261 . S
C149 O144 1.259 . S
C149 O146 1.235 . S
O150 Co140 2.021 . S
O150 C147 1.238 . S
O151 Co145 2.052 . S
O151 C147 1.241 . S
O152 Co140 2.137 . S
O152 C143 1.247 . S
O153 Co140 2.244 . S
O153 C143 1.272 . S
O153 Co145 2.135 . S
Co154 O155 2.216 . S
Co154 O156 2.091 . S
Co154 O158 2.004 . S
Co154 O164 2.021 . S
Co154 O166 2.137 . S
Co154 O167 2.244 . S
O155 Co154 2.216 . S
O155 C162 1.247 . S
O156 Co154 2.091 . S
O156 C162 1.261 . S
C157 O166 1.247 . S
C157 O167 1.272 . S
O158 Co154 2.004 . S
O158 C163 1.259 . S
Co159 O160 2.061 . S
Co159 O165 2.052 . S
Co159 O167 2.135 . S
O160 Co159 2.061 . S
O160 C163 1.235 . S
C161 O164 1.238 . S
C161 O165 1.241 . S
C162 O155 1.247 . S
C162 O156 1.261 . S
C163 O158 1.259 . S
C163 O160 1.235 . S
O164 Co154 2.021 . S
O164 C161 1.238 . S
O165 Co159 2.052 . S
O165 C161 1.241 . S
O166 Co154 2.137 . S
O166 C157 1.247 . S
O167 Co154 2.244 . S
O167 C157 1.272 . S
O167 Co159 2.135 . S
Co168 O169 2.216 . S
Co168 O170 2.091 . S
Co168 O172 2.004 . S
Co168 O178 2.021 . S
Co168 O180 2.137 . S
Co168 O181 2.244 . S
O169 Co168 2.216 . S
O169 C176 1.247 . S
O170 Co168 2.091 . S
O170 C176 1.261 . S
C171 O180 1.247 . S
C171 O181 1.272 . S
O172 Co168 2.004 . S
O172 C177 1.259 . S
Co173 O174 2.061 . S
Co173 O179 2.052 . S
Co173 O181 2.135 . S
O174 Co173 2.061 . S
O174 C177 1.235 . S
C175 O178 1.238 . S
C175 O179 1.241 . S
C176 O169 1.247 . S
C176 O170 1.261 . S
C177 O172 1.259 . S
C177 O174 1.235 . S
O178 Co168 2.021 . S
O178 C175 1.238 . S
O179 Co173 2.052 . S
O179 C175 1.241 . S
O180 Co168 2.137 . S
O180 C171 1.247 . S
O181 Co168 2.244 . S
O181 C171 1.272 . S
O181 Co173 2.135 . S
Co182 O183 2.216 . S
Co182 O184 2.091 . S
Co182 O186 2.004 . S
Co182 O192 2.021 . S
Co182 O194 2.137 . S
Co182 O195 2.244 . S
O183 Co182 2.216 . S
O183 C190 1.247 . S
O184 Co182 2.091 . S
O184 C190 1.261 . S
C185 O194 1.247 . S
C185 O195 1.272 . S
O186 Co182 2.004 . S
O186 C191 1.259 . S
Co187 O188 2.061 . S
Co187 O193 2.052 . S
Co187 O195 2.135 . S
O188 Co187 2.061 . S
O188 C191 1.235 . S
C189 O192 1.238 . S
C189 O193 1.241 . S
C190 O183 1.247 . S
C190 O184 1.261 . S
C191 O186 1.259 . S
C191 O188 1.235 . S
O192 Co182 2.021 . S
O192 C189 1.238 . S
O193 Co187 2.052 . S
O193 C189 1.241 . S
O194 Co182 2.137 . S
O194 C185 1.247 . S
O195 Co182 2.244 . S
O195 C185 1.272 . S
O195 Co187 2.135 . S
Co196 O197 2.216 . S
Co196 O198 2.091 . S
Co196 O200 2.004 . S
Co196 O206 2.021 . S
Co196 O208 2.137 . S
Co196 O209 2.244 . S
O197 Co196 2.216 . S
O197 C204 1.247 . S
O198 Co196 2.091 . S
O198 C204 1.261 . S
C199 O208 1.247 . S
C199 O209 1.272 . S
O200 Co196 2.004 . S
O200 C205 1.259 . S
Co201 O202 2.061 . S
Co201 O207 2.052 . S
Co201 O209 2.135 . S
O202 Co201 2.061 . S
O202 C205 1.235 . S
C203 O206 1.238 . S
C203 O207 1.241 . S
C204 O197 1.247 . S
C204 O198 1.261 . S
C205 O200 1.259 . S
C205 O202 1.235 . S
O206 Co196 2.021 . S
O206 C203 1.238 . S
O207 Co201 2.052 . S
O207 C203 1.241 . S
O208 Co196 2.137 . S
O208 C199 1.247 . S
O209 Co196 2.244 . S
O209 C199 1.272 . S
O209 Co201 2.135 . S
Co210 O211 2.216 . S
Co210 O212 2.091 . S
Co210 O214 2.004 . S
Co210 O220 2.021 . S
Co210 O222 2.137 . S
Co210 O223 2.244 . S
O211 Co210 2.216 . S
O211 C218 1.247 . S
O212 Co210 2.091 . S
O212 C218 1.261 . S
C213 O222 1.247 . S
C213 O223 1.272 . S
O214 Co210 2.004 . S
O214 C219 1.259 . S
Co215 O216 2.061 . S
Co215 O221 2.052 . S
Co215 O223 2.135 . S
O216 Co215 2.061 . S
O216 C219 1.235 . S
C217 O220 1.238 . S
C217 O221 1.241 . S
C218 O211 1.247 . S
C218 O212 1.261 . S
C219 O214 1.259 . S
C219 O216 1.235 . S
O220 Co210 2.021 . S
O220 C217 1.238 . S
O221 Co215 2.052 . S
O221 C217 1.241 . S
O222 Co210 2.137 . S
O222 C213 1.247 . S
O223 Co210 2.244 . S
O223 C213 1.272 . S
O223 Co215 2.135 . S
H224 C236 0.930 . S
H225 C238 0.930 . S
H226 C239 0.930 . S
H227 C243 0.959 . S
H228 C243 0.959 . S
H229 C243 0.961 . S
H230 C244 0.960 . S
H231 C244 0.961 . S
H232 C244 0.959 . S
H233 C247 0.929 . S
H234 C248 0.931 . S
H235 C250 0.930 . S
C236 H224 0.930 . S
C236 C237 1.399 . S
C236 C241 1.399 . S
C237 C236 1.399 . S
C237 C238 1.376 . S
C238 H225 0.930 . S
C238 C237 1.376 . S
C238 C239 1.388 . S
C239 H226 0.930 . S
C239 C238 1.388 . S
C239 C240 1.390 . S
C240 C239 1.390 . S
C240 C241 1.394 . S
C240 C246 1.465 . S
C241 C236 1.399 . S
C241 C240 1.394 . S
C241 C242 1.516 . S
C242 C241 1.516 . S
C242 C243 1.502 . S
C242 C244 1.561 . S
C242 C245 1.526 . S
C243 H227 0.959 . S
C243 H228 0.959 . S
C243 H229 0.961 . S
C243 C242 1.502 . S
C244 H230 0.960 . S
C244 H231 0.961 . S
C244 H232 0.959 . S
C244 C242 1.561 . S
C245 C242 1.526 . S
C245 C246 1.396 . S
C245 C250 1.390 . S
C246 C240 1.465 . S
C246 C245 1.396 . S
C246 C247 1.399 . S
C247 H233 0.929 . S
C247 C246 1.399 . S
C247 C248 1.385 . S
C248 H234 0.931 . S
C248 C247 1.385 . S
C248 C249 1.389 . S
C249 C248 1.389 . S
C249 C250 1.387 . S
C250 H235 0.930 . S
C250 C245 1.390 . S
C250 C249 1.387 . S
H251 C263 0.930 . S
H252 C265 0.930 . S
H253 C266 0.930 . S
H254 C270 0.959 . S
H255 C270 0.959 . S
H256 C270 0.961 . S
H257 C271 0.960 . S
H258 C271 0.961 . S
H259 C271 0.959 . S
H260 C274 0.929 . S
H261 C275 0.931 . S
H262 C277 0.930 . S
C263 H251 0.930 . S
C263 C264 1.399 . S
C263 C268 1.399 . S
C264 C263 1.399 . S
C264 C265 1.376 . S
C265 H252 0.930 . S
C265 C264 1.376 . S
C265 C266 1.388 . S
C266 H253 0.930 . S
C266 C265 1.388 . S
C266 C267 1.390 . S
C267 C266 1.390 . S
C267 C268 1.394 . S
C267 C273 1.465 . S
C268 C263 1.399 . S
C268 C267 1.394 . S
C268 C269 1.516 . S
C269 C268 1.516 . S
C269 C270 1.502 . S
C269 C271 1.561 . S
C269 C272 1.526 . S
C270 H254 0.959 . S
C270 H255 0.959 . S
C270 H256 0.961 . S
C270 C269 1.502 . S
C271 H257 0.960 . S
C271 H258 0.961 . S
C271 H259 0.959 . S
C271 C269 1.561 . S
C272 C269 1.526 . S
C272 C273 1.396 . S
C272 C277 1.390 . S
C273 C267 1.465 . S
C273 C272 1.396 . S
C273 C274 1.399 . S
C274 H260 0.929 . S
C274 C273 1.399 . S
C274 C275 1.385 . S
C275 H261 0.931 . S
C275 C274 1.385 . S
C275 C276 1.389 . S
C276 C275 1.389 . S
C276 C277 1.387 . S
C277 H262 0.930 . S
C277 C272 1.390 . S
C277 C276 1.387 . S
H278 C290 0.930 . S
H279 C292 0.930 . S
H280 C293 0.930 . S
H281 C297 0.959 . S
H282 C297 0.959 . S
H283 C297 0.961 . S
H284 C298 0.960 . S
H285 C298 0.961 . S
H286 C298 0.959 . S
H287 C301 0.929 . S
H288 C302 0.931 . S
H289 C304 0.930 . S
C290 H278 0.930 . S
C290 C291 1.399 . S
C290 C295 1.399 . S
C291 C290 1.399 . S
C291 C292 1.376 . S
C292 H279 0.930 . S
C292 C291 1.376 . S
C292 C293 1.388 . S
C293 H280 0.930 . S
C293 C292 1.388 . S
C293 C294 1.390 . S
C294 C293 1.390 . S
C294 C295 1.394 . S
C294 C300 1.465 . S
C295 C290 1.399 . S
C295 C294 1.394 . S
C295 C296 1.516 . S
C296 C295 1.516 . S
C296 C297 1.502 . S
C296 C298 1.561 . S
C296 C299 1.526 . S
C297 H281 0.959 . S
C297 H282 0.959 . S
C297 H283 0.961 . S
C297 C296 1.502 . S
C298 H284 0.960 . S
C298 H285 0.961 . S
C298 H286 0.959 . S
C298 C296 1.561 . S
C299 C296 1.526 . S
C299 C300 1.396 . S
C299 C304 1.390 . S
C300 C294 1.465 . S
C300 C299 1.396 . S
C300 C301 1.399 . S
C301 H287 0.929 . S
C301 C300 1.399 . S
C301 C302 1.385 . S
C302 H288 0.931 . S
C302 C301 1.385 . S
C302 C303 1.389 . S
C303 C302 1.389 . S
C303 C304 1.387 . S
C304 H289 0.930 . S
C304 C299 1.390 . S
C304 C303 1.387 . S
H305 C317 0.930 . S
H306 C319 0.930 . S
H307 C320 0.930 . S
H308 C324 0.959 . S
H309 C324 0.959 . S
H310 C324 0.961 . S
H311 C325 0.960 . S
H312 C325 0.961 . S
H313 C325 0.959 . S
H314 C328 0.929 . S
H315 C329 0.931 . S
H316 C331 0.930 . S
C317 H305 0.930 . S
C317 C318 1.399 . S
C317 C322 1.399 . S
C318 C317 1.399 . S
C318 C319 1.376 . S
C319 H306 0.930 . S
C319 C318 1.376 . S
C319 C320 1.388 . S
C320 H307 0.930 . S
C320 C319 1.388 . S
C320 C321 1.390 . S
C321 C320 1.390 . S
C321 C322 1.394 . S
C321 C327 1.465 . S
C322 C317 1.399 . S
C322 C321 1.394 . S
C322 C323 1.516 . S
C323 C322 1.516 . S
C323 C324 1.502 . S
C323 C325 1.561 . S
C323 C326 1.526 . S
C324 H308 0.959 . S
C324 H309 0.959 . S
C324 H310 0.961 . S
C324 C323 1.502 . S
C325 H311 0.960 . S
C325 H312 0.961 . S
C325 H313 0.959 . S
C325 C323 1.561 . S
C326 C323 1.526 . S
C326 C327 1.396 . S
C326 C331 1.390 . S
C327 C321 1.465 . S
C327 C326 1.396 . S
C327 C328 1.399 . S
C328 H314 0.929 . S
C328 C327 1.399 . S
C328 C329 1.385 . S
C329 H315 0.931 . S
C329 C328 1.385 . S
C329 C330 1.389 . S
C330 C329 1.389 . S
C330 C331 1.387 . S
C331 H316 0.930 . S
C331 C326 1.390 . S
C331 C330 1.387 . S
H332 C344 0.930 . S
H333 C346 0.930 . S
H334 C347 0.930 . S
H335 C351 0.959 . S
H336 C351 0.959 . S
H337 C351 0.961 . S
H338 C352 0.960 . S
H339 C352 0.961 . S
H340 C352 0.959 . S
H341 C355 0.929 . S
H342 C356 0.931 . S
H343 C358 0.930 . S
C344 H332 0.930 . S
C344 C345 1.399 . S
C344 C349 1.399 . S
C345 C344 1.399 . S
C345 C346 1.376 . S
C346 H333 0.930 . S
C346 C345 1.376 . S
C346 C347 1.388 . S
C347 H334 0.930 . S
C347 C346 1.388 . S
C347 C348 1.390 . S
C348 C347 1.390 . S
C348 C349 1.394 . S
C348 C354 1.465 . S
C349 C344 1.399 . S
C349 C348 1.394 . S
C349 C350 1.516 . S
C350 C349 1.516 . S
C350 C351 1.502 . S
C350 C352 1.561 . S
C350 C353 1.526 . S
C351 H335 0.959 . S
C351 H336 0.959 . S
C351 H337 0.961 . S
C351 C350 1.502 . S
C352 H338 0.960 . S
C352 H339 0.961 . S
C352 H340 0.959 . S
C352 C350 1.561 . S
C353 C350 1.526 . S
C353 C354 1.396 . S
C353 C358 1.390 . S
C354 C348 1.465 . S
C354 C353 1.396 . S
C354 C355 1.399 . S
C355 H341 0.929 . S
C355 C354 1.399 . S
C355 C356 1.385 . S
C356 H342 0.931 . S
C356 C355 1.385 . S
C356 C357 1.389 . S
C357 C356 1.389 . S
C357 C358 1.387 . S
C358 H343 0.930 . S
C358 C353 1.390 . S
C358 C357 1.387 . S
H359 C371 0.930 . S
H360 C373 0.930 . S
H361 C374 0.930 . S
H362 C378 0.959 . S
H363 C378 0.959 . S
H364 C378 0.961 . S
H365 C379 0.960 . S
H366 C379 0.961 . S
H367 C379 0.959 . S
H368 C382 0.929 . S
H369 C383 0.931 . S
H370 C385 0.930 . S
C371 H359 0.930 . S
C371 C372 1.399 . S
C371 C376 1.399 . S
C372 C371 1.399 . S
C372 C373 1.376 . S
C373 H360 0.930 . S
C373 C372 1.376 . S
C373 C374 1.388 . S
C374 H361 0.930 . S
C374 C373 1.388 . S
C374 C375 1.390 . S
C375 C374 1.390 . S
C375 C376 1.394 . S
C375 C381 1.465 . S
C376 C371 1.399 . S
C376 C375 1.394 . S
C376 C377 1.516 . S
C377 C376 1.516 . S
C377 C378 1.502 . S
C377 C379 1.561 . S
C377 C380 1.526 . S
C378 H362 0.959 . S
C378 H363 0.959 . S
C378 H364 0.961 . S
C378 C377 1.502 . S
C379 H365 0.960 . S
C379 H366 0.961 . S
C379 H367 0.959 . S
C379 C377 1.561 . S
C380 C377 1.526 . S
C380 C381 1.396 . S
C380 C385 1.390 . S
C381 C375 1.465 . S
C381 C380 1.396 . S
C381 C382 1.399 . S
C382 H368 0.929 . S
C382 C381 1.399 . S
C382 C383 1.385 . S
C383 H369 0.931 . S
C383 C382 1.385 . S
C383 C384 1.389 . S
C384 C383 1.389 . S
C384 C385 1.387 . S
C385 H370 0.930 . S
C385 C380 1.390 . S
C385 C384 1.387 . S
H386 C398 0.930 . S
H387 C400 0.930 . S
H388 C401 0.930 . S
H389 C405 0.959 . S
H390 C405 0.959 . S
H391 C405 0.961 . S
H392 C406 0.960 . S
H393 C406 0.961 . S
H394 C406 0.959 . S
H395 C409 0.929 . S
H396 C410 0.931 . S
H397 C412 0.930 . S
C398 H386 0.930 . S
C398 C399 1.399 . S
C398 C403 1.399 . S
C399 C398 1.399 . S
C399 C400 1.376 . S
C400 H387 0.930 . S
C400 C399 1.376 . S
C400 C401 1.388 . S
C401 H388 0.930 . S
C401 C400 1.388 . S
C401 C402 1.390 . S
C402 C401 1.390 . S
C402 C403 1.394 . S
C402 C408 1.465 . S
C403 C398 1.399 . S
C403 C402 1.394 . S
C403 C404 1.516 . S
C404 C403 1.516 . S
C404 C405 1.502 . S
C404 C406 1.561 . S
C404 C407 1.526 . S
C405 H389 0.959 . S
C405 H390 0.959 . S
C405 H391 0.961 . S
C405 C404 1.502 . S
C406 H392 0.960 . S
C406 H393 0.961 . S
C406 H394 0.959 . S
C406 C404 1.561 . S
C407 C404 1.526 . S
C407 C408 1.396 . S
C407 C412 1.390 . S
C408 C402 1.465 . S
C408 C407 1.396 . S
C408 C409 1.399 . S
C409 H395 0.929 . S
C409 C408 1.399 . S
C409 C410 1.385 . S
C410 H396 0.931 . S
C410 C409 1.385 . S
C410 C411 1.389 . S
C411 C410 1.389 . S
C411 C412 1.387 . S
C412 H397 0.930 . S
C412 C407 1.390 . S
C412 C411 1.387 . S
H413 C425 0.930 . S
H414 C427 0.930 . S
H415 C428 0.930 . S
H416 C432 0.959 . S
H417 C432 0.959 . S
H418 C432 0.961 . S
H419 C433 0.960 . S
H420 C433 0.961 . S
H421 C433 0.959 . S
H422 C436 0.929 . S
H423 C437 0.931 . S
H424 C439 0.930 . S
C425 H413 0.930 . S
C425 C426 1.399 . S
C425 C430 1.399 . S
C426 C425 1.399 . S
C426 C427 1.376 . S
C427 H414 0.930 . S
C427 C426 1.376 . S
C427 C428 1.388 . S
C428 H415 0.930 . S
C428 C427 1.388 . S
C428 C429 1.390 . S
C429 C428 1.390 . S
C429 C430 1.394 . S
C429 C435 1.465 . S
C430 C425 1.399 . S
C430 C429 1.394 . S
C430 C431 1.516 . S
C431 C430 1.516 . S
C431 C432 1.502 . S
C431 C433 1.561 . S
C431 C434 1.526 . S
C432 H416 0.959 . S
C432 H417 0.959 . S
C432 H418 0.961 . S
C432 C431 1.502 . S
C433 H419 0.960 . S
C433 H420 0.961 . S
C433 H421 0.959 . S
C433 C431 1.561 . S
C434 C431 1.526 . S
C434 C435 1.396 . S
C434 C439 1.390 . S
C435 C429 1.465 . S
C435 C434 1.396 . S
C435 C436 1.399 . S
C436 H422 0.929 . S
C436 C435 1.399 . S
C436 C437 1.385 . S
C437 H423 0.931 . S
C437 C436 1.385 . S
C437 C438 1.389 . S
C438 C437 1.389 . S
C438 C439 1.387 . S
C439 H424 0.930 . S
C439 C434 1.390 . S
C439 C438 1.387 . S
H440 C452 0.930 . S
H441 C454 0.930 . S
H442 C455 0.930 . S
H443 C459 0.959 . S
H444 C459 0.959 . S
H445 C459 0.961 1_556 S
H446 C460 0.960 1_556 S
H447 C460 0.961 . S
H448 C460 0.959 . S
H449 C463 0.929 . S
H450 C464 0.931 . S
H451 C466 0.930 . S
C452 H440 0.930 . S
C452 C453 1.399 . S
C452 C457 1.399 . S
C453 C452 1.399 . S
C453 C454 1.376 . S
C454 H441 0.930 . S
C454 C453 1.376 . S
C454 C455 1.388 . S
C455 H442 0.930 . S
C455 C454 1.388 . S
C455 C456 1.390 . S
C456 C455 1.390 . S
C456 C457 1.394 . S
C456 C462 1.465 1_556 S
C457 C452 1.399 . S
C457 C456 1.394 . S
C457 C458 1.516 1_556 S
C458 C457 1.516 1_554 S
C458 C459 1.502 . S
C458 C460 1.561 . S
C458 C461 1.526 . S
C459 H443 0.959 . S
C459 H444 0.959 . S
C459 H445 0.961 1_554 S
C459 C458 1.502 . S
C460 H446 0.960 1_554 S
C460 H447 0.961 . S
C460 H448 0.959 . S
C460 C458 1.561 . S
C461 C458 1.526 . S
C461 C462 1.396 . S
C461 C466 1.390 . S
C462 C456 1.465 1_554 S
C462 C461 1.396 . S
C462 C463 1.399 . S
C463 H449 0.929 . S
C463 C462 1.399 . S
C463 C464 1.385 . S
C464 H450 0.931 . S
C464 C463 1.385 . S
C464 C465 1.389 . S
C465 C464 1.389 . S
C465 C466 1.387 . S
C466 H451 0.930 . S
C466 C461 1.390 . S
C466 C465 1.387 . S
H467 C479 0.930 . S
H468 C481 0.930 . S
H469 C482 0.930 . S
H470 C486 0.959 . S
H471 C486 0.959 . S
H472 C486 0.961 1_556 S
H473 C487 0.960 1_556 S
H474 C487 0.961 . S
H475 C487 0.959 . S
H476 C490 0.929 . S
H477 C491 0.931 . S
H478 C493 0.930 . S
C479 H467 0.930 . S
C479 C480 1.399 . S
C479 C484 1.399 . S
C480 C479 1.399 . S
C480 C481 1.376 . S
C481 H468 0.930 . S
C481 C480 1.376 . S
C481 C482 1.388 . S
C482 H469 0.930 . S
C482 C481 1.388 . S
C482 C483 1.390 . S
C483 C482 1.390 . S
C483 C484 1.394 . S
C483 C489 1.465 1_556 S
C484 C479 1.399 . S
C484 C483 1.394 . S
C484 C485 1.516 1_556 S
C485 C484 1.516 1_554 S
C485 C486 1.502 . S
C485 C487 1.561 . S
C485 C488 1.526 . S
C486 H470 0.959 . S
C486 H471 0.959 . S
C486 H472 0.961 1_554 S
C486 C485 1.502 . S
C487 H473 0.960 1_554 S
C487 H474 0.961 . S
C487 H475 0.959 . S
C487 C485 1.561 . S
C488 C485 1.526 . S
C488 C489 1.396 . S
C488 C493 1.390 . S
C489 C483 1.465 1_554 S
C489 C488 1.396 . S
C489 C490 1.399 . S
C490 H476 0.929 . S
C490 C489 1.399 . S
C490 C491 1.385 . S
C491 H477 0.931 . S
C491 C490 1.385 . S
C491 C492 1.389 . S
C492 C491 1.389 . S
C492 C493 1.387 . S
C493 H478 0.930 . S
C493 C488 1.390 . S
C493 C492 1.387 . S
H494 C506 0.930 . S
H495 C508 0.930 . S
H496 C509 0.930 . S
H497 C513 0.959 . S
H498 C513 0.959 . S
H499 C513 0.961 1_556 S
H500 C514 0.960 1_556 S
H501 C514 0.961 . S
H502 C514 0.959 . S
H503 C517 0.929 . S
H504 C518 0.931 . S
H505 C520 0.930 . S
C506 H494 0.930 . S
C506 C507 1.399 . S
C506 C511 1.399 . S
C507 C506 1.399 . S
C507 C508 1.376 . S
C508 H495 0.930 . S
C508 C507 1.376 . S
C508 C509 1.388 . S
C509 H496 0.930 . S
C509 C508 1.388 . S
C509 C510 1.390 . S
C510 C509 1.390 . S
C510 C511 1.394 . S
C510 C516 1.465 1_556 S
C511 C506 1.399 . S
C511 C510 1.394 . S
C511 C512 1.516 1_556 S
C512 C511 1.516 1_554 S
C512 C513 1.502 . S
C512 C514 1.561 . S
C512 C515 1.526 . S
C513 H497 0.959 . S
C513 H498 0.959 . S
C513 H499 0.961 1_554 S
C513 C512 1.502 . S
C514 H500 0.960 1_554 S
C514 H501 0.961 . S
C514 H502 0.959 . S
C514 C512 1.561 . S
C515 C512 1.526 . S
C515 C516 1.396 . S
C515 C520 1.390 . S
C516 C510 1.465 1_554 S
C516 C515 1.396 . S
C516 C517 1.399 . S
C517 H503 0.929 . S
C517 C516 1.399 . S
C517 C518 1.385 . S
C518 H504 0.931 . S
C518 C517 1.385 . S
C518 C519 1.389 . S
C519 C518 1.389 . S
C519 C520 1.387 . S
C520 H505 0.930 . S
C520 C515 1.390 . S
C520 C519 1.387 . S
H521 C533 0.930 . S
H522 C535 0.930 . S
H523 C536 0.930 . S
H524 C540 0.959 . S
H525 C540 0.959 1_556 S
H526 C540 0.961 . S
H527 C541 0.960 . S
H528 C541 0.961 1_556 S
H529 C541 0.958 1_556 S
H530 C544 0.929 . S
H531 C545 0.931 . S
H532 C547 0.930 . S
C533 H521 0.930 . S
C533 C534 1.399 . S
C533 C538 1.399 . S
C534 C533 1.399 . S
C534 C535 1.376 . S
C535 H522 0.930 . S
C535 C534 1.376 . S
C535 C536 1.388 . S
C536 H523 0.930 . S
C536 C535 1.388 . S
C536 C537 1.390 . S
C537 C536 1.390 . S
C537 C538 1.394 . S
C537 C543 1.465 1_554 S
C538 C533 1.399 . S
C538 C537 1.394 . S
C538 C539 1.516 . S
C539 C538 1.516 . S
C539 C540 1.502 . S
C539 C541 1.561 . S
C539 C542 1.526 1_554 S
C540 H524 0.959 . S
C540 H525 0.959 1_554 S
C540 H526 0.961 . S
C540 C539 1.502 . S
C541 H527 0.960 . S
C541 H528 0.961 1_554 S
C541 H529 0.958 1_554 S
C541 C539 1.561 . S
C542 C539 1.526 1_556 S
C542 C543 1.396 . S
C542 C547 1.390 . S
C543 C537 1.465 1_556 S
C543 C542 1.396 . S
C543 C544 1.399 . S
C544 H530 0.929 . S
C544 C543 1.399 . S
C544 C545 1.385 . S
C545 H531 0.931 . S
C545 C544 1.385 . S
C545 C546 1.389 . S
C546 C545 1.389 . S
C546 C547 1.387 . S
C547 H532 0.930 . S
C547 C542 1.390 . S
C547 C546 1.387 . S
H548 C560 0.930 . S
H549 C562 0.930 . S
H550 C563 0.930 . S
H551 C567 0.959 . S
H552 C567 0.959 . S
H553 C567 0.961 . S
H554 C568 0.960 . S
H555 C568 0.961 . S
H556 C568 0.959 . S
H557 C571 0.929 . S
H558 C572 0.931 . S
H559 C574 0.930 . S
C560 H548 0.930 . S
C560 C561 1.399 . S
C560 C565 1.399 . S
C561 C560 1.399 . S
C561 C562 1.376 . S
C562 H549 0.930 . S
C562 C561 1.376 . S
C562 C563 1.388 . S
C563 H550 0.930 . S
C563 C562 1.388 . S
C563 C564 1.390 . S
C564 C563 1.390 . S
C564 C565 1.394 . S
C564 C570 1.465 . S
C565 C560 1.399 . S
C565 C564 1.394 . S
C565 C566 1.516 . S
C566 C565 1.516 . S
C566 C567 1.502 . S
C566 C568 1.561 . S
C566 C569 1.526 . S
C567 H551 0.959 . S
C567 H552 0.959 . S
C567 H553 0.961 . S
C567 C566 1.502 . S
C568 H554 0.960 . S
C568 H555 0.961 . S
C568 H556 0.959 . S
C568 C566 1.561 . S
C569 C566 1.526 . S
C569 C570 1.396 . S
C569 C574 1.390 . S
C570 C564 1.465 . S
C570 C569 1.396 . S
C570 C571 1.399 . S
C571 H557 0.929 . S
C571 C570 1.399 . S
C571 C572 1.385 . S
C572 H558 0.931 . S
C572 C571 1.385 . S
C572 C573 1.389 . S
C573 C572 1.389 . S
C573 C574 1.387 . S
C574 H559 0.930 . S
C574 C569 1.390 . S
C574 C573 1.387 . S
H575 C587 0.930 . S
H576 C589 0.930 . S
H577 C590 0.930 . S
H578 C594 0.959 . S
H579 C594 0.959 . S
H580 C594 0.961 . S
H581 C595 0.960 . S
H582 C595 0.961 . S
H583 C595 0.959 . S
H584 C598 0.929 . S
H585 C599 0.931 . S
H586 C601 0.930 . S
C587 H575 0.930 . S
C587 C588 1.399 . S
C587 C592 1.399 . S
C588 C587 1.399 . S
C588 C589 1.376 . S
C589 H576 0.930 . S
C589 C588 1.376 . S
C589 C590 1.388 . S
C590 H577 0.930 . S
C590 C589 1.388 . S
C590 C591 1.390 . S
C591 C590 1.390 . S
C591 C592 1.394 . S
C591 C597 1.465 . S
C592 C587 1.399 . S
C592 C591 1.394 . S
C592 C593 1.516 . S
C593 C592 1.516 . S
C593 C594 1.502 . S
C593 C595 1.561 . S
C593 C596 1.526 . S
C594 H578 0.959 . S
C594 H579 0.959 . S
C594 H580 0.961 . S
C594 C593 1.502 . S
C595 H581 0.960 . S
C595 H582 0.961 . S
C595 H583 0.959 . S
C595 C593 1.561 . S
C596 C593 1.526 . S
C596 C597 1.396 . S
C596 C601 1.390 . S
C597 C591 1.465 . S
C597 C596 1.396 . S
C597 C598 1.399 . S
C598 H584 0.929 . S
C598 C597 1.399 . S
C598 C599 1.385 . S
C599 H585 0.931 . S
C599 C598 1.385 . S
C599 C600 1.389 . S
C600 C599 1.389 . S
C600 C601 1.387 . S
C601 H586 0.930 . S
C601 C596 1.390 . S
C601 C600 1.387 . S
H602 C614 0.930 . S
H603 C616 0.930 . S
H604 C617 0.930 . S
H605 C621 0.959 . S
H606 C621 0.959 . S
H607 C621 0.961 . S
H608 C622 0.960 . S
H609 C622 0.961 . S
H610 C622 0.959 . S
H611 C625 0.929 . S
H612 C626 0.931 . S
H613 C628 0.930 . S
C614 H602 0.930 . S
C614 C615 1.399 . S
C614 C619 1.399 . S
C615 C614 1.399 . S
C615 C616 1.376 . S
C616 H603 0.930 . S
C616 C615 1.376 . S
C616 C617 1.388 . S
C617 H604 0.930 . S
C617 C616 1.388 . S
C617 C618 1.390 . S
C618 C617 1.390 . S
C618 C619 1.394 . S
C618 C624 1.465 . S
C619 C614 1.399 . S
C619 C618 1.394 . S
C619 C620 1.516 . S
C620 C619 1.516 . S
C620 C621 1.502 . S
C620 C622 1.561 . S
C620 C623 1.526 . S
C621 H605 0.959 . S
C621 H606 0.959 . S
C621 H607 0.961 . S
C621 C620 1.502 . S
C622 H608 0.960 . S
C622 H609 0.961 . S
C622 H610 0.959 . S
C622 C620 1.561 . S
C623 C620 1.526 . S
C623 C624 1.396 . S
C623 C628 1.390 . S
C624 C618 1.465 . S
C624 C623 1.396 . S
C624 C625 1.399 . S
C625 H611 0.929 . S
C625 C624 1.399 . S
C625 C626 1.385 . S
C626 H612 0.931 . S
C626 C625 1.385 . S
C626 C627 1.389 . S
C627 C626 1.389 . S
C627 C628 1.387 . S
C628 H613 0.930 . S
C628 C623 1.390 . S
C628 C627 1.387 . S
H629 C641 0.930 . S
H630 C643 0.930 . S
H631 C644 0.930 . S
H632 C648 0.959 . S
H633 C648 0.959 . S
H634 C648 0.961 . S
H635 C649 0.960 . S
H636 C649 0.961 . S
H637 C649 0.959 . S
H638 C652 0.929 . S
H639 C653 0.931 . S
H640 C655 0.930 . S
C641 H629 0.930 . S
C641 C642 1.399 . S
C641 C646 1.399 . S
C642 C641 1.399 . S
C642 C643 1.376 . S
C643 H630 0.930 . S
C643 C642 1.376 . S
C643 C644 1.388 . S
C644 H631 0.930 . S
C644 C643 1.388 . S
C644 C645 1.390 . S
C645 C644 1.390 . S
C645 C646 1.394 . S
C645 C651 1.465 . S
C646 C641 1.399 . S
C646 C645 1.394 . S
C646 C647 1.516 . S
C647 C646 1.516 . S
C647 C648 1.502 . S
C647 C649 1.561 . S
C647 C650 1.526 . S
C648 H632 0.959 . S
C648 H633 0.959 . S
C648 H634 0.961 . S
C648 C647 1.502 . S
C649 H635 0.960 . S
C649 H636 0.961 . S
C649 H637 0.959 . S
C649 C647 1.561 . S
C650 C647 1.526 . S
C650 C651 1.396 . S
C650 C655 1.390 . S
C651 C645 1.465 . S
C651 C650 1.396 . S
C651 C652 1.399 . S
C652 H638 0.929 . S
C652 C651 1.399 . S
C652 C653 1.385 . S
C653 H639 0.931 . S
C653 C652 1.385 . S
C653 C654 1.389 . S
C654 C653 1.389 . S
C654 C655 1.387 . S
C655 H640 0.930 . S
C655 C650 1.390 . S
C655 C654 1.387 . S
H656 C668 0.930 . S
H657 C670 0.930 . S
H658 C671 0.930 . S
H659 C675 0.959 . S
H660 C675 0.959 . S
H661 C675 0.961 . S
H662 C676 0.960 . S
H663 C676 0.961 . S
H664 C676 0.959 . S
H665 C679 0.929 . S
H666 C680 0.931 . S
H667 C682 0.930 . S
C668 H656 0.930 . S
C668 C669 1.399 . S
C668 C673 1.399 . S
C669 C668 1.399 . S
C669 C670 1.376 . S
C670 H657 0.930 . S
C670 C669 1.376 . S
C670 C671 1.388 . S
C671 H658 0.930 . S
C671 C670 1.388 . S
C671 C672 1.390 . S
C672 C671 1.390 . S
C672 C673 1.394 . S
C672 C678 1.465 . S
C673 C668 1.399 . S
C673 C672 1.394 . S
C673 C674 1.516 . S
C674 C673 1.516 . S
C674 C675 1.502 . S
C674 C676 1.561 . S
C674 C677 1.526 . S
C675 H659 0.959 . S
C675 H660 0.959 . S
C675 H661 0.961 . S
C675 C674 1.502 . S
C676 H662 0.960 . S
C676 H663 0.961 . S
C676 H664 0.959 . S
C676 C674 1.561 . S
C677 C674 1.526 . S
C677 C678 1.396 . S
C677 C682 1.390 . S
C678 C672 1.465 . S
C678 C677 1.396 . S
C678 C679 1.399 . S
C679 H665 0.929 . S
C679 C678 1.399 . S
C679 C680 1.385 . S
C680 H666 0.931 . S
C680 C679 1.385 . S
C680 C681 1.389 . S
C681 C680 1.389 . S
C681 C682 1.387 . S
C682 H667 0.930 . S
C682 C677 1.390 . S
C682 C681 1.387 . S
H683 C695 0.930 . S
H684 C697 0.930 . S
H685 C698 0.930 . S
H686 C702 0.959 . S
H687 C702 0.959 . S
H688 C702 0.961 . S
H689 C703 0.960 . S
H690 C703 0.961 . S
H691 C703 0.959 . S
H692 C706 0.929 . S
H693 C707 0.931 . S
H694 C709 0.930 . S
C695 H683 0.930 . S
C695 C696 1.399 . S
C695 C700 1.399 . S
C696 C695 1.399 . S
C696 C697 1.376 . S
C697 H684 0.930 . S
C697 C696 1.376 . S
C697 C698 1.388 . S
C698 H685 0.930 . S
C698 C697 1.388 . S
C698 C699 1.390 . S
C699 C698 1.390 . S
C699 C700 1.394 . S
C699 C705 1.465 . S
C700 C695 1.399 . S
C700 C699 1.394 . S
C700 C701 1.516 . S
C701 C700 1.516 . S
C701 C702 1.502 . S
C701 C703 1.561 . S
C701 C704 1.526 . S
C702 H686 0.959 . S
C702 H687 0.959 . S
C702 H688 0.961 . S
C702 C701 1.502 . S
C703 H689 0.960 . S
C703 H690 0.961 . S
C703 H691 0.959 . S
C703 C701 1.561 . S
C704 C701 1.526 . S
C704 C705 1.396 . S
C704 C709 1.390 . S
C705 C699 1.465 . S
C705 C704 1.396 . S
C705 C706 1.399 . S
C706 H692 0.929 . S
C706 C705 1.399 . S
C706 C707 1.385 . S
C707 H693 0.931 . S
C707 C706 1.385 . S
C707 C708 1.389 . S
C708 C707 1.389 . S
C708 C709 1.387 . S
C709 H694 0.930 . S
C709 C704 1.390 . S
C709 C708 1.387 . S
H710 C722 0.930 . S
H711 C724 0.930 . S
H712 C725 0.930 . S
H713 C729 0.959 . S
H714 C729 0.959 . S
H715 C729 0.961 . S
H716 C730 0.960 . S
H717 C730 0.961 . S
H718 C730 0.959 . S
H719 C733 0.929 . S
H720 C734 0.931 . S
H721 C736 0.930 . S
C722 H710 0.930 . S
C722 C723 1.399 . S
C722 C727 1.399 . S
C723 C722 1.399 . S
C723 C724 1.376 . S
C724 H711 0.930 . S
C724 C723 1.376 . S
C724 C725 1.388 . S
C725 H712 0.930 . S
C725 C724 1.388 . S
C725 C726 1.390 . S
C726 C725 1.390 . S
C726 C727 1.394 . S
C726 C732 1.465 . S
C727 C722 1.399 . S
C727 C726 1.394 . S
C727 C728 1.516 . S
C728 C727 1.516 . S
C728 C729 1.502 . S
C728 C730 1.561 . S
C728 C731 1.526 . S
C729 H713 0.959 . S
C729 H714 0.959 . S
C729 H715 0.961 . S
C729 C728 1.502 . S
C730 H716 0.960 . S
C730 H717 0.961 . S
C730 H718 0.959 . S
C730 C728 1.561 . S
C731 C728 1.526 . S
C731 C732 1.396 . S
C731 C736 1.390 . S
C732 C726 1.465 . S
C732 C731 1.396 . S
C732 C733 1.399 . S
C733 H719 0.929 . S
C733 C732 1.399 . S
C733 C734 1.385 . S
C734 H720 0.931 . S
C734 C733 1.385 . S
C734 C735 1.389 . S
C735 C734 1.389 . S
C735 C736 1.387 . S
C736 H721 0.930 . S
C736 C731 1.390 . S
C736 C735 1.387 . S
H737 C749 0.930 . S
H738 C751 0.930 . S
H739 C752 0.930 . S
H740 C756 0.959 . S
H741 C756 0.959 . S
H742 C756 0.961 . S
H743 C757 0.960 . S
H744 C757 0.961 . S
H745 C757 0.959 . S
H746 C760 0.929 . S
H747 C761 0.931 . S
H748 C763 0.930 . S
C749 H737 0.930 . S
C749 C750 1.399 . S
C749 C754 1.399 . S
C750 C749 1.399 . S
C750 C751 1.376 . S
C751 H738 0.930 . S
C751 C750 1.376 . S
C751 C752 1.388 . S
C752 H739 0.930 . S
C752 C751 1.388 . S
C752 C753 1.390 . S
C753 C752 1.390 . S
C753 C754 1.394 . S
C753 C759 1.465 . S
C754 C749 1.399 . S
C754 C753 1.394 . S
C754 C755 1.516 . S
C755 C754 1.516 . S
C755 C756 1.502 . S
C755 C757 1.561 . S
C755 C758 1.526 . S
C756 H740 0.959 . S
C756 H741 0.959 . S
C756 H742 0.961 . S
C756 C755 1.502 . S
C757 H743 0.960 . S
C757 H744 0.961 . S
C757 H745 0.959 . S
C757 C755 1.561 . S
C758 C755 1.526 . S
C758 C759 1.396 . S
C758 C763 1.390 . S
C759 C753 1.465 . S
C759 C758 1.396 . S
C759 C760 1.399 . S
C760 H746 0.929 . S
C760 C759 1.399 . S
C760 C761 1.385 . S
C761 H747 0.931 . S
C761 C760 1.385 . S
C761 C762 1.389 . S
C762 C761 1.389 . S
C762 C763 1.387 . S
C763 H748 0.930 . S
C763 C758 1.390 . S
C763 C762 1.387 . S
H764 C776 0.930 . S
H765 C778 0.930 . S
H766 C779 0.930 . S
H767 C783 0.959 . S
H768 C783 0.959 . S
H769 C783 0.961 . S
H770 C784 0.960 . S
H771 C784 0.961 . S
H772 C784 0.959 . S
H773 C787 0.929 . S
H774 C788 0.931 . S
H775 C790 0.930 . S
C776 H764 0.930 . S
C776 C777 1.399 . S
C776 C781 1.399 . S
C777 C776 1.399 . S
C777 C778 1.376 . S
C778 H765 0.930 . S
C778 C777 1.376 . S
C778 C779 1.388 . S
C779 H766 0.930 . S
C779 C778 1.388 . S
C779 C780 1.390 . S
C780 C779 1.390 . S
C780 C781 1.394 . S
C780 C786 1.465 . S
C781 C776 1.399 . S
C781 C780 1.394 . S
C781 C782 1.516 . S
C782 C781 1.516 . S
C782 C783 1.502 . S
C782 C784 1.561 . S
C782 C785 1.526 . S
C783 H767 0.959 . S
C783 H768 0.959 . S
C783 H769 0.961 . S
C783 C782 1.502 . S
C784 H770 0.960 . S
C784 H771 0.961 . S
C784 H772 0.959 . S
C784 C782 1.561 . S
C785 C782 1.526 . S
C785 C786 1.396 . S
C785 C790 1.390 . S
C786 C780 1.465 . S
C786 C785 1.396 . S
C786 C787 1.399 . S
C787 H773 0.929 . S
C787 C786 1.399 . S
C787 C788 1.385 . S
C788 H774 0.931 . S
C788 C787 1.385 . S
C788 C789 1.389 . S
C789 C788 1.389 . S
C789 C790 1.387 . S
C790 H775 0.930 . S
C790 C785 1.390 . S
C790 C789 1.387 . S
H791 C803 0.930 . S
H792 C805 0.930 . S
H793 C806 0.930 . S
H794 C810 0.959 . S
H795 C810 0.959 . S
H796 C810 0.961 . S
H797 C811 0.960 . S
H798 C811 0.961 . S
H799 C811 0.959 . S
H800 C814 0.929 . S
H801 C815 0.931 . S
H802 C817 0.930 . S
C803 H791 0.930 . S
C803 C804 1.399 . S
C803 C808 1.399 . S
C804 C803 1.399 . S
C804 C805 1.376 . S
C805 H792 0.930 . S
C805 C804 1.376 . S
C805 C806 1.388 . S
C806 H793 0.930 . S
C806 C805 1.388 . S
C806 C807 1.390 . S
C807 C806 1.390 . S
C807 C808 1.394 . S
C807 C813 1.465 . S
C808 C803 1.399 . S
C808 C807 1.394 . S
C808 C809 1.516 . S
C809 C808 1.516 . S
C809 C810 1.502 . S
C809 C811 1.561 . S
C809 C812 1.526 . S
C810 H794 0.959 . S
C810 H795 0.959 . S
C810 H796 0.961 . S
C810 C809 1.502 . S
C811 H797 0.960 . S
C811 H798 0.961 . S
C811 H799 0.959 . S
C811 C809 1.561 . S
C812 C809 1.526 . S
C812 C813 1.396 . S
C812 C817 1.390 . S
C813 C807 1.465 . S
C813 C812 1.396 . S
C813 C814 1.399 . S
C814 H800 0.929 . S
C814 C813 1.399 . S
C814 C815 1.385 . S
C815 H801 0.931 . S
C815 C814 1.385 . S
C815 C816 1.389 . S
C816 C815 1.389 . S
C816 C817 1.387 . S
C817 H802 0.930 . S
C817 C812 1.390 . S
C817 C816 1.387 . S
H818 C830 0.930 . S
H819 C832 0.930 . S
H820 C833 0.930 . S
H821 C837 0.959 . S
H822 C837 0.959 . S
H823 C837 0.961 . S
H824 C838 0.960 . S
H825 C838 0.961 . S
H826 C838 0.959 . S
H827 C841 0.929 . S
H828 C842 0.931 . S
H829 C844 0.930 . S
C830 H818 0.930 . S
C830 C831 1.399 . S
C830 C835 1.399 . S
C831 C830 1.399 . S
C831 C832 1.376 . S
C832 H819 0.930 . S
C832 C831 1.376 . S
C832 C833 1.388 . S
C833 H820 0.930 . S
C833 C832 1.388 . S
C833 C834 1.390 . S
C834 C833 1.390 . S
C834 C835 1.394 . S
C834 C840 1.465 . S
C835 C830 1.399 . S
C835 C834 1.394 . S
C835 C836 1.516 . S
C836 C835 1.516 . S
C836 C837 1.502 . S
C836 C838 1.561 . S
C836 C839 1.526 . S
C837 H821 0.959 . S
C837 H822 0.959 . S
C837 H823 0.961 . S
C837 C836 1.502 . S
C838 H824 0.960 . S
C838 H825 0.961 . S
C838 H826 0.959 . S
C838 C836 1.561 . S
C839 C836 1.526 . S
C839 C840 1.396 . S
C839 C844 1.390 . S
C840 C834 1.465 . S
C840 C839 1.396 . S
C840 C841 1.399 . S
C841 H827 0.929 . S
C841 C840 1.399 . S
C841 C842 1.385 . S
C842 H828 0.931 . S
C842 C841 1.385 . S
C842 C843 1.389 . S
C843 C842 1.389 . S
C843 C844 1.387 . S
C844 H829 0.930 . S
C844 C839 1.390 . S
C844 C843 1.387 . S
H845 C857 0.930 . S
H846 C859 0.930 . S
H847 C860 0.930 . S
H848 C864 0.959 . S
H849 C864 0.959 . S
H850 C864 0.961 . S
H851 C865 0.960 . S
H852 C865 0.961 . S
H853 C865 0.959 . S
H854 C868 0.929 . S
H855 C869 0.931 . S
H856 C871 0.930 . S
C857 H845 0.930 . S
C857 C858 1.399 . S
C857 C862 1.399 . S
C858 C857 1.399 . S
C858 C859 1.376 . S
C859 H846 0.930 . S
C859 C858 1.376 . S
C859 C860 1.388 . S
C860 H847 0.930 . S
C860 C859 1.388 . S
C860 C861 1.390 . S
C861 C860 1.390 . S
C861 C862 1.394 . S
C861 C867 1.465 . S
C862 C857 1.399 . S
C862 C861 1.394 . S
C862 C863 1.516 . S
C863 C862 1.516 . S
C863 C864 1.502 . S
C863 C865 1.561 . S
C863 C866 1.526 . S
C864 H848 0.959 . S
C864 H849 0.959 . S
C864 H850 0.961 . S
C864 C863 1.502 . S
C865 H851 0.960 . S
C865 H852 0.961 . S
C865 H853 0.959 . S
C865 C863 1.561 . S
C866 C863 1.526 . S
C866 C867 1.396 . S
C866 C871 1.390 . S
C867 C861 1.465 . S
C867 C866 1.396 . S
C867 C868 1.399 . S
C868 H854 0.929 . S
C868 C867 1.399 . S
C868 C869 1.385 . S
C869 H855 0.931 . S
C869 C868 1.385 . S
C869 C870 1.389 . S
C870 C869 1.389 . S
C870 C871 1.387 . S
C871 H856 0.930 . S
C871 C866 1.390 . S
C871 C870 1.387 . S
H872 C884 0.930 . S
H873 C886 0.930 . S
H874 C887 0.930 . S
H875 C891 0.959 1_565 S
H876 C891 0.959 1_565 S
H877 C891 0.961 . S
H878 C892 0.960 . S
H879 C892 0.961 . S
H880 C892 0.959 . S
H881 C895 0.929 . S
H882 C896 0.931 . S
H883 C898 0.930 . S
C884 H872 0.930 . S
C884 C885 1.399 . S
C884 C889 1.399 . S
C885 C884 1.399 . S
C885 C886 1.376 . S
C886 H873 0.930 . S
C886 C885 1.376 . S
C886 C887 1.388 . S
C887 H874 0.930 . S
C887 C886 1.388 . S
C887 C888 1.390 . S
C888 C887 1.390 . S
C888 C889 1.394 . S
C888 C894 1.465 1_545 S
C889 C884 1.399 . S
C889 C888 1.394 . S
C889 C890 1.516 . S
C890 C889 1.516 . S
C890 C891 1.502 . S
C890 C892 1.561 . S
C890 C893 1.526 1_545 S
C891 H875 0.959 1_545 S
C891 H876 0.959 1_545 S
C891 H877 0.961 . S
C891 C890 1.502 . S
C892 H878 0.960 . S
C892 H879 0.961 . S
C892 H880 0.959 . S
C892 C890 1.561 . S
C893 C890 1.526 1_565 S
C893 C894 1.396 . S
C893 C898 1.390 . S
C894 C888 1.465 1_565 S
C894 C893 1.396 . S
C894 C895 1.399 . S
C895 H881 0.929 . S
C895 C894 1.399 . S
C895 C896 1.385 . S
C896 H882 0.931 . S
C896 C895 1.385 . S
C896 C897 1.389 . S
C897 C896 1.389 . S
C897 C898 1.387 . S
C898 H883 0.930 . S
C898 C893 1.390 . S
C898 C897 1.387 . S
H899 C911 0.930 . S
H900 C913 0.930 . S
H901 C914 0.930 . S
H902 C918 0.959 . S
H903 C918 0.959 . S
H904 C918 0.961 . S
H905 C919 0.960 . S
H906 C919 0.961 . S
H907 C919 0.959 . S
H908 C922 0.929 . S
H909 C923 0.931 . S
H910 C925 0.930 . S
C911 H899 0.930 . S
C911 C912 1.399 . S
C911 C916 1.399 . S
C912 C911 1.399 . S
C912 C913 1.376 . S
C913 H900 0.930 . S
C913 C912 1.376 . S
C913 C914 1.388 . S
C914 H901 0.930 . S
C914 C913 1.388 . S
C914 C915 1.390 . S
C915 C914 1.390 . S
C915 C916 1.394 . S
C915 C921 1.465 1_655 S
C916 C911 1.399 . S
C916 C915 1.394 . S
C916 C917 1.516 1_655 S
C917 C916 1.516 1_455 S
C917 C918 1.502 . S
C917 C919 1.561 . S
C917 C920 1.526 . S
C918 H902 0.959 . S
C918 H903 0.959 . S
C918 H904 0.961 . S
C918 C917 1.502 . S
C919 H905 0.960 . S
C919 H906 0.961 . S
C919 H907 0.959 . S
C919 C917 1.561 . S
C920 C917 1.526 . S
C920 C921 1.396 . S
C920 C925 1.390 . S
C921 C915 1.465 1_455 S
C921 C920 1.396 . S
C921 C922 1.399 . S
C922 H908 0.929 . S
C922 C921 1.399 . S
C922 C923 1.385 . S
C923 H909 0.931 . S
C923 C922 1.385 . S
C923 C924 1.389 . S
C924 C923 1.389 . S
C924 C925 1.387 . S
C925 H910 0.930 . S
C925 C920 1.390 . S
C925 C924 1.387 . S
H926 C938 0.930 . S
H927 C940 0.930 . S
H928 C941 0.930 . S
H929 C945 0.959 . S
H930 C945 0.959 . S
H931 C945 0.961 . S
H932 C946 0.960 . S
H933 C946 0.961 . S
H934 C946 0.959 . S
H935 C949 0.929 . S
H936 C950 0.931 . S
H937 C952 0.930 . S
C938 H926 0.930 . S
C938 C939 1.399 . S
C938 C943 1.399 . S
C939 C938 1.399 . S
C939 C940 1.376 . S
C940 H927 0.930 . S
C940 C939 1.376 . S
C940 C941 1.388 . S
C941 H928 0.930 . S
C941 C940 1.388 . S
C941 C942 1.390 . S
C942 C941 1.390 . S
C942 C943 1.394 . S
C942 C948 1.465 1_545 S
C943 C938 1.399 . S
C943 C942 1.394 . S
C943 C944 1.516 . S
C944 C943 1.516 . S
C944 C945 1.502 . S
C944 C946 1.561 . S
C944 C947 1.526 1_545 S
C945 H929 0.959 . S
C945 H930 0.959 . S
C945 H931 0.961 . S
C945 C944 1.502 . S
C946 H932 0.960 . S
C946 H933 0.961 . S
C946 H934 0.959 . S
C946 C944 1.561 . S
C947 C944 1.526 1_565 S
C947 C948 1.396 . S
C947 C952 1.390 . S
C948 C942 1.465 1_565 S
C948 C947 1.396 . S
C948 C949 1.399 . S
C949 H935 0.929 . S
C949 C948 1.399 . S
C949 C950 1.385 . S
C950 H936 0.931 . S
C950 C949 1.385 . S
C950 C951 1.389 . S
C951 C950 1.389 . S
C951 C952 1.387 . S
C952 H937 0.930 . S
C952 C947 1.390 . S
C952 C951 1.387 . S
H953 C965 0.930 . S
H954 C967 0.930 . S
H955 C968 0.930 . S
H956 C972 0.959 . S
H957 C972 0.959 1_655 S
H958 C972 0.961 . S
H959 C973 0.960 1_455 S
H960 C973 0.961 . S
H961 C973 0.959 . S
H962 C976 0.929 . S
H963 C977 0.931 . S
H964 C979 0.930 . S
C965 H953 0.930 . S
C965 C966 1.399 . S
C965 C970 1.399 . S
C966 C965 1.399 . S
C966 C967 1.376 . S
C967 H954 0.930 . S
C967 C966 1.376 . S
C967 C968 1.388 . S
C968 H955 0.930 . S
C968 C967 1.388 . S
C968 C969 1.390 . S
C969 C968 1.390 . S
C969 C970 1.394 . S
C969 C975 1.465 1_455 S
C970 C965 1.399 . S
C970 C969 1.394 . S
C970 C971 1.516 . S
C971 C970 1.516 . S
C971 C972 1.502 . S
C971 C973 1.561 1_455 S
C971 C974 1.526 1_455 S
C972 H956 0.959 . S
C972 H957 0.959 1_455 S
C972 H958 0.961 . S
C972 C971 1.502 . S
C973 H959 0.960 1_655 S
C973 H960 0.961 . S
C973 H961 0.959 . S
C973 C971 1.561 1_655 S
C974 C971 1.526 1_655 S
C974 C975 1.396 . S
C974 C979 1.390 . S
C975 C969 1.465 1_655 S
C975 C974 1.396 . S
C975 C976 1.399 . S
C976 H962 0.929 . S
C976 C975 1.399 . S
C976 C977 1.385 . S
C977 H963 0.931 . S
C977 C976 1.385 . S
C977 C978 1.389 . S
C978 C977 1.389 . S
C978 C979 1.387 . S
C979 H964 0.930 . S
C979 C974 1.390 . S
C979 C978 1.387 . S
H980 C992 0.930 . S
H981 C994 0.930 . S
H982 C995 0.930 . S
H983 C999 0.959 . S
H984 C999 0.950 1_565 S
H985 C999 0.961 . S
H986 C1000 0.960 . S
H987 C1000 0.961 . S
H988 C1000 0.959 . S
H989 C1003 0.929 . S
H990 C1004 0.931 . S
H991 C1006 0.930 . S
C992 H980 0.930 . S
C992 C993 1.399 . S
C992 C997 1.399 . S
C993 C992 1.399 . S
C993 C994 1.376 . S
C994 H981 0.930 . S
C994 C993 1.376 . S
C994 C995 1.388 . S
C995 H982 0.930 . S
C995 C994 1.388 . S
C995 C996 1.390 . S
C996 C995 1.390 . S
C996 C997 1.394 . S
C996 C1002 1.465 1_545 S
C997 C992 1.399 . S
C997 C996 1.394 . S
C997 C998 1.516 . S
C998 C997 1.516 . S
C998 C999 1.502 . S
C998 C1000 1.561 . S
C998 C1001 1.526 1_545 S
C999 H983 0.959 . S
C999 H984 0.950 1_545 S
C999 H985 0.961 . S
C999 C998 1.502 . S
C1000 H986 0.960 . S
C1000 H987 0.961 . S
C1000 H988 0.959 . S
C1000 C998 1.561 . S
C1001 C998 1.526 1_565 S
C1001 C1002 1.396 . S
C1001 C1006 1.390 . S
C1002 C996 1.465 1_565 S
C1002 C1001 1.396 . S
C1002 C1003 1.399 . S
C1003 H989 0.929 . S
C1003 C1002 1.399 . S
C1003 C1004 1.385 . S
C1004 H990 0.931 . S
C1004 C1003 1.385 . S
C1004 C1005 1.389 . S
C1005 C1004 1.389 . S
C1005 C1006 1.387 . S
C1006 H991 0.930 . S
C1006 C1001 1.390 . S
C1006 C1005 1.387 . S
H1007 C1019 0.930 . S
H1008 C1021 0.930 . S
H1009 C1022 0.930 . S
H1010 C1026 0.959 . S
H1011 C1026 0.959 1_455 S
H1012 C1026 0.961 . S
H1013 C1027 0.960 1_655 S
H1014 C1027 0.961 . S
H1015 C1027 0.959 . S
H1016 C1030 0.929 . S
H1017 C1031 0.931 . S
H1018 C1033 0.930 . S
C1019 H1007 0.930 . S
C1019 C1020 1.399 . S
C1019 C1024 1.399 . S
C1020 C1019 1.399 . S
C1020 C1021 1.376 . S
C1021 H1008 0.930 . S
C1021 C1020 1.376 . S
C1021 C1022 1.388 . S
C1022 H1009 0.930 . S
C1022 C1021 1.388 . S
C1022 C1023 1.390 . S
C1023 C1022 1.390 . S
C1023 C1024 1.394 . S
C1023 C1029 1.465 1_655 S
C1024 C1019 1.399 . S
C1024 C1023 1.394 . S
C1024 C1025 1.516 . S
C1025 C1024 1.516 . S
C1025 C1026 1.502 . S
C1025 C1027 1.561 1_655 S
C1025 C1028 1.526 1_655 S
C1026 H1010 0.959 . S
C1026 H1011 0.959 1_655 S
C1026 H1012 0.961 . S
C1026 C1025 1.502 . S
C1027 H1013 0.960 1_455 S
C1027 H1014 0.961 . S
C1027 H1015 0.959 . S
C1027 C1025 1.561 1_455 S
C1028 C1025 1.526 1_455 S
C1028 C1029 1.396 . S
C1028 C1033 1.390 . S
C1029 C1023 1.465 1_455 S
C1029 C1028 1.396 . S
C1029 C1030 1.399 . S
C1030 H1016 0.929 . S
C1030 C1029 1.399 . S
C1030 C1031 1.385 . S
C1031 H1017 0.931 . S
C1031 C1030 1.385 . S
C1031 C1032 1.389 . S
C1032 C1031 1.389 . S
C1032 C1033 1.387 . S
C1033 H1018 0.930 . S
C1033 C1028 1.390 . S
C1033 C1032 1.387 . S
H1034 C1046 0.930 . S
H1035 C1048 0.930 . S
H1036 C1049 0.930 . S
H1037 C1053 0.959 . S
H1038 C1053 0.959 . S
H1039 C1053 0.961 1_565 S
H1040 C1054 0.960 . S
H1041 C1054 0.961 . S
H1042 C1054 0.959 . S
H1043 C1057 0.929 . S
H1044 C1058 0.931 . S
H1045 C1060 0.930 . S
C1046 H1034 0.930 . S
C1046 C1047 1.399 . S
C1046 C1051 1.399 . S
C1047 C1046 1.399 . S
C1047 C1048 1.376 . S
C1048 H1035 0.930 . S
C1048 C1047 1.376 . S
C1048 C1049 1.388 . S
C1049 H1036 0.930 . S
C1049 C1048 1.388 . S
C1049 C1050 1.390 . S
C1050 C1049 1.390 . S
C1050 C1051 1.394 . S
C1050 C1056 1.465 1_565 S
C1051 C1046 1.399 . S
C1051 C1050 1.394 . S
C1051 C1052 1.516 1_565 S
C1052 C1051 1.516 1_545 S
C1052 C1053 1.502 . S
C1052 C1054 1.561 . S
C1052 C1055 1.526 . S
C1053 H1037 0.959 . S
C1053 H1038 0.959 . S
C1053 H1039 0.961 1_545 S
C1053 C1052 1.502 . S
C1054 H1040 0.960 . S
C1054 H1041 0.961 . S
C1054 H1042 0.959 . S
C1054 C1052 1.561 . S
C1055 C1052 1.526 . S
C1055 C1056 1.396 . S
C1055 C1060 1.390 . S
C1056 C1050 1.465 1_545 S
C1056 C1055 1.396 . S
C1056 C1057 1.399 . S
C1057 H1043 0.929 . S
C1057 C1056 1.399 . S
C1057 C1058 1.385 . S
C1058 H1044 0.931 . S
C1058 C1057 1.385 . S
C1058 C1059 1.389 . S
C1059 C1058 1.389 . S
C1059 C1060 1.387 . S
C1060 H1045 0.930 . S
C1060 C1055 1.390 . S
C1060 C1059 1.387 . S
H1061 C1073 0.930 . S
H1062 C1075 0.930 . S
H1063 C1076 0.930 . S
H1064 C1080 0.959 . S
H1065 C1080 0.959 . S
H1066 C1080 0.961 1_455 S
H1067 C1081 0.960 . S
H1068 C1081 0.961 1_655 S
H1069 C1081 0.959 . S
H1070 C1084 0.929 . S
H1071 C1085 0.931 . S
H1072 C1087 0.930 . S
C1073 H1061 0.930 . S
C1073 C1074 1.399 . S
C1073 C1078 1.399 . S
C1074 C1073 1.399 . S
C1074 C1075 1.376 . S
C1075 H1062 0.930 . S
C1075 C1074 1.376 . S
C1075 C1076 1.388 . S
C1076 H1063 0.930 . S
C1076 C1075 1.388 . S
C1076 C1077 1.390 . S
C1077 C1076 1.390 . S
C1077 C1078 1.394 . S
C1077 C1083 1.465 1_455 S
C1078 C1073 1.399 . S
C1078 C1077 1.394 . S
C1078 C1079 1.516 1_455 S
C1079 C1078 1.516 1_655 S
C1079 C1080 1.502 . S
C1079 C1081 1.561 1_655 S
C1079 C1082 1.526 . S
C1080 H1064 0.959 . S
C1080 H1065 0.959 . S
C1080 H1066 0.961 1_655 S
C1080 C1079 1.502 . S
C1081 H1067 0.960 . S
C1081 H1068 0.961 1_455 S
C1081 H1069 0.959 . S
C1081 C1079 1.561 1_455 S
C1082 C1079 1.526 . S
C1082 C1083 1.396 . S
C1082 C1087 1.390 . S
C1083 C1077 1.465 1_655 S
C1083 C1082 1.396 . S
C1083 C1084 1.399 . S
C1084 H1070 0.929 . S
C1084 C1083 1.399 . S
C1084 C1085 1.385 . S
C1085 H1071 0.931 . S
C1085 C1084 1.385 . S
C1085 C1086 1.389 . S
C1086 C1085 1.389 . S
C1086 C1087 1.387 . S
C1087 H1072 0.930 . S
C1087 C1082 1.390 . S
C1087 C1086 1.387 . S
C237 C78 1.440 . S
C249 C8 1.410 . S
C264 C92 1.403 . S
C276 C22 1.431 . S
C291 C36 1.441 . S
C303 C106 1.415 . S
C318 C50 1.404 . S
C330 C64 1.435 . S
C345 C190 1.418 . S
C357 C120 1.407 . S
C372 C204 1.404 . S
C384 C134 1.435 . S
C399 C148 1.441 . S
C411 C218 1.413 . S
C426 C162 1.411 . S
C438 C176 1.440 . S
C453 C147 1.500 . S
C465 C7 1.492 . S
C480 C161 1.448 . S
C492 C21 1.448 . S
C507 C119 1.492 . S
C519 C35 1.484 . S
C534 C49 1.479 . S
C546 C133 1.489 . S
C561 C203 1.473 . S
C573 C63 1.482 . S
C588 C217 1.520 . S
C600 C77 1.521 . S
C615 C91 1.513 . S
C627 C175 1.517 . S
C642 C189 1.520 . S
C654 C105 1.521 . S
C669 C65 1.861 . S
C681 C9 1.868 . S
C696 C23 1.859 . S
C708 C79 1.856 . S
C723 C37 1.882 . S
C735 C93 1.876 . S
C750 C107 1.861 . S
C762 C51 1.857 . S
C777 C115 0.937 . S
C789 C171 0.958 . S
C804 C185 0.973 . S
C816 C129 0.983 . S
C831 C143 0.980 . S
C843 C199 0.957 . S
C858 C213 0.968 . S
C870 C157 0.983 . S
C885 C163 1.887 . S
C897 C191 1.885 . S
C912 C121 1.857 . S
C924 C205 1.863 . S
C939 C219 1.884 . S
C951 C135 1.880 . S
C966 C149 1.858 . S
C978 C177 1.855 . S
C993 C73 0.936 . S
C1005 C45 0.957 . S
C1020 C87 0.971 . S
C1032 C3 0.983 . S
C1047 C101 0.983 . S
C1059 C17 0.963 . S
C1074 C59 0.953 . S
C1086 C31 0.936 . S
