# Generated by pormake.
# Topology unj, (4)-cn, num edge types: 1
# Building blocks:
#     Node 0, Type 0, BuildingBlock: TATPOV_clean_sbu_0, # of connection points: 4
#     Node 1, Type 0, BuildingBlock: TATPOV_clean_sbu_0, # of connection points: 4
#     Node 2, Type 0, BuildingBlock: TATPOV_clean_sbu_0, # of connection points: 4
#     Node 3, Type 0, BuildingBlock: TATPOV_clean_sbu_0, # of connection points: 4
#     Node 4, Type 0, BuildingBlock: TATPOV_clean_sbu_0, # of connection points: 4
#     Node 5, Type 0, BuildingBlock: TATPOV_clean_sbu_0, # of connection points: 4
#     Edge 6, Type (0, 0), BuildingBlock: ZUJKAS_clean_linker_0, # of connection points: 2
#     Edge 7, Type (0, 0), BuildingBlock: ZUJKAS_clean_linker_0, # of connection points: 2
#     Edge 8, Type (0, 0), BuildingBlock: ZUJKAS_clean_linker_0, # of connection points: 2
#     Edge 9, Type (0, 0), BuildingBlock: ZUJKAS_clean_linker_0, # of connection points: 2
#     Edge 10, Type (0, 0), BuildingBlock: ZUJKAS_clean_linker_0, # of connection points: 2
#     Edge 11, Type (0, 0), BuildingBlock: ZUJKAS_clean_linker_0, # of connection points: 2
#     Edge 12, Type (0, 0), BuildingBlock: ZUJKAS_clean_linker_0, # of connection points: 2
#     Edge 13, Type (0, 0), BuildingBlock: ZUJKAS_clean_linker_0, # of connection points: 2
#     Edge 14, Type (0, 0), BuildingBlock: ZUJKAS_clean_linker_0, # of connection points: 2
#     Edge 15, Type (0, 0), BuildingBlock: ZUJKAS_clean_linker_0, # of connection points: 2
#     Edge 16, Type (0, 0), BuildingBlock: ZUJKAS_clean_linker_0, # of connection points: 2
#     Edge 17, Type (0, 0), BuildingBlock: ZUJKAS_clean_linker_0, # of connection points: 2
# Relax obj value: 0.021
# Max RMSD: 0.060
# Mean RMSD: 0.060
data_MOF--net-unj--node1-TATPOV_clean_sbu_0--edge1-ZUJKAS_clean_linker_0
_symmetry_space_group_name_H-M    P1
_symmetry_Int_Tables_number       1
_symmetry_cell_setting            triclinic
loop_
_symmetry_equiv_pos_as_xyz
'x, y, z'
_cell_length_a     43.986187
_cell_length_b     43.922074
_cell_length_c     45.664106
_cell_angle_alpha  90.13939
_cell_angle_beta   89.897886
_cell_angle_gamma 119.99824
loop_
_atom_site_label
_atom_site_type_symbol
_atom_site_fract_x
_atom_site_fract_y
_atom_site_fract_z
_atom_type_partial_charge
Zn0 Zn 0.4295 0.16207 0.63045 0.0
Zn1 Zn 0.47506 0.205 0.58967 0.0
O2 O 0.44531 0.22788 0.59888 0.0
O3 O 0.40719 0.1927 0.63159 0.0
O4 O 0.5068 0.23548 0.55742 0.0
O5 O 0.41178 0.1212 0.60252 0.0
O6 O 0.44919 0.15658 0.56952 0.0
C7 C 0.41947 0.22008 0.61589 0.0
C8 C 0.50228 0.19549 0.64856 0.0
O9 O 0.50817 0.20983 0.62337 0.0
O10 O 0.47114 0.17391 0.65645 0.0
C11 C 0.52135 0.26877 0.55842 0.0
O12 O 0.51683 0.28371 0.5817 0.0
C13 C 0.42503 0.12607 0.57714 0.0
Zn14 Zn 0.25389 0.42587 0.79592 0.0
Zn15 Zn 0.25692 0.46967 0.75338 0.0
O16 O 0.20418 0.43878 0.76149 0.0
O17 O 0.20088 0.40077 0.79443 0.0
O18 O 0.25776 0.50013 0.72023 0.0
O19 O 0.28047 0.40975 0.77026 0.0
O20 O 0.28096 0.44422 0.73515 0.0
C21 C 0.18592 0.41245 0.77795 0.0
C22 C 0.28975 0.4992 0.81323 0.0
O23 O 0.28352 0.50416 0.78694 0.0
O24 O 0.27978 0.46834 0.82223 0.0
C25 C 0.23912 0.51475 0.72134 0.0
O26 O 0.22057 0.51105 0.74502 0.0
C27 C 0.28865 0.42156 0.74444 0.0
Zn28 Zn 0.82449 0.24864 0.96525 0.0
Zn29 Zn 0.7836 0.25805 0.92649 0.0
O30 O 0.75731 0.20481 0.93338 0.0
O31 O 0.79156 0.19603 0.96301 0.0
O32 O 0.75435 0.26333 0.89525 0.0
O33 O 0.86571 0.27235 0.93768 0.0
O34 O 0.8314 0.2782 0.90594 0.0
C35 C 0.76374 0.18398 0.94793 0.0
C36 C 0.79547 0.29085 0.98749 0.0
O37 O 0.78191 0.28609 0.96204 0.0
O38 O 0.81443 0.27763 0.994 0.0
C39 C 0.749 0.24467 0.87243 0.0
O40 O 0.76249 0.22392 0.87102 0.0
C41 C 0.86129 0.2824 0.91289 0.0
Zn42 Zn 0.55643 0.82446 0.1266 0.0
Zn43 Zn 0.50968 0.78027 0.08707 0.0
O44 O 0.54114 0.75912 0.09478 0.0
O45 O 0.58032 0.79529 0.1264 0.0
O46 O 0.47723 0.74747 0.05622 0.0
O47 O 0.57133 0.86464 0.09849 0.0
O48 O 0.53364 0.82817 0.0661 0.0
C49 C 0.56798 0.76782 0.11072 0.0
C50 C 0.48473 0.78994 0.14726 0.0
O51 O 0.47786 0.77538 0.12208 0.0
O52 O 0.51608 0.81197 0.15421 0.0
C53 C 0.45847 0.75456 0.03959 0.0
O54 O 0.45852 0.78426 0.04323 0.0
C55 C 0.55729 0.85906 0.07341 0.0
Zn56 Zn 0.72795 0.56752 0.29296 0.0
Zn57 Zn 0.7227 0.51887 0.25444 0.0
O58 O 0.77564 0.54755 0.26301 0.0
O59 O 0.78019 0.58727 0.29488 0.0
O60 O 0.72008 0.48462 0.22381 0.0
O61 O 0.70825 0.58666 0.26332 0.0
O62 O 0.70259 0.54572 0.23232 0.0
C63 C 0.7944 0.57371 0.27957 0.0
C64 C 0.68562 0.49636 0.3139 0.0
O65 O 0.69357 0.48838 0.28929 0.0
O66 O 0.69638 0.52825 0.32024 0.0
C67 C 0.7374 0.46873 0.22639 0.0
O68 O 0.75573 0.47329 0.25034 0.0
C69 C 0.69916 0.57216 0.23843 0.0
Zn70 Zn 0.15893 0.73616 0.45991 0.0
Zn71 Zn 0.19952 0.72684 0.42099 0.0
O72 O 0.22757 0.78001 0.42911 0.0
O73 O 0.19399 0.78809 0.46025 0.0
O74 O 0.2273 0.72067 0.38899 0.0
O75 O 0.1187 0.71705 0.43139 0.0
O76 O 0.15206 0.70861 0.40033 0.0
C77 C 0.22181 0.80039 0.44513 0.0
C78 C 0.1848 0.6907 0.48047 0.0
O79 O 0.19981 0.69707 0.45553 0.0
O80 O 0.16573 0.70377 0.48718 0.0
C81 C 0.25875 0.72719 0.39142 0.0
O82 O 0.27471 0.73751 0.41682 0.0
C83 C 0.12292 0.70662 0.40666 0.0
H84 H 0.44308 0.12678 0.51933 0.0
H85 H 0.41956 0.07671 0.48532 0.0
H86 H 0.35417 0.00813 0.55421 0.0
H87 H 0.3774 0.05748 0.58819 0.0
H88 H 0.39274 0.98267 0.51989 0.0
H89 H 0.31654 0.02722 0.45267 0.0
H90 H 0.36254 0.05721 0.45886 0.0
H91 H 0.33224 0.04472 0.48882 0.0
C92 C 0.42377 0.10099 0.52723 0.0
C93 C 0.41197 0.09615 0.55645 0.0
C94 C 0.41035 0.0725 0.50776 0.0
C95 C 0.38503 0.03887 0.51728 0.0
C96 C 0.37375 0.03393 0.54649 0.0
H97 H 0.21421 0.85136 0.47236 0.0
H98 H 0.25938 0.91182 0.48213 0.0
C99 C 0.38699 0.06223 0.56586 0.0
C100 C 0.36913 0.00844 0.49714 0.0
H101 H 0.30478 0.96945 0.44562 0.0
C102 C 0.37414 0.97994 0.50307 0.0
C103 C 0.34491 0.00519 0.47534 0.0
C104 C 0.33843 0.03505 0.46844 0.0
C105 C 0.35373 0.94735 0.48923 0.0
C106 C 0.32798 0.94346 0.46869 0.0
C107 C 0.32469 0.97268 0.46128 0.0
C108 C 0.30039 0.90825 0.45886 0.0
C109 C 0.35796 0.91666 0.49836 0.0
C110 C 0.30827 0.88647 0.4418 0.0
C111 C 0.28238 0.8516 0.43622 0.0
C112 C 0.24831 0.83815 0.44768 0.0
C113 C 0.24023 0.86072 0.46345 0.0
C114 C 0.26599 0.89539 0.46893 0.0
H115 H 0.37637 0.92328 0.51705 0.0
H116 H 0.33217 0.89396 0.50468 0.0
H117 H 0.36827 0.90836 0.47966 0.0
H118 H 0.33462 0.8961 0.43356 0.0
H119 H 0.28937 0.83492 0.42386 0.0
H120 H 0.44525 0.28594 0.59238 0.0
H121 H 0.42575 0.32821 0.60316 0.0
H122 H 0.34298 0.25142 0.65784 0.0
H123 H 0.36189 0.20904 0.64707 0.0
H124 H 0.32294 0.29183 0.62156 0.0
H125 H 0.44507 0.37398 0.68576 0.0
H126 H 0.44993 0.3645 0.64826 0.0
H127 H 0.43191 0.32963 0.67467 0.0
C128 C 0.42256 0.27788 0.60634 0.0
C129 C 0.40537 0.24424 0.61916 0.0
C130 C 0.41157 0.30211 0.61254 0.0
C131 C 0.38326 0.29302 0.63159 0.0
C132 C 0.36495 0.25892 0.64311 0.0
H133 H 0.31429 0.37867 0.75933 0.0
H134 H 0.33992 0.35315 0.72716 0.0
C135 C 0.3759 0.23477 0.63701 0.0
C136 C 0.37397 0.31937 0.64164 0.0
H137 H 0.40069 0.38849 0.68883 0.0
C138 C 0.34014 0.31348 0.63576 0.0
C139 C 0.39651 0.34737 0.66032 0.0
C140 C 0.43284 0.35434 0.66788 0.0
C141 C 0.32759 0.33382 0.64924 0.0
C142 C 0.34961 0.36078 0.6689 0.0
C143 C 0.38404 0.36785 0.6736 0.0
C144 C 0.33584 0.37839 0.68794 0.0
C145 C 0.2902 0.32493 0.64387 0.0
C146 C 0.32555 0.40148 0.67654 0.0
C147 C 0.31083 0.41625 0.69495 0.0
C148 C 0.30615 0.40799 0.72499 0.0
C149 C 0.31732 0.38546 0.73631 0.0
C150 C 0.33208 0.37092 0.71798 0.0
H151 H 0.27545 0.30083 0.63034 0.0
H152 H 0.27622 0.32104 0.66502 0.0
H153 H 0.29012 0.3471 0.63235 0.0
H154 H 0.32859 0.40779 0.65342 0.0
H155 H 0.30257 0.43357 0.68557 0.0
H156 H 0.93037 0.30647 0.92431 0.0
H157 H 0.97934 0.33182 0.88991 0.0
H158 H 0.90881 0.32024 0.81979 0.0
H159 H 0.85926 0.29488 0.85426 0.0
H160 H 0.95801 0.29269 0.80977 0.0
H161 H 0.02311 0.4308 0.84862 0.0
H162 H 0.00988 0.39895 0.87753 0.0
H163 H 0.97708 0.39999 0.85481 0.0
C164 C 0.92517 0.30944 0.90163 0.0
C165 C 0.89093 0.2987 0.89202 0.0
C166 C 0.95323 0.3241 0.88204 0.0
C167 C 0.94763 0.32819 0.85247 0.0
C168 C 0.91356 0.31747 0.84263 0.0
H169 H 0.14629 0.43944 0.75615 0.0
H170 H 0.0841 0.41837 0.76591 0.0
C171 C 0.88538 0.30308 0.86234 0.0
C172 C 0.9776 0.34232 0.83199 0.0
H173 H 0.05929 0.41322 0.8225 0.0
C174 C 0.97989 0.31929 0.81197 0.0
C175 C 0.00578 0.37714 0.83464 0.0
C176 C 0.00383 0.40332 0.85487 0.0
C177 C 0.01092 0.32943 0.79619 0.0
C178 C 0.04024 0.36325 0.80088 0.0
C179 C 0.03686 0.38718 0.81909 0.0
C180 C 0.0758 0.37281 0.79052 0.0
C181 C 0.01248 0.30344 0.7755 0.0
C182 C 0.09154 0.35391 0.80082 0.0
C183 C 0.12698 0.36593 0.79549 0.0
C184 C 0.14743 0.3972 0.77981 0.0
C185 C 0.13122 0.41522 0.76826 0.0
C186 C 0.09572 0.40325 0.7738 0.0
H187 H 0.98603 0.28457 0.7668 0.0
H188 H 0.03044 0.31697 0.75684 0.0
H189 H 0.02232 0.28814 0.78748 0.0
H190 H 0.07687 0.33078 0.81431 0.0
H191 H 0.13863 0.3514 0.80463 0.0
H192 H 0.59695 0.92877 0.0857 0.0
H193 H 0.62003 0.97779 0.05157 0.0
H194 H 0.56846 0.9061 0.97993 0.0
H195 H 0.54491 0.85636 0.01422 0.0
H196 H 0.64183 0.95503 0.9714 0.0
H197 H 0.57017 0.02221 0.00702 0.0
H198 H 0.58797 0.01045 0.03744 0.0
H199 H 0.55481 0.97645 0.01485 0.0
C200 C 0.59014 0.92331 0.06275 0.0
C201 C 0.56915 0.88865 0.05265 0.0
C202 C 0.60314 0.95142 0.0433 0.0
C203 C 0.59549 0.94556 0.01334 0.0
C204 C 0.5743 0.91109 0.00306 0.0
H205 H 0.69738 0.14986 0.92467 0.0
H206 H 0.65243 0.0881 0.93151 0.0
C207 C 0.56091 0.88279 0.02265 0.0
C208 C 0.61235 0.97566 0.99301 0.0
H209 H 0.62745 0.05922 0.98515 0.0
C210 C 0.63808 0.97753 0.97373 0.0
C211 C 0.60697 0.00469 0.99567 0.0
C212 C 0.5782 0.00326 0.01465 0.0
C213 C 0.66085 0.00894 0.95916 0.0
C214 C 0.65794 0.03913 0.9644 0.0
C215 C 0.63 0.03619 0.98143 0.0
C216 C 0.68611 0.07478 0.95615 0.0
C217 C 0.68874 0.0099 0.93929 0.0
C218 C 0.71997 0.08764 0.96755 0.0
C219 C 0.74558 0.1228 0.96385 0.0
C220 C 0.73779 0.14594 0.9488 0.0
C221 C 0.70422 0.13272 0.93639 0.0
C222 C 0.67852 0.09745 0.94022 0.0
H223 H 0.6799 0.98372 0.92925 0.0
H224 H 0.69578 0.02961 0.92159 0.0
H225 H 0.71264 0.01698 0.95234 0.0
H226 H 0.72618 0.07086 0.98055 0.0
H227 H 0.77113 0.13208 0.97367 0.0
H228 H 0.6645 0.54206 0.187 0.0
H229 H 0.64214 0.56776 0.15106 0.0
H230 H 0.68183 0.66138 0.20397 0.0
H231 H 0.70367 0.6361 0.23989 0.0
H232 H 0.59347 0.59708 0.16836 0.0
H233 H 0.71934 0.69294 0.11622 0.0
H234 H 0.71244 0.65286 0.13334 0.0
H235 H 0.72113 0.69027 0.15542 0.0
C236 C 0.66853 0.56816 0.19086 0.0
C237 C 0.68573 0.58702 0.21632 0.0
C238 C 0.65582 0.58275 0.17034 0.0
C239 C 0.66083 0.61655 0.17482 0.0
C240 C 0.67817 0.63541 0.20004 0.0
H241 H 0.62336 0.77745 0.14421 0.0
H242 H 0.64476 0.73653 0.15161 0.0
C243 C 0.6904 0.62079 0.22062 0.0
C244 C 0.64646 0.63215 0.15444 0.0
H245 H 0.67265 0.70632 0.11406 0.0
C246 C 0.61043 0.62036 0.15565 0.0
C247 C 0.66886 0.66241 0.13802 0.0
C248 C 0.7076 0.67529 0.13538 0.0
C249 C 0.59665 0.64004 0.1431 0.0
C250 C 0.6196 0.67188 0.12857 0.0
C251 C 0.65515 0.68198 0.12529 0.0
C252 C 0.60856 0.69764 0.12099 0.0
C253 C 0.55831 0.62817 0.14767 0.0
C254 C 0.58168 0.68974 0.10071 0.0
C255 C 0.56913 0.71307 0.09656 0.0
C256 C 0.58346 0.74474 0.11252 0.0
C257 C 0.61156 0.75324 0.13169 0.0
C258 C 0.62394 0.72991 0.13588 0.0
H259 H 0.5454 0.60558 0.16298 0.0
H260 H 0.55521 0.65007 0.15643 0.0
H261 H 0.5444 0.61999 0.12636 0.0
H262 H 0.5699 0.66522 0.08862 0.0
H263 H 0.54764 0.70588 0.08143 0.0
H264 H 0.11613 0.66889 0.35667 0.0
H265 H 0.06699 0.64483 0.3218 0.0
H266 H 0.01595 0.68899 0.373 0.0
H267 H 0.06431 0.71262 0.40797 0.0
H268 H 0.98932 0.59801 0.34144 0.0
H269 H 0.02011 0.7209 0.28324 0.0
H270 H 0.0533 0.71444 0.30079 0.0
H271 H 0.02564 0.72506 0.32235 0.0
C272 C 0.09449 0.67359 0.36038 0.0
C273 C 0.09402 0.69257 0.3851 0.0
C274 C 0.06656 0.65987 0.34047 0.0
C275 C 0.03824 0.66556 0.34479 0.0
C276 C 0.03788 0.68473 0.36922 0.0
H277 H 0.84112 0.62955 0.31213 0.0
H278 H 0.90291 0.64959 0.32018 0.0
C279 C 0.06543 0.69802 0.38925 0.0
C280 C 0.0077 0.65016 0.32498 0.0
H281 H 0.96013 0.67431 0.28198 0.0
C282 C 0.98315 0.61429 0.32768 0.0
C283 C 9e-05 0.67168 0.30713 0.0
C284 C 0.02627 0.71015 0.30292 0.0
C285 C 0.94966 0.59996 0.31509 0.0
C286 C 0.94106 0.62215 0.29903 0.0
C287 C 0.96678 0.6574 0.29436 0.0
C288 C 0.90431 0.61111 0.29138 0.0
C289 C 0.92288 0.56202 0.32113 0.0
C290 C 0.88472 0.58318 0.27201 0.0
C291 C 0.84904 0.57138 0.26747 0.0
C292 C 0.83261 0.58751 0.28216 0.0
C293 C 0.85281 0.61635 0.3006 0.0
C294 C 0.88823 0.62798 0.30514 0.0
H295 H 0.93252 0.54981 0.33717 0.0
H296 H 0.89823 0.55985 0.32969 0.0
H297 H 0.91656 0.54677 0.30043 0.0
H298 H 0.89684 0.57018 0.26084 0.0
H299 H 0.83424 0.54924 0.25298 0.0
H300 H 0.53462 0.24598 0.50666 0.0
H301 H 0.56434 0.28119 0.4634 0.0
H302 H 0.5811 0.37475 0.50844 0.0
H303 H 0.55193 0.33995 0.5519 0.0
H304 H 0.54499 0.32176 0.43052 0.0
H305 H 0.67841 0.40401 0.4764 0.0
H306 H 0.6454 0.36449 0.49414 0.0
H307 H 0.64495 0.40502 0.49821 0.0
C308 C 0.54497 0.27412 0.50749 0.0
C309 C 0.54102 0.2902 0.53279 0.0
C310 C 0.56187 0.29415 0.48272 0.0
C311 C 0.57532 0.33061 0.48285 0.0
C312 C 0.57158 0.34675 0.5081 0.0
H313 H 0.66283 0.50517 0.36706 0.0
H314 H 0.63518 0.46194 0.4059 0.0
C315 C 0.55474 0.32677 0.53288 0.0
C316 C 0.59183 0.35166 0.4562 0.0
H317 H 0.66615 0.42379 0.43153 0.0
C318 C 0.57164 0.34379 0.43056 0.0
C319 C 0.62664 0.38025 0.45633 0.0
C320 C 0.65025 0.38877 0.48265 0.0
C321 C 0.58485 0.36481 0.40543 0.0
C322 C 0.61918 0.39415 0.40598 0.0
C323 C 0.63973 0.40134 0.43129 0.0
C324 C 0.63368 0.41911 0.38126 0.0
C325 C 0.5616 0.35642 0.37889 0.0
C326 C 0.64162 0.40917 0.35436 0.0
C327 C 0.65752 0.43393 0.33192 0.0
C328 C 0.6658 0.469 0.33619 0.0
C329 C 0.65693 0.47846 0.36299 0.0
C330 C 0.64116 0.45381 0.38528 0.0
H331 H 0.53393 0.33626 0.38363 0.0
H332 H 0.56226 0.38053 0.37067 0.0
H333 H 0.57146 0.34629 0.36116 0.0
H334 H 0.63638 0.38256 0.35099 0.0
H335 H 0.66414 0.42583 0.31161 0.0
H336 H 0.15441 0.67044 0.53431 0.0
H337 H 0.16625 0.63855 0.57195 0.0
H338 H 0.23965 0.63018 0.5145 0.0
H339 H 0.22831 0.66268 0.47654 0.0
H340 H 0.15838 0.57106 0.56999 0.0
H341 H 0.29713 0.67473 0.58955 0.0
H342 H 0.26672 0.68311 0.56952 0.0
H343 H 0.2858 0.65976 0.55238 0.0
C344 C 0.17305 0.66182 0.52953 0.0
C345 C 0.19058 0.66933 0.50243 0.0
C346 C 0.17973 0.64353 0.55111 0.0
C347 C 0.20417 0.63246 0.54616 0.0
C348 C 0.22115 0.63907 0.51892 0.0
H349 H 0.27356 0.52681 0.66889 0.0
H350 H 0.26579 0.5544 0.62518 0.0
C351 C 0.21445 0.65742 0.4972 0.0
C352 C 0.21163 0.61415 0.56982 0.0
H353 H 0.275 0.62323 0.61796 0.0
C354 C 0.18392 0.58234 0.58038 0.0
C355 C 0.24501 0.62897 0.58327 0.0
C356 C 0.27539 0.66365 0.57334 0.0
C357 C 0.18856 0.56512 0.6043 0.0
C358 C 0.22164 0.58043 0.61827 0.0
C359 C 0.24965 0.6117 0.60722 0.0
C360 C 0.22726 0.56488 0.64499 0.0
C361 C 0.15801 0.53067 0.61444 0.0
C362 C 0.20877 0.56246 0.67076 0.0
C363 C 0.21316 0.54681 0.69576 0.0
C364 C 0.23625 0.5334 0.69546 0.0
C365 C 0.25547 0.53676 0.66981 0.0
C366 C 0.25109 0.55249 0.64482 0.0
H367 H 0.13779 0.51806 0.59707 0.0
H368 H 0.1669 0.5121 0.62117 0.0
H369 H 0.1455 0.53552 0.63363 0.0
H370 H 0.19075 0.57251 0.67147 0.0
H371 H 0.19809 0.54482 0.71517 0.0
H372 H 0.72327 0.19968 0.82611 0.0
H373 H 0.68659 0.19983 0.78627 0.0
H374 H 0.69 0.29218 0.8228 0.0
H375 H 0.72593 0.29151 0.86347 0.0
H376 H 0.62537 0.24527 0.80816 0.0
H377 H 0.71139 0.25993 0.71474 0.0
H378 H 0.70361 0.22306 0.73683 0.0
H379 H 0.72673 0.26677 0.75212 0.0
C380 C 0.71649 0.22023 0.82559 0.0
C381 C 0.72759 0.24565 0.84792 0.0
C382 C 0.69576 0.22047 0.8026 0.0
C383 C 0.68624 0.24653 0.8011 0.0
C384 C 0.69731 0.27201 0.82336 0.0
H385 H 0.56967 0.2513 0.64616 0.0
H386 H 0.61599 0.26816 0.68297 0.0
C387 C 0.71778 0.27157 0.8466 0.0
C388 C 0.66268 0.24547 0.7774 0.0
H389 H 0.64978 0.23563 0.70346 0.0
C390 C 0.63099 0.24373 0.78524 0.0
C391 C 0.67025 0.24422 0.74741 0.0
C392 C 0.70504 0.24901 0.73728 0.0
C393 C 0.60587 0.23883 0.76408 0.0
C394 C 0.61216 0.2345 0.73437 0.0
C395 C 0.64467 0.23826 0.72631 0.0
C396 C 0.58465 0.22424 0.71167 0.0
C397 C 0.57275 0.23818 0.77387 0.0
C398 C 0.55211 0.19347 0.71519 0.0
C399 C 0.52565 0.18397 0.69443 0.0
C400 C 0.53137 0.20471 0.66938 0.0
C401 C 0.56446 0.23482 0.66525 0.0
C402 C 0.5909 0.24452 0.68627 0.0
H403 H 0.57716 0.25356 0.79435 0.0
H404 H 0.56282 0.24894 0.75678 0.0
H405 H 0.5522 0.21064 0.77845 0.0
H406 H 0.54708 0.17678 0.73411 0.0
H407 H 0.50064 0.16036 0.6981 0.0
H408 H 0.31729 0.56972 0.80216 0.0
H409 H 0.34488 0.61836 0.83747 0.0
H410 H 0.32921 0.54477 0.90617 0.0
H411 H 0.30184 0.49626 0.8714 0.0
H412 H 0.30668 0.59676 0.91856 0.0
H413 H 0.44392 0.6541 0.87748 0.0
H414 H 0.40978 0.64497 0.85131 0.0
H415 H 0.41062 0.60931 0.86957 0.0
C416 C 0.31988 0.56394 0.82476 0.0
C417 C 0.30746 0.52909 0.83391 0.0
C418 C 0.33564 0.59173 0.84485 0.0
C419 C 0.3391 0.58504 0.87433 0.0
C420 C 0.32671 0.55039 0.88349 0.0
H421 H 0.45858 0.69484 0.02313 0.0
H422 H 0.4283 0.65649 0.9816 0.0
C423 C 0.31118 0.52272 0.86351 0.0
C424 C 0.35558 0.61385 0.896 0.0
H425 H 0.43513 0.67969 0.91957 0.0
C426 C 0.33468 0.61527 0.91861 0.0
C427 C 0.39212 0.63764 0.896 0.0
C428 C 0.41565 0.63657 0.87244 0.0
C429 C 0.34957 0.63944 0.94172 0.0
C430 C 0.38621 0.66269 0.94206 0.0
C431 C 0.40699 0.66185 0.91907 0.0
C432 C 0.40385 0.68607 0.96729 0.0
C433 C 0.32635 0.63901 0.96626 0.0
C434 C 0.39998 0.71535 0.97296 0.0
C435 C 0.41734 0.73747 0.99672 0.0
C436 C 0.43876 0.73053 0.01516 0.0
C437 C 0.44223 0.70093 0.00945 0.0
C438 C 0.42506 0.67903 0.98567 0.0
H439 H 0.29912 0.61651 0.96445 0.0
H440 H 0.33735 0.63762 0.98776 0.0
H441 H 0.32533 0.66374 0.96583 0.0
H442 H 0.38385 0.72127 0.95884 0.0
H443 H 0.41419 0.76009 1.00048 0.0
H444 H 0.82236 0.30713 0.04275 0.0
H445 H 0.80936 0.33773 0.08097 0.0
H446 H 0.74021 0.35094 0.0222 0.0
H447 H 0.75276 0.3198 0.98362 0.0
H448 H 0.8196 0.40617 0.08018 0.0
H449 H 0.67895 0.30539 0.09541 0.0
H450 H 0.70932 0.29629 0.07598 0.0
H451 H 0.69211 0.32115 0.05866 0.0
C452 C 0.80435 0.31648 0.03782 0.0
C453 C 0.78847 0.31084 0.0101 0.0
C454 C 0.79699 0.33401 0.05975 0.0
C455 C 0.77348 0.34615 0.05454 0.0
C456 C 0.75796 0.34119 0.0268 0.0
H457 H 0.70442 0.45586 0.17323 0.0
H458 H 0.71228 0.42625 0.13085 0.0
C459 C 0.76535 0.32361 0.00474 0.0
C460 C 0.76581 0.36433 0.07831 0.0
H461 H 0.70112 0.35666 0.12443 0.0
C462 C 0.79368 0.39543 0.0898 0.0
C463 C 0.73194 0.35023 0.09074 0.0
C464 C 0.70133 0.31629 0.0798 0.0
C465 C 0.78866 0.41276 0.11354 0.0
C466 C 0.755 0.39823 0.12643 0.0
C467 C 0.72692 0.36758 0.11454 0.0
C468 C 0.74871 0.4143 0.15258 0.0
C469 C 0.81941 0.44659 0.12454 0.0
C470 C 0.76586 0.41649 0.17905 0.0
C471 C 0.76143 0.43333 0.20331 0.0
C472 C 0.73965 0.4482 0.20155 0.0
C473 C 0.72151 0.44483 0.17529 0.0
C474 C 0.72594 0.42793 0.15104 0.0
H475 H 0.84061 0.45878 0.10789 0.0
H476 H 0.81109 0.46582 0.13069 0.0
H477 H 0.83046 0.44101 0.14428 0.0
H478 H 0.78302 0.4055 0.18082 0.0
H479 H 0.77562 0.43527 0.22323 0.0
H480 H 0.23444 0.71213 0.33522 0.0
H481 H 0.26744 0.71563 0.29108 0.0
H482 H 0.35935 0.74396 0.34339 0.0
H483 H 0.32654 0.7405 0.38783 0.0
H484 H 0.32898 0.778 0.27328 0.0
H485 H 0.35291 0.66615 0.28738 0.0
H486 H 0.3188 0.66925 0.30694 0.0
H487 H 0.36367 0.69459 0.3187 0.0
C488 C 0.26155 0.71866 0.33746 0.0
C489 C 0.27791 0.72617 0.36509 0.0
C490 C 0.28033 0.72062 0.31218 0.0
C491 C 0.31568 0.72974 0.31403 0.0
C492 C 0.33189 0.73632 0.34158 0.0
H493 H 0.48848 0.82525 0.1974 0.0
H494 H 0.4439 0.80842 0.23541 0.0
C495 C 0.31316 0.73452 0.36693 0.0
C496 C 0.33635 0.73523 0.28698 0.0
H497 H 0.38635 0.70806 0.25037 0.0
C498 C 0.34119 0.76245 0.26808 0.0
C499 C 0.35196 0.7147 0.28018 0.0
C500 C 0.34641 0.68431 0.2992 0.0
C501 C 0.36245 0.77061 0.24312 0.0
C502 C 0.37927 0.75108 0.23701 0.0
C503 C 0.37338 0.72298 0.25524 0.0
C504 C 0.40528 0.76137 0.21317 0.0
C505 C 0.36737 0.80047 0.22369 0.0
C506 C 0.39816 0.74038 0.18808 0.0
C507 C 0.42357 0.75007 0.16607 0.0
C508 C 0.4566 0.78059 0.16917 0.0
C509 C 0.46336 0.80156 0.19433 0.0
C510 C 0.43792 0.79206 0.21606 0.0
H511 H 0.34704 0.80794 0.22775 0.0
H512 H 0.3935 0.82379 0.22806 0.0
H513 H 0.36652 0.79331 0.20024 0.0
H514 H 0.37306 0.71651 0.18561 0.0
H515 H 0.41767 0.73329 0.14703 0.0
loop_
_geom_bond_atom_site_label_1
_geom_bond_atom_site_label_2
_geom_bond_distance
_geom_bond_site_symmetry_2
_ccdc_geom_bond_type
Zn0 O3 2.031 . S
Zn0 O5 2.049 . S
Zn0 O10 2.067 . S
Zn1 O2 1.962 . S
Zn1 O4 1.986 . S
Zn1 O6 1.996 . S
Zn1 O9 1.943 . S
O2 Zn1 1.962 . S
O2 C7 1.254 . S
O3 Zn0 2.031 . S
O3 C7 1.269 . S
O4 Zn1 1.986 . S
O4 C11 1.262 . S
O5 Zn0 2.049 . S
O5 C13 1.260 . S
O6 Zn1 1.996 . S
O6 C13 1.257 . S
C7 O2 1.254 . S
C7 O3 1.269 . S
C8 O9 1.249 . S
C8 O10 1.270 . S
O9 Zn1 1.943 . S
O9 C8 1.249 . S
O10 Zn0 2.067 . S
O10 C8 1.270 . S
C11 O4 1.262 . S
C11 O12 1.232 . S
O12 C11 1.232 . S
C13 O5 1.260 . S
C13 O6 1.257 . S
Zn14 O17 2.031 . S
Zn14 O19 2.049 . S
Zn14 O24 2.067 . S
Zn15 O16 1.962 . S
Zn15 O18 1.986 . S
Zn15 O20 1.996 . S
Zn15 O23 1.943 . S
O16 Zn15 1.962 . S
O16 C21 1.254 . S
O17 Zn14 2.031 . S
O17 C21 1.269 . S
O18 Zn15 1.986 . S
O18 C25 1.262 . S
O19 Zn14 2.049 . S
O19 C27 1.260 . S
O20 Zn15 1.996 . S
O20 C27 1.257 . S
C21 O16 1.254 . S
C21 O17 1.269 . S
C22 O23 1.249 . S
C22 O24 1.270 . S
O23 Zn15 1.943 . S
O23 C22 1.249 . S
O24 Zn14 2.067 . S
O24 C22 1.270 . S
C25 O18 1.262 . S
C25 O26 1.232 . S
O26 C25 1.232 . S
C27 O19 1.260 . S
C27 O20 1.257 . S
Zn28 O31 2.031 . S
Zn28 O33 2.049 . S
Zn28 O38 2.067 . S
Zn29 O30 1.962 . S
Zn29 O32 1.986 . S
Zn29 O34 1.996 . S
Zn29 O37 1.943 . S
O30 Zn29 1.962 . S
O30 C35 1.254 . S
O31 Zn28 2.031 . S
O31 C35 1.269 . S
O32 Zn29 1.986 . S
O32 C39 1.262 . S
O33 Zn28 2.049 . S
O33 C41 1.260 . S
O34 Zn29 1.996 . S
O34 C41 1.257 . S
C35 O30 1.254 . S
C35 O31 1.269 . S
C36 O37 1.249 . S
C36 O38 1.270 . S
O37 Zn29 1.943 . S
O37 C36 1.249 . S
O38 Zn28 2.067 . S
O38 C36 1.270 . S
C39 O32 1.262 . S
C39 O40 1.232 . S
O40 C39 1.232 . S
C41 O33 1.260 . S
C41 O34 1.257 . S
Zn42 O45 2.031 . S
Zn42 O47 2.049 . S
Zn42 O52 2.067 . S
Zn43 O44 1.962 . S
Zn43 O46 1.986 . S
Zn43 O48 1.996 . S
Zn43 O51 1.943 . S
O44 Zn43 1.962 . S
O44 C49 1.254 . S
O45 Zn42 2.031 . S
O45 C49 1.269 . S
O46 Zn43 1.986 . S
O46 C53 1.262 . S
O47 Zn42 2.049 . S
O47 C55 1.260 . S
O48 Zn43 1.996 . S
O48 C55 1.257 . S
C49 O44 1.254 . S
C49 O45 1.269 . S
C50 O51 1.249 . S
C50 O52 1.270 . S
O51 Zn43 1.943 . S
O51 C50 1.249 . S
O52 Zn42 2.067 . S
O52 C50 1.270 . S
C53 O46 1.262 . S
C53 O54 1.232 . S
O54 C53 1.232 . S
C55 O47 1.260 . S
C55 O48 1.257 . S
Zn56 O59 2.031 . S
Zn56 O61 2.049 . S
Zn56 O66 2.067 . S
Zn57 O58 1.962 . S
Zn57 O60 1.986 . S
Zn57 O62 1.996 . S
Zn57 O65 1.943 . S
O58 Zn57 1.962 . S
O58 C63 1.254 . S
O59 Zn56 2.031 . S
O59 C63 1.269 . S
O60 Zn57 1.986 . S
O60 C67 1.262 . S
O61 Zn56 2.049 . S
O61 C69 1.260 . S
O62 Zn57 1.996 . S
O62 C69 1.257 . S
C63 O58 1.254 . S
C63 O59 1.269 . S
C64 O65 1.249 . S
C64 O66 1.270 . S
O65 Zn57 1.943 . S
O65 C64 1.249 . S
O66 Zn56 2.067 . S
O66 C64 1.270 . S
C67 O60 1.262 . S
C67 O68 1.232 . S
O68 C67 1.232 . S
C69 O61 1.260 . S
C69 O62 1.257 . S
Zn70 O73 2.031 . S
Zn70 O75 2.049 . S
Zn70 O80 2.067 . S
Zn71 O72 1.962 . S
Zn71 O74 1.986 . S
Zn71 O76 1.996 . S
Zn71 O79 1.943 . S
O72 Zn71 1.962 . S
O72 C77 1.254 . S
O73 Zn70 2.031 . S
O73 C77 1.269 . S
O74 Zn71 1.986 . S
O74 C81 1.262 . S
O75 Zn70 2.049 . S
O75 C83 1.260 . S
O76 Zn71 1.996 . S
O76 C83 1.257 . S
C77 O72 1.254 . S
C77 O73 1.269 . S
C78 O79 1.249 . S
C78 O80 1.270 . S
O79 Zn71 1.943 . S
O79 C78 1.249 . S
O80 Zn70 2.067 . S
O80 C78 1.270 . S
C81 O74 1.262 . S
C81 O82 1.232 . S
O82 C81 1.232 . S
C83 O75 1.260 . S
C83 O76 1.257 . S
H84 C92 0.929 . S
H85 C94 0.930 . S
H86 C96 0.930 . S
H87 C99 0.929 . S
H88 C102 0.930 . S
H89 C104 0.960 . S
H90 C104 0.960 . S
H91 C104 0.960 . S
C92 H84 0.929 . S
C92 C93 1.377 . S
C92 C94 1.384 . S
C93 C92 1.377 . S
C93 C99 1.390 . S
C94 H85 0.930 . S
C94 C92 1.384 . S
C94 C95 1.372 . S
C95 C94 1.372 . S
C95 C96 1.400 . S
C95 C100 1.490 . S
C96 H86 0.930 . S
C96 C95 1.400 . S
C96 C99 1.386 . S
H97 C113 0.930 . S
H98 C114 0.931 . S
C99 H87 0.929 . S
C99 C93 1.390 . S
C99 C96 1.386 . S
C100 C95 1.490 . S
C100 C102 1.395 . S
C100 C103 1.403 . S
H101 C107 0.930 . S
C102 H88 0.930 . S
C102 C100 1.395 . S
C102 C105 1.403 1_545 S
C103 C100 1.403 . S
C103 C104 1.524 . S
C103 C107 1.400 1_545 S
C104 H89 0.960 . S
C104 H90 0.960 . S
C104 H91 0.960 . S
C104 C103 1.524 . S
C105 C102 1.403 1_565 S
C105 C106 1.392 . S
C105 C109 1.495 . S
C106 C105 1.392 . S
C106 C107 1.385 . S
C106 C108 1.478 . S
C107 H101 0.930 . S
C107 C103 1.400 1_565 S
C107 C106 1.385 . S
C108 C106 1.478 . S
C108 C110 1.381 . S
C108 C114 1.383 . S
C109 C105 1.495 . S
C109 H115 0.959 . S
C109 H116 0.961 . S
C109 H117 0.960 . S
C110 C108 1.381 . S
C110 C111 1.394 . S
C110 H118 0.930 . S
C111 C110 1.394 . S
C111 C112 1.383 . S
C111 H119 0.929 . S
C112 C111 1.383 . S
C112 C113 1.377 . S
C113 H97 0.930 . S
C113 C112 1.377 . S
C113 C114 1.379 . S
C114 H98 0.931 . S
C114 C108 1.383 . S
C114 C113 1.379 . S
H115 C109 0.959 . S
H116 C109 0.961 . S
H117 C109 0.960 . S
H118 C110 0.930 . S
H119 C111 0.929 . S
H120 C128 0.929 . S
H121 C130 0.930 . S
H122 C132 0.930 . S
H123 C135 0.929 . S
H124 C138 0.930 . S
H125 C140 0.960 . S
H126 C140 0.960 . S
H127 C140 0.960 . S
C128 H120 0.929 . S
C128 C129 1.377 . S
C128 C130 1.384 . S
C129 C128 1.377 . S
C129 C135 1.390 . S
C130 H121 0.930 . S
C130 C128 1.384 . S
C130 C131 1.372 . S
C131 C130 1.372 . S
C131 C132 1.400 . S
C131 C136 1.490 . S
C132 H122 0.930 . S
C132 C131 1.400 . S
C132 C135 1.386 . S
H133 C149 0.930 . S
H134 C150 0.931 . S
C135 H123 0.929 . S
C135 C129 1.390 . S
C135 C132 1.386 . S
C136 C131 1.490 . S
C136 C138 1.395 . S
C136 C139 1.403 . S
H137 C143 0.930 . S
C138 H124 0.930 . S
C138 C136 1.395 . S
C138 C141 1.403 . S
C139 C136 1.403 . S
C139 C140 1.524 . S
C139 C143 1.400 . S
C140 H125 0.960 . S
C140 H126 0.960 . S
C140 H127 0.960 . S
C140 C139 1.524 . S
C141 C138 1.403 . S
C141 C142 1.392 . S
C141 C145 1.495 . S
C142 C141 1.392 . S
C142 C143 1.385 . S
C142 C144 1.478 . S
C143 H137 0.930 . S
C143 C139 1.400 . S
C143 C142 1.385 . S
C144 C142 1.478 . S
C144 C146 1.381 . S
C144 C150 1.383 . S
C145 C141 1.495 . S
C145 H151 0.959 . S
C145 H152 0.961 . S
C145 H153 0.960 . S
C146 C144 1.381 . S
C146 C147 1.394 . S
C146 H154 0.930 . S
C147 C146 1.394 . S
C147 C148 1.383 . S
C147 H155 0.929 . S
C148 C147 1.383 . S
C148 C149 1.377 . S
C149 H133 0.930 . S
C149 C148 1.377 . S
C149 C150 1.379 . S
C150 H134 0.931 . S
C150 C144 1.383 . S
C150 C149 1.379 . S
H151 C145 0.959 . S
H152 C145 0.961 . S
H153 C145 0.960 . S
H154 C146 0.930 . S
H155 C147 0.929 . S
H156 C164 0.929 . S
H157 C166 0.930 . S
H158 C168 0.930 . S
H159 C171 0.929 . S
H160 C174 0.930 . S
H161 C176 0.960 . S
H162 C176 0.960 . S
H163 C176 0.960 . S
C164 H156 0.929 . S
C164 C165 1.377 . S
C164 C166 1.384 . S
C165 C164 1.377 . S
C165 C171 1.390 . S
C166 H157 0.930 . S
C166 C164 1.384 . S
C166 C167 1.372 . S
C167 C166 1.372 . S
C167 C168 1.400 . S
C167 C172 1.490 . S
C168 H158 0.930 . S
C168 C167 1.400 . S
C168 C171 1.386 . S
H169 C185 0.930 . S
H170 C186 0.931 . S
C171 H159 0.929 . S
C171 C165 1.390 . S
C171 C168 1.386 . S
C172 C167 1.490 . S
C172 C174 1.395 . S
C172 C175 1.403 . S
H173 C179 0.930 . S
C174 H160 0.930 . S
C174 C172 1.395 . S
C174 C177 1.403 1_655 S
C175 C172 1.403 . S
C175 C176 1.524 . S
C175 C179 1.400 1_655 S
C176 H161 0.960 . S
C176 H162 0.960 . S
C176 H163 0.960 . S
C176 C175 1.524 . S
C177 C174 1.403 1_455 S
C177 C178 1.392 . S
C177 C181 1.495 . S
C178 C177 1.392 . S
C178 C179 1.385 . S
C178 C180 1.478 . S
C179 H173 0.930 . S
C179 C175 1.400 1_455 S
C179 C178 1.385 . S
C180 C178 1.478 . S
C180 C182 1.381 . S
C180 C186 1.383 . S
C181 C177 1.495 . S
C181 H187 0.959 . S
C181 H188 0.961 . S
C181 H189 0.960 . S
C182 C180 1.381 . S
C182 C183 1.394 . S
C182 H190 0.930 . S
C183 C182 1.394 . S
C183 C184 1.383 . S
C183 H191 0.929 . S
C184 C183 1.383 . S
C184 C185 1.377 . S
C185 H169 0.930 . S
C185 C184 1.377 . S
C185 C186 1.379 . S
C186 H170 0.931 . S
C186 C180 1.383 . S
C186 C185 1.379 . S
H187 C181 0.959 . S
H188 C181 0.961 . S
H189 C181 0.960 . S
H190 C182 0.930 . S
H191 C183 0.929 . S
H192 C200 0.929 . S
H193 C202 0.930 . S
H194 C204 0.930 1_556 S
H195 C207 0.929 . S
H196 C210 0.930 . S
H197 C212 0.960 1_556 S
H198 C212 0.960 . S
H199 C212 0.960 1_556 S
C200 H192 0.929 . S
C200 C201 1.377 . S
C200 C202 1.384 . S
C201 C200 1.377 . S
C201 C207 1.390 . S
C202 H193 0.930 . S
C202 C200 1.384 . S
C202 C203 1.372 . S
C203 C202 1.372 . S
C203 C204 1.400 . S
C203 C208 1.490 . S
C204 H194 0.930 1_554 S
C204 C203 1.400 . S
C204 C207 1.386 . S
H205 C221 0.930 . S
H206 C222 0.931 . S
C207 H195 0.929 . S
C207 C201 1.390 . S
C207 C204 1.386 . S
C208 C203 1.490 . S
C208 C210 1.395 . S
C208 C211 1.403 . S
H209 C215 0.930 . S
C210 H196 0.930 . S
C210 C208 1.395 . S
C210 C213 1.403 1_565 S
C211 C208 1.403 . S
C211 C212 1.524 . S
C211 C215 1.400 1_564 S
C212 H197 0.960 1_554 S
C212 H198 0.960 . S
C212 H199 0.960 1_554 S
C212 C211 1.524 . S
C213 C210 1.403 1_545 S
C213 C214 1.392 1_554 S
C213 C217 1.495 . S
C214 C213 1.392 1_556 S
C214 C215 1.385 . S
C214 C216 1.478 . S
C215 H209 0.930 . S
C215 C211 1.400 1_546 S
C215 C214 1.385 . S
C216 C214 1.478 . S
C216 C218 1.381 . S
C216 C222 1.383 . S
C217 C213 1.495 . S
C217 H223 0.959 . S
C217 H224 0.961 1_554 S
C217 H225 0.960 . S
C218 C216 1.381 . S
C218 C219 1.394 . S
C218 H226 0.930 1_556 S
C219 C218 1.394 . S
C219 C220 1.383 . S
C219 H227 0.929 . S
C220 C219 1.383 . S
C220 C221 1.377 . S
C221 H205 0.930 . S
C221 C220 1.377 . S
C221 C222 1.379 . S
C222 H206 0.931 . S
C222 C216 1.383 . S
C222 C221 1.379 . S
H223 C217 0.959 . S
H224 C217 0.961 1_556 S
H225 C217 0.960 . S
H226 C218 0.930 1_554 S
H227 C219 0.929 . S
H228 C236 0.929 . S
H229 C238 0.930 . S
H230 C240 0.930 . S
H231 C243 0.929 . S
H232 C246 0.930 . S
H233 C248 0.960 . S
H234 C248 0.960 . S
H235 C248 0.960 . S
C236 H228 0.929 . S
C236 C237 1.377 . S
C236 C238 1.384 . S
C237 C236 1.377 . S
C237 C243 1.390 . S
C238 H229 0.930 . S
C238 C236 1.384 . S
C238 C239 1.372 . S
C239 C238 1.372 . S
C239 C240 1.400 . S
C239 C244 1.490 . S
C240 H230 0.930 . S
C240 C239 1.400 . S
C240 C243 1.386 . S
H241 C257 0.930 . S
H242 C258 0.931 . S
C243 H231 0.929 . S
C243 C237 1.390 . S
C243 C240 1.386 . S
C244 C239 1.490 . S
C244 C246 1.395 . S
C244 C247 1.403 . S
H245 C251 0.930 . S
C246 H232 0.930 . S
C246 C244 1.395 . S
C246 C249 1.403 . S
C247 C244 1.403 . S
C247 C248 1.524 . S
C247 C251 1.400 . S
C248 H233 0.960 . S
C248 H234 0.960 . S
C248 H235 0.960 . S
C248 C247 1.524 . S
C249 C246 1.403 . S
C249 C250 1.392 . S
C249 C253 1.495 . S
C250 C249 1.392 . S
C250 C251 1.385 . S
C250 C252 1.478 . S
C251 H245 0.930 . S
C251 C247 1.400 . S
C251 C250 1.385 . S
C252 C250 1.478 . S
C252 C254 1.381 . S
C252 C258 1.383 . S
C253 C249 1.495 . S
C253 H259 0.959 . S
C253 H260 0.961 . S
C253 H261 0.960 . S
C254 C252 1.381 . S
C254 C255 1.394 . S
C254 H262 0.930 . S
C255 C254 1.394 . S
C255 C256 1.383 . S
C255 H263 0.929 . S
C256 C255 1.383 . S
C256 C257 1.377 . S
C257 H241 0.930 . S
C257 C256 1.377 . S
C257 C258 1.379 . S
C258 H242 0.931 . S
C258 C252 1.383 . S
C258 C257 1.379 . S
H259 C253 0.959 . S
H260 C253 0.961 . S
H261 C253 0.960 . S
H262 C254 0.930 . S
H263 C255 0.929 . S
H264 C272 0.929 . S
H265 C274 0.930 . S
H266 C276 0.930 . S
H267 C279 0.929 . S
H268 C282 0.930 . S
H269 C284 0.965 . S
H270 C284 0.960 . S
H271 C284 0.960 . S
C272 H264 0.929 . S
C272 C273 1.377 . S
C272 C274 1.384 . S
C273 C272 1.377 . S
C273 C279 1.390 . S
C274 H265 0.930 . S
C274 C272 1.384 . S
C274 C275 1.372 . S
C275 C274 1.372 . S
C275 C276 1.400 . S
C275 C280 1.490 . S
C276 H266 0.930 . S
C276 C275 1.400 . S
C276 C279 1.386 . S
H277 C293 0.930 . S
H278 C294 0.931 . S
C279 H267 0.929 . S
C279 C273 1.390 . S
C279 C276 1.386 . S
C280 C275 1.490 . S
C280 C282 1.395 . S
C280 C283 1.403 . S
H281 C287 0.930 . S
C282 H268 0.930 . S
C282 C280 1.395 . S
C282 C285 1.403 1_455 S
C283 C280 1.403 . S
C283 C284 1.524 . S
C283 C287 1.400 1_455 S
C284 H269 0.965 . S
C284 H270 0.960 . S
C284 H271 0.960 . S
C284 C283 1.524 . S
C285 C282 1.403 1_655 S
C285 C286 1.392 . S
C285 C289 1.495 . S
C286 C285 1.392 . S
C286 C287 1.385 . S
C286 C288 1.478 . S
C287 H281 0.930 . S
C287 C283 1.400 1_655 S
C287 C286 1.385 . S
C288 C286 1.478 . S
C288 C290 1.381 . S
C288 C294 1.383 . S
C289 C285 1.495 . S
C289 H295 0.959 . S
C289 H296 0.961 . S
C289 H297 0.960 . S
C290 C288 1.381 . S
C290 C291 1.394 . S
C290 H298 0.930 . S
C291 C290 1.394 . S
C291 C292 1.383 . S
C291 H299 0.929 . S
C292 C291 1.383 . S
C292 C293 1.377 . S
C293 H277 0.930 . S
C293 C292 1.377 . S
C293 C294 1.379 . S
C294 H278 0.931 . S
C294 C288 1.383 . S
C294 C293 1.379 . S
H295 C289 0.959 . S
H296 C289 0.961 . S
H297 C289 0.960 . S
H298 C290 0.930 . S
H299 C291 0.929 . S
H300 C308 0.929 . S
H301 C310 0.930 . S
H302 C312 0.930 . S
H303 C315 0.929 . S
H304 C318 0.930 . S
H305 C320 0.960 . S
H306 C320 0.960 . S
H307 C320 0.960 . S
C308 H300 0.929 . S
C308 C309 1.377 . S
C308 C310 1.384 . S
C309 C308 1.377 . S
C309 C315 1.390 . S
C310 H301 0.930 . S
C310 C308 1.384 . S
C310 C311 1.372 . S
C311 C310 1.372 . S
C311 C312 1.400 . S
C311 C316 1.490 . S
C312 H302 0.930 . S
C312 C311 1.400 . S
C312 C315 1.386 . S
H313 C329 0.930 . S
H314 C330 0.931 . S
C315 H303 0.929 . S
C315 C309 1.390 . S
C315 C312 1.386 . S
C316 C311 1.490 . S
C316 C318 1.395 . S
C316 C319 1.403 . S
H317 C323 0.930 . S
C318 H304 0.930 . S
C318 C316 1.395 . S
C318 C321 1.403 . S
C319 C316 1.403 . S
C319 C320 1.524 . S
C319 C323 1.400 . S
C320 H305 0.960 . S
C320 H306 0.960 . S
C320 H307 0.960 . S
C320 C319 1.524 . S
C321 C318 1.403 . S
C321 C322 1.392 . S
C321 C325 1.495 . S
C322 C321 1.392 . S
C322 C323 1.385 . S
C322 C324 1.478 . S
C323 H317 0.930 . S
C323 C319 1.400 . S
C323 C322 1.385 . S
C324 C322 1.478 . S
C324 C326 1.381 . S
C324 C330 1.383 . S
C325 C321 1.495 . S
C325 H331 0.959 . S
C325 H332 0.961 . S
C325 H333 0.960 . S
C326 C324 1.381 . S
C326 C327 1.394 . S
C326 H334 0.930 . S
C327 C326 1.394 . S
C327 C328 1.383 . S
C327 H335 0.929 . S
C328 C327 1.383 . S
C328 C329 1.377 . S
C329 H313 0.930 . S
C329 C328 1.377 . S
C329 C330 1.379 . S
C330 H314 0.931 . S
C330 C324 1.383 . S
C330 C329 1.379 . S
H331 C325 0.959 . S
H332 C325 0.961 . S
H333 C325 0.960 . S
H334 C326 0.930 . S
H335 C327 0.929 . S
H336 C344 0.929 . S
H337 C346 0.930 . S
H338 C348 0.930 . S
H339 C351 0.929 . S
H340 C354 0.930 . S
H341 C356 0.960 . S
H342 C356 0.960 . S
H343 C356 0.960 . S
C344 H336 0.929 . S
C344 C345 1.377 . S
C344 C346 1.384 . S
C345 C344 1.377 . S
C345 C351 1.390 . S
C346 H337 0.930 . S
C346 C344 1.384 . S
C346 C347 1.372 . S
C347 C346 1.372 . S
C347 C348 1.400 . S
C347 C352 1.490 . S
C348 H338 0.930 . S
C348 C347 1.400 . S
C348 C351 1.386 . S
H349 C365 0.930 . S
H350 C366 0.931 . S
C351 H339 0.929 . S
C351 C345 1.390 . S
C351 C348 1.386 . S
C352 C347 1.490 . S
C352 C354 1.395 . S
C352 C355 1.403 . S
H353 C359 0.930 . S
C354 H340 0.930 . S
C354 C352 1.395 . S
C354 C357 1.403 . S
C355 C352 1.403 . S
C355 C356 1.524 . S
C355 C359 1.400 . S
C356 H341 0.960 . S
C356 H342 0.960 . S
C356 H343 0.960 . S
C356 C355 1.524 . S
C357 C354 1.403 . S
C357 C358 1.392 . S
C357 C361 1.495 . S
C358 C357 1.392 . S
C358 C359 1.385 . S
C358 C360 1.478 . S
C359 H353 0.930 . S
C359 C355 1.400 . S
C359 C358 1.385 . S
C360 C358 1.478 . S
C360 C362 1.381 . S
C360 C366 1.383 . S
C361 C357 1.495 . S
C361 H367 0.959 . S
C361 H368 0.961 . S
C361 H369 0.960 . S
C362 C360 1.381 . S
C362 C363 1.394 . S
C362 H370 0.930 . S
C363 C362 1.394 . S
C363 C364 1.383 . S
C363 H371 0.929 . S
C364 C363 1.383 . S
C364 C365 1.377 . S
C365 H349 0.930 . S
C365 C364 1.377 . S
C365 C366 1.379 . S
C366 H350 0.931 . S
C366 C360 1.383 . S
C366 C365 1.379 . S
H367 C361 0.959 . S
H368 C361 0.961 . S
H369 C361 0.960 . S
H370 C362 0.930 . S
H371 C363 0.929 . S
H372 C380 0.929 . S
H373 C382 0.930 . S
H374 C384 0.930 . S
H375 C387 0.929 . S
H376 C390 0.930 . S
H377 C392 0.960 . S
H378 C392 0.960 . S
H379 C392 0.960 . S
C380 H372 0.929 . S
C380 C381 1.377 . S
C380 C382 1.384 . S
C381 C380 1.377 . S
C381 C387 1.390 . S
C382 H373 0.930 . S
C382 C380 1.384 . S
C382 C383 1.372 . S
C383 C382 1.372 . S
C383 C384 1.400 . S
C383 C388 1.490 . S
C384 H374 0.930 . S
C384 C383 1.400 . S
C384 C387 1.386 . S
H385 C401 0.930 . S
H386 C402 0.931 . S
C387 H375 0.929 . S
C387 C381 1.390 . S
C387 C384 1.386 . S
C388 C383 1.490 . S
C388 C390 1.395 . S
C388 C391 1.403 . S
H389 C395 0.930 . S
C390 H376 0.930 . S
C390 C388 1.395 . S
C390 C393 1.403 . S
C391 C388 1.403 . S
C391 C392 1.524 . S
C391 C395 1.400 . S
C392 H377 0.960 . S
C392 H378 0.960 . S
C392 H379 0.960 . S
C392 C391 1.524 . S
C393 C390 1.403 . S
C393 C394 1.392 . S
C393 C397 1.495 . S
C394 C393 1.392 . S
C394 C395 1.385 . S
C394 C396 1.478 . S
C395 H389 0.930 . S
C395 C391 1.400 . S
C395 C394 1.385 . S
C396 C394 1.478 . S
C396 C398 1.381 . S
C396 C402 1.383 . S
C397 C393 1.495 . S
C397 H403 0.959 . S
C397 H404 0.961 . S
C397 H405 0.960 . S
C398 C396 1.381 . S
C398 C399 1.394 . S
C398 H406 0.930 . S
C399 C398 1.394 . S
C399 C400 1.383 . S
C399 H407 0.929 . S
C400 C399 1.383 . S
C400 C401 1.377 . S
C401 H385 0.930 . S
C401 C400 1.377 . S
C401 C402 1.379 . S
C402 H386 0.931 . S
C402 C396 1.383 . S
C402 C401 1.379 . S
H403 C397 0.959 . S
H404 C397 0.961 . S
H405 C397 0.960 . S
H406 C398 0.930 . S
H407 C399 0.929 . S
H408 C416 0.929 . S
H409 C418 0.930 . S
H410 C420 0.930 . S
H411 C423 0.929 . S
H412 C426 0.930 . S
H413 C428 0.960 . S
H414 C428 0.960 . S
H415 C428 0.960 . S
C416 H408 0.929 . S
C416 C417 1.377 . S
C416 C418 1.384 . S
C417 C416 1.377 . S
C417 C423 1.390 . S
C418 H409 0.930 . S
C418 C416 1.384 . S
C418 C419 1.372 . S
C419 C418 1.372 . S
C419 C420 1.400 . S
C419 C424 1.490 . S
C420 H410 0.930 . S
C420 C419 1.400 . S
C420 C423 1.386 . S
H421 C437 0.930 . S
H422 C438 0.931 . S
C423 H411 0.929 . S
C423 C417 1.390 . S
C423 C420 1.386 . S
C424 C419 1.490 . S
C424 C426 1.395 . S
C424 C427 1.403 . S
H425 C431 0.930 . S
C426 H412 0.930 . S
C426 C424 1.395 . S
C426 C429 1.403 . S
C427 C424 1.403 . S
C427 C428 1.524 . S
C427 C431 1.400 . S
C428 H413 0.960 . S
C428 H414 0.960 . S
C428 H415 0.960 . S
C428 C427 1.524 . S
C429 C426 1.403 . S
C429 C430 1.392 . S
C429 C433 1.495 . S
C430 C429 1.392 . S
C430 C431 1.385 . S
C430 C432 1.478 . S
C431 H425 0.930 . S
C431 C427 1.400 . S
C431 C430 1.385 . S
C432 C430 1.478 . S
C432 C434 1.381 . S
C432 C438 1.383 . S
C433 C429 1.495 . S
C433 H439 0.959 . S
C433 H440 0.961 . S
C433 H441 0.960 . S
C434 C432 1.381 . S
C434 C435 1.394 1_556 S
C434 H442 0.930 . S
C435 C434 1.394 1_554 S
C435 C436 1.383 . S
C435 H443 0.929 . S
C436 C435 1.383 . S
C436 C437 1.377 1_554 S
C437 H421 0.930 . S
C437 C436 1.377 1_556 S
C437 C438 1.379 . S
C438 H422 0.931 . S
C438 C432 1.383 . S
C438 C437 1.379 . S
H439 C433 0.959 . S
H440 C433 0.961 . S
H441 C433 0.960 . S
H442 C434 0.930 . S
H443 C435 0.929 . S
H444 C452 0.929 . S
H445 C454 0.930 . S
H446 C456 0.930 . S
H447 C459 0.929 . S
H448 C462 0.930 . S
H449 C464 0.960 . S
H450 C464 0.960 . S
H451 C464 0.960 . S
C452 H444 0.929 . S
C452 C453 1.377 1_554 S
C452 C454 1.384 . S
C453 C452 1.377 1_556 S
C453 C459 1.390 . S
C454 H445 0.930 . S
C454 C452 1.384 . S
C454 C455 1.372 . S
C455 C454 1.372 . S
C455 C456 1.400 . S
C455 C460 1.490 . S
C456 H446 0.930 . S
C456 C455 1.400 . S
C456 C459 1.386 1_554 S
H457 C473 0.930 . S
H458 C474 0.931 . S
C459 H447 0.929 . S
C459 C453 1.390 . S
C459 C456 1.386 1_556 S
C460 C455 1.490 . S
C460 C462 1.395 . S
C460 C463 1.403 . S
H461 C467 0.930 . S
C462 H448 0.930 . S
C462 C460 1.395 . S
C462 C465 1.403 . S
C463 C460 1.403 . S
C463 C464 1.524 . S
C463 C467 1.400 . S
C464 H449 0.960 . S
C464 H450 0.960 . S
C464 H451 0.960 . S
C464 C463 1.524 . S
C465 C462 1.403 . S
C465 C466 1.392 . S
C465 C469 1.495 . S
C466 C465 1.392 . S
C466 C467 1.385 . S
C466 C468 1.478 . S
C467 H461 0.930 . S
C467 C463 1.400 . S
C467 C466 1.385 . S
C468 C466 1.478 . S
C468 C470 1.381 . S
C468 C474 1.383 . S
C469 C465 1.495 . S
C469 H475 0.959 . S
C469 H476 0.961 . S
C469 H477 0.960 . S
C470 C468 1.381 . S
C470 C471 1.394 . S
C470 H478 0.930 . S
C471 C470 1.394 . S
C471 C472 1.383 . S
C471 H479 0.929 . S
C472 C471 1.383 . S
C472 C473 1.377 . S
C473 H457 0.930 . S
C473 C472 1.377 . S
C473 C474 1.379 . S
C474 H458 0.931 . S
C474 C468 1.383 . S
C474 C473 1.379 . S
H475 C469 0.959 . S
H476 C469 0.961 . S
H477 C469 0.960 . S
H478 C470 0.930 . S
H479 C471 0.929 . S
H480 C488 0.929 . S
H481 C490 0.930 . S
H482 C492 0.930 . S
H483 C495 0.929 . S
H484 C498 0.930 . S
H485 C500 0.960 . S
H486 C500 0.960 . S
H487 C500 0.960 . S
C488 H480 0.929 . S
C488 C489 1.377 . S
C488 C490 1.384 . S
C489 C488 1.377 . S
C489 C495 1.390 . S
C490 H481 0.930 . S
C490 C488 1.384 . S
C490 C491 1.372 . S
C491 C490 1.372 . S
C491 C492 1.400 . S
C491 C496 1.490 . S
C492 H482 0.930 . S
C492 C491 1.400 . S
C492 C495 1.386 . S
H493 C509 0.930 . S
H494 C510 0.931 . S
C495 H483 0.929 . S
C495 C489 1.390 . S
C495 C492 1.386 . S
C496 C491 1.490 . S
C496 C498 1.395 . S
C496 C499 1.403 . S
H497 C503 0.930 . S
C498 H484 0.930 . S
C498 C496 1.395 . S
C498 C501 1.403 . S
C499 C496 1.403 . S
C499 C500 1.524 . S
C499 C503 1.400 . S
C500 H485 0.960 . S
C500 H486 0.960 . S
C500 H487 0.960 . S
C500 C499 1.524 . S
C501 C498 1.403 . S
C501 C502 1.392 . S
C501 C505 1.495 . S
C502 C501 1.392 . S
C502 C503 1.385 . S
C502 C504 1.478 . S
C503 H497 0.930 . S
C503 C499 1.400 . S
C503 C502 1.385 . S
C504 C502 1.478 . S
C504 C506 1.381 . S
C504 C510 1.383 . S
C505 C501 1.495 . S
C505 H511 0.959 . S
C505 H512 0.961 . S
C505 H513 0.960 . S
C506 C504 1.381 . S
C506 C507 1.394 . S
C506 H514 0.930 . S
C507 C506 1.394 . S
C507 C508 1.383 . S
C507 H515 0.929 . S
C508 C507 1.383 . S
C508 C509 1.377 . S
C509 H493 0.930 . S
C509 C508 1.377 . S
C509 C510 1.379 . S
C510 H494 0.931 . S
C510 C504 1.383 . S
C510 C509 1.379 . S
H511 C505 0.959 . S
H512 C505 0.961 . S
H513 C505 0.960 . S
H514 C506 0.930 . S
H515 C507 0.929 . S
C93 C13 1.344 . S
C112 C77 1.397 . S
C129 C7 1.401 . S
C148 C27 1.334 . S
C165 C41 1.336 . S
C184 C21 1.389 . S
C201 C55 1.335 . S
C220 C35 1.389 . S
C237 C69 1.338 . S
C256 C49 1.403 . S
C273 C83 1.339 . S
C292 C63 1.403 . S
C309 C11 1.538 . S
C328 C64 1.513 . S
C345 C78 1.508 . S
C364 C25 1.531 . S
C381 C39 1.537 . S
C400 C8 1.492 . S
C417 C22 1.514 . S
C436 C53 1.530 . S
C453 C36 1.511 . S
C472 C67 1.527 . S
C489 C81 1.539 . S
C508 C50 1.487 . S
