# Generated by pormake.
# Topology ung, (4)-cn, num edge types: 1
# Building blocks:
#     Node 0, Type 0, BuildingBlock: NAWXER_clean_sbu_0, # of connection points: 4
#     Node 1, Type 0, BuildingBlock: NAWXER_clean_sbu_0, # of connection points: 4
#     Node 2, Type 0, BuildingBlock: NAWXER_clean_sbu_0, # of connection points: 4
#     Node 3, Type 0, BuildingBlock: NAWXER_clean_sbu_0, # of connection points: 4
#     Node 4, Type 0, BuildingBlock: NAWXER_clean_sbu_0, # of connection points: 4
#     Node 5, Type 0, BuildingBlock: NAWXER_clean_sbu_0, # of connection points: 4
#     Node 6, Type 0, BuildingBlock: NAWXER_clean_sbu_0, # of connection points: 4
#     Node 7, Type 0, BuildingBlock: NAWXER_clean_sbu_0, # of connection points: 4
#     Node 8, Type 0, BuildingBlock: NAWXER_clean_sbu_0, # of connection points: 4
#     Node 9, Type 0, BuildingBlock: NAWXER_clean_sbu_0, # of connection points: 4
#     Node 10, Type 0, BuildingBlock: NAWXER_clean_sbu_0, # of connection points: 4
#     Node 11, Type 0, BuildingBlock: NAWXER_clean_sbu_0, # of connection points: 4
#     Node 12, Type 0, BuildingBlock: NAWXER_clean_sbu_0, # of connection points: 4
#     Node 13, Type 0, BuildingBlock: NAWXER_clean_sbu_0, # of connection points: 4
#     Node 14, Type 0, BuildingBlock: NAWXER_clean_sbu_0, # of connection points: 4
#     Node 15, Type 0, BuildingBlock: NAWXER_clean_sbu_0, # of connection points: 4
#     Node 16, Type 0, BuildingBlock: NAWXER_clean_sbu_0, # of connection points: 4
#     Node 17, Type 0, BuildingBlock: NAWXER_clean_sbu_0, # of connection points: 4
#     Edge 18, Type (0, 0), BuildingBlock: AJUNOK_clean_linker_0, # of connection points: 2
#     Edge 19, Type (0, 0), BuildingBlock: AJUNOK_clean_linker_0, # of connection points: 2
#     Edge 20, Type (0, 0), BuildingBlock: AJUNOK_clean_linker_0, # of connection points: 2
#     Edge 21, Type (0, 0), BuildingBlock: AJUNOK_clean_linker_0, # of connection points: 2
#     Edge 22, Type (0, 0), BuildingBlock: AJUNOK_clean_linker_0, # of connection points: 2
#     Edge 23, Type (0, 0), BuildingBlock: AJUNOK_clean_linker_0, # of connection points: 2
#     Edge 24, Type (0, 0), BuildingBlock: AJUNOK_clean_linker_0, # of connection points: 2
#     Edge 25, Type (0, 0), BuildingBlock: AJUNOK_clean_linker_0, # of connection points: 2
#     Edge 26, Type (0, 0), BuildingBlock: AJUNOK_clean_linker_0, # of connection points: 2
#     Edge 27, Type (0, 0), BuildingBlock: AJUNOK_clean_linker_0, # of connection points: 2
#     Edge 28, Type (0, 0), BuildingBlock: AJUNOK_clean_linker_0, # of connection points: 2
#     Edge 29, Type (0, 0), BuildingBlock: AJUNOK_clean_linker_0, # of connection points: 2
#     Edge 30, Type (0, 0), BuildingBlock: AJUNOK_clean_linker_0, # of connection points: 2
#     Edge 31, Type (0, 0), BuildingBlock: AJUNOK_clean_linker_0, # of connection points: 2
#     Edge 32, Type (0, 0), BuildingBlock: AJUNOK_clean_linker_0, # of connection points: 2
#     Edge 33, Type (0, 0), BuildingBlock: AJUNOK_clean_linker_0, # of connection points: 2
#     Edge 34, Type (0, 0), BuildingBlock: AJUNOK_clean_linker_0, # of connection points: 2
#     Edge 35, Type (0, 0), BuildingBlock: AJUNOK_clean_linker_0, # of connection points: 2
#     Edge 36, Type (0, 0), BuildingBlock: AJUNOK_clean_linker_0, # of connection points: 2
#     Edge 37, Type (0, 0), BuildingBlock: AJUNOK_clean_linker_0, # of connection points: 2
#     Edge 38, Type (0, 0), BuildingBlock: AJUNOK_clean_linker_0, # of connection points: 2
#     Edge 39, Type (0, 0), BuildingBlock: AJUNOK_clean_linker_0, # of connection points: 2
#     Edge 40, Type (0, 0), BuildingBlock: AJUNOK_clean_linker_0, # of connection points: 2
#     Edge 41, Type (0, 0), BuildingBlock: AJUNOK_clean_linker_0, # of connection points: 2
#     Edge 42, Type (0, 0), BuildingBlock: AJUNOK_clean_linker_0, # of connection points: 2
#     Edge 43, Type (0, 0), BuildingBlock: AJUNOK_clean_linker_0, # of connection points: 2
#     Edge 44, Type (0, 0), BuildingBlock: AJUNOK_clean_linker_0, # of connection points: 2
#     Edge 45, Type (0, 0), BuildingBlock: AJUNOK_clean_linker_0, # of connection points: 2
#     Edge 46, Type (0, 0), BuildingBlock: AJUNOK_clean_linker_0, # of connection points: 2
#     Edge 47, Type (0, 0), BuildingBlock: AJUNOK_clean_linker_0, # of connection points: 2
#     Edge 48, Type (0, 0), BuildingBlock: AJUNOK_clean_linker_0, # of connection points: 2
#     Edge 49, Type (0, 0), BuildingBlock: AJUNOK_clean_linker_0, # of connection points: 2
#     Edge 50, Type (0, 0), BuildingBlock: AJUNOK_clean_linker_0, # of connection points: 2
#     Edge 51, Type (0, 0), BuildingBlock: AJUNOK_clean_linker_0, # of connection points: 2
#     Edge 52, Type (0, 0), BuildingBlock: AJUNOK_clean_linker_0, # of connection points: 2
#     Edge 53, Type (0, 0), BuildingBlock: AJUNOK_clean_linker_0, # of connection points: 2
# Relax obj value: 0.020
# Max RMSD: 0.247
# Mean RMSD: 0.247
data_MOF--net-ung--node1-NAWXER_clean_sbu_0--edge1-AJUNOK_clean_linker_0
_symmetry_space_group_name_H-M    P1
_symmetry_Int_Tables_number       1
_symmetry_cell_setting            triclinic
loop_
_symmetry_equiv_pos_as_xyz
'x, y, z'
_cell_length_a     56.842177
_cell_length_b     56.846376
_cell_length_c     15.697234
_cell_angle_alpha  89.952994
_cell_angle_beta   90.017488
_cell_angle_gamma 119.9947
loop_
_atom_site_label
_atom_site_type_symbol
_atom_site_fract_x
_atom_site_fract_y
_atom_site_fract_z
_atom_type_partial_charge
C0 C 0.08609 0.62108 0.37056 0.0
C1 C 0.05787 0.66855 0.17499 0.0
O2 O 0.06325 0.61981 0.3638 0.0
Zn3 Zn 0.07243 0.6449 0.27062 0.0
O4 O 0.1056 0.63717 0.32142 0.0
Zn5 Zn 0.11159 0.66536 0.22005 0.0
O6 O 0.13945 0.69915 0.26453 0.0
O7 O 0.09971 0.68443 0.32719 0.0
O8 O 0.08315 0.67625 0.16546 0.0
O9 O 0.04367 0.64979 0.22763 0.0
O10 O 0.07964 0.62416 0.16661 0.0
O11 O 0.12185 0.65108 0.12584 0.0
C12 C 0.12479 0.70272 0.31796 0.0
C13 C 0.09961 0.62897 0.11739 0.0
C14 C 0.47398 0.50193 0.32489 0.0
C15 C 0.54797 0.55097 0.12555 0.0
O16 O 0.47778 0.5202 0.27131 0.0
Zn17 Zn 0.51155 0.52604 0.22754 0.0
O18 O 0.49212 0.49494 0.33408 0.0
Zn19 Zn 0.53155 0.50706 0.27681 0.0
O20 O 0.55643 0.52185 0.36941 0.0
O21 O 0.53991 0.54788 0.33043 0.0
O22 O 0.55271 0.53552 0.17372 0.0
O23 O 0.52587 0.55108 0.13463 0.0
O24 O 0.50061 0.48676 0.17023 0.0
O25 O 0.52682 0.47375 0.23389 0.0
C26 C 0.55569 0.5436 0.37857 0.0
C27 C 0.50854 0.46933 0.17968 0.0
C28 C 0.67501 0.05388 0.32505 0.0
C29 C 0.62699 0.08263 0.13311 0.0
O30 O 0.65635 0.03999 0.27182 0.0
Zn31 Zn 0.65094 0.06872 0.23156 0.0
O32 O 0.68246 0.07903 0.33641 0.0
Zn33 Zn 0.67113 0.10744 0.28434 0.0
O34 O 0.65675 0.11702 0.37947 0.0
O35 O 0.62987 0.07505 0.33676 0.0
O36 O 0.64298 0.10194 0.18296 0.0
O37 O 0.62575 0.05977 0.139 0.0
O38 O 0.6902 0.09683 0.17429 0.0
O39 O 0.70468 0.13583 0.24122 0.0
C40 C 0.63465 0.09475 0.38716 0.0
C41 C 0.70821 0.12194 0.18482 0.0
C42 C 0.05609 0.46974 0.67752 0.0
C43 C 0.08621 0.54624 0.87064 0.0
O44 O 0.0814 0.48695 0.66622 0.0
Zn45 Zn 0.11042 0.52641 0.71885 0.0
O46 O 0.04269 0.47463 0.73222 0.0
Zn47 Zn 0.0719 0.50839 0.77247 0.0
O48 O 0.07856 0.5361 0.66753 0.0
O49 O 0.12035 0.55053 0.62405 0.0
O50 O 0.06326 0.52475 0.86513 0.0
O51 O 0.10541 0.54938 0.82051 0.0
O52 O 0.1386 0.52087 0.76117 0.0
O53 O 0.0998 0.49684 0.82964 0.0
C54 C 0.09831 0.55082 0.61691 0.0
C55 C 0.12485 0.50374 0.81846 0.0
C56 C 0.6708 0.70159 0.82228 0.0
C57 C 0.62552 0.62652 0.62402 0.0
O58 O 0.67713 0.68321 0.83703 0.0
Zn59 Zn 0.66788 0.64467 0.78003 0.0
O60 O 0.65488 0.6987 0.76144 0.0
Zn61 Zn 0.64904 0.66426 0.72316 0.0
O62 O 0.6267 0.6367 0.82739 0.0
O63 O 0.65186 0.61974 0.87264 0.0
O64 O 0.62486 0.64847 0.62798 0.0
O65 O 0.6407 0.62275 0.67626 0.0
O66 O 0.70255 0.65082 0.74074 0.0
O67 O 0.68859 0.67549 0.67234 0.0
C68 C 0.63022 0.62096 0.87819 0.0
C69 C 0.70673 0.66876 0.68538 0.0
C70 C 0.55182 0.08146 0.6335 0.0
C71 C 0.47586 0.05324 0.82842 0.0
O72 O 0.55498 0.10097 0.68207 0.0
Zn73 Zn 0.53263 0.107 0.78266 0.0
O74 O 0.53037 0.05851 0.64043 0.0
Zn75 Zn 0.51417 0.06771 0.73283 0.0
O76 O 0.502 0.09483 0.67441 0.0
O77 O 0.52659 0.13468 0.73669 0.0
O78 O 0.48049 0.03896 0.77639 0.0
O79 O 0.49335 0.07858 0.83722 0.0
O80 O 0.55719 0.11748 0.87709 0.0
O81 O 0.54211 0.07526 0.83706 0.0
C82 C 0.50863 0.11989 0.68273 0.0
C83 C 0.5572 0.09532 0.886 0.0
C84 C 0.74872 0.95195 0.7115 0.0
C85 C 0.72458 1.00113 0.50988 0.0
O86 O 0.72642 0.95153 0.70077 0.0
Zn87 Zn 0.73745 0.97674 0.60792 0.0
O88 O 0.76912 0.96763 0.66447 0.0
Zn89 Zn 0.77701 0.99631 0.56194 0.0
O90 O 0.80503 0.02965 0.60809 0.0
O91 O 0.76487 0.01601 0.66619 0.0
O92 O 0.74987 1.00845 0.50311 0.0
O93 O 0.70963 0.98233 0.56132 0.0
O94 O 0.7451 0.9556 0.50604 0.0
O95 O 0.78786 0.98182 0.46963 0.0
C96 C 0.79022 0.03376 0.65928 0.0
C97 C 0.76545 0.96005 0.45919 0.0
C98 C 0.14171 0.83705 0.66011 0.0
C99 C 0.21541 0.88504 0.45847 0.0
O100 O 0.14554 0.85541 0.6068 0.0
Zn101 Zn 0.17896 0.86063 0.56109 0.0
O102 O 0.15955 0.82959 0.66776 0.0
Zn103 Zn 0.19852 0.84083 0.60884 0.0
O104 O 0.22377 0.85533 0.70115 0.0
O105 O 0.20759 0.88176 0.66332 0.0
O106 O 0.2198 0.86923 0.50603 0.0
O107 O 0.19364 0.88574 0.46842 0.0
O108 O 0.16711 0.82138 0.50293 0.0
O109 O 0.19269 0.80716 0.56415 0.0
C110 C 0.22329 0.87721 0.71086 0.0
C111 C 0.17429 0.80334 0.51108 0.0
C112 C 0.3728 0.452 0.51504 0.0
C113 C 0.29947 0.42672 0.71702 0.0
O114 O 0.36928 0.46658 0.56884 0.0
Zn115 Zn 0.33567 0.43865 0.61357 0.0
O116 O 0.35452 0.42692 0.50573 0.0
Zn117 Zn 0.31507 0.39951 0.56309 0.0
O118 O 0.28978 0.39036 0.47025 0.0
O119 O 0.30733 0.4327 0.51277 0.0
O120 O 0.29447 0.40673 0.66763 0.0
O121 O 0.32164 0.44888 0.70832 0.0
O122 O 0.34693 0.41038 0.66694 0.0
O123 O 0.32022 0.37081 0.60573 0.0
C124 C 0.29111 0.41324 0.46375 0.0
C125 C 0.33926 0.38511 0.65737 0.0
C126 C 0.79076 0.83498 0.15035 0.0
C127 C 0.76069 0.88163 0.95833 0.0
O128 O 0.76654 0.82947 0.16873 0.0
Zn129 Zn 0.73733 0.83929 0.11593 0.0
O130 O 0.80324 0.8507 0.08861 0.0
Zn131 Zn 0.77491 0.85777 0.05485 0.0
O132 O 0.77107 0.88066 0.16028 0.0
O133 O 0.72949 0.85556 0.20973 0.0
O134 O 0.78327 0.88219 0.96138 0.0
O135 O 0.74183 0.86647 0.01109 0.0
O136 O 0.7084 0.80435 0.08158 0.0
O137 O 0.74503 0.81914 1.00154 0.0
C138 C 0.75233 0.87727 0.21308 0.0
C139 C 0.72061 0.80084 0.01964 0.0
C140 C 0.33844 0.03527 0.15404 0.0
C141 C 0.29301 0.95978 0.95717 0.0
O142 O 0.34601 0.01767 0.16605 0.0
Zn143 Zn 0.33579 0.97841 0.11224 0.0
O144 O 0.32086 0.0311 0.09737 0.0
Zn145 Zn 0.31622 0.99742 0.05647 0.0
O146 O 0.29429 0.96985 0.15957 0.0
O147 O 0.31994 0.95376 0.20662 0.0
O148 O 0.29199 0.98154 0.96179 0.0
O149 O 0.30847 0.95621 0.00877 0.0
O150 O 0.37014 0.98435 0.07154 0.0
O151 O 0.35591 1.00902 1.0042 0.0
C152 C 0.29803 0.9545 0.21118 0.0
C153 C 0.37412 1.00229 0.01631 0.0
C154 C 0.17526 0.45443 0.01631 0.0
C155 C 0.2217 0.42668 0.21684 0.0
O156 O 0.16817 0.42938 1.0049 0.0
Zn157 Zn 0.17908 0.40108 0.06072 0.0
O158 O 0.19273 0.46811 0.07282 0.0
Zn159 Zn 0.19815 0.43965 0.11477 0.0
O160 O 0.22061 0.43401 0.01332 0.0
O161 O 0.19513 0.3921 0.96778 0.0
O162 O 0.22236 0.44919 0.20865 0.0
O163 O 0.20644 0.40695 0.16682 0.0
O164 O 0.14452 0.37262 0.09875 0.0
O165 O 0.159 0.41105 0.16959 0.0
C166 C 0.21703 0.41473 0.96288 0.0
C167 C 0.14088 0.38621 0.15595 0.0
C168 C 0.41649 0.28642 0.04458 0.0
C169 C 0.39086 0.33478 0.84419 0.0
O170 O 0.3942 0.28613 0.03543 0.0
Zn171 Zn 0.40462 0.31107 0.94229 0.0
O172 O 0.4366 0.3019 0.99626 0.0
Zn173 Zn 0.44363 0.33024 0.89309 0.0
O174 O 0.47203 0.36368 0.93609 0.0
O175 O 0.4327 0.35045 0.99927 0.0
O176 O 0.41605 0.34194 0.83529 0.0
O177 O 0.37648 0.31658 0.89807 0.0
O178 O 0.41135 0.28937 0.83959 0.0
O179 O 0.45388 0.31552 0.80064 0.0
C180 C 0.45803 0.36799 0.99002 0.0
C181 C 0.43142 0.29372 0.79149 0.0
C182 C 0.80893 0.17084 0.99223 0.0
C183 C 0.8846 0.21625 0.79622 0.0
O184 O 0.8138 0.18907 0.93726 0.0
Zn185 Zn 0.8471 0.19304 0.89579 0.0
O186 O 0.82597 0.1625 1.00302 0.0
Zn187 Zn 0.86507 0.17227 0.94827 0.0
O188 O 0.88974 0.18648 0.0423 0.0
O189 O 0.8752 0.21386 0.99978 0.0
O190 O 0.88781 0.20012 0.84593 0.0
O191 O 0.86318 0.2178 0.80262 0.0
O192 O 0.83449 0.15336 0.8398 0.0
O193 O 0.85848 0.13809 0.90569 0.0
C194 C 0.89011 0.20886 0.04963 0.0
C195 C 0.84076 0.13475 0.85056 0.0
C196 C 1.00663 0.71975 0.99136 0.0
C197 C 0.95989 0.74866 0.79523 0.0
O198 O 0.98843 0.70579 0.93692 0.0
Zn199 Zn 0.98328 0.73453 0.8952 0.0
O200 O 0.01381 0.74483 1.00276 0.0
Zn201 Zn 1.00287 0.77337 0.94951 0.0
O202 O 0.98708 0.78221 0.04409 0.0
O203 O 0.96149 0.74038 0.99797 0.0
O204 O 0.97541 0.76783 0.84624 0.0
O205 O 0.95888 0.7259 0.80065 0.0
O206 O 0.02288 0.76261 0.84212 0.0
O207 O 0.03704 0.80179 0.9076 0.0
C208 C 0.96519 0.75954 0.04904 0.0
C209 C 0.04103 0.7876 0.85334 0.0
C210 C 0.38849 0.13554 0.34849 0.0
C211 C 0.41826 0.21095 0.54551 0.0
O212 O 0.41367 0.15314 0.33681 0.0
Zn213 Zn 0.44261 0.19237 0.39085 0.0
O214 O 0.37502 0.13971 0.4049 0.0
Zn215 Zn 0.40399 0.17337 0.44616 0.0
O216 O 0.4098 0.20106 0.34303 0.0
O217 O 0.45159 0.21709 0.29659 0.0
O218 O 0.39548 0.18922 0.54066 0.0
O219 O 0.43734 0.2145 0.49418 0.0
O220 O 0.47099 0.1865 0.432 0.0
O221 O 0.43209 0.16181 0.49922 0.0
C222 C 0.42898 0.21643 0.2917 0.0
C223 C 0.45706 0.16861 0.48735 0.0
C224 C 1.00512 0.36779 0.49089 0.0
C225 C 0.95962 0.29149 0.29654 0.0
O226 O 1.01337 0.35072 0.50219 0.0
Zn227 Zn 1.00372 0.31169 0.44908 0.0
O228 O 0.98684 0.3628 0.43602 0.0
Zn229 Zn 0.98254 0.32908 0.39544 0.0
O230 O 0.96187 0.30115 0.49979 0.0
O231 O 0.98965 0.28725 0.54352 0.0
O232 O 0.95755 0.31263 0.30335 0.0
O233 O 0.97604 0.28862 0.34599 0.0
O234 O 0.03827 0.31885 0.40865 0.0
O235 O 0.02173 0.34079 0.33707 0.0
C236 C 0.9671 0.28656 0.55029 0.0
C237 C 0.04078 0.33523 0.34976 0.0
C238 C 0.84135 0.78626 0.3481 0.0
C239 C 0.88983 0.76115 0.54902 0.0
O240 O 0.83518 0.76142 0.33705 0.0
Zn241 Zn 0.84602 0.73363 0.39812 0.0
O242 O 0.85804 0.80036 0.40591 0.0
Zn243 Zn 0.86481 0.77277 0.44756 0.0
O244 O 0.88653 0.76634 0.34351 0.0
O245 O 0.86107 0.72344 0.30676 0.0
O246 O 0.88987 0.78333 0.54032 0.0
O247 O 0.87447 0.74103 0.50067 0.0
O248 O 0.81218 0.70525 0.44226 0.0
O249 O 0.82591 0.74476 0.50437 0.0
C250 C 0.88249 0.74618 0.29621 0.0
C251 C 0.80811 0.71955 0.49566 0.0
C252 C 0.06897 0.56398 0.98667 0.0
C253 C 0.09045 0.56769 0.93311 0.0
C254 C 0.07211 0.58393 0.04533 0.0
C255 C 0.09686 0.60851 0.05312 0.0
H256 H 0.04945 0.54549 0.98343 0.0
H257 H 0.05491 0.57991 0.08501 0.0
S258 S 0.15958 0.62845 0.92788 0.0
N259 N 0.13746 0.59801 0.89182 0.0
N260 N 0.14336 0.63544 1.00183 0.0
C261 C 0.11855 0.61255 0.99992 0.0
C262 C 0.11535 0.59219 0.94012 0.0
C263 C 0.61253 0.58536 0.99251 0.0
C264 C 0.60898 0.60372 0.94128 0.0
C265 C 0.5927 0.56838 0.05131 0.0
C266 C 0.5684 0.56897 0.06158 0.0
H267 H 0.63076 0.58393 0.98714 0.0
H268 H 0.59653 0.55468 0.08896 0.0
S269 S 0.54916 0.61366 0.94392 0.0
N270 N 0.57927 0.62163 0.90549 0.0
N271 N 0.54204 0.58979 0.0157 0.0
C272 C 0.56458 0.58731 0.01096 0.0
C273 C 0.58483 0.60464 0.95103 0.0
C274 C 0.59128 0.06484 0.01921 0.0
C275 C 0.60964 0.08666 0.07054 0.0
C276 C 0.57436 0.06782 0.96048 0.0
C277 C 0.57501 0.09275 0.95038 0.0
H278 H 0.58983 0.04516 0.02434 0.0
H279 H 0.56068 0.05034 0.92262 0.0
S280 S 0.61962 0.15645 0.06872 0.0
N281 N 0.62753 0.13424 0.10691 0.0
N282 N 0.5958 0.13984 0.99677 0.0
C283 C 0.59329 0.11479 1.00127 0.0
C284 C 0.61056 0.11176 0.06113 0.0
C285 C 0.58912 0.06741 0.45715 0.0
C286 C 0.61416 0.0918 0.45165 0.0
C287 C 0.56913 0.06431 0.51573 0.0
C288 C 0.57328 0.08548 0.57133 0.0
H289 H 0.58477 0.0505 0.4156 0.0
H290 H 0.55024 0.0451 0.51714 0.0
S291 S 0.63549 0.15346 0.58386 0.0
N292 N 0.64207 0.13752 0.50797 0.0
N293 N 0.60461 0.13171 0.61763 0.0
C294 C 0.59828 0.10998 0.5668 0.0
C295 C 0.61866 0.11312 0.50721 0.0
C296 C 0.06871 0.58685 0.48908 0.0
C297 C 0.08991 0.60357 0.433 0.0
C298 C 0.07154 0.56978 0.54766 0.0
C299 C 0.09568 0.56863 0.55268 0.0
H300 H 0.04968 0.58689 0.48799 0.0
H301 H 0.05462 0.55746 0.58951 0.0
S302 S 0.15732 0.60807 0.41934 0.0
N303 N 0.13591 0.6177 0.38591 0.0
N304 N 0.14122 0.5857 0.49557 0.0
C305 C 0.11705 0.58519 0.49675 0.0
C306 C 0.11418 0.60261 0.43717 0.0
C307 C 0.59102 0.6092 0.50637 0.0
C308 C 0.60823 0.60514 0.56152 0.0
C309 C 0.57401 0.58918 0.44813 0.0
C310 C 0.57347 0.5642 0.44238 0.0
H311 H 0.59056 0.62801 0.50814 0.0
H312 H 0.56127 0.59343 0.40709 0.0
S313 S 0.61451 0.5432 0.5727 0.0
N314 N 0.62357 0.57403 0.60665 0.0
N315 N 0.5917 0.53649 0.49758 0.0
C316 C 0.59057 0.55982 0.49723 0.0
C317 C 0.6079 0.58023 0.55656 0.0
C318 C 0.73539 0.89471 0.33068 0.0
C319 C 0.75669 0.89871 0.27577 0.0
C320 C 0.73841 0.91466 0.38903 0.0
C321 C 0.76288 0.93956 0.39535 0.0
H322 H 0.71604 0.87598 0.32862 0.0
H323 H 0.72133 0.9104 0.42968 0.0
S324 S 0.82508 0.96039 0.26626 0.0
N325 N 0.80325 0.92964 0.23161 0.0
N326 N 0.80897 0.96713 0.34123 0.0
C327 C 0.78444 0.94389 0.34095 0.0
C328 C 0.78134 0.92351 0.28132 0.0
C329 C 0.26051 0.90264 0.38624 0.0
C330 C 0.23592 0.90279 0.39428 0.0
C331 C 0.28045 0.91949 0.32748 0.0
C332 C 0.27669 0.93726 0.27404 0.0
H333 H 0.26452 0.88942 0.42582 0.0
H334 H 0.29894 0.91847 0.32395 0.0
S335 S 0.21591 0.94565 0.26954 0.0
N336 N 0.20896 0.9224 0.34336 0.0
N337 N 0.24635 0.954 0.23328 0.0
C338 C 0.25219 0.93767 0.28135 0.0
C339 C 0.23186 0.92048 0.34124 0.0
C340 C 0.25688 0.3962 0.34506 0.0
C341 C 0.27364 0.41723 0.40155 0.0
C342 C 0.24001 0.39931 0.28634 0.0
C343 C 0.23912 0.42359 0.28158 0.0
H344 H 0.2568 0.3771 0.34583 0.0
H345 H 0.2277 0.38255 0.24401 0.0
S346 S 0.27851 0.48477 0.41669 0.0
N347 N 0.28789 0.46314 0.44972 0.0
N348 N 0.25629 0.46899 0.33993 0.0
C349 C 0.25563 0.44475 0.33817 0.0
C350 C 0.27284 0.44158 0.39787 0.0
C351 C 0.23397 0.39728 0.84508 0.0
C352 C 0.23844 0.41853 0.90085 0.0
C353 C 0.25386 0.40005 0.78668 0.0
C354 C 0.27913 0.42418 0.78142 0.0
H355 H 0.2149 0.37825 0.84625 0.0
H356 H 0.24924 0.38309 0.74506 0.0
S357 S 0.30133 0.48593 0.91393 0.0
N358 N 0.2703 0.46456 0.94748 0.0
N359 N 0.30761 0.46976 0.83803 0.0
C360 C 0.28396 0.4456 0.83707 0.0
C361 C 0.26366 0.44278 0.89657 0.0
C362 C 0.77795 0.91579 0.83994 0.0
C363 C 0.75669 0.89902 0.89579 0.0
C364 C 0.77521 0.93289 0.78138 0.0
C365 C 0.75107 0.93399 0.77581 0.0
H366 H 0.79703 0.91585 0.84131 0.0
H367 H 0.79222 0.94525 0.73988 0.0
S368 S 0.68921 0.89435 0.90801 0.0
N369 N 0.7106 0.88474 0.94199 0.0
N370 N 0.70541 0.9168 0.83201 0.0
C371 C 0.72959 0.91735 0.83132 0.0
C372 C 0.7324 0.89991 0.89115 0.0
C373 C 0.25904 0.94279 0.83824 0.0
C374 C 0.2758 0.93843 0.8945 0.0
C375 C 0.2421 0.92287 0.77975 0.0
C376 C 0.24115 0.89768 0.77479 0.0
H377 H 0.2589 0.96177 0.83927 0.0
H378 H 0.22971 0.92738 0.73789 0.0
S379 S 0.28081 0.87582 0.90837 0.0
N380 N 0.29023 0.9068 0.94175 0.0
N381 N 0.25845 0.86942 0.83201 0.0
C382 C 0.25778 0.89299 0.83072 0.0
C383 C 0.27507 0.91332 0.89039 0.0
C384 C 0.40424 0.24815 0.72206 0.0
C385 C 0.42863 0.27317 0.72761 0.0
C386 C 0.40119 0.22817 0.66363 0.0
C387 C 0.4224 0.23232 0.60811 0.0
H388 H 0.38728 0.24382 0.76338 0.0
H389 H 0.38195 0.20932 0.66207 0.0
S390 S 0.49046 0.29442 0.59614 0.0
N391 N 0.47445 0.30103 0.67176 0.0
N392 N 0.46872 0.26356 0.5623 0.0
C393 C 0.44693 0.25726 0.61285 0.0
C394 C 0.45004 0.27764 0.67238 0.0
C395 C 0.90177 0.25086 0.67907 0.0
C396 C 0.90594 0.23358 0.73361 0.0
C397 C 0.92166 0.26793 0.62065 0.0
C398 C 0.94666 0.26855 0.61414 0.0
H399 H 0.88295 0.25131 0.68139 0.0
H400 H 0.91731 0.28074 0.58023 0.0
S401 S 0.96788 0.22729 0.74232 0.0
N402 N 0.93711 0.21818 0.7772 0.0
N403 N 0.97446 0.25021 0.66763 0.0
C404 C 0.95115 0.25137 0.66827 0.0
C405 C 0.93083 0.23392 0.72779 0.0
C406 C 0.92515 0.73119 0.67845 0.0
C407 C 0.94262 0.75268 0.73238 0.0
C408 C 0.90813 0.7341 0.61997 0.0
C409 C 0.90782 0.75863 0.61276 0.0
H410 H 0.92446 0.71182 0.6814 0.0
H411 H 0.89514 0.7169 0.58003 0.0
S412 S 0.94974 0.8213 0.73904 0.0
N413 N 0.95858 0.79948 0.77453 0.0
N414 N 0.92666 0.80494 0.66489 0.0
C415 C 0.92522 0.78034 0.66623 0.0
C416 C 0.94258 0.77738 0.72583 0.0
C417 C 0.92806 0.77354 0.22627 0.0
C418 C 0.90299 0.74918 0.23166 0.0
C419 C 0.94803 0.77664 0.16757 0.0
C420 C 0.94381 0.75551 0.11159 0.0
H421 H 0.93245 0.7904 0.26811 0.0
H422 H 0.96695 0.79581 0.16625 0.0
S423 S 0.8814 0.68769 0.09832 0.0
N424 N 0.87492 0.70359 0.1746 0.0
N425 N 0.91233 0.70939 0.06475 0.0
C426 C 0.91875 0.73106 0.11595 0.0
C427 C 0.89841 0.72791 0.17572 0.0
C428 C 0.44674 0.25173 0.17621 0.0
C429 C 0.42505 0.23379 0.22885 0.0
C430 C 0.44383 0.26871 0.11748 0.0
C431 C 0.41909 0.26853 0.10871 0.0
H432 H 0.46627 0.25279 0.18037 0.0
H433 H 0.46118 0.28206 0.07858 0.0
S434 S 0.35581 0.22523 0.231 0.0
N435 N 0.37782 0.21686 0.26792 0.0
N436 N 0.37234 0.24869 0.15795 0.0
C437 C 0.39718 0.25068 0.16092 0.0
C438 C 0.40015 0.23336 0.22075 0.0
C439 C 0.92451 0.27373 0.18091 0.0
C440 C 0.94255 0.27014 0.23358 0.0
C441 C 0.90765 0.25382 0.12223 0.0
C442 C 0.90802 0.22937 0.11352 0.0
H443 H 0.92325 0.29209 0.18496 0.0
H444 H 0.89421 0.25772 0.08343 0.0
S445 S 0.95173 0.20986 0.23563 0.0
N446 N 0.95985 0.24015 0.27265 0.0
N447 N 0.92823 0.20276 0.16257 0.0
C448 C 0.92601 0.22548 0.16562 0.0
C449 C 0.94324 0.24582 0.22544 0.0
C450 C 0.16347 0.73986 0.39729 0.0
C451 C 0.13661 0.72811 0.36774 0.0
C452 C 0.1754 0.76416 0.44366 0.0
C453 C 0.16115 0.77801 0.4603 0.0
H454 H 0.17528 0.73002 0.38539 0.0
H455 H 0.19607 0.77228 0.46595 0.0
S456 S 0.09053 0.75618 0.39331 0.0
N457 N 0.09616 0.73219 0.35674 0.0
N458 N 0.11878 0.77831 0.44215 0.0
C459 C 0.13437 0.76668 0.42978 0.0
C460 C 0.12203 0.74159 0.38408 0.0
C461 C 0.43504 0.50316 0.39342 0.0
C462 C 0.44851 0.48868 0.37484 0.0
C463 C 0.41056 0.4911 0.43889 0.0
C464 C 0.39826 0.46388 0.46546 0.0
H465 H 0.44361 0.52411 0.37343 0.0
H466 H 0.40104 0.5031 0.45252 0.0
S467 S 0.42514 0.41704 0.43313 0.0
N468 N 0.44785 0.44569 0.38743 0.0
N469 N 0.40138 0.4228 0.4711 0.0
C470 C 0.41134 0.44906 0.44693 0.0
C471 C 0.43662 0.46153 0.40221 0.0
C472 C 0.68572 1.00027 0.43324 0.0
C473 C 0.71288 0.01498 0.46061 0.0
C474 C 0.67374 0.01301 0.38894 0.0
C475 C 0.68825 0.04109 0.37233 0.0
H476 H 0.67365 0.97866 0.44563 0.0
H477 H 0.65281 1.00081 0.36863 0.0
S478 S 0.75985 0.08887 0.43237 0.0
N479 N 0.75399 0.05911 0.46838 0.0
N480 N 0.7313 0.08326 0.38686 0.0
C481 C 0.71539 0.05611 0.40002 0.0
C482 C 0.72777 0.04299 0.44358 0.0
C483 C 0.74577 0.11932 0.11081 0.0
C484 C 0.73342 0.13452 0.13379 0.0
C485 C 0.77052 0.13135 0.06642 0.0
C486 C 0.78339 0.15882 0.04171 0.0
H487 H 0.73654 0.09812 0.1288 0.0
H488 H 0.77943 0.11896 0.05024 0.0
S489 S 0.75894 0.20717 0.08476 0.0
N490 N 0.73575 0.17837 0.12832 0.0
N491 N 0.78181 0.20078 0.04292 0.0
C492 C 0.77102 0.1741 0.06331 0.0
C493 C 0.74616 0.16202 0.10994 0.0
C494 C 1.00544 0.67958 0.06037 0.0
C495 C 0.02006 0.70732 0.0391 0.0
C496 C 0.01782 0.66723 0.10467 0.0
C497 C 0.04545 0.68199 0.12719 0.0
H498 H 0.98417 0.66739 0.04354 0.0
H499 H 1.00572 0.64587 0.12054 0.0
S500 S 0.09282 0.75508 0.0848 0.0
N501 N 0.06365 0.74921 0.04356 0.0
N502 N 0.08708 0.72582 0.12508 0.0
C503 C 0.06039 0.70968 0.10549 0.0
C504 C 0.04763 0.72239 0.06199 0.0
C505 C 0.45621 0.40645 0.06135 0.0
C506 C 0.47092 0.39343 0.03997 0.0
C507 C 0.46868 0.43141 0.10476 0.0
C508 C 0.49608 0.44382 0.12991 0.0
H509 H 0.43508 0.39757 0.04302 0.0
H510 H 0.45665 0.44079 0.12002 0.0
S511 S 0.54323 0.41762 0.09057 0.0
N512 N 0.51426 0.3947 0.04737 0.0
N513 N 0.53746 0.44113 0.13044 0.0
C514 C 0.51087 0.43081 0.10959 0.0
C515 C 0.49836 0.40574 0.0642 0.0
C516 C 0.04506 0.40623 0.563 0.0
C517 C 0.01752 0.39357 0.53927 0.0
C518 C 0.05755 0.43119 0.60615 0.0
C519 C 0.04277 0.444 0.62901 0.0
H520 H 0.05718 0.39702 0.54686 0.0
H521 H 0.07882 0.44026 0.62302 0.0
S522 S 0.97004 0.41904 0.58283 0.0
N523 N 0.97589 0.39574 0.54156 0.0
N524 N 0.99913 0.44219 0.62485 0.0
C525 C 0.01516 0.43142 0.60643 0.0
C526 C 1.00261 0.40633 0.56091 0.0
C527 C 0.74571 0.66757 0.61607 0.0
C528 C 0.73257 0.68217 0.6374 0.0
C529 C 0.77011 0.67981 0.56993 0.0
C530 C 0.78265 0.70729 0.54564 0.0
H531 H 0.73684 0.64641 0.63394 0.0
H532 H 0.77937 0.66773 0.55387 0.0
S533 S 0.75686 0.75459 0.588 0.0
N534 N 0.73396 0.72559 0.63132 0.0
N535 N 0.78022 0.7488 0.54679 0.0
C536 C 0.76995 0.72223 0.56777 0.0
C537 C 0.74479 0.7096 0.613 0.0
C538 C 0.49746 0.17041 0.55685 0.0
C539 C 0.4696 0.15563 0.53716 0.0
C540 C 0.50989 0.15869 0.60417 0.0
C541 C 0.4951 0.13151 0.63142 0.0
H542 H 0.50969 0.19137 0.53668 0.0
H543 H 0.53133 0.17093 0.61882 0.0
S544 S 0.42173 0.08389 0.59545 0.0
N545 N 0.42756 0.11236 0.54867 0.0
N546 N 0.45115 0.09009 0.63557 0.0
C547 C 0.46732 0.11636 0.61129 0.0
C548 C 0.4545 0.12849 0.56478 0.0
C549 C 0.41353 1.00138 0.94919 0.0
C550 C 0.39985 0.01567 0.96759 0.0
C551 C 0.43803 0.01364 0.90356 0.0
C552 C 0.45011 0.04084 0.87679 0.0
H553 H 0.40508 0.98045 0.96927 0.0
H554 H 0.44776 1.00182 0.89012 0.0
S555 S 0.42263 0.08719 0.90939 0.0
N556 N 0.40012 0.05846 0.95506 0.0
N557 N 0.44652 0.08167 0.87127 0.0
C558 C 0.43678 0.05544 0.89535 0.0
C559 C 0.41154 0.04279 0.94016 0.0
C560 C 0.12289 0.4642 0.89534 0.0
C561 C 0.13772 0.49165 0.87072 0.0
C562 C 0.13532 0.45208 0.941 0.0
C563 C 0.16278 0.46722 0.96546 0.0
H564 H 0.10171 0.45187 0.87768 0.0
H565 H 0.12325 0.43085 0.95845 0.0
S566 S 0.21019 0.53996 0.9185 0.0
N567 N 0.18121 0.53362 0.87447 0.0
N568 N 0.2043 0.5111 0.96234 0.0
C569 C 0.17766 0.49476 0.9423 0.0
C570 C 0.16521 0.50691 0.89433 0.0
C571 C 0.69586 0.75203 0.83334 0.0
C572 C 0.68283 0.72653 0.87375 0.0
C573 C 0.7083 0.7761 0.88108 0.0
C574 C 0.70721 0.77538 0.97053 0.0
H575 H 0.69696 0.75333 0.76445 0.0
H576 H 0.71856 0.79539 0.84787 0.0
S577 S 0.67515 0.71372 0.10619 0.0
N578 N 0.66977 0.7019 0.00772 0.0
N579 N 0.69202 0.74717 0.09763 0.0
C580 C 0.69385 0.75001 0.01153 0.0
C581 C 0.68195 0.72554 0.96301 0.0
C582 C 0.82893 0.07051 0.73965 0.0
C583 C 0.80223 0.0592 0.70896 0.0
C584 C 0.84113 0.09491 0.78548 0.0
C585 C 0.82735 0.10931 0.80038 0.0
H586 H 0.84041 0.06025 0.72899 0.0
H587 H 0.86167 0.10269 0.80863 0.0
S588 S 0.75731 0.08876 0.73025 0.0
N589 N 0.76241 0.06427 0.69531 0.0
N590 N 0.78558 0.11059 0.77963 0.0
C591 C 0.80074 0.09842 0.76883 0.0
C592 C 0.78809 0.07322 0.72371 0.0
C593 C 0.10379 0.83905 0.73361 0.0
C594 C 0.11651 0.8241 0.71148 0.0
C595 C 0.07953 0.82717 0.7804 0.0
C596 C 0.06672 0.7997 0.80472 0.0
H597 H 0.11275 0.86018 0.71519 0.0
H598 H 0.0705 0.83946 0.79638 0.0
S599 S 0.0917 0.75172 0.76292 0.0
N600 N 0.11468 0.78048 0.71847 0.0
N601 N 0.06869 0.75795 0.80455 0.0
C602 C 0.07916 0.78449 0.78288 0.0
C603 C 0.10418 0.79675 0.73684 0.0
C604 C 0.33804 0.34563 0.73124 0.0
C605 C 0.35296 0.37282 0.70438 0.0
C606 C 0.35053 0.33352 0.77619 0.0
C607 C 0.37855 0.34792 0.79395 0.0
H608 H 0.31643 0.33374 0.71867 0.0
H609 H 0.33814 0.31263 0.79674 0.0
S610 S 0.42691 0.41934 0.73369 0.0
N611 N 0.39731 0.41369 0.69689 0.0
N612 N 0.42097 0.39072 0.77957 0.0
C613 C 0.39383 0.37497 0.7658 0.0
C614 C 0.38098 0.38749 0.7216 0.0
C615 C 0.09053 0.35266 0.33482 0.0
C616 C 0.06603 0.34849 0.29872 0.0
C617 C 0.1149 0.36533 0.2886 0.0
C618 C 0.11541 0.37373 0.20434 0.0
H619 H 0.09098 0.34636 0.39968 0.0
H620 H 0.13336 0.3683 0.31854 0.0
S621 S 0.05723 0.36738 0.07959 0.0
N622 N 0.04406 0.35399 0.17327 0.0
N623 N 0.08987 0.37718 0.08592 0.0
C624 C 0.09123 0.36965 0.16713 0.0
C625 C 0.0665 0.3572 0.21454 0.0
C626 C 0.81743 0.81275 0.33628 0.0
C627 C 0.82838 0.79822 0.29627 0.0
C628 C 0.80485 0.82429 0.28863 0.0
C629 C 0.80373 0.82246 0.19937 0.0
H630 H 0.81823 0.81485 0.40498 0.0
H631 H 0.79637 0.83508 0.32164 0.0
S632 S 0.82955 0.78678 0.06443 0.0
N633 N 0.83688 0.78221 0.16277 0.0
N634 N 0.81439 0.80504 0.07273 0.0
C635 C 0.81482 0.80822 0.1586 0.0
C636 C 0.82685 0.79576 0.20726 0.0
C637 C 0.37808 0.07308 0.22901 0.0
C638 C 0.35065 0.06062 0.20431 0.0
C639 C 0.39035 0.09766 0.27421 0.0
C640 C 0.37541 0.11022 0.29814 0.0
H641 H 0.39027 0.06402 0.21203 0.0
H642 H 0.41155 0.10663 0.29182 0.0
S643 S 0.30288 0.08558 0.25009 0.0
N644 N 0.30895 0.06267 0.20684 0.0
N645 N 0.33178 0.10839 0.294 0.0
C646 C 0.34791 0.09781 0.27462 0.0
C647 C 0.33559 0.07314 0.22703 0.0
loop_
_geom_bond_atom_site_label_1
_geom_bond_atom_site_label_2
_geom_bond_distance
_geom_bond_site_symmetry_2
_ccdc_geom_bond_type
C0 O2 1.247 . S
C0 O4 1.258 . S
C1 O8 1.247 . S
C1 O9 1.258 . S
O2 C0 1.247 . S
O2 Zn3 2.028 . S
Zn3 O2 2.028 . S
Zn3 O7 2.035 . S
Zn3 O9 2.035 . S
Zn3 O10 2.028 . S
O4 C0 1.258 . S
O4 Zn5 2.035 . S
Zn5 O4 2.035 . S
Zn5 O6 2.028 . S
Zn5 O8 2.028 . S
Zn5 O11 2.035 . S
O6 Zn5 2.028 . S
O6 C12 1.247 . S
O7 Zn3 2.035 . S
O7 C12 1.258 . S
O8 C1 1.247 . S
O8 Zn5 2.028 . S
O9 C1 1.258 . S
O9 Zn3 2.035 . S
O10 Zn3 2.028 . S
O10 C13 1.247 . S
O11 Zn5 2.035 . S
O11 C13 1.258 . S
C12 O6 1.247 . S
C12 O7 1.258 . S
C13 O10 1.247 . S
C13 O11 1.258 . S
C14 O16 1.247 . S
C14 O18 1.258 . S
C15 O22 1.247 . S
C15 O23 1.258 . S
O16 C14 1.247 . S
O16 Zn17 2.028 . S
Zn17 O16 2.028 . S
Zn17 O21 2.035 . S
Zn17 O23 2.035 . S
Zn17 O24 2.028 . S
O18 C14 1.258 . S
O18 Zn19 2.035 . S
Zn19 O18 2.035 . S
Zn19 O20 2.028 . S
Zn19 O22 2.028 . S
Zn19 O25 2.035 . S
O20 Zn19 2.028 . S
O20 C26 1.247 . S
O21 Zn17 2.035 . S
O21 C26 1.258 . S
O22 C15 1.247 . S
O22 Zn19 2.028 . S
O23 C15 1.258 . S
O23 Zn17 2.035 . S
O24 Zn17 2.028 . S
O24 C27 1.247 . S
O25 Zn19 2.035 . S
O25 C27 1.258 . S
C26 O20 1.247 . S
C26 O21 1.258 . S
C27 O24 1.247 . S
C27 O25 1.258 . S
C28 O30 1.247 . S
C28 O32 1.258 . S
C29 O36 1.247 . S
C29 O37 1.258 . S
O30 C28 1.247 . S
O30 Zn31 2.028 . S
Zn31 O30 2.028 . S
Zn31 O35 2.035 . S
Zn31 O37 2.035 . S
Zn31 O38 2.028 . S
O32 C28 1.258 . S
O32 Zn33 2.035 . S
Zn33 O32 2.035 . S
Zn33 O34 2.028 . S
Zn33 O36 2.028 . S
Zn33 O39 2.035 . S
O34 Zn33 2.028 . S
O34 C40 1.247 . S
O35 Zn31 2.035 . S
O35 C40 1.258 . S
O36 C29 1.247 . S
O36 Zn33 2.028 . S
O37 C29 1.258 . S
O37 Zn31 2.035 . S
O38 Zn31 2.028 . S
O38 C41 1.247 . S
O39 Zn33 2.035 . S
O39 C41 1.258 . S
C40 O34 1.247 . S
C40 O35 1.258 . S
C41 O38 1.247 . S
C41 O39 1.258 . S
C42 O44 1.247 . S
C42 O46 1.258 . S
C43 O50 1.247 . S
C43 O51 1.258 . S
O44 C42 1.247 . S
O44 Zn45 2.028 . S
Zn45 O44 2.028 . S
Zn45 O49 2.035 . S
Zn45 O51 2.035 . S
Zn45 O52 2.028 . S
O46 C42 1.258 . S
O46 Zn47 2.035 . S
Zn47 O46 2.035 . S
Zn47 O48 2.028 . S
Zn47 O50 2.028 . S
Zn47 O53 2.035 . S
O48 Zn47 2.028 . S
O48 C54 1.247 . S
O49 Zn45 2.035 . S
O49 C54 1.258 . S
O50 C43 1.247 . S
O50 Zn47 2.028 . S
O51 C43 1.258 . S
O51 Zn45 2.035 . S
O52 Zn45 2.028 . S
O52 C55 1.247 . S
O53 Zn47 2.035 . S
O53 C55 1.258 . S
C54 O48 1.247 . S
C54 O49 1.258 . S
C55 O52 1.247 . S
C55 O53 1.258 . S
C56 O58 1.247 . S
C56 O60 1.258 . S
C57 O64 1.247 . S
C57 O65 1.258 . S
O58 C56 1.247 . S
O58 Zn59 2.028 . S
Zn59 O58 2.028 . S
Zn59 O63 2.035 . S
Zn59 O65 2.035 . S
Zn59 O66 2.028 . S
O60 C56 1.258 . S
O60 Zn61 2.035 . S
Zn61 O60 2.035 . S
Zn61 O62 2.028 . S
Zn61 O64 2.028 . S
Zn61 O67 2.035 . S
O62 Zn61 2.028 . S
O62 C68 1.247 . S
O63 Zn59 2.035 . S
O63 C68 1.258 . S
O64 C57 1.247 . S
O64 Zn61 2.028 . S
O65 C57 1.258 . S
O65 Zn59 2.035 . S
O66 Zn59 2.028 . S
O66 C69 1.247 . S
O67 Zn61 2.035 . S
O67 C69 1.258 . S
C68 O62 1.247 . S
C68 O63 1.258 . S
C69 O66 1.247 . S
C69 O67 1.258 . S
C70 O72 1.247 . S
C70 O74 1.258 . S
C71 O78 1.247 . S
C71 O79 1.258 . S
O72 C70 1.247 . S
O72 Zn73 2.028 . S
Zn73 O72 2.028 . S
Zn73 O77 2.035 . S
Zn73 O79 2.035 . S
Zn73 O80 2.028 . S
O74 C70 1.258 . S
O74 Zn75 2.035 . S
Zn75 O74 2.035 . S
Zn75 O76 2.028 . S
Zn75 O78 2.028 . S
Zn75 O81 2.035 . S
O76 Zn75 2.028 . S
O76 C82 1.247 . S
O77 Zn73 2.035 . S
O77 C82 1.258 . S
O78 C71 1.247 . S
O78 Zn75 2.028 . S
O79 C71 1.258 . S
O79 Zn73 2.035 . S
O80 Zn73 2.028 . S
O80 C83 1.247 . S
O81 Zn75 2.035 . S
O81 C83 1.258 . S
C82 O76 1.247 . S
C82 O77 1.258 . S
C83 O80 1.247 . S
C83 O81 1.258 . S
C84 O86 1.247 . S
C84 O88 1.258 . S
C85 O92 1.247 . S
C85 O93 1.258 1_545 S
O86 C84 1.247 . S
O86 Zn87 2.028 . S
Zn87 O86 2.028 . S
Zn87 O91 2.045 . S
Zn87 O93 2.035 . S
Zn87 O94 2.028 . S
O88 C84 1.258 . S
O88 Zn89 2.035 . S
Zn89 O88 2.035 . S
Zn89 O90 2.028 1_565 S
Zn89 O92 2.028 1_565 S
Zn89 O95 2.035 . S
O90 Zn89 2.028 1_545 S
O90 C96 1.247 . S
O91 Zn87 2.045 . S
O91 C96 1.253 1_565 S
O92 C85 1.247 . S
O92 Zn89 2.028 1_545 S
O93 C85 1.258 1_565 S
O93 Zn87 2.035 . S
O94 Zn87 2.028 . S
O94 C97 1.247 . S
O95 Zn89 2.035 . S
O95 C97 1.258 . S
C96 O90 1.247 . S
C96 O91 1.253 1_545 S
C97 O94 1.247 . S
C97 O95 1.258 . S
C98 O100 1.247 . S
C98 O102 1.258 . S
C99 O106 1.247 . S
C99 O107 1.258 . S
O100 C98 1.247 . S
O100 Zn101 2.028 . S
Zn101 O100 2.028 . S
Zn101 O105 2.035 . S
Zn101 O107 2.035 . S
Zn101 O108 2.028 . S
O102 C98 1.258 . S
O102 Zn103 2.035 . S
Zn103 O102 2.035 . S
Zn103 O104 2.028 . S
Zn103 O106 2.028 . S
Zn103 O109 2.035 . S
O104 Zn103 2.028 . S
O104 C110 1.247 . S
O105 Zn101 2.035 . S
O105 C110 1.258 . S
O106 C99 1.247 . S
O106 Zn103 2.028 . S
O107 C99 1.258 . S
O107 Zn101 2.035 . S
O108 Zn101 2.028 . S
O108 C111 1.247 . S
O109 Zn103 2.035 . S
O109 C111 1.258 . S
C110 O104 1.247 . S
C110 O105 1.258 . S
C111 O108 1.247 . S
C111 O109 1.258 . S
C112 O114 1.247 . S
C112 O116 1.258 . S
C113 O120 1.247 . S
C113 O121 1.258 . S
O114 C112 1.247 . S
O114 Zn115 2.028 . S
Zn115 O114 2.028 . S
Zn115 O119 2.035 . S
Zn115 O121 2.035 . S
Zn115 O122 2.028 . S
O116 C112 1.258 . S
O116 Zn117 2.035 . S
Zn117 O116 2.035 . S
Zn117 O118 2.028 . S
Zn117 O120 2.028 . S
Zn117 O123 2.035 . S
O118 Zn117 2.028 . S
O118 C124 1.247 . S
O119 Zn115 2.035 . S
O119 C124 1.258 . S
O120 C113 1.247 . S
O120 Zn117 2.028 . S
O121 C113 1.258 . S
O121 Zn115 2.035 . S
O122 Zn115 2.028 . S
O122 C125 1.247 . S
O123 Zn117 2.035 . S
O123 C125 1.258 . S
C124 O118 1.247 . S
C124 O119 1.258 . S
C125 O122 1.247 . S
C125 O123 1.258 . S
C126 O128 1.247 . S
C126 O130 1.258 . S
C127 O134 1.247 . S
C127 O135 1.258 1_556 S
O128 C126 1.247 . S
O128 Zn129 2.028 . S
Zn129 O128 2.028 . S
Zn129 O133 2.035 . S
Zn129 O135 2.035 . S
Zn129 O136 2.028 . S
O130 C126 1.258 . S
O130 Zn131 2.035 . S
Zn131 O130 2.035 . S
Zn131 O132 2.028 . S
Zn131 O134 2.028 1_554 S
Zn131 O137 2.035 1_554 S
O132 Zn131 2.028 . S
O132 C138 1.247 . S
O133 Zn129 2.035 . S
O133 C138 1.258 . S
O134 C127 1.247 . S
O134 Zn131 2.028 1_556 S
O135 C127 1.258 1_554 S
O135 Zn129 2.035 . S
O136 Zn129 2.028 . S
O136 C139 1.247 1_554 S
O137 Zn131 2.035 1_556 S
O137 C139 1.258 . S
C138 O132 1.247 . S
C138 O133 1.258 . S
C139 O136 1.247 1_556 S
C139 O137 1.258 . S
C140 O142 1.232 1_545 S
C140 O144 1.258 . S
C141 O148 1.247 . S
C141 O149 1.258 1_556 S
O142 C140 1.232 1_565 S
O142 Zn143 2.038 . S
Zn143 O142 2.038 . S
Zn143 O147 2.035 . S
Zn143 O149 2.035 . S
Zn143 O150 2.028 . S
O144 C140 1.258 . S
O144 Zn145 2.035 1_545 S
Zn145 O144 2.035 1_565 S
Zn145 O146 2.028 . S
Zn145 O148 2.028 1_554 S
Zn145 O151 2.035 1_564 S
O146 Zn145 2.028 . S
O146 C152 1.247 . S
O147 Zn143 2.035 . S
O147 C152 1.258 . S
O148 C141 1.247 . S
O148 Zn145 2.028 1_556 S
O149 C141 1.258 1_554 S
O149 Zn143 2.035 . S
O150 Zn143 2.028 . S
O150 C153 1.247 1_564 S
O151 Zn145 2.035 1_546 S
O151 C153 1.258 . S
C152 O146 1.247 . S
C152 O147 1.258 . S
C153 O150 1.247 1_546 S
C153 O151 1.258 . S
C154 O156 1.247 . S
C154 O158 1.258 1_556 S
C155 O162 1.247 . S
C155 O163 1.258 . S
O156 C154 1.247 . S
O156 Zn157 2.028 1_556 S
Zn157 O156 2.028 1_554 S
Zn157 O161 2.035 1_554 S
Zn157 O163 2.035 . S
Zn157 O164 2.028 . S
O158 C154 1.258 1_554 S
O158 Zn159 2.035 . S
Zn159 O158 2.035 . S
Zn159 O160 2.028 . S
Zn159 O162 2.028 . S
Zn159 O165 2.035 . S
O160 Zn159 2.028 . S
O160 C166 1.247 1_554 S
O161 Zn157 2.035 1_556 S
O161 C166 1.258 . S
O162 C155 1.247 . S
O162 Zn159 2.028 . S
O163 C155 1.258 . S
O163 Zn157 2.035 . S
O164 Zn157 2.028 . S
O164 C167 1.247 . S
O165 Zn159 2.035 . S
O165 C167 1.258 . S
C166 O160 1.247 1_556 S
C166 O161 1.258 . S
C167 O164 1.247 . S
C167 O165 1.258 . S
C168 O170 1.247 . S
C168 O172 1.258 1_554 S
C169 O176 1.247 . S
C169 O177 1.258 . S
O170 C168 1.247 . S
O170 Zn171 2.028 1_554 S
Zn171 O170 2.028 1_556 S
Zn171 O175 2.035 1_556 S
Zn171 O177 2.035 . S
Zn171 O178 2.028 . S
O172 C168 1.258 1_556 S
O172 Zn173 2.035 . S
Zn173 O172 2.035 . S
Zn173 O174 2.028 . S
Zn173 O176 2.028 . S
Zn173 O179 2.035 . S
O174 Zn173 2.028 . S
O174 C180 1.247 1_556 S
O175 Zn171 2.035 1_554 S
O175 C180 1.258 . S
O176 C169 1.247 . S
O176 Zn173 2.028 . S
O177 C169 1.258 . S
O177 Zn171 2.035 . S
O178 Zn171 2.028 . S
O178 C181 1.247 . S
O179 Zn173 2.035 . S
O179 C181 1.258 . S
C180 O174 1.247 1_554 S
C180 O175 1.258 . S
C181 O178 1.247 . S
C181 O179 1.258 . S
C182 O184 1.247 1_554 S
C182 O186 1.258 . S
C183 O190 1.247 . S
C183 O191 1.258 . S
O184 C182 1.247 1_556 S
O184 Zn185 2.028 . S
Zn185 O184 2.028 . S
Zn185 O189 2.035 . S
Zn185 O191 2.035 . S
Zn185 O192 2.028 . S
O186 C182 1.258 . S
O186 Zn187 2.035 1_554 S
Zn187 O186 2.035 1_556 S
Zn187 O188 2.028 1_556 S
Zn187 O190 2.028 . S
Zn187 O193 2.035 . S
O188 Zn187 2.028 1_554 S
O188 C194 1.247 . S
O189 Zn185 2.035 . S
O189 C194 1.258 1_556 S
O190 C183 1.247 . S
O190 Zn187 2.028 . S
O191 C183 1.258 . S
O191 Zn185 2.035 . S
O192 Zn185 2.028 . S
O192 C195 1.247 . S
O193 Zn187 2.035 . S
O193 C195 1.258 . S
C194 O188 1.247 . S
C194 O189 1.258 1_554 S
C195 O192 1.247 . S
C195 O193 1.258 . S
C196 O198 1.247 1_454 S
C196 O200 1.258 . S
C197 O204 1.247 . S
C197 O205 1.258 . S
O198 C196 1.247 1_656 S
O198 Zn199 2.028 . S
Zn199 O198 2.028 . S
Zn199 O203 2.035 . S
Zn199 O205 2.035 . S
Zn199 O206 2.037 . S
O200 C196 1.258 . S
O200 Zn201 2.035 1_454 S
Zn201 O200 2.035 1_656 S
Zn201 O202 2.028 1_556 S
Zn201 O204 2.028 . S
Zn201 O207 2.035 1_655 S
O202 Zn201 2.028 1_554 S
O202 C208 1.247 . S
O203 Zn199 2.035 . S
O203 C208 1.258 1_556 S
O204 C197 1.247 . S
O204 Zn201 2.028 . S
O205 C197 1.258 . S
O205 Zn199 2.035 . S
O206 Zn199 2.037 . S
O206 C209 1.242 1_655 S
O207 Zn201 2.035 1_455 S
O207 C209 1.258 . S
C208 O202 1.247 . S
C208 O203 1.258 1_554 S
C209 O206 1.242 1_455 S
C209 O207 1.258 . S
C210 O212 1.247 . S
C210 O214 1.258 . S
C211 O218 1.247 . S
C211 O219 1.258 . S
O212 C210 1.247 . S
O212 Zn213 2.028 . S
Zn213 O212 2.028 . S
Zn213 O217 2.035 . S
Zn213 O219 2.035 . S
Zn213 O220 2.028 . S
O214 C210 1.258 . S
O214 Zn215 2.035 . S
Zn215 O214 2.035 . S
Zn215 O216 2.028 . S
Zn215 O218 2.028 . S
Zn215 O221 2.035 . S
O216 Zn215 2.028 . S
O216 C222 1.247 . S
O217 Zn213 2.035 . S
O217 C222 1.258 . S
O218 C211 1.247 . S
O218 Zn215 2.028 . S
O219 C211 1.258 . S
O219 Zn213 2.035 . S
O220 Zn213 2.028 . S
O220 C223 1.247 . S
O221 Zn215 2.035 . S
O221 C223 1.258 . S
C222 O216 1.247 . S
C222 O217 1.258 . S
C223 O220 1.247 . S
C223 O221 1.258 . S
C224 O226 1.247 . S
C224 O228 1.258 1_455 S
C225 O232 1.247 . S
C225 O233 1.258 . S
O226 C224 1.247 . S
O226 Zn227 2.028 1_455 S
Zn227 O226 2.028 1_655 S
Zn227 O231 2.035 . S
Zn227 O233 2.035 . S
Zn227 O234 2.028 1_655 S
O228 C224 1.258 1_655 S
O228 Zn229 2.035 . S
Zn229 O228 2.035 . S
Zn229 O230 2.028 . S
Zn229 O232 2.028 . S
Zn229 O235 2.046 . S
O230 Zn229 2.028 . S
O230 C236 1.247 . S
O231 Zn227 2.035 . S
O231 C236 1.258 . S
O232 C225 1.247 . S
O232 Zn229 2.028 . S
O233 C225 1.258 . S
O233 Zn227 2.035 . S
O234 Zn227 2.028 1_455 S
O234 C237 1.247 . S
O235 Zn229 2.046 . S
O235 C237 1.243 1_655 S
C236 O230 1.247 . S
C236 O231 1.258 . S
C237 O234 1.247 . S
C237 O235 1.243 1_455 S
C238 O240 1.247 . S
C238 O242 1.258 . S
C239 O246 1.247 . S
C239 O247 1.258 . S
O240 C238 1.247 . S
O240 Zn241 2.028 . S
Zn241 O240 2.028 . S
Zn241 O245 2.035 . S
Zn241 O247 2.035 . S
Zn241 O248 2.028 . S
O242 C238 1.258 . S
O242 Zn243 2.035 . S
Zn243 O242 2.035 . S
Zn243 O244 2.028 . S
Zn243 O246 2.028 . S
Zn243 O249 2.035 . S
O244 Zn243 2.028 . S
O244 C250 1.247 . S
O245 Zn241 2.035 . S
O245 C250 1.258 . S
O246 C239 1.247 . S
O246 Zn243 2.028 . S
O247 C239 1.258 . S
O247 Zn241 2.035 . S
O248 Zn241 2.028 . S
O248 C251 1.247 . S
O249 Zn243 2.035 . S
O249 C251 1.258 . S
C250 O244 1.247 . S
C250 O245 1.258 . S
C251 O248 1.247 . S
C251 O249 1.258 . S
C252 C253 1.369 . S
C252 C254 1.419 1_556 S
C252 H256 0.930 . S
C253 C252 1.369 . S
C253 C262 1.429 . S
C254 C252 1.419 1_554 S
C254 C255 1.363 . S
C254 H257 0.929 . S
C255 C254 1.363 . S
C255 C261 1.428 . S
H256 C252 0.930 . S
H257 C254 0.929 . S
S258 N259 1.613 1_554 S
S258 N260 1.610 . S
N259 S258 1.613 1_556 S
N259 C262 1.350 . S
N260 S258 1.610 . S
N260 C261 1.351 . S
C261 C255 1.428 . S
C261 N260 1.351 . S
C261 C262 1.434 1_554 S
C262 C253 1.429 . S
C262 N259 1.350 . S
C262 C261 1.434 1_556 S
C263 C264 1.369 . S
C263 C265 1.419 . S
C263 H267 0.930 . S
C264 C263 1.369 . S
C264 C273 1.429 1_556 S
C265 C263 1.419 . S
C265 C266 1.363 1_556 S
C265 H268 0.929 . S
C266 C265 1.363 1_554 S
C266 C272 1.428 . S
H267 C263 0.930 . S
H268 C265 0.929 . S
S269 N270 1.613 . S
S269 N271 1.610 . S
N270 S269 1.613 . S
N270 C273 1.350 . S
N271 S269 1.610 . S
N271 C272 1.351 . S
C272 C266 1.428 . S
C272 N271 1.351 . S
C272 C273 1.434 . S
C273 C264 1.429 1_554 S
C273 N270 1.350 . S
C273 C272 1.434 . S
C274 C275 1.369 . S
C274 C276 1.419 . S
C274 H278 0.930 . S
C275 C274 1.369 . S
C275 C284 1.429 1_554 S
C276 C274 1.419 . S
C276 C277 1.363 1_554 S
C276 H279 0.929 . S
C277 C276 1.363 1_556 S
C277 C283 1.428 . S
H278 C274 0.930 . S
H279 C276 0.929 . S
S280 N281 1.613 . S
S280 N282 1.610 . S
N281 S280 1.613 . S
N281 C284 1.350 . S
N282 S280 1.610 . S
N282 C283 1.351 . S
C283 C277 1.428 . S
C283 N282 1.351 . S
C283 C284 1.434 . S
C284 C275 1.429 1_556 S
C284 N281 1.350 . S
C284 C283 1.434 . S
C285 C286 1.369 . S
C285 C287 1.419 . S
C285 H289 0.930 . S
C286 C285 1.369 . S
C286 C295 1.429 . S
C287 C285 1.419 . S
C287 C288 1.363 . S
C287 H290 0.929 . S
C288 C287 1.363 . S
C288 C294 1.428 . S
H289 C285 0.930 . S
H290 C287 0.929 . S
S291 N292 1.613 . S
S291 N293 1.610 . S
N292 S291 1.613 . S
N292 C295 1.350 . S
N293 S291 1.610 . S
N293 C294 1.351 . S
C294 C288 1.428 . S
C294 N293 1.351 . S
C294 C295 1.434 . S
C295 C286 1.429 . S
C295 N292 1.350 . S
C295 C294 1.434 . S
C296 C297 1.369 . S
C296 C298 1.419 . S
C296 H300 0.930 . S
C297 C296 1.369 . S
C297 C306 1.429 . S
C298 C296 1.419 . S
C298 C299 1.363 . S
C298 H301 0.929 . S
C299 C298 1.363 . S
C299 C305 1.428 . S
H300 C296 0.930 . S
H301 C298 0.929 . S
S302 N303 1.613 . S
S302 N304 1.610 . S
N303 S302 1.613 . S
N303 C306 1.350 . S
N304 S302 1.610 . S
N304 C305 1.351 . S
C305 C299 1.428 . S
C305 N304 1.351 . S
C305 C306 1.434 . S
C306 C297 1.429 . S
C306 N303 1.350 . S
C306 C305 1.434 . S
C307 C308 1.369 . S
C307 C309 1.419 . S
C307 H311 0.930 . S
C308 C307 1.369 . S
C308 C317 1.429 . S
C309 C307 1.419 . S
C309 C310 1.363 . S
C309 H312 0.929 . S
C310 C309 1.363 . S
C310 C316 1.428 . S
H311 C307 0.930 . S
H312 C309 0.929 . S
S313 N314 1.613 . S
S313 N315 1.610 . S
N314 S313 1.613 . S
N314 C317 1.350 . S
N315 S313 1.610 . S
N315 C316 1.351 . S
C316 C310 1.428 . S
C316 N315 1.351 . S
C316 C317 1.434 . S
C317 C308 1.429 . S
C317 N314 1.350 . S
C317 C316 1.434 . S
C318 C319 1.369 . S
C318 C320 1.419 . S
C318 H322 0.930 . S
C319 C318 1.369 . S
C319 C328 1.429 . S
C320 C318 1.419 . S
C320 C321 1.363 . S
C320 H323 0.929 . S
C321 C320 1.363 . S
C321 C327 1.428 . S
H322 C318 0.930 . S
H323 C320 0.929 . S
S324 N325 1.613 . S
S324 N326 1.610 . S
N325 S324 1.613 . S
N325 C328 1.350 . S
N326 S324 1.610 . S
N326 C327 1.351 . S
C327 C321 1.428 . S
C327 N326 1.351 . S
C327 C328 1.434 . S
C328 C319 1.429 . S
C328 N325 1.350 . S
C328 C327 1.434 . S
C329 C330 1.369 . S
C329 C331 1.419 . S
C329 H333 0.930 . S
C330 C329 1.369 . S
C330 C339 1.429 . S
C331 C329 1.419 . S
C331 C332 1.363 . S
C331 H334 0.929 . S
C332 C331 1.363 . S
C332 C338 1.428 . S
H333 C329 0.930 . S
H334 C331 0.929 . S
S335 N336 1.613 . S
S335 N337 1.610 . S
N336 S335 1.613 . S
N336 C339 1.350 . S
N337 S335 1.610 . S
N337 C338 1.351 . S
C338 C332 1.428 . S
C338 N337 1.351 . S
C338 C339 1.434 . S
C339 C330 1.429 . S
C339 N336 1.350 . S
C339 C338 1.434 . S
C340 C341 1.369 . S
C340 C342 1.419 . S
C340 H344 0.930 . S
C341 C340 1.369 . S
C341 C350 1.429 . S
C342 C340 1.419 . S
C342 C343 1.363 . S
C342 H345 0.929 . S
C343 C342 1.363 . S
C343 C349 1.428 . S
H344 C340 0.930 . S
H345 C342 0.929 . S
S346 N347 1.613 . S
S346 N348 1.610 . S
N347 S346 1.613 . S
N347 C350 1.350 . S
N348 S346 1.610 . S
N348 C349 1.351 . S
C349 C343 1.428 . S
C349 N348 1.351 . S
C349 C350 1.434 . S
C350 C341 1.429 . S
C350 N347 1.350 . S
C350 C349 1.434 . S
C351 C352 1.369 . S
C351 C353 1.419 . S
C351 H355 0.930 . S
C352 C351 1.369 . S
C352 C361 1.429 . S
C353 C351 1.419 . S
C353 C354 1.363 . S
C353 H356 0.929 . S
C354 C353 1.363 . S
C354 C360 1.428 . S
H355 C351 0.930 . S
H356 C353 0.929 . S
S357 N358 1.613 . S
S357 N359 1.610 . S
N358 S357 1.613 . S
N358 C361 1.350 . S
N359 S357 1.610 . S
N359 C360 1.351 . S
C360 C354 1.428 . S
C360 N359 1.351 . S
C360 C361 1.434 . S
C361 C352 1.429 . S
C361 N358 1.350 . S
C361 C360 1.434 . S
C362 C363 1.369 . S
C362 C364 1.419 . S
C362 H366 0.930 . S
C363 C362 1.369 . S
C363 C372 1.429 . S
C364 C362 1.419 . S
C364 C365 1.363 . S
C364 H367 0.929 . S
C365 C364 1.363 . S
C365 C371 1.428 . S
H366 C362 0.930 . S
H367 C364 0.929 . S
S368 N369 1.613 . S
S368 N370 1.610 . S
N369 S368 1.613 . S
N369 C372 1.350 . S
N370 S368 1.610 . S
N370 C371 1.351 . S
C371 C365 1.428 . S
C371 N370 1.351 . S
C371 C372 1.434 . S
C372 C363 1.429 . S
C372 N369 1.350 . S
C372 C371 1.434 . S
C373 C374 1.369 . S
C373 C375 1.419 . S
C373 H377 0.930 . S
C374 C373 1.369 . S
C374 C383 1.429 . S
C375 C373 1.419 . S
C375 C376 1.363 . S
C375 H378 0.929 . S
C376 C375 1.363 . S
C376 C382 1.428 . S
H377 C373 0.930 . S
H378 C375 0.929 . S
S379 N380 1.613 . S
S379 N381 1.610 . S
N380 S379 1.613 . S
N380 C383 1.350 . S
N381 S379 1.610 . S
N381 C382 1.351 . S
C382 C376 1.428 . S
C382 N381 1.351 . S
C382 C383 1.434 . S
C383 C374 1.429 . S
C383 N380 1.350 . S
C383 C382 1.434 . S
C384 C385 1.369 . S
C384 C386 1.419 . S
C384 H388 0.930 . S
C385 C384 1.369 . S
C385 C394 1.429 . S
C386 C384 1.419 . S
C386 C387 1.363 . S
C386 H389 0.929 . S
C387 C386 1.363 . S
C387 C393 1.428 . S
H388 C384 0.930 . S
H389 C386 0.929 . S
S390 N391 1.613 . S
S390 N392 1.610 . S
N391 S390 1.613 . S
N391 C394 1.350 . S
N392 S390 1.610 . S
N392 C393 1.351 . S
C393 C387 1.428 . S
C393 N392 1.351 . S
C393 C394 1.434 . S
C394 C385 1.429 . S
C394 N391 1.350 . S
C394 C393 1.434 . S
C395 C396 1.369 . S
C395 C397 1.419 . S
C395 H399 0.930 . S
C396 C395 1.369 . S
C396 C405 1.429 . S
C397 C395 1.419 . S
C397 C398 1.363 . S
C397 H400 0.929 . S
C398 C397 1.363 . S
C398 C404 1.428 . S
H399 C395 0.930 . S
H400 C397 0.929 . S
S401 N402 1.613 . S
S401 N403 1.610 . S
N402 S401 1.613 . S
N402 C405 1.350 . S
N403 S401 1.610 . S
N403 C404 1.351 . S
C404 C398 1.428 . S
C404 N403 1.351 . S
C404 C405 1.434 . S
C405 C396 1.429 . S
C405 N402 1.350 . S
C405 C404 1.434 . S
C406 C407 1.369 . S
C406 C408 1.419 . S
C406 H410 0.930 . S
C407 C406 1.369 . S
C407 C416 1.429 . S
C408 C406 1.419 . S
C408 C409 1.363 . S
C408 H411 0.929 . S
C409 C408 1.363 . S
C409 C415 1.428 . S
H410 C406 0.930 . S
H411 C408 0.929 . S
S412 N413 1.613 . S
S412 N414 1.610 . S
N413 S412 1.613 . S
N413 C416 1.350 . S
N414 S412 1.610 . S
N414 C415 1.351 . S
C415 C409 1.428 . S
C415 N414 1.351 . S
C415 C416 1.434 . S
C416 C407 1.429 . S
C416 N413 1.350 . S
C416 C415 1.434 . S
C417 C418 1.369 . S
C417 C419 1.419 . S
C417 H421 0.930 . S
C418 C417 1.369 . S
C418 C427 1.429 . S
C419 C417 1.419 . S
C419 C420 1.363 . S
C419 H422 0.929 . S
C420 C419 1.363 . S
C420 C426 1.428 . S
H421 C417 0.930 . S
H422 C419 0.929 . S
S423 N424 1.613 . S
S423 N425 1.610 . S
N424 S423 1.613 . S
N424 C427 1.350 . S
N425 S423 1.610 . S
N425 C426 1.351 . S
C426 C420 1.428 . S
C426 N425 1.351 . S
C426 C427 1.434 . S
C427 C418 1.429 . S
C427 N424 1.350 . S
C427 C426 1.434 . S
C428 C429 1.369 . S
C428 C430 1.419 . S
C428 H432 0.930 . S
C429 C428 1.369 . S
C429 C438 1.429 . S
C430 C428 1.419 . S
C430 C431 1.363 . S
C430 H433 0.929 . S
C431 C430 1.363 . S
C431 C437 1.428 . S
H432 C428 0.930 . S
H433 C430 0.929 . S
S434 N435 1.613 . S
S434 N436 1.610 . S
N435 S434 1.613 . S
N435 C438 1.350 . S
N436 S434 1.610 . S
N436 C437 1.351 . S
C437 C431 1.428 . S
C437 N436 1.351 . S
C437 C438 1.434 . S
C438 C429 1.429 . S
C438 N435 1.350 . S
C438 C437 1.434 . S
C439 C440 1.369 . S
C439 C441 1.419 . S
C439 H443 0.930 . S
C440 C439 1.369 . S
C440 C449 1.429 . S
C441 C439 1.419 . S
C441 C442 1.363 . S
C441 H444 0.929 . S
C442 C441 1.363 . S
C442 C448 1.428 . S
H443 C439 0.930 . S
H444 C441 0.929 . S
S445 N446 1.613 . S
S445 N447 1.610 . S
N446 S445 1.613 . S
N446 C449 1.350 . S
N447 S445 1.610 . S
N447 C448 1.351 . S
C448 C442 1.428 . S
C448 N447 1.351 . S
C448 C449 1.434 . S
C449 C440 1.429 . S
C449 N446 1.350 . S
C449 C448 1.434 . S
C450 C451 1.369 . S
C450 C452 1.419 . S
C450 H454 0.930 . S
C451 C450 1.369 . S
C451 C460 1.429 . S
C452 C450 1.419 . S
C452 C453 1.363 . S
C452 H455 0.929 . S
C453 C452 1.363 . S
C453 C459 1.428 . S
H454 C450 0.930 . S
H455 C452 0.929 . S
S456 N457 1.613 . S
S456 N458 1.610 . S
N457 S456 1.613 . S
N457 C460 1.350 . S
N458 S456 1.610 . S
N458 C459 1.351 . S
C459 C453 1.428 . S
C459 N458 1.351 . S
C459 C460 1.434 . S
C460 C451 1.429 . S
C460 N457 1.350 . S
C460 C459 1.434 . S
C461 C462 1.369 . S
C461 C463 1.419 . S
C461 H465 0.930 . S
C462 C461 1.369 . S
C462 C471 1.429 . S
C463 C461 1.419 . S
C463 C464 1.363 . S
C463 H466 0.929 . S
C464 C463 1.363 . S
C464 C470 1.428 . S
H465 C461 0.930 . S
H466 C463 0.929 . S
S467 N468 1.613 . S
S467 N469 1.610 . S
N468 S467 1.613 . S
N468 C471 1.350 . S
N469 S467 1.610 . S
N469 C470 1.351 . S
C470 C464 1.428 . S
C470 N469 1.351 . S
C470 C471 1.434 . S
C471 C462 1.429 . S
C471 N468 1.350 . S
C471 C470 1.434 . S
C472 C473 1.369 . S
C472 C474 1.419 . S
C472 H476 0.930 . S
C473 C472 1.369 . S
C473 C482 1.429 . S
C474 C472 1.419 . S
C474 C475 1.363 . S
C474 H477 0.929 . S
C475 C474 1.363 . S
C475 C481 1.428 . S
H476 C472 0.930 . S
H477 C474 0.929 . S
S478 N479 1.613 . S
S478 N480 1.610 . S
N479 S478 1.613 . S
N479 C482 1.350 . S
N480 S478 1.610 . S
N480 C481 1.351 . S
C481 C475 1.428 . S
C481 N480 1.351 . S
C481 C482 1.434 . S
C482 C473 1.429 . S
C482 N479 1.350 . S
C482 C481 1.434 . S
C483 C484 1.369 . S
C483 C485 1.419 . S
C483 H487 0.930 . S
C484 C483 1.369 . S
C484 C493 1.429 . S
C485 C483 1.419 . S
C485 C486 1.363 . S
C485 H488 0.929 . S
C486 C485 1.363 . S
C486 C492 1.428 . S
H487 C483 0.930 . S
H488 C485 0.929 . S
S489 N490 1.613 . S
S489 N491 1.610 . S
N490 S489 1.613 . S
N490 C493 1.350 . S
N491 S489 1.610 . S
N491 C492 1.351 . S
C492 C486 1.428 . S
C492 N491 1.351 . S
C492 C493 1.434 . S
C493 C484 1.429 . S
C493 N490 1.350 . S
C493 C492 1.434 . S
C494 C495 1.369 . S
C494 C496 1.419 . S
C494 H498 0.930 1_455 S
C495 C494 1.369 . S
C495 C504 1.429 . S
C496 C494 1.419 . S
C496 C497 1.363 . S
C496 H499 0.929 . S
C497 C496 1.363 . S
C497 C503 1.428 . S
H498 C494 0.930 1_655 S
H499 C496 0.929 . S
S500 N501 1.613 . S
S500 N502 1.610 1_556 S
N501 S500 1.613 . S
N501 C504 1.350 1_556 S
N502 S500 1.610 1_554 S
N502 C503 1.351 . S
C503 C497 1.428 . S
C503 N502 1.351 . S
C503 C504 1.434 . S
C504 C495 1.429 . S
C504 N501 1.350 1_554 S
C504 C503 1.434 . S
C505 C506 1.369 . S
C505 C507 1.419 . S
C505 H509 0.930 1_554 S
C506 C505 1.369 . S
C506 C515 1.429 . S
C507 C505 1.419 . S
C507 C508 1.363 . S
C507 H510 0.929 . S
C508 C507 1.363 . S
C508 C514 1.428 . S
H509 C505 0.930 1_556 S
H510 C507 0.929 . S
S511 N512 1.613 . S
S511 N513 1.610 . S
N512 S511 1.613 . S
N512 C515 1.350 . S
N513 S511 1.610 . S
N513 C514 1.351 . S
C514 C508 1.428 . S
C514 N513 1.351 . S
C514 C515 1.434 . S
C515 C506 1.429 . S
C515 N512 1.350 . S
C515 C514 1.434 . S
C516 C517 1.369 . S
C516 C518 1.419 . S
C516 H520 0.930 . S
C517 C516 1.369 . S
C517 C526 1.429 . S
C518 C516 1.419 . S
C518 C519 1.363 . S
C518 H521 0.929 . S
C519 C518 1.363 . S
C519 C525 1.428 . S
H520 C516 0.930 . S
H521 C518 0.929 . S
S522 N523 1.613 . S
S522 N524 1.610 1_655 S
N523 S522 1.613 . S
N523 C526 1.350 1_655 S
N524 S522 1.610 1_455 S
N524 C525 1.351 . S
C525 C519 1.428 . S
C525 N524 1.351 . S
C525 C526 1.434 . S
C526 C517 1.429 . S
C526 N523 1.350 1_455 S
C526 C525 1.434 . S
C527 C528 1.369 . S
C527 C529 1.419 . S
C527 H531 0.930 . S
C528 C527 1.369 . S
C528 C537 1.429 . S
C529 C527 1.419 . S
C529 C530 1.363 . S
C529 H532 0.929 . S
C530 C529 1.363 . S
C530 C536 1.428 . S
H531 C527 0.930 . S
H532 C529 0.929 . S
S533 N534 1.613 . S
S533 N535 1.610 . S
N534 S533 1.613 . S
N534 C537 1.350 . S
N535 S533 1.610 . S
N535 C536 1.351 . S
C536 C530 1.428 . S
C536 N535 1.351 . S
C536 C537 1.434 . S
C537 C528 1.429 . S
C537 N534 1.350 . S
C537 C536 1.434 . S
C538 C539 1.369 . S
C538 C540 1.419 . S
C538 H542 0.930 . S
C539 C538 1.369 . S
C539 C548 1.429 . S
C540 C538 1.419 . S
C540 C541 1.363 . S
C540 H543 0.929 . S
C541 C540 1.363 . S
C541 C547 1.428 . S
H542 C538 0.930 . S
H543 C540 0.929 . S
S544 N545 1.613 . S
S544 N546 1.610 . S
N545 S544 1.613 . S
N545 C548 1.350 . S
N546 S544 1.610 . S
N546 C547 1.351 . S
C547 C541 1.428 . S
C547 N546 1.351 . S
C547 C548 1.434 . S
C548 C539 1.429 . S
C548 N545 1.350 . S
C548 C547 1.434 . S
C549 C550 1.369 . S
C549 C551 1.419 . S
C549 H553 0.930 . S
C550 C549 1.369 . S
C550 C559 1.429 . S
C551 C549 1.419 . S
C551 C552 1.363 . S
C551 H554 0.929 . S
C552 C551 1.363 . S
C552 C558 1.428 . S
H553 C549 0.930 . S
H554 C551 0.929 . S
S555 N556 1.613 . S
S555 N557 1.610 . S
N556 S555 1.613 . S
N556 C559 1.350 1_554 S
N557 S555 1.610 . S
N557 C558 1.351 1_554 S
C558 C552 1.428 . S
C558 N557 1.351 1_556 S
C558 C559 1.434 . S
C559 C550 1.429 . S
C559 N556 1.350 1_556 S
C559 C558 1.434 . S
C560 C561 1.369 . S
C560 C562 1.419 . S
C560 H564 0.930 . S
C561 C560 1.369 . S
C561 C570 1.429 . S
C562 C560 1.419 . S
C562 C563 1.363 . S
C562 H565 0.929 . S
C563 C562 1.363 . S
C563 C569 1.428 . S
H564 C560 0.930 . S
H565 C562 0.929 . S
S566 N567 1.613 . S
S566 N568 1.610 . S
N567 S566 1.613 . S
N567 C570 1.350 . S
N568 S566 1.610 . S
N568 C569 1.351 . S
C569 C563 1.428 . S
C569 N568 1.351 . S
C569 C570 1.434 . S
C570 C561 1.429 . S
C570 N567 1.350 . S
C570 C569 1.434 . S
C571 C572 1.369 . S
C571 C573 1.419 . S
C571 H575 0.930 . S
C572 C571 1.369 . S
C572 C581 1.429 . S
C573 C571 1.419 . S
C573 C574 1.363 . S
C573 H576 0.929 . S
C574 C573 1.363 . S
C574 C580 1.428 1_556 S
H575 C571 0.930 . S
H576 C573 0.929 . S
S577 N578 1.613 . S
S577 N579 1.610 . S
N578 S577 1.613 . S
N578 C581 1.350 1_554 S
N579 S577 1.610 . S
N579 C580 1.351 . S
C580 C574 1.428 1_554 S
C580 N579 1.351 . S
C580 C581 1.434 1_554 S
C581 C572 1.429 . S
C581 N578 1.350 1_556 S
C581 C580 1.434 1_556 S
C582 C583 1.369 . S
C582 C584 1.419 . S
C582 H586 0.930 . S
C583 C582 1.369 . S
C583 C592 1.429 . S
C584 C582 1.419 . S
C584 C585 1.363 . S
C584 H587 0.929 . S
C585 C584 1.363 . S
C585 C591 1.428 . S
H586 C582 0.930 . S
H587 C584 0.929 . S
S588 N589 1.613 . S
S588 N590 1.610 . S
N589 S588 1.613 . S
N589 C592 1.350 . S
N590 S588 1.610 . S
N590 C591 1.351 . S
C591 C585 1.428 . S
C591 N590 1.351 . S
C591 C592 1.434 . S
C592 C583 1.429 . S
C592 N589 1.350 . S
C592 C591 1.434 . S
C593 C594 1.369 . S
C593 C595 1.419 . S
C593 H597 0.930 . S
C594 C593 1.369 . S
C594 C603 1.429 . S
C595 C593 1.419 . S
C595 C596 1.363 . S
C595 H598 0.929 . S
C596 C595 1.363 . S
C596 C602 1.428 . S
H597 C593 0.930 . S
H598 C595 0.929 . S
S599 N600 1.613 . S
S599 N601 1.610 . S
N600 S599 1.613 . S
N600 C603 1.350 . S
N601 S599 1.610 . S
N601 C602 1.351 . S
C602 C596 1.428 . S
C602 N601 1.351 . S
C602 C603 1.434 . S
C603 C594 1.429 . S
C603 N600 1.350 . S
C603 C602 1.434 . S
C604 C605 1.369 . S
C604 C606 1.419 . S
C604 H608 0.930 . S
C605 C604 1.369 . S
C605 C614 1.429 . S
C606 C604 1.419 . S
C606 C607 1.363 . S
C606 H609 0.929 . S
C607 C606 1.363 . S
C607 C613 1.428 . S
H608 C604 0.930 . S
H609 C606 0.929 . S
S610 N611 1.613 . S
S610 N612 1.610 . S
N611 S610 1.613 . S
N611 C614 1.350 . S
N612 S610 1.610 . S
N612 C613 1.351 . S
C613 C607 1.428 . S
C613 N612 1.351 . S
C613 C614 1.434 . S
C614 C605 1.429 . S
C614 N611 1.350 . S
C614 C613 1.434 . S
C615 C616 1.369 . S
C615 C617 1.419 . S
C615 H619 0.930 . S
C616 C615 1.369 . S
C616 C625 1.429 . S
C617 C615 1.419 . S
C617 C618 1.363 . S
C617 H620 0.929 . S
C618 C617 1.363 . S
C618 C624 1.428 . S
H619 C615 0.930 . S
H620 C617 0.929 . S
S621 N622 1.613 . S
S621 N623 1.610 . S
N622 S621 1.613 . S
N622 C625 1.350 . S
N623 S621 1.610 . S
N623 C624 1.351 . S
C624 C618 1.428 . S
C624 N623 1.351 . S
C624 C625 1.434 . S
C625 C616 1.429 . S
C625 N622 1.350 . S
C625 C624 1.434 . S
C626 C627 1.369 . S
C626 C628 1.419 . S
C626 H630 0.930 . S
C627 C626 1.369 . S
C627 C636 1.429 . S
C628 C626 1.419 . S
C628 C629 1.363 . S
C628 H631 0.929 . S
C629 C628 1.363 . S
C629 C635 1.428 . S
H630 C626 0.930 . S
H631 C628 0.929 . S
S632 N633 1.613 . S
S632 N634 1.610 . S
N633 S632 1.613 . S
N633 C636 1.350 . S
N634 S632 1.610 . S
N634 C635 1.351 . S
C635 C629 1.428 . S
C635 N634 1.351 . S
C635 C636 1.434 . S
C636 C627 1.429 . S
C636 N633 1.350 . S
C636 C635 1.434 . S
C637 C638 1.369 . S
C637 C639 1.419 . S
C637 H641 0.930 . S
C638 C637 1.369 . S
C638 C647 1.429 . S
C639 C637 1.419 . S
C639 C640 1.363 . S
C639 H642 0.929 . S
C640 C639 1.363 . S
C640 C646 1.428 . S
H641 C637 0.930 . S
H642 C639 0.929 . S
S643 N644 1.613 . S
S643 N645 1.610 . S
N644 S643 1.613 . S
N644 C647 1.350 . S
N645 S643 1.610 . S
N645 C646 1.351 . S
C646 C640 1.428 . S
C646 N645 1.351 . S
C646 C647 1.434 . S
C647 C638 1.429 . S
C647 N644 1.350 . S
C647 C646 1.434 . S
C253 C43 1.829 . S
C255 C13 1.828 . S
C264 C68 1.829 . S
C266 C15 1.832 . S
C275 C29 1.832 . S
C277 C83 1.827 . S
C286 C40 1.825 . S
C288 C70 1.832 . S
C297 C0 1.827 . S
C299 C54 1.831 . S
C308 C57 1.829 . S
C310 C26 1.826 . S
C319 C138 1.833 . S
C321 C97 1.828 . S
C330 C99 1.827 . S
C332 C152 1.834 . S
C341 C124 1.829 . S
C343 C155 1.827 . S
C352 C166 1.833 . S
C354 C113 1.828 . S
C363 C127 1.831 . S
C365 C84 1.825 . S
C374 C141 1.831 . S
C376 C110 1.825 . S
C385 C181 1.827 . S
C387 C211 1.830 . S
C396 C183 1.834 . S
C398 C236 1.828 . S
C407 C197 1.834 . S
C409 C239 1.825 . S
C418 C250 1.826 . S
C420 C208 1.830 . S
C429 C222 1.830 . S
C431 C168 1.828 . S
C440 C225 1.826 . S
C442 C194 1.829 . S
C451 C12 1.633 . S
C453 C111 1.640 . S
C462 C14 1.635 . S
C464 C112 1.639 . S
C473 C85 1.640 . S
C475 C28 1.637 . S
C484 C41 1.639 . S
C486 C182 1.634 . S
C495 C196 1.635 . S
C497 C1 1.641 . S
C506 C180 1.638 . S
C508 C27 1.636 . S
C517 C224 1.636 . S
C519 C42 1.638 . S
C528 C69 1.639 . S
C530 C251 1.635 . S
C539 C223 1.636 . S
C541 C82 1.641 . S
C550 C153 1.637 . S
C552 C71 1.639 . S
C561 C55 1.633 . S
C563 C154 1.639 . S
C572 C56 1.639 . S
C574 C139 1.634 . S
C583 C96 1.633 . S
C585 C195 1.640 . S
C594 C98 1.634 . S
C596 C209 1.641 . S
C605 C125 1.637 . S
C607 C169 1.641 . S
C616 C237 1.638 . S
C618 C167 1.634 . S
C627 C238 1.640 . S
C629 C126 1.636 . S
C638 C140 1.635 . S
C640 C210 1.639 . S
