# Generated by pormake.
# Topology rkf, (6)-cn, num edge types: 1
# Building blocks:
#     Node 0, Type 0, BuildingBlock: PAMTUU_clean_sbu_0, # of connection points: 6
#     Node 1, Type 0, BuildingBlock: PAMTUU_clean_sbu_0, # of connection points: 6
#     Node 2, Type 0, BuildingBlock: PAMTUU_clean_sbu_0, # of connection points: 6
#     Node 3, Type 0, BuildingBlock: PAMTUU_clean_sbu_0, # of connection points: 6
#     Node 4, Type 0, BuildingBlock: PAMTUU_clean_sbu_0, # of connection points: 6
#     Node 5, Type 0, BuildingBlock: PAMTUU_clean_sbu_0, # of connection points: 6
#     Edge 6, Type (0, 0), BuildingBlock: TEMPAE_clean_linker_10, # of connection points: 2
#     Edge 7, Type (0, 0), BuildingBlock: TEMPAE_clean_linker_10, # of connection points: 2
#     Edge 8, Type (0, 0), BuildingBlock: TEMPAE_clean_linker_10, # of connection points: 2
#     Edge 9, Type (0, 0), BuildingBlock: TEMPAE_clean_linker_10, # of connection points: 2
#     Edge 10, Type (0, 0), BuildingBlock: TEMPAE_clean_linker_10, # of connection points: 2
#     Edge 11, Type (0, 0), BuildingBlock: TEMPAE_clean_linker_10, # of connection points: 2
#     Edge 12, Type (0, 0), BuildingBlock: TEMPAE_clean_linker_10, # of connection points: 2
#     Edge 13, Type (0, 0), BuildingBlock: TEMPAE_clean_linker_10, # of connection points: 2
#     Edge 14, Type (0, 0), BuildingBlock: TEMPAE_clean_linker_10, # of connection points: 2
#     Edge 15, Type (0, 0), BuildingBlock: TEMPAE_clean_linker_10, # of connection points: 2
#     Edge 16, Type (0, 0), BuildingBlock: TEMPAE_clean_linker_10, # of connection points: 2
#     Edge 17, Type (0, 0), BuildingBlock: TEMPAE_clean_linker_10, # of connection points: 2
#     Edge 18, Type (0, 0), BuildingBlock: TEMPAE_clean_linker_10, # of connection points: 2
#     Edge 19, Type (0, 0), BuildingBlock: TEMPAE_clean_linker_10, # of connection points: 2
#     Edge 20, Type (0, 0), BuildingBlock: TEMPAE_clean_linker_10, # of connection points: 2
#     Edge 21, Type (0, 0), BuildingBlock: TEMPAE_clean_linker_10, # of connection points: 2
#     Edge 22, Type (0, 0), BuildingBlock: TEMPAE_clean_linker_10, # of connection points: 2
#     Edge 23, Type (0, 0), BuildingBlock: TEMPAE_clean_linker_10, # of connection points: 2
# Relax obj value: 0.795
# Max RMSD: 0.265
# Mean RMSD: 0.265
data_MOF--net-rkf--node1-PAMTUU_clean_sbu_0--edge1-TEMPAE_clean_linker_10
_symmetry_space_group_name_H-M    P1
_symmetry_Int_Tables_number       1
_symmetry_cell_setting            triclinic
loop_
_symmetry_equiv_pos_as_xyz
'x, y, z'
_cell_length_a     26.349849
_cell_length_b     26.145811
_cell_length_c     43.915806
_cell_angle_alpha  89.742006
_cell_angle_beta   89.341713
_cell_angle_gamma 120.49404
loop_
_atom_site_label
_atom_site_type_symbol
_atom_site_fract_x
_atom_site_fract_y
_atom_site_fract_z
_atom_type_partial_charge
Tb0 Tb 0.21635 0.96452 0.16553 0.0
Tb1 Tb 0.18735 0.06867 0.15432 0.0
C2 C 0.30932 0.08438 1.14509 0.0
C3 C 0.25931 0.86997 0.20643 0.0
C4 C 0.26429 0.84778 0.26873 0.0
C5 C 0.31603 0.88699 0.25241 0.0
C6 C 0.31356 0.89799 0.22146 0.0
C7 C 0.20947 0.82473 0.22171 0.0
C8 C 0.2119 0.81383 0.25258 0.0
C9 C 0.25311 0.89441 0.1772 0.0
O10 O 0.23676 0.01551 0.2091 0.0
O11 O 0.17819 0.05585 0.20336 0.0
O12 O 0.10413 -0.01416 0.15411 0.0
O13 O 0.12748 0.92705 0.18305 0.0
O14 O 0.21682 0.15156 1.1339 0.0
O15 O 0.14163 0.11316 0.1652 0.0
O16 O 0.17042 0.02612 1.10918 0.0
O17 O 0.17181 0.94044 1.12097 0.0
O18 O 0.27832 0.03133 1.13422 0.0
O19 O 0.28115 0.10352 0.16169 0.0
C20 C 0.20993 0.04254 0.22078 0.0
O21 O 0.19951 0.87703 0.1686 0.0
O22 O 0.28739 0.95163 0.17358 0.0
C23 C 0.08906 0.93726 0.17 0.0
C24 C 0.15268 0.19051 1.13178 0.0
C25 C 0.13596 0.27637 1.10226 0.0
C26 C 0.13128 0.27048 1.13411 0.0
C27 C 0.13955 0.2278 1.14872 0.0
C28 C 0.15257 0.19288 1.0999 0.0
C29 C 0.14416 0.23547 1.08524 0.0
C30 C 0.17677 0.15852 1.14795 0.0
C31 C 0.15997 0.97239 1.10184 0.0
H32 H 0.35734 0.91284 0.26408 0.0
H33 H 0.35312 0.932 0.20999 0.0
H34 H 0.16725 0.80125 0.21062 0.0
H35 H 0.17106 0.7832 0.26429 0.0
H36 H 0.12422 0.30079 1.14776 0.0
H37 H 0.13958 0.2266 0.1734 0.0
H38 H 0.16275 0.16455 1.0864 0.0
H39 H 0.14845 0.2391 1.06065 0.0
Tb40 Tb 0.27301 0.30501 0.48782 0.0
Tb41 Tb 0.2547 0.18012 0.51094 0.0
C42 C 0.37477 0.29149 0.50655 0.0
C43 C 0.26034 0.43704 0.47636 0.0
C44 C 0.16926 0.45751 0.46039 0.0
C45 C 0.16186 0.41995 0.48523 0.0
C46 C 0.20698 0.40925 0.49295 0.0
C47 C 0.27097 0.48134 0.45498 0.0
C48 C 0.22577 0.49168 0.44705 0.0
C49 C 0.29593 0.40859 0.47442 0.0
O50 O 0.25552 0.25776 0.44416 0.0
O51 O 0.25439 0.17393 0.4611 0.0
O52 O 0.16608 0.15824 0.49864 0.0
O53 O 0.17961 0.25229 0.49106 0.0
O54 O 0.29465 0.13031 0.5014 0.0
O55 O 0.22667 0.10152 0.53631 0.0
O56 O 0.22524 0.2034 0.55234 0.0
O57 O 0.24672 0.29721 0.53743 0.0
O58 O 0.35354 0.30312 0.48285 0.0
O59 O 0.33754 0.25436 0.52659 0.0
C60 C 0.25224 0.20651 0.43879 0.0
O61 O 0.31184 0.39515 0.49987 0.0
O62 O 0.27496 0.36467 0.45546 0.0
C63 C 0.1459 0.1947 0.49391 0.0
C64 C 0.3108 0.0943 0.54598 0.0
C65 C 0.39875 0.10115 0.58446 0.0
C66 C 0.37762 0.14074 0.58768 0.0
C67 C 0.33427 0.13734 0.56866 0.0
C68 C 0.3334 0.05653 0.5415 0.0
C69 C 0.37708 0.05983 0.56064 0.0
C70 C 0.26892 0.09495 0.52463 0.0
C71 C 0.22693 0.25359 0.55822 0.0
H72 H 0.11923 0.39387 0.49639 0.0
H73 H 0.19789 0.37467 0.50952 0.0
H74 H 0.31181 0.50296 0.44186 0.0
H75 H 0.2333 0.52094 0.42784 0.0
H76 H 0.39198 0.1724 0.60601 0.0
H77 H 0.31863 0.16814 0.57188 0.0
H78 H 0.31713 0.02444 0.52332 0.0
H79 H 0.39252 0.0289 0.55744 0.0
Tb80 Tb 0.06648 0.30643 0.83995 0.0
Tb81 Tb 0.94145 0.19751 0.8181 0.0
C82 C 0.96359 0.32357 0.82219 0.0
C83 C 0.17542 0.44003 0.87985 0.0
C84 C 0.20416 0.50368 0.93442 0.0
C85 C 0.2486 0.51379 0.91301 0.0
C86 C 0.23427 0.48167 0.88596 0.0
C87 C 0.13064 0.43479 0.8994 0.0
C88 C 0.14484 0.46644 0.92643 0.0
C89 C 0.16099 0.39739 0.85529 0.0
O90 O 0.01907 0.26681 0.88412 0.0
O91 O 0.92468 0.20857 0.8664 0.0
O92 O -0.01778 0.16152 0.84731 0.0
O93 O 0.07686 0.23039 0.83503 0.0
O94 O 0.85002 0.15969 0.81798 0.0
O95 O 0.89132 0.11617 0.79569 0.0
O96 O 8e-05 0.21151 0.77877 0.0
O97 O 0.07743 0.30401 0.78978 0.0
O98 O -0.0 0.33114 0.8439 0.0
O99 O 0.94806 0.2802 0.803 0.0
C100 C 0.96142 0.23234 0.88931 0.0
O101 O 0.14507 0.34353 0.86428 0.0
O102 O 0.12608 0.39772 0.83455 0.0
C103 C 0.03875 0.18025 0.8481 0.0
C104 C 0.809 0.11132 0.77229 0.0
C105 C 0.74167 0.09862 0.72069 0.0
C106 C 0.73767 0.04849 0.73509 0.0
C107 C 0.77098 0.05483 0.76078 0.0
C108 C 0.81379 0.16159 0.75769 0.0
C109 C 0.77999 0.15523 0.7322 0.0
C110 C 0.84282 0.11744 0.79971 0.0
C111 C 0.05008 0.25941 0.77064 0.0
H112 H 0.2946 0.54267 0.91832 0.0
H113 H 0.26927 0.48657 0.87083 0.0
H114 H 0.08488 0.40295 0.89485 0.0
H115 H 0.10932 0.4568 0.94237 0.0
H116 H 0.70803 0.0043 0.72673 0.0
H117 H 0.76681 0.01565 0.77176 0.0
H118 H 0.84336 0.20575 0.7661 0.0
H119 H 0.78419 0.19449 0.72131 0.0
Tb120 Tb 0.68813 0.01592 0.16029 0.0
Tb121 Tb 0.81196 0.13088 0.17768 0.0
C122 C 0.69459 0.12638 0.18322 0.0
C123 C 0.54679 0.90057 1.12468 0.0
C124 C 0.48271 0.81806 1.07933 0.0
C125 C 0.46128 0.80799 1.10949 0.0
C126 C 0.49312 0.84916 1.13201 0.0
C127 C 0.56707 0.91213 1.09444 0.0
C128 C 0.53517 0.87129 1.07192 0.0
C129 C 0.5825 0.9396 1.14913 0.0
O130 O 0.72815 0.06304 1.11565 0.0
O131 O 0.82373 0.13165 1.12855 0.0
O132 O 0.83221 0.06221 0.16517 0.0
O133 O 0.74536 -0.01487 1.14591 0.0
O134 O 0.86285 0.22399 0.17789 0.0
O135 O 0.89409 0.17078 0.19891 0.0
O136 O 0.77377 0.08451 0.22177 0.0
O137 O 0.70931 -0.00895 0.20442 0.0
O138 O 0.67847 0.07299 0.19209 0.0
O139 O 0.74562 0.15605 0.16947 0.0
C140 C 0.78337 0.10399 1.10785 0.0
O141 O 0.61988 0.92699 0.16125 0.0
O142 O 0.60552 -0.0034 1.14446 0.0
C143 C 0.80122 0.00966 0.15233 0.0
C144 C 0.91999 0.26184 0.22152 0.0
C145 C 0.95687 0.33168 0.27415 0.0
C146 C -0.00863 0.35094 0.24726 0.0
C147 C -0.02694 0.31618 0.22117 0.0
C148 C 0.88408 0.24351 0.24782 0.0
C149 C 0.9024 0.27821 0.27398 0.0
C150 C 0.90336 0.22416 0.19459 0.0
C151 C 0.74034 0.02657 0.22676 0.0
H152 H 0.42124 0.76733 1.11583 0.0
H153 H 0.47695 0.83983 0.15535 0.0
H154 H 0.60862 0.9515 1.08846 0.0
H155 H 0.55368 0.87975 1.04904 0.0
H156 H 0.03324 0.39222 0.24665 0.0
H157 H 0.00096 0.33113 0.20092 0.0
H158 H 0.84271 0.20168 0.24835 0.0
H159 H 0.87524 0.2619 0.29444 0.0
Tb160 Tb 0.65898 0.80626 0.50865 0.0
Tb161 Tb 0.78761 0.82415 0.49356 0.0
C162 C 0.6737 0.69963 0.49835 0.0
C163 C 0.54235 0.83904 0.52533 0.0
C164 C 0.52462 0.92827 0.54981 0.0
C165 C 0.47902 0.86824 0.55088 0.0
C166 C 0.48829 0.82383 0.53917 0.0
C167 C 0.5845 0.89889 0.52043 0.0
C168 C 0.57593 0.94305 0.53257 0.0
C169 C 0.55905 0.79407 0.52033 0.0
O170 O 0.68992 0.78307 0.55113 0.0
O171 O 0.7884 0.84226 0.54195 0.0
O172 O 0.79614 0.91052 0.48754 0.0
O173 O 0.71956 0.89812 0.51862 0.0
O174 O 0.83519 0.78719 0.47471 0.0
O175 O 0.87883 0.86847 0.50069 0.0
O176 O 0.75549 0.82831 0.44794 0.0
O177 O 0.6822 0.8471 0.46229 0.0
O178 O 0.64482 0.72492 0.48914 0.0
O179 O 0.7277 0.73222 0.50785 0.0
C180 C 0.74479 0.81121 0.56114 0.0
O181 O 0.57776 0.79244 0.49304 0.0
O182 O 0.59373 0.79298 0.54085 0.0
C183 C 0.76735 0.93164 0.50257 0.0
C184 C 0.93887 0.84652 0.46894 0.0
C185 C 0.04119 0.87332 0.43545 0.0
C186 C 0.00993 0.90258 0.4288 0.0
C187 C 0.95889 0.8892 0.44549 0.0
C188 C -0.02922 0.81877 0.47613 0.0
C189 C 0.02136 0.83191 0.45958 0.0
C190 C 0.88452 0.82812 0.48631 0.0
C191 C 0.71792 0.846 0.44108 0.0
H192 H 0.438 0.85498 0.56288 0.0
H193 H 0.45486 0.77765 0.54272 0.0
H194 H 0.62629 0.91149 0.50941 0.0
H195 H 0.61261 -0.01187 0.53097 0.0
H196 H 0.02446 0.93505 0.41046 0.0
H197 H 0.93474 0.91125 0.43985 0.0
H198 H 0.95575 0.78571 0.49424 0.0
H199 H 0.04355 0.80775 0.46495 0.0
Tb200 Tb -0.00826 0.80982 0.82242 0.0
Tb201 Tb 0.85531 0.74865 0.84632 0.0
C202 C 0.91467 0.6758 0.82891 0.0
C203 C 0.15086 0.8993 0.79097 0.0
C204 C 0.259 -0.01536 0.76468 0.0
C205 C 0.24551 0.92569 0.76853 0.0
C206 C 0.1919 0.88344 0.78158 0.0
C207 C 0.16412 0.95823 0.78744 0.0
C208 C 0.21788 0.00064 0.77431 0.0
C209 C 0.09893 0.85535 0.80815 0.0
O210 O 0.94036 0.78893 0.77979 0.0
O211 O 0.85502 0.77988 0.79976 0.0
O212 O 0.89864 0.83985 0.8612 0.0
O213 O 0.96399 0.87451 0.82169 0.0
O214 O 0.78424 0.67438 0.86734 0.0
O215 O 0.77298 0.74302 0.84602 0.0
O216 O 0.90446 0.76646 0.89 0.0
O217 O 5e-05 0.82095 0.87177 0.0
O218 O 0.9641 0.72107 0.83751 0.0
O219 O 0.86908 0.68185 0.82428 0.0
C220 C 0.88875 0.78539 0.77605 0.0
O221 O 0.07876 0.87543 0.82925 0.0
O222 O 0.05717 0.80958 0.79414 0.0
C223 C 0.94251 0.88445 0.8465 0.0
C224 C 0.70525 0.68574 0.88508 0.0
C225 C 0.62097 0.67167 0.9293 0.0
C226 C 0.60895 0.6708 0.89817 0.0
C227 C 0.65074 0.67766 0.87629 0.0
C228 C 0.71716 0.68535 0.91609 0.0
C229 C 0.67516 0.67808 0.93804 0.0
C230 C 0.74773 0.69288 0.86124 0.0
C231 C 0.96212 0.79989 0.89474 0.0
H232 H 0.2757 0.91177 0.76063 0.0
H233 H 0.18272 0.83835 0.78467 0.0
H234 H 0.13336 0.97158 0.79508 0.0
H235 H 0.22716 0.04579 0.77145 0.0
H236 H 0.56813 0.66696 0.8907 0.0
H237 H 0.64079 0.67748 0.8524 0.0
H238 H 0.75889 0.69109 0.92333 0.0
H239 H 0.68543 0.67836 0.96187 0.0
C240 C 0.79575 0.91197 1.14981 0.0
C241 C 0.82931 0.97415 1.14775 0.0
C242 C 0.82322 0.87814 0.1515 0.0
C243 C 0.88535 0.90759 0.151 0.0
C244 C 0.91902 0.97001 1.14594 0.0
C245 C 0.89039 0.00249 1.14462 0.0
C246 C 0.78549 0.81184 0.15602 0.0
C247 C -0.01438 0.00354 1.14402 0.0
C248 C -0.00729 0.89159 0.19516 0.0
C249 C 0.02691 0.89229 0.17053 0.0
C250 C 0.93657 0.88291 0.19004 0.0
C251 C 0.91672 0.87643 0.15968 0.0
C252 C 0.9451 0.86238 1.13653 0.0
C253 C 0.00082 0.87068 1.14231 0.0
C254 C 0.90482 0.89346 0.21583 0.0
C255 C 0.92319 0.85127 1.1043 0.0
H256 H 0.74819 0.88984 0.15204 0.0
H257 H 0.91604 0.05046 1.14236 0.0
H258 H 0.80835 0.78808 1.14866 0.0
H259 H 0.77363 0.8019 0.18053 0.0
H260 H 0.74379 0.79421 1.1433 0.0
H261 H 0.00425 0.0511 1.13787 0.0
H262 H 0.00374 0.0013 0.16634 0.0
H263 H 0.00105 0.98352 1.12673 0.0
H264 H 0.01297 0.90721 0.21713 0.0
H265 H 0.02745 0.86998 1.12346 0.0
H266 H 0.85644 0.8649 0.21362 0.0
H267 H 0.91592 0.94049 0.21515 0.0
H268 H 0.91801 0.88462 0.23829 0.0
H269 H 0.8744 0.82838 1.10382 0.0
H270 H 0.93827 0.82427 1.09191 0.0
H271 H 0.94119 0.89439 1.09202 0.0
C272 C 0.81751 0.02607 0.52905 0.0
C273 C 0.79269 -0.00449 0.50226 0.0
C274 C 0.87028 0.08055 0.52739 0.0
C275 C 0.89662 0.10255 0.49839 0.0
C276 C 0.86275 0.07975 0.47192 0.0
C277 C 0.81061 0.02499 0.47412 0.0
C278 C 0.90356 0.10679 0.55627 0.0
C279 C 0.88754 0.10532 0.44077 0.0
C280 C 0.06038 0.21055 0.49416 0.0
C281 C 0.08222 0.17135 0.49309 0.0
C282 C -0.00014 0.18925 0.49518 0.0
C283 C 0.96065 0.12744 0.49534 0.0
C284 C -0.01747 0.0877 0.49333 0.0
C285 C 0.04317 0.11035 0.49229 0.0
C286 C -0.02132 0.23308 0.49718 0.0
C287 C 0.94231 0.02101 0.49269 0.0
H288 H 0.80197 0.00337 0.55087 0.0
H289 H 0.78944 0.00144 0.4535 0.0
H290 H 0.93378 0.08961 0.56033 0.0
H291 H 0.93041 0.15583 0.55441 0.0
H292 H 0.8731 0.0944 0.57623 0.0
H293 H 0.8517 0.09432 0.42437 0.0
H294 H 0.91675 0.15424 0.44158 0.0
H295 H 0.91393 0.08598 0.43221 0.0
H296 H 0.09044 0.2581 0.49486 0.0
H297 H 0.05997 0.08017 0.49113 0.0
H298 H -0.02623 0.24131 0.52149 0.0
H299 H 0.93546 0.21639 0.4862 0.0
H300 H 0.01101 0.27632 0.48652 0.0
H301 H 0.91425 0.00538 0.51357 0.0
H302 H 0.96705 -0.00293 0.49123 0.0
H303 H 0.91315 0.00842 0.47272 0.0
C304 C 0.04081 0.97261 0.85598 0.0
C305 C -0.01877 0.93798 0.8641 0.0
C306 C 0.081 0.01692 0.87515 0.0
C307 C 0.06001 0.03378 0.90116 0.0
C308 C 0.00141 -0.00791 0.91159 0.0
C309 C 0.9626 0.94657 0.8925 0.0
C310 C 0.14543 0.04073 0.86829 0.0
C311 C -0.02122 -0.00757 0.94317 0.0
C312 C 0.03013 0.13633 0.89946 0.0
C313 C 0.0601 0.15519 0.87116 0.0
C314 C 0.05377 0.11707 0.92221 0.0
C315 C 0.09226 0.09758 0.91262 0.0
C316 C 0.13589 0.14012 0.89267 0.0
C317 C 0.1172 0.16331 0.86914 0.0
C318 C 0.05087 0.13236 0.95483 0.0
C319 C 0.20022 0.16798 0.8995 0.0
H320 H 0.05717 0.96299 0.83535 0.0
H321 H 0.91778 0.91657 0.90035 0.0
H322 H 0.16199 0.07825 0.85178 0.0
H323 H 0.17145 0.05448 0.88942 0.0
H324 H 0.15236 0.00636 0.85744 0.0
H325 H 0.95107 0.94638 0.95217 0.0
H326 H 0.01524 0.01682 0.95905 0.0
H327 H 0.95036 0.01241 0.94244 0.0
H328 H -0.00571 0.1438 0.90498 0.0
H329 H 0.14771 0.19073 0.85123 0.0
H330 H 0.07298 0.11601 0.97015 0.0
H331 H 0.00433 0.11418 0.96216 0.0
H332 H 0.07357 0.18137 0.9568 0.0
H333 H 0.20798 0.1433 0.91775 0.0
H334 H 0.21701 0.21416 0.9072 0.0
H335 H 0.22557 0.17076 0.87856 0.0
C336 C 0.11467 0.3235 1.05853 0.0
C337 C 0.14051 0.32921 1.0869 0.0
C338 C 0.13043 0.37346 1.04021 0.0
C339 C 0.17277 0.43064 1.05073 0.0
C340 C 0.19354 0.43719 1.08081 0.0
C341 C 0.17751 0.38623 1.09852 0.0
C342 C 0.10589 0.36422 1.00844 0.0
C343 C 0.23606 0.49714 1.09375 0.0
C344 C 0.25698 0.50144 0.98022 0.0
C345 C 0.21816 0.51685 0.96713 0.0
C346 C 0.24962 0.48266 1.01064 0.0
C347 C 0.20251 0.47955 1.02796 0.0
C348 C 0.17303 0.50827 1.01702 0.0
C349 C 0.18095 0.52652 0.98637 0.0
C350 C 0.28538 0.45653 1.02234 0.0
C351 C 0.12688 0.51146 1.03612 0.0
H352 H 0.0848 0.27959 1.04988 0.0
H353 H 0.19744 0.39119 1.12058 0.0
H354 H 0.08664 0.39269 1.00435 0.0
H355 H 0.14173 0.37662 0.99134 0.0
H356 H 0.07119 0.31756 1.00452 0.0
H357 H 0.22469 0.49903 1.118 0.0
H358 H 0.28117 0.50387 1.09315 0.0
H359 H 0.23643 0.53408 1.08102 0.0
H360 H 0.28718 0.49535 0.96588 0.0
H361 H 0.15282 0.5413 0.97671 0.0
H362 H 0.25727 0.40746 1.02388 0.0
H363 H 0.30158 0.47314 1.04546 0.0
H364 H 0.32383 0.46758 1.00727 0.0
H365 H 0.08373 0.47025 1.03321 0.0
H366 H 0.12215 0.54962 1.02895 0.0
H367 H 0.13795 0.51557 1.06064 0.0
C368 C 0.07205 0.39051 0.43732 0.0
C369 C 0.11733 0.44875 0.44303 0.0
C370 C 0.03472 0.37796 0.41258 0.0
C371 C 0.04307 0.42484 0.39302 0.0
C372 C 0.08231 0.48431 0.40136 0.0
C373 C 0.1193 0.49568 0.42634 0.0
C374 C -0.00754 0.31381 0.405 0.0
C375 C 0.09032 0.53562 0.38189 0.0
C376 C 0.0385 0.38118 0.31093 0.0
C377 C -0.01939 0.36363 0.30307 0.0
C378 C 0.06018 0.4044 0.33962 0.0
C379 C 0.02314 0.4107 0.36106 0.0
C380 C 0.96581 0.3966 0.35265 0.0
C381 C 0.9449 0.37251 0.32378 0.0
C382 C 0.12168 0.41865 0.34757 0.0
C383 C 0.92541 0.40401 0.37445 0.0
H384 H 0.06999 0.35372 0.44984 0.0
H385 H 0.15314 0.54096 0.43109 0.0
H386 H 0.94981 0.30771 0.39735 0.0
H387 H 0.01135 0.30034 0.38608 0.0
H388 H -0.0159 0.28374 0.42478 0.0
H389 H 0.11015 0.57755 0.39494 0.0
H390 H 0.12018 0.54196 0.36237 0.0
H391 H 0.04765 0.52671 0.37256 0.0
H392 H 0.06606 0.37377 0.29518 0.0
H393 H 0.90026 0.3596 0.31764 0.0
H394 H 0.11936 0.38845 0.36608 0.0
H395 H 0.14773 0.46473 0.35598 0.0
H396 H 0.14561 0.4139 0.32781 0.0
H397 H 0.90178 0.3638 0.38915 0.0
H398 H 0.89191 0.40948 0.36206 0.0
H399 H 0.95033 0.44278 0.38942 0.0
C400 C 0.67125 0.11825 0.69237 0.0
C401 C 0.7056 0.09133 0.69376 0.0
C402 C 0.63225 0.10628 0.66829 0.0
C403 C 0.62835 0.06722 0.64506 0.0
C404 C 0.66592 0.04304 0.64551 0.0
C405 C 0.70371 0.0551 0.66998 0.0
C406 C 0.59409 0.13383 0.66826 0.0
C407 C 0.6645 0.00213 0.62086 0.0
C408 C 0.5039 0.95236 0.6019 0.0
C409 C 0.52648 0.97204 0.57227 0.0
C410 C 0.5306 -0.01106 0.62693 0.0
C411 C 0.58134 0.04532 0.62195 0.0
C412 C 0.59484 0.06991 0.5922 0.0
C413 C 0.56571 0.03311 0.56752 0.0
C414 C 0.51149 0.96298 0.6586 0.0
C415 C 0.64654 0.13115 0.58589 0.0
H416 H 0.67309 0.14668 0.71074 0.0
H417 H 0.73128 0.03536 0.67079 0.0
H418 H 0.60883 0.16766 0.6498 0.0
H419 H 0.54793 0.09955 0.66371 0.0
H420 H 0.59579 0.15565 0.69017 0.0
H421 H 0.69999 -0.00862 0.62335 0.0
H422 H 0.62151 0.95995 0.62169 0.0
H423 H 0.6693 0.02268 0.59805 0.0
H424 H 0.47137 0.90626 0.60632 0.0
H425 H 0.58001 0.05027 0.54457 0.0
H426 H 0.51481 -0.00298 0.67475 0.0
H427 H 0.54081 0.94693 0.66665 0.0
H428 H 0.46553 0.92489 0.65905 0.0
H429 H 0.65219 0.16204 0.60447 0.0
H430 H 0.64145 0.14949 0.56403 0.0
H431 H 0.68729 0.12864 0.58423 0.0
C432 C 0.4564 0.78392 1.02594 0.0
C433 C 0.45762 0.77 1.05667 0.0
C434 C 0.45987 0.74867 1.00306 0.0
C435 C 0.4648 0.6991 1.01151 0.0
C436 C 0.45228 0.67785 1.04189 0.0
C437 C 0.44944 0.71414 1.06444 0.0
C438 C 0.46902 0.77056 0.97051 0.0
C439 C 0.45216 0.62228 1.05128 0.0
C440 C 0.51844 0.63613 0.94943 0.0
C441 C 0.57974 0.67218 0.95235 0.0
C442 C 0.47958 0.64235 0.96916 0.0
C443 C 0.50289 0.68523 0.99238 0.0
C444 C 0.56477 0.71972 0.99621 0.0
C445 C 0.60221 0.71283 0.97611 0.0
C446 C 0.41407 0.60311 0.96503 0.0
C447 C 0.59201 0.76607 1.02075 0.0
H448 H 0.46008 0.82595 1.01987 0.0
H449 H 0.44854 0.70209 1.08817 0.0
H450 H 0.51696 0.79629 0.96517 0.0
H451 H 0.44829 0.73287 0.95453 0.0
H452 H 0.45062 0.79999 0.96669 0.0
H453 H 0.42806 0.60415 1.07325 0.0
H454 H 0.43168 0.58779 1.03359 0.0
H455 H 0.49826 0.63274 1.05412 0.0
H456 H 0.50087 0.60373 0.9314 0.0
H457 H 0.64944 0.74142 0.97822 0.0
H458 H 0.39024 0.62725 0.96945 0.0
H459 H 0.39712 0.5656 0.98154 0.0
H460 H 0.40354 0.58436 0.94176 0.0
H461 H 0.58068 0.8011 1.01713 0.0
H462 H 0.64078 0.78765 1.02104 0.0
H463 H 0.57454 0.7456 1.04348 0.0
C464 C 0.13987 0.88162 0.42846 0.0
C465 C 0.09084 0.88103 0.41578 0.0
C466 C 0.18239 0.87935 0.40989 0.0
C467 C 0.17578 0.87684 0.37795 0.0
C468 C 0.12829 0.87981 0.36499 0.0
C469 C 0.08621 0.88141 0.38407 0.0
C470 C 0.23277 0.87705 0.4245 0.0
C471 C 0.12071 0.87934 0.3309 0.0
C472 C 0.28531 0.90902 0.31518 0.0
C473 C 0.26056 0.85244 0.30227 0.0
C474 C 0.2636 0.9172 0.34284 0.0
C475 C 0.2158 0.86777 0.35757 0.0
C476 C 0.19778 0.80981 0.34734 0.0
C477 C 0.22071 0.80278 0.31974 0.0
C478 C 0.28618 0.97972 0.35341 0.0
C479 C 0.14868 0.75561 0.36318 0.0
H480 H 0.14413 0.8822 0.45299 0.0
H481 H 0.04833 0.8805 0.37409 0.0
H482 H 0.22519 0.83137 0.42289 0.0
H483 H 0.27498 0.90714 0.41244 0.0
H484 H 0.23714 0.88932 0.44891 0.0
H485 H 0.08367 0.88586 0.32454 0.0
H486 H 0.16162 0.91499 0.31982 0.0
H487 H 0.11225 0.83635 0.3216 0.0
H488 H 0.31667 0.94793 0.30217 0.0
H489 H 0.20294 0.75874 0.31038 0.0
H490 H 0.27888 0.98179 0.37817 0.0
H491 H 0.26274 -0.00177 0.34092 0.0
H492 H 0.33395 0.00819 0.34807 0.0
H493 H 0.15255 0.76005 0.38828 0.0
H494 H 0.1484 0.71453 0.35649 0.0
H495 H 0.10578 0.75079 0.35691 0.0
C496 C 0.30531 0.05617 0.72199 0.0
C497 C 0.31185 0.02628 0.74667 0.0
C498 C 0.34846 0.08119 0.69907 0.0
C499 C 0.39991 0.07677 0.70125 0.0
C500 C 0.41046 0.05445 0.72835 0.0
C501 C 0.36571 0.02854 0.75069 0.0
C502 C 0.33513 0.10581 0.671 0.0
C503 C 0.46649 0.05341 0.7331 0.0
C504 C 0.41069 0.03836 0.62261 0.0
C505 C 0.43193 0.09508 0.60996 0.0
C506 C 0.41062 0.03118 0.65419 0.0
C507 C 0.43295 0.08208 0.67274 0.0
C508 C 0.46898 0.13872 0.65937 0.0
C509 C 0.46848 0.14476 0.62766 0.0
C510 C 0.37601 0.96927 0.66756 0.0
C511 C 0.50021 0.19349 0.67855 0.0
H512 H 0.26388 0.05487 0.71898 0.0
H513 H 0.37154 0.00698 0.77038 0.0
H514 H 0.37192 0.15118 0.6657 0.0
H515 H 0.32948 0.07732 0.65118 0.0
H516 H 0.29434 0.10805 0.67376 0.0
H517 H 0.4822 0.06728 0.75665 0.0
H518 H 0.45767 0.00741 0.73058 0.0
H519 H 0.50199 0.08291 0.71685 0.0
H520 H 0.38517 -0.00066 0.60891 0.0
H521 H 0.48893 0.18886 0.61756 0.0
H522 H 0.33246 0.96084 0.67593 0.0
H523 H 0.39942 0.96435 0.68711 0.0
H524 H 0.36858 0.93499 0.6505 0.0
H525 H 0.47207 0.2135 0.68133 0.0
H526 H 0.54202 0.2271 0.66722 0.0
H527 H 0.5099 0.18284 0.70148 0.0
C528 C 0.4077 0.15812 0.16656 0.0
C529 C 0.37416 0.11142 1.14663 0.0
C530 C 0.4668 0.17581 0.17236 0.0
C531 C 0.4925 0.14566 0.15811 0.0
C532 C 0.46011 0.1017 1.13623 0.0
C533 C 0.40159 0.08545 1.13064 0.0
C534 C 0.5002 0.22377 0.19532 0.0
C535 C 0.48553 0.06817 1.1205 0.0
C536 C 0.65252 0.1848 0.15997 0.0
C537 C 0.64887 0.14328 0.18153 0.0
C538 C 0.60298 0.19 0.1537 0.0
C539 C 0.54884 0.15246 0.16918 0.0
C540 C 0.54666 0.11425 0.19275 0.0
C541 C 0.59674 0.11049 0.19873 0.0
C542 C 0.60747 0.2324 1.12898 0.0
C543 C 0.49001 0.0733 0.20989 0.0
H544 H 0.38703 0.1788 0.17885 0.0
H545 H 0.37629 0.04988 1.11489 0.0
H546 H 0.50072 0.20308 0.21734 0.0
H547 H 0.54662 0.25319 0.18776 0.0
H548 H 0.47954 0.25117 0.19926 0.0
H549 H 0.45687 0.03946 1.10206 0.0
H550 H 0.52966 0.09946 1.11062 0.0
H551 H 0.49103 0.03968 1.13738 0.0
H552 H 0.69274 0.21048 1.14667 0.0
H553 H 0.59388 0.07893 0.21576 0.0
H554 H 0.58282 0.25479 1.13556 0.0
H555 H 0.58768 0.20732 1.10787 0.0
H556 H 0.65401 0.26665 1.12382 0.0
H557 H 0.46948 0.09837 0.21869 0.0
H558 H 0.49699 0.05034 0.22934 0.0
H559 H 0.45827 0.03912 0.19422 0.0
C560 C 0.47863 0.35243 0.49024 0.0
C561 C 0.43637 0.33381 0.5137 0.0
C562 C 0.53075 0.40754 0.49151 0.0
C563 C 0.53937 0.44508 0.51642 0.0
C564 C 0.50099 0.42248 0.54214 0.0
C565 C 0.44963 0.36649 0.54053 0.0
C566 C 0.57184 0.42893 0.46417 0.0
C567 C 0.50935 0.46063 0.56943 0.0
C568 C 0.66797 0.60469 0.51523 0.0
C569 C 0.64178 0.63421 0.50167 0.0
C570 C 0.63569 0.54283 0.52011 0.0
C571 C 0.57586 0.5103 0.51159 0.0
C572 C 0.54961 0.53999 0.4976 0.0
C573 C 0.58295 0.60128 0.49267 0.0
C574 C 0.66528 0.51283 0.53496 0.0
C575 C 0.48588 0.50717 0.48798 0.0
H576 H 0.46838 0.32654 0.46961 0.0
H577 H 0.41681 0.35185 0.5587 0.0
H578 H 0.56129 0.45682 0.44945 0.0
H579 H 0.61835 0.45648 0.47119 0.0
H580 H 0.56717 0.39122 0.45044 0.0
H581 H 0.48421 0.43344 0.58963 0.0
H582 H 0.55659 0.48761 0.57522 0.0
H583 H 0.49348 0.49162 0.56401 0.0
H584 H 0.71337 0.62991 0.52239 0.0
H585 H 0.56229 0.62354 0.48213 0.0
H586 H 0.65225 0.46975 0.52408 0.0
H587 H 0.65137 0.50363 0.55926 0.0
H588 H 0.71405 0.54116 0.53392 0.0
H589 H 0.47885 0.47331 0.47079 0.0
H590 H 0.47204 0.53725 0.47802 0.0
H591 H 0.45666 0.48365 0.50784 0.0
C592 C 0.93679 0.39152 0.84719 0.0
C593 C 0.94009 0.36409 0.82051 0.0
C594 C 0.92258 0.43629 0.84627 0.0
C595 C 0.91233 0.45487 0.81786 0.0
C596 C 0.91193 0.42479 0.79098 0.0
C597 C 0.92545 0.3792 0.79266 0.0
C598 C 0.92257 0.46639 0.87556 0.0
C599 C 0.90135 0.44343 0.76027 0.0
C600 C 0.85852 0.56491 0.82333 0.0
C601 C 0.91219 0.6189 0.82316 0.0
C602 C 0.85726 0.51072 0.82011 0.0
C603 C 0.91084 0.51095 0.81626 0.0
C604 C 0.96474 0.56563 0.81443 0.0
C605 C 0.96476 0.61877 0.81811 0.0
C606 C 0.79901 0.4533 0.82237 0.0
C607 C 0.02289 0.56804 0.80999 0.0
H608 H 0.94704 0.37913 0.86887 0.0
H609 H 0.9278 0.35784 0.77202 0.0
H610 H 0.96166 0.51185 0.8758 0.0
H611 H 0.88284 0.47065 0.87727 0.0
H612 H 0.9239 0.44184 0.89597 0.0
H613 H 0.89271 0.40984 0.74258 0.0
H614 H 0.86359 0.451 0.76143 0.0
H615 H 0.94079 0.48596 0.75314 0.0
H616 H 0.81776 0.56485 0.8271 0.0
H617 H 0.00635 0.66043 0.81739 0.0
H618 H 0.79613 0.4308 0.84435 0.0
H619 H 0.79535 0.42282 0.80393 0.0
H620 H 0.76108 0.46064 0.82114 0.0
H621 H 0.03246 0.54963 0.8305 0.0
H622 H 0.06004 0.61404 0.80603 0.0
H623 H 0.02075 0.54048 0.79036 0.0
C624 C 0.26654 0.07711 0.27092 0.0
C625 C 0.21596 0.06157 0.25382 0.0
C626 C 0.27377 0.10125 0.30069 0.0
C627 C 0.22915 0.10967 0.3143 0.0
C628 C 0.17742 0.09235 0.29738 0.0
C629 C 0.17179 0.06935 0.26766 0.0
C630 C 0.33039 0.11967 0.31704 0.0
C631 C 0.12764 0.09825 0.31072 0.0
C632 C 0.21941 0.12139 0.40189 0.0
C633 C 0.24545 0.18284 0.40666 0.0
C634 C 0.2133 0.09721 0.37245 0.0
C635 C 0.23538 0.13504 0.3463 0.0
C636 C 0.26148 0.19728 0.35092 0.0
C637 C 0.2657 0.22022 0.38075 0.0
C638 C 0.18118 0.03053 0.37015 0.0
C639 C 0.28462 0.23984 0.32418 0.0
H640 H 0.30153 0.07239 0.26067 0.0
H641 H 0.13223 0.05746 0.25507 0.0
H642 H 0.35992 0.16836 0.31439 0.0
H643 H 0.32237 0.10944 0.34178 0.0
H644 H 0.3536 0.0976 0.30756 0.0
H645 H 0.09101 0.08475 0.29453 0.0
H646 H 0.11006 0.07017 0.33158 0.0
H647 H 0.14408 0.14487 0.31748 0.0
H648 H 0.2025 0.09137 0.42137 0.0
H649 H 0.28591 0.26769 0.38379 0.0
H650 H 0.18116 0.01438 0.34689 0.0
H651 H 0.13473 0.01232 0.37772 0.0
H652 H 0.20085 0.0123 0.38594 0.0
H653 H 0.30335 0.28673 0.3312 0.0
H654 H 0.24862 0.22863 0.30791 0.0
H655 H 0.31928 0.23555 0.31191 0.0
C656 C 0.20119 0.22349 0.61428 0.0
C657 C 0.20445 0.25971 0.5895 0.0
C658 C 0.17785 0.22568 0.64332 0.0
C659 C 0.15517 0.26412 0.64841 0.0
C660 C 0.15829 0.30089 0.62349 0.0
C661 C 0.18318 0.29875 0.59478 0.0
C662 C 0.17728 0.18626 0.66867 0.0
C663 C 0.13403 0.34184 0.62696 0.0
C664 C 0.04296 0.22297 0.71577 0.0
C665 C 0.07666 0.26245 0.73899 0.0
C666 C 0.0672 0.22408 0.68642 0.0
C667 C 0.12765 0.26485 0.67947 0.0
C668 C 0.16191 0.30485 0.7028 0.0
C669 C 0.13621 0.30359 0.73179 0.0
C670 C 0.02777 0.18106 0.66274 0.0
C671 C 0.2265 0.34851 0.69736 0.0
H672 H 0.21729 0.19308 0.61104 0.0
H673 H 0.18443 0.32667 0.57612 0.0
H674 H 0.19966 0.21328 0.68891 0.0
H675 H 0.13118 0.15394 0.67564 0.0
H676 H 0.19934 0.16131 0.6619 0.0
H677 H 0.13956 0.36778 0.60582 0.0
H678 H 0.08644 0.31561 0.63304 0.0
H679 H 0.15636 0.37317 0.64581 0.0
H680 H -0.00301 0.19094 0.72047 0.0
H681 H 0.16344 0.3343 0.74914 0.0
H682 H 0.04338 0.1501 0.65678 0.0
H683 H 0.02972 0.20543 0.64159 0.0
H684 H -0.01883 0.15463 0.6707 0.0
H685 H 0.24744 0.37707 0.71739 0.0
H686 H 0.2325 0.37733 0.67742 0.0
H687 H 0.24986 0.32423 0.69201 0.0
C688 C 0.9688 0.21651 0.94679 0.0
C689 C 0.9358 0.2167 0.92175 0.0
C690 C 0.9429 0.19669 0.97642 0.0
C691 C 0.88259 0.17829 0.98211 0.0
C692 C 0.84975 0.18033 0.95712 0.0
C693 C 0.87607 0.19817 0.92758 0.0
C694 C -0.02028 0.19356 1.00159 0.0
C695 C 0.78641 0.16401 0.9616 0.0
C696 C 0.79611 0.07946 1.05271 0.0
C697 C 0.8028 0.12132 1.07475 0.0
C698 C 0.82207 0.09707 1.02295 0.0
C699 C 0.85429 0.15822 1.01408 0.0
C700 C 0.85953 0.20034 1.03611 0.0
C701 C 0.83516 0.18167 1.06595 0.0
C702 C 0.81672 0.05009 1.00127 0.0
C703 C 0.89147 0.26571 1.02824 0.0
H704 H 0.01467 0.23012 0.94304 0.0
H705 H 0.84956 0.19813 0.90889 0.0
H706 H -0.02193 0.21783 1.02186 0.0
H707 H 0.96147 0.14656 1.0087 0.0
H708 H 0.02644 0.21223 0.99451 0.0
H709 H 0.75936 0.11685 0.96886 0.0
H710 H 0.78307 0.19123 0.97998 0.0
H711 H 0.76743 0.17069 0.94054 0.0
H712 H 0.77272 0.03288 1.05916 0.0
H713 H 0.84151 0.21478 1.08262 0.0
H714 H 0.86129 0.05926 0.99443 0.0
H715 H 0.79437 0.05119 0.98026 0.0
H716 H 0.79169 0.00478 1.01147 0.0
H717 H 0.93888 0.28198 1.02401 0.0
H718 H 0.88756 0.2925 1.04669 0.0
H719 H 0.87369 0.27333 1.00701 0.0
C720 C 0.76947 0.036 0.28294 0.0
C721 C 0.73656 0.00038 0.25842 0.0
C722 C 0.76675 0.0116 0.3124 0.0
C723 C 0.73014 0.94956 0.31816 0.0
C724 C 0.69679 0.91348 0.29352 0.0
C725 C 0.70041 0.93897 0.26432 0.0
C726 C 0.80347 0.0525 0.33746 0.0
C727 C 0.65702 0.8474 0.29796 0.0
C728 C 0.76127 0.87607 0.38701 0.0
C729 C 0.71974 0.87067 0.40927 0.0
C730 C 0.76518 0.90144 0.35771 0.0
C731 C 0.72669 0.92246 0.34973 0.0
C732 C 0.68455 0.91695 0.37206 0.0
C733 C 0.68171 0.89157 0.40122 0.0
C734 C 0.81109 0.90606 0.33523 0.0
C735 C 0.64227 0.93817 0.36516 0.0
H736 H 0.79782 0.08333 0.27915 0.0
H737 H 0.67464 0.91033 0.24596 0.0
H738 H 0.77463 0.04943 0.35684 0.0
H739 H 0.83413 0.03867 0.34615 0.0
H740 H 0.82956 0.09953 0.32968 0.0
H741 H 0.6832 0.8273 0.30543 0.0
H742 H 0.6239 0.83839 0.31618 0.0
H743 H 0.63356 0.82513 0.27684 0.0
H744 H 0.79145 0.86087 0.39253 0.0
H745 H 0.64953 0.88841 0.41786 0.0
H746 H 0.84098 0.95318 0.32854 0.0
H747 H 0.78955 0.88157 0.31424 0.0
H748 H 0.83791 0.88804 0.34461 0.0
H749 H 0.66715 -0.01374 0.35943 0.0
H750 H 0.61185 0.93074 0.3846 0.0
H751 H 0.61576 0.91475 0.34501 0.0
C752 C 0.81184 0.85435 0.60642 0.0
C753 C 0.76045 0.80707 0.59391 0.0
C754 C 0.83161 0.85086 0.63585 0.0
C755 C 0.80066 0.79797 0.65364 0.0
C756 C 0.74848 0.74999 0.64122 0.0
C757 C 0.72873 0.75531 0.6119 0.0
C758 C 0.8862 0.90415 0.64785 0.0
C759 C 0.71418 0.69219 0.65862 0.0
C760 C 0.88796 0.775 0.71787 0.0
C761 C 0.86733 0.78897 0.74447 0.0
C762 C 0.86589 0.77631 0.68858 0.0
C763 C 0.82284 0.79349 0.68512 0.0
C764 C 0.80261 0.80845 0.71188 0.0
C765 C 0.82425 0.80529 0.74088 0.0
C766 C 0.8885 0.7588 0.66122 0.0
C767 C 0.75842 0.82881 0.70989 0.0
H768 H 0.83706 0.89472 0.59303 0.0
H769 H 0.6896 0.718 0.60258 0.0
H770 H 0.87636 0.917 0.67023 0.0
H771 H 0.92102 0.89293 0.65149 0.0
H772 H 0.90379 0.94299 0.63208 0.0
H773 H 0.67512 0.65877 0.64602 0.0
H774 H 0.74307 0.67369 0.66331 0.0
H775 H 0.69921 0.69986 0.68094 0.0
H776 H 0.92073 0.76186 0.71998 0.0
H777 H 0.80776 0.81663 0.76091 0.0
H778 H 0.91153 0.79708 0.64523 0.0
H779 H 0.85104 0.72271 0.64884 0.0
H780 H 0.9194 0.74354 0.66756 0.0
H781 H 0.77614 0.86879 0.69496 0.0
H782 H 0.74734 0.8396 0.73254 0.0
H783 H 0.7173 0.79381 0.69946 0.0
C784 C 0.95236 0.81015 0.95283 0.0
C785 C -0.01256 0.82011 0.92649 0.0
C786 C -0.02218 0.83307 0.98179 0.0
C787 C 0.04021 0.86716 0.98504 0.0
C788 C 0.07552 0.8771 0.95854 0.0
C789 C 0.04914 0.85387 0.9301 0.0
C790 C 0.93774 0.82143 1.00895 0.0
C791 C 0.14184 0.91332 0.96007 0.0
C792 C 0.11335 0.9765 1.05184 0.0
C793 C 0.13007 0.94548 1.0718 0.0
C794 C 0.08364 0.95147 1.02424 0.0
C795 C 0.0691 0.8932 1.0157 0.0
C796 C 0.08547 0.86143 1.03586 0.0
C797 C 0.11533 0.88758 1.06336 0.0
C798 C 0.06726 -0.01241 1.00428 0.0
C799 C 0.07176 0.79956 1.02825 0.0
H800 H 0.90488 0.78513 0.9508 0.0
H801 H 0.07765 0.86295 0.91037 0.0
H802 H 0.94891 0.80027 1.02761 0.0
H803 H 0.9443 0.86409 1.01769 0.0
H804 H 0.89055 0.79238 1.00335 0.0
H805 H 0.15574 0.95896 0.96763 0.0
H806 H 0.15788 0.89351 0.97708 0.0
H807 H 0.16353 0.91627 0.93776 0.0
H808 H 0.12329 0.02078 1.05782 0.0
H809 H 0.12704 0.86229 1.07835 0.0
H810 H 0.01857 0.96564 1.00364 0.0
H811 H 0.08363 -0.01028 0.98065 0.0
H812 H 0.08513 0.03358 1.0126 0.0
H813 H 0.02379 0.77047 1.02464 0.0
H814 H 0.08545 0.77963 1.04645 0.0
H815 H 0.09461 0.80054 1.00668 0.0
loop_
_geom_bond_atom_site_label_1
_geom_bond_atom_site_label_2
_geom_bond_distance
_geom_bond_site_symmetry_2
_ccdc_geom_bond_type
Tb0 C9 2.764 . S
Tb0 O10 2.325 1_565 S
Tb0 O13 2.303 . S
Tb0 O17 2.322 . S
Tb0 O18 2.349 . S
Tb0 O21 2.415 . S
Tb0 O22 2.399 . S
Tb1 O11 2.322 . S
Tb1 O12 2.349 . S
Tb1 O14 2.415 1_554 S
Tb1 O15 2.399 1_554 S
Tb1 O16 2.325 1_554 S
Tb1 O19 2.303 . S
Tb1 C30 2.764 1_554 S
C2 O18 1.261 1_545 S
C2 O19 1.257 . S
C3 C6 1.358 . S
C3 C7 1.332 . S
C3 C9 1.504 . S
C4 C5 1.373 . S
C4 C8 1.308 . S
C5 C4 1.373 . S
C5 C6 1.429 . S
C5 H32 0.932 . S
C6 C3 1.358 . S
C6 C5 1.429 . S
C6 H33 0.930 . S
C7 C3 1.332 . S
C7 C8 1.394 . S
C7 H34 0.932 . S
C8 C4 1.308 . S
C8 C7 1.394 . S
C8 H35 0.929 . S
C9 Tb0 2.764 . S
C9 C3 1.504 . S
C9 O21 1.239 . S
C9 O22 1.263 . S
O10 Tb0 2.325 1_545 S
O10 C20 1.236 . S
O11 Tb1 2.322 . S
O11 C20 1.257 . S
O12 Tb1 2.349 . S
O12 C23 1.261 . S
O13 Tb0 2.303 . S
O13 C23 1.257 1_565 S
O14 Tb1 2.415 1_556 S
O14 C30 1.239 . S
O15 Tb1 2.399 1_556 S
O15 C30 1.263 . S
O16 Tb1 2.325 1_556 S
O16 C31 1.236 1_545 S
O17 Tb0 2.322 . S
O17 C31 1.257 1_554 S
O18 Tb0 2.349 . S
O18 C2 1.261 1_565 S
O19 Tb1 2.303 . S
O19 C2 1.257 . S
C20 O10 1.236 . S
C20 O11 1.257 . S
O21 Tb0 2.415 . S
O21 C9 1.239 . S
O22 Tb0 2.399 . S
O22 C9 1.263 . S
C23 O12 1.261 . S
C23 O13 1.257 1_545 S
C24 C27 1.358 . S
C24 C28 1.332 . S
C24 C30 1.504 . S
C25 C26 1.373 . S
C25 C29 1.308 . S
C26 C25 1.373 . S
C26 C27 1.429 . S
C26 H36 0.932 . S
C27 C24 1.358 . S
C27 C26 1.429 . S
C27 H37 0.930 . S
C28 C24 1.332 . S
C28 C29 1.394 . S
C28 H38 0.932 . S
C29 C25 1.308 . S
C29 C28 1.394 . S
C29 H39 0.929 . S
C30 Tb1 2.764 1_556 S
C30 O14 1.239 . S
C30 O15 1.263 . S
C30 C24 1.504 . S
C31 O16 1.236 1_565 S
C31 O17 1.257 1_556 S
H32 C5 0.932 . S
H33 C6 0.930 . S
H34 C7 0.932 . S
H35 C8 0.929 . S
H36 C26 0.932 . S
H37 C27 0.930 . S
H38 C28 0.932 . S
H39 C29 0.929 . S
Tb40 C49 2.764 . S
Tb40 O50 2.325 . S
Tb40 O53 2.303 . S
Tb40 O57 2.322 . S
Tb40 O58 2.349 . S
Tb40 O61 2.415 . S
Tb40 O62 2.399 . S
Tb41 O51 2.322 . S
Tb41 O52 2.349 . S
Tb41 O54 2.415 . S
Tb41 O55 2.399 . S
Tb41 O56 2.325 . S
Tb41 O59 2.303 . S
Tb41 C70 2.764 . S
C42 O58 1.261 . S
C42 O59 1.257 . S
C43 C46 1.358 . S
C43 C47 1.332 . S
C43 C49 1.504 . S
C44 C45 1.373 . S
C44 C48 1.308 . S
C45 C44 1.373 . S
C45 C46 1.429 . S
C45 H72 0.932 . S
C46 C43 1.358 . S
C46 C45 1.429 . S
C46 H73 0.930 . S
C47 C43 1.332 . S
C47 C48 1.394 . S
C47 H74 0.932 . S
C48 C44 1.308 . S
C48 C47 1.394 . S
C48 H75 0.929 . S
C49 Tb40 2.764 . S
C49 C43 1.504 . S
C49 O61 1.239 . S
C49 O62 1.263 . S
O50 Tb40 2.325 . S
O50 C60 1.236 . S
O51 Tb41 2.322 . S
O51 C60 1.257 . S
O52 Tb41 2.349 . S
O52 C63 1.261 . S
O53 Tb40 2.303 . S
O53 C63 1.257 . S
O54 Tb41 2.415 . S
O54 C70 1.239 . S
O55 Tb41 2.399 . S
O55 C70 1.263 . S
O56 Tb41 2.325 . S
O56 C71 1.236 . S
O57 Tb40 2.322 . S
O57 C71 1.257 . S
O58 Tb40 2.349 . S
O58 C42 1.261 . S
O59 Tb41 2.303 . S
O59 C42 1.257 . S
C60 O50 1.236 . S
C60 O51 1.257 . S
O61 Tb40 2.415 . S
O61 C49 1.239 . S
O62 Tb40 2.399 . S
O62 C49 1.263 . S
C63 O52 1.261 . S
C63 O53 1.257 . S
C64 C67 1.358 . S
C64 C68 1.332 . S
C64 C70 1.504 . S
C65 C66 1.373 . S
C65 C69 1.308 . S
C66 C65 1.373 . S
C66 C67 1.429 . S
C66 H76 0.932 . S
C67 C64 1.358 . S
C67 C66 1.429 . S
C67 H77 0.930 . S
C68 C64 1.332 . S
C68 C69 1.394 . S
C68 H78 0.932 . S
C69 C65 1.308 . S
C69 C68 1.394 . S
C69 H79 0.929 . S
C70 Tb41 2.764 . S
C70 O54 1.239 . S
C70 O55 1.263 . S
C70 C64 1.504 . S
C71 O56 1.236 . S
C71 O57 1.257 . S
H72 C45 0.932 . S
H73 C46 0.930 . S
H74 C47 0.932 . S
H75 C48 0.929 . S
H76 C66 0.932 . S
H77 C67 0.930 . S
H78 C68 0.932 . S
H79 C69 0.929 . S
Tb80 C89 2.764 . S
Tb80 O90 2.325 . S
Tb80 O93 2.303 . S
Tb80 O97 2.322 . S
Tb80 O98 2.349 . S
Tb80 O101 2.415 . S
Tb80 O102 2.399 . S
Tb81 O91 2.322 . S
Tb81 O92 2.349 1_655 S
Tb81 O94 2.415 . S
Tb81 O95 2.399 . S
Tb81 O96 2.325 1_655 S
Tb81 O99 2.303 1_655 S
Tb81 C110 2.764 . S
C82 O98 1.261 . S
C82 O99 1.257 . S
C83 C86 1.358 . S
C83 C87 1.332 . S
C83 C89 1.504 . S
C84 C85 1.373 . S
C84 C88 1.308 . S
C85 C84 1.373 . S
C85 C86 1.429 . S
C85 H112 0.932 . S
C86 C83 1.358 . S
C86 C85 1.429 . S
C86 H113 0.930 . S
C87 C83 1.332 . S
C87 C88 1.394 . S
C87 H114 0.932 . S
C88 C84 1.308 . S
C88 C87 1.394 . S
C88 H115 0.929 . S
C89 Tb80 2.764 . S
C89 C83 1.504 . S
C89 O101 1.239 . S
C89 O102 1.263 . S
O90 Tb80 2.325 . S
O90 C100 1.236 1_455 S
O91 Tb81 2.322 . S
O91 C100 1.257 . S
O92 Tb81 2.349 1_455 S
O92 C103 1.261 . S
O93 Tb80 2.303 . S
O93 C103 1.257 . S
O94 Tb81 2.415 . S
O94 C110 1.239 . S
O95 Tb81 2.399 . S
O95 C110 1.263 . S
O96 Tb81 2.325 1_455 S
O96 C111 1.236 . S
O97 Tb80 2.322 . S
O97 C111 1.257 . S
O98 Tb80 2.349 . S
O98 C82 1.261 . S
O99 Tb81 2.303 1_455 S
O99 C82 1.257 . S
C100 O90 1.236 1_655 S
C100 O91 1.257 . S
O101 Tb80 2.415 . S
O101 C89 1.239 . S
O102 Tb80 2.399 . S
O102 C89 1.263 . S
C103 O92 1.261 . S
C103 O93 1.257 . S
C104 C107 1.358 . S
C104 C108 1.332 . S
C104 C110 1.504 . S
C105 C106 1.373 . S
C105 C109 1.308 . S
C106 C105 1.373 . S
C106 C107 1.429 . S
C106 H116 0.932 . S
C107 C104 1.358 . S
C107 C106 1.429 . S
C107 H117 0.930 . S
C108 C104 1.332 . S
C108 C109 1.394 . S
C108 H118 0.932 . S
C109 C105 1.308 . S
C109 C108 1.394 . S
C109 H119 0.929 . S
C110 Tb81 2.764 . S
C110 O94 1.239 . S
C110 O95 1.263 . S
C110 C104 1.504 . S
C111 O96 1.236 . S
C111 O97 1.257 . S
H112 C85 0.932 . S
H113 C86 0.930 . S
H114 C87 0.932 . S
H115 C88 0.929 . S
H116 C106 0.932 . S
H117 C107 0.930 . S
H118 C108 0.932 . S
H119 C109 0.929 . S
Tb120 C129 2.764 1_554 S
Tb120 O130 2.325 1_564 S
Tb120 O133 2.303 . S
Tb120 O137 2.322 . S
Tb120 O138 2.349 . S
Tb120 O141 2.415 1_554 S
Tb120 O142 2.399 1_554 S
Tb121 O131 2.301 1_554 S
Tb121 O132 2.349 . S
Tb121 O134 2.415 . S
Tb121 O135 2.399 . S
Tb121 O136 2.325 . S
Tb121 O139 2.303 . S
Tb121 C150 2.764 . S
C122 O138 1.261 1_545 S
C122 O139 1.257 . S
C123 C126 1.358 . S
C123 C127 1.332 . S
C123 C129 1.504 . S
C124 C125 1.373 . S
C124 C128 1.308 . S
C125 C124 1.373 . S
C125 C126 1.429 . S
C125 H152 0.932 . S
C126 C123 1.358 . S
C126 C125 1.429 . S
C126 H153 0.930 . S
C127 C123 1.332 . S
C127 C128 1.394 . S
C127 H154 0.932 . S
C128 C124 1.308 . S
C128 C127 1.394 . S
C128 H155 0.929 . S
C129 Tb120 2.764 1_556 S
C129 C123 1.504 . S
C129 O141 1.239 . S
C129 O142 1.263 . S
O130 Tb120 2.325 1_546 S
O130 C140 1.236 . S
O131 Tb121 2.301 1_556 S
O131 C140 1.275 . S
O132 Tb121 2.349 . S
O132 C143 1.261 . S
O133 Tb120 2.303 . S
O133 C143 1.257 1_565 S
O134 Tb121 2.415 . S
O134 C150 1.239 . S
O135 Tb121 2.399 . S
O135 C150 1.263 . S
O136 Tb121 2.325 . S
O136 C151 1.236 1_545 S
O137 Tb120 2.322 . S
O137 C151 1.257 . S
O138 Tb120 2.349 . S
O138 C122 1.261 1_565 S
O139 Tb121 2.303 . S
O139 C122 1.257 . S
C140 O130 1.236 . S
C140 O131 1.275 . S
O141 Tb120 2.415 1_556 S
O141 C129 1.239 . S
O142 Tb120 2.399 1_556 S
O142 C129 1.263 . S
C143 O132 1.261 . S
C143 O133 1.257 1_545 S
C144 C147 1.358 . S
C144 C148 1.332 . S
C144 C150 1.504 . S
C145 C146 1.373 . S
C145 C149 1.308 . S
C146 C145 1.373 . S
C146 C147 1.429 . S
C146 H156 0.932 . S
C147 C144 1.358 . S
C147 C146 1.429 . S
C147 H157 0.930 . S
C148 C144 1.332 . S
C148 C149 1.394 . S
C148 H158 0.932 . S
C149 C145 1.308 . S
C149 C148 1.394 . S
C149 H159 0.929 . S
C150 Tb121 2.764 . S
C150 O134 1.239 . S
C150 O135 1.263 . S
C150 C144 1.504 . S
C151 O136 1.236 1_565 S
C151 O137 1.257 . S
H152 C125 0.932 . S
H153 C126 0.930 . S
H154 C127 0.932 . S
H155 C128 0.929 . S
H156 C146 0.932 . S
H157 C147 0.930 . S
H158 C148 0.932 . S
H159 C149 0.929 . S
Tb160 C169 2.764 . S
Tb160 O170 2.325 . S
Tb160 O173 2.303 . S
Tb160 O177 2.322 . S
Tb160 O178 2.349 . S
Tb160 O181 2.415 . S
Tb160 O182 2.399 . S
Tb161 O171 2.322 . S
Tb161 O172 2.349 . S
Tb161 O174 2.415 . S
Tb161 O175 2.399 . S
Tb161 O176 2.325 . S
Tb161 O179 2.303 . S
Tb161 C190 2.764 . S
C162 O178 1.261 . S
C162 O179 1.257 . S
C163 C166 1.358 . S
C163 C167 1.332 . S
C163 C169 1.504 . S
C164 C165 1.373 . S
C164 C168 1.308 . S
C165 C164 1.373 . S
C165 C166 1.429 . S
C165 H192 0.932 . S
C166 C163 1.358 . S
C166 C165 1.429 . S
C166 H193 0.930 . S
C167 C163 1.332 . S
C167 C168 1.394 . S
C167 H194 0.932 . S
C168 C164 1.308 . S
C168 C167 1.394 . S
C168 H195 0.929 1_565 S
C169 Tb160 2.764 . S
C169 C163 1.504 . S
C169 O181 1.239 . S
C169 O182 1.263 . S
O170 Tb160 2.325 . S
O170 C180 1.236 . S
O171 Tb161 2.322 . S
O171 C180 1.257 . S
O172 Tb161 2.349 . S
O172 C183 1.261 . S
O173 Tb160 2.303 . S
O173 C183 1.257 . S
O174 Tb161 2.415 . S
O174 C190 1.239 . S
O175 Tb161 2.399 . S
O175 C190 1.263 . S
O176 Tb161 2.325 . S
O176 C191 1.236 . S
O177 Tb160 2.322 . S
O177 C191 1.257 . S
O178 Tb160 2.349 . S
O178 C162 1.261 . S
O179 Tb161 2.303 . S
O179 C162 1.257 . S
C180 O170 1.236 . S
C180 O171 1.257 . S
O181 Tb160 2.415 . S
O181 C169 1.239 . S
O182 Tb160 2.399 . S
O182 C169 1.263 . S
C183 O172 1.261 . S
C183 O173 1.257 . S
C184 C187 1.358 . S
C184 C188 1.332 . S
C184 C190 1.504 . S
C185 C186 1.373 . S
C185 C189 1.308 . S
C186 C185 1.373 . S
C186 C187 1.429 . S
C186 H196 0.932 . S
C187 C184 1.358 . S
C187 C186 1.429 . S
C187 H197 0.930 . S
C188 C184 1.332 . S
C188 C189 1.394 . S
C188 H198 0.932 . S
C189 C185 1.308 . S
C189 C188 1.394 . S
C189 H199 0.929 . S
C190 Tb161 2.764 . S
C190 O174 1.239 . S
C190 O175 1.263 . S
C190 C184 1.504 . S
C191 O176 1.236 . S
C191 O177 1.257 . S
H192 C165 0.932 . S
H193 C166 0.930 . S
H194 C167 0.932 . S
H195 C168 0.929 1_545 S
H196 C186 0.932 . S
H197 C187 0.930 . S
H198 C188 0.932 . S
H199 C189 0.929 . S
Tb200 C209 2.764 . S
Tb200 O210 2.325 . S
Tb200 O213 2.303 . S
Tb200 O217 2.322 . S
Tb200 O218 2.349 . S
Tb200 O221 2.415 . S
Tb200 O222 2.399 . S
Tb201 O211 2.322 . S
Tb201 O212 2.349 1_655 S
Tb201 O214 2.415 . S
Tb201 O215 2.399 . S
Tb201 O216 2.325 1_655 S
Tb201 O219 2.303 1_655 S
Tb201 C230 2.764 . S
C202 O218 1.261 . S
C202 O219 1.257 . S
C203 C206 1.358 . S
C203 C207 1.332 . S
C203 C209 1.504 . S
C204 C205 1.373 . S
C204 C208 1.308 . S
C205 C204 1.373 . S
C205 C206 1.429 . S
C205 H232 0.932 . S
C206 C203 1.358 . S
C206 C205 1.429 . S
C206 H233 0.930 . S
C207 C203 1.332 . S
C207 C208 1.394 . S
C207 H234 0.932 . S
C208 C204 1.308 . S
C208 C207 1.394 . S
C208 H235 0.929 1_565 S
C209 Tb200 2.764 . S
C209 C203 1.504 . S
C209 O221 1.239 . S
C209 O222 1.263 . S
O210 Tb200 2.325 . S
O210 C220 1.236 1_455 S
O211 Tb201 2.322 . S
O211 C220 1.257 . S
O212 Tb201 2.349 1_455 S
O212 C223 1.261 . S
O213 Tb200 2.303 . S
O213 C223 1.257 . S
O214 Tb201 2.415 . S
O214 C230 1.239 . S
O215 Tb201 2.399 . S
O215 C230 1.263 . S
O216 Tb201 2.325 1_455 S
O216 C231 1.236 . S
O217 Tb200 2.322 . S
O217 C231 1.257 . S
O218 Tb200 2.349 . S
O218 C202 1.261 . S
O219 Tb201 2.303 1_455 S
O219 C202 1.257 . S
C220 O210 1.236 1_655 S
C220 O211 1.257 . S
O221 Tb200 2.415 . S
O221 C209 1.239 . S
O222 Tb200 2.399 . S
O222 C209 1.263 . S
C223 O212 1.261 . S
C223 O213 1.257 . S
C224 C227 1.358 . S
C224 C228 1.332 . S
C224 C230 1.504 . S
C225 C226 1.373 . S
C225 C229 1.308 . S
C226 C225 1.373 . S
C226 C227 1.429 . S
C226 H236 0.932 . S
C227 C224 1.358 . S
C227 C226 1.429 . S
C227 H237 0.930 . S
C228 C224 1.332 . S
C228 C229 1.394 . S
C228 H238 0.932 . S
C229 C225 1.308 . S
C229 C228 1.394 . S
C229 H239 0.929 . S
C230 Tb201 2.764 . S
C230 O214 1.239 . S
C230 O215 1.263 . S
C230 C224 1.504 . S
C231 O216 1.236 . S
C231 O217 1.257 . S
H232 C205 0.932 . S
H233 C206 0.930 . S
H234 C207 0.932 . S
H235 C208 0.929 1_545 S
H236 C226 0.932 . S
H237 C227 0.930 . S
H238 C228 0.932 . S
H239 C229 0.929 . S
C240 C241 1.391 1_565 S
C240 C242 1.394 . S
C240 H256 0.931 . S
C241 C240 1.391 1_545 S
C241 C245 1.376 . S
C242 C240 1.394 . S
C242 C243 1.369 1_565 S
C242 C246 1.531 . S
C243 C242 1.369 1_545 S
C243 C244 1.410 . S
C243 C251 1.503 1_655 S
C244 C243 1.410 . S
C244 C245 1.392 . S
C244 C247 1.518 1_655 S
C245 C241 1.376 . S
C245 C244 1.392 . S
C245 H257 0.929 . S
C246 C242 1.531 . S
C246 H258 0.960 . S
C246 H259 0.962 . S
C246 H260 0.960 . S
C247 C244 1.518 1_455 S
C247 H261 0.964 . S
C247 H262 0.973 . S
C247 H263 0.939 1_554 S
C248 C249 1.370 . S
C248 C250 1.363 . S
C248 H264 0.931 . S
C249 C248 1.370 . S
C249 C253 1.408 1_545 S
C250 C248 1.363 . S
C250 C251 1.370 . S
C250 C254 1.524 . S
C251 C243 1.503 1_455 S
C251 C250 1.370 . S
C251 C252 1.403 1_545 S
C252 C251 1.403 1_565 S
C252 C253 1.404 . S
C252 C255 1.539 1_554 S
C253 C249 1.408 1_565 S
C253 C252 1.404 . S
C253 H265 0.930 1_554 S
C254 C250 1.524 . S
C254 H266 0.956 1_455 S
C254 H267 0.961 . S
C254 H268 0.961 . S
C255 C252 1.539 1_556 S
C255 H269 0.958 1_455 S
C255 H270 0.961 . S
C255 H271 0.960 1_455 S
H256 C240 0.931 . S
H257 C245 0.929 . S
H258 C246 0.960 . S
H259 C246 0.962 . S
H260 C246 0.960 . S
H261 C247 0.964 . S
H262 C247 0.973 . S
H263 C247 0.939 1_556 S
H264 C248 0.931 . S
H265 C253 0.930 1_556 S
H266 C254 0.956 1_655 S
H267 C254 0.961 . S
H268 C254 0.961 . S
H269 C255 0.958 1_655 S
H270 C255 0.961 . S
H271 C255 0.960 1_655 S
C272 C273 1.391 . S
C272 C274 1.394 1_565 S
C272 H288 0.931 . S
C273 C272 1.391 . S
C273 C277 1.376 . S
C274 C272 1.394 1_545 S
C274 C275 1.369 . S
C274 C278 1.531 . S
C275 C274 1.369 . S
C275 C276 1.410 . S
C275 C283 1.503 1_655 S
C276 C275 1.410 . S
C276 C277 1.392 1_545 S
C276 C279 1.511 . S
C277 C273 1.376 . S
C277 C276 1.392 1_565 S
C277 H289 0.929 . S
C278 C274 1.531 . S
C278 H290 0.960 . S
C278 H291 0.962 . S
C278 H292 0.960 . S
C279 C276 1.511 . S
C279 H293 0.961 1_545 S
C279 H294 0.961 1_655 S
C279 H295 0.961 1_655 S
C280 C281 1.370 . S
C280 C282 1.363 . S
C280 H296 0.931 . S
C281 C280 1.370 . S
C281 C285 1.408 . S
C282 C280 1.363 . S
C282 C283 1.370 . S
C282 C286 1.524 1_455 S
C283 C275 1.503 1_455 S
C283 C282 1.370 . S
C283 C284 1.403 . S
C284 C283 1.403 . S
C284 C285 1.404 . S
C284 C287 1.539 . S
C285 C281 1.408 . S
C285 C284 1.404 . S
C285 H297 0.930 . S
C286 C282 1.524 1_655 S
C286 H298 0.956 . S
C286 H299 0.961 . S
C286 H300 0.961 . S
C287 C284 1.539 . S
C287 H301 0.958 . S
C287 H302 0.961 . S
C287 H303 0.960 . S
H288 C272 0.931 . S
H289 C277 0.929 . S
H290 C278 0.960 . S
H291 C278 0.962 . S
H292 C278 0.960 . S
H293 C279 0.961 1_565 S
H294 C279 0.961 1_455 S
H295 C279 0.961 1_455 S
H296 C280 0.931 . S
H297 C285 0.930 . S
H298 C286 0.956 . S
H299 C286 0.961 . S
H300 C286 0.961 . S
H301 C287 0.958 . S
H302 C287 0.961 . S
H303 C287 0.960 . S
C304 C305 1.391 . S
C304 C306 1.394 1_565 S
C304 H320 0.931 . S
C305 C304 1.391 . S
C305 C309 1.376 . S
C306 C304 1.394 1_545 S
C306 C307 1.369 . S
C306 C310 1.531 . S
C307 C306 1.369 . S
C307 C308 1.410 . S
C307 C315 1.503 . S
C308 C307 1.410 . S
C308 C309 1.392 1_545 S
C308 C311 1.511 1_455 S
C309 C305 1.376 . S
C309 C308 1.392 1_565 S
C309 H321 0.929 1_455 S
C310 C306 1.531 . S
C310 H322 0.960 . S
C310 H323 0.962 . S
C310 H324 0.960 . S
C311 C308 1.511 1_655 S
C311 H325 0.961 1_545 S
C311 H326 0.961 . S
C311 H327 0.961 1_545 S
C312 C313 1.370 . S
C312 C314 1.363 . S
C312 H328 0.931 . S
C313 C312 1.370 . S
C313 C317 1.408 . S
C314 C312 1.363 . S
C314 C315 1.370 . S
C314 C318 1.524 . S
C315 C307 1.503 . S
C315 C314 1.370 . S
C315 C316 1.403 . S
C316 C315 1.403 . S
C316 C317 1.404 . S
C316 C319 1.539 1_455 S
C317 C313 1.408 . S
C317 C316 1.404 . S
C317 H329 0.930 1_455 S
C318 C314 1.524 . S
C318 H330 0.956 . S
C318 H331 0.961 . S
C318 H332 0.961 . S
C319 C316 1.539 1_655 S
C319 H333 0.958 . S
C319 H334 0.961 . S
C319 H335 0.960 . S
H320 C304 0.931 . S
H321 C309 0.929 1_655 S
H322 C310 0.960 . S
H323 C310 0.962 . S
H324 C310 0.960 . S
H325 C311 0.961 1_565 S
H326 C311 0.961 . S
H327 C311 0.961 1_565 S
H328 C312 0.931 . S
H329 C317 0.930 1_655 S
H330 C318 0.956 . S
H331 C318 0.961 . S
H332 C318 0.961 . S
H333 C319 0.958 . S
H334 C319 0.961 . S
H335 C319 0.960 . S
C336 C337 1.391 . S
C336 C338 1.394 . S
C336 H352 0.931 . S
C337 C336 1.391 . S
C337 C341 1.376 . S
C338 C336 1.394 . S
C338 C339 1.369 . S
C338 C342 1.531 . S
C339 C338 1.369 . S
C339 C340 1.410 . S
C339 C347 1.503 . S
C340 C339 1.410 . S
C340 C341 1.392 . S
C340 C343 1.511 . S
C341 C337 1.376 . S
C341 C340 1.392 . S
C341 H353 0.929 . S
C342 C338 1.531 . S
C342 H354 0.960 . S
C342 H355 0.962 . S
C342 H356 0.960 . S
C343 C340 1.511 . S
C343 H357 0.961 . S
C343 H358 0.961 . S
C343 H359 0.961 . S
C344 C345 1.370 . S
C344 C346 1.363 . S
C344 H360 0.931 . S
C345 C344 1.370 . S
C345 C349 1.408 . S
C346 C344 1.363 . S
C346 C347 1.370 . S
C346 C350 1.524 . S
C347 C339 1.503 . S
C347 C346 1.370 . S
C347 C348 1.403 . S
C348 C347 1.403 . S
C348 C349 1.404 . S
C348 C351 1.539 . S
C349 C345 1.408 . S
C349 C348 1.404 . S
C349 H361 0.930 . S
C350 C346 1.524 . S
C350 H362 0.956 . S
C350 H363 0.961 . S
C350 H364 0.961 . S
C351 C348 1.539 . S
C351 H365 0.958 . S
C351 H366 0.961 . S
C351 H367 0.960 . S
H352 C336 0.931 . S
H353 C341 0.929 . S
H354 C342 0.960 . S
H355 C342 0.962 . S
H356 C342 0.960 . S
H357 C343 0.961 . S
H358 C343 0.961 . S
H359 C343 0.961 . S
H360 C344 0.931 . S
H361 C349 0.930 . S
H362 C350 0.956 . S
H363 C350 0.961 . S
H364 C350 0.961 . S
H365 C351 0.958 . S
H366 C351 0.961 . S
H367 C351 0.960 . S
C368 C369 1.391 . S
C368 C370 1.394 1_455 S
C368 H384 0.931 . S
C369 C368 1.391 . S
C369 C373 1.376 . S
C370 C368 1.394 1_655 S
C370 C371 1.369 . S
C370 C374 1.531 . S
C371 C370 1.369 . S
C371 C372 1.410 1_655 S
C371 C379 1.503 . S
C372 C371 1.410 1_455 S
C372 C373 1.392 . S
C372 C375 1.511 . S
C373 C369 1.376 . S
C373 C372 1.392 . S
C373 H385 0.929 . S
C374 C370 1.531 . S
C374 H386 0.960 . S
C374 H387 0.962 . S
C374 H388 0.960 . S
C375 C372 1.511 . S
C375 H389 0.961 . S
C375 H390 0.961 1_455 S
C375 H391 0.961 . S
C376 C377 1.370 . S
C376 C378 1.363 . S
C376 H392 0.931 . S
C377 C376 1.370 . S
C377 C381 1.408 . S
C378 C376 1.363 . S
C378 C379 1.370 . S
C378 C382 1.524 . S
C379 C371 1.503 . S
C379 C378 1.370 . S
C379 C380 1.403 . S
C380 C379 1.403 . S
C380 C381 1.404 . S
C380 C383 1.539 . S
C381 C377 1.408 . S
C381 C380 1.404 . S
C381 H393 0.930 . S
C382 C378 1.524 . S
C382 H394 0.956 . S
C382 H395 0.961 . S
C382 H396 0.961 . S
C383 C380 1.539 . S
C383 H397 0.958 . S
C383 H398 0.961 . S
C383 H399 0.960 . S
H384 C368 0.931 . S
H385 C373 0.929 . S
H386 C374 0.960 . S
H387 C374 0.962 . S
H388 C374 0.960 . S
H389 C375 0.961 . S
H390 C375 0.961 1_655 S
H391 C375 0.961 . S
H392 C376 0.931 . S
H393 C381 0.930 . S
H394 C382 0.956 . S
H395 C382 0.961 . S
H396 C382 0.961 . S
H397 C383 0.958 . S
H398 C383 0.961 . S
H399 C383 0.960 . S
C400 C401 1.391 . S
C400 C402 1.394 . S
C400 H416 0.931 . S
C401 C400 1.391 . S
C401 C405 1.376 . S
C402 C400 1.394 . S
C402 C403 1.369 . S
C402 C406 1.531 . S
C403 C402 1.369 . S
C403 C404 1.410 . S
C403 C411 1.503 . S
C404 C403 1.410 . S
C404 C405 1.392 . S
C404 C407 1.511 . S
C405 C401 1.376 . S
C405 C404 1.392 . S
C405 H417 0.929 . S
C406 C402 1.531 . S
C406 H418 0.960 . S
C406 H419 0.962 . S
C406 H420 0.960 . S
C407 C404 1.511 . S
C407 H421 0.961 . S
C407 H422 0.961 . S
C407 H423 0.961 . S
C408 C409 1.370 . S
C408 C410 1.363 1_565 S
C408 H424 0.931 . S
C409 C408 1.370 . S
C409 C413 1.408 1_565 S
C410 C408 1.363 1_545 S
C410 C411 1.370 . S
C410 C414 1.524 . S
C411 C403 1.503 . S
C411 C410 1.370 . S
C411 C412 1.403 . S
C412 C411 1.403 . S
C412 C413 1.404 . S
C412 C415 1.539 . S
C413 C409 1.408 1_545 S
C413 C412 1.404 . S
C413 H425 0.930 1_545 S
C414 C410 1.524 . S
C414 H426 0.956 . S
C414 H427 0.961 . S
C414 H428 0.961 . S
C415 C412 1.539 . S
C415 H429 0.958 . S
C415 H430 0.961 . S
C415 H431 0.960 . S
H416 C400 0.931 . S
H417 C405 0.929 . S
H418 C406 0.960 . S
H419 C406 0.962 . S
H420 C406 0.960 . S
H421 C407 0.961 . S
H422 C407 0.961 . S
H423 C407 0.961 . S
H424 C408 0.931 . S
H425 C413 0.930 1_565 S
H426 C414 0.956 . S
H427 C414 0.961 . S
H428 C414 0.961 . S
H429 C415 0.958 . S
H430 C415 0.961 . S
H431 C415 0.960 . S
C432 C433 1.391 . S
C432 C434 1.394 . S
C432 H448 0.931 . S
C433 C432 1.391 . S
C433 C437 1.376 . S
C434 C432 1.394 . S
C434 C435 1.369 . S
C434 C438 1.531 . S
C435 C434 1.369 . S
C435 C436 1.410 . S
C435 C443 1.503 . S
C436 C435 1.410 . S
C436 C437 1.392 . S
C436 C439 1.511 . S
C437 C433 1.376 . S
C437 C436 1.392 . S
C437 H449 0.929 . S
C438 C434 1.531 . S
C438 H450 0.960 . S
C438 H451 0.962 . S
C438 H452 0.960 . S
C439 C436 1.511 . S
C439 H453 0.961 . S
C439 H454 0.961 . S
C439 H455 0.961 . S
C440 C441 1.370 . S
C440 C442 1.363 . S
C440 H456 0.931 . S
C441 C440 1.370 . S
C441 C445 1.408 . S
C442 C440 1.363 . S
C442 C443 1.370 . S
C442 C446 1.524 . S
C443 C435 1.503 . S
C443 C442 1.370 . S
C443 C444 1.403 . S
C444 C443 1.403 . S
C444 C445 1.404 . S
C444 C447 1.539 . S
C445 C441 1.408 . S
C445 C444 1.404 . S
C445 H457 0.930 . S
C446 C442 1.524 . S
C446 H458 0.956 . S
C446 H459 0.961 . S
C446 H460 0.961 . S
C447 C444 1.539 . S
C447 H461 0.958 . S
C447 H462 0.961 . S
C447 H463 0.960 . S
H448 C432 0.931 . S
H449 C437 0.929 . S
H450 C438 0.960 . S
H451 C438 0.962 . S
H452 C438 0.960 . S
H453 C439 0.961 . S
H454 C439 0.961 . S
H455 C439 0.961 . S
H456 C440 0.931 . S
H457 C445 0.930 . S
H458 C446 0.956 . S
H459 C446 0.961 . S
H460 C446 0.961 . S
H461 C447 0.958 . S
H462 C447 0.961 . S
H463 C447 0.960 . S
C464 C465 1.391 . S
C464 C466 1.394 . S
C464 H480 0.931 . S
C465 C464 1.391 . S
C465 C469 1.376 . S
C466 C464 1.394 . S
C466 C467 1.369 . S
C466 C470 1.531 . S
C467 C466 1.369 . S
C467 C468 1.410 . S
C467 C475 1.503 . S
C468 C467 1.410 . S
C468 C469 1.392 . S
C468 C471 1.511 . S
C469 C465 1.376 . S
C469 C468 1.392 . S
C469 H481 0.929 . S
C470 C466 1.531 . S
C470 H482 0.960 . S
C470 H483 0.962 . S
C470 H484 0.960 . S
C471 C468 1.511 . S
C471 H485 0.961 . S
C471 H486 0.961 . S
C471 H487 0.961 . S
C472 C473 1.370 . S
C472 C474 1.363 . S
C472 H488 0.931 . S
C473 C472 1.370 . S
C473 C477 1.408 . S
C474 C472 1.363 . S
C474 C475 1.370 1_455 S
C474 C478 1.524 . S
C475 C467 1.503 . S
C475 C474 1.370 1_655 S
C475 C476 1.403 . S
C476 C475 1.403 . S
C476 C477 1.404 1_655 S
C476 C479 1.539 . S
C477 C473 1.408 . S
C477 C476 1.404 1_455 S
C477 H489 0.930 . S
C478 C474 1.524 . S
C478 H490 0.956 . S
C478 H491 0.961 1_455 S
C478 H492 0.961 . S
C479 C476 1.539 . S
C479 H493 0.958 . S
C479 H494 0.961 . S
C479 H495 0.960 . S
H480 C464 0.931 . S
H481 C469 0.929 . S
H482 C470 0.960 . S
H483 C470 0.962 . S
H484 C470 0.960 . S
H485 C471 0.961 . S
H486 C471 0.961 . S
H487 C471 0.961 . S
H488 C472 0.931 . S
H489 C477 0.930 . S
H490 C478 0.956 . S
H491 C478 0.961 1_655 S
H492 C478 0.961 . S
H493 C479 0.958 . S
H494 C479 0.961 . S
H495 C479 0.960 . S
C496 C497 1.391 . S
C496 C498 1.394 1_565 S
C496 H512 0.931 . S
C497 C496 1.391 . S
C497 C501 1.376 1_565 S
C498 C496 1.394 1_545 S
C498 C499 1.369 . S
C498 C502 1.531 . S
C499 C498 1.369 . S
C499 C500 1.410 . S
C499 C507 1.503 . S
C500 C499 1.410 . S
C500 C501 1.392 . S
C500 C503 1.511 . S
C501 C497 1.376 1_545 S
C501 C500 1.392 . S
C501 H513 0.929 . S
C502 C498 1.531 . S
C502 H514 0.960 . S
C502 H515 0.962 . S
C502 H516 0.960 . S
C503 C500 1.511 . S
C503 H517 0.961 . S
C503 H518 0.961 . S
C503 H519 0.961 . S
C504 C505 1.370 . S
C504 C506 1.363 . S
C504 H520 0.931 . S
C505 C504 1.370 . S
C505 C509 1.408 . S
C506 C504 1.363 . S
C506 C507 1.370 . S
C506 C510 1.524 . S
C507 C499 1.503 . S
C507 C506 1.370 . S
C507 C508 1.403 . S
C508 C507 1.403 . S
C508 C509 1.404 . S
C508 C511 1.539 . S
C509 C505 1.408 . S
C509 C508 1.404 . S
C509 H521 0.930 . S
C510 C506 1.524 . S
C510 H522 0.956 . S
C510 H523 0.961 . S
C510 H524 0.961 . S
C511 C508 1.539 . S
C511 H525 0.958 . S
C511 H526 0.961 . S
C511 H527 0.960 . S
H512 C496 0.931 . S
H513 C501 0.929 . S
H514 C502 0.960 . S
H515 C502 0.962 . S
H516 C502 0.960 . S
H517 C503 0.961 . S
H518 C503 0.961 . S
H519 C503 0.961 . S
H520 C504 0.931 . S
H521 C509 0.930 . S
H522 C510 0.956 . S
H523 C510 0.961 . S
H524 C510 0.961 . S
H525 C511 0.958 . S
H526 C511 0.961 . S
H527 C511 0.960 . S
C528 C529 1.391 . S
C528 C530 1.394 . S
C528 H544 0.931 . S
C529 C528 1.391 . S
C529 C533 1.376 1_545 S
C530 C528 1.394 . S
C530 C531 1.369 . S
C530 C534 1.531 . S
C531 C530 1.369 . S
C531 C532 1.410 1_545 S
C531 C539 1.503 . S
C532 C531 1.410 1_565 S
C532 C533 1.392 . S
C532 C535 1.511 1_554 S
C533 C529 1.376 1_565 S
C533 C532 1.392 . S
C533 H545 0.906 1_554 S
C534 C530 1.531 . S
C534 H546 0.960 . S
C534 H547 0.962 . S
C534 H548 0.960 . S
C535 C532 1.511 1_556 S
C535 H549 0.961 . S
C535 H550 0.961 . S
C535 H551 0.961 1_556 S
C536 C537 1.370 . S
C536 C538 1.363 . S
C536 H552 0.931 . S
C537 C536 1.370 . S
C537 C541 1.408 1_545 S
C538 C536 1.363 . S
C538 C539 1.370 . S
C538 C542 1.524 1_554 S
C539 C531 1.503 . S
C539 C538 1.370 . S
C539 C540 1.403 1_545 S
C540 C539 1.403 1_565 S
C540 C541 1.404 . S
C540 C543 1.539 . S
C541 C537 1.408 1_565 S
C541 C540 1.404 . S
C541 H553 0.930 . S
C542 C538 1.524 1_556 S
C542 H554 0.956 1_556 S
C542 H555 0.961 . S
C542 H556 0.961 . S
C543 C540 1.539 . S
C543 H557 0.958 . S
C543 H558 0.961 . S
C543 H559 0.960 . S
H544 C528 0.931 . S
H545 C533 0.906 1_556 S
H546 C534 0.960 . S
H547 C534 0.962 . S
H548 C534 0.960 . S
H549 C535 0.961 . S
H550 C535 0.961 . S
H551 C535 0.961 1_554 S
H552 C536 0.931 . S
H553 C541 0.930 . S
H554 C542 0.956 1_554 S
H555 C542 0.961 . S
H556 C542 0.961 . S
H557 C543 0.958 . S
H558 C543 0.961 . S
H559 C543 0.960 . S
C560 C561 1.391 . S
C560 C562 1.394 . S
C560 H576 0.931 . S
C561 C560 1.391 . S
C561 C565 1.376 . S
C562 C560 1.394 . S
C562 C563 1.369 . S
C562 C566 1.531 . S
C563 C562 1.369 . S
C563 C564 1.410 . S
C563 C571 1.503 . S
C564 C563 1.410 . S
C564 C565 1.392 . S
C564 C567 1.511 . S
C565 C561 1.376 . S
C565 C564 1.392 . S
C565 H577 0.929 . S
C566 C562 1.531 . S
C566 H578 0.960 . S
C566 H579 0.962 . S
C566 H580 0.960 . S
C567 C564 1.511 . S
C567 H581 0.961 . S
C567 H582 0.961 . S
C567 H583 0.961 . S
C568 C569 1.370 . S
C568 C570 1.363 . S
C568 H584 0.931 . S
C569 C568 1.370 . S
C569 C573 1.408 . S
C570 C568 1.363 . S
C570 C571 1.370 . S
C570 C574 1.524 . S
C571 C563 1.503 . S
C571 C570 1.370 . S
C571 C572 1.403 . S
C572 C571 1.403 . S
C572 C573 1.404 . S
C572 C575 1.539 . S
C573 C569 1.408 . S
C573 C572 1.404 . S
C573 H585 0.930 . S
C574 C570 1.524 . S
C574 H586 0.956 . S
C574 H587 0.961 . S
C574 H588 0.961 . S
C575 C572 1.539 . S
C575 H589 0.958 . S
C575 H590 0.961 . S
C575 H591 0.960 . S
H576 C560 0.931 . S
H577 C565 0.929 . S
H578 C566 0.960 . S
H579 C566 0.962 . S
H580 C566 0.960 . S
H581 C567 0.961 . S
H582 C567 0.961 . S
H583 C567 0.961 . S
H584 C568 0.931 . S
H585 C573 0.930 . S
H586 C574 0.956 . S
H587 C574 0.961 . S
H588 C574 0.961 . S
H589 C575 0.958 . S
H590 C575 0.961 . S
H591 C575 0.960 . S
C592 C593 1.391 . S
C592 C594 1.394 . S
C592 H608 0.931 . S
C593 C592 1.391 . S
C593 C597 1.376 . S
C594 C592 1.394 . S
C594 C595 1.369 . S
C594 C598 1.531 . S
C595 C594 1.369 . S
C595 C596 1.410 . S
C595 C603 1.503 . S
C596 C595 1.410 . S
C596 C597 1.392 . S
C596 C599 1.511 . S
C597 C593 1.376 . S
C597 C596 1.392 . S
C597 H609 0.929 . S
C598 C594 1.531 . S
C598 H610 0.960 . S
C598 H611 0.962 . S
C598 H612 0.960 . S
C599 C596 1.511 . S
C599 H613 0.961 1_455 S
C599 H614 0.961 1_455 S
C599 H615 0.961 . S
C600 C601 1.370 . S
C600 C602 1.363 . S
C600 H616 0.931 1_455 S
C601 C600 1.370 . S
C601 C605 1.408 . S
C602 C600 1.363 . S
C602 C603 1.370 . S
C602 C606 1.524 1_455 S
C603 C595 1.503 . S
C603 C602 1.370 . S
C603 C604 1.403 . S
C604 C603 1.403 . S
C604 C605 1.404 . S
C604 C607 1.539 . S
C605 C601 1.408 . S
C605 C604 1.404 . S
C605 H617 0.930 . S
C606 C602 1.524 1_655 S
C606 H618 0.956 . S
C606 H619 0.961 . S
C606 H620 0.961 . S
C607 C604 1.539 . S
C607 H621 0.958 . S
C607 H622 0.961 . S
C607 H623 0.960 . S
H608 C592 0.931 . S
H609 C597 0.929 . S
H610 C598 0.960 . S
H611 C598 0.962 . S
H612 C598 0.960 . S
H613 C599 0.961 1_655 S
H614 C599 0.961 1_655 S
H615 C599 0.961 . S
H616 C600 0.931 1_655 S
H617 C605 0.930 . S
H618 C606 0.956 . S
H619 C606 0.961 . S
H620 C606 0.961 . S
H621 C607 0.958 . S
H622 C607 0.961 . S
H623 C607 0.960 . S
C624 C625 1.391 . S
C624 C626 1.394 . S
C624 H640 0.931 . S
C625 C624 1.391 . S
C625 C629 1.376 . S
C626 C624 1.394 . S
C626 C627 1.369 . S
C626 C630 1.531 . S
C627 C626 1.369 . S
C627 C628 1.410 . S
C627 C635 1.503 . S
C628 C627 1.410 . S
C628 C629 1.392 . S
C628 C631 1.511 . S
C629 C625 1.376 . S
C629 C628 1.392 . S
C629 H641 0.929 . S
C630 C626 1.531 . S
C630 H642 0.960 . S
C630 H643 0.962 . S
C630 H644 0.960 . S
C631 C628 1.511 . S
C631 H645 0.961 . S
C631 H646 0.961 . S
C631 H647 0.961 . S
C632 C633 1.370 . S
C632 C634 1.363 . S
C632 H648 0.931 . S
C633 C632 1.370 . S
C633 C637 1.408 . S
C634 C632 1.363 . S
C634 C635 1.370 . S
C634 C638 1.524 . S
C635 C627 1.503 . S
C635 C634 1.370 . S
C635 C636 1.403 . S
C636 C635 1.403 . S
C636 C637 1.404 . S
C636 C639 1.539 . S
C637 C633 1.408 . S
C637 C636 1.404 . S
C637 H649 0.930 . S
C638 C634 1.524 . S
C638 H650 0.956 . S
C638 H651 0.961 . S
C638 H652 0.961 . S
C639 C636 1.539 . S
C639 H653 0.958 . S
C639 H654 0.961 . S
C639 H655 0.960 . S
H640 C624 0.931 . S
H641 C629 0.929 . S
H642 C630 0.960 . S
H643 C630 0.962 . S
H644 C630 0.960 . S
H645 C631 0.961 . S
H646 C631 0.961 . S
H647 C631 0.961 . S
H648 C632 0.931 . S
H649 C637 0.930 . S
H650 C638 0.956 . S
H651 C638 0.961 . S
H652 C638 0.961 . S
H653 C639 0.958 . S
H654 C639 0.961 . S
H655 C639 0.960 . S
C656 C657 1.391 . S
C656 C658 1.394 . S
C656 H672 0.931 . S
C657 C656 1.391 . S
C657 C661 1.376 . S
C658 C656 1.394 . S
C658 C659 1.369 . S
C658 C662 1.531 . S
C659 C658 1.369 . S
C659 C660 1.410 . S
C659 C667 1.503 . S
C660 C659 1.410 . S
C660 C661 1.392 . S
C660 C663 1.511 . S
C661 C657 1.376 . S
C661 C660 1.392 . S
C661 H673 0.929 . S
C662 C658 1.531 . S
C662 H674 0.960 . S
C662 H675 0.962 . S
C662 H676 0.960 . S
C663 C660 1.511 . S
C663 H677 0.961 . S
C663 H678 0.961 . S
C663 H679 0.961 . S
C664 C665 1.370 . S
C664 C666 1.363 . S
C664 H680 0.931 . S
C665 C664 1.370 . S
C665 C669 1.408 . S
C666 C664 1.363 . S
C666 C667 1.370 . S
C666 C670 1.524 . S
C667 C659 1.503 . S
C667 C666 1.370 . S
C667 C668 1.403 . S
C668 C667 1.403 . S
C668 C669 1.404 . S
C668 C671 1.539 . S
C669 C665 1.408 . S
C669 C668 1.404 . S
C669 H681 0.930 . S
C670 C666 1.524 . S
C670 H682 0.956 . S
C670 H683 0.961 . S
C670 H684 0.961 . S
C671 C668 1.539 . S
C671 H685 0.958 . S
C671 H686 0.961 . S
C671 H687 0.960 . S
H672 C656 0.931 . S
H673 C661 0.929 . S
H674 C662 0.960 . S
H675 C662 0.962 . S
H676 C662 0.960 . S
H677 C663 0.961 . S
H678 C663 0.961 . S
H679 C663 0.961 . S
H680 C664 0.931 . S
H681 C669 0.930 . S
H682 C670 0.956 . S
H683 C670 0.961 . S
H684 C670 0.961 . S
H685 C671 0.958 . S
H686 C671 0.961 . S
H687 C671 0.960 . S
C688 C689 1.391 . S
C688 C690 1.394 . S
C688 H704 0.931 1_655 S
C689 C688 1.391 . S
C689 C693 1.376 . S
C690 C688 1.394 . S
C690 C691 1.369 . S
C690 C694 1.531 . S
C691 C690 1.369 . S
C691 C692 1.410 . S
C691 C699 1.503 . S
C692 C691 1.410 . S
C692 C693 1.392 . S
C692 C695 1.511 . S
C693 C689 1.376 . S
C693 C692 1.392 . S
C693 H705 0.929 . S
C694 C690 1.531 . S
C694 H706 0.960 . S
C694 H707 0.962 1_655 S
C694 H708 0.960 1_655 S
C695 C692 1.511 . S
C695 H709 0.961 . S
C695 H710 0.961 . S
C695 H711 0.961 . S
C696 C697 1.370 . S
C696 C698 1.363 . S
C696 H712 0.931 . S
C697 C696 1.370 . S
C697 C701 1.408 . S
C698 C696 1.363 . S
C698 C699 1.370 . S
C698 C702 1.524 . S
C699 C691 1.503 . S
C699 C698 1.370 . S
C699 C700 1.403 . S
C700 C699 1.403 . S
C700 C701 1.404 . S
C700 C703 1.539 . S
C701 C697 1.408 . S
C701 C700 1.404 . S
C701 H713 0.930 . S
C702 C698 1.524 . S
C702 H714 0.956 . S
C702 H715 0.961 . S
C702 H716 0.961 . S
C703 C700 1.539 . S
C703 H717 0.958 . S
C703 H718 0.961 . S
C703 H719 0.960 . S
H704 C688 0.931 1_455 S
H705 C693 0.929 . S
H706 C694 0.960 . S
H707 C694 0.962 1_455 S
H708 C694 0.960 1_455 S
H709 C695 0.961 . S
H710 C695 0.961 . S
H711 C695 0.961 . S
H712 C696 0.931 . S
H713 C701 0.930 . S
H714 C702 0.956 . S
H715 C702 0.961 . S
H716 C702 0.961 . S
H717 C703 0.958 . S
H718 C703 0.961 . S
H719 C703 0.960 . S
C720 C721 1.391 . S
C720 C722 1.394 . S
C720 H736 0.931 1_565 S
C721 C720 1.391 . S
C721 C725 1.376 . S
C722 C720 1.394 . S
C722 C723 1.369 . S
C722 C726 1.531 1_565 S
C723 C722 1.369 . S
C723 C724 1.410 . S
C723 C731 1.503 . S
C724 C723 1.410 . S
C724 C725 1.392 . S
C724 C727 1.511 . S
C725 C721 1.376 . S
C725 C724 1.392 . S
C725 H737 0.929 . S
C726 C722 1.531 1_545 S
C726 H738 0.960 . S
C726 H739 0.962 . S
C726 H740 0.960 . S
C727 C724 1.511 . S
C727 H741 0.961 . S
C727 H742 0.961 . S
C727 H743 0.961 . S
C728 C729 1.370 . S
C728 C730 1.363 . S
C728 H744 0.931 . S
C729 C728 1.370 . S
C729 C733 1.408 . S
C730 C728 1.363 . S
C730 C731 1.370 . S
C730 C734 1.524 . S
C731 C723 1.503 . S
C731 C730 1.370 . S
C731 C732 1.403 . S
C732 C731 1.403 . S
C732 C733 1.404 . S
C732 C735 1.539 . S
C733 C729 1.408 . S
C733 C732 1.404 . S
C733 H745 0.930 . S
C734 C730 1.524 . S
C734 H746 0.956 . S
C734 H747 0.961 . S
C734 H748 0.961 . S
C735 C732 1.539 . S
C735 H749 0.958 . S
C735 H750 0.961 . S
C735 H751 0.960 . S
H736 C720 0.931 1_545 S
H737 C725 0.929 . S
H738 C726 0.960 . S
H739 C726 0.962 . S
H740 C726 0.960 . S
H741 C727 0.961 . S
H742 C727 0.961 . S
H743 C727 0.961 . S
H744 C728 0.931 . S
H745 C733 0.930 . S
H746 C734 0.956 . S
H747 C734 0.961 . S
H748 C734 0.961 . S
H749 C735 0.958 . S
H750 C735 0.961 . S
H751 C735 0.960 . S
C752 C753 1.391 . S
C752 C754 1.394 . S
C752 H768 0.931 . S
C753 C752 1.391 . S
C753 C757 1.376 . S
C754 C752 1.394 . S
C754 C755 1.369 . S
C754 C758 1.531 . S
C755 C754 1.369 . S
C755 C756 1.410 . S
C755 C763 1.503 . S
C756 C755 1.410 . S
C756 C757 1.392 . S
C756 C759 1.511 . S
C757 C753 1.376 . S
C757 C756 1.392 . S
C757 H769 0.929 . S
C758 C754 1.531 . S
C758 H770 0.960 . S
C758 H771 0.964 . S
C758 H772 0.960 . S
C759 C756 1.511 . S
C759 H773 0.961 . S
C759 H774 0.961 . S
C759 H775 0.961 . S
C760 C761 1.370 . S
C760 C762 1.363 . S
C760 H776 0.931 . S
C761 C760 1.370 . S
C761 C765 1.408 . S
C762 C760 1.363 . S
C762 C763 1.370 . S
C762 C766 1.524 . S
C763 C755 1.503 . S
C763 C762 1.370 . S
C763 C764 1.403 . S
C764 C763 1.403 . S
C764 C765 1.404 . S
C764 C767 1.539 . S
C765 C761 1.408 . S
C765 C764 1.404 . S
C765 H777 0.930 . S
C766 C762 1.524 . S
C766 H778 0.956 . S
C766 H779 0.961 . S
C766 H780 0.961 . S
C767 C764 1.539 . S
C767 H781 0.958 . S
C767 H782 0.961 . S
C767 H783 0.960 . S
H768 C752 0.931 . S
H769 C757 0.929 . S
H770 C758 0.960 . S
H771 C758 0.964 . S
H772 C758 0.960 . S
H773 C759 0.961 . S
H774 C759 0.961 . S
H775 C759 0.961 . S
H776 C760 0.931 . S
H777 C765 0.930 . S
H778 C766 0.956 . S
H779 C766 0.961 . S
H780 C766 0.961 . S
H781 C767 0.958 . S
H782 C767 0.961 . S
H783 C767 0.960 . S
C784 C785 1.391 . S
C784 C786 1.394 . S
C784 H800 0.931 . S
C785 C784 1.391 . S
C785 C789 1.376 . S
C786 C784 1.394 . S
C786 C787 1.369 . S
C786 C790 1.531 . S
C787 C786 1.369 . S
C787 C788 1.410 . S
C787 C795 1.503 . S
C788 C787 1.410 . S
C788 C789 1.392 . S
C788 C791 1.511 . S
C789 C785 1.376 . S
C789 C788 1.392 . S
C789 H801 0.929 . S
C790 C786 1.531 . S
C790 H802 0.960 . S
C790 H803 0.962 . S
C790 H804 0.960 . S
C791 C788 1.511 . S
C791 H805 0.961 . S
C791 H806 0.961 . S
C791 H807 0.961 . S
C792 C793 1.370 . S
C792 C794 1.363 . S
C792 H808 0.931 . S
C793 C792 1.370 . S
C793 C797 1.408 . S
C794 C792 1.363 . S
C794 C795 1.370 . S
C794 C798 1.524 . S
C795 C787 1.503 . S
C795 C794 1.370 . S
C795 C796 1.403 . S
C796 C795 1.403 . S
C796 C797 1.404 . S
C796 C799 1.539 . S
C797 C793 1.408 . S
C797 C796 1.404 . S
C797 H809 0.930 . S
C798 C794 1.524 . S
C798 H810 0.956 . S
C798 H811 0.961 1_565 S
C798 H812 0.961 1_565 S
C799 C796 1.539 . S
C799 H813 0.958 . S
C799 H814 0.961 . S
C799 H815 0.960 . S
H800 C784 0.931 . S
H801 C789 0.929 . S
H802 C790 0.960 . S
H803 C790 0.962 . S
H804 C790 0.960 . S
H805 C791 0.961 . S
H806 C791 0.961 . S
H807 C791 0.961 . S
H808 C792 0.931 . S
H809 C797 0.930 . S
H810 C798 0.956 . S
H811 C798 0.961 1_545 S
H812 C798 0.961 1_545 S
H813 C799 0.958 . S
H814 C799 0.961 . S
H815 C799 0.960 . S
C241 C143 0.554 . S
C249 C23 0.423 . S
C273 C183 0.452 . S
C281 C63 0.413 . S
C305 C223 0.473 . S
C313 C103 0.411 . S
C337 C25 0.670 . S
C345 C84 0.739 . S
C369 C44 0.797 . S
C377 C145 0.665 . S
C401 C105 0.717 . S
C409 C164 0.653 . S
C433 C124 0.662 . S
C441 C225 0.655 . S
C465 C185 0.773 . S
C473 C4 0.699 . S
C497 C204 0.584 . S
C505 C65 0.707 . S
C529 C2 0.387 . S
C537 C122 0.486 . S
C561 C42 0.430 . S
C569 C162 0.511 . S
C593 C82 0.480 . S
C601 C202 0.444 . S
C625 C20 4.150 . S
C633 C60 4.152 . S
C657 C71 3.889 . S
C665 C111 3.886 . S
C689 C100 4.147 . S
C697 C140 4.153 . S
C721 C151 3.882 . S
C729 C191 3.889 . S
C753 C180 4.142 . S
C761 C220 4.152 . S
C785 C231 3.884 . S
C793 C31 3.889 . S
