# Generated by pormake.
# Topology kag, (6)-cn, num edge types: 1
# Building blocks:
#     Node 0, Type 0, BuildingBlock: KUMJIN_clean_sbu_1, # of connection points: 6
#     Node 1, Type 0, BuildingBlock: KUMJIN_clean_sbu_1, # of connection points: 6
#     Node 2, Type 0, BuildingBlock: KUMJIN_clean_sbu_1, # of connection points: 6
#     Edge 3, Type (0, 0), BuildingBlock: XIVTED_clean_linker_0, # of connection points: 2
#     Edge 4, Type (0, 0), BuildingBlock: XIVTED_clean_linker_0, # of connection points: 2
#     Edge 5, Type (0, 0), BuildingBlock: XIVTED_clean_linker_0, # of connection points: 2
#     Edge 6, Type (0, 0), BuildingBlock: XIVTED_clean_linker_0, # of connection points: 2
#     Edge 7, Type (0, 0), BuildingBlock: XIVTED_clean_linker_0, # of connection points: 2
#     Edge 8, Type (0, 0), BuildingBlock: XIVTED_clean_linker_0, # of connection points: 2
#     Edge 9, Type (0, 0), BuildingBlock: XIVTED_clean_linker_0, # of connection points: 2
#     Edge 10, Type (0, 0), BuildingBlock: XIVTED_clean_linker_0, # of connection points: 2
#     Edge 11, Type (0, 0), BuildingBlock: XIVTED_clean_linker_0, # of connection points: 2
# Relax obj value: 0.096
# Max RMSD: 0.184
# Mean RMSD: 0.126
data_MOF--net-kag--node1-KUMJIN_clean_sbu_1--edge1-XIVTED_clean_linker_0
_symmetry_space_group_name_H-M    P1
_symmetry_Int_Tables_number       1
_symmetry_cell_setting            triclinic
loop_
_symmetry_equiv_pos_as_xyz
'x, y, z'
_cell_length_a     30.959541
_cell_length_b     40.600212
_cell_length_c     15.083391
_cell_angle_alpha  108.34901
_cell_angle_beta   96.890243
_cell_angle_gamma 99.111517
loop_
_atom_site_label
_atom_site_type_symbol
_atom_site_fract_x
_atom_site_fract_y
_atom_site_fract_z
_atom_type_partial_charge
Eu0 Eu 0.05666 0.55459 0.05965 0.0
C1 C 0.10617 0.41607 0.83624 0.0
N2 N 0.07094 0.43048 0.81654 0.0
C3 C 0.08219 0.41787 0.65555 0.0
C4 C 0.13197 0.40336 0.76681 0.0
C5 C 0.05711 0.42937 0.72612 0.0
C6 C 0.12027 0.40538 0.67643 0.0
C7 C 0.14976 0.39557 0.94542 0.0
C8 C 0.11512 0.41223 0.92456 0.0
C9 C 0.17634 0.38395 0.87748 0.0
C10 C 0.16759 0.38797 0.78858 0.0
Eu11 Eu 1.03142 0.44964 0.94217 0.0
N12 N 0.08995 0.4249 0.99039 0.0
C13 C 0.15669 0.39122 0.03422 0.0
C14 C 0.0955 0.41974 0.0758 0.0
C15 C 0.12923 0.40314 0.09939 0.0
H16 H 1.02587 0.43602 0.70704 0.0
H17 H 0.13396 0.39946 0.16765 0.0
H18 H 1.02454 0.56834 0.26859 0.0
H19 H 1.00802 0.60916 0.78193 0.0
H20 H 0.07388 0.4285 0.12562 0.0
H21 H 0.18293 0.37852 0.0529 0.0
H22 H 0.05704 0.58398 0.87167 0.0
H23 H 0.07149 0.41782 0.58448 0.0
H24 H 0.20346 0.37149 0.89264 0.0
H25 H 0.18793 0.37832 0.73632 0.0
H26 H 0.96557 0.5925 0.35017 0.0
H27 H 0.13926 0.39596 0.6212 0.0
H28 H 0.94026 0.62584 0.83896 0.0
N29 N 1.0015 0.57699 0.14119 0.0
C30 C 0.97315 0.59147 0.09639 0.0
C31 C 0.9671 0.59209 0.27854 0.0
C32 C 0.93889 0.60527 0.13953 0.0
C33 C 1.00027 0.57838 0.23241 0.0
C34 C 0.93583 0.60509 0.23133 0.0
N35 N 1.01477 0.58206 0.97222 0.0
C36 C 1.02638 0.58923 0.89463 0.0
C37 C 0.95138 0.6093 0.96151 0.0
C38 C 0.97946 0.59342 0.00852 0.0
C39 C 0.96099 0.61377 0.8772 0.0
C40 C 0.99915 0.6043 0.84464 0.0
H41 H 0.91004 0.61555 0.26701 0.0
H42 H 0.88262 0.62978 0.12214 0.0
H43 H 0.89355 0.63332 0.96622 0.0
O44 O 0.08881 0.61004 0.09324 0.0
O45 O 0.98791 0.52315 0.06141 0.0
O46 O 0.97256 0.47624 0.92198 0.0
O47 O 0.10637 0.58218 0.1883 0.0
O48 O 0.06572 0.53143 0.90686 0.0
O49 O 1.01186 0.48029 0.8465 0.0
O50 O 0.99002 0.41091 0.98562 0.0
O51 O 0.10349 0.47959 0.01575 0.0
O52 O 0.11059 0.53154 0.98473 0.0
O53 O 0.99909 0.39765 0.83958 0.0
O54 O 1.02093 0.47055 0.09429 0.0
O55 O 0.07326 0.52267 0.15297 0.0
C56 C 0.95885 0.49937 0.98997 0.0
C57 C 0.1639 0.62363 0.16747 0.0
C58 C 0.22074 0.66747 0.1438 0.0
C59 C 0.25267 0.64752 0.1566 0.0
C60 C 0.19629 0.60404 0.18047 0.0
C61 C 0.24044 0.61609 0.17536 0.0
C62 C 0.17653 0.65545 0.15029 0.0
C63 C 1.03712 0.50744 0.83572 0.0
C64 C 0.11649 0.61058 0.16604 0.0
C65 C 0.90954 0.61947 0.09076 0.0
C66 C 0.91572 0.62141 0.00185 0.0
C67 C 0.12849 0.50613 0.0006 0.0
C68 C 0.93139 0.37145 0.86883 0.0
C69 C 0.87035 0.32382 0.85778 0.0
C70 C 0.84045 0.34051 0.81904 0.0
C71 C 0.90153 0.38772 0.82878 0.0
C72 C 0.91579 0.33954 0.88244 0.0
C73 C 0.85614 0.37225 0.80405 0.0
C74 C 0.04631 0.49687 0.16573 0.0
C75 C 0.97872 0.38767 0.90023 0.0
H76 H 0.28703 0.65625 0.15229 0.0
H77 H 0.1875 0.57921 0.19309 0.0
H78 H 0.26516 0.60078 0.18478 0.0
H79 H 0.15142 0.67018 0.13839 0.0
H80 H 0.80518 0.32893 0.79998 0.0
H81 H 0.91332 0.41232 0.81723 0.0
H82 H 0.93902 0.3274 0.91477 0.0
H83 H 0.83308 0.38496 0.77377 0.0
Eu84 Eu 0.47248 0.98203 0.95713 0.0
C85 C 0.66555 0.96481 0.07676 0.0
N86 N 0.64349 0.98818 0.12877 0.0
C87 C 0.66735 0.97439 0.26746 0.0
C88 C 0.68906 0.94479 0.11863 0.0
C89 C 0.64445 0.99361 0.22296 0.0
C90 C 0.68963 0.94977 0.21502 0.0
C91 C 0.6873 0.93682 0.92622 0.0
C92 C 0.664 0.96056 0.98103 0.0
C93 C 0.71027 0.91653 0.96745 0.0
C94 C 0.71109 0.92046 0.06328 0.0
Eu95 Eu 0.60511 0.01895 0.04818 0.0
N96 N 0.64121 0.98041 0.94248 0.0
C97 C 0.68789 0.93483 0.83215 0.0
C98 C 0.64513 0.98069 0.85341 0.0
C99 C 0.66741 0.95734 0.79624 0.0
H100 H 0.62782 0.013 0.26371 0.0
H101 H 0.66959 0.95728 0.7251 0.0
H102 H 0.44702 0.97212 0.72751 0.0
H103 H 0.41382 0.06459 0.26429 0.0
H104 H 0.6327 -0.00042 0.82634 0.0
H105 H 0.70548 0.917 0.78787 0.0
H106 H 0.45232 0.01918 0.18167 0.0
H107 H 0.6679 0.97863 0.34215 0.0
H108 H 0.72807 0.89805 0.9261 0.0
H109 H 0.7292 0.90477 0.09414 0.0
H110 H 0.40471 0.99817 0.62672 0.0
H111 H 0.70731 0.93487 0.24968 0.0
H112 H 0.37174 0.09454 0.17495 0.0
N113 N 0.43158 0.00421 0.85551 0.0
C114 C 0.4088 0.02911 0.89722 0.0
C115 C 0.40576 0.00723 0.7027 0.0
C116 C 0.38371 0.04435 0.84244 0.0
C117 C 0.43011 0.99284 0.75982 0.0
C118 C 0.38253 0.03317 0.74419 0.0
N119 N 0.4363 0.02506 0.04683 0.0
C120 C 0.43615 0.03288 0.14169 0.0
C121 C 0.38764 0.06553 0.04001 0.0
C122 C 0.41119 0.0398 -0.00467 0.0
C123 C 0.38945 0.07496 0.1381 0.0
C124 C 0.41338 0.05826 0.18887 0.0
H125 H 0.36365 0.04428 0.69974 0.0
H126 H 0.34137 0.08227 0.84623 0.0
H127 H 0.34454 0.10062 0.01889 0.0
O128 O 0.43263 0.94316 0.00227 0.0
O129 O 0.49972 0.03874 0.96381 0.0
O130 O 0.55638 0.05484 0.08951 0.0
O131 O 0.41633 0.9429 0.85839 0.0
O132 O 0.50152 0.98374 0.10526 0.0
O133 O 0.56324 0.02989 0.16274 0.0
O134 O 0.64709 0.06177 0.02126 0.0
O135 O 0.57639 0.96303 0.04507 0.0
O136 O 0.52136 0.94628 0.91622 0.0
O137 O 0.66113 0.05414 0.1565 0.0
O138 O 0.57461 0.01913 0.9031 0.0
O139 O 0.51587 0.97087 0.8452 0.0
C140 C 0.53078 0.06332 0.02809 0.0
C141 C 0.358 0.92136 0.92697 0.0
C142 C 0.29708 0.88169 0.95323 0.0
C143 C 0.26908 0.90528 0.94709 0.0
C144 C 0.32988 0.94473 0.9206 0.0
C145 C 0.28547 0.93657 0.93042 0.0
C146 C 0.34151 0.89008 0.94306 0.0
C147 C 0.53241 0.0063 0.17527 0.0
C148 C 0.40519 0.92908 0.9214 0.0
C149 C 0.36079 0.07026 0.88717 0.0
C150 C 0.36268 0.08076 0.98557 0.0
C151 C 0.54656 0.9381 0.9789 0.0
C152 C 0.72157 0.07844 0.09755 0.0
C153 C 0.78315 0.11606 0.06657 0.0
C154 C 0.8109 0.09295 0.07874 0.0
C155 C 0.74942 0.05549 0.10967 0.0
C156 C 0.73853 0.10843 0.07615 0.0
C157 C 0.79404 0.06289 0.10051 0.0
C158 C 0.54518 0.99542 0.83246 0.0
C159 C 0.67415 0.07153 0.1021 0.0
H160 H 0.23462 0.89945 0.95457 0.0
H161 H 0.34224 0.9692 0.90882 0.0
H162 H 0.26377 0.95462 0.92564 0.0
H163 H 0.36387 0.87263 0.95016 0.0
H164 H 0.84553 0.09821 0.07198 0.0
H165 H 0.73673 0.03191 0.12534 0.0
H166 H 0.71632 0.1254 0.06431 0.0
H167 H 0.81554 0.04519 0.10978 0.0
Eu168 Eu 0.52543 0.4462 0.95053 0.0
C169 C 0.65626 0.59399 0.16464 0.0
N170 N 0.61402 0.58358 0.17705 0.0
C171 C 0.63621 0.61147 0.34565 0.0
C172 C 0.69043 0.61301 0.24343 0.0
C173 C 0.60336 0.59271 0.26556 0.0
C174 C 0.67996 0.62148 0.33464 0.0
C175 C 0.70916 0.59554 0.05822 0.0
C176 C 0.66558 0.58542 0.07277 0.0
C177 C 0.74319 0.61433 0.13673 0.0
C178 C 0.73386 0.62304 0.22895 0.0
Eu179 Eu 0.56158 0.55285 0.03642 0.0
N180 N 0.63239 0.56597 -0.00211 0.0
C181 C 0.71734 0.58615 0.9651 0.0
C182 C 0.63973 0.55806 0.90694 0.0
C183 C 0.6824 0.56757 0.88916 0.0
H184 H 0.56939 0.58628 0.27467 0.0
H185 H 0.68827 0.56075 0.8169 0.0
H186 H 0.52215 0.41221 0.7137 0.0
H187 H 0.39653 0.43069 0.15983 0.0
H188 H 0.61276 0.54461 0.84812 0.0
H189 H 0.7504 0.59334 0.95106 0.0
H190 H 0.47141 0.45218 0.1334 0.0
H191 H 0.62767 0.61849 0.41579 0.0
H192 H 0.7769 0.62219 0.12688 0.0
H193 H 0.76051 0.63758 0.28873 0.0
H194 H 0.467 0.37668 0.56971 0.0
H195 H 0.70529 0.63609 0.39691 0.0
H196 H 0.33761 0.39383 0.02283 0.0
N197 N 0.4758 0.41288 0.80721 0.0
C198 C 0.43385 0.40006 0.81668 0.0
C199 C 0.45714 0.38338 0.6386 0.0
C200 C 0.4016 0.37874 0.73633 0.0
C201 C 0.48813 0.40411 0.72025 0.0
C202 C 0.41362 0.37081 0.64656 0.0
N203 N 0.45428 0.42963 0.98333 0.0
C204 C 0.44569 0.43691 0.07332 0.0
C205 C 0.37999 0.39472 0.91895 0.0
C206 C 0.42308 0.40796 0.90714 0.0
C207 C 0.37035 0.40341 0.01089 0.0
C208 C 0.40344 0.4244 0.0884 0.0
H209 H 0.38978 0.35454 0.58316 0.0
H210 H 0.33342 0.34938 0.68696 0.0
H211 H 0.31452 0.3634 0.84661 0.0
O212 O 0.54207 0.41508 0.04002 0.0
O213 O 0.46768 0.47642 0.94887 0.0
O214 O 0.48943 0.5352 0.04962 0.0
O215 O 0.53289 0.39131 0.88771 0.0
O216 O 0.55735 0.47971 0.10274 0.0
O217 O 0.53283 0.53189 0.144 0.0
O218 O 0.55196 0.58754 0.95359 0.0
O219 O 0.61641 0.52048 0.04684 0.0
O220 O 0.5957 0.46546 0.92868 0.0
O221 O 0.55413 0.60741 0.10487 0.0
O222 O 0.52714 0.52032 0.88508 0.0
O223 O 0.55197 0.46826 0.84265 0.0
C224 C 0.45832 0.50712 -0.00247 0.0
C225 C 0.57561 0.36579 0.97955 0.0
C226 C 0.59504 0.31152 -0.00228 0.0
C227 C 0.63995 0.32602 0.00126 0.0
C228 C 0.62051 0.37951 0.98356 0.0
C229 C 0.65244 0.35963 -0.0058 0.0
C230 C 0.56294 0.33178 0.9863 0.0
C231 C 0.5421 0.50413 0.16339 0.0
C232 C 0.54151 0.38655 0.96885 0.0
C233 C 0.35859 0.36574 0.74795 0.0
C234 C 0.34785 0.37366 0.83892 0.0
C235 C 0.62667 0.49219 0.98763 0.0
C236 C 0.51428 0.63409 0.01177 0.0
C237 C 0.49267 0.68748 0.99233 0.0
C238 C 0.44778 0.67088 0.98048 0.0
C239 C 0.46935 0.61823 -0.001 0.0
C240 C 0.52589 0.66875 0.00872 0.0
C241 C 0.43635 0.63663 0.98386 0.0
C242 C 0.54058 0.49529 0.82253 0.0
C243 C 0.54924 0.61447 0.02622 0.0
H244 H 0.66553 0.31118 0.00824 0.0
H245 H 0.63081 0.40553 0.97841 0.0
H246 H 0.68709 0.3703 -0.00316 0.0
H247 H 0.52819 0.32142 0.98413 0.0
H248 H 0.42134 0.68452 0.96954 0.0
H249 H 0.45985 0.59159 0.00043 0.0
H250 H 0.56067 0.68077 0.01727 0.0
H251 H 0.40169 0.62427 0.97455 0.0
H252 H 0.10379 0.54066 0.77126 0.0
H253 H 0.9841 0.45731 0.2269 0.0
H254 H 0.97046 0.47709 0.68002 0.0
H255 H 0.10374 0.53917 0.32853 0.0
H256 H 0.98023 0.46147 0.39109 0.0
H257 H 0.1055 0.53872 0.60836 0.0
C258 C 0.07467 0.52659 0.71704 0.0
C259 C 1.037 0.50883 0.73898 0.0
C260 C 1.00729 0.47852 0.37732 0.0
C261 C 1.03898 0.50604 0.55204 0.0
C262 C 1.00968 0.476 0.28361 0.0
C263 C 0.04435 0.49788 0.26393 0.0
C264 C 1.04 0.50286 0.45173 0.0
C265 C 0.07639 0.5218 0.34031 0.0
C266 C 0.07575 0.52535 0.62394 0.0
C267 C 1.00031 0.49087 0.66582 0.0
N268 N 0.07349 0.52358 0.43073 0.0
N269 N 1.00234 0.48967 0.57536 0.0
H270 H 0.49054 0.95235 0.22621 0.0
H271 H 0.57997 0.05186 0.78316 0.0
H272 H 0.57407 0.05727 0.34463 0.0
H273 H 0.50939 0.94272 0.66215 0.0
H274 H 0.57618 0.05504 0.62349 0.0
H275 H 0.49383 0.94942 0.3861 0.0
C276 C 0.50932 0.97489 0.28593 0.0
C277 C 0.53217 0.00508 0.27208 0.0
C278 C 0.56156 0.03037 0.63177 0.0
C279 C 0.53632 0.0018 0.45522 0.0
C280 C 0.56387 0.02849 0.72289 0.0
C281 C 0.5447 0.99703 0.73589 0.0
C282 C 0.53992 0.00056 0.55297 0.0
C283 C 0.52416 0.96762 0.65532 0.0
C284 C 0.51139 0.97311 0.37715 0.0
C285 C 0.55616 0.0334 0.35201 0.0
N286 N 0.52215 0.97014 0.56727 0.0
N287 N 0.55765 0.03105 0.44015 0.0
H288 H 0.50342 0.53899 0.74416 0.0
H289 H 0.57649 0.45923 0.2411 0.0
H290 H 0.57694 0.45509 0.67915 0.0
H291 H 0.50686 0.54558 0.30726 0.0
H292 H 0.57572 0.45683 0.40026 0.0
H293 H 0.50351 0.54143 0.58447 0.0
C294 C 0.51943 0.52093 0.69624 0.0
C295 C 0.53975 0.49646 0.72499 0.0
C296 C 0.5607 0.47639 0.38024 0.0
C297 C 0.54009 0.49927 0.54163 0.0
C298 C 0.56108 0.4778 0.28909 0.0
C299 C 0.54201 0.50288 0.26069 0.0
C300 C 0.54095 0.50014 0.44393 0.0
C301 C 0.52244 0.5261 0.32629 0.0
C302 C 0.51946 0.52238 0.60494 0.0
C303 C 0.56017 0.47393 0.65974 0.0
N304 N 0.52243 0.52417 0.4148 0.0
N305 N 0.55978 0.47587 0.57124 0.0
H306 H 0.18146 0.46576 0.06114 0.0
H307 H 0.42216 0.56102 0.10788 0.0
H308 H 0.1902 0.55256 0.9536 0.0
H309 H 0.38255 0.45951 0.88345 0.0
H310 H 0.34293 0.56281 0.10895 0.0
H311 H 0.26038 0.46598 0.05439 0.0
C312 C 0.19949 0.48438 0.03421 0.0
C313 C 0.17792 0.50795 0.00363 0.0
C314 C 0.35185 0.54005 0.06016 0.0
C315 C 0.27006 0.51031 0.00328 0.0
C316 C 0.39714 0.53892 0.05924 0.0
C317 C 0.40987 0.50945 -0.00271 0.0
C318 C 0.31861 0.5112 0.00031 0.0
C319 C 0.37512 0.48196 0.93569 0.0
C320 C 0.24489 0.48488 0.03202 0.0
C321 C 0.2047 0.5333 0.97622 0.0
N322 N 0.33146 0.4832 0.93987 0.0
N323 N 0.2492 0.53395 0.97723 0.0
H324 H 0.76521 0.18228 0.13503 0.0
H325 H 0.90364 0.2635 0.81299 0.0
H326 H 0.83733 0.12137 0.93808 0.0
H327 H 0.80258 0.31018 0.94979 0.0
H328 H 0.88378 0.21252 0.86455 0.0
H329 H 0.78414 0.23158 0.07776 0.0
C330 C 0.78513 0.1793 0.07977 0.0
C331 C 0.79931 0.14749 0.0405 0.0
C332 C 0.8657 0.23376 0.88255 0.0
C333 C 0.82137 0.20402 0.97514 0.0
C334 C 0.87698 0.26278 0.8532 0.0
C335 C 0.85473 0.29101 0.87756 0.0
C336 C 0.83234 0.23324 0.93763 0.0
C337 C 0.82029 0.28881 0.92911 0.0
C338 C 0.79586 0.20746 0.04706 0.0
C339 C 0.82592 0.14546 0.9707 0.0
N340 N 0.81041 0.26054 0.95829 0.0
N341 N 0.83601 0.17335 0.93995 0.0
H342 H 0.48698 0.87956 0.85445 0.0
H343 H 0.56058 0.74359 0.10309 0.0
H344 H 0.59175 0.91095 0.09905 0.0
H345 H 0.4508 0.71515 0.8696 0.0
H346 H 0.57569 0.80402 0.09748 0.0
H347 H 0.47597 0.81863 0.85468 0.0
C348 C 0.50793 0.87368 0.90793 0.0
C349 C 0.54057 0.90061 0.97651 0.0
C350 C 0.54834 0.78452 0.04737 0.0
C351 C 0.52797 0.83044 0.97736 0.0
C352 C 0.53986 0.74988 0.05012 0.0
C353 C 0.50412 0.72407 0.98718 0.0
C354 C 0.52108 0.79355 0.98083 0.0
C355 C 0.47823 0.73413 0.92075 0.0
C356 C 0.50155 0.83877 0.90811 0.0
C357 C 0.56643 0.89116 0.04428 0.0
N358 N 0.48715 0.7679 0.91949 0.0
N359 N 0.55958 0.85698 0.04301 0.0
H360 H 0.91676 0.52678 0.13929 0.0
H361 H 0.66564 0.45356 0.844 0.0
H362 H 0.88742 0.46721 0.83976 0.0
H363 H 0.69946 0.52867 0.12932 0.0
H364 H 0.74535 0.45476 0.84272 0.0
H365 H 0.83737 0.52524 0.13815 0.0
C366 C 0.8938 0.51362 0.07286 0.0
C367 C 0.90958 0.49754 0.98938 0.0
C368 C 0.73537 0.47102 0.90564 0.0
C369 C 0.81695 0.4945 0.98794 0.0
C370 C 0.68966 0.4702 0.90664 0.0
C371 C 0.67527 0.49121 0.9867 0.0
C372 C 0.76748 0.49271 0.98573 0.0
C373 C 0.70851 0.51228 0.06539 0.0
C374 C 0.8481 0.51246 0.07242 0.0
C375 C 0.8773 0.47983 0.90627 0.0
N376 N 0.75259 0.51245 0.0629 0.0
N377 N 0.83287 0.47875 0.90771 0.0
H378 H 0.19521 0.73086 0.21415 0.0
H379 H 0.31307 0.81566 0.86974 0.0
H380 H 0.27253 0.67757 0.01604 0.0
H381 H 0.2458 0.87316 0.08385 0.0
H382 H 0.29463 0.76364 0.91667 0.0
H383 H 0.2106 0.78245 0.16354 0.0
C384 C 0.21549 0.73006 0.16006 0.0
C385 C 0.23259 0.69988 0.1191 0.0
C386 C 0.28371 0.78755 0.95323 0.0
C387 C 0.25026 0.75875 0.06081 0.0
C388 C 0.29422 0.81726 0.92647 0.0
C389 C 0.28127 0.84888 0.97358 0.0
C390 C 0.25997 0.78936 0.02765 0.0
C391 C 0.25622 0.84927 0.04534 0.0
C392 C 0.2243 0.75952 0.13132 0.0
C393 C 0.25909 0.70042 0.05021 0.0
N394 N 0.2466 0.81999 0.07064 0.0
N395 N 0.26696 0.72934 0.02297 0.0
H396 H 0.52199 0.25786 0.89984 0.0
H397 H 0.59588 0.12018 0.14191 0.0
H398 H 0.63907 0.28255 0.11446 0.0
H399 H 0.48274 0.0919 0.91571 0.0
H400 H 0.60957 0.18057 0.13779 0.0
H401 H 0.50428 0.19825 0.91028 0.0
C402 C 0.54382 0.25095 0.94973 0.0
C403 C 0.58231 0.27547 0.0059 0.0
C404 C 0.5816 0.16125 0.08925 0.0
C405 C 0.5623 0.20685 0.0177 0.0
C406 C 0.57366 0.12666 0.09173 0.0
C407 C 0.538 0.1007 0.0292 0.0
C408 C 0.55371 0.17031 0.02385 0.0
C409 C 0.51059 0.1109 0.96546 0.0
C410 C 0.5338 0.21675 0.9552 0.0
C411 C 0.60947 0.26457 0.06844 0.0
N412 N 0.51903 0.14479 0.96437 0.0
N413 N 0.599 0.23126 0.07248 0.0
loop_
_geom_bond_atom_site_label_1
_geom_bond_atom_site_label_2
_geom_bond_distance
_geom_bond_site_symmetry_2
_ccdc_geom_bond_type
Eu0 N29 2.600 1_455 S
Eu0 N35 2.562 1_455 S
Eu0 O44 2.462 1_554 S
Eu0 O45 2.373 1_455 S
Eu0 O47 2.432 . S
Eu0 O48 2.291 1_454 S
Eu0 O52 2.335 . S
Eu0 O55 2.372 . S
Eu0 C64 2.787 . S
C1 N2 1.365 . S
C1 C4 1.405 . S
C1 C8 1.448 . S
N2 C1 1.365 . S
N2 C5 1.319 1_455 S
N2 Eu11 2.600 1_455 S
C3 C5 1.397 1_455 S
C3 C6 1.367 . S
C3 H23 0.931 . S
C4 C1 1.405 . S
C4 C6 1.403 . S
C4 C10 1.439 . S
C5 N2 1.319 1_655 S
C5 C3 1.397 1_655 S
C5 H16 0.930 . S
C6 C3 1.367 . S
C6 C4 1.403 . S
C6 H27 0.929 . S
C7 C8 1.430 . S
C7 C9 1.387 . S
C7 C13 1.404 1_556 S
C8 C1 1.448 . S
C8 C7 1.430 . S
C8 N12 1.351 . S
C9 C7 1.387 . S
C9 C10 1.374 . S
C9 H24 0.931 . S
C10 C4 1.439 . S
C10 C9 1.374 . S
C10 H25 0.931 . S
Eu11 N2 2.600 1_655 S
Eu11 N12 2.562 1_655 S
Eu11 O46 2.335 . S
Eu11 O49 2.372 . S
Eu11 O50 2.462 1_556 S
Eu11 O51 2.373 1_655 S
Eu11 O53 2.432 . S
Eu11 O54 2.291 1_656 S
Eu11 C75 2.787 . S
N12 C8 1.351 . S
N12 Eu11 2.562 1_455 S
N12 C14 1.325 1_556 S
C13 C7 1.404 1_554 S
C13 C15 1.366 . S
C13 H21 0.930 . S
C14 N12 1.325 1_554 S
C14 C15 1.416 . S
C14 H20 0.929 . S
C15 C13 1.366 . S
C15 C14 1.416 . S
C15 H17 0.930 . S
H16 C5 0.930 . S
H17 C15 0.930 . S
H18 C33 0.930 . S
H19 C40 0.930 . S
H20 C14 0.929 . S
H21 C13 0.930 . S
H22 C36 0.929 . S
H23 C3 0.931 . S
H24 C9 0.931 . S
H25 C10 0.931 . S
H26 C31 0.931 . S
H27 C6 0.929 . S
H28 C39 0.930 . S
N29 Eu0 2.600 1_655 S
N29 C30 1.365 . S
N29 C33 1.319 1_655 S
C30 N29 1.365 . S
C30 C32 1.405 . S
C30 C38 1.448 . S
C31 H26 0.931 . S
C31 C33 1.397 1_655 S
C31 C34 1.367 . S
C32 C30 1.405 . S
C32 C34 1.403 . S
C32 C65 1.439 . S
C33 H18 0.930 . S
C33 N29 1.319 1_455 S
C33 C31 1.397 1_455 S
C34 C31 1.367 . S
C34 C32 1.403 . S
C34 H41 0.929 . S
N35 Eu0 2.562 1_655 S
N35 C36 1.325 1_554 S
N35 C38 1.351 . S
C36 H22 0.929 . S
C36 N35 1.325 1_556 S
C36 C40 1.416 . S
C37 C38 1.430 . S
C37 C39 1.404 1_554 S
C37 C66 1.387 . S
C38 C30 1.448 . S
C38 N35 1.351 . S
C38 C37 1.430 . S
C39 H28 0.930 . S
C39 C37 1.404 1_556 S
C39 C40 1.366 . S
C40 H19 0.930 . S
C40 C36 1.416 . S
C40 C39 1.366 . S
H41 C34 0.929 . S
H42 C65 0.931 . S
H43 C66 0.931 . S
O44 Eu0 2.462 1_556 S
O44 C64 1.252 1_556 S
O45 Eu0 2.373 1_655 S
O45 C56 1.249 1_554 S
O46 Eu11 2.335 . S
O46 C56 1.264 . S
O47 Eu0 2.432 . S
O47 C64 1.268 . S
O48 Eu0 2.291 1_656 S
O48 C63 1.255 . S
O49 Eu11 2.372 . S
O49 C63 1.257 . S
O50 Eu11 2.462 1_554 S
O50 C75 1.252 1_554 S
O51 Eu11 2.373 1_455 S
O51 C67 1.249 1_556 S
O52 Eu0 2.335 . S
O52 C67 1.264 . S
O53 Eu11 2.432 . S
O53 C75 1.268 . S
O54 Eu11 2.291 1_454 S
O54 C74 1.255 . S
O55 Eu0 2.372 . S
O55 C74 1.257 . S
C56 O45 1.249 1_556 S
C56 O46 1.264 . S
C57 C60 1.382 . S
C57 C62 1.390 . S
C57 C64 1.506 . S
C58 C59 1.398 . S
C58 C62 1.392 . S
C59 C58 1.398 . S
C59 C61 1.372 . S
C59 H76 0.931 . S
C60 C57 1.382 . S
C60 C61 1.390 . S
C60 H77 0.931 . S
C61 C59 1.372 . S
C61 C60 1.390 . S
C61 H78 0.929 . S
C62 C57 1.390 . S
C62 C58 1.392 . S
C62 H79 0.930 1_554 S
C63 O48 1.255 . S
C63 O49 1.257 . S
C64 Eu0 2.787 . S
C64 O44 1.252 1_554 S
C64 O47 1.268 . S
C64 C57 1.506 . S
C65 C32 1.439 . S
C65 H42 0.931 . S
C65 C66 1.374 . S
C66 C37 1.387 . S
C66 H43 0.931 . S
C66 C65 1.374 . S
C67 O51 1.249 1_554 S
C67 O52 1.264 . S
C68 C71 1.382 . S
C68 C72 1.390 . S
C68 C75 1.506 . S
C69 C70 1.398 . S
C69 C72 1.392 . S
C70 C69 1.398 . S
C70 C73 1.372 . S
C70 H80 0.931 . S
C71 C68 1.382 . S
C71 C73 1.390 . S
C71 H81 0.931 . S
C72 C68 1.390 . S
C72 C69 1.392 . S
C72 H82 0.930 1_556 S
C73 C70 1.372 . S
C73 C71 1.390 . S
C73 H83 0.929 . S
C74 O54 1.255 . S
C74 O55 1.257 . S
C75 Eu11 2.787 . S
C75 O50 1.252 1_556 S
C75 O53 1.268 . S
C75 C68 1.506 . S
H76 C59 0.931 . S
H77 C60 0.931 . S
H78 C61 0.929 . S
H79 C62 0.930 1_556 S
H80 C70 0.931 . S
H81 C71 0.931 . S
H82 C72 0.930 1_554 S
H83 C73 0.929 . S
Eu84 N113 2.600 . S
Eu84 N119 2.562 1_566 S
Eu84 O128 2.462 1_556 S
Eu84 O129 2.373 1_565 S
Eu84 O131 2.432 . S
Eu84 O132 2.291 1_566 S
Eu84 O136 2.335 . S
Eu84 O139 2.372 . S
Eu84 C148 2.787 . S
C85 N86 1.365 1_565 S
C85 C88 1.405 . S
C85 C92 1.448 . S
N86 C85 1.365 1_545 S
N86 C89 1.319 . S
N86 Eu95 2.600 . S
C87 C89 1.397 . S
C87 C90 1.367 1_545 S
C87 H107 0.931 . S
C88 C85 1.405 . S
C88 C90 1.403 . S
C88 C94 1.439 . S
C89 N86 1.319 . S
C89 C87 1.397 . S
C89 H100 0.930 . S
C90 C87 1.367 1_565 S
C90 C88 1.403 . S
C90 H111 0.929 . S
C91 C92 1.430 1_556 S
C91 C93 1.387 1_556 S
C91 C97 1.404 . S
C92 C85 1.448 . S
C92 C91 1.430 1_554 S
C92 N96 1.351 1_554 S
C93 C91 1.387 1_554 S
C93 C94 1.374 . S
C93 H108 0.931 . S
C94 C88 1.439 . S
C94 C93 1.374 . S
C94 H109 0.931 . S
Eu95 N86 2.600 . S
Eu95 N96 2.562 1_544 S
Eu95 O130 2.335 . S
Eu95 O133 2.372 . S
Eu95 O134 2.462 1_554 S
Eu95 O135 2.373 1_545 S
Eu95 O137 2.432 . S
Eu95 O138 2.291 1_544 S
Eu95 C159 2.787 . S
N96 C92 1.351 1_556 S
N96 Eu95 2.562 1_566 S
N96 C98 1.325 . S
C97 C91 1.404 . S
C97 C99 1.366 . S
C97 H105 0.930 . S
C98 N96 1.325 . S
C98 C99 1.416 . S
C98 H104 0.929 . S
C99 C97 1.366 . S
C99 C98 1.416 . S
C99 H101 0.930 . S
H100 C89 0.930 . S
H101 C99 0.930 . S
H102 C117 0.930 . S
H103 C124 0.930 . S
H104 C98 0.929 . S
H105 C97 0.930 . S
H106 C120 0.929 . S
H107 C87 0.931 . S
H108 C93 0.931 . S
H109 C94 0.931 . S
H110 C115 0.931 . S
H111 C90 0.929 . S
H112 C123 0.930 . S
N113 Eu84 2.600 . S
N113 C114 1.365 1_565 S
N113 C117 1.319 . S
C114 N113 1.365 1_545 S
C114 C116 1.405 . S
C114 C122 1.448 . S
C115 H110 0.931 . S
C115 C117 1.397 . S
C115 C118 1.367 1_565 S
C116 C114 1.405 . S
C116 C118 1.403 . S
C116 C149 1.439 . S
C117 H102 0.930 . S
C117 N113 1.319 . S
C117 C115 1.397 . S
C118 C115 1.367 1_545 S
C118 C116 1.403 . S
C118 H125 0.929 . S
N119 Eu84 2.562 1_544 S
N119 C120 1.325 . S
N119 C122 1.351 1_554 S
C120 H106 0.929 . S
C120 N119 1.325 . S
C120 C124 1.416 . S
C121 C122 1.430 1_554 S
C121 C123 1.404 . S
C121 C150 1.387 1_554 S
C122 C114 1.448 . S
C122 N119 1.351 1_556 S
C122 C121 1.430 1_556 S
C123 H112 0.930 . S
C123 C121 1.404 . S
C123 C124 1.366 . S
C124 H103 0.930 . S
C124 C120 1.416 . S
C124 C123 1.366 . S
H125 C118 0.929 . S
H126 C149 0.931 . S
H127 C150 0.931 . S
O128 Eu84 2.462 1_554 S
O128 C148 1.252 1_554 S
O129 Eu84 2.373 1_545 S
O129 C140 1.249 1_556 S
O130 Eu95 2.335 . S
O130 C140 1.264 . S
O131 Eu84 2.432 . S
O131 C148 1.268 . S
O132 Eu84 2.291 1_544 S
O132 C147 1.255 . S
O133 Eu95 2.372 . S
O133 C147 1.257 . S
O134 Eu95 2.462 1_556 S
O134 C159 1.252 1_556 S
O135 Eu95 2.373 1_565 S
O135 C151 1.249 1_554 S
O136 Eu84 2.335 . S
O136 C151 1.264 . S
O137 Eu95 2.432 . S
O137 C159 1.268 . S
O138 Eu95 2.291 1_566 S
O138 C158 1.255 . S
O139 Eu84 2.372 . S
O139 C158 1.257 . S
C140 O129 1.249 1_554 S
C140 O130 1.264 . S
C141 C144 1.382 . S
C141 C146 1.390 1_556 S
C141 C148 1.506 . S
C142 C143 1.398 1_554 S
C142 C146 1.392 . S
C143 C142 1.398 1_556 S
C143 C145 1.372 . S
C143 H160 0.931 . S
C144 C141 1.382 . S
C144 C145 1.390 . S
C144 H161 0.931 . S
C145 C143 1.372 . S
C145 C144 1.390 . S
C145 H162 0.929 . S
C146 C141 1.390 1_554 S
C146 C142 1.392 . S
C146 H163 0.930 . S
C147 O132 1.255 . S
C147 O133 1.257 . S
C148 Eu84 2.787 . S
C148 O128 1.252 1_556 S
C148 O131 1.268 . S
C148 C141 1.506 . S
C149 C116 1.439 . S
C149 H126 0.931 . S
C149 C150 1.374 . S
C150 C121 1.387 1_556 S
C150 H127 0.931 . S
C150 C149 1.374 . S
C151 O135 1.249 1_556 S
C151 O136 1.264 . S
C152 C155 1.382 . S
C152 C156 1.390 1_554 S
C152 C159 1.506 . S
C153 C154 1.398 1_556 S
C153 C156 1.392 . S
C154 C153 1.398 1_554 S
C154 C157 1.372 . S
C154 H164 0.931 . S
C155 C152 1.382 . S
C155 C157 1.390 . S
C155 H165 0.931 . S
C156 C152 1.390 1_556 S
C156 C153 1.392 . S
C156 H166 0.930 . S
C157 C154 1.372 . S
C157 C155 1.390 . S
C157 H167 0.929 . S
C158 O138 1.255 . S
C158 O139 1.257 . S
C159 Eu95 2.787 . S
C159 O134 1.252 1_554 S
C159 O137 1.268 . S
C159 C152 1.506 . S
H160 C143 0.931 . S
H161 C144 0.931 . S
H162 C145 0.929 . S
H163 C146 0.930 . S
H164 C154 0.931 . S
H165 C155 0.931 . S
H166 C156 0.930 . S
H167 C157 0.929 . S
Eu168 N197 2.600 . S
Eu168 N203 2.562 . S
Eu168 O212 2.462 1_556 S
Eu168 O213 2.373 . S
Eu168 O215 2.432 . S
Eu168 O216 2.291 1_556 S
Eu168 O220 2.335 . S
Eu168 O223 2.372 . S
Eu168 C232 2.787 . S
C169 N170 1.365 . S
C169 C172 1.405 . S
C169 C176 1.448 . S
N170 C169 1.365 . S
N170 C173 1.319 . S
N170 Eu179 2.600 . S
C171 C173 1.397 . S
C171 C174 1.367 . S
C171 H191 0.931 . S
C172 C169 1.405 . S
C172 C174 1.403 . S
C172 C178 1.439 . S
C173 N170 1.319 . S
C173 C171 1.397 . S
C173 H184 0.930 . S
C174 C171 1.367 . S
C174 C172 1.403 . S
C174 H195 0.929 . S
C175 C176 1.430 . S
C175 C177 1.387 . S
C175 C181 1.415 . S
C176 C169 1.448 . S
C176 C175 1.430 . S
C176 N180 1.351 . S
C177 C175 1.387 . S
C177 C178 1.374 . S
C177 H192 0.931 . S
C178 C172 1.439 . S
C178 C177 1.374 . S
C178 H193 0.931 . S
Eu179 N170 2.600 . S
Eu179 N180 2.562 . S
Eu179 O214 2.335 . S
Eu179 O217 2.372 . S
Eu179 O218 2.462 1_554 S
Eu179 O219 2.373 . S
Eu179 O221 2.432 . S
Eu179 O222 2.291 1_554 S
Eu179 C243 2.787 . S
N180 C176 1.351 . S
N180 Eu179 2.562 . S
N180 C182 1.325 1_554 S
C181 C175 1.415 . S
C181 C183 1.360 1_554 S
C181 H189 0.925 1_554 S
C182 N180 1.325 1_556 S
C182 C183 1.416 . S
C182 H188 0.929 . S
C183 C181 1.360 1_556 S
C183 C182 1.416 . S
C183 H185 0.930 . S
H184 C173 0.930 . S
H185 C183 0.930 . S
H186 C201 0.930 . S
H187 C208 0.930 . S
H188 C182 0.929 . S
H189 C181 0.925 1_556 S
H190 C204 0.929 . S
H191 C171 0.931 . S
H192 C177 0.931 . S
H193 C178 0.931 . S
H194 C199 0.931 . S
H195 C174 0.929 . S
H196 C207 0.932 . S
N197 Eu168 2.600 . S
N197 C198 1.365 . S
N197 C201 1.319 . S
C198 N197 1.365 . S
C198 C200 1.405 . S
C198 C206 1.448 . S
C199 H194 0.931 . S
C199 C201 1.397 . S
C199 C202 1.367 . S
C200 C198 1.405 . S
C200 C202 1.403 . S
C200 C233 1.439 . S
C201 H186 0.930 . S
C201 N197 1.319 . S
C201 C199 1.397 . S
C202 C199 1.367 . S
C202 C200 1.403 . S
C202 H209 0.929 . S
N203 Eu168 2.562 . S
N203 C204 1.325 1_556 S
N203 C206 1.351 . S
C204 H190 0.929 . S
C204 N203 1.325 1_554 S
C204 C208 1.416 . S
C205 C206 1.430 . S
C205 C207 1.401 1_556 S
C205 C234 1.387 . S
C206 C198 1.448 . S
C206 N203 1.351 . S
C206 C205 1.430 . S
C207 H196 0.932 . S
C207 C205 1.401 1_554 S
C207 C208 1.368 . S
C208 H187 0.930 . S
C208 C204 1.416 . S
C208 C207 1.368 . S
H209 C202 0.929 . S
H210 C233 0.931 . S
H211 C234 0.931 . S
O212 Eu168 2.462 1_554 S
O212 C232 1.252 1_554 S
O213 Eu168 2.373 . S
O213 C224 1.249 . S
O214 Eu179 2.335 . S
O214 C224 1.264 1_554 S
O215 Eu168 2.432 . S
O215 C232 1.268 . S
O216 Eu168 2.291 1_554 S
O216 C231 1.255 . S
O217 Eu179 2.372 . S
O217 C231 1.257 . S
O218 Eu179 2.462 1_556 S
O218 C243 1.252 1_556 S
O219 Eu179 2.373 . S
O219 C235 1.249 . S
O220 Eu168 2.335 . S
O220 C235 1.264 1_556 S
O221 Eu179 2.432 . S
O221 C243 1.268 . S
O222 Eu179 2.291 1_556 S
O222 C242 1.255 . S
O223 Eu168 2.372 . S
O223 C242 1.257 . S
C224 O213 1.249 . S
C224 O214 1.264 1_556 S
C225 C228 1.382 . S
C225 C230 1.390 1_556 S
C225 C232 1.506 . S
C226 C227 1.398 . S
C226 C230 1.392 1_556 S
C227 C226 1.398 . S
C227 C229 1.372 . S
C227 H244 0.931 . S
C228 C225 1.382 . S
C228 C229 1.390 . S
C228 H245 0.931 . S
C229 C227 1.372 . S
C229 C228 1.390 . S
C229 H246 0.929 . S
C230 C225 1.390 1_554 S
C230 C226 1.392 1_554 S
C230 H247 0.930 . S
C231 O216 1.255 . S
C231 O217 1.257 . S
C232 Eu168 2.787 . S
C232 O212 1.252 1_556 S
C232 O215 1.268 . S
C232 C225 1.506 . S
C233 C200 1.439 . S
C233 H210 0.931 . S
C233 C234 1.374 . S
C234 C205 1.387 . S
C234 H211 0.931 . S
C234 C233 1.374 . S
C235 O219 1.249 . S
C235 O220 1.264 1_554 S
C236 C239 1.382 . S
C236 C240 1.382 1_554 S
C236 C243 1.506 . S
C237 C238 1.398 . S
C237 C240 1.393 1_554 S
C238 C237 1.398 . S
C238 C241 1.372 . S
C238 H248 0.931 . S
C239 C236 1.382 . S
C239 C241 1.390 . S
C239 H249 0.931 . S
C240 C236 1.382 1_556 S
C240 C237 1.393 1_556 S
C240 H250 0.936 . S
C241 C238 1.372 . S
C241 C239 1.390 . S
C241 H251 0.929 . S
C242 O222 1.255 . S
C242 O223 1.257 . S
C243 Eu179 2.787 . S
C243 O218 1.252 1_554 S
C243 O221 1.268 . S
C243 C236 1.506 . S
H244 C227 0.931 . S
H245 C228 0.931 . S
H246 C229 0.929 . S
H247 C230 0.930 . S
H248 C238 0.931 . S
H249 C239 0.931 . S
H250 C240 0.936 . S
H251 C241 0.929 . S
H252 C258 0.930 . S
H253 C262 0.930 . S
H254 C267 0.929 . S
H255 C265 0.929 . S
H256 C260 0.929 . S
H257 C266 0.929 . S
C258 H252 0.930 . S
C258 C259 1.363 1_455 S
C258 C266 1.378 . S
C259 C258 1.363 1_655 S
C259 C267 1.436 . S
C260 H256 0.929 . S
C260 C262 1.378 . S
C260 C264 1.349 . S
C261 C264 1.462 1_455 S
C261 C266 1.350 . S
C261 N269 1.427 1_455 S
C262 H253 0.930 . S
C262 C260 1.378 . S
C262 C263 1.367 1_655 S
C263 C262 1.367 1_455 S
C263 C265 1.433 . S
C264 C260 1.349 . S
C264 C261 1.462 1_655 S
C264 N268 1.428 1_655 S
C265 H255 0.929 . S
C265 C263 1.433 . S
C265 N268 1.384 . S
C266 H257 0.929 . S
C266 C258 1.378 . S
C266 C261 1.350 . S
C267 H254 0.929 . S
C267 C259 1.436 . S
C267 N269 1.384 . S
N268 C264 1.428 1_455 S
N268 C265 1.384 . S
N269 C261 1.427 1_655 S
N269 C267 1.384 . S
H270 C276 0.930 . S
H271 C280 0.930 . S
H272 C285 0.929 . S
H273 C283 0.929 . S
H274 C278 0.929 . S
H275 C284 0.929 . S
C276 H270 0.930 . S
C276 C277 1.367 1_565 S
C276 C284 1.378 . S
C277 C276 1.367 1_545 S
C277 C285 1.433 . S
C278 H274 0.929 . S
C278 C280 1.378 . S
C278 C282 1.349 1_545 S
C279 C282 1.462 1_545 S
C279 C284 1.350 1_545 S
C279 N287 1.427 . S
C280 H271 0.930 . S
C280 C278 1.378 . S
C280 C281 1.367 1_545 S
C281 C280 1.367 1_565 S
C281 C283 1.433 . S
C282 C278 1.349 1_565 S
C282 C279 1.462 1_565 S
C282 N286 1.429 . S
C283 H273 0.929 . S
C283 C281 1.433 . S
C283 N286 1.384 . S
C284 H275 0.929 . S
C284 C276 1.378 . S
C284 C279 1.350 1_565 S
C285 H272 0.929 . S
C285 C277 1.433 . S
C285 N287 1.384 . S
N286 C282 1.429 . S
N286 C283 1.384 . S
N287 C279 1.427 . S
N287 C285 1.384 . S
H288 C294 0.930 . S
H289 C298 0.930 . S
H290 C303 0.929 . S
H291 C301 0.929 . S
H292 C296 0.929 . S
H293 C302 0.929 . S
C294 H288 0.930 . S
C294 C295 1.367 . S
C294 C302 1.378 . S
C295 C294 1.367 . S
C295 C303 1.433 . S
C296 H292 0.929 . S
C296 C298 1.378 . S
C296 C300 1.350 . S
C297 C300 1.463 . S
C297 C302 1.350 . S
C297 N305 1.427 . S
C298 H289 0.930 . S
C298 C296 1.378 . S
C298 C299 1.367 . S
C299 C298 1.367 . S
C299 C301 1.433 . S
C300 C296 1.350 . S
C300 C297 1.463 . S
C300 N304 1.427 . S
C301 H291 0.929 . S
C301 C299 1.433 . S
C301 N304 1.384 . S
C302 H293 0.929 . S
C302 C294 1.378 . S
C302 C297 1.350 . S
C303 H290 0.929 . S
C303 C295 1.433 . S
C303 N305 1.384 . S
N304 C300 1.427 . S
N304 C301 1.384 . S
N305 C297 1.427 . S
N305 C303 1.384 . S
H306 C312 0.930 . S
H307 C316 0.930 . S
H308 C321 0.929 . S
H309 C319 0.929 . S
H310 C314 0.929 . S
H311 C320 0.929 . S
C312 H306 0.930 . S
C312 C313 1.367 . S
C312 C320 1.378 . S
C313 C312 1.367 . S
C313 C321 1.433 1_554 S
C314 H310 0.929 . S
C314 C316 1.378 . S
C314 C318 1.350 . S
C315 C318 1.463 1_554 S
C315 C320 1.350 . S
C315 N323 1.427 1_554 S
C316 H307 0.930 . S
C316 C314 1.378 . S
C316 C317 1.367 . S
C317 C316 1.367 . S
C317 C319 1.433 1_556 S
C318 C314 1.350 . S
C318 C315 1.463 1_556 S
C318 N322 1.427 1_556 S
C319 H309 0.929 . S
C319 C317 1.433 1_554 S
C319 N322 1.384 . S
C320 H311 0.929 . S
C320 C312 1.378 . S
C320 C315 1.350 . S
C321 H308 0.929 . S
C321 C313 1.433 1_556 S
C321 N323 1.384 . S
N322 C318 1.427 1_554 S
N322 C319 1.384 . S
N323 C315 1.427 1_556 S
N323 C321 1.384 . S
H324 C330 0.932 . S
H325 C334 0.930 . S
H326 C339 0.929 . S
H327 C337 0.929 . S
H328 C332 0.929 . S
H329 C338 0.930 . S
C330 H324 0.932 . S
C330 C331 1.367 . S
C330 C338 1.380 1_556 S
C331 C330 1.367 . S
C331 C339 1.433 . S
C332 H328 0.929 . S
C332 C334 1.378 . S
C332 C336 1.350 . S
C333 C336 1.463 . S
C333 C338 1.346 1_556 S
C333 N341 1.427 . S
C334 H325 0.930 . S
C334 C332 1.378 . S
C334 C335 1.367 1_556 S
C335 C334 1.367 1_554 S
C335 C337 1.433 . S
C336 C332 1.350 . S
C336 C333 1.463 . S
C336 N340 1.427 1_556 S
C337 H327 0.929 . S
C337 C335 1.433 . S
C337 N340 1.384 . S
C338 H329 0.930 . S
C338 C330 1.380 1_554 S
C338 C333 1.346 1_554 S
C339 H326 0.929 . S
C339 C331 1.433 . S
C339 N341 1.384 . S
N340 C336 1.427 1_554 S
N340 C337 1.384 . S
N341 C333 1.427 . S
N341 C339 1.384 . S
H342 C348 0.930 . S
H343 C352 0.930 . S
H344 C357 0.929 . S
H345 C355 0.929 . S
H346 C350 0.929 . S
H347 C356 0.929 . S
C348 H342 0.930 . S
C348 C349 1.367 1_554 S
C348 C356 1.378 . S
C349 C348 1.367 1_556 S
C349 C357 1.433 . S
C350 H346 0.929 . S
C350 C352 1.378 . S
C350 C354 1.350 . S
C351 C354 1.463 . S
C351 C356 1.350 1_556 S
C351 N359 1.427 . S
C352 H343 0.930 . S
C352 C350 1.378 . S
C352 C353 1.367 . S
C353 C352 1.367 . S
C353 C355 1.433 1_556 S
C354 C350 1.350 . S
C354 C351 1.463 . S
C354 N358 1.427 1_556 S
C355 H345 0.929 . S
C355 C353 1.433 1_554 S
C355 N358 1.384 . S
C356 H347 0.929 . S
C356 C348 1.378 . S
C356 C351 1.350 1_554 S
C357 H344 0.929 . S
C357 C349 1.433 . S
C357 N359 1.384 . S
N358 C354 1.427 1_554 S
N358 C355 1.384 . S
N359 C351 1.427 . S
N359 C357 1.384 . S
H360 C366 0.930 . S
H361 C370 0.930 . S
H362 C375 0.929 . S
H363 C373 0.929 . S
H364 C368 0.929 . S
H365 C374 0.929 . S
C366 H360 0.930 . S
C366 C367 1.367 1_554 S
C366 C374 1.378 . S
C367 C366 1.367 1_556 S
C367 C375 1.433 . S
C368 H364 0.929 . S
C368 C370 1.378 . S
C368 C372 1.350 . S
C369 C372 1.463 . S
C369 C374 1.350 1_556 S
C369 N377 1.427 . S
C370 H361 0.930 . S
C370 C368 1.378 . S
C370 C371 1.367 1_556 S
C371 C370 1.367 1_554 S
C371 C373 1.433 . S
C372 C368 1.350 . S
C372 C369 1.463 . S
C372 N376 1.427 1_556 S
C373 H363 0.929 . S
C373 C371 1.433 . S
C373 N376 1.384 . S
C374 H365 0.929 . S
C374 C366 1.378 . S
C374 C369 1.350 1_554 S
C375 H362 0.929 . S
C375 C367 1.433 . S
C375 N377 1.384 . S
N376 C372 1.427 1_554 S
N376 C373 1.384 . S
N377 C369 1.427 . S
N377 C375 1.384 . S
H378 C384 0.930 . S
H379 C388 0.930 . S
H380 C393 0.929 . S
H381 C391 0.929 . S
H382 C386 0.929 . S
H383 C392 0.929 . S
C384 H378 0.930 . S
C384 C385 1.367 1_554 S
C384 C392 1.378 . S
C385 C384 1.367 1_556 S
C385 C393 1.433 . S
C386 H382 0.929 . S
C386 C388 1.378 . S
C386 C390 1.350 1_556 S
C387 C390 1.463 . S
C387 C392 1.350 . S
C387 N395 1.427 1_554 S
C388 H379 0.930 . S
C388 C386 1.378 . S
C388 C389 1.367 1_556 S
C389 C388 1.367 1_554 S
C389 C391 1.433 . S
C390 C386 1.350 1_554 S
C390 C387 1.463 . S
C390 N394 1.427 . S
C391 H381 0.929 . S
C391 C389 1.433 . S
C391 N394 1.384 . S
C392 H383 0.929 . S
C392 C384 1.378 . S
C392 C387 1.350 . S
C393 H380 0.929 . S
C393 C385 1.433 . S
C393 N395 1.384 . S
N394 C390 1.427 . S
N394 C391 1.384 . S
N395 C387 1.427 1_556 S
N395 C393 1.384 . S
H396 C402 0.930 . S
H397 C406 0.930 . S
H398 C411 0.929 . S
H399 C409 0.929 . S
H400 C404 0.929 . S
H401 C410 0.929 . S
C402 H396 0.930 . S
C402 C403 1.367 . S
C402 C410 1.378 . S
C403 C402 1.367 . S
C403 C411 1.433 1_554 S
C404 H400 0.929 . S
C404 C406 1.378 . S
C404 C408 1.350 1_556 S
C405 C408 1.463 . S
C405 C410 1.350 . S
C405 N413 1.427 1_554 S
C406 H397 0.930 . S
C406 C404 1.378 . S
C406 C407 1.367 1_556 S
C407 C406 1.367 1_554 S
C407 C409 1.433 . S
C408 C404 1.350 1_554 S
C408 C405 1.463 . S
C408 N412 1.427 . S
C409 H399 0.929 . S
C409 C407 1.433 . S
C409 N412 1.384 . S
C410 H401 0.929 . S
C410 C402 1.378 . S
C410 C405 1.350 . S
C411 H398 0.929 . S
C411 C403 1.433 1_556 S
C411 N413 1.384 . S
N412 C408 1.427 . S
N412 C409 1.384 . S
N413 C405 1.427 1_556 S
N413 C411 1.384 . S
C259 C63 1.492 . S
C263 C74 1.490 . S
C277 C147 1.523 . S
C281 C158 1.523 . S
C295 C242 1.482 . S
C299 C231 1.482 . S
C313 C67 2.304 . S
C317 C224 2.317 . S
C331 C153 0.774 . S
C335 C69 0.774 1_554 S
C349 C151 1.609 . S
C353 C237 1.496 1_556 S
C367 C56 2.299 . S
C371 C235 2.318 . S
C385 C58 0.761 1_556 S
C389 C142 0.760 . S
C403 C226 1.499 1_554 S
C407 C140 1.610 . S
