# Generated by pormake.
# Topology rkf, (6)-cn, num edge types: 1
# Building blocks:
#     Node 0, Type 0, BuildingBlock: NUHQIS_clean_sbu_0, # of connection points: 6
#     Node 1, Type 0, BuildingBlock: NUHQIS_clean_sbu_0, # of connection points: 6
#     Node 2, Type 0, BuildingBlock: NUHQIS_clean_sbu_0, # of connection points: 6
#     Node 3, Type 0, BuildingBlock: NUHQIS_clean_sbu_0, # of connection points: 6
#     Node 4, Type 0, BuildingBlock: NUHQIS_clean_sbu_0, # of connection points: 6
#     Node 5, Type 0, BuildingBlock: NUHQIS_clean_sbu_0, # of connection points: 6
#     Edge 6, Type (0, 0), BuildingBlock: KIFKEQ_clean_linker_1, # of connection points: 2
#     Edge 7, Type (0, 0), BuildingBlock: KIFKEQ_clean_linker_1, # of connection points: 2
#     Edge 8, Type (0, 0), BuildingBlock: KIFKEQ_clean_linker_1, # of connection points: 2
#     Edge 9, Type (0, 0), BuildingBlock: KIFKEQ_clean_linker_1, # of connection points: 2
#     Edge 10, Type (0, 0), BuildingBlock: KIFKEQ_clean_linker_1, # of connection points: 2
#     Edge 11, Type (0, 0), BuildingBlock: KIFKEQ_clean_linker_1, # of connection points: 2
#     Edge 12, Type (0, 0), BuildingBlock: KIFKEQ_clean_linker_1, # of connection points: 2
#     Edge 13, Type (0, 0), BuildingBlock: KIFKEQ_clean_linker_1, # of connection points: 2
#     Edge 14, Type (0, 0), BuildingBlock: KIFKEQ_clean_linker_1, # of connection points: 2
#     Edge 15, Type (0, 0), BuildingBlock: KIFKEQ_clean_linker_1, # of connection points: 2
#     Edge 16, Type (0, 0), BuildingBlock: KIFKEQ_clean_linker_1, # of connection points: 2
#     Edge 17, Type (0, 0), BuildingBlock: KIFKEQ_clean_linker_1, # of connection points: 2
#     Edge 18, Type (0, 0), BuildingBlock: KIFKEQ_clean_linker_1, # of connection points: 2
#     Edge 19, Type (0, 0), BuildingBlock: KIFKEQ_clean_linker_1, # of connection points: 2
#     Edge 20, Type (0, 0), BuildingBlock: KIFKEQ_clean_linker_1, # of connection points: 2
#     Edge 21, Type (0, 0), BuildingBlock: KIFKEQ_clean_linker_1, # of connection points: 2
#     Edge 22, Type (0, 0), BuildingBlock: KIFKEQ_clean_linker_1, # of connection points: 2
#     Edge 23, Type (0, 0), BuildingBlock: KIFKEQ_clean_linker_1, # of connection points: 2
# Relax obj value: 0.692
# Max RMSD: 0.255
# Mean RMSD: 0.255
data_MOF--net-rkf--node1-NUHQIS_clean_sbu_0--edge1-KIFKEQ_clean_linker_1
_symmetry_space_group_name_H-M    P1
_symmetry_Int_Tables_number       1
_symmetry_cell_setting            triclinic
loop_
_symmetry_equiv_pos_as_xyz
'x, y, z'
_cell_length_a     25.502855
_cell_length_b     25.818374
_cell_length_c     43.869356
_cell_angle_alpha  88.560577
_cell_angle_beta   90.723252
_cell_angle_gamma 120.79329
loop_
_atom_site_label
_atom_site_type_symbol
_atom_site_fract_x
_atom_site_fract_y
_atom_site_fract_z
_atom_type_partial_charge
Tb0 Tb 0.32687 0.1565 0.20821 0.0
Eu1 Eu 0.44507 0.28351 0.18606 0.0
C2 C 0.31201 0.24897 0.16947 0.0
C3 C 0.37327 0.16786 1.13932 0.0
C4 C 0.21803 -0.00608 0.22734 0.0
C5 C 0.23122 0.9126 0.24724 0.0
C6 C 0.25437 -0.02606 0.2416 0.0
C7 C 0.16043 0.95112 0.21617 0.0
C8 C 0.13754 0.88948 0.22137 0.0
C9 C 0.17138 0.86957 0.23845 0.0
C10 C 0.23684 0.0584 0.22707 0.0
O11 O 0.40306 0.14122 0.2059 0.0
O12 O 0.47468 0.23597 0.21919 0.0
O13 O 0.4099 0.30651 0.22845 0.0
O14 O 0.3586 0.21103 0.24929 0.0
C15 C 0.45761 0.17924 0.21632 0.0
O16 O 0.54202 0.33211 0.17502 0.0
O17 O 0.49276 0.37987 0.1749 0.0
O18 O 0.36606 0.27039 1.15758 0.0
O19 O 0.30001 0.22215 0.19642 0.0
O20 O 0.3296 0.14 1.1598 0.0
O21 O 0.42407 0.21942 1.14559 0.0
C22 C 0.38169 0.26952 0.2518 0.0
O23 O 0.28419 0.09345 0.24364 0.0
O24 O 0.23734 0.08372 0.2009 0.0
C25 C 0.55778 0.39747 1.13312 0.0
C26 C 0.52221 0.37124 1.07257 0.0
C27 C 0.55979 0.35203 1.08576 0.0
C28 C 0.57826 0.36573 1.11601 0.0
C29 C 0.53313 0.42835 1.11749 0.0
C30 C 0.51474 0.41468 1.08725 0.0
C31 C 0.54162 0.38036 1.16559 0.0
H32 H 0.25885 0.89972 0.26062 0.0
H33 H 0.29944 0.00578 0.25012 0.0
H34 H 0.13188 0.96542 0.20474 0.0
H35 H 0.09195 0.85771 0.21349 0.0
H36 H 0.56662 0.31898 1.07457 0.0
H37 H 0.59975 0.34335 1.12709 0.0
H38 H 0.51891 0.45499 1.12978 0.0
H39 H 0.48645 0.43062 1.07711 0.0
Tb40 Tb 0.27362 0.35104 0.53046 0.0
Eu41 Eu 0.25153 0.45882 0.50443 0.0
C42 C 0.16062 0.32342 0.49405 0.0
C43 C 0.3063 0.39599 0.45994 0.0
C44 C 0.32843 0.24483 0.54897 0.0
C45 C 0.35229 0.16524 0.54673 0.0
C46 C 0.31207 0.18612 0.54119 0.0
C47 C 0.38765 0.28411 0.55977 0.0
C48 C 0.42732 0.26298 0.56592 0.0
C49 C 0.40898 0.2023 0.56098 0.0
C50 C 0.28166 0.26223 0.54907 0.0
O51 O 0.36532 0.42881 0.52906 0.0
O52 O 0.34315 0.50493 0.5283 0.0
O53 O 0.20213 0.42604 0.55076 0.0
O54 O 0.25694 0.38635 0.57153 0.0
C55 C 0.38195 0.48582 0.53169 0.0
O56 O 0.28205 0.54742 0.48323 0.0
O57 O 0.18955 0.49315 0.50043 0.0
O58 O 0.18911 0.37455 0.47897 0.0
O59 O 0.17848 0.32175 0.52189 0.0
O60 O 0.30254 0.36011 0.48285 0.0
O61 O 0.29089 0.43745 0.46302 0.0
C62 C 0.21751 0.40428 0.57458 0.0
O63 O 0.29361 0.30812 0.56572 0.0
O64 O 0.25721 0.26347 0.52298 0.0
C65 C 0.20443 0.55281 0.45599 0.0
C66 C 0.16648 0.57404 0.39873 0.0
C67 C 0.2127 0.62221 0.41514 0.0
C68 C 0.23136 0.61164 0.44364 0.0
C69 C 0.15695 0.50506 0.44006 0.0
C70 C 0.138 0.51561 0.41186 0.0
C71 C 0.22793 0.5411 0.48459 0.0
H72 H 0.33722 0.11883 0.54169 0.0
H73 H 0.26694 0.15528 0.53245 0.0
H74 H 0.40201 0.33011 0.56546 0.0
H75 H 0.47023 0.29319 0.57694 0.0
H76 H 0.23546 0.66763 0.40557 0.0
H77 H 0.26803 0.64911 0.45562 0.0
H78 H 0.13569 0.45915 0.44892 0.0
H79 H 0.10326 0.47724 0.39956 0.0
Tb80 Tb 0.04583 0.27796 0.85587 0.0
Eu81 Eu 0.91763 0.27201 0.84075 0.0
C82 C 0.9398 0.16891 0.82728 0.0
C83 C 0.02438 0.31681 0.78831 0.0
C84 C 0.15741 0.23252 0.88078 0.0
C85 C 0.14297 0.16585 0.92372 0.0
C86 C 0.11969 0.1918 0.90354 0.0
C87 C 0.21634 0.24321 0.87663 0.0
C88 C 0.23989 0.21808 0.89694 0.0
C89 C 0.20451 0.18165 0.92169 0.0
C90 C 0.13828 0.26794 0.86266 0.0
O91 O 0.07086 0.37209 0.85457 0.0
O92 O -0.0231 0.35989 0.86431 0.0
O93 O 0.90738 0.2285 0.88885 0.0
O94 O 0.00782 0.26473 0.90175 0.0
C95 C 0.03659 0.39406 0.86233 0.0
O96 O 0.86306 0.31188 0.82726 0.0
O97 O 0.81836 0.21732 0.84063 0.0
O98 O 0.92342 0.20304 0.81299 0.0
O99 O 0.96698 0.18746 0.85346 0.0
O100 O 0.05553 0.30294 0.80755 0.0
O101 O 0.97189 0.31161 0.79618 0.0
C102 C 0.9496 0.23683 0.90937 0.0
O103 O 0.09572 0.23838 0.84257 0.0
O104 O 0.12927 0.30577 0.87769 0.0
C105 C 0.77427 0.2439 0.79977 0.0
C106 C 0.72318 0.2133 0.7409 0.0
C107 C 0.75521 0.27385 0.74977 0.0
C108 C 0.78056 0.28902 0.77894 0.0
C109 C 0.73639 0.18315 0.79205 0.0
C110 C 0.7113 0.168 0.76291 0.0
C111 C 0.81181 0.25998 0.82784 0.0
H112 H 0.11437 0.13718 0.94226 0.0
H113 H 0.07351 0.18245 0.90656 0.0
H114 H 0.24553 0.27408 0.85883 0.0
H115 H 0.28752 0.23171 0.89471 0.0
H116 H 0.76386 0.30974 0.73359 0.0
H117 H 0.80809 0.33625 0.78451 0.0
H118 H 0.72934 0.14716 0.80781 0.0
H119 H 0.68693 0.12085 0.757 0.0
Tb120 Tb 0.90722 0.08577 0.19969 0.0
Eu121 Eu 0.78805 0.95721 0.18168 0.0
C122 C 0.92033 -0.00793 1.16482 0.0
C123 C 0.85337 0.07088 1.13164 0.0
C124 C 0.01899 0.24858 0.21239 0.0
C125 C 0.10099 0.35316 0.20839 0.0
C126 C 0.07924 0.29177 0.20454 0.0
C127 C -0.02071 0.26787 0.22157 0.0
C128 C 0.00117 0.32895 0.22595 0.0
C129 C 0.06312 0.37229 0.22082 0.0
C130 C 0.00012 0.18423 0.21431 0.0
O131 O 0.83119 0.10147 0.19824 0.0
O132 O 0.76003 0.00607 0.21306 0.0
O133 O 0.82384 0.93675 0.22598 0.0
O134 O 0.87739 0.03391 0.24285 0.0
C135 C 0.77725 0.06303 0.20952 0.0
O136 O 0.68973 0.90761 0.17528 0.0
O137 O 0.74049 0.86218 0.16936 0.0
O138 O 0.86625 0.9708 1.1529 0.0
O139 O 0.93176 0.01818 0.19126 0.0
O140 O 0.89902 0.10002 1.15083 0.0
O141 O 0.80374 0.0195 1.13985 0.0
C142 C 0.85316 -0.02453 0.24796 0.0
O143 O 0.9547 0.15062 0.2326 0.0
O144 O -0.004 0.15733 0.18888 0.0
C145 C 0.66288 0.84399 1.1332 0.0
C146 C 0.64364 0.84352 1.06984 0.0
C147 C 0.61884 0.86772 1.08935 0.0
C148 C 0.62799 0.86759 1.12079 0.0
C149 C 0.68107 0.81327 1.11405 0.0
C150 C 0.67161 0.81311 1.08264 0.0
C151 C 0.68907 0.8608 1.1642 0.0
H152 H 0.14845 0.38523 0.20328 0.0
H153 H 0.11038 0.27788 0.19693 0.0
H154 H 0.93217 0.23551 0.22729 0.0
H155 H 0.97032 0.34121 0.23567 0.0
H156 H 0.59613 0.89046 1.08015 0.0
H157 H 0.61192 0.89033 1.13502 0.0
H158 H 0.70706 0.7937 1.12294 0.0
H159 H 0.69137 0.79402 1.06826 0.0
Tb160 Tb 0.9514 0.91026 0.53618 0.0
Eu161 Eu 0.96663 0.79705 0.51624 0.0
C162 C 0.06261 0.93055 0.50143 0.0
C163 C 0.91922 0.86191 0.4667 0.0
C164 C 0.90187 0.01655 0.55994 0.0
C165 C 0.8345 0.01593 0.59875 0.0
C166 C 0.87707 0.00107 0.58945 0.0
C167 C 0.88244 0.04657 0.53978 0.0
C168 C 0.83939 0.06127 0.54908 0.0
C169 C 0.81529 0.04653 0.57881 0.0
C170 C 0.94941 0.00356 0.55064 0.0
O171 O 0.85742 0.83606 0.53793 0.0
O172 O 0.8734 0.75572 0.53786 0.0
O173 O 0.01132 0.82745 0.5635 0.0
O174 O 0.95898 0.87177 0.57982 0.0
C175 C 0.83727 0.77792 0.54036 0.0
O176 O 0.93018 0.70297 0.50501 0.0
O177 O 0.02802 0.7626 0.50938 0.0
O178 O 0.03198 0.87875 0.48816 0.0
O179 O 0.04531 0.93461 0.52867 0.0
O180 O 0.93117 0.9035 0.48703 0.0
O181 O 0.92536 0.81494 0.47336 0.0
C182 C -0.00435 0.85091 0.58557 0.0
O183 O 0.96115 0.97121 0.56954 0.0
O184 O 0.94769 -0.0127 0.52268 0.0
C185 C -0.00629 0.68737 0.47232 0.0
C186 C 0.02094 0.65561 0.41612 0.0
C187 C -0.02541 0.66967 0.41816 0.0
C188 C 0.96133 0.68567 0.4459 0.0
C189 C 0.0382 0.67088 0.47073 0.0
C190 C 0.05192 0.65532 0.44282 0.0
C191 C -0.01599 0.70966 0.50105 0.0
H192 H 0.81848 0.00534 0.62209 0.0
H193 H 0.89138 -0.0215 0.60573 0.0
H194 H 0.90115 0.05939 0.51695 0.0
H195 H 0.82557 0.08476 0.53314 0.0
H196 H 0.95085 0.67178 0.39795 0.0
H197 H 0.9272 0.69875 0.44641 0.0
H198 H 0.06369 0.67194 0.49089 0.0
H199 H 0.08794 0.64485 0.44192 0.0
Tb200 Tb 0.15004 0.92736 0.87181 0.0
Eu201 Eu 0.29203 -0.01843 0.85045 0.0
C202 C 0.22459 0.05137 0.8438 0.0
C203 C 0.18247 0.92236 0.80099 0.0
C204 C -0.00472 0.91175 0.88933 0.0
C205 C 0.96159 -0.01964 0.90375 0.0
C206 C 0.00828 0.97058 0.89464 0.0
C207 C 0.93581 0.86317 0.89326 0.0
C208 C 0.88948 0.87273 0.90232 0.0
C209 C 0.90154 0.93136 0.90753 0.0
C210 C 0.0404 0.89881 0.87713 0.0
O211 O 0.15996 0.85086 0.88211 0.0
O212 O 0.25251 0.88117 0.85899 0.0
O213 O 0.29569 0.00537 0.90123 0.0
O214 O 0.19467 0.96212 0.9159 0.0
C215 C 0.20213 0.84011 0.87287 0.0
O216 O 0.36429 0.96954 0.83241 0.0
O217 O 0.38591 0.05699 0.84887 0.0
O218 O 0.2584 0.03847 0.82747 0.0
O219 O 0.20739 0.02423 0.8702 0.0
O220 O 0.14504 0.89702 0.8244 0.0
O221 O 0.24088 0.9614 0.80533 0.0
C222 C 0.25374 -0.00659 0.92228 0.0
O223 O 0.07689 0.93523 0.85583 0.0
O224 O 0.06712 0.87942 0.89591 0.0
C225 C 0.44102 0.05487 0.80616 0.0
C226 C 0.49575 0.09618 0.74843 0.0
C227 C 0.50323 0.05321 0.76507 0.0
C228 C 0.47624 0.03291 0.79381 0.0
C229 C 0.43585 0.09979 0.79013 0.0
C230 C 0.46325 0.12045 0.76162 0.0
C231 C 0.40559 0.0267 0.83421 0.0
H232 H 0.97236 0.02601 0.90775 0.0
H233 H 0.05412 0.00865 0.89162 0.0
H234 H 0.925 0.81751 0.8891 0.0
H235 H 0.84435 0.83376 0.90593 0.0
H236 H 0.52821 0.03395 0.75544 0.0
H237 H 0.48078 -0.00175 0.80584 0.0
H238 H 0.40854 0.11719 0.79897 0.0
H239 H 0.45583 0.15288 0.74912 0.0
H240 H 0.94078 0.04563 1.10875 0.0
H241 H 0.01931 -0.01736 0.17718 0.0
H242 H 0.043 0.1223 1.09163 0.0
H243 H 0.12099 0.0549 1.15797 0.0
H244 H 0.21028 0.25251 0.18223 0.0
H245 H 0.11051 0.18393 1.16039 0.0
H246 H 0.19518 0.13323 1.0921 0.0
H247 H 0.29564 0.20643 1.11215 0.0
C248 C -0.02035 0.04543 1.11872 0.0
C249 C -0.0272 0.00998 1.14493 0.0
C250 C 0.038 0.08899 1.10869 0.0
C251 C 0.08916 0.0944 1.12378 0.0
C252 C 0.0817 0.05102 1.14601 0.0
C253 C 0.02367 0.00966 1.157 0.0
C254 C 0.20784 0.23005 1.16126 0.0
C255 C 0.26001 0.2332 1.1493 0.0
C256 C 0.15093 0.19086 1.14875 0.0
C257 C 0.14581 0.15299 1.12502 0.0
C258 C 0.1984 0.16229 1.11033 0.0
C259 C 0.25568 0.20383 1.12199 0.0
H260 H 0.16012 0.03587 0.51848 0.0
H261 H 0.03388 0.95249 0.44414 0.0
H262 H 0.17935 0.13437 0.50081 0.0
H263 H 0.05001 0.05109 0.42783 0.0
H264 H 0.19318 0.2996 0.43952 0.0
H265 H 0.17647 0.20043 0.42682 0.0
H266 H 0.04324 0.11907 0.49894 0.0
H267 H 0.06306 0.2183 0.51307 0.0
C268 C 0.13884 0.03896 0.49751 0.0
C269 C 0.09433 -0.01329 0.48315 0.0
C270 C 0.14964 0.09514 0.48749 0.0
C271 C 0.11532 0.09949 0.4634 0.0
C272 C 0.0769 0.04842 0.44645 0.0
C273 C 0.0676 -0.00785 0.45591 0.0
C274 C 0.15846 0.26025 0.45178 0.0
C275 C 0.13039 0.26636 0.47775 0.0
C276 C 0.14881 0.20363 0.44437 0.0
C277 C 0.10905 0.15288 0.46212 0.0
C278 C 0.07401 0.15799 0.48496 0.0
C279 C 0.08515 0.21457 0.49299 0.0
H280 H 0.19233 0.0513 0.7833 0.0
H281 H 0.16821 0.09732 0.87388 0.0
H282 H 0.10649 0.06254 0.76514 0.0
H283 H 0.084 0.10797 0.85607 0.0
H284 H 0.00785 0.19656 0.77584 0.0
H285 H 0.07775 0.15964 0.76845 0.0
H286 H -0.02445 0.01565 0.83393 0.0
H287 H 0.90849 0.05497 0.84289 0.0
C288 C 0.17011 0.06564 0.79902 0.0
C289 C 0.18685 0.07373 0.83003 0.0
C290 C 0.12075 0.07121 0.78874 0.0
C291 C 0.08796 0.08432 0.80955 0.0
C292 C 0.10799 0.09671 0.8398 0.0
C293 C 0.1568 0.09158 0.84988 0.0
C294 C -0.00186 0.15491 0.78726 0.0
C295 C 0.95404 0.12931 0.81052 0.0
C296 C 0.03811 0.13369 0.7829 0.0
C297 C 0.03268 0.08597 0.80125 0.0
C298 C -0.01921 0.05306 0.8198 0.0
C299 C 0.94222 0.07533 0.82486 0.0
H300 H 0.40636 0.29494 1.0879 0.0
H301 H 0.5307 0.35292 1.01183 0.0
H302 H 0.32383 0.2232 1.0561 0.0
H303 H 0.44682 0.28367 0.97882 0.0
H304 H 0.29626 0.15488 0.92299 0.0
H305 H 0.37343 0.18687 0.96301 0.0
H306 H 0.26203 0.22704 1.02006 0.0
H307 H 0.18627 0.19483 0.98097 0.0
C308 C 0.41539 0.29289 1.06401 0.0
C309 C 0.47393 0.33031 1.05183 0.0
C310 C 0.36817 0.25186 1.04576 0.0
C311 C 0.37805 0.24806 1.01469 0.0
C312 C 0.43753 0.28453 1.00274 0.0
C313 C 0.48539 0.32498 1.02134 0.0
C314 C 0.2877 0.16867 0.94459 0.0
C315 C 0.23623 0.17434 0.94843 0.0
C316 C 0.33217 0.18767 0.96735 0.0
C317 C 0.32535 0.21202 0.99431 0.0
C318 C 0.26955 0.20891 0.9997 0.0
C319 C 0.22533 0.1899 0.97709 0.0
H320 H 0.05522 0.52579 0.37071 0.0
H321 H 0.24846 0.63885 0.35347 0.0
H322 H 0.03709 0.50653 0.31658 0.0
H323 H 0.23016 0.62122 0.29903 0.0
H324 H 0.17549 0.44101 0.24698 0.0
H325 H 0.20537 0.52215 0.28154 0.0
H326 H 0.04039 0.5242 0.26098 0.0
H327 H 0.01077 0.44314 0.22494 0.0
C328 C 0.09356 0.54838 0.35517 0.0
C329 C 0.15345 0.58173 0.36641 0.0
C330 C 0.08315 0.538 0.32401 0.0
C331 C 0.13255 0.5607 0.3036 0.0
C332 C 0.19137 0.60193 0.31434 0.0
C333 C 0.2018 0.61226 0.34556 0.0
C334 C 0.14663 0.46029 0.24837 0.0
C335 C 0.08955 0.43374 0.2337 0.0
C336 C 0.16402 0.50741 0.26842 0.0
C337 C 0.12458 0.52886 0.27461 0.0
C338 C 0.07116 0.50774 0.25713 0.0
C339 C 0.05403 0.46091 0.23667 0.0
H340 H 0.79882 0.27452 0.69318 0.0
H341 H 0.62548 0.11539 0.71463 0.0
H342 H 0.79864 0.23488 0.64421 0.0
H343 H 0.62288 0.07666 0.66429 0.0
H344 H 0.71776 -0.01355 0.61741 0.0
H345 H 0.67466 0.03126 0.64843 0.0
H346 H 0.77338 0.19792 0.59585 0.0
H347 H 0.82104 0.15428 0.56661 0.0
C348 C 0.75887 0.23236 0.68685 0.0
C349 C 0.71247 0.19773 0.70813 0.0
C350 C 0.75858 0.20938 0.65839 0.0
C351 C 0.7115 0.1514 0.65034 0.0
C352 C 0.66103 0.12049 0.67004 0.0
C353 C 0.66205 0.14296 0.69884 0.0
C354 C 0.72987 0.03252 0.61225 0.0
C355 C 0.77498 0.06755 0.59048 0.0
C356 C 0.70414 0.05817 0.62976 0.0
C357 C 0.72202 0.11928 0.62549 0.0
C358 C 0.7603 0.15148 0.60063 0.0
C359 C 0.78712 0.12613 0.58352 0.0
H360 H 0.62913 0.77161 1.02181 0.0
H361 H 0.6791 0.95354 1.04362 0.0
H362 H 0.67762 0.80723 0.9722 0.0
H363 H 0.72545 -0.01139 0.99338 0.0
H364 H 0.90923 0.00471 0.95337 0.0
H365 H 0.82472 -0.0077 0.98393 0.0
H366 H 0.69673 0.86084 0.92115 0.0
H367 H 0.78165 0.87461 0.88991 0.0
C368 C 0.64822 0.81873 1.0155 0.0
C369 C 0.65177 0.85992 1.0369 0.0
C370 C 0.67552 0.83916 0.98693 0.0
C371 C 0.70677 0.90112 0.97934 0.0
C372 C 0.70286 0.94092 0.99907 0.0
C373 C 0.6757 0.92055 1.0277 0.0
C374 C 0.86318 -0.02466 0.94522 0.0
C375 C 0.85209 0.93907 0.91984 0.0
C376 C 0.81452 0.96821 0.96276 0.0
C377 C 0.75412 0.92439 0.95527 0.0
C378 C 0.74288 0.89409 0.92769 0.0
C379 C 0.79152 0.90175 0.90997 0.0
H380 H 0.95196 0.59311 0.36696 0.0
H381 H 0.13839 0.70867 0.39598 0.0
H382 H -0.01531 0.61559 0.31377 0.0
H383 H 0.17089 0.73128 0.3432 0.0
H384 H 0.22182 0.79857 0.25137 0.0
H385 H 0.18262 0.7155 0.28885 0.0
H386 H 0.01375 0.71587 0.29321 0.0
H387 H 0.05282 0.79896 0.25721 0.0
C388 C 0.00017 0.62165 0.36198 0.0
C389 C 0.04231 0.65085 0.38557 0.0
C390 C 0.01891 0.63437 0.33154 0.0
C391 C 0.08 0.67675 0.32428 0.0
C392 C 0.12337 0.69871 0.34792 0.0
C393 C 0.10466 0.68586 0.37834 0.0
C394 C 0.17578 0.78 0.25984 0.0
C395 C 0.1415 0.80725 0.25197 0.0
C396 C 0.15323 0.73205 0.28112 0.0
C397 C 0.09564 0.70994 0.29451 0.0
C398 C 0.05826 0.73149 0.28334 0.0
C399 C 0.08096 0.77969 0.26247 0.0
H400 H 0.47725 0.01678 0.70388 0.0
H401 H 0.55451 0.20663 0.71968 0.0
H402 H 0.48087 0.03604 0.64902 0.0
H403 H 0.55656 0.22576 0.665 0.0
H404 H 0.361 0.08987 0.58727 0.0
H405 H 0.40797 0.05984 0.626 0.0
H406 H 0.58036 0.22445 0.61059 0.0
H407 H 0.53344 0.25431 0.57034 0.0
C408 C 0.49697 0.0629 0.69559 0.0
C409 C 0.514 0.11007 0.71598 0.0
C410 C 0.49891 0.0739 0.66417 0.0
C411 C 0.51753 0.13212 0.65269 0.0
C412 C 0.54185 0.18032 0.67301 0.0
C413 C 0.53988 0.16933 0.7044 0.0
C414 C 0.40964 0.11867 0.5907 0.0
C415 C 0.44273 0.17572 0.57621 0.0
C416 C 0.43684 0.1012 0.61319 0.0
C417 C 0.4976 0.14051 0.62197 0.0
C418 C 0.53302 0.19384 0.60475 0.0
C419 C 0.50592 0.21107 0.58185 0.0
H420 H 0.4439 0.06881 0.20616 0.0
H421 H 0.57437 0.24726 0.23744 0.0
H422 H 0.52261 0.04198 0.20844 0.0
H423 H 0.65265 0.21995 0.24032 0.0
H424 H 0.78946 0.17359 0.19832 0.0
H425 H 0.7117 0.20091 0.20412 0.0
H426 H 0.58758 0.02342 0.24194 0.0
H427 H 0.66461 -0.00433 0.23555 0.0
C428 C 0.48905 0.10198 0.21403 0.0
C429 C 0.50291 0.16029 0.22139 0.0
C430 C 0.53418 0.08653 0.21546 0.0
C431 C 0.59411 0.129 0.22437 0.0
C432 C 0.60726 0.18654 0.23287 0.0
C433 C 0.56219 0.20201 0.23141 0.0
C434 C 0.74584 0.14065 0.20819 0.0
C435 C 0.73311 0.08232 0.2162 0.0
C436 C 0.7013 0.15637 0.21165 0.0
C437 C 0.64319 0.11414 0.22328 0.0
C438 C 0.63144 0.05663 0.2324 0.0
C439 C 0.67583 0.04089 0.22889 0.0
H440 H 0.44414 0.60806 0.52085 0.0
H441 H 0.46801 0.46355 0.55567 0.0
H442 H 0.55342 0.67857 0.52598 0.0
H443 H 0.57657 0.53421 0.56221 0.0
H444 H 0.77457 0.656 0.53267 0.0
H445 H 0.66503 0.58735 0.53326 0.0
H446 H 0.63839 0.73352 0.55767 0.0
H447 H 0.7485 0.80298 0.55572 0.0
C448 C 0.47256 0.59155 0.53013 0.0
C449 C 0.44736 0.53005 0.53759 0.0
C450 C 0.53538 0.63211 0.53325 0.0
C451 C 0.5745 0.61234 0.5443 0.0
C452 C 0.54854 0.55112 0.55289 0.0
C453 C 0.48601 0.5105 0.54934 0.0
C454 C 0.74552 0.67353 0.5385 0.0
C455 C 0.77059 0.73518 0.5441 0.0
C456 C 0.68233 0.6339 0.539 0.0
C457 C 0.6422 0.6545 0.5455 0.0
C458 C 0.66748 0.71596 0.55201 0.0
C459 C 0.73081 0.75583 0.55115 0.0
H460 H 0.15855 0.48032 0.86019 0.0
H461 H -0.01931 0.45698 0.87608 0.0
H462 H 0.20539 0.58888 0.86642 0.0
H463 H 0.02717 0.56508 0.88152 0.0
H464 H 0.12425 0.75368 0.91324 0.0
H465 H 0.08987 0.64675 0.91408 0.0
H466 H 0.21308 0.67612 0.84011 0.0
H467 H 0.24889 0.7839 0.83992 0.0
C468 C 0.1294 0.4982 0.86512 0.0
C469 C 0.06575 0.45973 0.86764 0.0
C470 C 0.1563 0.56056 0.86851 0.0
C471 C 0.12019 0.58591 0.87454 0.0
C472 C 0.05665 0.54721 0.87745 0.0
C473 C 0.02984 0.48503 0.87411 0.0
C474 C 0.1447 0.73753 0.89742 0.0
C475 C 0.18889 0.77725 0.8763 0.0
C476 C 0.12464 0.67606 0.89777 0.0
C477 C 0.14774 0.65245 0.87677 0.0
C478 C 0.19443 0.69269 0.85672 0.0
C479 C 0.21497 0.75453 0.85656 0.0
H480 H 0.41545 0.38651 0.26793 0.0
H481 H 0.33002 0.20464 0.30456 0.0
H482 H 0.40076 0.42096 0.31711 0.0
H483 H 0.31454 0.23838 0.35289 0.0
H484 H 0.34424 0.31718 0.44617 0.0
H485 H 0.36531 0.29144 0.39686 0.0
H486 H 0.32766 0.42041 0.35297 0.0
H487 H 0.30733 0.44723 0.40299 0.0
C488 C 0.39369 0.35378 0.28636 0.0
C489 C 0.37449 0.29261 0.28192 0.0
C490 C 0.38479 0.37353 0.31466 0.0
C491 C 0.35675 0.33286 0.33956 0.0
C492 C 0.33746 0.27178 0.33486 0.0
C493 C 0.34611 0.25216 0.30676 0.0
C494 C 0.34073 0.3407 0.42618 0.0
C495 C 0.32384 0.38456 0.42905 0.0
C496 C 0.35242 0.32536 0.39756 0.0
C497 C 0.34762 0.35295 0.37035 0.0
C498 C 0.33233 0.39811 0.37316 0.0
C499 C 0.32048 0.41353 0.402 0.0
H500 H 0.23773 0.35741 0.62708 0.0
H501 H 0.12911 0.43056 0.59281 0.0
H502 H 0.18936 0.33886 0.67644 0.0
H503 H 0.08109 0.41331 0.64325 0.0
H504 H 0.14217 0.36106 0.77073 0.0
H505 H 0.18649 0.38572 0.72025 0.0
H506 H 0.01209 0.34125 0.68175 0.0
H507 H 0.96747 0.31781 0.73334 0.0
C508 C 0.20393 0.37039 0.63005 0.0
C509 C 0.18822 0.39619 0.60553 0.0
C510 C 0.17607 0.35994 0.65879 0.0
C511 C 0.13128 0.37509 0.66459 0.0
C512 C 0.11499 0.40058 0.64001 0.0
C513 C 0.14303 0.41102 0.61099 0.0
C514 C 0.1128 0.35658 0.75168 0.0
C515 C 0.05069 0.33674 0.75655 0.0
C516 C 0.13844 0.37043 0.72234 0.0
C517 C 0.10316 0.36451 0.69622 0.0
C518 C 0.04126 0.34665 0.70102 0.0
C519 C 0.01544 0.33305 0.73074 0.0
H520 H 0.83408 0.16953 0.93606 0.0
H521 H 0.02504 0.2459 0.95697 0.0
H522 H 0.80789 0.12932 0.98852 0.0
H523 H -0.00075 0.2053 1.00868 0.0
H524 H 0.94717 0.17788 1.10832 0.0
H525 H 0.96683 0.2163 1.05614 0.0
H526 H 0.80095 0.0584 1.02724 0.0
H527 H 0.78036 0.02002 1.08016 0.0
C528 C 0.87065 0.17804 0.95173 0.0
C529 C 0.93197 0.21203 0.94183 0.0
C530 C 0.85554 0.15442 0.98201 0.0
C531 C 0.90117 0.16414 1.00366 0.0
C532 C 0.96231 0.19757 0.99346 0.0
C533 C -0.02271 0.22089 0.96336 0.0
C534 C 0.91425 0.1511 1.09105 0.0
C535 C 0.86183 0.09548 1.09908 0.0
C536 C 0.92602 0.17313 1.06067 0.0
C537 C 0.88612 0.14061 1.03664 0.0
C538 C 0.83288 0.08542 1.04471 0.0
C539 C 0.82099 0.0632 1.0753 0.0
H540 H 0.91444 0.04512 0.29696 0.0
H541 H 0.80892 0.85858 0.27155 0.0
H542 H 0.92818 0.01504 0.34775 0.0
H543 H 0.82153 0.82787 0.32333 0.0
H544 H 0.90521 0.79807 0.41376 0.0
H545 H 0.88784 0.82208 0.36144 0.0
H546 H 0.88059 -0.02555 0.39431 0.0
H547 H 0.89916 0.9515 0.44582 0.0
C548 C 0.89351 -0.00265 0.30215 0.0
C549 C 0.86006 0.95457 0.27963 0.0
C550 C 0.90115 -0.02014 0.33175 0.0
C551 C 0.87551 0.91861 0.34047 0.0
C552 C 0.84249 0.87552 0.31787 0.0
C553 C 0.83484 0.89317 0.28801 0.0
C554 C 0.8995 0.83648 0.40986 0.0
C555 C 0.90383 0.87265 0.43451 0.0
C556 C 0.88931 0.8503 0.37965 0.0
C557 C 0.88328 0.90093 0.37295 0.0
C558 C 0.88629 0.93598 0.39784 0.0
C559 C 0.89646 0.9223 0.42781 0.0
H560 H 0.01652 0.9366 0.62752 0.0
H561 H 0.03737 0.78277 0.61584 0.0
H562 H 0.06329 0.95215 0.67817 0.0
H563 H 0.08194 0.79705 0.66738 0.0
H564 H 0.07917 0.82053 0.7799 0.0
H565 H 0.0357 0.80093 0.72816 0.0
H566 H 0.18206 -0.02533 0.69755 0.0
H567 H 0.22718 -0.00674 0.74879 0.0
C568 C 0.03043 0.90556 0.63579 0.0
C569 C 0.02268 0.85818 0.61725 0.0
C570 C 0.0576 0.91476 0.66492 0.0
C571 C 0.07649 0.87592 0.67709 0.0
C572 C 0.06788 0.82783 0.65888 0.0
C573 C 0.04234 0.81969 0.62924 0.0
C574 C 0.10266 0.85434 0.76211 0.0
C575 C 0.15718 0.90849 0.76886 0.0
C576 C 0.07765 0.84299 0.73234 0.0
C577 C 0.10518 0.88615 0.70849 0.0
C578 C 0.1595 0.9403 0.71522 0.0
C579 C 0.18554 0.95086 0.74471 0.0
H580 H 0.36843 0.0441 0.94938 0.0
H581 H 0.18514 0.00256 0.96771 0.0
H582 H 0.39957 0.08453 1.00059 0.0
H583 H 0.21632 0.0452 1.01801 0.0
H584 H 0.2655 0.07554 1.11723 0.0
H585 H 0.23986 0.03418 1.06683 0.0
H586 H 0.42457 0.15809 1.03705 0.0
H587 H 0.45076 0.19896 1.08859 0.0
C588 C 0.33456 0.04354 0.96424 0.0
C589 C 0.27371 0.01874 0.95406 0.0
C590 C 0.35265 0.06736 0.99385 0.0
C591 C 0.31082 0.06804 1.0145 0.0
C592 C 0.25024 0.04424 1.00387 0.0
C593 C 0.23209 0.01982 0.97452 0.0
C594 C 0.30129 0.09412 1.1002 0.0
C595 C 0.36055 0.14131 1.10761 0.0
C596 C 0.2861 0.07054 1.07067 0.0
C597 C 0.32929 0.09273 1.04678 0.0
C598 C 0.3894 0.13875 1.05437 0.0
C599 C 0.40464 0.16276 1.08416 0.0
loop_
_geom_bond_atom_site_label_1
_geom_bond_atom_site_label_2
_geom_bond_distance
_geom_bond_site_symmetry_2
_ccdc_geom_bond_type
Tb0 C10 2.825 . S
Tb0 O11 2.347 . S
Tb0 O14 2.366 . S
Tb0 O19 2.418 . S
Tb0 O20 2.384 1_554 S
Tb0 O23 2.479 . S
Tb0 O24 2.471 . S
Eu1 O12 2.418 . S
Eu1 O13 2.384 1_556 S
Eu1 O16 2.479 . S
Eu1 O17 2.471 . S
Eu1 O18 2.358 . S
Eu1 O21 2.366 . S
Eu1 C31 2.825 . S
C2 O18 1.245 1_554 S
C2 O19 1.265 . S
C3 O20 1.255 . S
C3 O21 1.265 . S
C4 C6 1.380 . S
C4 C7 1.374 . S
C4 C10 1.507 . S
C5 C6 1.384 . S
C5 C9 1.387 . S
C5 H32 0.930 . S
C6 C4 1.380 . S
C6 C5 1.384 . S
C6 H33 0.931 . S
C7 C4 1.374 . S
C7 C8 1.390 . S
C7 H34 0.930 . S
C8 C7 1.390 . S
C8 C9 1.391 . S
C8 H35 0.930 . S
C9 C5 1.387 . S
C9 C8 1.391 . S
C10 Tb0 2.825 . S
C10 C4 1.507 . S
C10 O23 1.238 . S
C10 O24 1.247 . S
O11 Tb0 2.347 . S
O11 C15 1.259 . S
O12 Eu1 2.418 . S
O12 C15 1.265 1_556 S
O13 Eu1 2.384 1_554 S
O13 C22 1.255 . S
O14 Tb0 2.366 . S
O14 C22 1.265 . S
C15 O11 1.259 . S
C15 O12 1.265 1_554 S
O16 Eu1 2.479 . S
O16 C31 1.238 . S
O17 Eu1 2.471 . S
O17 C31 1.247 . S
O18 Eu1 2.358 . S
O18 C2 1.245 1_556 S
O19 Tb0 2.418 . S
O19 C2 1.265 . S
O20 Tb0 2.384 1_556 S
O20 C3 1.255 . S
O21 Eu1 2.366 . S
O21 C3 1.265 . S
C22 O13 1.255 . S
C22 O14 1.265 . S
O23 Tb0 2.479 . S
O23 C10 1.238 . S
O24 Tb0 2.471 . S
O24 C10 1.247 . S
C25 C28 1.380 . S
C25 C29 1.374 . S
C25 C31 1.507 . S
C26 C27 1.387 . S
C26 C30 1.391 . S
C27 C26 1.387 . S
C27 C28 1.384 . S
C27 H36 0.930 . S
C28 C25 1.380 . S
C28 C27 1.384 . S
C28 H37 0.931 . S
C29 C25 1.374 . S
C29 C30 1.390 . S
C29 H38 0.930 . S
C30 C26 1.391 . S
C30 C29 1.390 . S
C30 H39 0.930 . S
C31 Eu1 2.825 . S
C31 O16 1.238 . S
C31 O17 1.247 . S
C31 C25 1.507 . S
H32 C5 0.930 . S
H33 C6 0.931 . S
H34 C7 0.930 . S
H35 C8 0.930 . S
H36 C27 0.930 . S
H37 C28 0.931 . S
H38 C29 0.930 . S
H39 C30 0.930 . S
Tb40 C50 2.825 . S
Tb40 O51 2.347 . S
Tb40 O54 2.366 . S
Tb40 O59 2.418 . S
Tb40 O60 2.384 . S
Tb40 O63 2.479 . S
Tb40 O64 2.471 . S
Eu41 O52 2.418 . S
Eu41 O53 2.384 . S
Eu41 O56 2.479 . S
Eu41 O57 2.471 . S
Eu41 O58 2.347 . S
Eu41 O61 2.366 . S
Eu41 C71 2.825 . S
C42 O58 1.259 . S
C42 O59 1.265 . S
C43 O60 1.255 . S
C43 O61 1.265 . S
C44 C46 1.380 . S
C44 C47 1.374 . S
C44 C50 1.507 . S
C45 C46 1.384 . S
C45 C49 1.387 . S
C45 H72 0.930 . S
C46 C44 1.380 . S
C46 C45 1.384 . S
C46 H73 0.931 . S
C47 C44 1.374 . S
C47 C48 1.390 . S
C47 H74 0.930 . S
C48 C47 1.390 . S
C48 C49 1.391 . S
C48 H75 0.930 . S
C49 C45 1.387 . S
C49 C48 1.391 . S
C50 Tb40 2.825 . S
C50 C44 1.507 . S
C50 O63 1.238 . S
C50 O64 1.247 . S
O51 Tb40 2.347 . S
O51 C55 1.259 . S
O52 Eu41 2.418 . S
O52 C55 1.265 . S
O53 Eu41 2.384 . S
O53 C62 1.255 . S
O54 Tb40 2.366 . S
O54 C62 1.265 . S
C55 O51 1.259 . S
C55 O52 1.265 . S
O56 Eu41 2.479 . S
O56 C71 1.238 . S
O57 Eu41 2.471 . S
O57 C71 1.247 . S
O58 Eu41 2.347 . S
O58 C42 1.259 . S
O59 Tb40 2.418 . S
O59 C42 1.265 . S
O60 Tb40 2.384 . S
O60 C43 1.255 . S
O61 Eu41 2.366 . S
O61 C43 1.265 . S
C62 O53 1.255 . S
C62 O54 1.265 . S
O63 Tb40 2.479 . S
O63 C50 1.238 . S
O64 Tb40 2.471 . S
O64 C50 1.247 . S
C65 C68 1.380 . S
C65 C69 1.374 . S
C65 C71 1.507 . S
C66 C67 1.387 . S
C66 C70 1.391 . S
C67 C66 1.387 . S
C67 C68 1.384 . S
C67 H76 0.930 . S
C68 C65 1.380 . S
C68 C67 1.384 . S
C68 H77 0.931 . S
C69 C65 1.374 . S
C69 C70 1.390 . S
C69 H78 0.930 . S
C70 C66 1.391 . S
C70 C69 1.390 . S
C70 H79 0.930 . S
C71 Eu41 2.825 . S
C71 O56 1.238 . S
C71 O57 1.247 . S
C71 C65 1.507 . S
H72 C45 0.930 . S
H73 C46 0.931 . S
H74 C47 0.930 . S
H75 C48 0.930 . S
H76 C67 0.930 . S
H77 C68 0.931 . S
H78 C69 0.930 . S
H79 C70 0.930 . S
Tb80 C90 2.825 . S
Tb80 O91 2.347 . S
Tb80 O94 2.366 . S
Tb80 O99 2.418 . S
Tb80 O100 2.384 . S
Tb80 O103 2.479 . S
Tb80 O104 2.471 . S
Eu81 O92 2.418 . S
Eu81 O93 2.384 . S
Eu81 O96 2.479 . S
Eu81 O97 2.471 . S
Eu81 O98 2.347 . S
Eu81 O101 2.366 1_655 S
Eu81 C111 2.825 . S
C82 O98 1.259 1_455 S
C82 O99 1.265 . S
C83 O100 1.255 . S
C83 O101 1.265 . S
C84 C86 1.380 . S
C84 C87 1.374 . S
C84 C90 1.507 . S
C85 C86 1.384 . S
C85 C89 1.387 . S
C85 H112 0.930 . S
C86 C84 1.380 . S
C86 C85 1.384 . S
C86 H113 0.931 . S
C87 C84 1.374 . S
C87 C88 1.390 . S
C87 H114 0.930 . S
C88 C87 1.390 . S
C88 C89 1.391 . S
C88 H115 0.930 . S
C89 C85 1.387 . S
C89 C88 1.391 . S
C90 Tb80 2.825 . S
C90 C84 1.507 . S
C90 O103 1.238 . S
C90 O104 1.247 . S
O91 Tb80 2.347 . S
O91 C95 1.259 1_455 S
O92 Eu81 2.418 . S
O92 C95 1.265 . S
O93 Eu81 2.384 . S
O93 C102 1.255 . S
O94 Tb80 2.366 . S
O94 C102 1.265 1_455 S
C95 O91 1.259 1_655 S
C95 O92 1.265 . S
O96 Eu81 2.479 . S
O96 C111 1.238 . S
O97 Eu81 2.471 . S
O97 C111 1.247 . S
O98 Eu81 2.347 . S
O98 C82 1.259 1_655 S
O99 Tb80 2.418 . S
O99 C82 1.265 . S
O100 Tb80 2.384 . S
O100 C83 1.255 . S
O101 Eu81 2.366 1_455 S
O101 C83 1.265 . S
C102 O93 1.255 . S
C102 O94 1.265 1_655 S
O103 Tb80 2.479 . S
O103 C90 1.238 . S
O104 Tb80 2.471 . S
O104 C90 1.247 . S
C105 C108 1.380 . S
C105 C109 1.374 . S
C105 C111 1.507 . S
C106 C107 1.387 . S
C106 C110 1.391 . S
C107 C106 1.387 . S
C107 C108 1.384 . S
C107 H116 0.930 . S
C108 C105 1.380 . S
C108 C107 1.384 . S
C108 H117 0.931 . S
C109 C105 1.374 . S
C109 C110 1.390 . S
C109 H118 0.930 . S
C110 C106 1.391 . S
C110 C109 1.390 . S
C110 H119 0.930 . S
C111 Eu81 2.825 . S
C111 O96 1.238 . S
C111 O97 1.247 . S
C111 C105 1.507 . S
H112 C85 0.930 . S
H113 C86 0.931 . S
H114 C87 0.930 . S
H115 C88 0.930 . S
H116 C107 0.930 . S
H117 C108 0.931 . S
H118 C109 0.930 . S
H119 C110 0.930 . S
Tb120 C130 2.825 . S
Tb120 O131 2.347 . S
Tb120 O134 2.366 . S
Tb120 O139 2.418 . S
Tb120 O140 2.384 1_554 S
Tb120 O143 2.479 . S
Tb120 O144 2.471 . S
Eu121 O132 2.418 . S
Eu121 O133 2.384 1_556 S
Eu121 O136 2.479 . S
Eu121 O137 2.471 . S
Eu121 O138 2.358 1_565 S
Eu121 O141 2.366 1_565 S
Eu121 C151 2.825 . S
C122 O138 1.245 1_554 S
C122 O139 1.265 . S
C123 O140 1.255 . S
C123 O141 1.265 . S
C124 C126 1.380 . S
C124 C127 1.374 . S
C124 C130 1.507 . S
C125 C126 1.384 . S
C125 C129 1.387 . S
C125 H152 0.930 . S
C126 C124 1.380 . S
C126 C125 1.384 . S
C126 H153 0.931 . S
C127 C124 1.374 . S
C127 C128 1.390 . S
C127 H154 0.930 . S
C128 C127 1.390 . S
C128 C129 1.391 . S
C128 H155 0.930 . S
C129 C125 1.387 . S
C129 C128 1.391 . S
C130 Tb120 2.825 . S
C130 C124 1.507 . S
C130 O143 1.238 . S
C130 O144 1.247 . S
O131 Tb120 2.347 . S
O131 C135 1.259 1_545 S
O132 Eu121 2.418 . S
O132 C135 1.265 1_556 S
O133 Eu121 2.384 1_554 S
O133 C142 1.255 . S
O134 Tb120 2.366 . S
O134 C142 1.265 1_545 S
C135 O131 1.259 1_565 S
C135 O132 1.265 1_554 S
O136 Eu121 2.479 . S
O136 C151 1.238 . S
O137 Eu121 2.471 . S
O137 C151 1.247 . S
O138 Eu121 2.358 1_545 S
O138 C122 1.245 1_556 S
O139 Tb120 2.418 . S
O139 C122 1.265 . S
O140 Tb120 2.384 1_556 S
O140 C123 1.255 . S
O141 Eu121 2.366 1_545 S
O141 C123 1.265 . S
C142 O133 1.255 . S
C142 O134 1.265 1_565 S
O143 Tb120 2.479 . S
O143 C130 1.238 . S
O144 Tb120 2.471 . S
O144 C130 1.247 . S
C145 C148 1.380 . S
C145 C149 1.374 . S
C145 C151 1.507 . S
C146 C147 1.387 . S
C146 C150 1.391 . S
C147 C146 1.387 . S
C147 C148 1.384 . S
C147 H156 0.930 . S
C148 C145 1.380 . S
C148 C147 1.384 . S
C148 H157 0.931 . S
C149 C145 1.374 . S
C149 C150 1.390 . S
C149 H158 0.930 . S
C150 C146 1.391 . S
C150 C149 1.390 . S
C150 H159 0.930 . S
C151 Eu121 2.825 . S
C151 O136 1.238 . S
C151 O137 1.247 . S
C151 C145 1.507 . S
H152 C125 0.930 . S
H153 C126 0.931 . S
H154 C127 0.930 . S
H155 C128 0.930 . S
H156 C147 0.930 . S
H157 C148 0.931 . S
H158 C149 0.930 . S
H159 C150 0.930 . S
Tb160 C170 2.825 . S
Tb160 O171 2.347 . S
Tb160 O174 2.366 . S
Tb160 O179 2.418 1_655 S
Tb160 O180 2.384 . S
Tb160 O183 2.479 . S
Tb160 O184 2.471 . S
Eu161 O172 2.418 1_455 S
Eu161 O173 2.384 . S
Eu161 O176 2.479 . S
Eu161 O177 2.471 . S
Eu161 O178 2.347 . S
Eu161 O181 2.366 1_455 S
Eu161 C191 2.825 . S
C162 O178 1.259 . S
C162 O179 1.265 . S
C163 O180 1.255 . S
C163 O181 1.265 . S
C164 C166 1.380 . S
C164 C167 1.374 . S
C164 C170 1.507 . S
C165 C166 1.384 . S
C165 C169 1.387 . S
C165 H192 0.930 . S
C166 C164 1.380 . S
C166 C165 1.384 . S
C166 H193 0.931 . S
C167 C164 1.374 . S
C167 C168 1.390 . S
C167 H194 0.930 . S
C168 C167 1.390 . S
C168 C169 1.391 . S
C168 H195 0.930 . S
C169 C165 1.387 . S
C169 C168 1.391 . S
C170 Tb160 2.825 . S
C170 C164 1.507 . S
C170 O183 1.238 . S
C170 O184 1.247 . S
O171 Tb160 2.347 . S
O171 C175 1.259 . S
O172 Eu161 2.418 1_655 S
O172 C175 1.265 . S
O173 Eu161 2.384 . S
O173 C182 1.255 . S
O174 Tb160 2.366 . S
O174 C182 1.265 1_655 S
C175 O171 1.259 . S
C175 O172 1.265 . S
O176 Eu161 2.479 . S
O176 C191 1.238 . S
O177 Eu161 2.471 . S
O177 C191 1.247 . S
O178 Eu161 2.347 . S
O178 C162 1.259 . S
O179 Tb160 2.418 1_455 S
O179 C162 1.265 . S
O180 Tb160 2.384 . S
O180 C163 1.255 . S
O181 Eu161 2.366 1_655 S
O181 C163 1.265 . S
C182 O173 1.255 . S
C182 O174 1.265 1_455 S
O183 Tb160 2.479 . S
O183 C170 1.238 . S
O184 Tb160 2.471 . S
O184 C170 1.247 . S
C185 C188 1.380 . S
C185 C189 1.374 . S
C185 C191 1.507 . S
C186 C187 1.387 . S
C186 C190 1.391 . S
C187 C186 1.387 . S
C187 C188 1.384 . S
C187 H196 0.930 . S
C188 C185 1.380 . S
C188 C187 1.384 . S
C188 H197 0.931 . S
C189 C185 1.374 . S
C189 C190 1.390 . S
C189 H198 0.930 . S
C190 C186 1.391 . S
C190 C189 1.390 . S
C190 H199 0.930 . S
C191 Eu161 2.825 . S
C191 O176 1.238 . S
C191 O177 1.247 . S
C191 C185 1.507 . S
H192 C165 0.930 . S
H193 C166 0.931 . S
H194 C167 0.930 . S
H195 C168 0.930 . S
H196 C187 0.930 . S
H197 C188 0.931 . S
H198 C189 0.930 . S
H199 C190 0.930 . S
Tb200 C210 2.825 . S
Tb200 O211 2.347 . S
Tb200 O214 2.366 . S
Tb200 O219 2.418 1_565 S
Tb200 O220 2.384 . S
Tb200 O223 2.479 . S
Tb200 O224 2.471 . S
Eu201 O212 2.418 1_545 S
Eu201 O213 2.384 . S
Eu201 O216 2.479 . S
Eu201 O217 2.471 . S
Eu201 O218 2.347 . S
Eu201 O221 2.366 1_545 S
Eu201 C231 2.825 . S
C202 O218 1.259 . S
C202 O219 1.265 . S
C203 O220 1.255 . S
C203 O221 1.265 . S
C204 C206 1.380 . S
C204 C207 1.374 . S
C204 C210 1.507 . S
C205 C206 1.384 . S
C205 C209 1.387 . S
C205 H232 0.930 . S
C206 C204 1.380 . S
C206 C205 1.384 . S
C206 H233 0.931 . S
C207 C204 1.374 . S
C207 C208 1.390 . S
C207 H234 0.930 . S
C208 C207 1.390 . S
C208 C209 1.391 . S
C208 H235 0.930 . S
C209 C205 1.387 . S
C209 C208 1.391 . S
C210 Tb200 2.825 . S
C210 C204 1.507 . S
C210 O223 1.238 . S
C210 O224 1.247 . S
O211 Tb200 2.347 . S
O211 C215 1.259 . S
O212 Eu201 2.418 1_565 S
O212 C215 1.265 . S
O213 Eu201 2.384 . S
O213 C222 1.255 . S
O214 Tb200 2.366 . S
O214 C222 1.265 1_565 S
C215 O211 1.259 . S
C215 O212 1.265 . S
O216 Eu201 2.479 . S
O216 C231 1.238 . S
O217 Eu201 2.471 . S
O217 C231 1.247 . S
O218 Eu201 2.347 . S
O218 C202 1.259 . S
O219 Tb200 2.418 1_545 S
O219 C202 1.265 . S
O220 Tb200 2.384 . S
O220 C203 1.255 . S
O221 Eu201 2.366 1_565 S
O221 C203 1.265 . S
C222 O213 1.255 . S
C222 O214 1.265 1_545 S
O223 Tb200 2.479 . S
O223 C210 1.238 . S
O224 Tb200 2.471 . S
O224 C210 1.247 . S
C225 C228 1.380 . S
C225 C229 1.374 . S
C225 C231 1.507 . S
C226 C227 1.387 . S
C226 C230 1.391 . S
C227 C226 1.387 . S
C227 C228 1.384 . S
C227 H236 0.930 . S
C228 C225 1.380 . S
C228 C227 1.384 . S
C228 H237 0.931 . S
C229 C225 1.374 . S
C229 C230 1.390 . S
C229 H238 0.930 . S
C230 C226 1.391 . S
C230 C229 1.390 . S
C230 H239 0.930 . S
C231 Eu201 2.825 . S
C231 O216 1.238 . S
C231 O217 1.247 . S
C231 C225 1.507 . S
H232 C205 0.930 . S
H233 C206 0.931 . S
H234 C207 0.930 . S
H235 C208 0.930 . S
H236 C227 0.930 . S
H237 C228 0.931 . S
H238 C229 0.930 . S
H239 C230 0.930 . S
H240 C248 0.950 1_665 S
H241 C253 0.950 . S
H242 C250 0.950 . S
H243 C252 0.950 . S
H244 C254 0.950 . S
H245 C256 0.950 . S
H246 C258 0.950 . S
H247 C259 0.950 . S
C248 H240 0.950 1_445 S
C248 C249 1.386 1_456 S
C248 C250 1.391 . S
C249 C248 1.386 1_654 S
C249 C253 1.393 . S
C250 H242 0.950 . S
C250 C248 1.391 . S
C250 C251 1.400 1_556 S
C251 C250 1.400 1_554 S
C251 C252 1.398 . S
C251 C257 1.491 . S
C252 H243 0.950 . S
C252 C251 1.398 . S
C252 C253 1.391 1_455 S
C253 H241 0.950 . S
C253 C249 1.393 . S
C253 C252 1.391 1_655 S
C254 H244 0.950 . S
C254 C255 1.386 . S
C254 C256 1.391 . S
C255 C254 1.386 . S
C255 C259 1.393 1_554 S
C256 H245 0.950 . S
C256 C254 1.391 . S
C256 C257 1.400 . S
C257 C251 1.491 . S
C257 C256 1.400 . S
C257 C258 1.398 1_554 S
C258 H246 0.950 . S
C258 C257 1.398 1_556 S
C258 C259 1.391 . S
C259 H247 0.950 . S
C259 C255 1.393 1_556 S
C259 C258 1.391 . S
H260 C268 0.950 . S
H261 C273 0.950 1_565 S
H262 C270 0.950 . S
H263 C272 0.950 . S
H264 C274 0.950 . S
H265 C276 0.950 . S
H266 C278 0.950 . S
H267 C279 0.950 . S
C268 H260 0.950 . S
C268 C269 1.386 1_545 S
C268 C270 1.391 . S
C269 C268 1.386 1_565 S
C269 C273 1.393 1_565 S
C270 H262 0.950 . S
C270 C268 1.391 . S
C270 C271 1.400 . S
C271 C270 1.400 . S
C271 C272 1.398 . S
C271 C277 1.491 . S
C272 H263 0.950 . S
C272 C271 1.398 . S
C272 C273 1.391 . S
C273 H261 0.950 1_545 S
C273 C269 1.393 1_545 S
C273 C272 1.391 . S
C274 H264 0.950 . S
C274 C275 1.386 . S
C274 C276 1.391 . S
C275 C274 1.386 . S
C275 C279 1.393 . S
C276 H265 0.950 . S
C276 C274 1.391 . S
C276 C277 1.400 . S
C277 C271 1.491 . S
C277 C276 1.400 . S
C277 C278 1.398 . S
C278 H266 0.950 . S
C278 C277 1.398 . S
C278 C279 1.391 . S
C279 H267 0.950 . S
C279 C275 1.393 . S
C279 C278 1.391 . S
H280 C288 0.950 . S
H281 C293 0.950 . S
H282 C290 0.950 . S
H283 C292 0.950 . S
H284 C294 0.950 . S
H285 C296 0.950 . S
H286 C298 0.950 . S
H287 C299 0.951 . S
C288 H280 0.950 . S
C288 C289 1.386 . S
C288 C290 1.391 . S
C289 C288 1.386 . S
C289 C293 1.393 . S
C290 H282 0.950 . S
C290 C288 1.391 . S
C290 C291 1.400 . S
C291 C290 1.400 . S
C291 C292 1.398 . S
C291 C297 1.491 . S
C292 H283 0.950 . S
C292 C291 1.398 . S
C292 C293 1.391 . S
C293 H281 0.950 . S
C293 C289 1.393 . S
C293 C292 1.391 . S
C294 H284 0.950 . S
C294 C295 1.386 . S
C294 C296 1.391 . S
C295 C294 1.386 . S
C295 C299 1.393 1_455 S
C296 H285 0.950 . S
C296 C294 1.391 . S
C296 C297 1.400 . S
C297 C291 1.491 . S
C297 C296 1.400 . S
C297 C298 1.398 . S
C298 H286 0.950 . S
C298 C297 1.398 . S
C298 C299 1.388 1_455 S
C299 H287 0.951 . S
C299 C295 1.393 1_655 S
C299 C298 1.388 1_655 S
H300 C308 0.950 . S
H301 C313 0.950 . S
H302 C310 0.950 . S
H303 C312 0.950 . S
H304 C314 0.950 . S
H305 C316 0.950 . S
H306 C318 0.950 . S
H307 C319 0.950 . S
C308 H300 0.950 . S
C308 C309 1.386 . S
C308 C310 1.391 . S
C309 C308 1.386 . S
C309 C313 1.393 . S
C310 H302 0.950 . S
C310 C308 1.391 . S
C310 C311 1.400 . S
C311 C310 1.400 . S
C311 C312 1.398 . S
C311 C317 1.491 . S
C312 H303 0.950 . S
C312 C311 1.398 . S
C312 C313 1.391 . S
C313 H301 0.950 . S
C313 C309 1.393 . S
C313 C312 1.391 . S
C314 H304 0.950 . S
C314 C315 1.386 . S
C314 C316 1.391 . S
C315 C314 1.386 . S
C315 C319 1.393 . S
C316 H305 0.950 . S
C316 C314 1.391 . S
C316 C317 1.400 . S
C317 C311 1.491 . S
C317 C316 1.400 . S
C317 C318 1.398 . S
C318 H306 0.950 . S
C318 C317 1.398 . S
C318 C319 1.391 . S
C319 H307 0.950 . S
C319 C315 1.393 . S
C319 C318 1.391 . S
H320 C328 0.950 . S
H321 C333 0.950 . S
H322 C330 0.950 . S
H323 C332 0.950 . S
H324 C334 0.950 . S
H325 C336 0.950 1_455 S
H326 C338 0.950 . S
H327 C339 0.950 . S
C328 H320 0.950 . S
C328 C329 1.386 . S
C328 C330 1.391 . S
C329 C328 1.386 . S
C329 C333 1.393 . S
C330 H322 0.950 . S
C330 C328 1.391 . S
C330 C331 1.400 . S
C331 C330 1.400 . S
C331 C332 1.398 . S
C331 C337 1.491 1_455 S
C332 H323 0.950 . S
C332 C331 1.398 . S
C332 C333 1.391 . S
C333 H321 0.950 . S
C333 C329 1.393 . S
C333 C332 1.391 . S
C334 H324 0.950 . S
C334 C335 1.386 . S
C334 C336 1.391 . S
C335 C334 1.386 . S
C335 C339 1.393 . S
C336 H325 0.950 1_655 S
C336 C334 1.391 . S
C336 C337 1.400 . S
C337 C331 1.491 1_655 S
C337 C336 1.400 . S
C337 C338 1.398 . S
C338 H326 0.950 . S
C338 C337 1.398 . S
C338 C339 1.391 . S
C339 H327 0.950 . S
C339 C335 1.393 . S
C339 C338 1.391 . S
H340 C348 0.950 . S
H341 C353 0.950 . S
H342 C350 0.950 . S
H343 C352 0.950 . S
H344 C354 0.950 . S
H345 C356 0.950 . S
H346 C358 0.950 . S
H347 C359 0.950 . S
C348 H340 0.950 . S
C348 C349 1.386 . S
C348 C350 1.391 . S
C349 C348 1.386 . S
C349 C353 1.393 . S
C350 H342 0.950 . S
C350 C348 1.391 . S
C350 C351 1.400 . S
C351 C350 1.400 . S
C351 C352 1.398 . S
C351 C357 1.491 1_545 S
C352 H343 0.950 . S
C352 C351 1.398 . S
C352 C353 1.391 . S
C353 H341 0.950 . S
C353 C349 1.393 . S
C353 C352 1.391 . S
C354 H344 0.950 . S
C354 C355 1.386 . S
C354 C356 1.391 . S
C355 C354 1.386 . S
C355 C359 1.393 . S
C356 H345 0.950 . S
C356 C354 1.391 . S
C356 C357 1.400 . S
C357 C351 1.491 1_565 S
C357 C356 1.400 . S
C357 C358 1.398 1_565 S
C358 H346 0.950 . S
C358 C357 1.398 1_545 S
C358 C359 1.391 1_545 S
C359 H347 0.950 . S
C359 C355 1.393 . S
C359 C358 1.391 1_565 S
H360 C368 0.950 . S
H361 C373 0.950 . S
H362 C370 0.950 . S
H363 C372 0.950 . S
H364 C374 0.950 . S
H365 C376 0.950 . S
H366 C378 0.950 . S
H367 C379 0.950 . S
C368 H360 0.950 . S
C368 C369 1.386 . S
C368 C370 1.391 . S
C369 C368 1.386 . S
C369 C373 1.393 . S
C370 H362 0.950 . S
C370 C368 1.391 . S
C370 C371 1.400 . S
C371 C370 1.400 . S
C371 C372 1.398 . S
C371 C377 1.491 . S
C372 H363 0.950 . S
C372 C371 1.398 . S
C372 C373 1.391 . S
C373 H361 0.950 . S
C373 C369 1.393 . S
C373 C372 1.391 . S
C374 H364 0.950 . S
C374 C375 1.386 . S
C374 C376 1.391 1_455 S
C375 C374 1.386 . S
C375 C379 1.393 . S
C376 H365 0.950 . S
C376 C374 1.391 1_655 S
C376 C377 1.400 . S
C377 C371 1.491 . S
C377 C376 1.400 . S
C377 C378 1.398 . S
C378 H366 0.950 . S
C378 C377 1.398 . S
C378 C379 1.391 1_655 S
C379 H367 0.950 . S
C379 C375 1.393 . S
C379 C378 1.391 1_455 S
H380 C388 0.950 . S
H381 C393 0.950 . S
H382 C390 0.950 . S
H383 C392 0.950 . S
H384 C394 0.950 . S
H385 C396 0.950 . S
H386 C398 0.950 . S
H387 C399 0.950 . S
C388 H380 0.950 . S
C388 C389 1.386 . S
C388 C390 1.391 . S
C389 C388 1.386 . S
C389 C393 1.393 . S
C390 H382 0.950 . S
C390 C388 1.391 . S
C390 C391 1.400 . S
C391 C390 1.400 . S
C391 C392 1.398 . S
C391 C397 1.491 . S
C392 H383 0.950 . S
C392 C391 1.398 . S
C392 C393 1.391 . S
C393 H381 0.950 . S
C393 C389 1.393 . S
C393 C392 1.391 . S
C394 H384 0.950 . S
C394 C395 1.386 . S
C394 C396 1.391 . S
C395 C394 1.386 . S
C395 C399 1.393 . S
C396 H385 0.950 . S
C396 C394 1.391 . S
C396 C397 1.400 1_545 S
C397 C391 1.491 . S
C397 C396 1.400 1_565 S
C397 C398 1.398 . S
C398 H386 0.950 . S
C398 C397 1.398 . S
C398 C399 1.391 1_565 S
C399 H387 0.950 . S
C399 C395 1.393 . S
C399 C398 1.391 1_545 S
H400 C408 0.950 . S
H401 C413 0.950 . S
H402 C410 0.950 . S
H403 C412 0.950 . S
H404 C414 0.950 . S
H405 C416 0.950 . S
H406 C418 0.950 . S
H407 C419 0.950 . S
C408 H400 0.950 . S
C408 C409 1.386 . S
C408 C410 1.391 . S
C409 C408 1.386 . S
C409 C413 1.393 . S
C410 H402 0.950 . S
C410 C408 1.391 . S
C410 C411 1.400 . S
C411 C410 1.400 . S
C411 C412 1.398 . S
C411 C417 1.491 . S
C412 H403 0.950 . S
C412 C411 1.398 . S
C412 C413 1.391 . S
C413 H401 0.950 . S
C413 C409 1.393 . S
C413 C412 1.391 . S
C414 H404 0.950 . S
C414 C415 1.386 . S
C414 C416 1.391 . S
C415 C414 1.386 . S
C415 C419 1.393 . S
C416 H405 0.950 . S
C416 C414 1.391 . S
C416 C417 1.400 . S
C417 C411 1.491 . S
C417 C416 1.400 . S
C417 C418 1.398 . S
C418 H406 0.950 . S
C418 C417 1.398 . S
C418 C419 1.391 . S
C419 H407 0.950 . S
C419 C415 1.393 . S
C419 C418 1.391 . S
H420 C428 0.950 . S
H421 C433 0.950 . S
H422 C430 0.950 . S
H423 C432 0.950 . S
H424 C434 0.950 . S
H425 C436 0.950 . S
H426 C438 0.950 . S
H427 C439 0.950 1_565 S
C428 H420 0.950 . S
C428 C429 1.386 . S
C428 C430 1.391 . S
C429 C428 1.386 . S
C429 C433 1.393 . S
C430 H422 0.950 . S
C430 C428 1.391 . S
C430 C431 1.400 . S
C431 C430 1.400 . S
C431 C432 1.398 . S
C431 C437 1.491 . S
C432 H423 0.950 . S
C432 C431 1.398 . S
C432 C433 1.391 . S
C433 H421 0.950 . S
C433 C429 1.393 . S
C433 C432 1.391 . S
C434 H424 0.950 . S
C434 C435 1.386 . S
C434 C436 1.391 . S
C435 C434 1.386 . S
C435 C439 1.393 . S
C436 H425 0.950 . S
C436 C434 1.391 . S
C436 C437 1.400 . S
C437 C431 1.491 . S
C437 C436 1.400 . S
C437 C438 1.398 . S
C438 H426 0.950 . S
C438 C437 1.398 . S
C438 C439 1.391 . S
C439 H427 0.950 1_545 S
C439 C435 1.393 . S
C439 C438 1.391 . S
H440 C448 0.950 . S
H441 C453 0.950 . S
H442 C450 0.950 . S
H443 C452 0.950 . S
H444 C454 0.950 . S
H445 C456 0.950 . S
H446 C458 0.950 . S
H447 C459 0.950 . S
C448 H440 0.950 . S
C448 C449 1.386 . S
C448 C450 1.391 . S
C449 C448 1.386 . S
C449 C453 1.393 . S
C450 H442 0.950 . S
C450 C448 1.391 . S
C450 C451 1.400 . S
C451 C450 1.400 . S
C451 C452 1.398 . S
C451 C457 1.491 . S
C452 H443 0.950 . S
C452 C451 1.398 . S
C452 C453 1.391 . S
C453 H441 0.950 . S
C453 C449 1.393 . S
C453 C452 1.391 . S
C454 H444 0.950 . S
C454 C455 1.386 . S
C454 C456 1.391 . S
C455 C454 1.386 . S
C455 C459 1.393 . S
C456 H445 0.950 . S
C456 C454 1.391 . S
C456 C457 1.400 . S
C457 C451 1.491 . S
C457 C456 1.400 . S
C457 C458 1.398 . S
C458 H446 0.950 . S
C458 C457 1.398 . S
C458 C459 1.391 . S
C459 H447 0.950 . S
C459 C455 1.393 . S
C459 C458 1.391 . S
H460 C468 0.950 . S
H461 C473 0.950 1_655 S
H462 C470 0.950 . S
H463 C472 0.950 . S
H464 C474 0.950 . S
H465 C476 0.950 . S
H466 C478 0.950 . S
H467 C479 0.950 . S
C468 H460 0.950 . S
C468 C469 1.386 . S
C468 C470 1.391 . S
C469 C468 1.386 . S
C469 C473 1.393 . S
C470 H462 0.950 . S
C470 C468 1.391 . S
C470 C471 1.400 . S
C471 C470 1.400 . S
C471 C472 1.398 . S
C471 C477 1.491 . S
C472 H463 0.950 . S
C472 C471 1.398 . S
C472 C473 1.391 . S
C473 H461 0.950 1_455 S
C473 C469 1.393 . S
C473 C472 1.391 . S
C474 H464 0.950 . S
C474 C475 1.386 . S
C474 C476 1.391 . S
C475 C474 1.386 . S
C475 C479 1.393 . S
C476 H465 0.950 . S
C476 C474 1.391 . S
C476 C477 1.400 . S
C477 C471 1.491 . S
C477 C476 1.400 . S
C477 C478 1.398 . S
C478 H466 0.950 . S
C478 C477 1.398 . S
C478 C479 1.391 . S
C479 H467 0.950 . S
C479 C475 1.393 . S
C479 C478 1.391 . S
H480 C488 0.950 . S
H481 C493 0.950 . S
H482 C490 0.950 . S
H483 C492 0.950 . S
H484 C494 0.950 . S
H485 C496 0.950 . S
H486 C498 0.950 . S
H487 C499 0.950 . S
C488 H480 0.950 . S
C488 C489 1.386 . S
C488 C490 1.391 . S
C489 C488 1.386 . S
C489 C493 1.393 . S
C490 H482 0.950 . S
C490 C488 1.391 . S
C490 C491 1.400 . S
C491 C490 1.400 . S
C491 C492 1.398 . S
C491 C497 1.491 . S
C492 H483 0.950 . S
C492 C491 1.398 . S
C492 C493 1.391 . S
C493 H481 0.950 . S
C493 C489 1.393 . S
C493 C492 1.391 . S
C494 H484 0.950 . S
C494 C495 1.386 . S
C494 C496 1.391 . S
C495 C494 1.386 . S
C495 C499 1.393 . S
C496 H485 0.950 . S
C496 C494 1.391 . S
C496 C497 1.400 . S
C497 C491 1.491 . S
C497 C496 1.400 . S
C497 C498 1.398 . S
C498 H486 0.950 . S
C498 C497 1.398 . S
C498 C499 1.391 . S
C499 H487 0.950 . S
C499 C495 1.393 . S
C499 C498 1.391 . S
H500 C508 0.950 . S
H501 C513 0.950 . S
H502 C510 0.950 . S
H503 C512 0.950 . S
H504 C514 0.950 . S
H505 C516 0.950 . S
H506 C518 0.950 . S
H507 C519 0.950 . S
C508 H500 0.950 . S
C508 C509 1.386 . S
C508 C510 1.391 . S
C509 C508 1.386 . S
C509 C513 1.393 . S
C510 H502 0.950 . S
C510 C508 1.391 . S
C510 C511 1.400 . S
C511 C510 1.400 . S
C511 C512 1.398 . S
C511 C517 1.491 . S
C512 H503 0.950 . S
C512 C511 1.398 . S
C512 C513 1.391 . S
C513 H501 0.950 . S
C513 C509 1.393 . S
C513 C512 1.391 . S
C514 H504 0.950 . S
C514 C515 1.386 . S
C514 C516 1.391 . S
C515 C514 1.386 . S
C515 C519 1.393 . S
C516 H505 0.950 . S
C516 C514 1.391 . S
C516 C517 1.400 . S
C517 C511 1.491 . S
C517 C516 1.400 . S
C517 C518 1.398 . S
C518 H506 0.950 . S
C518 C517 1.398 . S
C518 C519 1.391 . S
C519 H507 0.950 . S
C519 C515 1.393 . S
C519 C518 1.391 . S
H520 C528 0.950 . S
H521 C533 0.950 . S
H522 C530 0.950 . S
H523 C532 0.950 . S
H524 C534 0.950 . S
H525 C536 0.950 . S
H526 C538 0.950 . S
H527 C539 0.950 . S
C528 H520 0.950 . S
C528 C529 1.386 . S
C528 C530 1.391 . S
C529 C528 1.386 . S
C529 C533 1.393 . S
C530 H522 0.950 . S
C530 C528 1.391 . S
C530 C531 1.400 . S
C531 C530 1.400 . S
C531 C532 1.398 . S
C531 C537 1.491 . S
C532 H523 0.950 . S
C532 C531 1.398 . S
C532 C533 1.391 . S
C533 H521 0.950 . S
C533 C529 1.393 . S
C533 C532 1.391 . S
C534 H524 0.950 . S
C534 C535 1.386 . S
C534 C536 1.391 . S
C535 C534 1.386 . S
C535 C539 1.393 . S
C536 H525 0.950 . S
C536 C534 1.391 . S
C536 C537 1.400 . S
C537 C531 1.491 . S
C537 C536 1.400 . S
C537 C538 1.398 . S
C538 H526 0.950 . S
C538 C537 1.398 . S
C538 C539 1.391 . S
C539 H527 0.950 . S
C539 C535 1.393 . S
C539 C538 1.391 . S
H540 C548 0.950 . S
H541 C553 0.950 . S
H542 C550 0.950 . S
H543 C552 0.950 . S
H544 C554 0.950 . S
H545 C556 0.950 . S
H546 C558 0.950 . S
H547 C559 0.950 . S
C548 H540 0.950 . S
C548 C549 1.386 . S
C548 C550 1.391 . S
C549 C548 1.386 . S
C549 C553 1.393 . S
C550 H542 0.950 . S
C550 C548 1.391 . S
C550 C551 1.400 . S
C551 C550 1.400 . S
C551 C552 1.398 . S
C551 C557 1.491 . S
C552 H543 0.950 . S
C552 C551 1.398 . S
C552 C553 1.391 . S
C553 H541 0.950 . S
C553 C549 1.393 . S
C553 C552 1.391 . S
C554 H544 0.950 . S
C554 C555 1.386 . S
C554 C556 1.391 . S
C555 C554 1.386 . S
C555 C559 1.393 . S
C556 H545 0.950 . S
C556 C554 1.391 . S
C556 C557 1.400 . S
C557 C551 1.491 . S
C557 C556 1.400 . S
C557 C558 1.398 . S
C558 H546 0.950 . S
C558 C557 1.398 . S
C558 C559 1.391 . S
C559 H547 0.950 . S
C559 C555 1.393 . S
C559 C558 1.391 . S
H560 C568 0.950 . S
H561 C573 0.950 . S
H562 C570 0.950 . S
H563 C572 0.950 . S
H564 C574 0.950 . S
H565 C576 0.950 . S
H566 C578 0.950 . S
H567 C579 0.950 . S
C568 H560 0.950 . S
C568 C569 1.386 . S
C568 C570 1.391 . S
C569 C568 1.386 . S
C569 C573 1.393 . S
C570 H562 0.950 . S
C570 C568 1.391 . S
C570 C571 1.400 . S
C571 C570 1.400 . S
C571 C572 1.398 . S
C571 C577 1.491 . S
C572 H563 0.950 . S
C572 C571 1.398 . S
C572 C573 1.391 . S
C573 H561 0.950 . S
C573 C569 1.393 . S
C573 C572 1.391 . S
C574 H564 0.950 . S
C574 C575 1.386 . S
C574 C576 1.391 . S
C575 C574 1.386 . S
C575 C579 1.393 . S
C576 H565 0.950 . S
C576 C574 1.391 . S
C576 C577 1.400 . S
C577 C571 1.491 . S
C577 C576 1.400 . S
C577 C578 1.398 . S
C578 H566 0.950 . S
C578 C577 1.398 . S
C578 C579 1.391 . S
C579 H567 0.950 . S
C579 C575 1.393 . S
C579 C578 1.391 . S
H580 C588 0.950 . S
H581 C593 0.950 1_565 S
H582 C590 0.950 . S
H583 C592 0.950 . S
H584 C594 0.950 . S
H585 C596 0.950 . S
H586 C598 0.950 . S
H587 C599 0.950 . S
C588 H580 0.950 . S
C588 C589 1.386 . S
C588 C590 1.391 . S
C589 C588 1.386 . S
C589 C593 1.393 . S
C590 H582 0.950 . S
C590 C588 1.391 . S
C590 C591 1.400 . S
C591 C590 1.400 . S
C591 C592 1.398 . S
C591 C597 1.491 . S
C592 H583 0.950 . S
C592 C591 1.398 . S
C592 C593 1.391 . S
C593 H581 0.950 1_545 S
C593 C589 1.393 . S
C593 C592 1.391 . S
C594 H584 0.950 . S
C594 C595 1.386 . S
C594 C596 1.391 . S
C595 C594 1.386 . S
C595 C599 1.393 . S
C596 H585 0.950 . S
C596 C594 1.391 . S
C596 C597 1.400 . S
C597 C591 1.491 . S
C597 C596 1.400 . S
C597 C598 1.398 . S
C598 H586 0.950 . S
C598 C597 1.398 . S
C598 C599 1.391 . S
C599 H587 0.950 . S
C599 C595 1.393 . S
C599 C598 1.391 . S
C249 C122 0.653 . S
C255 C2 0.638 . S
C269 C162 0.724 . S
C275 C42 0.705 . S
C289 C202 0.699 . S
C295 C82 0.721 . S
C309 C26 0.762 . S
C315 C89 0.740 . S
C329 C66 0.804 . S
C335 C129 0.816 . S
C349 C106 0.743 . S
C355 C169 0.763 . S
C369 C146 0.816 . S
C375 C209 0.803 . S
C389 C186 0.800 . S
C395 C9 0.815 . S
C409 C226 0.770 . S
C415 C49 0.795 . S
C429 C15 1.632 . S
C435 C135 1.642 1_545 S
C449 C55 1.647 . S
C455 C175 1.639 . S
C469 C95 1.625 1_455 S
C475 C215 1.635 . S
C489 C22 4.046 . S
C495 C43 4.075 . S
C509 C62 4.048 . S
C515 C83 4.074 . S
C529 C102 4.047 . S
C535 C123 4.075 . S
C549 C142 4.052 . S
C555 C163 4.075 . S
C569 C182 4.049 . S
C575 C203 4.074 . S
C589 C222 4.047 . S
C595 C3 4.076 . S
