# Generated by pormake.
# Topology ecf, (8)-cn, num edge types: 1
# Building blocks:
#     Node 0, Type 0, BuildingBlock: AJUNOK_clean_sbu_0, # of connection points: 8
#     Node 1, Type 0, BuildingBlock: AJUNOK_clean_sbu_0, # of connection points: 8
#     Node 2, Type 0, BuildingBlock: AJUNOK_clean_sbu_0, # of connection points: 8
#     Node 3, Type 0, BuildingBlock: AJUNOK_clean_sbu_0, # of connection points: 8
#     Node 4, Type 0, BuildingBlock: AJUNOK_clean_sbu_0, # of connection points: 8
#     Node 5, Type 0, BuildingBlock: AJUNOK_clean_sbu_0, # of connection points: 8
#     Edge 6, Type (0, 0), BuildingBlock: UVAHIK_clean_linker_0, # of connection points: 2
#     Edge 7, Type (0, 0), BuildingBlock: UVAHIK_clean_linker_0, # of connection points: 2
#     Edge 8, Type (0, 0), BuildingBlock: UVAHIK_clean_linker_0, # of connection points: 2
#     Edge 9, Type (0, 0), BuildingBlock: UVAHIK_clean_linker_0, # of connection points: 2
#     Edge 10, Type (0, 0), BuildingBlock: UVAHIK_clean_linker_0, # of connection points: 2
#     Edge 11, Type (0, 0), BuildingBlock: UVAHIK_clean_linker_0, # of connection points: 2
#     Edge 12, Type (0, 0), BuildingBlock: UVAHIK_clean_linker_0, # of connection points: 2
#     Edge 13, Type (0, 0), BuildingBlock: UVAHIK_clean_linker_0, # of connection points: 2
#     Edge 14, Type (0, 0), BuildingBlock: UVAHIK_clean_linker_0, # of connection points: 2
#     Edge 15, Type (0, 0), BuildingBlock: UVAHIK_clean_linker_0, # of connection points: 2
#     Edge 16, Type (0, 0), BuildingBlock: UVAHIK_clean_linker_0, # of connection points: 2
#     Edge 17, Type (0, 0), BuildingBlock: UVAHIK_clean_linker_0, # of connection points: 2
#     Edge 18, Type (0, 0), BuildingBlock: UVAHIK_clean_linker_0, # of connection points: 2
#     Edge 19, Type (0, 0), BuildingBlock: UVAHIK_clean_linker_0, # of connection points: 2
#     Edge 20, Type (0, 0), BuildingBlock: UVAHIK_clean_linker_0, # of connection points: 2
#     Edge 21, Type (0, 0), BuildingBlock: UVAHIK_clean_linker_0, # of connection points: 2
#     Edge 22, Type (0, 0), BuildingBlock: UVAHIK_clean_linker_0, # of connection points: 2
#     Edge 23, Type (0, 0), BuildingBlock: UVAHIK_clean_linker_0, # of connection points: 2
#     Edge 24, Type (0, 0), BuildingBlock: UVAHIK_clean_linker_0, # of connection points: 2
#     Edge 25, Type (0, 0), BuildingBlock: UVAHIK_clean_linker_0, # of connection points: 2
#     Edge 26, Type (0, 0), BuildingBlock: UVAHIK_clean_linker_0, # of connection points: 2
#     Edge 27, Type (0, 0), BuildingBlock: UVAHIK_clean_linker_0, # of connection points: 2
#     Edge 28, Type (0, 0), BuildingBlock: UVAHIK_clean_linker_0, # of connection points: 2
#     Edge 29, Type (0, 0), BuildingBlock: UVAHIK_clean_linker_0, # of connection points: 2
# Relax obj value: 0.390
# Max RMSD: 0.282
# Mean RMSD: 0.282
data_MOF--net-ecf--node1-AJUNOK_clean_sbu_0--edge1-UVAHIK_clean_linker_0
_symmetry_space_group_name_H-M    P1
_symmetry_Int_Tables_number       1
_symmetry_cell_setting            triclinic
loop_
_symmetry_equiv_pos_as_xyz
'x, y, z'
_cell_length_a     48.357774
_cell_length_b     48.380144
_cell_length_c     30.585491
_cell_angle_alpha  89.947849
_cell_angle_beta   90.022184
_cell_angle_gamma 119.91851
loop_
_atom_site_label
_atom_site_type_symbol
_atom_site_fract_x
_atom_site_fract_y
_atom_site_fract_z
_atom_type_partial_charge
Cd0 Cd 0.13433 0.32631 0.23082 0.0
Cd1 Cd 0.20372 0.33458 0.30937 0.0
C2 C 0.08197 0.25698 0.2642 0.0
N3 N 0.10856 0.27047 0.23872 0.0
C4 C 0.10263 0.2191 0.22448 0.0
C5 C 0.07636 0.20501 0.25281 0.0
C6 C 0.06582 0.22431 0.27238 0.0
C7 C 0.11875 0.25214 0.21829 0.0
H8 H 0.07317 0.27157 0.27828 0.0
H9 H 0.13931 0.26287 0.19715 0.0
C10 C 0.20071 0.32054 0.19213 0.0
C11 C 0.246 0.40127 0.2606 0.0
C12 C 0.26502 0.4343 0.25639 0.0
C13 C 0.26215 0.45456 0.28671 0.0
C14 C 0.23941 0.44061 0.32033 0.0
C15 C 0.22083 0.40737 0.32331 0.0
N16 N 0.22419 0.38848 0.29338 0.0
H17 H 0.24975 0.38586 0.23887 0.0
H18 H 0.20453 0.3966 0.35041 0.0
C19 C 0.1915 0.26522 0.28346 0.0
N20 N 0.17733 0.27858 0.30704 0.0
C21 C 0.13544 0.22688 0.32833 0.0
C22 C 0.14857 0.21251 0.30216 0.0
C23 C 0.1773 0.23219 0.28009 0.0
C24 C 0.1501 0.26007 0.33003 0.0
H25 H 0.21404 0.28018 0.26739 0.0
H26 H 0.13965 0.27075 0.35002 0.0
C27 C 0.12851 0.32142 0.34892 0.0
C28 C 0.09164 0.33628 0.17854 0.0
N29 N 0.16598 0.38111 0.24321 0.0
C30 C 0.15647 0.39403 0.27523 0.0
C31 C 0.16929 0.42699 0.27788 0.0
C32 C 0.19183 0.44711 0.24684 0.0
C33 C 0.20097 0.43305 0.21378 0.0
C34 C 0.18742 0.39983 0.21231 0.0
C35 C 0.25777 0.34864 0.36171 0.0
O36 O 0.17471 0.32069 0.18606 0.0
O37 O 0.21282 0.32524 0.23035 0.0
O38 O 0.15713 0.3279 0.35632 0.0
O39 O 0.11908 0.32002 0.30971 0.0
O40 O 0.11411 0.33363 0.16163 0.0
O41 O 0.08742 0.33152 0.21927 0.0
O42 O 0.23238 0.34549 0.37837 0.0
O43 O 0.25723 0.34321 0.3212 0.0
H44 H 0.1378 0.37873 0.29762 0.0
H45 H 0.19331 0.3889 0.18578 0.0
H46 H 0.11112 0.20489 0.20823 0.0
H47 H 0.04504 0.21416 0.29345 0.0
H48 H 0.28287 0.44373 0.23081 0.0
H49 H 0.23632 0.45516 0.34454 0.0
H50 H 0.11373 0.21276 0.34663 0.0
H51 H 0.18894 0.22219 0.26078 0.0
H52 H 0.16059 0.43645 0.30303 0.0
H53 H 0.21819 0.44749 0.18908 0.0
Cd54 Cd 0.87259 0.19796 0.81285 0.0
Cd55 Cd 0.80994 0.13686 0.72927 0.0
C56 C 0.92668 0.17987 0.7884 0.0
N57 N 0.90051 0.16938 0.81443 0.0
C58 C 0.90869 0.12773 0.84243 0.0
C59 C 0.93478 0.13715 0.81429 0.0
C60 C 0.94393 0.16384 0.78739 0.0
C61 C 0.89174 0.14414 0.84185 0.0
H62 H 0.93467 0.201 0.76873 0.0
H63 H 0.87198 0.13683 0.86399 0.0
C64 C 0.8065 0.12236 0.84514 0.0
C65 C 0.76319 0.15537 0.78228 0.0
C66 C 0.74231 0.16726 0.78713 0.0
C67 C 0.7433 0.18988 0.75732 0.0
C68 C 0.76629 0.2006 0.72384 0.0
C69 C 0.78682 0.18812 0.72027 0.0
N70 N 0.78515 0.16611 0.74949 0.0
H71 H 0.76052 0.13635 0.80341 0.0
H72 H 0.80331 0.19508 0.69314 0.0
C73 C 0.82152 0.07946 0.75572 0.0
N74 N 0.83746 0.10827 0.73535 0.0
C75 C 0.88351 0.10237 0.72721 0.0
C76 C 0.8683 0.07387 0.75102 0.0
C77 C 0.83678 0.06214 0.76481 0.0
C78 C 0.86772 0.11955 0.72021 0.0
H79 H 0.79699 0.07003 0.76559 0.0
H80 H 0.87995 0.14194 0.70309 0.0
C81 C 0.88631 0.20124 0.69654 0.0
C82 C 0.90686 0.24856 0.87255 0.0
N83 N 0.84239 0.22167 0.79276 0.0
C84 C 0.85279 0.2436 0.75995 0.0
C85 C 0.84039 0.26404 0.75509 0.0
C86 C 0.81753 0.26258 0.78485 0.0
C87 C 0.80716 0.2396 0.81835 0.0
C88 C 0.82022 0.21958 0.82198 0.0
C89 C 0.76083 0.10263 0.66746 0.0
O90 O 0.8302 0.14985 0.85345 0.0
O91 O 0.79722 0.11464 0.80579 0.0
O92 O 0.8585 0.17813 0.68793 0.0
O93 O 0.89419 0.20994 0.73606 0.0
O94 O 0.87979 0.22507 0.8817 0.0
O95 O 0.91956 0.24726 0.83695 0.0
O96 O 0.78488 0.12937 0.65863 0.0
O97 O 0.76091 0.09014 0.70383 0.0
H98 H 0.87196 0.2466 0.73887 0.0
H99 H 0.81352 0.20311 0.84912 0.0
H100 H 0.9013 0.10783 0.8646 0.0
H101 H 0.96465 0.17272 0.76636 0.0
H102 H 0.7244 0.15743 0.8126 0.0
H103 H 0.76807 0.21804 0.70011 0.0
H104 H 0.90766 0.1118 0.71542 0.0
H105 H 0.82405 0.03975 0.78235 0.0
H106 H 0.84997 0.28197 0.72962 0.0
H107 H 0.78954 0.23743 0.84201 0.0
Cd108 Cd 0.67299 0.80575 0.23304 0.0
Cd109 Cd 0.6801 0.8732 0.31162 0.0
C110 C 0.74298 0.82023 0.26069 0.0
N111 N 0.72913 0.83428 0.23785 0.0
C112 C 0.7805 0.87822 0.21959 0.0
C113 C 0.79525 0.86479 0.24433 0.0
C114 C 0.77606 0.83529 0.26484 0.0
C115 C 0.7473 0.86253 0.21682 0.0
H116 H 0.72841 0.79701 0.27526 0.0
H117 H 0.73641 0.87303 0.19743 0.0
C118 C 0.6859 0.88085 0.19391 0.0
C119 C 0.61269 0.85039 0.26494 0.0
C120 C 0.57974 0.83773 0.26187 0.0
C121 C 0.55947 0.81628 0.29383 0.0
C122 C 0.57334 0.80798 0.32816 0.0
C123 C 0.60652 0.82133 0.33002 0.0
N124 N 0.62541 0.84174 0.29828 0.0
H125 H 0.62812 0.8683 0.24176 0.0
H126 H 0.61731 0.81616 0.35749 0.0
C127 C 0.75176 0.92467 0.2835 0.0
N128 N 0.73618 0.89777 0.30815 0.0
C129 C 0.78592 0.90251 0.32998 0.0
C130 C 0.8025 0.92975 0.3038 0.0
C131 C 0.78498 0.94092 0.28051 0.0
C132 C 0.75269 0.88679 0.3316 0.0
H133 H 0.73847 0.9339 0.26658 0.0
H134 H 0.74049 0.86611 0.35214 0.0
C135 C 0.68492 0.80619 0.35022 0.0
C136 C 0.66116 0.75293 0.17955 0.0
N137 N 0.61872 0.78418 0.24854 0.0
C138 C 0.60631 0.76363 0.28279 0.0
C139 C 0.57334 0.7446 0.28769 0.0
C140 C 0.55275 0.746 0.25647 0.0
C141 C 0.56622 0.76712 0.22103 0.0
C142 C 0.59945 0.78594 0.21755 0.0
C143 C 0.66976 0.91598 0.36299 0.0
O144 O 0.67887 0.85211 0.18624 0.0
O145 O 0.68776 0.89023 0.23324 0.0
O146 O 0.68385 0.83166 0.3568 0.0
O147 O 0.68159 0.79506 0.31159 0.0
O148 O 0.6638 0.77823 0.16334 0.0
O149 O 0.66615 0.75308 0.22015 0.0
O150 O 0.6713 0.89297 0.38024 0.0
O151 O 0.67572 0.92056 0.32254 0.0
H152 H 0.62191 0.761 0.30551 0.0
H153 H 0.60992 0.80118 0.18937 0.0
H154 H 0.79442 0.90087 0.20308 0.0
H155 H 0.7865 0.82359 0.28313 0.0
H156 H 0.57045 0.8458 0.23566 0.0
H157 H 0.55879 0.79161 0.35361 0.0
H158 H 0.79842 0.89314 0.3487 0.0
H159 H 0.79682 0.96238 0.26087 0.0
H160 H 0.56414 0.72796 0.31475 0.0
H161 H 0.55128 0.7688 0.19601 0.0
Cd162 Cd 0.81065 0.67512 0.8103 0.0
Cd163 Cd 0.87456 0.67718 0.72993 0.0
C164 C 0.82504 0.74591 0.78663 0.0
N165 N 0.83851 0.73146 0.8094 0.0
C166 C 0.88145 0.78227 0.83184 0.0
C167 C 0.86856 0.79773 0.80751 0.0
C168 C 0.83985 0.7791 0.78489 0.0
C169 C 0.86603 0.74905 0.83231 0.0
H170 H 0.80251 0.73172 0.77016 0.0
H171 H 0.8762 0.73773 0.85147 0.0
C172 C 0.88682 0.68607 0.8455 0.0
C173 C 0.85335 0.61081 0.78232 0.0
C174 C 0.84075 0.57797 0.78702 0.0
C175 C 0.81974 0.55698 0.75534 0.0
C176 C 0.81162 0.56991 0.71971 0.0
C177 C 0.82466 0.60298 0.71645 0.0
N178 N 0.84481 0.62271 0.74778 0.0
H179 H 0.87095 0.62662 0.80542 0.0
H180 H 0.81947 0.61304 0.68814 0.0
C181 C 0.92714 0.74826 0.75835 0.0
N182 N 0.89911 0.73332 0.73593 0.0
C183 C 0.9025 0.78354 0.7211 0.0
C184 C 0.93073 0.79931 0.74549 0.0
C185 C 0.94318 0.78126 0.76401 0.0
C186 C 0.88699 0.75046 0.71682 0.0
H187 H 0.93738 0.73465 0.77157 0.0
H188 H 0.86543 0.73893 0.69795 0.0
C189 C 0.80803 0.68528 0.69415 0.0
C190 C 0.76033 0.65992 0.87038 0.0
N191 N 0.78769 0.62104 0.79149 0.0
C192 C 0.76746 0.60901 0.75683 0.0
C193 C 0.74793 0.57611 0.75176 0.0
C194 C 0.74845 0.55519 0.78324 0.0
C195 C 0.76936 0.56826 0.81892 0.0
C196 C 0.78869 0.60138 0.82253 0.0
C197 C 0.91317 0.66621 0.67055 0.0
O198 O 0.85904 0.68217 0.85225 0.0
O199 O 0.89573 0.68497 0.80667 0.0
O200 O 0.83255 0.68248 0.68715 0.0
O201 O 0.79787 0.68356 0.73308 0.0
O202 O 0.78402 0.65672 0.87993 0.0
O203 O 0.76113 0.67274 0.83392 0.0
O204 O 0.88575 0.66124 0.66018 0.0
O205 O 0.92398 0.67899 0.70737 0.0
H206 H 0.76524 0.62476 0.73398 0.0
H207 H 0.80376 0.61151 0.85093 0.0
H208 H 0.90351 0.79567 0.84984 0.0
H209 H 0.82862 0.79004 0.76663 0.0
H210 H 0.84853 0.56926 0.81429 0.0
H211 H 0.79563 0.55468 0.69441 0.0
H212 H 0.89211 0.79652 0.70607 0.0
H213 H 0.96544 0.79256 0.78199 0.0
H214 H 0.7315 0.56726 0.72446 0.0
H215 H 0.77051 0.5531 0.84407 0.0
Cd216 Cd 0.20662 0.87401 0.22405 0.0
Cd217 Cd 0.1423 0.80734 0.3053 0.0
C218 C 0.19761 0.93528 0.22635 0.0
N219 N 0.18017 0.90289 0.2277 0.0
C220 C 0.13186 0.90452 0.23387 0.0
C221 C 0.14914 0.93786 0.23348 0.0
C222 C 0.18246 0.95339 0.22918 0.0
C223 C 0.1479 0.88737 0.23117 0.0
H224 H 0.22331 0.94701 0.22356 0.0
H225 H 0.13459 0.86171 0.2321 0.0
C226 C 0.13162 0.81057 0.18756 0.0
C227 C 0.16467 0.76418 0.25197 0.0
C228 C 0.17694 0.7437 0.24623 0.0
C229 C 0.19698 0.74209 0.27822 0.0
C230 C 0.2045 0.76184 0.31519 0.0
C231 C 0.19175 0.78209 0.31953 0.0
N232 N 0.17256 0.78322 0.28787 0.0
H233 H 0.14782 0.7638 0.22852 0.0
H234 H 0.19635 0.79623 0.34884 0.0
C235 C 0.07976 0.81173 0.28173 0.0
N236 N 0.10653 0.82678 0.30674 0.0
C237 C 0.09258 0.86567 0.329 0.0
C238 C 0.06631 0.85209 0.30062 0.0
C239 C 0.05952 0.82434 0.27762 0.0
C240 C 0.11266 0.85268 0.33133 0.0
H241 H 0.07446 0.79034 0.26401 0.0
H242 H 0.13346 0.86379 0.35206 0.0
C243 C 0.20384 0.88666 0.33862 0.0
C244 C 0.25998 0.91148 0.16951 0.0
N245 N 0.227 0.84125 0.24478 0.0
C246 C 0.24545 0.84882 0.28126 0.0
C247 C 0.26532 0.83594 0.28807 0.0
C248 C 0.26677 0.81547 0.25668 0.0
C249 C 0.24736 0.80804 0.21932 0.0
C250 C 0.22787 0.82156 0.21378 0.0
C251 C 0.10706 0.75503 0.36229 0.0
O252 O 0.1587 0.83516 0.18014 0.0
O253 O 0.1241 0.79965 0.22636 0.0
O254 O 0.18185 0.85797 0.34601 0.0
O255 O 0.21382 0.89556 0.29975 0.0
O256 O 0.23376 0.88994 0.15387 0.0
O257 O 0.26055 0.91711 0.20997 0.0
O258 O 0.12986 0.78115 0.37629 0.0
O259 O 0.09951 0.75407 0.32245 0.0
H260 H 0.24612 0.86617 0.30404 0.0
H261 H 0.21432 0.81733 0.18394 0.0
H262 H 0.10625 0.89192 0.23606 0.0
H263 H 0.19663 0.97918 0.22897 0.0
H264 H 0.16959 0.72825 0.21789 0.0
H265 H 0.21975 0.7614 0.34077 0.0
H266 H 0.0984 0.88696 0.34752 0.0
H267 H 0.03904 0.81283 0.25611 0.0
H268 H 0.28051 0.84322 0.31669 0.0
H269 H 0.24762 0.79241 0.19423 0.0
Cd270 Cd 0.32629 0.13194 0.80872 0.0
Cd271 Cd 0.33758 0.20239 0.7296 0.0
C272 C 0.25504 0.08002 0.77743 0.0
N273 N 0.2699 0.10395 0.80711 0.0
C274 C 0.2193 0.09505 0.83296 0.0
C275 C 0.20372 0.07192 0.80049 0.0
C276 C 0.22198 0.06408 0.77303 0.0
C277 C 0.25263 0.11114 0.83539 0.0
H278 H 0.26868 0.07307 0.75701 0.0
H279 H 0.26453 0.12926 0.85999 0.0
C280 C 0.32214 0.20073 0.8448 0.0
C281 C 0.40365 0.24453 0.78301 0.0
C282 C 0.43667 0.26375 0.78756 0.0
C283 C 0.45723 0.26192 0.75665 0.0
C284 C 0.44361 0.23966 0.72249 0.0
C285 C 0.41042 0.2208 0.71927 0.0
N286 N 0.39116 0.22341 0.74939 0.0
H287 H 0.38817 0.24788 0.80506 0.0
H288 H 0.39992 0.20501 0.69163 0.0
C289 C 0.27017 0.19412 0.75894 0.0
N290 N 0.28173 0.17792 0.73607 0.0
C291 C 0.22876 0.13452 0.72503 0.0
C292 C 0.21669 0.14957 0.75172 0.0
C293 C 0.2377 0.18 0.76813 0.0
C294 C 0.2616 0.14895 0.71815 0.0
H295 H 0.28617 0.21792 0.77075 0.0
H296 H 0.27073 0.13674 0.69874 0.0
C297 C 0.32035 0.12492 0.69134 0.0
C298 C 0.34103 0.09555 0.86675 0.0
N299 N 0.38087 0.16125 0.7912 0.0
C300 C 0.39242 0.15143 0.75771 0.0
C301 C 0.42517 0.16328 0.75328 0.0
C302 C 0.44646 0.18488 0.78421 0.0
C303 C 0.43389 0.19434 0.8188 0.0
C304 C 0.40087 0.182 0.82183 0.0
C305 C 0.35398 0.25356 0.67032 0.0
O306 O 0.32017 0.17363 0.84952 0.0
O307 O 0.32931 0.21447 0.80759 0.0
O308 O 0.32758 0.15381 0.68435 0.0
O309 O 0.31894 0.11518 0.73039 0.0
O310 O 0.34429 0.12227 0.87749 0.0
O311 O 0.32772 0.08398 0.83037 0.0
O312 O 0.35587 0.22926 0.65998 0.0
O313 O 0.34205 0.25315 0.70732 0.0
H314 H 0.37633 0.13317 0.73553 0.0
H315 H 0.39106 0.18817 0.84946 0.0
H316 H 0.20595 0.10109 0.85562 0.0
H317 H 0.21076 0.04556 0.74855 0.0
H318 H 0.4458 0.28118 0.81363 0.0
H319 H 0.45835 0.23728 0.69786 0.0
H320 H 0.21322 0.11148 0.71071 0.0
H321 H 0.22909 0.19275 0.78782 0.0
H322 H 0.43357 0.15444 0.72691 0.0
H323 H 0.44935 0.21085 0.84349 0.0
C324 C 0.20834 0.49937 0.20891 0.0
C325 C 0.20404 0.48218 0.24785 0.0
C326 C 0.21577 0.53127 0.21008 0.0
C327 C 0.24001 0.60125 0.28467 0.0
H328 H 0.19217 0.62176 0.20188 0.0
C329 C 0.20823 0.70084 0.31074 0.0
C330 C 0.20797 0.71835 0.27413 0.0
C331 C 0.2146 0.67577 0.306 0.0
C332 C 0.20615 0.6167 0.2248 0.0
H333 H 0.20686 0.48615 0.31856 0.0
H334 H 0.21852 0.54112 0.32066 0.0
H335 H 0.19105 0.57116 0.19606 0.0
H336 H 0.21672 0.7247 0.20429 0.0
H337 H 0.22729 0.68062 0.19598 0.0
H338 H 0.25383 0.64647 0.31449 0.0
C339 C 0.21641 0.53015 0.28908 0.0
C340 C 0.2056 0.58761 0.22142 0.0
C341 C 0.20923 0.49834 0.2879 0.0
C342 C 0.21593 0.71123 0.23303 0.0
C343 C 0.22208 0.68602 0.22826 0.0
C344 C 0.2403 0.63028 0.28829 0.0
C345 C 0.2189 0.54683 0.2502 0.0
C346 C 0.22217 0.57923 0.25163 0.0
C347 C 0.22072 0.6675 0.26452 0.0
C348 C 0.22304 0.63815 0.25869 0.0
H349 H 0.20454 0.48783 0.17742 0.0
H350 H 0.21825 0.54349 0.17941 0.0
H351 H 0.25353 0.59596 0.30809 0.0
H352 H 0.20194 0.7054 0.34284 0.0
H353 H 0.21311 0.66183 0.33455 0.0
C354 C 0.49868 0.19739 0.81898 0.0
C355 C 0.48119 0.19579 0.78135 0.0
C356 C 0.5302 0.20369 0.81556 0.0
C357 C 0.5822 0.19411 0.737 0.0
H358 H 0.64929 0.24344 0.82053 0.0
C359 C 0.70496 0.20345 0.7206 0.0
C360 C 0.71871 0.19992 0.75923 0.0
C361 C 0.67907 0.20876 0.72231 0.0
C362 C 0.63076 0.22939 0.79708 0.0
H363 H 0.48407 0.20199 0.71095 0.0
H364 H 0.53889 0.2129 0.70502 0.0
H365 H 0.5983 0.24237 0.82568 0.0
H366 H 0.71728 0.20159 0.83001 0.0
H367 H 0.67151 0.20973 0.83302 0.0
H368 H 0.61389 0.18019 0.70919 0.0
C369 C 0.52802 0.20861 0.7371 0.0
C370 C 0.60155 0.22884 0.80001 0.0
C371 C 0.49658 0.20236 0.74051 0.0
C372 C 0.7069 0.20353 0.79959 0.0
C373 C 0.68084 0.20863 0.8013 0.0
C374 C 0.61124 0.19451 0.73422 0.0
C375 C 0.54495 0.20852 0.77444 0.0
C376 C 0.57683 0.21101 0.77014 0.0
C377 C 0.66603 0.21049 0.76266 0.0
C378 C 0.63589 0.21196 0.76437 0.0
H379 H 0.48755 0.19222 0.85092 0.0
H380 H 0.54244 0.20323 0.84497 0.0
H381 H 0.56351 0.17962 0.71397 0.0
H382 H 0.7132 0.20068 0.68888 0.0
H383 H 0.66879 0.21077 0.69184 0.0
C384 C 0.29542 0.50557 0.24473 0.0
C385 C 0.28456 0.48969 0.28502 0.0
C386 C 0.32004 0.53737 0.24312 0.0
C387 C 0.38831 0.59461 0.31054 0.0
H388 H 0.39974 0.65377 0.21733 0.0
C389 C 0.50235 0.71676 0.30054 0.0
C390 C 0.51772 0.72381 0.25968 0.0
C391 C 0.47066 0.6923 0.30469 0.0
C392 C 0.39685 0.63749 0.24357 0.0
H393 H 0.28976 0.49588 0.3554 0.0
H394 H 0.33149 0.55146 0.35264 0.0
H395 H 0.34938 0.60339 0.22339 0.0
H396 H 0.5111 0.71199 0.19068 0.0
H397 H 0.45576 0.66944 0.1979 0.0
H398 H 0.43579 0.62839 0.33042 0.0
C399 C 0.32177 0.53904 0.32212 0.0
C400 C 0.36803 0.60855 0.247 0.0
C401 C 0.29739 0.50717 0.32371 0.0
C402 C 0.49996 0.7073 0.2226 0.0
C403 C 0.4682 0.68287 0.22675 0.0
C404 C 0.41691 0.62355 0.30733 0.0
C405 C 0.33425 0.55427 0.28182 0.0
C406 C 0.36354 0.58648 0.28018 0.0
C407 C 0.45352 0.67439 0.26806 0.0
C408 C 0.42175 0.64516 0.27347 0.0
H409 H 0.28556 0.49311 0.21426 0.0
H410 H 0.32891 0.54813 0.21142 0.0
H411 H 0.38622 0.57808 0.33595 0.0
H412 H 0.51513 0.72956 0.32958 0.0
H413 H 0.45982 0.68681 0.33684 0.0
C414 C 0.80303 0.29828 0.74236 0.0
C415 C 0.80674 0.28659 0.78279 0.0
C416 C 0.7972 0.32384 0.74054 0.0
C417 C 0.80912 0.39254 0.8079 0.0
H418 H 0.76213 0.40503 0.71461 0.0
C419 C 0.80038 0.5066 0.79915 0.0
C420 C 0.80825 0.52216 0.75839 0.0
C421 C 0.7939 0.47511 0.80296 0.0
C422 C 0.77536 0.40187 0.74083 0.0
H423 H 0.80532 0.29172 0.85312 0.0
H424 H 0.79387 0.33518 0.84996 0.0
H425 H 0.76171 0.35441 0.7203 0.0
H426 H 0.8137 0.51604 0.68927 0.0
H427 H 0.80216 0.46106 0.69591 0.0
H428 H 0.82304 0.44 0.82817 0.0
C429 C 0.79642 0.32525 0.81953 0.0
C430 C 0.77521 0.37289 0.74406 0.0
C431 C 0.80252 0.29989 0.82134 0.0
C432 C 0.80753 0.50478 0.72113 0.0
C433 C 0.80094 0.47322 0.72494 0.0
C434 C 0.80906 0.42133 0.80486 0.0
C435 C 0.79464 0.33824 0.77913 0.0
C436 C 0.79244 0.36797 0.77735 0.0
C437 C 0.79496 0.45832 0.76609 0.0
C438 C 0.79252 0.42654 0.77101 0.0
H439 H 0.80545 0.28821 0.71197 0.0
H440 H 0.79608 0.33315 0.70879 0.0
H441 H 0.82327 0.39006 0.83341 0.0
H442 H 0.79998 0.51904 0.82835 0.0
H443 H 0.78873 0.46411 0.83501 0.0
C444 C 0.29709 0.7965 0.30319 0.0
C445 C 0.2901 0.80401 0.26166 0.0
C446 C 0.32198 0.78994 0.30866 0.0
C447 C 0.37686 0.76968 0.25056 0.0
H448 H 0.43667 0.82036 0.34136 0.0
C449 C 0.50824 0.79855 0.2524 0.0
C450 C 0.52447 0.80453 0.29255 0.0
C451 C 0.47658 0.79188 0.25079 0.0
C452 C 0.42001 0.8054 0.31645 0.0
H453 H 0.303 0.80882 0.19297 0.0
H454 H 0.34597 0.7969 0.20249 0.0
H455 H 0.38639 0.81985 0.33464 0.0
H456 H 0.51903 0.80592 0.36281 0.0
H457 H 0.46362 0.79296 0.36014 0.0
H458 H 0.41063 0.75539 0.23213 0.0
C459 C 0.33215 0.79608 0.23083 0.0
C460 C 0.39112 0.80521 0.31254 0.0
C461 C 0.30741 0.80287 0.22539 0.0
C462 C 0.50745 0.80148 0.33124 0.0
C463 C 0.47569 0.7945 0.32966 0.0
C464 C 0.40569 0.76959 0.25473 0.0
C465 C 0.34031 0.79043 0.27268 0.0
C466 C 0.36942 0.78778 0.27914 0.0
C467 C 0.46012 0.79065 0.28934 0.0
C468 C 0.42794 0.78791 0.2873 0.0
H469 H 0.28379 0.7964 0.33172 0.0
H470 H 0.32732 0.78512 0.34123 0.0
H471 H 0.36047 0.75575 0.22475 0.0
H472 H 0.52028 0.79991 0.22196 0.0
H473 H 0.46558 0.78915 0.21906 0.0
C474 C 0.5093 0.29848 0.7191 0.0
C475 C 0.49222 0.28517 0.75798 0.0
C476 C 0.5409 0.32346 0.72034 0.0
C477 C 0.61071 0.37057 0.79446 0.0
H478 H 0.62899 0.438 0.71112 0.0
C479 C 0.70929 0.50264 0.8174 0.0
C480 C 0.72564 0.52027 0.78011 0.0
C481 C 0.68468 0.47096 0.81359 0.0
C482 C 0.62457 0.41923 0.73418 0.0
H483 H 0.49616 0.28625 0.82869 0.0
H484 H 0.55069 0.33063 0.83092 0.0
H485 H 0.5789 0.38809 0.7064 0.0
H486 H 0.73066 0.51748 0.71005 0.0
H487 H 0.6875 0.46234 0.70337 0.0
H488 H 0.65613 0.40267 0.82326 0.0
C489 C 0.5398 0.32161 0.79934 0.0
C490 C 0.59577 0.39044 0.73144 0.0
C491 C 0.50827 0.29637 0.79809 0.0
C492 C 0.71804 0.50485 0.73928 0.0
C493 C 0.69335 0.47324 0.73546 0.0
C494 C 0.6395 0.39956 0.79742 0.0
C495 C 0.55627 0.33613 0.76047 0.0
C496 C 0.58823 0.36577 0.76176 0.0
C497 C 0.67578 0.4562 0.77239 0.0
C498 C 0.64662 0.42434 0.76753 0.0
H499 H 0.49787 0.29072 0.68753 0.0
H500 H 0.553 0.33344 0.68968 0.0
H501 H 0.60602 0.35201 0.81801 0.0
H502 H 0.71431 0.51378 0.84931 0.0
H503 H 0.6715 0.4586 0.84265 0.0
C504 C 0.13186 0.16401 0.25612 0.0
C505 C 0.13238 0.17733 0.29709 0.0
C506 C 0.1185 0.13117 0.25134 0.0
C507 C 0.10608 0.06263 0.31628 0.0
H508 H 0.07716 0.02057 0.20408 0.0
C509 C 0.13859 0.98131 0.21043 0.0
C510 C 0.13259 0.95634 0.23917 0.0
C511 C 0.12504 1.00047 0.21801 0.0
C512 C 0.0847 0.03179 0.23583 0.0
H513 H 0.11775 0.16633 0.36487 0.0
H514 H 0.094 0.10872 0.35642 0.0
H515 H 0.07596 0.06965 0.21867 0.0
H516 H 0.1071 0.93107 0.29746 0.0
H517 H 0.0838 0.96505 0.31128 0.0
H518 H 0.11575 0.02532 0.33284 0.0
C519 C 0.10437 0.12384 0.32805 0.0
C520 C 0.08423 0.05995 0.24414 0.0
C521 C 0.11786 0.15684 0.33286 0.0
C522 C 0.11186 0.95006 0.27469 0.0
C523 C 0.09862 0.96948 0.28264 0.0
C524 C 0.10604 0.03422 0.30822 0.0
C525 C 0.10526 0.11068 0.28743 0.0
C526 C 0.09677 0.07671 0.28346 0.0
C527 C 0.10563 0.99525 0.25482 0.0
C528 C 0.09699 0.01953 0.2671 0.0
H529 H 0.14234 0.17902 0.22769 0.0
H530 H 0.12013 0.12212 0.21966 0.0
H531 H 0.11603 0.07483 0.34686 0.0
H532 H 0.15433 0.98645 0.18266 0.0
H533 H 0.13118 0.02046 0.19639 0.0
C534 C 0.96138 0.11077 0.85293 0.0
C535 C 0.95326 0.12019 0.81374 0.0
C536 C 0.98249 0.09893 0.85258 0.0
C537 C 0.02826 0.07347 0.78154 0.0
H538 H 0.0996 0.13278 0.85273 0.0
C539 C 0.15873 0.1213 0.73162 0.0
C540 C 0.18258 0.13349 0.76375 0.0
C541 C 0.12666 0.10825 0.74343 0.0
C542 C 0.07989 0.1152 0.83345 0.0
H543 H 0.95834 0.12149 0.74319 0.0
H544 H 0.99524 0.10115 0.74265 0.0
H545 H 0.04783 0.12736 0.86417 0.0
H546 H 0.19185 0.14007 0.83326 0.0
H547 H 0.13602 0.11543 0.85422 0.0
H548 H 0.06085 0.06205 0.74992 0.0
C549 C 0.98539 0.10291 0.77363 0.0
C550 C 0.05001 0.11214 0.84009 0.0
C551 C 0.96461 0.11506 0.77401 0.0
C552 C 0.17383 0.13096 0.80789 0.0
C553 C 0.14183 0.11703 0.81979 0.0
C554 C 0.05821 0.07617 0.77528 0.0
C555 C 0.99565 0.09608 0.81303 0.0
C556 C 0.02424 0.09234 0.81301 0.0
C557 C 0.11785 0.1066 0.7877 0.0
C558 C 0.08473 0.09819 0.79988 0.0
H559 H 0.95298 0.11432 0.88408 0.0
H560 H 0.9899 0.09366 0.88342 0.0
H561 H 0.00863 0.05775 0.7605 0.0
H562 H 0.16498 0.12301 0.69733 0.0
H563 H 0.10903 0.10088 0.71766 0.0
C564 C 0.04967 0.14785 0.22877 0.0
C565 C 0.05986 0.17045 0.26252 0.0
C566 C 0.03026 0.11538 0.23811 0.0
C567 C 0.97344 0.06688 0.32517 0.0
H568 H 0.95477 0.99795 0.24454 0.0
C569 C 0.85609 0.95185 0.3396 0.0
C570 C 0.83785 0.947 0.30161 0.0
C571 C 0.88923 0.97117 0.33842 0.0
C572 C 0.96007 0.01691 0.26767 0.0
H573 H 0.0605 0.17675 0.33266 0.0
H574 H 0.02946 0.12045 0.34934 0.0
H575 H 1.00501 0.04854 0.23763 0.0
H576 H 0.84031 0.95596 0.23182 0.0
H577 H 0.89814 0.99023 0.23002 0.0
H578 H 0.92852 0.0357 0.35465 0.0
C579 C 0.03444 0.12751 0.31538 0.0
C580 C 0.98865 0.04599 0.26354 0.0
C581 C 0.05264 0.1599 0.30591 0.0
C582 C 0.85365 0.95993 0.26185 0.0
C583 C 0.88681 0.97904 0.26063 0.0
C584 C 0.94544 0.03781 0.3298 0.0
C585 C 0.02137 0.10488 0.28155 0.0
C586 C 0.99503 0.07186 0.29108 0.0
C587 C 0.90475 0.9859 0.29925 0.0
C588 C 0.93782 0.01301 0.30006 0.0
H589 H 0.05501 0.15542 0.19499 0.0
H590 H 0.02068 0.09894 0.21096 0.0
H591 H 0.97671 0.08604 0.34664 0.0
H592 H 0.84469 0.9422 0.37074 0.0
H593 H 0.90258 0.97607 0.36863 0.0
C594 C 0.89826 0.04611 0.72995 0.0
C595 C 0.88512 0.05647 0.76247 0.0
C596 C 0.91055 0.02623 0.74079 0.0
C597 C 0.89948 0.96898 0.82897 0.0
H598 H 0.95078 0.94969 0.75105 0.0
C599 C 0.89807 0.8512 0.84405 0.0
C600 C 0.88473 0.83303 0.80602 0.0
C601 C 0.91102 0.88424 0.84326 0.0
C602 C 0.93686 0.95519 0.77348 0.0
H603 H 0.87687 0.05673 0.83189 0.0
H604 H 0.90109 0.025 0.85153 0.0
H605 H 0.95144 1.00039 0.74348 0.0
H606 H 0.87671 0.83554 0.73671 0.0
H607 H 0.89911 0.89321 0.7355 0.0
H608 H 0.88468 0.92376 0.85852 0.0
C609 C 0.90022 0.03021 0.81731 0.0
C610 C 0.93691 0.98402 0.76894 0.0
C611 C 0.88667 0.04879 0.80623 0.0
C612 C 0.88624 0.8488 0.76672 0.0
C613 C 0.89957 0.88186 0.76583 0.0
C614 C 0.90008 0.94072 0.83412 0.0
C615 C 0.9107 0.01711 0.78459 0.0
C616 C 0.91695 0.9906 0.79529 0.0
C617 C 0.91117 0.89973 0.80435 0.0
C618 C 0.9176 0.93292 0.80525 0.0
H619 H 0.89734 0.05185 0.69594 0.0
H620 H 0.91807 0.0166 0.71441 0.0
H621 H 0.88329 0.97243 0.84959 0.0
H622 H 0.89721 0.83976 0.87487 0.0
H623 H 0.91968 0.89757 0.87342 0.0
C624 C 0.84479 0.8812 0.28817 0.0
C625 C 0.83045 0.88094 0.24809 0.0
C626 C 0.87766 0.89355 0.29086 0.0
C627 C 0.93676 0.89291 0.22315 0.0
H628 H 0.99355 0.93505 0.32075 0.0
C629 C 0.04192 0.87371 0.24896 0.0
C630 C 0.0475 0.86801 0.29216 0.0
C631 C 0.02368 0.88802 0.24026 0.0
C632 C 0.97796 0.92314 0.29332 0.0
H633 H 0.83957 0.89517 0.17995 0.0
H634 H 0.89706 0.91607 0.18451 0.0
H635 H 0.9453 0.93902 0.3119 0.0
H636 H 0.03927 0.87363 0.36026 0.0
H637 H 1.00483 0.89601 0.34524 0.0
H638 H 0.96692 0.87442 0.20635 0.0
C639 C 0.88277 0.90701 0.21388 0.0
C640 C 0.95056 0.92571 0.28809 0.0
C641 C 0.8499 0.89497 0.21129 0.0
C642 C 0.03514 0.87766 0.32664 0.0
C643 C 0.01578 0.89091 0.31792 0.0
C644 C 0.96365 0.88986 0.22874 0.0
C645 C 0.89676 0.90538 0.25334 0.0
C646 C 0.92922 0.9097 0.25372 0.0
C647 C 0.00914 0.89552 0.27448 0.0
C648 C 0.98409 0.904 0.26472 0.0
H649 H 0.83049 0.87106 0.31727 0.0
H650 H 0.88777 0.89175 0.32162 0.0
H651 H 0.92048 0.87988 0.19675 0.0
H652 H 0.05154 0.86694 0.22168 0.0
H653 H 0.02014 0.89218 0.20647 0.0
C654 C 0.15587 0.05248 0.75251 0.0
C655 C 0.16869 0.05589 0.79461 0.0
C656 C 0.12309 0.0348 0.74572 0.0
C657 C 0.04445 0.98301 0.80217 0.0
H658 H 0.03159 0.93087 0.69966 0.0
C659 C 0.96138 0.84831 0.79134 0.0
C660 C 0.94752 0.83442 0.75099 0.0
C661 C 0.97969 0.88137 0.79551 0.0
C662 C 0.0343 0.94556 0.72785 0.0
H663 H 0.15713 0.04461 0.86302 0.0
H664 H 0.09993 0.01104 0.85088 0.0
H665 H 0.08135 0.97943 0.70888 0.0
H666 H 0.94032 0.84443 0.6841 0.0
H667 H 0.97263 0.90223 0.69134 0.0
H668 H 0.99773 0.94663 0.82248 0.0
C669 C 0.11497 0.02336 0.82315 0.0
C670 C 0.06306 0.97376 0.73323 0.0
C671 C 0.14786 0.04232 0.83017 0.0
C672 C 0.95077 0.85437 0.71559 0.0
C673 C 0.96922 0.88745 0.71972 0.0
C674 C 0.01566 0.9543 0.79703 0.0
C675 C 0.1023 0.01835 0.78048 0.0
C676 C 0.06913 0.99234 0.77124 0.0
C677 C 0.98479 0.90119 0.75927 0.0
C678 C 0.01089 0.93478 0.76053 0.0
H679 H 0.17119 0.06282 0.72444 0.0
H680 H 0.11428 0.03275 0.71265 0.0
H681 H 0.04788 0.99707 0.83129 0.0
H682 H 0.95873 0.83358 0.81947 0.0
H683 H 0.99158 0.89125 0.82632 0.0
C684 C 0.24634 0.31592 0.158 0.0
C685 C 0.21521 0.31134 0.15517 0.0
C686 C 0.25899 0.30544 0.12443 0.0
C687 C 0.23461 0.24629 0.03394 0.0
H688 H 0.32116 0.29864 0.99166 0.0
C689 C 0.29577 0.19621 0.91839 0.0
C690 C 0.31275 0.21492 0.88197 0.0
C691 C 0.28465 0.20847 0.95152 0.0
C692 C 0.2969 0.28366 1.00296 0.0
H693 H 0.17313 0.29166 0.114 0.0
H694 H 0.19485 0.27304 0.05629 0.0
H695 H 0.30054 0.31904 0.04889 0.0
H696 H 0.33162 0.26183 0.85307 0.0
H697 H 0.3131 0.28343 0.91139 0.0
H698 H 0.23106 0.21075 0.98853 0.0
C699 C 0.20966 0.28497 0.0844 0.0
C700 C 0.2851 0.29532 0.03613 0.0
C701 C 0.19724 0.29596 0.11751 0.0
C702 C 0.31881 0.24661 0.88048 0.0
C703 C 0.30819 0.25908 0.91411 0.0
C704 C 0.24659 0.23441 1.00143 0.0
C705 C 0.24072 0.28941 0.08726 0.0
C706 C 0.25366 0.27691 0.05206 0.0
C707 C 0.29055 0.2401 0.94997 0.0
C708 C 0.27792 0.2529 0.98517 0.0
H709 H 0.26096 0.32746 0.18641 0.0
H710 H 0.28289 0.30919 0.12818 0.0
H711 H 0.2104 0.2312 0.04537 0.0
H712 H 0.2904 0.1717 0.92094 0.0
H713 H 0.27147 0.19311 0.97863 0.0
C714 C 0.90269 0.2096 0.61624 0.0
C715 C 0.91098 0.21616 0.66073 0.0
C716 C 0.92613 0.22212 0.5831 0.0
C717 C 0.01372 0.28277 0.56271 0.0
H718 H 0.9988 0.23531 0.45502 0.0
C719 C 0.11354 0.3141 0.43001 0.0
C720 C 0.10462 0.31218 0.38571 0.0
C721 C 0.0905 0.30353 0.46377 0.0
C722 C 1.00339 0.24912 0.48471 0.0
H723 H 0.95121 0.24136 0.70449 0.0
H724 H 0.99173 0.2621 0.64766 0.0
H725 H 0.95833 0.21493 0.51205 0.0
H726 H 0.06374 0.29757 0.34311 0.0
H727 H 0.02408 0.27896 0.40127 0.0
H728 H 0.05932 0.31649 0.53535 0.0
C729 C 0.96704 0.24803 0.63775 0.0
C730 C 0.97989 0.23743 0.51771 0.0
C731 C 0.94357 0.23586 0.67078 0.0
C732 C 0.07188 0.29953 0.37654 0.0
C733 C 0.0489 0.28858 0.41011 0.0
C734 C 0.03741 0.29422 0.52988 0.0
C735 C 0.95893 0.24138 0.59309 0.0
C736 C 0.9844 0.25404 0.55746 0.0
C737 C 0.05768 0.2902 0.45437 0.0
C738 C 0.03263 0.2777 0.49014 0.0
H739 H 0.87795 0.19464 0.60689 0.0
H740 H 0.91827 0.21672 0.5495 0.0
H741 H 0.01841 0.29694 0.592 0.0
H742 H 0.13836 0.32351 0.43868 0.0
H743 H 0.09837 0.3051 0.49728 0.0
C744 C 0.70948 0.93773 0.16643 0.0
C745 C 0.69536 0.90486 0.1572 0.0
C746 C 0.72046 0.96069 0.13279 0.0
C747 C 0.71277 0.97237 1.01342 0.0
H748 H 0.79383 0.04994 0.02893 0.0
C749 C 0.77088 0.06538 0.8714 0.0
C750 C 0.79148 0.09786 0.88114 0.0
C751 C 0.75869 0.042 0.90458 0.0
C752 C 0.77085 0.02882 0.02394 0.0
H753 H 0.68153 0.87087 0.10413 0.0
H754 H 0.70005 0.9108 0.04547 0.0
H755 H 0.77347 0.00967 0.08623 0.0
H756 H 0.81467 0.13077 0.93461 0.0
H757 H 0.79261 0.09066 0.99226 0.0
H758 H 0.7096 0.99164 0.95168 0.0
C759 C 0.70271 0.91882 0.07904 0.0
C760 C 0.75916 0.00542 0.0571 0.0
C761 C 0.69209 0.8958 0.11283 0.0
C762 C 0.79896 0.10613 0.92548 0.0
C763 C 0.78645 0.0828 0.95877 0.0
C764 C 0.72424 0.99595 0.98043 0.0
C765 C 0.71744 0.95175 0.08843 0.0
C766 C 0.72992 0.97672 0.05251 0.0
C767 C 0.76627 0.05011 0.94908 0.0
C768 C 0.75361 0.02475 0.98486 0.0
H769 H 0.7126 0.94596 0.19994 0.0
H770 H 0.73121 0.9856 0.14166 0.0
H771 H 0.68999 0.9509 1.00859 0.0
H772 H 0.76468 0.05775 0.83779 0.0
H773 H 0.74387 0.01737 0.89489 0.0
C774 C 0.81083 0.70906 0.619 0.0
C775 C 0.79332 0.69432 0.65724 0.0
C776 C 0.79828 0.72013 0.5861 0.0
C777 C 0.72297 0.71028 0.5388 0.0
H778 H 0.77613 0.79559 0.49279 0.0
C779 C 0.68952 0.76042 0.38396 0.0
C780 C 0.69412 0.79154 0.38705 0.0
C781 C 0.70027 0.74773 0.41718 0.0
C782 C 0.76087 0.77171 0.50523 0.0
H783 H 0.74821 0.67932 0.68973 0.0
H784 H 0.72593 0.69751 0.63174 0.0
H785 H 0.79729 0.77487 0.5488 0.0
H786 H 0.71417 0.83356 0.42827 0.0
H787 H 0.73347 0.81182 0.48525 0.0
H788 H 0.68676 0.70694 0.49452 0.0
C789 C 0.74962 0.7008 0.62745 0.0
C790 C 0.77313 0.7597 0.53726 0.0
C791 C 0.76247 0.69037 0.66085 0.0
C792 C 0.70982 0.80945 0.42461 0.0
C793 C 0.72118 0.79704 0.45729 0.0
C794 C 0.71095 0.72203 0.506 0.0
C795 C 0.76747 0.71627 0.58974 0.0
C796 C 0.75436 0.72884 0.55484 0.0
C797 C 0.71671 0.76599 0.45416 0.0
C798 C 0.72961 0.75306 0.48884 0.0
H799 H 0.83474 0.71288 0.61496 0.0
H800 H 0.81275 0.73168 0.55757 0.0
H801 H 0.70777 0.68639 0.55122 0.0
H802 H 0.67775 0.74586 0.35561 0.0
H803 H 0.69646 0.72383 0.41331 0.0
C804 C 0.90701 0.70969 0.9209 0.0
C805 C 0.91043 0.69547 0.88256 0.0
C806 C 0.93063 0.72129 0.95378 0.0
C807 C 0.99741 0.7136 1.00076 0.0
H808 H 0.02771 0.79865 0.04655 0.0
C809 C 0.08093 0.76496 0.15489 0.0
C810 C 0.10725 0.79613 0.15141 0.0
C811 C 0.05734 0.75206 0.12199 0.0
C812 C 0.0196 0.77485 0.03417 0.0
H813 H 0.94164 0.68193 0.84989 0.0
H814 H 0.98206 0.70098 0.90784 0.0
H815 H 0.98566 0.77704 0.99082 0.0
H816 H 0.12866 0.83811 0.11006 0.0
H817 H 0.08724 0.816 0.05356 0.0
H818 H 0.03093 0.7112 0.04479 0.0
C819 C 0.9612 0.70348 0.91222 0.0
C820 C 0.99525 0.76233 1.00232 0.0
C821 C 0.93794 0.69255 0.87885 0.0
C822 C 0.10904 0.81397 0.11394 0.0
C823 C 0.08507 0.80134 0.08157 0.0
C824 C 0.02125 0.72584 0.03338 0.0
C825 C 0.95819 0.71846 0.95 0.0
C826 C 0.98385 0.73156 0.98482 0.0
C827 C 0.05879 0.77015 0.08498 0.0
C828 C 0.03293 0.75678 0.05044 0.0
H829 H 0.88644 0.71271 0.92502 0.0
H830 H 0.92725 0.73245 0.98239 0.0
H831 H 0.98927 0.6898 0.98838 0.0
H832 H 0.07851 0.75044 0.1832 0.0
H833 H 0.03748 0.72807 0.12607 0.0
C834 C 0.2979 0.06843 0.66287 0.0
C835 C 0.31071 0.10125 0.65421 0.0
C836 C 0.28693 0.04574 0.62895 0.0
C837 C 0.29286 0.03566 0.50869 0.0
H838 H 0.21427 0.9557 0.52567 0.0
C839 C 0.23567 0.9437 0.36597 0.0
C840 C 0.21699 0.91084 0.3752 0.0
C841 C 0.24714 0.96667 0.39959 0.0
C842 C 0.23657 0.97755 0.52024 0.0
H843 H 0.32223 0.13544 0.60178 0.0
H844 H 0.30371 0.09599 0.54261 0.0
H845 H 0.23423 0.99554 0.58354 0.0
H846 H 0.1962 0.87686 0.42818 0.0
H847 H 0.21698 0.91645 0.48666 0.0
H848 H 0.29578 0.0176 0.44595 0.0
C849 C 0.30207 0.0878 0.57597 0.0
C850 C 0.24803 1.00067 0.55373 0.0
C851 C 0.31269 0.11055 0.61007 0.0
C852 C 0.21041 0.90181 0.41947 0.0
C853 C 0.22222 0.9248 0.45323 0.0
C854 C 0.28162 0.01238 0.47538 0.0
C855 C 0.28866 0.0549 0.58483 0.0
C856 C 0.27636 0.03021 0.54861 0.0
C857 C 0.24076 0.95781 0.44406 0.0
C858 C 0.25314 0.98278 0.48029 0.0
H859 H 0.2959 0.06002 0.69617 0.0
H860 H 0.27728 0.02086 0.63741 0.0
H861 H 0.31496 0.05778 0.50343 0.0
H862 H 0.24106 0.95189 0.33244 0.0
H863 H 0.26057 0.99154 0.3903 0.0
C864 C 0.7115 0.65989 0.89639 0.0
C865 C 0.73291 0.64846 0.90002 0.0
C866 C 0.68725 0.65107 0.92715 0.0
C867 C 0.63639 0.63011 0.99552 0.0
H868 H 0.67973 0.64843 0.10729 0.0
C869 C 0.64961 0.69679 0.17133 0.0
C870 C 0.65223 0.72454 0.15262 0.0
C871 C 0.64327 0.67071 0.14506 0.0
C872 C 0.66644 0.64219 0.07692 0.0
H873 H 0.74382 0.61613 0.93523 0.0
H874 H 0.7011 0.60026 0.98857 0.0
H875 H 0.69919 0.6307 0.04744 0.0
H876 H 0.64769 0.74589 0.09265 0.0
H877 H 0.63773 0.70104 0.0467 0.0
H878 H 0.60555 0.64483 0.02459 0.0
C879 C 0.70354 0.61675 0.96288 0.0
C880 C 0.67768 0.63194 0.04228 0.0
C881 C 0.72812 0.62601 0.93256 0.0
C882 C 0.6463 0.72499 0.10783 0.0
C883 C 0.63999 0.69899 0.08163 0.0
C884 C 0.6252 0.64052 0.03025 0.0
C885 C 0.68374 0.6303 0.96172 0.0
C886 C 0.66437 0.62832 1.00035 0.0
C887 C 0.63949 0.67201 0.0997 0.0
C888 C 0.64181 0.64909 0.07015 0.0
H889 H 0.71448 0.67692 0.87119 0.0
H890 H 0.67278 0.66237 0.92547 0.0
H891 H 0.62498 0.62642 0.9639 0.0
H892 H 0.65348 0.69559 0.206 0.0
H893 H 0.64286 0.65016 0.15987 0.0
C894 C 0.06571 0.69805 0.37416 0.0
C895 C 0.08988 0.72715 0.39102 0.0
C896 C 0.04713 0.67272 0.40222 0.0
C897 C 0.03527 0.64849 0.52 0.0
H898 H 0.9506 0.63488 0.49704 0.0
C899 C 0.9145 0.63268 0.60997 0.0
C900 C 0.93083 0.6561 0.64191 0.0
C901 C 0.9312 0.62381 0.58149 0.0
C902 C 0.97364 0.63723 0.50399 0.0
H903 H 0.11575 0.75164 0.44957 0.0
H904 H 0.08271 0.70813 0.49864 0.0
H905 H 0.98833 0.65051 0.43815 0.0
H906 H 0.97688 0.68706 0.67135 0.0
H907 H 0.00642 0.67322 0.62003 0.0
H908 H 0.02096 0.63754 0.5869 0.0
C909 C 0.07826 0.70443 0.46384 0.0
C910 C 0.99545 0.64624 0.46988 0.0
C911 C 0.0969 0.72965 0.4358 0.0
C912 C 0.96385 0.66925 0.64656 0.0
C913 C 0.98065 0.66083 0.61757 0.0
C914 C 0.01333 0.63931 0.55423 0.0
C915 C 0.05229 0.67621 0.44758 0.0
C916 C 0.0272 0.65446 0.47829 0.0
C917 C 0.96462 0.63872 0.58383 0.0
C918 C 0.98314 0.63612 0.54708 0.0
H919 H 0.06029 0.69524 0.33953 0.0
H920 H 0.02752 0.65112 0.38874 0.0
H921 H 0.05939 0.65383 0.52708 0.0
H922 H 0.88883 0.62149 0.60658 0.0
H923 H 0.91808 0.60629 0.55643 0.0
C924 C 0.37868 0.09801 0.92393 0.0
C925 C 0.35405 0.07988 0.89424 0.0
C926 C 0.39031 0.08325 0.95158 0.0
C927 C 0.37949 1.00326 0.98179 0.0
H928 H 0.36844 0.0297 0.09685 0.0
C929 C 0.28711 0.92205 0.09733 0.0
C930 C 0.28856 0.92886 0.14207 0.0
C931 C 0.31329 0.94022 0.07053 0.0
C932 C 0.37275 0.02222 0.06546 0.0
H933 H 0.32393 0.03272 0.86748 0.0
H934 H 0.34254 0.00646 0.9176 0.0
H935 H 0.38337 0.06642 0.03688 0.0
H936 H 0.31943 0.95775 0.19487 0.0
H937 H 0.36522 0.98991 0.14772 0.0
H938 H 0.36547 0.95773 1.01034 0.0
C939 C 0.35376 0.03219 0.91889 0.0
C940 C 0.38136 0.04346 0.03067 0.0
C941 C 0.34259 0.04709 0.89065 0.0
C942 C 0.31746 0.95249 0.16021 0.0
C943 C 0.34374 0.97068 0.13336 0.0
C944 C 0.37075 0.9819 1.0167 0.0
C945 C 0.37698 0.04997 0.95074 0.0
C946 C 0.38193 0.03319 0.98786 0.0
C947 C 0.34146 0.96559 0.08797 0.0
C948 C 0.36443 0.99037 0.0579 0.0
H949 H 0.38865 0.12359 0.92628 0.0
H950 H 0.40861 0.0977 0.9751 0.0
H951 H 0.38102 0.99512 0.94937 0.0
H952 H 0.26531 0.90358 0.08259 0.0
H953 H 0.31045 0.93587 0.03565 0.0
C954 C 0.35454 0.3027 0.6446 0.0
C955 C 0.36564 0.28104 0.64077 0.0
C956 C 0.36313 0.32674 0.61354 0.0
C957 C 0.38292 0.37667 0.54401 0.0
H958 H 0.36367 0.33229 0.43305 0.0
C959 C 0.28658 0.3649 0.43278 0.0
C960 C 0.28661 0.35845 0.38811 0.0
C961 C 0.31295 0.37179 0.45861 0.0
C962 C 0.37016 0.34586 0.46317 0.0
H963 H 0.39732 0.26956 0.60502 0.0
H964 H 0.41294 0.31201 0.55127 0.0
H965 H 0.38214 0.31357 0.49294 0.0
H966 H 0.3152 0.35694 0.33447 0.0
H967 H 0.36128 0.36856 0.37996 0.0
H968 H 0.36766 0.40703 0.51467 0.0
C969 C 0.39678 0.30987 0.57726 0.0
C970 C 0.38084 0.33505 0.49785 0.0
C971 C 0.3877 0.28547 0.60784 0.0
C972 C 0.31432 0.3612 0.36907 0.0
C973 C 0.34077 0.36811 0.39496 0.0
C974 C 0.37205 0.38741 0.50924 0.0
C975 C 0.38338 0.3298 0.5785 0.0
C976 C 0.38484 0.34875 0.53956 0.0
C977 C 0.33988 0.37233 0.44027 0.0
C978 C 0.36316 0.37044 0.46965 0.0
H979 H 0.33781 0.29998 0.6701 0.0
H980 H 0.35198 0.34133 0.61536 0.0
H981 H 0.3869 0.3884 0.57541 0.0
H982 H 0.26572 0.36343 0.4482 0.0
H983 H 0.31122 0.37441 0.49351 0.0
C984 C 0.04828 0.34988 0.17216 0.0
C985 C 0.07244 0.3461 0.15248 0.0
C986 C 0.02964 0.35846 0.14699 0.0
C987 C 0.01989 0.38166 0.03388 0.0
H988 H 0.93431 0.31021 0.04776 0.0
C989 C 0.9551 0.29754 0.8991 0.0
C990 C 0.9222 0.27636 0.90157 0.0
C991 C 0.96989 0.32204 0.9296 0.0
C992 C 0.9576 0.33112 0.04354 0.0
H993 H 0.09762 0.3505 0.09191 0.0
H994 H 0.06459 0.36428 0.04784 0.0
H995 H 0.97057 0.32671 0.10854 0.0
H996 H 0.87824 0.26628 0.93395 0.0
H997 H 0.90401 0.30941 0.98688 0.0
H998 H 0.00746 0.38403 0.96739 0.0
C999 C 0.06026 0.3613 0.08273 0.0
C1000 C 0.97857 0.34064 0.07875 0.0
C1001 C 0.07882 0.35274 0.10782 0.0
C1002 C 0.90387 0.28176 0.93233 0.0
C1003 C 0.91857 0.3066 0.96236 0.0
C1004 C 0.99882 0.37219 0.99858 0.0
C1005 C 0.0349 0.36338 0.10178 0.0
C1006 C 0.01068 0.364 0.07294 0.0
C1007 C 0.95193 0.32601 0.96274 0.0
C1008 C 0.96847 0.3449 1.00208 0.0
H1009 H 0.04327 0.34552 0.20678 0.0
H1010 H 0.0103 0.35995 0.16251 0.0
H1011 H 0.04433 0.40048 0.02906 0.0
H1012 H 0.96965 0.29413 0.87518 0.0
H1013 H 0.99568 0.33621 0.92908 0.0
C1014 C 0.71161 0.05496 0.64022 0.0
C1015 C 0.73356 0.08765 0.63747 0.0
C1016 C 0.6873 0.04052 0.60935 0.0
C1017 C 0.67903 0.05238 0.49484 0.0
H1018 H 0.60737 0.96703 0.51035 0.0
C1019 C 0.65729 0.96014 0.36805 0.0
C1020 C 0.6601 0.93558 0.38832 0.0
C1021 C 0.64928 0.97943 0.3926 0.0
C1022 C 0.62685 0.9911 0.50524 0.0
H1023 H 0.74532 0.13171 0.60394 0.0
H1024 H 0.70251 0.10659 0.55038 0.0
H1025 H 0.62516 0.00439 0.57145 0.0
H1026 H 0.65436 0.91028 0.44922 0.0
H1027 H 0.64162 0.94447 0.49228 0.0
H1028 H 0.68269 0.03848 0.43015 0.0
C1029 C 0.70458 0.09188 0.57543 0.0
C1030 C 0.6371 0.01245 0.54021 0.0
C1031 C 0.72923 0.1062 0.60583 0.0
C1032 C 0.65289 0.92938 0.43288 0.0
C1033 C 0.64493 0.94863 0.45738 0.0
C1034 C 0.66874 0.03114 0.45996 0.0
C1035 C 0.68426 0.05866 0.57557 0.0
C1036 C 0.66511 0.04221 0.53636 0.0
C1037 C 0.64402 0.97448 0.43781 0.0
C1038 C 0.64448 0.99944 0.46615 0.0
H1039 H 0.7142 0.04026 0.66479 0.0
H1040 H 0.67243 0.01482 0.61026 0.0
H1041 H 0.7005 0.0752 0.49036 0.0
H1042 H 0.66208 0.965 0.33346 0.0
H1043 H 0.64863 0.9991 0.37666 0.0
loop_
_geom_bond_atom_site_label_1
_geom_bond_atom_site_label_2
_geom_bond_distance
_geom_bond_site_symmetry_2
_ccdc_geom_bond_type
Cd0 N3 2.334 . S
Cd0 N29 2.304 . S
Cd0 O36 2.268 . S
Cd0 O39 2.273 . S
Cd0 O40 2.417 . S
Cd0 O41 2.330 . S
Cd1 N16 2.304 . S
Cd1 N20 2.334 . S
Cd1 O37 2.273 . S
Cd1 O38 2.268 . S
Cd1 O42 2.417 . S
Cd1 O43 2.330 . S
C2 N3 1.332 . S
C2 C6 1.381 . S
C2 H8 0.931 . S
N3 Cd0 2.334 . S
N3 C2 1.332 . S
N3 C7 1.328 . S
C4 C5 1.396 . S
C4 C7 1.378 . S
C4 H46 0.931 . S
C5 C4 1.396 . S
C5 C6 1.382 . S
C6 C2 1.381 . S
C6 C5 1.382 . S
C6 H47 0.930 . S
C7 N3 1.328 . S
C7 C4 1.378 . S
C7 H9 0.930 . S
H8 C2 0.931 . S
H9 C7 0.930 . S
C10 O36 1.238 . S
C10 O37 1.253 . S
C11 C12 1.379 . S
C11 N16 1.337 . S
C11 H17 0.929 . S
C12 C11 1.379 . S
C12 C13 1.380 . S
C12 H48 0.929 . S
C13 C12 1.380 . S
C13 C14 1.399 . S
C14 C13 1.399 . S
C14 C15 1.376 . S
C14 H49 0.931 . S
C15 C14 1.376 . S
C15 N16 1.338 . S
C15 H18 0.930 . S
N16 Cd1 2.304 . S
N16 C11 1.337 . S
N16 C15 1.338 . S
H17 C11 0.929 . S
H18 C15 0.930 . S
C19 N20 1.332 . S
C19 C23 1.381 . S
C19 H25 0.931 . S
N20 Cd1 2.334 . S
N20 C19 1.332 . S
N20 C24 1.328 . S
C21 C22 1.396 . S
C21 C24 1.378 . S
C21 H50 0.931 . S
C22 C21 1.396 . S
C22 C23 1.382 . S
C23 C19 1.381 . S
C23 C22 1.382 . S
C23 H51 0.930 . S
C24 N20 1.328 . S
C24 C21 1.378 . S
C24 H26 0.930 . S
H25 C19 0.931 . S
H26 C24 0.930 . S
C27 O38 1.238 . S
C27 O39 1.253 . S
C28 O40 1.239 . S
C28 O41 1.230 . S
N29 Cd0 2.304 . S
N29 C30 1.337 . S
N29 C34 1.338 . S
C30 N29 1.337 . S
C30 C31 1.379 . S
C30 H44 0.929 . S
C31 C30 1.379 . S
C31 C32 1.380 . S
C31 H52 0.929 . S
C32 C31 1.380 . S
C32 C33 1.399 . S
C33 C32 1.399 . S
C33 C34 1.376 . S
C33 H53 0.931 . S
C34 N29 1.338 . S
C34 C33 1.376 . S
C34 H45 0.930 . S
C35 O42 1.239 . S
C35 O43 1.230 . S
O36 Cd0 2.268 . S
O36 C10 1.238 . S
O37 Cd1 2.273 . S
O37 C10 1.253 . S
O38 Cd1 2.268 . S
O38 C27 1.238 . S
O39 Cd0 2.273 . S
O39 C27 1.253 . S
O40 Cd0 2.417 . S
O40 C28 1.239 . S
O41 Cd0 2.330 . S
O41 C28 1.230 . S
O42 Cd1 2.417 . S
O42 C35 1.239 . S
O43 Cd1 2.330 . S
O43 C35 1.230 . S
H44 C30 0.929 . S
H45 C34 0.930 . S
H46 C4 0.931 . S
H47 C6 0.930 . S
H48 C12 0.929 . S
H49 C14 0.931 . S
H50 C21 0.931 . S
H51 C23 0.930 . S
H52 C31 0.929 . S
H53 C33 0.931 . S
Cd54 N57 2.334 . S
Cd54 N83 2.304 . S
Cd54 O90 2.268 . S
Cd54 O93 2.273 . S
Cd54 O94 2.417 . S
Cd54 O95 2.330 . S
Cd55 N70 2.304 . S
Cd55 N74 2.334 . S
Cd55 O91 2.273 . S
Cd55 O92 2.268 . S
Cd55 O96 2.417 . S
Cd55 O97 2.330 . S
C56 N57 1.332 . S
C56 C60 1.381 . S
C56 H62 0.931 . S
N57 Cd54 2.334 . S
N57 C56 1.332 . S
N57 C61 1.328 . S
C58 C59 1.396 . S
C58 C61 1.378 . S
C58 H100 0.931 . S
C59 C58 1.396 . S
C59 C60 1.382 . S
C60 C56 1.381 . S
C60 C59 1.382 . S
C60 H101 0.930 . S
C61 N57 1.328 . S
C61 C58 1.378 . S
C61 H63 0.930 . S
H62 C56 0.931 . S
H63 C61 0.930 . S
C64 O90 1.238 . S
C64 O91 1.253 . S
C65 C66 1.379 . S
C65 N70 1.337 . S
C65 H71 0.929 . S
C66 C65 1.379 . S
C66 C67 1.380 . S
C66 H102 0.929 . S
C67 C66 1.380 . S
C67 C68 1.399 . S
C68 C67 1.399 . S
C68 C69 1.376 . S
C68 H103 0.931 . S
C69 C68 1.376 . S
C69 N70 1.338 . S
C69 H72 0.930 . S
N70 Cd55 2.304 . S
N70 C65 1.337 . S
N70 C69 1.338 . S
H71 C65 0.929 . S
H72 C69 0.930 . S
C73 N74 1.332 . S
C73 C77 1.381 . S
C73 H79 0.931 . S
N74 Cd55 2.334 . S
N74 C73 1.332 . S
N74 C78 1.328 . S
C75 C76 1.396 . S
C75 C78 1.378 . S
C75 H104 0.931 . S
C76 C75 1.396 . S
C76 C77 1.382 . S
C77 C73 1.381 . S
C77 C76 1.382 . S
C77 H105 0.930 . S
C78 N74 1.328 . S
C78 C75 1.378 . S
C78 H80 0.930 . S
H79 C73 0.931 . S
H80 C78 0.930 . S
C81 O92 1.238 . S
C81 O93 1.253 . S
C82 O94 1.239 . S
C82 O95 1.230 . S
N83 Cd54 2.304 . S
N83 C84 1.337 . S
N83 C88 1.338 . S
C84 N83 1.337 . S
C84 C85 1.379 . S
C84 H98 0.929 . S
C85 C84 1.379 . S
C85 C86 1.380 . S
C85 H106 0.929 . S
C86 C85 1.380 . S
C86 C87 1.399 . S
C87 C86 1.399 . S
C87 C88 1.376 . S
C87 H107 0.931 . S
C88 N83 1.338 . S
C88 C87 1.376 . S
C88 H99 0.930 . S
C89 O96 1.239 . S
C89 O97 1.230 . S
O90 Cd54 2.268 . S
O90 C64 1.238 . S
O91 Cd55 2.273 . S
O91 C64 1.253 . S
O92 Cd55 2.268 . S
O92 C81 1.238 . S
O93 Cd54 2.273 . S
O93 C81 1.253 . S
O94 Cd54 2.417 . S
O94 C82 1.239 . S
O95 Cd54 2.330 . S
O95 C82 1.230 . S
O96 Cd55 2.417 . S
O96 C89 1.239 . S
O97 Cd55 2.330 . S
O97 C89 1.230 . S
H98 C84 0.929 . S
H99 C88 0.930 . S
H100 C58 0.931 . S
H101 C60 0.930 . S
H102 C66 0.929 . S
H103 C68 0.931 . S
H104 C75 0.931 . S
H105 C77 0.930 . S
H106 C85 0.929 . S
H107 C87 0.931 . S
Cd108 N111 2.334 . S
Cd108 N137 2.304 . S
Cd108 O144 2.268 . S
Cd108 O147 2.273 . S
Cd108 O148 2.417 . S
Cd108 O149 2.330 . S
Cd109 N124 2.304 . S
Cd109 N128 2.334 . S
Cd109 O145 2.273 . S
Cd109 O146 2.268 . S
Cd109 O150 2.417 . S
Cd109 O151 2.330 . S
C110 N111 1.332 . S
C110 C114 1.381 . S
C110 H116 0.931 . S
N111 Cd108 2.334 . S
N111 C110 1.332 . S
N111 C115 1.328 . S
C112 C113 1.396 . S
C112 C115 1.378 . S
C112 H154 0.931 . S
C113 C112 1.396 . S
C113 C114 1.382 . S
C114 C110 1.381 . S
C114 C113 1.382 . S
C114 H155 0.930 . S
C115 N111 1.328 . S
C115 C112 1.378 . S
C115 H117 0.930 . S
H116 C110 0.931 . S
H117 C115 0.930 . S
C118 O144 1.238 . S
C118 O145 1.253 . S
C119 C120 1.379 . S
C119 N124 1.337 . S
C119 H125 0.929 . S
C120 C119 1.379 . S
C120 C121 1.380 . S
C120 H156 0.929 . S
C121 C120 1.380 . S
C121 C122 1.399 . S
C122 C121 1.399 . S
C122 C123 1.376 . S
C122 H157 0.931 . S
C123 C122 1.376 . S
C123 N124 1.338 . S
C123 H126 0.930 . S
N124 Cd109 2.304 . S
N124 C119 1.337 . S
N124 C123 1.338 . S
H125 C119 0.929 . S
H126 C123 0.930 . S
C127 N128 1.332 . S
C127 C131 1.381 . S
C127 H133 0.931 . S
N128 Cd109 2.334 . S
N128 C127 1.332 . S
N128 C132 1.328 . S
C129 C130 1.396 . S
C129 C132 1.378 . S
C129 H158 0.931 . S
C130 C129 1.396 . S
C130 C131 1.382 . S
C131 C127 1.381 . S
C131 C130 1.382 . S
C131 H159 0.930 . S
C132 N128 1.328 . S
C132 C129 1.378 . S
C132 H134 0.930 . S
H133 C127 0.931 . S
H134 C132 0.930 . S
C135 O146 1.238 . S
C135 O147 1.253 . S
C136 O148 1.239 . S
C136 O149 1.230 . S
N137 Cd108 2.304 . S
N137 C138 1.337 . S
N137 C142 1.338 . S
C138 N137 1.337 . S
C138 C139 1.379 . S
C138 H152 0.929 . S
C139 C138 1.379 . S
C139 C140 1.380 . S
C139 H160 0.929 . S
C140 C139 1.380 . S
C140 C141 1.399 . S
C141 C140 1.399 . S
C141 C142 1.376 . S
C141 H161 0.931 . S
C142 N137 1.338 . S
C142 C141 1.376 . S
C142 H153 0.930 . S
C143 O150 1.239 . S
C143 O151 1.230 . S
O144 Cd108 2.268 . S
O144 C118 1.238 . S
O145 Cd109 2.273 . S
O145 C118 1.253 . S
O146 Cd109 2.268 . S
O146 C135 1.238 . S
O147 Cd108 2.273 . S
O147 C135 1.253 . S
O148 Cd108 2.417 . S
O148 C136 1.239 . S
O149 Cd108 2.330 . S
O149 C136 1.230 . S
O150 Cd109 2.417 . S
O150 C143 1.239 . S
O151 Cd109 2.330 . S
O151 C143 1.230 . S
H152 C138 0.929 . S
H153 C142 0.930 . S
H154 C112 0.931 . S
H155 C114 0.930 . S
H156 C120 0.929 . S
H157 C122 0.931 . S
H158 C129 0.931 . S
H159 C131 0.930 . S
H160 C139 0.929 . S
H161 C141 0.931 . S
Cd162 N165 2.334 . S
Cd162 N191 2.304 . S
Cd162 O198 2.268 . S
Cd162 O201 2.273 . S
Cd162 O202 2.417 . S
Cd162 O203 2.330 . S
Cd163 N178 2.304 . S
Cd163 N182 2.334 . S
Cd163 O199 2.273 . S
Cd163 O200 2.268 . S
Cd163 O204 2.417 . S
Cd163 O205 2.330 . S
C164 N165 1.332 . S
C164 C168 1.381 . S
C164 H170 0.931 . S
N165 Cd162 2.334 . S
N165 C164 1.332 . S
N165 C169 1.328 . S
C166 C167 1.396 . S
C166 C169 1.378 . S
C166 H208 0.931 . S
C167 C166 1.396 . S
C167 C168 1.382 . S
C168 C164 1.381 . S
C168 C167 1.382 . S
C168 H209 0.930 . S
C169 N165 1.328 . S
C169 C166 1.378 . S
C169 H171 0.930 . S
H170 C164 0.931 . S
H171 C169 0.930 . S
C172 O198 1.238 . S
C172 O199 1.253 . S
C173 C174 1.379 . S
C173 N178 1.337 . S
C173 H179 0.929 . S
C174 C173 1.379 . S
C174 C175 1.380 . S
C174 H210 0.929 . S
C175 C174 1.380 . S
C175 C176 1.399 . S
C176 C175 1.399 . S
C176 C177 1.376 . S
C176 H211 0.931 . S
C177 C176 1.376 . S
C177 N178 1.338 . S
C177 H180 0.930 . S
N178 Cd163 2.304 . S
N178 C173 1.337 . S
N178 C177 1.338 . S
H179 C173 0.929 . S
H180 C177 0.930 . S
C181 N182 1.332 . S
C181 C185 1.381 . S
C181 H187 0.931 . S
N182 Cd163 2.334 . S
N182 C181 1.332 . S
N182 C186 1.328 . S
C183 C184 1.396 . S
C183 C186 1.378 . S
C183 H212 0.931 . S
C184 C183 1.396 . S
C184 C185 1.382 . S
C185 C181 1.381 . S
C185 C184 1.382 . S
C185 H213 0.930 . S
C186 N182 1.328 . S
C186 C183 1.378 . S
C186 H188 0.930 . S
H187 C181 0.931 . S
H188 C186 0.930 . S
C189 O200 1.238 . S
C189 O201 1.253 . S
C190 O202 1.239 . S
C190 O203 1.230 . S
N191 Cd162 2.304 . S
N191 C192 1.337 . S
N191 C196 1.338 . S
C192 N191 1.337 . S
C192 C193 1.379 . S
C192 H206 0.929 . S
C193 C192 1.379 . S
C193 C194 1.380 . S
C193 H214 0.929 . S
C194 C193 1.380 . S
C194 C195 1.399 . S
C195 C194 1.399 . S
C195 C196 1.376 . S
C195 H215 0.931 . S
C196 N191 1.338 . S
C196 C195 1.376 . S
C196 H207 0.930 . S
C197 O204 1.239 . S
C197 O205 1.230 . S
O198 Cd162 2.268 . S
O198 C172 1.238 . S
O199 Cd163 2.273 . S
O199 C172 1.253 . S
O200 Cd163 2.268 . S
O200 C189 1.238 . S
O201 Cd162 2.273 . S
O201 C189 1.253 . S
O202 Cd162 2.417 . S
O202 C190 1.239 . S
O203 Cd162 2.330 . S
O203 C190 1.230 . S
O204 Cd163 2.417 . S
O204 C197 1.239 . S
O205 Cd163 2.330 . S
O205 C197 1.230 . S
H206 C192 0.929 . S
H207 C196 0.930 . S
H208 C166 0.931 . S
H209 C168 0.930 . S
H210 C174 0.929 . S
H211 C176 0.931 . S
H212 C183 0.931 . S
H213 C185 0.930 . S
H214 C193 0.929 . S
H215 C195 0.931 . S
Cd216 N219 2.334 . S
Cd216 N245 2.304 . S
Cd216 O252 2.268 . S
Cd216 O255 2.273 . S
Cd216 O256 2.417 . S
Cd216 O257 2.330 . S
Cd217 N232 2.304 . S
Cd217 N236 2.334 . S
Cd217 O253 2.273 . S
Cd217 O254 2.268 . S
Cd217 O258 2.417 . S
Cd217 O259 2.330 . S
C218 N219 1.332 . S
C218 C222 1.381 . S
C218 H224 0.931 . S
N219 Cd216 2.334 . S
N219 C218 1.332 . S
N219 C223 1.328 . S
C220 C221 1.396 . S
C220 C223 1.378 . S
C220 H262 0.931 . S
C221 C220 1.396 . S
C221 C222 1.382 . S
C222 C218 1.381 . S
C222 C221 1.382 . S
C222 H263 0.930 . S
C223 N219 1.328 . S
C223 C220 1.378 . S
C223 H225 0.930 . S
H224 C218 0.931 . S
H225 C223 0.930 . S
C226 O252 1.238 . S
C226 O253 1.253 . S
C227 C228 1.379 . S
C227 N232 1.337 . S
C227 H233 0.929 . S
C228 C227 1.379 . S
C228 C229 1.380 . S
C228 H264 0.929 . S
C229 C228 1.380 . S
C229 C230 1.399 . S
C230 C229 1.399 . S
C230 C231 1.376 . S
C230 H265 0.931 . S
C231 C230 1.376 . S
C231 N232 1.338 . S
C231 H234 0.930 . S
N232 Cd217 2.304 . S
N232 C227 1.337 . S
N232 C231 1.338 . S
H233 C227 0.929 . S
H234 C231 0.930 . S
C235 N236 1.332 . S
C235 C239 1.381 . S
C235 H241 0.931 . S
N236 Cd217 2.334 . S
N236 C235 1.332 . S
N236 C240 1.328 . S
C237 C238 1.396 . S
C237 C240 1.378 . S
C237 H266 0.931 . S
C238 C237 1.396 . S
C238 C239 1.382 . S
C239 C235 1.381 . S
C239 C238 1.382 . S
C239 H267 0.930 . S
C240 N236 1.328 . S
C240 C237 1.378 . S
C240 H242 0.930 . S
H241 C235 0.931 . S
H242 C240 0.930 . S
C243 O254 1.238 . S
C243 O255 1.253 . S
C244 O256 1.239 . S
C244 O257 1.230 . S
N245 Cd216 2.304 . S
N245 C246 1.337 . S
N245 C250 1.338 . S
C246 N245 1.337 . S
C246 C247 1.379 . S
C246 H260 0.929 . S
C247 C246 1.379 . S
C247 C248 1.380 . S
C247 H268 0.929 . S
C248 C247 1.380 . S
C248 C249 1.399 . S
C249 C248 1.399 . S
C249 C250 1.376 . S
C249 H269 0.931 . S
C250 N245 1.338 . S
C250 C249 1.376 . S
C250 H261 0.930 . S
C251 O258 1.239 . S
C251 O259 1.230 . S
O252 Cd216 2.268 . S
O252 C226 1.238 . S
O253 Cd217 2.273 . S
O253 C226 1.253 . S
O254 Cd217 2.268 . S
O254 C243 1.238 . S
O255 Cd216 2.273 . S
O255 C243 1.253 . S
O256 Cd216 2.417 . S
O256 C244 1.239 . S
O257 Cd216 2.330 . S
O257 C244 1.230 . S
O258 Cd217 2.417 . S
O258 C251 1.239 . S
O259 Cd217 2.330 . S
O259 C251 1.230 . S
H260 C246 0.929 . S
H261 C250 0.930 . S
H262 C220 0.931 . S
H263 C222 0.930 . S
H264 C228 0.929 . S
H265 C230 0.931 . S
H266 C237 0.931 . S
H267 C239 0.930 . S
H268 C247 0.929 . S
H269 C249 0.931 . S
Cd270 N273 2.334 . S
Cd270 N299 2.304 . S
Cd270 O306 2.268 . S
Cd270 O309 2.273 . S
Cd270 O310 2.417 . S
Cd270 O311 2.330 . S
Cd271 N286 2.304 . S
Cd271 N290 2.334 . S
Cd271 O307 2.273 . S
Cd271 O308 2.268 . S
Cd271 O312 2.417 . S
Cd271 O313 2.330 . S
C272 N273 1.332 . S
C272 C276 1.381 . S
C272 H278 0.931 . S
N273 Cd270 2.334 . S
N273 C272 1.332 . S
N273 C277 1.328 . S
C274 C275 1.396 . S
C274 C277 1.378 . S
C274 H316 0.931 . S
C275 C274 1.396 . S
C275 C276 1.382 . S
C276 C272 1.381 . S
C276 C275 1.382 . S
C276 H317 0.930 . S
C277 N273 1.328 . S
C277 C274 1.378 . S
C277 H279 0.930 . S
H278 C272 0.931 . S
H279 C277 0.930 . S
C280 O306 1.238 . S
C280 O307 1.253 . S
C281 C282 1.379 . S
C281 N286 1.337 . S
C281 H287 0.929 . S
C282 C281 1.379 . S
C282 C283 1.380 . S
C282 H318 0.929 . S
C283 C282 1.380 . S
C283 C284 1.399 . S
C284 C283 1.399 . S
C284 C285 1.376 . S
C284 H319 0.931 . S
C285 C284 1.376 . S
C285 N286 1.338 . S
C285 H288 0.930 . S
N286 Cd271 2.304 . S
N286 C281 1.337 . S
N286 C285 1.338 . S
H287 C281 0.929 . S
H288 C285 0.930 . S
C289 N290 1.332 . S
C289 C293 1.381 . S
C289 H295 0.931 . S
N290 Cd271 2.334 . S
N290 C289 1.332 . S
N290 C294 1.328 . S
C291 C292 1.396 . S
C291 C294 1.378 . S
C291 H320 0.931 . S
C292 C291 1.396 . S
C292 C293 1.382 . S
C293 C289 1.381 . S
C293 C292 1.382 . S
C293 H321 0.930 . S
C294 N290 1.328 . S
C294 C291 1.378 . S
C294 H296 0.930 . S
H295 C289 0.931 . S
H296 C294 0.930 . S
C297 O308 1.238 . S
C297 O309 1.253 . S
C298 O310 1.239 . S
C298 O311 1.230 . S
N299 Cd270 2.304 . S
N299 C300 1.337 . S
N299 C304 1.338 . S
C300 N299 1.337 . S
C300 C301 1.379 . S
C300 H314 0.929 . S
C301 C300 1.379 . S
C301 C302 1.380 . S
C301 H322 0.929 . S
C302 C301 1.380 . S
C302 C303 1.399 . S
C303 C302 1.399 . S
C303 C304 1.376 . S
C303 H323 0.931 . S
C304 N299 1.338 . S
C304 C303 1.376 . S
C304 H315 0.930 . S
C305 O312 1.239 . S
C305 O313 1.230 . S
O306 Cd270 2.268 . S
O306 C280 1.238 . S
O307 Cd271 2.273 . S
O307 C280 1.253 . S
O308 Cd271 2.268 . S
O308 C297 1.238 . S
O309 Cd270 2.273 . S
O309 C297 1.253 . S
O310 Cd270 2.417 . S
O310 C298 1.239 . S
O311 Cd270 2.330 . S
O311 C298 1.230 . S
O312 Cd271 2.417 . S
O312 C305 1.239 . S
O313 Cd271 2.330 . S
O313 C305 1.230 . S
H314 C300 0.929 . S
H315 C304 0.930 . S
H316 C274 0.931 . S
H317 C276 0.930 . S
H318 C282 0.929 . S
H319 C284 0.931 . S
H320 C291 0.931 . S
H321 C293 0.930 . S
H322 C301 0.929 . S
H323 C303 0.931 . S
C324 C325 1.349 . S
C324 C326 1.327 . S
C324 H349 0.950 . S
C325 C324 1.349 . S
C325 C341 1.349 . S
C326 C324 1.327 . S
C326 C345 1.429 . S
C326 H350 0.950 . S
C327 C344 1.574 . S
C327 C346 1.368 . S
C327 H351 0.949 . S
H328 C332 0.949 . S
C329 C330 1.349 . S
C329 C331 1.327 . S
C329 H352 0.950 . S
C330 C329 1.349 . S
C330 C342 1.349 . S
C331 C329 1.327 . S
C331 C347 1.429 . S
C331 H353 0.950 . S
C332 H328 0.949 . S
C332 C340 1.574 . S
C332 C348 1.368 . S
H333 C341 0.950 . S
H334 C339 0.950 . S
H335 C340 0.949 . S
H336 C342 0.950 . S
H337 C343 0.950 . S
H338 C344 0.949 . S
C339 H334 0.950 . S
C339 C341 1.327 . S
C339 C345 1.429 . S
C340 C332 1.574 . S
C340 H335 0.949 . S
C340 C346 1.368 . S
C341 C325 1.349 . S
C341 H333 0.950 . S
C341 C339 1.327 . S
C342 C330 1.349 . S
C342 H336 0.950 . S
C342 C343 1.327 . S
C343 H337 0.950 . S
C343 C342 1.327 . S
C343 C347 1.429 . S
C344 C327 1.574 . S
C344 H338 0.949 . S
C344 C348 1.368 . S
C345 C326 1.429 . S
C345 C339 1.429 . S
C345 C346 1.523 . S
C346 C327 1.368 . S
C346 C340 1.368 . S
C346 C345 1.523 . S
C347 C331 1.429 . S
C347 C343 1.429 . S
C347 C348 1.523 . S
C348 C332 1.368 . S
C348 C344 1.368 . S
C348 C347 1.523 . S
H349 C324 0.950 . S
H350 C326 0.950 . S
H351 C327 0.949 . S
H352 C329 0.950 . S
H353 C331 0.950 . S
C354 C355 1.349 . S
C354 C356 1.327 . S
C354 H379 0.950 . S
C355 C354 1.349 . S
C355 C371 1.349 . S
C356 C354 1.327 . S
C356 C375 1.429 . S
C356 H380 0.950 . S
C357 C374 1.574 . S
C357 C376 1.368 . S
C357 H381 0.949 . S
H358 C362 0.949 . S
C359 C360 1.349 . S
C359 C361 1.327 . S
C359 H382 0.950 . S
C360 C359 1.349 . S
C360 C372 1.349 . S
C361 C359 1.327 . S
C361 C377 1.429 . S
C361 H383 0.950 . S
C362 H358 0.949 . S
C362 C370 1.574 . S
C362 C378 1.368 . S
H363 C371 0.950 . S
H364 C369 0.950 . S
H365 C370 0.949 . S
H366 C372 0.950 . S
H367 C373 0.950 . S
H368 C374 0.949 . S
C369 H364 0.950 . S
C369 C371 1.327 . S
C369 C375 1.429 . S
C370 C362 1.574 . S
C370 H365 0.949 . S
C370 C376 1.368 . S
C371 C355 1.349 . S
C371 H363 0.950 . S
C371 C369 1.327 . S
C372 C360 1.349 . S
C372 H366 0.950 . S
C372 C373 1.327 . S
C373 H367 0.950 . S
C373 C372 1.327 . S
C373 C377 1.429 . S
C374 C357 1.574 . S
C374 H368 0.949 . S
C374 C378 1.368 . S
C375 C356 1.429 . S
C375 C369 1.429 . S
C375 C376 1.523 . S
C376 C357 1.368 . S
C376 C370 1.368 . S
C376 C375 1.523 . S
C377 C361 1.429 . S
C377 C373 1.429 . S
C377 C378 1.523 . S
C378 C362 1.368 . S
C378 C374 1.368 . S
C378 C377 1.523 . S
H379 C354 0.950 . S
H380 C356 0.950 . S
H381 C357 0.949 . S
H382 C359 0.950 . S
H383 C361 0.950 . S
C384 C385 1.349 . S
C384 C386 1.327 . S
C384 H409 0.950 . S
C385 C384 1.349 . S
C385 C401 1.349 . S
C386 C384 1.327 . S
C386 C405 1.429 . S
C386 H410 0.950 . S
C387 C404 1.574 . S
C387 C406 1.368 . S
C387 H411 0.949 . S
H388 C392 0.949 . S
C389 C390 1.349 . S
C389 C391 1.327 . S
C389 H412 0.950 . S
C390 C389 1.349 . S
C390 C402 1.349 . S
C391 C389 1.327 . S
C391 C407 1.429 . S
C391 H413 0.950 . S
C392 H388 0.949 . S
C392 C400 1.574 . S
C392 C408 1.368 . S
H393 C401 0.950 . S
H394 C399 0.950 . S
H395 C400 0.949 . S
H396 C402 0.950 . S
H397 C403 0.950 . S
H398 C404 0.949 . S
C399 H394 0.950 . S
C399 C401 1.327 . S
C399 C405 1.429 . S
C400 C392 1.574 . S
C400 H395 0.949 . S
C400 C406 1.368 . S
C401 C385 1.349 . S
C401 H393 0.950 . S
C401 C399 1.327 . S
C402 C390 1.349 . S
C402 H396 0.950 . S
C402 C403 1.327 . S
C403 H397 0.950 . S
C403 C402 1.327 . S
C403 C407 1.429 . S
C404 C387 1.574 . S
C404 H398 0.949 . S
C404 C408 1.368 . S
C405 C386 1.429 . S
C405 C399 1.429 . S
C405 C406 1.523 . S
C406 C387 1.368 . S
C406 C400 1.368 . S
C406 C405 1.523 . S
C407 C391 1.429 . S
C407 C403 1.429 . S
C407 C408 1.523 . S
C408 C392 1.368 . S
C408 C404 1.368 . S
C408 C407 1.523 . S
H409 C384 0.950 . S
H410 C386 0.950 . S
H411 C387 0.949 . S
H412 C389 0.950 . S
H413 C391 0.950 . S
C414 C415 1.349 . S
C414 C416 1.327 . S
C414 H439 0.950 . S
C415 C414 1.349 . S
C415 C431 1.349 . S
C416 C414 1.327 . S
C416 C435 1.429 . S
C416 H440 0.950 . S
C417 C434 1.574 . S
C417 C436 1.368 . S
C417 H441 0.949 . S
H418 C422 0.949 . S
C419 C420 1.349 . S
C419 C421 1.327 . S
C419 H442 0.950 . S
C420 C419 1.349 . S
C420 C432 1.349 . S
C421 C419 1.327 . S
C421 C437 1.429 . S
C421 H443 0.950 . S
C422 H418 0.949 . S
C422 C430 1.574 . S
C422 C438 1.368 . S
H423 C431 0.950 . S
H424 C429 0.950 . S
H425 C430 0.949 . S
H426 C432 0.950 . S
H427 C433 0.950 . S
H428 C434 0.949 . S
C429 H424 0.950 . S
C429 C431 1.327 . S
C429 C435 1.429 . S
C430 C422 1.574 . S
C430 H425 0.949 . S
C430 C436 1.368 . S
C431 C415 1.349 . S
C431 H423 0.950 . S
C431 C429 1.327 . S
C432 C420 1.349 . S
C432 H426 0.950 . S
C432 C433 1.327 . S
C433 H427 0.950 . S
C433 C432 1.327 . S
C433 C437 1.429 . S
C434 C417 1.574 . S
C434 H428 0.949 . S
C434 C438 1.368 . S
C435 C416 1.429 . S
C435 C429 1.429 . S
C435 C436 1.523 . S
C436 C417 1.368 . S
C436 C430 1.368 . S
C436 C435 1.523 . S
C437 C421 1.429 . S
C437 C433 1.429 . S
C437 C438 1.523 . S
C438 C422 1.368 . S
C438 C434 1.368 . S
C438 C437 1.523 . S
H439 C414 0.950 . S
H440 C416 0.950 . S
H441 C417 0.949 . S
H442 C419 0.950 . S
H443 C421 0.950 . S
C444 C445 1.349 . S
C444 C446 1.327 . S
C444 H469 0.950 . S
C445 C444 1.349 . S
C445 C461 1.349 . S
C446 C444 1.327 . S
C446 C465 1.429 . S
C446 H470 0.950 . S
C447 C464 1.574 . S
C447 C466 1.368 . S
C447 H471 0.949 . S
H448 C452 0.949 . S
C449 C450 1.349 . S
C449 C451 1.327 . S
C449 H472 0.950 . S
C450 C449 1.349 . S
C450 C462 1.349 . S
C451 C449 1.327 . S
C451 C467 1.429 . S
C451 H473 0.950 . S
C452 H448 0.949 . S
C452 C460 1.574 . S
C452 C468 1.368 . S
H453 C461 0.950 . S
H454 C459 0.950 . S
H455 C460 0.949 . S
H456 C462 0.950 . S
H457 C463 0.950 . S
H458 C464 0.949 . S
C459 H454 0.950 . S
C459 C461 1.327 . S
C459 C465 1.429 . S
C460 C452 1.574 . S
C460 H455 0.949 . S
C460 C466 1.368 . S
C461 C445 1.349 . S
C461 H453 0.950 . S
C461 C459 1.327 . S
C462 C450 1.349 . S
C462 H456 0.950 . S
C462 C463 1.327 . S
C463 H457 0.950 . S
C463 C462 1.327 . S
C463 C467 1.429 . S
C464 C447 1.574 . S
C464 H458 0.949 . S
C464 C468 1.368 . S
C465 C446 1.429 . S
C465 C459 1.429 . S
C465 C466 1.523 . S
C466 C447 1.368 . S
C466 C460 1.368 . S
C466 C465 1.523 . S
C467 C451 1.429 . S
C467 C463 1.429 . S
C467 C468 1.523 . S
C468 C452 1.368 . S
C468 C464 1.368 . S
C468 C467 1.523 . S
H469 C444 0.950 . S
H470 C446 0.950 . S
H471 C447 0.949 . S
H472 C449 0.950 . S
H473 C451 0.950 . S
C474 C475 1.349 . S
C474 C476 1.327 . S
C474 H499 0.950 . S
C475 C474 1.349 . S
C475 C491 1.349 . S
C476 C474 1.327 . S
C476 C495 1.429 . S
C476 H500 0.950 . S
C477 C494 1.574 . S
C477 C496 1.368 . S
C477 H501 0.949 . S
H478 C482 0.949 . S
C479 C480 1.349 . S
C479 C481 1.327 . S
C479 H502 0.950 . S
C480 C479 1.349 . S
C480 C492 1.349 . S
C481 C479 1.327 . S
C481 C497 1.429 . S
C481 H503 0.950 . S
C482 H478 0.949 . S
C482 C490 1.574 . S
C482 C498 1.368 . S
H483 C491 0.950 . S
H484 C489 0.950 . S
H485 C490 0.949 . S
H486 C492 0.950 . S
H487 C493 0.950 . S
H488 C494 0.949 . S
C489 H484 0.950 . S
C489 C491 1.327 . S
C489 C495 1.429 . S
C490 C482 1.574 . S
C490 H485 0.949 . S
C490 C496 1.368 . S
C491 C475 1.349 . S
C491 H483 0.950 . S
C491 C489 1.327 . S
C492 C480 1.349 . S
C492 H486 0.950 . S
C492 C493 1.327 . S
C493 H487 0.950 . S
C493 C492 1.327 . S
C493 C497 1.429 . S
C494 C477 1.574 . S
C494 H488 0.949 . S
C494 C498 1.368 . S
C495 C476 1.429 . S
C495 C489 1.429 . S
C495 C496 1.523 . S
C496 C477 1.368 . S
C496 C490 1.368 . S
C496 C495 1.523 . S
C497 C481 1.429 . S
C497 C493 1.429 . S
C497 C498 1.523 . S
C498 C482 1.368 . S
C498 C494 1.368 . S
C498 C497 1.523 . S
H499 C474 0.950 . S
H500 C476 0.950 . S
H501 C477 0.949 . S
H502 C479 0.950 . S
H503 C481 0.950 . S
C504 C505 1.349 . S
C504 C506 1.327 . S
C504 H529 0.950 . S
C505 C504 1.349 . S
C505 C521 1.349 . S
C506 C504 1.327 . S
C506 C525 1.429 . S
C506 H530 0.950 . S
C507 C524 1.574 . S
C507 C526 1.368 . S
C507 H531 0.949 . S
H508 C512 0.949 . S
C509 C510 1.349 . S
C509 C511 1.286 1_565 S
C509 H532 0.950 . S
C510 C509 1.349 . S
C510 C522 1.349 . S
C511 C509 1.286 1_545 S
C511 C527 1.452 . S
C511 H533 0.968 . S
C512 H508 0.949 . S
C512 C520 1.574 . S
C512 C528 1.368 . S
H513 C521 0.950 . S
H514 C519 0.950 . S
H515 C520 0.949 . S
H516 C522 0.950 . S
H517 C523 0.950 . S
H518 C524 0.949 . S
C519 H514 0.950 . S
C519 C521 1.327 . S
C519 C525 1.429 . S
C520 C512 1.574 . S
C520 H515 0.949 . S
C520 C526 1.368 . S
C521 C505 1.349 . S
C521 H513 0.950 . S
C521 C519 1.327 . S
C522 C510 1.349 . S
C522 H516 0.950 . S
C522 C523 1.327 . S
C523 H517 0.950 . S
C523 C522 1.327 . S
C523 C527 1.429 1_565 S
C524 C507 1.574 . S
C524 H518 0.949 . S
C524 C528 1.368 . S
C525 C506 1.429 . S
C525 C519 1.429 . S
C525 C526 1.523 . S
C526 C507 1.368 . S
C526 C520 1.368 . S
C526 C525 1.523 . S
C527 C511 1.452 . S
C527 C523 1.429 1_545 S
C527 C528 1.523 . S
C528 C512 1.368 . S
C528 C524 1.368 . S
C528 C527 1.523 . S
H529 C504 0.950 . S
H530 C506 0.950 . S
H531 C507 0.949 . S
H532 C509 0.950 . S
H533 C511 0.968 . S
C534 C535 1.349 . S
C534 C536 1.327 1_655 S
C534 H559 0.950 . S
C535 C534 1.349 . S
C535 C551 1.349 . S
C536 C534 1.327 1_455 S
C536 C555 1.429 . S
C536 H560 0.950 . S
C537 C554 1.574 . S
C537 C556 1.368 . S
C537 H561 0.949 . S
H538 C542 0.949 . S
C539 C540 1.349 . S
C539 C541 1.327 . S
C539 H562 0.950 . S
C540 C539 1.349 . S
C540 C552 1.349 . S
C541 C539 1.327 . S
C541 C557 1.429 . S
C541 H563 0.950 . S
C542 H538 0.949 . S
C542 C550 1.574 . S
C542 C558 1.368 . S
H543 C551 0.950 . S
H544 C549 0.950 . S
H545 C550 0.949 . S
H546 C552 0.950 . S
H547 C553 0.950 . S
H548 C554 0.949 . S
C549 H544 0.950 . S
C549 C551 1.327 . S
C549 C555 1.429 1_655 S
C550 C542 1.574 . S
C550 H545 0.949 . S
C550 C556 1.368 . S
C551 C535 1.349 . S
C551 H543 0.950 . S
C551 C549 1.327 . S
C552 C540 1.349 . S
C552 H546 0.950 . S
C552 C553 1.327 . S
C553 H547 0.950 . S
C553 C552 1.327 . S
C553 C557 1.429 . S
C554 C537 1.574 . S
C554 H548 0.949 . S
C554 C558 1.368 . S
C555 C536 1.429 . S
C555 C549 1.429 1_455 S
C555 C556 1.523 . S
C556 C537 1.368 . S
C556 C550 1.368 . S
C556 C555 1.523 . S
C557 C541 1.429 . S
C557 C553 1.429 . S
C557 C558 1.523 . S
C558 C542 1.368 . S
C558 C554 1.368 . S
C558 C557 1.523 . S
H559 C534 0.950 . S
H560 C536 0.950 . S
H561 C537 0.949 . S
H562 C539 0.950 . S
H563 C541 0.950 . S
C564 C565 1.349 . S
C564 C566 1.327 . S
C564 H589 0.950 . S
C565 C564 1.349 . S
C565 C581 1.349 . S
C566 C564 1.327 . S
C566 C585 1.429 1_455 S
C566 H590 0.950 . S
C567 C584 1.574 . S
C567 C586 1.368 . S
C567 H591 0.949 . S
H568 C572 0.949 . S
C569 C570 1.349 . S
C569 C571 1.331 . S
C569 H592 0.950 . S
C570 C569 1.349 . S
C570 C582 1.349 . S
C571 C569 1.331 . S
C571 C587 1.431 1_565 S
C571 H593 0.943 1_565 S
C572 H568 0.949 . S
C572 C580 1.574 . S
C572 C588 1.368 . S
H573 C581 0.950 . S
H574 C579 0.950 1_655 S
H575 C580 0.949 . S
H576 C582 0.950 . S
H577 C583 0.950 . S
H578 C584 0.949 . S
C579 H574 0.950 1_455 S
C579 C581 1.327 . S
C579 C585 1.429 1_455 S
C580 C572 1.574 . S
C580 H575 0.949 . S
C580 C586 1.368 . S
C581 C565 1.349 . S
C581 H573 0.950 . S
C581 C579 1.327 . S
C582 C570 1.349 . S
C582 H576 0.950 . S
C582 C583 1.327 . S
C583 H577 0.950 . S
C583 C582 1.327 . S
C583 C587 1.429 1_565 S
C584 C567 1.574 . S
C584 H578 0.949 . S
C584 C588 1.368 . S
C585 C566 1.429 1_655 S
C585 C579 1.429 1_655 S
C585 C586 1.523 . S
C586 C567 1.368 . S
C586 C580 1.368 . S
C586 C585 1.523 . S
C587 C571 1.431 1_545 S
C587 C583 1.429 1_545 S
C587 C588 1.523 . S
C588 C572 1.368 . S
C588 C584 1.368 . S
C588 C587 1.523 . S
H589 C564 0.950 . S
H590 C566 0.950 . S
H591 C567 0.949 . S
H592 C569 0.950 . S
H593 C571 0.943 1_545 S
C594 C595 1.349 . S
C594 C596 1.327 . S
C594 H619 0.950 . S
C595 C594 1.349 . S
C595 C611 1.349 . S
C596 C594 1.327 . S
C596 C615 1.429 1_545 S
C596 H620 0.950 . S
C597 C614 1.574 . S
C597 C616 1.368 . S
C597 H621 0.949 . S
H598 C602 0.949 . S
C599 C600 1.349 . S
C599 C601 1.327 . S
C599 H622 0.950 . S
C600 C599 1.349 . S
C600 C612 1.349 . S
C601 C599 1.327 . S
C601 C617 1.429 . S
C601 H623 0.950 . S
C602 H598 0.949 . S
C602 C610 1.574 . S
C602 C618 1.368 . S
H603 C611 0.950 . S
H604 C609 0.950 1_565 S
H605 C610 0.949 . S
H606 C612 0.950 . S
H607 C613 0.950 . S
H608 C614 0.949 . S
C609 H604 0.950 1_545 S
C609 C611 1.327 . S
C609 C615 1.429 1_545 S
C610 C602 1.574 . S
C610 H605 0.949 . S
C610 C616 1.368 . S
C611 C595 1.349 . S
C611 H603 0.950 . S
C611 C609 1.327 . S
C612 C600 1.349 . S
C612 H606 0.950 . S
C612 C613 1.327 . S
C613 H607 0.950 . S
C613 C612 1.327 . S
C613 C617 1.429 . S
C614 C597 1.574 . S
C614 H608 0.949 . S
C614 C618 1.368 . S
C615 C596 1.429 1_565 S
C615 C609 1.429 1_565 S
C615 C616 1.523 . S
C616 C597 1.368 . S
C616 C610 1.368 . S
C616 C615 1.523 . S
C617 C601 1.429 . S
C617 C613 1.429 . S
C617 C618 1.523 . S
C618 C602 1.368 . S
C618 C614 1.368 . S
C618 C617 1.523 . S
H619 C594 0.950 . S
H620 C596 0.950 . S
H621 C597 0.949 . S
H622 C599 0.950 . S
H623 C601 0.950 . S
C624 C625 1.349 . S
C624 C626 1.327 . S
C624 H649 0.950 . S
C625 C624 1.349 . S
C625 C641 1.349 . S
C626 C624 1.327 . S
C626 C645 1.429 . S
C626 H650 0.950 . S
C627 C644 1.574 . S
C627 C646 1.368 . S
C627 H651 0.949 . S
H628 C632 0.949 . S
C629 C630 1.349 . S
C629 C631 1.327 . S
C629 H652 0.950 . S
C630 C629 1.349 . S
C630 C642 1.349 . S
C631 C629 1.327 . S
C631 C647 1.429 1_455 S
C631 H653 0.950 1_455 S
C632 H628 0.949 . S
C632 C640 1.574 . S
C632 C648 1.368 . S
H633 C641 0.950 . S
H634 C639 0.950 . S
H635 C640 0.949 . S
H636 C642 0.950 . S
H637 C643 0.950 . S
H638 C644 0.949 . S
C639 H634 0.950 . S
C639 C641 1.327 . S
C639 C645 1.429 . S
C640 C632 1.574 . S
C640 H635 0.949 . S
C640 C646 1.368 . S
C641 C625 1.349 . S
C641 H633 0.950 . S
C641 C639 1.327 . S
C642 C630 1.349 . S
C642 H636 0.950 . S
C642 C643 1.327 . S
C643 H637 0.950 . S
C643 C642 1.327 . S
C643 C647 1.429 1_455 S
C644 C627 1.574 . S
C644 H638 0.949 . S
C644 C648 1.368 . S
C645 C626 1.429 . S
C645 C639 1.429 . S
C645 C646 1.523 . S
C646 C627 1.368 . S
C646 C640 1.368 . S
C646 C645 1.523 . S
C647 C631 1.429 1_655 S
C647 C643 1.429 1_655 S
C647 C648 1.523 . S
C648 C632 1.368 . S
C648 C644 1.368 . S
C648 C647 1.523 . S
H649 C624 0.950 . S
H650 C626 0.950 . S
H651 C627 0.949 . S
H652 C629 0.950 . S
H653 C631 0.950 1_655 S
C654 C655 1.349 . S
C654 C656 1.327 . S
C654 H679 0.950 . S
C655 C654 1.349 . S
C655 C671 1.349 . S
C656 C654 1.327 . S
C656 C675 1.429 1_545 S
C656 H680 0.950 1_545 S
C657 C674 1.574 . S
C657 C676 1.368 . S
C657 H681 0.949 . S
H658 C662 0.949 . S
C659 C660 1.349 . S
C659 C661 1.327 . S
C659 H682 0.950 . S
C660 C659 1.349 . S
C660 C672 1.349 . S
C661 C659 1.327 . S
C661 C677 1.429 1_655 S
C661 H683 0.950 . S
C662 H658 0.949 . S
C662 C670 1.574 . S
C662 C678 1.368 . S
H663 C671 0.950 . S
H664 C669 0.950 . S
H665 C670 0.949 . S
H666 C672 0.950 . S
H667 C673 0.978 . S
H668 C674 0.949 . S
C669 H664 0.950 . S
C669 C671 1.327 . S
C669 C675 1.429 1_545 S
C670 C662 1.574 . S
C670 H665 0.949 . S
C670 C676 1.368 . S
C671 C655 1.349 . S
C671 H663 0.950 . S
C671 C669 1.327 . S
C672 C660 1.349 . S
C672 H666 0.950 . S
C672 C673 1.310 1_655 S
C673 H667 0.978 . S
C673 C672 1.310 1_455 S
C673 C677 1.419 . S
C674 C657 1.574 . S
C674 H668 0.949 . S
C674 C678 1.368 . S
C675 C656 1.429 1_565 S
C675 C669 1.429 1_565 S
C675 C676 1.523 . S
C676 C657 1.368 . S
C676 C670 1.368 . S
C676 C675 1.523 . S
C677 C661 1.429 1_455 S
C677 C673 1.419 . S
C677 C678 1.523 . S
C678 C662 1.368 . S
C678 C674 1.368 . S
C678 C677 1.523 . S
H679 C654 0.950 . S
H680 C656 0.950 1_565 S
H681 C657 0.949 . S
H682 C659 0.950 . S
H683 C661 0.950 . S
C684 C685 1.349 . S
C684 C686 1.327 . S
C684 H709 0.950 . S
C685 C684 1.349 . S
C685 C701 1.349 . S
C686 C684 1.327 . S
C686 C705 1.429 . S
C686 H710 0.950 . S
C687 C704 1.574 1_554 S
C687 C706 1.368 . S
C687 H711 0.949 . S
H688 C692 0.949 . S
C689 C690 1.349 . S
C689 C691 1.327 . S
C689 H712 0.950 . S
C690 C689 1.349 . S
C690 C702 1.349 . S
C691 C689 1.327 . S
C691 C707 1.429 . S
C691 H713 0.950 . S
C692 H688 0.949 . S
C692 C700 1.574 1_556 S
C692 C708 1.368 . S
H693 C701 0.950 . S
H694 C699 0.950 . S
H695 C700 0.949 . S
H696 C702 0.950 . S
H697 C703 0.950 . S
H698 C704 0.949 . S
C699 H694 0.950 . S
C699 C701 1.327 . S
C699 C705 1.429 . S
C700 C692 1.574 1_554 S
C700 H695 0.949 . S
C700 C706 1.368 . S
C701 C685 1.349 . S
C701 H693 0.950 . S
C701 C699 1.327 . S
C702 C690 1.349 . S
C702 H696 0.950 . S
C702 C703 1.327 . S
C703 H697 0.950 . S
C703 C702 1.327 . S
C703 C707 1.429 . S
C704 C687 1.574 1_556 S
C704 H698 0.949 . S
C704 C708 1.368 . S
C705 C686 1.429 . S
C705 C699 1.429 . S
C705 C706 1.523 . S
C706 C687 1.368 . S
C706 C700 1.368 . S
C706 C705 1.523 . S
C707 C691 1.429 . S
C707 C703 1.429 . S
C707 C708 1.523 . S
C708 C692 1.368 . S
C708 C704 1.368 . S
C708 C707 1.523 . S
H709 C684 0.950 . S
H710 C686 0.950 . S
H711 C687 0.949 . S
H712 C689 0.950 . S
H713 C691 0.950 . S
C714 C715 1.349 . S
C714 C716 1.327 . S
C714 H739 0.950 . S
C715 C714 1.349 . S
C715 C731 1.349 . S
C716 C714 1.327 . S
C716 C735 1.429 . S
C716 H740 0.950 . S
C717 C734 1.574 1_655 S
C717 C736 1.368 . S
C717 H741 0.949 . S
H718 C722 0.949 . S
C719 C720 1.349 . S
C719 C721 1.327 . S
C719 H742 0.950 . S
C720 C719 1.349 . S
C720 C732 1.349 . S
C721 C719 1.327 . S
C721 C737 1.429 . S
C721 H743 0.950 . S
C722 H718 0.949 . S
C722 C730 1.574 1_455 S
C722 C738 1.368 . S
H723 C731 0.950 . S
H724 C729 0.950 . S
H725 C730 0.949 . S
H726 C732 0.950 . S
H727 C733 0.950 . S
H728 C734 0.949 . S
C729 H724 0.950 . S
C729 C731 1.327 . S
C729 C735 1.429 . S
C730 C722 1.574 1_655 S
C730 H725 0.949 . S
C730 C736 1.368 . S
C731 C715 1.349 . S
C731 H723 0.950 . S
C731 C729 1.327 . S
C732 C720 1.349 . S
C732 H726 0.950 . S
C732 C733 1.327 . S
C733 H727 0.950 . S
C733 C732 1.327 . S
C733 C737 1.429 . S
C734 C717 1.574 1_455 S
C734 H728 0.949 . S
C734 C738 1.368 . S
C735 C716 1.429 . S
C735 C729 1.429 . S
C735 C736 1.523 . S
C736 C717 1.368 . S
C736 C730 1.368 . S
C736 C735 1.523 . S
C737 C721 1.429 . S
C737 C733 1.429 . S
C737 C738 1.523 . S
C738 C722 1.368 . S
C738 C734 1.368 . S
C738 C737 1.523 . S
H739 C714 0.950 . S
H740 C716 0.950 . S
H741 C717 0.949 . S
H742 C719 0.950 . S
H743 C721 0.950 . S
C744 C745 1.349 . S
C744 C746 1.327 . S
C744 H769 0.950 . S
C745 C744 1.349 . S
C745 C761 1.349 . S
C746 C744 1.327 . S
C746 C765 1.429 . S
C746 H770 0.950 . S
C747 C764 1.574 . S
C747 C766 1.368 1_556 S
C747 H771 0.949 . S
H748 C752 0.949 . S
C749 C750 1.349 . S
C749 C751 1.327 . S
C749 H772 0.950 . S
C750 C749 1.349 . S
C750 C762 1.349 . S
C751 C749 1.327 . S
C751 C767 1.429 . S
C751 H773 0.950 . S
C752 H748 0.949 . S
C752 C760 1.574 . S
C752 C768 1.368 1_554 S
H753 C761 0.950 . S
H754 C759 0.950 . S
H755 C760 0.949 . S
H756 C762 0.950 . S
H757 C763 0.950 . S
H758 C764 0.949 . S
C759 H754 0.950 . S
C759 C761 1.327 . S
C759 C765 1.429 . S
C760 C752 1.574 . S
C760 H755 0.949 . S
C760 C766 1.368 1_545 S
C761 C745 1.349 . S
C761 H753 0.950 . S
C761 C759 1.327 . S
C762 C750 1.349 . S
C762 H756 0.950 . S
C762 C763 1.327 . S
C763 H757 0.950 . S
C763 C762 1.327 . S
C763 C767 1.429 . S
C764 C747 1.574 . S
C764 H758 0.949 . S
C764 C768 1.368 1_565 S
C765 C746 1.429 . S
C765 C759 1.429 . S
C765 C766 1.523 . S
C766 C747 1.368 1_554 S
C766 C760 1.368 1_565 S
C766 C765 1.523 . S
C767 C751 1.429 . S
C767 C763 1.429 . S
C767 C768 1.523 . S
C768 C752 1.368 1_556 S
C768 C764 1.368 1_545 S
C768 C767 1.523 . S
H769 C744 0.950 . S
H770 C746 0.950 . S
H771 C747 0.949 . S
H772 C749 0.950 . S
H773 C751 0.950 . S
C774 C775 1.349 . S
C774 C776 1.327 . S
C774 H799 0.950 . S
C775 C774 1.349 . S
C775 C791 1.349 . S
C776 C774 1.327 . S
C776 C795 1.429 . S
C776 H800 0.950 . S
C777 C794 1.574 . S
C777 C796 1.368 . S
C777 H801 0.949 . S
H778 C782 0.949 . S
C779 C780 1.349 . S
C779 C781 1.327 . S
C779 H802 0.950 . S
C780 C779 1.349 . S
C780 C792 1.349 . S
C781 C779 1.327 . S
C781 C797 1.429 . S
C781 H803 0.950 . S
C782 H778 0.949 . S
C782 C790 1.574 . S
C782 C798 1.368 . S
H783 C791 0.950 . S
H784 C789 0.950 . S
H785 C790 0.949 . S
H786 C792 0.950 . S
H787 C793 0.950 . S
H788 C794 0.949 . S
C789 H784 0.950 . S
C789 C791 1.327 . S
C789 C795 1.429 . S
C790 C782 1.574 . S
C790 H785 0.949 . S
C790 C796 1.368 . S
C791 C775 1.349 . S
C791 H783 0.950 . S
C791 C789 1.327 . S
C792 C780 1.349 . S
C792 H786 0.950 . S
C792 C793 1.327 . S
C793 H787 0.950 . S
C793 C792 1.327 . S
C793 C797 1.429 . S
C794 C777 1.574 . S
C794 H788 0.949 . S
C794 C798 1.368 . S
C795 C776 1.429 . S
C795 C789 1.429 . S
C795 C796 1.523 . S
C796 C777 1.368 . S
C796 C790 1.368 . S
C796 C795 1.523 . S
C797 C781 1.429 . S
C797 C793 1.429 . S
C797 C798 1.523 . S
C798 C782 1.368 . S
C798 C794 1.368 . S
C798 C797 1.523 . S
H799 C774 0.950 . S
H800 C776 0.950 . S
H801 C777 0.949 . S
H802 C779 0.950 . S
H803 C781 0.950 . S
C804 C805 1.349 . S
C804 C806 1.327 . S
C804 H829 0.950 . S
C805 C804 1.349 . S
C805 C821 1.349 . S
C806 C804 1.327 . S
C806 C825 1.429 . S
C806 H830 0.950 . S
C807 C824 1.574 1_656 S
C807 C826 1.368 . S
C807 H831 0.949 . S
H808 C812 0.949 . S
C809 C810 1.349 . S
C809 C811 1.327 . S
C809 H832 0.950 . S
C810 C809 1.349 . S
C810 C822 1.349 . S
C811 C809 1.327 . S
C811 C827 1.429 . S
C811 H833 0.950 . S
C812 H808 0.949 . S
C812 C820 1.574 1_454 S
C812 C828 1.368 . S
H813 C821 0.950 . S
H814 C819 0.950 . S
H815 C820 0.949 . S
H816 C822 0.950 . S
H817 C823 0.950 . S
H818 C824 0.949 . S
C819 H814 0.950 . S
C819 C821 1.327 . S
C819 C825 1.429 . S
C820 C812 1.574 1_656 S
C820 H815 0.949 . S
C820 C826 1.368 . S
C821 C805 1.349 . S
C821 H813 0.950 . S
C821 C819 1.327 . S
C822 C810 1.349 . S
C822 H816 0.950 . S
C822 C823 1.327 . S
C823 H817 0.950 . S
C823 C822 1.327 . S
C823 C827 1.429 . S
C824 C807 1.574 1_454 S
C824 H818 0.949 . S
C824 C828 1.368 . S
C825 C806 1.429 . S
C825 C819 1.429 . S
C825 C826 1.523 . S
C826 C807 1.368 . S
C826 C820 1.368 . S
C826 C825 1.523 . S
C827 C811 1.429 . S
C827 C823 1.429 . S
C827 C828 1.523 . S
C828 C812 1.368 . S
C828 C824 1.368 . S
C828 C827 1.523 . S
H829 C804 0.950 . S
H830 C806 0.950 . S
H831 C807 0.949 . S
H832 C809 0.950 . S
H833 C811 0.950 . S
C834 C835 1.349 . S
C834 C836 1.327 . S
C834 H859 0.950 . S
C835 C834 1.349 . S
C835 C851 1.349 . S
C836 C834 1.327 . S
C836 C855 1.429 . S
C836 H860 0.950 . S
C837 C854 1.574 . S
C837 C856 1.368 . S
C837 H861 0.949 . S
H838 C842 0.949 . S
C839 C840 1.349 . S
C839 C841 1.327 . S
C839 H862 0.950 . S
C840 C839 1.349 . S
C840 C852 1.349 . S
C841 C839 1.327 . S
C841 C857 1.429 . S
C841 H863 0.950 . S
C842 H838 0.949 . S
C842 C850 1.574 . S
C842 C858 1.368 . S
H843 C851 0.950 . S
H844 C849 0.950 . S
H845 C850 0.949 . S
H846 C852 0.950 . S
H847 C853 0.950 . S
H848 C854 0.949 . S
C849 H844 0.950 . S
C849 C851 1.327 . S
C849 C855 1.429 . S
C850 C842 1.574 . S
C850 H845 0.949 . S
C850 C856 1.368 1_565 S
C851 C835 1.349 . S
C851 H843 0.950 . S
C851 C849 1.327 . S
C852 C840 1.349 . S
C852 H846 0.950 . S
C852 C853 1.327 . S
C853 H847 0.950 . S
C853 C852 1.327 . S
C853 C857 1.429 . S
C854 C837 1.574 . S
C854 H848 0.949 . S
C854 C858 1.368 1_545 S
C855 C836 1.429 . S
C855 C849 1.429 . S
C855 C856 1.523 . S
C856 C837 1.368 . S
C856 C850 1.368 1_545 S
C856 C855 1.523 . S
C857 C841 1.429 . S
C857 C853 1.429 . S
C857 C858 1.523 . S
C858 C842 1.368 . S
C858 C854 1.368 1_565 S
C858 C857 1.523 . S
H859 C834 0.950 . S
H860 C836 0.950 . S
H861 C837 0.949 . S
H862 C839 0.950 . S
H863 C841 0.950 . S
C864 C865 1.349 . S
C864 C866 1.327 . S
C864 H889 0.950 . S
C865 C864 1.349 . S
C865 C881 1.349 . S
C866 C864 1.327 . S
C866 C885 1.429 . S
C866 H890 0.950 . S
C867 C884 1.574 1_556 S
C867 C886 1.368 . S
C867 H891 0.949 . S
H868 C872 0.949 . S
C869 C870 1.349 . S
C869 C871 1.327 . S
C869 H892 0.950 . S
C870 C869 1.349 . S
C870 C882 1.349 . S
C871 C869 1.327 . S
C871 C887 1.429 . S
C871 H893 0.950 . S
C872 H868 0.949 . S
C872 C880 1.574 1_554 S
C872 C888 1.368 . S
H873 C881 0.950 . S
H874 C879 0.950 . S
H875 C880 0.949 . S
H876 C882 0.950 . S
H877 C883 0.950 . S
H878 C884 0.949 . S
C879 H874 0.950 . S
C879 C881 1.327 . S
C879 C885 1.429 . S
C880 C872 1.574 1_556 S
C880 H875 0.949 . S
C880 C886 1.368 . S
C881 C865 1.349 . S
C881 H873 0.950 . S
C881 C879 1.327 . S
C882 C870 1.349 . S
C882 H876 0.950 . S
C882 C883 1.327 . S
C883 H877 0.950 . S
C883 C882 1.327 . S
C883 C887 1.429 . S
C884 C867 1.574 1_554 S
C884 H878 0.949 . S
C884 C888 1.368 . S
C885 C866 1.429 . S
C885 C879 1.429 . S
C885 C886 1.523 . S
C886 C867 1.368 . S
C886 C880 1.368 . S
C886 C885 1.523 . S
C887 C871 1.429 . S
C887 C883 1.429 . S
C887 C888 1.523 . S
C888 C872 1.368 . S
C888 C884 1.368 . S
C888 C887 1.523 . S
H889 C864 0.950 . S
H890 C866 0.950 . S
H891 C867 0.949 . S
H892 C869 0.950 . S
H893 C871 0.950 . S
C894 C895 1.349 . S
C894 C896 1.327 . S
C894 H919 0.950 . S
C895 C894 1.349 . S
C895 C911 1.349 . S
C896 C894 1.327 . S
C896 C915 1.429 . S
C896 H920 0.950 . S
C897 C914 1.574 1_455 S
C897 C916 1.368 . S
C897 H921 0.949 . S
H898 C902 0.949 . S
C899 C900 1.349 . S
C899 C901 1.327 . S
C899 H922 0.950 . S
C900 C899 1.349 . S
C900 C912 1.349 . S
C901 C899 1.327 . S
C901 C917 1.429 . S
C901 H923 0.950 . S
C902 H898 0.949 . S
C902 C910 1.574 1_655 S
C902 C918 1.368 . S
H903 C911 0.950 . S
H904 C909 0.950 . S
H905 C910 0.949 . S
H906 C912 0.950 . S
H907 C913 0.950 . S
H908 C914 0.949 . S
C909 H904 0.950 . S
C909 C911 1.327 . S
C909 C915 1.429 . S
C910 C902 1.574 1_455 S
C910 H905 0.949 . S
C910 C916 1.368 . S
C911 C895 1.349 . S
C911 H903 0.950 . S
C911 C909 1.327 . S
C912 C900 1.349 . S
C912 H906 0.950 . S
C912 C913 1.327 . S
C913 H907 0.950 . S
C913 C912 1.327 . S
C913 C917 1.429 . S
C914 C897 1.574 1_655 S
C914 H908 0.949 . S
C914 C918 1.368 . S
C915 C896 1.429 . S
C915 C909 1.429 . S
C915 C916 1.523 . S
C916 C897 1.368 . S
C916 C910 1.368 . S
C916 C915 1.523 . S
C917 C901 1.429 . S
C917 C913 1.429 . S
C917 C918 1.523 . S
C918 C902 1.368 . S
C918 C914 1.368 . S
C918 C917 1.523 . S
H919 C894 0.950 . S
H920 C896 0.950 . S
H921 C897 0.949 . S
H922 C899 0.950 . S
H923 C901 0.950 . S
C924 C925 1.349 . S
C924 C926 1.327 . S
C924 H949 0.950 . S
C925 C924 1.349 . S
C925 C941 1.349 . S
C926 C924 1.327 . S
C926 C945 1.429 . S
C926 H950 0.950 . S
C927 C944 1.575 1_556 S
C927 C946 1.368 1_565 S
C927 H951 0.949 . S
H928 C932 0.949 . S
C929 C930 1.349 . S
C929 C931 1.327 . S
C929 H952 0.950 . S
C930 C929 1.349 . S
C930 C942 1.349 . S
C931 C929 1.327 . S
C931 C947 1.429 . S
C931 H953 0.950 . S
C932 H928 0.949 . S
C932 C940 1.575 1_554 S
C932 C948 1.368 1_545 S
H933 C941 0.950 . S
H934 C939 0.950 . S
H935 C940 0.949 . S
H936 C942 0.950 . S
H937 C943 0.950 . S
H938 C944 0.949 . S
C939 H934 0.950 . S
C939 C941 1.327 . S
C939 C945 1.429 . S
C940 C932 1.575 1_556 S
C940 H935 0.949 . S
C940 C946 1.367 . S
C941 C925 1.349 . S
C941 H933 0.950 . S
C941 C939 1.327 . S
C942 C930 1.349 . S
C942 H936 0.950 . S
C942 C943 1.327 . S
C943 H937 0.950 . S
C943 C942 1.327 . S
C943 C947 1.429 . S
C944 C927 1.575 1_554 S
C944 H938 0.949 . S
C944 C948 1.367 . S
C945 C926 1.429 . S
C945 C939 1.429 . S
C945 C946 1.523 . S
C946 C927 1.368 1_545 S
C946 C940 1.367 . S
C946 C945 1.523 . S
C947 C931 1.429 . S
C947 C943 1.429 . S
C947 C948 1.523 . S
C948 C932 1.368 1_565 S
C948 C944 1.367 . S
C948 C947 1.523 . S
H949 C924 0.950 . S
H950 C926 0.950 . S
H951 C927 0.949 . S
H952 C929 0.950 . S
H953 C931 0.950 . S
C954 C955 1.349 . S
C954 C956 1.327 . S
C954 H979 0.950 . S
C955 C954 1.349 . S
C955 C971 1.349 . S
C956 C954 1.327 . S
C956 C975 1.429 . S
C956 H980 0.950 . S
C957 C974 1.574 . S
C957 C976 1.368 . S
C957 H981 0.949 . S
H958 C962 0.949 . S
C959 C960 1.349 . S
C959 C961 1.327 . S
C959 H982 0.950 . S
C960 C959 1.349 . S
C960 C972 1.349 . S
C961 C959 1.327 . S
C961 C977 1.429 . S
C961 H983 0.950 . S
C962 H958 0.949 . S
C962 C970 1.574 . S
C962 C978 1.368 . S
H963 C971 0.950 . S
H964 C969 0.950 . S
H965 C970 0.949 . S
H966 C972 0.950 . S
H967 C973 0.950 . S
H968 C974 0.949 . S
C969 H964 0.950 . S
C969 C971 1.327 . S
C969 C975 1.429 . S
C970 C962 1.574 . S
C970 H965 0.949 . S
C970 C976 1.368 . S
C971 C955 1.349 . S
C971 H963 0.950 . S
C971 C969 1.327 . S
C972 C960 1.349 . S
C972 H966 0.950 . S
C972 C973 1.327 . S
C973 H967 0.950 . S
C973 C972 1.327 . S
C973 C977 1.429 . S
C974 C957 1.574 . S
C974 H968 0.949 . S
C974 C978 1.368 . S
C975 C956 1.429 . S
C975 C969 1.429 . S
C975 C976 1.523 . S
C976 C957 1.368 . S
C976 C970 1.368 . S
C976 C975 1.523 . S
C977 C961 1.429 . S
C977 C973 1.429 . S
C977 C978 1.523 . S
C978 C962 1.368 . S
C978 C974 1.368 . S
C978 C977 1.523 . S
H979 C954 0.950 . S
H980 C956 0.950 . S
H981 C957 0.949 . S
H982 C959 0.950 . S
H983 C961 0.950 . S
C984 C985 1.349 . S
C984 C986 1.327 . S
C984 H1009 0.950 . S
C985 C984 1.349 . S
C985 C1001 1.349 . S
C986 C984 1.327 . S
C986 C1005 1.429 . S
C986 H1010 0.950 . S
C987 C1004 1.559 1_554 S
C987 C1006 1.382 . S
C987 H1011 0.950 . S
H988 C992 0.950 . S
C989 C990 1.349 . S
C989 C991 1.327 . S
C989 H1012 0.950 . S
C990 C989 1.349 . S
C990 C1002 1.349 . S
C991 C989 1.327 . S
C991 C1007 1.429 . S
C991 H1013 0.950 . S
C992 H988 0.950 . S
C992 C1000 1.559 1_556 S
C992 C1008 1.382 . S
H993 C1001 0.950 . S
H994 C999 0.950 . S
H995 C1000 0.949 . S
H996 C1002 0.950 . S
H997 C1003 0.950 . S
H998 C1004 0.949 . S
C999 H994 0.950 . S
C999 C1001 1.327 . S
C999 C1005 1.429 . S
C1000 C992 1.559 1_554 S
C1000 H995 0.949 . S
C1000 C1006 1.368 1_655 S
C1001 C985 1.349 . S
C1001 H993 0.950 . S
C1001 C999 1.327 . S
C1002 C990 1.349 . S
C1002 H996 0.950 . S
C1002 C1003 1.327 . S
C1003 H997 0.950 . S
C1003 C1002 1.327 . S
C1003 C1007 1.429 . S
C1004 C987 1.559 1_556 S
C1004 H998 0.949 . S
C1004 C1008 1.368 1_455 S
C1005 C986 1.429 . S
C1005 C999 1.429 . S
C1005 C1006 1.523 . S
C1006 C987 1.382 . S
C1006 C1000 1.368 1_455 S
C1006 C1005 1.523 . S
C1007 C991 1.429 . S
C1007 C1003 1.429 . S
C1007 C1008 1.523 . S
C1008 C992 1.382 . S
C1008 C1004 1.368 1_655 S
C1008 C1007 1.523 . S
H1009 C984 0.950 . S
H1010 C986 0.950 . S
H1011 C987 0.950 . S
H1012 C989 0.950 . S
H1013 C991 0.950 . S
C1014 C1015 1.349 . S
C1014 C1016 1.327 . S
C1014 H1039 0.950 . S
C1015 C1014 1.349 . S
C1015 C1031 1.349 . S
C1016 C1014 1.327 . S
C1016 C1035 1.429 . S
C1016 H1040 0.950 . S
C1017 C1034 1.574 . S
C1017 C1036 1.368 . S
C1017 H1041 0.949 . S
H1018 C1022 0.949 . S
C1019 C1020 1.349 . S
C1019 C1021 1.327 . S
C1019 H1042 0.950 . S
C1020 C1019 1.349 . S
C1020 C1032 1.349 . S
C1021 C1019 1.327 . S
C1021 C1037 1.429 . S
C1021 H1043 0.950 . S
C1022 H1018 0.949 . S
C1022 C1030 1.574 . S
C1022 C1038 1.368 . S
H1023 C1031 0.950 . S
H1024 C1029 0.950 . S
H1025 C1030 0.949 . S
H1026 C1032 0.950 . S
H1027 C1033 0.950 . S
H1028 C1034 0.949 . S
C1029 H1024 0.950 . S
C1029 C1031 1.327 . S
C1029 C1035 1.429 . S
C1030 C1022 1.574 . S
C1030 H1025 0.949 . S
C1030 C1036 1.368 1_565 S
C1031 C1015 1.349 . S
C1031 H1023 0.950 . S
C1031 C1029 1.327 . S
C1032 C1020 1.349 . S
C1032 H1026 0.950 . S
C1032 C1033 1.327 . S
C1033 H1027 0.950 . S
C1033 C1032 1.327 . S
C1033 C1037 1.429 . S
C1034 C1017 1.574 . S
C1034 H1028 0.949 . S
C1034 C1038 1.368 1_545 S
C1035 C1016 1.429 . S
C1035 C1029 1.429 . S
C1035 C1036 1.523 . S
C1036 C1017 1.368 . S
C1036 C1030 1.368 1_545 S
C1036 C1035 1.523 . S
C1037 C1021 1.429 . S
C1037 C1033 1.429 . S
C1037 C1038 1.523 . S
C1038 C1022 1.368 . S
C1038 C1034 1.368 1_565 S
C1038 C1037 1.523 . S
H1039 C1014 0.950 . S
H1040 C1016 0.950 . S
H1041 C1017 0.949 . S
H1042 C1019 0.950 . S
H1043 C1021 0.950 . S
C325 C32 1.997 . S
C330 C229 1.997 . S
C355 C302 1.997 . S
C360 C67 1.997 . S
C385 C13 1.997 . S
C390 C140 1.997 . S
C415 C86 1.997 . S
C420 C175 1.997 . S
C445 C248 1.997 . S
C450 C121 1.997 . S
C475 C283 1.997 . S
C480 C194 1.997 . S
C505 C22 1.016 . S
C510 C221 1.016 . S
C535 C59 1.016 . S
C540 C292 1.016 . S
C565 C5 1.016 . S
C570 C130 1.016 . S
C595 C76 1.016 . S
C600 C167 1.016 . S
C625 C113 1.016 . S
C630 C238 1.016 . S
C655 C275 1.016 . S
C660 C184 1.016 . S
C685 C10 2.449 . S
C690 C280 2.449 . S
C715 C81 2.449 . S
C720 C27 2.449 . S
C745 C118 2.449 . S
C750 C64 2.449 . S
C775 C189 2.449 . S
C780 C135 2.449 . S
C805 C172 2.449 . S
C810 C226 2.449 . S
C835 C297 2.449 . S
C840 C243 2.449 . S
C865 C190 0.563 . S
C870 C136 0.563 . S
C895 C251 0.563 . S
C900 C197 0.563 . S
C925 C298 0.563 . S
C930 C244 0.563 . S
C955 C305 0.563 . S
C960 C35 0.563 . S
C985 C28 0.563 . S
C990 C82 0.563 . S
C1015 C89 0.563 . S
C1020 C143 0.563 . S
