# Generated by pormake.
# Topology umm, (4)-cn, num edge types: 1
# Building blocks:
#     Node 0, Type 0, BuildingBlock: ICAMEG_clean_sbu_1, # of connection points: 4
#     Node 1, Type 0, BuildingBlock: ICAMEG_clean_sbu_1, # of connection points: 4
#     Node 2, Type 0, BuildingBlock: ICAMEG_clean_sbu_1, # of connection points: 4
#     Node 3, Type 0, BuildingBlock: ICAMEG_clean_sbu_1, # of connection points: 4
#     Node 4, Type 0, BuildingBlock: ICAMEG_clean_sbu_1, # of connection points: 4
#     Node 5, Type 0, BuildingBlock: ICAMEG_clean_sbu_1, # of connection points: 4
#     Node 6, Type 0, BuildingBlock: ICAMEG_clean_sbu_1, # of connection points: 4
#     Node 7, Type 0, BuildingBlock: ICAMEG_clean_sbu_1, # of connection points: 4
#     Node 8, Type 0, BuildingBlock: ICAMEG_clean_sbu_1, # of connection points: 4
#     Node 9, Type 0, BuildingBlock: ICAMEG_clean_sbu_1, # of connection points: 4
#     Node 10, Type 0, BuildingBlock: ICAMEG_clean_sbu_1, # of connection points: 4
#     Node 11, Type 0, BuildingBlock: ICAMEG_clean_sbu_1, # of connection points: 4
#     Edge 12, Type (0, 0), BuildingBlock: XUDNAN_clean_linker_2, # of connection points: 2
#     Edge 13, Type (0, 0), BuildingBlock: XUDNAN_clean_linker_2, # of connection points: 2
#     Edge 14, Type (0, 0), BuildingBlock: XUDNAN_clean_linker_2, # of connection points: 2
#     Edge 15, Type (0, 0), BuildingBlock: XUDNAN_clean_linker_2, # of connection points: 2
#     Edge 16, Type (0, 0), BuildingBlock: XUDNAN_clean_linker_2, # of connection points: 2
#     Edge 17, Type (0, 0), BuildingBlock: XUDNAN_clean_linker_2, # of connection points: 2
#     Edge 18, Type (0, 0), BuildingBlock: XUDNAN_clean_linker_2, # of connection points: 2
#     Edge 19, Type (0, 0), BuildingBlock: XUDNAN_clean_linker_2, # of connection points: 2
#     Edge 20, Type (0, 0), BuildingBlock: XUDNAN_clean_linker_2, # of connection points: 2
#     Edge 21, Type (0, 0), BuildingBlock: XUDNAN_clean_linker_2, # of connection points: 2
#     Edge 22, Type (0, 0), BuildingBlock: XUDNAN_clean_linker_2, # of connection points: 2
#     Edge 23, Type (0, 0), BuildingBlock: XUDNAN_clean_linker_2, # of connection points: 2
#     Edge 24, Type (0, 0), BuildingBlock: XUDNAN_clean_linker_2, # of connection points: 2
#     Edge 25, Type (0, 0), BuildingBlock: XUDNAN_clean_linker_2, # of connection points: 2
#     Edge 26, Type (0, 0), BuildingBlock: XUDNAN_clean_linker_2, # of connection points: 2
#     Edge 27, Type (0, 0), BuildingBlock: XUDNAN_clean_linker_2, # of connection points: 2
#     Edge 28, Type (0, 0), BuildingBlock: XUDNAN_clean_linker_2, # of connection points: 2
#     Edge 29, Type (0, 0), BuildingBlock: XUDNAN_clean_linker_2, # of connection points: 2
#     Edge 30, Type (0, 0), BuildingBlock: XUDNAN_clean_linker_2, # of connection points: 2
#     Edge 31, Type (0, 0), BuildingBlock: XUDNAN_clean_linker_2, # of connection points: 2
#     Edge 32, Type (0, 0), BuildingBlock: XUDNAN_clean_linker_2, # of connection points: 2
#     Edge 33, Type (0, 0), BuildingBlock: XUDNAN_clean_linker_2, # of connection points: 2
#     Edge 34, Type (0, 0), BuildingBlock: XUDNAN_clean_linker_2, # of connection points: 2
#     Edge 35, Type (0, 0), BuildingBlock: XUDNAN_clean_linker_2, # of connection points: 2
# Relax obj value: 0.064
# Max RMSD: 0.165
# Mean RMSD: 0.165
data_MOF--net-umm--node1-ICAMEG_clean_sbu_1--edge1-XUDNAN_clean_linker_2
_symmetry_space_group_name_H-M    P1
_symmetry_Int_Tables_number       1
_symmetry_cell_setting            triclinic
loop_
_symmetry_equiv_pos_as_xyz
'x, y, z'
_cell_length_a     60.390305
_cell_length_b     60.373719
_cell_length_c     30.114768
_cell_angle_alpha  90.058723
_cell_angle_beta   89.977
_cell_angle_gamma 119.93567
loop_
_atom_site_label
_atom_site_type_symbol
_atom_site_fract_x
_atom_site_fract_y
_atom_site_fract_z
_atom_type_partial_charge
Co0 Co 0.38977 0.51359 0.05411 0.0
Co1 Co 0.4226 0.57313 0.10321 0.0
O2 O 0.39259 0.5395 0.09568 0.0
C3 C 0.34956 0.52486 0.02752 0.0
O4 O 0.36751 0.54893 0.0301 0.0
C5 C 0.41426 0.55012 0.19182 0.0
O6 O 0.41494 0.5308 0.17329 0.0
O7 O 0.4456 0.55827 0.10558 0.0
O8 O 0.42468 0.52009 0.07107 0.0
H9 H 0.51256 0.64343 0.07462 0.0
H10 H 0.34862 0.50085 0.11999 0.0
O11 O 0.35491 0.50733 0.03604 0.0
H12 H 0.38092 0.44185 0.15124 0.0
H13 H 0.34272 0.42887 0.97545 0.0
H14 H 0.42474 0.50938 0.98986 0.0
H15 H 0.39907 0.47299 0.09001 0.0
H16 H 0.34741 0.46201 0.02879 0.0
O17 O 0.41728 0.56909 0.16879 0.0
H18 H 0.47447 0.601 0.06351 0.0
H19 H 0.43454 0.61702 0.16299 0.0
H20 H 0.42097 0.47671 0.93638 0.0
H21 H 0.32978 0.46988 0.18135 0.0
H22 H 0.37971 0.4361 0.92891 0.0
H23 H 0.34598 0.44013 0.19735 0.0
O24 O 0.40538 0.539 0.00572 0.0
H25 H 0.34372 0.57781 0.13898 0.0
H26 H 0.42385 0.61625 0.05287 0.0
H27 H 0.39464 0.6335 0.04521 0.0
H28 H 0.35419 0.61417 0.08831 0.0
H29 H 0.37339 0.56106 0.14548 0.0
H30 H 0.47228 0.65958 0.17542 0.0
H31 H 0.51161 0.67305 0.13092 0.0
O32 O 0.42832 0.57752 0.03797 0.0
C33 C 0.44445 0.53795 0.09032 0.0
C34 C 0.49551 0.63782 0.0941 0.0
C35 C 0.47291 0.64687 0.15072 0.0
N36 N 0.45224 0.60665 0.11229 0.0
C37 C 0.47385 0.61385 0.08787 0.0
C38 C 0.45162 0.62274 0.14359 0.0
C39 C 0.49497 0.65441 0.12573 0.0
C40 C 0.35561 0.48781 0.12653 0.0
N41 N 0.37479 0.48859 0.1013 0.0
C42 C 0.34494 0.47039 0.16141 0.0
C43 C 0.35406 0.45372 0.1704 0.0
C44 C 0.37367 0.45468 0.14456 0.0
C45 C 0.3839 0.47238 0.10999 0.0
C46 C 0.36081 0.44646 0.97847 0.0
C47 C 0.40678 0.49168 0.98703 0.0
C48 C 0.36355 0.4653 0.00855 0.0
N49 N 0.38638 0.48749 0.01267 0.0
C50 C 0.40474 0.47329 0.95658 0.0
C51 C 0.38158 0.45053 0.95238 0.0
C52 C 0.42065 0.56304 0.00395 0.0
C53 C 0.36133 0.58645 0.12013 0.0
C54 C 0.40634 0.60781 0.0719 0.0
C55 C 0.38988 0.61766 0.06743 0.0
C56 C 0.36719 0.60683 0.09165 0.0
N57 N 0.40042 0.58776 0.09981 0.0
C58 C 0.37828 0.57713 0.12386 0.0
Co59 Co 0.87791 0.36994 0.38196 0.0
Co60 Co 0.8676 0.42102 0.3957 0.0
O61 O 0.86196 0.38718 0.41177 0.0
C62 C 0.82288 0.33376 0.37047 0.0
O63 O 0.82063 0.35376 0.36094 0.0
C64 C 0.88351 0.42653 0.48916 0.0
O65 O 0.89667 0.41544 0.47797 0.0
O66 O 0.90539 0.43577 0.39296 0.0
O67 O 0.9114 0.40249 0.38008 0.0
H68 H 0.90486 0.50201 0.30643 0.0
H69 H 0.84892 0.34826 0.46509 0.0
O70 O 0.84452 0.3368 0.38211 0.0
H71 H 0.93699 0.36834 0.49821 0.0
H72 H 0.89452 0.29709 0.35647 0.0
H73 H 0.91403 0.38278 0.30682 0.0
H74 H 0.92549 0.37597 0.42344 0.0
H75 H 0.875 0.31955 0.39386 0.0
O76 O 0.87046 0.43031 0.46006 0.0
H77 H 0.89786 0.45944 0.32687 0.0
H78 H 0.84886 0.4546 0.43221 0.0
H79 H 0.93415 0.36111 0.26872 0.0
H80 H 0.85955 0.34019 0.54029 0.0
H81 H 0.92442 0.31795 0.29354 0.0
H82 H 0.9039 0.35039 0.55727 0.0
O83 O 0.86917 0.37762 0.32249 0.0
H84 H 0.7803 0.37011 0.46358 0.0
H85 H 0.82915 0.42227 0.33516 0.0
H86 H 0.7823 0.40324 0.33652 0.0
H87 H 0.75756 0.37694 0.40108 0.0
H88 H 0.82716 0.3893 0.46069 0.0
H89 H 0.85553 0.49726 0.41322 0.0
H90 H 0.88361 0.5212 0.34979 0.0
O91 O 0.86491 0.41229 0.33141 0.0
C92 C 0.91978 0.42638 0.38504 0.0
C93 C 0.89252 0.49174 0.33407 0.0
C94 C 0.86486 0.48908 0.39404 0.0
N95 N 0.87281 0.45448 0.38045 0.0
C96 C 0.88843 0.4676 0.34571 0.0
C97 C 0.8612 0.46497 0.4047 0.0
C98 C 0.88061 0.50251 0.35843 0.0
C99 C 0.86818 0.35245 0.47214 0.0
N100 N 0.88652 0.36243 0.43991 0.0
C101 C 0.87411 0.34795 0.5148 0.0
C102 C 0.89901 0.35371 0.52432 0.0
C103 C 0.91759 0.3638 0.49121 0.0
C104 C 0.91098 0.3681 0.44895 0.0
C105 C 0.89897 0.31592 0.34543 0.0
C106 C 0.90985 0.36407 0.31799 0.0
C107 C 0.88795 0.32871 0.36643 0.0
N108 N 0.89358 0.35255 0.35279 0.0
C109 C 0.92124 0.35187 0.29621 0.0
C110 C 0.91575 0.32764 0.31012 0.0
C111 C 0.86524 0.39507 0.30734 0.0
C112 C 0.79088 0.38158 0.43532 0.0
C113 C 0.81852 0.41083 0.36336 0.0
C114 C 0.792 0.40014 0.36397 0.0
C115 C 0.77813 0.3854 0.40021 0.0
N116 N 0.83089 0.40699 0.39792 0.0
C117 C 0.81742 0.39259 0.4336 0.0
Co118 Co 0.49918 0.87649 0.71272 0.0
Co119 Co 0.44201 0.87421 0.73726 0.0
O120 O 0.46807 0.86462 0.74764 0.0
C121 C 0.47052 0.82073 0.70123 0.0
O122 O 0.45053 0.82372 0.69754 0.0
C123 C 0.46197 0.89265 0.82662 0.0
O124 O 0.48452 0.90159 0.80823 0.0
O125 O 0.46824 0.91064 0.72805 0.0
O126 O 0.50596 0.91267 0.71546 0.0
H127 H 0.40104 0.91759 0.65743 0.0
H128 H 0.49127 0.84518 0.79312 0.0
O129 O 0.4925 0.84017 0.70843 0.0
H130 H 0.57011 0.927 0.82149 0.0
H131 H 0.5802 0.878 0.66788 0.0
H132 H 0.52335 0.9131 0.63856 0.0
H133 H 0.54706 0.91942 0.75046 0.0
H134 H 0.54107 0.86401 0.71224 0.0
O135 O 0.44188 0.88093 0.80283 0.0
H136 H 0.43362 0.90497 0.66967 0.0
H137 H 0.39483 0.86402 0.78567 0.0
H138 H 0.5624 0.92781 0.59364 0.0
H139 H 0.5138 0.85186 0.86453 0.0
H140 H 0.59112 0.9102 0.6082 0.0
H141 H 0.55346 0.89306 0.87911 0.0
O142 O 0.48013 0.87103 0.6565 0.0
H143 H 0.40143 0.78951 0.8157 0.0
H144 H 0.39557 0.83699 0.68733 0.0
H145 H 0.36347 0.79139 0.69645 0.0
H146 H 0.3663 0.76735 0.76102 0.0
H147 H 0.43323 0.83507 0.80511 0.0
H148 H 0.3619 0.87633 0.77489 0.0
H149 H 0.36485 0.90324 0.71029 0.0
O150 O 0.44217 0.8679 0.67188 0.0
C151 C 0.49217 0.92316 0.72012 0.0
C152 C 0.39948 0.90577 0.6856 0.0
C153 C 0.37754 0.88265 0.75157 0.0
N154 N 0.41597 0.88358 0.72809 0.0
C155 C 0.41782 0.89849 0.69261 0.0
C156 C 0.39625 0.87577 0.75754 0.0
C157 C 0.3792 0.89774 0.71531 0.0
C158 C 0.50867 0.86305 0.79909 0.0
N159 N 0.51792 0.88184 0.76763 0.0
C160 C 0.52128 0.86676 0.83963 0.0
C161 C 0.54351 0.8899 0.84782 0.0
C162 C 0.55286 0.90896 0.81551 0.0
C163 C 0.53971 0.90458 0.77539 0.0
C164 C 0.56787 0.88586 0.66129 0.0
C165 C 0.53587 0.90552 0.64529 0.0
C166 C 0.54568 0.87798 0.68624 0.0
N167 N 0.5301 0.88792 0.67823 0.0
C168 C 0.5579 0.91384 0.61966 0.0
C169 C 0.57399 0.90393 0.62782 0.0
C170 C 0.45836 0.86763 0.64486 0.0
C171 C 0.39995 0.7998 0.78752 0.0
C172 C 0.39691 0.82665 0.71552 0.0
C173 C 0.37867 0.80085 0.72054 0.0
C174 C 0.38026 0.78737 0.75678 0.0
N175 N 0.41616 0.8387 0.74581 0.0
C176 C 0.41783 0.82563 0.78146 0.0
Co177 Co 0.63203 0.49786 0.05646 0.0
Co178 Co 0.57572 0.43962 0.06197 0.0
O179 O 0.61117 0.46296 0.07875 0.0
C180 C 0.65793 0.47024 0.02729 0.0
O181 O 0.63482 0.45228 0.01651 0.0
C182 C 0.57509 0.44512 0.15875 0.0
O183 O 0.59146 0.46948 0.15286 0.0
O184 O 0.56679 0.46682 0.06913 0.0
O185 O 0.60311 0.50494 0.06705 0.0
H186 H 0.49418 0.41331 0.9788 0.0
H187 H 0.65243 0.47876 0.12702 0.0
O188 O 0.66112 0.49092 0.0448 0.0
H189 H 0.65 0.55227 0.19316 0.0
H190 H 0.71387 0.58165 0.03996 0.0
H191 H 0.62283 0.53209 -0.00161 0.0
H192 H 0.63678 0.53972 0.11541 0.0
H193 H 0.68666 0.5377 0.0677 0.0
O194 O 0.56664 0.42996 0.12569 0.0
H195 H 0.53909 0.44232 -0.00021 0.0
H196 H 0.53653 0.38704 0.08996 0.0
H197 H 0.64927 0.57606 0.97018 0.0
H198 H 0.66597 0.49074 0.20483 0.0
H199 H 0.69514 0.60113 0.99097 0.0
H200 H 0.66465 0.52765 0.23844 0.0
O201 O 0.62001 0.48714 0.99433 0.0
H202 H 0.61605 0.38776 0.10753 0.0
H203 H 0.56683 0.40155 0.99102 0.0
H204 H 0.57917 0.36865 0.98017 0.0
H205 H 0.60397 0.3616 0.03869 0.0
H206 H 0.60347 0.4206 0.11686 0.0
H207 H 0.49151 0.35747 0.07017 0.0
H208 H 0.47007 0.37053 0.0141 0.0
O209 O 0.58396 0.44899 -0.0015 0.0
C210 C 0.57877 0.49117 0.07044 0.0
C211 C 0.50333 0.40736 0.00315 0.0
C212 C 0.50183 0.37603 0.05448 0.0
N213 N 0.54047 0.41629 0.04577 0.0
C214 C 0.52878 0.42367 0.01507 0.0
C215 C 0.5273 0.39287 0.06561 0.0
C216 C 0.48981 0.38337 0.02301 0.0
C217 C 0.65211 0.49504 0.14127 0.0
N218 N 0.64393 0.50859 0.11669 0.0
C219 C 0.65968 0.50166 0.18539 0.0
C220 C 0.6589 0.52235 0.20426 0.0
C221 C 0.65066 0.53616 0.17888 0.0
C222 C 0.64317 0.52894 0.1349 0.0
C223 C 0.6939 0.57094 0.03074 0.0
C224 C 0.64274 0.54296 0.0078 0.0
C225 C 0.67842 0.54604 0.04627 0.0
N226 N 0.65316 0.53246 0.03493 0.0
C227 C 0.65763 0.56781 0.99162 0.0
C228 C 0.68337 0.58186 0.00327 0.0
C229 C 0.60113 0.46772 0.97649 0.0
C230 C 0.60517 0.3906 0.08187 0.0
C231 C 0.57759 0.39857 0.01666 0.0
C232 C 0.58451 0.3799 0.01035 0.0
C233 C 0.59841 0.37595 0.0432 0.0
N234 N 0.58429 0.41286 0.05469 0.0
C235 C 0.59789 0.40907 0.08707 0.0
Co236 Co 0.14053 0.61632 0.37795 0.0
Co237 Co 0.15357 0.57012 0.41716 0.0
O238 O 0.15592 0.60354 0.42037 0.0
C239 C 0.1959 0.64943 0.36764 0.0
O240 O 0.19648 0.62834 0.37481 0.0
C241 C 0.12869 0.57082 0.50079 0.0
O242 O 0.11789 0.58127 0.4777 0.0
O243 O 0.11706 0.55335 0.40032 0.0
O244 O 0.10672 0.58336 0.38255 0.0
H245 H 0.13011 0.48522 0.34861 0.0
H246 H 0.16845 0.64832 0.4554 0.0
O247 O 0.17463 0.64916 0.37065 0.0
H248 H 0.07992 0.63098 0.47138 0.0
H249 H 0.12537 0.68385 0.31068 0.0
H250 H 0.105 0.59404 0.30169 0.0
H251 H 0.09239 0.61431 0.40699 0.0
H252 H 0.1441 0.6668 0.36406 0.0
O253 O 0.14365 0.56454 0.48179 0.0
H254 H 0.13354 0.52763 0.35173 0.0
H255 H 0.16857 0.54126 0.47867 0.0
H256 H 0.08567 0.61022 0.24784 0.0
H257 H 0.15688 0.66553 0.52021 0.0
H258 H 0.09584 0.65544 0.25216 0.0
H259 H 0.1123 0.65679 0.52854 0.0
O260 O 0.15012 0.60205 0.32707 0.0
H261 H 0.23116 0.62851 0.50728 0.0
H262 H 0.19866 0.56855 0.38093 0.0
H263 H 0.24453 0.58995 0.39966 0.0
H264 H 0.26103 0.62014 0.4633 0.0
H265 H 0.1855 0.6069 0.4871 0.0
H266 H 0.16533 0.49889 0.47714 0.0
H267 H 0.14606 0.47058 0.41169 0.0
O268 O 0.16285 0.57506 0.35249 0.0
C269 C 0.10101 0.56007 0.38837 0.0
C270 C 0.13858 0.49739 0.37729 0.0
C271 C 0.15832 0.50505 0.44945 0.0
N272 N 0.15129 0.53693 0.41525 0.0
C273 C 0.14062 0.52145 0.37919 0.0
C274 C 0.16003 0.52899 0.45018 0.0
C275 C 0.14751 0.48918 0.41271 0.0
C276 C 0.14909 0.64469 0.45864 0.0
N277 N 0.13115 0.63049 0.42742 0.0
C278 C 0.14262 0.65438 0.49546 0.0
C279 C 0.1176 0.64944 0.50014 0.0
C280 C 0.09941 0.63495 0.46809 0.0
C281 C 0.10657 0.62554 0.43175 0.0
C282 C 0.12073 0.6641 0.30853 0.0
C283 C 0.10935 0.61368 0.30397 0.0
C284 C 0.13131 0.65436 0.33861 0.0
N285 N 0.12543 0.6294 0.33622 0.0
C286 C 0.09843 0.62276 0.2733 0.0
C287 C 0.10416 0.64814 0.27571 0.0
C288 C 0.15916 0.58718 0.32128 0.0
C289 C 0.22418 0.61533 0.47957 0.0
C290 C 0.20572 0.58169 0.40863 0.0
C291 C 0.2317 0.59372 0.41912 0.0
C292 C 0.24094 0.61065 0.45484 0.0
N293 N 0.18941 0.58635 0.4331 0.0
C294 C 0.19833 0.60295 0.46813 0.0
Co295 Co 0.51278 0.13594 0.70961 0.0
Co296 Co 0.57217 0.15957 0.75864 0.0
O297 O 0.53811 0.1555 0.75503 0.0
C298 C 0.52388 0.18892 0.69841 0.0
O299 O 0.54791 0.19499 0.70178 0.0
C300 C 0.54754 0.13435 0.84257 0.0
O301 O 0.5279 0.11878 0.81808 0.0
O302 O 0.55854 0.1225 0.74728 0.0
O303 O 0.51939 0.1066 0.71694 0.0
H304 H 0.64502 0.14746 0.70981 0.0
H305 H 0.49878 0.15826 0.78487 0.0
O306 O 0.50635 0.1655 0.70117 0.0
H307 H 0.44022 0.06521 0.79454 0.0
H308 H 0.42906 0.10452 0.63007 0.0
H309 H 0.50987 0.10289 0.63432 0.0
H310 H 0.47208 0.08345 0.73437 0.0
H311 H 0.46129 0.12826 0.68795 0.0
O312 O 0.56728 0.15267 0.82443 0.0
H313 H 0.60209 0.14266 0.70441 0.0
H314 H 0.61484 0.18509 0.82353 0.0
H315 H 0.47817 0.07882 0.57598 0.0
H316 H 0.46704 0.14087 0.84539 0.0
H317 H 0.43741 0.07953 0.57363 0.0
H318 H 0.43753 0.09402 0.85054 0.0
O319 O 0.53874 0.14991 0.66158 0.0
H320 H 0.57349 0.23536 0.8305 0.0
H321 H 0.61487 0.20736 0.72026 0.0
H322 H 0.6308 0.25342 0.7307 0.0
H323 H 0.61001 0.26767 0.78606 0.0
H324 H 0.55805 0.18948 0.81874 0.0
H325 H 0.65786 0.19019 0.83043 0.0
H326 H 0.67323 0.17137 0.77319 0.0
O327 O 0.57746 0.166 0.6932 0.0
C328 C 0.53811 0.10416 0.73076 0.0
C329 C 0.63858 0.15583 0.73487 0.0
C330 C 0.64577 0.17978 0.8026 0.0
N331 N 0.60607 0.16378 0.76341 0.0
C332 C 0.61432 0.15324 0.73192 0.0
C333 C 0.62139 0.1768 0.79857 0.0
C334 C 0.65438 0.16922 0.77047 0.0
C335 C 0.48584 0.13788 0.78669 0.0
N336 N 0.48717 0.12189 0.75604 0.0
C337 C 0.46798 0.12813 0.82112 0.0
C338 C 0.45145 0.10184 0.82402 0.0
C339 C 0.45296 0.08566 0.79263 0.0
C340 C 0.47107 0.09608 0.75869 0.0
C341 C 0.44672 0.10401 0.63082 0.0
C342 C 0.4921 0.10314 0.63369 0.0
C343 C 0.46503 0.11742 0.66347 0.0
N344 N 0.48731 0.11675 0.66471 0.0
C345 C 0.47426 0.08954 0.6005 0.0
C346 C 0.45141 0.08998 0.59917 0.0
C347 C 0.56301 0.16078 0.65925 0.0
C348 C 0.58274 0.22939 0.80635 0.0
C349 C 0.60577 0.21342 0.74449 0.0
C350 C 0.61488 0.23953 0.75028 0.0
C351 C 0.60322 0.24751 0.78137 0.0
N352 N 0.58564 0.19577 0.76904 0.0
C353 C 0.57417 0.20345 0.79971 0.0
Co354 Co 0.49665 0.63285 0.61088 0.0
Co355 Co 0.43748 0.57776 0.6066 0.0
O356 O 0.46167 0.61272 0.58899 0.0
C357 C 0.47046 0.66014 0.63988 0.0
O358 O 0.4523 0.63733 0.65156 0.0
C359 C 0.44183 0.574 0.51018 0.0
O360 O 0.46662 0.58511 0.51598 0.0
O361 O 0.46366 0.56733 0.59889 0.0
O362 O 0.50239 0.60302 0.60118 0.0
H363 H 0.40856 0.49563 0.68949 0.0
H364 H 0.47827 0.65358 0.53971 0.0
O365 O 0.49079 0.66271 0.62192 0.0
H366 H 0.55045 0.64847 0.47422 0.0
H367 H 0.58179 0.71335 0.62554 0.0
H368 H 0.5303 0.62276 0.66895 0.0
H369 H 0.53764 0.63568 0.552 0.0
H370 H 0.53753 0.68695 0.59854 0.0
O371 O 0.42692 0.56936 0.54309 0.0
H372 H 0.43889 0.54012 0.66807 0.0
H373 H 0.38407 0.54023 0.5799 0.0
H374 H 0.57455 0.64838 0.69641 0.0
H375 H 0.49054 0.66676 0.46188 0.0
H376 H 0.60059 0.69401 0.67469 0.0
H377 H 0.52683 0.66417 0.42863 0.0
O378 O 0.48609 0.62153 0.67313 0.0
H379 H 0.38827 0.6214 0.56376 0.0
H380 H 0.40069 0.57054 0.67883 0.0
H381 H 0.36921 0.58461 0.69113 0.0
H382 H 0.36284 0.61022 0.63332 0.0
H383 H 0.41971 0.60714 0.55298 0.0
H384 H 0.35316 0.49564 0.60015 0.0
H385 H 0.36533 0.47308 0.65544 0.0
O386 O 0.44769 0.58576 0.66977 0.0
C387 C 0.48803 0.57871 0.59809 0.0
C388 C 0.40299 0.50528 0.66548 0.0
C389 C 0.37192 0.50528 0.61529 0.0
N390 N 0.41317 0.54282 0.62307 0.0
C391 C 0.42006 0.5305 0.65332 0.0
C392 C 0.38951 0.5305 0.60389 0.0
C393 C 0.37875 0.49263 0.64632 0.0
C394 C 0.49422 0.65263 0.52556 0.0
N395 N 0.50731 0.64401 0.55038 0.0
C396 C 0.50103 0.66002 0.48144 0.0
C397 C 0.52137 0.65853 0.46279 0.0
C398 C 0.53462 0.64971 0.48835 0.0
C399 C 0.52726 0.64245 0.53233 0.0
C400 C 0.57065 0.69347 0.63516 0.0
C401 C 0.54159 0.64257 0.65914 0.0
C402 C 0.54557 0.67846 0.62006 0.0
N403 N 0.53146 0.65332 0.63191 0.0
C404 C 0.5666 0.65699 0.67489 0.0
C405 C 0.58119 0.68261 0.66273 0.0
C406 C 0.46674 0.60283 0.69131 0.0
C407 C 0.3908 0.61016 0.5891 0.0
C408 C 0.39801 0.58166 0.6535 0.0
C409 C 0.38014 0.58955 0.66063 0.0
C410 C 0.37656 0.60391 0.62817 0.0
N411 N 0.41189 0.58785 0.61507 0.0
C412 C 0.40848 0.60192 0.58309 0.0
Co413 Co 0.87165 0.48995 0.95505 0.0
Co414 Co 0.86058 0.43536 0.89865 0.0
O415 O 0.85749 0.46573 0.90604 0.0
C416 C 0.81606 0.46542 0.96412 0.0
O417 O 0.81701 0.44451 0.9571 0.0
C418 C 0.88652 0.44578 0.81179 0.0
O419 O 0.90329 0.44095 0.83058 0.0
O420 O 0.8976 0.4553 0.91322 0.0
O421 O 0.90594 0.49231 0.94646 0.0
H422 H 0.88956 0.3729 0.93817 0.0
H423 H 0.84405 0.4994 0.88274 0.0
O424 O 0.83687 0.4869 0.96469 0.0
H425 H 0.93137 0.57371 0.88147 0.0
H426 H 0.88248 0.56432 0.04707 0.0
H427 H 0.9065 0.49776 0.03031 0.0
H428 H 0.91918 0.53896 0.93587 0.0
H429 H 0.86592 0.53393 0.98439 0.0
O430 O 0.86816 0.44464 0.83446 0.0
H431 H 0.88506 0.41096 0.94876 0.0
H432 H 0.8424 0.39459 0.82929 0.0
H433 H 0.92353 0.52776 0.09342 0.0
H434 H 0.85534 0.53381 0.82799 0.0
H435 H 0.91153 0.56135 0.10207 0.0
H436 H 0.89929 0.57129 0.82714 0.0
O437 O 0.86271 0.4623 -0.00079 0.0
H438 H 0.77965 0.42015 0.82431 0.0
H439 H 0.81714 0.3859 0.93048 0.0
H440 H 0.77073 0.362 0.91633 0.0
H441 H 0.7517 0.37912 0.86291 0.0
H442 H 0.82593 0.44354 0.83967 0.0
H443 H 0.84641 0.35632 0.81732 0.0
H444 H 0.87015 0.34527 0.872 0.0
O445 O 0.85347 0.42623 0.96268 0.0
C446 C 0.91281 0.4768 0.93127 0.0
C447 C 0.87919 0.37753 0.91407 0.0
C448 C 0.85497 0.36821 0.84627 0.0
N449 N 0.86358 0.40507 0.88966 0.0
C450 C 0.87662 0.39909 0.91989 0.0
C451 C 0.85277 0.38991 0.85322 0.0
C452 C 0.86829 0.36203 0.87695 0.0
C453 C 0.86315 0.51574 0.88273 0.0
N454 N 0.88089 0.51728 0.91259 0.0
C455 C 0.86946 0.53512 0.85158 0.0
C456 C 0.89414 0.55613 0.85109 0.0
C457 C 0.91215 0.55749 0.88155 0.0
C458 C 0.90516 0.53774 0.91219 0.0
C459 C 0.88791 0.54982 0.04357 0.0
C460 C 0.90136 0.51246 0.03367 0.0
C461 C 0.87858 0.53256 0.00818 0.0
N462 N 0.88544 0.51427 0.00351 0.0
C463 C 0.91099 0.52933 0.06955 0.0
C464 C 0.90421 0.54815 0.07442 0.0
C465 C 0.85618 0.4387 -0.00163 0.0
C466 C 0.78774 0.41244 0.84751 0.0
C467 C 0.80902 0.39346 0.90713 0.0
C468 C 0.78272 0.37983 0.89923 0.0
C469 C 0.77206 0.38944 0.86923 0.0
N470 N 0.82428 0.41599 0.88563 0.0
C471 C 0.81395 0.42554 0.85618 0.0
Co472 Co 0.3738 0.86805 0.27544 0.0
Co473 Co 0.42675 0.86601 0.23583 0.0
O474 O 0.39078 0.85678 0.2327 0.0
C475 C 0.34785 0.81228 0.2846 0.0
O476 O 0.37097 0.81554 0.28282 0.0
C477 C 0.42044 0.88091 0.14351 0.0
O478 O 0.4008 0.88318 0.15565 0.0
O479 O 0.43732 0.90238 0.24731 0.0
O480 O 0.40272 0.90418 0.27019 0.0
H481 H 0.51466 0.90944 0.30289 0.0
H482 H 0.34457 0.8368 0.19792 0.0
O483 O 0.34475 0.83166 0.28189 0.0
H484 H 0.34579 0.91868 0.18188 0.0
H485 H 0.2977 0.86855 0.3425 0.0
H486 H 0.39099 0.90439 0.35104 0.0
H487 H 0.36667 0.91116 0.24588 0.0
H488 H 0.31979 0.85512 0.28918 0.0
O489 O 0.43161 0.87368 0.17086 0.0
H490 H 0.46905 0.89668 0.29844 0.0
H491 H 0.46124 0.85557 0.17941 0.0
H492 H 0.36972 0.91846 0.40487 0.0
H493 H 0.32319 0.84338 0.13364 0.0
H494 H 0.32273 0.90049 0.40079 0.0
H495 H 0.3238 0.88461 0.12526 0.0
O496 O 0.39103 0.86264 0.32752 0.0
H497 H 0.37773 0.78201 0.15623 0.0
H498 H 0.43882 0.82824 0.27685 0.0
H499 H 0.42452 0.78269 0.26412 0.0
H500 H 0.39375 0.75927 0.20341 0.0
H501 H 0.39237 0.82751 0.17044 0.0
H502 H 0.5068 0.86799 0.18247 0.0
H503 H 0.53382 0.89505 0.24462 0.0
O504 O 0.42371 0.85907 0.30052 0.0
C505 C 0.42643 0.91477 0.26007 0.0
C506 C 0.50306 0.89754 0.27575 0.0
C507 C 0.49865 0.87431 0.20813 0.0
N508 N 0.46243 0.87521 0.23894 0.0
C509 C 0.4772 0.8902 0.27312 0.0
C510 C 0.47287 0.86737 0.20655 0.0
C511 C 0.5138 0.8895 0.24301 0.0
C512 C 0.34469 0.85468 0.19471 0.0
N513 N 0.35676 0.87354 0.22566 0.0
C514 C 0.33265 0.85835 0.15815 0.0
C515 C 0.33304 0.8815 0.15343 0.0
C516 C 0.34539 0.90064 0.18517 0.0
C517 C 0.35725 0.8963 0.22126 0.0
C518 C 0.31819 0.87656 0.34456 0.0
C519 C 0.37056 0.89662 0.34887 0.0
C520 C 0.33078 0.869 0.31451 0.0
N521 N 0.35666 0.87911 0.31683 0.0
C522 C 0.35861 0.9046 0.37952 0.0
C523 C 0.33225 0.89449 0.37725 0.0
C524 C 0.41002 0.85916 0.33255 0.0
C525 C 0.39119 0.79202 0.18271 0.0
C526 C 0.42539 0.81817 0.25047 0.0
C527 C 0.4174 0.79239 0.24333 0.0
C528 C 0.40016 0.77927 0.20924 0.0
N529 N 0.4165 0.83054 0.22433 0.0
C530 C 0.39963 0.81782 0.19078 0.0
Co531 Co 0.51054 0.38849 0.61449 0.0
Co532 Co 0.5697 0.42286 0.56418 0.0
O533 O 0.53646 0.3922 0.57187 0.0
C534 C 0.523 0.34864 0.63825 0.0
O535 O 0.54693 0.36694 0.6358 0.0
C536 C 0.54452 0.41303 0.47723 0.0
O537 O 0.5235 0.4075 0.49877 0.0
O538 O 0.55414 0.44509 0.56477 0.0
O539 O 0.51595 0.42325 0.59875 0.0
H540 H 0.63891 0.51286 0.59633 0.0
H541 H 0.49792 0.34771 0.54771 0.0
O542 O 0.50516 0.35373 0.63109 0.0
H543 H 0.43734 0.3785 0.52014 0.0
H544 H 0.4267 0.33932 0.69499 0.0
H545 H 0.506 0.42243 0.68064 0.0
H546 H 0.46893 0.39687 0.58073 0.0
H547 H 0.45959 0.34517 0.6402 0.0
O548 O 0.56517 0.41946 0.49822 0.0
H549 H 0.59709 0.47393 0.60702 0.0
H550 H 0.61313 0.43698 0.50209 0.0
H551 H 0.47357 0.41748 0.73565 0.0
H552 H 0.4665 0.32866 0.487 0.0
H553 H 0.43357 0.37567 0.74308 0.0
H554 H 0.43599 0.34413 0.4728 0.0
O555 O 0.53633 0.40429 0.66248 0.0
H556 H 0.57581 0.34589 0.51951 0.0
H557 H 0.61376 0.42407 0.61113 0.0
H558 H 0.6319 0.39544 0.6142 0.0
H559 H 0.61282 0.35597 0.5683 0.0
H560 H 0.5582 0.37499 0.51761 0.0
H561 H 0.65504 0.47561 0.48996 0.0
H562 H 0.66821 0.51387 0.53742 0.0
O563 O 0.57468 0.42729 0.62971 0.0
C564 C 0.53363 0.44337 0.58004 0.0
C565 C 0.63344 0.49628 0.57556 0.0
C566 C 0.64248 0.47538 0.51582 0.0
N567 N 0.6028 0.45314 0.55551 0.0
C568 C 0.60982 0.47415 0.58157 0.0
C569 C 0.61872 0.45359 0.5228 0.0
C570 C 0.64985 0.49684 0.54246 0.0
C571 C 0.48451 0.35434 0.54204 0.0
N572 N 0.48515 0.37327 0.56787 0.0
C573 C 0.46685 0.34357 0.50749 0.0
C574 C 0.44976 0.35228 0.4995 0.0
C575 C 0.45052 0.37158 0.52602 0.0
C576 C 0.46848 0.38194 0.56022 0.0
C577 C 0.44402 0.35764 0.69198 0.0
C578 C 0.48856 0.40424 0.68346 0.0
C579 C 0.46271 0.36105 0.66108 0.0
N580 N 0.48457 0.38418 0.65698 0.0
C581 C 0.4703 0.40152 0.71477 0.0
C582 C 0.44788 0.37805 0.71895 0.0
C583 C 0.56041 0.41945 0.664 0.0
C584 C 0.58434 0.36307 0.53957 0.0
C585 C 0.60543 0.40698 0.59091 0.0
C586 C 0.61579 0.39085 0.59278 0.0
C587 C 0.60508 0.36872 0.567 0.0
N588 N 0.58503 0.40127 0.56402 0.0
C589 C 0.57452 0.37968 0.53846 0.0
Co590 Co 0.13283 0.50161 0.94773 0.0
Co591 Co 0.14458 0.56129 0.91287 0.0
O592 O 0.14808 0.53081 0.90696 0.0
C593 C 0.18816 0.51961 0.95453 0.0
O594 O 0.19174 0.5429 0.95671 0.0
C595 C 0.12628 0.54216 0.8213 0.0
O596 O 0.11794 0.51866 0.83481 0.0
O597 O 0.10701 0.54019 0.92348 0.0
O598 O 0.09994 0.50199 0.94759 0.0
H599 H 0.11463 0.61649 0.98606 0.0
H600 H 0.15804 0.49793 0.86588 0.0
O601 O 0.16566 0.50068 0.9493 0.0
H602 H 0.06819 0.42923 0.85346 0.0
H603 H 0.11551 0.41622 0.00565 0.0
H604 H 0.09981 0.4882 0.02746 0.0
H605 H 0.08305 0.45723 0.91938 0.0
H606 H 0.13401 0.45292 0.95426 0.0
O607 O 0.13753 0.56095 0.84789 0.0
H608 H 0.11963 0.57854 0.97811 0.0
H609 H 0.16218 0.60882 0.8594 0.0
H610 H 0.08084 0.45184 0.07951 0.0
H611 H 0.14406 0.47019 0.79957 0.0
H612 H 0.08865 0.4155 0.06874 0.0
H613 H 0.09881 0.43561 0.79301 0.0
O614 O 0.14445 0.52434 0.00078 0.0
H615 H 0.22639 0.58468 0.83293 0.0
H616 H 0.18744 0.60735 0.95583 0.0
H617 H 0.23399 0.63273 0.94383 0.0
H618 H 0.25376 0.62144 0.88195 0.0
H619 H 0.17996 0.55966 0.84651 0.0
H620 H 0.15747 0.64699 0.86588 0.0
H621 H 0.13362 0.65104 0.92965 0.0
O622 O 0.15154 0.56273 0.9778 0.0
C623 C 0.09222 0.51757 0.93758 0.0
C624 C 0.12514 0.61499 0.95821 0.0
C625 C 0.14915 0.63209 0.89072 0.0
N626 N 0.14136 0.59157 0.91856 0.0
C627 C 0.1281 0.59359 0.95361 0.0
C628 C 0.15171 0.61041 0.88719 0.0
C629 C 0.13577 0.63435 0.92652 0.0
C630 C 0.13839 0.48274 0.86345 0.0
N631 N 0.1214 0.47915 0.89649 0.0
C632 C 0.13055 0.46717 0.82575 0.0
C633 C 0.10515 0.4478 0.82205 0.0
C634 C 0.08796 0.44423 0.85594 0.0
C635 C 0.09646 0.4602 0.89312 0.0
C636 C 0.11192 0.43191 0.01063 0.0
C637 C 0.10316 0.47238 0.0224 0.0
C638 C 0.12237 0.45275 0.98167 0.0
N639 N 0.11781 0.47257 0.98766 0.0
C640 C 0.09242 0.45188 0.05205 0.0
C641 C 0.09684 0.43152 0.04601 0.0
C642 C 0.15098 0.54762 0.00789 0.0
C643 C 0.218 0.5898 0.86 0.0
C644 C 0.19593 0.60222 0.92908 0.0
C645 C 0.22228 0.61673 0.9223 0.0
C646 C 0.23335 0.6104 0.88754 0.0
N647 N 0.18101 0.582 0.90201 0.0
C648 C 0.19171 0.57575 0.86776 0.0
Co649 Co 0.61876 0.12696 0.28161 0.0
Co650 Co 0.58047 0.15223 0.25229 0.0
O651 O 0.61021 0.14797 0.2442 0.0
C652 C 0.66133 0.17948 0.29322 0.0
O653 O 0.64361 0.18598 0.29387 0.0
C654 C 0.57328 0.1289 0.16369 0.0
O655 O 0.57842 0.11242 0.18257 0.0
O656 O 0.5577 0.11494 0.2625 0.0
O657 O 0.58254 0.09788 0.27806 0.0
H658 H 0.50067 0.13939 0.32764 0.0
H659 H 0.65001 0.15203 0.20188 0.0
O660 O 0.65508 0.15614 0.28686 0.0
H661 H 0.61455 0.0596 0.17774 0.0
H662 H 0.67509 0.09267 0.33335 0.0
H663 H 0.59341 0.09102 0.35623 0.0
H664 H 0.60507 0.07548 0.24656 0.0
H665 H 0.6634 0.11874 0.28638 0.0
O666 O 0.5735 0.14684 0.18649 0.0
H667 H 0.5384 0.13422 0.318 0.0
H668 H 0.55896 0.17923 0.2008 0.0
H669 H 0.6042 0.06445 0.4037 0.0
H670 H 0.6602 0.13702 0.13269 0.0
H671 H 0.64531 0.06519 0.39238 0.0
H672 H 0.64235 0.09048 0.12026 0.0
O673 O 0.61055 0.13953 0.33656 0.0
H674 H 0.64904 0.22943 0.17355 0.0
H675 H 0.58909 0.19922 0.2999 0.0
H676 H 0.61844 0.24546 0.29006 0.0
H677 H 0.64873 0.26082 0.22656 0.0
H678 H 0.61953 0.18336 0.18488 0.0
H679 H 0.5213 0.18471 0.2089 0.0
H680 H 0.49191 0.16479 0.27281 0.0
O681 O 0.58683 0.15737 0.31792 0.0
C682 C 0.56069 0.09598 0.27193 0.0
C683 C 0.51338 0.14825 0.29975 0.0
C684 C 0.52494 0.17365 0.23307 0.0
N685 N 0.55098 0.15663 0.25914 0.0
C686 C 0.53482 0.14546 0.29422 0.0
C687 C 0.5462 0.17045 0.22861 0.0
C688 C 0.50846 0.16247 0.26894 0.0
C689 C 0.64236 0.13178 0.19681 0.0
N690 N 0.62706 0.11466 0.22823 0.0
C691 C 0.64811 0.12338 0.15753 0.0
C692 C 0.63806 0.09726 0.15055 0.0
C693 C 0.62246 0.07992 0.18278 0.0
C694 C 0.6171 0.08902 0.22163 0.0
C695 C 0.6571 0.09214 0.33854 0.0
C696 C 0.61124 0.09129 0.35093 0.0
C697 C 0.65041 0.1069 0.31212 0.0
N698 N 0.62766 0.10621 0.31835 0.0
C699 C 0.61729 0.07628 0.37799 0.0
C700 C 0.64038 0.07672 0.37165 0.0
C701 C 0.59849 0.15117 0.34633 0.0
C702 C 0.63589 0.22298 0.20129 0.0
C703 C 0.60219 0.20576 0.27215 0.0
C704 C 0.61875 0.23197 0.26673 0.0
C705 C 0.63573 0.24058 0.23107 0.0
N706 N 0.60252 0.18862 0.24286 0.0
C707 C 0.61905 0.19692 0.20773 0.0
H708 H 0.44057 0.5407 0.25472 0.0
H709 H 0.3828 0.56242 0.23639 0.0
H710 H 0.38041 0.56665 0.31786 0.0
H711 H 0.41793 0.50687 0.3616 0.0
H712 H 0.44991 0.51977 0.38294 0.0
H713 H 0.44406 0.51447 0.32414 0.0
H714 H 0.47758 0.56192 0.30914 0.0
H715 H 0.48346 0.56738 0.36778 0.0
H716 H 0.4742 0.58676 0.33608 0.0
H717 H 0.38549 0.56986 0.40074 0.0
H718 H 0.40115 0.57684 0.4783 0.0
H719 H 0.459 0.55778 0.4409 0.0
C720 C 0.42699 0.54569 0.26816 0.0
C721 C 0.41146 0.55074 0.23996 0.0
C722 C 0.39457 0.55821 0.25799 0.0
C723 C 0.39304 0.56054 0.30403 0.0
C724 C 0.4089 0.55579 0.33115 0.0
C725 C 0.4258 0.54885 0.31386 0.0
C726 C 0.44291 0.54789 0.34955 0.0
C727 C 0.43842 0.52063 0.35487 0.0
C728 C 0.4712 0.56714 0.34006 0.0
C729 C 0.43329 0.55577 0.38948 0.0
C730 C 0.41322 0.55958 0.37841 0.0
C731 C 0.40118 0.56694 0.40983 0.0
C732 C 0.41014 0.57082 0.45367 0.0
C733 C 0.43131 0.56798 0.46509 0.0
C734 C 0.44288 0.56022 0.43271 0.0
H735 H 0.90755 0.41966 0.56075 0.0
H736 H 0.8588 0.45042 0.52296 0.0
H737 H 0.8572 0.46185 0.60105 0.0
H738 H 0.87611 0.39146 0.66099 0.0
H739 H 0.90479 0.39879 0.69101 0.0
H740 H 0.90363 0.39474 0.63169 0.0
H741 H 0.94369 0.43965 0.62344 0.0
H742 H 0.94492 0.44389 0.68281 0.0
H743 H 0.94354 0.46705 0.64695 0.0
H744 H 0.85826 0.4671 0.68345 0.0
H745 H 0.86186 0.46568 0.76491 0.0
H746 H 0.91064 0.43239 0.74907 0.0
C747 C 0.89678 0.42907 0.56877 0.0
C748 C 0.88335 0.4342 0.53571 0.0
C749 C 0.86928 0.44633 0.54769 0.0
C750 C 0.86831 0.45297 0.59194 0.0
C751 C 0.88162 0.4475 0.62375 0.0
C752 C 0.89565 0.4359 0.61276 0.0
C753 C 0.90724 0.43107 0.65359 0.0
C754 C 0.89734 0.40231 0.65967 0.0
C755 C 0.93659 0.44633 0.65156 0.0
C756 C 0.89712 0.44131 0.68935 0.0
C757 C 0.8825 0.45083 0.67138 0.0
C758 C 0.86992 0.46 0.69791 0.0
C759 C 0.87205 0.45908 0.74411 0.0
C760 C 0.88669 0.44912 0.76325 0.0
C761 C 0.89969 0.44054 0.73539 0.0
H762 H 0.41888 0.87848 0.87782 0.0
H763 H 0.50141 0.91247 0.88546 0.0
H764 H 0.49945 0.91561 0.96651 0.0
H765 H 0.41326 0.91674 0.96773 0.0
H766 H 0.38382 0.89056 0.98855 0.0
H767 H 0.3915 0.89212 0.93036 0.0
H768 H 0.38628 0.84691 0.93466 0.0
H769 H 0.37858 0.84519 0.99278 0.0
H770 H 0.40452 0.84062 0.97498 0.0
H771 H 0.48894 0.91214 0.04598 0.0
H772 H 0.47025 0.90328 0.12099 0.0
H773 H 0.39451 0.87316 0.06433 0.0
C774 C 0.43654 0.88682 0.89655 0.0
C775 C 0.46031 0.89529 0.87517 0.0
C776 C 0.48297 0.90595 0.9009 0.0
C777 C 0.48209 0.90785 0.94705 0.0
C778 C 0.45844 0.89921 0.9671 0.0
C779 C 0.43605 0.88904 0.94289 0.0
C780 C 0.41313 0.88047 0.97331 0.0
C781 C 0.39963 0.8959 0.96445 0.0
C782 C 0.39454 0.85158 0.96865 0.0
C783 C 0.42619 0.88697 0.01834 0.0
C784 C 0.45234 0.8978 0.01371 0.0
C785 C 0.46854 0.90402 0.05013 0.0
C786 C 0.45774 0.89885 0.09254 0.0
C787 C 0.43102 0.88777 0.0983 0.0
C788 C 0.41505 0.8821 0.06074 0.0
H789 H 0.60099 0.46387 0.23642 0.0
H790 H 0.52919 0.4043 0.18225 0.0
H791 H 0.51356 0.38893 0.25829 0.0
H792 H 0.60506 0.42473 0.32408 0.0
H793 H 0.61926 0.45079 0.3632 0.0
H794 H 0.62463 0.45705 0.30455 0.0
H795 H 0.60752 0.4887 0.30959 0.0
H796 H 0.60206 0.48253 0.36821 0.0
H797 H 0.57619 0.478 0.33246 0.0
H798 H 0.50475 0.38231 0.3404 0.0
H799 H 0.50495 0.38219 0.42265 0.0
H800 H 0.58381 0.44368 0.42228 0.0
C801 C 0.58199 0.44758 0.24065 0.0
C802 C 0.56616 0.43534 0.20376 0.0
C803 C 0.54156 0.41387 0.2103 0.0
C804 C 0.53253 0.40507 0.25326 0.0
C805 C 0.54856 0.41767 0.28904 0.0
C806 C 0.57291 0.4382 0.28315 0.0
C807 C 0.58652 0.44803 0.32705 0.0
C808 C 0.61027 0.44495 0.32987 0.0
C809 C 0.59347 0.47597 0.33477 0.0
C810 C 0.56585 0.43011 0.35864 0.0
C811 C 0.544 0.41289 0.33612 0.0
C812 C 0.52186 0.39543 0.3584 0.0
C813 C 0.52211 0.39554 0.40496 0.0
C814 C 0.54447 0.4127 0.42846 0.0
C815 C 0.56662 0.43004 0.40496 0.0
H816 H 0.13597 0.53913 0.55717 0.0
H817 H 0.1127 0.59654 0.55392 0.0
H818 H 0.10756 0.5937 0.63524 0.0
H819 H 0.09152 0.50045 0.64536 0.0
H820 H 0.11381 0.49253 0.6703 0.0
H821 H 0.11509 0.49848 0.61146 0.0
H822 H 0.16271 0.53346 0.61848 0.0
H823 H 0.16159 0.52761 0.67728 0.0
H824 H 0.17169 0.55937 0.65719 0.0
H825 H 0.10865 0.5877 0.71661 0.0
H826 H 0.11283 0.57643 0.79377 0.0
H827 H 0.13198 0.5204 0.74527 0.0
C828 C 0.12965 0.55096 0.57364 0.0
C829 C 0.12475 0.56808 0.5493 0.0
C830 C 0.11642 0.58319 0.57188 0.0
C831 C 0.11348 0.58175 0.61807 0.0
C832 C 0.11855 0.5648 0.64114 0.0
C833 C 0.12614 0.54943 0.61978 0.0
C834 C 0.1304 0.53291 0.65272 0.0
C835 C 0.11158 0.5044 0.64446 0.0
C836 C 0.15825 0.5387 0.65133 0.0
C837 C 0.12454 0.54185 0.69594 0.0
C838 C 0.11788 0.56036 0.68837 0.0
C839 C 0.11338 0.57291 0.723 0.0
C840 C 0.11586 0.56645 0.76661 0.0
C841 C 0.12233 0.54734 0.77515 0.0
C842 C 0.12643 0.53466 0.73941 0.0
H843 H 0.5871 0.16567 0.09909 0.0
H844 H 0.54273 0.08399 0.12233 0.0
H845 H 0.52991 0.07695 0.04339 0.0
H846 H 0.54572 0.17028 0.0163 0.0
H847 H 0.57177 0.19311 0.98247 0.0
H848 H 0.576 0.1921 0.04152 0.0
H849 H 0.61499 0.18603 0.02777 0.0
H850 H 0.61088 0.18702 0.96871 0.0
H851 H 0.61137 0.16003 0.99319 0.0
H852 H 0.52121 0.07867 0.96305 0.0
H853 H 0.5207 0.0884 0.88368 0.0
H854 H 0.57396 0.16857 0.90968 0.0
C855 C 0.57446 0.14638 0.08745 0.0
C856 C 0.56558 0.12534 0.11664 0.0
C857 C 0.5496 0.1003 0.10034 0.0
C858 C 0.54217 0.09614 0.05568 0.0
C859 C 0.55131 0.1172 0.02757 0.0
C860 C 0.5674 0.14181 0.04252 0.0
C861 C 0.57587 0.16079 0.00447 0.0
C862 C 0.56679 0.18022 0.01163 0.0
C863 C 0.60501 0.17426 -0.00183 0.0
C864 C 0.56193 0.143 0.96596 0.0
C865 C 0.54756 0.11801 0.9803 0.0
C866 C 0.5325 0.09813 0.95132 0.0
C867 C 0.53227 0.10387 0.90634 0.0
C868 C 0.54738 0.12919 0.89056 0.0
C869 C 0.5624 0.149 0.92084 0.0
H870 H 0.33162 0.55803 0.01502 0.0
H871 H 0.30799 0.47732 0.01177 0.0
H872 H 0.26433 0.46718 0.99047 0.0
H873 H 0.274 0.55077 0.06182 0.0
H874 H 0.27483 0.57637 0.02975 0.0
H875 H 0.30417 0.57706 0.04371 0.0
H876 H 0.31621 0.58128 0.96033 0.0
H877 H 0.28684 0.58047 0.94606 0.0
H878 H 0.29438 0.5578 0.92146 0.0
H879 H 0.22303 0.46604 0.96998 0.0
H880 H 0.18729 0.47372 0.9542 0.0
H881 H 0.23832 0.55529 0.97119 0.0
C882 C 0.31734 0.5382 0.00967 0.0
C883 C 0.32328 0.51845 0.01491 0.0
C884 C 0.30391 0.49276 0.00792 0.0
C885 C 0.27907 0.48683 0.99573 0.0
C886 C 0.27392 0.5068 0.99073 0.0
C887 C 0.29252 0.53196 -0.00239 0.0
C888 C 0.28204 0.54987 0.99098 0.0
C889 C 0.28387 0.56436 0.03413 0.0
C890 C 0.29568 0.56845 0.95241 0.0
C891 C 0.25455 0.53088 0.97936 0.0
C892 C 0.25025 0.50614 0.97923 0.0
C893 C 0.22622 0.48534 0.96991 0.0
C894 C 0.20603 0.48992 0.96092 0.0
C895 C 0.20994 0.51512 0.96136 0.0
C896 C 0.23465 0.53581 0.9704 0.0
H897 H 0.77375 0.32034 0.34788 0.0
H898 H 0.8225 0.28816 0.37556 0.0
H899 H 0.78682 0.2451 0.35744 0.0
H900 H 0.71569 0.268 0.39347 0.0
H901 H 0.69562 0.27032 0.3516 0.0
H902 H 0.72493 0.29835 0.36776 0.0
H903 H 0.73973 0.30575 0.28561 0.0
H904 H 0.71059 0.27758 0.26931 0.0
H905 H 0.74102 0.28062 0.25542 0.0
H906 H 0.74578 0.20544 0.3335 0.0
H907 H 0.70215 0.17244 0.31082 0.0
H908 H 0.68081 0.23106 0.29954 0.0
C909 C 0.77693 0.30425 0.35048 0.0
C910 C 0.80097 0.30768 0.36316 0.0
C911 C 0.80425 0.28604 0.36609 0.0
C912 C 0.78411 0.2615 0.35568 0.0
C913 C 0.76078 0.25887 0.34257 0.0
C914 C 0.75706 0.27965 0.34035 0.0
C915 C 0.73018 0.27177 0.32546 0.0
C916 C 0.71576 0.27744 0.36174 0.0
C917 C 0.73041 0.2847 0.28133 0.0
C918 C 0.71937 0.24331 0.31947 0.0
C919 C 0.73728 0.23618 0.32928 0.0
C920 C 0.73158 0.21081 0.32587 0.0
C921 C 0.7068 0.19222 0.31276 0.0
C922 C 0.68805 0.19913 0.30345 0.0
C923 C 0.69465 0.22508 0.30652 0.0
H924 H 0.50669 0.80651 0.68139 0.0
H925 H 0.42591 0.77604 0.70836 0.0
H926 H 0.41791 0.73255 0.69472 0.0
H927 H 0.49809 0.76316 0.59244 0.0
H928 H 0.52495 0.75939 0.6072 0.0
H929 H 0.52517 0.78858 0.62075 0.0
H930 H 0.53295 0.7831 0.70353 0.0
H931 H 0.53296 0.754 0.69018 0.0
H932 H 0.51137 0.7538 0.73174 0.0
H933 H 0.41772 0.69288 0.67702 0.0
H934 H 0.4255 0.65784 0.65824 0.0
H935 H 0.50637 0.71219 0.64106 0.0
C936 C 0.48741 0.79061 0.6849 0.0
C937 C 0.46691 0.79472 0.69595 0.0
C938 C 0.4419 0.77346 0.69975 0.0
C939 C 0.43713 0.74862 0.69209 0.0
C940 C 0.45752 0.74522 0.68049 0.0
C941 C 0.48219 0.76547 0.67702 0.0
C942 C 0.50038 0.75609 0.66324 0.0
C943 C 0.51288 0.76749 0.61823 0.0
C944 C 0.52061 0.76211 0.69933 0.0
C945 C 0.48196 0.72747 0.65957 0.0
C946 C 0.45738 0.72184 0.66976 0.0
C947 C 0.43688 0.69698 0.6691 0.0
C948 C 0.44155 0.67718 0.65836 0.0
C949 C 0.46656 0.68218 0.64825 0.0
C950 C 0.48704 0.70777 0.64841 0.0
H951 H 0.7104 0.50481 0.03049 0.0
H952 H 0.65439 0.42536 0.00346 0.0
H953 H 0.68877 0.41676 0.98431 0.0
H954 H 0.7536 0.5118 0.94164 0.0
H955 H 0.7824 0.53137 0.9728 0.0
H956 H 0.75357 0.53199 0.98577 0.0
H957 H 0.75632 0.52017 0.06739 0.0
H958 H 0.78523 0.51966 0.05473 0.0
H959 H 0.75844 0.49202 0.07912 0.0
H960 H 0.72757 0.41603 0.96617 0.0
H961 H 0.77031 0.42258 0.95265 0.0
H962 H 0.80374 0.50241 0.9911 0.0
C963 C 0.70547 0.48561 0.02083 0.0
C964 C 0.67958 0.46581 0.01833 0.0
C965 C 0.67394 0.44095 0.0054 0.0
C966 C 0.69337 0.43579 0.99443 0.0
C967 C 0.71852 0.45564 0.99653 0.0
C968 C 0.72483 0.48003 0.00958 0.0
C969 C 0.75373 0.49762 0.00858 0.0
C970 C 0.76126 0.51949 0.97521 0.0
C971 C 0.76404 0.50798 0.05524 0.0
C972 C 0.76243 0.47919 0.99285 0.0
C973 C 0.74159 0.45515 0.98614 0.0
C974 C 0.74411 0.43471 0.9715 0.0
C975 C 0.76862 0.43871 0.96393 0.0
C976 C 0.79057 0.463 0.971 0.0
C977 C 0.78739 0.48363 0.98538 0.0
H978 H 0.2088 0.70085 0.36386 0.0
H979 H 0.23671 0.64871 0.33279 0.0
H980 H 0.27655 0.68431 0.30465 0.0
H981 H 0.23835 0.74352 0.26821 0.0
H982 H 0.24696 0.77232 0.29903 0.0
H983 H 0.21934 0.74259 0.3151 0.0
H984 H 0.23766 0.74765 0.39454 0.0
H985 H 0.26527 0.77739 0.37873 0.0
H986 H 0.26925 0.75209 0.40198 0.0
H987 H 0.31367 0.72428 0.28224 0.0
H988 H 0.34793 0.76824 0.26856 0.0
H989 H 0.29848 0.79687 0.31356 0.0
C990 C 0.22328 0.69702 0.35085 0.0
C991 C 0.21953 0.67189 0.35078 0.0
C992 C 0.23904 0.6677 0.33372 0.0
C993 C 0.2618 0.68782 0.3173 0.0
C994 C 0.26505 0.71225 0.3181 0.0
C995 C 0.24654 0.71716 0.33449 0.0
C996 C 0.25594 0.74572 0.33293 0.0
C997 C 0.23914 0.75137 0.30197 0.0
C998 C 0.2571 0.75633 0.37984 0.0
C999 C 0.2826 0.75584 0.31364 0.0
C1000 C 0.28715 0.73598 0.30513 0.0
C1001 C 0.31039 0.74005 0.28857 0.0
C1002 C 0.32977 0.76516 0.28102 0.0
C1003 C 0.32596 0.78604 0.29002 0.0
C1004 C 0.30187 0.78128 0.306 0.0
H1005 H 0.55748 0.24001 0.6894 0.0
H1006 H 0.47635 0.18451 0.68958 0.0
H1007 H 0.46683 0.21934 0.67529 0.0
H1008 H 0.55331 0.29077 0.74369 0.0
H1009 H 0.57841 0.31542 0.71071 0.0
H1010 H 0.57844 0.28611 0.72162 0.0
H1011 H 0.58006 0.27904 0.63702 0.0
H1012 H 0.57995 0.30828 0.62585 0.0
H1013 H 0.55595 0.27872 0.60131 0.0
H1014 H 0.46663 0.261 0.65978 0.0
H1015 H 0.47575 0.30509 0.64444 0.0
H1016 H 0.55705 0.33222 0.65425 0.0
C1017 C 0.53765 0.23506 0.68657 0.0
C1018 C 0.51764 0.20947 0.69064 0.0
C1019 C 0.492 0.20397 0.68662 0.0
C1020 C 0.48642 0.22363 0.6785 0.0
C1021 C 0.50669 0.24866 0.67447 0.0
C1022 C 0.53178 0.25434 0.67838 0.0
C1023 C 0.5502 0.2826 0.67223 0.0
C1024 C 0.56601 0.29442 0.71459 0.0
C1025 C 0.56755 0.28743 0.63169 0.0
C1026 C 0.53161 0.29206 0.66414 0.0
C1027 C 0.50658 0.2723 0.66559 0.0
C1028 C 0.48617 0.27659 0.65867 0.0
C1029 C 0.49153 0.3017 0.64998 0.0
C1030 C 0.5171 0.32217 0.64822 0.0
C1031 C 0.53727 0.3171 0.65549 0.0
H1032 H 0.44922 0.49604 0.07003 0.0
H1033 H 0.49261 0.57442 0.117 0.0
H1034 H 0.53185 0.57136 0.117 0.0
H1035 H 0.48322 0.47176 0.13457 0.0
H1036 H 0.48157 0.45039 0.0912 0.0
H1037 H 0.45692 0.45878 0.09589 0.0
H1038 H 0.46489 0.47439 0.01421 0.0
H1039 H 0.48966 0.46619 0.00944 0.0
H1040 H 0.49658 0.49824 -0.0028 0.0
H1041 H 0.56716 0.56021 0.10819 0.0
H1042 H 0.59442 0.54074 0.09642 0.0
H1043 H 0.52729 0.46966 0.05749 0.0
C1044 C 0.46689 0.51254 0.0807 0.0
C1045 C 0.46769 0.53547 0.09353 0.0
C1046 C 0.49135 0.55657 0.10717 0.0
C1047 C 0.51383 0.55507 0.10715 0.0
C1048 C 0.51239 0.53229 0.09372 0.0
C1049 C 0.48945 0.51133 0.08119 0.0
C1050 C 0.49297 0.48905 0.06825 0.0
C1051 C 0.47777 0.46615 0.09934 0.0
C1052 C 0.48559 0.48154 0.01938 0.0
C1053 C 0.52148 0.50078 0.07521 0.0
C1054 C 0.53245 0.52577 0.08964 0.0
C1055 C 0.55872 0.54057 0.09722 0.0
C1056 C 0.57408 0.5294 0.09031 0.0
C1057 C 0.56306 0.50362 0.07636 0.0
C1058 C 0.53639 0.48933 0.06862 0.0
H1059 H 0.94781 0.47819 0.40439 0.0
H1060 H 0.95521 0.41438 0.35543 0.0
H1061 H 1.00135 0.44284 0.34645 0.0
H1062 H 0.99641 0.52706 0.33257 0.0
H1063 H 0.00854 0.55142 0.37494 0.0
H1064 H 0.97549 0.52651 0.37582 0.0
H1065 H 0.98103 0.51455 0.45599 0.0
H1066 H 0.01403 0.53947 0.45542 0.0
H1067 H 0.00583 0.50703 0.46761 0.0
H1068 H 0.04603 0.47667 0.34424 0.0
H1069 H 0.0885 0.51438 0.35287 0.0
H1070 H 0.05439 0.55775 0.40418 0.0
C1071 C 0.95913 0.47025 0.39156 0.0
C1072 C 0.94771 0.44395 0.38048 0.0
C1073 C 0.96331 0.43434 0.36419 0.0
C1074 C 0.9896 0.45041 0.35874 0.0
C1075 C 1.00019 0.47609 0.36982 0.0
C1076 C 0.98563 0.48606 0.38615 0.0
C1077 C 1.00237 0.51428 0.39731 0.0
C1078 C 0.99528 0.53079 0.36843 0.0
C1079 C 1.00071 0.51911 0.44704 0.0
C1080 C 0.0286 0.5184 0.38514 0.0
C1081 C 0.02662 0.49602 0.369 0.0
C1082 C 0.04788 0.49433 0.35675 0.0
C1083 C 0.07196 0.51588 0.36197 0.0
C1084 C 0.0748 0.53897 0.37943 0.0
C1085 C 0.05276 0.54043 0.39035 0.0
H1086 H 0.4949 0.05693 0.71961 0.0
H1087 H 0.57724 0.09376 0.73557 0.0
H1088 H 0.57474 0.05183 0.7312 0.0
H1089 H 0.48028 0.00265 0.7872 0.0
H1090 H 0.45387 0.98043 0.75328 0.0
H1091 H 0.46225 0.01352 0.75536 0.0
H1092 H 0.46678 0.01632 0.66965 0.0
H1093 H 0.45846 0.98323 0.6674 0.0
H1094 H 0.48793 0.00742 0.64294 0.0
H1095 H 0.56338 0.00569 0.72548 0.0
H1096 H 0.54351 0.95863 0.72339 0.0
H1097 H 0.4686 0.95187 0.71375 0.0
C1098 C 0.51243 0.05621 0.72189 0.0
C1099 C 0.53627 0.07874 0.72782 0.0
C1100 C 0.55871 0.07684 0.73114 0.0
C1101 C 0.55753 0.05309 0.72851 0.0
C1102 C 0.53375 0.03128 0.72283 0.0
C1103 C 0.51158 0.03259 0.71984 0.0
C1104 C 0.48835 0.00615 0.71572 0.0
C1105 C 0.47012 1.00035 0.75525 0.0
C1106 C 0.47457 0.00311 0.67128 0.0
C1107 C 0.50095 0.98983 0.71706 0.0
C1108 C 0.52716 0.00468 0.72072 0.0
C1109 C 0.54284 0.99384 0.72266 0.0
C1110 C 0.53139 0.96708 0.72136 0.0
C1111 C 0.50448 0.95145 0.71863 0.0
C1112 C 0.48921 0.96317 0.71608 0.0
H1113 H 0.46554 0.52699 0.61085 0.0
H1114 H 0.53734 0.59353 0.57289 0.0
H1115 H 0.55631 0.56584 0.5621 0.0
H1116 H 0.49323 0.49602 0.67259 0.0
H1117 H 0.46935 0.4643 0.65565 0.0
H1118 H 0.46135 0.48927 0.65926 0.0
H1119 H 0.44618 0.48112 0.57742 0.0
H1120 H 0.45421 0.45618 0.57342 0.0
H1121 H 0.4677 0.48241 0.53467 0.0
H1122 H 0.56707 0.5307 0.55417 0.0
H1123 H 0.57006 0.49153 0.55447 0.0
H1124 H 0.49148 0.44804 0.60035 0.0
C1125 C 0.48525 0.53583 0.6001 0.0
C1126 C 0.4999 0.56249 0.59239 0.0
C1127 C 0.52572 0.5732 0.57895 0.0
C1128 C 0.53662 0.55761 0.57261 0.0
C1129 C 0.52154 0.5314 0.58026 0.0
C1130 C 0.49649 0.52064 0.59412 0.0
C1131 C 0.48459 0.49207 0.60131 0.0
C1132 C 0.47667 0.48501 0.6501 0.0
C1133 C 0.46183 0.47707 0.56982 0.0
C1134 C 0.50687 0.48837 0.58919 0.0
C1135 C 0.52793 0.51127 0.57683 0.0
C1136 C 0.55072 0.51269 0.56391 0.0
C1137 C 0.55217 0.49023 0.5641 0.0
C1138 C 0.531 0.46655 0.57747 0.0
C1139 C 0.50802 0.46574 0.58996 0.0
H1140 H 0.06528 0.5413 0.9102 0.0
H1141 H 0.05627 0.47363 0.97764 0.0
H1142 H 0.01048 0.45821 0.98704 0.0
H1143 H 0.01882 0.54892 0.97702 0.0
H1144 H 0.00678 0.55856 0.93058 0.0
H1145 H 0.03945 0.56541 0.93074 0.0
H1146 H 0.03211 0.54196 0.85547 0.0
H1147 H 0.99947 0.53511 0.85503 0.0
H1148 H 0.0064 0.50942 0.85025 0.0
H1149 H 0.96596 0.44887 0.98721 0.0
H1150 H 0.92396 0.44529 0.97585 0.0
H1151 H 0.95989 0.51839 0.9081 0.0
C1152 C 0.05371 0.52333 0.92724 0.0
C1153 C 0.06457 0.50875 0.94325 0.0
C1154 C 0.04861 0.48522 0.96499 0.0
C1155 C 0.02251 0.47629 0.9707 0.0
C1156 C 0.01246 0.49101 0.9545 0.0
C1157 C 0.02741 0.51398 0.9331 0.0
C1158 C 0.01127 0.52536 0.91735 0.0
C1159 C 0.01958 0.55109 0.9403 0.0
C1160 C 0.01238 0.52812 0.86651 0.0
C1161 C 0.98489 0.50498 0.93281 0.0
C1162 C 0.98625 0.48549 0.95441 0.0
C1163 C 0.96462 0.46402 0.97049 0.0
C1164 C 0.94085 0.4621 0.96368 0.0
C1165 C 0.93874 0.48146 0.94098 0.0
C1166 C 0.96108 0.50347 0.92598 0.0
H1167 H 0.47878 0.94365 0.25524 0.0
H1168 H 0.41076 0.94986 0.27439 0.0
H1169 H 0.43784 0.99673 0.28104 0.0
H1170 H 0.51852 0.99282 0.33335 0.0
H1171 H 0.54703 0.00432 0.30021 0.0
H1172 H 0.52232 0.97128 0.29679 0.0
H1173 H 0.51952 0.97563 0.21171 0.0
H1174 H 0.54425 0.00867 0.2148 0.0
H1175 H 0.51387 1.0002 0.19003 0.0
H1176 H 0.47224 0.043 0.28328 0.0
H1177 H 0.51137 0.08524 0.28287 0.0
H1178 H 0.55713 0.04873 0.26481 0.0
C1179 C 0.46947 0.95479 0.26073 0.0
C1180 C 0.44253 0.94297 0.26403 0.0
C1181 C 0.43129 0.95838 0.27164 0.0
C1182 C 0.44653 0.98504 0.27548 0.0
C1183 C 0.47298 0.996 0.27202 0.0
C1184 C 0.48437 0.98135 0.26501 0.0
C1185 C 0.51322 0.99782 0.26275 0.0
C1186 C 0.52602 0.99116 0.30053 0.0
C1187 C 0.5233 0.99544 0.21711 0.0
C1188 C 0.51631 0.0241 0.26923 0.0
C1189 C 0.49285 0.02261 0.27438 0.0
C1190 C 0.49071 0.04438 0.27953 0.0
C1191 C 0.51309 0.06831 0.27915 0.0
C1192 C 0.5374 0.07037 0.27395 0.0
C1193 C 0.53892 0.04785 0.2693 0.0
H1194 H 0.43378 0.56232 0.74211 0.0
H1195 H 0.49597 0.64085 0.75078 0.0
H1196 H 0.49069 0.63953 0.83231 0.0
H1197 H 0.39445 0.56655 0.82438 0.0
H1198 H 0.38348 0.53493 0.84605 0.0
H1199 H 0.39283 0.54179 0.78869 0.0
H1200 H 0.42545 0.52619 0.79921 0.0
H1201 H 0.41606 0.51904 0.85652 0.0
H1202 H 0.44914 0.54002 0.84251 0.0
H1203 H 0.47707 0.63005 0.91246 0.0
H1204 H 0.45844 0.61214 0.98573 0.0
H1205 H 0.40572 0.53979 0.92293 0.0
C1206 C 0.44645 0.57923 0.76104 0.0
C1207 C 0.46524 0.60171 0.74012 0.0
C1208 C 0.4815 0.62337 0.7662 0.0
C1209 C 0.47858 0.62285 0.81244 0.0
C1210 C 0.4595 0.60049 0.83184 0.0
C1211 C 0.44393 0.579 0.80698 0.0
C1212 C 0.42486 0.55734 0.83563 0.0
C1213 C 0.39728 0.54972 0.82293 0.0
C1214 C 0.42915 0.53429 0.83333 0.0
C1215 C 0.43197 0.57007 0.88058 0.0
C1216 C 0.45191 0.59496 0.87779 0.0
C1217 C 0.46155 0.61054 0.91512 0.0
C1218 C 0.45076 0.60021 0.95653 0.0
C1219 C 0.43066 0.57452 0.96011 0.0
C1220 C 0.4211 0.55946 0.92144 0.0
H1221 H 0.86313 0.43271 0.26036 0.0
H1222 H 0.85722 0.35836 0.24533 0.0
H1223 H 0.85049 0.35974 0.16471 0.0
H1224 H 0.81586 0.42407 0.1769 0.0
H1225 H 0.83397 0.45673 0.15824 0.0
H1226 H 0.83634 0.44891 0.21513 0.0
H1227 H 0.88552 0.47015 0.20708 0.0
H1228 H 0.88332 0.47808 0.15028 0.0
H1229 H 0.89865 0.4598 0.16327 0.0
H1230 H 0.84647 0.3703 0.08519 0.0
H1231 H 0.84772 0.39013 0.01289 0.0
H1232 H 0.85684 0.45763 0.08123 0.0
C1233 C 0.86015 0.41654 0.24034 0.0
C1234 C 0.86062 0.39538 0.25924 0.0
C1235 C 0.85694 0.37479 0.23161 0.0
C1236 C 0.85297 0.37533 0.18583 0.0
C1237 C 0.85276 0.39658 0.16832 0.0
C1238 C 0.85633 0.41682 0.19475 0.0
C1239 C 0.85678 0.43809 0.16762 0.0
C1240 C 0.8344 0.44218 0.18023 0.0
C1241 C 0.8826 0.46299 0.17234 0.0
C1242 C 0.85337 0.42684 0.12162 0.0
C1243 C 0.85076 0.40277 0.12266 0.0
C1244 C 0.84831 0.38906 0.08396 0.0
C1245 C 0.84901 0.40049 0.04306 0.0
C1246 C 0.85239 0.42546 0.0413 0.0
C1247 C 0.85413 0.43849 0.08128 0.0
H1248 H 0.42297 0.87396 0.59672 0.0
H1249 H 0.4783 0.84815 0.58613 0.0
H1250 H 0.4689 0.83992 0.50656 0.0
H1251 H 0.37702 0.82889 0.51467 0.0
H1252 H 0.36977 0.85223 0.4923 0.0
H1253 H 0.37887 0.85397 0.54976 0.0
H1254 H 0.41546 0.90052 0.53798 0.0
H1255 H 0.40648 0.89891 0.48056 0.0
H1256 H 0.43871 0.90726 0.49488 0.0
H1257 H 0.45644 0.8373 0.42849 0.0
H1258 H 0.44191 0.84107 0.35433 0.0
H1259 H 0.39441 0.86871 0.413 0.0
C1260 C 0.43278 0.86621 0.57771 0.0
C1261 C 0.45138 0.86173 0.59762 0.0
C1262 C 0.4641 0.85192 0.57157 0.0
C1263 C 0.45879 0.847 0.52637 0.0
C1264 C 0.44071 0.85199 0.50758 0.0
C1265 C 0.42786 0.86137 0.53218 0.0
C1266 C 0.41056 0.86657 0.50273 0.0
C1267 C 0.38238 0.84938 0.51564 0.0
C1268 C 0.41828 0.895 0.50412 0.0
C1269 C 0.41621 0.85913 0.45777 0.0
C1270 C 0.43346 0.85054 0.46165 0.0
C1271 C 0.44271 0.84373 0.42493 0.0
C1272 C 0.43435 0.84601 0.38286 0.0
C1273 C 0.4169 0.85508 0.37771 0.0
C1274 C 0.40748 0.8614 0.41584 0.0
H1275 H 0.53757 0.40462 0.74547 0.0
H1276 H 0.60973 0.45692 0.68196 0.0
H1277 H 0.62794 0.47577 0.75502 0.0
H1278 H 0.53801 0.44822 0.82472 0.0
H1279 H 0.52425 0.42487 0.86849 0.0
H1280 H 0.51713 0.41499 0.81136 0.0
H1281 H 0.53312 0.3827 0.82269 0.0
H1282 H 0.54005 0.39232 0.87997 0.0
H1283 H 0.56477 0.39382 0.84439 0.0
H1284 H 0.63762 0.49007 0.83503 0.0
H1285 H 0.63902 0.49629 0.91636 0.0
H1286 H 0.56057 0.43408 0.92609 0.0
C1287 C 0.55728 0.41989 0.74679 0.0
C1288 C 0.57217 0.42931 0.70789 0.0
C1289 C 0.59791 0.44933 0.71128 0.0
C1290 C 0.60842 0.46024 0.7526 0.0
C1291 C 0.59299 0.4508 0.79012 0.0
C1292 C 0.56807 0.43089 0.7876 0.0
C1293 C 0.55549 0.42415 0.83274 0.0
C1294 C 0.53236 0.42832 0.8344 0.0
C1295 C 0.54792 0.39662 0.8457 0.0
C1296 C 0.57721 0.44347 0.86109 0.0
C1297 C 0.59864 0.45878 0.83599 0.0
C1298 C 0.62099 0.47813 0.85508 0.0
C1299 C 0.62155 0.48159 0.90123 0.0
C1300 C 0.59993 0.46564 0.92761 0.0
C1301 C 0.57747 0.44655 0.90697 0.0
H1302 H 0.14022 0.52095 0.08652 0.0
H1303 H 0.17895 0.5978 0.03211 0.0
H1304 H 0.19074 0.61553 0.10737 0.0
H1305 H 0.11261 0.53498 0.17576 0.0
H1306 H 0.11564 0.51412 0.21498 0.0
H1307 H 0.11338 0.50708 0.15656 0.0
H1308 H 0.15584 0.5063 0.16045 0.0
H1309 H 0.1583 0.51349 0.21899 0.0
H1310 H 0.1841 0.53364 0.18212 0.0
H1311 H 0.19446 0.62541 0.18695 0.0
H1312 H 0.18771 0.6269 0.26737 0.0
H1313 H 0.14665 0.54409 0.27248 0.0
C1314 C 0.15165 0.54148 0.09043 0.0
C1315 C 0.15885 0.55797 0.05327 0.0
C1316 C 0.17326 0.58475 0.05987 0.0
C1317 C 0.18023 0.59504 0.10256 0.0
C1318 C 0.17264 0.57833 0.13843 0.0
C1319 C 0.15858 0.55213 0.13301 0.0
C1320 C 0.15063 0.53866 0.17755 0.0
C1321 C 0.12133 0.52279 0.18142 0.0
C1322 C 0.16296 0.52204 0.18522 0.0
C1323 C 0.16172 0.56147 0.20868 0.0
C1324 C 0.17471 0.58412 0.18524 0.0
C1325 C 0.18478 0.60785 0.20582 0.0
C1326 C 0.18084 0.60851 0.25139 0.0
C1327 C 0.16701 0.58562 0.27584 0.0
C1328 C 0.15791 0.5618 0.25456 0.0
H1329 H 0.53919 0.1557 0.57917 0.0
H1330 H 0.61315 0.17775 0.6376 0.0
H1331 H 0.63118 0.18163 0.56263 0.0
H1332 H 0.5411 0.11694 0.49655 0.0
H1333 H 0.5257 0.12576 0.4545 0.0
H1334 H 0.51928 0.12779 0.51225 0.0
H1335 H 0.53295 0.17557 0.50244 0.0
H1336 H 0.53929 0.17366 0.44447 0.0
H1337 H 0.56394 0.19733 0.47956 0.0
H1338 H 0.63963 0.17738 0.48279 0.0
H1339 H 0.63867 0.16792 0.4028 0.0
H1340 H 0.55985 0.15046 0.39549 0.0
C1341 C 0.55933 0.16189 0.57632 0.0
C1342 C 0.57473 0.1664 0.61445 0.0
C1343 C 0.60095 0.17426 0.60903 0.0
C1344 C 0.61138 0.17654 0.56654 0.0
C1345 C 0.59547 0.17125 0.5298 0.0
C1346 C 0.57009 0.16443 0.5342 0.0
C1347 C 0.55673 0.1583 0.48954 0.0
C1348 C 0.53439 0.13055 0.48815 0.0
C1349 C 0.5477 0.17736 0.47835 0.0
C1350 C 0.57837 0.16194 0.45941 0.0
C1351 C 0.60057 0.16949 0.48335 0.0
C1352 C 0.62254 0.17198 0.46356 0.0
C1353 C 0.62177 0.16644 0.41823 0.0
C1354 C 0.59926 0.15872 0.3931 0.0
C1355 C 0.57744 0.15687 0.41382 0.0
loop_
_geom_bond_atom_site_label_1
_geom_bond_atom_site_label_2
_geom_bond_distance
_geom_bond_site_symmetry_2
_ccdc_geom_bond_type
Co0 O2 2.143 . S
Co0 O8 2.074 . S
Co0 O11 2.093 . S
Co0 O24 2.097 1_554 S
Co0 N41 2.151 . S
Co0 N49 2.214 1_554 S
Co1 O2 2.160 . S
Co1 O7 2.058 . S
Co1 O17 2.057 . S
Co1 O32 2.037 . S
Co1 N36 2.145 . S
Co1 N57 2.257 . S
O2 Co0 2.143 . S
O2 Co1 2.160 . S
C3 O4 1.278 . S
C3 O11 1.224 . S
O4 C3 1.278 . S
C5 O6 1.245 . S
C5 O17 1.232 . S
O6 C5 1.245 . S
O7 Co1 2.058 . S
O7 C33 1.269 . S
O8 Co0 2.074 . S
O8 C33 1.257 . S
H9 C34 0.930 . S
H10 C40 0.930 . S
O11 Co0 2.093 . S
O11 C3 1.224 . S
H12 C44 0.929 . S
H13 C46 0.930 . S
H14 C47 0.930 . S
H15 C45 0.929 . S
H16 C48 0.928 . S
O17 Co1 2.057 . S
O17 C5 1.232 . S
H18 C37 0.929 . S
H19 C38 0.929 . S
H20 C50 0.931 . S
H21 C42 0.929 . S
H22 C51 0.930 . S
H23 C43 0.931 . S
O24 Co0 2.097 1_556 S
O24 C52 1.214 . S
H25 C53 0.929 . S
H26 C54 0.929 . S
H27 C55 0.930 . S
H28 C56 0.929 . S
H29 C58 0.930 . S
H30 C35 0.930 . S
H31 C39 0.930 . S
O32 Co1 2.037 . S
O32 C52 1.234 1_554 S
C33 O7 1.269 . S
C33 O8 1.257 . S
C34 H9 0.930 . S
C34 C37 1.388 . S
C34 C39 1.418 . S
C35 H30 0.930 . S
C35 C38 1.404 . S
C35 C39 1.353 . S
N36 Co1 2.145 . S
N36 C37 1.397 . S
N36 C38 1.334 . S
C37 H18 0.929 . S
C37 C34 1.388 . S
C37 N36 1.397 . S
C38 H19 0.929 . S
C38 C35 1.404 . S
C38 N36 1.334 . S
C39 H31 0.930 . S
C39 C34 1.418 . S
C39 C35 1.353 . S
C40 H10 0.930 . S
C40 N41 1.330 . S
C40 C42 1.446 . S
N41 Co0 2.151 . S
N41 C40 1.330 . S
N41 C45 1.418 . S
C42 H21 0.929 . S
C42 C40 1.446 . S
C42 C43 1.332 . S
C43 H23 0.931 . S
C43 C42 1.332 . S
C43 C44 1.267 . S
C44 H12 0.929 . S
C44 C43 1.267 . S
C44 C45 1.251 . S
C45 H15 0.929 . S
C45 N41 1.418 . S
C45 C44 1.251 . S
C46 H13 0.930 . S
C46 C48 1.406 . S
C46 C51 1.261 . S
C47 H14 0.930 . S
C47 N49 1.325 . S
C47 C50 1.357 . S
C48 H16 0.928 . S
C48 C46 1.406 . S
C48 N49 1.261 . S
N49 Co0 2.214 1_556 S
N49 C47 1.325 . S
N49 C48 1.261 . S
C50 H20 0.931 . S
C50 C47 1.357 . S
C50 C51 1.312 . S
C51 H22 0.930 . S
C51 C46 1.261 . S
C51 C50 1.312 . S
C52 O24 1.214 . S
C52 O32 1.234 1_556 S
C53 H25 0.929 . S
C53 C56 1.391 . S
C53 C58 1.391 . S
C54 H26 0.929 . S
C54 C55 1.390 . S
C54 N57 1.391 . S
C55 H27 0.930 . S
C55 C54 1.390 . S
C55 C56 1.392 . S
C56 H28 0.929 . S
C56 C53 1.391 . S
C56 C55 1.392 . S
N57 Co1 2.257 . S
N57 C54 1.391 . S
N57 C58 1.388 . S
C58 H29 0.930 . S
C58 C53 1.391 . S
C58 N57 1.388 . S
Co59 O61 2.143 . S
Co59 O67 2.074 . S
Co59 O70 2.093 . S
Co59 O83 2.097 . S
Co59 N100 2.151 . S
Co59 N108 2.214 . S
Co60 O61 2.160 . S
Co60 O66 2.058 . S
Co60 O76 2.057 . S
Co60 O91 2.037 . S
Co60 N95 2.145 . S
Co60 N116 2.257 . S
O61 Co59 2.143 . S
O61 Co60 2.160 . S
C62 O63 1.278 . S
C62 O70 1.224 . S
O63 C62 1.278 . S
C64 O65 1.245 . S
C64 O76 1.232 . S
O65 C64 1.245 . S
O66 Co60 2.058 . S
O66 C92 1.269 . S
O67 Co59 2.074 . S
O67 C92 1.257 . S
H68 C93 0.930 . S
H69 C99 0.930 . S
O70 Co59 2.093 . S
O70 C62 1.224 . S
H71 C103 0.929 . S
H72 C105 0.930 . S
H73 C106 0.930 . S
H74 C104 0.929 . S
H75 C107 0.928 . S
O76 Co60 2.057 . S
O76 C64 1.232 . S
H77 C96 0.929 . S
H78 C97 0.929 . S
H79 C109 0.931 . S
H80 C101 0.929 . S
H81 C110 0.930 . S
H82 C102 0.931 . S
O83 Co59 2.097 . S
O83 C111 1.214 . S
H84 C112 0.929 . S
H85 C113 0.929 . S
H86 C114 0.930 . S
H87 C115 0.929 . S
H88 C117 0.930 . S
H89 C94 0.930 . S
H90 C98 0.930 . S
O91 Co60 2.037 . S
O91 C111 1.234 . S
C92 O66 1.269 . S
C92 O67 1.257 . S
C93 H68 0.930 . S
C93 C96 1.388 . S
C93 C98 1.418 . S
C94 H89 0.930 . S
C94 C97 1.404 . S
C94 C98 1.353 . S
N95 Co60 2.145 . S
N95 C96 1.397 . S
N95 C97 1.334 . S
C96 H77 0.929 . S
C96 C93 1.388 . S
C96 N95 1.397 . S
C97 H78 0.929 . S
C97 C94 1.404 . S
C97 N95 1.334 . S
C98 H90 0.930 . S
C98 C93 1.418 . S
C98 C94 1.353 . S
C99 H69 0.930 . S
C99 N100 1.330 . S
C99 C101 1.446 . S
N100 Co59 2.151 . S
N100 C99 1.330 . S
N100 C104 1.418 . S
C101 H80 0.929 . S
C101 C99 1.446 . S
C101 C102 1.332 . S
C102 H82 0.931 . S
C102 C101 1.332 . S
C102 C103 1.267 . S
C103 H71 0.929 . S
C103 C102 1.267 . S
C103 C104 1.251 . S
C104 H74 0.929 . S
C104 N100 1.418 . S
C104 C103 1.251 . S
C105 H72 0.930 . S
C105 C107 1.406 . S
C105 C110 1.261 . S
C106 H73 0.930 . S
C106 N108 1.325 . S
C106 C109 1.357 . S
C107 H75 0.928 . S
C107 C105 1.406 . S
C107 N108 1.261 . S
N108 Co59 2.214 . S
N108 C106 1.325 . S
N108 C107 1.261 . S
C109 H79 0.931 . S
C109 C106 1.357 . S
C109 C110 1.312 . S
C110 H81 0.930 . S
C110 C105 1.261 . S
C110 C109 1.312 . S
C111 O83 1.214 . S
C111 O91 1.234 . S
C112 H84 0.929 . S
C112 C115 1.391 . S
C112 C117 1.391 . S
C113 H85 0.929 . S
C113 C114 1.390 . S
C113 N116 1.391 . S
C114 H86 0.930 . S
C114 C113 1.390 . S
C114 C115 1.392 . S
C115 H87 0.929 . S
C115 C112 1.391 . S
C115 C114 1.392 . S
N116 Co60 2.257 . S
N116 C113 1.391 . S
N116 C117 1.388 . S
C117 H88 0.930 . S
C117 C112 1.391 . S
C117 N116 1.388 . S
Co118 O120 2.143 . S
Co118 O126 2.074 . S
Co118 O129 2.093 . S
Co118 O142 2.097 . S
Co118 N159 2.151 . S
Co118 N167 2.214 . S
Co119 O120 2.160 . S
Co119 O125 2.058 . S
Co119 O135 2.057 . S
Co119 O150 2.037 . S
Co119 N154 2.145 . S
Co119 N175 2.257 . S
O120 Co118 2.143 . S
O120 Co119 2.160 . S
C121 O122 1.278 . S
C121 O129 1.224 . S
O122 C121 1.278 . S
C123 O124 1.245 . S
C123 O135 1.232 . S
O124 C123 1.245 . S
O125 Co119 2.058 . S
O125 C151 1.269 . S
O126 Co118 2.074 . S
O126 C151 1.257 . S
H127 C152 0.930 . S
H128 C158 0.930 . S
O129 Co118 2.093 . S
O129 C121 1.224 . S
H130 C162 0.929 . S
H131 C164 0.930 . S
H132 C165 0.930 . S
H133 C163 0.929 . S
H134 C166 0.928 . S
O135 Co119 2.057 . S
O135 C123 1.232 . S
H136 C155 0.929 . S
H137 C156 0.929 . S
H138 C168 0.931 . S
H139 C160 0.929 . S
H140 C169 0.930 . S
H141 C161 0.931 . S
O142 Co118 2.097 . S
O142 C170 1.214 . S
H143 C171 0.929 . S
H144 C172 0.929 . S
H145 C173 0.930 . S
H146 C174 0.929 . S
H147 C176 0.930 . S
H148 C153 0.930 . S
H149 C157 0.930 . S
O150 Co119 2.037 . S
O150 C170 1.234 . S
C151 O125 1.269 . S
C151 O126 1.257 . S
C152 H127 0.930 . S
C152 C155 1.388 . S
C152 C157 1.418 . S
C153 H148 0.930 . S
C153 C156 1.404 . S
C153 C157 1.353 . S
N154 Co119 2.145 . S
N154 C155 1.397 . S
N154 C156 1.334 . S
C155 H136 0.929 . S
C155 C152 1.388 . S
C155 N154 1.397 . S
C156 H137 0.929 . S
C156 C153 1.404 . S
C156 N154 1.334 . S
C157 H149 0.930 . S
C157 C152 1.418 . S
C157 C153 1.353 . S
C158 H128 0.930 . S
C158 N159 1.330 . S
C158 C160 1.446 . S
N159 Co118 2.151 . S
N159 C158 1.330 . S
N159 C163 1.418 . S
C160 H139 0.929 . S
C160 C158 1.446 . S
C160 C161 1.332 . S
C161 H141 0.931 . S
C161 C160 1.332 . S
C161 C162 1.267 . S
C162 H130 0.929 . S
C162 C161 1.267 . S
C162 C163 1.251 . S
C163 H133 0.929 . S
C163 N159 1.418 . S
C163 C162 1.251 . S
C164 H131 0.930 . S
C164 C166 1.406 . S
C164 C169 1.261 . S
C165 H132 0.930 . S
C165 N167 1.325 . S
C165 C168 1.357 . S
C166 H134 0.928 . S
C166 C164 1.406 . S
C166 N167 1.261 . S
N167 Co118 2.214 . S
N167 C165 1.325 . S
N167 C166 1.261 . S
C168 H138 0.931 . S
C168 C165 1.357 . S
C168 C169 1.312 . S
C169 H140 0.930 . S
C169 C164 1.261 . S
C169 C168 1.312 . S
C170 O142 1.214 . S
C170 O150 1.234 . S
C171 H143 0.929 . S
C171 C174 1.391 . S
C171 C176 1.391 . S
C172 H144 0.929 . S
C172 C173 1.390 . S
C172 N175 1.391 . S
C173 H145 0.930 . S
C173 C172 1.390 . S
C173 C174 1.392 . S
C174 H146 0.929 . S
C174 C171 1.391 . S
C174 C173 1.392 . S
N175 Co119 2.257 . S
N175 C172 1.391 . S
N175 C176 1.388 . S
C176 H147 0.930 . S
C176 C171 1.391 . S
C176 N175 1.388 . S
Co177 O179 2.143 . S
Co177 O185 2.074 . S
Co177 O188 2.093 . S
Co177 O201 2.097 1_554 S
Co177 N218 2.151 . S
Co177 N226 2.214 1_554 S
Co178 O179 2.160 . S
Co178 O184 2.058 . S
Co178 O194 2.057 . S
Co178 O209 2.037 . S
Co178 N213 2.145 . S
Co178 N234 2.257 . S
O179 Co177 2.143 . S
O179 Co178 2.160 . S
C180 O181 1.278 . S
C180 O188 1.224 . S
O181 C180 1.278 . S
C182 O183 1.245 . S
C182 O194 1.232 . S
O183 C182 1.245 . S
O184 Co178 2.058 . S
O184 C210 1.269 . S
O185 Co177 2.074 . S
O185 C210 1.257 . S
H186 C211 0.930 . S
H187 C217 0.930 . S
O188 Co177 2.093 . S
O188 C180 1.224 . S
H189 C221 0.929 . S
H190 C223 0.930 . S
H191 C224 0.930 . S
H192 C222 0.929 . S
H193 C225 0.928 . S
O194 Co178 2.057 . S
O194 C182 1.232 . S
H195 C214 0.929 . S
H196 C215 0.929 . S
H197 C227 0.931 . S
H198 C219 0.929 . S
H199 C228 0.930 . S
H200 C220 0.931 . S
O201 Co177 2.097 1_556 S
O201 C229 1.214 . S
H202 C230 0.929 . S
H203 C231 0.929 . S
H204 C232 0.930 . S
H205 C233 0.929 . S
H206 C235 0.930 . S
H207 C212 0.930 . S
H208 C216 0.930 . S
O209 Co178 2.037 . S
O209 C229 1.234 1_554 S
C210 O184 1.269 . S
C210 O185 1.257 . S
C211 H186 0.930 . S
C211 C214 1.388 . S
C211 C216 1.418 . S
C212 H207 0.930 . S
C212 C215 1.404 . S
C212 C216 1.353 . S
N213 Co178 2.145 . S
N213 C214 1.397 . S
N213 C215 1.334 . S
C214 H195 0.929 . S
C214 C211 1.388 . S
C214 N213 1.397 . S
C215 H196 0.929 . S
C215 C212 1.404 . S
C215 N213 1.334 . S
C216 H208 0.930 . S
C216 C211 1.418 . S
C216 C212 1.353 . S
C217 H187 0.930 . S
C217 N218 1.330 . S
C217 C219 1.446 . S
N218 Co177 2.151 . S
N218 C217 1.330 . S
N218 C222 1.418 . S
C219 H198 0.929 . S
C219 C217 1.446 . S
C219 C220 1.332 . S
C220 H200 0.931 . S
C220 C219 1.332 . S
C220 C221 1.267 . S
C221 H189 0.929 . S
C221 C220 1.267 . S
C221 C222 1.251 . S
C222 H192 0.929 . S
C222 N218 1.418 . S
C222 C221 1.251 . S
C223 H190 0.930 . S
C223 C225 1.406 . S
C223 C228 1.261 . S
C224 H191 0.930 . S
C224 N226 1.325 . S
C224 C227 1.357 . S
C225 H193 0.928 . S
C225 C223 1.406 . S
C225 N226 1.261 . S
N226 Co177 2.214 1_556 S
N226 C224 1.325 . S
N226 C225 1.261 . S
C227 H197 0.931 . S
C227 C224 1.357 . S
C227 C228 1.312 . S
C228 H199 0.930 . S
C228 C223 1.261 . S
C228 C227 1.312 . S
C229 O201 1.214 . S
C229 O209 1.234 1_556 S
C230 H202 0.929 . S
C230 C233 1.391 . S
C230 C235 1.391 . S
C231 H203 0.929 . S
C231 C232 1.390 . S
C231 N234 1.391 . S
C232 H204 0.930 . S
C232 C231 1.390 . S
C232 C233 1.392 . S
C233 H205 0.929 . S
C233 C230 1.391 . S
C233 C232 1.392 . S
N234 Co178 2.257 . S
N234 C231 1.391 . S
N234 C235 1.388 . S
C235 H206 0.930 . S
C235 C230 1.391 . S
C235 N234 1.388 . S
Co236 O238 2.143 . S
Co236 O244 2.074 . S
Co236 O247 2.093 . S
Co236 O260 2.097 . S
Co236 N277 2.151 . S
Co236 N285 2.214 . S
Co237 O238 2.160 . S
Co237 O243 2.058 . S
Co237 O253 2.057 . S
Co237 O268 2.037 . S
Co237 N272 2.145 . S
Co237 N293 2.257 . S
O238 Co236 2.143 . S
O238 Co237 2.160 . S
C239 O240 1.278 . S
C239 O247 1.224 . S
O240 C239 1.278 . S
C241 O242 1.245 . S
C241 O253 1.232 . S
O242 C241 1.245 . S
O243 Co237 2.058 . S
O243 C269 1.269 . S
O244 Co236 2.074 . S
O244 C269 1.257 . S
H245 C270 0.930 . S
H246 C276 0.930 . S
O247 Co236 2.093 . S
O247 C239 1.224 . S
H248 C280 0.929 . S
H249 C282 0.930 . S
H250 C283 0.930 . S
H251 C281 0.929 . S
H252 C284 0.928 . S
O253 Co237 2.057 . S
O253 C241 1.232 . S
H254 C273 0.929 . S
H255 C274 0.929 . S
H256 C286 0.931 . S
H257 C278 0.929 . S
H258 C287 0.930 . S
H259 C279 0.931 . S
O260 Co236 2.097 . S
O260 C288 1.214 . S
H261 C289 0.929 . S
H262 C290 0.929 . S
H263 C291 0.930 . S
H264 C292 0.929 . S
H265 C294 0.930 . S
H266 C271 0.930 . S
H267 C275 0.930 . S
O268 Co237 2.037 . S
O268 C288 1.234 . S
C269 O243 1.269 . S
C269 O244 1.257 . S
C270 H245 0.930 . S
C270 C273 1.388 . S
C270 C275 1.418 . S
C271 H266 0.930 . S
C271 C274 1.404 . S
C271 C275 1.353 . S
N272 Co237 2.145 . S
N272 C273 1.397 . S
N272 C274 1.334 . S
C273 H254 0.929 . S
C273 C270 1.388 . S
C273 N272 1.397 . S
C274 H255 0.929 . S
C274 C271 1.404 . S
C274 N272 1.334 . S
C275 H267 0.930 . S
C275 C270 1.418 . S
C275 C271 1.353 . S
C276 H246 0.930 . S
C276 N277 1.330 . S
C276 C278 1.446 . S
N277 Co236 2.151 . S
N277 C276 1.330 . S
N277 C281 1.418 . S
C278 H257 0.929 . S
C278 C276 1.446 . S
C278 C279 1.332 . S
C279 H259 0.931 . S
C279 C278 1.332 . S
C279 C280 1.267 . S
C280 H248 0.929 . S
C280 C279 1.267 . S
C280 C281 1.251 . S
C281 H251 0.929 . S
C281 N277 1.418 . S
C281 C280 1.251 . S
C282 H249 0.930 . S
C282 C284 1.406 . S
C282 C287 1.261 . S
C283 H250 0.930 . S
C283 N285 1.325 . S
C283 C286 1.357 . S
C284 H252 0.928 . S
C284 C282 1.406 . S
C284 N285 1.261 . S
N285 Co236 2.214 . S
N285 C283 1.325 . S
N285 C284 1.261 . S
C286 H256 0.931 . S
C286 C283 1.357 . S
C286 C287 1.312 . S
C287 H258 0.930 . S
C287 C282 1.261 . S
C287 C286 1.312 . S
C288 O260 1.214 . S
C288 O268 1.234 . S
C289 H261 0.929 . S
C289 C292 1.391 . S
C289 C294 1.391 . S
C290 H262 0.929 . S
C290 C291 1.390 . S
C290 N293 1.391 . S
C291 H263 0.930 . S
C291 C290 1.390 . S
C291 C292 1.392 . S
C292 H264 0.929 . S
C292 C289 1.391 . S
C292 C291 1.392 . S
N293 Co237 2.257 . S
N293 C290 1.391 . S
N293 C294 1.388 . S
C294 H265 0.930 . S
C294 C289 1.391 . S
C294 N293 1.388 . S
Co295 O297 2.143 . S
Co295 O303 2.074 . S
Co295 O306 2.093 . S
Co295 O319 2.097 . S
Co295 N336 2.151 . S
Co295 N344 2.214 . S
Co296 O297 2.160 . S
Co296 O302 2.058 . S
Co296 O312 2.057 . S
Co296 O327 2.037 . S
Co296 N331 2.145 . S
Co296 N352 2.257 . S
O297 Co295 2.143 . S
O297 Co296 2.160 . S
C298 O299 1.278 . S
C298 O306 1.224 . S
O299 C298 1.278 . S
C300 O301 1.245 . S
C300 O312 1.232 . S
O301 C300 1.245 . S
O302 Co296 2.058 . S
O302 C328 1.269 . S
O303 Co295 2.074 . S
O303 C328 1.257 . S
H304 C329 0.930 . S
H305 C335 0.930 . S
O306 Co295 2.093 . S
O306 C298 1.224 . S
H307 C339 0.929 . S
H308 C341 0.930 . S
H309 C342 0.930 . S
H310 C340 0.929 . S
H311 C343 0.928 . S
O312 Co296 2.057 . S
O312 C300 1.232 . S
H313 C332 0.929 . S
H314 C333 0.929 . S
H315 C345 0.931 . S
H316 C337 0.929 . S
H317 C346 0.930 . S
H318 C338 0.931 . S
O319 Co295 2.097 . S
O319 C347 1.214 . S
H320 C348 0.929 . S
H321 C349 0.929 . S
H322 C350 0.930 . S
H323 C351 0.929 . S
H324 C353 0.930 . S
H325 C330 0.930 . S
H326 C334 0.930 . S
O327 Co296 2.037 . S
O327 C347 1.234 . S
C328 O302 1.269 . S
C328 O303 1.257 . S
C329 H304 0.930 . S
C329 C332 1.388 . S
C329 C334 1.418 . S
C330 H325 0.930 . S
C330 C333 1.404 . S
C330 C334 1.353 . S
N331 Co296 2.145 . S
N331 C332 1.397 . S
N331 C333 1.334 . S
C332 H313 0.929 . S
C332 C329 1.388 . S
C332 N331 1.397 . S
C333 H314 0.929 . S
C333 C330 1.404 . S
C333 N331 1.334 . S
C334 H326 0.930 . S
C334 C329 1.418 . S
C334 C330 1.353 . S
C335 H305 0.930 . S
C335 N336 1.330 . S
C335 C337 1.446 . S
N336 Co295 2.151 . S
N336 C335 1.330 . S
N336 C340 1.418 . S
C337 H316 0.929 . S
C337 C335 1.446 . S
C337 C338 1.332 . S
C338 H318 0.931 . S
C338 C337 1.332 . S
C338 C339 1.267 . S
C339 H307 0.929 . S
C339 C338 1.267 . S
C339 C340 1.251 . S
C340 H310 0.929 . S
C340 N336 1.418 . S
C340 C339 1.251 . S
C341 H308 0.930 . S
C341 C343 1.406 . S
C341 C346 1.261 . S
C342 H309 0.930 . S
C342 N344 1.325 . S
C342 C345 1.357 . S
C343 H311 0.928 . S
C343 C341 1.406 . S
C343 N344 1.261 . S
N344 Co295 2.214 . S
N344 C342 1.325 . S
N344 C343 1.261 . S
C345 H315 0.931 . S
C345 C342 1.357 . S
C345 C346 1.312 . S
C346 H317 0.930 . S
C346 C341 1.261 . S
C346 C345 1.312 . S
C347 O319 1.214 . S
C347 O327 1.234 . S
C348 H320 0.929 . S
C348 C351 1.391 . S
C348 C353 1.391 . S
C349 H321 0.929 . S
C349 C350 1.390 . S
C349 N352 1.391 . S
C350 H322 0.930 . S
C350 C349 1.390 . S
C350 C351 1.392 . S
C351 H323 0.929 . S
C351 C348 1.391 . S
C351 C350 1.392 . S
N352 Co296 2.257 . S
N352 C349 1.391 . S
N352 C353 1.388 . S
C353 H324 0.930 . S
C353 C348 1.391 . S
C353 N352 1.388 . S
Co354 O356 2.143 . S
Co354 O362 2.074 . S
Co354 O365 2.093 . S
Co354 O378 2.097 . S
Co354 N395 2.151 . S
Co354 N403 2.214 . S
Co355 O356 2.160 . S
Co355 O361 2.058 . S
Co355 O371 2.057 . S
Co355 O386 2.037 . S
Co355 N390 2.145 . S
Co355 N411 2.257 . S
O356 Co354 2.143 . S
O356 Co355 2.160 . S
C357 O358 1.278 . S
C357 O365 1.224 . S
O358 C357 1.278 . S
C359 O360 1.245 . S
C359 O371 1.232 . S
O360 C359 1.245 . S
O361 Co355 2.058 . S
O361 C387 1.269 . S
O362 Co354 2.074 . S
O362 C387 1.257 . S
H363 C388 0.930 . S
H364 C394 0.930 . S
O365 Co354 2.093 . S
O365 C357 1.224 . S
H366 C398 0.929 . S
H367 C400 0.930 . S
H368 C401 0.930 . S
H369 C399 0.929 . S
H370 C402 0.928 . S
O371 Co355 2.057 . S
O371 C359 1.232 . S
H372 C391 0.929 . S
H373 C392 0.929 . S
H374 C404 0.931 . S
H375 C396 0.929 . S
H376 C405 0.930 . S
H377 C397 0.931 . S
O378 Co354 2.097 . S
O378 C406 1.214 . S
H379 C407 0.929 . S
H380 C408 0.929 . S
H381 C409 0.930 . S
H382 C410 0.929 . S
H383 C412 0.930 . S
H384 C389 0.930 . S
H385 C393 0.930 . S
O386 Co355 2.037 . S
O386 C406 1.234 . S
C387 O361 1.269 . S
C387 O362 1.257 . S
C388 H363 0.930 . S
C388 C391 1.388 . S
C388 C393 1.418 . S
C389 H384 0.930 . S
C389 C392 1.404 . S
C389 C393 1.353 . S
N390 Co355 2.145 . S
N390 C391 1.397 . S
N390 C392 1.334 . S
C391 H372 0.929 . S
C391 C388 1.388 . S
C391 N390 1.397 . S
C392 H373 0.929 . S
C392 C389 1.404 . S
C392 N390 1.334 . S
C393 H385 0.930 . S
C393 C388 1.418 . S
C393 C389 1.353 . S
C394 H364 0.930 . S
C394 N395 1.330 . S
C394 C396 1.446 . S
N395 Co354 2.151 . S
N395 C394 1.330 . S
N395 C399 1.418 . S
C396 H375 0.929 . S
C396 C394 1.446 . S
C396 C397 1.332 . S
C397 H377 0.931 . S
C397 C396 1.332 . S
C397 C398 1.267 . S
C398 H366 0.929 . S
C398 C397 1.267 . S
C398 C399 1.251 . S
C399 H369 0.929 . S
C399 N395 1.418 . S
C399 C398 1.251 . S
C400 H367 0.930 . S
C400 C402 1.406 . S
C400 C405 1.261 . S
C401 H368 0.930 . S
C401 N403 1.325 . S
C401 C404 1.357 . S
C402 H370 0.928 . S
C402 C400 1.406 . S
C402 N403 1.261 . S
N403 Co354 2.214 . S
N403 C401 1.325 . S
N403 C402 1.261 . S
C404 H374 0.931 . S
C404 C401 1.357 . S
C404 C405 1.312 . S
C405 H376 0.930 . S
C405 C400 1.261 . S
C405 C404 1.312 . S
C406 O378 1.214 . S
C406 O386 1.234 . S
C407 H379 0.929 . S
C407 C410 1.391 . S
C407 C412 1.391 . S
C408 H380 0.929 . S
C408 C409 1.390 . S
C408 N411 1.391 . S
C409 H381 0.930 . S
C409 C408 1.390 . S
C409 C410 1.392 . S
C410 H382 0.929 . S
C410 C407 1.391 . S
C410 C409 1.392 . S
N411 Co355 2.257 . S
N411 C408 1.391 . S
N411 C412 1.388 . S
C412 H383 0.930 . S
C412 C407 1.391 . S
C412 N411 1.388 . S
Co413 O415 2.143 . S
Co413 O421 2.074 . S
Co413 O424 2.093 . S
Co413 O437 2.097 1_556 S
Co413 N454 2.151 . S
Co413 N462 2.214 1_556 S
Co414 O415 2.160 . S
Co414 O420 2.058 . S
Co414 O430 2.057 . S
Co414 O445 2.037 . S
Co414 N449 2.145 . S
Co414 N470 2.257 . S
O415 Co413 2.143 . S
O415 Co414 2.160 . S
C416 O417 1.278 . S
C416 O424 1.224 . S
O417 C416 1.278 . S
C418 O419 1.245 . S
C418 O430 1.232 . S
O419 C418 1.245 . S
O420 Co414 2.058 . S
O420 C446 1.269 . S
O421 Co413 2.074 . S
O421 C446 1.257 . S
H422 C447 0.930 . S
H423 C453 0.930 . S
O424 Co413 2.093 . S
O424 C416 1.224 . S
H425 C457 0.929 . S
H426 C459 0.930 . S
H427 C460 0.930 . S
H428 C458 0.929 . S
H429 C461 0.928 . S
O430 Co414 2.057 . S
O430 C418 1.232 . S
H431 C450 0.929 . S
H432 C451 0.929 . S
H433 C463 0.931 . S
H434 C455 0.929 . S
H435 C464 0.930 . S
H436 C456 0.931 . S
O437 Co413 2.097 1_554 S
O437 C465 1.214 . S
H438 C466 0.929 . S
H439 C467 0.929 . S
H440 C468 0.930 . S
H441 C469 0.929 . S
H442 C471 0.930 . S
H443 C448 0.930 . S
H444 C452 0.930 . S
O445 Co414 2.037 . S
O445 C465 1.234 1_556 S
C446 O420 1.269 . S
C446 O421 1.257 . S
C447 H422 0.930 . S
C447 C450 1.388 . S
C447 C452 1.418 . S
C448 H443 0.930 . S
C448 C451 1.404 . S
C448 C452 1.353 . S
N449 Co414 2.145 . S
N449 C450 1.397 . S
N449 C451 1.334 . S
C450 H431 0.929 . S
C450 C447 1.388 . S
C450 N449 1.397 . S
C451 H432 0.929 . S
C451 C448 1.404 . S
C451 N449 1.334 . S
C452 H444 0.930 . S
C452 C447 1.418 . S
C452 C448 1.353 . S
C453 H423 0.930 . S
C453 N454 1.330 . S
C453 C455 1.446 . S
N454 Co413 2.151 . S
N454 C453 1.330 . S
N454 C458 1.418 . S
C455 H434 0.929 . S
C455 C453 1.446 . S
C455 C456 1.332 . S
C456 H436 0.931 . S
C456 C455 1.332 . S
C456 C457 1.267 . S
C457 H425 0.929 . S
C457 C456 1.267 . S
C457 C458 1.251 . S
C458 H428 0.929 . S
C458 N454 1.418 . S
C458 C457 1.251 . S
C459 H426 0.930 . S
C459 C461 1.406 . S
C459 C464 1.261 . S
C460 H427 0.930 . S
C460 N462 1.325 . S
C460 C463 1.357 . S
C461 H429 0.928 . S
C461 C459 1.406 . S
C461 N462 1.261 . S
N462 Co413 2.214 1_554 S
N462 C460 1.325 . S
N462 C461 1.261 . S
C463 H433 0.931 . S
C463 C460 1.357 . S
C463 C464 1.312 . S
C464 H435 0.930 . S
C464 C459 1.261 . S
C464 C463 1.312 . S
C465 O437 1.214 . S
C465 O445 1.234 1_554 S
C466 H438 0.929 . S
C466 C469 1.391 . S
C466 C471 1.391 . S
C467 H439 0.929 . S
C467 C468 1.390 . S
C467 N470 1.391 . S
C468 H440 0.930 . S
C468 C467 1.390 . S
C468 C469 1.392 . S
C469 H441 0.929 . S
C469 C466 1.391 . S
C469 C468 1.392 . S
N470 Co414 2.257 . S
N470 C467 1.391 . S
N470 C471 1.388 . S
C471 H442 0.930 . S
C471 C466 1.391 . S
C471 N470 1.388 . S
Co472 O474 2.143 . S
Co472 O480 2.074 . S
Co472 O483 2.093 . S
Co472 O496 2.097 . S
Co472 N513 2.151 . S
Co472 N521 2.214 . S
Co473 O474 2.160 . S
Co473 O479 2.058 . S
Co473 O489 2.057 . S
Co473 O504 2.037 . S
Co473 N508 2.145 . S
Co473 N529 2.257 . S
O474 Co472 2.143 . S
O474 Co473 2.160 . S
C475 O476 1.278 . S
C475 O483 1.224 . S
O476 C475 1.278 . S
C477 O478 1.245 . S
C477 O489 1.232 . S
O478 C477 1.245 . S
O479 Co473 2.058 . S
O479 C505 1.269 . S
O480 Co472 2.074 . S
O480 C505 1.257 . S
H481 C506 0.930 . S
H482 C512 0.930 . S
O483 Co472 2.093 . S
O483 C475 1.224 . S
H484 C516 0.929 . S
H485 C518 0.930 . S
H486 C519 0.930 . S
H487 C517 0.929 . S
H488 C520 0.928 . S
O489 Co473 2.057 . S
O489 C477 1.232 . S
H490 C509 0.929 . S
H491 C510 0.929 . S
H492 C522 0.931 . S
H493 C514 0.929 . S
H494 C523 0.930 . S
H495 C515 0.931 . S
O496 Co472 2.097 . S
O496 C524 1.214 . S
H497 C525 0.929 . S
H498 C526 0.929 . S
H499 C527 0.930 . S
H500 C528 0.929 . S
H501 C530 0.930 . S
H502 C507 0.930 . S
H503 C511 0.930 . S
O504 Co473 2.037 . S
O504 C524 1.234 . S
C505 O479 1.269 . S
C505 O480 1.257 . S
C506 H481 0.930 . S
C506 C509 1.388 . S
C506 C511 1.418 . S
C507 H502 0.930 . S
C507 C510 1.404 . S
C507 C511 1.353 . S
N508 Co473 2.145 . S
N508 C509 1.397 . S
N508 C510 1.334 . S
C509 H490 0.929 . S
C509 C506 1.388 . S
C509 N508 1.397 . S
C510 H491 0.929 . S
C510 C507 1.404 . S
C510 N508 1.334 . S
C511 H503 0.930 . S
C511 C506 1.418 . S
C511 C507 1.353 . S
C512 H482 0.930 . S
C512 N513 1.330 . S
C512 C514 1.446 . S
N513 Co472 2.151 . S
N513 C512 1.330 . S
N513 C517 1.418 . S
C514 H493 0.929 . S
C514 C512 1.446 . S
C514 C515 1.332 . S
C515 H495 0.931 . S
C515 C514 1.332 . S
C515 C516 1.267 . S
C516 H484 0.929 . S
C516 C515 1.267 . S
C516 C517 1.251 . S
C517 H487 0.929 . S
C517 N513 1.418 . S
C517 C516 1.251 . S
C518 H485 0.930 . S
C518 C520 1.406 . S
C518 C523 1.261 . S
C519 H486 0.930 . S
C519 N521 1.325 . S
C519 C522 1.357 . S
C520 H488 0.928 . S
C520 C518 1.406 . S
C520 N521 1.261 . S
N521 Co472 2.214 . S
N521 C519 1.325 . S
N521 C520 1.261 . S
C522 H492 0.931 . S
C522 C519 1.357 . S
C522 C523 1.312 . S
C523 H494 0.930 . S
C523 C518 1.261 . S
C523 C522 1.312 . S
C524 O496 1.214 . S
C524 O504 1.234 . S
C525 H497 0.929 . S
C525 C528 1.391 . S
C525 C530 1.391 . S
C526 H498 0.929 . S
C526 C527 1.390 . S
C526 N529 1.391 . S
C527 H499 0.930 . S
C527 C526 1.390 . S
C527 C528 1.392 . S
C528 H500 0.929 . S
C528 C525 1.391 . S
C528 C527 1.392 . S
N529 Co473 2.257 . S
N529 C526 1.391 . S
N529 C530 1.388 . S
C530 H501 0.930 . S
C530 C525 1.391 . S
C530 N529 1.388 . S
Co531 O533 2.143 . S
Co531 O539 2.074 . S
Co531 O542 2.093 . S
Co531 O555 2.097 . S
Co531 N572 2.151 . S
Co531 N580 2.214 . S
Co532 O533 2.160 . S
Co532 O538 2.058 . S
Co532 O548 2.057 . S
Co532 O563 2.037 . S
Co532 N567 2.145 . S
Co532 N588 2.257 . S
O533 Co531 2.143 . S
O533 Co532 2.160 . S
C534 O535 1.278 . S
C534 O542 1.224 . S
O535 C534 1.278 . S
C536 O537 1.245 . S
C536 O548 1.232 . S
O537 C536 1.245 . S
O538 Co532 2.058 . S
O538 C564 1.269 . S
O539 Co531 2.074 . S
O539 C564 1.257 . S
H540 C565 0.930 . S
H541 C571 0.930 . S
O542 Co531 2.093 . S
O542 C534 1.224 . S
H543 C575 0.929 . S
H544 C577 0.930 . S
H545 C578 0.930 . S
H546 C576 0.929 . S
H547 C579 0.928 . S
O548 Co532 2.057 . S
O548 C536 1.232 . S
H549 C568 0.929 . S
H550 C569 0.929 . S
H551 C581 0.931 . S
H552 C573 0.929 . S
H553 C582 0.930 . S
H554 C574 0.931 . S
O555 Co531 2.097 . S
O555 C583 1.214 . S
H556 C584 0.929 . S
H557 C585 0.929 . S
H558 C586 0.930 . S
H559 C587 0.929 . S
H560 C589 0.930 . S
H561 C566 0.930 . S
H562 C570 0.930 . S
O563 Co532 2.037 . S
O563 C583 1.234 . S
C564 O538 1.269 . S
C564 O539 1.257 . S
C565 H540 0.930 . S
C565 C568 1.388 . S
C565 C570 1.418 . S
C566 H561 0.930 . S
C566 C569 1.404 . S
C566 C570 1.353 . S
N567 Co532 2.145 . S
N567 C568 1.397 . S
N567 C569 1.334 . S
C568 H549 0.929 . S
C568 C565 1.388 . S
C568 N567 1.397 . S
C569 H550 0.929 . S
C569 C566 1.404 . S
C569 N567 1.334 . S
C570 H562 0.930 . S
C570 C565 1.418 . S
C570 C566 1.353 . S
C571 H541 0.930 . S
C571 N572 1.330 . S
C571 C573 1.446 . S
N572 Co531 2.151 . S
N572 C571 1.330 . S
N572 C576 1.418 . S
C573 H552 0.929 . S
C573 C571 1.446 . S
C573 C574 1.332 . S
C574 H554 0.931 . S
C574 C573 1.332 . S
C574 C575 1.267 . S
C575 H543 0.929 . S
C575 C574 1.267 . S
C575 C576 1.251 . S
C576 H546 0.929 . S
C576 N572 1.418 . S
C576 C575 1.251 . S
C577 H544 0.930 . S
C577 C579 1.406 . S
C577 C582 1.261 . S
C578 H545 0.930 . S
C578 N580 1.325 . S
C578 C581 1.357 . S
C579 H547 0.928 . S
C579 C577 1.406 . S
C579 N580 1.261 . S
N580 Co531 2.214 . S
N580 C578 1.325 . S
N580 C579 1.261 . S
C581 H551 0.931 . S
C581 C578 1.357 . S
C581 C582 1.312 . S
C582 H553 0.930 . S
C582 C577 1.261 . S
C582 C581 1.312 . S
C583 O555 1.214 . S
C583 O563 1.234 . S
C584 H556 0.929 . S
C584 C587 1.391 . S
C584 C589 1.391 . S
C585 H557 0.929 . S
C585 C586 1.390 . S
C585 N588 1.391 . S
C586 H558 0.930 . S
C586 C585 1.390 . S
C586 C587 1.392 . S
C587 H559 0.929 . S
C587 C584 1.391 . S
C587 C586 1.392 . S
N588 Co532 2.257 . S
N588 C585 1.391 . S
N588 C589 1.388 . S
C589 H560 0.930 . S
C589 C584 1.391 . S
C589 N588 1.388 . S
Co590 O592 2.143 . S
Co590 O598 2.074 . S
Co590 O601 2.093 . S
Co590 O614 2.097 1_556 S
Co590 N631 2.151 . S
Co590 N639 2.214 1_556 S
Co591 O592 2.160 . S
Co591 O597 2.058 . S
Co591 O607 2.057 . S
Co591 O622 2.037 . S
Co591 N626 2.145 . S
Co591 N647 2.257 . S
O592 Co590 2.143 . S
O592 Co591 2.160 . S
C593 O594 1.278 . S
C593 O601 1.224 . S
O594 C593 1.278 . S
C595 O596 1.245 . S
C595 O607 1.232 . S
O596 C595 1.245 . S
O597 Co591 2.058 . S
O597 C623 1.269 . S
O598 Co590 2.074 . S
O598 C623 1.257 . S
H599 C624 0.930 . S
H600 C630 0.930 . S
O601 Co590 2.093 . S
O601 C593 1.224 . S
H602 C634 0.929 . S
H603 C636 0.930 . S
H604 C637 0.930 . S
H605 C635 0.929 . S
H606 C638 0.928 . S
O607 Co591 2.057 . S
O607 C595 1.232 . S
H608 C627 0.929 . S
H609 C628 0.929 . S
H610 C640 0.931 . S
H611 C632 0.929 . S
H612 C641 0.930 . S
H613 C633 0.931 . S
O614 Co590 2.097 1_554 S
O614 C642 1.214 . S
H615 C643 0.929 . S
H616 C644 0.929 . S
H617 C645 0.930 . S
H618 C646 0.929 . S
H619 C648 0.930 . S
H620 C625 0.930 . S
H621 C629 0.930 . S
O622 Co591 2.037 . S
O622 C642 1.234 1_556 S
C623 O597 1.269 . S
C623 O598 1.257 . S
C624 H599 0.930 . S
C624 C627 1.388 . S
C624 C629 1.418 . S
C625 H620 0.930 . S
C625 C628 1.404 . S
C625 C629 1.353 . S
N626 Co591 2.145 . S
N626 C627 1.397 . S
N626 C628 1.334 . S
C627 H608 0.929 . S
C627 C624 1.388 . S
C627 N626 1.397 . S
C628 H609 0.929 . S
C628 C625 1.404 . S
C628 N626 1.334 . S
C629 H621 0.930 . S
C629 C624 1.418 . S
C629 C625 1.353 . S
C630 H600 0.930 . S
C630 N631 1.330 . S
C630 C632 1.446 . S
N631 Co590 2.151 . S
N631 C630 1.330 . S
N631 C635 1.418 . S
C632 H611 0.929 . S
C632 C630 1.446 . S
C632 C633 1.332 . S
C633 H613 0.931 . S
C633 C632 1.332 . S
C633 C634 1.267 . S
C634 H602 0.929 . S
C634 C633 1.267 . S
C634 C635 1.251 . S
C635 H605 0.929 . S
C635 N631 1.418 . S
C635 C634 1.251 . S
C636 H603 0.930 . S
C636 C638 1.406 . S
C636 C641 1.261 . S
C637 H604 0.930 . S
C637 N639 1.325 . S
C637 C640 1.357 . S
C638 H606 0.928 . S
C638 C636 1.406 . S
C638 N639 1.261 . S
N639 Co590 2.214 1_554 S
N639 C637 1.325 . S
N639 C638 1.261 . S
C640 H610 0.931 . S
C640 C637 1.357 . S
C640 C641 1.312 . S
C641 H612 0.930 . S
C641 C636 1.261 . S
C641 C640 1.312 . S
C642 O614 1.214 . S
C642 O622 1.234 1_554 S
C643 H615 0.929 . S
C643 C646 1.391 . S
C643 C648 1.391 . S
C644 H616 0.929 . S
C644 C645 1.390 . S
C644 N647 1.391 . S
C645 H617 0.930 . S
C645 C644 1.390 . S
C645 C646 1.392 . S
C646 H618 0.929 . S
C646 C643 1.391 . S
C646 C645 1.392 . S
N647 Co591 2.257 . S
N647 C644 1.391 . S
N647 C648 1.388 . S
C648 H619 0.930 . S
C648 C643 1.391 . S
C648 N647 1.388 . S
Co649 O651 2.143 . S
Co649 O657 2.074 . S
Co649 O660 2.093 . S
Co649 O673 2.097 . S
Co649 N690 2.151 . S
Co649 N698 2.214 . S
Co650 O651 2.160 . S
Co650 O656 2.058 . S
Co650 O666 2.057 . S
Co650 O681 2.037 . S
Co650 N685 2.145 . S
Co650 N706 2.257 . S
O651 Co649 2.143 . S
O651 Co650 2.160 . S
C652 O653 1.278 . S
C652 O660 1.224 . S
O653 C652 1.278 . S
C654 O655 1.245 . S
C654 O666 1.232 . S
O655 C654 1.245 . S
O656 Co650 2.058 . S
O656 C682 1.269 . S
O657 Co649 2.074 . S
O657 C682 1.257 . S
H658 C683 0.930 . S
H659 C689 0.930 . S
O660 Co649 2.093 . S
O660 C652 1.224 . S
H661 C693 0.929 . S
H662 C695 0.930 . S
H663 C696 0.930 . S
H664 C694 0.929 . S
H665 C697 0.928 . S
O666 Co650 2.057 . S
O666 C654 1.232 . S
H667 C686 0.929 . S
H668 C687 0.929 . S
H669 C699 0.931 . S
H670 C691 0.929 . S
H671 C700 0.930 . S
H672 C692 0.931 . S
O673 Co649 2.097 . S
O673 C701 1.214 . S
H674 C702 0.929 . S
H675 C703 0.929 . S
H676 C704 0.930 . S
H677 C705 0.929 . S
H678 C707 0.930 . S
H679 C684 0.930 . S
H680 C688 0.930 . S
O681 Co650 2.037 . S
O681 C701 1.234 . S
C682 O656 1.269 . S
C682 O657 1.257 . S
C683 H658 0.930 . S
C683 C686 1.388 . S
C683 C688 1.418 . S
C684 H679 0.930 . S
C684 C687 1.404 . S
C684 C688 1.353 . S
N685 Co650 2.145 . S
N685 C686 1.397 . S
N685 C687 1.334 . S
C686 H667 0.929 . S
C686 C683 1.388 . S
C686 N685 1.397 . S
C687 H668 0.929 . S
C687 C684 1.404 . S
C687 N685 1.334 . S
C688 H680 0.930 . S
C688 C683 1.418 . S
C688 C684 1.353 . S
C689 H659 0.930 . S
C689 N690 1.330 . S
C689 C691 1.446 . S
N690 Co649 2.151 . S
N690 C689 1.330 . S
N690 C694 1.418 . S
C691 H670 0.929 . S
C691 C689 1.446 . S
C691 C692 1.332 . S
C692 H672 0.931 . S
C692 C691 1.332 . S
C692 C693 1.267 . S
C693 H661 0.929 . S
C693 C692 1.267 . S
C693 C694 1.251 . S
C694 H664 0.929 . S
C694 N690 1.418 . S
C694 C693 1.251 . S
C695 H662 0.930 . S
C695 C697 1.406 . S
C695 C700 1.261 . S
C696 H663 0.930 . S
C696 N698 1.325 . S
C696 C699 1.357 . S
C697 H665 0.928 . S
C697 C695 1.406 . S
C697 N698 1.261 . S
N698 Co649 2.214 . S
N698 C696 1.325 . S
N698 C697 1.261 . S
C699 H669 0.931 . S
C699 C696 1.357 . S
C699 C700 1.312 . S
C700 H671 0.930 . S
C700 C695 1.261 . S
C700 C699 1.312 . S
C701 O673 1.214 . S
C701 O681 1.234 . S
C702 H674 0.929 . S
C702 C705 1.391 . S
C702 C707 1.391 . S
C703 H675 0.929 . S
C703 C704 1.390 . S
C703 N706 1.391 . S
C704 H676 0.930 . S
C704 C703 1.390 . S
C704 C705 1.392 . S
C705 H677 0.929 . S
C705 C702 1.391 . S
C705 C704 1.392 . S
N706 Co650 2.257 . S
N706 C703 1.391 . S
N706 C707 1.388 . S
C707 H678 0.930 . S
C707 C702 1.391 . S
C707 N706 1.388 . S
H708 C720 0.930 . S
H709 C722 0.930 . S
H710 C723 0.930 . S
H711 C727 0.959 . S
H712 C727 0.959 . S
H713 C727 0.961 . S
H714 C728 0.960 . S
H715 C728 0.961 . S
H716 C728 0.959 . S
H717 C731 0.929 . S
H718 C732 0.931 . S
H719 C734 0.930 . S
C720 H708 0.930 . S
C720 C721 1.399 . S
C720 C725 1.399 . S
C721 C720 1.399 . S
C721 C722 1.376 . S
C722 H709 0.930 . S
C722 C721 1.376 . S
C722 C723 1.388 . S
C723 H710 0.930 . S
C723 C722 1.388 . S
C723 C724 1.390 . S
C724 C723 1.390 . S
C724 C725 1.394 . S
C724 C730 1.465 . S
C725 C720 1.399 . S
C725 C724 1.394 . S
C725 C726 1.516 . S
C726 C725 1.516 . S
C726 C727 1.502 . S
C726 C728 1.561 . S
C726 C729 1.526 . S
C727 H711 0.959 . S
C727 H712 0.959 . S
C727 H713 0.961 . S
C727 C726 1.502 . S
C728 H714 0.960 . S
C728 H715 0.961 . S
C728 H716 0.959 . S
C728 C726 1.561 . S
C729 C726 1.526 . S
C729 C730 1.396 . S
C729 C734 1.390 . S
C730 C724 1.465 . S
C730 C729 1.396 . S
C730 C731 1.399 . S
C731 H717 0.929 . S
C731 C730 1.399 . S
C731 C732 1.385 . S
C732 H718 0.931 . S
C732 C731 1.385 . S
C732 C733 1.389 . S
C733 C732 1.389 . S
C733 C734 1.387 . S
C734 H719 0.930 . S
C734 C729 1.390 . S
C734 C733 1.387 . S
H735 C747 0.930 . S
H736 C749 0.930 . S
H737 C750 0.930 . S
H738 C754 0.959 . S
H739 C754 0.959 . S
H740 C754 0.961 . S
H741 C755 0.960 . S
H742 C755 0.961 . S
H743 C755 0.959 . S
H744 C758 0.929 . S
H745 C759 0.931 . S
H746 C761 0.930 . S
C747 H735 0.930 . S
C747 C748 1.399 . S
C747 C752 1.399 . S
C748 C747 1.399 . S
C748 C749 1.376 . S
C749 H736 0.930 . S
C749 C748 1.376 . S
C749 C750 1.388 . S
C750 H737 0.930 . S
C750 C749 1.388 . S
C750 C751 1.390 . S
C751 C750 1.390 . S
C751 C752 1.394 . S
C751 C757 1.465 . S
C752 C747 1.399 . S
C752 C751 1.394 . S
C752 C753 1.516 . S
C753 C752 1.516 . S
C753 C754 1.502 . S
C753 C755 1.561 . S
C753 C756 1.526 . S
C754 H738 0.959 . S
C754 H739 0.959 . S
C754 H740 0.961 . S
C754 C753 1.502 . S
C755 H741 0.960 . S
C755 H742 0.961 . S
C755 H743 0.959 . S
C755 C753 1.561 . S
C756 C753 1.526 . S
C756 C757 1.396 . S
C756 C761 1.390 . S
C757 C751 1.465 . S
C757 C756 1.396 . S
C757 C758 1.399 . S
C758 H744 0.929 . S
C758 C757 1.399 . S
C758 C759 1.385 . S
C759 H745 0.931 . S
C759 C758 1.385 . S
C759 C760 1.389 . S
C760 C759 1.389 . S
C760 C761 1.387 . S
C761 H746 0.930 . S
C761 C756 1.390 . S
C761 C760 1.387 . S
H762 C774 0.930 . S
H763 C776 0.930 . S
H764 C777 0.930 . S
H765 C781 0.959 . S
H766 C781 0.959 1_554 S
H767 C781 0.961 . S
H768 C782 0.960 1_556 S
H769 C782 0.961 . S
H770 C782 0.959 . S
H771 C785 0.929 . S
H772 C786 0.931 . S
H773 C788 0.930 . S
C774 H762 0.930 . S
C774 C775 1.399 . S
C774 C779 1.399 . S
C775 C774 1.399 . S
C775 C776 1.376 . S
C776 H763 0.930 . S
C776 C775 1.376 . S
C776 C777 1.388 . S
C777 H764 0.930 . S
C777 C776 1.388 . S
C777 C778 1.390 . S
C778 C777 1.390 . S
C778 C779 1.394 . S
C778 C784 1.465 1_556 S
C779 C774 1.399 . S
C779 C778 1.394 . S
C779 C780 1.516 . S
C780 C779 1.516 . S
C780 C781 1.502 . S
C780 C782 1.561 1_556 S
C780 C783 1.526 1_556 S
C781 H765 0.959 . S
C781 H766 0.959 1_556 S
C781 H767 0.961 . S
C781 C780 1.502 . S
C782 H768 0.960 1_554 S
C782 H769 0.961 . S
C782 H770 0.959 . S
C782 C780 1.561 1_554 S
C783 C780 1.526 1_554 S
C783 C784 1.396 . S
C783 C788 1.390 . S
C784 C778 1.465 1_554 S
C784 C783 1.396 . S
C784 C785 1.399 . S
C785 H771 0.929 . S
C785 C784 1.399 . S
C785 C786 1.385 . S
C786 H772 0.931 . S
C786 C785 1.385 . S
C786 C787 1.389 . S
C787 C786 1.389 . S
C787 C788 1.387 . S
C788 H773 0.930 . S
C788 C783 1.390 . S
C788 C787 1.387 . S
H789 C801 0.930 . S
H790 C803 0.930 . S
H791 C804 0.930 . S
H792 C808 0.959 . S
H793 C808 0.959 . S
H794 C808 0.961 . S
H795 C809 0.960 . S
H796 C809 0.961 . S
H797 C809 0.959 . S
H798 C812 0.929 . S
H799 C813 0.931 . S
H800 C815 0.930 . S
C801 H789 0.930 . S
C801 C802 1.399 . S
C801 C806 1.399 . S
C802 C801 1.399 . S
C802 C803 1.376 . S
C803 H790 0.930 . S
C803 C802 1.376 . S
C803 C804 1.388 . S
C804 H791 0.930 . S
C804 C803 1.388 . S
C804 C805 1.390 . S
C805 C804 1.390 . S
C805 C806 1.394 . S
C805 C811 1.465 . S
C806 C801 1.399 . S
C806 C805 1.394 . S
C806 C807 1.516 . S
C807 C806 1.516 . S
C807 C808 1.502 . S
C807 C809 1.561 . S
C807 C810 1.526 . S
C808 H792 0.959 . S
C808 H793 0.959 . S
C808 H794 0.961 . S
C808 C807 1.502 . S
C809 H795 0.960 . S
C809 H796 0.961 . S
C809 H797 0.959 . S
C809 C807 1.561 . S
C810 C807 1.526 . S
C810 C811 1.396 . S
C810 C815 1.390 . S
C811 C805 1.465 . S
C811 C810 1.396 . S
C811 C812 1.399 . S
C812 H798 0.929 . S
C812 C811 1.399 . S
C812 C813 1.385 . S
C813 H799 0.931 . S
C813 C812 1.385 . S
C813 C814 1.389 . S
C814 C813 1.389 . S
C814 C815 1.387 . S
C815 H800 0.930 . S
C815 C810 1.390 . S
C815 C814 1.387 . S
H816 C828 0.930 . S
H817 C830 0.930 . S
H818 C831 0.930 . S
H819 C835 0.959 . S
H820 C835 0.959 . S
H821 C835 0.961 . S
H822 C836 0.960 . S
H823 C836 0.961 . S
H824 C836 0.959 . S
H825 C839 0.929 . S
H826 C840 0.931 . S
H827 C842 0.930 . S
C828 H816 0.930 . S
C828 C829 1.399 . S
C828 C833 1.399 . S
C829 C828 1.399 . S
C829 C830 1.376 . S
C830 H817 0.930 . S
C830 C829 1.376 . S
C830 C831 1.388 . S
C831 H818 0.930 . S
C831 C830 1.388 . S
C831 C832 1.390 . S
C832 C831 1.390 . S
C832 C833 1.394 . S
C832 C838 1.465 . S
C833 C828 1.399 . S
C833 C832 1.394 . S
C833 C834 1.516 . S
C834 C833 1.516 . S
C834 C835 1.502 . S
C834 C836 1.561 . S
C834 C837 1.526 . S
C835 H819 0.959 . S
C835 H820 0.959 . S
C835 H821 0.961 . S
C835 C834 1.502 . S
C836 H822 0.960 . S
C836 H823 0.961 . S
C836 H824 0.959 . S
C836 C834 1.561 . S
C837 C834 1.526 . S
C837 C838 1.396 . S
C837 C842 1.390 . S
C838 C832 1.465 . S
C838 C837 1.396 . S
C838 C839 1.399 . S
C839 H825 0.929 . S
C839 C838 1.399 . S
C839 C840 1.385 . S
C840 H826 0.931 . S
C840 C839 1.385 . S
C840 C841 1.389 . S
C841 C840 1.389 . S
C841 C842 1.387 . S
C842 H827 0.930 . S
C842 C837 1.390 . S
C842 C841 1.387 . S
H843 C855 0.930 . S
H844 C857 0.930 . S
H845 C858 0.930 . S
H846 C862 0.959 . S
H847 C862 0.959 1_556 S
H848 C862 0.961 . S
H849 C863 0.960 1_554 S
H850 C863 0.961 . S
H851 C863 0.959 . S
H852 C866 0.929 . S
H853 C867 0.931 . S
H854 C869 0.930 . S
C855 H843 0.930 . S
C855 C856 1.399 . S
C855 C860 1.399 . S
C856 C855 1.399 . S
C856 C857 1.376 . S
C857 H844 0.930 . S
C857 C856 1.376 . S
C857 C858 1.388 . S
C858 H845 0.930 . S
C858 C857 1.388 . S
C858 C859 1.390 . S
C859 C858 1.390 . S
C859 C860 1.394 . S
C859 C865 1.465 1_554 S
C860 C855 1.399 . S
C860 C859 1.394 . S
C860 C861 1.516 . S
C861 C860 1.516 . S
C861 C862 1.502 . S
C861 C863 1.561 1_554 S
C861 C864 1.526 1_554 S
C862 H846 0.959 . S
C862 H847 0.959 1_554 S
C862 H848 0.961 . S
C862 C861 1.502 . S
C863 H849 0.960 1_556 S
C863 H850 0.961 . S
C863 H851 0.959 . S
C863 C861 1.561 1_556 S
C864 C861 1.526 1_556 S
C864 C865 1.396 . S
C864 C869 1.390 . S
C865 C859 1.465 1_556 S
C865 C864 1.396 . S
C865 C866 1.399 . S
C866 H852 0.929 . S
C866 C865 1.399 . S
C866 C867 1.385 . S
C867 H853 0.931 . S
C867 C866 1.385 . S
C867 C868 1.389 . S
C868 C867 1.389 . S
C868 C869 1.387 . S
C869 H854 0.930 . S
C869 C864 1.390 . S
C869 C868 1.387 . S
H870 C882 0.930 . S
H871 C884 0.930 . S
H872 C885 0.930 . S
H873 C889 0.959 . S
H874 C889 0.959 . S
H875 C889 0.961 . S
H876 C890 0.960 . S
H877 C890 0.961 . S
H878 C890 0.959 . S
H879 C893 0.929 . S
H880 C894 0.931 . S
H881 C896 0.930 . S
C882 H870 0.930 . S
C882 C883 1.399 . S
C882 C887 1.399 . S
C883 C882 1.399 . S
C883 C884 1.376 1_554 S
C884 H871 0.930 . S
C884 C883 1.376 1_556 S
C884 C885 1.388 . S
C885 H872 0.930 . S
C885 C884 1.388 . S
C885 C886 1.390 . S
C886 C885 1.390 . S
C886 C887 1.394 1_556 S
C886 C892 1.465 . S
C887 C882 1.399 . S
C887 C886 1.394 1_554 S
C887 C888 1.516 . S
C888 C887 1.516 . S
C888 C889 1.502 . S
C888 C890 1.561 . S
C888 C891 1.526 . S
C889 H873 0.959 . S
C889 H874 0.959 . S
C889 H875 0.961 . S
C889 C888 1.502 . S
C890 H876 0.960 . S
C890 H877 0.961 . S
C890 H878 0.959 . S
C890 C888 1.561 . S
C891 C888 1.526 . S
C891 C892 1.396 1_554 S
C891 C896 1.390 . S
C892 C886 1.465 . S
C892 C891 1.396 1_556 S
C892 C893 1.399 . S
C893 H879 0.929 . S
C893 C892 1.399 . S
C893 C894 1.385 . S
C894 H880 0.931 . S
C894 C893 1.385 . S
C894 C895 1.389 . S
C895 C894 1.389 . S
C895 C896 1.387 1_556 S
C896 H881 0.930 . S
C896 C891 1.390 . S
C896 C895 1.387 1_554 S
H897 C909 0.930 . S
H898 C911 0.930 . S
H899 C912 0.930 . S
H900 C916 0.959 . S
H901 C916 0.959 . S
H902 C916 0.961 . S
H903 C917 0.960 . S
H904 C917 0.961 . S
H905 C917 0.959 . S
H906 C920 0.929 . S
H907 C921 0.931 . S
H908 C923 0.930 . S
C909 H897 0.930 . S
C909 C910 1.399 . S
C909 C914 1.399 . S
C910 C909 1.399 . S
C910 C911 1.376 . S
C911 H898 0.930 . S
C911 C910 1.376 . S
C911 C912 1.388 . S
C912 H899 0.930 . S
C912 C911 1.388 . S
C912 C913 1.390 . S
C913 C912 1.390 . S
C913 C914 1.394 . S
C913 C919 1.465 . S
C914 C909 1.399 . S
C914 C913 1.394 . S
C914 C915 1.516 . S
C915 C914 1.516 . S
C915 C916 1.502 . S
C915 C917 1.561 . S
C915 C918 1.526 . S
C916 H900 0.959 . S
C916 H901 0.959 . S
C916 H902 0.961 . S
C916 C915 1.502 . S
C917 H903 0.960 . S
C917 H904 0.961 . S
C917 H905 0.959 . S
C917 C915 1.561 . S
C918 C915 1.526 . S
C918 C919 1.396 . S
C918 C923 1.390 . S
C919 C913 1.465 . S
C919 C918 1.396 . S
C919 C920 1.399 . S
C920 H906 0.929 . S
C920 C919 1.399 . S
C920 C921 1.385 . S
C921 H907 0.931 . S
C921 C920 1.385 . S
C921 C922 1.389 . S
C922 C921 1.389 . S
C922 C923 1.387 . S
C923 H908 0.930 . S
C923 C918 1.390 . S
C923 C922 1.387 . S
H924 C936 0.930 . S
H925 C938 0.930 . S
H926 C939 0.930 . S
H927 C943 0.959 . S
H928 C943 0.959 . S
H929 C943 0.961 . S
H930 C944 0.960 . S
H931 C944 0.961 . S
H932 C944 0.959 . S
H933 C947 0.929 . S
H934 C948 0.931 . S
H935 C950 0.930 . S
C936 H924 0.930 . S
C936 C937 1.399 . S
C936 C941 1.399 . S
C937 C936 1.399 . S
C937 C938 1.376 . S
C938 H925 0.930 . S
C938 C937 1.376 . S
C938 C939 1.388 . S
C939 H926 0.930 . S
C939 C938 1.388 . S
C939 C940 1.390 . S
C940 C939 1.390 . S
C940 C941 1.394 . S
C940 C946 1.465 . S
C941 C936 1.399 . S
C941 C940 1.394 . S
C941 C942 1.516 . S
C942 C941 1.516 . S
C942 C943 1.502 . S
C942 C944 1.561 . S
C942 C945 1.526 . S
C943 H927 0.959 . S
C943 H928 0.959 . S
C943 H929 0.961 . S
C943 C942 1.502 . S
C944 H930 0.960 . S
C944 H931 0.961 . S
C944 H932 0.959 . S
C944 C942 1.561 . S
C945 C942 1.526 . S
C945 C946 1.396 . S
C945 C950 1.390 . S
C946 C940 1.465 . S
C946 C945 1.396 . S
C946 C947 1.399 . S
C947 H933 0.929 . S
C947 C946 1.399 . S
C947 C948 1.385 . S
C948 H934 0.931 . S
C948 C947 1.385 . S
C948 C949 1.389 . S
C949 C948 1.389 . S
C949 C950 1.387 . S
C950 H935 0.930 . S
C950 C945 1.390 . S
C950 C949 1.387 . S
H951 C963 0.930 . S
H952 C965 0.930 . S
H953 C966 0.930 . S
H954 C970 0.959 . S
H955 C970 0.959 . S
H956 C970 0.961 . S
H957 C971 0.960 . S
H958 C971 0.967 . S
H959 C971 0.959 . S
H960 C974 0.929 . S
H961 C975 0.931 . S
H962 C977 0.930 . S
C963 H951 0.930 . S
C963 C964 1.399 . S
C963 C968 1.399 . S
C964 C963 1.399 . S
C964 C965 1.376 . S
C965 H952 0.930 . S
C965 C964 1.376 . S
C965 C966 1.388 . S
C966 H953 0.930 . S
C966 C965 1.388 . S
C966 C967 1.390 . S
C967 C966 1.390 . S
C967 C968 1.394 . S
C967 C973 1.465 . S
C968 C963 1.399 . S
C968 C967 1.394 . S
C968 C969 1.516 1_554 S
C969 C968 1.516 1_556 S
C969 C970 1.502 . S
C969 C971 1.561 1_556 S
C969 C972 1.526 . S
C970 H954 0.959 . S
C970 H955 0.959 . S
C970 H956 0.961 . S
C970 C969 1.502 . S
C971 H957 0.960 . S
C971 H958 0.967 . S
C971 H959 0.959 . S
C971 C969 1.561 1_554 S
C972 C969 1.526 . S
C972 C973 1.396 1_556 S
C972 C977 1.390 . S
C973 C967 1.465 . S
C973 C972 1.396 1_554 S
C973 C974 1.399 . S
C974 H960 0.929 . S
C974 C973 1.399 . S
C974 C975 1.385 1_554 S
C975 H961 0.931 . S
C975 C974 1.385 1_556 S
C975 C976 1.389 . S
C976 C975 1.389 . S
C976 C977 1.387 . S
C977 H962 0.930 . S
C977 C972 1.390 . S
C977 C976 1.387 . S
H978 C990 0.930 . S
H979 C992 0.930 . S
H980 C993 0.930 . S
H981 C997 0.959 . S
H982 C997 0.959 . S
H983 C997 0.961 . S
H984 C998 0.960 . S
H985 C998 0.961 . S
H986 C998 0.959 . S
H987 C1001 0.929 . S
H988 C1002 0.931 . S
H989 C1004 0.930 . S
C990 H978 0.930 . S
C990 C991 1.399 . S
C990 C995 1.399 . S
C991 C990 1.399 . S
C991 C992 1.376 . S
C992 H979 0.930 . S
C992 C991 1.376 . S
C992 C993 1.388 . S
C993 H980 0.930 . S
C993 C992 1.388 . S
C993 C994 1.390 . S
C994 C993 1.390 . S
C994 C995 1.394 . S
C994 C1000 1.465 . S
C995 C990 1.399 . S
C995 C994 1.394 . S
C995 C996 1.516 . S
C996 C995 1.516 . S
C996 C997 1.502 . S
C996 C998 1.561 . S
C996 C999 1.526 . S
C997 H981 0.959 . S
C997 H982 0.959 . S
C997 H983 0.961 . S
C997 C996 1.502 . S
C998 H984 0.960 . S
C998 H985 0.961 . S
C998 H986 0.959 . S
C998 C996 1.561 . S
C999 C996 1.526 . S
C999 C1000 1.396 . S
C999 C1004 1.390 . S
C1000 C994 1.465 . S
C1000 C999 1.396 . S
C1000 C1001 1.399 . S
C1001 H987 0.929 . S
C1001 C1000 1.399 . S
C1001 C1002 1.385 . S
C1002 H988 0.931 . S
C1002 C1001 1.385 . S
C1002 C1003 1.389 . S
C1003 C1002 1.389 . S
C1003 C1004 1.387 . S
C1004 H989 0.930 . S
C1004 C999 1.390 . S
C1004 C1003 1.387 . S
H1005 C1017 0.930 . S
H1006 C1019 0.930 . S
H1007 C1020 0.930 . S
H1008 C1024 0.959 . S
H1009 C1024 0.959 . S
H1010 C1024 0.961 . S
H1011 C1025 0.960 . S
H1012 C1025 0.961 . S
H1013 C1025 0.959 . S
H1014 C1028 0.929 . S
H1015 C1029 0.931 . S
H1016 C1031 0.930 . S
C1017 H1005 0.930 . S
C1017 C1018 1.399 . S
C1017 C1022 1.399 . S
C1018 C1017 1.399 . S
C1018 C1019 1.376 . S
C1019 H1006 0.930 . S
C1019 C1018 1.376 . S
C1019 C1020 1.388 . S
C1020 H1007 0.930 . S
C1020 C1019 1.388 . S
C1020 C1021 1.390 . S
C1021 C1020 1.390 . S
C1021 C1022 1.394 . S
C1021 C1027 1.465 . S
C1022 C1017 1.399 . S
C1022 C1021 1.394 . S
C1022 C1023 1.516 . S
C1023 C1022 1.516 . S
C1023 C1024 1.502 . S
C1023 C1025 1.561 . S
C1023 C1026 1.526 . S
C1024 H1008 0.959 . S
C1024 H1009 0.959 . S
C1024 H1010 0.961 . S
C1024 C1023 1.502 . S
C1025 H1011 0.960 . S
C1025 H1012 0.961 . S
C1025 H1013 0.959 . S
C1025 C1023 1.561 . S
C1026 C1023 1.526 . S
C1026 C1027 1.396 . S
C1026 C1031 1.390 . S
C1027 C1021 1.465 . S
C1027 C1026 1.396 . S
C1027 C1028 1.399 . S
C1028 H1014 0.929 . S
C1028 C1027 1.399 . S
C1028 C1029 1.385 . S
C1029 H1015 0.931 . S
C1029 C1028 1.385 . S
C1029 C1030 1.389 . S
C1030 C1029 1.389 . S
C1030 C1031 1.387 . S
C1031 H1016 0.930 . S
C1031 C1026 1.390 . S
C1031 C1030 1.387 . S
H1032 C1044 0.930 1_556 S
H1033 C1046 0.930 . S
H1034 C1047 0.930 . S
H1035 C1051 0.959 . S
H1036 C1051 0.959 . S
H1037 C1051 0.961 . S
H1038 C1052 0.960 . S
H1039 C1052 0.961 . S
H1040 C1052 0.959 . S
H1041 C1055 0.929 . S
H1042 C1056 0.931 . S
H1043 C1058 0.930 1_556 S
C1044 H1032 0.930 1_554 S
C1044 C1045 1.399 . S
C1044 C1049 1.399 . S
C1045 C1044 1.399 . S
C1045 C1046 1.376 . S
C1046 H1033 0.930 . S
C1046 C1045 1.376 . S
C1046 C1047 1.388 . S
C1047 H1034 0.930 . S
C1047 C1046 1.388 . S
C1047 C1048 1.390 . S
C1048 C1047 1.390 . S
C1048 C1049 1.394 . S
C1048 C1054 1.465 . S
C1049 C1044 1.399 . S
C1049 C1048 1.394 . S
C1049 C1050 1.505 1_554 S
C1050 C1049 1.505 1_556 S
C1050 C1051 1.511 . S
C1050 C1052 1.574 . S
C1050 C1053 1.515 1_556 S
C1051 H1035 0.959 . S
C1051 H1036 0.959 . S
C1051 H1037 0.961 . S
C1051 C1050 1.511 . S
C1052 H1038 0.960 . S
C1052 H1039 0.961 . S
C1052 H1040 0.959 . S
C1052 C1050 1.574 . S
C1053 C1050 1.515 1_554 S
C1053 C1054 1.396 . S
C1053 C1058 1.390 . S
C1054 C1048 1.465 . S
C1054 C1053 1.396 . S
C1054 C1055 1.399 . S
C1055 H1041 0.929 . S
C1055 C1054 1.399 . S
C1055 C1056 1.385 . S
C1056 H1042 0.931 . S
C1056 C1055 1.385 . S
C1056 C1057 1.389 . S
C1057 C1056 1.389 . S
C1057 C1058 1.387 . S
C1058 H1043 0.930 1_554 S
C1058 C1053 1.390 . S
C1058 C1057 1.387 . S
H1059 C1071 0.930 . S
H1060 C1073 0.930 . S
H1061 C1074 0.930 . S
H1062 C1078 0.959 . S
H1063 C1078 0.959 . S
H1064 C1078 0.961 . S
H1065 C1079 0.960 1_655 S
H1066 C1079 0.961 . S
H1067 C1079 0.959 . S
H1068 C1082 0.929 . S
H1069 C1083 0.931 . S
H1070 C1085 0.930 . S
C1071 H1059 0.930 . S
C1071 C1072 1.399 . S
C1071 C1076 1.399 . S
C1072 C1071 1.399 . S
C1072 C1073 1.376 . S
C1073 H1060 0.930 . S
C1073 C1072 1.376 . S
C1073 C1074 1.388 . S
C1074 H1061 0.930 . S
C1074 C1073 1.388 . S
C1074 C1075 1.390 . S
C1075 C1074 1.390 . S
C1075 C1076 1.394 . S
C1075 C1081 1.465 1_655 S
C1076 C1071 1.399 . S
C1076 C1075 1.394 . S
C1076 C1077 1.516 . S
C1077 C1076 1.516 . S
C1077 C1078 1.502 . S
C1077 C1079 1.561 1_655 S
C1077 C1080 1.526 1_655 S
C1078 H1062 0.959 . S
C1078 H1063 0.959 . S
C1078 H1064 0.961 . S
C1078 C1077 1.502 . S
C1079 H1065 0.960 1_455 S
C1079 H1066 0.961 . S
C1079 H1067 0.959 . S
C1079 C1077 1.561 1_455 S
C1080 C1077 1.526 1_455 S
C1080 C1081 1.396 . S
C1080 C1085 1.390 . S
C1081 C1075 1.465 1_455 S
C1081 C1080 1.396 . S
C1081 C1082 1.399 . S
C1082 H1068 0.929 . S
C1082 C1081 1.399 . S
C1082 C1083 1.385 . S
C1083 H1069 0.931 . S
C1083 C1082 1.385 . S
C1083 C1084 1.389 . S
C1084 C1083 1.389 . S
C1084 C1085 1.387 . S
C1085 H1070 0.930 . S
C1085 C1080 1.390 . S
C1085 C1084 1.387 . S
H1086 C1098 0.930 . S
H1087 C1100 0.930 . S
H1088 C1101 0.930 . S
H1089 C1105 0.959 . S
H1090 C1105 0.959 . S
H1091 C1105 0.961 . S
H1092 C1106 0.960 . S
H1093 C1106 0.961 1_565 S
H1094 C1106 0.959 . S
H1095 C1109 0.929 . S
H1096 C1110 0.931 . S
H1097 C1112 0.930 . S
C1098 H1086 0.930 . S
C1098 C1099 1.399 . S
C1098 C1103 1.399 . S
C1099 C1098 1.399 . S
C1099 C1100 1.376 . S
C1100 H1087 0.930 . S
C1100 C1099 1.376 . S
C1100 C1101 1.388 . S
C1101 H1088 0.930 . S
C1101 C1100 1.388 . S
C1101 C1102 1.390 . S
C1102 C1101 1.390 . S
C1102 C1103 1.394 . S
C1102 C1108 1.465 1_545 S
C1103 C1098 1.399 . S
C1103 C1102 1.394 . S
C1103 C1104 1.516 1_545 S
C1104 C1103 1.516 1_565 S
C1104 C1105 1.502 . S
C1104 C1106 1.561 1_565 S
C1104 C1107 1.526 . S
C1105 H1089 0.959 . S
C1105 H1090 0.959 . S
C1105 H1091 0.961 . S
C1105 C1104 1.502 . S
C1106 H1092 0.960 . S
C1106 H1093 0.961 1_545 S
C1106 H1094 0.959 . S
C1106 C1104 1.561 1_545 S
C1107 C1104 1.526 . S
C1107 C1108 1.396 . S
C1107 C1112 1.390 . S
C1108 C1102 1.465 1_565 S
C1108 C1107 1.396 . S
C1108 C1109 1.399 . S
C1109 H1095 0.929 . S
C1109 C1108 1.399 . S
C1109 C1110 1.385 . S
C1110 H1096 0.931 . S
C1110 C1109 1.385 . S
C1110 C1111 1.389 . S
C1111 C1110 1.389 . S
C1111 C1112 1.387 . S
C1112 H1097 0.930 . S
C1112 C1107 1.390 . S
C1112 C1111 1.387 . S
H1113 C1125 0.930 . S
H1114 C1127 0.930 . S
H1115 C1128 0.930 . S
H1116 C1132 0.959 . S
H1117 C1132 0.959 . S
H1118 C1132 0.961 . S
H1119 C1133 0.960 . S
H1120 C1133 0.961 . S
H1121 C1133 0.959 . S
H1122 C1136 0.929 . S
H1123 C1137 0.931 . S
H1124 C1139 0.930 . S
C1125 H1113 0.930 . S
C1125 C1126 1.399 . S
C1125 C1130 1.399 . S
C1126 C1125 1.399 . S
C1126 C1127 1.376 . S
C1127 H1114 0.930 . S
C1127 C1126 1.376 . S
C1127 C1128 1.388 . S
C1128 H1115 0.930 . S
C1128 C1127 1.388 . S
C1128 C1129 1.390 . S
C1129 C1128 1.390 . S
C1129 C1130 1.394 . S
C1129 C1135 1.465 . S
C1130 C1125 1.399 . S
C1130 C1129 1.394 . S
C1130 C1131 1.516 . S
C1131 C1130 1.516 . S
C1131 C1132 1.502 . S
C1131 C1133 1.561 . S
C1131 C1134 1.526 . S
C1132 H1116 0.959 . S
C1132 H1117 0.959 . S
C1132 H1118 0.961 . S
C1132 C1131 1.502 . S
C1133 H1119 0.960 . S
C1133 H1120 0.961 . S
C1133 H1121 0.959 . S
C1133 C1131 1.561 . S
C1134 C1131 1.526 . S
C1134 C1135 1.396 . S
C1134 C1139 1.390 . S
C1135 C1129 1.465 . S
C1135 C1134 1.396 . S
C1135 C1136 1.399 . S
C1136 H1122 0.929 . S
C1136 C1135 1.399 . S
C1136 C1137 1.385 . S
C1137 H1123 0.931 . S
C1137 C1136 1.385 . S
C1137 C1138 1.389 . S
C1138 C1137 1.389 . S
C1138 C1139 1.387 . S
C1139 H1124 0.930 . S
C1139 C1134 1.390 . S
C1139 C1138 1.387 . S
H1140 C1152 0.930 . S
H1141 C1154 0.930 . S
H1142 C1155 0.930 . S
H1143 C1159 0.959 . S
H1144 C1159 0.959 . S
H1145 C1159 0.961 . S
H1146 C1160 0.960 . S
H1147 C1160 0.961 . S
H1148 C1160 0.959 . S
H1149 C1163 0.929 . S
H1150 C1164 0.931 . S
H1151 C1166 0.930 . S
C1152 H1140 0.930 . S
C1152 C1153 1.399 . S
C1152 C1157 1.399 . S
C1153 C1152 1.399 . S
C1153 C1154 1.376 . S
C1154 H1141 0.930 . S
C1154 C1153 1.376 . S
C1154 C1155 1.388 . S
C1155 H1142 0.930 . S
C1155 C1154 1.388 . S
C1155 C1156 1.390 . S
C1156 C1155 1.390 . S
C1156 C1157 1.394 . S
C1156 C1162 1.465 1_455 S
C1157 C1152 1.399 . S
C1157 C1156 1.394 . S
C1157 C1158 1.516 . S
C1158 C1157 1.516 . S
C1158 C1159 1.502 . S
C1158 C1160 1.561 . S
C1158 C1161 1.526 1_455 S
C1159 H1143 0.959 . S
C1159 H1144 0.959 . S
C1159 H1145 0.961 . S
C1159 C1158 1.502 . S
C1160 H1146 0.960 . S
C1160 H1147 0.961 . S
C1160 H1148 0.959 . S
C1160 C1158 1.561 . S
C1161 C1158 1.526 1_655 S
C1161 C1162 1.396 . S
C1161 C1166 1.390 . S
C1162 C1156 1.465 1_655 S
C1162 C1161 1.396 . S
C1162 C1163 1.399 . S
C1163 H1149 0.929 . S
C1163 C1162 1.399 . S
C1163 C1164 1.385 . S
C1164 H1150 0.931 . S
C1164 C1163 1.385 . S
C1164 C1165 1.389 . S
C1165 C1164 1.389 . S
C1165 C1166 1.387 . S
C1166 H1151 0.930 . S
C1166 C1161 1.390 . S
C1166 C1165 1.387 . S
H1167 C1179 0.930 . S
H1168 C1181 0.930 . S
H1169 C1182 0.930 . S
H1170 C1186 0.959 . S
H1171 C1186 0.974 . S
H1172 C1186 0.961 . S
H1173 C1187 0.960 1_565 S
H1174 C1187 0.961 . S
H1175 C1187 0.959 . S
H1176 C1190 0.929 . S
H1177 C1191 0.931 . S
H1178 C1193 0.930 . S
C1179 H1167 0.930 . S
C1179 C1180 1.399 . S
C1179 C1184 1.399 . S
C1180 C1179 1.399 . S
C1180 C1181 1.376 . S
C1181 H1168 0.930 . S
C1181 C1180 1.376 . S
C1181 C1182 1.388 . S
C1182 H1169 0.930 . S
C1182 C1181 1.388 . S
C1182 C1183 1.390 . S
C1183 C1182 1.390 . S
C1183 C1184 1.394 . S
C1183 C1189 1.465 1_565 S
C1184 C1179 1.399 . S
C1184 C1183 1.394 . S
C1184 C1185 1.516 . S
C1185 C1184 1.516 . S
C1185 C1186 1.502 . S
C1185 C1187 1.561 1_565 S
C1185 C1188 1.526 1_565 S
C1186 H1170 0.959 . S
C1186 H1171 0.974 . S
C1186 H1172 0.961 . S
C1186 C1185 1.502 . S
C1187 H1173 0.960 1_545 S
C1187 H1174 0.961 . S
C1187 H1175 0.959 . S
C1187 C1185 1.561 1_545 S
C1188 C1185 1.526 1_545 S
C1188 C1189 1.396 . S
C1188 C1193 1.390 . S
C1189 C1183 1.465 1_545 S
C1189 C1188 1.396 . S
C1189 C1190 1.399 . S
C1190 H1176 0.929 . S
C1190 C1189 1.399 . S
C1190 C1191 1.385 . S
C1191 H1177 0.931 . S
C1191 C1190 1.385 . S
C1191 C1192 1.389 . S
C1192 C1191 1.389 . S
C1192 C1193 1.387 . S
C1193 H1178 0.930 . S
C1193 C1188 1.390 . S
C1193 C1192 1.387 . S
H1194 C1206 0.930 . S
H1195 C1208 0.930 . S
H1196 C1209 0.930 . S
H1197 C1213 0.959 . S
H1198 C1213 0.959 . S
H1199 C1213 0.961 . S
H1200 C1214 0.960 . S
H1201 C1214 0.961 . S
H1202 C1214 0.959 . S
H1203 C1217 0.929 . S
H1204 C1218 0.931 . S
H1205 C1220 0.930 . S
C1206 H1194 0.930 . S
C1206 C1207 1.399 . S
C1206 C1211 1.399 . S
C1207 C1206 1.399 . S
C1207 C1208 1.376 . S
C1208 H1195 0.930 . S
C1208 C1207 1.376 . S
C1208 C1209 1.388 . S
C1209 H1196 0.930 . S
C1209 C1208 1.388 . S
C1209 C1210 1.390 . S
C1210 C1209 1.390 . S
C1210 C1211 1.394 . S
C1210 C1216 1.465 . S
C1211 C1206 1.399 . S
C1211 C1210 1.394 . S
C1211 C1212 1.516 . S
C1212 C1211 1.516 . S
C1212 C1213 1.502 . S
C1212 C1214 1.561 . S
C1212 C1215 1.526 . S
C1213 H1197 0.959 . S
C1213 H1198 0.959 . S
C1213 H1199 0.961 . S
C1213 C1212 1.502 . S
C1214 H1200 0.960 . S
C1214 H1201 0.961 . S
C1214 H1202 0.959 . S
C1214 C1212 1.561 . S
C1215 C1212 1.526 . S
C1215 C1216 1.396 . S
C1215 C1220 1.390 . S
C1216 C1210 1.465 . S
C1216 C1215 1.396 . S
C1216 C1217 1.399 . S
C1217 H1203 0.929 . S
C1217 C1216 1.399 . S
C1217 C1218 1.385 . S
C1218 H1204 0.931 . S
C1218 C1217 1.385 . S
C1218 C1219 1.389 . S
C1219 C1218 1.389 . S
C1219 C1220 1.387 . S
C1220 H1205 0.930 . S
C1220 C1215 1.390 . S
C1220 C1219 1.387 . S
H1221 C1233 0.930 . S
H1222 C1235 0.930 . S
H1223 C1236 0.930 . S
H1224 C1240 0.959 . S
H1225 C1240 0.959 . S
H1226 C1240 0.961 . S
H1227 C1241 0.960 . S
H1228 C1241 0.961 . S
H1229 C1241 0.959 . S
H1230 C1244 0.929 . S
H1231 C1245 0.931 . S
H1232 C1247 0.930 . S
C1233 H1221 0.930 . S
C1233 C1234 1.399 . S
C1233 C1238 1.399 . S
C1234 C1233 1.399 . S
C1234 C1235 1.376 . S
C1235 H1222 0.930 . S
C1235 C1234 1.376 . S
C1235 C1236 1.388 . S
C1236 H1223 0.930 . S
C1236 C1235 1.388 . S
C1236 C1237 1.390 . S
C1237 C1236 1.390 . S
C1237 C1238 1.394 . S
C1237 C1243 1.465 . S
C1238 C1233 1.399 . S
C1238 C1237 1.394 . S
C1238 C1239 1.516 . S
C1239 C1238 1.516 . S
C1239 C1240 1.502 . S
C1239 C1241 1.561 . S
C1239 C1242 1.526 . S
C1240 H1224 0.959 . S
C1240 H1225 0.959 . S
C1240 H1226 0.961 . S
C1240 C1239 1.502 . S
C1241 H1227 0.960 . S
C1241 H1228 0.961 . S
C1241 H1229 0.959 . S
C1241 C1239 1.561 . S
C1242 C1239 1.526 . S
C1242 C1243 1.396 . S
C1242 C1247 1.390 . S
C1243 C1237 1.465 . S
C1243 C1242 1.396 . S
C1243 C1244 1.399 . S
C1244 H1230 0.929 . S
C1244 C1243 1.399 . S
C1244 C1245 1.385 . S
C1245 H1231 0.931 . S
C1245 C1244 1.385 . S
C1245 C1246 1.389 . S
C1246 C1245 1.389 . S
C1246 C1247 1.387 . S
C1247 H1232 0.930 . S
C1247 C1242 1.390 . S
C1247 C1246 1.387 . S
H1248 C1260 0.930 . S
H1249 C1262 0.930 . S
H1250 C1263 0.930 . S
H1251 C1267 0.959 . S
H1252 C1267 0.959 . S
H1253 C1267 0.961 . S
H1254 C1268 0.960 . S
H1255 C1268 0.961 . S
H1256 C1268 0.959 . S
H1257 C1271 0.929 . S
H1258 C1272 0.931 . S
H1259 C1274 0.930 . S
C1260 H1248 0.930 . S
C1260 C1261 1.399 . S
C1260 C1265 1.399 . S
C1261 C1260 1.399 . S
C1261 C1262 1.376 . S
C1262 H1249 0.930 . S
C1262 C1261 1.376 . S
C1262 C1263 1.388 . S
C1263 H1250 0.930 . S
C1263 C1262 1.388 . S
C1263 C1264 1.390 . S
C1264 C1263 1.390 . S
C1264 C1265 1.394 . S
C1264 C1270 1.465 . S
C1265 C1260 1.399 . S
C1265 C1264 1.394 . S
C1265 C1266 1.516 . S
C1266 C1265 1.516 . S
C1266 C1267 1.502 . S
C1266 C1268 1.561 . S
C1266 C1269 1.526 . S
C1267 H1251 0.959 . S
C1267 H1252 0.959 . S
C1267 H1253 0.961 . S
C1267 C1266 1.502 . S
C1268 H1254 0.960 . S
C1268 H1255 0.961 . S
C1268 H1256 0.959 . S
C1268 C1266 1.561 . S
C1269 C1266 1.526 . S
C1269 C1270 1.396 . S
C1269 C1274 1.390 . S
C1270 C1264 1.465 . S
C1270 C1269 1.396 . S
C1270 C1271 1.399 . S
C1271 H1257 0.929 . S
C1271 C1270 1.399 . S
C1271 C1272 1.385 . S
C1272 H1258 0.931 . S
C1272 C1271 1.385 . S
C1272 C1273 1.389 . S
C1273 C1272 1.389 . S
C1273 C1274 1.387 . S
C1274 H1259 0.930 . S
C1274 C1269 1.390 . S
C1274 C1273 1.387 . S
H1275 C1287 0.930 . S
H1276 C1289 0.930 . S
H1277 C1290 0.930 . S
H1278 C1294 0.959 . S
H1279 C1294 0.959 . S
H1280 C1294 0.961 . S
H1281 C1295 0.960 . S
H1282 C1295 0.961 . S
H1283 C1295 0.959 . S
H1284 C1298 0.929 . S
H1285 C1299 0.931 . S
H1286 C1301 0.930 . S
C1287 H1275 0.930 . S
C1287 C1288 1.399 . S
C1287 C1292 1.399 . S
C1288 C1287 1.399 . S
C1288 C1289 1.376 . S
C1289 H1276 0.930 . S
C1289 C1288 1.376 . S
C1289 C1290 1.388 . S
C1290 H1277 0.930 . S
C1290 C1289 1.388 . S
C1290 C1291 1.390 . S
C1291 C1290 1.390 . S
C1291 C1292 1.394 . S
C1291 C1297 1.465 . S
C1292 C1287 1.399 . S
C1292 C1291 1.394 . S
C1292 C1293 1.516 . S
C1293 C1292 1.516 . S
C1293 C1294 1.502 . S
C1293 C1295 1.561 . S
C1293 C1296 1.526 . S
C1294 H1278 0.959 . S
C1294 H1279 0.959 . S
C1294 H1280 0.961 . S
C1294 C1293 1.502 . S
C1295 H1281 0.960 . S
C1295 H1282 0.961 . S
C1295 H1283 0.959 . S
C1295 C1293 1.561 . S
C1296 C1293 1.526 . S
C1296 C1297 1.396 . S
C1296 C1301 1.390 . S
C1297 C1291 1.465 . S
C1297 C1296 1.396 . S
C1297 C1298 1.399 . S
C1298 H1284 0.929 . S
C1298 C1297 1.399 . S
C1298 C1299 1.385 . S
C1299 H1285 0.931 . S
C1299 C1298 1.385 . S
C1299 C1300 1.389 . S
C1300 C1299 1.389 . S
C1300 C1301 1.387 . S
C1301 H1286 0.930 . S
C1301 C1296 1.390 . S
C1301 C1300 1.387 . S
H1302 C1314 0.930 . S
H1303 C1316 0.930 . S
H1304 C1317 0.930 . S
H1305 C1321 0.959 . S
H1306 C1321 0.959 . S
H1307 C1321 0.961 . S
H1308 C1322 0.960 . S
H1309 C1322 0.961 . S
H1310 C1322 0.959 . S
H1311 C1325 0.929 . S
H1312 C1326 0.931 . S
H1313 C1328 0.930 . S
C1314 H1302 0.930 . S
C1314 C1315 1.399 . S
C1314 C1319 1.399 . S
C1315 C1314 1.399 . S
C1315 C1316 1.376 . S
C1316 H1303 0.930 . S
C1316 C1315 1.376 . S
C1316 C1317 1.388 . S
C1317 H1304 0.930 . S
C1317 C1316 1.388 . S
C1317 C1318 1.390 . S
C1318 C1317 1.390 . S
C1318 C1319 1.394 . S
C1318 C1324 1.465 . S
C1319 C1314 1.399 . S
C1319 C1318 1.394 . S
C1319 C1320 1.516 . S
C1320 C1319 1.516 . S
C1320 C1321 1.502 . S
C1320 C1322 1.561 . S
C1320 C1323 1.526 . S
C1321 H1305 0.959 . S
C1321 H1306 0.959 . S
C1321 H1307 0.961 . S
C1321 C1320 1.502 . S
C1322 H1308 0.960 . S
C1322 H1309 0.961 . S
C1322 H1310 0.959 . S
C1322 C1320 1.561 . S
C1323 C1320 1.526 . S
C1323 C1324 1.396 . S
C1323 C1328 1.390 . S
C1324 C1318 1.465 . S
C1324 C1323 1.396 . S
C1324 C1325 1.399 . S
C1325 H1311 0.929 . S
C1325 C1324 1.399 . S
C1325 C1326 1.385 . S
C1326 H1312 0.931 . S
C1326 C1325 1.385 . S
C1326 C1327 1.389 . S
C1327 C1326 1.389 . S
C1327 C1328 1.387 . S
C1328 H1313 0.930 . S
C1328 C1323 1.390 . S
C1328 C1327 1.387 . S
H1329 C1341 0.930 . S
H1330 C1343 0.930 . S
H1331 C1344 0.930 . S
H1332 C1348 0.959 . S
H1333 C1348 0.959 . S
H1334 C1348 0.961 . S
H1335 C1349 0.960 . S
H1336 C1349 0.961 . S
H1337 C1349 0.959 . S
H1338 C1352 0.929 . S
H1339 C1353 0.931 . S
H1340 C1355 0.930 . S
C1341 H1329 0.930 . S
C1341 C1342 1.399 . S
C1341 C1346 1.399 . S
C1342 C1341 1.399 . S
C1342 C1343 1.376 . S
C1343 H1330 0.930 . S
C1343 C1342 1.376 . S
C1343 C1344 1.388 . S
C1344 H1331 0.930 . S
C1344 C1343 1.388 . S
C1344 C1345 1.390 . S
C1345 C1344 1.390 . S
C1345 C1346 1.394 . S
C1345 C1351 1.465 . S
C1346 C1341 1.399 . S
C1346 C1345 1.394 . S
C1346 C1347 1.516 . S
C1347 C1346 1.516 . S
C1347 C1348 1.502 . S
C1347 C1349 1.561 . S
C1347 C1350 1.526 . S
C1348 H1332 0.959 . S
C1348 H1333 0.959 . S
C1348 H1334 0.961 . S
C1348 C1347 1.502 . S
C1349 H1335 0.960 . S
C1349 H1336 0.961 . S
C1349 H1337 0.959 . S
C1349 C1347 1.561 . S
C1350 C1347 1.526 . S
C1350 C1351 1.396 . S
C1350 C1355 1.390 . S
C1351 C1345 1.465 . S
C1351 C1350 1.396 . S
C1351 C1352 1.399 . S
C1352 H1338 0.929 . S
C1352 C1351 1.399 . S
C1352 C1353 1.385 . S
C1353 H1339 0.931 . S
C1353 C1352 1.385 . S
C1353 C1354 1.389 . S
C1354 C1353 1.389 . S
C1354 C1355 1.387 . S
C1355 H1340 0.930 . S
C1355 C1350 1.390 . S
C1355 C1354 1.387 . S
C721 C5 1.587 . S
C733 C359 1.579 . S
C748 C64 1.595 . S
C760 C418 1.598 . S
C775 C123 1.569 . S
C787 C477 1.575 . S
C802 C182 1.587 . S
C814 C536 1.579 . S
C829 C241 1.589 . S
C841 C595 1.595 . S
C856 C654 1.569 . S
C868 C300 1.574 . S
C883 C3 1.335 . S
C895 C593 1.392 . S
C910 C62 1.404 . S
C922 C652 1.355 . S
C937 C121 1.402 . S
C949 C357 1.336 . S
C964 C180 1.383 . S
C976 C416 1.339 . S
C991 C239 1.334 . S
C1003 C475 1.394 . S
C1018 C298 1.401 . S
C1030 C534 1.364 . S
C1045 C33 1.337 . S
C1057 C210 1.375 . S
C1072 C92 1.389 . S
C1084 C269 1.347 . S
C1099 C328 1.338 . S
C1111 C151 1.377 . S
C1126 C387 1.335 . S
C1138 C564 1.381 . S
C1153 C623 1.400 . S
C1165 C446 1.330 . S
C1180 C505 1.387 . S
C1192 C682 1.349 . S
C1207 C406 0.891 . S
C1219 C52 0.944 . S
C1234 C111 0.887 . S
C1246 C465 0.941 . S
C1261 C170 0.889 . S
C1273 C524 0.928 . S
C1288 C583 0.942 . S
C1300 C229 0.888 . S
C1315 C642 0.934 . S
C1327 C288 0.887 . S
C1342 C347 0.944 . S
C1354 C701 0.902 . S
