# Generated by pormake.
# Topology ukx, (4)-cn, num edge types: 1
# Building blocks:
#     Node 0, Type 0, BuildingBlock: CEKHIL_clean_sbu_0, # of connection points: 4
#     Node 1, Type 0, BuildingBlock: CEKHIL_clean_sbu_0, # of connection points: 4
#     Node 2, Type 0, BuildingBlock: CEKHIL_clean_sbu_0, # of connection points: 4
#     Node 3, Type 0, BuildingBlock: CEKHIL_clean_sbu_0, # of connection points: 4
#     Node 4, Type 0, BuildingBlock: CEKHIL_clean_sbu_0, # of connection points: 4
#     Node 5, Type 0, BuildingBlock: CEKHIL_clean_sbu_0, # of connection points: 4
#     Node 6, Type 0, BuildingBlock: CEKHIL_clean_sbu_0, # of connection points: 4
#     Node 7, Type 0, BuildingBlock: CEKHIL_clean_sbu_0, # of connection points: 4
#     Node 8, Type 0, BuildingBlock: CEKHIL_clean_sbu_0, # of connection points: 4
#     Node 9, Type 0, BuildingBlock: CEKHIL_clean_sbu_0, # of connection points: 4
#     Node 10, Type 0, BuildingBlock: CEKHIL_clean_sbu_0, # of connection points: 4
#     Node 11, Type 0, BuildingBlock: CEKHIL_clean_sbu_0, # of connection points: 4
#     Node 12, Type 0, BuildingBlock: CEKHIL_clean_sbu_0, # of connection points: 4
#     Node 13, Type 0, BuildingBlock: CEKHIL_clean_sbu_0, # of connection points: 4
#     Node 14, Type 0, BuildingBlock: CEKHIL_clean_sbu_0, # of connection points: 4
#     Node 15, Type 0, BuildingBlock: CEKHIL_clean_sbu_0, # of connection points: 4
#     Node 16, Type 0, BuildingBlock: CEKHIL_clean_sbu_0, # of connection points: 4
#     Node 17, Type 0, BuildingBlock: CEKHIL_clean_sbu_0, # of connection points: 4
#     Node 18, Type 0, BuildingBlock: CEKHIL_clean_sbu_0, # of connection points: 4
#     Node 19, Type 0, BuildingBlock: CEKHIL_clean_sbu_0, # of connection points: 4
#     Node 20, Type 0, BuildingBlock: CEKHIL_clean_sbu_0, # of connection points: 4
#     Node 21, Type 0, BuildingBlock: CEKHIL_clean_sbu_0, # of connection points: 4
#     Node 22, Type 0, BuildingBlock: CEKHIL_clean_sbu_0, # of connection points: 4
#     Node 23, Type 0, BuildingBlock: CEKHIL_clean_sbu_0, # of connection points: 4
#     Node 24, Type 0, BuildingBlock: CEKHIL_clean_sbu_0, # of connection points: 4
#     Node 25, Type 0, BuildingBlock: CEKHIL_clean_sbu_0, # of connection points: 4
#     Node 26, Type 0, BuildingBlock: CEKHIL_clean_sbu_0, # of connection points: 4
#     Node 27, Type 0, BuildingBlock: CEKHIL_clean_sbu_0, # of connection points: 4
#     Node 28, Type 0, BuildingBlock: CEKHIL_clean_sbu_0, # of connection points: 4
#     Node 29, Type 0, BuildingBlock: CEKHIL_clean_sbu_0, # of connection points: 4
#     Node 30, Type 0, BuildingBlock: CEKHIL_clean_sbu_0, # of connection points: 4
#     Node 31, Type 0, BuildingBlock: CEKHIL_clean_sbu_0, # of connection points: 4
#     Node 32, Type 0, BuildingBlock: CEKHIL_clean_sbu_0, # of connection points: 4
#     Node 33, Type 0, BuildingBlock: CEKHIL_clean_sbu_0, # of connection points: 4
#     Node 34, Type 0, BuildingBlock: CEKHIL_clean_sbu_0, # of connection points: 4
#     Node 35, Type 0, BuildingBlock: CEKHIL_clean_sbu_0, # of connection points: 4
#     Node 36, Type 0, BuildingBlock: CEKHIL_clean_sbu_0, # of connection points: 4
#     Node 37, Type 0, BuildingBlock: CEKHIL_clean_sbu_0, # of connection points: 4
#     Node 38, Type 0, BuildingBlock: CEKHIL_clean_sbu_0, # of connection points: 4
#     Node 39, Type 0, BuildingBlock: CEKHIL_clean_sbu_0, # of connection points: 4
#     Node 40, Type 0, BuildingBlock: CEKHIL_clean_sbu_0, # of connection points: 4
#     Node 41, Type 0, BuildingBlock: CEKHIL_clean_sbu_0, # of connection points: 4
#     Node 42, Type 0, BuildingBlock: CEKHIL_clean_sbu_0, # of connection points: 4
#     Node 43, Type 0, BuildingBlock: CEKHIL_clean_sbu_0, # of connection points: 4
#     Node 44, Type 0, BuildingBlock: CEKHIL_clean_sbu_0, # of connection points: 4
#     Node 45, Type 0, BuildingBlock: CEKHIL_clean_sbu_0, # of connection points: 4
#     Node 46, Type 0, BuildingBlock: CEKHIL_clean_sbu_0, # of connection points: 4
#     Node 47, Type 0, BuildingBlock: CEKHIL_clean_sbu_0, # of connection points: 4
#     Node 48, Type 0, BuildingBlock: CEKHIL_clean_sbu_0, # of connection points: 4
#     Node 49, Type 0, BuildingBlock: CEKHIL_clean_sbu_0, # of connection points: 4
#     Node 50, Type 0, BuildingBlock: CEKHIL_clean_sbu_0, # of connection points: 4
#     Node 51, Type 0, BuildingBlock: CEKHIL_clean_sbu_0, # of connection points: 4
#     Node 52, Type 0, BuildingBlock: CEKHIL_clean_sbu_0, # of connection points: 4
#     Node 53, Type 0, BuildingBlock: CEKHIL_clean_sbu_0, # of connection points: 4
#     Node 54, Type 0, BuildingBlock: CEKHIL_clean_sbu_0, # of connection points: 4
#     Node 55, Type 0, BuildingBlock: CEKHIL_clean_sbu_0, # of connection points: 4
#     Node 56, Type 0, BuildingBlock: CEKHIL_clean_sbu_0, # of connection points: 4
#     Node 57, Type 0, BuildingBlock: CEKHIL_clean_sbu_0, # of connection points: 4
#     Node 58, Type 0, BuildingBlock: CEKHIL_clean_sbu_0, # of connection points: 4
#     Node 59, Type 0, BuildingBlock: CEKHIL_clean_sbu_0, # of connection points: 4
#     Node 60, Type 0, BuildingBlock: CEKHIL_clean_sbu_0, # of connection points: 4
#     Node 61, Type 0, BuildingBlock: CEKHIL_clean_sbu_0, # of connection points: 4
#     Node 62, Type 0, BuildingBlock: CEKHIL_clean_sbu_0, # of connection points: 4
#     Node 63, Type 0, BuildingBlock: CEKHIL_clean_sbu_0, # of connection points: 4
#     Node 64, Type 0, BuildingBlock: CEKHIL_clean_sbu_0, # of connection points: 4
#     Node 65, Type 0, BuildingBlock: CEKHIL_clean_sbu_0, # of connection points: 4
#     Node 66, Type 0, BuildingBlock: CEKHIL_clean_sbu_0, # of connection points: 4
#     Node 67, Type 0, BuildingBlock: CEKHIL_clean_sbu_0, # of connection points: 4
#     Node 68, Type 0, BuildingBlock: CEKHIL_clean_sbu_0, # of connection points: 4
#     Node 69, Type 0, BuildingBlock: CEKHIL_clean_sbu_0, # of connection points: 4
#     Node 70, Type 0, BuildingBlock: CEKHIL_clean_sbu_0, # of connection points: 4
#     Node 71, Type 0, BuildingBlock: CEKHIL_clean_sbu_0, # of connection points: 4
#     Node 72, Type 0, BuildingBlock: CEKHIL_clean_sbu_0, # of connection points: 4
#     Node 73, Type 0, BuildingBlock: CEKHIL_clean_sbu_0, # of connection points: 4
#     Node 74, Type 0, BuildingBlock: CEKHIL_clean_sbu_0, # of connection points: 4
#     Node 75, Type 0, BuildingBlock: CEKHIL_clean_sbu_0, # of connection points: 4
#     Node 76, Type 0, BuildingBlock: CEKHIL_clean_sbu_0, # of connection points: 4
#     Node 77, Type 0, BuildingBlock: CEKHIL_clean_sbu_0, # of connection points: 4
#     Node 78, Type 0, BuildingBlock: CEKHIL_clean_sbu_0, # of connection points: 4
#     Node 79, Type 0, BuildingBlock: CEKHIL_clean_sbu_0, # of connection points: 4
#     Node 80, Type 0, BuildingBlock: CEKHIL_clean_sbu_0, # of connection points: 4
#     Node 81, Type 0, BuildingBlock: CEKHIL_clean_sbu_0, # of connection points: 4
#     Node 82, Type 0, BuildingBlock: CEKHIL_clean_sbu_0, # of connection points: 4
#     Node 83, Type 0, BuildingBlock: CEKHIL_clean_sbu_0, # of connection points: 4
#     Node 84, Type 0, BuildingBlock: CEKHIL_clean_sbu_0, # of connection points: 4
#     Node 85, Type 0, BuildingBlock: CEKHIL_clean_sbu_0, # of connection points: 4
#     Node 86, Type 0, BuildingBlock: CEKHIL_clean_sbu_0, # of connection points: 4
#     Node 87, Type 0, BuildingBlock: CEKHIL_clean_sbu_0, # of connection points: 4
#     Node 88, Type 0, BuildingBlock: CEKHIL_clean_sbu_0, # of connection points: 4
#     Node 89, Type 0, BuildingBlock: CEKHIL_clean_sbu_0, # of connection points: 4
#     Node 90, Type 0, BuildingBlock: CEKHIL_clean_sbu_0, # of connection points: 4
#     Node 91, Type 0, BuildingBlock: CEKHIL_clean_sbu_0, # of connection points: 4
#     Node 92, Type 0, BuildingBlock: CEKHIL_clean_sbu_0, # of connection points: 4
#     Node 93, Type 0, BuildingBlock: CEKHIL_clean_sbu_0, # of connection points: 4
#     Node 94, Type 0, BuildingBlock: CEKHIL_clean_sbu_0, # of connection points: 4
#     Node 95, Type 0, BuildingBlock: CEKHIL_clean_sbu_0, # of connection points: 4
#     Edge 96, Type (0, 0), BuildingBlock: KIFKEQ_clean_linker_1, # of connection points: 2
#     Edge 97, Type (0, 0), BuildingBlock: KIFKEQ_clean_linker_1, # of connection points: 2
#     Edge 98, Type (0, 0), BuildingBlock: KIFKEQ_clean_linker_1, # of connection points: 2
#     Edge 99, Type (0, 0), BuildingBlock: KIFKEQ_clean_linker_1, # of connection points: 2
#     Edge 100, Type (0, 0), BuildingBlock: KIFKEQ_clean_linker_1, # of connection points: 2
#     Edge 101, Type (0, 0), BuildingBlock: KIFKEQ_clean_linker_1, # of connection points: 2
#     Edge 102, Type (0, 0), BuildingBlock: KIFKEQ_clean_linker_1, # of connection points: 2
#     Edge 103, Type (0, 0), BuildingBlock: KIFKEQ_clean_linker_1, # of connection points: 2
#     Edge 104, Type (0, 0), BuildingBlock: KIFKEQ_clean_linker_1, # of connection points: 2
#     Edge 105, Type (0, 0), BuildingBlock: KIFKEQ_clean_linker_1, # of connection points: 2
#     Edge 106, Type (0, 0), BuildingBlock: KIFKEQ_clean_linker_1, # of connection points: 2
#     Edge 107, Type (0, 0), BuildingBlock: KIFKEQ_clean_linker_1, # of connection points: 2
#     Edge 108, Type (0, 0), BuildingBlock: KIFKEQ_clean_linker_1, # of connection points: 2
#     Edge 109, Type (0, 0), BuildingBlock: KIFKEQ_clean_linker_1, # of connection points: 2
#     Edge 110, Type (0, 0), BuildingBlock: KIFKEQ_clean_linker_1, # of connection points: 2
#     Edge 111, Type (0, 0), BuildingBlock: KIFKEQ_clean_linker_1, # of connection points: 2
#     Edge 112, Type (0, 0), BuildingBlock: KIFKEQ_clean_linker_1, # of connection points: 2
#     Edge 113, Type (0, 0), BuildingBlock: KIFKEQ_clean_linker_1, # of connection points: 2
#     Edge 114, Type (0, 0), BuildingBlock: KIFKEQ_clean_linker_1, # of connection points: 2
#     Edge 115, Type (0, 0), BuildingBlock: KIFKEQ_clean_linker_1, # of connection points: 2
#     Edge 116, Type (0, 0), BuildingBlock: KIFKEQ_clean_linker_1, # of connection points: 2
#     Edge 117, Type (0, 0), BuildingBlock: KIFKEQ_clean_linker_1, # of connection points: 2
#     Edge 118, Type (0, 0), BuildingBlock: KIFKEQ_clean_linker_1, # of connection points: 2
#     Edge 119, Type (0, 0), BuildingBlock: KIFKEQ_clean_linker_1, # of connection points: 2
#     Edge 120, Type (0, 0), BuildingBlock: KIFKEQ_clean_linker_1, # of connection points: 2
#     Edge 121, Type (0, 0), BuildingBlock: KIFKEQ_clean_linker_1, # of connection points: 2
#     Edge 122, Type (0, 0), BuildingBlock: KIFKEQ_clean_linker_1, # of connection points: 2
#     Edge 123, Type (0, 0), BuildingBlock: KIFKEQ_clean_linker_1, # of connection points: 2
#     Edge 124, Type (0, 0), BuildingBlock: KIFKEQ_clean_linker_1, # of connection points: 2
#     Edge 125, Type (0, 0), BuildingBlock: KIFKEQ_clean_linker_1, # of connection points: 2
#     Edge 126, Type (0, 0), BuildingBlock: KIFKEQ_clean_linker_1, # of connection points: 2
#     Edge 127, Type (0, 0), BuildingBlock: KIFKEQ_clean_linker_1, # of connection points: 2
#     Edge 128, Type (0, 0), BuildingBlock: KIFKEQ_clean_linker_1, # of connection points: 2
#     Edge 129, Type (0, 0), BuildingBlock: KIFKEQ_clean_linker_1, # of connection points: 2
#     Edge 130, Type (0, 0), BuildingBlock: KIFKEQ_clean_linker_1, # of connection points: 2
#     Edge 131, Type (0, 0), BuildingBlock: KIFKEQ_clean_linker_1, # of connection points: 2
#     Edge 132, Type (0, 0), BuildingBlock: KIFKEQ_clean_linker_1, # of connection points: 2
#     Edge 133, Type (0, 0), BuildingBlock: KIFKEQ_clean_linker_1, # of connection points: 2
#     Edge 134, Type (0, 0), BuildingBlock: KIFKEQ_clean_linker_1, # of connection points: 2
#     Edge 135, Type (0, 0), BuildingBlock: KIFKEQ_clean_linker_1, # of connection points: 2
#     Edge 136, Type (0, 0), BuildingBlock: KIFKEQ_clean_linker_1, # of connection points: 2
#     Edge 137, Type (0, 0), BuildingBlock: KIFKEQ_clean_linker_1, # of connection points: 2
#     Edge 138, Type (0, 0), BuildingBlock: KIFKEQ_clean_linker_1, # of connection points: 2
#     Edge 139, Type (0, 0), BuildingBlock: KIFKEQ_clean_linker_1, # of connection points: 2
#     Edge 140, Type (0, 0), BuildingBlock: KIFKEQ_clean_linker_1, # of connection points: 2
#     Edge 141, Type (0, 0), BuildingBlock: KIFKEQ_clean_linker_1, # of connection points: 2
#     Edge 142, Type (0, 0), BuildingBlock: KIFKEQ_clean_linker_1, # of connection points: 2
#     Edge 143, Type (0, 0), BuildingBlock: KIFKEQ_clean_linker_1, # of connection points: 2
#     Edge 144, Type (0, 0), BuildingBlock: KIFKEQ_clean_linker_1, # of connection points: 2
#     Edge 145, Type (0, 0), BuildingBlock: KIFKEQ_clean_linker_1, # of connection points: 2
#     Edge 146, Type (0, 0), BuildingBlock: KIFKEQ_clean_linker_1, # of connection points: 2
#     Edge 147, Type (0, 0), BuildingBlock: KIFKEQ_clean_linker_1, # of connection points: 2
#     Edge 148, Type (0, 0), BuildingBlock: KIFKEQ_clean_linker_1, # of connection points: 2
#     Edge 149, Type (0, 0), BuildingBlock: KIFKEQ_clean_linker_1, # of connection points: 2
#     Edge 150, Type (0, 0), BuildingBlock: KIFKEQ_clean_linker_1, # of connection points: 2
#     Edge 151, Type (0, 0), BuildingBlock: KIFKEQ_clean_linker_1, # of connection points: 2
#     Edge 152, Type (0, 0), BuildingBlock: KIFKEQ_clean_linker_1, # of connection points: 2
#     Edge 153, Type (0, 0), BuildingBlock: KIFKEQ_clean_linker_1, # of connection points: 2
#     Edge 154, Type (0, 0), BuildingBlock: KIFKEQ_clean_linker_1, # of connection points: 2
#     Edge 155, Type (0, 0), BuildingBlock: KIFKEQ_clean_linker_1, # of connection points: 2
#     Edge 156, Type (0, 0), BuildingBlock: KIFKEQ_clean_linker_1, # of connection points: 2
#     Edge 157, Type (0, 0), BuildingBlock: KIFKEQ_clean_linker_1, # of connection points: 2
#     Edge 158, Type (0, 0), BuildingBlock: KIFKEQ_clean_linker_1, # of connection points: 2
#     Edge 159, Type (0, 0), BuildingBlock: KIFKEQ_clean_linker_1, # of connection points: 2
#     Edge 160, Type (0, 0), BuildingBlock: KIFKEQ_clean_linker_1, # of connection points: 2
#     Edge 161, Type (0, 0), BuildingBlock: KIFKEQ_clean_linker_1, # of connection points: 2
#     Edge 162, Type (0, 0), BuildingBlock: KIFKEQ_clean_linker_1, # of connection points: 2
#     Edge 163, Type (0, 0), BuildingBlock: KIFKEQ_clean_linker_1, # of connection points: 2
#     Edge 164, Type (0, 0), BuildingBlock: KIFKEQ_clean_linker_1, # of connection points: 2
#     Edge 165, Type (0, 0), BuildingBlock: KIFKEQ_clean_linker_1, # of connection points: 2
#     Edge 166, Type (0, 0), BuildingBlock: KIFKEQ_clean_linker_1, # of connection points: 2
#     Edge 167, Type (0, 0), BuildingBlock: KIFKEQ_clean_linker_1, # of connection points: 2
#     Edge 168, Type (0, 0), BuildingBlock: KIFKEQ_clean_linker_1, # of connection points: 2
#     Edge 169, Type (0, 0), BuildingBlock: KIFKEQ_clean_linker_1, # of connection points: 2
#     Edge 170, Type (0, 0), BuildingBlock: KIFKEQ_clean_linker_1, # of connection points: 2
#     Edge 171, Type (0, 0), BuildingBlock: KIFKEQ_clean_linker_1, # of connection points: 2
#     Edge 172, Type (0, 0), BuildingBlock: KIFKEQ_clean_linker_1, # of connection points: 2
#     Edge 173, Type (0, 0), BuildingBlock: KIFKEQ_clean_linker_1, # of connection points: 2
#     Edge 174, Type (0, 0), BuildingBlock: KIFKEQ_clean_linker_1, # of connection points: 2
#     Edge 175, Type (0, 0), BuildingBlock: KIFKEQ_clean_linker_1, # of connection points: 2
#     Edge 176, Type (0, 0), BuildingBlock: KIFKEQ_clean_linker_1, # of connection points: 2
#     Edge 177, Type (0, 0), BuildingBlock: KIFKEQ_clean_linker_1, # of connection points: 2
#     Edge 178, Type (0, 0), BuildingBlock: KIFKEQ_clean_linker_1, # of connection points: 2
#     Edge 179, Type (0, 0), BuildingBlock: KIFKEQ_clean_linker_1, # of connection points: 2
#     Edge 180, Type (0, 0), BuildingBlock: KIFKEQ_clean_linker_1, # of connection points: 2
#     Edge 181, Type (0, 0), BuildingBlock: KIFKEQ_clean_linker_1, # of connection points: 2
#     Edge 182, Type (0, 0), BuildingBlock: KIFKEQ_clean_linker_1, # of connection points: 2
#     Edge 183, Type (0, 0), BuildingBlock: KIFKEQ_clean_linker_1, # of connection points: 2
#     Edge 184, Type (0, 0), BuildingBlock: KIFKEQ_clean_linker_1, # of connection points: 2
#     Edge 185, Type (0, 0), BuildingBlock: KIFKEQ_clean_linker_1, # of connection points: 2
#     Edge 186, Type (0, 0), BuildingBlock: KIFKEQ_clean_linker_1, # of connection points: 2
#     Edge 187, Type (0, 0), BuildingBlock: KIFKEQ_clean_linker_1, # of connection points: 2
#     Edge 188, Type (0, 0), BuildingBlock: KIFKEQ_clean_linker_1, # of connection points: 2
#     Edge 189, Type (0, 0), BuildingBlock: KIFKEQ_clean_linker_1, # of connection points: 2
#     Edge 190, Type (0, 0), BuildingBlock: KIFKEQ_clean_linker_1, # of connection points: 2
#     Edge 191, Type (0, 0), BuildingBlock: KIFKEQ_clean_linker_1, # of connection points: 2
#     Edge 192, Type (0, 0), BuildingBlock: KIFKEQ_clean_linker_1, # of connection points: 2
#     Edge 193, Type (0, 0), BuildingBlock: KIFKEQ_clean_linker_1, # of connection points: 2
#     Edge 194, Type (0, 0), BuildingBlock: KIFKEQ_clean_linker_1, # of connection points: 2
#     Edge 195, Type (0, 0), BuildingBlock: KIFKEQ_clean_linker_1, # of connection points: 2
#     Edge 196, Type (0, 0), BuildingBlock: KIFKEQ_clean_linker_1, # of connection points: 2
#     Edge 197, Type (0, 0), BuildingBlock: KIFKEQ_clean_linker_1, # of connection points: 2
#     Edge 198, Type (0, 0), BuildingBlock: KIFKEQ_clean_linker_1, # of connection points: 2
#     Edge 199, Type (0, 0), BuildingBlock: KIFKEQ_clean_linker_1, # of connection points: 2
#     Edge 200, Type (0, 0), BuildingBlock: KIFKEQ_clean_linker_1, # of connection points: 2
#     Edge 201, Type (0, 0), BuildingBlock: KIFKEQ_clean_linker_1, # of connection points: 2
#     Edge 202, Type (0, 0), BuildingBlock: KIFKEQ_clean_linker_1, # of connection points: 2
#     Edge 203, Type (0, 0), BuildingBlock: KIFKEQ_clean_linker_1, # of connection points: 2
#     Edge 204, Type (0, 0), BuildingBlock: KIFKEQ_clean_linker_1, # of connection points: 2
#     Edge 205, Type (0, 0), BuildingBlock: KIFKEQ_clean_linker_1, # of connection points: 2
#     Edge 206, Type (0, 0), BuildingBlock: KIFKEQ_clean_linker_1, # of connection points: 2
#     Edge 207, Type (0, 0), BuildingBlock: KIFKEQ_clean_linker_1, # of connection points: 2
#     Edge 208, Type (0, 0), BuildingBlock: KIFKEQ_clean_linker_1, # of connection points: 2
#     Edge 209, Type (0, 0), BuildingBlock: KIFKEQ_clean_linker_1, # of connection points: 2
#     Edge 210, Type (0, 0), BuildingBlock: KIFKEQ_clean_linker_1, # of connection points: 2
#     Edge 211, Type (0, 0), BuildingBlock: KIFKEQ_clean_linker_1, # of connection points: 2
#     Edge 212, Type (0, 0), BuildingBlock: KIFKEQ_clean_linker_1, # of connection points: 2
#     Edge 213, Type (0, 0), BuildingBlock: KIFKEQ_clean_linker_1, # of connection points: 2
#     Edge 214, Type (0, 0), BuildingBlock: KIFKEQ_clean_linker_1, # of connection points: 2
#     Edge 215, Type (0, 0), BuildingBlock: KIFKEQ_clean_linker_1, # of connection points: 2
#     Edge 216, Type (0, 0), BuildingBlock: KIFKEQ_clean_linker_1, # of connection points: 2
#     Edge 217, Type (0, 0), BuildingBlock: KIFKEQ_clean_linker_1, # of connection points: 2
#     Edge 218, Type (0, 0), BuildingBlock: KIFKEQ_clean_linker_1, # of connection points: 2
#     Edge 219, Type (0, 0), BuildingBlock: KIFKEQ_clean_linker_1, # of connection points: 2
#     Edge 220, Type (0, 0), BuildingBlock: KIFKEQ_clean_linker_1, # of connection points: 2
#     Edge 221, Type (0, 0), BuildingBlock: KIFKEQ_clean_linker_1, # of connection points: 2
#     Edge 222, Type (0, 0), BuildingBlock: KIFKEQ_clean_linker_1, # of connection points: 2
#     Edge 223, Type (0, 0), BuildingBlock: KIFKEQ_clean_linker_1, # of connection points: 2
#     Edge 224, Type (0, 0), BuildingBlock: KIFKEQ_clean_linker_1, # of connection points: 2
#     Edge 225, Type (0, 0), BuildingBlock: KIFKEQ_clean_linker_1, # of connection points: 2
#     Edge 226, Type (0, 0), BuildingBlock: KIFKEQ_clean_linker_1, # of connection points: 2
#     Edge 227, Type (0, 0), BuildingBlock: KIFKEQ_clean_linker_1, # of connection points: 2
#     Edge 228, Type (0, 0), BuildingBlock: KIFKEQ_clean_linker_1, # of connection points: 2
#     Edge 229, Type (0, 0), BuildingBlock: KIFKEQ_clean_linker_1, # of connection points: 2
#     Edge 230, Type (0, 0), BuildingBlock: KIFKEQ_clean_linker_1, # of connection points: 2
#     Edge 231, Type (0, 0), BuildingBlock: KIFKEQ_clean_linker_1, # of connection points: 2
#     Edge 232, Type (0, 0), BuildingBlock: KIFKEQ_clean_linker_1, # of connection points: 2
#     Edge 233, Type (0, 0), BuildingBlock: KIFKEQ_clean_linker_1, # of connection points: 2
#     Edge 234, Type (0, 0), BuildingBlock: KIFKEQ_clean_linker_1, # of connection points: 2
#     Edge 235, Type (0, 0), BuildingBlock: KIFKEQ_clean_linker_1, # of connection points: 2
#     Edge 236, Type (0, 0), BuildingBlock: KIFKEQ_clean_linker_1, # of connection points: 2
#     Edge 237, Type (0, 0), BuildingBlock: KIFKEQ_clean_linker_1, # of connection points: 2
#     Edge 238, Type (0, 0), BuildingBlock: KIFKEQ_clean_linker_1, # of connection points: 2
#     Edge 239, Type (0, 0), BuildingBlock: KIFKEQ_clean_linker_1, # of connection points: 2
#     Edge 240, Type (0, 0), BuildingBlock: KIFKEQ_clean_linker_1, # of connection points: 2
#     Edge 241, Type (0, 0), BuildingBlock: KIFKEQ_clean_linker_1, # of connection points: 2
#     Edge 242, Type (0, 0), BuildingBlock: KIFKEQ_clean_linker_1, # of connection points: 2
#     Edge 243, Type (0, 0), BuildingBlock: KIFKEQ_clean_linker_1, # of connection points: 2
#     Edge 244, Type (0, 0), BuildingBlock: KIFKEQ_clean_linker_1, # of connection points: 2
#     Edge 245, Type (0, 0), BuildingBlock: KIFKEQ_clean_linker_1, # of connection points: 2
#     Edge 246, Type (0, 0), BuildingBlock: KIFKEQ_clean_linker_1, # of connection points: 2
#     Edge 247, Type (0, 0), BuildingBlock: KIFKEQ_clean_linker_1, # of connection points: 2
#     Edge 248, Type (0, 0), BuildingBlock: KIFKEQ_clean_linker_1, # of connection points: 2
#     Edge 249, Type (0, 0), BuildingBlock: KIFKEQ_clean_linker_1, # of connection points: 2
#     Edge 250, Type (0, 0), BuildingBlock: KIFKEQ_clean_linker_1, # of connection points: 2
#     Edge 251, Type (0, 0), BuildingBlock: KIFKEQ_clean_linker_1, # of connection points: 2
#     Edge 252, Type (0, 0), BuildingBlock: KIFKEQ_clean_linker_1, # of connection points: 2
#     Edge 253, Type (0, 0), BuildingBlock: KIFKEQ_clean_linker_1, # of connection points: 2
#     Edge 254, Type (0, 0), BuildingBlock: KIFKEQ_clean_linker_1, # of connection points: 2
#     Edge 255, Type (0, 0), BuildingBlock: KIFKEQ_clean_linker_1, # of connection points: 2
#     Edge 256, Type (0, 0), BuildingBlock: KIFKEQ_clean_linker_1, # of connection points: 2
#     Edge 257, Type (0, 0), BuildingBlock: KIFKEQ_clean_linker_1, # of connection points: 2
#     Edge 258, Type (0, 0), BuildingBlock: KIFKEQ_clean_linker_1, # of connection points: 2
#     Edge 259, Type (0, 0), BuildingBlock: KIFKEQ_clean_linker_1, # of connection points: 2
#     Edge 260, Type (0, 0), BuildingBlock: KIFKEQ_clean_linker_1, # of connection points: 2
#     Edge 261, Type (0, 0), BuildingBlock: KIFKEQ_clean_linker_1, # of connection points: 2
#     Edge 262, Type (0, 0), BuildingBlock: KIFKEQ_clean_linker_1, # of connection points: 2
#     Edge 263, Type (0, 0), BuildingBlock: KIFKEQ_clean_linker_1, # of connection points: 2
#     Edge 264, Type (0, 0), BuildingBlock: KIFKEQ_clean_linker_1, # of connection points: 2
#     Edge 265, Type (0, 0), BuildingBlock: KIFKEQ_clean_linker_1, # of connection points: 2
#     Edge 266, Type (0, 0), BuildingBlock: KIFKEQ_clean_linker_1, # of connection points: 2
#     Edge 267, Type (0, 0), BuildingBlock: KIFKEQ_clean_linker_1, # of connection points: 2
#     Edge 268, Type (0, 0), BuildingBlock: KIFKEQ_clean_linker_1, # of connection points: 2
#     Edge 269, Type (0, 0), BuildingBlock: KIFKEQ_clean_linker_1, # of connection points: 2
#     Edge 270, Type (0, 0), BuildingBlock: KIFKEQ_clean_linker_1, # of connection points: 2
#     Edge 271, Type (0, 0), BuildingBlock: KIFKEQ_clean_linker_1, # of connection points: 2
#     Edge 272, Type (0, 0), BuildingBlock: KIFKEQ_clean_linker_1, # of connection points: 2
#     Edge 273, Type (0, 0), BuildingBlock: KIFKEQ_clean_linker_1, # of connection points: 2
#     Edge 274, Type (0, 0), BuildingBlock: KIFKEQ_clean_linker_1, # of connection points: 2
#     Edge 275, Type (0, 0), BuildingBlock: KIFKEQ_clean_linker_1, # of connection points: 2
#     Edge 276, Type (0, 0), BuildingBlock: KIFKEQ_clean_linker_1, # of connection points: 2
#     Edge 277, Type (0, 0), BuildingBlock: KIFKEQ_clean_linker_1, # of connection points: 2
#     Edge 278, Type (0, 0), BuildingBlock: KIFKEQ_clean_linker_1, # of connection points: 2
#     Edge 279, Type (0, 0), BuildingBlock: KIFKEQ_clean_linker_1, # of connection points: 2
#     Edge 280, Type (0, 0), BuildingBlock: KIFKEQ_clean_linker_1, # of connection points: 2
#     Edge 281, Type (0, 0), BuildingBlock: KIFKEQ_clean_linker_1, # of connection points: 2
#     Edge 282, Type (0, 0), BuildingBlock: KIFKEQ_clean_linker_1, # of connection points: 2
#     Edge 283, Type (0, 0), BuildingBlock: KIFKEQ_clean_linker_1, # of connection points: 2
#     Edge 284, Type (0, 0), BuildingBlock: KIFKEQ_clean_linker_1, # of connection points: 2
#     Edge 285, Type (0, 0), BuildingBlock: KIFKEQ_clean_linker_1, # of connection points: 2
#     Edge 286, Type (0, 0), BuildingBlock: KIFKEQ_clean_linker_1, # of connection points: 2
#     Edge 287, Type (0, 0), BuildingBlock: KIFKEQ_clean_linker_1, # of connection points: 2
# Relax obj value: 0.272
# Max RMSD: 0.165
# Mean RMSD: 0.155
data_MOF--net-ukx--node1-CEKHIL_clean_sbu_0--edge1-KIFKEQ_clean_linker_1
_symmetry_space_group_name_H-M    P1
_symmetry_Int_Tables_number       1
_symmetry_cell_setting            triclinic
loop_
_symmetry_equiv_pos_as_xyz
'x, y, z'
_cell_length_a     79.809002
_cell_length_b     79.386765
_cell_length_c     79.370228
_cell_angle_alpha  89.999172
_cell_angle_beta   89.997281
_cell_angle_gamma 90.022085
loop_
_atom_site_label
_atom_site_type_symbol
_atom_site_fract_x
_atom_site_fract_y
_atom_site_fract_z
_atom_type_partial_charge
Co0 Co 0.04476 0.13571 0.32183 0.0
O1 O 0.06591 0.1258 0.31615 0.0
O2 O 0.05525 0.12689 0.34194 0.0
C3 C 0.0301 0.12452 0.30043 0.0
O4 O 0.02296 0.14442 0.33218 0.0
Co5 Co 0.02834 0.1612 0.29718 0.0
O6 O 0.00834 0.15711 0.31153 0.0
C7 C 0.05706 0.17188 0.31769 0.0
C8 C 0.06761 0.12265 0.33209 0.0
C9 C 0.00942 0.1511 0.32639 0.0
O10 O 0.05619 0.1579 0.32579 0.0
O11 O 0.04778 0.17528 0.30498 0.0
O12 O 0.0328 0.11568 0.31397 0.0
O13 O 0.03771 0.13884 0.29972 0.0
Co14 Co 0.11365 0.79061 0.58265 0.0
O15 O 0.12923 0.77787 0.56933 0.0
O16 O 0.10211 0.78049 0.56384 0.0
C17 C 0.12915 0.81394 0.58576 0.0
O18 O 0.09402 0.80322 0.59319 0.0
Co19 Co 0.12285 0.79963 0.61955 0.0
O20 O 0.10215 0.81337 0.61841 0.0
C21 C 0.11215 0.7652 0.61175 0.0
C22 C 0.11658 0.77414 0.55975 0.0
C23 C 0.09144 0.81206 0.60656 0.0
O24 O 0.10886 0.77006 0.59667 0.0
O25 O 0.11894 0.77481 0.62276 0.0
O26 O 0.12071 0.81143 0.57198 0.0
O27 O 0.12969 0.80135 0.59612 0.0
Co28 Co 0.45202 0.85813 0.82318 0.0
O29 O 0.43025 0.86628 0.81703 0.0
O30 O 0.44106 0.86761 0.84273 0.0
C31 C 0.46599 0.86897 0.80117 0.0
O32 O 0.47425 0.85127 0.83396 0.0
Co33 Co 0.47 0.83241 0.79983 0.0
O34 O 0.4896 0.838 0.81421 0.0
C35 C 0.44176 0.82126 0.82082 0.0
C36 C 0.42841 0.87035 0.83275 0.0
C37 C 0.48808 0.84475 0.82871 0.0
O38 O 0.44196 0.83556 0.82839 0.0
O39 O 0.45113 0.81786 0.80818 0.0
O40 O 0.46274 0.87838 0.81419 0.0
O41 O 0.45924 0.85421 0.80127 0.0
Co42 Co 0.38384 0.20427 0.08248 0.0
O43 O 0.36862 0.21763 0.0694 0.0
O44 O 0.39566 0.21447 0.06384 0.0
C45 C 0.3676 0.1814 0.08501 0.0
O46 O 0.40309 0.19088 0.09287 0.0
Co47 Co 0.37442 0.19435 0.11908 0.0
O48 O 0.39335 0.17839 0.11635 0.0
C49 C 0.38578 0.22882 0.1122 0.0
C50 C 0.38132 0.22118 0.05983 0.0
C51 C 0.40461 0.1803 0.1051 0.0
O52 O 0.38902 0.22437 0.09698 0.0
O53 O 0.37891 0.21898 0.12296 0.0
O54 O 0.37624 0.18386 0.07136 0.0
O55 O 0.36747 0.19376 0.09565 0.0
Co56 Co 0.04469 0.85678 0.17039 0.0
O57 O 0.06545 0.86666 0.17746 0.0
O58 O 0.05524 0.86781 0.15148 0.0
C59 C 0.02897 0.86549 0.1921 0.0
O60 O 0.02348 0.84826 0.15876 0.0
Co61 Co 0.02943 0.82827 0.19247 0.0
O62 O 0.01104 0.82915 0.17568 0.0
C63 C 0.05938 0.82146 0.17238 0.0
C64 C 0.06737 0.87129 0.1619 0.0
C65 C 0.01151 0.8379 0.16221 0.0
O66 O 0.05702 0.83548 0.16468 0.0
O67 O 0.05064 0.81685 0.18509 0.0
O68 O 0.03201 0.87567 0.17963 0.0
O69 O 0.03709 0.85143 0.19191 0.0
Co70 Co 0.38171 0.79075 0.41377 0.0
O71 O 0.36636 0.77722 0.42655 0.0
O72 O 0.39341 0.78016 0.43223 0.0
C73 C 0.36564 0.81376 0.41152 0.0
O74 O 0.40111 0.80417 0.40373 0.0
Co75 Co 0.37261 0.80143 0.37731 0.0
O76 O 0.39169 0.81717 0.38041 0.0
C77 C 0.38364 0.76674 0.38362 0.0
C78 C 0.37904 0.77339 0.43605 0.0
C79 C 0.40284 0.81494 0.3917 0.0
O80 O 0.38683 0.77088 0.39894 0.0
O81 O 0.3769 0.77683 0.37302 0.0
O82 O 0.37418 0.81103 0.42519 0.0
O83 O 0.3655 0.80158 0.40069 0.0
Co84 Co 0.45257 0.13762 0.67187 0.0
O85 O 0.43123 0.1286 0.67823 0.0
O86 O 0.44136 0.12863 0.65221 0.0
C87 C 0.46709 0.12635 0.69328 0.0
O88 O 0.47446 0.14532 0.66091 0.0
Co89 Co 0.47038 0.16301 0.69564 0.0
O90 O 0.48993 0.15787 0.68103 0.0
C91 C 0.44173 0.17429 0.67533 0.0
C92 C 0.42912 0.125 0.66244 0.0
C93 C 0.48835 0.15163 0.66631 0.0
O94 O 0.44189 0.16009 0.66759 0.0
O95 O 0.45137 0.17765 0.68778 0.0
O96 O 0.4639 0.11735 0.67995 0.0
O97 O 0.46008 0.14099 0.69378 0.0
Co98 Co 0.11442 0.20371 0.9121 0.0
O99 O 0.13001 0.21677 0.92513 0.0
O100 O 0.10299 0.21383 0.93097 0.0
C101 C 0.13018 0.18056 0.90901 0.0
O102 O 0.09479 0.19077 0.90194 0.0
Co103 Co 0.12296 0.19402 0.87524 0.0
O104 O 0.10375 0.1784 0.8781 0.0
C105 C 0.11198 0.22852 0.8826 0.0
C106 C 0.11744 0.22037 0.93487 0.0
C107 C 0.09278 0.18041 0.88961 0.0
O108 O 0.10923 0.22403 0.89791 0.0
O109 O 0.11844 0.21869 0.87159 0.0
O110 O 0.12188 0.18307 0.92287 0.0
O111 O 0.13038 0.19304 0.89852 0.0
Co112 Co 0.33181 0.04299 0.13909 0.0
O113 O 0.31832 0.02975 0.12429 0.0
O114 O 0.31367 0.03279 0.15168 0.0
C115 C 0.33365 0.06584 0.12264 0.0
O116 O 0.34297 0.05638 0.15787 0.0
Co117 Co 0.36779 0.05242 0.12763 0.0
O118 O 0.36621 0.06823 0.14699 0.0
C119 C 0.36099 0.01806 0.13921 0.0
C120 C 0.30918 0.02623 0.13732 0.0
C121 C 0.35544 0.06666 0.15878 0.0
O122 O 0.34637 0.02291 0.14392 0.0
O123 O 0.37113 0.0275 0.131 0.0
O124 O 0.32045 0.0634 0.13189 0.0
O125 O 0.34417 0.05346 0.12206 0.0
Co126 Co 0.20245 0.0721 0.3867 0.0
O127 O 0.18121 0.06672 0.37689 0.0
O128 O 0.19215 0.09238 0.37794 0.0
C129 C 0.21667 0.05055 0.3753 0.0
O130 O 0.22447 0.08193 0.39543 0.0
Co131 Co 0.21813 0.04666 0.41201 0.0
O132 O 0.2383 0.06098 0.40859 0.0
C133 C 0.18975 0.06752 0.42257 0.0
C134 C 0.17971 0.08265 0.37365 0.0
C135 C 0.2377 0.07585 0.40251 0.0
O136 O 0.19133 0.07618 0.40899 0.0
O137 O 0.19819 0.05414 0.42557 0.0
O138 O 0.21414 0.06417 0.36654 0.0
O139 O 0.20908 0.04988 0.38963 0.0
Co140 Co 0.16117 0.95473 0.63707 0.0
O141 O 0.17518 0.96764 0.62234 0.0
O142 O 0.1785 0.96564 0.65002 0.0
C143 C 0.16016 0.93115 0.6216 0.0
O144 O 0.14975 0.94197 0.65608 0.0
Co145 Co 0.12571 0.94385 0.62566 0.0
O146 O 0.12758 0.92834 0.64518 0.0
C147 C 0.13124 0.97891 0.63593 0.0
C148 C 0.18359 0.9718 0.63572 0.0
C149 C 0.13796 0.93095 0.65711 0.0
O150 O 0.14619 0.97482 0.64035 0.0
O151 O 0.12111 0.96858 0.62885 0.0
O152 O 0.17303 0.93422 0.63116 0.0
O153 O 0.14944 0.94331 0.62014 0.0
Co154 Co 0.29297 0.91993 0.88771 0.0
O155 O 0.31452 0.92628 0.87918 0.0
O156 O 0.30391 0.90049 0.87797 0.0
C157 C 0.2787 0.94188 0.87714 0.0
O158 O 0.27089 0.90902 0.89496 0.0
Co159 Co 0.2754 0.94315 0.91383 0.0
O160 O 0.25573 0.9288 0.90842 0.0
C161 C 0.30408 0.92245 0.92431 0.0
C162 C 0.31643 0.9106 0.87501 0.0
C163 C 0.25713 0.9143 0.90163 0.0
O164 O 0.30351 0.91477 0.91008 0.0
O165 O 0.29472 0.93504 0.92791 0.0
O166 O 0.28184 0.92888 0.86768 0.0
O167 O 0.2857 0.94181 0.8918 0.0
Co168 Co 0.3336 0.95252 0.35646 0.0
O169 O 0.32019 0.96631 0.37089 0.0
O170 O 0.31597 0.96291 0.34346 0.0
C171 C 0.33477 0.92987 0.37322 0.0
O172 O 0.34441 0.93863 0.33786 0.0
Co173 Co 0.36925 0.94197 0.36753 0.0
O174 O 0.36669 0.92538 0.34898 0.0
C175 C 0.36363 0.97653 0.35572 0.0
C176 C 0.31139 0.96984 0.35759 0.0
C177 C 0.35606 0.92744 0.33717 0.0
O178 O 0.34864 0.97224 0.35169 0.0
O179 O 0.37382 0.96655 0.36319 0.0
O180 O 0.32171 0.93252 0.36381 0.0
O181 O 0.34568 0.94194 0.37368 0.0
Co182 Co 0.29455 0.07357 0.60914 0.0
O183 O 0.31501 0.06801 0.62049 0.0
O184 O 0.3045 0.09379 0.61828 0.0
C185 C 0.27903 0.05246 0.61961 0.0
O186 O 0.27342 0.08386 0.59893 0.0
Co187 Co 0.27998 0.04854 0.58285 0.0
O188 O 0.26097 0.06463 0.58222 0.0
C189 C 0.30955 0.0686 0.57413 0.0
C190 C 0.31655 0.08401 0.62342 0.0
C191 C 0.26134 0.07905 0.5893 0.0
O192 O 0.3074 0.07721 0.58767 0.0
O193 O 0.30077 0.0556 0.5705 0.0
O194 O 0.2813 0.06607 0.62845 0.0
O195 O 0.28759 0.05145 0.60586 0.0
Co196 Co 0.16138 0.03946 0.85657 0.0
O197 O 0.17558 0.0273 0.87175 0.0
O198 O 0.17907 0.02862 0.84405 0.0
C199 C 0.15971 0.06345 0.87135 0.0
O200 O 0.1498 0.05138 0.83713 0.0
Co201 Co 0.12555 0.04955 0.86774 0.0
O202 O 0.1256 0.06261 0.84644 0.0
C203 C 0.13214 0.01445 0.85845 0.0
C204 C 0.18417 0.02296 0.85855 0.0
C205 C 0.13668 0.06057 0.83505 0.0
O206 O 0.14689 0.0189 0.85373 0.0
O207 O 0.12184 0.02459 0.86552 0.0
O208 O 0.1727 0.06042 0.86195 0.0
O209 O 0.14928 0.05108 0.87313 0.0
Co210 Co 0.20169 0.92199 0.10595 0.0
O211 O 0.18055 0.92861 0.11523 0.0
O212 O 0.19086 0.90268 0.11607 0.0
C213 C 0.21659 0.94371 0.11609 0.0
O214 O 0.22334 0.91083 0.09792 0.0
Co215 Co 0.21805 0.94514 0.07903 0.0
O216 O 0.23664 0.92861 0.08025 0.0
C217 C 0.18896 0.9246 0.06981 0.0
C218 C 0.17859 0.91296 0.11946 0.0
C219 C 0.23581 0.91477 0.08838 0.0
O220 O 0.19028 0.91687 0.08396 0.0
O221 O 0.19798 0.93736 0.06591 0.0
O222 O 0.21358 0.9307 0.12558 0.0
O223 O 0.20908 0.94384 0.10168 0.0
Co224 Co 0.13226 0.33162 0.04144 0.0
O225 O 0.11691 0.318 0.02876 0.0
O226 O 0.14412 0.313 0.03131 0.0
C227 C 0.11661 0.33446 0.06464 0.0
O228 O 0.15173 0.34249 0.05402 0.0
Co229 Co 0.12257 0.36826 0.05076 0.0
O230 O 0.14326 0.36739 0.06457 0.0
C231 C 0.13331 0.36086 0.01623 0.0
C232 C 0.12971 0.30866 0.02497 0.0
C233 C 0.15414 0.35574 0.06306 0.0
O234 O 0.13673 0.34573 0.02088 0.0
O235 O 0.1265 0.3717 0.02599 0.0
O236 O 0.12549 0.32093 0.06237 0.0
O237 O 0.11589 0.34477 0.05205 0.0
Co238 Co 0.63478 0.16291 0.95213 0.0
O239 O 0.61932 0.17658 0.96456 0.0
O240 O 0.64663 0.18138 0.96262 0.0
C241 C 0.61961 0.16044 0.9286 0.0
O242 O 0.65436 0.15183 0.93987 0.0
Co243 Co 0.62492 0.12649 0.9423 0.0
O244 O 0.64465 0.12846 0.92721 0.0
C245 C 0.63526 0.13344 0.97709 0.0
C246 C 0.63211 0.18582 0.96864 0.0
C247 C 0.65608 0.13943 0.92954 0.0
O248 O 0.63869 0.14863 0.97268 0.0
O249 O 0.6287 0.12266 0.96707 0.0
O250 O 0.62861 0.17384 0.93117 0.0
O251 O 0.61848 0.15004 0.94109 0.0
Co252 Co 0.0802 0.39147 0.20189 0.0
O253 O 0.06374 0.3786 0.21378 0.0
O254 O 0.06392 0.40655 0.21171 0.0
C255 C 0.08076 0.37561 0.17862 0.0
O256 O 0.09444 0.40887 0.18975 0.0
Co257 Co 0.11466 0.3762 0.19302 0.0
O258 O 0.11552 0.3953 0.17687 0.0
C259 C 0.10866 0.38789 0.2276 0.0
C260 C 0.05678 0.39294 0.21732 0.0
C261 C 0.10649 0.40836 0.17898 0.0
O262 O 0.09423 0.39329 0.22286 0.0
O263 O 0.1186 0.37988 0.2178 0.0
O264 O 0.06907 0.38682 0.18067 0.0
O265 O 0.09053 0.37306 0.19139 0.0
Co266 Co 0.86372 0.83217 0.45356 0.0
O267 O 0.8792 0.81921 0.46677 0.0
O268 O 0.85219 0.81337 0.46371 0.0
C269 C 0.8797 0.83514 0.43056 0.0
O270 O 0.8442 0.84231 0.44044 0.0
Co271 Co 0.8724 0.86898 0.44384 0.0
O272 O 0.85327 0.86614 0.42812 0.0
C273 C 0.86139 0.86167 0.47834 0.0
C274 C 0.86659 0.80952 0.47037 0.0
C275 C 0.84227 0.85465 0.43006 0.0
O276 O 0.85844 0.84642 0.47379 0.0
O277 O 0.86799 0.87263 0.46854 0.0
O278 O 0.87133 0.82131 0.43302 0.0
O279 O 0.87978 0.84569 0.443 0.0
Co280 Co 0.91144 0.10709 0.20385 0.0
O281 O 0.92605 0.12151 0.21642 0.0
O282 O 0.92868 0.09376 0.21455 0.0
C283 C 0.91047 0.12251 0.18028 0.0
O284 O 0.89927 0.08835 0.19134 0.0
Co285 Co 0.87618 0.11943 0.19351 0.0
O286 O 0.87729 0.09988 0.17795 0.0
C287 C 0.88188 0.10889 0.22847 0.0
C288 C 0.93421 0.10798 0.22053 0.0
C289 C 0.88734 0.08766 0.18044 0.0
O290 O 0.89672 0.10427 0.22423 0.0
O291 O 0.87177 0.11615 0.21827 0.0
O292 O 0.92304 0.11249 0.18306 0.0
O293 O 0.90002 0.1244 0.19262 0.0
Co294 Co 0.36398 0.65949 0.53997 0.0
O295 O 0.37939 0.6728 0.52702 0.0
O296 O 0.35231 0.67829 0.52998 0.0
C297 C 0.37989 0.65651 0.56298 0.0
O298 O 0.34447 0.64904 0.55288 0.0
Co299 Co 0.37282 0.62278 0.5495 0.0
O300 O 0.35374 0.6254 0.56535 0.0
C301 C 0.36182 0.63013 0.51499 0.0
C302 C 0.36671 0.68241 0.52347 0.0
C303 C 0.34264 0.63677 0.56335 0.0
O304 O 0.35896 0.64539 0.51954 0.0
O305 O 0.36831 0.61913 0.52482 0.0
O306 O 0.37123 0.67018 0.5607 0.0
O307 O 0.38024 0.64607 0.55046 0.0
Co308 Co 0.08339 0.60529 0.29101 0.0
O309 O 0.0697 0.61989 0.27768 0.0
O310 O 0.06556 0.59242 0.28078 0.0
C311 C 0.08495 0.62173 0.31388 0.0
O312 O 0.09451 0.58654 0.30443 0.0
Co313 Co 0.11922 0.61638 0.30098 0.0
O314 O 0.11715 0.59749 0.31724 0.0
C315 C 0.11298 0.60483 0.26642 0.0
C316 C 0.06083 0.60665 0.27416 0.0
C317 C 0.10648 0.58569 0.31528 0.0
O318 O 0.09805 0.60079 0.27093 0.0
O319 O 0.12334 0.61223 0.27628 0.0
O320 O 0.07187 0.61233 0.31133 0.0
O321 O 0.09563 0.6224 0.30161 0.0
Co322 Co 0.41338 0.39031 0.78946 0.0
O323 O 0.42985 0.37644 0.77878 0.0
O324 O 0.43022 0.40444 0.77922 0.0
C325 C 0.41199 0.37577 0.81356 0.0
O326 O 0.39924 0.40869 0.80015 0.0
Co327 Co 0.37843 0.37625 0.79843 0.0
O328 O 0.37736 0.3965 0.81309 0.0
C329 C 0.3854 0.38586 0.76337 0.0
C330 C 0.43724 0.39039 0.77462 0.0
C331 C 0.38677 0.40919 0.81041 0.0
O332 O 0.39987 0.3912 0.76807 0.0
O333 O 0.37512 0.37859 0.7734 0.0
O334 O 0.42389 0.38669 0.8112 0.0
O335 O 0.40243 0.37271 0.80074 0.0
Co336 Co 0.95529 0.86357 0.66125 0.0
O337 O 0.96802 0.8791 0.67468 0.0
O338 O 0.96629 0.85155 0.67915 0.0
C339 C 0.93167 0.87862 0.65983 0.0
O340 O 0.94288 0.84378 0.65061 0.0
Co341 Co 0.94389 0.87312 0.62525 0.0
O342 O 0.92899 0.85332 0.62793 0.0
C343 C 0.97876 0.86283 0.6307 0.0
C344 C 0.97223 0.86612 0.6837 0.0
C345 C 0.93201 0.84188 0.63876 0.0
O346 O 0.97525 0.85999 0.64623 0.0
O347 O 0.96817 0.86866 0.62008 0.0
O348 O 0.93496 0.8696 0.67308 0.0
O349 O 0.94361 0.87983 0.64882 0.0
Co350 Co 0.88326 0.20655 0.40622 0.0
O351 O 0.86858 0.221 0.41868 0.0
O352 O 0.89615 0.22011 0.42187 0.0
C353 C 0.86792 0.18308 0.40908 0.0
O354 O 0.90217 0.19276 0.39559 0.0
Co355 Co 0.87028 0.19012 0.37308 0.0
O356 O 0.89078 0.17622 0.3756 0.0
C357 C 0.88076 0.22569 0.37293 0.0
C358 C 0.88181 0.22659 0.42631 0.0
C359 C 0.90317 0.1807 0.38472 0.0
O360 O 0.88566 0.22425 0.3883 0.0
O361 O 0.87333 0.21387 0.36489 0.0
O362 O 0.87803 0.18769 0.42106 0.0
O363 O 0.86622 0.1936 0.39681 0.0
Co364 Co 0.54181 0.13199 0.16273 0.0
O365 O 0.53017 0.11708 0.17769 0.0
O366 O 0.53133 0.14488 0.18045 0.0
C367 C 0.5655 0.11714 0.16098 0.0
O368 O 0.55343 0.15118 0.1503 0.0
Co369 Co 0.55137 0.12027 0.12689 0.0
O370 O 0.56633 0.14023 0.12766 0.0
C371 C 0.51671 0.13067 0.13346 0.0
C372 C 0.52603 0.13044 0.18612 0.0
C373 C 0.56381 0.15231 0.13793 0.0
O374 O 0.5211 0.13456 0.14855 0.0
O375 O 0.52675 0.12395 0.12283 0.0
O376 O 0.56289 0.12702 0.17376 0.0
O377 O 0.55302 0.11505 0.15077 0.0
Co378 Co 0.61241 0.78736 0.90871 0.0
O379 O 0.62714 0.77252 0.92062 0.0
O380 O 0.59975 0.77412 0.92484 0.0
C381 C 0.62844 0.81043 0.91096 0.0
O382 O 0.59354 0.8017 0.8987 0.0
Co383 Co 0.62474 0.80324 0.87505 0.0
O384 O 0.60494 0.81795 0.87847 0.0
C385 C 0.613 0.76809 0.87538 0.0
C386 C 0.61406 0.76723 0.92871 0.0
C387 C 0.59268 0.81386 0.88794 0.0
O388 O 0.60883 0.76971 0.89094 0.0
O389 O 0.62047 0.77964 0.86698 0.0
O390 O 0.61868 0.80608 0.92332 0.0
O391 O 0.62946 0.79983 0.89868 0.0
Co392 Co 0.95542 0.13318 0.83071 0.0
O393 O 0.96867 0.11803 0.81744 0.0
O394 O 0.96604 0.14544 0.81267 0.0
C395 C 0.93238 0.11722 0.83232 0.0
O396 O 0.94233 0.1525 0.84132 0.0
Co397 Co 0.94471 0.12311 0.86682 0.0
O398 O 0.92932 0.14259 0.8644 0.0
C399 C 0.9793 0.13415 0.86093 0.0
C400 C 0.97252 0.13104 0.80832 0.0
C401 C 0.93169 0.15407 0.85342 0.0
O402 O 0.97524 0.13765 0.84567 0.0
O403 O 0.96918 0.12728 0.8714 0.0
O404 O 0.93526 0.12627 0.81899 0.0
O405 O 0.94442 0.11656 0.84324 0.0
Co406 Co 0.61431 0.20552 0.58566 0.0
O407 O 0.62921 0.2199 0.57336 0.0
O408 O 0.60168 0.21902 0.56978 0.0
C409 C 0.62963 0.18203 0.58312 0.0
O410 O 0.59521 0.19178 0.59606 0.0
Co411 Co 0.62674 0.18927 0.61907 0.0
O412 O 0.60632 0.17528 0.61624 0.0
C413 C 0.61623 0.22483 0.61889 0.0
C414 C 0.61609 0.22547 0.56552 0.0
C415 C 0.59407 0.17974 0.60694 0.0
O416 O 0.61162 0.2233 0.60344 0.0
O417 O 0.62352 0.21305 0.62713 0.0
O418 O 0.61973 0.18661 0.57097 0.0
O419 O 0.63118 0.1926 0.59538 0.0
Co420 Co 0.53997 0.8631 0.33384 0.0
O421 O 0.52786 0.87878 0.32005 0.0
O422 O 0.52897 0.85114 0.31587 0.0
C423 C 0.56381 0.87781 0.33566 0.0
O424 O 0.55186 0.84325 0.34482 0.0
Co425 Co 0.55063 0.87283 0.37001 0.0
O426 O 0.56531 0.85279 0.36778 0.0
C427 C 0.5157 0.86309 0.36383 0.0
C428 C 0.52349 0.86582 0.31109 0.0
C429 C 0.56245 0.84132 0.35691 0.0
O430 O 0.5197 0.85979 0.34851 0.0
O431 O 0.52604 0.86929 0.37449 0.0
O432 O 0.56065 0.86877 0.32239 0.0
O433 O 0.55165 0.87926 0.34639 0.0
Co434 Co 0.88234 0.78682 0.08542 0.0
O435 O 0.86678 0.7724 0.07389 0.0
O436 O 0.89419 0.77291 0.06939 0.0
C437 C 0.8673 0.81051 0.08313 0.0
O438 O 0.90212 0.80026 0.09468 0.0
Co439 Co 0.87218 0.80444 0.11889 0.0
O440 O 0.89296 0.81766 0.11505 0.0
C441 C 0.88177 0.76855 0.11922 0.0
C442 C 0.8796 0.76658 0.0657 0.0
C443 C 0.90445 0.81241 0.1052 0.0
O444 O 0.88546 0.76938 0.10347 0.0
O445 O 0.87533 0.78082 0.12745 0.0
O446 O 0.87662 0.80558 0.07064 0.0
O447 O 0.86617 0.80024 0.09568 0.0
Co448 Co 0.66704 0.94962 0.86663 0.0
O449 O 0.68006 0.96309 0.88182 0.0
O450 O 0.68544 0.95975 0.85459 0.0
C451 C 0.66467 0.92697 0.88322 0.0
O452 O 0.65674 0.93631 0.84725 0.0
Co453 Co 0.63071 0.93947 0.87592 0.0
O454 O 0.63284 0.92428 0.85618 0.0
C455 C 0.63745 0.97397 0.86444 0.0
C456 C 0.68946 0.96658 0.86893 0.0
C457 C 0.64423 0.92628 0.8451 0.0
O458 O 0.65263 0.96961 0.86133 0.0
O459 O 0.62674 0.96409 0.87129 0.0
O460 O 0.67817 0.92936 0.87437 0.0
O461 O 0.65395 0.9392 0.88317 0.0
Co462 Co 0.79052 0.91069 0.61377 0.0
O463 O 0.77734 0.92404 0.62895 0.0
O464 O 0.77977 0.92856 0.60146 0.0
C465 C 0.81377 0.90931 0.6294 0.0
O466 O 0.80347 0.90008 0.59437 0.0
Co467 Co 0.80154 0.8747 0.62381 0.0
O468 O 0.81671 0.8771 0.60415 0.0
C469 C 0.76682 0.8803 0.61305 0.0
C470 C 0.77343 0.93305 0.61587 0.0
C471 C 0.81416 0.88805 0.59269 0.0
O472 O 0.77074 0.89561 0.60958 0.0
O473 O 0.77709 0.86989 0.61976 0.0
O474 O 0.81066 0.92258 0.62036 0.0
O475 O 0.8018 0.89831 0.63033 0.0
Co476 Co 0.8295 0.044 0.36555 0.0
O477 O 0.81689 0.03018 0.38075 0.0
O478 O 0.81093 0.03389 0.3537 0.0
C479 C 0.83197 0.06636 0.38251 0.0
O480 O 0.8394 0.05776 0.34626 0.0
Co481 Co 0.86591 0.05418 0.37453 0.0
O482 O 0.86327 0.06983 0.35522 0.0
C483 C 0.8592 0.01987 0.36249 0.0
C484 C 0.80726 0.02678 0.36802 0.0
C485 C 0.85179 0.06798 0.34421 0.0
O486 O 0.84396 0.02423 0.35965 0.0
O487 O 0.86994 0.02967 0.3694 0.0
O488 O 0.81834 0.06403 0.37386 0.0
O489 O 0.84277 0.05422 0.38205 0.0
Co490 Co 0.70466 0.07928 0.11119 0.0
O491 O 0.71643 0.06452 0.12619 0.0
O492 O 0.71504 0.06145 0.09842 0.0
C493 C 0.68106 0.08123 0.12618 0.0
O494 O 0.69292 0.09143 0.09192 0.0
Co495 Co 0.69517 0.11527 0.12247 0.0
O496 O 0.68008 0.11422 0.10261 0.0
C497 C 0.72975 0.10858 0.11183 0.0
C498 C 0.72049 0.05598 0.11287 0.0
C499 C 0.68255 0.10378 0.09066 0.0
O500 O 0.72534 0.09343 0.10824 0.0
O501 O 0.71976 0.1193 0.11848 0.0
O502 O 0.68362 0.06831 0.11647 0.0
O503 O 0.69356 0.09147 0.12805 0.0
Co504 Co 0.66533 0.04231 0.62697 0.0
O505 O 0.67824 0.02852 0.61202 0.0
O506 O 0.68338 0.03191 0.63929 0.0
C507 C 0.66358 0.06488 0.61024 0.0
O508 O 0.65508 0.05595 0.64613 0.0
Co509 Co 0.62929 0.05301 0.61724 0.0
O510 O 0.6315 0.06834 0.63687 0.0
C511 C 0.63536 0.01841 0.62871 0.0
C512 C 0.68741 0.0249 0.62503 0.0
C513 C 0.64275 0.06624 0.64808 0.0
O514 O 0.6505 0.02262 0.63218 0.0
O515 O 0.62491 0.02841 0.62166 0.0
O516 O 0.67694 0.06231 0.61924 0.0
O517 O 0.65262 0.05286 0.61024 0.0
Co518 Co 0.70458 0.91243 0.38223 0.0
O519 O 0.71736 0.92586 0.36678 0.0
O520 O 0.71512 0.9307 0.39422 0.0
C521 C 0.68123 0.91039 0.36678 0.0
O522 O 0.69199 0.90171 0.40183 0.0
Co523 Co 0.69424 0.87612 0.37248 0.0
O524 O 0.67914 0.87842 0.3922 0.0
C525 C 0.7289 0.88255 0.38303 0.0
C526 C 0.72126 0.93511 0.37968 0.0
C527 C 0.68154 0.88946 0.40361 0.0
O528 O 0.7247 0.8978 0.38643 0.0
O529 O 0.71881 0.87189 0.37641 0.0
O530 O 0.68413 0.92382 0.37566 0.0
O531 O 0.69342 0.89967 0.36588 0.0
Co532 Co 0.83126 0.95055 0.12744 0.0
O533 O 0.8171 0.96299 0.11241 0.0
O534 O 0.81311 0.96051 0.13999 0.0
C535 C 0.83367 0.92754 0.1114 0.0
O536 O 0.84272 0.93808 0.14672 0.0
Co537 Co 0.86753 0.9416 0.11682 0.0
O538 O 0.86768 0.92823 0.13791 0.0
C539 C 0.86005 0.97605 0.12778 0.0
C540 C 0.80817 0.96658 0.12559 0.0
C541 C 0.85623 0.92952 0.14904 0.0
O542 O 0.84518 0.97118 0.13159 0.0
O543 O 0.87081 0.96644 0.12067 0.0
O544 O 0.8205 0.92973 0.12077 0.0
O545 O 0.84401 0.94008 0.11064 0.0
Co546 Co 0.79345 0.07992 0.88077 0.0
O547 O 0.78011 0.0666 0.86572 0.0
O548 O 0.78324 0.06167 0.89306 0.0
C549 C 0.81627 0.08192 0.86452 0.0
O550 O 0.80673 0.09053 0.89997 0.0
Co551 Co 0.80367 0.11622 0.87082 0.0
O552 O 0.81938 0.11381 0.89005 0.0
C553 C 0.76931 0.1099 0.88241 0.0
C554 C 0.77659 0.05734 0.87873 0.0
C555 C 0.81728 0.10272 0.90148 0.0
O556 O 0.77355 0.09463 0.88569 0.0
O557 O 0.77924 0.1205 0.87546 0.0
O558 O 0.81363 0.06847 0.87347 0.0
O559 O 0.80409 0.0927 0.86409 0.0
Co560 Co 0.86383 0.65761 0.95592 0.0
O561 O 0.87852 0.67 0.97042 0.0
O562 O 0.8509 0.67282 0.96991 0.0
C563 C 0.87888 0.66103 0.93233 0.0
O564 O 0.84486 0.64698 0.94219 0.0
Co565 Co 0.87695 0.62491 0.93877 0.0
O566 O 0.85616 0.62727 0.92527 0.0
C567 C 0.86706 0.62408 0.9745 0.0
C568 C 0.86525 0.67731 0.97634 0.0
C569 C 0.84377 0.63622 0.93005 0.0
O570 O 0.86186 0.63937 0.97335 0.0
O571 O 0.87447 0.61635 0.96246 0.0
O572 O 0.86868 0.67281 0.93722 0.0
O573 O 0.88081 0.64862 0.94264 0.0
Co574 Co 0.36449 0.83506 0.03901 0.0
O575 O 0.37986 0.8227 0.02515 0.0
O576 O 0.35239 0.81863 0.02574 0.0
C577 C 0.37965 0.83341 0.06262 0.0
O578 O 0.34483 0.8452 0.05201 0.0
Co579 Co 0.37511 0.86896 0.05527 0.0
O580 O 0.35428 0.86605 0.06866 0.0
C581 C 0.36539 0.86803 0.01938 0.0
C582 C 0.36695 0.81449 0.01959 0.0
C583 C 0.34264 0.85621 0.06374 0.0
O584 O 0.36165 0.85235 0.02081 0.0
O585 O 0.37187 0.87669 0.03135 0.0
O586 O 0.36988 0.82102 0.05837 0.0
O587 O 0.38098 0.84557 0.05192 0.0
Co588 Co 0.91559 0.61666 0.79354 0.0
O589 O 0.92775 0.63166 0.77908 0.0
O590 O 0.93405 0.60478 0.78337 0.0
C591 C 0.91335 0.63414 0.81553 0.0
O592 O 0.90627 0.59755 0.80792 0.0
Co593 Co 0.8793 0.62521 0.80441 0.0
O594 O 0.88257 0.60631 0.82044 0.0
C595 C 0.88542 0.61269 0.77015 0.0
C596 C 0.93744 0.61894 0.77583 0.0
C597 C 0.8942 0.59548 0.81849 0.0
O598 O 0.90078 0.61014 0.77421 0.0
O599 O 0.8748 0.61959 0.78007 0.0
O600 O 0.92704 0.6256 0.81313 0.0
O601 O 0.90228 0.63321 0.80365 0.0
Co602 Co 0.13158 0.15513 0.536 0.0
O603 O 0.11608 0.16686 0.52165 0.0
O604 O 0.14364 0.1704 0.52145 0.0
C605 C 0.11706 0.1586 0.5599 0.0
O606 O 0.15146 0.14563 0.54915 0.0
Co607 Co 0.12121 0.12263 0.55521 0.0
O608 O 0.14229 0.12651 0.56789 0.0
C609 C 0.13021 0.1207 0.51916 0.0
C610 C 0.12904 0.1745 0.5154 0.0
C611 C 0.15389 0.13567 0.56174 0.0
O612 O 0.13359 0.13654 0.51898 0.0
O613 O 0.12459 0.11288 0.5321 0.0
O614 O 0.12677 0.17058 0.55446 0.0
O615 O 0.1154 0.14574 0.5501 0.0
Co616 Co 0.08017 0.87786 0.79313 0.0
O617 O 0.06736 0.86304 0.77911 0.0
O618 O 0.06204 0.89022 0.78288 0.0
C619 C 0.08199 0.86076 0.81541 0.0
O620 O 0.09036 0.89685 0.80707 0.0
Co621 Co 0.11626 0.86808 0.80368 0.0
O622 O 0.11397 0.88745 0.81932 0.0
C623 C 0.11012 0.88005 0.76926 0.0
C624 C 0.05812 0.87604 0.77565 0.0
C625 C 0.10269 0.89866 0.81739 0.0
O626 O 0.09498 0.88343 0.77353 0.0
O627 O 0.12059 0.87286 0.77914 0.0
O628 O 0.0686 0.86975 0.813 0.0
O629 O 0.09295 0.86103 0.8034 0.0
Co630 Co 0.63141 0.33466 0.45588 0.0
O631 O 0.61658 0.32211 0.4701 0.0
O632 O 0.64417 0.31902 0.46954 0.0
C633 C 0.61637 0.33187 0.43223 0.0
O634 O 0.65044 0.34541 0.4423 0.0
Co635 Co 0.61848 0.36786 0.43959 0.0
O636 O 0.63905 0.36541 0.42576 0.0
C637 C 0.62844 0.36776 0.47529 0.0
C638 C 0.62977 0.31453 0.47584 0.0
C639 C 0.65144 0.3563 0.43025 0.0
O640 O 0.63357 0.35249 0.47371 0.0
O641 O 0.62102 0.37583 0.46347 0.0
O642 O 0.62644 0.31989 0.43689 0.0
O643 O 0.6145 0.34407 0.44281 0.0
Co644 Co 0.91523 0.37747 0.70104 0.0
O645 O 0.92844 0.36245 0.71446 0.0
O646 O 0.93367 0.38967 0.71095 0.0
C647 C 0.9127 0.36073 0.6785 0.0
O648 O 0.90466 0.39667 0.68769 0.0
Co649 Co 0.87879 0.36757 0.69171 0.0
O650 O 0.87959 0.38826 0.67776 0.0
C651 C 0.88604 0.37933 0.72595 0.0
C652 C 0.93778 0.37539 0.71787 0.0
C653 C 0.89131 0.39911 0.6789 0.0
O654 O 0.90102 0.38282 0.72118 0.0
O655 O 0.87531 0.37205 0.71641 0.0
O656 O 0.92618 0.36966 0.68069 0.0
O657 O 0.90215 0.36076 0.69087 0.0
Co658 Co 0.58205 0.61914 0.20209 0.0
O659 O 0.56938 0.63444 0.21586 0.0
O660 O 0.56376 0.60727 0.21254 0.0
C661 C 0.58417 0.63567 0.17935 0.0
O662 O 0.59175 0.59958 0.18854 0.0
Co663 Co 0.61822 0.62765 0.19073 0.0
O664 O 0.61504 0.60831 0.17525 0.0
C665 C 0.61238 0.61603 0.22536 0.0
C666 C 0.55993 0.62161 0.21947 0.0
C667 C 0.60366 0.59734 0.17781 0.0
O668 O 0.59685 0.6138 0.22181 0.0
O669 O 0.62308 0.62204 0.21496 0.0
O670 O 0.5706 0.62702 0.18204 0.0
O671 O 0.59516 0.63548 0.19134 0.0
Co672 Co 0.54215 0.63542 0.82372 0.0
O673 O 0.56363 0.6269 0.81705 0.0
O674 O 0.55363 0.62626 0.84312 0.0
C675 C 0.52747 0.62442 0.80223 0.0
O676 O 0.52024 0.64253 0.83502 0.0
Co677 Co 0.52384 0.66114 0.80066 0.0
O678 O 0.50451 0.65551 0.81537 0.0
C679 C 0.55268 0.67224 0.82072 0.0
C680 C 0.5659 0.62309 0.83277 0.0
C681 C 0.50627 0.64888 0.8299 0.0
O682 O 0.55253 0.65799 0.82838 0.0
O683 O 0.543 0.67566 0.80832 0.0
O684 O 0.5311 0.6151 0.81522 0.0
O685 O 0.53428 0.63916 0.80201 0.0
Co686 Co 0.6142 0.29105 0.08058 0.0
O687 O 0.6302 0.27902 0.06712 0.0
O688 O 0.603 0.2807 0.06167 0.0
C689 C 0.62878 0.31494 0.0839 0.0
O690 O 0.59418 0.30285 0.09133 0.0
Co691 Co 0.62338 0.29996 0.11754 0.0
O692 O 0.60213 0.31283 0.11669 0.0
C693 C 0.61344 0.26537 0.10951 0.0
C694 C 0.61769 0.27492 0.05751 0.0
C695 C 0.5914 0.31133 0.10488 0.0
O696 O 0.61011 0.27021 0.09442 0.0
O697 O 0.61998 0.27507 0.12058 0.0
O698 O 0.62045 0.31224 0.07009 0.0
O699 O 0.62988 0.30225 0.09408 0.0
Co700 Co 0.95163 0.35726 0.32157 0.0
O701 O 0.93037 0.36669 0.31548 0.0
O702 O 0.94075 0.36619 0.3414 0.0
C703 C 0.96659 0.36852 0.30046 0.0
O704 O 0.97332 0.3488 0.33234 0.0
Co705 Co 0.96818 0.33158 0.29709 0.0
O706 O 0.98665 0.33197 0.31379 0.0
C707 C 0.939 0.32132 0.31692 0.0
C708 C 0.92839 0.36996 0.33137 0.0
C709 C 0.98578 0.33942 0.328 0.0
O710 O 0.94039 0.33497 0.32549 0.0
O711 O 0.948 0.31812 0.30396 0.0
O712 O 0.96337 0.37743 0.31383 0.0
O713 O 0.95917 0.3541 0.29962 0.0
Co714 Co 0.88217 0.70303 0.58178 0.0
O715 O 0.86676 0.7167 0.56923 0.0
O716 O 0.89362 0.71325 0.56298 0.0
C717 C 0.86586 0.68024 0.58461 0.0
O718 O 0.90158 0.68939 0.59143 0.0
Co719 Co 0.87385 0.69288 0.61855 0.0
O720 O 0.89249 0.67671 0.61506 0.0
C721 C 0.88547 0.72727 0.61167 0.0
C722 C 0.87929 0.7202 0.5594 0.0
C723 C 0.90339 0.67866 0.60348 0.0
O724 O 0.88802 0.72293 0.59628 0.0
O725 O 0.87889 0.7174 0.62258 0.0
O726 O 0.87406 0.68282 0.5707 0.0
O727 O 0.86611 0.69251 0.59536 0.0
Co728 Co 0.54459 0.35617 0.6717 0.0
O729 O 0.56586 0.36522 0.67837 0.0
O730 O 0.55563 0.36596 0.6524 0.0
C731 C 0.52952 0.36659 0.69315 0.0
O732 O 0.52294 0.34838 0.66034 0.0
Co733 Co 0.52751 0.32958 0.6948 0.0
O734 O 0.50921 0.33087 0.67796 0.0
C735 C 0.55688 0.31997 0.6749 0.0
C736 C 0.5679 0.36932 0.66268 0.0
C737 C 0.51033 0.33895 0.66411 0.0
O738 O 0.55572 0.33398 0.66687 0.0
O739 O 0.5477 0.31634 0.68762 0.0
O740 O 0.53296 0.37605 0.68023 0.0
O741 O 0.5368 0.35208 0.69343 0.0
Co742 Co 0.88091 0.29156 0.91218 0.0
O743 O 0.86527 0.27804 0.92468 0.0
O744 O 0.8922 0.28098 0.93091 0.0
C745 C 0.86499 0.31466 0.90955 0.0
O746 O 0.90057 0.30491 0.90254 0.0
Co747 Co 0.87262 0.30214 0.87551 0.0
O748 O 0.89169 0.31782 0.87896 0.0
C749 C 0.88368 0.26751 0.88208 0.0
C750 C 0.87775 0.27424 0.93446 0.0
C751 C 0.90259 0.3156 0.89049 0.0
O752 O 0.88636 0.27165 0.8975 0.0
O753 O 0.87723 0.27759 0.87128 0.0
O754 O 0.87319 0.31186 0.92342 0.0
O755 O 0.865 0.30246 0.89873 0.0
Co756 Co 0.95171 0.63678 0.17258 0.0
O757 O 0.93012 0.62778 0.17806 0.0
O758 O 0.94133 0.62773 0.15249 0.0
C759 C 0.96556 0.6254 0.19438 0.0
O760 O 0.97395 0.64471 0.16249 0.0
Co761 Co 0.96863 0.66201 0.19722 0.0
O762 O 0.98875 0.65683 0.18341 0.0
C763 C 0.94047 0.67327 0.17614 0.0
C764 C 0.92864 0.6242 0.16219 0.0
C765 C 0.98762 0.65088 0.16854 0.0
O766 O 0.9411 0.65923 0.16812 0.0
O767 O 0.94966 0.67651 0.18897 0.0
O768 O 0.9628 0.61649 0.18091 0.0
O769 O 0.95846 0.64 0.19477 0.0
Co770 Co 0.61148 0.702 0.41301 0.0
O771 O 0.6271 0.71535 0.42565 0.0
O772 O 0.60018 0.7123 0.43189 0.0
C773 C 0.62752 0.67906 0.41005 0.0
O774 O 0.59187 0.68875 0.40318 0.0
Co775 Co 0.6198 0.69205 0.37618 0.0
O776 O 0.60083 0.67621 0.37943 0.0
C777 C 0.6087 0.72654 0.38333 0.0
C778 C 0.61463 0.71902 0.43548 0.0
C779 C 0.5899 0.67822 0.39098 0.0
O780 O 0.60597 0.72209 0.39866 0.0
O781 O 0.6152 0.71668 0.37236 0.0
O782 O 0.61928 0.68158 0.42394 0.0
O783 O 0.62742 0.6914 0.39939 0.0
Co784 Co 0.83539 0.53901 0.63619 0.0
O785 O 0.8217 0.52651 0.62079 0.0
O786 O 0.81777 0.52774 0.64843 0.0
C787 C 0.83661 0.56294 0.62131 0.0
O788 O 0.84639 0.55124 0.65587 0.0
Co789 Co 0.87103 0.55047 0.62602 0.0
O790 O 0.86839 0.56565 0.64567 0.0
C791 C 0.86563 0.51522 0.63564 0.0
C792 C 0.81299 0.52201 0.63385 0.0
C793 C 0.85792 0.56249 0.65738 0.0
O794 O 0.85032 0.51882 0.63912 0.0
O795 O 0.87607 0.52591 0.62967 0.0
O796 O 0.82362 0.55964 0.63061 0.0
O797 O 0.84745 0.5509 0.6198 0.0
Co798 Co 0.70182 0.57381 0.88524 0.0
O799 O 0.68088 0.56816 0.87486 0.0
O800 O 0.69143 0.59397 0.87641 0.0
C801 C 0.71673 0.55258 0.87409 0.0
O802 O 0.72346 0.58411 0.89442 0.0
Co803 Co 0.71791 0.5489 0.91073 0.0
O804 O 0.73793 0.5633 0.90703 0.0
C805 C 0.68892 0.56917 0.92114 0.0
C806 C 0.67922 0.58411 0.87178 0.0
C807 C 0.73693 0.57823 0.90118 0.0
O808 O 0.68999 0.57748 0.90728 0.0
O809 O 0.69817 0.55644 0.92451 0.0
O810 O 0.71414 0.56619 0.86534 0.0
O811 O 0.70886 0.5517 0.88826 0.0
Co812 Co 0.6597 0.45598 0.13652 0.0
O813 O 0.67351 0.46858 0.12134 0.0
O814 O 0.67768 0.4665 0.1489 0.0
C815 C 0.65782 0.43242 0.12111 0.0
O816 O 0.64858 0.44344 0.15588 0.0
Co817 Co 0.62371 0.44593 0.12612 0.0
O818 O 0.62581 0.43036 0.14557 0.0
C819 C 0.63025 0.4808 0.1364 0.0
C820 C 0.68248 0.47249 0.13442 0.0
C821 C 0.63656 0.4327 0.15722 0.0
O822 O 0.64525 0.47638 0.14029 0.0
O823 O 0.6197 0.47074 0.12959 0.0
O824 O 0.67098 0.43528 0.13029 0.0
O825 O 0.64726 0.44476 0.11992 0.0
Co826 Co 0.79337 0.41998 0.38685 0.0
O827 O 0.81497 0.42615 0.37833 0.0
O828 O 0.80418 0.40043 0.37716 0.0
C829 C 0.77928 0.442 0.3762 0.0
O830 O 0.77119 0.40927 0.39411 0.0
Co831 Co 0.77598 0.44344 0.41288 0.0
O832 O 0.75621 0.42922 0.40753 0.0
C833 C 0.80446 0.42251 0.42346 0.0
C834 C 0.81677 0.41045 0.3742 0.0
C835 C 0.75748 0.41469 0.40078 0.0
O836 O 0.80385 0.4148 0.40924 0.0
O837 O 0.79521 0.4352 0.42701 0.0
O838 O 0.78233 0.42895 0.36678 0.0
O839 O 0.78627 0.44192 0.39086 0.0
Co840 Co 0.83511 0.45551 0.85737 0.0
O841 O 0.82096 0.46858 0.87181 0.0
O842 O 0.81801 0.46645 0.8441 0.0
C843 C 0.83575 0.43204 0.87302 0.0
O844 O 0.84678 0.44258 0.8386 0.0
Co845 Co 0.87035 0.44462 0.86944 0.0
O846 O 0.86891 0.42916 0.84984 0.0
C847 C 0.86507 0.47963 0.85895 0.0
C848 C 0.81277 0.47272 0.8583 0.0
C849 C 0.85868 0.43167 0.83775 0.0
O850 O 0.85023 0.47552 0.85421 0.0
O851 O 0.87503 0.46934 0.86631 0.0
O852 O 0.82306 0.43509 0.86322 0.0
O853 O 0.84652 0.44415 0.87456 0.0
Co854 Co 0.79616 0.57005 0.10466 0.0
O855 O 0.81715 0.56403 0.11475 0.0
O856 O 0.80663 0.58988 0.11401 0.0
C857 C 0.78081 0.54891 0.1153 0.0
O858 O 0.77471 0.58082 0.09566 0.0
Co859 Co 0.78026 0.54581 0.07839 0.0
O860 O 0.76159 0.56231 0.07863 0.0
C861 C 0.80966 0.56576 0.06898 0.0
C862 C 0.81892 0.57992 0.11816 0.0
C863 C 0.76234 0.57649 0.08615 0.0
O864 O 0.80805 0.57413 0.08274 0.0
O865 O 0.80067 0.5529 0.06541 0.0
O866 O 0.78377 0.56224 0.12436 0.0
O867 O 0.78876 0.54807 0.10116 0.0
Co868 Co 0.66161 0.53934 0.35739 0.0
O869 O 0.67578 0.52669 0.37218 0.0
O870 O 0.67926 0.52881 0.34453 0.0
C871 C 0.66004 0.56284 0.3729 0.0
O872 O 0.65005 0.5519 0.33833 0.0
Co873 Co 0.62584 0.54927 0.36891 0.0
O874 O 0.62601 0.56309 0.34809 0.0
C875 C 0.63234 0.51439 0.35879 0.0
C876 C 0.68435 0.52272 0.35886 0.0
C877 C 0.63703 0.5613 0.33661 0.0
O878 O 0.64705 0.51893 0.35399 0.0
O879 O 0.62213 0.52437 0.36619 0.0
O880 O 0.67301 0.56008 0.3634 0.0
O881 O 0.64957 0.55045 0.37429 0.0
Co882 Co 0.70118 0.42114 0.60536 0.0
O883 O 0.68043 0.42783 0.61553 0.0
O884 O 0.69052 0.4018 0.6155 0.0
C885 C 0.71692 0.4424 0.61518 0.0
O886 O 0.72235 0.40976 0.59646 0.0
Co887 Co 0.71719 0.44434 0.57822 0.0
O888 O 0.73557 0.42753 0.57873 0.0
C889 C 0.6873 0.42464 0.56976 0.0
C890 C 0.67848 0.4121 0.61952 0.0
C891 C 0.73467 0.4136 0.58669 0.0
O892 O 0.68895 0.41658 0.5837 0.0
O893 O 0.69644 0.43729 0.56579 0.0
O894 O 0.71393 0.42938 0.62466 0.0
O895 O 0.70885 0.4429 0.6011 0.0
Co896 Co 0.63222 0.8305 0.54171 0.0
O897 O 0.61659 0.81795 0.52828 0.0
O898 O 0.64354 0.8118 0.53114 0.0
C899 C 0.6163 0.8331 0.56481 0.0
O900 O 0.65185 0.84019 0.55502 0.0
Co901 Co 0.62386 0.86713 0.55231 0.0
O902 O 0.64284 0.86363 0.56807 0.0
C903 C 0.63486 0.86058 0.51764 0.0
C904 C 0.62908 0.8082 0.52446 0.0
C905 C 0.65379 0.85216 0.56581 0.0
O906 O 0.63759 0.84517 0.52178 0.0
O907 O 0.6284 0.87135 0.52773 0.0
O908 O 0.62455 0.81926 0.56205 0.0
O909 O 0.61629 0.8439 0.5526 0.0
Co910 Co 0.13191 0.66286 0.45311 0.0
O911 O 0.11652 0.67583 0.46641 0.0
O912 O 0.14358 0.68146 0.4635 0.0
C913 C 0.11598 0.66029 0.43003 0.0
O914 O 0.15136 0.65263 0.43994 0.0
Co915 Co 0.12282 0.62625 0.44297 0.0
O916 O 0.142 0.62907 0.42732 0.0
C917 C 0.13403 0.63301 0.47752 0.0
C918 C 0.12919 0.68537 0.47015 0.0
C919 C 0.15315 0.64039 0.42942 0.0
O920 O 0.137 0.64832 0.4732 0.0
O921 O 0.12737 0.62221 0.46758 0.0
O922 O 0.12449 0.67401 0.43265 0.0
O923 O 0.11574 0.64964 0.44237 0.0
Co924 Co 0.58436 0.88695 0.70444 0.0
O925 O 0.57058 0.87242 0.71781 0.0
O926 O 0.56682 0.89996 0.71494 0.0
C927 C 0.58554 0.8707 0.6814 0.0
O928 O 0.59552 0.90573 0.69109 0.0
Co929 Co 0.61996 0.8757 0.69385 0.0
O930 O 0.61791 0.89482 0.67785 0.0
C931 C 0.61425 0.88678 0.72866 0.0
C932 C 0.56194 0.88577 0.72152 0.0
C933 C 0.60735 0.90666 0.68011 0.0
O934 O 0.5993 0.89106 0.72441 0.0
O935 O 0.6244 0.87943 0.71855 0.0
O936 O 0.57257 0.88021 0.68415 0.0
O937 O 0.59632 0.86982 0.69356 0.0
Co938 Co 0.3646 0.33097 0.95198 0.0
O939 O 0.38034 0.31783 0.96469 0.0
O940 O 0.35324 0.31214 0.96233 0.0
C941 C 0.38004 0.33399 0.92867 0.0
O942 O 0.34482 0.34134 0.93942 0.0
Co943 Co 0.37328 0.36771 0.94222 0.0
O944 O 0.35387 0.36501 0.92682 0.0
C945 C 0.36265 0.36044 0.97686 0.0
C946 C 0.36779 0.3082 0.96863 0.0
C947 C 0.34279 0.35365 0.92904 0.0
O948 O 0.3599 0.34512 0.97244 0.0
O949 O 0.36892 0.37146 0.96691 0.0
O950 O 0.3715 0.32026 0.93111 0.0
O951 O 0.38059 0.34442 0.94118 0.0
Co952 Co 0.41376 0.60323 0.70239 0.0
O953 O 0.43015 0.61633 0.71417 0.0
O954 O 0.42946 0.58834 0.7134 0.0
C955 C 0.41421 0.61804 0.67842 0.0
O956 O 0.39955 0.58554 0.69065 0.0
Co957 Co 0.3799 0.61872 0.69163 0.0
O958 O 0.37903 0.59878 0.67655 0.0
C959 C 0.38445 0.60837 0.72687 0.0
C960 C 0.43675 0.60205 0.71857 0.0
C961 C 0.38776 0.58569 0.67959 0.0
O962 O 0.39902 0.60266 0.72298 0.0
O963 O 0.37497 0.61601 0.71634 0.0
O964 O 0.42559 0.60669 0.6813 0.0
O965 O 0.40412 0.62133 0.69075 0.0
Co966 Co 0.86305 0.16156 0.03999 0.0
O967 O 0.87821 0.17551 0.02744 0.0
O968 O 0.85078 0.17956 0.02918 0.0
C969 C 0.87812 0.15975 0.06367 0.0
O970 O 0.8437 0.15012 0.05233 0.0
Co971 Co 0.87377 0.12552 0.05022 0.0
O972 O 0.854 0.12717 0.0653 0.0
C973 C 0.86352 0.13183 0.01531 0.0
C974 C 0.8652 0.18433 0.02315 0.0
C975 C 0.8423 0.13783 0.06285 0.0
O976 O 0.85964 0.14694 0.01958 0.0
O977 O 0.87029 0.12131 0.02546 0.0
O978 O 0.86883 0.1729 0.06085 0.0
O979 O 0.87961 0.14925 0.05129 0.0
Co980 Co 0.58513 0.10557 0.78944 0.0
O981 O 0.5706 0.1203 0.77723 0.0
O982 O 0.56748 0.09259 0.77899 0.0
C983 C 0.58671 0.12091 0.81299 0.0
O984 O 0.59719 0.08657 0.80162 0.0
Co985 Co 0.62074 0.1173 0.79922 0.0
O986 O 0.61952 0.09772 0.81475 0.0
C987 C 0.61423 0.10712 0.76429 0.0
C988 C 0.56211 0.10695 0.7732 0.0
C989 C 0.60925 0.08566 0.81235 0.0
O990 O 0.59942 0.10262 0.76879 0.0
O991 O 0.62461 0.1142 0.77435 0.0
O992 O 0.57398 0.11104 0.81044 0.0
O993 O 0.59701 0.12265 0.8005 0.0
Co994 Co 0.91188 0.8869 0.28962 0.0
O995 O 0.92693 0.87199 0.27816 0.0
O996 O 0.92922 0.89989 0.27877 0.0
C997 C 0.91042 0.87236 0.31375 0.0
O998 O 0.89947 0.9062 0.30101 0.0
Co999 Co 0.87634 0.87532 0.29989 0.0
O1000 O 0.87754 0.89523 0.31492 0.0
C1001 C 0.88252 0.88502 0.26477 0.0
C1002 C 0.93507 0.88545 0.27376 0.0
C1003 C 0.88756 0.90735 0.31189 0.0
O1004 O 0.89766 0.8888 0.26878 0.0
O1005 O 0.8719 0.87893 0.2752 0.0
O1006 O 0.92304 0.88229 0.31083 0.0
O1007 O 0.90013 0.87014 0.30132 0.0
Co1008 Co 0.45582 0.36467 0.16136 0.0
O1009 O 0.46906 0.37995 0.17457 0.0
O1010 O 0.46637 0.35255 0.17946 0.0
C1011 C 0.43274 0.38049 0.15967 0.0
O1012 O 0.44276 0.34515 0.15104 0.0
Co1013 Co 0.44463 0.37399 0.12521 0.0
O1014 O 0.42911 0.35472 0.12822 0.0
C1015 C 0.47917 0.36263 0.1308 0.0
C1016 C 0.47278 0.36697 0.18381 0.0
C1017 C 0.43182 0.34337 0.13925 0.0
O1018 O 0.47562 0.36015 0.14639 0.0
O1019 O 0.46875 0.36866 0.12013 0.0
O1020 O 0.43571 0.37161 0.17308 0.0
O1021 O 0.44471 0.38109 0.14866 0.0
Co1022 Co 0.38204 0.70581 0.90953 0.0
O1023 O 0.36753 0.72085 0.92146 0.0
O1024 O 0.39485 0.71851 0.92592 0.0
C1025 C 0.36538 0.68317 0.91136 0.0
O1026 O 0.40072 0.69118 0.89964 0.0
Co1027 Co 0.3699 0.69028 0.87564 0.0
O1028 O 0.38942 0.6752 0.87915 0.0
C1029 C 0.38214 0.7253 0.87638 0.0
C1030 C 0.38066 0.72566 0.92977 0.0
C1031 C 0.40158 0.67907 0.88882 0.0
O1032 O 0.3862 0.72352 0.89196 0.0
O1033 O 0.37453 0.71391 0.86788 0.0
O1034 O 0.37514 0.6871 0.92386 0.0
O1035 O 0.36484 0.69388 0.89915 0.0
Co1036 Co 0.04015 0.63048 0.66111 0.0
O1037 O 0.02719 0.61536 0.67475 0.0
O1038 O 0.02948 0.64289 0.67898 0.0
C1039 C 0.06347 0.61499 0.65959 0.0
O1040 O 0.05291 0.64981 0.65013 0.0
Co1041 Co 0.05078 0.62005 0.62508 0.0
O1042 O 0.06592 0.63978 0.62711 0.0
C1043 C 0.01609 0.63065 0.631 0.0
C1044 C 0.02324 0.62849 0.68366 0.0
C1045 C 0.06348 0.65136 0.63796 0.0
O1046 O 0.02018 0.63439 0.6462 0.0
O1047 O 0.02625 0.62383 0.62055 0.0
O1048 O 0.06047 0.62412 0.67283 0.0
O1049 O 0.05137 0.61387 0.64877 0.0
Co1050 Co 0.11281 0.28587 0.40808 0.0
O1051 O 0.12793 0.27173 0.42042 0.0
O1052 O 0.10034 0.27183 0.42358 0.0
C1053 C 0.12749 0.30968 0.41104 0.0
O1054 O 0.09336 0.29901 0.39776 0.0
Co1055 Co 0.12436 0.3033 0.37509 0.0
O1056 O 0.1034 0.3165 0.3779 0.0
C1057 C 0.11514 0.26732 0.3745 0.0
C1058 C 0.11482 0.26564 0.42791 0.0
C1059 C 0.09148 0.31118 0.38717 0.0
O1060 O 0.1108 0.26826 0.39007 0.0
O1061 O 0.12175 0.27963 0.36643 0.0
O1062 O 0.11744 0.30482 0.42297 0.0
O1063 O 0.12945 0.2994 0.39861 0.0
Co1064 Co 0.45323 0.63217 0.33068 0.0
O1065 O 0.4665 0.61724 0.31714 0.0
O1066 O 0.46419 0.64479 0.3131 0.0
C1067 C 0.42993 0.6165 0.33172 0.0
O1068 O 0.44025 0.65136 0.34162 0.0
Co1069 Co 0.44203 0.62137 0.36644 0.0
O1070 O 0.42694 0.64112 0.36439 0.0
C1071 C 0.47678 0.63223 0.36121 0.0
C1072 C 0.47064 0.63047 0.30847 0.0
C1073 C 0.42955 0.65281 0.35368 0.0
O1074 O 0.47293 0.63605 0.34596 0.0
O1075 O 0.46647 0.62527 0.37142 0.0
O1076 O 0.43308 0.62578 0.3186 0.0
O1077 O 0.44189 0.6154 0.3427 0.0
Co1078 Co 0.11424 0.70654 0.0865 0.0
O1079 O 0.12806 0.71838 0.07078 0.0
O1080 O 0.1003 0.71932 0.07106 0.0
C1081 C 0.12795 0.68206 0.08459 0.0
O1082 O 0.09608 0.69517 0.10074 0.0
Co1083 Co 0.13065 0.6935 0.11956 0.0
O1084 O 0.10867 0.68227 0.12265 0.0
C1085 C 0.12155 0.72924 0.11678 0.0
C1086 C 0.11436 0.72413 0.06422 0.0
C1087 C 0.09566 0.6857 0.11395 0.0
O1088 O 0.11483 0.72626 0.10236 0.0
O1089 O 0.12958 0.71812 0.1252 0.0
O1090 O 0.11655 0.68584 0.07352 0.0
O1091 O 0.13174 0.69373 0.09523 0.0
Co1092 Co 0.0401 0.36331 0.83275 0.0
O1093 O 0.02721 0.37861 0.81924 0.0
O1094 O 0.02949 0.35113 0.81469 0.0
C1095 C 0.06348 0.37874 0.83448 0.0
O1096 O 0.05281 0.34384 0.84355 0.0
Co1097 Co 0.05065 0.37333 0.86891 0.0
O1098 O 0.06586 0.3537 0.86662 0.0
C1099 C 0.01598 0.36265 0.86285 0.0
C1100 C 0.02332 0.3656 0.81013 0.0
C1101 C 0.06341 0.3422 0.85568 0.0
O1102 O 0.02008 0.35922 0.84757 0.0
O1103 O 0.02614 0.36931 0.87341 0.0
O1104 O 0.06045 0.36976 0.82114 0.0
O1105 O 0.05137 0.37979 0.84529 0.0
Co1106 Co 0.38244 0.28821 0.5852 0.0
O1107 O 0.36693 0.27359 0.5739 0.0
O1108 O 0.39423 0.27459 0.56887 0.0
C1109 C 0.36677 0.31151 0.58321 0.0
O1110 O 0.40216 0.30196 0.59422 0.0
Co1111 Co 0.37254 0.30563 0.61886 0.0
O1112 O 0.39304 0.3192 0.61475 0.0
C1113 C 0.38274 0.26987 0.61892 0.0
C1114 C 0.37966 0.26804 0.56541 0.0
C1115 C 0.40448 0.3141 0.60476 0.0
O1116 O 0.38618 0.27077 0.60312 0.0
O1117 O 0.37623 0.28204 0.62727 0.0
O1118 O 0.37607 0.30689 0.57059 0.0
O1119 O 0.36617 0.30124 0.59579 0.0
Co1120 Co 0.16484 0.44955 0.36496 0.0
O1121 O 0.17891 0.46203 0.38004 0.0
O1122 O 0.18255 0.46038 0.35239 0.0
C1123 C 0.16329 0.42598 0.38024 0.0
O1124 O 0.15318 0.43741 0.34557 0.0
Co1125 Co 0.12914 0.43912 0.37609 0.0
O1126 O 0.12992 0.42493 0.35552 0.0
C1127 C 0.13534 0.47413 0.366 0.0
C1128 C 0.18746 0.46639 0.36683 0.0
C1129 C 0.14054 0.42746 0.34379 0.0
O1130 O 0.1503 0.46991 0.36182 0.0
O1131 O 0.12497 0.46392 0.37289 0.0
O1132 O 0.17618 0.42871 0.37061 0.0
O1133 O 0.15279 0.4383 0.38176 0.0
Co1134 Co 0.2912 0.41009 0.11201 0.0
O1135 O 0.27915 0.42408 0.12753 0.0
O1136 O 0.27993 0.42772 0.0998 0.0
C1137 C 0.31511 0.40895 0.12659 0.0
O1138 O 0.30308 0.39883 0.09224 0.0
Co1139 Co 0.30251 0.3743 0.1222 0.0
O1140 O 0.31745 0.37674 0.10241 0.0
C1141 C 0.2675 0.3797 0.11243 0.0
C1142 C 0.27464 0.43279 0.11446 0.0
C1143 C 0.31421 0.38718 0.09066 0.0
O1144 O 0.27103 0.39517 0.10934 0.0
O1145 O 0.27816 0.3691 0.11815 0.0
O1146 O 0.31175 0.42191 0.1172 0.0
O1147 O 0.30315 0.39803 0.12835 0.0
Co1148 Co 0.32627 0.54569 0.86274 0.0
O1149 O 0.31345 0.53221 0.87798 0.0
O1150 O 0.30776 0.53544 0.85082 0.0
C1151 C 0.3286 0.56818 0.87952 0.0
O1152 O 0.33667 0.55915 0.84344 0.0
Co1153 Co 0.36261 0.55556 0.87247 0.0
O1154 O 0.36044 0.57105 0.85298 0.0
C1155 C 0.35573 0.52119 0.86071 0.0
C1156 C 0.30396 0.52857 0.86523 0.0
C1157 C 0.34923 0.56923 0.84167 0.0
O1158 O 0.34066 0.52573 0.85734 0.0
O1159 O 0.36638 0.53091 0.86786 0.0
O1160 O 0.31513 0.56593 0.87061 0.0
O1161 O 0.3393 0.55595 0.87935 0.0
Co1162 Co 0.20451 0.5814 0.6125 0.0
O1163 O 0.21649 0.56743 0.6281 0.0
O1164 O 0.21505 0.56319 0.60048 0.0
C1165 C 0.18086 0.58361 0.62741 0.0
O1166 O 0.19258 0.5926 0.59276 0.0
Co1167 Co 0.19477 0.61775 0.62237 0.0
O1168 O 0.17965 0.61571 0.60263 0.0
C1169 C 0.22943 0.61087 0.61221 0.0
C1170 C 0.22054 0.55834 0.61513 0.0
C1171 C 0.18212 0.60483 0.59109 0.0
O1172 O 0.22502 0.59565 0.60895 0.0
O1173 O 0.21941 0.62175 0.61855 0.0
O1174 O 0.18373 0.5703 0.61835 0.0
O1175 O 0.1932 0.59415 0.62878 0.0
Co1176 Co 0.16883 0.54288 0.12914 0.0
O1177 O 0.1837 0.53114 0.11427 0.0
O1178 O 0.18611 0.53204 0.14215 0.0
C1179 C 0.16736 0.56669 0.11433 0.0
O1180 O 0.15644 0.55432 0.14843 0.0
Co1181 Co 0.13332 0.55318 0.1174 0.0
O1182 O 0.13341 0.567 0.13826 0.0
C1183 C 0.13972 0.51796 0.12666 0.0
C1184 C 0.19174 0.52662 0.12775 0.0
C1185 C 0.14378 0.56421 0.15016 0.0
O1186 O 0.15454 0.52222 0.1313 0.0
O1187 O 0.12941 0.52826 0.11982 0.0
O1188 O 0.17998 0.56404 0.12435 0.0
O1189 O 0.1571 0.55426 0.11227 0.0
Co1190 Co 0.2047 0.41148 0.8814 0.0
O1191 O 0.21741 0.42484 0.86585 0.0
O1192 O 0.21524 0.42983 0.89327 0.0
C1193 C 0.18128 0.40948 0.86606 0.0
O1194 O 0.19209 0.40079 0.90103 0.0
Co1195 Co 0.19445 0.37516 0.87167 0.0
O1196 O 0.17918 0.3776 0.89124 0.0
C1197 C 0.22904 0.38157 0.88243 0.0
C1198 C 0.22125 0.43422 0.87867 0.0
C1199 C 0.18154 0.38861 0.90268 0.0
O1200 O 0.22483 0.39686 0.88564 0.0
O1201 O 0.21897 0.37087 0.87585 0.0
O1202 O 0.18428 0.4229 0.87491 0.0
O1203 O 0.19345 0.39871 0.86508 0.0
Co1204 Co 0.32746 0.44942 0.62835 0.0
O1205 O 0.31274 0.46208 0.61413 0.0
O1206 O 0.30986 0.4592 0.64182 0.0
C1207 C 0.32919 0.42678 0.61172 0.0
O1208 O 0.33974 0.43667 0.64692 0.0
Co1209 Co 0.36322 0.44033 0.61625 0.0
O1210 O 0.36321 0.42527 0.63621 0.0
C1211 C 0.35628 0.47475 0.62785 0.0
C1212 C 0.30438 0.4655 0.62772 0.0
C1213 C 0.35266 0.42701 0.64814 0.0
O1214 O 0.34155 0.46996 0.63222 0.0
O1215 O 0.36672 0.46512 0.62028 0.0
O1216 O 0.31643 0.4287 0.62172 0.0
O1217 O 0.3395 0.43933 0.61088 0.0
Co1218 Co 0.28997 0.58135 0.37969 0.0
O1219 O 0.27664 0.56825 0.36439 0.0
O1220 O 0.27958 0.56299 0.39167 0.0
C1221 C 0.31294 0.58342 0.36364 0.0
O1222 O 0.30316 0.59165 0.39914 0.0
Co1223 Co 0.3005 0.61771 0.37028 0.0
O1224 O 0.31596 0.61503 0.38967 0.0
C1225 C 0.26602 0.61148 0.38154 0.0
C1226 C 0.27302 0.55883 0.37725 0.0
C1227 C 0.31372 0.60381 0.40093 0.0
O1228 O 0.27011 0.59613 0.38463 0.0
O1229 O 0.27608 0.6221 0.37481 0.0
O1230 O 0.31015 0.56988 0.3724 0.0
O1231 O 0.30084 0.59427 0.36325 0.0
Co1232 Co 0.3641 0.15643 0.45832 0.0
O1233 O 0.37864 0.16983 0.47202 0.0
O1234 O 0.35097 0.17211 0.47164 0.0
C1235 C 0.37893 0.15901 0.43455 0.0
O1236 O 0.34529 0.14474 0.44523 0.0
Co1237 Co 0.37783 0.12322 0.44293 0.0
O1238 O 0.35708 0.12459 0.4292 0.0
C1239 C 0.36802 0.124 0.47867 0.0
C1240 C 0.3653 0.17717 0.4777 0.0
C1241 C 0.34449 0.13349 0.43352 0.0
O1242 O 0.3626 0.13912 0.47671 0.0
O1243 O 0.37551 0.11576 0.46702 0.0
O1244 O 0.36837 0.17071 0.43883 0.0
O1245 O 0.38132 0.14718 0.44543 0.0
Co1246 Co 0.86337 0.33352 0.53773 0.0
O1247 O 0.8792 0.32167 0.52391 0.0
O1248 O 0.85178 0.31721 0.52388 0.0
C1249 C 0.87796 0.33174 0.56178 0.0
O1250 O 0.84333 0.34317 0.55051 0.0
Co1251 Co 0.87334 0.36737 0.55473 0.0
O1252 O 0.85229 0.3639 0.56761 0.0
C1253 C 0.86435 0.36686 0.51867 0.0
C1254 C 0.8665 0.31343 0.51789 0.0
C1255 C 0.84084 0.35401 0.56235 0.0
O1256 O 0.86063 0.35115 0.51981 0.0
O1257 O 0.87061 0.37538 0.53086 0.0
O1258 O 0.86868 0.31917 0.55696 0.0
O1259 O 0.8793 0.34404 0.55124 0.0
Co1260 Co 0.41777 0.11492 0.29437 0.0
O1261 O 0.43195 0.13027 0.28231 0.0
O1262 O 0.4353 0.10252 0.28318 0.0
C1263 C 0.41637 0.1297 0.31827 0.0
O1264 O 0.40624 0.09525 0.30609 0.0
Co1265 Co 0.38217 0.12555 0.30551 0.0
O1266 O 0.38337 0.10485 0.31949 0.0
C1267 C 0.38791 0.11607 0.2702 0.0
C1268 C 0.44041 0.1171 0.2777 0.0
C1269 C 0.39394 0.09322 0.3164 0.0
O1270 O 0.40308 0.11224 0.27401 0.0
O1271 O 0.3776 0.1225 0.28076 0.0
O1272 O 0.42921 0.12008 0.31531 0.0
O1273 O 0.40578 0.13145 0.30606 0.0
Co1274 Co 0.63337 0.65714 0.03692 0.0
O1275 O 0.61747 0.66947 0.0236 0.0
O1276 O 0.64497 0.67328 0.02288 0.0
C1277 C 0.61946 0.65919 0.06136 0.0
O1278 O 0.6535 0.64695 0.04916 0.0
Co1279 Co 0.62305 0.62344 0.05393 0.0
O1280 O 0.6444 0.62644 0.06644 0.0
C1281 C 0.63105 0.62397 0.01764 0.0
C1282 C 0.63019 0.6775 0.01736 0.0
C1283 C 0.65597 0.63606 0.06095 0.0
O1284 O 0.63521 0.63958 0.01883 0.0
O1285 O 0.62493 0.61551 0.02993 0.0
O1286 O 0.62892 0.67153 0.05631 0.0
O1287 O 0.61753 0.64695 0.05084 0.0
Co1288 Co 0.58038 0.37785 0.29347 0.0
O1289 O 0.56758 0.36307 0.2794 0.0
O1290 O 0.56206 0.39016 0.28354 0.0
C1291 C 0.58256 0.36051 0.31554 0.0
O1292 O 0.5905 0.39677 0.30752 0.0
Co1293 Co 0.61665 0.36833 0.30355 0.0
O1294 O 0.61435 0.38752 0.3194 0.0
C1295 C 0.6101 0.38078 0.26937 0.0
C1296 C 0.55818 0.37603 0.27619 0.0
C1297 C 0.60293 0.39862 0.31771 0.0
O1298 O 0.59494 0.38383 0.27381 0.0
O1299 O 0.62076 0.3736 0.27906 0.0
O1300 O 0.56906 0.3694 0.31333 0.0
O1301 O 0.59342 0.36101 0.30345 0.0
Co1302 Co 0.1307 0.83432 0.956 0.0
O1303 O 0.11551 0.82169 0.96975 0.0
O1304 O 0.14307 0.81827 0.96956 0.0
C1305 C 0.11579 0.83211 0.93219 0.0
O1306 O 0.15004 0.84495 0.94274 0.0
Co1307 Co 0.11852 0.86794 0.94001 0.0
O1308 O 0.13897 0.86503 0.92609 0.0
C1309 C 0.12871 0.86736 0.97568 0.0
C1310 C 0.1285 0.81372 0.97542 0.0
C1311 C 0.15123 0.85578 0.93066 0.0
O1312 O 0.13309 0.85185 0.97412 0.0
O1313 O 0.12167 0.87577 0.96386 0.0
O1314 O 0.12567 0.81993 0.93674 0.0
O1315 O 0.11405 0.84421 0.94291 0.0
Co1316 Co 0.41608 0.88111 0.20208 0.0
O1317 O 0.43082 0.86606 0.21382 0.0
O1318 O 0.43301 0.89396 0.21364 0.0
C1319 C 0.4154 0.86669 0.17797 0.0
O1320 O 0.4039 0.90064 0.19092 0.0
Co1321 Co 0.38098 0.86998 0.19009 0.0
O1322 O 0.38214 0.89068 0.17603 0.0
C1323 C 0.38616 0.87822 0.22585 0.0
C1324 C 0.43867 0.87949 0.21881 0.0
C1325 C 0.39211 0.90255 0.18004 0.0
O1326 O 0.40125 0.8826 0.22237 0.0
O1327 O 0.37607 0.87206 0.21491 0.0
O1328 O 0.42778 0.87688 0.18109 0.0
O1329 O 0.40471 0.86444 0.19 0.0
Co1330 Co 0.08145 0.11727 0.69991 0.0
O1331 O 0.06919 0.13265 0.7139 0.0
O1332 O 0.06306 0.1056 0.71044 0.0
C1333 C 0.08354 0.13412 0.67743 0.0
O1334 O 0.09078 0.0977 0.6861 0.0
Co1335 Co 0.11762 0.12541 0.68835 0.0
O1336 O 0.11405 0.10629 0.6727 0.0
C1337 C 0.11189 0.11359 0.72293 0.0
C1338 C 0.05956 0.11997 0.7175 0.0
C1339 C 0.10259 0.09541 0.67526 0.0
O1340 O 0.09632 0.11153 0.71943 0.0
O1341 O 0.12258 0.11959 0.71252 0.0
O1342 O 0.06993 0.12553 0.68008 0.0
O1343 O 0.09469 0.13356 0.68925 0.0
H1344 H 0.08144 0.16814 0.34157 0.0
H1345 H 0.05946 0.20493 0.308 0.0
H1346 H 0.09898 0.18997 0.35389 0.0
H1347 H 0.07681 0.22681 0.3206 0.0
H1348 H 0.11627 0.26189 0.34037 0.0
H1349 H 0.10525 0.23764 0.32505 0.0
H1350 H 0.0928 0.21361 0.37226 0.0
H1351 H 0.10405 0.23753 0.38755 0.0
C1352 C 0.0804 0.18086 0.33674 0.0
C1353 C 0.06885 0.18484 0.32395 0.0
C1354 C 0.09045 0.19337 0.34383 0.0
C1355 C 0.08918 0.21013 0.33832 0.0
C1356 C 0.07821 0.21397 0.325 0.0
C1357 C 0.06818 0.20145 0.31786 0.0
C1358 C 0.11149 0.25129 0.34749 0.0
C1359 C 0.11088 0.25174 0.3652 0.0
C1360 C 0.10507 0.23746 0.3387 0.0
C1361 C 0.09803 0.22379 0.34744 0.0
C1362 C 0.09827 0.22386 0.36514 0.0
C1363 C 0.10463 0.23766 0.37391 0.0
H1364 H 0.98779 0.8469 0.60161 0.0
H1365 H 0.00787 0.86865 0.64713 0.0
H1366 H 0.01539 0.83552 0.59469 0.0
H1367 H 0.03564 0.85848 0.63977 0.0
H1368 H 0.07612 0.81949 0.63608 0.0
H1369 H 0.0494 0.83314 0.64043 0.0
H1370 H 0.04339 0.83856 0.58651 0.0
H1371 H 0.06997 0.82382 0.58222 0.0
C1372 C -0.00174 0.84964 0.60986 0.0
C1373 C 0.99575 0.85846 0.62497 0.0
C1374 C 0.01411 0.84317 0.6059 0.0
C1375 C 0.02779 0.84574 0.61683 0.0
C1376 C 0.02536 0.85567 0.63134 0.0
C1377 C 0.00948 0.86169 0.6355 0.0
C1378 C 0.06913 0.82363 0.62514 0.0
C1379 C 0.07517 0.82063 0.60881 0.0
C1380 C 0.05381 0.83165 0.62762 0.0
C1381 C 0.04422 0.83728 0.61385 0.0
C1382 C 0.0503 0.83429 0.59744 0.0
C1383 C 0.06556 0.82591 0.59495 0.0
H1384 H 0.38137 0.73192 0.84249 0.0
H1385 H 0.39566 0.75363 0.89038 0.0
H1386 H 0.39353 0.75607 0.82795 0.0
H1387 H 0.40798 0.77752 0.87581 0.0
H1388 H 0.41852 0.82428 0.84593 0.0
H1389 H 0.40147 0.80213 0.85835 0.0
H1390 H 0.42255 0.7661 0.82352 0.0
H1391 H 0.43949 0.78827 0.81086 0.0
C1392 C 0.3869 0.74191 0.84994 0.0
C1393 C 0.38765 0.74077 0.86761 0.0
C1394 C 0.39396 0.75568 0.84158 0.0
C1395 C 0.40179 0.76861 0.85074 0.0
C1396 C 0.4019 0.76782 0.86842 0.0
C1397 C 0.39492 0.75405 0.87676 0.0
C1398 C 0.41947 0.81167 0.84081 0.0
C1399 C 0.43054 0.80802 0.8275 0.0
C1400 C 0.4097 0.79899 0.84797 0.0
C1401 C 0.41076 0.78238 0.84198 0.0
C1402 C 0.42135 0.77883 0.82829 0.0
C1403 C 0.43114 0.79152 0.82111 0.0
H1404 H 0.50413 0.13261 0.10127 0.0
H1405 H 0.49033 0.1391 0.15355 0.0
H1406 H 0.47637 0.14259 0.09273 0.0
H1407 H 0.46291 0.14917 0.14502 0.0
H1408 H 0.4105 0.15406 0.12649 0.0
H1409 H 0.43687 0.13976 0.13182 0.0
H1410 H 0.46088 0.16996 0.09353 0.0
H1411 H 0.43431 0.18424 0.08795 0.0
C1412 C 0.49514 0.13596 0.11093 0.0
C1413 C 0.49948 0.1351 0.12809 0.0
C1414 C 0.47931 0.14179 0.10602 0.0
C1415 C 0.46747 0.14668 0.11819 0.0
C1416 C 0.47166 0.14531 0.13533 0.0
C1417 C 0.48746 0.13963 0.14022 0.0
C1418 C 0.42134 0.15761 0.11907 0.0
C1419 C 0.42032 0.17051 0.10696 0.0
C1420 C 0.43647 0.14941 0.12217 0.0
C1421 C 0.45101 0.15388 0.11326 0.0
C1422 C 0.44987 0.16618 0.10055 0.0
C1423 C 0.43466 0.17441 0.09742 0.0
H1424 H 0.08089 0.82696 0.1461 0.0
H1425 H 0.06714 0.78971 0.18342 0.0
H1426 H 0.10024 0.80697 0.13337 0.0
H1427 H 0.08633 0.76972 0.1705 0.0
H1428 H 0.10715 0.75698 0.10245 0.0
H1429 H 0.09548 0.78117 0.11703 0.0
H1430 H 0.11581 0.76295 0.16406 0.0
H1431 H 0.12732 0.7385 0.14954 0.0
C1432 C 0.08207 0.81457 0.15169 0.0
C1433 C 0.07226 0.80986 0.16565 0.0
C1434 C 0.09317 0.80313 0.14437 0.0
C1435 C 0.09475 0.78677 0.15088 0.0
C1436 C 0.08555 0.78231 0.16531 0.0
C1437 C 0.07442 0.79373 0.17263 0.0
C1438 C 0.10946 0.75827 0.11584 0.0
C1439 C 0.11791 0.74562 0.12487 0.0
C1440 C 0.10284 0.77222 0.12419 0.0
C1441 C 0.10453 0.77382 0.14174 0.0
C1442 C 0.11409 0.76187 0.15057 0.0
C1443 C 0.12077 0.74793 0.1422 0.0
H1444 H 0.43251 0.80989 0.40857 0.0
H1445 H 0.40912 0.84182 0.37124 0.0
H1446 H 0.45935 0.82376 0.40328 0.0
H1447 H 0.43576 0.85575 0.36622 0.0
H1448 H 0.48888 0.85587 0.34389 0.0
H1449 H 0.46135 0.84617 0.35245 0.0
H1450 H 0.47566 0.85058 0.40475 0.0
H1451 H 0.50356 0.86017 0.39616 0.0
C1452 C 0.43301 0.82002 0.39945 0.0
C1453 C 0.41871 0.82453 0.39013 0.0
C1454 C 0.44838 0.82803 0.39648 0.0
C1455 C 0.44971 0.8407 0.38417 0.0
C1456 C 0.43521 0.84579 0.37554 0.0
C1457 C 0.41992 0.83781 0.37846 0.0
C1458 C 0.48619 0.85492 0.35724 0.0
C1459 C 0.49848 0.85874 0.36934 0.0
C1460 C 0.47032 0.84946 0.36215 0.0
C1461 C 0.46631 0.84763 0.37929 0.0
C1462 C 0.47844 0.85176 0.39145 0.0
C1463 C 0.49436 0.85737 0.38652 0.0
H1464 H 0.39431 0.24035 0.60563 0.0
H1465 H 0.383 0.26466 0.65308 0.0
H1466 H 0.40628 0.21662 0.6207 0.0
H1467 H 0.39478 0.24065 0.66815 0.0
H1468 H 0.41706 0.17094 0.65171 0.0
H1469 H 0.39992 0.19304 0.63938 0.0
H1470 H 0.42344 0.22971 0.67191 0.0
H1471 H 0.44046 0.20757 0.68452 0.0
C1472 C 0.39412 0.24053 0.61928 0.0
C1473 C 0.38783 0.2545 0.62813 0.0
C1474 C 0.40089 0.22685 0.62793 0.0
C1475 C 0.40154 0.22682 0.64561 0.0
C1476 C 0.39462 0.24044 0.65451 0.0
C1477 C 0.38778 0.25413 0.64585 0.0
C1478 C 0.41851 0.18368 0.65637 0.0
C1479 C 0.4303 0.18751 0.66898 0.0
C1480 C 0.40869 0.19634 0.64926 0.0
C1481 C 0.41044 0.21312 0.65457 0.0
C1482 C 0.4217 0.21687 0.66766 0.0
C1483 C 0.43153 0.20418 0.67481 0.0
H1484 H 0.06337 0.18545 0.90692 0.0
H1485 H 0.08589 0.15426 0.86843 0.0
H1486 H 0.03622 0.17226 0.9014 0.0
H1487 H 0.05894 0.14103 0.86316 0.0
H1488 H 0.00586 0.14262 0.84115 0.0
H1489 H 0.03345 0.15192 0.84989 0.0
H1490 H 0.0195 0.14546 0.90207 0.0
H1491 H 0.99152 0.13624 0.8933 0.0
C1492 C 0.06261 0.17561 0.8975 0.0
C1493 C 0.07675 0.17113 0.88792 0.0
C1494 C 0.04707 0.16801 0.8944 0.0
C1495 C 0.04542 0.15578 0.88169 0.0
C1496 C 0.05975 0.15067 0.8728 0.0
C1497 C 0.07521 0.15825 0.87585 0.0
C1498 C 0.00862 0.14308 0.8545 0.0
C1499 C 0.99642 0.13873 0.86652 0.0
C1500 C 0.02452 0.14829 0.85951 0.0
C1501 C 0.02868 0.14936 0.87667 0.0
C1502 C 0.0166 0.14484 0.88875 0.0
C1503 C 0.00064 0.13947 0.88372 0.0
H1504 H 0.33917 0.06351 0.18912 0.0
H1505 H 0.37758 0.09238 0.16374 0.0
H1506 H 0.34579 0.07795 0.21546 0.0
H1507 H 0.38393 0.10691 0.18991 0.0
H1508 H 0.40698 0.10739 0.24309 0.0
H1509 H 0.39752 0.09755 0.21577 0.0
H1510 H 0.34606 0.10531 0.23076 0.0
H1511 H 0.35553 0.11499 0.25843 0.0
C1512 C 0.34884 0.07309 0.18908 0.0
C1513 C 0.35803 0.07657 0.17438 0.0
C1514 C 0.35256 0.08143 0.20416 0.0
C1515 C 0.36551 0.09343 0.20479 0.0
C1516 C 0.3741 0.0975 0.18989 0.0
C1517 C 0.37042 0.08916 0.17488 0.0
C1518 C 0.39364 0.10717 0.24057 0.0
C1519 C 0.38201 0.11189 0.25301 0.0
C1520 C 0.38822 0.10163 0.22483 0.0
C1521 C 0.37104 0.10065 0.22111 0.0
C1522 C 0.35938 0.1058 0.23334 0.0
C1523 C 0.36482 0.11145 0.24913 0.0
H1524 H 0.14398 0.0895 0.51829 0.0
H1525 H 0.1267 0.1299 0.48636 0.0
H1526 H 0.1562 0.07546 0.49403 0.0
H1527 H 0.13772 0.11531 0.46175 0.0
H1528 H 0.18077 0.10002 0.42773 0.0
H1529 H 0.1637 0.11135 0.45018 0.0
H1530 H 0.15488 0.06089 0.46891 0.0
H1531 H 0.17307 0.04969 0.44688 0.0
C1532 C 0.14232 0.09507 0.50594 0.0
C1533 C 0.13459 0.11083 0.50414 0.0
C1534 C 0.14926 0.08698 0.49197 0.0
C1535 C 0.14824 0.09433 0.47585 0.0
C1536 C 0.13928 0.10951 0.47399 0.0
C1537 C 0.13279 0.11782 0.48804 0.0
C1538 C 0.17509 0.09133 0.43658 0.0
C1539 C 0.17832 0.07399 0.43563 0.0
C1540 C 0.16511 0.09781 0.44941 0.0
C1541 C 0.15775 0.08708 0.46143 0.0
C1542 C 0.16055 0.06961 0.46011 0.0
C1543 C 0.17091 0.06315 0.44745 0.0
H1544 H 0.1166 0.90473 0.66297 0.0
H1545 H 0.15469 0.93512 0.68704 0.0
H1546 H 0.11154 0.89019 0.68942 0.0
H1547 H 0.14936 0.92065 0.71365 0.0
H1548 H 0.14219 0.8827 0.75678 0.0
H1549 H 0.15055 0.89305 0.72893 0.0
H1550 H 0.09847 0.89959 0.71566 0.0
H1551 H 0.09013 0.88914 0.74308 0.0
C1552 C 0.12394 0.9083 0.67388 0.0
C1553 C 0.13586 0.92131 0.67293 0.0
C1554 C 0.12102 0.89995 0.68904 0.0
C1555 C 0.12992 0.90441 0.70364 0.0
C1556 C 0.14238 0.91687 0.70257 0.0
C1557 C 0.14534 0.92524 0.68735 0.0
C1558 C 0.13255 0.88618 0.74782 0.0
C1559 C 0.1155 0.88518 0.75218 0.0
C1560 C 0.13735 0.89219 0.73194 0.0
C1561 C 0.12516 0.8971 0.72013 0.0
C1562 C 0.10815 0.89569 0.72439 0.0
C1563 C 0.10338 0.88982 0.7402 0.0
H1564 H 0.3067 0.93214 0.95735 0.0
H1565 H 0.32812 0.89823 0.92051 0.0
H1566 H 0.32457 0.91993 0.979 0.0
H1567 H 0.34616 0.88629 0.94214 0.0
H1568 H 0.35352 0.85392 0.99036 0.0
H1569 H 0.34109 0.86834 0.96648 0.0
H1570 H 0.35356 0.91639 0.98875 0.0
H1571 H 0.36577 0.90197 0.01293 0.0
C1572 C 0.31536 0.92225 0.95381 0.0
C1573 C 0.3158 0.91602 0.93724 0.0
C1574 C 0.3257 0.91534 0.9662 0.0
C1575 C 0.33672 0.9021 0.96227 0.0
C1576 C 0.33762 0.89632 0.94558 0.0
C1577 C 0.32728 0.90319 0.9332 0.0
C1578 C 0.35386 0.86756 0.9901 0.0
C1579 C 0.36047 0.87678 0.00369 0.0
C1580 C 0.34681 0.87583 0.97633 0.0
C1581 C 0.34621 0.8935 0.97581 0.0
C1582 C 0.35362 0.90275 0.98894 0.0
C1583 C 0.36073 0.89447 0.00273 0.0
H1584 H 0.34021 0.93148 0.30678 0.0
H1585 H 0.37587 0.89977 0.33276 0.0
H1586 H 0.34574 0.91627 0.28066 0.0
H1587 H 0.3811 0.88442 0.30678 0.0
H1588 H 0.40514 0.88375 0.25374 0.0
H1589 H 0.3958 0.89289 0.28131 0.0
H1590 H 0.34425 0.88921 0.26508 0.0
H1591 H 0.35366 0.88023 0.23712 0.0
C1592 C 0.34901 0.92111 0.307 0.0
C1593 C 0.35785 0.91708 0.32178 0.0
C1594 C 0.35208 0.9123 0.29206 0.0
C1595 C 0.36399 0.89926 0.29164 0.0
C1596 C 0.37208 0.89461 0.30665 0.0
C1597 C 0.36907 0.90342 0.32153 0.0
C1598 C 0.39179 0.88468 0.25605 0.0
C1599 C 0.38015 0.88143 0.24317 0.0
C1600 C 0.38643 0.88979 0.27193 0.0
C1601 C 0.36928 0.89182 0.27536 0.0
C1602 C 0.35756 0.8879 0.26273 0.0
C1603 C 0.36294 0.88265 0.24678 0.0
H1604 H 0.33231 0.09406 0.57812 0.0
H1605 H 0.315 0.05707 0.54207 0.0
H1606 H 0.35039 0.10636 0.55669 0.0
H1607 H 0.33285 0.0696 0.52062 0.0
H1608 H 0.37194 0.09051 0.48626 0.0
H1609 H 0.36136 0.07572 0.51101 0.0
H1610 H 0.34407 0.12294 0.53172 0.0
H1611 H 0.35487 0.13776 0.50729 0.0
C1612 C 0.33245 0.08845 0.56568 0.0
C1613 C 0.322 0.07473 0.56174 0.0
C1614 C 0.34281 0.09553 0.55341 0.0
C1615 C 0.34292 0.08906 0.53693 0.0
C1616 C 0.33317 0.07478 0.53324 0.0
C1617 C 0.32284 0.06767 0.54553 0.0
C1618 C 0.36619 0.09778 0.49625 0.0
C1619 C 0.36406 0.1153 0.49468 0.0
C1620 C 0.36005 0.08928 0.51038 0.0
C1621 C 0.35175 0.09814 0.52323 0.0
C1622 C 0.35053 0.11576 0.52211 0.0
C1623 C 0.35662 0.12424 0.50801 0.0
H1624 H 0.16044 0.07197 0.81301 0.0
H1625 H 0.10698 0.06803 0.82027 0.0
H1626 H 0.15581 0.08681 0.78645 0.0
H1627 H 0.10225 0.08177 0.79344 0.0
H1628 H 0.09575 0.11857 0.75241 0.0
H1629 H 0.10303 0.10735 0.77994 0.0
H1630 H 0.1472 0.08407 0.75848 0.0
H1631 H 0.14037 0.09647 0.73117 0.0
C1632 C 0.14771 0.07413 0.8088 0.0
C1633 C 0.13407 0.06896 0.8187 0.0
C1634 C 0.14503 0.08256 0.79355 0.0
C1635 C 0.12864 0.08569 0.78777 0.0
C1636 C 0.11505 0.08013 0.79763 0.0
C1637 C 0.11774 0.07208 0.81299 0.0
C1638 C 0.10716 0.11127 0.75371 0.0
C1639 C 0.11748 0.10829 0.73975 0.0
C1640 C 0.11126 0.10466 0.76943 0.0
C1641 C 0.12552 0.09442 0.77145 0.0
C1642 C 0.1362 0.09198 0.75752 0.0
C1643 C 0.13229 0.09902 0.74184 0.0
H1644 H 0.1847 0.93463 0.03704 0.0
H1645 H 0.16619 0.89919 0.07404 0.0
H1646 H 0.16707 0.92156 0.0157 0.0
H1647 H 0.14839 0.88634 0.05271 0.0
H1648 H 0.12641 0.90117 0.98243 0.0
H1649 H 0.13818 0.91618 0.00648 0.0
H1650 H 0.15415 0.86889 0.02808 0.0
H1651 H 0.14218 0.85385 0.00432 0.0
C1652 C 0.1767 0.92423 0.0407 0.0
C1653 C 0.17705 0.91783 0.05721 0.0
C1654 C 0.1665 0.9168 0.02848 0.0
C1655 C 0.15641 0.90286 0.03251 0.0
C1656 C 0.15622 0.89692 0.04917 0.0
C1657 C 0.16642 0.90432 0.06139 0.0
C1658 C 0.13214 0.89393 0.99246 0.0
C1659 C 0.13349 0.87629 0.99134 0.0
C1660 C 0.13899 0.90256 0.00617 0.0
C1661 C 0.14723 0.89373 0.01908 0.0
C1662 C 0.14776 0.87605 0.01841 0.0
C1663 C 0.14097 0.86743 0.0047 0.0
H1664 H 0.23853 0.39616 0.11886 0.0
H1665 H 0.25811 0.35069 0.0966 0.0
H1666 H 0.21057 0.38891 0.10913 0.0
H1667 H 0.23033 0.34389 0.08563 0.0
H1668 H 0.17579 0.33145 0.07446 0.0
H1669 H 0.20249 0.33572 0.08895 0.0
H1670 H 0.19615 0.38966 0.08422 0.0
H1671 H 0.16927 0.3853 0.07084 0.0
C1672 C 0.23676 0.38455 0.11189 0.0
C1673 C 0.2504 0.374 0.1084 0.0
C1674 C 0.22077 0.38046 0.10611 0.0
C1675 C 0.21813 0.366 0.09617 0.0
C1676 C 0.23175 0.35506 0.09332 0.0
C1677 C 0.24771 0.35895 0.09955 0.0
C1678 C 0.18015 0.34419 0.07665 0.0
C1679 C 0.17042 0.35804 0.07162 0.0
C1680 C 0.19549 0.34666 0.08489 0.0
C1681 C 0.20154 0.36306 0.08797 0.0
C1682 C 0.19179 0.37684 0.08265 0.0
C1683 C 0.17638 0.37437 0.07478 0.0
H1684 H 0.66302 0.11707 0.90438 0.0
H1685 H 0.68568 0.15659 0.93417 0.0
H1686 H 0.68991 0.11133 0.89127 0.0
H1687 H 0.71276 0.15061 0.92108 0.0
H1688 H 0.75678 0.14214 0.88427 0.0
H1689 H 0.72897 0.15077 0.89403 0.0
H1690 H 0.71576 0.0986 0.9019 0.0
H1691 H 0.74322 0.08997 0.89205 0.0
C1692 C 0.67371 0.12459 0.90811 0.0
C1693 C 0.67221 0.13714 0.92054 0.0
C1694 C 0.68915 0.12126 0.90059 0.0
C1695 C 0.7035 0.13036 0.9053 0.0
C1696 C 0.7019 0.14343 0.91715 0.0
C1697 C 0.6864 0.14679 0.9247 0.0
C1698 C 0.74787 0.13252 0.88794 0.0
C1699 C 0.75226 0.11536 0.8874 0.0
C1700 C 0.732 0.13748 0.89362 0.0
C1701 C 0.72018 0.12537 0.8987 0.0
C1702 C 0.7245 0.10824 0.89787 0.0
C1703 C 0.74032 0.1033 0.89233 0.0
H1704 H 0.13024 0.41203 0.15439 0.0
H1705 H 0.091 0.4391 0.18046 0.0
H1706 H 0.13711 0.43737 0.13856 0.0
H1707 H 0.09811 0.46448 0.1648 0.0
H1708 H 0.10769 0.50532 0.12652 0.0
H1709 H 0.09859 0.47771 0.13665 0.0
H1710 H 0.15014 0.4641 0.14617 0.0
H1711 H 0.15924 0.49137 0.13585 0.0
C1712 C 0.12306 0.42336 0.15675 0.0
C1713 C 0.11021 0.42358 0.16888 0.0
C1714 C 0.12701 0.43787 0.14767 0.0
C1715 C 0.1182 0.45293 0.15049 0.0
C1716 C 0.105 0.45302 0.1622 0.0
C1717 C 0.10104 0.4385 0.1713 0.0
C1718 C 0.11709 0.49632 0.13049 0.0
C1719 C 0.13417 0.50062 0.13055 0.0
C1720 C 0.11186 0.48056 0.13639 0.0
C1721 C 0.12364 0.46881 0.14233 0.0
C1722 C 0.14076 0.47282 0.14156 0.0
C1723 C 0.14596 0.48853 0.13575 0.0
H1724 H 0.75526 0.90261 0.39154 0.0
H1725 H 0.74147 0.85033 0.38504 0.0
H1726 H 0.78288 0.89413 0.401 0.0
H1727 H 0.76946 0.84183 0.3944 0.0
H1728 H 0.81292 0.8371 0.43467 0.0
H1729 H 0.78588 0.84251 0.42125 0.0
H1730 H 0.80863 0.88118 0.39056 0.0
H1731 H 0.83547 0.87603 0.40403 0.0
C1732 C 0.75815 0.88928 0.39199 0.0
C1733 C 0.74609 0.87715 0.38758 0.0
C1734 C 0.77407 0.88442 0.3973 0.0
C1735 C 0.77838 0.8673 0.39841 0.0
C1736 C 0.76645 0.85512 0.39377 0.0
C1737 C 0.75047 0.85999 0.38832 0.0
C1738 C 0.81219 0.84661 0.42491 0.0
C1739 C 0.82631 0.85632 0.42065 0.0
C1740 C 0.79672 0.84964 0.41716 0.0
C1741 C 0.79509 0.86243 0.40501 0.0
C1742 C 0.80941 0.87148 0.40013 0.0
C1743 C 0.82482 0.86849 0.40785 0.0
H1744 H 0.86479 0.08209 0.15514 0.0
H1745 H 0.90429 0.05772 0.18338 0.0
H1746 H 0.8595 0.05599 0.14006 0.0
H1747 H 0.89874 0.03147 0.16838 0.0
H1748 H 0.89171 0.98956 0.12957 0.0
H1749 H 0.89955 0.01734 0.14039 0.0
H1750 H 0.84729 0.02903 0.14838 0.0
H1751 H 0.83945 0.00162 0.13743 0.0
C1752 C 0.87237 0.07119 0.15814 0.0
C1753 C 0.88482 0.07196 0.17067 0.0
C1754 C 0.86931 0.05622 0.14948 0.0
C1755 C 0.8786 0.04165 0.15313 0.0
C1756 C 0.89146 0.04253 0.1652 0.0
C1757 C 0.89454 0.05754 0.17389 0.0
C1758 C 0.88191 -0.00183 0.13341 0.0
C1759 C 0.86497 0.99333 0.13272 0.0
C1760 C 0.88641 0.01401 0.13972 0.0
C1761 C 0.87404 0.02533 0.14527 0.0
C1762 C 0.85711 0.02067 0.14403 0.0
C1763 C 0.85263 0.00488 0.13785 0.0
H1764 H 0.25549 0.59027 0.6041 0.0
H1765 H 0.24255 0.64286 0.60971 0.0
H1766 H 0.2831 0.59814 0.59414 0.0
H1767 H 0.27057 0.65075 0.59988 0.0
H1768 H 0.31336 0.65448 0.55905 0.0
H1769 H 0.28652 0.64953 0.57299 0.0
H1770 H 0.30927 0.61068 0.60345 0.0
H1771 H 0.33591 0.61537 0.58941 0.0
C1772 C 0.25858 0.60354 0.60339 0.0
C1773 C 0.24673 0.61594 0.60765 0.0
C1774 C 0.27451 0.60805 0.59778 0.0
C1775 C 0.27906 0.62508 0.59624 0.0
C1776 C 0.26737 0.63753 0.60082 0.0
C1777 C 0.25138 0.633 0.60656 0.0
C1778 C 0.31268 0.64501 0.56884 0.0
C1779 C 0.32674 0.63514 0.57289 0.0
C1780 C 0.29731 0.64224 0.5769 0.0
C1781 C 0.29572 0.62957 0.58919 0.0
C1782 C 0.30999 0.6203 0.5938 0.0
C1783 C 0.32529 0.62303 0.58575 0.0
H1784 H 0.08981 0.55563 0.31194 0.0
H1785 H 0.12776 0.58065 0.34174 0.0
H1786 H 0.0954 0.52939 0.32693 0.0
H1787 H 0.13307 0.55455 0.35683 0.0
H1788 H 0.1551 0.50087 0.35798 0.0
H1789 H 0.14644 0.52837 0.34801 0.0
H1790 H 0.09451 0.51438 0.35447 0.0
H1791 H 0.10321 0.48649 0.36431 0.0
C1792 C 0.09916 0.55561 0.32183 0.0
C1793 C 0.10855 0.57017 0.32541 0.0
C1794 C 0.10227 0.5406 0.3305 0.0
C1795 C 0.11479 0.53988 0.34294 0.0
C1796 C 0.12355 0.55465 0.3471 0.0
C1797 C 0.12049 0.56961 0.33843 0.0
C1798 C 0.14182 0.50364 0.35744 0.0
C1799 C 0.12984 0.49142 0.36182 0.0
C1800 C 0.13686 0.51949 0.35185 0.0
C1801 C 0.11979 0.52354 0.35044 0.0
C1802 C 0.10776 0.51154 0.3553 0.0
C1803 C 0.11275 0.49563 0.36103 0.0
H1804 H 0.38749 0.50783 0.85979 0.0
H1805 H 0.3356 0.4958 0.84957 0.0
H1806 H 0.39576 0.48013 0.84917 0.0
H1807 H 0.3439 0.46849 0.83877 0.0
H1808 H 0.3621 0.41514 0.83358 0.0
H1809 H 0.35556 0.44154 0.84767 0.0
H1810 H 0.39634 0.46588 0.82144 0.0
H1811 H 0.40314 0.4394 0.80751 0.0
C1812 C 0.37785 0.49928 0.8554 0.0
C1813 C 0.3609 0.50409 0.85545 0.0
C1814 C 0.3826 0.48347 0.84923 0.0
C1815 C 0.37048 0.47216 0.84311 0.0
C1816 C 0.35353 0.47683 0.84358 0.0
C1817 C 0.34879 0.49258 0.84966 0.0
C1818 C 0.36973 0.42608 0.83082 0.0
C1819 C 0.38305 0.42517 0.81926 0.0
C1820 C 0.36595 0.44122 0.8389 0.0
C1821 C 0.37539 0.4558 0.8356 0.0
C1822 C 0.38895 0.45482 0.82437 0.0
C1823 C 0.39275 0.43966 0.81628 0.0
H1824 H 0.88816 0.74019 0.64375 0.0
H1825 H 0.89493 0.75317 0.59126 0.0
H1826 H 0.89797 0.76828 0.65184 0.0
H1827 H 0.90481 0.78089 0.59936 0.0
H1828 H 0.90658 0.83421 0.6171 0.0
H1829 H 0.89387 0.80689 0.612 0.0
H1830 H 0.92482 0.78492 0.65084 0.0
H1831 H 0.93752 0.81244 0.65618 0.0
C1832 C 0.89164 0.74902 0.63395 0.0
C1833 C 0.89075 0.7444 0.61685 0.0
C1834 C 0.89735 0.76505 0.6386 0.0
C1835 C 0.90209 0.7768 0.62623 0.0
C1836 C 0.90102 0.77221 0.60918 0.0
C1837 C 0.89545 0.75624 0.60455 0.0
C1838 C 0.91065 0.82362 0.62467 0.0
C1839 C 0.92327 0.8255 0.63689 0.0
C1840 C 0.90337 0.80794 0.6217 0.0
C1841 C 0.90851 0.79372 0.63086 0.0
C1842 C 0.92056 0.79568 0.64363 0.0
C1843 C 0.92789 0.81143 0.64662 0.0
H1844 H 0.97695 0.15217 0.31643 0.0
H1845 H 0.00801 0.15322 0.36098 0.0
H1846 H 0.95219 0.15663 0.33367 0.0
H1847 H 0.98294 0.15788 0.37841 0.0
H1848 H 0.9347 0.19223 0.39286 0.0
H1849 H 0.96132 0.18234 0.38109 0.0
H1850 H 0.93541 0.14172 0.35604 0.0
H1851 H 0.90895 0.15148 0.36767 0.0
C1852 C 0.97847 0.15324 0.32995 0.0
C1853 C 0.99444 0.15241 0.33733 0.0
C1854 C 0.96425 0.15568 0.33985 0.0
C1855 C 0.96562 0.15755 0.3574 0.0
C1856 C 0.98155 0.1565 0.3649 0.0
C1857 C 0.99584 0.15375 0.35496 0.0
C1858 C 0.93475 0.18093 0.38522 0.0
C1859 C 0.91963 0.17286 0.38094 0.0
C1860 C 0.95 0.17526 0.3785 0.0
C1861 C 0.95036 0.16145 0.3674 0.0
C1862 C 0.93545 0.15259 0.3643 0.0
C1863 C 0.92029 0.1582 0.37099 0.0
H1864 H 0.56046 0.18218 0.15508 0.0
H1865 H 0.58787 0.15881 0.1143 0.0
H1866 H 0.57428 0.20894 0.149 0.0
H1867 H 0.60178 0.18541 0.10847 0.0
H1868 H 0.60345 0.23986 0.08875 0.0
H1869 H 0.59287 0.2123 0.09665 0.0
H1870 H 0.60166 0.22373 0.14912 0.0
H1871 H 0.61207 0.25161 0.14125 0.0
C1872 C 0.56952 0.18269 0.14493 0.0
C1873 C 0.57286 0.16837 0.13505 0.0
C1874 C 0.57752 0.198 0.14153 0.0
C1875 C 0.58903 0.19931 0.12817 0.0
C1876 C 0.59276 0.18487 0.11866 0.0
C1877 C 0.58479 0.1696 0.12205 0.0
C1878 C 0.60326 0.23652 0.10199 0.0
C1879 C 0.60854 0.24802 0.11437 0.0
C1880 C 0.59729 0.22064 0.1065 0.0
C1881 C 0.5964 0.21584 0.12352 0.0
C1882 C 0.60203 0.22715 0.13591 0.0
C1883 C 0.60811 0.24306 0.13139 0.0
H1884 H 0.56091 0.80268 0.8955 0.0
H1885 H 0.58763 0.84399 0.87236 0.0
H1886 H 0.53463 0.81344 0.88375 0.0
H1887 H 0.5615 0.85465 0.86075 0.0
H1888 H 0.52082 0.84512 0.81964 0.0
H1889 H 0.54519 0.84073 0.83748 0.0
H1890 H 0.51323 0.83796 0.88129 0.0
H1891 H 0.48859 0.84256 0.86327 0.0
C1892 C 0.56113 0.81431 0.88836 0.0
C1893 C 0.57642 0.82227 0.88458 0.0
C1894 C 0.54607 0.82048 0.88165 0.0
C1895 C 0.54608 0.8347 0.87107 0.0
C1896 C 0.56116 0.84348 0.86859 0.0
C1897 C 0.57613 0.83736 0.87527 0.0
C1898 C 0.51897 0.84382 0.8331 0.0
C1899 C 0.5028 0.84413 0.84005 0.0
C1900 C 0.53295 0.84141 0.84335 0.0
C1901 C 0.53112 0.83903 0.8608 0.0
C1902 C 0.51498 0.83973 0.86788 0.0
C1903 C 0.50093 0.84247 0.85759 0.0
H1904 H 0.93641 0.18382 0.83635 0.0
H1905 H 0.90593 0.16072 0.87503 0.0
H1906 H 0.92306 0.21093 0.84205 0.0
H1907 H 0.89253 0.18765 0.88047 0.0
H1908 H 0.89272 0.24117 0.90212 0.0
H1909 H 0.90269 0.2136 0.89359 0.0
H1910 H 0.89622 0.22716 0.84129 0.0
H1911 H 0.88637 0.25508 0.84983 0.0
C1912 C 0.92672 0.18445 0.84588 0.0
C1913 C 0.92245 0.17014 0.85542 0.0
C1914 C 0.91902 0.19997 0.84908 0.0
C1915 C 0.9069 0.20145 0.86186 0.0
C1916 C 0.90207 0.18697 0.87078 0.0
C1917 C 0.90974 0.17152 0.86762 0.0
C1918 C 0.89333 0.23832 0.88878 0.0
C1919 C 0.88878 0.2504 0.87666 0.0
C1920 C 0.89893 0.22243 0.8839 0.0
C1921 C 0.90018 0.21818 0.86677 0.0
C1922 C 0.89548 0.23014 0.85459 0.0
C1923 C 0.88975 0.24607 0.85949 0.0
H1924 H 0.48908 0.15398 0.63172 0.0
H1925 H 0.52102 0.1512 0.67555 0.0
H1926 H 0.51392 0.15808 0.61382 0.0
H1927 H 0.54555 0.15511 0.65785 0.0
H1928 H 0.58809 0.15015 0.62325 0.0
H1929 H 0.56162 0.14047 0.63495 0.0
H1930 H 0.53601 0.18196 0.61107 0.0
H1931 H 0.56263 0.19174 0.5992 0.0
C1932 C 0.50139 0.15397 0.63747 0.0
C1933 C 0.50312 0.15234 0.65504 0.0
C1934 C 0.51556 0.15641 0.62726 0.0
C1935 C 0.53167 0.15686 0.63443 0.0
C1936 C 0.53334 0.15462 0.65191 0.0
C1937 C 0.51926 0.15249 0.66208 0.0
C1938 C 0.5768 0.15706 0.62017 0.0
C1939 C 0.57755 0.17193 0.61056 0.0
C1940 C 0.56163 0.1515 0.62691 0.0
C1941 C 0.54681 0.16064 0.6242 0.0
C1942 C 0.54725 0.17466 0.61337 0.0
C1943 C 0.5625 0.18027 0.60659 0.0
H1944 H 0.55708 0.81195 0.33941 0.0
H1945 H 0.5877 0.83364 0.37879 0.0
H1946 H 0.56988 0.78448 0.3446 0.0
H1947 H 0.60056 0.80636 0.38373 0.0
H1948 H 0.59968 0.7524 0.40397 0.0
H1949 H 0.58996 0.78023 0.39611 0.0
H1950 H 0.59656 0.76796 0.34351 0.0
H1951 H 0.60617 0.73974 0.35137 0.0
C1952 C 0.56666 0.81093 0.34902 0.0
C1953 C 0.57116 0.82496 0.35886 0.0
C1954 C 0.57405 0.79521 0.35192 0.0
C1955 C 0.58608 0.79324 0.3647 0.0
C1956 C 0.59109 0.80742 0.374 0.0
C1957 C 0.58372 0.82308 0.37113 0.0
C1958 C 0.59915 0.75557 0.39071 0.0
C1959 C 0.60368 0.74378 0.3783 0.0
C1960 C 0.59369 0.77161 0.38621 0.0
C1961 C 0.59256 0.77632 0.3692 0.0
C1962 C 0.59721 0.76464 0.35673 0.0
C1963 C 0.60281 0.74853 0.36124 0.0
H1964 H 0.91363 0.84198 0.12033 0.0
H1965 H 0.93416 0.7976 0.09651 0.0
H1966 H 0.94153 0.84965 0.13035 0.0
H1967 H 0.96202 0.80529 0.10665 0.0
H1968 H 0.99457 0.80901 0.15621 0.0
H1969 H 0.97044 0.80477 0.13798 0.0
H1970 H 0.97272 0.85687 0.12256 0.0
H1971 H 0.99735 0.8611 0.14076 0.0
C1972 C 0.92415 0.83409 0.11687 0.0
C1973 C 0.92162 0.81904 0.10783 0.0
C1974 C 0.94014 0.83855 0.12253 0.0
C1975 C 0.95388 0.82796 0.11943 0.0
C1976 C 0.95159 0.8136 0.10932 0.0
C1977 C 0.93564 0.80925 0.10346 0.0
C1978 C 0.99007 0.81954 0.14879 0.0
C1979 C 0.99776 0.83542 0.14998 0.0
C1980 C 0.97635 0.81706 0.13822 0.0
C1981 C 0.96977 0.83046 0.12879 0.0
C1982 C 0.97761 0.84632 0.12968 0.0
C1983 C 0.99166 0.84872 0.14004 0.0
H1984 H 0.62063 0.90284 0.83655 0.0
H1985 H 0.66285 0.93033 0.81623 0.0
H1986 H 0.61472 0.89146 0.80875 0.0
H1987 H 0.65672 0.91899 0.78828 0.0
H1988 H 0.64613 0.88539 0.74185 0.0
H1989 H 0.65492 0.89288 0.77046 0.0
H1990 H 0.60367 0.90487 0.78314 0.0
H1991 H 0.59487 0.89732 0.75489 0.0
C1992 C 0.62876 0.90636 0.8262 0.0
C1993 C 0.64209 0.91772 0.82862 0.0
C1994 C 0.62532 0.89987 0.81024 0.0
C1995 C 0.6351 0.90453 0.79629 0.0
C1996 C 0.64899 0.91512 0.79881 0.0
C1997 C 0.65245 0.92167 0.81482 0.0
C1998 C 0.63674 0.88952 0.75079 0.0
C1999 C 0.6198 0.89077 0.74604 0.0
C2000 C 0.64179 0.89388 0.76713 0.0
C2001 C 0.62997 0.89937 0.77906 0.0
C2002 C 0.61305 0.90043 0.77433 0.0
C2003 C 0.60803 0.89622 0.75805 0.0
H2004 H 0.8594 0.89357 0.49176 0.0
H2005 H 0.85202 0.84102 0.50409 0.0
H2006 H 0.84977 0.90143 0.51997 0.0
H2007 H 0.84228 0.84889 0.53193 0.0
H2008 H 0.83938 0.86598 0.58538 0.0
H2009 H 0.85265 0.86102 0.55829 0.0
H2010 H 0.8229 0.90067 0.53611 0.0
H2011 H 0.80969 0.90588 0.56337 0.0
C2012 C 0.85585 0.88371 0.50048 0.0
C2013 C 0.85645 0.86667 0.49563 0.0
C2014 C 0.85025 0.88822 0.51658 0.0
C2015 C 0.84531 0.87578 0.52817 0.0
C2016 C 0.84622 0.85877 0.52339 0.0
C2017 C 0.85169 0.85427 0.50734 0.0
C2018 C 0.83571 0.87376 0.57479 0.0
C2019 C 0.82326 0.88618 0.57652 0.0
C2020 C 0.84332 0.87087 0.55925 0.0
C2021 C 0.83867 0.8803 0.54503 0.0
C2022 C 0.8268 0.89325 0.54687 0.0
C2023 C 0.81917 0.89617 0.56247 0.0
H2024 H 0.83355 0.06386 0.3151 0.0
H2025 H 0.87458 0.09242 0.33635 0.0
H2026 H 0.83964 0.07585 0.2874 0.0
H2027 H 0.88046 0.10442 0.30882 0.0
H2028 H 0.90126 0.09933 0.25506 0.0
H2029 H 0.89231 0.09161 0.28324 0.0
H2030 H 0.84093 0.10221 0.26988 0.0
H2031 H 0.84988 0.10987 0.24137 0.0
C2032 C 0.84366 0.0729 0.31396 0.0
C2033 C 0.85374 0.07695 0.32793 0.0
C2034 C 0.8471 0.07981 0.29809 0.0
C2035 C 0.86068 0.09088 0.2959 0.0
C2036 C 0.87012 0.09566 0.31005 0.0
C2037 C 0.86669 0.0888 0.32586 0.0
C2038 C 0.88805 0.10012 0.25808 0.0
C2039 C 0.87629 0.10518 0.2459 0.0
C2040 C 0.88293 0.09581 0.27431 0.0
C2041 C 0.86592 0.09637 0.27881 0.0
C2042 C 0.85412 0.10158 0.26673 0.0
C2043 C 0.85927 0.10605 0.25045 0.0
H2044 H 0.6365 0.10138 0.99015 0.0
H2045 H 0.64465 0.15364 0.00322 0.0
H2046 H 0.64615 0.09297 0.01817 0.0
H2047 H 0.65444 0.14522 0.0309 0.0
H2048 H 0.65807 0.12691 0.08406 0.0
H2049 H 0.64461 0.13283 0.05725 0.0
H2050 H 0.67314 0.09299 0.03381 0.0
H2051 H 0.68651 0.08681 0.06078 0.0
C2052 C 0.6402 0.11107 -0.00099 0.0
C2053 C 0.63985 0.12818 0.9944 0.0
C2054 C 0.64583 0.10624 0.015 0.0
C2055 C 0.65106 0.11843 0.02672 0.0
C2056 C 0.6503 0.13552 0.02224 0.0
C2057 C 0.64479 0.14034 0.00629 0.0
C2058 C 0.66145 0.11931 0.07325 0.0
C2059 C 0.67357 0.10652 0.07455 0.0
C2060 C 0.65373 0.12275 0.05786 0.0
C2061 C 0.65794 0.1135 0.04338 0.0
C2062 C 0.66956 0.10027 0.04478 0.0
C2063 C 0.67729 0.0968 0.06021 0.0
H2064 H 0.61947 0.09013 0.65625 0.0
H2065 H 0.6613 0.06241 0.67699 0.0
H2066 H 0.61384 0.10218 0.68383 0.0
H2067 H 0.65546 0.07439 0.70471 0.0
H2068 H 0.64592 0.10831 0.75068 0.0
H2069 H 0.65428 0.10068 0.72201 0.0
H2070 H 0.60267 0.08975 0.70979 0.0
H2071 H 0.5943 0.09748 0.73813 0.0
C2072 C 0.62757 0.08669 0.66664 0.0
C2073 C 0.64071 0.07509 0.66441 0.0
C2074 C 0.62429 0.09357 0.68248 0.0
C2075 C 0.63406 0.08906 0.69648 0.0
C2076 C 0.64775 0.07817 0.69413 0.0
C2077 C 0.65104 0.07125 0.67825 0.0
C2078 C 0.63635 0.10443 0.74181 0.0
C2079 C 0.61944 0.10346 0.74674 0.0
C2080 C 0.64116 0.09998 0.72544 0.0
C2081 C 0.62914 0.09465 0.71364 0.0
C2082 C 0.61222 0.09403 0.7185 0.0
C2083 C 0.60744 0.09834 0.73482 0.0
H2084 H 0.68654 0.90658 0.4333 0.0
H2085 H 0.65606 0.86764 0.41064 0.0
H2086 H 0.67358 0.9008 0.4606 0.0
H2087 H 0.64306 0.86211 0.43776 0.0
H2088 H 0.64394 0.84056 0.49128 0.0
H2089 H 0.65364 0.84911 0.46362 0.0
H2090 H 0.64688 0.90137 0.47713 0.0
H2091 H 0.63728 0.89282 0.50515 0.0
C2092 C 0.67693 0.89697 0.43407 0.0
C2093 C 0.67255 0.88739 0.41982 0.0
C2094 C 0.66946 0.89372 0.44969 0.0
C2095 C 0.65746 0.88085 0.45135 0.0
C2096 C 0.65251 0.87187 0.43694 0.0
C2097 C 0.65996 0.87509 0.42138 0.0
C2098 C 0.64443 0.85389 0.48841 0.0
C2099 C 0.63986 0.866 0.50049 0.0
C2100 C 0.64988 0.85879 0.47247 0.0
C2101 C 0.65096 0.87592 0.46816 0.0
C2102 C 0.64627 0.88808 0.48014 0.0
C2103 C 0.64068 0.88316 0.49613 0.0
H2104 H 0.83302 0.9168 0.17111 0.0
H2105 H 0.88615 0.92434 0.16432 0.0
H2106 H 0.83833 0.90352 0.19836 0.0
H2107 H 0.89147 0.91231 0.1918 0.0
H2108 H 0.90037 0.8801 0.23614 0.0
H2109 H 0.89295 0.88852 0.20766 0.0
H2110 H 0.84574 0.9081 0.22607 0.0
H2111 H 0.8528 0.89833 0.25432 0.0
C2112 C 0.84582 0.91572 0.17554 0.0
C2113 C 0.85917 0.9215 0.16557 0.0
C2114 C 0.84889 0.9082 0.19121 0.0
C2115 C 0.86538 0.90667 0.19743 0.0
C2116 C 0.87865 0.91269 0.18739 0.0
C2117 C 0.8756 0.91978 0.17162 0.0
C2118 C 0.88829 0.88596 0.23397 0.0
C2119 C 0.87717 0.88863 0.24737 0.0
C2120 C 0.88408 0.89099 0.21767 0.0
C2121 C 0.86885 0.89939 0.21445 0.0
C2122 C 0.85749 0.90154 0.22788 0.0
C2123 C 0.86153 0.89602 0.24413 0.0
H2124 H 0.86244 0.09961 0.0026 0.0
H2125 H 0.85487 0.15173 0.98874 0.0
H2126 H 0.85342 0.09091 0.97443 0.0
H2127 H 0.84575 0.14305 0.96092 0.0
H2128 H 0.84279 0.12469 0.90805 0.0
H2129 H 0.85626 0.13022 0.93494 0.0
H2130 H 0.82661 0.09107 0.95816 0.0
H2131 H 0.81319 0.08529 0.93111 0.0
C2132 C 0.85902 0.1092 0.99354 0.0
C2133 C 0.85932 0.12636 -0.00204 0.0
C2134 C 0.85376 0.10421 0.97745 0.0
C2135 C 0.8489 0.11629 0.96546 0.0
C2136 C 0.84963 0.13343 0.96979 0.0
C2137 C 0.85474 0.1384 0.98582 0.0
C2138 C 0.8392 0.11713 0.91882 0.0
C2139 C 0.82669 0.10472 0.91746 0.0
C2140 C 0.84692 0.12034 0.93425 0.0
C2141 C 0.84234 0.11124 0.94871 0.0
C2142 C 0.83047 0.09824 0.94721 0.0
C2143 C 0.82272 0.09499 0.93172 0.0
H2144 H 0.76932 0.56807 0.90254 0.0
H2145 H 0.73856 0.61283 0.90332 0.0
H2146 H 0.79419 0.58516 0.90695 0.0
H2147 H 0.76375 0.6301 0.90794 0.0
H2148 H 0.81238 0.6445 0.94189 0.0
H2149 H 0.78561 0.63277 0.93235 0.0
H2150 H 0.81098 0.60734 0.89164 0.0
H2151 H 0.83759 0.61892 0.90104 0.0
C2152 C 0.76788 0.5816 0.90356 0.0
C2153 C 0.75196 0.58909 0.90265 0.0
C2154 C 0.78217 0.59142 0.90597 0.0
C2155 C 0.78093 0.60898 0.90772 0.0
C2156 C 0.76505 0.61658 0.90664 0.0
C2157 C 0.75068 0.60672 0.90392 0.0
C2158 C 0.81218 0.63677 0.93065 0.0
C2159 C 0.82719 0.63238 0.92245 0.0
C2160 C 0.79684 0.63008 0.92518 0.0
C2161 C 0.79628 0.6189 0.91144 0.0
C2162 C 0.81108 0.61567 0.90246 0.0
C2163 C 0.82633 0.62234 0.90786 0.0
H2164 H 0.24932 0.89266 0.11137 0.0
H2165 H 0.25368 0.90967 0.05988 0.0
H2166 H 0.27396 0.87442 0.1073 0.0
H2167 H 0.27778 0.89134 0.05576 0.0
H2168 H 0.31286 0.84836 0.04862 0.0
H2169 H 0.28518 0.85923 0.056 0.0
H2170 H 0.30582 0.88246 0.10055 0.0
H2171 H 0.33358 0.87178 0.09313 0.0
C2172 C 0.25536 0.89229 0.09915 0.0
C2173 C 0.24969 0.90265 0.08597 0.0
C2174 C 0.26942 0.88191 0.09684 0.0
C2175 C 0.27766 0.8814 0.08118 0.0
C2176 C 0.27155 0.89131 0.06789 0.0
C2177 C 0.25784 0.90191 0.0703 0.0
C2178 C 0.31144 0.85537 0.06023 0.0
C2179 C 0.32547 0.8594 0.07016 0.0
C2180 C 0.2956 0.86165 0.06441 0.0
C2181 C 0.29342 0.8718 0.07876 0.0
C2182 C 0.30714 0.87461 0.08946 0.0
C2183 C 0.32304 0.86857 0.08515 0.0
H2184 H 0.89719 0.49229 0.85958 0.0
H2185 H 0.84572 0.50646 0.8502 0.0
H2186 H 0.90618 0.52091 0.85231 0.0
H2187 H 0.85468 0.53471 0.84289 0.0
H2188 H 0.87236 0.58762 0.84381 0.0
H2189 H 0.86694 0.56003 0.85594 0.0
H2190 H 0.90694 0.53882 0.82609 0.0
H2191 H 0.91257 0.56655 0.81399 0.0
C2192 C 0.8878 0.5015 0.85611 0.0
C2193 C 0.87075 0.49705 0.85542 0.0
C2194 C 0.89296 0.51784 0.85187 0.0
C2195 C 0.88113 0.53007 0.84711 0.0
C2196 C 0.86409 0.52567 0.84676 0.0
C2197 C 0.85897 0.50939 0.85081 0.0
C2198 C 0.88018 0.57715 0.83995 0.0
C2199 C 0.89272 0.57927 0.82768 0.0
C2200 C 0.87703 0.56133 0.8469 0.0
C2201 C 0.88633 0.54722 0.84177 0.0
C2202 C 0.89959 0.54948 0.83033 0.0
C2203 C 0.90276 0.56536 0.82335 0.0
H2204 H 0.16371 0.12294 0.59221 0.0
H2205 H 0.1832 0.14121 0.54481 0.0
H2206 H 0.19154 0.11255 0.59975 0.0
H2207 H 0.21095 0.1306 0.55233 0.0
H2208 H 0.24265 0.08088 0.56082 0.0
H2209 H 0.21836 0.09863 0.55538 0.0
H2210 H 0.22345 0.12105 0.60465 0.0
H2211 H 0.2482 0.1034 0.61004 0.0
C2212 C 0.174 0.12509 0.58357 0.0
C2213 C 0.1712 0.13274 0.56783 0.0
C2214 C 0.18994 0.11921 0.58794 0.0
C2215 C 0.20332 0.12065 0.57654 0.0
C2216 C 0.20079 0.12926 0.56129 0.0
C2217 C 0.18492 0.1354 0.55703 0.0
C2218 C 0.23872 0.0897 0.57045 0.0
C2219 C 0.24727 0.0907 0.58589 0.0
C2220 C 0.2249 0.09997 0.56727 0.0
C2221 C 0.2191 0.11127 0.57956 0.0
C2222 C 0.22773 0.11246 0.59496 0.0
C2223 C 0.24186 0.10241 0.59801 0.0
H2224 H 0.12589 0.90642 0.84151 0.0
H2225 H 0.08434 0.92772 0.81378 0.0
H2226 H 0.13174 0.93386 0.85376 0.0
H2227 H 0.09041 0.95529 0.82597 0.0
H2228 H 0.10037 0.00108 0.85985 0.0
H2229 H 0.09175 0.97247 0.85232 0.0
H2230 H 0.14323 0.95975 0.84142 0.0
H2231 H 0.15187 0.98805 0.84905 0.0
C2232 C 0.11789 0.9169 0.83812 0.0
C2233 C 0.10478 0.91487 0.82644 0.0
C2234 C 0.1213 0.93266 0.84512 0.0
C2235 C 0.11169 0.94678 0.84065 0.0
C2236 C 0.098 0.94462 0.82972 0.0
C2237 C 0.09457 0.92882 0.82268 0.0
C2238 C 0.10986 0.99212 0.85601 0.0
C2239 C 0.12681 -0.0031 0.85499 0.0
C2240 C 0.1049 0.97577 0.85161 0.0
C2241 C 0.1168 0.96386 0.8463 0.0
C2242 C 0.13377 0.96856 0.84568 0.0
C2243 C 0.1387 0.98486 0.84993 0.0
H2244 H 0.65711 0.37289 0.40075 0.0
H2245 H 0.68303 0.34852 0.44188 0.0
H2246 H 0.68351 0.38439 0.39068 0.0
H2247 H 0.70959 0.36019 0.43169 0.0
H2248 H 0.75628 0.38012 0.4029 0.0
H2249 H 0.73125 0.36259 0.40741 0.0
H2250 H 0.70022 0.40706 0.40487 0.0
H2251 H 0.72495 0.4244 0.40055 0.0
C2252 C 0.66849 0.36972 0.4075 0.0
C2253 C 0.66789 0.36004 0.42234 0.0
C2254 C 0.68362 0.37635 0.4017 0.0
C2255 C 0.69857 0.37345 0.41056 0.0
C2256 C 0.69826 0.36262 0.42459 0.0
C2257 C 0.68304 0.35596 0.43044 0.0
C2258 C 0.74406 0.38605 0.40304 0.0
C2259 C 0.74256 0.40363 0.40144 0.0
C2260 C 0.72978 0.37604 0.40573 0.0
C2261 C 0.71378 0.38345 0.40645 0.0
C2262 C 0.71233 0.40094 0.40418 0.0
C2263 C 0.72652 0.4109 0.40181 0.0
H2264 H 0.84895 0.48644 0.62856 0.0
H2265 H 0.89477 0.50509 0.6505 0.0
H2266 H 0.85656 0.45786 0.63639 0.0
H2267 H 0.90194 0.47662 0.65967 0.0
H2268 H 0.91504 0.42156 0.66766 0.0
H2269 H 0.91018 0.44903 0.65462 0.0
H2270 H 0.85671 0.44164 0.66003 0.0
H2271 H 0.86162 0.41407 0.67187 0.0
C2272 C 0.86068 0.48434 0.63511 0.0
C2273 C 0.87124 0.49789 0.63903 0.0
C2274 C 0.865 0.46798 0.6398 0.0
C2275 C 0.87972 0.46482 0.64908 0.0
C2276 C 0.89059 0.47842 0.65244 0.0
C2277 C 0.88648 0.49477 0.64727 0.0
C2278 C 0.90228 0.42583 0.66585 0.0
C2279 C 0.88872 0.41562 0.67067 0.0
C2280 C 0.89946 0.44163 0.65848 0.0
C2281 C 0.88302 0.44768 0.6561 0.0
C2282 C 0.86954 0.43737 0.66108 0.0
C2283 C 0.87235 0.42152 0.66805 0.0
H2284 H 0.58513 0.56855 0.18282 0.0
H2285 H 0.62567 0.58881 0.15286 0.0
H2286 H 0.5903 0.54067 0.17086 0.0
H2287 H 0.63062 0.56109 0.14088 0.0
H2288 H 0.59846 0.49429 0.13665 0.0
H2289 H 0.59035 0.52298 0.14459 0.0
H2290 H 0.64233 0.53533 0.15333 0.0
H2291 H 0.65044 0.50701 0.14532 0.0
C2292 C 0.59494 0.56715 0.1735 0.0
C2293 C 0.60515 0.5809 0.16902 0.0
C2294 C 0.59785 0.55118 0.1666 0.0
C2295 C 0.61102 0.54865 0.1551 0.0
C2296 C 0.62059 0.56258 0.14995 0.0
C2297 C 0.6177 0.57849 0.15681 0.0
C2298 C 0.60815 0.50319 0.14013 0.0
C2299 C 0.6251 0.49831 0.14038 0.0
C2300 C 0.60349 0.51957 0.14476 0.0
C2301 C 0.6157 0.53142 0.14952 0.0
C2302 C 0.63263 0.52659 0.14948 0.0
C2303 C 0.63726 0.51027 0.14501 0.0
H2304 H 0.60065 0.73921 0.88932 0.0
H2305 H 0.61307 0.76194 0.84138 0.0
H2306 H 0.58834 0.71532 0.87477 0.0
H2307 H 0.60093 0.73776 0.82682 0.0
H2308 H 0.57693 0.66901 0.84481 0.0
H2309 H 0.59441 0.69108 0.85678 0.0
H2310 H 0.57197 0.72739 0.82312 0.0
H2311 H 0.55462 0.7053 0.81089 0.0
C2312 C 0.601 0.739 0.87567 0.0
C2313 C 0.60771 0.75258 0.86652 0.0
C2314 C 0.59404 0.72523 0.86733 0.0
C2315 C 0.5936 0.72471 0.84965 0.0
C2316 C 0.60093 0.73793 0.84047 0.0
C2317 C 0.60798 0.75171 0.84882 0.0
C2318 C 0.57578 0.68167 0.83984 0.0
C2319 C 0.5642 0.68542 0.82702 0.0
C2320 C 0.5858 0.6943 0.84674 0.0
C2321 C 0.58447 0.71097 0.84098 0.0
C2322 C 0.57339 0.71462 0.82771 0.0
C2323 C 0.56336 0.70197 0.82078 0.0
H2324 H 0.4878 0.34736 0.1012 0.0
H2325 H 0.50835 0.36647 0.1477 0.0
H2326 H 0.51506 0.33537 0.09391 0.0
H2327 H 0.53577 0.35563 0.14006 0.0
H2328 H 0.57558 0.31646 0.13457 0.0
H2329 H 0.54877 0.32978 0.13949 0.0
H2330 H 0.54327 0.33845 0.08594 0.0
H2331 H 0.56995 0.32404 0.08101 0.0
C2332 C 0.4983 0.34935 0.10963 0.0
C2333 C 0.496 0.35764 0.12508 0.0
C2334 C 0.51394 0.34254 0.10546 0.0
C2335 C 0.52764 0.3442 0.11653 0.0
C2336 C 0.52544 0.35352 0.13147 0.0
C2337 C 0.50977 0.35991 0.13581 0.0
C2338 C 0.56865 0.32122 0.12383 0.0
C2339 C 0.57489 0.31931 0.10742 0.0
C2340 C 0.5533 0.32904 0.12665 0.0
C2341 C 0.54388 0.33556 0.11316 0.0
C2342 C 0.55007 0.3335 0.09665 0.0
C2343 C 0.56537 0.32531 0.0938 0.0
H2344 H 0.91482 0.32496 0.34098 0.0
H2345 H 0.93604 0.28853 0.30653 0.0
H2346 H 0.89722 0.30308 0.35315 0.0
H2347 H 0.91861 0.26662 0.31895 0.0
H2348 H 0.87899 0.23168 0.33895 0.0
H2349 H 0.88997 0.25604 0.32377 0.0
H2350 H 0.90396 0.27905 0.37106 0.0
H2351 H 0.8928 0.25499 0.38622 0.0
C2352 C 0.91567 0.31231 0.33592 0.0
C2353 C 0.92704 0.30843 0.32295 0.0
C2354 C 0.90558 0.29979 0.34291 0.0
C2355 C 0.90666 0.28312 0.33713 0.0
C2356 C 0.91738 0.27939 0.32358 0.0
C2357 C 0.92746 0.29194 0.31654 0.0
C2358 C 0.88412 0.24208 0.34612 0.0
C2359 C 0.88517 0.24131 0.3638 0.0
C2360 C 0.89049 0.25597 0.33741 0.0
C2361 C 0.89792 0.26939 0.34621 0.0
C2362 C 0.89817 0.26899 0.36391 0.0
C2363 C 0.89187 0.25512 0.3726 0.0
H2364 H 0.00395 0.63311 0.59864 0.0
H2365 H 0.98935 0.63826 0.65085 0.0
H2366 H 0.97599 0.64246 0.58994 0.0
H2367 H 0.96178 0.64767 0.64219 0.0
H2368 H 0.90958 0.65159 0.62368 0.0
H2369 H 0.9362 0.63755 0.6285 0.0
H2370 H 0.95966 0.66944 0.59124 0.0
H2371 H 0.93285 0.68343 0.58618 0.0
C2372 C 0.99476 0.63607 0.60824 0.0
C2373 C -0.00109 0.63502 0.62543 0.0
C2374 C 0.97881 0.64151 0.60325 0.0
C2375 C 0.96669 0.64577 0.61538 0.0
C2376 C 0.97075 0.64427 0.63253 0.0
C2377 C 0.98664 0.63899 0.63749 0.0
C2378 C 0.92035 0.65554 0.61637 0.0
C2379 C 0.91914 0.66886 0.60475 0.0
C2380 C 0.93562 0.64748 0.61916 0.0
C2381 C 0.95007 0.65256 0.61044 0.0
C2382 C 0.94871 0.6652 0.59811 0.0
C2383 C 0.93337 0.67328 0.59527 0.0
H2384 H 0.58049 0.32381 0.65024 0.0
H2385 H 0.56031 0.2872 0.68516 0.0
H2386 H 0.59824 0.30214 0.63792 0.0
H2387 H 0.57787 0.26552 0.6726 0.0
H2388 H 0.60367 0.25379 0.60534 0.0
H2389 H 0.59209 0.27778 0.62028 0.0
H2390 H 0.6066 0.25551 0.66776 0.0
H2391 H 0.61798 0.23122 0.65281 0.0
C2392 C 0.57989 0.31117 0.65537 0.0
C2393 C 0.56879 0.30719 0.66855 0.0
C2394 C 0.59006 0.29877 0.64828 0.0
C2395 C 0.58935 0.28211 0.6542 0.0
C2396 C 0.57883 0.27828 0.66788 0.0
C2397 C 0.56867 0.2907 0.675 0.0
C2398 C 0.60463 0.25407 0.61895 0.0
C2399 C 0.61159 0.24047 0.62788 0.0
C2400 C 0.59808 0.26791 0.62752 0.0
C2401 C 0.59834 0.26848 0.64521 0.0
C2402 C 0.60604 0.2553 0.65412 0.0
C2403 C 0.61265 0.24144 0.64554 0.0
H2404 H 0.98929 0.35496 0.84294 0.0
H2405 H 0.00382 0.35987 0.89519 0.0
H2406 H 0.96169 0.34551 0.85153 0.0
H2407 H 0.97585 0.35048 0.90382 0.0
H2408 H 0.93205 0.31022 0.90765 0.0
H2409 H 0.95914 0.32367 0.90247 0.0
H2410 H 0.93622 0.35594 0.86522 0.0
H2411 H 0.90933 0.34246 0.87017 0.0
C2412 C 0.98656 0.35416 0.85629 0.0
C2413 C -0.00118 0.35812 0.86837 0.0
C2414 C 0.97066 0.34885 0.86122 0.0
C2415 C 0.96656 0.34729 0.87836 0.0
C2416 C 0.97869 0.35147 0.89051 0.0
C2417 C 0.99465 0.35694 0.88556 0.0
C2418 C 0.93275 0.32034 0.89853 0.0
C2419 C 0.91857 0.32504 0.88912 0.0
C2420 C 0.94826 0.3281 0.89562 0.0
C2421 C 0.94984 0.3407 0.88326 0.0
C2422 C 0.93546 0.34602 0.87457 0.0
C2423 C 0.92004 0.33829 0.87745 0.0
H2424 H 0.93882 0.7065 0.1854 0.0
H2425 H 0.91598 0.6697 0.1524 0.0
H2426 H 0.92165 0.7285 0.17273 0.0
H2427 H 0.89866 0.69165 0.14002 0.0
H2428 H 0.89318 0.73887 0.10614 0.0
H2429 H 0.90492 0.71516 0.12139 0.0
H2430 H 0.89306 0.73937 0.16866 0.0
H2431 H 0.88152 0.76338 0.15339 0.0
C2432 C 0.92998 0.70305 0.17564 0.0
C2433 C 0.92897 0.68639 0.16974 0.0
C2434 C 0.92005 0.71565 0.16846 0.0
C2435 C 0.9089 0.71181 0.15529 0.0
C2436 C 0.90735 0.69503 0.14995 0.0
C2437 C 0.91728 0.68246 0.15707 0.0
C2438 C 0.89284 0.73909 0.11978 0.0
C2439 C 0.88656 0.75313 0.12853 0.0
C2440 C 0.89949 0.72542 0.12853 0.0
C2441 C 0.90001 0.72545 0.14623 0.0
C2442 C 0.89302 0.73911 0.15501 0.0
C2443 C 0.88631 0.7528 0.14625 0.0
H2444 H 0.48839 0.6344 0.39379 0.0
H2445 H 0.50383 0.64008 0.34188 0.0
H2446 H 0.51629 0.64343 0.40303 0.0
H2447 H 0.53136 0.64915 0.35108 0.0
H2448 H 0.58337 0.65146 0.37048 0.0
H2449 H 0.55649 0.63815 0.36508 0.0
H2450 H 0.53323 0.67022 0.40228 0.0
H2451 H 0.56031 0.68352 0.40792 0.0
C2452 C 0.49774 0.63742 0.38437 0.0
C2453 C 0.49386 0.63657 0.3671 0.0
C2454 C 0.51366 0.64268 0.38967 0.0
C2455 C 0.52602 0.64695 0.37779 0.0
C2456 C 0.5222 0.64573 0.36056 0.0
C2457 C 0.50634 0.64064 0.35528 0.0
C2458 C 0.57259 0.65561 0.37766 0.0
C2459 C 0.57395 0.66878 0.38943 0.0
C2460 C 0.55717 0.64797 0.37453 0.0
C2461 C 0.5427 0.65332 0.38306 0.0
C2462 C 0.54418 0.66579 0.39555 0.0
C2463 C 0.55968 0.67346 0.39872 0.0
H2464 H 0.85329 0.60861 0.7582 0.0
H2465 H 0.90535 0.6038 0.74383 0.0
H2466 H 0.84489 0.59794 0.73047 0.0
H2467 H 0.89698 0.59308 0.71652 0.0
H2468 H 0.87825 0.58932 0.66388 0.0
H2469 H 0.88318 0.6031 0.69073 0.0
H2470 H 0.84684 0.57048 0.71442 0.0
H2471 H 0.84165 0.5567 0.68736 0.0
C2472 C 0.86291 0.60539 0.74913 0.0
C2473 C 0.87998 0.60703 0.75325 0.0
C2474 C 0.8581 0.5992 0.73333 0.0
C2475 C 0.87028 0.59475 0.72133 0.0
C2476 C 0.8873 0.59663 0.7254 0.0
C2477 C 0.89208 0.60266 0.74114 0.0
C2478 C 0.8712 0.5851 0.67475 0.0
C2479 C 0.85975 0.57169 0.6735 0.0
C2480 C 0.87405 0.59301 0.69014 0.0
C2481 C 0.86556 0.58772 0.7047 0.0
C2482 C 0.85351 0.57487 0.70337 0.0
C2483 C 0.85063 0.56691 0.6879 0.0
H2484 H 0.68593 0.55865 0.95387 0.0
H2485 H 0.66478 0.59337 0.91765 0.0
H2486 H 0.66843 0.57082 0.97581 0.0
H2487 H 0.64705 0.60527 0.93958 0.0
H2488 H 0.64203 0.63772 0.98809 0.0
H2489 H 0.65302 0.62297 0.96373 0.0
H2490 H 0.64009 0.57528 0.98653 0.0
H2491 H 0.62936 0.59005 0.01122 0.0
C2492 C 0.67735 0.56867 0.95051 0.0
C2493 C 0.67697 0.5752 0.93405 0.0
C2494 C 0.66722 0.57557 0.96308 0.0
C2495 C 0.65644 0.58909 0.95945 0.0
C2496 C 0.65543 0.59504 0.94281 0.0
C2497 C 0.66559 0.58819 0.93026 0.0
C2498 C 0.64128 0.6241 0.98786 0.0
C2499 C 0.63502 0.61508 0.00174 0.0
C2500 C 0.64748 0.61563 0.9738 0.0
C2501 C 0.64756 0.59794 0.97326 0.0
C2502 C 0.64042 0.58892 0.9867 0.0
C2503 C 0.63417 0.5974 0.0008 0.0
H2504 H 0.64201 0.38355 0.25644 0.0
H2505 H 0.58978 0.39063 0.24371 0.0
H2506 H 0.65 0.39435 0.22865 0.0
H2507 H 0.59775 0.40152 0.21638 0.0
H2508 H 0.61499 0.40676 0.16339 0.0
H2509 H 0.61022 0.39219 0.18987 0.0
H2510 H 0.64884 0.42207 0.21353 0.0
H2511 H 0.65389 0.43659 0.18686 0.0
C2512 C 0.63225 0.38728 0.24772 0.0
C2513 C 0.61527 0.38628 0.25233 0.0
C2514 C 0.63683 0.39354 0.23187 0.0
C2515 C 0.62449 0.39873 0.22034 0.0
C2516 C 0.60755 0.3974 0.22488 0.0
C2517 C 0.60299 0.39127 0.24065 0.0
C2518 C 0.62257 0.4102 0.17418 0.0
C2519 C 0.63464 0.42305 0.17306 0.0
C2520 C 0.61981 0.40184 0.18936 0.0
C2521 C 0.62902 0.40613 0.20381 0.0
C2522 C 0.64162 0.41844 0.20257 0.0
C2523 C 0.64442 0.42682 0.18732 0.0
H2524 H 0.82853 0.39832 0.41966 0.0
H2525 H 0.80684 0.43196 0.45657 0.0
H2526 H 0.84629 0.38611 0.44136 0.0
H2527 H 0.82442 0.41948 0.47831 0.0
H2528 H 0.86498 0.40088 0.51263 0.0
H2529 H 0.85321 0.41564 0.48843 0.0
H2530 H 0.84083 0.36792 0.46541 0.0
H2531 H 0.85283 0.35315 0.4893 0.0
C2532 C 0.82757 0.40316 0.43238 0.0
C2533 C 0.81609 0.41599 0.43642 0.0
C2534 C 0.83775 0.39614 0.44481 0.0
C2535 C 0.83668 0.40176 0.46155 0.0
C2536 C 0.82568 0.41501 0.46548 0.0
C2537 C 0.8155 0.42208 0.45304 0.0
C2538 C 0.86005 0.39352 0.50226 0.0
C2539 C 0.85968 0.37582 0.50301 0.0
C2540 C 0.8532 0.402 0.48846 0.0
C2541 C 0.84594 0.39295 0.47512 0.0
C2542 C 0.84644 0.37526 0.47543 0.0
C2543 C 0.85324 0.36679 0.48921 0.0
H2544 H 0.9065 0.38959 0.75139 0.0
H2545 H 0.8543 0.38132 0.73929 0.0
H2546 H 0.89856 0.40057 0.77875 0.0
H2547 H 0.84637 0.39219 0.76703 0.0
H2548 H 0.88115 0.40639 0.83189 0.0
H2549 H 0.88641 0.39164 0.8056 0.0
H2550 H 0.84704 0.42013 0.78148 0.0
H2551 H 0.84153 0.43482 0.80793 0.0
C2552 C 0.89331 0.38996 0.75461 0.0
C2553 C 0.88102 0.38465 0.74309 0.0
C2554 C 0.88878 0.39615 0.77038 0.0
C2555 C 0.87184 0.39723 0.77504 0.0
C2556 C 0.85952 0.39162 0.7637 0.0
C2557 C 0.86407 0.3853 0.74788 0.0
C2558 C 0.87352 0.40949 0.82104 0.0
C2559 C 0.86106 0.42199 0.82199 0.0
C2560 C 0.87656 0.40103 0.80596 0.0
C2561 C 0.86725 0.40485 0.79145 0.0
C2562 C 0.85435 0.41684 0.79251 0.0
C2563 C 0.85128 0.42534 0.80763 0.0
H2564 H 0.81324 0.55574 0.03614 0.0
H2565 H 0.8336 0.58999 0.07327 0.0
H2566 H 0.83069 0.56872 0.01459 0.0
H2567 H 0.85123 0.60272 0.05174 0.0
H2568 H 0.86973 0.59008 0.98002 0.0
H2569 H 0.85923 0.5743 0.0042 0.0
H2570 H 0.84425 0.62088 0.02797 0.0
H2571 H 0.85495 0.63665 0.00409 0.0
C2572 C 0.82165 0.56581 0.03978 0.0
C2573 C 0.82179 0.57202 0.05636 0.0
C2574 C 0.83174 0.57318 0.02744 0.0
C2575 C 0.84221 0.58685 0.03145 0.0
C2576 C 0.84307 0.5924 0.04823 0.0
C2577 C 0.83296 0.58508 0.06055 0.0
C2578 C 0.8645 0.59698 0.99055 0.0
C2579 C 0.86301 0.61463 0.99003 0.0
C2580 C 0.8584 0.58792 0.00434 0.0
C2581 C 0.85081 0.59634 0.01791 0.0
C2582 C 0.85017 0.61402 0.01778 0.0
C2583 C 0.8562 0.62307 0.00401 0.0
H2584 H 0.59639 0.62115 0.25494 0.0
H2585 H 0.6408 0.59884 0.23349 0.0
H2586 H 0.60372 0.60983 0.28242 0.0
H2587 H 0.64764 0.58631 0.26072 0.0
H2588 H 0.66086 0.57297 0.31475 0.0
H2589 H 0.65633 0.58851 0.2886 0.0
H2590 H 0.60273 0.58427 0.29583 0.0
H2591 H 0.60738 0.56982 0.32229 0.0
C2592 C 0.60776 0.6138 0.25619 0.0
C2593 C 0.61801 0.61077 0.24218 0.0
C2594 C 0.61189 0.60712 0.27189 0.0
C2595 C 0.62608 0.59676 0.27382 0.0
C2596 C 0.6367 0.59431 0.25984 0.0
C2597 C 0.63278 0.60142 0.2442 0.0
C2598 C 0.64814 0.57546 0.31069 0.0
C2599 C 0.63447 0.57027 0.32055 0.0
C2600 C 0.64551 0.58431 0.29567 0.0
C2601 C 0.62914 0.58783 0.29005 0.0
C2602 C 0.61553 0.58232 0.2999 0.0
C2603 C 0.61816 0.57386 0.31504 0.0
H2604 H 0.62525 0.40151 0.48196 0.0
H2605 H 0.64132 0.35449 0.50426 0.0
H2606 H 0.63604 0.41673 0.50636 0.0
H2607 H 0.65232 0.36971 0.52836 0.0
H2608 H 0.66409 0.39966 0.57416 0.0
H2609 H 0.64603 0.3871 0.55286 0.0
H2610 H 0.66469 0.42247 0.51599 0.0
H2611 H 0.68252 0.43526 0.53728 0.0
C2612 C 0.63083 0.39439 0.49215 0.0
C2613 C 0.63261 0.37679 0.49105 0.0
C2614 C 0.63709 0.40313 0.50608 0.0
C2615 C 0.64516 0.39444 0.5192 0.0
C2616 C 0.64604 0.37678 0.51853 0.0
C2617 C 0.63984 0.36805 0.50462 0.0
C2618 C 0.66421 0.40491 0.56156 0.0
C2619 C 0.67497 0.41831 0.55737 0.0
C2620 C 0.65387 0.39768 0.54937 0.0
C2621 C 0.65405 0.40369 0.53272 0.0
C2622 C 0.66413 0.41765 0.52874 0.0
C2623 C 0.67446 0.42491 0.54094 0.0
H2624 H 0.75505 0.84784 0.61002 0.0
H2625 H 0.73989 0.89995 0.60568 0.0
H2626 H 0.72714 0.83898 0.60065 0.0
H2627 H 0.71236 0.89113 0.59625 0.0
H2628 H 0.66027 0.87207 0.59303 0.0
H2629 H 0.68709 0.87701 0.60665 0.0
H2630 H 0.71039 0.8405 0.57382 0.0
H2631 H 0.68337 0.83531 0.56023 0.0
C2632 C 0.74575 0.85738 0.60723 0.0
C2633 C 0.74972 0.8746 0.60855 0.0
C2634 C 0.72983 0.8523 0.60177 0.0
C2635 C 0.71755 0.86435 0.59776 0.0
C2636 C 0.72145 0.88152 0.59947 0.0
C2637 C 0.73731 0.88658 0.60476 0.0
C2638 C 0.67105 0.86494 0.58877 0.0
C2639 C 0.66972 0.8535 0.57532 0.0
C2640 C 0.68643 0.86781 0.59659 0.0
C2641 C 0.70089 0.85934 0.59114 0.0
C2642 C 0.69944 0.84717 0.57834 0.0
C2643 C 0.68398 0.84426 0.5705 0.0
H2644 H 0.23962 0.59164 0.39049 0.0
H2645 H 0.25383 0.64381 0.384 0.0
H2646 H 0.21219 0.60036 0.40032 0.0
H2647 H 0.22604 0.65254 0.39375 0.0
H2648 H 0.18272 0.65754 0.4342 0.0
H2649 H 0.20971 0.65188 0.42077 0.0
H2650 H 0.18653 0.61366 0.38984 0.0
H2651 H 0.15974 0.61908 0.40329 0.0
C2652 C 0.23687 0.60499 0.39104 0.0
C2653 C 0.24898 0.61702 0.38649 0.0
C2654 C 0.22106 0.60999 0.39657 0.0
C2655 C 0.21692 0.62714 0.39775 0.0
C2656 C 0.22892 0.63923 0.39305 0.0
C2657 C 0.24478 0.63422 0.38737 0.0
C2658 C 0.18335 0.64809 0.42438 0.0
C2659 C 0.16911 0.63858 0.42004 0.0
C2660 C 0.1988 0.6449 0.41664 0.0
C2661 C 0.20028 0.63216 0.40442 0.0
C2662 C 0.18586 0.62331 0.39947 0.0
C2663 C 0.17048 0.62646 0.40718 0.0
H2664 H 0.62859 0.91213 0.6537 0.0
H2665 H 0.59053 0.93658 0.68381 0.0
H2666 H 0.63365 0.9384 0.63881 0.0
H2667 H 0.59587 0.963 0.66902 0.0
H2668 H 0.60325 0.00601 0.63123 0.0
H2669 H 0.59477 0.97817 0.64148 0.0
H2670 H 0.64681 0.96464 0.64786 0.0
H2671 H 0.65525 0.99205 0.63749 0.0
C2672 C 0.62124 0.92308 0.65712 0.0
C2673 C 0.60934 0.9223 0.67016 0.0
C2674 C 0.62417 0.93814 0.64858 0.0
C2675 C 0.6153 0.9528 0.65289 0.0
C2676 C 0.60283 0.95187 0.66535 0.0
C2677 C 0.59987 0.93676 0.67391 0.0
C2678 C 0.61285 -0.00301 0.63463 0.0
C2679 C 0.62991 0.00129 0.63364 0.0
C2680 C 0.60799 0.98111 0.64059 0.0
C2681 C 0.62012 0.96923 0.64546 0.0
C2682 C 0.63715 0.97341 0.64399 0.0
C2683 C 0.64199 0.98922 0.63818 0.0
H2684 H 0.33565 0.37512 0.90318 0.0
H2685 H 0.3134 0.33626 0.93412 0.0
H2686 H 0.30867 0.38033 0.89004 0.0
H2687 H 0.2862 0.34172 0.92101 0.0
H2688 H 0.24161 0.34936 0.88475 0.0
H2689 H 0.26959 0.34093 0.89425 0.0
H2690 H 0.28295 0.39328 0.90059 0.0
H2691 H 0.25535 0.40168 0.891 0.0
C2692 C 0.32503 0.36761 0.90715 0.0
C2693 C 0.32667 0.35544 0.91992 0.0
C2694 C 0.30953 0.37064 0.89962 0.0
C2695 C 0.29525 0.36161 0.90465 0.0
C2696 C 0.297 0.34884 0.91681 0.0
C2697 C 0.31257 0.34577 0.92437 0.0
C2698 C 0.2506 0.35905 0.88801 0.0
C2699 C 0.24621 0.3762 0.88713 0.0
C2700 C 0.26656 0.35422 0.89355 0.0
C2701 C 0.27848 0.36644 0.89813 0.0
C2702 C 0.27416 0.38355 0.89693 0.0
C2703 C 0.25825 0.38836 0.89154 0.0
H2704 H 0.388 0.4882 0.62806 0.0
H2705 H 0.33623 0.50031 0.63868 0.0
H2706 H 0.39643 0.51585 0.63868 0.0
H2707 H 0.34469 0.52762 0.64944 0.0
H2708 H 0.4038 0.55527 0.68179 0.0
H2709 H 0.39693 0.52928 0.66699 0.0
H2710 H 0.35675 0.55476 0.64093 0.0
H2711 H 0.3634 0.5807 0.65585 0.0
C2712 C 0.37842 0.49679 0.63247 0.0
C2713 C 0.36146 0.49199 0.63264 0.0
C2714 C 0.38326 0.51256 0.63865 0.0
C2715 C 0.37123 0.52385 0.64496 0.0
C2716 C 0.35424 0.51927 0.64452 0.0
C2717 C 0.34942 0.50354 0.63846 0.0
C2718 C 0.39353 0.55537 0.67287 0.0
C2719 C 0.38402 0.57004 0.67018 0.0
C2720 C 0.3897 0.5405 0.66428 0.0
C2721 C 0.37628 0.53998 0.65284 0.0
C2722 C 0.36704 0.55474 0.64983 0.0
C2723 C 0.37088 0.5696 0.65838 0.0
H2724 H 0.7425 0.14072 0.10986 0.0
H2725 H 0.7559 0.08841 0.10284 0.0
H2726 H 0.7702 0.14916 0.09967 0.0
H2727 H 0.78327 0.09685 0.09254 0.0
H2728 H 0.83595 0.11546 0.08818 0.0
H2729 H 0.8094 0.10972 0.10199 0.0
H2730 H 0.7857 0.14862 0.07236 0.0
H2731 H 0.81244 0.15461 0.05858 0.0
C2732 C 0.75137 0.13103 0.10633 0.0
C2733 C 0.74694 0.11389 0.10714 0.0
C2734 C 0.76718 0.13588 0.10037 0.0
C2735 C 0.77891 0.12368 0.09529 0.0
C2736 C 0.77461 0.10656 0.09655 0.0
C2737 C 0.75884 0.10173 0.10237 0.0
C2738 C 0.82513 0.12289 0.08462 0.0
C2739 C 0.82631 0.13536 0.07207 0.0
C2740 C 0.80989 0.11956 0.09254 0.0
C2741 C 0.79541 0.12858 0.08814 0.0
C2742 C 0.79667 0.14152 0.0761 0.0
C2743 C 0.81198 0.14488 0.06814 0.0
H2744 H 0.65763 -3e-05 0.85504 0.0
H2745 H 0.60549 0.98669 0.86179 0.0
H2746 H 0.64943 0.02725 0.84415 0.0
H2747 H 0.59728 0.01438 0.85103 0.0
H2748 H 0.59263 0.05559 0.8087 0.0
H2749 H 0.59825 0.02916 0.82337 0.0
H2750 H 0.63665 0.05375 0.8528 0.0
H2751 H 0.63131 0.08002 0.83804 0.0
C2752 C 0.64439 0.00292 0.85436 0.0
C2753 C 0.63221 0.99107 0.8592 0.0
C2754 C 0.6397 0.01865 0.84822 0.0
C2755 C 0.62271 0.02298 0.84674 0.0
C2756 C 0.61048 0.01132 0.85191 0.0
C2757 C 0.61518 0.99553 0.85817 0.0
C2758 C 0.6022 0.05539 0.81838 0.0
C2759 C 0.61171 0.06987 0.82198 0.0
C2760 C 0.60532 0.04028 0.82686 0.0
C2761 C 0.618 0.03936 0.83912 0.0
C2762 C 0.62701 0.054 0.8432 0.0
C2763 C 0.62392 0.06907 0.83473 0.0
H2764 H 0.83897 0.99407 0.35268 0.0
H2765 H 0.89114 0.00715 0.35963 0.0
H2766 H 0.84711 0.96677 0.34177 0.0
H2767 H 0.89928 0.97944 0.34884 0.0
H2768 H 0.90404 0.93739 0.30733 0.0
H2769 H 0.8983 0.96423 0.32124 0.0
H2770 H 0.8598 0.94038 0.35115 0.0
H2771 H 0.86527 0.91373 0.33718 0.0
C2772 C 0.8522 0.99109 0.352 0.0
C2773 C 0.86441 0.00286 0.35697 0.0
C2774 C 0.85686 0.97535 0.34585 0.0
C2775 C 0.87383 0.97094 0.34448 0.0
C2776 C 0.8861 0.98256 0.34965 0.0
C2777 C 0.88143 -0.00163 0.35593 0.0
C2778 C 0.89442 0.93785 0.31694 0.0
C2779 C 0.88495 0.92345 0.32094 0.0
C2780 C 0.89122 0.9532 0.32498 0.0
C2781 C 0.87851 0.95442 0.33717 0.0
C2782 C 0.86948 0.93989 0.34159 0.0
C2783 C 0.87265 0.9246 0.33358 0.0
H2784 H 0.40609 0.33601 0.11781 0.0
H2785 H 0.43685 0.31403 0.15691 0.0
H2786 H 0.39311 0.30878 0.11279 0.0
H2787 H 0.42388 0.28664 0.15167 0.0
H2788 H 0.38775 0.2418 0.14428 0.0
H2789 H 0.39703 0.27003 0.1525 0.0
H2790 H 0.40422 0.2828 0.1001 0.0
H2791 H 0.39487 0.25491 0.09188 0.0
C2792 C 0.41004 0.32541 0.12542 0.0
C2793 C 0.42273 0.32718 0.13759 0.0
C2794 C 0.4026 0.30979 0.1225 0.0
C2795 C 0.40765 0.29554 0.13167 0.0
C2796 C 0.4197 0.29742 0.14445 0.0
C2797 C 0.42718 0.3131 0.14738 0.0
C2798 C 0.39118 0.2507 0.13453 0.0
C2799 C 0.3906 0.24607 0.11742 0.0
C2800 C 0.39657 0.26681 0.13925 0.0
C2801 C 0.40129 0.27863 0.12694 0.0
C2802 C 0.40044 0.27406 0.10987 0.0
C2803 C 0.3952 0.258 0.10517 0.0
H2804 H 0.43329 0.69006 0.8968 0.0
H2805 H 0.40665 0.64892 0.87325 0.0
H2806 H 0.45963 0.67929 0.88526 0.0
H2807 H 0.43289 0.6382 0.8619 0.0
H2808 H 0.47355 0.64794 0.82097 0.0
H2809 H 0.44918 0.65195 0.83885 0.0
H2810 H 0.4812 0.65527 0.88259 0.0
H2811 H 0.50587 0.65109 0.86449 0.0
C2812 C 0.4331 0.67845 0.88963 0.0
C2813 C 0.41782 0.67055 0.88564 0.0
C2814 C 0.4482 0.67227 0.88304 0.0
C2815 C 0.44825 0.65809 0.8724 0.0
C2816 C 0.43318 0.64934 0.86978 0.0
C2817 C 0.41815 0.65549 0.87631 0.0
C2818 C 0.47542 0.64929 0.83443 0.0
C2819 C 0.49162 0.64929 0.84132 0.0
C2820 C 0.46143 0.65146 0.8447 0.0
C2821 C 0.46326 0.65388 0.86215 0.0
C2822 C 0.47944 0.65345 0.86918 0.0
C2823 C 0.49351 0.65097 0.85886 0.0
H2824 H 0.08832 0.65842 0.61537 0.0
H2825 H 0.05963 0.68074 0.65585 0.0
H2826 H 0.10199 0.6853 0.61031 0.0
H2827 H 0.07323 0.70779 0.65054 0.0
H2828 H 0.11046 0.7514 0.64349 0.0
H2829 H 0.10042 0.72329 0.65114 0.0
H2830 H 0.09224 0.71201 0.59854 0.0
H2831 H 0.10241 0.73976 0.59087 0.0
C2832 C 0.08494 0.66903 0.62325 0.0
C2833 C 0.07269 0.66745 0.63588 0.0
C2834 C 0.09278 0.68446 0.6203 0.0
C2835 C 0.08856 0.6987 0.6299 0.0
C2836 C 0.07682 0.697 0.643 0.0
C2837 C 0.06896 0.68153 0.64597 0.0
C2838 C 0.10669 0.74284 0.63356 0.0
C2839 C 0.1072 0.74787 0.61657 0.0
C2840 C 0.10084 0.7268 0.63796 0.0
C2841 C 0.09555 0.71545 0.62545 0.0
C2842 C 0.09643 0.72037 0.60847 0.0
C2843 C 0.10215 0.73637 0.60409 0.0
H2844 H 0.08295 0.3413 0.3728 0.0
H2845 H 0.06148 0.2958 0.39349 0.0
H2846 H 0.05545 0.34943 0.36193 0.0
H2847 H 0.03408 0.30391 0.38241 0.0
H2848 H 0.00357 0.31068 0.33166 0.0
H2849 H 0.02738 0.30546 0.35009 0.0
H2850 H 0.02342 0.35594 0.36987 0.0
H2851 H -0.00093 0.36112 0.35152 0.0
C2852 C 0.0723 0.33323 0.37536 0.0
C2853 C 0.07444 0.3178 0.38383 0.0
C2854 C 0.05655 0.33795 0.36922 0.0
C2855 C 0.04271 0.32722 0.37122 0.0
C2856 C 0.0446 0.31236 0.38065 0.0
C2857 C 0.06028 0.30776 0.38704 0.0
C2858 C 0.00765 0.32064 0.34005 0.0
C2859 C -0.00046 0.33634 0.34009 0.0
C2860 C 0.02118 0.31759 0.35071 0.0
C2861 C 0.02716 0.33026 0.36147 0.0
C2862 C 0.01898 0.34595 0.36172 0.0
C2863 C 0.00509 0.3489 0.35127 0.0
H2864 H 0.39287 0.74029 0.40343 0.0
H2865 H 0.38533 0.7543 0.35132 0.0
H2866 H 0.40221 0.71258 0.39465 0.0
H2867 H 0.39459 0.72624 0.34254 0.0
H2868 H 0.43427 0.68257 0.33666 0.0
H2869 H 0.42136 0.7098 0.34272 0.0
H2870 H 0.39134 0.68674 0.38168 0.0
H2871 H 0.4043 0.65967 0.37587 0.0
C2872 C 0.39309 0.73744 0.39009 0.0
C2873 C 0.3884 0.74957 0.37808 0.0
C2874 C 0.39834 0.72147 0.38506 0.0
C2875 C 0.39908 0.71721 0.36791 0.0
C2876 C 0.39423 0.72923 0.35585 0.0
C2877 C 0.38885 0.74524 0.36089 0.0
C2878 C 0.42479 0.68327 0.3464 0.0
C2879 C 0.42054 0.66897 0.35596 0.0
C2880 C 0.41733 0.69885 0.3498 0.0
C2881 C 0.40549 0.70043 0.36281 0.0
C2882 C 0.40066 0.68598 0.37179 0.0
C2883 C 0.40809 0.67044 0.36841 0.0
H2884 H 0.01867 0.63942 0.17561 0.0
H2885 H 0.99033 0.66583 0.13771 0.0
H2886 H 0.04451 0.64546 0.1605 0.0
H2887 H 0.01631 0.67314 0.12305 0.0
H2888 H 0.06685 0.67843 0.0961 0.0
H2889 H 0.04049 0.66718 0.10731 0.0
H2890 H 0.06149 0.66845 0.15755 0.0
H2891 H 0.08768 0.67857 0.14629 0.0
C2892 C 0.01804 0.64643 0.16391 0.0
C2893 C 0.00261 0.65218 0.15779 0.0
C2894 C 0.03286 0.65013 0.15532 0.0
C2895 C 0.03269 0.66027 0.14073 0.0
C2896 C 0.01705 0.66527 0.13416 0.0
C2897 C 0.00213 0.66112 0.14255 0.0
C2898 C 0.06576 0.67615 0.10951 0.0
C2899 C 0.07941 0.67921 0.12027 0.0
C2900 C 0.05063 0.66976 0.11598 0.0
C2901 C 0.04879 0.66659 0.13338 0.0
C2902 C 0.06245 0.67005 0.14404 0.0
C2903 C 0.07753 0.67606 0.13758 0.0
H2904 H 0.10278 0.2544 0.90319 0.0
H2905 H 0.10942 0.24166 0.85063 0.0
H2906 H 0.09261 0.28206 0.89522 0.0
H2907 H 0.09937 0.26967 0.84267 0.0
H2908 H 0.0589 0.31263 0.83825 0.0
H2909 H 0.07239 0.28554 0.84363 0.0
H2910 H 0.10242 0.3084 0.8827 0.0
H2911 H 0.08887 0.33532 0.87758 0.0
C2912 C 0.10221 0.25753 0.88991 0.0
C2913 C 0.10688 0.24575 0.87755 0.0
C2914 C 0.09648 0.27347 0.88535 0.0
C2915 C 0.09523 0.27807 0.86831 0.0
C2916 C 0.10009 0.26642 0.8559 0.0
C2917 C 0.10595 0.25044 0.86047 0.0
C2918 C 0.06849 0.31191 0.84788 0.0
C2919 C 0.07259 0.3261 0.85766 0.0
C2920 C 0.07628 0.29641 0.85089 0.0
C2921 C 0.08832 0.29481 0.86372 0.0
C2922 C 0.09295 0.30917 0.87295 0.0
C2923 C 0.08518 0.32461 0.86997 0.0
H2924 H 0.49215 0.31065 0.65905 0.0
H2925 H 0.49766 0.36179 0.64134 0.0
H2926 H 0.46849 0.30655 0.64016 0.0
H2927 H 0.47344 0.35774 0.62251 0.0
H2928 H 0.41361 0.34403 0.6192 0.0
H2929 H 0.44134 0.35154 0.62988 0.0
H2930 H 0.46184 0.30632 0.60791 0.0
H2931 H 0.43419 0.29883 0.59704 0.0
C2932 C 0.48834 0.321 0.65103 0.0
C2933 C 0.49668 0.33657 0.65173 0.0
C2934 C 0.47489 0.3186 0.64009 0.0
C2935 C 0.46922 0.33179 0.6298 0.0
C2936 C 0.47765 0.34735 0.63028 0.0
C2937 C 0.49146 0.34965 0.64101 0.0
C2938 C 0.42413 0.33593 0.61621 0.0
C2939 C 0.42165 0.3207 0.60746 0.0
C2940 C 0.44001 0.3403 0.62226 0.0
C2941 C 0.45366 0.32941 0.61987 0.0
C2942 C 0.45147 0.31487 0.61 0.0
C2943 C 0.43565 0.31063 0.60372 0.0
H2944 H 0.15864 0.43095 0.3145 0.0
H2945 H 0.1154 0.40562 0.33542 0.0
H2946 H 0.15172 0.41969 0.2867 0.0
H2947 H 0.10868 0.39435 0.30778 0.0
H2948 H 0.08933 0.39943 0.25348 0.0
H2949 H 0.09819 0.40737 0.28166 0.0
H2950 H 0.14903 0.39309 0.26974 0.0
H2951 H 0.1402 0.38521 0.24128 0.0
C2952 C 0.1478 0.42284 0.31325 0.0
C2953 C 0.13748 0.41938 0.3272 0.0
C2954 C 0.14389 0.41633 0.29733 0.0
C2955 C 0.12956 0.40628 0.29503 0.0
C2956 C 0.11964 0.40229 0.3091 0.0
C2957 C 0.12356 0.40872 0.32497 0.0
C2958 C 0.1024 0.39787 0.25683 0.0
C2959 C 0.11406 0.39169 0.24507 0.0
C2960 C 0.10745 0.40234 0.27305 0.0
C2961 C 0.1243 0.40082 0.27793 0.0
C2962 C 0.13598 0.3945 0.26628 0.0
C2963 C 0.13089 0.38988 0.25003 0.0
H2964 H 0.3592 0.39245 0.98964 0.0
H2965 H 0.35457 0.33986 0.0031 0.0
H2966 H 0.34902 0.40039 0.01763 0.0
H2967 H 0.34429 0.3478 0.03074 0.0
H2968 H 0.34035 0.36613 0.0838 0.0
H2969 H 0.35384 0.36113 0.05684 0.0
H2970 H 0.32202 0.39849 0.03362 0.0
H2971 H 0.30854 0.40375 0.06077 0.0
C2972 C 0.35616 0.3826 -0.00142 0.0
C2973 C 0.35766 0.36552 0.9941 0.0
C2974 C 0.35022 0.38716 0.01455 0.0
C2975 C 0.34586 0.37472 0.02637 0.0
C2976 C 0.34773 0.35769 0.02199 0.0
C2977 C 0.35353 0.35314 0.00607 0.0
C2978 C 0.33623 0.37338 0.073 0.0
C2979 C 0.32316 0.38518 0.07443 0.0
C2980 C 0.34398 0.37047 0.05754 0.0
C2981 C 0.33886 0.37927 0.04308 0.0
C2982 C 0.32629 0.39158 0.04458 0.0
C2983 C 0.3185 0.39451 0.06011 0.0
H2984 H 0.37216 0.59376 0.83463 0.0
H2985 H 0.33234 0.56472 0.81177 0.0
H2986 H 0.37935 0.6054 0.80726 0.0
H2987 H 0.33971 0.57643 0.78424 0.0
H2988 H 0.35206 0.61018 0.73848 0.0
H2989 H 0.34182 0.60295 0.76664 0.0
H2990 H 0.39246 0.59199 0.78235 0.0
H2991 H 0.4027 0.59922 0.75443 0.0
C2992 C 0.36481 0.58996 0.82381 0.0
C2993 C 0.35181 0.57807 0.8254 0.0
C2994 C 0.36899 0.59663 0.8081 0.0
C2995 C 0.36027 0.59164 0.79358 0.0
C2996 C 0.34663 0.58054 0.79524 0.0
C2997 C 0.34244 0.57381 0.81101 0.0
C2998 C 0.36102 0.60641 0.74801 0.0
C2999 C 0.3782 0.60525 0.74418 0.0
C3000 C 0.35513 0.60217 0.76409 0.0
C3001 C 0.36633 0.59694 0.7767 0.0
C3002 C 0.38353 0.59618 0.77296 0.0
C3003 C 0.38938 0.60023 0.75691 0.0
H3004 H 0.15651 0.62656 0.58432 0.0
H3005 H 0.18705 0.5879 0.56129 0.0
H3006 H 0.14306 0.63189 0.55739 0.0
H3007 H 0.17365 0.5935 0.53417 0.0
H3008 H 0.13671 0.60085 0.49015 0.0
H3009 H 0.14669 0.59252 0.5181 0.0
H3010 H 0.15304 0.64491 0.53134 0.0
H3011 H 0.14296 0.65323 0.50375 0.0
C3012 C 0.16035 0.61915 0.57353 0.0
C3013 C 0.17307 0.60697 0.57493 0.0
C3014 C 0.15264 0.62224 0.55808 0.0
C3015 C 0.15745 0.61327 0.54363 0.0
C3016 C 0.16962 0.60056 0.54512 0.0
C3017 C 0.17736 0.59743 0.56064 0.0
C3018 C 0.14008 0.61057 0.4991 0.0
C3019 C 0.13907 0.62771 0.49468 0.0
C3020 C 0.14589 0.60579 0.51505 0.0
C3021 C 0.15062 0.61805 0.52691 0.0
C3022 C 0.14929 0.63515 0.52257 0.0
C3023 C 0.14361 0.63992 0.50667 0.0
H3024 H 0.09329 0.59331 0.24082 0.0
H3025 H 0.14462 0.6062 0.25266 0.0
H3026 H 0.10174 0.58492 0.2127 0.0
H3027 H 0.15304 0.59792 0.22418 0.0
H3028 H 0.16179 0.56038 0.17939 0.0
H3029 H 0.15512 0.57161 0.20722 0.0
H3030 H 0.11211 0.59725 0.18644 0.0
H3031 H 0.11855 0.58591 0.15874 0.0
C3032 C 0.10639 0.59445 0.23742 0.0
C3033 C 0.11829 0.6004 0.24907 0.0
C3034 C 0.11121 0.58975 0.22121 0.0
C3035 C 0.12804 0.59082 0.21618 0.0
C3036 C 0.13998 0.59686 0.22774 0.0
C3037 C 0.13514 0.60168 0.24401 0.0
C3038 C 0.15098 0.56851 0.18072 0.0
C3039 C 0.1406 0.57206 0.16682 0.0
C3040 C 0.14722 0.57503 0.19666 0.0
C3041 C 0.13301 0.5852 0.19905 0.0
C3042 C 0.12299 0.58922 0.18506 0.0
C3043 C 0.12674 0.58274 0.16915 0.0
H3044 H 0.13525 0.39285 0.00315 0.0
H3045 H 0.14264 0.34045 0.99025 0.0
H3046 H 0.14518 0.40106 0.97517 0.0
H3047 H 0.15267 0.34867 0.96258 0.0
H3048 H 0.15606 0.36669 0.9094 0.0
H3049 H 0.14253 0.36135 0.93628 0.0
H3050 H 0.17242 0.40036 0.95942 0.0
H3051 H 0.18595 0.40594 0.93235 0.0
C3052 C 0.13884 0.38309 0.99433 0.0
C3053 C 0.13818 0.36599 -0.00103 0.0
C3054 C 0.14463 0.38781 0.97837 0.0
C3055 C 0.14969 0.37551 0.96669 0.0
C3056 C 0.14866 0.35843 0.97121 0.0
C3057 C 0.14301 0.35373 0.98715 0.0
C3058 C 0.15972 0.37425 0.92016 0.0
C3059 C 0.1723 0.38659 0.91875 0.0
C3060 C 0.15196 0.37114 0.93558 0.0
C3061 C 0.15656 0.38028 0.94999 0.0
C3062 C 0.16856 0.39316 0.94849 0.0
C3063 C 0.17637 0.3963 0.933 0.0
H3064 H 0.37858 0.40569 0.65552 0.0
H3065 H 0.33462 0.42868 0.67758 0.0
H3066 H 0.38574 0.39349 0.68268 0.0
H3067 H 0.342 0.41658 0.70485 0.0
H3068 H 0.35413 0.38218 0.74933 0.0
H3069 H 0.34534 0.38998 0.72089 0.0
H3070 H 0.396 0.40519 0.70926 0.0
H3071 H 0.40485 0.39725 0.73743 0.0
C3072 C 0.37036 0.40808 0.66612 0.0
C3073 C 0.35609 0.41835 0.66436 0.0
C3074 C 0.37453 0.40111 0.68171 0.0
C3075 C 0.36453 0.40419 0.69595 0.0
C3076 C 0.3499 0.41387 0.69409 0.0
C3077 C 0.34573 0.42089 0.67846 0.0
C3078 C 0.36344 0.38699 0.74064 0.0
C3079 C 0.38019 0.38915 0.74573 0.0
C3080 C 0.35836 0.39157 0.72439 0.0
C3081 C 0.36995 0.39824 0.71284 0.0
C3082 C 0.38678 0.39991 0.71778 0.0
C3083 C 0.39184 0.39544 0.734 0.0
H3084 H 0.35955 0.59821 0.50165 0.0
H3085 H 0.35259 0.65077 0.48916 0.0
H3086 H 0.34971 0.59032 0.47353 0.0
H3087 H 0.34264 0.64288 0.46139 0.0
H3088 H 0.33918 0.62566 0.40803 0.0
H3089 H 0.35266 0.63061 0.43502 0.0
H3090 H 0.32283 0.59114 0.45747 0.0
H3091 H 0.3094 0.58595 0.43029 0.0
C3092 C 0.35605 0.60807 0.49291 0.0
C3093 C 0.35683 0.62512 0.4977 0.0
C3094 C 0.35032 0.60354 0.47685 0.0
C3095 C 0.34543 0.61597 0.46524 0.0
C3096 C 0.34653 0.633 0.46995 0.0
C3097 C 0.35213 0.63751 0.48596 0.0
C3098 C 0.33554 0.61791 0.41865 0.0
C3099 C 0.32301 0.60555 0.41702 0.0
C3100 C 0.34326 0.6208 0.43415 0.0
C3101 C 0.33865 0.61142 0.44842 0.0
C3102 C 0.3267 0.59852 0.44667 0.0
C3103 C 0.31895 0.59561 0.43111 0.0
H3104 H 0.31279 0.142 0.44436 0.0
H3105 H 0.33902 0.11505 0.40508 0.0
H3106 H 0.28622 0.13018 0.43433 0.0
H3107 H 0.31263 0.1034 0.39518 0.0
H3108 H 0.26988 0.06515 0.40487 0.0
H3109 H 0.29488 0.08186 0.40993 0.0
H3110 H 0.2652 0.12732 0.40947 0.0
H3111 H 0.23988 0.11043 0.40424 0.0
C3112 C 0.31287 0.13391 0.43338 0.0
C3113 C 0.32809 0.12922 0.42575 0.0
C3114 C 0.29765 0.12717 0.42762 0.0
C3115 C 0.29741 0.11564 0.41416 0.0
C3116 C 0.31247 0.112 0.40578 0.0
C3117 C 0.3276 0.11871 0.41148 0.0
C3118 C 0.26864 0.07872 0.4057 0.0
C3119 C 0.25289 0.08646 0.4042 0.0
C3120 C 0.28301 0.08832 0.40849 0.0
C3121 C 0.28202 0.10592 0.41005 0.0
C3122 C 0.26631 0.11377 0.40836 0.0
C3123 C 0.25187 0.10412 0.40526 0.0
H3124 H 0.81142 0.3472 0.54608 0.0
H3125 H 0.83121 0.36829 0.59215 0.0
H3126 H 0.78373 0.35831 0.5531 0.0
H3127 H 0.80345 0.37919 0.5992 0.0
H3128 H 0.74726 0.39038 0.60904 0.0
H3129 H 0.7715 0.37172 0.60476 0.0
H3130 H 0.77676 0.39042 0.55397 0.0
H3131 H 0.753 0.40916 0.55829 0.0
C3132 C 0.80977 0.35372 0.55795 0.0
C3133 C 0.82356 0.35705 0.56846 0.0
C3134 C 0.79393 0.36015 0.56192 0.0
C3135 C 0.79152 0.36973 0.57661 0.0
C3136 C 0.80495 0.37179 0.58784 0.0
C3137 C 0.82085 0.36561 0.58374 0.0
C3138 C 0.75352 0.39032 0.59693 0.0
C3139 C 0.74835 0.4013 0.58404 0.0
C3140 C 0.76736 0.37969 0.5945 0.0
C3141 C 0.7759 0.37956 0.579 0.0
C3142 C 0.77028 0.39009 0.56597 0.0
C3143 C 0.75677 0.40093 0.5685 0.0
H3144 H 0.34414 0.00251 0.34486 0.0
H3145 H 0.39553 0.98979 0.35657 0.0
H3146 H 0.35278 0.03069 0.3369 0.0
H3147 H 0.40416 0.01834 0.34867 0.0
H3148 H 0.41197 0.06413 0.31147 0.0
H3149 H 0.40569 0.03607 0.32243 0.0
H3150 H 0.3638 0.05639 0.35022 0.0
H3151 H 0.36986 0.0843 0.33921 0.0
C3152 C 0.3573 0.00572 0.34581 0.0
C3153 C 0.36914 0.99383 0.35134 0.0
C3154 C 0.36223 0.02196 0.34136 0.0
C3155 C 0.37914 0.02677 0.34225 0.0
C3156 C 0.39104 0.01495 0.34779 0.0
C3157 C 0.38608 -0.00136 0.35238 0.0
C3158 C 0.40151 0.06265 0.32004 0.0
C3159 C 0.39128 0.07647 0.32425 0.0
C3160 C 0.39798 0.04658 0.32639 0.0
C3161 C 0.38414 0.04401 0.33702 0.0
C3162 C 0.37437 0.05793 0.3418 0.0
C3163 C 0.3779 0.07395 0.33551 0.0
H3164 H 0.66568 0.62231 0.09096 0.0
H3165 H 0.68528 0.64166 0.04405 0.0
H3166 H 0.69335 0.61119 0.09805 0.0
H3167 H 0.71288 0.6303 0.0511 0.0
H3168 H 0.74346 0.57955 0.05793 0.0
H3169 H 0.71957 0.59803 0.05316 0.0
H3170 H 0.7255 0.61888 0.10302 0.0
H3171 H 0.74987 0.60049 0.10773 0.0
C3172 C 0.67599 0.62454 0.08235 0.0
C3173 C 0.67326 0.63272 0.06687 0.0
C3174 C 0.69183 0.61824 0.08646 0.0
C3175 C 0.70518 0.61977 0.07505 0.0
C3176 C 0.70275 0.62889 0.06007 0.0
C3177 C 0.68697 0.63547 0.05609 0.0
C3178 C 0.73979 0.58817 0.06784 0.0
C3179 C 0.74847 0.58851 0.08324 0.0
C3180 C 0.72621 0.59887 0.06504 0.0
C3181 C 0.72077 0.60995 0.07768 0.0
C3182 C 0.72951 0.61048 0.09306 0.0
C3183 C 0.74342 0.6 0.09573 0.0
H3184 H 0.65199 0.4882 0.34866 0.0
H3185 H 0.60064 0.50092 0.36048 0.0
H3186 H 0.64334 0.4599 0.34104 0.0
H3187 H 0.592 0.47231 0.35294 0.0
H3188 H 0.58429 0.42752 0.31443 0.0
H3189 H 0.59035 0.45513 0.32654 0.0
H3190 H 0.63219 0.43397 0.35376 0.0
H3191 H 0.62634 0.40648 0.3416 0.0
C3192 C 0.63885 0.48494 0.34975 0.0
C3193 C 0.627 0.49689 0.35512 0.0
C3194 C 0.63392 0.46864 0.34551 0.0
C3195 C 0.61699 0.46385 0.34645 0.0
C3196 C 0.60512 0.47569 0.35201 0.0
C3197 C 0.61009 0.49203 0.3564 0.0
C3198 C 0.59463 0.42869 0.32319 0.0
C3199 C 0.60498 0.41481 0.32681 0.0
C3200 C 0.59805 0.44451 0.33018 0.0
C3201 C 0.61188 0.44675 0.34091 0.0
C3202 C 0.62163 0.43269 0.34527 0.0
C3203 C 0.61823 0.41691 0.33832 0.0
H3204 H 0.1827 0.84821 0.94272 0.0
H3205 H 0.15715 0.87171 0.90087 0.0
H3206 H 0.20934 0.85981 0.93261 0.0
H3207 H 0.18362 0.88315 0.89088 0.0
H3208 H 0.22454 0.92373 0.90101 0.0
H3209 H 0.19991 0.9062 0.90518 0.0
H3210 H 0.23129 0.86202 0.9084 0.0
H3211 H 0.25621 0.87974 0.904 0.0
C3212 C 0.18281 0.85542 0.93113 0.0
C3213 C 0.16774 0.85932 0.92281 0.0
C3214 C 0.19807 0.86204 0.92534 0.0
C3215 C 0.19848 0.87264 0.91113 0.0
C3216 C 0.18363 0.87529 0.90204 0.0
C3217 C 0.16846 0.86871 0.90779 0.0
C3218 C 0.22621 0.91025 0.90238 0.0
C3219 C 0.2423 0.90311 0.90222 0.0
C3220 C 0.21208 0.90018 0.90467 0.0
C3221 C 0.21366 0.88272 0.90709 0.0
C3222 C 0.22972 0.87545 0.90659 0.0
C3223 C 0.24394 0.88556 0.90397 0.0
H3224 H 0.37726 0.91044 0.14999 0.0
H3225 H 0.40049 0.93285 0.19378 0.0
H3226 H 0.37102 0.93865 0.139 0.0
H3227 H 0.39382 0.96091 0.18294 0.0
H3228 H 0.35054 0.0002 0.16644 0.0
H3229 H 0.35963 0.97223 0.17537 0.0
H3230 H 0.39247 0.96906 0.13235 0.0
H3231 H 0.38376 -0.00256 0.12351 0.0
C3232 C 0.3811 0.92136 0.1572 0.0
C3233 C 0.38931 0.91946 0.17277 0.0
C3234 C 0.37762 0.93743 0.15087 0.0
C3235 C 0.38199 0.95179 0.16018 0.0
C3236 C 0.3904 0.94994 0.17557 0.0
C3237 C 0.39422 0.93392 0.18173 0.0
C3238 C 0.3597 0.99358 0.15885 0.0
C3239 C 0.36646 0.00101 0.14427 0.0
C3240 C 0.36491 0.97763 0.16401 0.0
C3241 C 0.37671 0.96865 0.15452 0.0
C3242 C 0.38334 0.97586 0.13982 0.0
C3243 C 0.37841 0.99204 0.13483 0.0
H3244 H 0.12396 0.08704 0.64973 0.0
H3245 H 0.08454 0.06644 0.68092 0.0
H3246 H 0.12927 0.05923 0.63812 0.0
H3247 H 0.09005 0.03846 0.66931 0.0
H3248 H 0.0991 0.9915 0.63597 0.0
H3249 H 0.09024 0.02016 0.64322 0.0
H3250 H 0.1419 0.03414 0.6514 0.0
H3251 H 0.15074 0.00583 0.64413 0.0
C3252 C 0.11629 0.07663 0.65401 0.0
C3253 C 0.104 0.07896 0.66649 0.0
C3254 C 0.11939 0.06067 0.64736 0.0
C3255 C 0.11027 0.04662 0.653 0.0
C3256 C 0.09726 0.04907 0.66469 0.0
C3257 C 0.09415 0.06509 0.67139 0.0
C3258 C 0.10855 0.00075 0.63918 0.0
C3259 C 0.12563 0.99634 0.63951 0.0
C3260 C 0.10346 0.01711 0.64341 0.0
C3261 C 0.11537 0.02941 0.6478 0.0
C3262 C 0.13242 0.02503 0.64784 0.0
C3263 C 0.13748 0.00873 0.64379 0.0
H3264 H 0.09115 0.10539 0.31454 0.0
H3265 H 0.08018 0.12503 0.36408 0.0
H3266 H 0.11869 0.09627 0.32427 0.0
H3267 H 0.10796 0.116 0.37379 0.0
H3268 H 0.16689 0.11458 0.37591 0.0
H3269 H 0.13923 0.12411 0.36625 0.0
H3270 H 0.12944 0.07466 0.34587 0.0
H3271 H 0.1568 0.06513 0.35561 0.0
C3272 C 0.0946 0.10765 0.32755 0.0
C3273 C 0.08352 0.11583 0.33859 0.0
C3274 C 0.11034 0.10244 0.33309 0.0
C3275 C 0.11544 0.10555 0.34972 0.0
C3276 C 0.10435 0.11362 0.36085 0.0
C3277 C 0.08843 0.1186 0.35536 0.0
C3278 C 0.15888 0.10586 0.36919 0.0
C3279 C 0.16397 0.08915 0.36644 0.0
C3280 C 0.14303 0.11124 0.36384 0.0
C3281 C 0.13223 0.10007 0.35541 0.0
C3282 C 0.13756 0.08353 0.35229 0.0
C3283 C 0.1532 0.07809 0.35787 0.0
H3284 H 0.12858 0.84205 0.56621 0.0
H3285 H 0.14424 0.82385 0.61505 0.0
H3286 H 0.13732 0.87042 0.5739 0.0
H3287 H 0.15275 0.85237 0.62285 0.0
H3288 H 0.17943 0.90312 0.62559 0.0
H3289 H 0.17328 0.87456 0.61609 0.0
H3290 H 0.12727 0.89214 0.59344 0.0
H3291 H 0.13353 0.92074 0.60273 0.0
C3292 C 0.13396 0.8441 0.57857 0.0
C3293 C 0.13566 0.83076 0.59007 0.0
C3294 C 0.13887 0.86037 0.583 0.0
C3295 C 0.1456 0.86364 0.59901 0.0
C3296 C 0.14774 0.8502 0.61036 0.0
C3297 C 0.14281 0.8339 0.60593 0.0
C3298 C 0.16807 0.9009 0.61846 0.0
C3299 C 0.15693 0.91414 0.6149 0.0
C3300 C 0.16451 0.88453 0.61312 0.0
C3301 C 0.14978 0.8811 0.60407 0.0
C3302 C 0.13882 0.89443 0.60023 0.0
C3303 C 0.14236 0.91079 0.6056 0.0
H3304 H 0.32351 0.88014 0.86036 0.0
H3305 H 0.34604 0.92744 0.87501 0.0
H3306 H 0.35084 0.87027 0.85028 0.0
H3307 H 0.37321 0.9175 0.86515 0.0
H3308 H 0.42143 0.88466 0.86336 0.0
H3309 H 0.39406 0.89414 0.87367 0.0
H3310 H 0.37135 0.87916 0.82663 0.0
H3311 H 0.39858 0.86988 0.81626 0.0
C3312 C 0.33426 0.88841 0.86139 0.0
C3313 C 0.33263 0.90457 0.86838 0.0
C3314 C 0.34986 0.88278 0.85563 0.0
C3315 C 0.3641 0.89313 0.85704 0.0
C3316 C 0.36245 0.90923 0.86408 0.0
C3317 C 0.34687 0.91494 0.86959 0.0
C3318 C 0.4106 0.88348 0.85523 0.0
C3319 C 0.41215 0.87663 0.83899 0.0
C3320 C 0.39498 0.8889 0.8611 0.0
C3321 C 0.38063 0.8873 0.85094 0.0
C3322 C 0.38219 0.88038 0.83476 0.0
C3323 C 0.39781 0.87521 0.8288 0.0
H3324 H 0.36894 0.15294 0.06593 0.0
H3325 H 0.35079 0.17219 0.11348 0.0
H3326 H 0.35946 0.12477 0.07367 0.0
H3327 H 0.34154 0.14398 0.12131 0.0
H3328 H 0.31425 0.09398 0.12406 0.0
H3329 H 0.32105 0.12204 0.11364 0.0
H3330 H 0.3682 0.10338 0.09448 0.0
H3331 H 0.36129 0.07522 0.10468 0.0
C3332 C 0.36282 0.15117 0.07798 0.0
C3333 C 0.36065 0.16473 0.08914 0.0
C3334 C 0.3575 0.13504 0.08244 0.0
C3335 C 0.34984 0.13218 0.09811 0.0
C3336 C 0.34725 0.14584 0.10907 0.0
C3337 C 0.35261 0.16197 0.10462 0.0
C3338 C 0.326 0.09583 0.11749 0.0
C3339 C 0.33729 0.08245 0.11523 0.0
C3340 C 0.32992 0.11191 0.11161 0.0
C3341 C 0.34518 0.11491 0.10333 0.0
C3342 C 0.35626 0.10141 0.10067 0.0
C3343 C 0.35236 0.08531 0.10658 0.0
H3344 H 0.1716 0.88264 0.13441 0.0
H3345 H 0.14921 0.93013 0.12022 0.0
H3346 H 0.14437 0.87299 0.14501 0.0
H3347 H 0.12214 0.9204 0.13056 0.0
H3348 H 0.07416 0.88644 0.13168 0.0
H3349 H 0.10138 0.89669 0.12174 0.0
H3350 H 0.12393 0.88222 0.169 0.0
H3351 H 0.09681 0.8722 0.17905 0.0
C3352 C 0.16091 0.891 0.13361 0.0
C3353 C 0.16253 0.90714 0.12656 0.0
C3354 C 0.14538 0.88551 0.13968 0.0
C3355 C 0.13121 0.89596 0.13851 0.0
C3356 C 0.13285 0.91207 0.13147 0.0
C3357 C 0.14838 0.91765 0.12568 0.0
C3358 C 0.0849 0.8856 0.13998 0.0
C3359 C 0.08336 0.8786 0.15615 0.0
C3360 C 0.10043 0.89145 0.13431 0.0
C3361 C 0.1147 0.89013 0.14461 0.0
C3362 C 0.11313 0.88323 0.16079 0.0
C3363 C 0.09759 0.87764 0.16655 0.0
H3364 H 0.36763 0.84218 0.43067 0.0
H3365 H 0.34884 0.82334 0.38321 0.0
H3366 H 0.3588 0.87057 0.42294 0.0
H3367 H 0.34023 0.85174 0.3754 0.0
H3368 H 0.31448 0.90235 0.37222 0.0
H3369 H 0.32039 0.87423 0.383 0.0
H3370 H 0.36807 0.89168 0.40201 0.0
H3371 H 0.36205 0.91991 0.39143 0.0
C3372 C 0.36149 0.84409 0.41865 0.0
C3373 C 0.35897 0.83058 0.4075 0.0
C3374 C 0.35654 0.86034 0.4142 0.0
C3375 C 0.34891 0.86337 0.39854 0.0
C3376 C 0.34593 0.84976 0.38762 0.0
C3377 C 0.35092 0.83351 0.39206 0.0
C3378 C 0.32615 0.90022 0.37885 0.0
C3379 C 0.33785 0.91328 0.38093 0.0
C3380 C 0.32956 0.88411 0.38493 0.0
C3381 C 0.34472 0.88075 0.39325 0.0
C3382 C 0.3562 0.89394 0.39579 0.0
C3383 C 0.3528 0.91008 0.38966 0.0
H3384 H 0.41599 0.1261 0.63061 0.0
H3385 H 0.4057 0.10886 0.6812 0.0
H3386 H 0.388 0.11679 0.6218 0.0
H3387 H 0.37797 0.09944 0.67236 0.0
H3388 H 0.33917 0.06708 0.64251 0.0
H3389 H 0.36662 0.0769 0.65189 0.0
H3390 H 0.35707 0.12552 0.6295 0.0
H3391 H 0.3294 0.11575 0.62025 0.0
C3392 C 0.40784 0.12015 0.63976 0.0
C3393 C 0.413 0.11813 0.65655 0.0
C3394 C 0.39181 0.115 0.63478 0.0
C3395 C 0.38086 0.1075 0.64645 0.0
C3396 C 0.3862 0.10515 0.66312 0.0
C3397 C 0.40206 0.11054 0.66816 0.0
C3398 C 0.34284 0.07994 0.63979 0.0
C3399 C 0.33216 0.09069 0.63073 0.0
C3400 C 0.35852 0.08554 0.64514 0.0
C3401 C 0.36395 0.1019 0.64129 0.0
C3402 C 0.35319 0.11278 0.63247 0.0
C3403 C 0.33734 0.10726 0.62736 0.0
H3404 H 0.17909 0.09143 0.86776 0.0
H3405 H 0.13283 0.07385 0.88993 0.0
H3406 H 0.17319 0.11985 0.87773 0.0
H3407 H 0.1268 0.10237 0.89969 0.0
H3408 H 0.14528 0.1709 0.87969 0.0
H3409 H 0.15313 0.1424 0.87131 0.0
H3410 H 0.13696 0.12363 0.91976 0.0
H3411 H 0.12886 0.15205 0.92802 0.0
C3412 C 0.16768 0.09363 0.8748 0.0
C3413 C 0.1564 0.08044 0.87806 0.0
C3414 C 0.16427 0.10993 0.88042 0.0
C3415 C 0.14952 0.11335 0.88945 0.0
C3416 C 0.13836 0.10008 0.89293 0.0
C3417 C 0.14176 0.08377 0.88728 0.0
C3418 C 0.14355 0.16071 0.88859 0.0
C3419 C 0.1364 0.16367 0.90447 0.0
C3420 C 0.1481 0.1444 0.88382 0.0
C3421 C 0.14557 0.13077 0.89485 0.0
C3422 C 0.13882 0.13384 0.9109 0.0
C3423 C 0.13429 0.15013 0.91567 0.0
H3424 H 0.09431 0.34498 0.17172 0.0
H3425 H 0.07536 0.39011 0.14824 0.0
H3426 H 0.10102 0.33338 0.1441 0.0
H3427 H 0.08323 0.37935 0.12075 0.0
H3428 H 0.08881 0.35295 0.07146 0.0
H3429 H 0.07823 0.36119 0.09905 0.0
H3430 H 0.11992 0.33537 0.12261 0.0
H3431 H 0.12948 0.32611 0.09508 0.0
C3432 C 0.09168 0.35242 0.16059 0.0
C3433 C 0.08428 0.36834 0.162 0.0
C3434 C 0.09566 0.34589 0.14474 0.0
C3435 C 0.0928 0.35542 0.13003 0.0
C3436 C 0.08529 0.37139 0.13162 0.0
C3437 C 0.08087 0.37767 0.14741 0.0
C3438 C 0.0955 0.34892 0.08262 0.0
C3439 C 0.10987 0.33889 0.08125 0.0
C3440 C 0.08958 0.35375 0.09846 0.0
C3441 C 0.09825 0.3491 0.11322 0.0
C3442 C 0.11262 0.33893 0.11168 0.0
C3443 C 0.11822 0.33369 0.09588 0.0
H3444 H 0.63437 0.16799 0.89886 0.0
H3445 H 0.59162 0.14273 0.92048 0.0
H3446 H 0.62595 0.15884 0.87093 0.0
H3447 H 0.5822 0.13467 0.8924 0.0
H3448 H 0.57985 0.10631 0.843 0.0
H3449 H 0.58732 0.11643 0.87087 0.0
H3450 H 0.60829 0.16157 0.84856 0.0
H3451 H 0.60199 0.15054 0.82062 0.0
C3452 C 0.6229 0.16079 0.89751 0.0
C3453 C 0.6136 0.15603 0.9117 0.0
C3454 C 0.61797 0.15562 0.88147 0.0
C3455 C 0.60332 0.14597 0.87923 0.0
C3456 C 0.59376 0.1417 0.89355 0.0
C3457 C 0.59902 0.14645 0.90965 0.0
C3458 C 0.58602 0.11842 0.84415 0.0
C3459 C 0.59038 0.12769 0.82978 0.0
C3460 C 0.5902 0.12434 0.86014 0.0
C3461 C 0.59842 0.13991 0.86215 0.0
C3462 C 0.60235 0.14936 0.84762 0.0
C3463 C 0.59862 0.14315 0.83159 0.0
H3464 H 0.92947 0.87655 0.34189 0.0
H3465 H 0.884 0.85306 0.32393 0.0
H3466 H 0.92351 0.86655 0.37031 0.0
H3467 H 0.87789 0.8433 0.35242 0.0
H3468 H 0.8794 0.81572 0.40231 0.0
H3469 H 0.88808 0.82374 0.37399 0.0
H3470 H 0.90305 0.87267 0.3925 0.0
H3471 H 0.89467 0.86452 0.42091 0.0
C3472 C 0.91823 0.8692 0.34401 0.0
C3473 C 0.90717 0.86559 0.33072 0.0
C3474 C 0.91478 0.86356 0.3603 0.0
C3475 C 0.90022 0.85418 0.3636 0.0
C3476 C 0.88932 0.85033 0.35023 0.0
C3477 C 0.89276 0.85599 0.33394 0.0
C3478 C 0.8847 0.82813 0.40036 0.0
C3479 C 0.8863 0.83953 0.41379 0.0
C3480 C 0.88956 0.83275 0.38413 0.0
C3481 C 0.89612 0.84887 0.38101 0.0
C3482 C 0.89818 0.8601 0.39455 0.0
C3483 C 0.89332 0.85547 0.4108 0.0
H3484 H 0.89492 0.15184 0.172 0.0
H3485 H 0.91796 0.10764 0.15055 0.0
H3486 H 0.88873 0.16232 0.14381 0.0
H3487 H 0.91063 0.11719 0.12245 0.0
H3488 H 0.90628 0.14256 0.07232 0.0
H3489 H 0.91559 0.1351 0.10061 0.0
H3490 H 0.87133 0.15895 0.12132 0.0
H3491 H 0.86301 0.1675 0.09318 0.0
C3492 C 0.89853 0.14435 0.16118 0.0
C3493 C 0.90698 0.12904 0.16334 0.0
C3494 C 0.89486 0.15023 0.145 0.0
C3495 C 0.89907 0.14062 0.13067 0.0
C3496 C 0.90752 0.12523 0.13301 0.0
C3497 C 0.91164 0.11963 0.14915 0.0
C3498 C 0.89875 0.14634 0.08303 0.0
C3499 C 0.88405 0.15567 0.08069 0.0
C3500 C 0.90394 0.14194 0.09925 0.0
C3501 C 0.89421 0.1463 0.11343 0.0
C3502 C 0.87944 0.15568 0.1109 0.0
C3503 C 0.87456 0.16051 0.09474 0.0
H3504 H 0.41894 0.60184 0.64874 0.0
H3505 H 0.40271 0.64907 0.67002 0.0
H3506 H 0.4116 0.61174 0.62072 0.0
H3507 H 0.39661 0.65972 0.6419 0.0
H3508 H 0.36788 0.66643 0.59326 0.0
H3509 H 0.37725 0.65763 0.62095 0.0
H3510 H 0.41702 0.62851 0.59792 0.0
H3511 H 0.40659 0.63639 0.57013 0.0
C3512 C 0.41417 0.61453 0.6473 0.0
C3513 C 0.41131 0.62472 0.66143 0.0
C3514 C 0.41005 0.6203 0.63121 0.0
C3515 C 0.40339 0.63657 0.62888 0.0
C3516 C 0.40124 0.64696 0.64312 0.0
C3517 C 0.40488 0.64097 0.65925 0.0
C3518 C 0.37868 0.65822 0.59418 0.0
C3519 C 0.38654 0.65206 0.57964 0.0
C3520 C 0.38419 0.65324 0.61009 0.0
C3521 C 0.398 0.64235 0.61185 0.0
C3522 C 0.40614 0.6366 0.59717 0.0
C3523 C 0.40029 0.64121 0.58122 0.0
H3524 H 0.06493 0.62059 0.34157 0.0
H3525 H 0.11243 0.63973 0.32376 0.0
H3526 H 0.07106 0.63124 0.36968 0.0
H3527 H 0.11867 0.6502 0.352 0.0
H3528 H 0.11813 0.67916 0.40145 0.0
H3529 H 0.10946 0.67119 0.37307 0.0
H3530 H 0.09094 0.62373 0.39217 0.0
H3531 H 0.09938 0.6318 0.42057 0.0
C3532 C 0.07665 0.62715 0.34365 0.0
C3533 C 0.08825 0.62928 0.3305 0.0
C3534 C 0.08018 0.63317 0.35976 0.0
C3535 C 0.09537 0.64146 0.36305 0.0
C3536 C 0.10678 0.644 0.34979 0.0
C3537 C 0.10326 0.63794 0.33365 0.0
C3538 C 0.11204 0.6671 0.39961 0.0
C3539 C 0.10946 0.65606 0.4132 0.0
C3540 C 0.10719 0.6625 0.38335 0.0
C3541 C 0.09961 0.64682 0.3804 0.0
C3542 C 0.09661 0.63598 0.39409 0.0
C3543 C 0.1015 0.64056 0.41034 0.0
H3544 H 0.39879 0.34512 0.82098 0.0
H3545 H 0.41716 0.39089 0.84369 0.0
H3546 H 0.39283 0.33363 0.84881 0.0
H3547 H 0.41001 0.3802 0.87145 0.0
H3548 H 0.40695 0.35349 0.92096 0.0
H3549 H 0.4162 0.36226 0.89304 0.0
H3550 H 0.3746 0.33507 0.87088 0.0
H3551 H 0.3664 0.32533 0.89867 0.0
C3552 C 0.40139 0.35275 0.832 0.0
C3553 C 0.40847 0.3688 0.83031 0.0
C3554 C 0.39786 0.34627 0.84797 0.0
C3555 C 0.40084 0.35596 0.86255 0.0
C3556 C 0.40789 0.37212 0.86068 0.0
C3557 C 0.41188 0.37836 0.84474 0.0
C3558 C 0.40001 0.34927 0.91001 0.0
C3559 C 0.38608 0.33869 0.91185 0.0
C3560 C 0.40516 0.35441 0.894 0.0
C3561 C 0.39613 0.34952 0.87954 0.0
C3562 C 0.38217 0.33883 0.88155 0.0
C3563 C 0.37736 0.3333 0.89751 0.0
H3564 H 0.92037 0.89561 0.63217 0.0
H3565 H 0.90451 0.87572 0.68029 0.0
H3566 H 0.89156 0.90398 0.62611 0.0
H3567 H 0.8758 0.88427 0.67432 0.0
H3568 H 0.82492 0.88138 0.64608 0.0
H3569 H 0.85369 0.87513 0.65445 0.0
H3570 H 0.86958 0.9237 0.63576 0.0
H3571 H 0.84092 0.92986 0.62721 0.0
C3572 C 0.91077 0.89321 0.64151 0.0
C3573 C 0.91464 0.88496 0.65665 0.0
C3574 C 0.8943 0.89805 0.63808 0.0
C3575 C 0.88145 0.8947 0.64973 0.0
C3576 C 0.88543 0.8868 0.66503 0.0
C3577 C 0.90187 0.882 0.66847 0.0
C3578 C 0.83453 0.89077 0.64392 0.0
C3579 C 0.83072 0.90605 0.63592 0.0
C3580 C 0.85098 0.88723 0.64876 0.0
C3581 C 0.86387 0.89891 0.64565 0.0
C3582 C 0.85993 0.91438 0.63808 0.0
C3583 C 0.84351 0.91793 0.63328 0.0
H3584 H 0.86138 0.07662 0.39678 0.0
H3585 H 0.81086 0.09297 0.38596 0.0
H3586 H 0.86844 0.105 0.40622 0.0
H3587 H 0.81781 0.12119 0.39576 0.0
H3588 H 0.84566 0.1714 0.38609 0.0
H3589 H 0.83554 0.14274 0.38285 0.0
H3590 H 0.86333 0.12767 0.42709 0.0
H3591 H 0.87373 0.15651 0.43021 0.0
C3592 C 0.85171 0.08619 0.39673 0.0
C3593 C 0.83567 0.0827 0.39039 0.0
C3594 C 0.85572 0.1024 0.40225 0.0
C3595 C 0.84371 0.11532 0.40156 0.0
C3596 C 0.82738 0.11153 0.39616 0.0
C3597 C 0.82341 0.09537 0.39059 0.0
C3598 C 0.84948 0.16203 0.39524 0.0
C3599 C 0.86057 0.16612 0.40833 0.0
C3600 C 0.84357 0.14564 0.39347 0.0
C3601 C 0.84864 0.13298 0.40473 0.0
C3602 C 0.85933 0.13718 0.41816 0.0
C3603 C 0.86521 0.15366 0.41998 0.0
H3604 H 0.65154 0.07361 0.1113 0.0
H3605 H 0.67286 0.09811 0.15482 0.0
H3606 H 0.62365 0.0818 0.12029 0.0
H3607 H 0.64483 0.10523 0.16475 0.0
H3608 H 0.595 0.13237 0.16796 0.0
H3609 H 0.62291 0.12313 0.16008 0.0
H3610 H 0.60176 0.0778 0.13836 0.0
H3611 H 0.57372 0.08795 0.14513 0.0
C3612 C 0.65015 0.08045 0.12303 0.0
C3613 C 0.66424 0.08527 0.13241 0.0
C3614 C 0.63414 0.08506 0.12829 0.0
C3615 C 0.63183 0.0942 0.14332 0.0
C3616 C 0.64604 0.09856 0.15292 0.0
C3617 C 0.66211 0.09437 0.14736 0.0
C3618 C 0.59641 0.1204 0.16155 0.0
C3619 C 0.58233 0.11084 0.1571 0.0
C3620 C 0.61243 0.115 0.15713 0.0
C3621 C 0.61475 0.09964 0.14857 0.0
C3622 C 0.60054 0.08987 0.14457 0.0
C3623 C 0.58447 0.09556 0.14856 0.0
H3624 H 0.64981 0.82179 0.88696 0.0
H3625 H 0.62387 0.83712 0.93223 0.0
H3626 H 0.66005 0.85036 0.88314 0.0
H3627 H 0.63439 0.86583 0.92853 0.0
H3628 H 0.63564 0.91688 0.89836 0.0
H3629 H 0.62859 0.88851 0.90784 0.0
H3630 H 0.67856 0.87177 0.89524 0.0
H3631 H 0.68549 0.9 0.88544 0.0
C3632 C 0.6465 0.83123 0.89623 0.0
C3633 C 0.63596 0.8273 0.90981 0.0
C3634 C 0.65247 0.84757 0.89412 0.0
C3635 C 0.64801 0.86031 0.90555 0.0
C3636 C 0.6379 0.85626 0.91946 0.0
C3637 C 0.63196 0.83985 0.92161 0.0
C3638 C 0.64517 0.90718 0.89783 0.0
C3639 C 0.66102 0.91054 0.89094 0.0
C3640 C 0.64118 0.89098 0.90337 0.0
C3641 C 0.65299 0.87792 0.90213 0.0
C3642 C 0.66913 0.88155 0.89609 0.0
C3643 C 0.6731 0.8977 0.89052 0.0
H3644 H 0.84412 0.06226 0.86617 0.0
H3645 H 0.82615 0.1101 0.84749 0.0
H3646 H 0.87239 0.06939 0.85702 0.0
H3647 H 0.85451 0.11732 0.83854 0.0
H3648 H 0.92211 0.09965 0.86001 0.0
H3649 H 0.89377 0.08996 0.86634 0.0
H3650 H 0.87666 0.10906 0.81836 0.0
H3651 H 0.90491 0.11893 0.81212 0.0
C3652 C 0.84619 0.07425 0.86 0.0
C3653 C 0.83297 0.08568 0.85761 0.0
C3654 C 0.86239 0.07836 0.85486 0.0
C3655 C 0.86566 0.09394 0.84718 0.0
C3656 C 0.85232 0.10515 0.8443 0.0
C3657 C 0.83611 0.10105 0.84948 0.0
C3658 C 0.91232 0.10164 0.85077 0.0
C3659 C 0.91567 0.11011 0.83563 0.0
C3660 C 0.89613 0.09603 0.85435 0.0
C3661 C 0.88301 0.09883 0.84286 0.0
C3662 C 0.88649 0.10693 0.82753 0.0
C3663 C 0.90267 0.11249 0.82394 0.0
H3664 H 0.65108 0.17012 0.60678 0.0
H3665 H 0.62437 0.15561 0.56168 0.0
H3666 H 0.66085 0.14137 0.61024 0.0
H3667 H 0.63444 0.1267 0.56502 0.0
H3668 H 0.63479 0.07554 0.59506 0.0
H3669 H 0.62837 0.10404 0.58557 0.0
H3670 H 0.67877 0.11966 0.59791 0.0
H3671 H 0.68507 0.0913 0.60776 0.0
C3672 C 0.6475 0.16082 0.59746 0.0
C3673 C 0.63687 0.16503 0.58404 0.0
C3674 C 0.65321 0.14437 0.59937 0.0
C3675 C 0.6484 0.1318 0.58788 0.0
C3676 C 0.63822 0.13613 0.57412 0.0
C3677 C 0.63252 0.15266 0.57218 0.0
C3678 C 0.64455 0.08502 0.59552 0.0
C3679 C 0.66033 0.08132 0.60239 0.0
C3680 C 0.64091 0.10129 0.58997 0.0
C3681 C 0.65303 0.11408 0.59117 0.0
C3682 C 0.66912 0.1101 0.59712 0.0
C3683 C 0.67272 0.09387 0.60271 0.0
H3684 H 0.65363 0.93033 0.36887 0.0
H3685 H 0.67063 0.88206 0.35042 0.0
H3686 H 0.62512 0.92351 0.36029 0.0
H3687 H 0.642 0.87512 0.34205 0.0
H3688 H 0.59135 0.87468 0.31573 0.0
H3689 H 0.61991 0.88353 0.32202 0.0
H3690 H 0.60333 0.90364 0.36978 0.0
H3691 H 0.57467 0.89499 0.36339 0.0
C3692 C 0.65128 0.91829 0.36289 0.0
C3693 C 0.66432 0.90668 0.36036 0.0
C3694 C 0.63494 0.91436 0.35809 0.0
C3695 C 0.63133 0.89875 0.35061 0.0
C3696 C 0.64446 0.88732 0.34766 0.0
C3697 C 0.66082 0.89125 0.35249 0.0
C3698 C 0.59378 0.8811 0.32752 0.0
C3699 C 0.58081 0.88412 0.3391 0.0
C3700 C 0.61014 0.88607 0.33115 0.0
C3701 C 0.61385 0.8942 0.3464 0.0
C3702 C 0.6008 0.89754 0.35783 0.0
C3703 C 0.58442 0.89254 0.35422 0.0
H3704 H 0.84599 0.82246 0.10678 0.0
H3705 H 0.87304 0.83711 0.06194 0.0
H3706 H 0.83655 0.85126 0.11053 0.0
H3707 H 0.8633 0.86615 0.06558 0.0
H3708 H 0.8627 0.91715 0.09639 0.0
H3709 H 0.86924 0.88877 0.08648 0.0
H3710 H 0.81874 0.87294 0.09817 0.0
H3711 H 0.81235 0.90111 0.10843 0.0
C3712 C 0.84972 0.83182 0.09758 0.0
C3713 C 0.86032 0.82761 0.08413 0.0
C3714 C 0.8442 0.8483 0.09965 0.0
C3715 C 0.84917 0.86093 0.08832 0.0
C3716 C 0.85939 0.85665 0.07455 0.0
C3717 C 0.86487 0.84006 0.07243 0.0
C3718 C 0.85296 0.90764 0.09661 0.0
C3719 C 0.83712 0.9112 0.10343 0.0
C3720 C 0.85666 0.89145 0.09083 0.0
C3721 C 0.84454 0.87863 0.09173 0.0
C3722 C 0.82841 0.88252 0.09761 0.0
C3723 C 0.82475 0.89863 0.10346 0.0
H3724 H 0.93504 0.63881 0.84148 0.0
H3725 H 0.88392 0.6481 0.82613 0.0
H3726 H 0.92854 0.64908 0.86965 0.0
H3727 H 0.87732 0.65801 0.85445 0.0
H3728 H 0.87216 0.68204 0.90586 0.0
H3729 H 0.88228 0.67919 0.87687 0.0
H3730 H 0.91164 0.63591 0.89167 0.0
H3731 H 0.9018 0.63889 0.92044 0.0
C3732 C 0.92246 0.64322 0.84409 0.0
C3733 C 0.9099 0.64241 0.83174 0.0
C3734 C 0.91875 0.64907 0.86021 0.0
C3735 C 0.90238 0.65413 0.86429 0.0
C3736 C 0.89007 0.65429 0.85163 0.0
C3737 C 0.89381 0.6485 0.83546 0.0
C3738 C 0.88098 0.6721 0.90291 0.0
C3739 C 0.88612 0.6606 0.91531 0.0
C3740 C 0.8867 0.67044 0.88635 0.0
C3741 C 0.89773 0.65734 0.88203 0.0
C3742 C 0.90334 0.64629 0.89464 0.0
C3743 C 0.89759 0.6479 0.91111 0.0
H3744 H 0.40978 0.84667 0.07054 0.0
H3745 H 0.36589 0.82358 0.09227 0.0
H3746 H 0.42097 0.85191 0.09859 0.0
H3747 H 0.37622 0.82999 0.12039 0.0
H3748 H 0.40062 0.83693 0.17031 0.0
H3749 H 0.3945 0.82584 0.14234 0.0
H3750 H 0.41653 0.87052 0.12013 0.0
H3751 H 0.42372 0.88073 0.14804 0.0
C3752 C 0.40258 0.8427 0.08142 0.0
C3753 C 0.38703 0.83478 0.07942 0.0
C3754 C 0.40887 0.84585 0.09749 0.0
C3755 C 0.39941 0.84168 0.11186 0.0
C3756 C 0.38404 0.83318 0.10972 0.0
C3757 C 0.37802 0.82957 0.09362 0.0
C3758 C 0.40433 0.84417 0.15935 0.0
C3759 C 0.41261 0.85962 0.16118 0.0
C3760 C 0.40073 0.83792 0.14333 0.0
C3761 C 0.40488 0.84729 0.12886 0.0
C3762 C 0.41345 0.86269 0.13086 0.0
C3763 C 0.41747 0.86867 0.14686 0.0
H3764 H 0.09453 0.13651 0.57256 0.0
H3765 H 0.12378 0.18039 0.58577 0.0
H3766 H 0.08488 0.1342 0.60144 0.0
H3767 H 0.11385 0.1782 0.6149 0.0
H3768 H 0.1128 0.14809 0.66638 0.0
H3769 H 0.11916 0.1575 0.63783 0.0
H3770 H 0.0679 0.1479 0.62313 0.0
H3771 H 0.06164 0.13813 0.65154 0.0
C3772 C 0.0987 0.14582 0.58161 0.0
C3773 C 0.11 0.15854 0.57699 0.0
C3774 C 0.09305 0.14459 0.59814 0.0
C3775 C 0.0986 0.15605 0.61041 0.0
C3776 C 0.10947 0.16915 0.60569 0.0
C3777 C 0.11508 0.17043 0.58905 0.0
C3778 C 0.10284 0.14825 0.65711 0.0
C3779 C 0.08682 0.1421 0.66104 0.0
C3780 C 0.10645 0.15376 0.64081 0.0
C3781 C 0.09406 0.15325 0.62824 0.0
C3782 C 0.07776 0.14815 0.63252 0.0
C3783 C 0.07418 0.14258 0.64877 0.0
H3784 H 0.12143 0.81111 0.9055 0.0
H3785 H 0.09422 0.85572 0.92049 0.0
H3786 H 0.11141 0.81471 0.87658 0.0
H3787 H 0.08449 0.85944 0.89175 0.0
H3788 H 0.06042 0.85749 0.84168 0.0
H3789 H 0.06673 0.84716 0.86987 0.0
H3790 H 0.11731 0.83566 0.8542 0.0
H3791 H 0.11088 0.84564 0.82586 0.0
C3792 C 0.11318 0.82156 0.90265 0.0
C3793 C 0.10867 0.83321 0.91516 0.0
C3794 C 0.10752 0.82364 0.88612 0.0
C3795 C 0.09719 0.83735 0.88194 0.0
C3796 C 0.09223 0.84862 0.89464 0.0
C3797 C 0.09792 0.84657 0.91108 0.0
C3798 C 0.07281 0.85252 0.84419 0.0
C3799 C 0.08525 0.85259 0.8317 0.0
C3800 C 0.07642 0.84665 0.86032 0.0
C3801 C 0.09256 0.84081 0.86426 0.0
C3802 C 0.10473 0.83998 0.85149 0.0
C3803 C 0.10109 0.8458 0.83531 0.0
H3804 H 0.61188 0.34623 0.32603 0.0
H3805 H 0.56088 0.356 0.3415 0.0
H3806 H 0.6184 0.33608 0.3543 0.0
H3807 H 0.56729 0.3455 0.3696 0.0
H3808 H 0.59397 0.35467 0.42053 0.0
H3809 H 0.58437 0.35825 0.39173 0.0
H3810 H 0.61306 0.31468 0.37647 0.0
H3811 H 0.62294 0.31122 0.40547 0.0
C3812 C 0.602 0.34588 0.33537 0.0
C3813 C 0.58597 0.35216 0.33171 0.0
C3814 C 0.60569 0.33996 0.35151 0.0
C3815 C 0.59338 0.34018 0.36417 0.0
C3816 C 0.57708 0.34547 0.36015 0.0
C3817 C 0.57342 0.35145 0.34407 0.0
C3818 C 0.59809 0.34573 0.41108 0.0
C3819 C 0.60928 0.33275 0.41517 0.0
C3820 C 0.59248 0.34769 0.39461 0.0
C3821 C 0.59797 0.33672 0.38187 0.0
C3822 C 0.60875 0.32338 0.38605 0.0
C3823 C 0.61432 0.32136 0.40261 0.0
H3824 H 0.89921 0.3556 0.57347 0.0
H3825 H 0.87219 0.31093 0.58868 0.0
H3826 H 0.90886 0.35958 0.60218 0.0
H3827 H 0.88213 0.31481 0.61763 0.0
H3828 H 0.88347 0.34589 0.66846 0.0
H3829 H 0.87653 0.33593 0.64019 0.0
H3830 H 0.92692 0.34718 0.62376 0.0
H3831 H 0.93374 0.35746 0.65183 0.0
C3832 C 0.89551 0.3465 0.58294 0.0
C3833 C 0.88488 0.33301 0.5789 0.0
C3834 C 0.90115 0.3487 0.59936 0.0
C3835 C 0.89628 0.33747 0.61213 0.0
C3836 C 0.88598 0.3237 0.60803 0.0
C3837 C 0.88038 0.32144 0.59149 0.0
C3838 C 0.8931 0.34601 0.65885 0.0
C3839 C 0.90904 0.35269 0.66222 0.0
C3840 C 0.88917 0.3402 0.64272 0.0
C3841 C 0.90115 0.34096 0.62976 0.0
C3842 C 0.91737 0.34673 0.63345 0.0
C3843 C 0.92127 0.35258 0.64952 0.0
H3844 H 0.59877 0.63526 0.07408 0.0
H3845 H 0.6249 0.68105 0.08742 0.0
H3846 H 0.58895 0.63246 0.10291 0.0
H3847 H 0.61479 0.67836 0.11642 0.0
H3848 H 0.61323 0.6504 0.16876 0.0
H3849 H 0.62041 0.65864 0.14004 0.0
H3850 H 0.57041 0.64566 0.12369 0.0
H3851 H 0.56333 0.63711 0.15229 0.0
C3852 C 0.60226 0.64483 0.08315 0.0
C3853 C 0.61266 0.65832 0.07856 0.0
C3854 C 0.59651 0.6433 0.09964 0.0
C3855 C 0.60106 0.65523 0.11189 0.0
C3856 C 0.61119 0.66894 0.10723 0.0
C3857 C 0.61691 0.6705 0.09066 0.0
C3858 C 0.60372 0.64954 0.15907 0.0
C3859 C 0.58782 0.64288 0.16267 0.0
C3860 C 0.60779 0.65436 0.14266 0.0
C3861 C 0.59601 0.65261 0.12962 0.0
C3862 C 0.57981 0.64686 0.13346 0.0
C3863 C 0.57576 0.64202 0.14983 0.0
H3864 H 0.66589 0.61566 0.87509 0.0
H3865 H 0.65682 0.56691 0.85272 0.0
H3866 H 0.6381 0.62506 0.86575 0.0
H3867 H 0.6293 0.57636 0.84322 0.0
H3868 H 0.58983 0.60787 0.81383 0.0
H3869 H 0.61778 0.59904 0.82266 0.0
H3870 H 0.60717 0.61552 0.87338 0.0
H3871 H 0.57899 0.62419 0.86459 0.0
C3872 C 0.65808 0.60708 0.86795 0.0
C3873 C 0.66347 0.59059 0.86457 0.0
C3874 C 0.64216 0.61239 0.86277 0.0
C3875 C 0.63159 0.60138 0.85386 0.0
C3876 C 0.63724 0.58509 0.85003 0.0
C3877 C 0.65297 0.5797 0.85546 0.0
C3878 C 0.5934 0.60948 0.8269 0.0
C3879 C 0.58223 0.61662 0.83856 0.0
C3880 C 0.60938 0.60444 0.83193 0.0
C3881 C 0.61461 0.60671 0.84865 0.0
C3882 C 0.60344 0.6138 0.86036 0.0
C3883 C 0.58731 0.61858 0.85539 0.0
H3884 H 0.63022 0.42192 0.1036 0.0
H3885 H 0.67756 0.40463 0.12355 0.0
H3886 H 0.62393 0.39334 0.09407 0.0
H3887 H 0.6714 0.3762 0.11384 0.0
H3888 H 0.62578 0.34359 0.06533 0.0
H3889 H 0.63346 0.37216 0.07352 0.0
H3890 H 0.65177 0.3535 0.12123 0.0
H3891 H 0.6443 0.32485 0.11293 0.0
C3892 C 0.63933 0.41206 0.1058 0.0
C3893 C 0.65434 0.41548 0.11434 0.0
C3894 C 0.63577 0.39572 0.1003 0.0
C3895 C 0.64716 0.38253 0.10327 0.0
C3896 C 0.66228 0.38605 0.11158 0.0
C3897 C 0.66585 0.40236 0.11704 0.0
C3898 C 0.63156 0.34557 0.07752 0.0
C3899 C 0.63444 0.332 0.08851 0.0
C3900 C 0.63584 0.36194 0.08224 0.0
C3901 C 0.64313 0.36507 0.09803 0.0
C3902 C 0.64631 0.35145 0.1089 0.0
C3903 C 0.64199 0.33506 0.10419 0.0
H3904 H 0.82352 0.38026 0.35885 0.0
H3905 H 0.84662 0.42679 0.37497 0.0
H3906 H 0.85079 0.37029 0.34864 0.0
H3907 H 0.87371 0.41675 0.36502 0.0
H3908 H 0.92142 0.38306 0.36251 0.0
H3909 H 0.89412 0.39252 0.37303 0.0
H3910 H 0.87156 0.38006 0.3252 0.0
H3911 H 0.89873 0.37084 0.31461 0.0
C3912 C 0.83438 0.38833 0.36019 0.0
C3913 C 0.83294 0.40432 0.3676 0.0
C3914 C 0.84994 0.38265 0.35435 0.0
C3915 C 0.86431 0.39276 0.35613 0.0
C3916 C 0.86285 0.40867 0.36365 0.0
C3917 C 0.84731 0.41444 0.36921 0.0
C3918 C 0.91064 0.38244 0.35425 0.0
C3919 C 0.91222 0.37633 0.33773 0.0
C3920 C 0.89506 0.38784 0.36024 0.0
C3921 C 0.88078 0.38692 0.34991 0.0
C3922 C 0.88236 0.38073 0.33345 0.0
C3923 C 0.89794 0.37561 0.32737 0.0
H3924 H 0.85084 0.67035 0.61391 0.0
H3925 H 0.86636 0.65211 0.56504 0.0
H3926 H 0.84274 0.6418 0.62192 0.0
H3927 H 0.85804 0.62365 0.57297 0.0
H3928 H 0.86313 0.57371 0.60248 0.0
H3929 H 0.86879 0.60234 0.59283 0.0
H3930 H 0.82246 0.61922 0.61535 0.0
H3931 H 0.8169 0.59066 0.62519 0.0
C3932 C 0.85231 0.66029 0.60481 0.0
C3933 C 0.85932 0.66342 0.5889 0.0
C3934 C 0.84761 0.64396 0.60937 0.0
C3935 C 0.84987 0.63049 0.5981 0.0
C3936 C 0.8564 0.63375 0.582 0.0
C3937 C 0.86106 0.65006 0.57743 0.0
C3938 C 0.85411 0.58352 0.60526 0.0
C3939 C 0.8396 0.57998 0.6146 0.0
C3940 C 0.8573 0.59988 0.59967 0.0
C3941 C 0.84606 0.61301 0.60335 0.0
C3942 C 0.83142 0.60939 0.61249 0.0
C3943 C 0.82821 0.59303 0.61803 0.0
H3944 H 0.59763 0.36945 0.67937 0.0
H3945 H 0.57451 0.38471 0.63256 0.0
H3946 H 0.62464 0.37979 0.6693 0.0
H3947 H 0.6016 0.39529 0.62261 0.0
H3948 H 0.64909 0.42924 0.62149 0.0
H3949 H 0.62222 0.41906 0.63203 0.0
H3950 H 0.64494 0.37141 0.6448 0.0
H3951 H 0.67192 0.38149 0.634 0.0
C3952 C 0.59829 0.37514 0.66698 0.0
C3953 C 0.58396 0.37634 0.65675 0.0
C3954 C 0.61377 0.38093 0.66121 0.0
C3955 C 0.61515 0.38828 0.6452 0.0
C3956 C 0.6008 0.38973 0.63505 0.0
C3957 C 0.58534 0.38366 0.64071 0.0
C3958 C 0.64841 0.41662 0.62665 0.0
C3959 C 0.66261 0.40615 0.62697 0.0
C3960 C 0.633 0.41078 0.63255 0.0
C3961 C 0.63155 0.39446 0.63914 0.0
C3962 C 0.6458 0.38408 0.63982 0.0
C3963 C 0.66119 0.38983 0.63364 0.0
H3964 H 0.84979 0.32481 0.88046 0.0
H3965 H 0.86597 0.34274 0.92923 0.0
H3966 H 0.84168 0.3534 0.8727 0.0
H3967 H 0.85762 0.37127 0.92156 0.0
H3968 H 0.86217 0.42145 0.89213 0.0
H3969 H 0.86789 0.39286 0.90187 0.0
H3970 H 0.82154 0.37582 0.87948 0.0
H3971 H 0.81595 0.40432 0.86953 0.0
C3972 C 0.85141 0.33482 0.88959 0.0
C3973 C 0.85858 0.33157 0.90541 0.0
C3974 C 0.8467 0.35118 0.88518 0.0
C3975 C 0.8491 0.36459 0.89651 0.0
C3976 C 0.85585 0.36123 0.9125 0.0
C3977 C 0.86052 0.34488 0.91691 0.0
C3978 C 0.85315 0.41162 0.88941 0.0
C3979 C 0.83866 0.41509 0.88003 0.0
C3980 C 0.85638 0.39527 0.89505 0.0
C3981 C 0.84517 0.3821 0.89139 0.0
C3982 C 0.8305 0.38568 0.8823 0.0
C3983 C 0.82727 0.40201 0.8767 0.0
H3984 H 0.92284 0.60947 0.1315 0.0
H3985 H 0.89845 0.62394 0.1779 0.0
H3986 H 0.89603 0.59881 0.12074 0.0
H3987 H 0.87181 0.61355 0.16707 0.0
H3988 H 0.82497 0.61088 0.13203 0.0
H3989 H 0.8518 0.62173 0.14242 0.0
H3990 H 0.87558 0.57458 0.1297 0.0
H3991 H 0.84883 0.56364 0.11957 0.0
C3992 C 0.91179 0.61036 0.13937 0.0
C3993 C 0.91274 0.61744 0.15555 0.0
C3994 C 0.8965 0.60426 0.13325 0.0
C3995 C 0.8819 0.60544 0.1431 0.0
C3996 C 0.88286 0.61263 0.1592 0.0
C3997 C 0.89814 0.61845 0.16541 0.0
C3998 C 0.83591 0.60283 0.13156 0.0
C3999 C 0.8348 0.5864 0.12511 0.0
C4000 C 0.85122 0.60902 0.13749 0.0
C4001 C 0.86571 0.59898 0.13676 0.0
C4002 C 0.86461 0.5826 0.13025 0.0
C4003 C 0.84927 0.57632 0.1246 0.0
H4004 H 0.6271 0.65081 0.42949 0.0
H4005 H 0.64304 0.66954 0.38094 0.0
H4006 H 0.63626 0.62258 0.42166 0.0
H4007 H 0.65197 0.64124 0.37301 0.0
H4008 H 0.67914 0.59107 0.36974 0.0
H4009 H 0.67273 0.61934 0.37985 0.0
H4010 H 0.62662 0.60093 0.40166 0.0
H4011 H 0.63315 0.57259 0.39176 0.0
C4012 C 0.63266 0.64891 0.41718 0.0
C4013 C 0.6343 0.66235 0.40578 0.0
C4014 C 0.6378 0.63274 0.41267 0.0
C4015 C 0.64473 0.62969 0.3967 0.0
C4016 C 0.64682 0.64324 0.38548 0.0
C4017 C 0.64164 0.65942 0.38998 0.0
C4018 C 0.6677 0.59304 0.37681 0.0
C4019 C 0.65661 0.57965 0.37993 0.0
C4020 C 0.664 0.60924 0.38251 0.0
C4021 C 0.64916 0.61235 0.39148 0.0
C4022 C 0.63825 0.59887 0.39493 0.0
C4023 C 0.64194 0.58267 0.3892 0.0
H4024 H 0.56562 0.87265 0.65364 0.0
H4025 H 0.61265 0.85229 0.67132 0.0
H4026 H 0.57163 0.86228 0.62539 0.0
H4027 H 0.61877 0.84211 0.64296 0.0
H4028 H 0.61795 0.81385 0.59318 0.0
H4029 H 0.60927 0.82161 0.62161 0.0
H4030 H 0.59172 0.86963 0.60303 0.0
H4031 H 0.60018 0.86178 0.57456 0.0
C4032 C 0.5772 0.86588 0.65151 0.0
C4033 C 0.58871 0.86333 0.66466 0.0
C4034 C 0.58067 0.86002 0.63531 0.0
C4035 C 0.5957 0.85147 0.63195 0.0
C4036 C 0.60701 0.84852 0.64522 0.0
C4037 C 0.60354 0.85441 0.66143 0.0
C4038 C 0.61208 0.82599 0.59514 0.0
C4039 C 0.60978 0.83724 0.58168 0.0
C4040 C 0.60722 0.83046 0.61143 0.0
C4041 C 0.5999 0.84625 0.61454 0.0
C4042 C 0.59718 0.8573 0.60098 0.0
C4043 C 0.60208 0.85284 0.5847 0.0
H4044 H 0.34208 0.42959 0.12334 0.0
H4045 H 0.3265 0.38193 0.14453 0.0
H4046 H 0.3707 0.42432 0.1326 0.0
H4047 H 0.35523 0.37655 0.15359 0.0
H4048 H 0.40542 0.37884 0.18007 0.0
H4049 H 0.37679 0.38705 0.17333 0.0
H4050 H 0.39315 0.40454 0.12447 0.0
H4051 H 0.42187 0.39656 0.1313 0.0
C4052 C 0.34476 0.41802 0.13005 0.0
C4053 C 0.3321 0.40612 0.13317 0.0
C4054 C 0.36116 0.41498 0.13526 0.0
C4055 C 0.36518 0.40001 0.14374 0.0
C4056 C 0.35243 0.38829 0.14723 0.0
C4057 C 0.33602 0.39132 0.14198 0.0
C4058 C 0.40294 0.3846 0.16796 0.0
C4059 C 0.41584 0.38698 0.15615 0.0
C4060 C 0.38653 0.3892 0.16408 0.0
C4061 C 0.38274 0.3963 0.14835 0.0
C4062 C 0.39575 0.39922 0.13676 0.0
C4063 C 0.41217 0.39459 0.14063 0.0
H4064 H 0.34369 0.67295 0.88718 0.0
H4065 H 0.36922 0.65593 0.93208 0.0
H4066 H 0.33303 0.6447 0.8825 0.0
H4067 H 0.35825 0.62751 0.92753 0.0
H4068 H 0.35739 0.57774 0.89538 0.0
H4069 H 0.36423 0.60568 0.90612 0.0
H4070 H 0.31442 0.62287 0.89346 0.0
H4071 H 0.30771 0.59506 0.88237 0.0
C4072 C 0.3468 0.66321 0.89621 0.0
C4073 C 0.3574 0.66656 0.90989 0.0
C4074 C 0.34057 0.64704 0.89361 0.0
C4075 C 0.34484 0.63391 0.90465 0.0
C4076 C 0.3549 0.6374 0.91875 0.0
C4077 C 0.36111 0.65364 0.92138 0.0
C4078 C 0.34785 0.58743 0.89509 0.0
C4079 C 0.33212 0.58435 0.88782 0.0
C4080 C 0.35171 0.60338 0.90137 0.0
C4081 C 0.33988 0.61646 0.90051 0.0
C4082 C 0.32385 0.61307 0.89405 0.0
C4083 C 0.32001 0.59716 0.88773 0.0
H4084 H 0.15342 0.5635 0.62532 0.0
H4085 H 0.17012 0.61185 0.6439 0.0
H4086 H 0.12494 0.56995 0.63419 0.0
H4087 H 0.14148 0.61841 0.65258 0.0
H4088 H 0.07419 0.5979 0.63176 0.0
H4089 H 0.10287 0.58962 0.62505 0.0
H4090 H 0.11968 0.60951 0.67282 0.0
H4091 H 0.09109 0.61799 0.67944 0.0
C4092 C 0.15101 0.57549 0.63136 0.0
C4093 C 0.16396 0.58722 0.63388 0.0
C4094 C 0.13469 0.5792 0.63635 0.0
C4095 C 0.13099 0.59471 0.64397 0.0
C4096 C 0.14402 0.60629 0.64686 0.0
C4097 C 0.16038 0.60257 0.64185 0.0
C4098 C 0.08399 0.60036 0.64088 0.0
C4099 C 0.08044 0.60863 0.65608 0.0
C4100 C 0.10039 0.59557 0.63707 0.0
C4101 C 0.1135 0.599 0.6484 0.0
C4102 C 0.10985 0.60693 0.66377 0.0
C4103 C 0.09347 0.61167 0.66758 0.0
H4104 H 0.14521 0.41824 0.40827 0.0
H4105 H 0.1732 0.39607 0.36739 0.0
H4106 H 0.13851 0.39019 0.41892 0.0
H4107 H 0.16556 0.36816 0.37705 0.0
H4108 H 0.15842 0.31869 0.4007 0.0
H4109 H 0.169 0.3471 0.39626 0.0
H4110 H 0.12162 0.36732 0.41361 0.0
H4111 H 0.11181 0.33883 0.41934 0.0
C4112 C 0.14986 0.4073 0.40157 0.0
C4113 C 0.15974 0.4092 0.38709 0.0
C4114 C 0.14593 0.39123 0.40756 0.0
C4115 C 0.15143 0.37678 0.39889 0.0
C4116 C 0.16143 0.37886 0.38441 0.0
C4117 C 0.16572 0.39489 0.37873 0.0
C4118 C 0.15049 0.32931 0.40387 0.0
C4119 C 0.13438 0.32674 0.41032 0.0
C4120 C 0.15643 0.34559 0.40116 0.0
C4121 C 0.14608 0.35963 0.40423 0.0
C4122 C 0.1301 0.35694 0.41129 0.0
C4123 C 0.12439 0.34062 0.41452 0.0
H4124 H 0.34038 0.56315 0.36456 0.0
H4125 H 0.32341 0.61194 0.34749 0.0
H4126 H 0.36875 0.56989 0.35547 0.0
H4127 H 0.35191 0.61878 0.33859 0.0
H4128 H 0.40232 0.61985 0.31185 0.0
H4129 H 0.3738 0.61075 0.31806 0.0
H4130 H 0.3907 0.58947 0.36519 0.0
H4131 H 0.41928 0.59837 0.35889 0.0
C4132 C 0.34269 0.57528 0.35876 0.0
C4133 C 0.32972 0.58706 0.3568 0.0
C4134 C 0.35896 0.57916 0.35365 0.0
C4135 C 0.36256 0.5949 0.34644 0.0
C4136 C 0.34947 0.60649 0.34399 0.0
C4137 C 0.33318 0.60261 0.34914 0.0
C4138 C 0.39997 0.61309 0.32347 0.0
C4139 C 0.413 0.60985 0.33492 0.0
C4140 C 0.38363 0.60798 0.32706 0.0
C4141 C 0.38002 0.59947 0.34213 0.0
C4142 C 0.39314 0.59585 0.35338 0.0
C4143 C 0.40949 0.60101 0.34982 0.0
H4144 H 0.17657 0.59664 0.12775 0.0
H4145 H 0.14957 0.57441 0.08622 0.0
H4146 H 0.16802 0.62449 0.11861 0.0
H4147 H 0.14191 0.6024 0.07618 0.0
H4148 H 0.11293 0.65229 0.07716 0.0
H4149 H 0.12382 0.62418 0.08269 0.0
H4150 H 0.17066 0.64605 0.09949 0.0
H4151 H 0.15912 0.67407 0.09514 0.0
C4152 C 0.16914 0.59781 0.11638 0.0
C4153 C 0.16365 0.58349 0.10769 0.0
C4154 C 0.16431 0.61379 0.11103 0.0
C4155 C 0.15424 0.61579 0.0966 0.0
C4156 C 0.14935 0.60137 0.08753 0.0
C4157 C 0.15383 0.58535 0.09317 0.0
C4158 C 0.1256 0.65097 0.0819 0.0
C4159 C 0.13518 0.66519 0.08591 0.0
C4160 C 0.13192 0.63488 0.08497 0.0
C4161 C 0.14812 0.63277 0.09171 0.0
C4162 C 0.15798 0.64714 0.09478 0.0
C4163 C 0.15146 0.6632 0.09217 0.0
H4164 H 0.17026 0.38128 0.84966 0.0
H4165 H 0.15393 0.42969 0.86839 0.0
H4166 H 0.1415 0.37482 0.84127 0.0
H4167 H 0.12534 0.42331 0.85985 0.0
H4168 H 0.07441 0.39546 0.86249 0.0
H4169 H 0.10319 0.40356 0.86915 0.0
H4170 H 0.11966 0.38409 0.82109 0.0
H4171 H 0.091 0.37583 0.81452 0.0
C4172 C 0.16058 0.39059 0.85181 0.0
C4173 C 0.16431 0.40594 0.85972 0.0
C4174 C 0.14415 0.38693 0.84697 0.0
C4175 C 0.13119 0.39855 0.85 0.0
C4176 C 0.13503 0.41404 0.85758 0.0
C4177 C 0.15142 0.41771 0.86237 0.0
C4178 C 0.08417 0.39306 0.85331 0.0
C4179 C 0.0805 0.38497 0.83803 0.0
C4180 C 0.10061 0.39773 0.85709 0.0
C4181 C 0.11366 0.39436 0.84566 0.0
C4182 C 0.10989 0.38662 0.83022 0.0
C4183 C 0.09347 0.382 0.82643 0.0
H4184 H 0.30853 0.39964 0.60991 0.0
H4185 H 0.35744 0.41749 0.59479 0.0
H4186 H 0.31537 0.37168 0.59929 0.0
H4187 H 0.36445 0.3894 0.58458 0.0
H4188 H 0.37006 0.33785 0.5612 0.0
H4189 H 0.35867 0.3663 0.56453 0.0
H4190 H 0.33463 0.35096 0.61087 0.0
H4191 H 0.34567 0.32273 0.60741 0.0
C4192 C 0.32068 0.39762 0.60417 0.0
C4193 C 0.33258 0.41061 0.60342 0.0
C4194 C 0.32459 0.38163 0.59811 0.0
C4195 C 0.34051 0.37833 0.59132 0.0
C4196 C 0.35204 0.39161 0.58964 0.0
C4197 C 0.34808 0.40765 0.59561 0.0
C4198 C 0.36214 0.34057 0.57194 0.0
C4199 C 0.35884 0.32818 0.58412 0.0
C4200 C 0.35568 0.35681 0.57387 0.0
C4201 C 0.34577 0.36082 0.58795 0.0
C4202 C 0.342 0.3482 0.59975 0.0
C4203 C 0.34847 0.33205 0.59785 0.0
H4204 H 0.39885 0.15787 0.32647 0.0
H4205 H 0.42578 0.11596 0.348 0.0
H4206 H 0.39182 0.16787 0.35464 0.0
H4207 H 0.41778 0.12499 0.37605 0.0
H4208 H 0.40975 0.14778 0.42606 0.0
H4209 H 0.42085 0.14352 0.39782 0.0
H4210 H 0.37427 0.16204 0.3768 0.0
H4211 H 0.36395 0.16755 0.40511 0.0
C4212 C 0.40321 0.15081 0.33729 0.0
C4213 C 0.41286 0.13622 0.33518 0.0
C4214 C 0.39908 0.15642 0.35344 0.0
C4215 C 0.40413 0.14724 0.36775 0.0
C4216 C 0.41398 0.13269 0.36547 0.0
C4217 C 0.41848 0.12739 0.34936 0.0
C4218 C 0.40209 0.15119 0.41531 0.0
C4219 C 0.38606 0.15795 0.4176 0.0
C4220 C 0.40834 0.1486 0.39912 0.0
C4221 C 0.3984 0.15214 0.3849 0.0
C4222 C 0.38246 0.15939 0.38734 0.0
C4223 C 0.37645 0.16247 0.40356 0.0
H4224 H 0.02507 0.13938 0.27016 0.0
H4225 H 0.00705 0.0989 0.30173 0.0
H4226 H 0.00286 0.13373 0.24998 0.0
H4227 H 0.98445 0.09343 0.28154 0.0
H4228 H 0.94859 0.13627 0.23303 0.0
H4229 H 0.97261 0.13848 0.25159 0.0
H4230 H 0.97756 0.08429 0.25189 0.0
H4231 H 0.95311 0.08201 0.23329 0.0
C4232 C 0.0164 0.12919 0.27273 0.0
C4233 C 0.01765 0.1197 0.28759 0.0
C4234 C 0.00364 0.126 0.2612 0.0
C4235 C 0.99177 0.11331 0.26432 0.0
C4236 C 0.99347 0.10325 0.27879 0.0
C4237 C 0.00634 0.10642 0.29036 0.0
C4238 C 0.95478 0.12479 0.23698 0.0
C4239 C 0.94899 0.10896 0.23165 0.0
C4240 C 0.96863 0.12607 0.24755 0.0
C4241 C 0.97707 0.11156 0.25305 0.0
C4242 C 0.97125 0.09567 0.24786 0.0
C4243 C 0.95734 0.09438 0.23718 0.0
H4244 H 0.15244 0.70931 0.47847 0.0
H4245 H 0.1016 0.69353 0.48854 0.0
H4246 H 0.14934 0.73222 0.49875 0.0
H4247 H 0.09867 0.71596 0.50915 0.0
H4248 H 0.0933 0.7658 0.53587 0.0
H4249 H 0.09644 0.74571 0.51281 0.0
H4250 H 0.14736 0.73583 0.52855 0.0
H4251 H 0.14438 0.75627 0.55114 0.0
C4252 C 0.14062 0.71074 0.48502 0.0
C4253 C 0.12728 0.69962 0.48194 0.0
C4254 C 0.13885 0.7238 0.4967 0.0
C4255 C 0.12376 0.72593 0.50562 0.0
C4256 C 0.11037 0.7149 0.50232 0.0
C4257 C 0.1121 0.70195 0.49058 0.0
C4258 C 0.10519 0.75942 0.53429 0.0
C4259 C 0.11857 0.76258 0.54532 0.0
C4260 C 0.10698 0.74784 0.52114 0.0
C4261 C 0.12215 0.7391 0.51884 0.0
C4262 C 0.1356 0.74251 0.52975 0.0
C4263 C 0.13384 0.75416 0.54279 0.0
H4264 H 0.5417 0.91139 0.73269 0.0
H4265 H 0.5491 0.85754 0.73577 0.0
H4266 H 0.51719 0.90893 0.75115 0.0
H4267 H 0.52498 0.85516 0.7542 0.0
H4268 H 0.47221 0.85269 0.77187 0.0
H4269 H 0.49451 0.85824 0.75177 0.0
H4270 H 0.51031 0.90121 0.78117 0.0
H4271 H 0.48763 0.8958 0.80127 0.0
C4272 C 0.53811 0.89907 0.7373 0.0
C4273 C 0.54726 0.88464 0.73273 0.0
C4274 C 0.52415 0.89768 0.7479 0.0
C4275 C 0.51909 0.88184 0.75396 0.0
C4276 C 0.52837 0.8675 0.74946 0.0
C4277 C 0.54227 0.86888 0.73898 0.0
C4278 C 0.48032 0.86343 0.77397 0.0
C4279 C 0.47833 0.8737 0.78822 0.0
C4280 C 0.49313 0.86657 0.76249 0.0
C4281 C 0.5043 0.87999 0.76506 0.0
C4282 C 0.50183 0.8908 0.77887 0.0
C4283 C 0.48892 0.88767 0.79038 0.0
H4284 H 0.39589 0.29998 0.98618 0.0
H4285 H 0.34467 0.28445 0.97785 0.0
H4286 H 0.39919 0.278 0.00722 0.0
H4287 H 0.34813 0.26197 -0.00145 0.0
H4288 H 0.35381 0.23952 0.05142 0.0
H4289 H 0.35071 0.25938 0.02836 0.0
H4290 H 0.40122 0.2484 0.01201 0.0
H4291 H 0.40449 0.22886 0.03556 0.0
C4292 C 0.38539 0.29169 0.98868 0.0
C4293 C 0.36998 0.29399 0.98043 0.0
C4294 C 0.38733 0.279 0.00068 0.0
C4295 C 0.37393 0.26821 0.00463 0.0
C4296 C 0.35863 0.27023 0.99601 0.0
C4297 C 0.35666 0.28304 0.98408 0.0
C4298 C 0.36424 0.24128 0.04286 0.0
C4299 C 0.37942 0.23268 0.04533 0.0
C4300 C 0.36242 0.25259 0.02954 0.0
C4301 C 0.37569 0.25548 0.01827 0.0
C4302 C 0.39081 0.24664 0.02058 0.0
C4303 C 0.39268 0.23539 0.03402 0.0
H4304 H 0.95911 0.86165 0.27579 0.0
H4305 H 0.94485 0.90628 0.24838 0.0
H4306 H 0.9833 0.85807 0.25754 0.0
H4307 H 0.96826 0.90208 0.22906 0.0
H4308 H 0.01782 0.89632 0.20217 0.0
H4309 H 0.99663 0.90239 0.22348 0.0
H4310 H 0.98946 0.84884 0.23107 0.0
H4311 H 0.01141 0.84304 0.21084 0.0
C4312 C 0.96118 0.87063 0.26573 0.0
C4313 C 0.95019 0.88417 0.26335 0.0
C4314 C 0.97494 0.86852 0.25513 0.0
C4315 C 0.97766 0.87957 0.24152 0.0
C4316 C 0.96678 0.89341 0.23947 0.0
C4317 C 0.95328 0.8958 0.25045 0.0
C4318 C 0.01174 0.88592 0.20857 0.0
C4319 C 0.01625 0.86923 0.20495 0.0
C4320 C -0.00049 0.88936 0.22069 0.0
C4321 C 0.99125 0.87613 0.22913 0.0
C4322 C 0.99579 0.85943 0.22528 0.0
C4323 C 0.0083 0.85604 0.21352 0.0
H4324 H 0.35145 0.75493 0.44405 0.0
H4325 H 0.40238 0.76465 0.45976 0.0
H4326 H 0.34858 0.73395 0.46614 0.0
H4327 H 0.39933 0.74399 0.48234 0.0
H4328 H 0.39439 0.6912 0.50549 0.0
H4329 H 0.39731 0.71412 0.48541 0.0
H4330 H 0.34648 0.72978 0.49585 0.0
H4331 H 0.34339 0.7064 0.51558 0.0
C4332 C 0.36198 0.75274 0.45238 0.0
C4333 C 0.37717 0.76139 0.45013 0.0
C4334 C 0.36028 0.74078 0.46514 0.0
C4335 C 0.37371 0.73726 0.47605 0.0
C4336 C 0.38881 0.7462 0.47401 0.0
C4337 C 0.39054 0.75811 0.46113 0.0
C4338 C 0.38385 0.69959 0.50357 0.0
C4339 C 0.36863 0.69696 0.51205 0.0
C4340 C 0.38557 0.71282 0.49213 0.0
C4341 C 0.37213 0.72382 0.48899 0.0
C4342 C 0.357 0.72139 0.49778 0.0
C4343 C 0.35525 0.70806 0.50915 0.0
H4344 H 0.47211 0.14093 0.72368 0.0
H4345 H 0.4893 0.10007 0.69216 0.0
H4346 H 0.49381 0.13446 0.74417 0.0
H4347 H 0.51144 0.09381 0.71261 0.0
H4348 H 0.54812 0.13561 0.76125 0.0
H4349 H 0.52406 0.13847 0.74288 0.0
H4350 H 0.518 0.08438 0.7421 0.0
H4351 H 0.54253 0.08145 0.76051 0.0
C4352 C 0.4805 0.1305 0.72118 0.0
C4353 C 0.47919 0.12113 0.70625 0.0
C4354 C 0.49295 0.12682 0.73289 0.0
C4355 C 0.50447 0.11381 0.72985 0.0
C4356 C 0.50268 0.10388 0.7153 0.0
C4357 C 0.49009 0.1075 0.70357 0.0
C4358 C 0.54167 0.12429 0.75725 0.0
C4359 C 0.54719 0.1083 0.76234 0.0
C4360 C 0.52779 0.12594 0.7468 0.0
C4361 C 0.51904 0.11166 0.74119 0.0
C4362 C 0.52455 0.0956 0.74621 0.0
C4363 C 0.53851 0.09394 0.75678 0.0
H4364 H 0.0946 0.22767 0.95947 0.0
H4365 H 0.1449 0.23907 0.9429 0.0
H4366 H 0.09778 0.24748 0.98276 0.0
H4367 H 0.1479 0.25927 0.96573 0.0
H4368 H 0.1535 0.28551 0.01591 0.0
H4369 H 0.1506 0.26267 0.9955 0.0
H4370 H 0.0991 0.27715 0.9868 0.0
H4371 H 0.10185 0.29947 0.00753 0.0
C4372 C 0.10633 0.23442 0.96081 0.0
C4373 C 0.11948 0.23186 0.94935 0.0
C4374 C 0.10814 0.24583 0.97409 0.0
C4375 C 0.12308 0.25503 0.9761 0.0
C4376 C 0.13631 0.25223 0.96475 0.0
C4377 C 0.13455 0.24072 0.95157 0.0
C4378 C 0.14153 0.28368 0.00973 0.0
C4379 C 0.12792 0.29429 0.0133 0.0
C4380 C 0.13989 0.27066 -0.00203 0.0
C4381 C 0.12462 0.26808 0.98946 0.0
C4382 C 0.11095 0.27856 0.99329 0.0
C4383 C 0.11257 0.29146 0.00511 0.0
H4384 H 0.29698 0.01311 0.10837 0.0
H4385 H 0.28822 0.01424 0.16211 0.0
H4386 H 0.27343 0.99426 0.10475 0.0
H4387 H 0.26416 0.99533 0.15838 0.0
H4388 H 0.23756 0.94429 0.14332 0.0
H4389 H 0.25883 0.96551 0.14986 0.0
H4390 H 0.24308 0.9946 0.10666 0.0
H4391 H 0.22222 0.97329 0.09992 0.0
C4392 C 0.28993 0.00941 0.11944 0.0
C4393 C 0.29446 0.01515 0.13554 0.0
C4394 C 0.27633 -0.00131 0.11733 0.0
C4395 C 0.26685 0.99343 0.13126 0.0
C4396 C 0.2713 -0.00085 0.14743 0.0
C4397 C 0.28499 0.01 0.14955 0.0
C4398 C 0.23859 0.9553 0.13533 0.0
C4399 C 0.22844 0.95705 0.12098 0.0
C4400 C 0.25067 0.96749 0.13914 0.0
C4401 C 0.25273 0.98161 0.12866 0.0
C4402 C 0.242 0.98369 0.11478 0.0
C4403 C 0.23004 0.9715 0.11093 0.0
H4404 H 0.23883 0.05123 0.34892 0.0
H4405 H 0.22207 0.02059 0.39066 0.0
H4406 H 0.26116 0.03085 0.34313 0.0
H4407 H 0.24408 0.00028 0.38475 0.0
H4408 H 0.29862 0.98388 0.38591 0.0
H4409 H 0.27478 0.00264 0.3884 0.0
H4410 H 0.26725 0.00049 0.33455 0.0
H4411 H 0.29147 0.98162 0.33197 0.0
C4412 C 0.23976 0.04004 0.35666 0.0
C4413 C 0.2289 0.03758 0.37037 0.0
C4414 C 0.25247 0.02837 0.35331 0.0
C4415 C 0.25446 0.01413 0.36364 0.0
C4416 C 0.24303 0.01131 0.37678 0.0
C4417 C 0.2304 0.02292 0.38013 0.0
C4418 C 0.29191 0.98735 0.37457 0.0
C4419 C 0.29687 0.98123 0.35875 0.0
C4420 C 0.27818 -0.00198 0.37602 0.0
C4421 C 0.26907 0.00286 0.36169 0.0
C4422 C 0.2741 -0.00305 0.34579 0.0
C4423 C 0.28787 0.98613 0.34433 0.0
H4424 H 0.20273 0.98453 0.66144 0.0
H4425 H 0.19726 0.98479 0.60725 0.0
H4426 H 0.22689 0.00344 0.65897 0.0
H4427 H 0.22106 0.00368 0.60485 0.0
H4428 H 0.27373 0.0226 0.60393 0.0
H4429 H 0.25146 0.00238 0.60921 0.0
H4430 H 0.23316 0.03322 0.6501 0.0
H4431 H 0.25576 0.05347 0.64498 0.0
C4432 C 0.20668 0.98861 0.64904 0.0
C4433 C 0.19816 0.98314 0.63453 0.0
C4434 C 0.22043 -0.00053 0.64764 0.0
C4435 C 0.22591 0.00491 0.63172 0.0
C4436 C 0.21731 -0.00054 0.61728 0.0
C4437 C 0.2036 0.98871 0.61867 0.0
C4438 C 0.26504 0.02503 0.61414 0.0
C4439 C 0.26635 0.03969 0.62393 0.0
C4440 C 0.25226 0.01347 0.61712 0.0
C4441 C 0.24045 0.01635 0.62991 0.0
C4442 C 0.24214 0.03066 0.6402 0.0
C4443 C 0.25501 0.04227 0.63722 0.0
H4444 H 0.20431 0.01069 0.83339 0.0
H4445 H 0.19713 0.00999 0.88736 0.0
H4446 H 0.2285 0.99195 0.83649 0.0
H4447 H 0.22089 0.9912 0.89039 0.0
H4448 H 0.27292 0.97134 0.89335 0.0
H4449 H 0.25114 0.99193 0.88751 0.0
H4450 H 0.23474 0.96244 0.84482 0.0
H4451 H 0.25693 0.94191 0.85047 0.0
C4452 C 0.2079 0.00655 0.84588 0.0
C4453 C 0.19888 0.01184 0.86014 0.0
C4454 C 0.22167 0.99578 0.84764 0.0
C4455 C 0.22666 0.99021 0.86369 0.0
C4456 C 0.21757 0.99552 0.87788 0.0
C4457 C 0.20387 0.00622 0.87613 0.0
C4458 C 0.26477 0.96932 0.88262 0.0
C4459 C 0.26648 0.95495 0.87246 0.0
C4460 C 0.25226 0.98108 0.87932 0.0
C4461 C 0.24108 0.97867 0.86586 0.0
C4462 C 0.24323 0.96466 0.85524 0.0
C4463 C 0.25586 0.95289 0.85851 0.0
H4464 H 0.64579 0.25732 0.04938 0.0
H4465 H 0.59505 0.26675 0.03298 0.0
H4466 H 0.64936 0.23697 0.0268 0.0
H4467 H 0.5988 0.24682 0.00988 0.0
H4468 H 0.60416 0.19461 0.98607 0.0
H4469 H 0.60093 0.21726 0.00633 0.0
H4470 H 0.65208 0.23278 -0.00275 0.0
H4471 H 0.65548 0.20957 0.97734 0.0
C4472 C 0.63547 0.25523 0.04077 0.0
C4473 C 0.62009 0.26354 0.043 0.0
C4474 C 0.63756 0.24363 0.02772 0.0
C4475 C 0.62437 0.24019 0.01651 0.0
C4476 C 0.60914 0.24893 0.01846 0.0
C4477 C 0.607 0.26042 0.03163 0.0
C4478 C 0.6147 0.20291 0.98831 0.0
C4479 C 0.6301 0.20028 0.98016 0.0
C4480 C 0.6128 0.21601 -0.00015 0.0
C4481 C 0.62622 0.22691 0.00343 0.0
C4482 C 0.64155 0.22448 0.99498 0.0
C4483 C 0.64349 0.21125 0.98351 0.0
H4484 H 0.02806 0.37641 0.21109 0.0
H4485 H 0.05168 0.40997 0.24656 0.0
H4486 H 0.00425 0.3731 0.22999 0.0
H4487 H 0.02845 0.40578 0.26624 0.0
H4488 H 0.98016 0.39989 0.2961 0.0
H4489 H 8e-05 0.40867 0.27439 0.0
H4490 H 0.0004 0.35788 0.2546 0.0
H4491 H 0.98004 0.34952 0.27555 0.0
C4492 C 0.02799 0.38319 0.22294 0.0
C4493 C 0.04154 0.39338 0.22751 0.0
C4494 C 0.01449 0.38117 0.23387 0.0
C4495 C 0.0146 0.3888 0.24987 0.0
C4496 C 0.02785 0.39978 0.25401 0.0
C4497 C 0.04118 0.40217 0.24281 0.0
C4498 C 0.98445 0.3907 0.28698 0.0
C4499 C 0.97855 0.37404 0.28747 0.0
C4500 C 0.9959 0.3957 0.27459 0.0
C4501 C 0.00178 0.38404 0.26261 0.0
C4502 C 0.99584 0.36736 0.26326 0.0
C4503 C 0.98427 0.36248 0.27543 0.0
H4504 H 0.89437 0.80102 0.48833 0.0
H4505 H 0.84325 0.78575 0.4789 0.0
H4506 H 0.89734 0.77852 0.50887 0.0
H4507 H 0.84638 0.76281 0.49914 0.0
H4508 H 0.85176 0.7388 0.5515 0.0
H4509 H 0.84876 0.75939 0.52903 0.0
H4510 H 0.8992 0.74861 0.51234 0.0
H4511 H 0.90236 0.72833 0.53524 0.0
C4512 C 0.88382 0.79271 0.49049 0.0
C4513 C 0.86855 0.79519 0.48205 0.0
C4514 C 0.88557 0.77972 0.5022 0.0
C4515 C 0.87211 0.76884 0.50567 0.0
C4516 C 0.85692 0.77112 0.49694 0.0
C4517 C 0.85515 0.78419 0.48528 0.0
C4518 C 0.86219 0.74075 0.54298 0.0
C4519 C 0.87732 0.732 0.54517 0.0
C4520 C 0.86042 0.75248 0.53002 0.0
C4521 C 0.87373 0.75566 0.51886 0.0
C4522 C 0.88878 0.74664 0.52086 0.0
C4523 C 0.89057 0.73496 0.53392 0.0
H4524 H 0.97116 0.64074 0.22434 0.0
H4525 H 0.9873 0.59872 0.19377 0.0
H4526 H 0.99313 0.63457 0.24465 0.0
H4527 H 0.0096 0.5927 0.21409 0.0
H4528 H 0.04784 0.63516 0.26074 0.0
H4529 H 0.0237 0.63792 0.24241 0.0
H4530 H 0.01602 0.58408 0.24412 0.0
H4531 H 0.04055 0.58122 0.26253 0.0
C4532 C 0.97934 0.6301 0.22203 0.0
C4533 C 0.97768 0.62033 0.20739 0.0
C4534 C 0.99194 0.6266 0.23363 0.0
C4535 C 0.00321 0.61332 0.23081 0.0
C4536 C 0.00104 0.60298 0.21659 0.0
C4537 C 0.98835 0.60647 0.20495 0.0
C4538 C 0.04102 0.62387 0.25727 0.0
C4539 C 0.04606 0.60797 0.26311 0.0
C4540 C 0.02711 0.62548 0.24685 0.0
C4541 C 0.01788 0.61123 0.24199 0.0
C4542 C 0.02295 0.59526 0.24768 0.0
C4543 C 0.03691 0.59364 0.25823 0.0
H4544 H 0.46371 0.37004 0.77977 0.0
H4545 H 0.44538 0.40955 0.74739 0.0
H4546 H 0.48801 0.36637 0.76166 0.0
H4547 H 0.46904 0.40511 0.72834 0.0
H4548 H 0.51796 0.39821 0.70016 0.0
H4549 H 0.49761 0.40621 0.72172 0.0
H4550 H 0.49265 0.35381 0.73597 0.0
H4551 H 0.51359 0.34617 0.71533 0.0
C4552 C 0.46499 0.37796 0.76873 0.0
C4553 C 0.45276 0.38997 0.76481 0.0
C4554 C 0.4788 0.37577 0.75823 0.0
C4555 C 0.48032 0.38511 0.74324 0.0
C4556 C 0.46839 0.39775 0.73979 0.0
C4557 C 0.4548 0.40028 0.75063 0.0
C4558 C 0.51256 0.3885 0.70805 0.0
C4559 C 0.51734 0.37159 0.70612 0.0
C4560 C 0.50084 0.39304 0.72035 0.0
C4561 C 0.49349 0.3807 0.73073 0.0
C4562 C 0.49833 0.36378 0.72862 0.0
C4563 C 0.51024 0.35932 0.71662 0.0
H4564 H 0.97942 0.84254 0.7076 0.0
H4565 H 0.99039 0.89373 0.69274 0.0
H4566 H -0.00134 0.84527 0.73129 0.0
H4567 H 0.01007 0.89629 0.71603 0.0
H4568 H 0.03511 0.90016 0.76714 0.0
H4569 H 0.01285 0.89791 0.74611 0.0
H4570 H 0.02819 0.8468 0.73533 0.0
H4571 H 0.0499 0.84887 0.75661 0.0
C4572 C 0.98599 0.85436 0.70938 0.0
C4573 C 0.98349 0.86789 0.69829 0.0
C4574 C 0.99705 0.85591 0.7229 0.0
C4575 C 0.00598 0.87097 0.7255 0.0
C4576 C 0.00323 0.8846 0.71454 0.0
C4577 C 0.99204 0.88309 0.70112 0.0
C4578 C 0.03359 0.88842 0.76035 0.0
C4579 C 0.04423 0.8747 0.7635 0.0
C4580 C 0.02092 0.88715 0.74825 0.0
C4581 C 0.01874 0.87217 0.73904 0.0
C4582 C 0.0293 0.85842 0.74239 0.0
C4583 C 0.04185 0.85965 0.75452 0.0
H4584 H 0.89487 0.30709 0.49994 0.0
H4585 H 0.84358 0.29076 0.50596 0.0
H4586 H 0.89891 0.28639 0.47772 0.0
H4587 H 0.84778 0.26953 0.48415 0.0
H4588 H 0.85473 0.24619 0.4327 0.0
H4589 H 0.85131 0.26714 0.45469 0.0
H4590 H 0.90163 0.25708 0.47219 0.0
H4591 H 0.90525 0.23646 0.44959 0.0
C4592 C 0.88448 0.29895 0.49661 0.0
C4593 C 0.86888 0.30057 0.50466 0.0
C4594 C 0.88685 0.28699 0.48393 0.0
C4595 C 0.8737 0.27625 0.4791 0.0
C4596 C 0.85812 0.27778 0.48732 0.0
C4597 C 0.85571 0.28987 0.4999 0.0
C4598 C 0.8651 0.24847 0.44121 0.0
C4599 C 0.88026 0.23965 0.43947 0.0
C4600 C 0.86308 0.26041 0.45393 0.0
C4601 C 0.87611 0.26372 0.46537 0.0
C4602 C 0.89138 0.25499 0.4635 0.0
C4603 C 0.89346 0.24313 0.45061 0.0
H4604 H 0.45344 0.09303 0.25708 0.0
H4605 H 0.45944 0.14492 0.27215 0.0
H4606 H 0.47522 0.09659 0.23592 0.0
H4607 H 0.48193 0.14834 0.25171 0.0
H4608 H 0.50554 0.15445 0.19949 0.0
H4609 H 0.48589 0.15108 0.22275 0.0
H4610 H 0.5036 0.10013 0.23039 0.0
H4611 H 0.52245 0.10329 0.20652 0.0
C4612 C 0.45969 0.1051 0.25607 0.0
C4613 C 0.45472 0.11872 0.26613 0.0
C4614 C 0.47227 0.10716 0.24401 0.0
C4615 C 0.48036 0.12281 0.24199 0.0
C4616 C 0.47575 0.13623 0.25259 0.0
C4617 C 0.46295 0.13425 0.26441 0.0
C4618 C 0.50527 0.1426 0.20627 0.0
C4619 C 0.51537 0.12909 0.20117 0.0
C4620 C 0.49408 0.14066 0.21967 0.0
C4621 C 0.49303 0.12527 0.22846 0.0
C4622 C 0.50372 0.11201 0.2237 0.0
C4623 C 0.51462 0.11385 0.2101 0.0
H4624 H 0.65325 0.70002 0.00541 0.0
H4625 H 0.6015 0.68491 0.00036 0.0
H4626 H 0.64888 0.72205 0.98446 0.0
H4627 H 0.59725 0.70643 0.97897 0.0
H4628 H 0.59114 0.75731 0.95253 0.0
H4629 H 0.59499 0.73599 0.97445 0.0
H4630 H 0.64458 0.72546 0.95522 0.0
H4631 H 0.64096 0.74706 0.93393 0.0
C4632 C 0.64098 0.70133 -0.00027 0.0
C4633 C 0.62774 0.69074 0.00452 0.0
C4634 C 0.63847 0.7139 0.98765 0.0
C4635 C 0.6227 0.71602 0.97995 0.0
C4636 C 0.60948 0.70538 0.98479 0.0
C4637 C 0.61195 0.69294 -0.00302 0.0
C4638 C 0.60282 0.7504 0.95304 0.0
C4639 C 0.61576 0.75392 0.9416 0.0
C4640 C 0.60503 0.73813 0.96554 0.0
C4641 C 0.62017 0.72905 0.9667 0.0
C4642 C 0.63293 0.73244 0.955 0.0
C4643 C 0.63079 0.74477 0.94268 0.0
H4644 H 0.98066 0.15501 0.78499 0.0
H4645 H 0.99049 0.10341 0.79921 0.0
H4646 H 0.00037 0.15233 0.76163 0.0
H4647 H 0.01053 0.10089 0.7763 0.0
H4648 H 0.03563 0.09669 0.72556 0.0
H4649 H 0.01321 0.09955 0.74627 0.0
H4650 H 0.03006 0.15006 0.75763 0.0
H4651 H 0.05204 0.14738 0.73661 0.0
C4652 C 0.98705 0.14312 0.78313 0.0
C4653 C 0.98408 0.12945 0.79393 0.0
C4654 C -0.00161 0.1416 0.76981 0.0
C4655 C 0.00706 0.1264 0.76711 0.0
C4656 C 0.00388 0.11268 0.77783 0.0
C4657 C 0.99248 0.11417 0.79105 0.0
C4658 C 0.03444 0.10843 0.73242 0.0
C4659 C 0.0456 0.12179 0.72952 0.0
C4660 C 0.02166 0.11005 0.74433 0.0
C4661 C 0.01987 0.12502 0.75365 0.0
C4662 C 0.03091 0.13846 0.75051 0.0
C4663 C 0.04359 0.13687 0.73853 0.0
H4664 H 0.64348 0.2447 0.55905 0.0
H4665 H 0.5927 0.23578 0.54244 0.0
H4666 H 0.64688 0.26615 0.53752 0.0
H4667 H 0.59629 0.25687 0.52032 0.0
H4668 H 0.60221 0.30766 0.49464 0.0
H4669 H 0.59888 0.28629 0.51625 0.0
H4670 H 0.64995 0.27007 0.50808 0.0
H4671 H 0.65346 0.29204 0.4868 0.0
C4672 C 0.63306 0.24725 0.55069 0.0
C4673 C 0.6178 0.23857 0.55243 0.0
C4674 C 0.63506 0.25947 0.53823 0.0
C4675 C 0.62191 0.26322 0.52709 0.0
C4676 C 0.60662 0.25449 0.52884 0.0
C4677 C 0.60456 0.24236 0.54145 0.0
C4678 C 0.61275 0.29954 0.49746 0.0
C4679 C 0.62811 0.30151 0.48903 0.0
C4680 C 0.61079 0.28718 0.50978 0.0
C4681 C 0.62409 0.27635 0.51388 0.0
C4682 C 0.63949 0.27833 0.50541 0.0
C4683 C 0.64151 0.29086 0.49317 0.0
H4684 H 0.51817 0.89425 0.29282 0.0
H4685 H 0.50409 0.84185 0.29621 0.0
H4686 H 0.49944 0.89789 0.2689 0.0
H4687 H 0.48459 0.8456 0.27295 0.0
H4688 H 0.45946 0.85281 0.22322 0.0
H4689 H 0.48162 0.84977 0.24408 0.0
H4690 H 0.47102 0.89995 0.26253 0.0
H4691 H 0.44959 0.90324 0.24095 0.0
C4692 C 0.51097 0.88353 0.28847 0.0
C4693 C 0.51252 0.86778 0.29633 0.0
C4694 C 0.50014 0.88563 0.27483 0.0
C4695 C 0.49038 0.87208 0.26898 0.0
C4696 C 0.49211 0.85626 0.27684 0.0
C4697 C 0.5032 0.8541 0.29027 0.0
C4698 C 0.46206 0.86324 0.23164 0.0
C4699 C 0.45285 0.87824 0.23056 0.0
C4700 C 0.47465 0.86146 0.24369 0.0
C4701 C 0.47803 0.87452 0.25518 0.0
C4702 C 0.46899 0.8897 0.25378 0.0
C4703 C 0.45664 0.89159 0.24147 0.0
H4704 H 0.85169 0.74785 0.05948 0.0
H4705 H 0.9026 0.75555 0.0427 0.0
H4706 H 0.84792 0.72607 0.03825 0.0
H4707 H 0.89867 0.73422 0.02096 0.0
H4708 H 0.89249 0.6836 0.99576 0.0
H4709 H 0.89573 0.70481 0.01753 0.0
H4710 H 0.84493 0.72159 0.00876 0.0
H4711 H 0.84151 0.69976 0.98731 0.0
C4712 C 0.86205 0.74496 0.05116 0.0
C4713 C 0.87747 0.75337 0.05277 0.0
C4714 C 0.85985 0.73255 0.03889 0.0
C4715 C 0.87296 0.72837 0.02784 0.0
C4716 C 0.88837 0.73689 0.02943 0.0
C4717 C 0.89062 0.74919 0.04183 0.0
C4718 C 0.88198 0.69179 -0.00151 0.0
C4719 C 0.86675 0.69006 0.98979 0.0
C4720 C 0.88389 0.70406 0.01091 0.0
C4721 C 0.87067 0.71506 0.01483 0.0
C4722 C 0.85534 0.71322 0.00621 0.0
C4723 C 0.85337 0.70077 0.99386 0.0
H4724 H 0.69801 0.98517 0.89639 0.0
H4725 H 0.71286 0.97465 0.8451 0.0
H4726 H 0.72016 0.00602 0.89868 0.0
H4727 H 0.7355 0.99519 0.84757 0.0
H4728 H 0.75813 0.04827 0.8514 0.0
H4729 H 0.73825 0.02519 0.84913 0.0
H4730 H 0.74982 0.01009 0.90016 0.0
H4731 H 0.76935 0.03363 0.90261 0.0
C4732 C 0.70617 0.98715 0.88566 0.0
C4733 C 0.70365 0.97836 0.87052 0.0
C4734 C 0.71896 -0.00096 0.88702 0.0
C4735 C 0.72961 0.0023 0.87331 0.0
C4736 C 0.72735 0.99316 0.85829 0.0
C4737 C 0.71445 0.98134 0.85689 0.0
C4738 C 0.75649 0.03998 0.86212 0.0
C4739 C 0.76521 0.04281 0.87723 0.0
C4740 C 0.74518 0.02666 0.86077 0.0
C4741 C 0.74244 0.01578 0.87446 0.0
C4742 C 0.75146 0.0184 0.88946 0.0
C4743 C 0.7627 0.03183 0.89085 0.0
H4744 H 0.76639 0.9568 0.59206 0.0
H4745 H 0.75482 0.94205 0.64315 0.0
H4746 H 0.74706 0.98045 0.59448 0.0
H4747 H 0.73507 0.96528 0.6454 0.0
H4748 H 0.71031 0.01634 0.64919 0.0
H4749 H 0.73254 0.99533 0.647 0.0
H4750 H 0.71751 0.98472 0.59575 0.0
H4751 H 0.69579 0.00602 0.59777 0.0
C4752 C 0.75968 0.95859 0.60378 0.0
C4753 C 0.76205 0.94756 0.61738 0.0
C4754 C 0.74856 0.97209 0.60516 0.0
C4755 C 0.73947 0.97472 0.62012 0.0
C4756 C 0.74205 0.96378 0.63379 0.0
C4757 C 0.75328 0.95039 0.63246 0.0
C4758 C 0.71188 0.0096 0.63744 0.0
C4759 C 0.70132 0.01279 0.62367 0.0
C4760 C 0.72454 -0.0025 0.6362 0.0
C4761 C 0.72678 0.98832 0.62121 0.0
C4762 C 0.71633 0.99175 0.60739 0.0
C4763 C 0.70379 0.00389 0.60858 0.0
H4764 H 0.7287 0.95907 0.40323 0.0
H4765 H 0.73908 0.9442 0.35192 0.0
H4766 H 0.74789 0.98281 0.40024 0.0
H4767 H 0.75866 0.9675 0.34909 0.0
H4768 H 0.78367 0.01833 0.34446 0.0
H4769 H 0.76128 -0.00248 0.3473 0.0
H4770 H 0.77742 0.98708 0.39825 0.0
H4771 H 0.79928 0.00816 0.39558 0.0
C4772 C 0.73511 0.96086 0.39133 0.0
C4773 C 0.73246 0.94976 0.37784 0.0
C4774 C 0.74615 0.97441 0.38963 0.0
C4775 C 0.75487 0.97702 0.37444 0.0
C4776 C 0.75197 0.96603 0.36087 0.0
C4777 C 0.74084 0.95259 0.36254 0.0
C4778 C 0.7823 0.01167 0.35629 0.0
C4779 C 0.79323 0.01483 0.36977 0.0
C4780 C 0.76955 -0.0003 0.3579 0.0
C4781 C 0.76758 0.9906 0.373 0.0
C4782 C 0.77838 0.99403 0.38655 0.0
C4783 C 0.79102 0.00604 0.38497 0.0
H4784 H 0.72459 0.03579 0.14013 0.0
H4785 H 0.74093 0.04281 0.08877 0.0
H4786 H 0.74387 0.01226 0.14324 0.0
H4787 H 0.76101 0.01997 0.09208 0.0
H4788 H 0.78874 0.97153 0.098 0.0
H4789 H 0.76561 0.99124 0.09484 0.0
H4790 H 0.7723 0.00715 0.14657 0.0
H4791 H 0.79471 0.98662 0.1499 0.0
C4792 C 0.73238 0.03228 0.12952 0.0
C4793 C 0.73135 0.04109 0.11423 0.0
C4794 C 0.74353 0.01887 0.13132 0.0
C4795 C 0.75418 0.01424 0.11799 0.0
C4796 C 0.75285 0.02293 0.10256 0.0
C4797 C 0.74141 0.0361 0.10065 0.0
C4798 C 0.78508 0.97913 0.10873 0.0
C4799 C 0.79348 0.97764 0.12418 0.0
C4800 C 0.77192 0.99054 0.10689 0.0
C4801 C 0.76714 0.00098 0.12037 0.0
C4802 C 0.77539 -0.00084 0.13597 0.0
C4803 C 0.78832 0.98746 0.13789 0.0
H4804 H 0.40396 0.73493 0.95344 0.0
H4805 H 0.35388 0.74577 0.93589 0.0
H4806 H 0.4006 0.75585 0.97579 0.0
H4807 H 0.35073 0.76698 0.95767 0.0
H4808 H 0.3951 0.80696 0.00182 0.0
H4809 H 0.39865 0.78549 0.98029 0.0
H4810 H 0.34716 0.77002 0.98721 0.0
H4811 H 0.34346 0.79201 0.00838 0.0
C4812 C 0.39231 0.74187 0.95428 0.0
C4813 C 0.37918 0.73867 0.94297 0.0
C4814 C 0.39039 0.75391 0.96703 0.0
C4815 C 0.37534 0.76306 0.9686 0.0
C4816 C 0.36233 0.75994 0.9571 0.0
C4817 C 0.3642 0.74785 0.9445 0.0
C4818 C 0.38452 0.79897 -0.00125 0.0
C4819 C 0.36897 0.8012 0.00674 0.0
C4820 C 0.38661 0.78656 0.98648 0.0
C4821 C 0.37322 0.77599 0.98199 0.0
C4822 C 0.35768 0.77812 0.99015 0.0
C4823 C 0.35556 0.79065 0.00234 0.0
H4824 H 0.96126 0.59547 0.76796 0.0
H4825 H 0.9447 0.6459 0.75603 0.0
H4826 H 0.98339 0.59789 0.74686 0.0
H4827 H 0.96636 0.64812 0.73465 0.0
H4828 H 0.01531 0.65277 0.70668 0.0
H4829 H 0.99594 0.6504 0.73034 0.0
H4830 H 0.98581 0.59866 0.71673 0.0
H4831 H 0.00554 0.60089 0.69348 0.0
C4832 C 0.96236 0.60706 0.76084 0.0
C4833 C 0.95125 0.62048 0.76361 0.0
C4834 C 0.97497 0.60842 0.7487 0.0
C4835 C 0.97662 0.62319 0.73904 0.0
C4836 C 0.96562 0.63668 0.74204 0.0
C4837 C 0.95312 0.63536 0.75422 0.0
C4838 C 0.009 0.64088 0.70883 0.0
C4839 C 0.01188 0.62704 0.69822 0.0
C4840 C 0.99786 0.63953 0.72233 0.0
C4841 C 0.98929 0.62435 0.7254 0.0
C4842 C 0.99238 0.61045 0.71489 0.0
C4843 C 0.0036 0.61177 0.70148 0.0
H4844 H 0.09129 0.25416 0.45027 0.0
H4845 H 0.14234 0.24648 0.43395 0.0
H4846 H 0.09479 0.2322 0.47153 0.0
H4847 H 0.14565 0.22414 0.45457 0.0
H4848 H 0.10127 0.18108 0.4966 0.0
H4849 H 0.09768 0.20275 0.47521 0.0
H4850 H 0.14856 0.21948 0.4837 0.0
H4851 H 0.15231 0.19729 0.50458 0.0
C4852 C 0.10319 0.24768 0.45114 0.0
C4853 C 0.11655 0.25209 0.44053 0.0
C4854 C 0.1052 0.23502 0.46325 0.0
C4855 C 0.12054 0.22639 0.46484 0.0
C4856 C 0.13379 0.23072 0.454 0.0
C4857 C 0.13185 0.24348 0.44208 0.0
C4858 C 0.1117 0.18936 0.49383 0.0
C4859 C 0.12709 0.18748 0.50223 0.0
C4860 C 0.10961 0.20188 0.48166 0.0
C4861 C 0.1228 0.21295 0.47773 0.0
C4862 C 0.1382 0.21103 0.48617 0.0
C4863 C 0.14035 0.19836 0.49821 0.0
H4864 H 0.94653 0.34792 0.73626 0.0
H4865 H 0.96069 0.39956 0.72655 0.0
H4866 H 0.96826 0.3458 0.75751 0.0
H4867 H 0.98297 0.39727 0.74753 0.0
H4868 H 0.00488 0.39296 0.80104 0.0
H4869 H 0.98546 0.3954 0.77754 0.0
H4870 H 0.9977 0.34464 0.76209 0.0
H4871 H 0.01668 0.34202 0.78602 0.0
C4872 C 0.95447 0.35877 0.7385 0.0
C4873 C 0.95186 0.37394 0.7298 0.0
C4874 C 0.96703 0.35751 0.75062 0.0
C4875 C 0.97738 0.37136 0.75424 0.0
C4876 C 0.97505 0.38644 0.74521 0.0
C4877 C 0.96237 0.38773 0.73313 0.0
C4878 C 0.00346 0.38235 0.79259 0.0
C4879 C 0.01218 0.36725 0.79543 0.0
C4880 C 0.99243 0.38379 0.77903 0.0
C4881 C 0.98999 0.37021 0.76793 0.0
C4882 C -0.00093 0.35525 0.77056 0.0
C4883 C 0.00999 0.35375 0.78423 0.0
H4884 H 0.48884 0.60306 0.29911 0.0
H4885 H 0.47952 0.65507 0.28607 0.0
H4886 H 0.50961 0.60117 0.27682 0.0
H4887 H 0.49997 0.65303 0.26329 0.0
H4888 H 0.55207 0.64864 0.23905 0.0
H4889 H 0.52968 0.65084 0.25974 0.0
H4890 H 0.51314 0.60056 0.24697 0.0
H4891 H 0.53595 0.59818 0.22667 0.0
C4892 C 0.49109 0.61405 0.29133 0.0
C4893 C 0.4826 0.62924 0.29436 0.0
C4894 C 0.50293 0.61293 0.27846 0.0
C4895 C 0.50646 0.62694 0.26824 0.0
C4896 C 0.49773 0.64207 0.27109 0.0
C4897 C 0.48595 0.64322 0.28408 0.0
C4898 C 0.5436 0.63809 0.24061 0.0
C4899 C 0.5458 0.6232 0.23132 0.0
C4900 C 0.53069 0.63939 0.2524 0.0
C4901 C 0.51961 0.62587 0.25505 0.0
C4902 C 0.52162 0.61111 0.24544 0.0
C4903 C 0.53462 0.60976 0.23375 0.0
H4904 H 0.51311 0.64431 0.77861 0.0
H4905 H 0.51431 0.59299 0.79659 0.0
H4906 H 0.49243 0.63671 0.75779 0.0
H4907 H 0.49405 0.58496 0.77484 0.0
H4908 H 0.44235 0.58377 0.74708 0.0
H4909 H 0.46554 0.58752 0.76692 0.0
H4910 H 0.48862 0.62289 0.7325 0.0
H4911 H 0.46487 0.62 0.71353 0.0
C4912 C 0.50911 0.6313 0.77795 0.0
C4913 C 0.51531 0.61925 0.78925 0.0
C4914 C 0.49733 0.62686 0.76583 0.0
C4915 C 0.49169 0.61013 0.76439 0.0
C4916 C 0.49801 0.59798 0.77565 0.0
C4917 C 0.50966 0.60254 0.78805 0.0
C4918 C 0.45257 0.59214 0.74378 0.0
C4919 C 0.45187 0.60178 0.72901 0.0
C4920 C 0.46588 0.59426 0.75507 0.0
C4921 C 0.47882 0.60582 0.75152 0.0
C4922 C 0.47861 0.61437 0.73599 0.0
C4923 C 0.46512 0.61261 0.72502 0.0
H4924 H 0.90023 0.26656 0.95929 0.0
H4925 H 0.85042 0.25493 0.94145 0.0
H4926 H 0.89686 0.24615 0.98202 0.0
H4927 H 0.84725 0.23412 0.96371 0.0
H4928 H 0.84106 0.20688 0.01348 0.0
H4929 H 0.84394 0.22992 0.99327 0.0
H4930 H 0.89588 0.21648 0.98557 0.0
H4931 H 0.89313 0.194 0.0061 0.0
C4932 C 0.88858 0.25963 0.96022 0.0
C4933 C 0.87562 0.26232 0.94858 0.0
C4934 C 0.88666 0.24786 0.97318 0.0
C4935 C 0.8718 0.23841 0.97468 0.0
C4936 C 0.85876 0.24133 0.96313 0.0
C4937 C 0.86063 0.25319 0.95028 0.0
C4938 C 0.8531 0.20897 0.00754 0.0
C4939 C 0.86686 0.19865 0.01138 0.0
C4940 C 0.85475 0.2221 0.99589 0.0
C4941 C 0.87015 0.22508 0.98776 0.0
C4942 C 0.88391 0.21479 0.99178 0.0
C4943 C 0.8823 0.20179 0.00349 0.0
H4944 H 0.59172 0.72767 0.45964 0.0
H4945 H 0.64249 0.73716 0.44327 0.0
H4946 H 0.5953 0.74801 0.48244 0.0
H4947 H 0.64589 0.7578 0.46561 0.0
H4948 H 0.65202 0.78416 0.5157 0.0
H4949 H 0.64844 0.7613 0.49544 0.0
H4950 H 0.59773 0.77788 0.48587 0.0
H4951 H 0.60116 0.8003 0.50644 0.0
C4952 C 0.60363 0.73409 0.46092 0.0
C4953 C 0.61681 0.73083 0.44967 0.0
C4954 C 0.60566 0.74581 0.47392 0.0
C4955 C 0.62088 0.75457 0.47585 0.0
C4956 C 0.63411 0.7511 0.46469 0.0
C4957 C 0.63211 0.73933 0.45179 0.0
C4958 C 0.64009 0.78282 0.50934 0.0
C4959 C 0.62689 0.79402 0.51264 0.0
C4960 C 0.63805 0.76978 0.49767 0.0
C4961 C 0.6228 0.76776 0.48899 0.0
C4962 C 0.60955 0.77888 0.4925 0.0
C4963 C 0.61156 0.79182 0.50422 0.0
H4964 H 0.72421 0.47103 0.59795 0.0
H4965 H 0.7387 0.44222 0.64178 0.0
H4966 H 0.74665 0.49101 0.60353 0.0
H4967 H 0.76148 0.46211 0.64718 0.0
H4968 H 0.8009 0.50845 0.6049 0.0
H4969 H 0.77702 0.48981 0.6015 0.0
H4970 H 0.76789 0.4916 0.65513 0.0
H4971 H 0.79215 0.51015 0.65862 0.0
C4972 C 0.73218 0.46899 0.60881 0.0
C4973 C 0.72982 0.455 0.61935 0.0
C4974 C 0.74508 0.4804 0.61196 0.0
C4975 C 0.75594 0.47802 0.62568 0.0
C4976 C 0.75324 0.46432 0.63657 0.0
C4977 C 0.74027 0.4529 0.63343 0.0
C4978 C 0.79381 0.50491 0.61599 0.0
C4979 C 0.79838 0.51079 0.63203 0.0
C4980 C 0.78005 0.49431 0.61402 0.0
C4981 C 0.7705 0.48935 0.62803 0.0
C4982 C 0.77509 0.49514 0.64412 0.0
C4983 C 0.78891 0.50581 0.6461 0.0
H4984 H 0.72211 0.52253 0.88926 0.0
H4985 H 0.73991 0.554 0.8486 0.0
H4986 H 0.74463 0.50264 0.88392 0.0
H4987 H 0.76278 0.53405 0.8434 0.0
H4988 H 0.79894 0.48601 0.88653 0.0
H4989 H 0.77504 0.50477 0.88863 0.0
H4990 H 0.76956 0.50413 0.83449 0.0
H4991 H 0.79384 0.48532 0.83231 0.0
C4992 C 0.73079 0.52514 0.8791 0.0
C4993 C 0.72938 0.5399 0.86946 0.0
C4994 C 0.74372 0.51378 0.87609 0.0
C4995 C 0.75559 0.51693 0.86342 0.0
C4996 C 0.75376 0.5313 0.85322 0.0
C4997 C 0.74074 0.54272 0.85623 0.0
C4998 C 0.79267 0.48982 0.87504 0.0
C4999 C 0.79822 0.48413 0.85926 0.0
C5000 C 0.7789 0.5005 0.87626 0.0
C5001 C 0.77034 0.50576 0.86174 0.0
C5002 C 0.77598 0.50028 0.84588 0.0
C5003 C 0.78979 0.48948 0.84466 0.0
H5004 H 0.75919 0.54989 0.14201 0.0
H5005 H 0.77312 0.52 0.09872 0.0
H5006 H 0.73595 0.53062 0.1477 0.0
H5007 H 0.75018 0.50067 0.10456 0.0
H5008 H 0.69513 0.48565 0.10555 0.0
H5009 H 0.71974 0.5033 0.10223 0.0
H5010 H 0.72859 0.50119 0.15589 0.0
H5011 H 0.70361 0.48358 0.15929 0.0
C5012 C 0.75742 0.53909 0.13386 0.0
C5013 C 0.76782 0.53653 0.11982 0.0
C5014 C 0.74418 0.52803 0.13716 0.0
C5015 C 0.74115 0.51426 0.12646 0.0
C5016 C 0.75202 0.51136 0.11284 0.0
C5017 C 0.7652 0.52239 0.10954 0.0
C5018 C 0.7023 0.48891 0.11666 0.0
C5019 C 0.69746 0.48321 0.13268 0.0
C5020 C 0.71649 0.49893 0.11474 0.0
C5021 C 0.72618 0.5035 0.12878 0.0
C5022 C 0.7213 0.49792 0.14486 0.0
C5023 C 0.70707 0.4878 0.14679 0.0
H5024 H 0.77369 0.47153 0.39232 0.0
H5025 H 0.75739 0.44202 0.34962 0.0
H5026 H 0.75181 0.49206 0.38666 0.0
H5027 H 0.73511 0.46251 0.34414 0.0
H5028 H 0.69756 0.50936 0.38735 0.0
H5029 H 0.72148 0.49072 0.38994 0.0
H5030 H 0.72868 0.49226 0.336 0.0
H5031 H 0.70434 0.51089 0.33334 0.0
C5032 C 0.76547 0.46949 0.38166 0.0
C5033 C 0.76709 0.4551 0.37152 0.0
C5034 C 0.7529 0.48121 0.37846 0.0
C5035 C 0.7416 0.47875 0.36512 0.0
C5036 C 0.74369 0.46475 0.35447 0.0
C5037 C 0.75638 0.45301 0.35764 0.0
C5038 C 0.70423 0.50579 0.37602 0.0
C5039 C 0.6991 0.51162 0.36015 0.0
C5040 C 0.71803 0.49519 0.37752 0.0
C5041 C 0.72705 0.49016 0.36319 0.0
C5042 C 0.7219 0.49589 0.34725 0.0
C5043 C 0.70805 0.5066 0.34575 0.0
H5044 H 0.53536 0.4003 0.26769 0.0
H5045 H 0.54963 0.34882 0.25733 0.0
H5046 H 0.51314 0.39824 0.2466 0.0
H5047 H 0.52793 0.34693 0.23601 0.0
H5048 H 0.47929 0.34337 0.20788 0.0
H5049 H 0.49832 0.34586 0.23177 0.0
H5050 H 0.51084 0.39657 0.21639 0.0
H5051 H 0.49139 0.39426 0.19288 0.0
C5052 C 0.53372 0.38856 0.26094 0.0
C5053 C 0.54423 0.37474 0.26412 0.0
C5054 C 0.52108 0.3874 0.24881 0.0
C5055 C 0.51879 0.37242 0.2396 0.0
C5056 C 0.52916 0.35855 0.24305 0.0
C5057 C 0.54169 0.35968 0.2552 0.0
C5058 C 0.48606 0.35507 0.20968 0.0
C5059 C 0.48395 0.36858 0.19849 0.0
C5060 C 0.49699 0.35648 0.22332 0.0
C5061 C 0.50616 0.37139 0.22594 0.0
C5062 C 0.5038 0.38501 0.21488 0.0
C5063 C 0.49275 0.38363 0.20133 0.0
H5064 H 0.09122 0.74776 0.05466 0.0
H5065 H 0.13971 0.72739 0.04185 0.0
H5066 H 0.09464 0.7694 0.03301 0.0
H5067 H 0.14286 0.74833 0.01978 0.0
H5068 H 0.15247 0.79915 0.99536 0.0
H5069 H 0.1484 0.77718 0.01647 0.0
H5070 H 0.0957 0.77502 0.00392 0.0
H5071 H 0.09969 0.79744 0.98349 0.0
C5072 C 0.10244 0.74773 0.04698 0.0
C5073 C 0.11523 0.73601 0.04997 0.0
C5074 C 0.10443 0.76009 0.03455 0.0
C5075 C 0.11915 0.76076 0.02472 0.0
C5076 C 0.13159 0.74853 0.02737 0.0
C5077 C 0.12971 0.73641 0.03993 0.0
C5078 C 0.14005 0.79394 -0.00286 0.0
C5079 C 0.12641 0.80004 0.98783 0.0
C5080 C 0.13769 0.78127 0.00917 0.0
C5081 C 0.12168 0.77426 0.01193 0.0
C5082 C 0.10812 0.78029 0.0024 0.0
C5083 C 0.11044 0.79309 0.99059 0.0
H5084 H 0.40232 0.25752 0.54183 0.0
H5085 H 0.35189 0.24898 0.55965 0.0
H5086 H 0.39829 0.23612 0.52017 0.0
H5087 H 0.34804 0.22715 0.5385 0.0
H5088 H 0.34127 0.19956 0.48832 0.0
H5089 H 0.34463 0.2221 0.50909 0.0
H5090 H 0.39591 0.2066 0.51737 0.0
H5091 H 0.39273 0.18473 0.49632 0.0
C5092 C 0.39043 0.25097 0.54119 0.0
C5093 C 0.37745 0.2549 0.55244 0.0
C5094 C 0.38812 0.23864 0.52884 0.0
C5095 C 0.37283 0.22983 0.5276 0.0
C5096 C 0.35987 0.23383 0.53888 0.0
C5097 C 0.36213 0.24627 0.55111 0.0
C5098 C 0.35323 0.20104 0.49461 0.0
C5099 C 0.36675 0.19047 0.49063 0.0
C5100 C 0.35516 0.21388 0.50656 0.0
C5101 C 0.3706 0.21627 0.51485 0.0
C5102 C 0.38397 0.20545 0.51098 0.0
C5103 C 0.3821 0.19279 0.49897 0.0
H5104 H 0.26704 0.53393 0.40022 0.0
H5105 H 0.25359 0.55074 0.35026 0.0
H5106 H 0.24799 0.51008 0.39736 0.0
H5107 H 0.23408 0.52734 0.34762 0.0
H5108 H 0.19717 0.48357 0.39476 0.0
H5109 H 0.21875 0.50497 0.39701 0.0
H5110 H 0.23145 0.49759 0.34457 0.0
H5111 H 0.20928 0.4765 0.34218 0.0
C5112 C 0.25996 0.53255 0.38866 0.0
C5113 C 0.26175 0.54421 0.3755 0.0
C5114 C 0.24899 0.51893 0.38703 0.0
C5115 C 0.23944 0.5168 0.37227 0.0
C5116 C 0.24143 0.5284 0.35904 0.0
C5117 C 0.25251 0.54191 0.36061 0.0
C5118 C 0.20464 0.48642 0.38372 0.0
C5119 C 0.20149 0.47841 0.36826 0.0
C5120 C 0.21712 0.49863 0.38505 0.0
C5121 C 0.22687 0.50304 0.37098 0.0
C5122 C 0.224 0.49469 0.35559 0.0
C5123 C 0.21138 0.48254 0.35423 0.0
H5124 H 0.21225 0.52166 0.10095 0.0
H5125 H 0.2029 0.50503 0.15187 0.0
H5126 H 0.23401 0.5004 0.09793 0.0
H5127 H 0.22394 0.48307 0.14864 0.0
H5128 H 0.27028 0.4517 0.1426 0.0
H5129 H 0.2522 0.47612 0.14612 0.0
H5130 H 0.23614 0.47133 0.09425 0.0
H5131 H 0.255 0.44752 0.09058 0.0
C5132 C 0.21491 0.51343 0.1115 0.0
C5133 C 0.20593 0.5149 0.12662 0.0
C5134 C 0.22726 0.50114 0.10974 0.0
C5135 C 0.23063 0.48983 0.12295 0.0
C5136 C 0.2219 0.49168 0.13827 0.0
C5137 C 0.20978 0.50422 0.14013 0.0
C5138 C 0.26294 0.45598 0.13194 0.0
C5139 C 0.26396 0.44775 0.11633 0.0
C5140 C 0.2525 0.46991 0.13397 0.0
C5141 C 0.2426 0.4757 0.12051 0.0
C5142 C 0.24379 0.46747 0.10483 0.0
C5143 C 0.2545 0.45373 0.10273 0.0
H5144 H 0.2958 0.51095 0.89332 0.0
H5145 H 0.28101 0.51861 0.8415 0.0
H5146 H 0.27468 0.48924 0.89634 0.0
H5147 H 0.25927 0.49713 0.84471 0.0
H5148 H 0.23923 0.44305 0.85094 0.0
H5149 H 0.25775 0.46714 0.84756 0.0
H5150 H 0.2455 0.48367 0.89799 0.0
H5151 H 0.22743 0.45914 0.90157 0.0
C5152 C 0.28784 0.50817 0.88261 0.0
C5153 C 0.29012 0.51642 0.86713 0.0
C5154 C 0.27561 0.49578 0.8844 0.0
C5155 C 0.26526 0.49143 0.87078 0.0
C5156 C 0.26721 0.50003 0.85538 0.0
C5157 C 0.27958 0.51239 0.85356 0.0
C5158 C 0.24046 0.45186 0.86129 0.0
C5159 C 0.23201 0.44916 0.87658 0.0
C5160 C 0.25097 0.46576 0.8593 0.0
C5161 C 0.25313 0.47735 0.8725 0.0
C5162 C 0.24433 0.47483 0.88766 0.0
C5163 C 0.23394 0.46082 0.88971 0.0
H5164 H 0.22547 0.53999 0.6436 0.0
H5165 H 0.23946 0.54295 0.59114 0.0
H5166 H 0.24361 0.51562 0.64722 0.0
H5167 H 0.25837 0.51924 0.59487 0.0
H5168 H 0.28294 0.46961 0.60164 0.0
H5169 H 0.26069 0.49038 0.59903 0.0
H5170 H 0.27187 0.50852 0.64922 0.0
H5171 H 0.2934 0.48694 0.65209 0.0
C5172 C 0.23252 0.53544 0.63286 0.0
C5173 C 0.23112 0.54332 0.61709 0.0
C5174 C 0.243 0.52153 0.63495 0.0
C5175 C 0.25255 0.51543 0.62137 0.0
C5176 C 0.25097 0.52331 0.60555 0.0
C5177 C 0.24023 0.537 0.60339 0.0
C5178 C 0.28041 0.47791 0.61218 0.0
C5179 C 0.28986 0.4768 0.62703 0.0
C5180 C 0.26777 0.48992 0.61065 0.0
C5181 C 0.26462 0.50138 0.62379 0.0
C5182 C 0.27376 0.49982 0.6389 0.0
C5183 C 0.28616 0.48751 0.64056 0.0
loop_
_geom_bond_atom_site_label_1
_geom_bond_atom_site_label_2
_geom_bond_distance
_geom_bond_site_symmetry_2
_ccdc_geom_bond_type
Co0 O1 2.216 . S
Co0 O2 2.091 . S
Co0 O4 2.004 . S
Co0 O10 2.021 . S
Co0 O12 2.137 . S
Co0 O13 2.244 . S
O1 Co0 2.216 . S
O1 C8 1.247 . S
O2 Co0 2.091 . S
O2 C8 1.261 . S
C3 O12 1.247 . S
C3 O13 1.272 . S
O4 Co0 2.004 . S
O4 C9 1.259 . S
Co5 O6 2.061 . S
Co5 O11 2.052 . S
Co5 O13 2.135 . S
O6 Co5 2.061 . S
O6 C9 1.235 . S
C7 O10 1.238 . S
C7 O11 1.241 . S
C8 O1 1.247 . S
C8 O2 1.261 . S
C9 O4 1.259 . S
C9 O6 1.235 . S
O10 Co0 2.021 . S
O10 C7 1.238 . S
O11 Co5 2.052 . S
O11 C7 1.241 . S
O12 Co0 2.137 . S
O12 C3 1.247 . S
O13 Co0 2.244 . S
O13 C3 1.272 . S
O13 Co5 2.135 . S
Co14 O15 2.216 . S
Co14 O16 2.091 . S
Co14 O18 2.004 . S
Co14 O24 2.021 . S
Co14 O26 2.137 . S
Co14 O27 2.244 . S
O15 Co14 2.216 . S
O15 C22 1.247 . S
O16 Co14 2.091 . S
O16 C22 1.261 . S
C17 O26 1.247 . S
C17 O27 1.272 . S
O18 Co14 2.004 . S
O18 C23 1.259 . S
Co19 O20 2.061 . S
Co19 O25 2.052 . S
Co19 O27 2.135 . S
O20 Co19 2.061 . S
O20 C23 1.235 . S
C21 O24 1.238 . S
C21 O25 1.241 . S
C22 O15 1.247 . S
C22 O16 1.261 . S
C23 O18 1.259 . S
C23 O20 1.235 . S
O24 Co14 2.021 . S
O24 C21 1.238 . S
O25 Co19 2.052 . S
O25 C21 1.241 . S
O26 Co14 2.137 . S
O26 C17 1.247 . S
O27 Co14 2.244 . S
O27 C17 1.272 . S
O27 Co19 2.135 . S
Co28 O29 2.216 . S
Co28 O30 2.091 . S
Co28 O32 2.004 . S
Co28 O38 2.021 . S
Co28 O40 2.137 . S
Co28 O41 2.244 . S
O29 Co28 2.216 . S
O29 C36 1.247 . S
O30 Co28 2.091 . S
O30 C36 1.261 . S
C31 O40 1.247 . S
C31 O41 1.272 . S
O32 Co28 2.004 . S
O32 C37 1.259 . S
Co33 O34 2.061 . S
Co33 O39 2.052 . S
Co33 O41 2.135 . S
O34 Co33 2.061 . S
O34 C37 1.235 . S
C35 O38 1.238 . S
C35 O39 1.241 . S
C36 O29 1.247 . S
C36 O30 1.261 . S
C37 O32 1.259 . S
C37 O34 1.235 . S
O38 Co28 2.021 . S
O38 C35 1.238 . S
O39 Co33 2.052 . S
O39 C35 1.241 . S
O40 Co28 2.137 . S
O40 C31 1.247 . S
O41 Co28 2.244 . S
O41 C31 1.272 . S
O41 Co33 2.135 . S
Co42 O43 2.216 . S
Co42 O44 2.091 . S
Co42 O46 2.004 . S
Co42 O52 2.021 . S
Co42 O54 2.137 . S
Co42 O55 2.244 . S
O43 Co42 2.216 . S
O43 C50 1.247 . S
O44 Co42 2.091 . S
O44 C50 1.261 . S
C45 O54 1.247 . S
C45 O55 1.272 . S
O46 Co42 2.004 . S
O46 C51 1.259 . S
Co47 O48 2.061 . S
Co47 O53 2.052 . S
Co47 O55 2.135 . S
O48 Co47 2.061 . S
O48 C51 1.235 . S
C49 O52 1.238 . S
C49 O53 1.241 . S
C50 O43 1.247 . S
C50 O44 1.261 . S
C51 O46 1.259 . S
C51 O48 1.235 . S
O52 Co42 2.021 . S
O52 C49 1.238 . S
O53 Co47 2.052 . S
O53 C49 1.241 . S
O54 Co42 2.137 . S
O54 C45 1.247 . S
O55 Co42 2.244 . S
O55 C45 1.272 . S
O55 Co47 2.135 . S
Co56 O57 2.216 . S
Co56 O58 2.091 . S
Co56 O60 2.004 . S
Co56 O66 2.021 . S
Co56 O68 2.137 . S
Co56 O69 2.244 . S
O57 Co56 2.216 . S
O57 C64 1.247 . S
O58 Co56 2.091 . S
O58 C64 1.261 . S
C59 O68 1.247 . S
C59 O69 1.272 . S
O60 Co56 2.004 . S
O60 C65 1.259 . S
Co61 O62 2.061 . S
Co61 O67 2.052 . S
Co61 O69 2.135 . S
O62 Co61 2.061 . S
O62 C65 1.235 . S
C63 O66 1.238 . S
C63 O67 1.241 . S
C64 O57 1.247 . S
C64 O58 1.261 . S
C65 O60 1.259 . S
C65 O62 1.235 . S
O66 Co56 2.021 . S
O66 C63 1.238 . S
O67 Co61 2.052 . S
O67 C63 1.241 . S
O68 Co56 2.137 . S
O68 C59 1.247 . S
O69 Co56 2.244 . S
O69 C59 1.272 . S
O69 Co61 2.135 . S
Co70 O71 2.216 . S
Co70 O72 2.091 . S
Co70 O74 2.004 . S
Co70 O80 2.021 . S
Co70 O82 2.137 . S
Co70 O83 2.244 . S
O71 Co70 2.216 . S
O71 C78 1.247 . S
O72 Co70 2.091 . S
O72 C78 1.261 . S
C73 O82 1.247 . S
C73 O83 1.272 . S
O74 Co70 2.004 . S
O74 C79 1.259 . S
Co75 O76 2.061 . S
Co75 O81 2.052 . S
Co75 O83 2.135 . S
O76 Co75 2.061 . S
O76 C79 1.235 . S
C77 O80 1.238 . S
C77 O81 1.241 . S
C78 O71 1.247 . S
C78 O72 1.261 . S
C79 O74 1.259 . S
C79 O76 1.235 . S
O80 Co70 2.021 . S
O80 C77 1.238 . S
O81 Co75 2.052 . S
O81 C77 1.241 . S
O82 Co70 2.137 . S
O82 C73 1.247 . S
O83 Co70 2.244 . S
O83 C73 1.272 . S
O83 Co75 2.135 . S
Co84 O85 2.216 . S
Co84 O86 2.091 . S
Co84 O88 2.004 . S
Co84 O94 2.021 . S
Co84 O96 2.137 . S
Co84 O97 2.244 . S
O85 Co84 2.216 . S
O85 C92 1.247 . S
O86 Co84 2.091 . S
O86 C92 1.261 . S
C87 O96 1.247 . S
C87 O97 1.272 . S
O88 Co84 2.004 . S
O88 C93 1.259 . S
Co89 O90 2.061 . S
Co89 O95 2.052 . S
Co89 O97 2.135 . S
O90 Co89 2.061 . S
O90 C93 1.235 . S
C91 O94 1.238 . S
C91 O95 1.241 . S
C92 O85 1.247 . S
C92 O86 1.261 . S
C93 O88 1.259 . S
C93 O90 1.235 . S
O94 Co84 2.021 . S
O94 C91 1.238 . S
O95 Co89 2.052 . S
O95 C91 1.241 . S
O96 Co84 2.137 . S
O96 C87 1.247 . S
O97 Co84 2.244 . S
O97 C87 1.272 . S
O97 Co89 2.135 . S
Co98 O99 2.216 . S
Co98 O100 2.091 . S
Co98 O102 2.004 . S
Co98 O108 2.021 . S
Co98 O110 2.137 . S
Co98 O111 2.244 . S
O99 Co98 2.216 . S
O99 C106 1.247 . S
O100 Co98 2.091 . S
O100 C106 1.261 . S
C101 O110 1.247 . S
C101 O111 1.272 . S
O102 Co98 2.004 . S
O102 C107 1.259 . S
Co103 O104 2.061 . S
Co103 O109 2.052 . S
Co103 O111 2.135 . S
O104 Co103 2.061 . S
O104 C107 1.235 . S
C105 O108 1.238 . S
C105 O109 1.241 . S
C106 O99 1.247 . S
C106 O100 1.261 . S
C107 O102 1.259 . S
C107 O104 1.235 . S
O108 Co98 2.021 . S
O108 C105 1.238 . S
O109 Co103 2.052 . S
O109 C105 1.241 . S
O110 Co98 2.137 . S
O110 C101 1.247 . S
O111 Co98 2.244 . S
O111 C101 1.272 . S
O111 Co103 2.135 . S
Co112 O113 2.216 . S
Co112 O114 2.091 . S
Co112 O116 2.004 . S
Co112 O122 2.021 . S
Co112 O124 2.137 . S
Co112 O125 2.244 . S
O113 Co112 2.216 . S
O113 C120 1.247 . S
O114 Co112 2.091 . S
O114 C120 1.261 . S
C115 O124 1.247 . S
C115 O125 1.272 . S
O116 Co112 2.004 . S
O116 C121 1.259 . S
Co117 O118 2.061 . S
Co117 O123 2.052 . S
Co117 O125 2.135 . S
O118 Co117 2.061 . S
O118 C121 1.235 . S
C119 O122 1.238 . S
C119 O123 1.241 . S
C120 O113 1.247 . S
C120 O114 1.261 . S
C121 O116 1.259 . S
C121 O118 1.235 . S
O122 Co112 2.021 . S
O122 C119 1.238 . S
O123 Co117 2.052 . S
O123 C119 1.241 . S
O124 Co112 2.137 . S
O124 C115 1.247 . S
O125 Co112 2.244 . S
O125 C115 1.272 . S
O125 Co117 2.135 . S
Co126 O127 2.216 . S
Co126 O128 2.091 . S
Co126 O130 2.004 . S
Co126 O136 2.021 . S
Co126 O138 2.137 . S
Co126 O139 2.244 . S
O127 Co126 2.216 . S
O127 C134 1.247 . S
O128 Co126 2.091 . S
O128 C134 1.261 . S
C129 O138 1.247 . S
C129 O139 1.272 . S
O130 Co126 2.004 . S
O130 C135 1.259 . S
Co131 O132 2.061 . S
Co131 O137 2.052 . S
Co131 O139 2.135 . S
O132 Co131 2.061 . S
O132 C135 1.235 . S
C133 O136 1.238 . S
C133 O137 1.241 . S
C134 O127 1.247 . S
C134 O128 1.261 . S
C135 O130 1.259 . S
C135 O132 1.235 . S
O136 Co126 2.021 . S
O136 C133 1.238 . S
O137 Co131 2.052 . S
O137 C133 1.241 . S
O138 Co126 2.137 . S
O138 C129 1.247 . S
O139 Co126 2.244 . S
O139 C129 1.272 . S
O139 Co131 2.135 . S
Co140 O141 2.216 . S
Co140 O142 2.091 . S
Co140 O144 2.004 . S
Co140 O150 2.021 . S
Co140 O152 2.137 . S
Co140 O153 2.244 . S
O141 Co140 2.216 . S
O141 C148 1.247 . S
O142 Co140 2.091 . S
O142 C148 1.261 . S
C143 O152 1.247 . S
C143 O153 1.272 . S
O144 Co140 2.004 . S
O144 C149 1.259 . S
Co145 O146 2.061 . S
Co145 O151 2.052 . S
Co145 O153 2.135 . S
O146 Co145 2.061 . S
O146 C149 1.235 . S
C147 O150 1.238 . S
C147 O151 1.241 . S
C148 O141 1.247 . S
C148 O142 1.261 . S
C149 O144 1.259 . S
C149 O146 1.235 . S
O150 Co140 2.021 . S
O150 C147 1.238 . S
O151 Co145 2.052 . S
O151 C147 1.241 . S
O152 Co140 2.137 . S
O152 C143 1.247 . S
O153 Co140 2.244 . S
O153 C143 1.272 . S
O153 Co145 2.135 . S
Co154 O155 2.216 . S
Co154 O156 2.091 . S
Co154 O158 2.004 . S
Co154 O164 2.021 . S
Co154 O166 2.137 . S
Co154 O167 2.244 . S
O155 Co154 2.216 . S
O155 C162 1.247 . S
O156 Co154 2.091 . S
O156 C162 1.261 . S
C157 O166 1.247 . S
C157 O167 1.272 . S
O158 Co154 2.004 . S
O158 C163 1.259 . S
Co159 O160 2.061 . S
Co159 O165 2.052 . S
Co159 O167 2.135 . S
O160 Co159 2.061 . S
O160 C163 1.235 . S
C161 O164 1.238 . S
C161 O165 1.241 . S
C162 O155 1.247 . S
C162 O156 1.261 . S
C163 O158 1.259 . S
C163 O160 1.235 . S
O164 Co154 2.021 . S
O164 C161 1.238 . S
O165 Co159 2.052 . S
O165 C161 1.241 . S
O166 Co154 2.137 . S
O166 C157 1.247 . S
O167 Co154 2.244 . S
O167 C157 1.272 . S
O167 Co159 2.135 . S
Co168 O169 2.216 . S
Co168 O170 2.091 . S
Co168 O172 2.004 . S
Co168 O178 2.021 . S
Co168 O180 2.137 . S
Co168 O181 2.244 . S
O169 Co168 2.216 . S
O169 C176 1.247 . S
O170 Co168 2.091 . S
O170 C176 1.261 . S
C171 O180 1.247 . S
C171 O181 1.272 . S
O172 Co168 2.004 . S
O172 C177 1.259 . S
Co173 O174 2.061 . S
Co173 O179 2.052 . S
Co173 O181 2.135 . S
O174 Co173 2.061 . S
O174 C177 1.235 . S
C175 O178 1.238 . S
C175 O179 1.241 . S
C176 O169 1.247 . S
C176 O170 1.261 . S
C177 O172 1.259 . S
C177 O174 1.235 . S
O178 Co168 2.021 . S
O178 C175 1.238 . S
O179 Co173 2.052 . S
O179 C175 1.241 . S
O180 Co168 2.137 . S
O180 C171 1.247 . S
O181 Co168 2.244 . S
O181 C171 1.272 . S
O181 Co173 2.135 . S
Co182 O183 2.216 . S
Co182 O184 2.091 . S
Co182 O186 2.004 . S
Co182 O192 2.021 . S
Co182 O194 2.137 . S
Co182 O195 2.244 . S
O183 Co182 2.216 . S
O183 C190 1.247 . S
O184 Co182 2.091 . S
O184 C190 1.261 . S
C185 O194 1.247 . S
C185 O195 1.272 . S
O186 Co182 2.004 . S
O186 C191 1.259 . S
Co187 O188 2.061 . S
Co187 O193 2.052 . S
Co187 O195 2.135 . S
O188 Co187 2.061 . S
O188 C191 1.235 . S
C189 O192 1.238 . S
C189 O193 1.241 . S
C190 O183 1.247 . S
C190 O184 1.261 . S
C191 O186 1.259 . S
C191 O188 1.235 . S
O192 Co182 2.021 . S
O192 C189 1.238 . S
O193 Co187 2.052 . S
O193 C189 1.241 . S
O194 Co182 2.137 . S
O194 C185 1.247 . S
O195 Co182 2.244 . S
O195 C185 1.272 . S
O195 Co187 2.135 . S
Co196 O197 2.216 . S
Co196 O198 2.091 . S
Co196 O200 2.004 . S
Co196 O206 2.021 . S
Co196 O208 2.137 . S
Co196 O209 2.244 . S
O197 Co196 2.216 . S
O197 C204 1.247 . S
O198 Co196 2.091 . S
O198 C204 1.261 . S
C199 O208 1.247 . S
C199 O209 1.272 . S
O200 Co196 2.004 . S
O200 C205 1.259 . S
Co201 O202 2.061 . S
Co201 O207 2.052 . S
Co201 O209 2.135 . S
O202 Co201 2.061 . S
O202 C205 1.235 . S
C203 O206 1.238 . S
C203 O207 1.241 . S
C204 O197 1.247 . S
C204 O198 1.261 . S
C205 O200 1.259 . S
C205 O202 1.235 . S
O206 Co196 2.021 . S
O206 C203 1.238 . S
O207 Co201 2.052 . S
O207 C203 1.241 . S
O208 Co196 2.137 . S
O208 C199 1.247 . S
O209 Co196 2.244 . S
O209 C199 1.272 . S
O209 Co201 2.135 . S
Co210 O211 2.216 . S
Co210 O212 2.091 . S
Co210 O214 2.004 . S
Co210 O220 2.021 . S
Co210 O222 2.137 . S
Co210 O223 2.244 . S
O211 Co210 2.216 . S
O211 C218 1.247 . S
O212 Co210 2.091 . S
O212 C218 1.261 . S
C213 O222 1.247 . S
C213 O223 1.272 . S
O214 Co210 2.004 . S
O214 C219 1.259 . S
Co215 O216 2.061 . S
Co215 O221 2.052 . S
Co215 O223 2.135 . S
O216 Co215 2.061 . S
O216 C219 1.235 . S
C217 O220 1.238 . S
C217 O221 1.241 . S
C218 O211 1.247 . S
C218 O212 1.261 . S
C219 O214 1.259 . S
C219 O216 1.235 . S
O220 Co210 2.021 . S
O220 C217 1.238 . S
O221 Co215 2.052 . S
O221 C217 1.241 . S
O222 Co210 2.137 . S
O222 C213 1.247 . S
O223 Co210 2.244 . S
O223 C213 1.272 . S
O223 Co215 2.135 . S
Co224 O225 2.216 . S
Co224 O226 2.091 . S
Co224 O228 2.004 . S
Co224 O234 2.021 . S
Co224 O236 2.137 . S
Co224 O237 2.244 . S
O225 Co224 2.216 . S
O225 C232 1.247 . S
O226 Co224 2.091 . S
O226 C232 1.261 . S
C227 O236 1.247 . S
C227 O237 1.272 . S
O228 Co224 2.004 . S
O228 C233 1.259 . S
Co229 O230 2.061 . S
Co229 O235 2.052 . S
Co229 O237 2.135 . S
O230 Co229 2.061 . S
O230 C233 1.235 . S
C231 O234 1.238 . S
C231 O235 1.241 . S
C232 O225 1.247 . S
C232 O226 1.261 . S
C233 O228 1.259 . S
C233 O230 1.235 . S
O234 Co224 2.021 . S
O234 C231 1.238 . S
O235 Co229 2.052 . S
O235 C231 1.241 . S
O236 Co224 2.137 . S
O236 C227 1.247 . S
O237 Co224 2.244 . S
O237 C227 1.272 . S
O237 Co229 2.135 . S
Co238 O239 2.216 . S
Co238 O240 2.091 . S
Co238 O242 2.004 . S
Co238 O248 2.021 . S
Co238 O250 2.137 . S
Co238 O251 2.244 . S
O239 Co238 2.216 . S
O239 C246 1.247 . S
O240 Co238 2.091 . S
O240 C246 1.261 . S
C241 O250 1.247 . S
C241 O251 1.272 . S
O242 Co238 2.004 . S
O242 C247 1.259 . S
Co243 O244 2.061 . S
Co243 O249 2.052 . S
Co243 O251 2.135 . S
O244 Co243 2.061 . S
O244 C247 1.235 . S
C245 O248 1.238 . S
C245 O249 1.241 . S
C246 O239 1.247 . S
C246 O240 1.261 . S
C247 O242 1.259 . S
C247 O244 1.235 . S
O248 Co238 2.021 . S
O248 C245 1.238 . S
O249 Co243 2.052 . S
O249 C245 1.241 . S
O250 Co238 2.137 . S
O250 C241 1.247 . S
O251 Co238 2.244 . S
O251 C241 1.272 . S
O251 Co243 2.135 . S
Co252 O253 2.216 . S
Co252 O254 2.091 . S
Co252 O256 2.004 . S
Co252 O262 2.021 . S
Co252 O264 2.137 . S
Co252 O265 2.244 . S
O253 Co252 2.216 . S
O253 C260 1.247 . S
O254 Co252 2.091 . S
O254 C260 1.261 . S
C255 O264 1.247 . S
C255 O265 1.272 . S
O256 Co252 2.004 . S
O256 C261 1.259 . S
Co257 O258 2.061 . S
Co257 O263 2.052 . S
Co257 O265 2.135 . S
O258 Co257 2.061 . S
O258 C261 1.235 . S
C259 O262 1.238 . S
C259 O263 1.241 . S
C260 O253 1.247 . S
C260 O254 1.261 . S
C261 O256 1.259 . S
C261 O258 1.235 . S
O262 Co252 2.021 . S
O262 C259 1.238 . S
O263 Co257 2.052 . S
O263 C259 1.241 . S
O264 Co252 2.137 . S
O264 C255 1.247 . S
O265 Co252 2.244 . S
O265 C255 1.272 . S
O265 Co257 2.135 . S
Co266 O267 2.216 . S
Co266 O268 2.091 . S
Co266 O270 2.004 . S
Co266 O276 2.021 . S
Co266 O278 2.137 . S
Co266 O279 2.244 . S
O267 Co266 2.216 . S
O267 C274 1.247 . S
O268 Co266 2.091 . S
O268 C274 1.261 . S
C269 O278 1.247 . S
C269 O279 1.272 . S
O270 Co266 2.004 . S
O270 C275 1.259 . S
Co271 O272 2.061 . S
Co271 O277 2.052 . S
Co271 O279 2.135 . S
O272 Co271 2.061 . S
O272 C275 1.235 . S
C273 O276 1.238 . S
C273 O277 1.241 . S
C274 O267 1.247 . S
C274 O268 1.261 . S
C275 O270 1.259 . S
C275 O272 1.235 . S
O276 Co266 2.021 . S
O276 C273 1.238 . S
O277 Co271 2.052 . S
O277 C273 1.241 . S
O278 Co266 2.137 . S
O278 C269 1.247 . S
O279 Co266 2.244 . S
O279 C269 1.272 . S
O279 Co271 2.135 . S
Co280 O281 2.216 . S
Co280 O282 2.091 . S
Co280 O284 2.004 . S
Co280 O290 2.021 . S
Co280 O292 2.137 . S
Co280 O293 2.244 . S
O281 Co280 2.216 . S
O281 C288 1.247 . S
O282 Co280 2.091 . S
O282 C288 1.261 . S
C283 O292 1.247 . S
C283 O293 1.272 . S
O284 Co280 2.004 . S
O284 C289 1.259 . S
Co285 O286 2.061 . S
Co285 O291 2.052 . S
Co285 O293 2.135 . S
O286 Co285 2.061 . S
O286 C289 1.235 . S
C287 O290 1.238 . S
C287 O291 1.241 . S
C288 O281 1.247 . S
C288 O282 1.261 . S
C289 O284 1.259 . S
C289 O286 1.235 . S
O290 Co280 2.021 . S
O290 C287 1.238 . S
O291 Co285 2.052 . S
O291 C287 1.241 . S
O292 Co280 2.137 . S
O292 C283 1.247 . S
O293 Co280 2.244 . S
O293 C283 1.272 . S
O293 Co285 2.135 . S
Co294 O295 2.216 . S
Co294 O296 2.091 . S
Co294 O298 2.004 . S
Co294 O304 2.021 . S
Co294 O306 2.137 . S
Co294 O307 2.244 . S
O295 Co294 2.216 . S
O295 C302 1.247 . S
O296 Co294 2.091 . S
O296 C302 1.261 . S
C297 O306 1.247 . S
C297 O307 1.272 . S
O298 Co294 2.004 . S
O298 C303 1.259 . S
Co299 O300 2.061 . S
Co299 O305 2.052 . S
Co299 O307 2.135 . S
O300 Co299 2.061 . S
O300 C303 1.235 . S
C301 O304 1.238 . S
C301 O305 1.241 . S
C302 O295 1.247 . S
C302 O296 1.261 . S
C303 O298 1.259 . S
C303 O300 1.235 . S
O304 Co294 2.021 . S
O304 C301 1.238 . S
O305 Co299 2.052 . S
O305 C301 1.241 . S
O306 Co294 2.137 . S
O306 C297 1.247 . S
O307 Co294 2.244 . S
O307 C297 1.272 . S
O307 Co299 2.135 . S
Co308 O309 2.216 . S
Co308 O310 2.091 . S
Co308 O312 2.004 . S
Co308 O318 2.021 . S
Co308 O320 2.137 . S
Co308 O321 2.244 . S
O309 Co308 2.216 . S
O309 C316 1.247 . S
O310 Co308 2.091 . S
O310 C316 1.261 . S
C311 O320 1.247 . S
C311 O321 1.272 . S
O312 Co308 2.004 . S
O312 C317 1.259 . S
Co313 O314 2.061 . S
Co313 O319 2.052 . S
Co313 O321 2.135 . S
O314 Co313 2.061 . S
O314 C317 1.235 . S
C315 O318 1.238 . S
C315 O319 1.241 . S
C316 O309 1.247 . S
C316 O310 1.261 . S
C317 O312 1.259 . S
C317 O314 1.235 . S
O318 Co308 2.021 . S
O318 C315 1.238 . S
O319 Co313 2.052 . S
O319 C315 1.241 . S
O320 Co308 2.137 . S
O320 C311 1.247 . S
O321 Co308 2.244 . S
O321 C311 1.272 . S
O321 Co313 2.135 . S
Co322 O323 2.216 . S
Co322 O324 2.091 . S
Co322 O326 2.004 . S
Co322 O332 2.021 . S
Co322 O334 2.137 . S
Co322 O335 2.244 . S
O323 Co322 2.216 . S
O323 C330 1.247 . S
O324 Co322 2.091 . S
O324 C330 1.261 . S
C325 O334 1.247 . S
C325 O335 1.272 . S
O326 Co322 2.004 . S
O326 C331 1.259 . S
Co327 O328 2.061 . S
Co327 O333 2.052 . S
Co327 O335 2.135 . S
O328 Co327 2.061 . S
O328 C331 1.235 . S
C329 O332 1.238 . S
C329 O333 1.241 . S
C330 O323 1.247 . S
C330 O324 1.261 . S
C331 O326 1.259 . S
C331 O328 1.235 . S
O332 Co322 2.021 . S
O332 C329 1.238 . S
O333 Co327 2.052 . S
O333 C329 1.241 . S
O334 Co322 2.137 . S
O334 C325 1.247 . S
O335 Co322 2.244 . S
O335 C325 1.272 . S
O335 Co327 2.135 . S
Co336 O337 2.216 . S
Co336 O338 2.091 . S
Co336 O340 2.004 . S
Co336 O346 2.021 . S
Co336 O348 2.137 . S
Co336 O349 2.244 . S
O337 Co336 2.216 . S
O337 C344 1.247 . S
O338 Co336 2.091 . S
O338 C344 1.261 . S
C339 O348 1.247 . S
C339 O349 1.272 . S
O340 Co336 2.004 . S
O340 C345 1.259 . S
Co341 O342 2.061 . S
Co341 O347 2.052 . S
Co341 O349 2.135 . S
O342 Co341 2.061 . S
O342 C345 1.235 . S
C343 O346 1.238 . S
C343 O347 1.241 . S
C344 O337 1.247 . S
C344 O338 1.261 . S
C345 O340 1.259 . S
C345 O342 1.235 . S
O346 Co336 2.021 . S
O346 C343 1.238 . S
O347 Co341 2.052 . S
O347 C343 1.241 . S
O348 Co336 2.137 . S
O348 C339 1.247 . S
O349 Co336 2.244 . S
O349 C339 1.272 . S
O349 Co341 2.135 . S
Co350 O351 2.216 . S
Co350 O352 2.091 . S
Co350 O354 2.004 . S
Co350 O360 2.021 . S
Co350 O362 2.137 . S
Co350 O363 2.244 . S
O351 Co350 2.216 . S
O351 C358 1.247 . S
O352 Co350 2.091 . S
O352 C358 1.261 . S
C353 O362 1.247 . S
C353 O363 1.272 . S
O354 Co350 2.004 . S
O354 C359 1.259 . S
Co355 O356 2.061 . S
Co355 O361 2.052 . S
Co355 O363 2.135 . S
O356 Co355 2.061 . S
O356 C359 1.235 . S
C357 O360 1.238 . S
C357 O361 1.241 . S
C358 O351 1.247 . S
C358 O352 1.261 . S
C359 O354 1.259 . S
C359 O356 1.235 . S
O360 Co350 2.021 . S
O360 C357 1.238 . S
O361 Co355 2.052 . S
O361 C357 1.241 . S
O362 Co350 2.137 . S
O362 C353 1.247 . S
O363 Co350 2.244 . S
O363 C353 1.272 . S
O363 Co355 2.135 . S
Co364 O365 2.216 . S
Co364 O366 2.091 . S
Co364 O368 2.004 . S
Co364 O374 2.021 . S
Co364 O376 2.137 . S
Co364 O377 2.244 . S
O365 Co364 2.216 . S
O365 C372 1.247 . S
O366 Co364 2.091 . S
O366 C372 1.261 . S
C367 O376 1.247 . S
C367 O377 1.272 . S
O368 Co364 2.004 . S
O368 C373 1.259 . S
Co369 O370 2.061 . S
Co369 O375 2.052 . S
Co369 O377 2.135 . S
O370 Co369 2.061 . S
O370 C373 1.235 . S
C371 O374 1.238 . S
C371 O375 1.241 . S
C372 O365 1.247 . S
C372 O366 1.261 . S
C373 O368 1.259 . S
C373 O370 1.235 . S
O374 Co364 2.021 . S
O374 C371 1.238 . S
O375 Co369 2.052 . S
O375 C371 1.241 . S
O376 Co364 2.137 . S
O376 C367 1.247 . S
O377 Co364 2.244 . S
O377 C367 1.272 . S
O377 Co369 2.135 . S
Co378 O379 2.216 . S
Co378 O380 2.091 . S
Co378 O382 2.004 . S
Co378 O388 2.021 . S
Co378 O390 2.137 . S
Co378 O391 2.244 . S
O379 Co378 2.216 . S
O379 C386 1.247 . S
O380 Co378 2.091 . S
O380 C386 1.261 . S
C381 O390 1.247 . S
C381 O391 1.272 . S
O382 Co378 2.004 . S
O382 C387 1.259 . S
Co383 O384 2.061 . S
Co383 O389 2.052 . S
Co383 O391 2.135 . S
O384 Co383 2.061 . S
O384 C387 1.235 . S
C385 O388 1.238 . S
C385 O389 1.241 . S
C386 O379 1.247 . S
C386 O380 1.261 . S
C387 O382 1.259 . S
C387 O384 1.235 . S
O388 Co378 2.021 . S
O388 C385 1.238 . S
O389 Co383 2.052 . S
O389 C385 1.241 . S
O390 Co378 2.137 . S
O390 C381 1.247 . S
O391 Co378 2.244 . S
O391 C381 1.272 . S
O391 Co383 2.135 . S
Co392 O393 2.216 . S
Co392 O394 2.091 . S
Co392 O396 2.004 . S
Co392 O402 2.021 . S
Co392 O404 2.137 . S
Co392 O405 2.244 . S
O393 Co392 2.216 . S
O393 C400 1.247 . S
O394 Co392 2.091 . S
O394 C400 1.261 . S
C395 O404 1.247 . S
C395 O405 1.272 . S
O396 Co392 2.004 . S
O396 C401 1.259 . S
Co397 O398 2.061 . S
Co397 O403 2.052 . S
Co397 O405 2.135 . S
O398 Co397 2.061 . S
O398 C401 1.235 . S
C399 O402 1.238 . S
C399 O403 1.241 . S
C400 O393 1.247 . S
C400 O394 1.261 . S
C401 O396 1.259 . S
C401 O398 1.235 . S
O402 Co392 2.021 . S
O402 C399 1.238 . S
O403 Co397 2.052 . S
O403 C399 1.241 . S
O404 Co392 2.137 . S
O404 C395 1.247 . S
O405 Co392 2.244 . S
O405 C395 1.272 . S
O405 Co397 2.135 . S
Co406 O407 2.216 . S
Co406 O408 2.091 . S
Co406 O410 2.004 . S
Co406 O416 2.021 . S
Co406 O418 2.137 . S
Co406 O419 2.244 . S
O407 Co406 2.216 . S
O407 C414 1.247 . S
O408 Co406 2.091 . S
O408 C414 1.261 . S
C409 O418 1.247 . S
C409 O419 1.272 . S
O410 Co406 2.004 . S
O410 C415 1.259 . S
Co411 O412 2.061 . S
Co411 O417 2.052 . S
Co411 O419 2.135 . S
O412 Co411 2.061 . S
O412 C415 1.235 . S
C413 O416 1.238 . S
C413 O417 1.241 . S
C414 O407 1.247 . S
C414 O408 1.261 . S
C415 O410 1.259 . S
C415 O412 1.235 . S
O416 Co406 2.021 . S
O416 C413 1.238 . S
O417 Co411 2.052 . S
O417 C413 1.241 . S
O418 Co406 2.137 . S
O418 C409 1.247 . S
O419 Co406 2.244 . S
O419 C409 1.272 . S
O419 Co411 2.135 . S
Co420 O421 2.216 . S
Co420 O422 2.091 . S
Co420 O424 2.004 . S
Co420 O430 2.021 . S
Co420 O432 2.137 . S
Co420 O433 2.244 . S
O421 Co420 2.216 . S
O421 C428 1.247 . S
O422 Co420 2.091 . S
O422 C428 1.261 . S
C423 O432 1.247 . S
C423 O433 1.272 . S
O424 Co420 2.004 . S
O424 C429 1.259 . S
Co425 O426 2.061 . S
Co425 O431 2.052 . S
Co425 O433 2.135 . S
O426 Co425 2.061 . S
O426 C429 1.235 . S
C427 O430 1.238 . S
C427 O431 1.241 . S
C428 O421 1.247 . S
C428 O422 1.261 . S
C429 O424 1.259 . S
C429 O426 1.235 . S
O430 Co420 2.021 . S
O430 C427 1.238 . S
O431 Co425 2.052 . S
O431 C427 1.241 . S
O432 Co420 2.137 . S
O432 C423 1.247 . S
O433 Co420 2.244 . S
O433 C423 1.272 . S
O433 Co425 2.135 . S
Co434 O435 2.216 . S
Co434 O436 2.091 . S
Co434 O438 2.004 . S
Co434 O444 2.021 . S
Co434 O446 2.137 . S
Co434 O447 2.244 . S
O435 Co434 2.216 . S
O435 C442 1.247 . S
O436 Co434 2.091 . S
O436 C442 1.261 . S
C437 O446 1.247 . S
C437 O447 1.272 . S
O438 Co434 2.004 . S
O438 C443 1.259 . S
Co439 O440 2.061 . S
Co439 O445 2.052 . S
Co439 O447 2.135 . S
O440 Co439 2.061 . S
O440 C443 1.235 . S
C441 O444 1.238 . S
C441 O445 1.241 . S
C442 O435 1.247 . S
C442 O436 1.261 . S
C443 O438 1.259 . S
C443 O440 1.235 . S
O444 Co434 2.021 . S
O444 C441 1.238 . S
O445 Co439 2.052 . S
O445 C441 1.241 . S
O446 Co434 2.137 . S
O446 C437 1.247 . S
O447 Co434 2.244 . S
O447 C437 1.272 . S
O447 Co439 2.135 . S
Co448 O449 2.216 . S
Co448 O450 2.091 . S
Co448 O452 2.004 . S
Co448 O458 2.021 . S
Co448 O460 2.137 . S
Co448 O461 2.244 . S
O449 Co448 2.216 . S
O449 C456 1.247 . S
O450 Co448 2.091 . S
O450 C456 1.261 . S
C451 O460 1.247 . S
C451 O461 1.272 . S
O452 Co448 2.004 . S
O452 C457 1.259 . S
Co453 O454 2.061 . S
Co453 O459 2.052 . S
Co453 O461 2.135 . S
O454 Co453 2.061 . S
O454 C457 1.235 . S
C455 O458 1.238 . S
C455 O459 1.241 . S
C456 O449 1.247 . S
C456 O450 1.261 . S
C457 O452 1.259 . S
C457 O454 1.235 . S
O458 Co448 2.021 . S
O458 C455 1.238 . S
O459 Co453 2.052 . S
O459 C455 1.241 . S
O460 Co448 2.137 . S
O460 C451 1.247 . S
O461 Co448 2.244 . S
O461 C451 1.272 . S
O461 Co453 2.135 . S
Co462 O463 2.216 . S
Co462 O464 2.091 . S
Co462 O466 2.004 . S
Co462 O472 2.021 . S
Co462 O474 2.137 . S
Co462 O475 2.244 . S
O463 Co462 2.216 . S
O463 C470 1.247 . S
O464 Co462 2.091 . S
O464 C470 1.261 . S
C465 O474 1.247 . S
C465 O475 1.272 . S
O466 Co462 2.004 . S
O466 C471 1.259 . S
Co467 O468 2.061 . S
Co467 O473 2.052 . S
Co467 O475 2.135 . S
O468 Co467 2.061 . S
O468 C471 1.235 . S
C469 O472 1.238 . S
C469 O473 1.241 . S
C470 O463 1.247 . S
C470 O464 1.261 . S
C471 O466 1.259 . S
C471 O468 1.235 . S
O472 Co462 2.021 . S
O472 C469 1.238 . S
O473 Co467 2.052 . S
O473 C469 1.241 . S
O474 Co462 2.137 . S
O474 C465 1.247 . S
O475 Co462 2.244 . S
O475 C465 1.272 . S
O475 Co467 2.135 . S
Co476 O477 2.216 . S
Co476 O478 2.091 . S
Co476 O480 2.004 . S
Co476 O486 2.021 . S
Co476 O488 2.137 . S
Co476 O489 2.244 . S
O477 Co476 2.216 . S
O477 C484 1.247 . S
O478 Co476 2.091 . S
O478 C484 1.261 . S
C479 O488 1.247 . S
C479 O489 1.272 . S
O480 Co476 2.004 . S
O480 C485 1.259 . S
Co481 O482 2.061 . S
Co481 O487 2.052 . S
Co481 O489 2.135 . S
O482 Co481 2.061 . S
O482 C485 1.235 . S
C483 O486 1.238 . S
C483 O487 1.241 . S
C484 O477 1.247 . S
C484 O478 1.261 . S
C485 O480 1.259 . S
C485 O482 1.235 . S
O486 Co476 2.021 . S
O486 C483 1.238 . S
O487 Co481 2.052 . S
O487 C483 1.241 . S
O488 Co476 2.137 . S
O488 C479 1.247 . S
O489 Co476 2.244 . S
O489 C479 1.272 . S
O489 Co481 2.135 . S
Co490 O491 2.216 . S
Co490 O492 2.091 . S
Co490 O494 2.004 . S
Co490 O500 2.021 . S
Co490 O502 2.137 . S
Co490 O503 2.244 . S
O491 Co490 2.216 . S
O491 C498 1.247 . S
O492 Co490 2.091 . S
O492 C498 1.261 . S
C493 O502 1.247 . S
C493 O503 1.272 . S
O494 Co490 2.004 . S
O494 C499 1.259 . S
Co495 O496 2.061 . S
Co495 O501 2.052 . S
Co495 O503 2.135 . S
O496 Co495 2.061 . S
O496 C499 1.235 . S
C497 O500 1.238 . S
C497 O501 1.241 . S
C498 O491 1.247 . S
C498 O492 1.261 . S
C499 O494 1.259 . S
C499 O496 1.235 . S
O500 Co490 2.021 . S
O500 C497 1.238 . S
O501 Co495 2.052 . S
O501 C497 1.241 . S
O502 Co490 2.137 . S
O502 C493 1.247 . S
O503 Co490 2.244 . S
O503 C493 1.272 . S
O503 Co495 2.135 . S
Co504 O505 2.216 . S
Co504 O506 2.091 . S
Co504 O508 2.004 . S
Co504 O514 2.021 . S
Co504 O516 2.137 . S
Co504 O517 2.244 . S
O505 Co504 2.216 . S
O505 C512 1.247 . S
O506 Co504 2.091 . S
O506 C512 1.261 . S
C507 O516 1.247 . S
C507 O517 1.272 . S
O508 Co504 2.004 . S
O508 C513 1.259 . S
Co509 O510 2.061 . S
Co509 O515 2.052 . S
Co509 O517 2.135 . S
O510 Co509 2.061 . S
O510 C513 1.235 . S
C511 O514 1.238 . S
C511 O515 1.241 . S
C512 O505 1.247 . S
C512 O506 1.261 . S
C513 O508 1.259 . S
C513 O510 1.235 . S
O514 Co504 2.021 . S
O514 C511 1.238 . S
O515 Co509 2.052 . S
O515 C511 1.241 . S
O516 Co504 2.137 . S
O516 C507 1.247 . S
O517 Co504 2.244 . S
O517 C507 1.272 . S
O517 Co509 2.135 . S
Co518 O519 2.216 . S
Co518 O520 2.091 . S
Co518 O522 2.004 . S
Co518 O528 2.021 . S
Co518 O530 2.137 . S
Co518 O531 2.244 . S
O519 Co518 2.216 . S
O519 C526 1.247 . S
O520 Co518 2.091 . S
O520 C526 1.261 . S
C521 O530 1.247 . S
C521 O531 1.272 . S
O522 Co518 2.004 . S
O522 C527 1.259 . S
Co523 O524 2.061 . S
Co523 O529 2.052 . S
Co523 O531 2.135 . S
O524 Co523 2.061 . S
O524 C527 1.235 . S
C525 O528 1.238 . S
C525 O529 1.241 . S
C526 O519 1.247 . S
C526 O520 1.261 . S
C527 O522 1.259 . S
C527 O524 1.235 . S
O528 Co518 2.021 . S
O528 C525 1.238 . S
O529 Co523 2.052 . S
O529 C525 1.241 . S
O530 Co518 2.137 . S
O530 C521 1.247 . S
O531 Co518 2.244 . S
O531 C521 1.272 . S
O531 Co523 2.135 . S
Co532 O533 2.216 . S
Co532 O534 2.091 . S
Co532 O536 2.004 . S
Co532 O542 2.021 . S
Co532 O544 2.137 . S
Co532 O545 2.244 . S
O533 Co532 2.216 . S
O533 C540 1.247 . S
O534 Co532 2.091 . S
O534 C540 1.261 . S
C535 O544 1.247 . S
C535 O545 1.272 . S
O536 Co532 2.004 . S
O536 C541 1.259 . S
Co537 O538 2.061 . S
Co537 O543 2.052 . S
Co537 O545 2.135 . S
O538 Co537 2.061 . S
O538 C541 1.235 . S
C539 O542 1.238 . S
C539 O543 1.241 . S
C540 O533 1.247 . S
C540 O534 1.261 . S
C541 O536 1.259 . S
C541 O538 1.235 . S
O542 Co532 2.021 . S
O542 C539 1.238 . S
O543 Co537 2.052 . S
O543 C539 1.241 . S
O544 Co532 2.137 . S
O544 C535 1.247 . S
O545 Co532 2.244 . S
O545 C535 1.272 . S
O545 Co537 2.135 . S
Co546 O547 2.216 . S
Co546 O548 2.091 . S
Co546 O550 2.004 . S
Co546 O556 2.021 . S
Co546 O558 2.137 . S
Co546 O559 2.244 . S
O547 Co546 2.216 . S
O547 C554 1.247 . S
O548 Co546 2.091 . S
O548 C554 1.261 . S
C549 O558 1.247 . S
C549 O559 1.272 . S
O550 Co546 2.004 . S
O550 C555 1.259 . S
Co551 O552 2.061 . S
Co551 O557 2.052 . S
Co551 O559 2.135 . S
O552 Co551 2.061 . S
O552 C555 1.235 . S
C553 O556 1.238 . S
C553 O557 1.241 . S
C554 O547 1.247 . S
C554 O548 1.261 . S
C555 O550 1.259 . S
C555 O552 1.235 . S
O556 Co546 2.021 . S
O556 C553 1.238 . S
O557 Co551 2.052 . S
O557 C553 1.241 . S
O558 Co546 2.137 . S
O558 C549 1.247 . S
O559 Co546 2.244 . S
O559 C549 1.272 . S
O559 Co551 2.135 . S
Co560 O561 2.216 . S
Co560 O562 2.091 . S
Co560 O564 2.004 . S
Co560 O570 2.021 . S
Co560 O572 2.137 . S
Co560 O573 2.244 . S
O561 Co560 2.216 . S
O561 C568 1.247 . S
O562 Co560 2.091 . S
O562 C568 1.261 . S
C563 O572 1.247 . S
C563 O573 1.272 . S
O564 Co560 2.004 . S
O564 C569 1.259 . S
Co565 O566 2.061 . S
Co565 O571 2.052 . S
Co565 O573 2.135 . S
O566 Co565 2.061 . S
O566 C569 1.235 . S
C567 O570 1.238 . S
C567 O571 1.241 . S
C568 O561 1.247 . S
C568 O562 1.261 . S
C569 O564 1.259 . S
C569 O566 1.235 . S
O570 Co560 2.021 . S
O570 C567 1.238 . S
O571 Co565 2.052 . S
O571 C567 1.241 . S
O572 Co560 2.137 . S
O572 C563 1.247 . S
O573 Co560 2.244 . S
O573 C563 1.272 . S
O573 Co565 2.135 . S
Co574 O575 2.216 . S
Co574 O576 2.091 . S
Co574 O578 2.004 . S
Co574 O584 2.021 . S
Co574 O586 2.137 . S
Co574 O587 2.244 . S
O575 Co574 2.216 . S
O575 C582 1.247 . S
O576 Co574 2.091 . S
O576 C582 1.261 . S
C577 O586 1.247 . S
C577 O587 1.272 . S
O578 Co574 2.004 . S
O578 C583 1.259 . S
Co579 O580 2.061 . S
Co579 O585 2.052 . S
Co579 O587 2.135 . S
O580 Co579 2.061 . S
O580 C583 1.235 . S
C581 O584 1.238 . S
C581 O585 1.241 . S
C582 O575 1.247 . S
C582 O576 1.261 . S
C583 O578 1.259 . S
C583 O580 1.235 . S
O584 Co574 2.021 . S
O584 C581 1.238 . S
O585 Co579 2.052 . S
O585 C581 1.241 . S
O586 Co574 2.137 . S
O586 C577 1.247 . S
O587 Co574 2.244 . S
O587 C577 1.272 . S
O587 Co579 2.135 . S
Co588 O589 2.216 . S
Co588 O590 2.091 . S
Co588 O592 2.004 . S
Co588 O598 2.021 . S
Co588 O600 2.137 . S
Co588 O601 2.244 . S
O589 Co588 2.216 . S
O589 C596 1.247 . S
O590 Co588 2.091 . S
O590 C596 1.261 . S
C591 O600 1.247 . S
C591 O601 1.272 . S
O592 Co588 2.004 . S
O592 C597 1.259 . S
Co593 O594 2.061 . S
Co593 O599 2.052 . S
Co593 O601 2.135 . S
O594 Co593 2.061 . S
O594 C597 1.235 . S
C595 O598 1.238 . S
C595 O599 1.241 . S
C596 O589 1.247 . S
C596 O590 1.261 . S
C597 O592 1.259 . S
C597 O594 1.235 . S
O598 Co588 2.021 . S
O598 C595 1.238 . S
O599 Co593 2.052 . S
O599 C595 1.241 . S
O600 Co588 2.137 . S
O600 C591 1.247 . S
O601 Co588 2.244 . S
O601 C591 1.272 . S
O601 Co593 2.135 . S
Co602 O603 2.216 . S
Co602 O604 2.091 . S
Co602 O606 2.004 . S
Co602 O612 2.021 . S
Co602 O614 2.137 . S
Co602 O615 2.244 . S
O603 Co602 2.216 . S
O603 C610 1.247 . S
O604 Co602 2.091 . S
O604 C610 1.261 . S
C605 O614 1.247 . S
C605 O615 1.272 . S
O606 Co602 2.004 . S
O606 C611 1.259 . S
Co607 O608 2.061 . S
Co607 O613 2.052 . S
Co607 O615 2.135 . S
O608 Co607 2.061 . S
O608 C611 1.235 . S
C609 O612 1.238 . S
C609 O613 1.241 . S
C610 O603 1.247 . S
C610 O604 1.261 . S
C611 O606 1.259 . S
C611 O608 1.235 . S
O612 Co602 2.021 . S
O612 C609 1.238 . S
O613 Co607 2.052 . S
O613 C609 1.241 . S
O614 Co602 2.137 . S
O614 C605 1.247 . S
O615 Co602 2.244 . S
O615 C605 1.272 . S
O615 Co607 2.135 . S
Co616 O617 2.216 . S
Co616 O618 2.091 . S
Co616 O620 2.004 . S
Co616 O626 2.021 . S
Co616 O628 2.137 . S
Co616 O629 2.244 . S
O617 Co616 2.216 . S
O617 C624 1.247 . S
O618 Co616 2.091 . S
O618 C624 1.261 . S
C619 O628 1.247 . S
C619 O629 1.272 . S
O620 Co616 2.004 . S
O620 C625 1.259 . S
Co621 O622 2.061 . S
Co621 O627 2.052 . S
Co621 O629 2.135 . S
O622 Co621 2.061 . S
O622 C625 1.235 . S
C623 O626 1.238 . S
C623 O627 1.241 . S
C624 O617 1.247 . S
C624 O618 1.261 . S
C625 O620 1.259 . S
C625 O622 1.235 . S
O626 Co616 2.021 . S
O626 C623 1.238 . S
O627 Co621 2.052 . S
O627 C623 1.241 . S
O628 Co616 2.137 . S
O628 C619 1.247 . S
O629 Co616 2.244 . S
O629 C619 1.272 . S
O629 Co621 2.135 . S
Co630 O631 2.216 . S
Co630 O632 2.091 . S
Co630 O634 2.004 . S
Co630 O640 2.021 . S
Co630 O642 2.137 . S
Co630 O643 2.244 . S
O631 Co630 2.216 . S
O631 C638 1.247 . S
O632 Co630 2.091 . S
O632 C638 1.261 . S
C633 O642 1.247 . S
C633 O643 1.272 . S
O634 Co630 2.004 . S
O634 C639 1.259 . S
Co635 O636 2.061 . S
Co635 O641 2.052 . S
Co635 O643 2.135 . S
O636 Co635 2.061 . S
O636 C639 1.235 . S
C637 O640 1.238 . S
C637 O641 1.241 . S
C638 O631 1.247 . S
C638 O632 1.261 . S
C639 O634 1.259 . S
C639 O636 1.235 . S
O640 Co630 2.021 . S
O640 C637 1.238 . S
O641 Co635 2.052 . S
O641 C637 1.241 . S
O642 Co630 2.137 . S
O642 C633 1.247 . S
O643 Co630 2.244 . S
O643 C633 1.272 . S
O643 Co635 2.135 . S
Co644 O645 2.216 . S
Co644 O646 2.091 . S
Co644 O648 2.004 . S
Co644 O654 2.021 . S
Co644 O656 2.137 . S
Co644 O657 2.244 . S
O645 Co644 2.216 . S
O645 C652 1.247 . S
O646 Co644 2.091 . S
O646 C652 1.261 . S
C647 O656 1.247 . S
C647 O657 1.272 . S
O648 Co644 2.004 . S
O648 C653 1.259 . S
Co649 O650 2.061 . S
Co649 O655 2.052 . S
Co649 O657 2.135 . S
O650 Co649 2.061 . S
O650 C653 1.235 . S
C651 O654 1.238 . S
C651 O655 1.241 . S
C652 O645 1.247 . S
C652 O646 1.261 . S
C653 O648 1.259 . S
C653 O650 1.235 . S
O654 Co644 2.021 . S
O654 C651 1.238 . S
O655 Co649 2.052 . S
O655 C651 1.241 . S
O656 Co644 2.137 . S
O656 C647 1.247 . S
O657 Co644 2.244 . S
O657 C647 1.272 . S
O657 Co649 2.135 . S
Co658 O659 2.216 . S
Co658 O660 2.091 . S
Co658 O662 2.004 . S
Co658 O668 2.021 . S
Co658 O670 2.137 . S
Co658 O671 2.244 . S
O659 Co658 2.216 . S
O659 C666 1.247 . S
O660 Co658 2.091 . S
O660 C666 1.261 . S
C661 O670 1.247 . S
C661 O671 1.272 . S
O662 Co658 2.004 . S
O662 C667 1.259 . S
Co663 O664 2.061 . S
Co663 O669 2.052 . S
Co663 O671 2.135 . S
O664 Co663 2.061 . S
O664 C667 1.235 . S
C665 O668 1.238 . S
C665 O669 1.241 . S
C666 O659 1.247 . S
C666 O660 1.261 . S
C667 O662 1.259 . S
C667 O664 1.235 . S
O668 Co658 2.021 . S
O668 C665 1.238 . S
O669 Co663 2.052 . S
O669 C665 1.241 . S
O670 Co658 2.137 . S
O670 C661 1.247 . S
O671 Co658 2.244 . S
O671 C661 1.272 . S
O671 Co663 2.135 . S
Co672 O673 2.216 . S
Co672 O674 2.091 . S
Co672 O676 2.004 . S
Co672 O682 2.021 . S
Co672 O684 2.137 . S
Co672 O685 2.244 . S
O673 Co672 2.216 . S
O673 C680 1.247 . S
O674 Co672 2.091 . S
O674 C680 1.261 . S
C675 O684 1.247 . S
C675 O685 1.272 . S
O676 Co672 2.004 . S
O676 C681 1.259 . S
Co677 O678 2.061 . S
Co677 O683 2.052 . S
Co677 O685 2.135 . S
O678 Co677 2.061 . S
O678 C681 1.235 . S
C679 O682 1.238 . S
C679 O683 1.241 . S
C680 O673 1.247 . S
C680 O674 1.261 . S
C681 O676 1.259 . S
C681 O678 1.235 . S
O682 Co672 2.021 . S
O682 C679 1.238 . S
O683 Co677 2.052 . S
O683 C679 1.241 . S
O684 Co672 2.137 . S
O684 C675 1.247 . S
O685 Co672 2.244 . S
O685 C675 1.272 . S
O685 Co677 2.135 . S
Co686 O687 2.216 . S
Co686 O688 2.091 . S
Co686 O690 2.004 . S
Co686 O696 2.021 . S
Co686 O698 2.137 . S
Co686 O699 2.244 . S
O687 Co686 2.216 . S
O687 C694 1.247 . S
O688 Co686 2.091 . S
O688 C694 1.261 . S
C689 O698 1.247 . S
C689 O699 1.272 . S
O690 Co686 2.004 . S
O690 C695 1.259 . S
Co691 O692 2.061 . S
Co691 O697 2.052 . S
Co691 O699 2.135 . S
O692 Co691 2.061 . S
O692 C695 1.235 . S
C693 O696 1.238 . S
C693 O697 1.241 . S
C694 O687 1.247 . S
C694 O688 1.261 . S
C695 O690 1.259 . S
C695 O692 1.235 . S
O696 Co686 2.021 . S
O696 C693 1.238 . S
O697 Co691 2.052 . S
O697 C693 1.241 . S
O698 Co686 2.137 . S
O698 C689 1.247 . S
O699 Co686 2.244 . S
O699 C689 1.272 . S
O699 Co691 2.135 . S
Co700 O701 2.216 . S
Co700 O702 2.091 . S
Co700 O704 2.004 . S
Co700 O710 2.021 . S
Co700 O712 2.137 . S
Co700 O713 2.244 . S
O701 Co700 2.216 . S
O701 C708 1.247 . S
O702 Co700 2.091 . S
O702 C708 1.261 . S
C703 O712 1.247 . S
C703 O713 1.272 . S
O704 Co700 2.004 . S
O704 C709 1.259 . S
Co705 O706 2.061 . S
Co705 O711 2.052 . S
Co705 O713 2.135 . S
O706 Co705 2.061 . S
O706 C709 1.235 . S
C707 O710 1.238 . S
C707 O711 1.241 . S
C708 O701 1.247 . S
C708 O702 1.261 . S
C709 O704 1.259 . S
C709 O706 1.235 . S
O710 Co700 2.021 . S
O710 C707 1.238 . S
O711 Co705 2.052 . S
O711 C707 1.241 . S
O712 Co700 2.137 . S
O712 C703 1.247 . S
O713 Co700 2.244 . S
O713 C703 1.272 . S
O713 Co705 2.135 . S
Co714 O715 2.216 . S
Co714 O716 2.091 . S
Co714 O718 2.004 . S
Co714 O724 2.021 . S
Co714 O726 2.137 . S
Co714 O727 2.244 . S
O715 Co714 2.216 . S
O715 C722 1.247 . S
O716 Co714 2.091 . S
O716 C722 1.261 . S
C717 O726 1.247 . S
C717 O727 1.272 . S
O718 Co714 2.004 . S
O718 C723 1.259 . S
Co719 O720 2.061 . S
Co719 O725 2.052 . S
Co719 O727 2.135 . S
O720 Co719 2.061 . S
O720 C723 1.235 . S
C721 O724 1.238 . S
C721 O725 1.241 . S
C722 O715 1.247 . S
C722 O716 1.261 . S
C723 O718 1.259 . S
C723 O720 1.235 . S
O724 Co714 2.021 . S
O724 C721 1.238 . S
O725 Co719 2.052 . S
O725 C721 1.241 . S
O726 Co714 2.137 . S
O726 C717 1.247 . S
O727 Co714 2.244 . S
O727 C717 1.272 . S
O727 Co719 2.135 . S
Co728 O729 2.216 . S
Co728 O730 2.091 . S
Co728 O732 2.004 . S
Co728 O738 2.021 . S
Co728 O740 2.137 . S
Co728 O741 2.244 . S
O729 Co728 2.216 . S
O729 C736 1.247 . S
O730 Co728 2.091 . S
O730 C736 1.261 . S
C731 O740 1.247 . S
C731 O741 1.272 . S
O732 Co728 2.004 . S
O732 C737 1.259 . S
Co733 O734 2.061 . S
Co733 O739 2.052 . S
Co733 O741 2.135 . S
O734 Co733 2.061 . S
O734 C737 1.235 . S
C735 O738 1.238 . S
C735 O739 1.241 . S
C736 O729 1.247 . S
C736 O730 1.261 . S
C737 O732 1.259 . S
C737 O734 1.235 . S
O738 Co728 2.021 . S
O738 C735 1.238 . S
O739 Co733 2.052 . S
O739 C735 1.241 . S
O740 Co728 2.137 . S
O740 C731 1.247 . S
O741 Co728 2.244 . S
O741 C731 1.272 . S
O741 Co733 2.135 . S
Co742 O743 2.216 . S
Co742 O744 2.091 . S
Co742 O746 2.004 . S
Co742 O752 2.021 . S
Co742 O754 2.137 . S
Co742 O755 2.244 . S
O743 Co742 2.216 . S
O743 C750 1.247 . S
O744 Co742 2.091 . S
O744 C750 1.261 . S
C745 O754 1.247 . S
C745 O755 1.272 . S
O746 Co742 2.004 . S
O746 C751 1.259 . S
Co747 O748 2.061 . S
Co747 O753 2.052 . S
Co747 O755 2.135 . S
O748 Co747 2.061 . S
O748 C751 1.235 . S
C749 O752 1.238 . S
C749 O753 1.241 . S
C750 O743 1.247 . S
C750 O744 1.261 . S
C751 O746 1.259 . S
C751 O748 1.235 . S
O752 Co742 2.021 . S
O752 C749 1.238 . S
O753 Co747 2.052 . S
O753 C749 1.241 . S
O754 Co742 2.137 . S
O754 C745 1.247 . S
O755 Co742 2.244 . S
O755 C745 1.272 . S
O755 Co747 2.135 . S
Co756 O757 2.216 . S
Co756 O758 2.091 . S
Co756 O760 2.004 . S
Co756 O766 2.021 . S
Co756 O768 2.137 . S
Co756 O769 2.244 . S
O757 Co756 2.216 . S
O757 C764 1.247 . S
O758 Co756 2.091 . S
O758 C764 1.261 . S
C759 O768 1.247 . S
C759 O769 1.272 . S
O760 Co756 2.004 . S
O760 C765 1.259 . S
Co761 O762 2.061 . S
Co761 O767 2.052 . S
Co761 O769 2.135 . S
O762 Co761 2.061 . S
O762 C765 1.235 . S
C763 O766 1.238 . S
C763 O767 1.241 . S
C764 O757 1.247 . S
C764 O758 1.261 . S
C765 O760 1.259 . S
C765 O762 1.235 . S
O766 Co756 2.021 . S
O766 C763 1.238 . S
O767 Co761 2.052 . S
O767 C763 1.241 . S
O768 Co756 2.137 . S
O768 C759 1.247 . S
O769 Co756 2.244 . S
O769 C759 1.272 . S
O769 Co761 2.135 . S
Co770 O771 2.216 . S
Co770 O772 2.091 . S
Co770 O774 2.004 . S
Co770 O780 2.021 . S
Co770 O782 2.137 . S
Co770 O783 2.244 . S
O771 Co770 2.216 . S
O771 C778 1.247 . S
O772 Co770 2.091 . S
O772 C778 1.261 . S
C773 O782 1.247 . S
C773 O783 1.272 . S
O774 Co770 2.004 . S
O774 C779 1.259 . S
Co775 O776 2.061 . S
Co775 O781 2.052 . S
Co775 O783 2.135 . S
O776 Co775 2.061 . S
O776 C779 1.235 . S
C777 O780 1.238 . S
C777 O781 1.241 . S
C778 O771 1.247 . S
C778 O772 1.261 . S
C779 O774 1.259 . S
C779 O776 1.235 . S
O780 Co770 2.021 . S
O780 C777 1.238 . S
O781 Co775 2.052 . S
O781 C777 1.241 . S
O782 Co770 2.137 . S
O782 C773 1.247 . S
O783 Co770 2.244 . S
O783 C773 1.272 . S
O783 Co775 2.135 . S
Co784 O785 2.216 . S
Co784 O786 2.091 . S
Co784 O788 2.004 . S
Co784 O794 2.021 . S
Co784 O796 2.137 . S
Co784 O797 2.244 . S
O785 Co784 2.216 . S
O785 C792 1.247 . S
O786 Co784 2.091 . S
O786 C792 1.261 . S
C787 O796 1.247 . S
C787 O797 1.272 . S
O788 Co784 2.004 . S
O788 C793 1.259 . S
Co789 O790 2.061 . S
Co789 O795 2.052 . S
Co789 O797 2.135 . S
O790 Co789 2.061 . S
O790 C793 1.235 . S
C791 O794 1.238 . S
C791 O795 1.241 . S
C792 O785 1.247 . S
C792 O786 1.261 . S
C793 O788 1.259 . S
C793 O790 1.235 . S
O794 Co784 2.021 . S
O794 C791 1.238 . S
O795 Co789 2.052 . S
O795 C791 1.241 . S
O796 Co784 2.137 . S
O796 C787 1.247 . S
O797 Co784 2.244 . S
O797 C787 1.272 . S
O797 Co789 2.135 . S
Co798 O799 2.216 . S
Co798 O800 2.091 . S
Co798 O802 2.004 . S
Co798 O808 2.021 . S
Co798 O810 2.137 . S
Co798 O811 2.244 . S
O799 Co798 2.216 . S
O799 C806 1.247 . S
O800 Co798 2.091 . S
O800 C806 1.261 . S
C801 O810 1.247 . S
C801 O811 1.272 . S
O802 Co798 2.004 . S
O802 C807 1.259 . S
Co803 O804 2.061 . S
Co803 O809 2.052 . S
Co803 O811 2.135 . S
O804 Co803 2.061 . S
O804 C807 1.235 . S
C805 O808 1.238 . S
C805 O809 1.241 . S
C806 O799 1.247 . S
C806 O800 1.261 . S
C807 O802 1.259 . S
C807 O804 1.235 . S
O808 Co798 2.021 . S
O808 C805 1.238 . S
O809 Co803 2.052 . S
O809 C805 1.241 . S
O810 Co798 2.137 . S
O810 C801 1.247 . S
O811 Co798 2.244 . S
O811 C801 1.272 . S
O811 Co803 2.135 . S
Co812 O813 2.216 . S
Co812 O814 2.091 . S
Co812 O816 2.004 . S
Co812 O822 2.021 . S
Co812 O824 2.137 . S
Co812 O825 2.244 . S
O813 Co812 2.216 . S
O813 C820 1.247 . S
O814 Co812 2.091 . S
O814 C820 1.261 . S
C815 O824 1.247 . S
C815 O825 1.272 . S
O816 Co812 2.004 . S
O816 C821 1.259 . S
Co817 O818 2.061 . S
Co817 O823 2.052 . S
Co817 O825 2.135 . S
O818 Co817 2.061 . S
O818 C821 1.235 . S
C819 O822 1.238 . S
C819 O823 1.241 . S
C820 O813 1.247 . S
C820 O814 1.261 . S
C821 O816 1.259 . S
C821 O818 1.235 . S
O822 Co812 2.021 . S
O822 C819 1.238 . S
O823 Co817 2.052 . S
O823 C819 1.241 . S
O824 Co812 2.137 . S
O824 C815 1.247 . S
O825 Co812 2.244 . S
O825 C815 1.272 . S
O825 Co817 2.135 . S
Co826 O827 2.216 . S
Co826 O828 2.091 . S
Co826 O830 2.004 . S
Co826 O836 2.021 . S
Co826 O838 2.137 . S
Co826 O839 2.244 . S
O827 Co826 2.216 . S
O827 C834 1.247 . S
O828 Co826 2.091 . S
O828 C834 1.261 . S
C829 O838 1.247 . S
C829 O839 1.272 . S
O830 Co826 2.004 . S
O830 C835 1.259 . S
Co831 O832 2.061 . S
Co831 O837 2.052 . S
Co831 O839 2.135 . S
O832 Co831 2.061 . S
O832 C835 1.235 . S
C833 O836 1.238 . S
C833 O837 1.241 . S
C834 O827 1.247 . S
C834 O828 1.261 . S
C835 O830 1.259 . S
C835 O832 1.235 . S
O836 Co826 2.021 . S
O836 C833 1.238 . S
O837 Co831 2.052 . S
O837 C833 1.241 . S
O838 Co826 2.137 . S
O838 C829 1.247 . S
O839 Co826 2.244 . S
O839 C829 1.272 . S
O839 Co831 2.135 . S
Co840 O841 2.216 . S
Co840 O842 2.091 . S
Co840 O844 2.004 . S
Co840 O850 2.021 . S
Co840 O852 2.137 . S
Co840 O853 2.244 . S
O841 Co840 2.216 . S
O841 C848 1.247 . S
O842 Co840 2.091 . S
O842 C848 1.261 . S
C843 O852 1.247 . S
C843 O853 1.272 . S
O844 Co840 2.004 . S
O844 C849 1.259 . S
Co845 O846 2.061 . S
Co845 O851 2.052 . S
Co845 O853 2.135 . S
O846 Co845 2.061 . S
O846 C849 1.235 . S
C847 O850 1.238 . S
C847 O851 1.241 . S
C848 O841 1.247 . S
C848 O842 1.261 . S
C849 O844 1.259 . S
C849 O846 1.235 . S
O850 Co840 2.021 . S
O850 C847 1.238 . S
O851 Co845 2.052 . S
O851 C847 1.241 . S
O852 Co840 2.137 . S
O852 C843 1.247 . S
O853 Co840 2.244 . S
O853 C843 1.272 . S
O853 Co845 2.135 . S
Co854 O855 2.216 . S
Co854 O856 2.091 . S
Co854 O858 2.004 . S
Co854 O864 2.021 . S
Co854 O866 2.137 . S
Co854 O867 2.244 . S
O855 Co854 2.216 . S
O855 C862 1.247 . S
O856 Co854 2.091 . S
O856 C862 1.261 . S
C857 O866 1.247 . S
C857 O867 1.272 . S
O858 Co854 2.004 . S
O858 C863 1.259 . S
Co859 O860 2.061 . S
Co859 O865 2.052 . S
Co859 O867 2.135 . S
O860 Co859 2.061 . S
O860 C863 1.235 . S
C861 O864 1.238 . S
C861 O865 1.241 . S
C862 O855 1.247 . S
C862 O856 1.261 . S
C863 O858 1.259 . S
C863 O860 1.235 . S
O864 Co854 2.021 . S
O864 C861 1.238 . S
O865 Co859 2.052 . S
O865 C861 1.241 . S
O866 Co854 2.137 . S
O866 C857 1.247 . S
O867 Co854 2.244 . S
O867 C857 1.272 . S
O867 Co859 2.135 . S
Co868 O869 2.216 . S
Co868 O870 2.091 . S
Co868 O872 2.004 . S
Co868 O878 2.021 . S
Co868 O880 2.137 . S
Co868 O881 2.244 . S
O869 Co868 2.216 . S
O869 C876 1.247 . S
O870 Co868 2.091 . S
O870 C876 1.261 . S
C871 O880 1.247 . S
C871 O881 1.272 . S
O872 Co868 2.004 . S
O872 C877 1.259 . S
Co873 O874 2.061 . S
Co873 O879 2.052 . S
Co873 O881 2.135 . S
O874 Co873 2.061 . S
O874 C877 1.235 . S
C875 O878 1.238 . S
C875 O879 1.241 . S
C876 O869 1.247 . S
C876 O870 1.261 . S
C877 O872 1.259 . S
C877 O874 1.235 . S
O878 Co868 2.021 . S
O878 C875 1.238 . S
O879 Co873 2.052 . S
O879 C875 1.241 . S
O880 Co868 2.137 . S
O880 C871 1.247 . S
O881 Co868 2.244 . S
O881 C871 1.272 . S
O881 Co873 2.135 . S
Co882 O883 2.216 . S
Co882 O884 2.091 . S
Co882 O886 2.004 . S
Co882 O892 2.021 . S
Co882 O894 2.137 . S
Co882 O895 2.244 . S
O883 Co882 2.216 . S
O883 C890 1.247 . S
O884 Co882 2.091 . S
O884 C890 1.261 . S
C885 O894 1.247 . S
C885 O895 1.272 . S
O886 Co882 2.004 . S
O886 C891 1.259 . S
Co887 O888 2.061 . S
Co887 O893 2.052 . S
Co887 O895 2.135 . S
O888 Co887 2.061 . S
O888 C891 1.235 . S
C889 O892 1.238 . S
C889 O893 1.241 . S
C890 O883 1.247 . S
C890 O884 1.261 . S
C891 O886 1.259 . S
C891 O888 1.235 . S
O892 Co882 2.021 . S
O892 C889 1.238 . S
O893 Co887 2.052 . S
O893 C889 1.241 . S
O894 Co882 2.137 . S
O894 C885 1.247 . S
O895 Co882 2.244 . S
O895 C885 1.272 . S
O895 Co887 2.135 . S
Co896 O897 2.216 . S
Co896 O898 2.091 . S
Co896 O900 2.004 . S
Co896 O906 2.021 . S
Co896 O908 2.137 . S
Co896 O909 2.244 . S
O897 Co896 2.216 . S
O897 C904 1.247 . S
O898 Co896 2.091 . S
O898 C904 1.261 . S
C899 O908 1.247 . S
C899 O909 1.272 . S
O900 Co896 2.004 . S
O900 C905 1.259 . S
Co901 O902 2.061 . S
Co901 O907 2.052 . S
Co901 O909 2.135 . S
O902 Co901 2.061 . S
O902 C905 1.235 . S
C903 O906 1.238 . S
C903 O907 1.241 . S
C904 O897 1.247 . S
C904 O898 1.261 . S
C905 O900 1.259 . S
C905 O902 1.235 . S
O906 Co896 2.021 . S
O906 C903 1.238 . S
O907 Co901 2.052 . S
O907 C903 1.241 . S
O908 Co896 2.137 . S
O908 C899 1.247 . S
O909 Co896 2.244 . S
O909 C899 1.272 . S
O909 Co901 2.135 . S
Co910 O911 2.216 . S
Co910 O912 2.091 . S
Co910 O914 2.004 . S
Co910 O920 2.021 . S
Co910 O922 2.137 . S
Co910 O923 2.244 . S
O911 Co910 2.216 . S
O911 C918 1.247 . S
O912 Co910 2.091 . S
O912 C918 1.261 . S
C913 O922 1.247 . S
C913 O923 1.272 . S
O914 Co910 2.004 . S
O914 C919 1.259 . S
Co915 O916 2.061 . S
Co915 O921 2.052 . S
Co915 O923 2.135 . S
O916 Co915 2.061 . S
O916 C919 1.235 . S
C917 O920 1.238 . S
C917 O921 1.241 . S
C918 O911 1.247 . S
C918 O912 1.261 . S
C919 O914 1.259 . S
C919 O916 1.235 . S
O920 Co910 2.021 . S
O920 C917 1.238 . S
O921 Co915 2.052 . S
O921 C917 1.241 . S
O922 Co910 2.137 . S
O922 C913 1.247 . S
O923 Co910 2.244 . S
O923 C913 1.272 . S
O923 Co915 2.135 . S
Co924 O925 2.216 . S
Co924 O926 2.091 . S
Co924 O928 2.004 . S
Co924 O934 2.021 . S
Co924 O936 2.137 . S
Co924 O937 2.244 . S
O925 Co924 2.216 . S
O925 C932 1.247 . S
O926 Co924 2.091 . S
O926 C932 1.261 . S
C927 O936 1.247 . S
C927 O937 1.272 . S
O928 Co924 2.004 . S
O928 C933 1.259 . S
Co929 O930 2.061 . S
Co929 O935 2.052 . S
Co929 O937 2.135 . S
O930 Co929 2.061 . S
O930 C933 1.235 . S
C931 O934 1.238 . S
C931 O935 1.241 . S
C932 O925 1.247 . S
C932 O926 1.261 . S
C933 O928 1.259 . S
C933 O930 1.235 . S
O934 Co924 2.021 . S
O934 C931 1.238 . S
O935 Co929 2.052 . S
O935 C931 1.241 . S
O936 Co924 2.137 . S
O936 C927 1.247 . S
O937 Co924 2.244 . S
O937 C927 1.272 . S
O937 Co929 2.135 . S
Co938 O939 2.216 . S
Co938 O940 2.091 . S
Co938 O942 2.004 . S
Co938 O948 2.021 . S
Co938 O950 2.137 . S
Co938 O951 2.244 . S
O939 Co938 2.216 . S
O939 C946 1.247 . S
O940 Co938 2.091 . S
O940 C946 1.261 . S
C941 O950 1.247 . S
C941 O951 1.272 . S
O942 Co938 2.004 . S
O942 C947 1.259 . S
Co943 O944 2.061 . S
Co943 O949 2.052 . S
Co943 O951 2.135 . S
O944 Co943 2.061 . S
O944 C947 1.235 . S
C945 O948 1.238 . S
C945 O949 1.241 . S
C946 O939 1.247 . S
C946 O940 1.261 . S
C947 O942 1.259 . S
C947 O944 1.235 . S
O948 Co938 2.021 . S
O948 C945 1.238 . S
O949 Co943 2.052 . S
O949 C945 1.241 . S
O950 Co938 2.137 . S
O950 C941 1.247 . S
O951 Co938 2.244 . S
O951 C941 1.272 . S
O951 Co943 2.135 . S
Co952 O953 2.216 . S
Co952 O954 2.091 . S
Co952 O956 2.004 . S
Co952 O962 2.021 . S
Co952 O964 2.137 . S
Co952 O965 2.244 . S
O953 Co952 2.216 . S
O953 C960 1.247 . S
O954 Co952 2.091 . S
O954 C960 1.261 . S
C955 O964 1.247 . S
C955 O965 1.272 . S
O956 Co952 2.004 . S
O956 C961 1.259 . S
Co957 O958 2.061 . S
Co957 O963 2.052 . S
Co957 O965 2.135 . S
O958 Co957 2.061 . S
O958 C961 1.235 . S
C959 O962 1.238 . S
C959 O963 1.241 . S
C960 O953 1.247 . S
C960 O954 1.261 . S
C961 O956 1.259 . S
C961 O958 1.235 . S
O962 Co952 2.021 . S
O962 C959 1.238 . S
O963 Co957 2.052 . S
O963 C959 1.241 . S
O964 Co952 2.137 . S
O964 C955 1.247 . S
O965 Co952 2.244 . S
O965 C955 1.272 . S
O965 Co957 2.135 . S
Co966 O967 2.216 . S
Co966 O968 2.091 . S
Co966 O970 2.004 . S
Co966 O976 2.021 . S
Co966 O978 2.137 . S
Co966 O979 2.244 . S
O967 Co966 2.216 . S
O967 C974 1.247 . S
O968 Co966 2.091 . S
O968 C974 1.261 . S
C969 O978 1.247 . S
C969 O979 1.272 . S
O970 Co966 2.004 . S
O970 C975 1.259 . S
Co971 O972 2.061 . S
Co971 O977 2.052 . S
Co971 O979 2.135 . S
O972 Co971 2.061 . S
O972 C975 1.235 . S
C973 O976 1.238 . S
C973 O977 1.241 . S
C974 O967 1.247 . S
C974 O968 1.261 . S
C975 O970 1.259 . S
C975 O972 1.235 . S
O976 Co966 2.021 . S
O976 C973 1.238 . S
O977 Co971 2.052 . S
O977 C973 1.241 . S
O978 Co966 2.137 . S
O978 C969 1.247 . S
O979 Co966 2.244 . S
O979 C969 1.272 . S
O979 Co971 2.135 . S
Co980 O981 2.216 . S
Co980 O982 2.091 . S
Co980 O984 2.004 . S
Co980 O990 2.021 . S
Co980 O992 2.137 . S
Co980 O993 2.244 . S
O981 Co980 2.216 . S
O981 C988 1.247 . S
O982 Co980 2.091 . S
O982 C988 1.261 . S
C983 O992 1.247 . S
C983 O993 1.272 . S
O984 Co980 2.004 . S
O984 C989 1.259 . S
Co985 O986 2.061 . S
Co985 O991 2.052 . S
Co985 O993 2.135 . S
O986 Co985 2.061 . S
O986 C989 1.235 . S
C987 O990 1.238 . S
C987 O991 1.241 . S
C988 O981 1.247 . S
C988 O982 1.261 . S
C989 O984 1.259 . S
C989 O986 1.235 . S
O990 Co980 2.021 . S
O990 C987 1.238 . S
O991 Co985 2.052 . S
O991 C987 1.241 . S
O992 Co980 2.137 . S
O992 C983 1.247 . S
O993 Co980 2.244 . S
O993 C983 1.272 . S
O993 Co985 2.135 . S
Co994 O995 2.216 . S
Co994 O996 2.091 . S
Co994 O998 2.004 . S
Co994 O1004 2.021 . S
Co994 O1006 2.137 . S
Co994 O1007 2.244 . S
O995 Co994 2.216 . S
O995 C1002 1.247 . S
O996 Co994 2.091 . S
O996 C1002 1.261 . S
C997 O1006 1.247 . S
C997 O1007 1.272 . S
O998 Co994 2.004 . S
O998 C1003 1.259 . S
Co999 O1000 2.061 . S
Co999 O1005 2.052 . S
Co999 O1007 2.135 . S
O1000 Co999 2.061 . S
O1000 C1003 1.235 . S
C1001 O1004 1.238 . S
C1001 O1005 1.241 . S
C1002 O995 1.247 . S
C1002 O996 1.261 . S
C1003 O998 1.259 . S
C1003 O1000 1.235 . S
O1004 Co994 2.021 . S
O1004 C1001 1.238 . S
O1005 Co999 2.052 . S
O1005 C1001 1.241 . S
O1006 Co994 2.137 . S
O1006 C997 1.247 . S
O1007 Co994 2.244 . S
O1007 C997 1.272 . S
O1007 Co999 2.135 . S
Co1008 O1009 2.216 . S
Co1008 O1010 2.091 . S
Co1008 O1012 2.004 . S
Co1008 O1018 2.021 . S
Co1008 O1020 2.137 . S
Co1008 O1021 2.244 . S
O1009 Co1008 2.216 . S
O1009 C1016 1.247 . S
O1010 Co1008 2.091 . S
O1010 C1016 1.261 . S
C1011 O1020 1.247 . S
C1011 O1021 1.272 . S
O1012 Co1008 2.004 . S
O1012 C1017 1.259 . S
Co1013 O1014 2.061 . S
Co1013 O1019 2.052 . S
Co1013 O1021 2.135 . S
O1014 Co1013 2.061 . S
O1014 C1017 1.235 . S
C1015 O1018 1.238 . S
C1015 O1019 1.241 . S
C1016 O1009 1.247 . S
C1016 O1010 1.261 . S
C1017 O1012 1.259 . S
C1017 O1014 1.235 . S
O1018 Co1008 2.021 . S
O1018 C1015 1.238 . S
O1019 Co1013 2.052 . S
O1019 C1015 1.241 . S
O1020 Co1008 2.137 . S
O1020 C1011 1.247 . S
O1021 Co1008 2.244 . S
O1021 C1011 1.272 . S
O1021 Co1013 2.135 . S
Co1022 O1023 2.216 . S
Co1022 O1024 2.091 . S
Co1022 O1026 2.004 . S
Co1022 O1032 2.021 . S
Co1022 O1034 2.137 . S
Co1022 O1035 2.244 . S
O1023 Co1022 2.216 . S
O1023 C1030 1.247 . S
O1024 Co1022 2.091 . S
O1024 C1030 1.261 . S
C1025 O1034 1.247 . S
C1025 O1035 1.272 . S
O1026 Co1022 2.004 . S
O1026 C1031 1.259 . S
Co1027 O1028 2.061 . S
Co1027 O1033 2.052 . S
Co1027 O1035 2.135 . S
O1028 Co1027 2.061 . S
O1028 C1031 1.235 . S
C1029 O1032 1.238 . S
C1029 O1033 1.241 . S
C1030 O1023 1.247 . S
C1030 O1024 1.261 . S
C1031 O1026 1.259 . S
C1031 O1028 1.235 . S
O1032 Co1022 2.021 . S
O1032 C1029 1.238 . S
O1033 Co1027 2.052 . S
O1033 C1029 1.241 . S
O1034 Co1022 2.137 . S
O1034 C1025 1.247 . S
O1035 Co1022 2.244 . S
O1035 C1025 1.272 . S
O1035 Co1027 2.135 . S
Co1036 O1037 2.216 . S
Co1036 O1038 2.091 . S
Co1036 O1040 2.004 . S
Co1036 O1046 2.021 . S
Co1036 O1048 2.137 . S
Co1036 O1049 2.244 . S
O1037 Co1036 2.216 . S
O1037 C1044 1.247 . S
O1038 Co1036 2.091 . S
O1038 C1044 1.261 . S
C1039 O1048 1.247 . S
C1039 O1049 1.272 . S
O1040 Co1036 2.004 . S
O1040 C1045 1.259 . S
Co1041 O1042 2.061 . S
Co1041 O1047 2.052 . S
Co1041 O1049 2.135 . S
O1042 Co1041 2.061 . S
O1042 C1045 1.235 . S
C1043 O1046 1.238 . S
C1043 O1047 1.241 . S
C1044 O1037 1.247 . S
C1044 O1038 1.261 . S
C1045 O1040 1.259 . S
C1045 O1042 1.235 . S
O1046 Co1036 2.021 . S
O1046 C1043 1.238 . S
O1047 Co1041 2.052 . S
O1047 C1043 1.241 . S
O1048 Co1036 2.137 . S
O1048 C1039 1.247 . S
O1049 Co1036 2.244 . S
O1049 C1039 1.272 . S
O1049 Co1041 2.135 . S
Co1050 O1051 2.216 . S
Co1050 O1052 2.091 . S
Co1050 O1054 2.004 . S
Co1050 O1060 2.021 . S
Co1050 O1062 2.137 . S
Co1050 O1063 2.244 . S
O1051 Co1050 2.216 . S
O1051 C1058 1.247 . S
O1052 Co1050 2.091 . S
O1052 C1058 1.261 . S
C1053 O1062 1.247 . S
C1053 O1063 1.272 . S
O1054 Co1050 2.004 . S
O1054 C1059 1.259 . S
Co1055 O1056 2.061 . S
Co1055 O1061 2.052 . S
Co1055 O1063 2.135 . S
O1056 Co1055 2.061 . S
O1056 C1059 1.235 . S
C1057 O1060 1.238 . S
C1057 O1061 1.241 . S
C1058 O1051 1.247 . S
C1058 O1052 1.261 . S
C1059 O1054 1.259 . S
C1059 O1056 1.235 . S
O1060 Co1050 2.021 . S
O1060 C1057 1.238 . S
O1061 Co1055 2.052 . S
O1061 C1057 1.241 . S
O1062 Co1050 2.137 . S
O1062 C1053 1.247 . S
O1063 Co1050 2.244 . S
O1063 C1053 1.272 . S
O1063 Co1055 2.135 . S
Co1064 O1065 2.216 . S
Co1064 O1066 2.091 . S
Co1064 O1068 2.004 . S
Co1064 O1074 2.021 . S
Co1064 O1076 2.137 . S
Co1064 O1077 2.244 . S
O1065 Co1064 2.216 . S
O1065 C1072 1.247 . S
O1066 Co1064 2.091 . S
O1066 C1072 1.261 . S
C1067 O1076 1.247 . S
C1067 O1077 1.272 . S
O1068 Co1064 2.004 . S
O1068 C1073 1.259 . S
Co1069 O1070 2.061 . S
Co1069 O1075 2.052 . S
Co1069 O1077 2.135 . S
O1070 Co1069 2.061 . S
O1070 C1073 1.235 . S
C1071 O1074 1.238 . S
C1071 O1075 1.241 . S
C1072 O1065 1.247 . S
C1072 O1066 1.261 . S
C1073 O1068 1.259 . S
C1073 O1070 1.235 . S
O1074 Co1064 2.021 . S
O1074 C1071 1.238 . S
O1075 Co1069 2.052 . S
O1075 C1071 1.241 . S
O1076 Co1064 2.137 . S
O1076 C1067 1.247 . S
O1077 Co1064 2.244 . S
O1077 C1067 1.272 . S
O1077 Co1069 2.135 . S
Co1078 O1079 2.216 . S
Co1078 O1080 2.091 . S
Co1078 O1082 2.004 . S
Co1078 O1088 2.021 . S
Co1078 O1090 2.137 . S
Co1078 O1091 2.244 . S
O1079 Co1078 2.216 . S
O1079 C1086 1.247 . S
O1080 Co1078 2.091 . S
O1080 C1086 1.261 . S
C1081 O1090 1.247 . S
C1081 O1091 1.272 . S
O1082 Co1078 2.004 . S
O1082 C1087 1.259 . S
Co1083 O1084 2.061 . S
Co1083 O1089 2.052 . S
Co1083 O1091 2.135 . S
O1084 Co1083 2.061 . S
O1084 C1087 1.235 . S
C1085 O1088 1.238 . S
C1085 O1089 1.241 . S
C1086 O1079 1.247 . S
C1086 O1080 1.261 . S
C1087 O1082 1.259 . S
C1087 O1084 1.235 . S
O1088 Co1078 2.021 . S
O1088 C1085 1.238 . S
O1089 Co1083 2.052 . S
O1089 C1085 1.241 . S
O1090 Co1078 2.137 . S
O1090 C1081 1.247 . S
O1091 Co1078 2.244 . S
O1091 C1081 1.272 . S
O1091 Co1083 2.135 . S
Co1092 O1093 2.216 . S
Co1092 O1094 2.091 . S
Co1092 O1096 2.004 . S
Co1092 O1102 2.021 . S
Co1092 O1104 2.137 . S
Co1092 O1105 2.244 . S
O1093 Co1092 2.216 . S
O1093 C1100 1.247 . S
O1094 Co1092 2.091 . S
O1094 C1100 1.261 . S
C1095 O1104 1.247 . S
C1095 O1105 1.272 . S
O1096 Co1092 2.004 . S
O1096 C1101 1.259 . S
Co1097 O1098 2.061 . S
Co1097 O1103 2.052 . S
Co1097 O1105 2.135 . S
O1098 Co1097 2.061 . S
O1098 C1101 1.235 . S
C1099 O1102 1.238 . S
C1099 O1103 1.241 . S
C1100 O1093 1.247 . S
C1100 O1094 1.261 . S
C1101 O1096 1.259 . S
C1101 O1098 1.235 . S
O1102 Co1092 2.021 . S
O1102 C1099 1.238 . S
O1103 Co1097 2.052 . S
O1103 C1099 1.241 . S
O1104 Co1092 2.137 . S
O1104 C1095 1.247 . S
O1105 Co1092 2.244 . S
O1105 C1095 1.272 . S
O1105 Co1097 2.135 . S
Co1106 O1107 2.216 . S
Co1106 O1108 2.091 . S
Co1106 O1110 2.004 . S
Co1106 O1116 2.021 . S
Co1106 O1118 2.137 . S
Co1106 O1119 2.244 . S
O1107 Co1106 2.216 . S
O1107 C1114 1.247 . S
O1108 Co1106 2.091 . S
O1108 C1114 1.261 . S
C1109 O1118 1.247 . S
C1109 O1119 1.272 . S
O1110 Co1106 2.004 . S
O1110 C1115 1.259 . S
Co1111 O1112 2.061 . S
Co1111 O1117 2.052 . S
Co1111 O1119 2.135 . S
O1112 Co1111 2.061 . S
O1112 C1115 1.235 . S
C1113 O1116 1.238 . S
C1113 O1117 1.241 . S
C1114 O1107 1.247 . S
C1114 O1108 1.261 . S
C1115 O1110 1.259 . S
C1115 O1112 1.235 . S
O1116 Co1106 2.021 . S
O1116 C1113 1.238 . S
O1117 Co1111 2.052 . S
O1117 C1113 1.241 . S
O1118 Co1106 2.137 . S
O1118 C1109 1.247 . S
O1119 Co1106 2.244 . S
O1119 C1109 1.272 . S
O1119 Co1111 2.135 . S
Co1120 O1121 2.216 . S
Co1120 O1122 2.091 . S
Co1120 O1124 2.004 . S
Co1120 O1130 2.021 . S
Co1120 O1132 2.137 . S
Co1120 O1133 2.244 . S
O1121 Co1120 2.216 . S
O1121 C1128 1.247 . S
O1122 Co1120 2.091 . S
O1122 C1128 1.261 . S
C1123 O1132 1.247 . S
C1123 O1133 1.272 . S
O1124 Co1120 2.004 . S
O1124 C1129 1.259 . S
Co1125 O1126 2.061 . S
Co1125 O1131 2.052 . S
Co1125 O1133 2.135 . S
O1126 Co1125 2.061 . S
O1126 C1129 1.235 . S
C1127 O1130 1.238 . S
C1127 O1131 1.241 . S
C1128 O1121 1.247 . S
C1128 O1122 1.261 . S
C1129 O1124 1.259 . S
C1129 O1126 1.235 . S
O1130 Co1120 2.021 . S
O1130 C1127 1.238 . S
O1131 Co1125 2.052 . S
O1131 C1127 1.241 . S
O1132 Co1120 2.137 . S
O1132 C1123 1.247 . S
O1133 Co1120 2.244 . S
O1133 C1123 1.272 . S
O1133 Co1125 2.135 . S
Co1134 O1135 2.216 . S
Co1134 O1136 2.091 . S
Co1134 O1138 2.004 . S
Co1134 O1144 2.021 . S
Co1134 O1146 2.137 . S
Co1134 O1147 2.244 . S
O1135 Co1134 2.216 . S
O1135 C1142 1.247 . S
O1136 Co1134 2.091 . S
O1136 C1142 1.261 . S
C1137 O1146 1.247 . S
C1137 O1147 1.272 . S
O1138 Co1134 2.004 . S
O1138 C1143 1.259 . S
Co1139 O1140 2.061 . S
Co1139 O1145 2.052 . S
Co1139 O1147 2.135 . S
O1140 Co1139 2.061 . S
O1140 C1143 1.235 . S
C1141 O1144 1.238 . S
C1141 O1145 1.241 . S
C1142 O1135 1.247 . S
C1142 O1136 1.261 . S
C1143 O1138 1.259 . S
C1143 O1140 1.235 . S
O1144 Co1134 2.021 . S
O1144 C1141 1.238 . S
O1145 Co1139 2.052 . S
O1145 C1141 1.241 . S
O1146 Co1134 2.137 . S
O1146 C1137 1.247 . S
O1147 Co1134 2.244 . S
O1147 C1137 1.272 . S
O1147 Co1139 2.135 . S
Co1148 O1149 2.216 . S
Co1148 O1150 2.091 . S
Co1148 O1152 2.004 . S
Co1148 O1158 2.021 . S
Co1148 O1160 2.137 . S
Co1148 O1161 2.244 . S
O1149 Co1148 2.216 . S
O1149 C1156 1.247 . S
O1150 Co1148 2.091 . S
O1150 C1156 1.261 . S
C1151 O1160 1.247 . S
C1151 O1161 1.272 . S
O1152 Co1148 2.004 . S
O1152 C1157 1.259 . S
Co1153 O1154 2.061 . S
Co1153 O1159 2.052 . S
Co1153 O1161 2.135 . S
O1154 Co1153 2.061 . S
O1154 C1157 1.235 . S
C1155 O1158 1.238 . S
C1155 O1159 1.241 . S
C1156 O1149 1.247 . S
C1156 O1150 1.261 . S
C1157 O1152 1.259 . S
C1157 O1154 1.235 . S
O1158 Co1148 2.021 . S
O1158 C1155 1.238 . S
O1159 Co1153 2.052 . S
O1159 C1155 1.241 . S
O1160 Co1148 2.137 . S
O1160 C1151 1.247 . S
O1161 Co1148 2.244 . S
O1161 C1151 1.272 . S
O1161 Co1153 2.135 . S
Co1162 O1163 2.216 . S
Co1162 O1164 2.091 . S
Co1162 O1166 2.004 . S
Co1162 O1172 2.021 . S
Co1162 O1174 2.137 . S
Co1162 O1175 2.244 . S
O1163 Co1162 2.216 . S
O1163 C1170 1.247 . S
O1164 Co1162 2.091 . S
O1164 C1170 1.261 . S
C1165 O1174 1.247 . S
C1165 O1175 1.272 . S
O1166 Co1162 2.004 . S
O1166 C1171 1.259 . S
Co1167 O1168 2.061 . S
Co1167 O1173 2.052 . S
Co1167 O1175 2.135 . S
O1168 Co1167 2.061 . S
O1168 C1171 1.235 . S
C1169 O1172 1.238 . S
C1169 O1173 1.241 . S
C1170 O1163 1.247 . S
C1170 O1164 1.261 . S
C1171 O1166 1.259 . S
C1171 O1168 1.235 . S
O1172 Co1162 2.021 . S
O1172 C1169 1.238 . S
O1173 Co1167 2.052 . S
O1173 C1169 1.241 . S
O1174 Co1162 2.137 . S
O1174 C1165 1.247 . S
O1175 Co1162 2.244 . S
O1175 C1165 1.272 . S
O1175 Co1167 2.135 . S
Co1176 O1177 2.216 . S
Co1176 O1178 2.091 . S
Co1176 O1180 2.004 . S
Co1176 O1186 2.021 . S
Co1176 O1188 2.137 . S
Co1176 O1189 2.244 . S
O1177 Co1176 2.216 . S
O1177 C1184 1.247 . S
O1178 Co1176 2.091 . S
O1178 C1184 1.261 . S
C1179 O1188 1.247 . S
C1179 O1189 1.272 . S
O1180 Co1176 2.004 . S
O1180 C1185 1.259 . S
Co1181 O1182 2.061 . S
Co1181 O1187 2.052 . S
Co1181 O1189 2.135 . S
O1182 Co1181 2.061 . S
O1182 C1185 1.235 . S
C1183 O1186 1.238 . S
C1183 O1187 1.241 . S
C1184 O1177 1.247 . S
C1184 O1178 1.261 . S
C1185 O1180 1.259 . S
C1185 O1182 1.235 . S
O1186 Co1176 2.021 . S
O1186 C1183 1.238 . S
O1187 Co1181 2.052 . S
O1187 C1183 1.241 . S
O1188 Co1176 2.137 . S
O1188 C1179 1.247 . S
O1189 Co1176 2.244 . S
O1189 C1179 1.272 . S
O1189 Co1181 2.135 . S
Co1190 O1191 2.216 . S
Co1190 O1192 2.091 . S
Co1190 O1194 2.004 . S
Co1190 O1200 2.021 . S
Co1190 O1202 2.137 . S
Co1190 O1203 2.244 . S
O1191 Co1190 2.216 . S
O1191 C1198 1.247 . S
O1192 Co1190 2.091 . S
O1192 C1198 1.261 . S
C1193 O1202 1.247 . S
C1193 O1203 1.272 . S
O1194 Co1190 2.004 . S
O1194 C1199 1.259 . S
Co1195 O1196 2.061 . S
Co1195 O1201 2.052 . S
Co1195 O1203 2.135 . S
O1196 Co1195 2.061 . S
O1196 C1199 1.235 . S
C1197 O1200 1.238 . S
C1197 O1201 1.241 . S
C1198 O1191 1.247 . S
C1198 O1192 1.261 . S
C1199 O1194 1.259 . S
C1199 O1196 1.235 . S
O1200 Co1190 2.021 . S
O1200 C1197 1.238 . S
O1201 Co1195 2.052 . S
O1201 C1197 1.241 . S
O1202 Co1190 2.137 . S
O1202 C1193 1.247 . S
O1203 Co1190 2.244 . S
O1203 C1193 1.272 . S
O1203 Co1195 2.135 . S
Co1204 O1205 2.216 . S
Co1204 O1206 2.091 . S
Co1204 O1208 2.004 . S
Co1204 O1214 2.021 . S
Co1204 O1216 2.137 . S
Co1204 O1217 2.244 . S
O1205 Co1204 2.216 . S
O1205 C1212 1.247 . S
O1206 Co1204 2.091 . S
O1206 C1212 1.261 . S
C1207 O1216 1.247 . S
C1207 O1217 1.272 . S
O1208 Co1204 2.004 . S
O1208 C1213 1.259 . S
Co1209 O1210 2.061 . S
Co1209 O1215 2.052 . S
Co1209 O1217 2.135 . S
O1210 Co1209 2.061 . S
O1210 C1213 1.235 . S
C1211 O1214 1.238 . S
C1211 O1215 1.241 . S
C1212 O1205 1.247 . S
C1212 O1206 1.261 . S
C1213 O1208 1.259 . S
C1213 O1210 1.235 . S
O1214 Co1204 2.021 . S
O1214 C1211 1.238 . S
O1215 Co1209 2.052 . S
O1215 C1211 1.241 . S
O1216 Co1204 2.137 . S
O1216 C1207 1.247 . S
O1217 Co1204 2.244 . S
O1217 C1207 1.272 . S
O1217 Co1209 2.135 . S
Co1218 O1219 2.216 . S
Co1218 O1220 2.091 . S
Co1218 O1222 2.004 . S
Co1218 O1228 2.021 . S
Co1218 O1230 2.137 . S
Co1218 O1231 2.244 . S
O1219 Co1218 2.216 . S
O1219 C1226 1.247 . S
O1220 Co1218 2.091 . S
O1220 C1226 1.261 . S
C1221 O1230 1.247 . S
C1221 O1231 1.272 . S
O1222 Co1218 2.004 . S
O1222 C1227 1.259 . S
Co1223 O1224 2.061 . S
Co1223 O1229 2.052 . S
Co1223 O1231 2.135 . S
O1224 Co1223 2.061 . S
O1224 C1227 1.235 . S
C1225 O1228 1.238 . S
C1225 O1229 1.241 . S
C1226 O1219 1.247 . S
C1226 O1220 1.261 . S
C1227 O1222 1.259 . S
C1227 O1224 1.235 . S
O1228 Co1218 2.021 . S
O1228 C1225 1.238 . S
O1229 Co1223 2.052 . S
O1229 C1225 1.241 . S
O1230 Co1218 2.137 . S
O1230 C1221 1.247 . S
O1231 Co1218 2.244 . S
O1231 C1221 1.272 . S
O1231 Co1223 2.135 . S
Co1232 O1233 2.216 . S
Co1232 O1234 2.091 . S
Co1232 O1236 2.004 . S
Co1232 O1242 2.021 . S
Co1232 O1244 2.137 . S
Co1232 O1245 2.244 . S
O1233 Co1232 2.216 . S
O1233 C1240 1.247 . S
O1234 Co1232 2.091 . S
O1234 C1240 1.261 . S
C1235 O1244 1.247 . S
C1235 O1245 1.272 . S
O1236 Co1232 2.004 . S
O1236 C1241 1.259 . S
Co1237 O1238 2.061 . S
Co1237 O1243 2.052 . S
Co1237 O1245 2.135 . S
O1238 Co1237 2.061 . S
O1238 C1241 1.235 . S
C1239 O1242 1.238 . S
C1239 O1243 1.241 . S
C1240 O1233 1.247 . S
C1240 O1234 1.261 . S
C1241 O1236 1.259 . S
C1241 O1238 1.235 . S
O1242 Co1232 2.021 . S
O1242 C1239 1.238 . S
O1243 Co1237 2.052 . S
O1243 C1239 1.241 . S
O1244 Co1232 2.137 . S
O1244 C1235 1.247 . S
O1245 Co1232 2.244 . S
O1245 C1235 1.272 . S
O1245 Co1237 2.135 . S
Co1246 O1247 2.216 . S
Co1246 O1248 2.091 . S
Co1246 O1250 2.004 . S
Co1246 O1256 2.021 . S
Co1246 O1258 2.137 . S
Co1246 O1259 2.244 . S
O1247 Co1246 2.216 . S
O1247 C1254 1.247 . S
O1248 Co1246 2.091 . S
O1248 C1254 1.261 . S
C1249 O1258 1.247 . S
C1249 O1259 1.272 . S
O1250 Co1246 2.004 . S
O1250 C1255 1.259 . S
Co1251 O1252 2.061 . S
Co1251 O1257 2.052 . S
Co1251 O1259 2.135 . S
O1252 Co1251 2.061 . S
O1252 C1255 1.235 . S
C1253 O1256 1.238 . S
C1253 O1257 1.241 . S
C1254 O1247 1.247 . S
C1254 O1248 1.261 . S
C1255 O1250 1.259 . S
C1255 O1252 1.235 . S
O1256 Co1246 2.021 . S
O1256 C1253 1.238 . S
O1257 Co1251 2.052 . S
O1257 C1253 1.241 . S
O1258 Co1246 2.137 . S
O1258 C1249 1.247 . S
O1259 Co1246 2.244 . S
O1259 C1249 1.272 . S
O1259 Co1251 2.135 . S
Co1260 O1261 2.216 . S
Co1260 O1262 2.091 . S
Co1260 O1264 2.004 . S
Co1260 O1270 2.021 . S
Co1260 O1272 2.137 . S
Co1260 O1273 2.244 . S
O1261 Co1260 2.216 . S
O1261 C1268 1.247 . S
O1262 Co1260 2.091 . S
O1262 C1268 1.261 . S
C1263 O1272 1.247 . S
C1263 O1273 1.272 . S
O1264 Co1260 2.004 . S
O1264 C1269 1.259 . S
Co1265 O1266 2.061 . S
Co1265 O1271 2.052 . S
Co1265 O1273 2.135 . S
O1266 Co1265 2.061 . S
O1266 C1269 1.235 . S
C1267 O1270 1.238 . S
C1267 O1271 1.241 . S
C1268 O1261 1.247 . S
C1268 O1262 1.261 . S
C1269 O1264 1.259 . S
C1269 O1266 1.235 . S
O1270 Co1260 2.021 . S
O1270 C1267 1.238 . S
O1271 Co1265 2.052 . S
O1271 C1267 1.241 . S
O1272 Co1260 2.137 . S
O1272 C1263 1.247 . S
O1273 Co1260 2.244 . S
O1273 C1263 1.272 . S
O1273 Co1265 2.135 . S
Co1274 O1275 2.216 . S
Co1274 O1276 2.091 . S
Co1274 O1278 2.004 . S
Co1274 O1284 2.021 . S
Co1274 O1286 2.137 . S
Co1274 O1287 2.244 . S
O1275 Co1274 2.216 . S
O1275 C1282 1.247 . S
O1276 Co1274 2.091 . S
O1276 C1282 1.261 . S
C1277 O1286 1.247 . S
C1277 O1287 1.272 . S
O1278 Co1274 2.004 . S
O1278 C1283 1.259 . S
Co1279 O1280 2.061 . S
Co1279 O1285 2.052 . S
Co1279 O1287 2.135 . S
O1280 Co1279 2.061 . S
O1280 C1283 1.235 . S
C1281 O1284 1.238 . S
C1281 O1285 1.241 . S
C1282 O1275 1.247 . S
C1282 O1276 1.261 . S
C1283 O1278 1.259 . S
C1283 O1280 1.235 . S
O1284 Co1274 2.021 . S
O1284 C1281 1.238 . S
O1285 Co1279 2.052 . S
O1285 C1281 1.241 . S
O1286 Co1274 2.137 . S
O1286 C1277 1.247 . S
O1287 Co1274 2.244 . S
O1287 C1277 1.272 . S
O1287 Co1279 2.135 . S
Co1288 O1289 2.216 . S
Co1288 O1290 2.091 . S
Co1288 O1292 2.004 . S
Co1288 O1298 2.021 . S
Co1288 O1300 2.137 . S
Co1288 O1301 2.244 . S
O1289 Co1288 2.216 . S
O1289 C1296 1.247 . S
O1290 Co1288 2.091 . S
O1290 C1296 1.261 . S
C1291 O1300 1.247 . S
C1291 O1301 1.272 . S
O1292 Co1288 2.004 . S
O1292 C1297 1.259 . S
Co1293 O1294 2.061 . S
Co1293 O1299 2.052 . S
Co1293 O1301 2.135 . S
O1294 Co1293 2.061 . S
O1294 C1297 1.235 . S
C1295 O1298 1.238 . S
C1295 O1299 1.241 . S
C1296 O1289 1.247 . S
C1296 O1290 1.261 . S
C1297 O1292 1.259 . S
C1297 O1294 1.235 . S
O1298 Co1288 2.021 . S
O1298 C1295 1.238 . S
O1299 Co1293 2.052 . S
O1299 C1295 1.241 . S
O1300 Co1288 2.137 . S
O1300 C1291 1.247 . S
O1301 Co1288 2.244 . S
O1301 C1291 1.272 . S
O1301 Co1293 2.135 . S
Co1302 O1303 2.216 . S
Co1302 O1304 2.091 . S
Co1302 O1306 2.004 . S
Co1302 O1312 2.021 . S
Co1302 O1314 2.137 . S
Co1302 O1315 2.244 . S
O1303 Co1302 2.216 . S
O1303 C1310 1.247 . S
O1304 Co1302 2.091 . S
O1304 C1310 1.261 . S
C1305 O1314 1.247 . S
C1305 O1315 1.272 . S
O1306 Co1302 2.004 . S
O1306 C1311 1.259 . S
Co1307 O1308 2.061 . S
Co1307 O1313 2.052 . S
Co1307 O1315 2.135 . S
O1308 Co1307 2.061 . S
O1308 C1311 1.235 . S
C1309 O1312 1.238 . S
C1309 O1313 1.241 . S
C1310 O1303 1.247 . S
C1310 O1304 1.261 . S
C1311 O1306 1.259 . S
C1311 O1308 1.235 . S
O1312 Co1302 2.021 . S
O1312 C1309 1.238 . S
O1313 Co1307 2.052 . S
O1313 C1309 1.241 . S
O1314 Co1302 2.137 . S
O1314 C1305 1.247 . S
O1315 Co1302 2.244 . S
O1315 C1305 1.272 . S
O1315 Co1307 2.135 . S
Co1316 O1317 2.216 . S
Co1316 O1318 2.091 . S
Co1316 O1320 2.004 . S
Co1316 O1326 2.021 . S
Co1316 O1328 2.137 . S
Co1316 O1329 2.244 . S
O1317 Co1316 2.216 . S
O1317 C1324 1.247 . S
O1318 Co1316 2.091 . S
O1318 C1324 1.261 . S
C1319 O1328 1.247 . S
C1319 O1329 1.272 . S
O1320 Co1316 2.004 . S
O1320 C1325 1.259 . S
Co1321 O1322 2.061 . S
Co1321 O1327 2.052 . S
Co1321 O1329 2.135 . S
O1322 Co1321 2.061 . S
O1322 C1325 1.235 . S
C1323 O1326 1.238 . S
C1323 O1327 1.241 . S
C1324 O1317 1.247 . S
C1324 O1318 1.261 . S
C1325 O1320 1.259 . S
C1325 O1322 1.235 . S
O1326 Co1316 2.021 . S
O1326 C1323 1.238 . S
O1327 Co1321 2.052 . S
O1327 C1323 1.241 . S
O1328 Co1316 2.137 . S
O1328 C1319 1.247 . S
O1329 Co1316 2.244 . S
O1329 C1319 1.272 . S
O1329 Co1321 2.135 . S
Co1330 O1331 2.216 . S
Co1330 O1332 2.091 . S
Co1330 O1334 2.004 . S
Co1330 O1340 2.021 . S
Co1330 O1342 2.137 . S
Co1330 O1343 2.244 . S
O1331 Co1330 2.216 . S
O1331 C1338 1.247 . S
O1332 Co1330 2.091 . S
O1332 C1338 1.261 . S
C1333 O1342 1.247 . S
C1333 O1343 1.272 . S
O1334 Co1330 2.004 . S
O1334 C1339 1.259 . S
Co1335 O1336 2.061 . S
Co1335 O1341 2.052 . S
Co1335 O1343 2.135 . S
O1336 Co1335 2.061 . S
O1336 C1339 1.235 . S
C1337 O1340 1.238 . S
C1337 O1341 1.241 . S
C1338 O1331 1.247 . S
C1338 O1332 1.261 . S
C1339 O1334 1.259 . S
C1339 O1336 1.235 . S
O1340 Co1330 2.021 . S
O1340 C1337 1.238 . S
O1341 Co1335 2.052 . S
O1341 C1337 1.241 . S
O1342 Co1330 2.137 . S
O1342 C1333 1.247 . S
O1343 Co1330 2.244 . S
O1343 C1333 1.272 . S
O1343 Co1335 2.135 . S
H1344 C1352 0.950 . S
H1345 C1357 0.950 . S
H1346 C1354 0.950 . S
H1347 C1356 0.950 . S
H1348 C1358 0.950 . S
H1349 C1360 0.950 . S
H1350 C1362 0.950 . S
H1351 C1363 0.950 . S
C1352 H1344 0.950 . S
C1352 C1353 1.386 . S
C1352 C1354 1.391 . S
C1353 C1352 1.386 . S
C1353 C1357 1.393 . S
C1354 H1346 0.950 . S
C1354 C1352 1.391 . S
C1354 C1355 1.400 . S
C1355 C1354 1.400 . S
C1355 C1356 1.398 . S
C1355 C1361 1.491 . S
C1356 H1347 0.950 . S
C1356 C1355 1.398 . S
C1356 C1357 1.391 . S
C1357 H1345 0.950 . S
C1357 C1353 1.393 . S
C1357 C1356 1.391 . S
C1358 H1348 0.950 . S
C1358 C1359 1.386 . S
C1358 C1360 1.391 . S
C1359 C1358 1.386 . S
C1359 C1363 1.393 . S
C1360 H1349 0.950 . S
C1360 C1358 1.391 . S
C1360 C1361 1.400 . S
C1361 C1355 1.491 . S
C1361 C1360 1.400 . S
C1361 C1362 1.398 . S
C1362 H1350 0.950 . S
C1362 C1361 1.398 . S
C1362 C1363 1.391 . S
C1363 H1351 0.950 . S
C1363 C1359 1.393 . S
C1363 C1362 1.391 . S
H1364 C1372 0.950 . S
H1365 C1377 0.950 . S
H1366 C1374 0.950 . S
H1367 C1376 0.950 . S
H1368 C1378 0.950 . S
H1369 C1380 0.950 . S
H1370 C1382 0.950 . S
H1371 C1383 0.950 . S
C1372 H1364 0.950 . S
C1372 C1373 1.386 . S
C1372 C1374 1.391 . S
C1373 C1372 1.386 . S
C1373 C1377 1.393 1_655 S
C1374 H1366 0.950 . S
C1374 C1372 1.391 . S
C1374 C1375 1.400 1_655 S
C1375 C1374 1.400 1_455 S
C1375 C1376 1.398 . S
C1375 C1381 1.491 . S
C1376 H1367 0.950 . S
C1376 C1375 1.398 . S
C1376 C1377 1.391 . S
C1377 H1365 0.950 . S
C1377 C1373 1.393 1_455 S
C1377 C1376 1.391 . S
C1378 H1368 0.950 . S
C1378 C1379 1.386 . S
C1378 C1380 1.391 . S
C1379 C1378 1.386 . S
C1379 C1383 1.393 . S
C1380 H1369 0.950 . S
C1380 C1378 1.391 . S
C1380 C1381 1.400 . S
C1381 C1375 1.491 . S
C1381 C1380 1.400 . S
C1381 C1382 1.398 . S
C1382 H1370 0.950 . S
C1382 C1381 1.398 . S
C1382 C1383 1.391 . S
C1383 H1371 0.950 . S
C1383 C1379 1.393 . S
C1383 C1382 1.391 . S
H1384 C1392 0.950 . S
H1385 C1397 0.950 . S
H1386 C1394 0.950 . S
H1387 C1396 0.950 . S
H1388 C1398 0.950 . S
H1389 C1400 0.950 . S
H1390 C1402 0.950 . S
H1391 C1403 0.950 . S
C1392 H1384 0.950 . S
C1392 C1393 1.386 . S
C1392 C1394 1.391 . S
C1393 C1392 1.386 . S
C1393 C1397 1.393 . S
C1394 H1386 0.950 . S
C1394 C1392 1.391 . S
C1394 C1395 1.400 . S
C1395 C1394 1.400 . S
C1395 C1396 1.398 . S
C1395 C1401 1.491 . S
C1396 H1387 0.950 . S
C1396 C1395 1.398 . S
C1396 C1397 1.391 . S
C1397 H1385 0.950 . S
C1397 C1393 1.393 . S
C1397 C1396 1.391 . S
C1398 H1388 0.950 . S
C1398 C1399 1.386 . S
C1398 C1400 1.391 . S
C1399 C1398 1.386 . S
C1399 C1403 1.393 . S
C1400 H1389 0.950 . S
C1400 C1398 1.391 . S
C1400 C1401 1.400 . S
C1401 C1395 1.491 . S
C1401 C1400 1.400 . S
C1401 C1402 1.398 . S
C1402 H1390 0.950 . S
C1402 C1401 1.398 . S
C1402 C1403 1.391 . S
C1403 H1391 0.950 . S
C1403 C1399 1.393 . S
C1403 C1402 1.391 . S
H1404 C1412 0.950 . S
H1405 C1417 0.950 . S
H1406 C1414 0.950 . S
H1407 C1416 0.950 . S
H1408 C1418 0.950 . S
H1409 C1420 0.950 . S
H1410 C1422 0.950 . S
H1411 C1423 0.950 . S
C1412 H1404 0.950 . S
C1412 C1413 1.386 . S
C1412 C1414 1.391 . S
C1413 C1412 1.386 . S
C1413 C1417 1.393 . S
C1414 H1406 0.950 . S
C1414 C1412 1.391 . S
C1414 C1415 1.400 . S
C1415 C1414 1.400 . S
C1415 C1416 1.398 . S
C1415 C1421 1.491 . S
C1416 H1407 0.950 . S
C1416 C1415 1.398 . S
C1416 C1417 1.391 . S
C1417 H1405 0.950 . S
C1417 C1413 1.393 . S
C1417 C1416 1.391 . S
C1418 H1408 0.950 . S
C1418 C1419 1.386 . S
C1418 C1420 1.391 . S
C1419 C1418 1.386 . S
C1419 C1423 1.393 . S
C1420 H1409 0.950 . S
C1420 C1418 1.391 . S
C1420 C1421 1.400 . S
C1421 C1415 1.491 . S
C1421 C1420 1.400 . S
C1421 C1422 1.398 . S
C1422 H1410 0.950 . S
C1422 C1421 1.398 . S
C1422 C1423 1.391 . S
C1423 H1411 0.950 . S
C1423 C1419 1.393 . S
C1423 C1422 1.391 . S
H1424 C1432 0.950 . S
H1425 C1437 0.950 . S
H1426 C1434 0.950 . S
H1427 C1436 0.950 . S
H1428 C1438 0.950 . S
H1429 C1440 0.950 . S
H1430 C1442 0.950 . S
H1431 C1443 0.950 . S
C1432 H1424 0.950 . S
C1432 C1433 1.386 . S
C1432 C1434 1.391 . S
C1433 C1432 1.386 . S
C1433 C1437 1.393 . S
C1434 H1426 0.950 . S
C1434 C1432 1.391 . S
C1434 C1435 1.400 . S
C1435 C1434 1.400 . S
C1435 C1436 1.398 . S
C1435 C1441 1.491 . S
C1436 H1427 0.950 . S
C1436 C1435 1.398 . S
C1436 C1437 1.391 . S
C1437 H1425 0.950 . S
C1437 C1433 1.393 . S
C1437 C1436 1.391 . S
C1438 H1428 0.950 . S
C1438 C1439 1.386 . S
C1438 C1440 1.391 . S
C1439 C1438 1.386 . S
C1439 C1443 1.393 . S
C1440 H1429 0.950 . S
C1440 C1438 1.391 . S
C1440 C1441 1.400 . S
C1441 C1435 1.491 . S
C1441 C1440 1.400 . S
C1441 C1442 1.398 . S
C1442 H1430 0.950 . S
C1442 C1441 1.398 . S
C1442 C1443 1.391 . S
C1443 H1431 0.950 . S
C1443 C1439 1.393 . S
C1443 C1442 1.391 . S
H1444 C1452 0.950 . S
H1445 C1457 0.950 . S
H1446 C1454 0.950 . S
H1447 C1456 0.950 . S
H1448 C1458 0.950 . S
H1449 C1460 0.950 . S
H1450 C1462 0.950 . S
H1451 C1463 0.950 . S
C1452 H1444 0.950 . S
C1452 C1453 1.386 . S
C1452 C1454 1.391 . S
C1453 C1452 1.386 . S
C1453 C1457 1.393 . S
C1454 H1446 0.950 . S
C1454 C1452 1.391 . S
C1454 C1455 1.400 . S
C1455 C1454 1.400 . S
C1455 C1456 1.398 . S
C1455 C1461 1.491 . S
C1456 H1447 0.950 . S
C1456 C1455 1.398 . S
C1456 C1457 1.391 . S
C1457 H1445 0.950 . S
C1457 C1453 1.393 . S
C1457 C1456 1.391 . S
C1458 H1448 0.950 . S
C1458 C1459 1.386 . S
C1458 C1460 1.391 . S
C1459 C1458 1.386 . S
C1459 C1463 1.393 . S
C1460 H1449 0.950 . S
C1460 C1458 1.391 . S
C1460 C1461 1.400 . S
C1461 C1455 1.491 . S
C1461 C1460 1.400 . S
C1461 C1462 1.398 . S
C1462 H1450 0.950 . S
C1462 C1461 1.398 . S
C1462 C1463 1.391 . S
C1463 H1451 0.950 . S
C1463 C1459 1.393 . S
C1463 C1462 1.391 . S
H1464 C1472 0.950 . S
H1465 C1477 0.950 . S
H1466 C1474 0.950 . S
H1467 C1476 0.950 . S
H1468 C1478 0.950 . S
H1469 C1480 0.950 . S
H1470 C1482 0.950 . S
H1471 C1483 0.950 . S
C1472 H1464 0.950 . S
C1472 C1473 1.386 . S
C1472 C1474 1.391 . S
C1473 C1472 1.386 . S
C1473 C1477 1.393 . S
C1474 H1466 0.950 . S
C1474 C1472 1.391 . S
C1474 C1475 1.400 . S
C1475 C1474 1.400 . S
C1475 C1476 1.398 . S
C1475 C1481 1.491 . S
C1476 H1467 0.950 . S
C1476 C1475 1.398 . S
C1476 C1477 1.391 . S
C1477 H1465 0.950 . S
C1477 C1473 1.393 . S
C1477 C1476 1.391 . S
C1478 H1468 0.950 . S
C1478 C1479 1.386 . S
C1478 C1480 1.391 . S
C1479 C1478 1.386 . S
C1479 C1483 1.393 . S
C1480 H1469 0.950 . S
C1480 C1478 1.391 . S
C1480 C1481 1.400 . S
C1481 C1475 1.491 . S
C1481 C1480 1.400 . S
C1481 C1482 1.398 . S
C1482 H1470 0.950 . S
C1482 C1481 1.398 . S
C1482 C1483 1.391 . S
C1483 H1471 0.950 . S
C1483 C1479 1.393 . S
C1483 C1482 1.391 . S
H1484 C1492 0.950 . S
H1485 C1497 0.950 . S
H1486 C1494 0.950 . S
H1487 C1496 0.950 . S
H1488 C1498 0.950 . S
H1489 C1500 0.950 . S
H1490 C1502 0.950 . S
H1491 C1503 0.950 . S
C1492 H1484 0.950 . S
C1492 C1493 1.386 . S
C1492 C1494 1.391 . S
C1493 C1492 1.386 . S
C1493 C1497 1.393 . S
C1494 H1486 0.950 . S
C1494 C1492 1.391 . S
C1494 C1495 1.400 . S
C1495 C1494 1.400 . S
C1495 C1496 1.398 . S
C1495 C1501 1.491 . S
C1496 H1487 0.950 . S
C1496 C1495 1.398 . S
C1496 C1497 1.391 . S
C1497 H1485 0.950 . S
C1497 C1493 1.393 . S
C1497 C1496 1.391 . S
C1498 H1488 0.950 . S
C1498 C1499 1.386 1_455 S
C1498 C1500 1.391 . S
C1499 C1498 1.386 1_655 S
C1499 C1503 1.393 . S
C1500 H1489 0.950 . S
C1500 C1498 1.391 . S
C1500 C1501 1.400 . S
C1501 C1495 1.491 . S
C1501 C1500 1.400 . S
C1501 C1502 1.398 1_455 S
C1502 H1490 0.950 . S
C1502 C1501 1.398 1_655 S
C1502 C1503 1.391 . S
C1503 H1491 0.950 . S
C1503 C1499 1.393 . S
C1503 C1502 1.391 . S
H1504 C1512 0.950 . S
H1505 C1517 0.950 . S
H1506 C1514 0.950 . S
H1507 C1516 0.950 . S
H1508 C1518 0.950 . S
H1509 C1520 0.950 . S
H1510 C1522 0.950 . S
H1511 C1523 0.950 . S
C1512 H1504 0.950 . S
C1512 C1513 1.386 . S
C1512 C1514 1.391 . S
C1513 C1512 1.386 . S
C1513 C1517 1.393 . S
C1514 H1506 0.950 . S
C1514 C1512 1.391 . S
C1514 C1515 1.400 . S
C1515 C1514 1.400 . S
C1515 C1516 1.398 . S
C1515 C1521 1.491 . S
C1516 H1507 0.950 . S
C1516 C1515 1.398 . S
C1516 C1517 1.391 . S
C1517 H1505 0.950 . S
C1517 C1513 1.393 . S
C1517 C1516 1.391 . S
C1518 H1508 0.950 . S
C1518 C1519 1.386 . S
C1518 C1520 1.391 . S
C1519 C1518 1.386 . S
C1519 C1523 1.393 . S
C1520 H1509 0.950 . S
C1520 C1518 1.391 . S
C1520 C1521 1.400 . S
C1521 C1515 1.491 . S
C1521 C1520 1.400 . S
C1521 C1522 1.398 . S
C1522 H1510 0.950 . S
C1522 C1521 1.398 . S
C1522 C1523 1.391 . S
C1523 H1511 0.950 . S
C1523 C1519 1.393 . S
C1523 C1522 1.391 . S
H1524 C1532 0.950 . S
H1525 C1537 0.950 . S
H1526 C1534 0.950 . S
H1527 C1536 0.950 . S
H1528 C1538 0.950 . S
H1529 C1540 0.950 . S
H1530 C1542 0.950 . S
H1531 C1543 0.950 . S
C1532 H1524 0.950 . S
C1532 C1533 1.386 . S
C1532 C1534 1.391 . S
C1533 C1532 1.386 . S
C1533 C1537 1.393 . S
C1534 H1526 0.950 . S
C1534 C1532 1.391 . S
C1534 C1535 1.400 . S
C1535 C1534 1.400 . S
C1535 C1536 1.398 . S
C1535 C1541 1.491 . S
C1536 H1527 0.950 . S
C1536 C1535 1.398 . S
C1536 C1537 1.391 . S
C1537 H1525 0.950 . S
C1537 C1533 1.393 . S
C1537 C1536 1.391 . S
C1538 H1528 0.950 . S
C1538 C1539 1.386 . S
C1538 C1540 1.391 . S
C1539 C1538 1.386 . S
C1539 C1543 1.393 . S
C1540 H1529 0.950 . S
C1540 C1538 1.391 . S
C1540 C1541 1.400 . S
C1541 C1535 1.491 . S
C1541 C1540 1.400 . S
C1541 C1542 1.398 . S
C1542 H1530 0.950 . S
C1542 C1541 1.398 . S
C1542 C1543 1.391 . S
C1543 H1531 0.950 . S
C1543 C1539 1.393 . S
C1543 C1542 1.391 . S
H1544 C1552 0.950 . S
H1545 C1557 0.950 . S
H1546 C1554 0.950 . S
H1547 C1556 0.950 . S
H1548 C1558 0.950 . S
H1549 C1560 0.950 . S
H1550 C1562 0.950 . S
H1551 C1563 0.950 . S
C1552 H1544 0.950 . S
C1552 C1553 1.386 . S
C1552 C1554 1.391 . S
C1553 C1552 1.386 . S
C1553 C1557 1.393 . S
C1554 H1546 0.950 . S
C1554 C1552 1.391 . S
C1554 C1555 1.400 . S
C1555 C1554 1.400 . S
C1555 C1556 1.398 . S
C1555 C1561 1.491 . S
C1556 H1547 0.950 . S
C1556 C1555 1.398 . S
C1556 C1557 1.391 . S
C1557 H1545 0.950 . S
C1557 C1553 1.393 . S
C1557 C1556 1.391 . S
C1558 H1548 0.950 . S
C1558 C1559 1.386 . S
C1558 C1560 1.391 . S
C1559 C1558 1.386 . S
C1559 C1563 1.393 . S
C1560 H1549 0.950 . S
C1560 C1558 1.391 . S
C1560 C1561 1.400 . S
C1561 C1555 1.491 . S
C1561 C1560 1.400 . S
C1561 C1562 1.398 . S
C1562 H1550 0.950 . S
C1562 C1561 1.398 . S
C1562 C1563 1.391 . S
C1563 H1551 0.950 . S
C1563 C1559 1.393 . S
C1563 C1562 1.391 . S
H1564 C1572 0.950 . S
H1565 C1577 0.950 . S
H1566 C1574 0.950 . S
H1567 C1576 0.950 . S
H1568 C1578 0.950 1_554 S
H1569 C1580 0.950 . S
H1570 C1582 0.950 . S
H1571 C1583 0.950 . S
C1572 H1564 0.950 . S
C1572 C1573 1.386 . S
C1572 C1574 1.391 . S
C1573 C1572 1.386 . S
C1573 C1577 1.393 . S
C1574 H1566 0.950 . S
C1574 C1572 1.391 . S
C1574 C1575 1.400 . S
C1575 C1574 1.400 . S
C1575 C1576 1.398 . S
C1575 C1581 1.491 . S
C1576 H1567 0.950 . S
C1576 C1575 1.398 . S
C1576 C1577 1.391 . S
C1577 H1565 0.950 . S
C1577 C1573 1.393 . S
C1577 C1576 1.391 . S
C1578 H1568 0.950 1_556 S
C1578 C1579 1.386 1_556 S
C1578 C1580 1.391 . S
C1579 C1578 1.386 1_554 S
C1579 C1583 1.393 . S
C1580 H1569 0.950 . S
C1580 C1578 1.391 . S
C1580 C1581 1.400 . S
C1581 C1575 1.491 . S
C1581 C1580 1.400 . S
C1581 C1582 1.398 . S
C1582 H1570 0.950 . S
C1582 C1581 1.398 . S
C1582 C1583 1.391 1_556 S
C1583 H1571 0.950 . S
C1583 C1579 1.393 . S
C1583 C1582 1.391 1_554 S
H1584 C1592 0.950 . S
H1585 C1597 0.950 . S
H1586 C1594 0.950 . S
H1587 C1596 0.950 . S
H1588 C1598 0.950 . S
H1589 C1600 0.950 . S
H1590 C1602 0.950 . S
H1591 C1603 0.950 . S
C1592 H1584 0.950 . S
C1592 C1593 1.386 . S
C1592 C1594 1.391 . S
C1593 C1592 1.386 . S
C1593 C1597 1.393 . S
C1594 H1586 0.950 . S
C1594 C1592 1.391 . S
C1594 C1595 1.400 . S
C1595 C1594 1.400 . S
C1595 C1596 1.398 . S
C1595 C1601 1.491 . S
C1596 H1587 0.950 . S
C1596 C1595 1.398 . S
C1596 C1597 1.391 . S
C1597 H1585 0.950 . S
C1597 C1593 1.393 . S
C1597 C1596 1.391 . S
C1598 H1588 0.950 . S
C1598 C1599 1.386 . S
C1598 C1600 1.391 . S
C1599 C1598 1.386 . S
C1599 C1603 1.393 . S
C1600 H1589 0.950 . S
C1600 C1598 1.391 . S
C1600 C1601 1.400 . S
C1601 C1595 1.491 . S
C1601 C1600 1.400 . S
C1601 C1602 1.398 . S
C1602 H1590 0.950 . S
C1602 C1601 1.398 . S
C1602 C1603 1.391 . S
C1603 H1591 0.950 . S
C1603 C1599 1.393 . S
C1603 C1602 1.391 . S
H1604 C1612 0.950 . S
H1605 C1617 0.950 . S
H1606 C1614 0.950 . S
H1607 C1616 0.950 . S
H1608 C1618 0.950 . S
H1609 C1620 0.950 . S
H1610 C1622 0.950 . S
H1611 C1623 0.950 . S
C1612 H1604 0.950 . S
C1612 C1613 1.386 . S
C1612 C1614 1.391 . S
C1613 C1612 1.386 . S
C1613 C1617 1.393 . S
C1614 H1606 0.950 . S
C1614 C1612 1.391 . S
C1614 C1615 1.400 . S
C1615 C1614 1.400 . S
C1615 C1616 1.398 . S
C1615 C1621 1.491 . S
C1616 H1607 0.950 . S
C1616 C1615 1.398 . S
C1616 C1617 1.391 . S
C1617 H1605 0.950 . S
C1617 C1613 1.393 . S
C1617 C1616 1.391 . S
C1618 H1608 0.950 . S
C1618 C1619 1.386 . S
C1618 C1620 1.391 . S
C1619 C1618 1.386 . S
C1619 C1623 1.393 . S
C1620 H1609 0.950 . S
C1620 C1618 1.391 . S
C1620 C1621 1.400 . S
C1621 C1615 1.491 . S
C1621 C1620 1.400 . S
C1621 C1622 1.398 . S
C1622 H1610 0.950 . S
C1622 C1621 1.398 . S
C1622 C1623 1.391 . S
C1623 H1611 0.950 . S
C1623 C1619 1.393 . S
C1623 C1622 1.391 . S
H1624 C1632 0.950 . S
H1625 C1637 0.950 . S
H1626 C1634 0.950 . S
H1627 C1636 0.950 . S
H1628 C1638 0.950 . S
H1629 C1640 0.950 . S
H1630 C1642 0.950 . S
H1631 C1643 0.950 . S
C1632 H1624 0.950 . S
C1632 C1633 1.386 . S
C1632 C1634 1.391 . S
C1633 C1632 1.386 . S
C1633 C1637 1.393 . S
C1634 H1626 0.950 . S
C1634 C1632 1.391 . S
C1634 C1635 1.400 . S
C1635 C1634 1.400 . S
C1635 C1636 1.398 . S
C1635 C1641 1.491 . S
C1636 H1627 0.950 . S
C1636 C1635 1.398 . S
C1636 C1637 1.391 . S
C1637 H1625 0.950 . S
C1637 C1633 1.393 . S
C1637 C1636 1.391 . S
C1638 H1628 0.950 . S
C1638 C1639 1.386 . S
C1638 C1640 1.391 . S
C1639 C1638 1.386 . S
C1639 C1643 1.393 . S
C1640 H1629 0.950 . S
C1640 C1638 1.391 . S
C1640 C1641 1.400 . S
C1641 C1635 1.491 . S
C1641 C1640 1.400 . S
C1641 C1642 1.398 . S
C1642 H1630 0.950 . S
C1642 C1641 1.398 . S
C1642 C1643 1.391 . S
C1643 H1631 0.950 . S
C1643 C1639 1.393 . S
C1643 C1642 1.391 . S
H1644 C1652 0.950 . S
H1645 C1657 0.950 . S
H1646 C1654 0.950 . S
H1647 C1656 0.950 . S
H1648 C1658 0.950 . S
H1649 C1660 0.950 . S
H1650 C1662 0.948 1_556 S
H1651 C1663 0.950 . S
C1652 H1644 0.950 . S
C1652 C1653 1.386 . S
C1652 C1654 1.391 . S
C1653 C1652 1.386 . S
C1653 C1657 1.393 . S
C1654 H1646 0.950 . S
C1654 C1652 1.391 . S
C1654 C1655 1.400 . S
C1655 C1654 1.400 . S
C1655 C1656 1.398 . S
C1655 C1661 1.491 . S
C1656 H1647 0.950 . S
C1656 C1655 1.398 . S
C1656 C1657 1.391 . S
C1657 H1645 0.950 . S
C1657 C1653 1.393 . S
C1657 C1656 1.391 . S
C1658 H1648 0.950 . S
C1658 C1659 1.386 1_554 S
C1658 C1660 1.391 . S
C1659 C1658 1.386 1_556 S
C1659 C1663 1.393 . S
C1660 H1649 0.950 . S
C1660 C1658 1.391 . S
C1660 C1661 1.400 . S
C1661 C1655 1.491 . S
C1661 C1660 1.400 . S
C1661 C1662 1.398 . S
C1662 H1650 0.948 1_554 S
C1662 C1661 1.398 . S
C1662 C1663 1.391 1_554 S
C1663 H1651 0.950 . S
C1663 C1659 1.393 . S
C1663 C1662 1.391 1_556 S
H1664 C1672 0.950 . S
H1665 C1677 0.950 . S
H1666 C1674 0.950 . S
H1667 C1676 0.950 . S
H1668 C1678 0.950 . S
H1669 C1680 0.950 . S
H1670 C1682 0.950 . S
H1671 C1683 0.950 . S
C1672 H1664 0.950 . S
C1672 C1673 1.386 . S
C1672 C1674 1.391 . S
C1673 C1672 1.386 . S
C1673 C1677 1.393 . S
C1674 H1666 0.950 . S
C1674 C1672 1.391 . S
C1674 C1675 1.400 . S
C1675 C1674 1.400 . S
C1675 C1676 1.398 . S
C1675 C1681 1.491 . S
C1676 H1667 0.950 . S
C1676 C1675 1.398 . S
C1676 C1677 1.391 . S
C1677 H1665 0.950 . S
C1677 C1673 1.393 . S
C1677 C1676 1.391 . S
C1678 H1668 0.950 . S
C1678 C1679 1.386 . S
C1678 C1680 1.391 . S
C1679 C1678 1.386 . S
C1679 C1683 1.393 . S
C1680 H1669 0.950 . S
C1680 C1678 1.391 . S
C1680 C1681 1.400 . S
C1681 C1675 1.491 . S
C1681 C1680 1.400 . S
C1681 C1682 1.398 . S
C1682 H1670 0.950 . S
C1682 C1681 1.398 . S
C1682 C1683 1.391 . S
C1683 H1671 0.950 . S
C1683 C1679 1.393 . S
C1683 C1682 1.391 . S
H1684 C1692 0.950 . S
H1685 C1697 0.950 . S
H1686 C1694 0.950 . S
H1687 C1696 0.950 . S
H1688 C1698 0.950 . S
H1689 C1700 0.950 . S
H1690 C1702 0.950 . S
H1691 C1703 0.950 . S
C1692 H1684 0.950 . S
C1692 C1693 1.386 . S
C1692 C1694 1.391 . S
C1693 C1692 1.386 . S
C1693 C1697 1.393 . S
C1694 H1686 0.950 . S
C1694 C1692 1.391 . S
C1694 C1695 1.400 . S
C1695 C1694 1.400 . S
C1695 C1696 1.398 . S
C1695 C1701 1.491 . S
C1696 H1687 0.950 . S
C1696 C1695 1.398 . S
C1696 C1697 1.391 . S
C1697 H1685 0.950 . S
C1697 C1693 1.393 . S
C1697 C1696 1.391 . S
C1698 H1688 0.950 . S
C1698 C1699 1.386 . S
C1698 C1700 1.391 . S
C1699 C1698 1.386 . S
C1699 C1703 1.393 . S
C1700 H1689 0.950 . S
C1700 C1698 1.391 . S
C1700 C1701 1.400 . S
C1701 C1695 1.491 . S
C1701 C1700 1.400 . S
C1701 C1702 1.398 . S
C1702 H1690 0.950 . S
C1702 C1701 1.398 . S
C1702 C1703 1.391 . S
C1703 H1691 0.950 . S
C1703 C1699 1.393 . S
C1703 C1702 1.391 . S
H1704 C1712 0.950 . S
H1705 C1717 0.950 . S
H1706 C1714 0.950 . S
H1707 C1716 0.950 . S
H1708 C1718 0.950 . S
H1709 C1720 0.950 . S
H1710 C1722 0.950 . S
H1711 C1723 0.950 . S
C1712 H1704 0.950 . S
C1712 C1713 1.386 . S
C1712 C1714 1.391 . S
C1713 C1712 1.386 . S
C1713 C1717 1.393 . S
C1714 H1706 0.950 . S
C1714 C1712 1.391 . S
C1714 C1715 1.400 . S
C1715 C1714 1.400 . S
C1715 C1716 1.398 . S
C1715 C1721 1.491 . S
C1716 H1707 0.950 . S
C1716 C1715 1.398 . S
C1716 C1717 1.391 . S
C1717 H1705 0.950 . S
C1717 C1713 1.393 . S
C1717 C1716 1.391 . S
C1718 H1708 0.950 . S
C1718 C1719 1.386 . S
C1718 C1720 1.391 . S
C1719 C1718 1.386 . S
C1719 C1723 1.393 . S
C1720 H1709 0.950 . S
C1720 C1718 1.391 . S
C1720 C1721 1.400 . S
C1721 C1715 1.491 . S
C1721 C1720 1.400 . S
C1721 C1722 1.398 . S
C1722 H1710 0.950 . S
C1722 C1721 1.398 . S
C1722 C1723 1.391 . S
C1723 H1711 0.950 . S
C1723 C1719 1.393 . S
C1723 C1722 1.391 . S
H1724 C1732 0.950 . S
H1725 C1737 0.950 . S
H1726 C1734 0.950 . S
H1727 C1736 0.950 . S
H1728 C1738 0.950 . S
H1729 C1740 0.950 . S
H1730 C1742 0.950 . S
H1731 C1743 0.950 . S
C1732 H1724 0.950 . S
C1732 C1733 1.386 . S
C1732 C1734 1.391 . S
C1733 C1732 1.386 . S
C1733 C1737 1.393 . S
C1734 H1726 0.950 . S
C1734 C1732 1.391 . S
C1734 C1735 1.400 . S
C1735 C1734 1.400 . S
C1735 C1736 1.398 . S
C1735 C1741 1.491 . S
C1736 H1727 0.950 . S
C1736 C1735 1.398 . S
C1736 C1737 1.391 . S
C1737 H1725 0.950 . S
C1737 C1733 1.393 . S
C1737 C1736 1.391 . S
C1738 H1728 0.950 . S
C1738 C1739 1.386 . S
C1738 C1740 1.391 . S
C1739 C1738 1.386 . S
C1739 C1743 1.393 . S
C1740 H1729 0.950 . S
C1740 C1738 1.391 . S
C1740 C1741 1.400 . S
C1741 C1735 1.491 . S
C1741 C1740 1.400 . S
C1741 C1742 1.398 . S
C1742 H1730 0.950 . S
C1742 C1741 1.398 . S
C1742 C1743 1.391 . S
C1743 H1731 0.950 . S
C1743 C1739 1.393 . S
C1743 C1742 1.391 . S
H1744 C1752 0.950 . S
H1745 C1757 0.950 . S
H1746 C1754 0.950 . S
H1747 C1756 0.950 . S
H1748 C1758 0.950 . S
H1749 C1760 0.950 . S
H1750 C1762 0.950 . S
H1751 C1763 0.950 . S
C1752 H1744 0.950 . S
C1752 C1753 1.386 . S
C1752 C1754 1.391 . S
C1753 C1752 1.386 . S
C1753 C1757 1.393 . S
C1754 H1746 0.950 . S
C1754 C1752 1.391 . S
C1754 C1755 1.400 . S
C1755 C1754 1.400 . S
C1755 C1756 1.398 . S
C1755 C1761 1.491 . S
C1756 H1747 0.950 . S
C1756 C1755 1.398 . S
C1756 C1757 1.391 . S
C1757 H1745 0.950 . S
C1757 C1753 1.393 . S
C1757 C1756 1.391 . S
C1758 H1748 0.950 . S
C1758 C1759 1.386 . S
C1758 C1760 1.391 . S
C1759 C1758 1.386 . S
C1759 C1763 1.393 . S
C1760 H1749 0.950 . S
C1760 C1758 1.391 . S
C1760 C1761 1.400 1_565 S
C1761 C1755 1.491 . S
C1761 C1760 1.400 1_545 S
C1761 C1762 1.398 . S
C1762 H1750 0.950 . S
C1762 C1761 1.398 . S
C1762 C1763 1.391 1_545 S
C1763 H1751 0.950 . S
C1763 C1759 1.393 . S
C1763 C1762 1.391 1_565 S
H1764 C1772 0.950 . S
H1765 C1777 0.950 . S
H1766 C1774 0.950 . S
H1767 C1776 0.950 . S
H1768 C1778 0.950 . S
H1769 C1780 0.950 . S
H1770 C1782 0.950 . S
H1771 C1783 0.950 . S
C1772 H1764 0.950 . S
C1772 C1773 1.386 . S
C1772 C1774 1.391 . S
C1773 C1772 1.386 . S
C1773 C1777 1.393 . S
C1774 H1766 0.950 . S
C1774 C1772 1.391 . S
C1774 C1775 1.400 . S
C1775 C1774 1.400 . S
C1775 C1776 1.398 . S
C1775 C1781 1.491 . S
C1776 H1767 0.950 . S
C1776 C1775 1.398 . S
C1776 C1777 1.391 . S
C1777 H1765 0.950 . S
C1777 C1773 1.393 . S
C1777 C1776 1.391 . S
C1778 H1768 0.950 . S
C1778 C1779 1.386 . S
C1778 C1780 1.391 . S
C1779 C1778 1.386 . S
C1779 C1783 1.393 . S
C1780 H1769 0.950 . S
C1780 C1778 1.391 . S
C1780 C1781 1.400 . S
C1781 C1775 1.491 . S
C1781 C1780 1.400 . S
C1781 C1782 1.398 . S
C1782 H1770 0.950 . S
C1782 C1781 1.398 . S
C1782 C1783 1.391 . S
C1783 H1771 0.950 . S
C1783 C1779 1.393 . S
C1783 C1782 1.391 . S
H1784 C1792 0.950 . S
H1785 C1797 0.950 . S
H1786 C1794 0.950 . S
H1787 C1796 0.950 . S
H1788 C1798 0.950 . S
H1789 C1800 0.950 . S
H1790 C1802 0.950 . S
H1791 C1803 0.950 . S
C1792 H1784 0.950 . S
C1792 C1793 1.386 . S
C1792 C1794 1.391 . S
C1793 C1792 1.386 . S
C1793 C1797 1.393 . S
C1794 H1786 0.950 . S
C1794 C1792 1.391 . S
C1794 C1795 1.400 . S
C1795 C1794 1.400 . S
C1795 C1796 1.398 . S
C1795 C1801 1.491 . S
C1796 H1787 0.950 . S
C1796 C1795 1.398 . S
C1796 C1797 1.391 . S
C1797 H1785 0.950 . S
C1797 C1793 1.393 . S
C1797 C1796 1.391 . S
C1798 H1788 0.950 . S
C1798 C1799 1.386 . S
C1798 C1800 1.391 . S
C1799 C1798 1.386 . S
C1799 C1803 1.393 . S
C1800 H1789 0.950 . S
C1800 C1798 1.391 . S
C1800 C1801 1.400 . S
C1801 C1795 1.491 . S
C1801 C1800 1.400 . S
C1801 C1802 1.398 . S
C1802 H1790 0.950 . S
C1802 C1801 1.398 . S
C1802 C1803 1.391 . S
C1803 H1791 0.950 . S
C1803 C1799 1.393 . S
C1803 C1802 1.391 . S
H1804 C1812 0.950 . S
H1805 C1817 0.950 . S
H1806 C1814 0.950 . S
H1807 C1816 0.950 . S
H1808 C1818 0.950 . S
H1809 C1820 0.950 . S
H1810 C1822 0.950 . S
H1811 C1823 0.950 . S
C1812 H1804 0.950 . S
C1812 C1813 1.386 . S
C1812 C1814 1.391 . S
C1813 C1812 1.386 . S
C1813 C1817 1.393 . S
C1814 H1806 0.950 . S
C1814 C1812 1.391 . S
C1814 C1815 1.400 . S
C1815 C1814 1.400 . S
C1815 C1816 1.398 . S
C1815 C1821 1.491 . S
C1816 H1807 0.950 . S
C1816 C1815 1.398 . S
C1816 C1817 1.391 . S
C1817 H1805 0.950 . S
C1817 C1813 1.393 . S
C1817 C1816 1.391 . S
C1818 H1808 0.950 . S
C1818 C1819 1.386 . S
C1818 C1820 1.391 . S
C1819 C1818 1.386 . S
C1819 C1823 1.393 . S
C1820 H1809 0.950 . S
C1820 C1818 1.391 . S
C1820 C1821 1.400 . S
C1821 C1815 1.491 . S
C1821 C1820 1.400 . S
C1821 C1822 1.398 . S
C1822 H1810 0.950 . S
C1822 C1821 1.398 . S
C1822 C1823 1.391 . S
C1823 H1811 0.950 . S
C1823 C1819 1.393 . S
C1823 C1822 1.391 . S
H1824 C1832 0.950 . S
H1825 C1837 0.950 . S
H1826 C1834 0.950 . S
H1827 C1836 0.950 . S
H1828 C1838 0.950 . S
H1829 C1840 0.950 . S
H1830 C1842 0.950 . S
H1831 C1843 0.950 . S
C1832 H1824 0.950 . S
C1832 C1833 1.386 . S
C1832 C1834 1.391 . S
C1833 C1832 1.386 . S
C1833 C1837 1.393 . S
C1834 H1826 0.950 . S
C1834 C1832 1.391 . S
C1834 C1835 1.400 . S
C1835 C1834 1.400 . S
C1835 C1836 1.398 . S
C1835 C1841 1.491 . S
C1836 H1827 0.950 . S
C1836 C1835 1.398 . S
C1836 C1837 1.391 . S
C1837 H1825 0.950 . S
C1837 C1833 1.393 . S
C1837 C1836 1.391 . S
C1838 H1828 0.950 . S
C1838 C1839 1.386 . S
C1838 C1840 1.391 . S
C1839 C1838 1.386 . S
C1839 C1843 1.393 . S
C1840 H1829 0.950 . S
C1840 C1838 1.391 . S
C1840 C1841 1.400 . S
C1841 C1835 1.491 . S
C1841 C1840 1.400 . S
C1841 C1842 1.398 . S
C1842 H1830 0.950 . S
C1842 C1841 1.398 . S
C1842 C1843 1.391 . S
C1843 H1831 0.950 . S
C1843 C1839 1.393 . S
C1843 C1842 1.391 . S
H1844 C1852 0.950 . S
H1845 C1857 0.950 . S
H1846 C1854 0.950 . S
H1847 C1856 0.952 . S
H1848 C1858 0.950 . S
H1849 C1860 0.950 . S
H1850 C1862 0.950 . S
H1851 C1863 0.950 . S
C1852 H1844 0.950 . S
C1852 C1853 1.386 1_655 S
C1852 C1854 1.391 . S
C1853 C1852 1.386 1_455 S
C1853 C1857 1.393 . S
C1854 H1846 0.950 . S
C1854 C1852 1.391 . S
C1854 C1855 1.400 . S
C1855 C1854 1.400 . S
C1855 C1856 1.386 1_655 S
C1855 C1861 1.491 . S
C1856 H1847 0.952 . S
C1856 C1855 1.386 1_455 S
C1856 C1857 1.401 . S
C1857 H1845 0.950 . S
C1857 C1853 1.393 . S
C1857 C1856 1.401 . S
C1858 H1848 0.950 . S
C1858 C1859 1.386 . S
C1858 C1860 1.391 . S
C1859 C1858 1.386 . S
C1859 C1863 1.393 . S
C1860 H1849 0.950 . S
C1860 C1858 1.391 . S
C1860 C1861 1.400 . S
C1861 C1855 1.491 . S
C1861 C1860 1.400 . S
C1861 C1862 1.398 . S
C1862 H1850 0.950 . S
C1862 C1861 1.398 . S
C1862 C1863 1.391 . S
C1863 H1851 0.950 . S
C1863 C1859 1.393 . S
C1863 C1862 1.391 . S
H1864 C1872 0.950 . S
H1865 C1877 0.950 . S
H1866 C1874 0.950 . S
H1867 C1876 0.950 . S
H1868 C1878 0.950 . S
H1869 C1880 0.950 . S
H1870 C1882 0.950 . S
H1871 C1883 0.950 . S
C1872 H1864 0.950 . S
C1872 C1873 1.386 . S
C1872 C1874 1.391 . S
C1873 C1872 1.386 . S
C1873 C1877 1.393 . S
C1874 H1866 0.950 . S
C1874 C1872 1.391 . S
C1874 C1875 1.400 . S
C1875 C1874 1.400 . S
C1875 C1876 1.398 . S
C1875 C1881 1.491 . S
C1876 H1867 0.950 . S
C1876 C1875 1.398 . S
C1876 C1877 1.391 . S
C1877 H1865 0.950 . S
C1877 C1873 1.393 . S
C1877 C1876 1.391 . S
C1878 H1868 0.950 . S
C1878 C1879 1.386 . S
C1878 C1880 1.391 . S
C1879 C1878 1.386 . S
C1879 C1883 1.393 . S
C1880 H1869 0.950 . S
C1880 C1878 1.391 . S
C1880 C1881 1.400 . S
C1881 C1875 1.491 . S
C1881 C1880 1.400 . S
C1881 C1882 1.398 . S
C1882 H1870 0.950 . S
C1882 C1881 1.398 . S
C1882 C1883 1.391 . S
C1883 H1871 0.950 . S
C1883 C1879 1.393 . S
C1883 C1882 1.391 . S
H1884 C1892 0.950 . S
H1885 C1897 0.950 . S
H1886 C1894 0.950 . S
H1887 C1896 0.950 . S
H1888 C1898 0.950 . S
H1889 C1900 0.950 . S
H1890 C1902 0.950 . S
H1891 C1903 0.950 . S
C1892 H1884 0.950 . S
C1892 C1893 1.386 . S
C1892 C1894 1.391 . S
C1893 C1892 1.386 . S
C1893 C1897 1.393 . S
C1894 H1886 0.950 . S
C1894 C1892 1.391 . S
C1894 C1895 1.400 . S
C1895 C1894 1.400 . S
C1895 C1896 1.398 . S
C1895 C1901 1.491 . S
C1896 H1887 0.950 . S
C1896 C1895 1.398 . S
C1896 C1897 1.391 . S
C1897 H1885 0.950 . S
C1897 C1893 1.393 . S
C1897 C1896 1.391 . S
C1898 H1888 0.950 . S
C1898 C1899 1.386 . S
C1898 C1900 1.391 . S
C1899 C1898 1.386 . S
C1899 C1903 1.393 . S
C1900 H1889 0.950 . S
C1900 C1898 1.391 . S
C1900 C1901 1.400 . S
C1901 C1895 1.491 . S
C1901 C1900 1.400 . S
C1901 C1902 1.398 . S
C1902 H1890 0.950 . S
C1902 C1901 1.398 . S
C1902 C1903 1.391 . S
C1903 H1891 0.950 . S
C1903 C1899 1.393 . S
C1903 C1902 1.391 . S
H1904 C1912 0.950 . S
H1905 C1917 0.950 . S
H1906 C1914 0.950 . S
H1907 C1916 0.950 . S
H1908 C1918 0.950 . S
H1909 C1920 0.950 . S
H1910 C1922 0.950 . S
H1911 C1923 0.950 . S
C1912 H1904 0.950 . S
C1912 C1913 1.386 . S
C1912 C1914 1.391 . S
C1913 C1912 1.386 . S
C1913 C1917 1.393 . S
C1914 H1906 0.950 . S
C1914 C1912 1.391 . S
C1914 C1915 1.400 . S
C1915 C1914 1.400 . S
C1915 C1916 1.398 . S
C1915 C1921 1.491 . S
C1916 H1907 0.950 . S
C1916 C1915 1.398 . S
C1916 C1917 1.391 . S
C1917 H1905 0.950 . S
C1917 C1913 1.393 . S
C1917 C1916 1.391 . S
C1918 H1908 0.950 . S
C1918 C1919 1.386 . S
C1918 C1920 1.391 . S
C1919 C1918 1.386 . S
C1919 C1923 1.393 . S
C1920 H1909 0.950 . S
C1920 C1918 1.391 . S
C1920 C1921 1.400 . S
C1921 C1915 1.491 . S
C1921 C1920 1.400 . S
C1921 C1922 1.398 . S
C1922 H1910 0.950 . S
C1922 C1921 1.398 . S
C1922 C1923 1.391 . S
C1923 H1911 0.950 . S
C1923 C1919 1.393 . S
C1923 C1922 1.391 . S
H1924 C1932 0.950 . S
H1925 C1937 0.950 . S
H1926 C1934 0.950 . S
H1927 C1936 0.950 . S
H1928 C1938 0.950 . S
H1929 C1940 0.950 . S
H1930 C1942 0.950 . S
H1931 C1943 0.950 . S
C1932 H1924 0.950 . S
C1932 C1933 1.386 . S
C1932 C1934 1.391 . S
C1933 C1932 1.386 . S
C1933 C1937 1.393 . S
C1934 H1926 0.950 . S
C1934 C1932 1.391 . S
C1934 C1935 1.400 . S
C1935 C1934 1.400 . S
C1935 C1936 1.398 . S
C1935 C1941 1.491 . S
C1936 H1927 0.950 . S
C1936 C1935 1.398 . S
C1936 C1937 1.391 . S
C1937 H1925 0.950 . S
C1937 C1933 1.393 . S
C1937 C1936 1.391 . S
C1938 H1928 0.950 . S
C1938 C1939 1.386 . S
C1938 C1940 1.391 . S
C1939 C1938 1.386 . S
C1939 C1943 1.393 . S
C1940 H1929 0.950 . S
C1940 C1938 1.391 . S
C1940 C1941 1.400 . S
C1941 C1935 1.491 . S
C1941 C1940 1.400 . S
C1941 C1942 1.398 . S
C1942 H1930 0.950 . S
C1942 C1941 1.398 . S
C1942 C1943 1.391 . S
C1943 H1931 0.950 . S
C1943 C1939 1.393 . S
C1943 C1942 1.391 . S
H1944 C1952 0.950 . S
H1945 C1957 0.950 . S
H1946 C1954 0.950 . S
H1947 C1956 0.950 . S
H1948 C1958 0.950 . S
H1949 C1960 0.950 . S
H1950 C1962 0.950 . S
H1951 C1963 0.950 . S
C1952 H1944 0.950 . S
C1952 C1953 1.386 . S
C1952 C1954 1.391 . S
C1953 C1952 1.386 . S
C1953 C1957 1.393 . S
C1954 H1946 0.950 . S
C1954 C1952 1.391 . S
C1954 C1955 1.400 . S
C1955 C1954 1.400 . S
C1955 C1956 1.398 . S
C1955 C1961 1.491 . S
C1956 H1947 0.950 . S
C1956 C1955 1.398 . S
C1956 C1957 1.391 . S
C1957 H1945 0.950 . S
C1957 C1953 1.393 . S
C1957 C1956 1.391 . S
C1958 H1948 0.950 . S
C1958 C1959 1.386 . S
C1958 C1960 1.391 . S
C1959 C1958 1.386 . S
C1959 C1963 1.393 . S
C1960 H1949 0.950 . S
C1960 C1958 1.391 . S
C1960 C1961 1.400 . S
C1961 C1955 1.491 . S
C1961 C1960 1.400 . S
C1961 C1962 1.398 . S
C1962 H1950 0.950 . S
C1962 C1961 1.398 . S
C1962 C1963 1.391 . S
C1963 H1951 0.950 . S
C1963 C1959 1.393 . S
C1963 C1962 1.391 . S
H1964 C1972 0.950 . S
H1965 C1977 0.950 . S
H1966 C1974 0.950 . S
H1967 C1976 0.950 . S
H1968 C1978 0.950 . S
H1969 C1980 0.950 . S
H1970 C1982 0.947 1_455 S
H1971 C1983 0.950 . S
C1972 H1964 0.950 . S
C1972 C1973 1.386 . S
C1972 C1974 1.391 . S
C1973 C1972 1.386 . S
C1973 C1977 1.393 . S
C1974 H1966 0.950 . S
C1974 C1972 1.391 . S
C1974 C1975 1.400 . S
C1975 C1974 1.400 . S
C1975 C1976 1.398 . S
C1975 C1981 1.491 . S
C1976 H1967 0.950 . S
C1976 C1975 1.398 . S
C1976 C1977 1.391 . S
C1977 H1965 0.950 . S
C1977 C1973 1.393 . S
C1977 C1976 1.391 . S
C1978 H1968 0.950 . S
C1978 C1979 1.386 1_655 S
C1978 C1980 1.391 . S
C1979 C1978 1.386 1_455 S
C1979 C1983 1.393 . S
C1980 H1969 0.950 . S
C1980 C1978 1.391 . S
C1980 C1981 1.400 . S
C1981 C1975 1.491 . S
C1981 C1980 1.400 . S
C1981 C1982 1.422 . S
C1982 H1970 0.947 1_655 S
C1982 C1981 1.422 . S
C1982 C1983 1.371 1_655 S
C1983 H1971 0.950 . S
C1983 C1979 1.393 . S
C1983 C1982 1.371 1_455 S
H1984 C1992 0.950 . S
H1985 C1997 0.950 . S
H1986 C1994 0.950 . S
H1987 C1996 0.950 . S
H1988 C1998 0.950 . S
H1989 C2000 0.950 . S
H1990 C2002 0.950 . S
H1991 C2003 0.950 . S
C1992 H1984 0.950 . S
C1992 C1993 1.386 . S
C1992 C1994 1.391 . S
C1993 C1992 1.386 . S
C1993 C1997 1.393 . S
C1994 H1986 0.950 . S
C1994 C1992 1.391 . S
C1994 C1995 1.400 . S
C1995 C1994 1.400 . S
C1995 C1996 1.398 . S
C1995 C2001 1.491 . S
C1996 H1987 0.950 . S
C1996 C1995 1.398 . S
C1996 C1997 1.391 . S
C1997 H1985 0.950 . S
C1997 C1993 1.393 . S
C1997 C1996 1.391 . S
C1998 H1988 0.950 . S
C1998 C1999 1.386 . S
C1998 C2000 1.391 . S
C1999 C1998 1.386 . S
C1999 C2003 1.393 . S
C2000 H1989 0.950 . S
C2000 C1998 1.391 . S
C2000 C2001 1.400 . S
C2001 C1995 1.491 . S
C2001 C2000 1.400 . S
C2001 C2002 1.398 . S
C2002 H1990 0.950 . S
C2002 C2001 1.398 . S
C2002 C2003 1.391 . S
C2003 H1991 0.950 . S
C2003 C1999 1.393 . S
C2003 C2002 1.391 . S
H2004 C2012 0.950 . S
H2005 C2017 0.950 . S
H2006 C2014 0.950 . S
H2007 C2016 0.950 . S
H2008 C2018 0.950 . S
H2009 C2020 0.950 . S
H2010 C2022 0.950 . S
H2011 C2023 0.950 . S
C2012 H2004 0.950 . S
C2012 C2013 1.386 . S
C2012 C2014 1.391 . S
C2013 C2012 1.386 . S
C2013 C2017 1.393 . S
C2014 H2006 0.950 . S
C2014 C2012 1.391 . S
C2014 C2015 1.400 . S
C2015 C2014 1.400 . S
C2015 C2016 1.398 . S
C2015 C2021 1.491 . S
C2016 H2007 0.950 . S
C2016 C2015 1.398 . S
C2016 C2017 1.391 . S
C2017 H2005 0.950 . S
C2017 C2013 1.393 . S
C2017 C2016 1.391 . S
C2018 H2008 0.950 . S
C2018 C2019 1.386 . S
C2018 C2020 1.391 . S
C2019 C2018 1.386 . S
C2019 C2023 1.393 . S
C2020 H2009 0.950 . S
C2020 C2018 1.391 . S
C2020 C2021 1.400 . S
C2021 C2015 1.491 . S
C2021 C2020 1.400 . S
C2021 C2022 1.398 . S
C2022 H2010 0.950 . S
C2022 C2021 1.398 . S
C2022 C2023 1.391 . S
C2023 H2011 0.950 . S
C2023 C2019 1.393 . S
C2023 C2022 1.391 . S
H2024 C2032 0.950 . S
H2025 C2037 0.950 . S
H2026 C2034 0.950 . S
H2027 C2036 0.950 . S
H2028 C2038 0.950 . S
H2029 C2040 0.950 . S
H2030 C2042 0.950 . S
H2031 C2043 0.950 . S
C2032 H2024 0.950 . S
C2032 C2033 1.386 . S
C2032 C2034 1.391 . S
C2033 C2032 1.386 . S
C2033 C2037 1.393 . S
C2034 H2026 0.950 . S
C2034 C2032 1.391 . S
C2034 C2035 1.400 . S
C2035 C2034 1.400 . S
C2035 C2036 1.398 . S
C2035 C2041 1.491 . S
C2036 H2027 0.950 . S
C2036 C2035 1.398 . S
C2036 C2037 1.391 . S
C2037 H2025 0.950 . S
C2037 C2033 1.393 . S
C2037 C2036 1.391 . S
C2038 H2028 0.950 . S
C2038 C2039 1.386 . S
C2038 C2040 1.391 . S
C2039 C2038 1.386 . S
C2039 C2043 1.393 . S
C2040 H2029 0.950 . S
C2040 C2038 1.391 . S
C2040 C2041 1.400 . S
C2041 C2035 1.491 . S
C2041 C2040 1.400 . S
C2041 C2042 1.398 . S
C2042 H2030 0.950 . S
C2042 C2041 1.398 . S
C2042 C2043 1.391 . S
C2043 H2031 0.950 . S
C2043 C2039 1.393 . S
C2043 C2042 1.391 . S
H2044 C2052 0.950 . S
H2045 C2057 0.950 . S
H2046 C2054 0.957 . S
H2047 C2056 0.950 . S
H2048 C2058 0.950 . S
H2049 C2060 0.950 . S
H2050 C2062 0.950 . S
H2051 C2063 0.950 . S
C2052 H2044 0.950 . S
C2052 C2053 1.386 . S
C2052 C2054 1.434 . S
C2053 C2052 1.386 . S
C2053 C2057 1.393 1_556 S
C2054 H2046 0.957 . S
C2054 C2052 1.434 . S
C2054 C2055 1.353 1_556 S
C2055 C2054 1.353 1_554 S
C2055 C2056 1.398 . S
C2055 C2061 1.491 . S
C2056 H2047 0.950 . S
C2056 C2055 1.398 . S
C2056 C2057 1.391 . S
C2057 H2045 0.950 . S
C2057 C2053 1.393 1_554 S
C2057 C2056 1.391 . S
C2058 H2048 0.950 . S
C2058 C2059 1.386 . S
C2058 C2060 1.391 . S
C2059 C2058 1.386 . S
C2059 C2063 1.393 . S
C2060 H2049 0.950 . S
C2060 C2058 1.391 . S
C2060 C2061 1.400 . S
C2061 C2055 1.491 . S
C2061 C2060 1.400 . S
C2061 C2062 1.398 . S
C2062 H2050 0.950 . S
C2062 C2061 1.398 . S
C2062 C2063 1.391 . S
C2063 H2051 0.950 . S
C2063 C2059 1.393 . S
C2063 C2062 1.391 . S
H2064 C2072 0.950 . S
H2065 C2077 0.950 . S
H2066 C2074 0.950 . S
H2067 C2076 0.950 . S
H2068 C2078 0.950 . S
H2069 C2080 0.950 . S
H2070 C2082 0.950 . S
H2071 C2083 0.950 . S
C2072 H2064 0.950 . S
C2072 C2073 1.386 . S
C2072 C2074 1.391 . S
C2073 C2072 1.386 . S
C2073 C2077 1.393 . S
C2074 H2066 0.950 . S
C2074 C2072 1.391 . S
C2074 C2075 1.400 . S
C2075 C2074 1.400 . S
C2075 C2076 1.398 . S
C2075 C2081 1.491 . S
C2076 H2067 0.950 . S
C2076 C2075 1.398 . S
C2076 C2077 1.391 . S
C2077 H2065 0.950 . S
C2077 C2073 1.393 . S
C2077 C2076 1.391 . S
C2078 H2068 0.950 . S
C2078 C2079 1.386 . S
C2078 C2080 1.391 . S
C2079 C2078 1.386 . S
C2079 C2083 1.393 . S
C2080 H2069 0.950 . S
C2080 C2078 1.391 . S
C2080 C2081 1.400 . S
C2081 C2075 1.491 . S
C2081 C2080 1.400 . S
C2081 C2082 1.398 . S
C2082 H2070 0.950 . S
C2082 C2081 1.398 . S
C2082 C2083 1.391 . S
C2083 H2071 0.950 . S
C2083 C2079 1.393 . S
C2083 C2082 1.391 . S
H2084 C2092 0.950 . S
H2085 C2097 0.950 . S
H2086 C2094 0.950 . S
H2087 C2096 0.950 . S
H2088 C2098 0.950 . S
H2089 C2100 0.950 . S
H2090 C2102 0.950 . S
H2091 C2103 0.950 . S
C2092 H2084 0.950 . S
C2092 C2093 1.386 . S
C2092 C2094 1.391 . S
C2093 C2092 1.386 . S
C2093 C2097 1.393 . S
C2094 H2086 0.950 . S
C2094 C2092 1.391 . S
C2094 C2095 1.400 . S
C2095 C2094 1.400 . S
C2095 C2096 1.398 . S
C2095 C2101 1.491 . S
C2096 H2087 0.950 . S
C2096 C2095 1.398 . S
C2096 C2097 1.391 . S
C2097 H2085 0.950 . S
C2097 C2093 1.393 . S
C2097 C2096 1.391 . S
C2098 H2088 0.950 . S
C2098 C2099 1.386 . S
C2098 C2100 1.391 . S
C2099 C2098 1.386 . S
C2099 C2103 1.393 . S
C2100 H2089 0.950 . S
C2100 C2098 1.391 . S
C2100 C2101 1.400 . S
C2101 C2095 1.491 . S
C2101 C2100 1.400 . S
C2101 C2102 1.398 . S
C2102 H2090 0.950 . S
C2102 C2101 1.398 . S
C2102 C2103 1.391 . S
C2103 H2091 0.950 . S
C2103 C2099 1.393 . S
C2103 C2102 1.391 . S
H2104 C2112 0.950 . S
H2105 C2117 0.950 . S
H2106 C2114 0.950 . S
H2107 C2116 0.950 . S
H2108 C2118 0.950 . S
H2109 C2120 0.950 . S
H2110 C2122 0.950 . S
H2111 C2123 0.950 . S
C2112 H2104 0.950 . S
C2112 C2113 1.386 . S
C2112 C2114 1.391 . S
C2113 C2112 1.386 . S
C2113 C2117 1.393 . S
C2114 H2106 0.950 . S
C2114 C2112 1.391 . S
C2114 C2115 1.400 . S
C2115 C2114 1.400 . S
C2115 C2116 1.398 . S
C2115 C2121 1.491 . S
C2116 H2107 0.950 . S
C2116 C2115 1.398 . S
C2116 C2117 1.391 . S
C2117 H2105 0.950 . S
C2117 C2113 1.393 . S
C2117 C2116 1.391 . S
C2118 H2108 0.950 . S
C2118 C2119 1.386 . S
C2118 C2120 1.391 . S
C2119 C2118 1.386 . S
C2119 C2123 1.393 . S
C2120 H2109 0.950 . S
C2120 C2118 1.391 . S
C2120 C2121 1.400 . S
C2121 C2115 1.491 . S
C2121 C2120 1.400 . S
C2121 C2122 1.398 . S
C2122 H2110 0.950 . S
C2122 C2121 1.398 . S
C2122 C2123 1.391 . S
C2123 H2111 0.950 . S
C2123 C2119 1.393 . S
C2123 C2122 1.391 . S
H2124 C2132 0.950 . S
H2125 C2137 0.952 . S
H2126 C2134 0.950 . S
H2127 C2136 0.950 . S
H2128 C2138 0.950 . S
H2129 C2140 0.950 . S
H2130 C2142 0.950 . S
H2131 C2143 0.950 . S
C2132 H2124 0.950 . S
C2132 C2133 1.386 . S
C2132 C2134 1.391 1_554 S
C2133 C2132 1.386 . S
C2133 C2137 1.415 . S
C2134 H2126 0.950 . S
C2134 C2132 1.391 1_556 S
C2134 C2135 1.400 . S
C2135 C2134 1.400 . S
C2135 C2136 1.398 . S
C2135 C2141 1.491 . S
C2136 H2127 0.950 . S
C2136 C2135 1.398 . S
C2136 C2137 1.368 1_556 S
C2137 H2125 0.952 . S
C2137 C2133 1.415 . S
C2137 C2136 1.368 1_554 S
C2138 H2128 0.950 . S
C2138 C2139 1.386 . S
C2138 C2140 1.391 . S
C2139 C2138 1.386 . S
C2139 C2143 1.393 . S
C2140 H2129 0.950 . S
C2140 C2138 1.391 . S
C2140 C2141 1.400 . S
C2141 C2135 1.491 . S
C2141 C2140 1.400 . S
C2141 C2142 1.398 . S
C2142 H2130 0.950 . S
C2142 C2141 1.398 . S
C2142 C2143 1.391 . S
C2143 H2131 0.950 . S
C2143 C2139 1.393 . S
C2143 C2142 1.391 . S
H2144 C2152 0.950 . S
H2145 C2157 0.950 . S
H2146 C2154 0.950 . S
H2147 C2156 0.950 . S
H2148 C2158 0.950 . S
H2149 C2160 0.950 . S
H2150 C2162 0.950 . S
H2151 C2163 0.950 . S
C2152 H2144 0.950 . S
C2152 C2153 1.386 . S
C2152 C2154 1.391 . S
C2153 C2152 1.386 . S
C2153 C2157 1.393 . S
C2154 H2146 0.950 . S
C2154 C2152 1.391 . S
C2154 C2155 1.400 . S
C2155 C2154 1.400 . S
C2155 C2156 1.398 . S
C2155 C2161 1.491 . S
C2156 H2147 0.950 . S
C2156 C2155 1.398 . S
C2156 C2157 1.391 . S
C2157 H2145 0.950 . S
C2157 C2153 1.393 . S
C2157 C2156 1.391 . S
C2158 H2148 0.950 . S
C2158 C2159 1.386 . S
C2158 C2160 1.391 . S
C2159 C2158 1.386 . S
C2159 C2163 1.393 . S
C2160 H2149 0.950 . S
C2160 C2158 1.391 . S
C2160 C2161 1.400 . S
C2161 C2155 1.491 . S
C2161 C2160 1.400 . S
C2161 C2162 1.398 . S
C2162 H2150 0.950 . S
C2162 C2161 1.398 . S
C2162 C2163 1.391 . S
C2163 H2151 0.950 . S
C2163 C2159 1.393 . S
C2163 C2162 1.391 . S
H2164 C2172 0.950 . S
H2165 C2177 0.950 . S
H2166 C2174 0.950 . S
H2167 C2176 0.950 . S
H2168 C2178 0.950 . S
H2169 C2180 0.950 . S
H2170 C2182 0.950 . S
H2171 C2183 0.950 . S
C2172 H2164 0.950 . S
C2172 C2173 1.386 . S
C2172 C2174 1.391 . S
C2173 C2172 1.386 . S
C2173 C2177 1.393 . S
C2174 H2166 0.950 . S
C2174 C2172 1.391 . S
C2174 C2175 1.400 . S
C2175 C2174 1.400 . S
C2175 C2176 1.398 . S
C2175 C2181 1.491 . S
C2176 H2167 0.950 . S
C2176 C2175 1.398 . S
C2176 C2177 1.391 . S
C2177 H2165 0.950 . S
C2177 C2173 1.393 . S
C2177 C2176 1.391 . S
C2178 H2168 0.950 . S
C2178 C2179 1.386 . S
C2178 C2180 1.391 . S
C2179 C2178 1.386 . S
C2179 C2183 1.393 . S
C2180 H2169 0.950 . S
C2180 C2178 1.391 . S
C2180 C2181 1.400 . S
C2181 C2175 1.491 . S
C2181 C2180 1.400 . S
C2181 C2182 1.398 . S
C2182 H2170 0.950 . S
C2182 C2181 1.398 . S
C2182 C2183 1.391 . S
C2183 H2171 0.950 . S
C2183 C2179 1.393 . S
C2183 C2182 1.391 . S
H2184 C2192 0.950 . S
H2185 C2197 0.950 . S
H2186 C2194 0.950 . S
H2187 C2196 0.950 . S
H2188 C2198 0.950 . S
H2189 C2200 0.950 . S
H2190 C2202 0.950 . S
H2191 C2203 0.950 . S
C2192 H2184 0.950 . S
C2192 C2193 1.386 . S
C2192 C2194 1.391 . S
C2193 C2192 1.386 . S
C2193 C2197 1.393 . S
C2194 H2186 0.950 . S
C2194 C2192 1.391 . S
C2194 C2195 1.400 . S
C2195 C2194 1.400 . S
C2195 C2196 1.398 . S
C2195 C2201 1.491 . S
C2196 H2187 0.950 . S
C2196 C2195 1.398 . S
C2196 C2197 1.391 . S
C2197 H2185 0.950 . S
C2197 C2193 1.393 . S
C2197 C2196 1.391 . S
C2198 H2188 0.950 . S
C2198 C2199 1.386 . S
C2198 C2200 1.391 . S
C2199 C2198 1.386 . S
C2199 C2203 1.393 . S
C2200 H2189 0.950 . S
C2200 C2198 1.391 . S
C2200 C2201 1.400 . S
C2201 C2195 1.491 . S
C2201 C2200 1.400 . S
C2201 C2202 1.398 . S
C2202 H2190 0.950 . S
C2202 C2201 1.398 . S
C2202 C2203 1.391 . S
C2203 H2191 0.950 . S
C2203 C2199 1.393 . S
C2203 C2202 1.391 . S
H2204 C2212 0.950 . S
H2205 C2217 0.950 . S
H2206 C2214 0.950 . S
H2207 C2216 0.950 . S
H2208 C2218 0.950 . S
H2209 C2220 0.950 . S
H2210 C2222 0.950 . S
H2211 C2223 0.950 . S
C2212 H2204 0.950 . S
C2212 C2213 1.386 . S
C2212 C2214 1.391 . S
C2213 C2212 1.386 . S
C2213 C2217 1.393 . S
C2214 H2206 0.950 . S
C2214 C2212 1.391 . S
C2214 C2215 1.400 . S
C2215 C2214 1.400 . S
C2215 C2216 1.398 . S
C2215 C2221 1.491 . S
C2216 H2207 0.950 . S
C2216 C2215 1.398 . S
C2216 C2217 1.391 . S
C2217 H2205 0.950 . S
C2217 C2213 1.393 . S
C2217 C2216 1.391 . S
C2218 H2208 0.950 . S
C2218 C2219 1.386 . S
C2218 C2220 1.391 . S
C2219 C2218 1.386 . S
C2219 C2223 1.393 . S
C2220 H2209 0.950 . S
C2220 C2218 1.391 . S
C2220 C2221 1.400 . S
C2221 C2215 1.491 . S
C2221 C2220 1.400 . S
C2221 C2222 1.398 . S
C2222 H2210 0.950 . S
C2222 C2221 1.398 . S
C2222 C2223 1.391 . S
C2223 H2211 0.950 . S
C2223 C2219 1.393 . S
C2223 C2222 1.391 . S
H2224 C2232 0.950 . S
H2225 C2237 0.950 . S
H2226 C2234 0.950 . S
H2227 C2236 0.950 . S
H2228 C2238 0.950 . S
H2229 C2240 0.950 . S
H2230 C2242 0.950 . S
H2231 C2243 0.958 . S
C2232 H2224 0.950 . S
C2232 C2233 1.386 . S
C2232 C2234 1.391 . S
C2233 C2232 1.386 . S
C2233 C2237 1.393 . S
C2234 H2226 0.950 . S
C2234 C2232 1.391 . S
C2234 C2235 1.400 . S
C2235 C2234 1.400 . S
C2235 C2236 1.398 . S
C2235 C2241 1.491 . S
C2236 H2227 0.950 . S
C2236 C2235 1.398 . S
C2236 C2237 1.391 . S
C2237 H2225 0.950 . S
C2237 C2233 1.393 . S
C2237 C2236 1.391 . S
C2238 H2228 0.950 . S
C2238 C2239 1.386 . S
C2238 C2240 1.391 . S
C2239 C2238 1.386 . S
C2239 C2243 1.360 1_545 S
C2240 H2229 0.950 . S
C2240 C2238 1.391 . S
C2240 C2241 1.400 1_545 S
C2241 C2235 1.491 . S
C2241 C2240 1.400 1_565 S
C2241 C2242 1.398 . S
C2242 H2230 0.950 . S
C2242 C2241 1.398 . S
C2242 C2243 1.416 . S
C2243 H2231 0.958 . S
C2243 C2239 1.360 1_565 S
C2243 C2242 1.416 . S
H2244 C2252 0.950 . S
H2245 C2257 0.950 . S
H2246 C2254 0.950 . S
H2247 C2256 0.950 . S
H2248 C2258 0.950 . S
H2249 C2260 0.950 . S
H2250 C2262 0.950 . S
H2251 C2263 0.950 . S
C2252 H2244 0.950 . S
C2252 C2253 1.386 . S
C2252 C2254 1.391 . S
C2253 C2252 1.386 . S
C2253 C2257 1.393 . S
C2254 H2246 0.950 . S
C2254 C2252 1.391 . S
C2254 C2255 1.400 . S
C2255 C2254 1.400 . S
C2255 C2256 1.398 . S
C2255 C2261 1.491 . S
C2256 H2247 0.950 . S
C2256 C2255 1.398 . S
C2256 C2257 1.391 . S
C2257 H2245 0.950 . S
C2257 C2253 1.393 . S
C2257 C2256 1.391 . S
C2258 H2248 0.950 . S
C2258 C2259 1.386 . S
C2258 C2260 1.391 . S
C2259 C2258 1.386 . S
C2259 C2263 1.393 . S
C2260 H2249 0.950 . S
C2260 C2258 1.391 . S
C2260 C2261 1.400 . S
C2261 C2255 1.491 . S
C2261 C2260 1.400 . S
C2261 C2262 1.398 . S
C2262 H2250 0.950 . S
C2262 C2261 1.398 . S
C2262 C2263 1.391 . S
C2263 H2251 0.950 . S
C2263 C2259 1.393 . S
C2263 C2262 1.391 . S
H2264 C2272 0.950 . S
H2265 C2277 0.950 . S
H2266 C2274 0.950 . S
H2267 C2276 0.950 . S
H2268 C2278 0.950 . S
H2269 C2280 0.950 . S
H2270 C2282 0.950 . S
H2271 C2283 0.950 . S
C2272 H2264 0.950 . S
C2272 C2273 1.386 . S
C2272 C2274 1.391 . S
C2273 C2272 1.386 . S
C2273 C2277 1.393 . S
C2274 H2266 0.950 . S
C2274 C2272 1.391 . S
C2274 C2275 1.400 . S
C2275 C2274 1.400 . S
C2275 C2276 1.398 . S
C2275 C2281 1.491 . S
C2276 H2267 0.950 . S
C2276 C2275 1.398 . S
C2276 C2277 1.391 . S
C2277 H2265 0.950 . S
C2277 C2273 1.393 . S
C2277 C2276 1.391 . S
C2278 H2268 0.950 . S
C2278 C2279 1.386 . S
C2278 C2280 1.391 . S
C2279 C2278 1.386 . S
C2279 C2283 1.393 . S
C2280 H2269 0.950 . S
C2280 C2278 1.391 . S
C2280 C2281 1.400 . S
C2281 C2275 1.491 . S
C2281 C2280 1.400 . S
C2281 C2282 1.398 . S
C2282 H2270 0.950 . S
C2282 C2281 1.398 . S
C2282 C2283 1.391 . S
C2283 H2271 0.950 . S
C2283 C2279 1.393 . S
C2283 C2282 1.391 . S
H2284 C2292 0.950 . S
H2285 C2297 0.950 . S
H2286 C2294 0.950 . S
H2287 C2296 0.950 . S
H2288 C2298 0.950 . S
H2289 C2300 0.950 . S
H2290 C2302 0.950 . S
H2291 C2303 0.950 . S
C2292 H2284 0.950 . S
C2292 C2293 1.386 . S
C2292 C2294 1.391 . S
C2293 C2292 1.386 . S
C2293 C2297 1.393 . S
C2294 H2286 0.950 . S
C2294 C2292 1.391 . S
C2294 C2295 1.400 . S
C2295 C2294 1.400 . S
C2295 C2296 1.398 . S
C2295 C2301 1.491 . S
C2296 H2287 0.950 . S
C2296 C2295 1.398 . S
C2296 C2297 1.391 . S
C2297 H2285 0.950 . S
C2297 C2293 1.393 . S
C2297 C2296 1.391 . S
C2298 H2288 0.950 . S
C2298 C2299 1.386 . S
C2298 C2300 1.391 . S
C2299 C2298 1.386 . S
C2299 C2303 1.393 . S
C2300 H2289 0.950 . S
C2300 C2298 1.391 . S
C2300 C2301 1.400 . S
C2301 C2295 1.491 . S
C2301 C2300 1.400 . S
C2301 C2302 1.398 . S
C2302 H2290 0.950 . S
C2302 C2301 1.398 . S
C2302 C2303 1.391 . S
C2303 H2291 0.950 . S
C2303 C2299 1.393 . S
C2303 C2302 1.391 . S
H2304 C2312 0.950 . S
H2305 C2317 0.950 . S
H2306 C2314 0.950 . S
H2307 C2316 0.950 . S
H2308 C2318 0.950 . S
H2309 C2320 0.950 . S
H2310 C2322 0.950 . S
H2311 C2323 0.950 . S
C2312 H2304 0.950 . S
C2312 C2313 1.386 . S
C2312 C2314 1.391 . S
C2313 C2312 1.386 . S
C2313 C2317 1.393 . S
C2314 H2306 0.950 . S
C2314 C2312 1.391 . S
C2314 C2315 1.400 . S
C2315 C2314 1.400 . S
C2315 C2316 1.398 . S
C2315 C2321 1.491 . S
C2316 H2307 0.950 . S
C2316 C2315 1.398 . S
C2316 C2317 1.391 . S
C2317 H2305 0.950 . S
C2317 C2313 1.393 . S
C2317 C2316 1.391 . S
C2318 H2308 0.950 . S
C2318 C2319 1.386 . S
C2318 C2320 1.391 . S
C2319 C2318 1.386 . S
C2319 C2323 1.393 . S
C2320 H2309 0.950 . S
C2320 C2318 1.391 . S
C2320 C2321 1.400 . S
C2321 C2315 1.491 . S
C2321 C2320 1.400 . S
C2321 C2322 1.398 . S
C2322 H2310 0.950 . S
C2322 C2321 1.398 . S
C2322 C2323 1.391 . S
C2323 H2311 0.950 . S
C2323 C2319 1.393 . S
C2323 C2322 1.391 . S
H2324 C2332 0.950 . S
H2325 C2337 0.950 . S
H2326 C2334 0.950 . S
H2327 C2336 0.950 . S
H2328 C2338 0.950 . S
H2329 C2340 0.950 . S
H2330 C2342 0.950 . S
H2331 C2343 0.950 . S
C2332 H2324 0.950 . S
C2332 C2333 1.386 . S
C2332 C2334 1.391 . S
C2333 C2332 1.386 . S
C2333 C2337 1.393 . S
C2334 H2326 0.950 . S
C2334 C2332 1.391 . S
C2334 C2335 1.400 . S
C2335 C2334 1.400 . S
C2335 C2336 1.398 . S
C2335 C2341 1.491 . S
C2336 H2327 0.950 . S
C2336 C2335 1.398 . S
C2336 C2337 1.391 . S
C2337 H2325 0.950 . S
C2337 C2333 1.393 . S
C2337 C2336 1.391 . S
C2338 H2328 0.950 . S
C2338 C2339 1.386 . S
C2338 C2340 1.391 . S
C2339 C2338 1.386 . S
C2339 C2343 1.393 . S
C2340 H2329 0.950 . S
C2340 C2338 1.391 . S
C2340 C2341 1.400 . S
C2341 C2335 1.491 . S
C2341 C2340 1.400 . S
C2341 C2342 1.398 . S
C2342 H2330 0.950 . S
C2342 C2341 1.398 . S
C2342 C2343 1.391 . S
C2343 H2331 0.950 . S
C2343 C2339 1.393 . S
C2343 C2342 1.391 . S
H2344 C2352 0.950 . S
H2345 C2357 0.950 . S
H2346 C2354 0.950 . S
H2347 C2356 0.950 . S
H2348 C2358 0.950 . S
H2349 C2360 0.950 . S
H2350 C2362 0.950 . S
H2351 C2363 0.950 . S
C2352 H2344 0.950 . S
C2352 C2353 1.386 . S
C2352 C2354 1.391 . S
C2353 C2352 1.386 . S
C2353 C2357 1.393 . S
C2354 H2346 0.950 . S
C2354 C2352 1.391 . S
C2354 C2355 1.400 . S
C2355 C2354 1.400 . S
C2355 C2356 1.398 . S
C2355 C2361 1.491 . S
C2356 H2347 0.950 . S
C2356 C2355 1.398 . S
C2356 C2357 1.391 . S
C2357 H2345 0.950 . S
C2357 C2353 1.393 . S
C2357 C2356 1.391 . S
C2358 H2348 0.950 . S
C2358 C2359 1.386 . S
C2358 C2360 1.391 . S
C2359 C2358 1.386 . S
C2359 C2363 1.393 . S
C2360 H2349 0.950 . S
C2360 C2358 1.391 . S
C2360 C2361 1.400 . S
C2361 C2355 1.491 . S
C2361 C2360 1.400 . S
C2361 C2362 1.398 . S
C2362 H2350 0.950 . S
C2362 C2361 1.398 . S
C2362 C2363 1.391 . S
C2363 H2351 0.950 . S
C2363 C2359 1.393 . S
C2363 C2362 1.391 . S
H2364 C2372 0.950 . S
H2365 C2377 0.951 . S
H2366 C2374 0.950 . S
H2367 C2376 0.950 . S
H2368 C2378 0.950 . S
H2369 C2380 0.950 . S
H2370 C2382 0.950 . S
H2371 C2383 0.950 . S
C2372 H2364 0.950 . S
C2372 C2373 1.386 . S
C2372 C2374 1.391 . S
C2373 C2372 1.386 . S
C2373 C2377 1.385 1_455 S
C2374 H2366 0.950 . S
C2374 C2372 1.391 . S
C2374 C2375 1.400 1_455 S
C2375 C2374 1.400 1_655 S
C2375 C2376 1.398 . S
C2375 C2381 1.491 . S
C2376 H2367 0.950 . S
C2376 C2375 1.398 . S
C2376 C2377 1.398 . S
C2377 H2365 0.951 . S
C2377 C2373 1.385 1_655 S
C2377 C2376 1.398 . S
C2378 H2368 0.950 . S
C2378 C2379 1.386 . S
C2378 C2380 1.391 . S
C2379 C2378 1.386 . S
C2379 C2383 1.393 . S
C2380 H2369 0.950 . S
C2380 C2378 1.391 . S
C2380 C2381 1.400 . S
C2381 C2375 1.491 . S
C2381 C2380 1.400 . S
C2381 C2382 1.398 . S
C2382 H2370 0.950 . S
C2382 C2381 1.398 . S
C2382 C2383 1.391 . S
C2383 H2371 0.950 . S
C2383 C2379 1.393 . S
C2383 C2382 1.391 . S
H2384 C2392 0.950 . S
H2385 C2397 0.950 . S
H2386 C2394 0.950 . S
H2387 C2396 0.950 . S
H2388 C2398 0.950 . S
H2389 C2400 0.950 . S
H2390 C2402 0.950 . S
H2391 C2403 0.950 . S
C2392 H2384 0.950 . S
C2392 C2393 1.386 . S
C2392 C2394 1.391 . S
C2393 C2392 1.386 . S
C2393 C2397 1.393 . S
C2394 H2386 0.950 . S
C2394 C2392 1.391 . S
C2394 C2395 1.400 . S
C2395 C2394 1.400 . S
C2395 C2396 1.398 . S
C2395 C2401 1.491 . S
C2396 H2387 0.950 . S
C2396 C2395 1.398 . S
C2396 C2397 1.391 . S
C2397 H2385 0.950 . S
C2397 C2393 1.393 . S
C2397 C2396 1.391 . S
C2398 H2388 0.950 . S
C2398 C2399 1.386 . S
C2398 C2400 1.391 . S
C2399 C2398 1.386 . S
C2399 C2403 1.393 . S
C2400 H2389 0.950 . S
C2400 C2398 1.391 . S
C2400 C2401 1.400 . S
C2401 C2395 1.491 . S
C2401 C2400 1.400 . S
C2401 C2402 1.398 . S
C2402 H2390 0.950 . S
C2402 C2401 1.398 . S
C2402 C2403 1.391 . S
C2403 H2391 0.950 . S
C2403 C2399 1.393 . S
C2403 C2402 1.391 . S
H2404 C2412 0.950 . S
H2405 C2417 0.950 . S
H2406 C2414 0.950 . S
H2407 C2416 0.950 . S
H2408 C2418 0.950 . S
H2409 C2420 0.950 . S
H2410 C2422 0.950 . S
H2411 C2423 0.950 . S
C2412 H2404 0.950 . S
C2412 C2413 1.386 1_655 S
C2412 C2414 1.391 . S
C2413 C2412 1.386 1_455 S
C2413 C2417 1.393 . S
C2414 H2406 0.950 . S
C2414 C2412 1.391 . S
C2414 C2415 1.400 . S
C2415 C2414 1.400 . S
C2415 C2416 1.398 1_655 S
C2415 C2421 1.491 . S
C2416 H2407 0.950 . S
C2416 C2415 1.398 1_455 S
C2416 C2417 1.391 . S
C2417 H2405 0.950 . S
C2417 C2413 1.393 . S
C2417 C2416 1.391 . S
C2418 H2408 0.950 . S
C2418 C2419 1.386 . S
C2418 C2420 1.391 . S
C2419 C2418 1.386 . S
C2419 C2423 1.393 . S
C2420 H2409 0.950 . S
C2420 C2418 1.391 . S
C2420 C2421 1.400 . S
C2421 C2415 1.491 . S
C2421 C2420 1.400 . S
C2421 C2422 1.398 . S
C2422 H2410 0.950 . S
C2422 C2421 1.398 . S
C2422 C2423 1.391 . S
C2423 H2411 0.950 . S
C2423 C2419 1.393 . S
C2423 C2422 1.391 . S
H2424 C2432 0.950 . S
H2425 C2437 0.950 . S
H2426 C2434 0.950 . S
H2427 C2436 0.950 . S
H2428 C2438 0.950 . S
H2429 C2440 0.950 . S
H2430 C2442 0.950 . S
H2431 C2443 0.950 . S
C2432 H2424 0.950 . S
C2432 C2433 1.386 . S
C2432 C2434 1.391 . S
C2433 C2432 1.386 . S
C2433 C2437 1.393 . S
C2434 H2426 0.950 . S
C2434 C2432 1.391 . S
C2434 C2435 1.400 . S
C2435 C2434 1.400 . S
C2435 C2436 1.398 . S
C2435 C2441 1.491 . S
C2436 H2427 0.950 . S
C2436 C2435 1.398 . S
C2436 C2437 1.391 . S
C2437 H2425 0.950 . S
C2437 C2433 1.393 . S
C2437 C2436 1.391 . S
C2438 H2428 0.950 . S
C2438 C2439 1.386 . S
C2438 C2440 1.391 . S
C2439 C2438 1.386 . S
C2439 C2443 1.393 . S
C2440 H2429 0.950 . S
C2440 C2438 1.391 . S
C2440 C2441 1.400 . S
C2441 C2435 1.491 . S
C2441 C2440 1.400 . S
C2441 C2442 1.398 . S
C2442 H2430 0.950 . S
C2442 C2441 1.398 . S
C2442 C2443 1.391 . S
C2443 H2431 0.950 . S
C2443 C2439 1.393 . S
C2443 C2442 1.391 . S
H2444 C2452 0.950 . S
H2445 C2457 0.950 . S
H2446 C2454 0.950 . S
H2447 C2456 0.950 . S
H2448 C2458 0.950 . S
H2449 C2460 0.950 . S
H2450 C2462 0.950 . S
H2451 C2463 0.950 . S
C2452 H2444 0.950 . S
C2452 C2453 1.386 . S
C2452 C2454 1.391 . S
C2453 C2452 1.386 . S
C2453 C2457 1.393 . S
C2454 H2446 0.950 . S
C2454 C2452 1.391 . S
C2454 C2455 1.400 . S
C2455 C2454 1.400 . S
C2455 C2456 1.398 . S
C2455 C2461 1.491 . S
C2456 H2447 0.950 . S
C2456 C2455 1.398 . S
C2456 C2457 1.391 . S
C2457 H2445 0.950 . S
C2457 C2453 1.393 . S
C2457 C2456 1.391 . S
C2458 H2448 0.950 . S
C2458 C2459 1.386 . S
C2458 C2460 1.391 . S
C2459 C2458 1.386 . S
C2459 C2463 1.393 . S
C2460 H2449 0.950 . S
C2460 C2458 1.391 . S
C2460 C2461 1.400 . S
C2461 C2455 1.491 . S
C2461 C2460 1.400 . S
C2461 C2462 1.398 . S
C2462 H2450 0.950 . S
C2462 C2461 1.398 . S
C2462 C2463 1.391 . S
C2463 H2451 0.950 . S
C2463 C2459 1.393 . S
C2463 C2462 1.391 . S
H2464 C2472 0.950 . S
H2465 C2477 0.950 . S
H2466 C2474 0.950 . S
H2467 C2476 0.950 . S
H2468 C2478 0.950 . S
H2469 C2480 0.950 . S
H2470 C2482 0.950 . S
H2471 C2483 0.950 . S
C2472 H2464 0.950 . S
C2472 C2473 1.386 . S
C2472 C2474 1.391 . S
C2473 C2472 1.386 . S
C2473 C2477 1.393 . S
C2474 H2466 0.950 . S
C2474 C2472 1.391 . S
C2474 C2475 1.400 . S
C2475 C2474 1.400 . S
C2475 C2476 1.398 . S
C2475 C2481 1.491 . S
C2476 H2467 0.950 . S
C2476 C2475 1.398 . S
C2476 C2477 1.391 . S
C2477 H2465 0.950 . S
C2477 C2473 1.393 . S
C2477 C2476 1.391 . S
C2478 H2468 0.950 . S
C2478 C2479 1.386 . S
C2478 C2480 1.391 . S
C2479 C2478 1.386 . S
C2479 C2483 1.393 . S
C2480 H2469 0.950 . S
C2480 C2478 1.391 . S
C2480 C2481 1.400 . S
C2481 C2475 1.491 . S
C2481 C2480 1.400 . S
C2481 C2482 1.398 . S
C2482 H2470 0.950 . S
C2482 C2481 1.398 . S
C2482 C2483 1.391 . S
C2483 H2471 0.950 . S
C2483 C2479 1.393 . S
C2483 C2482 1.391 . S
H2484 C2492 0.950 . S
H2485 C2497 0.950 . S
H2486 C2494 0.950 . S
H2487 C2496 0.950 . S
H2488 C2498 0.950 . S
H2489 C2500 0.950 . S
H2490 C2502 0.950 . S
H2491 C2503 0.950 . S
C2492 H2484 0.950 . S
C2492 C2493 1.386 . S
C2492 C2494 1.391 . S
C2493 C2492 1.386 . S
C2493 C2497 1.393 . S
C2494 H2486 0.950 . S
C2494 C2492 1.391 . S
C2494 C2495 1.400 . S
C2495 C2494 1.400 . S
C2495 C2496 1.398 . S
C2495 C2501 1.491 . S
C2496 H2487 0.950 . S
C2496 C2495 1.398 . S
C2496 C2497 1.391 . S
C2497 H2485 0.950 . S
C2497 C2493 1.393 . S
C2497 C2496 1.391 . S
C2498 H2488 0.950 . S
C2498 C2499 1.386 1_556 S
C2498 C2500 1.391 . S
C2499 C2498 1.386 1_554 S
C2499 C2503 1.393 . S
C2500 H2489 0.950 . S
C2500 C2498 1.391 . S
C2500 C2501 1.400 . S
C2501 C2495 1.491 . S
C2501 C2500 1.400 . S
C2501 C2502 1.398 . S
C2502 H2490 0.950 . S
C2502 C2501 1.398 . S
C2502 C2503 1.391 1_556 S
C2503 H2491 0.950 . S
C2503 C2499 1.393 . S
C2503 C2502 1.391 1_554 S
H2504 C2512 0.950 . S
H2505 C2517 0.950 . S
H2506 C2514 0.950 . S
H2507 C2516 0.950 . S
H2508 C2518 0.950 . S
H2509 C2520 0.950 . S
H2510 C2522 0.950 . S
H2511 C2523 0.950 . S
C2512 H2504 0.950 . S
C2512 C2513 1.386 . S
C2512 C2514 1.391 . S
C2513 C2512 1.386 . S
C2513 C2517 1.393 . S
C2514 H2506 0.950 . S
C2514 C2512 1.391 . S
C2514 C2515 1.400 . S
C2515 C2514 1.400 . S
C2515 C2516 1.398 . S
C2515 C2521 1.491 . S
C2516 H2507 0.950 . S
C2516 C2515 1.398 . S
C2516 C2517 1.391 . S
C2517 H2505 0.950 . S
C2517 C2513 1.393 . S
C2517 C2516 1.391 . S
C2518 H2508 0.950 . S
C2518 C2519 1.386 . S
C2518 C2520 1.391 . S
C2519 C2518 1.386 . S
C2519 C2523 1.393 . S
C2520 H2509 0.950 . S
C2520 C2518 1.391 . S
C2520 C2521 1.400 . S
C2521 C2515 1.491 . S
C2521 C2520 1.400 . S
C2521 C2522 1.398 . S
C2522 H2510 0.950 . S
C2522 C2521 1.398 . S
C2522 C2523 1.391 . S
C2523 H2511 0.950 . S
C2523 C2519 1.393 . S
C2523 C2522 1.391 . S
H2524 C2532 0.950 . S
H2525 C2537 0.950 . S
H2526 C2534 0.950 . S
H2527 C2536 0.950 . S
H2528 C2538 0.950 . S
H2529 C2540 0.950 . S
H2530 C2542 0.950 . S
H2531 C2543 0.950 . S
C2532 H2524 0.950 . S
C2532 C2533 1.386 . S
C2532 C2534 1.391 . S
C2533 C2532 1.386 . S
C2533 C2537 1.393 . S
C2534 H2526 0.950 . S
C2534 C2532 1.391 . S
C2534 C2535 1.400 . S
C2535 C2534 1.400 . S
C2535 C2536 1.398 . S
C2535 C2541 1.491 . S
C2536 H2527 0.950 . S
C2536 C2535 1.398 . S
C2536 C2537 1.391 . S
C2537 H2525 0.950 . S
C2537 C2533 1.393 . S
C2537 C2536 1.391 . S
C2538 H2528 0.950 . S
C2538 C2539 1.386 . S
C2538 C2540 1.391 . S
C2539 C2538 1.386 . S
C2539 C2543 1.393 . S
C2540 H2529 0.950 . S
C2540 C2538 1.391 . S
C2540 C2541 1.400 . S
C2541 C2535 1.491 . S
C2541 C2540 1.400 . S
C2541 C2542 1.398 . S
C2542 H2530 0.950 . S
C2542 C2541 1.398 . S
C2542 C2543 1.391 . S
C2543 H2531 0.950 . S
C2543 C2539 1.393 . S
C2543 C2542 1.391 . S
H2544 C2552 0.950 . S
H2545 C2557 0.950 . S
H2546 C2554 0.950 . S
H2547 C2556 0.950 . S
H2548 C2558 0.950 . S
H2549 C2560 0.950 . S
H2550 C2562 0.950 . S
H2551 C2563 0.950 . S
C2552 H2544 0.950 . S
C2552 C2553 1.386 . S
C2552 C2554 1.391 . S
C2553 C2552 1.386 . S
C2553 C2557 1.393 . S
C2554 H2546 0.950 . S
C2554 C2552 1.391 . S
C2554 C2555 1.400 . S
C2555 C2554 1.400 . S
C2555 C2556 1.398 . S
C2555 C2561 1.491 . S
C2556 H2547 0.950 . S
C2556 C2555 1.398 . S
C2556 C2557 1.391 . S
C2557 H2545 0.950 . S
C2557 C2553 1.393 . S
C2557 C2556 1.391 . S
C2558 H2548 0.950 . S
C2558 C2559 1.386 . S
C2558 C2560 1.391 . S
C2559 C2558 1.386 . S
C2559 C2563 1.393 . S
C2560 H2549 0.950 . S
C2560 C2558 1.391 . S
C2560 C2561 1.400 . S
C2561 C2555 1.491 . S
C2561 C2560 1.400 . S
C2561 C2562 1.398 . S
C2562 H2550 0.950 . S
C2562 C2561 1.398 . S
C2562 C2563 1.391 . S
C2563 H2551 0.950 . S
C2563 C2559 1.393 . S
C2563 C2562 1.391 . S
H2564 C2572 0.950 . S
H2565 C2577 0.950 . S
H2566 C2574 0.950 . S
H2567 C2576 0.950 . S
H2568 C2578 0.950 . S
H2569 C2580 0.950 . S
H2570 C2582 0.950 . S
H2571 C2583 0.950 . S
C2572 H2564 0.950 . S
C2572 C2573 1.386 . S
C2572 C2574 1.391 . S
C2573 C2572 1.386 . S
C2573 C2577 1.393 . S
C2574 H2566 0.950 . S
C2574 C2572 1.391 . S
C2574 C2575 1.400 . S
C2575 C2574 1.400 . S
C2575 C2576 1.398 . S
C2575 C2581 1.491 . S
C2576 H2567 0.950 . S
C2576 C2575 1.398 . S
C2576 C2577 1.391 . S
C2577 H2565 0.950 . S
C2577 C2573 1.393 . S
C2577 C2576 1.391 . S
C2578 H2568 0.950 . S
C2578 C2579 1.386 1_554 S
C2578 C2580 1.391 . S
C2579 C2578 1.386 1_556 S
C2579 C2583 1.393 . S
C2580 H2569 0.950 . S
C2580 C2578 1.391 . S
C2580 C2581 1.400 . S
C2581 C2575 1.491 . S
C2581 C2580 1.400 . S
C2581 C2582 1.398 . S
C2582 H2570 0.950 . S
C2582 C2581 1.398 . S
C2582 C2583 1.391 1_554 S
C2583 H2571 0.950 . S
C2583 C2579 1.393 . S
C2583 C2582 1.391 1_556 S
H2584 C2592 0.950 . S
H2585 C2597 0.950 . S
H2586 C2594 0.950 . S
H2587 C2596 0.950 . S
H2588 C2598 0.950 . S
H2589 C2600 0.950 . S
H2590 C2602 0.950 . S
H2591 C2603 0.950 . S
C2592 H2584 0.950 . S
C2592 C2593 1.386 . S
C2592 C2594 1.391 . S
C2593 C2592 1.386 . S
C2593 C2597 1.393 . S
C2594 H2586 0.950 . S
C2594 C2592 1.391 . S
C2594 C2595 1.400 . S
C2595 C2594 1.400 . S
C2595 C2596 1.398 . S
C2595 C2601 1.491 . S
C2596 H2587 0.950 . S
C2596 C2595 1.398 . S
C2596 C2597 1.391 . S
C2597 H2585 0.950 . S
C2597 C2593 1.393 . S
C2597 C2596 1.391 . S
C2598 H2588 0.950 . S
C2598 C2599 1.386 . S
C2598 C2600 1.391 . S
C2599 C2598 1.386 . S
C2599 C2603 1.393 . S
C2600 H2589 0.950 . S
C2600 C2598 1.391 . S
C2600 C2601 1.400 . S
C2601 C2595 1.491 . S
C2601 C2600 1.400 . S
C2601 C2602 1.398 . S
C2602 H2590 0.950 . S
C2602 C2601 1.398 . S
C2602 C2603 1.391 . S
C2603 H2591 0.950 . S
C2603 C2599 1.393 . S
C2603 C2602 1.391 . S
H2604 C2612 0.950 . S
H2605 C2617 0.950 . S
H2606 C2614 0.950 . S
H2607 C2616 0.950 . S
H2608 C2618 0.950 . S
H2609 C2620 0.950 . S
H2610 C2622 0.950 . S
H2611 C2623 0.950 . S
C2612 H2604 0.950 . S
C2612 C2613 1.386 . S
C2612 C2614 1.391 . S
C2613 C2612 1.386 . S
C2613 C2617 1.393 . S
C2614 H2606 0.950 . S
C2614 C2612 1.391 . S
C2614 C2615 1.400 . S
C2615 C2614 1.400 . S
C2615 C2616 1.398 . S
C2615 C2621 1.491 . S
C2616 H2607 0.950 . S
C2616 C2615 1.398 . S
C2616 C2617 1.391 . S
C2617 H2605 0.950 . S
C2617 C2613 1.393 . S
C2617 C2616 1.391 . S
C2618 H2608 0.950 . S
C2618 C2619 1.386 . S
C2618 C2620 1.391 . S
C2619 C2618 1.386 . S
C2619 C2623 1.393 . S
C2620 H2609 0.950 . S
C2620 C2618 1.391 . S
C2620 C2621 1.400 . S
C2621 C2615 1.491 . S
C2621 C2620 1.400 . S
C2621 C2622 1.398 . S
C2622 H2610 0.950 . S
C2622 C2621 1.398 . S
C2622 C2623 1.391 . S
C2623 H2611 0.950 . S
C2623 C2619 1.393 . S
C2623 C2622 1.391 . S
H2624 C2632 0.950 . S
H2625 C2637 0.950 . S
H2626 C2634 0.950 . S
H2627 C2636 0.950 . S
H2628 C2638 0.950 . S
H2629 C2640 0.950 . S
H2630 C2642 0.950 . S
H2631 C2643 0.950 . S
C2632 H2624 0.950 . S
C2632 C2633 1.386 . S
C2632 C2634 1.391 . S
C2633 C2632 1.386 . S
C2633 C2637 1.393 . S
C2634 H2626 0.950 . S
C2634 C2632 1.391 . S
C2634 C2635 1.400 . S
C2635 C2634 1.400 . S
C2635 C2636 1.398 . S
C2635 C2641 1.491 . S
C2636 H2627 0.950 . S
C2636 C2635 1.398 . S
C2636 C2637 1.391 . S
C2637 H2625 0.950 . S
C2637 C2633 1.393 . S
C2637 C2636 1.391 . S
C2638 H2628 0.950 . S
C2638 C2639 1.386 . S
C2638 C2640 1.391 . S
C2639 C2638 1.386 . S
C2639 C2643 1.393 . S
C2640 H2629 0.950 . S
C2640 C2638 1.391 . S
C2640 C2641 1.400 . S
C2641 C2635 1.491 . S
C2641 C2640 1.400 . S
C2641 C2642 1.398 . S
C2642 H2630 0.950 . S
C2642 C2641 1.398 . S
C2642 C2643 1.391 . S
C2643 H2631 0.950 . S
C2643 C2639 1.393 . S
C2643 C2642 1.391 . S
H2644 C2652 0.950 . S
H2645 C2657 0.950 . S
H2646 C2654 0.950 . S
H2647 C2656 0.950 . S
H2648 C2658 0.950 . S
H2649 C2660 0.950 . S
H2650 C2662 0.950 . S
H2651 C2663 0.950 . S
C2652 H2644 0.950 . S
C2652 C2653 1.386 . S
C2652 C2654 1.391 . S
C2653 C2652 1.386 . S
C2653 C2657 1.393 . S
C2654 H2646 0.950 . S
C2654 C2652 1.391 . S
C2654 C2655 1.400 . S
C2655 C2654 1.400 . S
C2655 C2656 1.398 . S
C2655 C2661 1.491 . S
C2656 H2647 0.950 . S
C2656 C2655 1.398 . S
C2656 C2657 1.391 . S
C2657 H2645 0.950 . S
C2657 C2653 1.393 . S
C2657 C2656 1.391 . S
C2658 H2648 0.950 . S
C2658 C2659 1.386 . S
C2658 C2660 1.391 . S
C2659 C2658 1.386 . S
C2659 C2663 1.393 . S
C2660 H2649 0.950 . S
C2660 C2658 1.391 . S
C2660 C2661 1.400 . S
C2661 C2655 1.491 . S
C2661 C2660 1.400 . S
C2661 C2662 1.398 . S
C2662 H2650 0.950 . S
C2662 C2661 1.398 . S
C2662 C2663 1.391 . S
C2663 H2651 0.950 . S
C2663 C2659 1.393 . S
C2663 C2662 1.391 . S
H2664 C2672 0.950 . S
H2665 C2677 0.950 . S
H2666 C2674 0.950 . S
H2667 C2676 0.950 . S
H2668 C2678 0.950 . S
H2669 C2680 0.950 . S
H2670 C2682 0.950 . S
H2671 C2683 0.945 1_565 S
C2672 H2664 0.950 . S
C2672 C2673 1.386 . S
C2672 C2674 1.391 . S
C2673 C2672 1.386 . S
C2673 C2677 1.393 . S
C2674 H2666 0.950 . S
C2674 C2672 1.391 . S
C2674 C2675 1.400 . S
C2675 C2674 1.400 . S
C2675 C2676 1.398 . S
C2675 C2681 1.491 . S
C2676 H2667 0.950 . S
C2676 C2675 1.398 . S
C2676 C2677 1.391 . S
C2677 H2665 0.950 . S
C2677 C2673 1.393 . S
C2677 C2676 1.391 . S
C2678 H2668 0.950 . S
C2678 C2679 1.386 . S
C2678 C2680 1.391 . S
C2679 C2678 1.386 . S
C2679 C2683 1.413 . S
C2680 H2669 0.950 . S
C2680 C2678 1.391 . S
C2680 C2681 1.400 1_545 S
C2681 C2675 1.491 . S
C2681 C2680 1.400 1_565 S
C2681 C2682 1.398 . S
C2682 H2670 0.950 . S
C2682 C2681 1.398 . S
C2682 C2683 1.375 1_565 S
C2683 H2671 0.945 1_545 S
C2683 C2679 1.413 . S
C2683 C2682 1.375 1_545 S
H2684 C2692 0.950 . S
H2685 C2697 0.950 . S
H2686 C2694 0.950 . S
H2687 C2696 0.950 . S
H2688 C2698 0.950 . S
H2689 C2700 0.950 . S
H2690 C2702 0.950 . S
H2691 C2703 0.950 . S
C2692 H2684 0.950 . S
C2692 C2693 1.386 . S
C2692 C2694 1.391 . S
C2693 C2692 1.386 . S
C2693 C2697 1.393 . S
C2694 H2686 0.950 . S
C2694 C2692 1.391 . S
C2694 C2695 1.400 . S
C2695 C2694 1.400 . S
C2695 C2696 1.398 . S
C2695 C2701 1.491 . S
C2696 H2687 0.950 . S
C2696 C2695 1.398 . S
C2696 C2697 1.391 . S
C2697 H2685 0.950 . S
C2697 C2693 1.393 . S
C2697 C2696 1.391 . S
C2698 H2688 0.950 . S
C2698 C2699 1.386 . S
C2698 C2700 1.391 . S
C2699 C2698 1.386 . S
C2699 C2703 1.393 . S
C2700 H2689 0.950 . S
C2700 C2698 1.391 . S
C2700 C2701 1.400 . S
C2701 C2695 1.491 . S
C2701 C2700 1.400 . S
C2701 C2702 1.398 . S
C2702 H2690 0.950 . S
C2702 C2701 1.398 . S
C2702 C2703 1.391 . S
C2703 H2691 0.950 . S
C2703 C2699 1.393 . S
C2703 C2702 1.391 . S
H2704 C2712 0.950 . S
H2705 C2717 0.950 . S
H2706 C2714 0.950 . S
H2707 C2716 0.950 . S
H2708 C2718 0.950 . S
H2709 C2720 0.950 . S
H2710 C2722 0.950 . S
H2711 C2723 0.950 . S
C2712 H2704 0.950 . S
C2712 C2713 1.386 . S
C2712 C2714 1.391 . S
C2713 C2712 1.386 . S
C2713 C2717 1.393 . S
C2714 H2706 0.950 . S
C2714 C2712 1.391 . S
C2714 C2715 1.400 . S
C2715 C2714 1.400 . S
C2715 C2716 1.398 . S
C2715 C2721 1.491 . S
C2716 H2707 0.950 . S
C2716 C2715 1.398 . S
C2716 C2717 1.391 . S
C2717 H2705 0.950 . S
C2717 C2713 1.393 . S
C2717 C2716 1.391 . S
C2718 H2708 0.950 . S
C2718 C2719 1.386 . S
C2718 C2720 1.391 . S
C2719 C2718 1.386 . S
C2719 C2723 1.393 . S
C2720 H2709 0.950 . S
C2720 C2718 1.391 . S
C2720 C2721 1.400 . S
C2721 C2715 1.491 . S
C2721 C2720 1.400 . S
C2721 C2722 1.398 . S
C2722 H2710 0.950 . S
C2722 C2721 1.398 . S
C2722 C2723 1.391 . S
C2723 H2711 0.950 . S
C2723 C2719 1.393 . S
C2723 C2722 1.391 . S
H2724 C2732 0.950 . S
H2725 C2737 0.950 . S
H2726 C2734 0.950 . S
H2727 C2736 0.950 . S
H2728 C2738 0.950 . S
H2729 C2740 0.950 . S
H2730 C2742 0.950 . S
H2731 C2743 0.950 . S
C2732 H2724 0.950 . S
C2732 C2733 1.386 . S
C2732 C2734 1.391 . S
C2733 C2732 1.386 . S
C2733 C2737 1.393 . S
C2734 H2726 0.950 . S
C2734 C2732 1.391 . S
C2734 C2735 1.400 . S
C2735 C2734 1.400 . S
C2735 C2736 1.398 . S
C2735 C2741 1.491 . S
C2736 H2727 0.950 . S
C2736 C2735 1.398 . S
C2736 C2737 1.391 . S
C2737 H2725 0.950 . S
C2737 C2733 1.393 . S
C2737 C2736 1.391 . S
C2738 H2728 0.950 . S
C2738 C2739 1.386 . S
C2738 C2740 1.391 . S
C2739 C2738 1.386 . S
C2739 C2743 1.393 . S
C2740 H2729 0.950 . S
C2740 C2738 1.391 . S
C2740 C2741 1.400 . S
C2741 C2735 1.491 . S
C2741 C2740 1.400 . S
C2741 C2742 1.398 . S
C2742 H2730 0.950 . S
C2742 C2741 1.398 . S
C2742 C2743 1.391 . S
C2743 H2731 0.950 . S
C2743 C2739 1.393 . S
C2743 C2742 1.391 . S
H2744 C2752 0.959 . S
H2745 C2757 0.950 . S
H2746 C2754 0.950 . S
H2747 C2756 0.950 . S
H2748 C2758 0.950 . S
H2749 C2760 0.950 . S
H2750 C2762 0.950 . S
H2751 C2763 0.950 . S
C2752 H2744 0.959 . S
C2752 C2753 1.386 . S
C2752 C2754 1.391 1_565 S
C2753 C2752 1.386 . S
C2753 C2757 1.393 . S
C2754 H2746 0.950 . S
C2754 C2752 1.391 1_545 S
C2754 C2755 1.400 . S
C2755 C2754 1.400 . S
C2755 C2756 1.398 1_545 S
C2755 C2761 1.491 . S
C2756 H2747 0.950 . S
C2756 C2755 1.398 1_565 S
C2756 C2757 1.391 . S
C2757 H2745 0.950 . S
C2757 C2753 1.393 . S
C2757 C2756 1.391 . S
C2758 H2748 0.950 . S
C2758 C2759 1.386 . S
C2758 C2760 1.391 . S
C2759 C2758 1.386 . S
C2759 C2763 1.393 . S
C2760 H2749 0.950 . S
C2760 C2758 1.391 . S
C2760 C2761 1.400 . S
C2761 C2755 1.491 . S
C2761 C2760 1.400 . S
C2761 C2762 1.398 . S
C2762 H2750 0.950 . S
C2762 C2761 1.398 . S
C2762 C2763 1.391 . S
C2763 H2751 0.950 . S
C2763 C2759 1.393 . S
C2763 C2762 1.391 . S
H2764 C2772 0.950 . S
H2765 C2777 0.950 . S
H2766 C2774 0.950 . S
H2767 C2776 0.950 . S
H2768 C2778 0.950 . S
H2769 C2780 0.950 . S
H2770 C2782 0.950 . S
H2771 C2783 0.950 . S
C2772 H2764 0.950 . S
C2772 C2773 1.386 . S
C2772 C2774 1.391 1_545 S
C2773 C2772 1.386 . S
C2773 C2777 1.393 . S
C2774 H2766 0.950 . S
C2774 C2772 1.391 1_565 S
C2774 C2775 1.400 . S
C2775 C2774 1.400 . S
C2775 C2776 1.398 1_565 S
C2775 C2781 1.491 . S
C2776 H2767 0.950 . S
C2776 C2775 1.398 1_545 S
C2776 C2777 1.391 . S
C2777 H2765 0.950 . S
C2777 C2773 1.393 . S
C2777 C2776 1.391 . S
C2778 H2768 0.950 . S
C2778 C2779 1.386 . S
C2778 C2780 1.391 . S
C2779 C2778 1.386 . S
C2779 C2783 1.393 . S
C2780 H2769 0.950 . S
C2780 C2778 1.391 . S
C2780 C2781 1.400 . S
C2781 C2775 1.491 . S
C2781 C2780 1.400 . S
C2781 C2782 1.398 . S
C2782 H2770 0.950 . S
C2782 C2781 1.398 . S
C2782 C2783 1.391 . S
C2783 H2771 0.950 . S
C2783 C2779 1.393 . S
C2783 C2782 1.391 . S
H2784 C2792 0.950 . S
H2785 C2797 0.950 . S
H2786 C2794 0.950 . S
H2787 C2796 0.950 . S
H2788 C2798 0.950 . S
H2789 C2800 0.950 . S
H2790 C2802 0.950 . S
H2791 C2803 0.950 . S
C2792 H2784 0.950 . S
C2792 C2793 1.386 . S
C2792 C2794 1.391 . S
C2793 C2792 1.386 . S
C2793 C2797 1.393 . S
C2794 H2786 0.950 . S
C2794 C2792 1.391 . S
C2794 C2795 1.400 . S
C2795 C2794 1.400 . S
C2795 C2796 1.398 . S
C2795 C2801 1.491 . S
C2796 H2787 0.950 . S
C2796 C2795 1.398 . S
C2796 C2797 1.391 . S
C2797 H2785 0.950 . S
C2797 C2793 1.393 . S
C2797 C2796 1.391 . S
C2798 H2788 0.950 . S
C2798 C2799 1.386 . S
C2798 C2800 1.391 . S
C2799 C2798 1.386 . S
C2799 C2803 1.393 . S
C2800 H2789 0.950 . S
C2800 C2798 1.391 . S
C2800 C2801 1.400 . S
C2801 C2795 1.491 . S
C2801 C2800 1.400 . S
C2801 C2802 1.398 . S
C2802 H2790 0.950 . S
C2802 C2801 1.398 . S
C2802 C2803 1.391 . S
C2803 H2791 0.950 . S
C2803 C2799 1.393 . S
C2803 C2802 1.391 . S
H2804 C2812 0.950 . S
H2805 C2817 0.950 . S
H2806 C2814 0.950 . S
H2807 C2816 0.950 . S
H2808 C2818 0.950 . S
H2809 C2820 0.950 . S
H2810 C2822 0.950 . S
H2811 C2823 0.950 . S
C2812 H2804 0.950 . S
C2812 C2813 1.386 . S
C2812 C2814 1.391 . S
C2813 C2812 1.386 . S
C2813 C2817 1.393 . S
C2814 H2806 0.950 . S
C2814 C2812 1.391 . S
C2814 C2815 1.400 . S
C2815 C2814 1.400 . S
C2815 C2816 1.398 . S
C2815 C2821 1.491 . S
C2816 H2807 0.950 . S
C2816 C2815 1.398 . S
C2816 C2817 1.391 . S
C2817 H2805 0.950 . S
C2817 C2813 1.393 . S
C2817 C2816 1.391 . S
C2818 H2808 0.950 . S
C2818 C2819 1.386 . S
C2818 C2820 1.391 . S
C2819 C2818 1.386 . S
C2819 C2823 1.393 . S
C2820 H2809 0.950 . S
C2820 C2818 1.391 . S
C2820 C2821 1.400 . S
C2821 C2815 1.491 . S
C2821 C2820 1.400 . S
C2821 C2822 1.398 . S
C2822 H2810 0.950 . S
C2822 C2821 1.398 . S
C2822 C2823 1.391 . S
C2823 H2811 0.950 . S
C2823 C2819 1.393 . S
C2823 C2822 1.391 . S
H2824 C2832 0.950 . S
H2825 C2837 0.950 . S
H2826 C2834 0.950 . S
H2827 C2836 0.950 . S
H2828 C2838 0.950 . S
H2829 C2840 0.950 . S
H2830 C2842 0.950 . S
H2831 C2843 0.950 . S
C2832 H2824 0.950 . S
C2832 C2833 1.386 . S
C2832 C2834 1.391 . S
C2833 C2832 1.386 . S
C2833 C2837 1.393 . S
C2834 H2826 0.950 . S
C2834 C2832 1.391 . S
C2834 C2835 1.400 . S
C2835 C2834 1.400 . S
C2835 C2836 1.398 . S
C2835 C2841 1.491 . S
C2836 H2827 0.950 . S
C2836 C2835 1.398 . S
C2836 C2837 1.391 . S
C2837 H2825 0.950 . S
C2837 C2833 1.393 . S
C2837 C2836 1.391 . S
C2838 H2828 0.950 . S
C2838 C2839 1.386 . S
C2838 C2840 1.391 . S
C2839 C2838 1.386 . S
C2839 C2843 1.393 . S
C2840 H2829 0.950 . S
C2840 C2838 1.391 . S
C2840 C2841 1.400 . S
C2841 C2835 1.491 . S
C2841 C2840 1.400 . S
C2841 C2842 1.398 . S
C2842 H2830 0.950 . S
C2842 C2841 1.398 . S
C2842 C2843 1.391 . S
C2843 H2831 0.950 . S
C2843 C2839 1.393 . S
C2843 C2842 1.391 . S
H2844 C2852 0.950 . S
H2845 C2857 0.950 . S
H2846 C2854 0.950 . S
H2847 C2856 0.950 . S
H2848 C2858 0.950 . S
H2849 C2860 0.950 . S
H2850 C2862 0.950 . S
H2851 C2863 0.950 . S
C2852 H2844 0.950 . S
C2852 C2853 1.386 . S
C2852 C2854 1.391 . S
C2853 C2852 1.386 . S
C2853 C2857 1.393 . S
C2854 H2846 0.950 . S
C2854 C2852 1.391 . S
C2854 C2855 1.400 . S
C2855 C2854 1.400 . S
C2855 C2856 1.398 . S
C2855 C2861 1.491 . S
C2856 H2847 0.950 . S
C2856 C2855 1.398 . S
C2856 C2857 1.391 . S
C2857 H2845 0.950 . S
C2857 C2853 1.393 . S
C2857 C2856 1.391 . S
C2858 H2848 0.950 . S
C2858 C2859 1.386 . S
C2858 C2860 1.391 1_655 S
C2859 C2858 1.386 . S
C2859 C2863 1.393 . S
C2860 H2849 0.950 . S
C2860 C2858 1.391 1_455 S
C2860 C2861 1.400 . S
C2861 C2855 1.491 . S
C2861 C2860 1.400 . S
C2861 C2862 1.398 . S
C2862 H2850 0.950 . S
C2862 C2861 1.398 . S
C2862 C2863 1.391 1_455 S
C2863 H2851 0.950 . S
C2863 C2859 1.393 . S
C2863 C2862 1.391 1_655 S
H2864 C2872 0.950 . S
H2865 C2877 0.950 . S
H2866 C2874 0.950 . S
H2867 C2876 0.950 . S
H2868 C2878 0.950 . S
H2869 C2880 0.950 . S
H2870 C2882 0.950 . S
H2871 C2883 0.950 . S
C2872 H2864 0.950 . S
C2872 C2873 1.386 . S
C2872 C2874 1.391 . S
C2873 C2872 1.386 . S
C2873 C2877 1.393 . S
C2874 H2866 0.950 . S
C2874 C2872 1.391 . S
C2874 C2875 1.400 . S
C2875 C2874 1.400 . S
C2875 C2876 1.398 . S
C2875 C2881 1.491 . S
C2876 H2867 0.950 . S
C2876 C2875 1.398 . S
C2876 C2877 1.391 . S
C2877 H2865 0.950 . S
C2877 C2873 1.393 . S
C2877 C2876 1.391 . S
C2878 H2868 0.950 . S
C2878 C2879 1.386 . S
C2878 C2880 1.391 . S
C2879 C2878 1.386 . S
C2879 C2883 1.393 . S
C2880 H2869 0.950 . S
C2880 C2878 1.391 . S
C2880 C2881 1.400 . S
C2881 C2875 1.491 . S
C2881 C2880 1.400 . S
C2881 C2882 1.398 . S
C2882 H2870 0.950 . S
C2882 C2881 1.398 . S
C2882 C2883 1.391 . S
C2883 H2871 0.950 . S
C2883 C2879 1.393 . S
C2883 C2882 1.391 . S
H2884 C2892 0.950 . S
H2885 C2897 0.950 . S
H2886 C2894 0.950 . S
H2887 C2896 0.957 . S
H2888 C2898 0.950 . S
H2889 C2900 0.950 . S
H2890 C2902 0.950 . S
H2891 C2903 0.950 . S
C2892 H2884 0.950 . S
C2892 C2893 1.386 1_455 S
C2892 C2894 1.391 . S
C2893 C2892 1.386 1_655 S
C2893 C2897 1.393 . S
C2894 H2886 0.950 . S
C2894 C2892 1.391 . S
C2894 C2895 1.400 . S
C2895 C2894 1.400 . S
C2895 C2896 1.369 1_455 S
C2895 C2901 1.491 . S
C2896 H2887 0.957 . S
C2896 C2895 1.369 1_655 S
C2896 C2897 1.414 . S
C2897 H2885 0.950 . S
C2897 C2893 1.393 . S
C2897 C2896 1.414 . S
C2898 H2888 0.950 . S
C2898 C2899 1.386 . S
C2898 C2900 1.391 . S
C2899 C2898 1.386 . S
C2899 C2903 1.393 . S
C2900 H2889 0.950 . S
C2900 C2898 1.391 . S
C2900 C2901 1.400 . S
C2901 C2895 1.491 . S
C2901 C2900 1.400 . S
C2901 C2902 1.398 . S
C2902 H2890 0.950 . S
C2902 C2901 1.398 . S
C2902 C2903 1.391 . S
C2903 H2891 0.950 . S
C2903 C2899 1.393 . S
C2903 C2902 1.391 . S
H2904 C2912 0.950 . S
H2905 C2917 0.950 . S
H2906 C2914 0.950 . S
H2907 C2916 0.950 . S
H2908 C2918 0.950 . S
H2909 C2920 0.950 . S
H2910 C2922 0.950 . S
H2911 C2923 0.950 . S
C2912 H2904 0.950 . S
C2912 C2913 1.386 . S
C2912 C2914 1.391 . S
C2913 C2912 1.386 . S
C2913 C2917 1.393 . S
C2914 H2906 0.950 . S
C2914 C2912 1.391 . S
C2914 C2915 1.400 . S
C2915 C2914 1.400 . S
C2915 C2916 1.398 . S
C2915 C2921 1.491 . S
C2916 H2907 0.950 . S
C2916 C2915 1.398 . S
C2916 C2917 1.391 . S
C2917 H2905 0.950 . S
C2917 C2913 1.393 . S
C2917 C2916 1.391 . S
C2918 H2908 0.950 . S
C2918 C2919 1.386 . S
C2918 C2920 1.391 . S
C2919 C2918 1.386 . S
C2919 C2923 1.393 . S
C2920 H2909 0.950 . S
C2920 C2918 1.391 . S
C2920 C2921 1.400 . S
C2921 C2915 1.491 . S
C2921 C2920 1.400 . S
C2921 C2922 1.398 . S
C2922 H2910 0.950 . S
C2922 C2921 1.398 . S
C2922 C2923 1.391 . S
C2923 H2911 0.950 . S
C2923 C2919 1.393 . S
C2923 C2922 1.391 . S
H2924 C2932 0.950 . S
H2925 C2937 0.950 . S
H2926 C2934 0.950 . S
H2927 C2936 0.950 . S
H2928 C2938 0.950 . S
H2929 C2940 0.950 . S
H2930 C2942 0.950 . S
H2931 C2943 0.950 . S
C2932 H2924 0.950 . S
C2932 C2933 1.386 . S
C2932 C2934 1.391 . S
C2933 C2932 1.386 . S
C2933 C2937 1.393 . S
C2934 H2926 0.950 . S
C2934 C2932 1.391 . S
C2934 C2935 1.400 . S
C2935 C2934 1.400 . S
C2935 C2936 1.398 . S
C2935 C2941 1.491 . S
C2936 H2927 0.950 . S
C2936 C2935 1.398 . S
C2936 C2937 1.391 . S
C2937 H2925 0.950 . S
C2937 C2933 1.393 . S
C2937 C2936 1.391 . S
C2938 H2928 0.950 . S
C2938 C2939 1.386 . S
C2938 C2940 1.391 . S
C2939 C2938 1.386 . S
C2939 C2943 1.393 . S
C2940 H2929 0.950 . S
C2940 C2938 1.391 . S
C2940 C2941 1.400 . S
C2941 C2935 1.491 . S
C2941 C2940 1.400 . S
C2941 C2942 1.398 . S
C2942 H2930 0.950 . S
C2942 C2941 1.398 . S
C2942 C2943 1.391 . S
C2943 H2931 0.950 . S
C2943 C2939 1.393 . S
C2943 C2942 1.391 . S
H2944 C2952 0.950 . S
H2945 C2957 0.950 . S
H2946 C2954 0.950 . S
H2947 C2956 0.950 . S
H2948 C2958 0.950 . S
H2949 C2960 0.950 . S
H2950 C2962 0.950 . S
H2951 C2963 0.950 . S
C2952 H2944 0.950 . S
C2952 C2953 1.386 . S
C2952 C2954 1.391 . S
C2953 C2952 1.386 . S
C2953 C2957 1.393 . S
C2954 H2946 0.950 . S
C2954 C2952 1.391 . S
C2954 C2955 1.400 . S
C2955 C2954 1.400 . S
C2955 C2956 1.398 . S
C2955 C2961 1.491 . S
C2956 H2947 0.950 . S
C2956 C2955 1.398 . S
C2956 C2957 1.391 . S
C2957 H2945 0.950 . S
C2957 C2953 1.393 . S
C2957 C2956 1.391 . S
C2958 H2948 0.950 . S
C2958 C2959 1.386 . S
C2958 C2960 1.391 . S
C2959 C2958 1.386 . S
C2959 C2963 1.393 . S
C2960 H2949 0.950 . S
C2960 C2958 1.391 . S
C2960 C2961 1.400 . S
C2961 C2955 1.491 . S
C2961 C2960 1.400 . S
C2961 C2962 1.398 . S
C2962 H2950 0.950 . S
C2962 C2961 1.398 . S
C2962 C2963 1.391 . S
C2963 H2951 0.950 . S
C2963 C2959 1.393 . S
C2963 C2962 1.391 . S
H2964 C2972 0.950 . S
H2965 C2977 0.950 . S
H2966 C2974 0.950 . S
H2967 C2976 0.950 . S
H2968 C2978 0.950 . S
H2969 C2980 0.950 . S
H2970 C2982 0.950 . S
H2971 C2983 0.950 . S
C2972 H2964 0.950 . S
C2972 C2973 1.386 . S
C2972 C2974 1.391 . S
C2973 C2972 1.386 . S
C2973 C2977 1.393 1_556 S
C2974 H2966 0.950 . S
C2974 C2972 1.391 . S
C2974 C2975 1.400 1_556 S
C2975 C2974 1.400 1_554 S
C2975 C2976 1.398 . S
C2975 C2981 1.491 . S
C2976 H2967 0.950 . S
C2976 C2975 1.398 . S
C2976 C2977 1.391 . S
C2977 H2965 0.950 . S
C2977 C2973 1.393 1_554 S
C2977 C2976 1.391 . S
C2978 H2968 0.950 . S
C2978 C2979 1.386 . S
C2978 C2980 1.391 . S
C2979 C2978 1.386 . S
C2979 C2983 1.393 . S
C2980 H2969 0.950 . S
C2980 C2978 1.391 . S
C2980 C2981 1.400 . S
C2981 C2975 1.491 . S
C2981 C2980 1.400 . S
C2981 C2982 1.398 . S
C2982 H2970 0.950 . S
C2982 C2981 1.398 . S
C2982 C2983 1.391 . S
C2983 H2971 0.950 . S
C2983 C2979 1.393 . S
C2983 C2982 1.391 . S
H2984 C2992 0.950 . S
H2985 C2997 0.950 . S
H2986 C2994 0.950 . S
H2987 C2996 0.950 . S
H2988 C2998 0.950 . S
H2989 C3000 0.950 . S
H2990 C3002 0.950 . S
H2991 C3003 0.950 . S
C2992 H2984 0.950 . S
C2992 C2993 1.386 . S
C2992 C2994 1.391 . S
C2993 C2992 1.386 . S
C2993 C2997 1.393 . S
C2994 H2986 0.950 . S
C2994 C2992 1.391 . S
C2994 C2995 1.400 . S
C2995 C2994 1.400 . S
C2995 C2996 1.398 . S
C2995 C3001 1.491 . S
C2996 H2987 0.950 . S
C2996 C2995 1.398 . S
C2996 C2997 1.391 . S
C2997 H2985 0.950 . S
C2997 C2993 1.393 . S
C2997 C2996 1.391 . S
C2998 H2988 0.950 . S
C2998 C2999 1.386 . S
C2998 C3000 1.391 . S
C2999 C2998 1.386 . S
C2999 C3003 1.393 . S
C3000 H2989 0.950 . S
C3000 C2998 1.391 . S
C3000 C3001 1.400 . S
C3001 C2995 1.491 . S
C3001 C3000 1.400 . S
C3001 C3002 1.398 . S
C3002 H2990 0.950 . S
C3002 C3001 1.398 . S
C3002 C3003 1.391 . S
C3003 H2991 0.950 . S
C3003 C2999 1.393 . S
C3003 C3002 1.391 . S
H3004 C3012 0.950 . S
H3005 C3017 0.950 . S
H3006 C3014 0.950 . S
H3007 C3016 0.950 . S
H3008 C3018 0.950 . S
H3009 C3020 0.950 . S
H3010 C3022 0.950 . S
H3011 C3023 0.950 . S
C3012 H3004 0.950 . S
C3012 C3013 1.386 . S
C3012 C3014 1.391 . S
C3013 C3012 1.386 . S
C3013 C3017 1.393 . S
C3014 H3006 0.950 . S
C3014 C3012 1.391 . S
C3014 C3015 1.400 . S
C3015 C3014 1.400 . S
C3015 C3016 1.398 . S
C3015 C3021 1.491 . S
C3016 H3007 0.950 . S
C3016 C3015 1.398 . S
C3016 C3017 1.391 . S
C3017 H3005 0.950 . S
C3017 C3013 1.393 . S
C3017 C3016 1.391 . S
C3018 H3008 0.950 . S
C3018 C3019 1.386 . S
C3018 C3020 1.391 . S
C3019 C3018 1.386 . S
C3019 C3023 1.393 . S
C3020 H3009 0.950 . S
C3020 C3018 1.391 . S
C3020 C3021 1.400 . S
C3021 C3015 1.491 . S
C3021 C3020 1.400 . S
C3021 C3022 1.398 . S
C3022 H3010 0.950 . S
C3022 C3021 1.398 . S
C3022 C3023 1.391 . S
C3023 H3011 0.950 . S
C3023 C3019 1.393 . S
C3023 C3022 1.391 . S
H3024 C3032 0.950 . S
H3025 C3037 0.950 . S
H3026 C3034 0.950 . S
H3027 C3036 0.950 . S
H3028 C3038 0.950 . S
H3029 C3040 0.950 . S
H3030 C3042 0.950 . S
H3031 C3043 0.950 . S
C3032 H3024 0.950 . S
C3032 C3033 1.386 . S
C3032 C3034 1.391 . S
C3033 C3032 1.386 . S
C3033 C3037 1.393 . S
C3034 H3026 0.950 . S
C3034 C3032 1.391 . S
C3034 C3035 1.400 . S
C3035 C3034 1.400 . S
C3035 C3036 1.398 . S
C3035 C3041 1.491 . S
C3036 H3027 0.950 . S
C3036 C3035 1.398 . S
C3036 C3037 1.391 . S
C3037 H3025 0.950 . S
C3037 C3033 1.393 . S
C3037 C3036 1.391 . S
C3038 H3028 0.950 . S
C3038 C3039 1.386 . S
C3038 C3040 1.391 . S
C3039 C3038 1.386 . S
C3039 C3043 1.393 . S
C3040 H3029 0.950 . S
C3040 C3038 1.391 . S
C3040 C3041 1.400 . S
C3041 C3035 1.491 . S
C3041 C3040 1.400 . S
C3041 C3042 1.398 . S
C3042 H3030 0.950 . S
C3042 C3041 1.398 . S
C3042 C3043 1.391 . S
C3043 H3031 0.950 . S
C3043 C3039 1.393 . S
C3043 C3042 1.391 . S
H3044 C3052 0.950 . S
H3045 C3057 0.950 . S
H3046 C3054 0.950 . S
H3047 C3056 0.950 . S
H3048 C3058 0.950 . S
H3049 C3060 0.950 . S
H3050 C3062 0.950 . S
H3051 C3063 0.950 . S
C3052 H3044 0.950 . S
C3052 C3053 1.386 . S
C3052 C3054 1.391 1_554 S
C3053 C3052 1.386 . S
C3053 C3057 1.393 . S
C3054 H3046 0.950 . S
C3054 C3052 1.391 1_556 S
C3054 C3055 1.400 . S
C3055 C3054 1.400 . S
C3055 C3056 1.398 . S
C3055 C3061 1.491 . S
C3056 H3047 0.950 . S
C3056 C3055 1.398 . S
C3056 C3057 1.391 1_556 S
C3057 H3045 0.950 . S
C3057 C3053 1.393 . S
C3057 C3056 1.391 1_554 S
C3058 H3048 0.950 . S
C3058 C3059 1.386 . S
C3058 C3060 1.391 . S
C3059 C3058 1.386 . S
C3059 C3063 1.393 . S
C3060 H3049 0.950 . S
C3060 C3058 1.391 . S
C3060 C3061 1.400 . S
C3061 C3055 1.491 . S
C3061 C3060 1.400 . S
C3061 C3062 1.398 . S
C3062 H3050 0.950 . S
C3062 C3061 1.398 . S
C3062 C3063 1.391 . S
C3063 H3051 0.950 . S
C3063 C3059 1.393 . S
C3063 C3062 1.391 . S
H3064 C3072 0.950 . S
H3065 C3077 0.950 . S
H3066 C3074 0.950 . S
H3067 C3076 0.950 . S
H3068 C3078 0.950 . S
H3069 C3080 0.950 . S
H3070 C3082 0.950 . S
H3071 C3083 0.950 . S
C3072 H3064 0.950 . S
C3072 C3073 1.386 . S
C3072 C3074 1.391 . S
C3073 C3072 1.386 . S
C3073 C3077 1.393 . S
C3074 H3066 0.950 . S
C3074 C3072 1.391 . S
C3074 C3075 1.400 . S
C3075 C3074 1.400 . S
C3075 C3076 1.398 . S
C3075 C3081 1.491 . S
C3076 H3067 0.950 . S
C3076 C3075 1.398 . S
C3076 C3077 1.391 . S
C3077 H3065 0.950 . S
C3077 C3073 1.393 . S
C3077 C3076 1.391 . S
C3078 H3068 0.950 . S
C3078 C3079 1.386 . S
C3078 C3080 1.391 . S
C3079 C3078 1.386 . S
C3079 C3083 1.393 . S
C3080 H3069 0.950 . S
C3080 C3078 1.391 . S
C3080 C3081 1.400 . S
C3081 C3075 1.491 . S
C3081 C3080 1.400 . S
C3081 C3082 1.398 . S
C3082 H3070 0.950 . S
C3082 C3081 1.398 . S
C3082 C3083 1.391 . S
C3083 H3071 0.950 . S
C3083 C3079 1.393 . S
C3083 C3082 1.391 . S
H3084 C3092 0.950 . S
H3085 C3097 0.950 . S
H3086 C3094 0.950 . S
H3087 C3096 0.950 . S
H3088 C3098 0.950 . S
H3089 C3100 0.950 . S
H3090 C3102 0.950 . S
H3091 C3103 0.950 . S
C3092 H3084 0.950 . S
C3092 C3093 1.386 . S
C3092 C3094 1.391 . S
C3093 C3092 1.386 . S
C3093 C3097 1.393 . S
C3094 H3086 0.950 . S
C3094 C3092 1.391 . S
C3094 C3095 1.400 . S
C3095 C3094 1.400 . S
C3095 C3096 1.398 . S
C3095 C3101 1.491 . S
C3096 H3087 0.950 . S
C3096 C3095 1.398 . S
C3096 C3097 1.391 . S
C3097 H3085 0.950 . S
C3097 C3093 1.393 . S
C3097 C3096 1.391 . S
C3098 H3088 0.950 . S
C3098 C3099 1.386 . S
C3098 C3100 1.391 . S
C3099 C3098 1.386 . S
C3099 C3103 1.393 . S
C3100 H3089 0.950 . S
C3100 C3098 1.391 . S
C3100 C3101 1.400 . S
C3101 C3095 1.491 . S
C3101 C3100 1.400 . S
C3101 C3102 1.398 . S
C3102 H3090 0.950 . S
C3102 C3101 1.398 . S
C3102 C3103 1.391 . S
C3103 H3091 0.950 . S
C3103 C3099 1.393 . S
C3103 C3102 1.391 . S
H3104 C3112 0.950 . S
H3105 C3117 0.950 . S
H3106 C3114 0.950 . S
H3107 C3116 0.950 . S
H3108 C3118 0.950 . S
H3109 C3120 0.950 . S
H3110 C3122 0.950 . S
H3111 C3123 0.950 . S
C3112 H3104 0.950 . S
C3112 C3113 1.386 . S
C3112 C3114 1.391 . S
C3113 C3112 1.386 . S
C3113 C3117 1.393 . S
C3114 H3106 0.950 . S
C3114 C3112 1.391 . S
C3114 C3115 1.400 . S
C3115 C3114 1.400 . S
C3115 C3116 1.398 . S
C3115 C3121 1.491 . S
C3116 H3107 0.950 . S
C3116 C3115 1.398 . S
C3116 C3117 1.391 . S
C3117 H3105 0.950 . S
C3117 C3113 1.393 . S
C3117 C3116 1.391 . S
C3118 H3108 0.950 . S
C3118 C3119 1.386 . S
C3118 C3120 1.391 . S
C3119 C3118 1.386 . S
C3119 C3123 1.393 . S
C3120 H3109 0.950 . S
C3120 C3118 1.391 . S
C3120 C3121 1.400 . S
C3121 C3115 1.491 . S
C3121 C3120 1.400 . S
C3121 C3122 1.398 . S
C3122 H3110 0.950 . S
C3122 C3121 1.398 . S
C3122 C3123 1.391 . S
C3123 H3111 0.950 . S
C3123 C3119 1.393 . S
C3123 C3122 1.391 . S
H3124 C3132 0.950 . S
H3125 C3137 0.950 . S
H3126 C3134 0.950 . S
H3127 C3136 0.950 . S
H3128 C3138 0.950 . S
H3129 C3140 0.950 . S
H3130 C3142 0.950 . S
H3131 C3143 0.950 . S
C3132 H3124 0.950 . S
C3132 C3133 1.386 . S
C3132 C3134 1.391 . S
C3133 C3132 1.386 . S
C3133 C3137 1.393 . S
C3134 H3126 0.950 . S
C3134 C3132 1.391 . S
C3134 C3135 1.400 . S
C3135 C3134 1.400 . S
C3135 C3136 1.398 . S
C3135 C3141 1.491 . S
C3136 H3127 0.950 . S
C3136 C3135 1.398 . S
C3136 C3137 1.391 . S
C3137 H3125 0.950 . S
C3137 C3133 1.393 . S
C3137 C3136 1.391 . S
C3138 H3128 0.950 . S
C3138 C3139 1.386 . S
C3138 C3140 1.391 . S
C3139 C3138 1.386 . S
C3139 C3143 1.393 . S
C3140 H3129 0.950 . S
C3140 C3138 1.391 . S
C3140 C3141 1.400 . S
C3141 C3135 1.491 . S
C3141 C3140 1.400 . S
C3141 C3142 1.398 . S
C3142 H3130 0.950 . S
C3142 C3141 1.398 . S
C3142 C3143 1.391 . S
C3143 H3131 0.950 . S
C3143 C3139 1.393 . S
C3143 C3142 1.391 . S
H3144 C3152 0.942 1_545 S
H3145 C3157 0.950 . S
H3146 C3154 0.950 . S
H3147 C3156 0.950 . S
H3148 C3158 0.950 . S
H3149 C3160 0.950 . S
H3150 C3162 0.950 . S
H3151 C3163 0.950 . S
C3152 H3144 0.942 1_565 S
C3152 C3153 1.386 . S
C3152 C3154 1.391 1_565 S
C3153 C3152 1.386 . S
C3153 C3157 1.393 . S
C3154 H3146 0.950 . S
C3154 C3152 1.391 1_545 S
C3154 C3155 1.400 . S
C3155 C3154 1.400 . S
C3155 C3156 1.398 1_545 S
C3155 C3161 1.491 . S
C3156 H3147 0.950 . S
C3156 C3155 1.398 1_565 S
C3156 C3157 1.391 . S
C3157 H3145 0.950 . S
C3157 C3153 1.393 . S
C3157 C3156 1.391 . S
C3158 H3148 0.950 . S
C3158 C3159 1.386 . S
C3158 C3160 1.391 . S
C3159 C3158 1.386 . S
C3159 C3163 1.393 . S
C3160 H3149 0.950 . S
C3160 C3158 1.391 . S
C3160 C3161 1.400 . S
C3161 C3155 1.491 . S
C3161 C3160 1.400 . S
C3161 C3162 1.398 . S
C3162 H3150 0.950 . S
C3162 C3161 1.398 . S
C3162 C3163 1.391 . S
C3163 H3151 0.950 . S
C3163 C3159 1.393 . S
C3163 C3162 1.391 . S
H3164 C3172 0.950 . S
H3165 C3177 0.950 . S
H3166 C3174 0.950 . S
H3167 C3176 0.950 . S
H3168 C3178 0.950 . S
H3169 C3180 0.950 . S
H3170 C3182 0.950 . S
H3171 C3183 0.950 . S
C3172 H3164 0.950 . S
C3172 C3173 1.386 . S
C3172 C3174 1.391 . S
C3173 C3172 1.386 . S
C3173 C3177 1.393 . S
C3174 H3166 0.950 . S
C3174 C3172 1.391 . S
C3174 C3175 1.400 . S
C3175 C3174 1.400 . S
C3175 C3176 1.398 . S
C3175 C3181 1.491 . S
C3176 H3167 0.950 . S
C3176 C3175 1.398 . S
C3176 C3177 1.391 . S
C3177 H3165 0.950 . S
C3177 C3173 1.393 . S
C3177 C3176 1.391 . S
C3178 H3168 0.950 . S
C3178 C3179 1.386 . S
C3178 C3180 1.391 . S
C3179 C3178 1.386 . S
C3179 C3183 1.393 . S
C3180 H3169 0.950 . S
C3180 C3178 1.391 . S
C3180 C3181 1.400 . S
C3181 C3175 1.491 . S
C3181 C3180 1.400 . S
C3181 C3182 1.398 . S
C3182 H3170 0.950 . S
C3182 C3181 1.398 . S
C3182 C3183 1.391 . S
C3183 H3171 0.950 . S
C3183 C3179 1.393 . S
C3183 C3182 1.391 . S
H3184 C3192 0.950 . S
H3185 C3197 0.950 . S
H3186 C3194 0.950 . S
H3187 C3196 0.950 . S
H3188 C3198 0.950 . S
H3189 C3200 0.950 . S
H3190 C3202 0.950 . S
H3191 C3203 0.950 . S
C3192 H3184 0.950 . S
C3192 C3193 1.386 . S
C3192 C3194 1.391 . S
C3193 C3192 1.386 . S
C3193 C3197 1.393 . S
C3194 H3186 0.950 . S
C3194 C3192 1.391 . S
C3194 C3195 1.400 . S
C3195 C3194 1.400 . S
C3195 C3196 1.398 . S
C3195 C3201 1.491 . S
C3196 H3187 0.950 . S
C3196 C3195 1.398 . S
C3196 C3197 1.391 . S
C3197 H3185 0.950 . S
C3197 C3193 1.393 . S
C3197 C3196 1.391 . S
C3198 H3188 0.950 . S
C3198 C3199 1.386 . S
C3198 C3200 1.391 . S
C3199 C3198 1.386 . S
C3199 C3203 1.393 . S
C3200 H3189 0.950 . S
C3200 C3198 1.391 . S
C3200 C3201 1.400 . S
C3201 C3195 1.491 . S
C3201 C3200 1.400 . S
C3201 C3202 1.398 . S
C3202 H3190 0.950 . S
C3202 C3201 1.398 . S
C3202 C3203 1.391 . S
C3203 H3191 0.950 . S
C3203 C3199 1.393 . S
C3203 C3202 1.391 . S
H3204 C3212 0.950 . S
H3205 C3217 0.950 . S
H3206 C3214 0.950 . S
H3207 C3216 0.950 . S
H3208 C3218 0.950 . S
H3209 C3220 0.950 . S
H3210 C3222 0.950 . S
H3211 C3223 0.950 . S
C3212 H3204 0.950 . S
C3212 C3213 1.386 . S
C3212 C3214 1.391 . S
C3213 C3212 1.386 . S
C3213 C3217 1.393 . S
C3214 H3206 0.950 . S
C3214 C3212 1.391 . S
C3214 C3215 1.400 . S
C3215 C3214 1.400 . S
C3215 C3216 1.398 . S
C3215 C3221 1.491 . S
C3216 H3207 0.950 . S
C3216 C3215 1.398 . S
C3216 C3217 1.391 . S
C3217 H3205 0.950 . S
C3217 C3213 1.393 . S
C3217 C3216 1.391 . S
C3218 H3208 0.950 . S
C3218 C3219 1.386 . S
C3218 C3220 1.391 . S
C3219 C3218 1.386 . S
C3219 C3223 1.393 . S
C3220 H3209 0.950 . S
C3220 C3218 1.391 . S
C3220 C3221 1.400 . S
C3221 C3215 1.491 . S
C3221 C3220 1.400 . S
C3221 C3222 1.398 . S
C3222 H3210 0.950 . S
C3222 C3221 1.398 . S
C3222 C3223 1.391 . S
C3223 H3211 0.950 . S
C3223 C3219 1.393 . S
C3223 C3222 1.391 . S
H3224 C3232 0.950 . S
H3225 C3237 0.950 . S
H3226 C3234 0.950 . S
H3227 C3236 0.950 . S
H3228 C3238 0.950 . S
H3229 C3240 0.950 . S
H3230 C3242 0.958 . S
H3231 C3243 0.950 . S
C3232 H3224 0.950 . S
C3232 C3233 1.386 . S
C3232 C3234 1.391 . S
C3233 C3232 1.386 . S
C3233 C3237 1.393 . S
C3234 H3226 0.950 . S
C3234 C3232 1.391 . S
C3234 C3235 1.400 . S
C3235 C3234 1.400 . S
C3235 C3236 1.398 . S
C3235 C3241 1.491 . S
C3236 H3227 0.950 . S
C3236 C3235 1.398 . S
C3236 C3237 1.391 . S
C3237 H3225 0.950 . S
C3237 C3233 1.393 . S
C3237 C3236 1.391 . S
C3238 H3228 0.950 . S
C3238 C3239 1.386 . S
C3238 C3240 1.391 1_545 S
C3239 C3238 1.386 . S
C3239 C3243 1.393 . S
C3240 H3229 0.950 . S
C3240 C3238 1.391 1_565 S
C3240 C3241 1.400 . S
C3241 C3235 1.491 . S
C3241 C3240 1.400 . S
C3241 C3242 1.398 1_565 S
C3242 H3230 0.958 . S
C3242 C3241 1.398 1_545 S
C3242 C3243 1.391 . S
C3243 H3231 0.950 . S
C3243 C3239 1.393 . S
C3243 C3242 1.391 . S
H3244 C3252 0.950 . S
H3245 C3257 0.950 . S
H3246 C3254 0.950 . S
H3247 C3256 0.950 . S
H3248 C3258 0.950 . S
H3249 C3260 0.950 . S
H3250 C3262 0.950 . S
H3251 C3263 0.949 1_545 S
C3252 H3244 0.950 . S
C3252 C3253 1.386 . S
C3252 C3254 1.391 . S
C3253 C3252 1.386 . S
C3253 C3257 1.393 . S
C3254 H3246 0.950 . S
C3254 C3252 1.391 . S
C3254 C3255 1.400 . S
C3255 C3254 1.400 . S
C3255 C3256 1.398 . S
C3255 C3261 1.491 . S
C3256 H3247 0.950 . S
C3256 C3255 1.398 . S
C3256 C3257 1.391 . S
C3257 H3245 0.950 . S
C3257 C3253 1.393 . S
C3257 C3256 1.391 . S
C3258 H3248 0.950 . S
C3258 C3259 1.386 . S
C3258 C3260 1.391 . S
C3259 C3258 1.386 . S
C3259 C3263 1.396 . S
C3260 H3249 0.950 . S
C3260 C3258 1.391 . S
C3260 C3261 1.400 1_565 S
C3261 C3255 1.491 . S
C3261 C3260 1.400 1_545 S
C3261 C3262 1.398 . S
C3262 H3250 0.950 . S
C3262 C3261 1.398 . S
C3262 C3263 1.388 1_545 S
C3263 H3251 0.949 1_565 S
C3263 C3259 1.396 . S
C3263 C3262 1.388 1_565 S
H3264 C3272 0.950 . S
H3265 C3277 0.950 . S
H3266 C3274 0.950 . S
H3267 C3276 0.950 . S
H3268 C3278 0.950 . S
H3269 C3280 0.950 . S
H3270 C3282 0.950 . S
H3271 C3283 0.950 . S
C3272 H3264 0.950 . S
C3272 C3273 1.386 . S
C3272 C3274 1.391 . S
C3273 C3272 1.386 . S
C3273 C3277 1.393 . S
C3274 H3266 0.950 . S
C3274 C3272 1.391 . S
C3274 C3275 1.400 . S
C3275 C3274 1.400 . S
C3275 C3276 1.398 . S
C3275 C3281 1.491 . S
C3276 H3267 0.950 . S
C3276 C3275 1.398 . S
C3276 C3277 1.391 . S
C3277 H3265 0.950 . S
C3277 C3273 1.393 . S
C3277 C3276 1.391 . S
C3278 H3268 0.950 . S
C3278 C3279 1.386 . S
C3278 C3280 1.391 . S
C3279 C3278 1.386 . S
C3279 C3283 1.393 . S
C3280 H3269 0.950 . S
C3280 C3278 1.391 . S
C3280 C3281 1.400 . S
C3281 C3275 1.491 . S
C3281 C3280 1.400 . S
C3281 C3282 1.398 . S
C3282 H3270 0.950 . S
C3282 C3281 1.398 . S
C3282 C3283 1.391 . S
C3283 H3271 0.950 . S
C3283 C3279 1.393 . S
C3283 C3282 1.391 . S
H3284 C3292 0.950 . S
H3285 C3297 0.950 . S
H3286 C3294 0.950 . S
H3287 C3296 0.950 . S
H3288 C3298 0.950 . S
H3289 C3300 0.950 . S
H3290 C3302 0.950 . S
H3291 C3303 0.950 . S
C3292 H3284 0.950 . S
C3292 C3293 1.386 . S
C3292 C3294 1.391 . S
C3293 C3292 1.386 . S
C3293 C3297 1.393 . S
C3294 H3286 0.950 . S
C3294 C3292 1.391 . S
C3294 C3295 1.400 . S
C3295 C3294 1.400 . S
C3295 C3296 1.398 . S
C3295 C3301 1.491 . S
C3296 H3287 0.950 . S
C3296 C3295 1.398 . S
C3296 C3297 1.391 . S
C3297 H3285 0.950 . S
C3297 C3293 1.393 . S
C3297 C3296 1.391 . S
C3298 H3288 0.950 . S
C3298 C3299 1.386 . S
C3298 C3300 1.391 . S
C3299 C3298 1.386 . S
C3299 C3303 1.393 . S
C3300 H3289 0.950 . S
C3300 C3298 1.391 . S
C3300 C3301 1.400 . S
C3301 C3295 1.491 . S
C3301 C3300 1.400 . S
C3301 C3302 1.398 . S
C3302 H3290 0.950 . S
C3302 C3301 1.398 . S
C3302 C3303 1.391 . S
C3303 H3291 0.950 . S
C3303 C3299 1.393 . S
C3303 C3302 1.391 . S
H3304 C3312 0.950 . S
H3305 C3317 0.950 . S
H3306 C3314 0.950 . S
H3307 C3316 0.950 . S
H3308 C3318 0.950 . S
H3309 C3320 0.950 . S
H3310 C3322 0.950 . S
H3311 C3323 0.950 . S
C3312 H3304 0.950 . S
C3312 C3313 1.386 . S
C3312 C3314 1.391 . S
C3313 C3312 1.386 . S
C3313 C3317 1.393 . S
C3314 H3306 0.950 . S
C3314 C3312 1.391 . S
C3314 C3315 1.400 . S
C3315 C3314 1.400 . S
C3315 C3316 1.398 . S
C3315 C3321 1.491 . S
C3316 H3307 0.950 . S
C3316 C3315 1.398 . S
C3316 C3317 1.391 . S
C3317 H3305 0.950 . S
C3317 C3313 1.393 . S
C3317 C3316 1.391 . S
C3318 H3308 0.950 . S
C3318 C3319 1.386 . S
C3318 C3320 1.391 . S
C3319 C3318 1.386 . S
C3319 C3323 1.393 . S
C3320 H3309 0.950 . S
C3320 C3318 1.391 . S
C3320 C3321 1.400 . S
C3321 C3315 1.491 . S
C3321 C3320 1.400 . S
C3321 C3322 1.398 . S
C3322 H3310 0.950 . S
C3322 C3321 1.398 . S
C3322 C3323 1.391 . S
C3323 H3311 0.950 . S
C3323 C3319 1.393 . S
C3323 C3322 1.391 . S
H3324 C3332 0.950 . S
H3325 C3337 0.950 . S
H3326 C3334 0.950 . S
H3327 C3336 0.950 . S
H3328 C3338 0.950 . S
H3329 C3340 0.950 . S
H3330 C3342 0.950 . S
H3331 C3343 0.950 . S
C3332 H3324 0.950 . S
C3332 C3333 1.386 . S
C3332 C3334 1.391 . S
C3333 C3332 1.386 . S
C3333 C3337 1.393 . S
C3334 H3326 0.950 . S
C3334 C3332 1.391 . S
C3334 C3335 1.400 . S
C3335 C3334 1.400 . S
C3335 C3336 1.398 . S
C3335 C3341 1.491 . S
C3336 H3327 0.950 . S
C3336 C3335 1.398 . S
C3336 C3337 1.391 . S
C3337 H3325 0.950 . S
C3337 C3333 1.393 . S
C3337 C3336 1.391 . S
C3338 H3328 0.950 . S
C3338 C3339 1.386 . S
C3338 C3340 1.391 . S
C3339 C3338 1.386 . S
C3339 C3343 1.393 . S
C3340 H3329 0.950 . S
C3340 C3338 1.391 . S
C3340 C3341 1.400 . S
C3341 C3335 1.491 . S
C3341 C3340 1.400 . S
C3341 C3342 1.398 . S
C3342 H3330 0.950 . S
C3342 C3341 1.398 . S
C3342 C3343 1.391 . S
C3343 H3331 0.950 . S
C3343 C3339 1.393 . S
C3343 C3342 1.391 . S
H3344 C3352 0.950 . S
H3345 C3357 0.950 . S
H3346 C3354 0.950 . S
H3347 C3356 0.950 . S
H3348 C3358 0.950 . S
H3349 C3360 0.950 . S
H3350 C3362 0.950 . S
H3351 C3363 0.950 . S
C3352 H3344 0.950 . S
C3352 C3353 1.386 . S
C3352 C3354 1.391 . S
C3353 C3352 1.386 . S
C3353 C3357 1.393 . S
C3354 H3346 0.950 . S
C3354 C3352 1.391 . S
C3354 C3355 1.400 . S
C3355 C3354 1.400 . S
C3355 C3356 1.398 . S
C3355 C3361 1.491 . S
C3356 H3347 0.950 . S
C3356 C3355 1.398 . S
C3356 C3357 1.391 . S
C3357 H3345 0.950 . S
C3357 C3353 1.393 . S
C3357 C3356 1.391 . S
C3358 H3348 0.950 . S
C3358 C3359 1.386 . S
C3358 C3360 1.391 . S
C3359 C3358 1.386 . S
C3359 C3363 1.393 . S
C3360 H3349 0.950 . S
C3360 C3358 1.391 . S
C3360 C3361 1.400 . S
C3361 C3355 1.491 . S
C3361 C3360 1.400 . S
C3361 C3362 1.398 . S
C3362 H3350 0.950 . S
C3362 C3361 1.398 . S
C3362 C3363 1.391 . S
C3363 H3351 0.950 . S
C3363 C3359 1.393 . S
C3363 C3362 1.391 . S
H3364 C3372 0.950 . S
H3365 C3377 0.950 . S
H3366 C3374 0.950 . S
H3367 C3376 0.950 . S
H3368 C3378 0.950 . S
H3369 C3380 0.950 . S
H3370 C3382 0.950 . S
H3371 C3383 0.950 . S
C3372 H3364 0.950 . S
C3372 C3373 1.386 . S
C3372 C3374 1.391 . S
C3373 C3372 1.386 . S
C3373 C3377 1.393 . S
C3374 H3366 0.950 . S
C3374 C3372 1.391 . S
C3374 C3375 1.400 . S
C3375 C3374 1.400 . S
C3375 C3376 1.398 . S
C3375 C3381 1.491 . S
C3376 H3367 0.950 . S
C3376 C3375 1.398 . S
C3376 C3377 1.391 . S
C3377 H3365 0.950 . S
C3377 C3373 1.393 . S
C3377 C3376 1.391 . S
C3378 H3368 0.950 . S
C3378 C3379 1.386 . S
C3378 C3380 1.391 . S
C3379 C3378 1.386 . S
C3379 C3383 1.393 . S
C3380 H3369 0.950 . S
C3380 C3378 1.391 . S
C3380 C3381 1.400 . S
C3381 C3375 1.491 . S
C3381 C3380 1.400 . S
C3381 C3382 1.398 . S
C3382 H3370 0.950 . S
C3382 C3381 1.398 . S
C3382 C3383 1.391 . S
C3383 H3371 0.950 . S
C3383 C3379 1.393 . S
C3383 C3382 1.391 . S
H3384 C3392 0.950 . S
H3385 C3397 0.950 . S
H3386 C3394 0.950 . S
H3387 C3396 0.950 . S
H3388 C3398 0.950 . S
H3389 C3400 0.950 . S
H3390 C3402 0.950 . S
H3391 C3403 0.950 . S
C3392 H3384 0.950 . S
C3392 C3393 1.386 . S
C3392 C3394 1.391 . S
C3393 C3392 1.386 . S
C3393 C3397 1.393 . S
C3394 H3386 0.950 . S
C3394 C3392 1.391 . S
C3394 C3395 1.400 . S
C3395 C3394 1.400 . S
C3395 C3396 1.398 . S
C3395 C3401 1.491 . S
C3396 H3387 0.950 . S
C3396 C3395 1.398 . S
C3396 C3397 1.391 . S
C3397 H3385 0.950 . S
C3397 C3393 1.393 . S
C3397 C3396 1.391 . S
C3398 H3388 0.950 . S
C3398 C3399 1.386 . S
C3398 C3400 1.391 . S
C3399 C3398 1.386 . S
C3399 C3403 1.393 . S
C3400 H3389 0.950 . S
C3400 C3398 1.391 . S
C3400 C3401 1.400 . S
C3401 C3395 1.491 . S
C3401 C3400 1.400 . S
C3401 C3402 1.398 . S
C3402 H3390 0.950 . S
C3402 C3401 1.398 . S
C3402 C3403 1.391 . S
C3403 H3391 0.950 . S
C3403 C3399 1.393 . S
C3403 C3402 1.391 . S
H3404 C3412 0.950 . S
H3405 C3417 0.950 . S
H3406 C3414 0.950 . S
H3407 C3416 0.950 . S
H3408 C3418 0.950 . S
H3409 C3420 0.950 . S
H3410 C3422 0.950 . S
H3411 C3423 0.950 . S
C3412 H3404 0.950 . S
C3412 C3413 1.386 . S
C3412 C3414 1.391 . S
C3413 C3412 1.386 . S
C3413 C3417 1.393 . S
C3414 H3406 0.950 . S
C3414 C3412 1.391 . S
C3414 C3415 1.400 . S
C3415 C3414 1.400 . S
C3415 C3416 1.398 . S
C3415 C3421 1.491 . S
C3416 H3407 0.950 . S
C3416 C3415 1.398 . S
C3416 C3417 1.391 . S
C3417 H3405 0.950 . S
C3417 C3413 1.393 . S
C3417 C3416 1.391 . S
C3418 H3408 0.950 . S
C3418 C3419 1.386 . S
C3418 C3420 1.391 . S
C3419 C3418 1.386 . S
C3419 C3423 1.393 . S
C3420 H3409 0.950 . S
C3420 C3418 1.391 . S
C3420 C3421 1.400 . S
C3421 C3415 1.491 . S
C3421 C3420 1.400 . S
C3421 C3422 1.398 . S
C3422 H3410 0.950 . S
C3422 C3421 1.398 . S
C3422 C3423 1.391 . S
C3423 H3411 0.950 . S
C3423 C3419 1.393 . S
C3423 C3422 1.391 . S
H3424 C3432 0.950 . S
H3425 C3437 0.950 . S
H3426 C3434 0.950 . S
H3427 C3436 0.950 . S
H3428 C3438 0.950 . S
H3429 C3440 0.950 . S
H3430 C3442 0.950 . S
H3431 C3443 0.950 . S
C3432 H3424 0.950 . S
C3432 C3433 1.386 . S
C3432 C3434 1.391 . S
C3433 C3432 1.386 . S
C3433 C3437 1.393 . S
C3434 H3426 0.950 . S
C3434 C3432 1.391 . S
C3434 C3435 1.400 . S
C3435 C3434 1.400 . S
C3435 C3436 1.398 . S
C3435 C3441 1.491 . S
C3436 H3427 0.950 . S
C3436 C3435 1.398 . S
C3436 C3437 1.391 . S
C3437 H3425 0.950 . S
C3437 C3433 1.393 . S
C3437 C3436 1.391 . S
C3438 H3428 0.950 . S
C3438 C3439 1.386 . S
C3438 C3440 1.391 . S
C3439 C3438 1.386 . S
C3439 C3443 1.393 . S
C3440 H3429 0.950 . S
C3440 C3438 1.391 . S
C3440 C3441 1.400 . S
C3441 C3435 1.491 . S
C3441 C3440 1.400 . S
C3441 C3442 1.398 . S
C3442 H3430 0.950 . S
C3442 C3441 1.398 . S
C3442 C3443 1.391 . S
C3443 H3431 0.950 . S
C3443 C3439 1.393 . S
C3443 C3442 1.391 . S
H3444 C3452 0.950 . S
H3445 C3457 0.950 . S
H3446 C3454 0.950 . S
H3447 C3456 0.950 . S
H3448 C3458 0.950 . S
H3449 C3460 0.950 . S
H3450 C3462 0.950 . S
H3451 C3463 0.950 . S
C3452 H3444 0.950 . S
C3452 C3453 1.386 . S
C3452 C3454 1.391 . S
C3453 C3452 1.386 . S
C3453 C3457 1.393 . S
C3454 H3446 0.950 . S
C3454 C3452 1.391 . S
C3454 C3455 1.400 . S
C3455 C3454 1.400 . S
C3455 C3456 1.398 . S
C3455 C3461 1.491 . S
C3456 H3447 0.950 . S
C3456 C3455 1.398 . S
C3456 C3457 1.391 . S
C3457 H3445 0.950 . S
C3457 C3453 1.393 . S
C3457 C3456 1.391 . S
C3458 H3448 0.950 . S
C3458 C3459 1.386 . S
C3458 C3460 1.391 . S
C3459 C3458 1.386 . S
C3459 C3463 1.393 . S
C3460 H3449 0.950 . S
C3460 C3458 1.391 . S
C3460 C3461 1.400 . S
C3461 C3455 1.491 . S
C3461 C3460 1.400 . S
C3461 C3462 1.398 . S
C3462 H3450 0.950 . S
C3462 C3461 1.398 . S
C3462 C3463 1.391 . S
C3463 H3451 0.950 . S
C3463 C3459 1.393 . S
C3463 C3462 1.391 . S
H3464 C3472 0.950 . S
H3465 C3477 0.950 . S
H3466 C3474 0.950 . S
H3467 C3476 0.950 . S
H3468 C3478 0.950 . S
H3469 C3480 0.950 . S
H3470 C3482 0.950 . S
H3471 C3483 0.950 . S
C3472 H3464 0.950 . S
C3472 C3473 1.386 . S
C3472 C3474 1.391 . S
C3473 C3472 1.386 . S
C3473 C3477 1.393 . S
C3474 H3466 0.950 . S
C3474 C3472 1.391 . S
C3474 C3475 1.400 . S
C3475 C3474 1.400 . S
C3475 C3476 1.398 . S
C3475 C3481 1.491 . S
C3476 H3467 0.950 . S
C3476 C3475 1.398 . S
C3476 C3477 1.391 . S
C3477 H3465 0.950 . S
C3477 C3473 1.393 . S
C3477 C3476 1.391 . S
C3478 H3468 0.950 . S
C3478 C3479 1.386 . S
C3478 C3480 1.391 . S
C3479 C3478 1.386 . S
C3479 C3483 1.393 . S
C3480 H3469 0.950 . S
C3480 C3478 1.391 . S
C3480 C3481 1.400 . S
C3481 C3475 1.491 . S
C3481 C3480 1.400 . S
C3481 C3482 1.398 . S
C3482 H3470 0.950 . S
C3482 C3481 1.398 . S
C3482 C3483 1.391 . S
C3483 H3471 0.950 . S
C3483 C3479 1.393 . S
C3483 C3482 1.391 . S
H3484 C3492 0.950 . S
H3485 C3497 0.950 . S
H3486 C3494 0.950 . S
H3487 C3496 0.950 . S
H3488 C3498 0.950 . S
H3489 C3500 0.950 . S
H3490 C3502 0.950 . S
H3491 C3503 0.950 . S
C3492 H3484 0.950 . S
C3492 C3493 1.386 . S
C3492 C3494 1.391 . S
C3493 C3492 1.386 . S
C3493 C3497 1.393 . S
C3494 H3486 0.950 . S
C3494 C3492 1.391 . S
C3494 C3495 1.400 . S
C3495 C3494 1.400 . S
C3495 C3496 1.398 . S
C3495 C3501 1.491 . S
C3496 H3487 0.950 . S
C3496 C3495 1.398 . S
C3496 C3497 1.391 . S
C3497 H3485 0.950 . S
C3497 C3493 1.393 . S
C3497 C3496 1.391 . S
C3498 H3488 0.950 . S
C3498 C3499 1.386 . S
C3498 C3500 1.391 . S
C3499 C3498 1.386 . S
C3499 C3503 1.393 . S
C3500 H3489 0.950 . S
C3500 C3498 1.391 . S
C3500 C3501 1.400 . S
C3501 C3495 1.491 . S
C3501 C3500 1.400 . S
C3501 C3502 1.398 . S
C3502 H3490 0.950 . S
C3502 C3501 1.398 . S
C3502 C3503 1.391 . S
C3503 H3491 0.950 . S
C3503 C3499 1.393 . S
C3503 C3502 1.391 . S
H3504 C3512 0.950 . S
H3505 C3517 0.950 . S
H3506 C3514 0.950 . S
H3507 C3516 0.950 . S
H3508 C3518 0.950 . S
H3509 C3520 0.950 . S
H3510 C3522 0.950 . S
H3511 C3523 0.950 . S
C3512 H3504 0.950 . S
C3512 C3513 1.386 . S
C3512 C3514 1.391 . S
C3513 C3512 1.386 . S
C3513 C3517 1.393 . S
C3514 H3506 0.950 . S
C3514 C3512 1.391 . S
C3514 C3515 1.400 . S
C3515 C3514 1.400 . S
C3515 C3516 1.398 . S
C3515 C3521 1.491 . S
C3516 H3507 0.950 . S
C3516 C3515 1.398 . S
C3516 C3517 1.391 . S
C3517 H3505 0.950 . S
C3517 C3513 1.393 . S
C3517 C3516 1.391 . S
C3518 H3508 0.950 . S
C3518 C3519 1.386 . S
C3518 C3520 1.391 . S
C3519 C3518 1.386 . S
C3519 C3523 1.393 . S
C3520 H3509 0.950 . S
C3520 C3518 1.391 . S
C3520 C3521 1.400 . S
C3521 C3515 1.491 . S
C3521 C3520 1.400 . S
C3521 C3522 1.398 . S
C3522 H3510 0.950 . S
C3522 C3521 1.398 . S
C3522 C3523 1.391 . S
C3523 H3511 0.950 . S
C3523 C3519 1.393 . S
C3523 C3522 1.391 . S
H3524 C3532 0.950 . S
H3525 C3537 0.950 . S
H3526 C3534 0.950 . S
H3527 C3536 0.950 . S
H3528 C3538 0.950 . S
H3529 C3540 0.950 . S
H3530 C3542 0.950 . S
H3531 C3543 0.950 . S
C3532 H3524 0.950 . S
C3532 C3533 1.386 . S
C3532 C3534 1.391 . S
C3533 C3532 1.386 . S
C3533 C3537 1.393 . S
C3534 H3526 0.950 . S
C3534 C3532 1.391 . S
C3534 C3535 1.400 . S
C3535 C3534 1.400 . S
C3535 C3536 1.398 . S
C3535 C3541 1.491 . S
C3536 H3527 0.950 . S
C3536 C3535 1.398 . S
C3536 C3537 1.391 . S
C3537 H3525 0.950 . S
C3537 C3533 1.393 . S
C3537 C3536 1.391 . S
C3538 H3528 0.950 . S
C3538 C3539 1.386 . S
C3538 C3540 1.391 . S
C3539 C3538 1.386 . S
C3539 C3543 1.393 . S
C3540 H3529 0.950 . S
C3540 C3538 1.391 . S
C3540 C3541 1.400 . S
C3541 C3535 1.491 . S
C3541 C3540 1.400 . S
C3541 C3542 1.398 . S
C3542 H3530 0.950 . S
C3542 C3541 1.398 . S
C3542 C3543 1.391 . S
C3543 H3531 0.950 . S
C3543 C3539 1.393 . S
C3543 C3542 1.391 . S
H3544 C3552 0.950 . S
H3545 C3557 0.950 . S
H3546 C3554 0.950 . S
H3547 C3556 0.950 . S
H3548 C3558 0.950 . S
H3549 C3560 0.950 . S
H3550 C3562 0.950 . S
H3551 C3563 0.950 . S
C3552 H3544 0.950 . S
C3552 C3553 1.386 . S
C3552 C3554 1.391 . S
C3553 C3552 1.386 . S
C3553 C3557 1.393 . S
C3554 H3546 0.950 . S
C3554 C3552 1.391 . S
C3554 C3555 1.400 . S
C3555 C3554 1.400 . S
C3555 C3556 1.398 . S
C3555 C3561 1.491 . S
C3556 H3547 0.950 . S
C3556 C3555 1.398 . S
C3556 C3557 1.391 . S
C3557 H3545 0.950 . S
C3557 C3553 1.393 . S
C3557 C3556 1.391 . S
C3558 H3548 0.950 . S
C3558 C3559 1.386 . S
C3558 C3560 1.391 . S
C3559 C3558 1.386 . S
C3559 C3563 1.393 . S
C3560 H3549 0.950 . S
C3560 C3558 1.391 . S
C3560 C3561 1.400 . S
C3561 C3555 1.491 . S
C3561 C3560 1.400 . S
C3561 C3562 1.398 . S
C3562 H3550 0.950 . S
C3562 C3561 1.398 . S
C3562 C3563 1.391 . S
C3563 H3551 0.950 . S
C3563 C3559 1.393 . S
C3563 C3562 1.391 . S
H3564 C3572 0.950 . S
H3565 C3577 0.950 . S
H3566 C3574 0.950 . S
H3567 C3576 0.950 . S
H3568 C3578 0.950 . S
H3569 C3580 0.950 . S
H3570 C3582 0.950 . S
H3571 C3583 0.950 . S
C3572 H3564 0.950 . S
C3572 C3573 1.386 . S
C3572 C3574 1.391 . S
C3573 C3572 1.386 . S
C3573 C3577 1.393 . S
C3574 H3566 0.950 . S
C3574 C3572 1.391 . S
C3574 C3575 1.400 . S
C3575 C3574 1.400 . S
C3575 C3576 1.398 . S
C3575 C3581 1.491 . S
C3576 H3567 0.950 . S
C3576 C3575 1.398 . S
C3576 C3577 1.391 . S
C3577 H3565 0.950 . S
C3577 C3573 1.393 . S
C3577 C3576 1.391 . S
C3578 H3568 0.950 . S
C3578 C3579 1.386 . S
C3578 C3580 1.391 . S
C3579 C3578 1.386 . S
C3579 C3583 1.393 . S
C3580 H3569 0.950 . S
C3580 C3578 1.391 . S
C3580 C3581 1.400 . S
C3581 C3575 1.491 . S
C3581 C3580 1.400 . S
C3581 C3582 1.398 . S
C3582 H3570 0.950 . S
C3582 C3581 1.398 . S
C3582 C3583 1.391 . S
C3583 H3571 0.950 . S
C3583 C3579 1.393 . S
C3583 C3582 1.391 . S
H3584 C3592 0.950 . S
H3585 C3597 0.950 . S
H3586 C3594 0.950 . S
H3587 C3596 0.950 . S
H3588 C3598 0.950 . S
H3589 C3600 0.950 . S
H3590 C3602 0.950 . S
H3591 C3603 0.950 . S
C3592 H3584 0.950 . S
C3592 C3593 1.386 . S
C3592 C3594 1.391 . S
C3593 C3592 1.386 . S
C3593 C3597 1.393 . S
C3594 H3586 0.950 . S
C3594 C3592 1.391 . S
C3594 C3595 1.400 . S
C3595 C3594 1.400 . S
C3595 C3596 1.398 . S
C3595 C3601 1.491 . S
C3596 H3587 0.950 . S
C3596 C3595 1.398 . S
C3596 C3597 1.391 . S
C3597 H3585 0.950 . S
C3597 C3593 1.393 . S
C3597 C3596 1.391 . S
C3598 H3588 0.950 . S
C3598 C3599 1.386 . S
C3598 C3600 1.391 . S
C3599 C3598 1.386 . S
C3599 C3603 1.393 . S
C3600 H3589 0.950 . S
C3600 C3598 1.391 . S
C3600 C3601 1.400 . S
C3601 C3595 1.491 . S
C3601 C3600 1.400 . S
C3601 C3602 1.398 . S
C3602 H3590 0.950 . S
C3602 C3601 1.398 . S
C3602 C3603 1.391 . S
C3603 H3591 0.950 . S
C3603 C3599 1.393 . S
C3603 C3602 1.391 . S
H3604 C3612 0.950 . S
H3605 C3617 0.950 . S
H3606 C3614 0.950 . S
H3607 C3616 0.950 . S
H3608 C3618 0.950 . S
H3609 C3620 0.950 . S
H3610 C3622 0.950 . S
H3611 C3623 0.950 . S
C3612 H3604 0.950 . S
C3612 C3613 1.386 . S
C3612 C3614 1.391 . S
C3613 C3612 1.386 . S
C3613 C3617 1.393 . S
C3614 H3606 0.950 . S
C3614 C3612 1.391 . S
C3614 C3615 1.400 . S
C3615 C3614 1.400 . S
C3615 C3616 1.398 . S
C3615 C3621 1.491 . S
C3616 H3607 0.950 . S
C3616 C3615 1.398 . S
C3616 C3617 1.391 . S
C3617 H3605 0.950 . S
C3617 C3613 1.393 . S
C3617 C3616 1.391 . S
C3618 H3608 0.950 . S
C3618 C3619 1.386 . S
C3618 C3620 1.391 . S
C3619 C3618 1.386 . S
C3619 C3623 1.393 . S
C3620 H3609 0.950 . S
C3620 C3618 1.391 . S
C3620 C3621 1.400 . S
C3621 C3615 1.491 . S
C3621 C3620 1.400 . S
C3621 C3622 1.398 . S
C3622 H3610 0.950 . S
C3622 C3621 1.398 . S
C3622 C3623 1.391 . S
C3623 H3611 0.950 . S
C3623 C3619 1.393 . S
C3623 C3622 1.391 . S
H3624 C3632 0.950 . S
H3625 C3637 0.950 . S
H3626 C3634 0.950 . S
H3627 C3636 0.950 . S
H3628 C3638 0.950 . S
H3629 C3640 0.950 . S
H3630 C3642 0.950 . S
H3631 C3643 0.950 . S
C3632 H3624 0.950 . S
C3632 C3633 1.386 . S
C3632 C3634 1.391 . S
C3633 C3632 1.386 . S
C3633 C3637 1.393 . S
C3634 H3626 0.950 . S
C3634 C3632 1.391 . S
C3634 C3635 1.400 . S
C3635 C3634 1.400 . S
C3635 C3636 1.398 . S
C3635 C3641 1.491 . S
C3636 H3627 0.950 . S
C3636 C3635 1.398 . S
C3636 C3637 1.391 . S
C3637 H3625 0.950 . S
C3637 C3633 1.393 . S
C3637 C3636 1.391 . S
C3638 H3628 0.950 . S
C3638 C3639 1.386 . S
C3638 C3640 1.391 . S
C3639 C3638 1.386 . S
C3639 C3643 1.393 . S
C3640 H3629 0.950 . S
C3640 C3638 1.391 . S
C3640 C3641 1.400 . S
C3641 C3635 1.491 . S
C3641 C3640 1.400 . S
C3641 C3642 1.398 . S
C3642 H3630 0.950 . S
C3642 C3641 1.398 . S
C3642 C3643 1.391 . S
C3643 H3631 0.950 . S
C3643 C3639 1.393 . S
C3643 C3642 1.391 . S
H3644 C3652 0.950 . S
H3645 C3657 0.950 . S
H3646 C3654 0.950 . S
H3647 C3656 0.950 . S
H3648 C3658 0.950 . S
H3649 C3660 0.950 . S
H3650 C3662 0.950 . S
H3651 C3663 0.950 . S
C3652 H3644 0.950 . S
C3652 C3653 1.386 . S
C3652 C3654 1.391 . S
C3653 C3652 1.386 . S
C3653 C3657 1.393 . S
C3654 H3646 0.950 . S
C3654 C3652 1.391 . S
C3654 C3655 1.400 . S
C3655 C3654 1.400 . S
C3655 C3656 1.398 . S
C3655 C3661 1.491 . S
C3656 H3647 0.950 . S
C3656 C3655 1.398 . S
C3656 C3657 1.391 . S
C3657 H3645 0.950 . S
C3657 C3653 1.393 . S
C3657 C3656 1.391 . S
C3658 H3648 0.950 . S
C3658 C3659 1.386 . S
C3658 C3660 1.391 . S
C3659 C3658 1.386 . S
C3659 C3663 1.393 . S
C3660 H3649 0.950 . S
C3660 C3658 1.391 . S
C3660 C3661 1.400 . S
C3661 C3655 1.491 . S
C3661 C3660 1.400 . S
C3661 C3662 1.398 . S
C3662 H3650 0.950 . S
C3662 C3661 1.398 . S
C3662 C3663 1.391 . S
C3663 H3651 0.950 . S
C3663 C3659 1.393 . S
C3663 C3662 1.391 . S
H3664 C3672 0.950 . S
H3665 C3677 0.950 . S
H3666 C3674 0.950 . S
H3667 C3676 0.950 . S
H3668 C3678 0.950 . S
H3669 C3680 0.950 . S
H3670 C3682 0.950 . S
H3671 C3683 0.950 . S
C3672 H3664 0.950 . S
C3672 C3673 1.386 . S
C3672 C3674 1.391 . S
C3673 C3672 1.386 . S
C3673 C3677 1.393 . S
C3674 H3666 0.950 . S
C3674 C3672 1.391 . S
C3674 C3675 1.400 . S
C3675 C3674 1.400 . S
C3675 C3676 1.398 . S
C3675 C3681 1.491 . S
C3676 H3667 0.950 . S
C3676 C3675 1.398 . S
C3676 C3677 1.391 . S
C3677 H3665 0.950 . S
C3677 C3673 1.393 . S
C3677 C3676 1.391 . S
C3678 H3668 0.950 . S
C3678 C3679 1.386 . S
C3678 C3680 1.391 . S
C3679 C3678 1.386 . S
C3679 C3683 1.393 . S
C3680 H3669 0.950 . S
C3680 C3678 1.391 . S
C3680 C3681 1.400 . S
C3681 C3675 1.491 . S
C3681 C3680 1.400 . S
C3681 C3682 1.398 . S
C3682 H3670 0.950 . S
C3682 C3681 1.398 . S
C3682 C3683 1.391 . S
C3683 H3671 0.950 . S
C3683 C3679 1.393 . S
C3683 C3682 1.391 . S
H3684 C3692 0.950 . S
H3685 C3697 0.950 . S
H3686 C3694 0.950 . S
H3687 C3696 0.950 . S
H3688 C3698 0.950 . S
H3689 C3700 0.950 . S
H3690 C3702 0.950 . S
H3691 C3703 0.950 . S
C3692 H3684 0.950 . S
C3692 C3693 1.386 . S
C3692 C3694 1.391 . S
C3693 C3692 1.386 . S
C3693 C3697 1.393 . S
C3694 H3686 0.950 . S
C3694 C3692 1.391 . S
C3694 C3695 1.400 . S
C3695 C3694 1.400 . S
C3695 C3696 1.398 . S
C3695 C3701 1.491 . S
C3696 H3687 0.950 . S
C3696 C3695 1.398 . S
C3696 C3697 1.391 . S
C3697 H3685 0.950 . S
C3697 C3693 1.393 . S
C3697 C3696 1.391 . S
C3698 H3688 0.950 . S
C3698 C3699 1.386 . S
C3698 C3700 1.391 . S
C3699 C3698 1.386 . S
C3699 C3703 1.393 . S
C3700 H3689 0.950 . S
C3700 C3698 1.391 . S
C3700 C3701 1.400 . S
C3701 C3695 1.491 . S
C3701 C3700 1.400 . S
C3701 C3702 1.398 . S
C3702 H3690 0.950 . S
C3702 C3701 1.398 . S
C3702 C3703 1.391 . S
C3703 H3691 0.950 . S
C3703 C3699 1.393 . S
C3703 C3702 1.391 . S
H3704 C3712 0.950 . S
H3705 C3717 0.950 . S
H3706 C3714 0.950 . S
H3707 C3716 0.950 . S
H3708 C3718 0.950 . S
H3709 C3720 0.950 . S
H3710 C3722 0.950 . S
H3711 C3723 0.950 . S
C3712 H3704 0.950 . S
C3712 C3713 1.386 . S
C3712 C3714 1.391 . S
C3713 C3712 1.386 . S
C3713 C3717 1.393 . S
C3714 H3706 0.950 . S
C3714 C3712 1.391 . S
C3714 C3715 1.400 . S
C3715 C3714 1.400 . S
C3715 C3716 1.398 . S
C3715 C3721 1.491 . S
C3716 H3707 0.950 . S
C3716 C3715 1.398 . S
C3716 C3717 1.391 . S
C3717 H3705 0.950 . S
C3717 C3713 1.393 . S
C3717 C3716 1.391 . S
C3718 H3708 0.950 . S
C3718 C3719 1.386 . S
C3718 C3720 1.391 . S
C3719 C3718 1.386 . S
C3719 C3723 1.393 . S
C3720 H3709 0.950 . S
C3720 C3718 1.391 . S
C3720 C3721 1.400 . S
C3721 C3715 1.491 . S
C3721 C3720 1.400 . S
C3721 C3722 1.398 . S
C3722 H3710 0.950 . S
C3722 C3721 1.398 . S
C3722 C3723 1.391 . S
C3723 H3711 0.950 . S
C3723 C3719 1.393 . S
C3723 C3722 1.391 . S
H3724 C3732 0.950 . S
H3725 C3737 0.950 . S
H3726 C3734 0.950 . S
H3727 C3736 0.950 . S
H3728 C3738 0.950 . S
H3729 C3740 0.950 . S
H3730 C3742 0.950 . S
H3731 C3743 0.950 . S
C3732 H3724 0.950 . S
C3732 C3733 1.386 . S
C3732 C3734 1.391 . S
C3733 C3732 1.386 . S
C3733 C3737 1.393 . S
C3734 H3726 0.950 . S
C3734 C3732 1.391 . S
C3734 C3735 1.400 . S
C3735 C3734 1.400 . S
C3735 C3736 1.398 . S
C3735 C3741 1.491 . S
C3736 H3727 0.950 . S
C3736 C3735 1.398 . S
C3736 C3737 1.391 . S
C3737 H3725 0.950 . S
C3737 C3733 1.393 . S
C3737 C3736 1.391 . S
C3738 H3728 0.950 . S
C3738 C3739 1.386 . S
C3738 C3740 1.391 . S
C3739 C3738 1.386 . S
C3739 C3743 1.393 . S
C3740 H3729 0.950 . S
C3740 C3738 1.391 . S
C3740 C3741 1.400 . S
C3741 C3735 1.491 . S
C3741 C3740 1.400 . S
C3741 C3742 1.398 . S
C3742 H3730 0.950 . S
C3742 C3741 1.398 . S
C3742 C3743 1.391 . S
C3743 H3731 0.950 . S
C3743 C3739 1.393 . S
C3743 C3742 1.391 . S
H3744 C3752 0.950 . S
H3745 C3757 0.950 . S
H3746 C3754 0.950 . S
H3747 C3756 0.950 . S
H3748 C3758 0.950 . S
H3749 C3760 0.950 . S
H3750 C3762 0.950 . S
H3751 C3763 0.950 . S
C3752 H3744 0.950 . S
C3752 C3753 1.386 . S
C3752 C3754 1.391 . S
C3753 C3752 1.386 . S
C3753 C3757 1.393 . S
C3754 H3746 0.950 . S
C3754 C3752 1.391 . S
C3754 C3755 1.400 . S
C3755 C3754 1.400 . S
C3755 C3756 1.398 . S
C3755 C3761 1.491 . S
C3756 H3747 0.950 . S
C3756 C3755 1.398 . S
C3756 C3757 1.391 . S
C3757 H3745 0.950 . S
C3757 C3753 1.393 . S
C3757 C3756 1.391 . S
C3758 H3748 0.950 . S
C3758 C3759 1.386 . S
C3758 C3760 1.391 . S
C3759 C3758 1.386 . S
C3759 C3763 1.393 . S
C3760 H3749 0.950 . S
C3760 C3758 1.391 . S
C3760 C3761 1.400 . S
C3761 C3755 1.491 . S
C3761 C3760 1.400 . S
C3761 C3762 1.398 . S
C3762 H3750 0.950 . S
C3762 C3761 1.398 . S
C3762 C3763 1.391 . S
C3763 H3751 0.950 . S
C3763 C3759 1.393 . S
C3763 C3762 1.391 . S
H3764 C3772 0.950 . S
H3765 C3777 0.950 . S
H3766 C3774 0.950 . S
H3767 C3776 0.950 . S
H3768 C3778 0.950 . S
H3769 C3780 0.950 . S
H3770 C3782 0.950 . S
H3771 C3783 0.950 . S
C3772 H3764 0.950 . S
C3772 C3773 1.386 . S
C3772 C3774 1.391 . S
C3773 C3772 1.386 . S
C3773 C3777 1.393 . S
C3774 H3766 0.950 . S
C3774 C3772 1.391 . S
C3774 C3775 1.400 . S
C3775 C3774 1.400 . S
C3775 C3776 1.398 . S
C3775 C3781 1.491 . S
C3776 H3767 0.950 . S
C3776 C3775 1.398 . S
C3776 C3777 1.391 . S
C3777 H3765 0.950 . S
C3777 C3773 1.393 . S
C3777 C3776 1.391 . S
C3778 H3768 0.950 . S
C3778 C3779 1.386 . S
C3778 C3780 1.391 . S
C3779 C3778 1.386 . S
C3779 C3783 1.393 . S
C3780 H3769 0.950 . S
C3780 C3778 1.391 . S
C3780 C3781 1.400 . S
C3781 C3775 1.491 . S
C3781 C3780 1.400 . S
C3781 C3782 1.398 . S
C3782 H3770 0.950 . S
C3782 C3781 1.398 . S
C3782 C3783 1.391 . S
C3783 H3771 0.950 . S
C3783 C3779 1.393 . S
C3783 C3782 1.391 . S
H3784 C3792 0.950 . S
H3785 C3797 0.950 . S
H3786 C3794 0.950 . S
H3787 C3796 0.950 . S
H3788 C3798 0.950 . S
H3789 C3800 0.950 . S
H3790 C3802 0.950 . S
H3791 C3803 0.950 . S
C3792 H3784 0.950 . S
C3792 C3793 1.386 . S
C3792 C3794 1.391 . S
C3793 C3792 1.386 . S
C3793 C3797 1.393 . S
C3794 H3786 0.950 . S
C3794 C3792 1.391 . S
C3794 C3795 1.400 . S
C3795 C3794 1.400 . S
C3795 C3796 1.398 . S
C3795 C3801 1.491 . S
C3796 H3787 0.950 . S
C3796 C3795 1.398 . S
C3796 C3797 1.391 . S
C3797 H3785 0.950 . S
C3797 C3793 1.393 . S
C3797 C3796 1.391 . S
C3798 H3788 0.950 . S
C3798 C3799 1.386 . S
C3798 C3800 1.391 . S
C3799 C3798 1.386 . S
C3799 C3803 1.393 . S
C3800 H3789 0.950 . S
C3800 C3798 1.391 . S
C3800 C3801 1.400 . S
C3801 C3795 1.491 . S
C3801 C3800 1.400 . S
C3801 C3802 1.398 . S
C3802 H3790 0.950 . S
C3802 C3801 1.398 . S
C3802 C3803 1.391 . S
C3803 H3791 0.950 . S
C3803 C3799 1.393 . S
C3803 C3802 1.391 . S
H3804 C3812 0.950 . S
H3805 C3817 0.950 . S
H3806 C3814 0.950 . S
H3807 C3816 0.950 . S
H3808 C3818 0.950 . S
H3809 C3820 0.950 . S
H3810 C3822 0.950 . S
H3811 C3823 0.950 . S
C3812 H3804 0.950 . S
C3812 C3813 1.386 . S
C3812 C3814 1.391 . S
C3813 C3812 1.386 . S
C3813 C3817 1.393 . S
C3814 H3806 0.950 . S
C3814 C3812 1.391 . S
C3814 C3815 1.400 . S
C3815 C3814 1.400 . S
C3815 C3816 1.398 . S
C3815 C3821 1.491 . S
C3816 H3807 0.950 . S
C3816 C3815 1.398 . S
C3816 C3817 1.391 . S
C3817 H3805 0.950 . S
C3817 C3813 1.393 . S
C3817 C3816 1.391 . S
C3818 H3808 0.950 . S
C3818 C3819 1.386 . S
C3818 C3820 1.391 . S
C3819 C3818 1.386 . S
C3819 C3823 1.393 . S
C3820 H3809 0.950 . S
C3820 C3818 1.391 . S
C3820 C3821 1.400 . S
C3821 C3815 1.491 . S
C3821 C3820 1.400 . S
C3821 C3822 1.398 . S
C3822 H3810 0.950 . S
C3822 C3821 1.398 . S
C3822 C3823 1.391 . S
C3823 H3811 0.950 . S
C3823 C3819 1.393 . S
C3823 C3822 1.391 . S
H3824 C3832 0.950 . S
H3825 C3837 0.950 . S
H3826 C3834 0.950 . S
H3827 C3836 0.950 . S
H3828 C3838 0.950 . S
H3829 C3840 0.950 . S
H3830 C3842 0.950 . S
H3831 C3843 0.950 . S
C3832 H3824 0.950 . S
C3832 C3833 1.386 . S
C3832 C3834 1.391 . S
C3833 C3832 1.386 . S
C3833 C3837 1.393 . S
C3834 H3826 0.950 . S
C3834 C3832 1.391 . S
C3834 C3835 1.400 . S
C3835 C3834 1.400 . S
C3835 C3836 1.398 . S
C3835 C3841 1.491 . S
C3836 H3827 0.950 . S
C3836 C3835 1.398 . S
C3836 C3837 1.391 . S
C3837 H3825 0.950 . S
C3837 C3833 1.393 . S
C3837 C3836 1.391 . S
C3838 H3828 0.950 . S
C3838 C3839 1.386 . S
C3838 C3840 1.391 . S
C3839 C3838 1.386 . S
C3839 C3843 1.393 . S
C3840 H3829 0.950 . S
C3840 C3838 1.391 . S
C3840 C3841 1.400 . S
C3841 C3835 1.491 . S
C3841 C3840 1.400 . S
C3841 C3842 1.398 . S
C3842 H3830 0.950 . S
C3842 C3841 1.398 . S
C3842 C3843 1.391 . S
C3843 H3831 0.950 . S
C3843 C3839 1.393 . S
C3843 C3842 1.391 . S
H3844 C3852 0.950 . S
H3845 C3857 0.950 . S
H3846 C3854 0.950 . S
H3847 C3856 0.950 . S
H3848 C3858 0.950 . S
H3849 C3860 0.950 . S
H3850 C3862 0.950 . S
H3851 C3863 0.950 . S
C3852 H3844 0.950 . S
C3852 C3853 1.386 . S
C3852 C3854 1.391 . S
C3853 C3852 1.386 . S
C3853 C3857 1.393 . S
C3854 H3846 0.950 . S
C3854 C3852 1.391 . S
C3854 C3855 1.400 . S
C3855 C3854 1.400 . S
C3855 C3856 1.398 . S
C3855 C3861 1.491 . S
C3856 H3847 0.950 . S
C3856 C3855 1.398 . S
C3856 C3857 1.391 . S
C3857 H3845 0.950 . S
C3857 C3853 1.393 . S
C3857 C3856 1.391 . S
C3858 H3848 0.950 . S
C3858 C3859 1.386 . S
C3858 C3860 1.391 . S
C3859 C3858 1.386 . S
C3859 C3863 1.393 . S
C3860 H3849 0.950 . S
C3860 C3858 1.391 . S
C3860 C3861 1.400 . S
C3861 C3855 1.491 . S
C3861 C3860 1.400 . S
C3861 C3862 1.398 . S
C3862 H3850 0.950 . S
C3862 C3861 1.398 . S
C3862 C3863 1.391 . S
C3863 H3851 0.950 . S
C3863 C3859 1.393 . S
C3863 C3862 1.391 . S
H3864 C3872 0.950 . S
H3865 C3877 0.950 . S
H3866 C3874 0.950 . S
H3867 C3876 0.950 . S
H3868 C3878 0.950 . S
H3869 C3880 0.950 . S
H3870 C3882 0.950 . S
H3871 C3883 0.950 . S
C3872 H3864 0.950 . S
C3872 C3873 1.386 . S
C3872 C3874 1.391 . S
C3873 C3872 1.386 . S
C3873 C3877 1.393 . S
C3874 H3866 0.950 . S
C3874 C3872 1.391 . S
C3874 C3875 1.400 . S
C3875 C3874 1.400 . S
C3875 C3876 1.398 . S
C3875 C3881 1.491 . S
C3876 H3867 0.950 . S
C3876 C3875 1.398 . S
C3876 C3877 1.391 . S
C3877 H3865 0.950 . S
C3877 C3873 1.393 . S
C3877 C3876 1.391 . S
C3878 H3868 0.950 . S
C3878 C3879 1.386 . S
C3878 C3880 1.391 . S
C3879 C3878 1.386 . S
C3879 C3883 1.393 . S
C3880 H3869 0.950 . S
C3880 C3878 1.391 . S
C3880 C3881 1.400 . S
C3881 C3875 1.491 . S
C3881 C3880 1.400 . S
C3881 C3882 1.398 . S
C3882 H3870 0.950 . S
C3882 C3881 1.398 . S
C3882 C3883 1.391 . S
C3883 H3871 0.950 . S
C3883 C3879 1.393 . S
C3883 C3882 1.391 . S
H3884 C3892 0.950 . S
H3885 C3897 0.950 . S
H3886 C3894 0.950 . S
H3887 C3896 0.950 . S
H3888 C3898 0.950 . S
H3889 C3900 0.950 . S
H3890 C3902 0.950 . S
H3891 C3903 0.950 . S
C3892 H3884 0.950 . S
C3892 C3893 1.386 . S
C3892 C3894 1.391 . S
C3893 C3892 1.386 . S
C3893 C3897 1.393 . S
C3894 H3886 0.950 . S
C3894 C3892 1.391 . S
C3894 C3895 1.400 . S
C3895 C3894 1.400 . S
C3895 C3896 1.398 . S
C3895 C3901 1.491 . S
C3896 H3887 0.950 . S
C3896 C3895 1.398 . S
C3896 C3897 1.391 . S
C3897 H3885 0.950 . S
C3897 C3893 1.393 . S
C3897 C3896 1.391 . S
C3898 H3888 0.950 . S
C3898 C3899 1.386 . S
C3898 C3900 1.391 . S
C3899 C3898 1.386 . S
C3899 C3903 1.393 . S
C3900 H3889 0.950 . S
C3900 C3898 1.391 . S
C3900 C3901 1.400 . S
C3901 C3895 1.491 . S
C3901 C3900 1.400 . S
C3901 C3902 1.398 . S
C3902 H3890 0.950 . S
C3902 C3901 1.398 . S
C3902 C3903 1.391 . S
C3903 H3891 0.950 . S
C3903 C3899 1.393 . S
C3903 C3902 1.391 . S
H3904 C3912 0.950 . S
H3905 C3917 0.950 . S
H3906 C3914 0.950 . S
H3907 C3916 0.950 . S
H3908 C3918 0.950 . S
H3909 C3920 0.950 . S
H3910 C3922 0.950 . S
H3911 C3923 0.950 . S
C3912 H3904 0.950 . S
C3912 C3913 1.386 . S
C3912 C3914 1.391 . S
C3913 C3912 1.386 . S
C3913 C3917 1.393 . S
C3914 H3906 0.950 . S
C3914 C3912 1.391 . S
C3914 C3915 1.400 . S
C3915 C3914 1.400 . S
C3915 C3916 1.398 . S
C3915 C3921 1.491 . S
C3916 H3907 0.950 . S
C3916 C3915 1.398 . S
C3916 C3917 1.391 . S
C3917 H3905 0.950 . S
C3917 C3913 1.393 . S
C3917 C3916 1.391 . S
C3918 H3908 0.950 . S
C3918 C3919 1.386 . S
C3918 C3920 1.391 . S
C3919 C3918 1.386 . S
C3919 C3923 1.393 . S
C3920 H3909 0.950 . S
C3920 C3918 1.391 . S
C3920 C3921 1.400 . S
C3921 C3915 1.491 . S
C3921 C3920 1.400 . S
C3921 C3922 1.398 . S
C3922 H3910 0.950 . S
C3922 C3921 1.398 . S
C3922 C3923 1.391 . S
C3923 H3911 0.950 . S
C3923 C3919 1.393 . S
C3923 C3922 1.391 . S
H3924 C3932 0.950 . S
H3925 C3937 0.950 . S
H3926 C3934 0.950 . S
H3927 C3936 0.950 . S
H3928 C3938 0.950 . S
H3929 C3940 0.950 . S
H3930 C3942 0.950 . S
H3931 C3943 0.950 . S
C3932 H3924 0.950 . S
C3932 C3933 1.386 . S
C3932 C3934 1.391 . S
C3933 C3932 1.386 . S
C3933 C3937 1.393 . S
C3934 H3926 0.950 . S
C3934 C3932 1.391 . S
C3934 C3935 1.400 . S
C3935 C3934 1.400 . S
C3935 C3936 1.398 . S
C3935 C3941 1.491 . S
C3936 H3927 0.950 . S
C3936 C3935 1.398 . S
C3936 C3937 1.391 . S
C3937 H3925 0.950 . S
C3937 C3933 1.393 . S
C3937 C3936 1.391 . S
C3938 H3928 0.950 . S
C3938 C3939 1.386 . S
C3938 C3940 1.391 . S
C3939 C3938 1.386 . S
C3939 C3943 1.393 . S
C3940 H3929 0.950 . S
C3940 C3938 1.391 . S
C3940 C3941 1.400 . S
C3941 C3935 1.491 . S
C3941 C3940 1.400 . S
C3941 C3942 1.398 . S
C3942 H3930 0.950 . S
C3942 C3941 1.398 . S
C3942 C3943 1.391 . S
C3943 H3931 0.950 . S
C3943 C3939 1.393 . S
C3943 C3942 1.391 . S
H3944 C3952 0.950 . S
H3945 C3957 0.950 . S
H3946 C3954 0.950 . S
H3947 C3956 0.950 . S
H3948 C3958 0.950 . S
H3949 C3960 0.950 . S
H3950 C3962 0.950 . S
H3951 C3963 0.950 . S
C3952 H3944 0.950 . S
C3952 C3953 1.386 . S
C3952 C3954 1.391 . S
C3953 C3952 1.386 . S
C3953 C3957 1.393 . S
C3954 H3946 0.950 . S
C3954 C3952 1.391 . S
C3954 C3955 1.400 . S
C3955 C3954 1.400 . S
C3955 C3956 1.398 . S
C3955 C3961 1.491 . S
C3956 H3947 0.950 . S
C3956 C3955 1.398 . S
C3956 C3957 1.391 . S
C3957 H3945 0.950 . S
C3957 C3953 1.393 . S
C3957 C3956 1.391 . S
C3958 H3948 0.950 . S
C3958 C3959 1.386 . S
C3958 C3960 1.391 . S
C3959 C3958 1.386 . S
C3959 C3963 1.393 . S
C3960 H3949 0.950 . S
C3960 C3958 1.391 . S
C3960 C3961 1.400 . S
C3961 C3955 1.491 . S
C3961 C3960 1.400 . S
C3961 C3962 1.398 . S
C3962 H3950 0.950 . S
C3962 C3961 1.398 . S
C3962 C3963 1.391 . S
C3963 H3951 0.950 . S
C3963 C3959 1.393 . S
C3963 C3962 1.391 . S
H3964 C3972 0.950 . S
H3965 C3977 0.950 . S
H3966 C3974 0.950 . S
H3967 C3976 0.950 . S
H3968 C3978 0.950 . S
H3969 C3980 0.950 . S
H3970 C3982 0.950 . S
H3971 C3983 0.950 . S
C3972 H3964 0.950 . S
C3972 C3973 1.386 . S
C3972 C3974 1.391 . S
C3973 C3972 1.386 . S
C3973 C3977 1.393 . S
C3974 H3966 0.950 . S
C3974 C3972 1.391 . S
C3974 C3975 1.400 . S
C3975 C3974 1.400 . S
C3975 C3976 1.398 . S
C3975 C3981 1.491 . S
C3976 H3967 0.950 . S
C3976 C3975 1.398 . S
C3976 C3977 1.391 . S
C3977 H3965 0.950 . S
C3977 C3973 1.393 . S
C3977 C3976 1.391 . S
C3978 H3968 0.950 . S
C3978 C3979 1.386 . S
C3978 C3980 1.391 . S
C3979 C3978 1.386 . S
C3979 C3983 1.393 . S
C3980 H3969 0.950 . S
C3980 C3978 1.391 . S
C3980 C3981 1.400 . S
C3981 C3975 1.491 . S
C3981 C3980 1.400 . S
C3981 C3982 1.398 . S
C3982 H3970 0.950 . S
C3982 C3981 1.398 . S
C3982 C3983 1.391 . S
C3983 H3971 0.950 . S
C3983 C3979 1.393 . S
C3983 C3982 1.391 . S
H3984 C3992 0.950 . S
H3985 C3997 0.950 . S
H3986 C3994 0.950 . S
H3987 C3996 0.950 . S
H3988 C3998 0.950 . S
H3989 C4000 0.950 . S
H3990 C4002 0.950 . S
H3991 C4003 0.950 . S
C3992 H3984 0.950 . S
C3992 C3993 1.386 . S
C3992 C3994 1.391 . S
C3993 C3992 1.386 . S
C3993 C3997 1.393 . S
C3994 H3986 0.950 . S
C3994 C3992 1.391 . S
C3994 C3995 1.400 . S
C3995 C3994 1.400 . S
C3995 C3996 1.398 . S
C3995 C4001 1.491 . S
C3996 H3987 0.950 . S
C3996 C3995 1.398 . S
C3996 C3997 1.391 . S
C3997 H3985 0.950 . S
C3997 C3993 1.393 . S
C3997 C3996 1.391 . S
C3998 H3988 0.950 . S
C3998 C3999 1.386 . S
C3998 C4000 1.391 . S
C3999 C3998 1.386 . S
C3999 C4003 1.393 . S
C4000 H3989 0.950 . S
C4000 C3998 1.391 . S
C4000 C4001 1.400 . S
C4001 C3995 1.491 . S
C4001 C4000 1.400 . S
C4001 C4002 1.398 . S
C4002 H3990 0.950 . S
C4002 C4001 1.398 . S
C4002 C4003 1.391 . S
C4003 H3991 0.950 . S
C4003 C3999 1.393 . S
C4003 C4002 1.391 . S
H4004 C4012 0.950 . S
H4005 C4017 0.950 . S
H4006 C4014 0.950 . S
H4007 C4016 0.950 . S
H4008 C4018 0.950 . S
H4009 C4020 0.950 . S
H4010 C4022 0.950 . S
H4011 C4023 0.950 . S
C4012 H4004 0.950 . S
C4012 C4013 1.386 . S
C4012 C4014 1.391 . S
C4013 C4012 1.386 . S
C4013 C4017 1.393 . S
C4014 H4006 0.950 . S
C4014 C4012 1.391 . S
C4014 C4015 1.400 . S
C4015 C4014 1.400 . S
C4015 C4016 1.398 . S
C4015 C4021 1.491 . S
C4016 H4007 0.950 . S
C4016 C4015 1.398 . S
C4016 C4017 1.391 . S
C4017 H4005 0.950 . S
C4017 C4013 1.393 . S
C4017 C4016 1.391 . S
C4018 H4008 0.950 . S
C4018 C4019 1.386 . S
C4018 C4020 1.391 . S
C4019 C4018 1.386 . S
C4019 C4023 1.393 . S
C4020 H4009 0.950 . S
C4020 C4018 1.391 . S
C4020 C4021 1.400 . S
C4021 C4015 1.491 . S
C4021 C4020 1.400 . S
C4021 C4022 1.398 . S
C4022 H4010 0.950 . S
C4022 C4021 1.398 . S
C4022 C4023 1.391 . S
C4023 H4011 0.950 . S
C4023 C4019 1.393 . S
C4023 C4022 1.391 . S
H4024 C4032 0.950 . S
H4025 C4037 0.950 . S
H4026 C4034 0.950 . S
H4027 C4036 0.950 . S
H4028 C4038 0.950 . S
H4029 C4040 0.950 . S
H4030 C4042 0.950 . S
H4031 C4043 0.950 . S
C4032 H4024 0.950 . S
C4032 C4033 1.386 . S
C4032 C4034 1.391 . S
C4033 C4032 1.386 . S
C4033 C4037 1.393 . S
C4034 H4026 0.950 . S
C4034 C4032 1.391 . S
C4034 C4035 1.400 . S
C4035 C4034 1.400 . S
C4035 C4036 1.398 . S
C4035 C4041 1.491 . S
C4036 H4027 0.950 . S
C4036 C4035 1.398 . S
C4036 C4037 1.391 . S
C4037 H4025 0.950 . S
C4037 C4033 1.393 . S
C4037 C4036 1.391 . S
C4038 H4028 0.950 . S
C4038 C4039 1.386 . S
C4038 C4040 1.391 . S
C4039 C4038 1.386 . S
C4039 C4043 1.393 . S
C4040 H4029 0.950 . S
C4040 C4038 1.391 . S
C4040 C4041 1.400 . S
C4041 C4035 1.491 . S
C4041 C4040 1.400 . S
C4041 C4042 1.398 . S
C4042 H4030 0.950 . S
C4042 C4041 1.398 . S
C4042 C4043 1.391 . S
C4043 H4031 0.950 . S
C4043 C4039 1.393 . S
C4043 C4042 1.391 . S
H4044 C4052 0.950 . S
H4045 C4057 0.950 . S
H4046 C4054 0.950 . S
H4047 C4056 0.950 . S
H4048 C4058 0.950 . S
H4049 C4060 0.950 . S
H4050 C4062 0.950 . S
H4051 C4063 0.950 . S
C4052 H4044 0.950 . S
C4052 C4053 1.386 . S
C4052 C4054 1.391 . S
C4053 C4052 1.386 . S
C4053 C4057 1.393 . S
C4054 H4046 0.950 . S
C4054 C4052 1.391 . S
C4054 C4055 1.400 . S
C4055 C4054 1.400 . S
C4055 C4056 1.398 . S
C4055 C4061 1.491 . S
C4056 H4047 0.950 . S
C4056 C4055 1.398 . S
C4056 C4057 1.391 . S
C4057 H4045 0.950 . S
C4057 C4053 1.393 . S
C4057 C4056 1.391 . S
C4058 H4048 0.950 . S
C4058 C4059 1.386 . S
C4058 C4060 1.391 . S
C4059 C4058 1.386 . S
C4059 C4063 1.393 . S
C4060 H4049 0.950 . S
C4060 C4058 1.391 . S
C4060 C4061 1.400 . S
C4061 C4055 1.491 . S
C4061 C4060 1.400 . S
C4061 C4062 1.398 . S
C4062 H4050 0.950 . S
C4062 C4061 1.398 . S
C4062 C4063 1.391 . S
C4063 H4051 0.950 . S
C4063 C4059 1.393 . S
C4063 C4062 1.391 . S
H4064 C4072 0.950 . S
H4065 C4077 0.950 . S
H4066 C4074 0.950 . S
H4067 C4076 0.950 . S
H4068 C4078 0.950 . S
H4069 C4080 0.950 . S
H4070 C4082 0.950 . S
H4071 C4083 0.950 . S
C4072 H4064 0.950 . S
C4072 C4073 1.386 . S
C4072 C4074 1.391 . S
C4073 C4072 1.386 . S
C4073 C4077 1.393 . S
C4074 H4066 0.950 . S
C4074 C4072 1.391 . S
C4074 C4075 1.400 . S
C4075 C4074 1.400 . S
C4075 C4076 1.398 . S
C4075 C4081 1.491 . S
C4076 H4067 0.950 . S
C4076 C4075 1.398 . S
C4076 C4077 1.391 . S
C4077 H4065 0.950 . S
C4077 C4073 1.393 . S
C4077 C4076 1.391 . S
C4078 H4068 0.950 . S
C4078 C4079 1.386 . S
C4078 C4080 1.391 . S
C4079 C4078 1.386 . S
C4079 C4083 1.393 . S
C4080 H4069 0.950 . S
C4080 C4078 1.391 . S
C4080 C4081 1.400 . S
C4081 C4075 1.491 . S
C4081 C4080 1.400 . S
C4081 C4082 1.398 . S
C4082 H4070 0.950 . S
C4082 C4081 1.398 . S
C4082 C4083 1.391 . S
C4083 H4071 0.950 . S
C4083 C4079 1.393 . S
C4083 C4082 1.391 . S
H4084 C4092 0.950 . S
H4085 C4097 0.950 . S
H4086 C4094 0.950 . S
H4087 C4096 0.950 . S
H4088 C4098 0.950 . S
H4089 C4100 0.950 . S
H4090 C4102 0.950 . S
H4091 C4103 0.950 . S
C4092 H4084 0.950 . S
C4092 C4093 1.386 . S
C4092 C4094 1.391 . S
C4093 C4092 1.386 . S
C4093 C4097 1.393 . S
C4094 H4086 0.950 . S
C4094 C4092 1.391 . S
C4094 C4095 1.400 . S
C4095 C4094 1.400 . S
C4095 C4096 1.398 . S
C4095 C4101 1.491 . S
C4096 H4087 0.950 . S
C4096 C4095 1.398 . S
C4096 C4097 1.391 . S
C4097 H4085 0.950 . S
C4097 C4093 1.393 . S
C4097 C4096 1.391 . S
C4098 H4088 0.950 . S
C4098 C4099 1.386 . S
C4098 C4100 1.391 . S
C4099 C4098 1.386 . S
C4099 C4103 1.393 . S
C4100 H4089 0.950 . S
C4100 C4098 1.391 . S
C4100 C4101 1.400 . S
C4101 C4095 1.491 . S
C4101 C4100 1.400 . S
C4101 C4102 1.398 . S
C4102 H4090 0.950 . S
C4102 C4101 1.398 . S
C4102 C4103 1.391 . S
C4103 H4091 0.950 . S
C4103 C4099 1.393 . S
C4103 C4102 1.391 . S
H4104 C4112 0.950 . S
H4105 C4117 0.950 . S
H4106 C4114 0.950 . S
H4107 C4116 0.950 . S
H4108 C4118 0.950 . S
H4109 C4120 0.950 . S
H4110 C4122 0.950 . S
H4111 C4123 0.950 . S
C4112 H4104 0.950 . S
C4112 C4113 1.386 . S
C4112 C4114 1.391 . S
C4113 C4112 1.386 . S
C4113 C4117 1.393 . S
C4114 H4106 0.950 . S
C4114 C4112 1.391 . S
C4114 C4115 1.400 . S
C4115 C4114 1.400 . S
C4115 C4116 1.398 . S
C4115 C4121 1.491 . S
C4116 H4107 0.950 . S
C4116 C4115 1.398 . S
C4116 C4117 1.391 . S
C4117 H4105 0.950 . S
C4117 C4113 1.393 . S
C4117 C4116 1.391 . S
C4118 H4108 0.950 . S
C4118 C4119 1.386 . S
C4118 C4120 1.391 . S
C4119 C4118 1.386 . S
C4119 C4123 1.393 . S
C4120 H4109 0.950 . S
C4120 C4118 1.391 . S
C4120 C4121 1.400 . S
C4121 C4115 1.491 . S
C4121 C4120 1.400 . S
C4121 C4122 1.398 . S
C4122 H4110 0.950 . S
C4122 C4121 1.398 . S
C4122 C4123 1.391 . S
C4123 H4111 0.950 . S
C4123 C4119 1.393 . S
C4123 C4122 1.391 . S
H4124 C4132 0.950 . S
H4125 C4137 0.950 . S
H4126 C4134 0.950 . S
H4127 C4136 0.950 . S
H4128 C4138 0.950 . S
H4129 C4140 0.950 . S
H4130 C4142 0.950 . S
H4131 C4143 0.950 . S
C4132 H4124 0.950 . S
C4132 C4133 1.386 . S
C4132 C4134 1.391 . S
C4133 C4132 1.386 . S
C4133 C4137 1.393 . S
C4134 H4126 0.950 . S
C4134 C4132 1.391 . S
C4134 C4135 1.400 . S
C4135 C4134 1.400 . S
C4135 C4136 1.398 . S
C4135 C4141 1.491 . S
C4136 H4127 0.950 . S
C4136 C4135 1.398 . S
C4136 C4137 1.391 . S
C4137 H4125 0.950 . S
C4137 C4133 1.393 . S
C4137 C4136 1.391 . S
C4138 H4128 0.950 . S
C4138 C4139 1.386 . S
C4138 C4140 1.391 . S
C4139 C4138 1.386 . S
C4139 C4143 1.393 . S
C4140 H4129 0.950 . S
C4140 C4138 1.391 . S
C4140 C4141 1.400 . S
C4141 C4135 1.491 . S
C4141 C4140 1.400 . S
C4141 C4142 1.398 . S
C4142 H4130 0.950 . S
C4142 C4141 1.398 . S
C4142 C4143 1.391 . S
C4143 H4131 0.950 . S
C4143 C4139 1.393 . S
C4143 C4142 1.391 . S
H4144 C4152 0.950 . S
H4145 C4157 0.950 . S
H4146 C4154 0.950 . S
H4147 C4156 0.950 . S
H4148 C4158 0.950 . S
H4149 C4160 0.950 . S
H4150 C4162 0.950 . S
H4151 C4163 0.950 . S
C4152 H4144 0.950 . S
C4152 C4153 1.386 . S
C4152 C4154 1.391 . S
C4153 C4152 1.386 . S
C4153 C4157 1.393 . S
C4154 H4146 0.950 . S
C4154 C4152 1.391 . S
C4154 C4155 1.400 . S
C4155 C4154 1.400 . S
C4155 C4156 1.398 . S
C4155 C4161 1.491 . S
C4156 H4147 0.950 . S
C4156 C4155 1.398 . S
C4156 C4157 1.391 . S
C4157 H4145 0.950 . S
C4157 C4153 1.393 . S
C4157 C4156 1.391 . S
C4158 H4148 0.950 . S
C4158 C4159 1.386 . S
C4158 C4160 1.391 . S
C4159 C4158 1.386 . S
C4159 C4163 1.393 . S
C4160 H4149 0.950 . S
C4160 C4158 1.391 . S
C4160 C4161 1.400 . S
C4161 C4155 1.491 . S
C4161 C4160 1.400 . S
C4161 C4162 1.398 . S
C4162 H4150 0.950 . S
C4162 C4161 1.398 . S
C4162 C4163 1.391 . S
C4163 H4151 0.950 . S
C4163 C4159 1.393 . S
C4163 C4162 1.391 . S
H4164 C4172 0.950 . S
H4165 C4177 0.950 . S
H4166 C4174 0.950 . S
H4167 C4176 0.950 . S
H4168 C4178 0.950 . S
H4169 C4180 0.950 . S
H4170 C4182 0.950 . S
H4171 C4183 0.950 . S
C4172 H4164 0.950 . S
C4172 C4173 1.386 . S
C4172 C4174 1.391 . S
C4173 C4172 1.386 . S
C4173 C4177 1.393 . S
C4174 H4166 0.950 . S
C4174 C4172 1.391 . S
C4174 C4175 1.400 . S
C4175 C4174 1.400 . S
C4175 C4176 1.398 . S
C4175 C4181 1.491 . S
C4176 H4167 0.950 . S
C4176 C4175 1.398 . S
C4176 C4177 1.391 . S
C4177 H4165 0.950 . S
C4177 C4173 1.393 . S
C4177 C4176 1.391 . S
C4178 H4168 0.950 . S
C4178 C4179 1.386 . S
C4178 C4180 1.391 . S
C4179 C4178 1.386 . S
C4179 C4183 1.393 . S
C4180 H4169 0.950 . S
C4180 C4178 1.391 . S
C4180 C4181 1.400 . S
C4181 C4175 1.491 . S
C4181 C4180 1.400 . S
C4181 C4182 1.398 . S
C4182 H4170 0.950 . S
C4182 C4181 1.398 . S
C4182 C4183 1.391 . S
C4183 H4171 0.950 . S
C4183 C4179 1.393 . S
C4183 C4182 1.391 . S
H4184 C4192 0.950 . S
H4185 C4197 0.950 . S
H4186 C4194 0.950 . S
H4187 C4196 0.950 . S
H4188 C4198 0.950 . S
H4189 C4200 0.950 . S
H4190 C4202 0.950 . S
H4191 C4203 0.950 . S
C4192 H4184 0.950 . S
C4192 C4193 1.386 . S
C4192 C4194 1.391 . S
C4193 C4192 1.386 . S
C4193 C4197 1.393 . S
C4194 H4186 0.950 . S
C4194 C4192 1.391 . S
C4194 C4195 1.400 . S
C4195 C4194 1.400 . S
C4195 C4196 1.398 . S
C4195 C4201 1.491 . S
C4196 H4187 0.950 . S
C4196 C4195 1.398 . S
C4196 C4197 1.391 . S
C4197 H4185 0.950 . S
C4197 C4193 1.393 . S
C4197 C4196 1.391 . S
C4198 H4188 0.950 . S
C4198 C4199 1.386 . S
C4198 C4200 1.391 . S
C4199 C4198 1.386 . S
C4199 C4203 1.393 . S
C4200 H4189 0.950 . S
C4200 C4198 1.391 . S
C4200 C4201 1.400 . S
C4201 C4195 1.491 . S
C4201 C4200 1.400 . S
C4201 C4202 1.398 . S
C4202 H4190 0.950 . S
C4202 C4201 1.398 . S
C4202 C4203 1.391 . S
C4203 H4191 0.950 . S
C4203 C4199 1.393 . S
C4203 C4202 1.391 . S
H4204 C4212 0.950 . S
H4205 C4217 0.950 . S
H4206 C4214 0.950 . S
H4207 C4216 0.950 . S
H4208 C4218 0.950 . S
H4209 C4220 0.950 . S
H4210 C4222 0.950 . S
H4211 C4223 0.950 . S
C4212 H4204 0.950 . S
C4212 C4213 1.386 . S
C4212 C4214 1.391 . S
C4213 C4212 1.386 . S
C4213 C4217 1.393 . S
C4214 H4206 0.950 . S
C4214 C4212 1.391 . S
C4214 C4215 1.400 . S
C4215 C4214 1.400 . S
C4215 C4216 1.398 . S
C4215 C4221 1.491 . S
C4216 H4207 0.950 . S
C4216 C4215 1.398 . S
C4216 C4217 1.391 . S
C4217 H4205 0.950 . S
C4217 C4213 1.393 . S
C4217 C4216 1.391 . S
C4218 H4208 0.950 . S
C4218 C4219 1.386 . S
C4218 C4220 1.391 . S
C4219 C4218 1.386 . S
C4219 C4223 1.393 . S
C4220 H4209 0.950 . S
C4220 C4218 1.391 . S
C4220 C4221 1.400 . S
C4221 C4215 1.491 . S
C4221 C4220 1.400 . S
C4221 C4222 1.398 . S
C4222 H4210 0.950 . S
C4222 C4221 1.398 . S
C4222 C4223 1.391 . S
C4223 H4211 0.950 . S
C4223 C4219 1.393 . S
C4223 C4222 1.391 . S
H4224 C4232 0.950 . S
H4225 C4237 0.950 . S
H4226 C4234 0.950 . S
H4227 C4236 0.950 1_655 S
H4228 C4238 0.950 . S
H4229 C4240 0.950 . S
H4230 C4242 0.886 1_455 S
H4231 C4243 0.950 . S
C4232 H4224 0.950 . S
C4232 C4233 1.386 . S
C4232 C4234 1.391 . S
C4233 C4232 1.386 . S
C4233 C4237 1.393 . S
C4234 H4226 0.950 . S
C4234 C4232 1.391 . S
C4234 C4235 1.400 . S
C4235 C4234 1.400 . S
C4235 C4236 1.398 . S
C4235 C4241 1.491 1_455 S
C4236 H4227 0.950 1_455 S
C4236 C4235 1.398 . S
C4236 C4237 1.391 . S
C4237 H4225 0.950 . S
C4237 C4233 1.393 . S
C4237 C4236 1.391 . S
C4238 H4228 0.950 . S
C4238 C4239 1.386 . S
C4238 C4240 1.391 . S
C4239 C4238 1.386 . S
C4239 C4243 1.393 . S
C4240 H4229 0.950 . S
C4240 C4238 1.391 . S
C4240 C4241 1.400 . S
C4241 C4235 1.491 1_655 S
C4241 C4240 1.400 . S
C4241 C4242 1.416 . S
C4242 H4230 0.886 1_655 S
C4242 C4241 1.416 . S
C4242 C4243 1.438 . S
C4243 H4231 0.950 . S
C4243 C4239 1.393 . S
C4243 C4242 1.438 . S
H4244 C4252 0.950 . S
H4245 C4257 0.950 . S
H4246 C4254 0.950 . S
H4247 C4256 0.950 . S
H4248 C4258 0.950 . S
H4249 C4260 0.950 . S
H4250 C4262 0.950 . S
H4251 C4263 0.950 . S
C4252 H4244 0.950 . S
C4252 C4253 1.386 . S
C4252 C4254 1.391 . S
C4253 C4252 1.386 . S
C4253 C4257 1.393 . S
C4254 H4246 0.950 . S
C4254 C4252 1.391 . S
C4254 C4255 1.400 . S
C4255 C4254 1.400 . S
C4255 C4256 1.398 . S
C4255 C4261 1.491 . S
C4256 H4247 0.950 . S
C4256 C4255 1.398 . S
C4256 C4257 1.391 . S
C4257 H4245 0.950 . S
C4257 C4253 1.393 . S
C4257 C4256 1.391 . S
C4258 H4248 0.950 . S
C4258 C4259 1.386 . S
C4258 C4260 1.391 . S
C4259 C4258 1.386 . S
C4259 C4263 1.393 . S
C4260 H4249 0.950 . S
C4260 C4258 1.391 . S
C4260 C4261 1.400 . S
C4261 C4255 1.491 . S
C4261 C4260 1.400 . S
C4261 C4262 1.398 . S
C4262 H4250 0.950 . S
C4262 C4261 1.398 . S
C4262 C4263 1.391 . S
C4263 H4251 0.950 . S
C4263 C4259 1.393 . S
C4263 C4262 1.391 . S
H4264 C4272 0.950 . S
H4265 C4277 0.950 . S
H4266 C4274 0.950 . S
H4267 C4276 0.950 . S
H4268 C4278 0.950 . S
H4269 C4280 0.950 . S
H4270 C4282 0.950 . S
H4271 C4283 0.950 . S
C4272 H4264 0.950 . S
C4272 C4273 1.386 . S
C4272 C4274 1.391 . S
C4273 C4272 1.386 . S
C4273 C4277 1.393 . S
C4274 H4266 0.950 . S
C4274 C4272 1.391 . S
C4274 C4275 1.400 . S
C4275 C4274 1.400 . S
C4275 C4276 1.398 . S
C4275 C4281 1.491 . S
C4276 H4267 0.950 . S
C4276 C4275 1.398 . S
C4276 C4277 1.391 . S
C4277 H4265 0.950 . S
C4277 C4273 1.393 . S
C4277 C4276 1.391 . S
C4278 H4268 0.950 . S
C4278 C4279 1.386 . S
C4278 C4280 1.391 . S
C4279 C4278 1.386 . S
C4279 C4283 1.393 . S
C4280 H4269 0.950 . S
C4280 C4278 1.391 . S
C4280 C4281 1.400 . S
C4281 C4275 1.491 . S
C4281 C4280 1.400 . S
C4281 C4282 1.398 . S
C4282 H4270 0.950 . S
C4282 C4281 1.398 . S
C4282 C4283 1.391 . S
C4283 H4271 0.950 . S
C4283 C4279 1.393 . S
C4283 C4282 1.391 . S
H4284 C4292 0.950 . S
H4285 C4297 0.950 . S
H4286 C4294 0.950 . S
H4287 C4296 0.934 1_554 S
H4288 C4298 0.950 . S
H4289 C4300 0.950 . S
H4290 C4302 0.950 . S
H4291 C4303 0.950 . S
C4292 H4284 0.950 . S
C4292 C4293 1.386 . S
C4292 C4294 1.391 . S
C4293 C4292 1.386 . S
C4293 C4297 1.393 . S
C4294 H4286 0.950 . S
C4294 C4292 1.391 . S
C4294 C4295 1.400 . S
C4295 C4294 1.400 . S
C4295 C4296 1.398 . S
C4295 C4301 1.491 1_556 S
C4296 H4287 0.934 1_556 S
C4296 C4295 1.398 . S
C4296 C4297 1.391 . S
C4297 H4285 0.950 . S
C4297 C4293 1.393 . S
C4297 C4296 1.391 . S
C4298 H4288 0.950 . S
C4298 C4299 1.386 . S
C4298 C4300 1.391 . S
C4299 C4298 1.386 . S
C4299 C4303 1.393 . S
C4300 H4289 0.950 . S
C4300 C4298 1.391 . S
C4300 C4301 1.400 . S
C4301 C4295 1.491 1_554 S
C4301 C4300 1.400 . S
C4301 C4302 1.398 . S
C4302 H4290 0.950 . S
C4302 C4301 1.398 . S
C4302 C4303 1.391 . S
C4303 H4291 0.950 . S
C4303 C4299 1.393 . S
C4303 C4302 1.391 . S
H4304 C4312 0.950 . S
H4305 C4317 0.950 . S
H4306 C4314 0.950 . S
H4307 C4316 0.950 . S
H4308 C4318 0.950 . S
H4309 C4320 0.950 . S
H4310 C4322 0.950 . S
H4311 C4323 0.950 . S
C4312 H4304 0.950 . S
C4312 C4313 1.386 . S
C4312 C4314 1.391 . S
C4313 C4312 1.386 . S
C4313 C4317 1.393 . S
C4314 H4306 0.950 . S
C4314 C4312 1.391 . S
C4314 C4315 1.400 . S
C4315 C4314 1.400 . S
C4315 C4316 1.398 . S
C4315 C4321 1.491 1_655 S
C4316 H4307 0.950 . S
C4316 C4315 1.398 . S
C4316 C4317 1.391 . S
C4317 H4305 0.950 . S
C4317 C4313 1.393 . S
C4317 C4316 1.391 . S
C4318 H4308 0.950 . S
C4318 C4319 1.386 . S
C4318 C4320 1.391 . S
C4319 C4318 1.386 . S
C4319 C4323 1.393 . S
C4320 H4309 0.950 . S
C4320 C4318 1.391 . S
C4320 C4321 1.400 . S
C4321 C4315 1.491 1_455 S
C4321 C4320 1.400 . S
C4321 C4322 1.398 . S
C4322 H4310 0.950 . S
C4322 C4321 1.398 . S
C4322 C4323 1.391 . S
C4323 H4311 0.950 . S
C4323 C4319 1.393 . S
C4323 C4322 1.391 . S
H4324 C4332 0.950 . S
H4325 C4337 0.950 . S
H4326 C4334 0.950 . S
H4327 C4336 0.950 . S
H4328 C4338 0.950 . S
H4329 C4340 0.950 . S
H4330 C4342 0.950 . S
H4331 C4343 0.950 . S
C4332 H4324 0.950 . S
C4332 C4333 1.386 . S
C4332 C4334 1.391 . S
C4333 C4332 1.386 . S
C4333 C4337 1.393 . S
C4334 H4326 0.950 . S
C4334 C4332 1.391 . S
C4334 C4335 1.400 . S
C4335 C4334 1.400 . S
C4335 C4336 1.398 . S
C4335 C4341 1.491 . S
C4336 H4327 0.950 . S
C4336 C4335 1.398 . S
C4336 C4337 1.391 . S
C4337 H4325 0.950 . S
C4337 C4333 1.393 . S
C4337 C4336 1.391 . S
C4338 H4328 0.950 . S
C4338 C4339 1.386 . S
C4338 C4340 1.391 . S
C4339 C4338 1.386 . S
C4339 C4343 1.393 . S
C4340 H4329 0.950 . S
C4340 C4338 1.391 . S
C4340 C4341 1.400 . S
C4341 C4335 1.491 . S
C4341 C4340 1.400 . S
C4341 C4342 1.398 . S
C4342 H4330 0.950 . S
C4342 C4341 1.398 . S
C4342 C4343 1.391 . S
C4343 H4331 0.950 . S
C4343 C4339 1.393 . S
C4343 C4342 1.391 . S
H4344 C4352 0.950 . S
H4345 C4357 0.950 . S
H4346 C4354 0.950 . S
H4347 C4356 0.950 . S
H4348 C4358 0.950 . S
H4349 C4360 0.950 . S
H4350 C4362 0.950 . S
H4351 C4363 0.950 . S
C4352 H4344 0.950 . S
C4352 C4353 1.386 . S
C4352 C4354 1.391 . S
C4353 C4352 1.386 . S
C4353 C4357 1.393 . S
C4354 H4346 0.950 . S
C4354 C4352 1.391 . S
C4354 C4355 1.400 . S
C4355 C4354 1.400 . S
C4355 C4356 1.398 . S
C4355 C4361 1.491 . S
C4356 H4347 0.950 . S
C4356 C4355 1.398 . S
C4356 C4357 1.391 . S
C4357 H4345 0.950 . S
C4357 C4353 1.393 . S
C4357 C4356 1.391 . S
C4358 H4348 0.950 . S
C4358 C4359 1.386 . S
C4358 C4360 1.391 . S
C4359 C4358 1.386 . S
C4359 C4363 1.393 . S
C4360 H4349 0.950 . S
C4360 C4358 1.391 . S
C4360 C4361 1.400 . S
C4361 C4355 1.491 . S
C4361 C4360 1.400 . S
C4361 C4362 1.398 . S
C4362 H4350 0.950 . S
C4362 C4361 1.398 . S
C4362 C4363 1.391 . S
C4363 H4351 0.950 . S
C4363 C4359 1.393 . S
C4363 C4362 1.391 . S
H4364 C4372 0.950 . S
H4365 C4377 0.950 . S
H4366 C4374 0.950 1_554 S
H4367 C4376 0.950 . S
H4368 C4378 0.950 . S
H4369 C4380 0.926 1_556 S
H4370 C4382 0.950 . S
H4371 C4383 0.950 . S
C4372 H4364 0.950 . S
C4372 C4373 1.386 . S
C4372 C4374 1.391 . S
C4373 C4372 1.386 . S
C4373 C4377 1.393 . S
C4374 H4366 0.950 1_556 S
C4374 C4372 1.391 . S
C4374 C4375 1.400 . S
C4375 C4374 1.400 . S
C4375 C4376 1.398 . S
C4375 C4381 1.491 1_556 S
C4376 H4367 0.950 . S
C4376 C4375 1.398 . S
C4376 C4377 1.391 . S
C4377 H4365 0.950 . S
C4377 C4373 1.393 . S
C4377 C4376 1.391 . S
C4378 H4368 0.950 . S
C4378 C4379 1.386 . S
C4378 C4380 1.410 . S
C4379 C4378 1.386 . S
C4379 C4383 1.393 . S
C4380 H4369 0.926 1_554 S
C4380 C4378 1.410 . S
C4380 C4381 1.405 . S
C4381 C4375 1.491 1_554 S
C4381 C4380 1.405 . S
C4381 C4382 1.398 . S
C4382 H4370 0.950 . S
C4382 C4381 1.398 . S
C4382 C4383 1.391 . S
C4383 H4371 0.950 . S
C4383 C4379 1.393 . S
C4383 C4382 1.391 . S
H4384 C4392 0.950 . S
H4385 C4397 0.950 . S
H4386 C4394 0.950 . S
H4387 C4396 0.950 . S
H4388 C4398 0.950 . S
H4389 C4400 0.950 1_545 S
H4390 C4402 0.950 . S
H4391 C4403 0.950 . S
C4392 H4384 0.950 . S
C4392 C4393 1.386 . S
C4392 C4394 1.391 . S
C4393 C4392 1.386 . S
C4393 C4397 1.393 . S
C4394 H4386 0.950 . S
C4394 C4392 1.391 . S
C4394 C4395 1.400 . S
C4395 C4394 1.400 . S
C4395 C4396 1.398 . S
C4395 C4401 1.491 1_545 S
C4396 H4387 0.950 . S
C4396 C4395 1.398 . S
C4396 C4397 1.391 . S
C4397 H4385 0.950 . S
C4397 C4393 1.393 . S
C4397 C4396 1.391 . S
C4398 H4388 0.950 . S
C4398 C4399 1.386 . S
C4398 C4400 1.391 . S
C4399 C4398 1.386 . S
C4399 C4403 1.393 . S
C4400 H4389 0.950 1_565 S
C4400 C4398 1.391 . S
C4400 C4401 1.400 . S
C4401 C4395 1.491 1_565 S
C4401 C4400 1.400 . S
C4401 C4402 1.398 . S
C4402 H4390 0.950 . S
C4402 C4401 1.398 . S
C4402 C4403 1.391 . S
C4403 H4391 0.950 . S
C4403 C4399 1.393 . S
C4403 C4402 1.391 . S
H4404 C4412 0.950 . S
H4405 C4417 0.950 . S
H4406 C4414 0.950 . S
H4407 C4416 0.950 . S
H4408 C4418 0.950 . S
H4409 C4420 0.950 . S
H4410 C4422 0.950 1_545 S
H4411 C4423 0.950 . S
C4412 H4404 0.950 . S
C4412 C4413 1.386 . S
C4412 C4414 1.391 . S
C4413 C4412 1.386 . S
C4413 C4417 1.393 . S
C4414 H4406 0.950 . S
C4414 C4412 1.391 . S
C4414 C4415 1.400 . S
C4415 C4414 1.400 . S
C4415 C4416 1.398 1_545 S
C4415 C4421 1.491 1_545 S
C4416 H4407 0.950 . S
C4416 C4415 1.398 1_565 S
C4416 C4417 1.391 1_565 S
C4417 H4405 0.950 . S
C4417 C4413 1.393 . S
C4417 C4416 1.391 1_545 S
C4418 H4408 0.950 . S
C4418 C4419 1.386 . S
C4418 C4420 1.391 . S
C4419 C4418 1.386 . S
C4419 C4423 1.393 . S
C4420 H4409 0.950 . S
C4420 C4418 1.391 . S
C4420 C4421 1.400 . S
C4421 C4415 1.491 1_565 S
C4421 C4420 1.400 . S
C4421 C4422 1.398 . S
C4422 H4410 0.950 1_565 S
C4422 C4421 1.398 . S
C4422 C4423 1.391 . S
C4423 H4411 0.950 . S
C4423 C4419 1.393 . S
C4423 C4422 1.391 . S
H4424 C4432 0.950 . S
H4425 C4437 0.950 . S
H4426 C4434 0.950 . S
H4427 C4436 0.950 . S
H4428 C4438 0.950 . S
H4429 C4440 0.950 1_565 S
H4430 C4442 0.950 . S
H4431 C4443 0.950 . S
C4432 H4424 0.950 . S
C4432 C4433 1.386 . S
C4432 C4434 1.391 . S
C4433 C4432 1.386 . S
C4433 C4437 1.393 . S
C4434 H4426 0.950 . S
C4434 C4432 1.391 . S
C4434 C4435 1.400 . S
C4435 C4434 1.400 . S
C4435 C4436 1.398 . S
C4435 C4441 1.491 1_565 S
C4436 H4427 0.950 . S
C4436 C4435 1.398 . S
C4436 C4437 1.391 . S
C4437 H4425 0.950 . S
C4437 C4433 1.393 . S
C4437 C4436 1.391 . S
C4438 H4428 0.950 . S
C4438 C4439 1.386 . S
C4438 C4440 1.391 . S
C4439 C4438 1.386 . S
C4439 C4443 1.393 . S
C4440 H4429 0.950 1_545 S
C4440 C4438 1.391 . S
C4440 C4441 1.400 . S
C4441 C4435 1.491 1_545 S
C4441 C4440 1.400 . S
C4441 C4442 1.398 . S
C4442 H4430 0.950 . S
C4442 C4441 1.398 . S
C4442 C4443 1.391 . S
C4443 H4431 0.950 . S
C4443 C4439 1.393 . S
C4443 C4442 1.391 . S
H4444 C4452 0.950 . S
H4445 C4457 0.950 . S
H4446 C4454 0.950 . S
H4447 C4456 0.950 . S
H4448 C4458 0.950 . S
H4449 C4460 0.950 1_545 S
H4450 C4462 0.950 . S
H4451 C4463 0.950 . S
C4452 H4444 0.950 . S
C4452 C4453 1.386 . S
C4452 C4454 1.391 . S
C4453 C4452 1.386 . S
C4453 C4457 1.393 . S
C4454 H4446 0.950 . S
C4454 C4452 1.391 . S
C4454 C4455 1.400 . S
C4455 C4454 1.400 . S
C4455 C4456 1.398 . S
C4455 C4461 1.491 1_545 S
C4456 H4447 0.950 . S
C4456 C4455 1.398 . S
C4456 C4457 1.391 . S
C4457 H4445 0.950 . S
C4457 C4453 1.393 . S
C4457 C4456 1.391 . S
C4458 H4448 0.950 . S
C4458 C4459 1.386 . S
C4458 C4460 1.391 . S
C4459 C4458 1.386 . S
C4459 C4463 1.393 . S
C4460 H4449 0.950 1_565 S
C4460 C4458 1.391 . S
C4460 C4461 1.400 . S
C4461 C4455 1.491 1_565 S
C4461 C4460 1.400 . S
C4461 C4462 1.398 . S
C4462 H4450 0.950 . S
C4462 C4461 1.398 . S
C4462 C4463 1.391 . S
C4463 H4451 0.950 . S
C4463 C4459 1.393 . S
C4463 C4462 1.391 . S
H4464 C4472 0.950 . S
H4465 C4477 0.950 . S
H4466 C4474 0.950 . S
H4467 C4476 0.943 1_556 S
H4468 C4478 0.950 . S
H4469 C4480 0.950 . S
H4470 C4482 0.950 1_554 S
H4471 C4483 0.950 . S
C4472 H4464 0.950 . S
C4472 C4473 1.386 . S
C4472 C4474 1.391 . S
C4473 C4472 1.386 . S
C4473 C4477 1.393 . S
C4474 H4466 0.950 . S
C4474 C4472 1.391 . S
C4474 C4475 1.400 . S
C4475 C4474 1.400 . S
C4475 C4476 1.398 . S
C4475 C4481 1.491 1_554 S
C4476 H4467 0.943 1_554 S
C4476 C4475 1.398 . S
C4476 C4477 1.391 . S
C4477 H4465 0.950 . S
C4477 C4473 1.393 . S
C4477 C4476 1.391 . S
C4478 H4468 0.950 . S
C4478 C4479 1.386 . S
C4478 C4480 1.391 . S
C4479 C4478 1.386 . S
C4479 C4483 1.393 . S
C4480 H4469 0.950 . S
C4480 C4478 1.391 . S
C4480 C4481 1.400 . S
C4481 C4475 1.491 1_556 S
C4481 C4480 1.400 . S
C4481 C4482 1.398 . S
C4482 H4470 0.950 1_556 S
C4482 C4481 1.398 . S
C4482 C4483 1.391 . S
C4483 H4471 0.950 . S
C4483 C4479 1.393 . S
C4483 C4482 1.391 . S
H4484 C4492 0.950 . S
H4485 C4497 0.950 . S
H4486 C4494 0.950 1_655 S
H4487 C4496 0.950 . S
H4488 C4498 0.950 . S
H4489 C4500 0.950 1_455 S
H4490 C4502 0.950 . S
H4491 C4503 0.950 . S
C4492 H4484 0.950 . S
C4492 C4493 1.386 . S
C4492 C4494 1.391 . S
C4493 C4492 1.386 . S
C4493 C4497 1.393 . S
C4494 H4486 0.950 1_455 S
C4494 C4492 1.391 . S
C4494 C4495 1.400 . S
C4495 C4494 1.400 . S
C4495 C4496 1.398 . S
C4495 C4501 1.491 1_455 S
C4496 H4487 0.950 . S
C4496 C4495 1.398 . S
C4496 C4497 1.391 . S
C4497 H4485 0.950 . S
C4497 C4493 1.393 . S
C4497 C4496 1.391 . S
C4498 H4488 0.950 . S
C4498 C4499 1.386 . S
C4498 C4500 1.391 . S
C4499 C4498 1.386 . S
C4499 C4503 1.393 . S
C4500 H4489 0.950 1_655 S
C4500 C4498 1.391 . S
C4500 C4501 1.400 . S
C4501 C4495 1.491 1_655 S
C4501 C4500 1.400 . S
C4501 C4502 1.398 . S
C4502 H4490 0.950 . S
C4502 C4501 1.398 . S
C4502 C4503 1.391 . S
C4503 H4491 0.950 . S
C4503 C4499 1.393 . S
C4503 C4502 1.391 . S
H4504 C4512 0.950 . S
H4505 C4517 0.950 . S
H4506 C4514 0.950 . S
H4507 C4516 0.950 . S
H4508 C4518 0.950 . S
H4509 C4520 0.950 . S
H4510 C4522 0.950 . S
H4511 C4523 0.950 . S
C4512 H4504 0.950 . S
C4512 C4513 1.386 . S
C4512 C4514 1.391 . S
C4513 C4512 1.386 . S
C4513 C4517 1.393 . S
C4514 H4506 0.950 . S
C4514 C4512 1.391 . S
C4514 C4515 1.400 . S
C4515 C4514 1.400 . S
C4515 C4516 1.398 . S
C4515 C4521 1.491 . S
C4516 H4507 0.950 . S
C4516 C4515 1.398 . S
C4516 C4517 1.391 . S
C4517 H4505 0.950 . S
C4517 C4513 1.393 . S
C4517 C4516 1.391 . S
C4518 H4508 0.950 . S
C4518 C4519 1.386 . S
C4518 C4520 1.391 . S
C4519 C4518 1.386 . S
C4519 C4523 1.393 . S
C4520 H4509 0.950 . S
C4520 C4518 1.391 . S
C4520 C4521 1.400 . S
C4521 C4515 1.491 . S
C4521 C4520 1.400 . S
C4521 C4522 1.398 . S
C4522 H4510 0.950 . S
C4522 C4521 1.398 . S
C4522 C4523 1.391 . S
C4523 H4511 0.950 . S
C4523 C4519 1.393 . S
C4523 C4522 1.391 . S
H4524 C4532 0.950 . S
H4525 C4537 0.950 . S
H4526 C4534 0.950 . S
H4527 C4536 0.950 1_455 S
H4528 C4538 0.950 . S
H4529 C4540 0.950 . S
H4530 C4542 0.894 1_655 S
H4531 C4543 0.950 . S
C4532 H4524 0.950 . S
C4532 C4533 1.386 . S
C4532 C4534 1.391 . S
C4533 C4532 1.386 . S
C4533 C4537 1.393 . S
C4534 H4526 0.950 . S
C4534 C4532 1.391 . S
C4534 C4535 1.400 . S
C4535 C4534 1.400 . S
C4535 C4536 1.398 . S
C4535 C4541 1.491 1_655 S
C4536 H4527 0.950 1_655 S
C4536 C4535 1.398 . S
C4536 C4537 1.391 . S
C4537 H4525 0.950 . S
C4537 C4533 1.393 . S
C4537 C4536 1.391 . S
C4538 H4528 0.950 . S
C4538 C4539 1.386 . S
C4538 C4540 1.391 . S
C4539 C4538 1.386 . S
C4539 C4543 1.393 . S
C4540 H4529 0.950 . S
C4540 C4538 1.391 . S
C4540 C4541 1.400 . S
C4541 C4535 1.491 1_455 S
C4541 C4540 1.400 . S
C4541 C4542 1.414 . S
C4542 H4530 0.894 1_455 S
C4542 C4541 1.414 . S
C4542 C4543 1.431 . S
C4543 H4531 0.950 . S
C4543 C4539 1.393 . S
C4543 C4542 1.431 . S
H4544 C4552 0.950 . S
H4545 C4557 0.950 . S
H4546 C4554 0.950 . S
H4547 C4556 0.950 . S
H4548 C4558 0.950 . S
H4549 C4560 0.950 . S
H4550 C4562 0.950 . S
H4551 C4563 0.950 . S
C4552 H4544 0.950 . S
C4552 C4553 1.386 . S
C4552 C4554 1.391 . S
C4553 C4552 1.386 . S
C4553 C4557 1.393 . S
C4554 H4546 0.950 . S
C4554 C4552 1.391 . S
C4554 C4555 1.400 . S
C4555 C4554 1.400 . S
C4555 C4556 1.398 . S
C4555 C4561 1.491 . S
C4556 H4547 0.950 . S
C4556 C4555 1.398 . S
C4556 C4557 1.391 . S
C4557 H4545 0.950 . S
C4557 C4553 1.393 . S
C4557 C4556 1.391 . S
C4558 H4548 0.950 . S
C4558 C4559 1.386 . S
C4558 C4560 1.391 . S
C4559 C4558 1.386 . S
C4559 C4563 1.393 . S
C4560 H4549 0.950 . S
C4560 C4558 1.391 . S
C4560 C4561 1.400 . S
C4561 C4555 1.491 . S
C4561 C4560 1.400 . S
C4561 C4562 1.398 . S
C4562 H4550 0.950 . S
C4562 C4561 1.398 . S
C4562 C4563 1.391 . S
C4563 H4551 0.950 . S
C4563 C4559 1.393 . S
C4563 C4562 1.391 . S
H4564 C4572 0.950 . S
H4565 C4577 0.950 . S
H4566 C4574 0.950 . S
H4567 C4576 0.967 . S
H4568 C4578 0.950 . S
H4569 C4580 0.950 . S
H4570 C4582 0.959 . S
H4571 C4583 0.950 . S
C4572 H4564 0.950 . S
C4572 C4573 1.386 . S
C4572 C4574 1.391 . S
C4573 C4572 1.386 . S
C4573 C4577 1.393 . S
C4574 H4566 0.950 . S
C4574 C4572 1.391 . S
C4574 C4575 1.400 . S
C4575 C4574 1.400 . S
C4575 C4576 1.398 . S
C4575 C4581 1.491 1_655 S
C4576 H4567 0.967 . S
C4576 C4575 1.398 . S
C4576 C4577 1.391 . S
C4577 H4565 0.950 . S
C4577 C4573 1.393 . S
C4577 C4576 1.391 . S
C4578 H4568 0.950 . S
C4578 C4579 1.386 . S
C4578 C4580 1.391 . S
C4579 C4578 1.386 . S
C4579 C4583 1.393 . S
C4580 H4569 0.950 . S
C4580 C4578 1.391 . S
C4580 C4581 1.400 . S
C4581 C4575 1.491 1_455 S
C4581 C4580 1.400 . S
C4581 C4582 1.398 . S
C4582 H4570 0.959 . S
C4582 C4581 1.398 . S
C4582 C4583 1.391 . S
C4583 H4571 0.950 . S
C4583 C4579 1.393 . S
C4583 C4582 1.391 . S
H4584 C4592 0.950 . S
H4585 C4597 0.950 . S
H4586 C4594 0.950 . S
H4587 C4596 0.950 . S
H4588 C4598 0.950 . S
H4589 C4600 0.950 . S
H4590 C4602 0.950 . S
H4591 C4603 0.950 . S
C4592 H4584 0.950 . S
C4592 C4593 1.386 . S
C4592 C4594 1.391 . S
C4593 C4592 1.386 . S
C4593 C4597 1.393 . S
C4594 H4586 0.950 . S
C4594 C4592 1.391 . S
C4594 C4595 1.400 . S
C4595 C4594 1.400 . S
C4595 C4596 1.398 . S
C4595 C4601 1.491 . S
C4596 H4587 0.950 . S
C4596 C4595 1.398 . S
C4596 C4597 1.391 . S
C4597 H4585 0.950 . S
C4597 C4593 1.393 . S
C4597 C4596 1.391 . S
C4598 H4588 0.950 . S
C4598 C4599 1.386 . S
C4598 C4600 1.391 . S
C4599 C4598 1.386 . S
C4599 C4603 1.393 . S
C4600 H4589 0.950 . S
C4600 C4598 1.391 . S
C4600 C4601 1.400 . S
C4601 C4595 1.491 . S
C4601 C4600 1.400 . S
C4601 C4602 1.398 . S
C4602 H4590 0.950 . S
C4602 C4601 1.398 . S
C4602 C4603 1.391 . S
C4603 H4591 0.950 . S
C4603 C4599 1.393 . S
C4603 C4602 1.391 . S
H4604 C4612 0.950 . S
H4605 C4617 0.950 . S
H4606 C4614 0.950 . S
H4607 C4616 0.950 . S
H4608 C4618 0.950 . S
H4609 C4620 0.950 . S
H4610 C4622 0.950 . S
H4611 C4623 0.950 . S
C4612 H4604 0.950 . S
C4612 C4613 1.386 . S
C4612 C4614 1.391 . S
C4613 C4612 1.386 . S
C4613 C4617 1.393 . S
C4614 H4606 0.950 . S
C4614 C4612 1.391 . S
C4614 C4615 1.400 . S
C4615 C4614 1.400 . S
C4615 C4616 1.398 . S
C4615 C4621 1.491 . S
C4616 H4607 0.950 . S
C4616 C4615 1.398 . S
C4616 C4617 1.391 . S
C4617 H4605 0.950 . S
C4617 C4613 1.393 . S
C4617 C4616 1.391 . S
C4618 H4608 0.950 . S
C4618 C4619 1.386 . S
C4618 C4620 1.391 . S
C4619 C4618 1.386 . S
C4619 C4623 1.393 . S
C4620 H4609 0.950 . S
C4620 C4618 1.391 . S
C4620 C4621 1.400 . S
C4621 C4615 1.491 . S
C4621 C4620 1.400 . S
C4621 C4622 1.398 . S
C4622 H4610 0.950 . S
C4622 C4621 1.398 . S
C4622 C4623 1.391 . S
C4623 H4611 0.950 . S
C4623 C4619 1.393 . S
C4623 C4622 1.391 . S
H4624 C4632 0.950 . S
H4625 C4637 0.950 . S
H4626 C4634 0.950 . S
H4627 C4636 0.950 . S
H4628 C4638 0.950 . S
H4629 C4640 0.950 . S
H4630 C4642 0.950 . S
H4631 C4643 0.950 . S
C4632 H4624 0.950 . S
C4632 C4633 1.386 . S
C4632 C4634 1.391 1_554 S
C4633 C4632 1.386 . S
C4633 C4637 1.393 . S
C4634 H4626 0.950 . S
C4634 C4632 1.391 1_556 S
C4634 C4635 1.400 . S
C4635 C4634 1.400 . S
C4635 C4636 1.398 1_556 S
C4635 C4641 1.491 . S
C4636 H4627 0.950 . S
C4636 C4635 1.398 1_554 S
C4636 C4637 1.391 . S
C4637 H4625 0.950 . S
C4637 C4633 1.393 . S
C4637 C4636 1.391 . S
C4638 H4628 0.950 . S
C4638 C4639 1.386 . S
C4638 C4640 1.391 . S
C4639 C4638 1.386 . S
C4639 C4643 1.393 . S
C4640 H4629 0.950 . S
C4640 C4638 1.391 . S
C4640 C4641 1.400 . S
C4641 C4635 1.491 . S
C4641 C4640 1.400 . S
C4641 C4642 1.398 . S
C4642 H4630 0.950 . S
C4642 C4641 1.398 . S
C4642 C4643 1.391 . S
C4643 H4631 0.950 . S
C4643 C4639 1.393 . S
C4643 C4642 1.391 . S
H4644 C4652 0.950 . S
H4645 C4657 0.950 . S
H4646 C4654 0.950 . S
H4647 C4656 0.950 . S
H4648 C4658 0.950 . S
H4649 C4660 0.950 . S
H4650 C4662 0.950 . S
H4651 C4663 0.950 . S
C4652 H4644 0.950 . S
C4652 C4653 1.386 . S
C4652 C4654 1.391 . S
C4653 C4652 1.386 . S
C4653 C4657 1.393 . S
C4654 H4646 0.950 . S
C4654 C4652 1.391 . S
C4654 C4655 1.400 . S
C4655 C4654 1.400 . S
C4655 C4656 1.398 . S
C4655 C4661 1.491 1_655 S
C4656 H4647 0.950 . S
C4656 C4655 1.398 . S
C4656 C4657 1.391 . S
C4657 H4645 0.950 . S
C4657 C4653 1.393 . S
C4657 C4656 1.391 . S
C4658 H4648 0.950 . S
C4658 C4659 1.386 . S
C4658 C4660 1.391 . S
C4659 C4658 1.386 . S
C4659 C4663 1.393 . S
C4660 H4649 0.950 . S
C4660 C4658 1.391 . S
C4660 C4661 1.400 . S
C4661 C4655 1.491 1_455 S
C4661 C4660 1.400 . S
C4661 C4662 1.398 . S
C4662 H4650 0.950 . S
C4662 C4661 1.398 . S
C4662 C4663 1.391 . S
C4663 H4651 0.950 . S
C4663 C4659 1.393 . S
C4663 C4662 1.391 . S
H4664 C4672 0.950 . S
H4665 C4677 0.950 . S
H4666 C4674 0.950 . S
H4667 C4676 0.950 . S
H4668 C4678 0.950 . S
H4669 C4680 0.950 . S
H4670 C4682 0.950 . S
H4671 C4683 0.950 . S
C4672 H4664 0.950 . S
C4672 C4673 1.386 . S
C4672 C4674 1.391 . S
C4673 C4672 1.386 . S
C4673 C4677 1.393 . S
C4674 H4666 0.950 . S
C4674 C4672 1.391 . S
C4674 C4675 1.400 . S
C4675 C4674 1.400 . S
C4675 C4676 1.398 . S
C4675 C4681 1.491 . S
C4676 H4667 0.950 . S
C4676 C4675 1.398 . S
C4676 C4677 1.391 . S
C4677 H4665 0.950 . S
C4677 C4673 1.393 . S
C4677 C4676 1.391 . S
C4678 H4668 0.950 . S
C4678 C4679 1.386 . S
C4678 C4680 1.391 . S
C4679 C4678 1.386 . S
C4679 C4683 1.393 . S
C4680 H4669 0.950 . S
C4680 C4678 1.391 . S
C4680 C4681 1.400 . S
C4681 C4675 1.491 . S
C4681 C4680 1.400 . S
C4681 C4682 1.398 . S
C4682 H4670 0.950 . S
C4682 C4681 1.398 . S
C4682 C4683 1.391 . S
C4683 H4671 0.950 . S
C4683 C4679 1.393 . S
C4683 C4682 1.391 . S
H4684 C4692 0.950 . S
H4685 C4697 0.950 . S
H4686 C4694 0.950 . S
H4687 C4696 0.950 . S
H4688 C4698 0.950 . S
H4689 C4700 0.950 . S
H4690 C4702 0.950 . S
H4691 C4703 0.950 . S
C4692 H4684 0.950 . S
C4692 C4693 1.386 . S
C4692 C4694 1.391 . S
C4693 C4692 1.386 . S
C4693 C4697 1.393 . S
C4694 H4686 0.950 . S
C4694 C4692 1.391 . S
C4694 C4695 1.400 . S
C4695 C4694 1.400 . S
C4695 C4696 1.398 . S
C4695 C4701 1.491 . S
C4696 H4687 0.950 . S
C4696 C4695 1.398 . S
C4696 C4697 1.391 . S
C4697 H4685 0.950 . S
C4697 C4693 1.393 . S
C4697 C4696 1.391 . S
C4698 H4688 0.950 . S
C4698 C4699 1.386 . S
C4698 C4700 1.391 . S
C4699 C4698 1.386 . S
C4699 C4703 1.393 . S
C4700 H4689 0.950 . S
C4700 C4698 1.391 . S
C4700 C4701 1.400 . S
C4701 C4695 1.491 . S
C4701 C4700 1.400 . S
C4701 C4702 1.398 . S
C4702 H4690 0.950 . S
C4702 C4701 1.398 . S
C4702 C4703 1.391 . S
C4703 H4691 0.950 . S
C4703 C4699 1.393 . S
C4703 C4702 1.391 . S
H4704 C4712 0.950 . S
H4705 C4717 0.950 . S
H4706 C4714 0.950 . S
H4707 C4716 0.950 . S
H4708 C4718 0.950 . S
H4709 C4720 0.950 . S
H4710 C4722 0.950 . S
H4711 C4723 0.950 . S
C4712 H4704 0.950 . S
C4712 C4713 1.386 . S
C4712 C4714 1.391 . S
C4713 C4712 1.386 . S
C4713 C4717 1.393 . S
C4714 H4706 0.950 . S
C4714 C4712 1.391 . S
C4714 C4715 1.400 . S
C4715 C4714 1.400 . S
C4715 C4716 1.398 . S
C4715 C4721 1.491 . S
C4716 H4707 0.950 . S
C4716 C4715 1.398 . S
C4716 C4717 1.391 . S
C4717 H4705 0.950 . S
C4717 C4713 1.393 . S
C4717 C4716 1.391 . S
C4718 H4708 0.950 . S
C4718 C4719 1.386 . S
C4718 C4720 1.391 1_556 S
C4719 C4718 1.386 . S
C4719 C4723 1.393 . S
C4720 H4709 0.950 . S
C4720 C4718 1.391 1_554 S
C4720 C4721 1.400 . S
C4721 C4715 1.491 . S
C4721 C4720 1.400 . S
C4721 C4722 1.398 1_554 S
C4722 H4710 0.950 . S
C4722 C4721 1.398 1_556 S
C4722 C4723 1.391 . S
C4723 H4711 0.950 . S
C4723 C4719 1.393 . S
C4723 C4722 1.391 . S
H4724 C4732 0.950 . S
H4725 C4737 0.950 . S
H4726 C4734 0.950 . S
H4727 C4736 0.950 . S
H4728 C4738 0.950 . S
H4729 C4740 0.939 1_565 S
H4730 C4742 0.950 . S
H4731 C4743 0.950 . S
C4732 H4724 0.950 . S
C4732 C4733 1.386 . S
C4732 C4734 1.391 . S
C4733 C4732 1.386 . S
C4733 C4737 1.393 . S
C4734 H4726 0.950 . S
C4734 C4732 1.391 . S
C4734 C4735 1.400 . S
C4735 C4734 1.400 . S
C4735 C4736 1.398 . S
C4735 C4741 1.491 1_565 S
C4736 H4727 0.950 . S
C4736 C4735 1.398 . S
C4736 C4737 1.391 . S
C4737 H4725 0.950 . S
C4737 C4733 1.393 . S
C4737 C4736 1.391 . S
C4738 H4728 0.950 . S
C4738 C4739 1.386 . S
C4738 C4740 1.391 . S
C4739 C4738 1.386 . S
C4739 C4743 1.393 . S
C4740 H4729 0.939 1_545 S
C4740 C4738 1.391 . S
C4740 C4741 1.400 . S
C4741 C4735 1.491 1_545 S
C4741 C4740 1.400 . S
C4741 C4742 1.398 . S
C4742 H4730 0.950 . S
C4742 C4741 1.398 . S
C4742 C4743 1.391 . S
C4743 H4731 0.950 . S
C4743 C4739 1.393 . S
C4743 C4742 1.391 . S
H4744 C4752 0.950 . S
H4745 C4757 0.950 . S
H4746 C4754 1.015 . S
H4747 C4756 0.950 . S
H4748 C4758 0.950 . S
H4749 C4760 0.950 1_565 S
H4750 C4762 0.950 . S
H4751 C4763 0.950 . S
C4752 H4744 0.950 . S
C4752 C4753 1.386 . S
C4752 C4754 1.344 1_565 S
C4753 C4752 1.386 . S
C4753 C4757 1.393 . S
C4754 H4746 1.015 . S
C4754 C4752 1.344 1_545 S
C4754 C4755 1.386 1_545 S
C4755 C4754 1.386 1_565 S
C4755 C4756 1.398 . S
C4755 C4761 1.491 1_565 S
C4756 H4747 0.950 . S
C4756 C4755 1.398 . S
C4756 C4757 1.391 . S
C4757 H4745 0.950 . S
C4757 C4753 1.393 . S
C4757 C4756 1.391 . S
C4758 H4748 0.950 . S
C4758 C4759 1.386 . S
C4758 C4760 1.391 . S
C4759 C4758 1.386 . S
C4759 C4763 1.393 . S
C4760 H4749 0.950 1_545 S
C4760 C4758 1.391 . S
C4760 C4761 1.400 . S
C4761 C4755 1.491 1_545 S
C4761 C4760 1.400 . S
C4761 C4762 1.398 . S
C4762 H4750 0.950 . S
C4762 C4761 1.398 . S
C4762 C4763 1.391 . S
C4763 H4751 0.950 . S
C4763 C4759 1.393 . S
C4763 C4762 1.391 . S
H4764 C4772 0.950 . S
H4765 C4777 0.950 . S
H4766 C4774 0.984 . S
H4767 C4776 0.950 . S
H4768 C4778 0.950 . S
H4769 C4780 0.950 1_565 S
H4770 C4782 0.950 . S
H4771 C4783 0.950 . S
C4772 H4764 0.950 . S
C4772 C4773 1.386 . S
C4772 C4774 1.366 1_565 S
C4773 C4772 1.386 . S
C4773 C4777 1.393 . S
C4774 H4766 0.984 . S
C4774 C4772 1.366 1_545 S
C4774 C4775 1.393 1_545 S
C4775 C4774 1.393 1_565 S
C4775 C4776 1.398 . S
C4775 C4781 1.491 1_565 S
C4776 H4767 0.950 . S
C4776 C4775 1.398 . S
C4776 C4777 1.391 . S
C4777 H4765 0.950 . S
C4777 C4773 1.393 . S
C4777 C4776 1.391 . S
C4778 H4768 0.950 . S
C4778 C4779 1.386 . S
C4778 C4780 1.391 . S
C4779 C4778 1.386 . S
C4779 C4783 1.393 . S
C4780 H4769 0.950 1_545 S
C4780 C4778 1.391 . S
C4780 C4781 1.400 . S
C4781 C4775 1.491 1_545 S
C4781 C4780 1.400 . S
C4781 C4782 1.398 . S
C4782 H4770 0.950 . S
C4782 C4781 1.398 . S
C4782 C4783 1.391 . S
C4783 H4771 0.950 . S
C4783 C4779 1.393 . S
C4783 C4782 1.391 . S
H4784 C4792 0.950 . S
H4785 C4797 0.950 . S
H4786 C4794 0.950 . S
H4787 C4796 0.988 . S
H4788 C4798 0.950 . S
H4789 C4800 0.950 . S
H4790 C4802 0.950 1_545 S
H4791 C4803 0.950 . S
C4792 H4784 0.950 . S
C4792 C4793 1.386 . S
C4792 C4794 1.391 . S
C4793 C4792 1.386 . S
C4793 C4797 1.393 . S
C4794 H4786 0.950 . S
C4794 C4792 1.391 . S
C4794 C4795 1.400 . S
C4795 C4794 1.400 . S
C4795 C4796 1.391 1_545 S
C4795 C4801 1.491 1_545 S
C4796 H4787 0.988 . S
C4796 C4795 1.391 1_565 S
C4796 C4797 1.362 1_565 S
C4797 H4785 0.950 . S
C4797 C4793 1.393 . S
C4797 C4796 1.362 1_545 S
C4798 H4788 0.950 . S
C4798 C4799 1.386 . S
C4798 C4800 1.391 . S
C4799 C4798 1.386 . S
C4799 C4803 1.393 . S
C4800 H4789 0.950 . S
C4800 C4798 1.391 . S
C4800 C4801 1.400 . S
C4801 C4795 1.491 1_565 S
C4801 C4800 1.400 . S
C4801 C4802 1.398 . S
C4802 H4790 0.950 1_565 S
C4802 C4801 1.398 . S
C4802 C4803 1.391 . S
C4803 H4791 0.950 . S
C4803 C4799 1.393 . S
C4803 C4802 1.391 . S
H4804 C4812 0.950 . S
H4805 C4817 0.950 . S
H4806 C4814 0.951 1_554 S
H4807 C4816 0.950 . S
H4808 C4818 0.950 . S
H4809 C4820 0.950 . S
H4810 C4822 0.950 . S
H4811 C4823 0.950 . S
C4812 H4804 0.950 . S
C4812 C4813 1.386 . S
C4812 C4814 1.391 . S
C4813 C4812 1.386 . S
C4813 C4817 1.393 . S
C4814 H4806 0.951 1_556 S
C4814 C4812 1.391 . S
C4814 C4815 1.400 . S
C4815 C4814 1.400 . S
C4815 C4816 1.398 . S
C4815 C4821 1.491 . S
C4816 H4807 0.950 . S
C4816 C4815 1.398 . S
C4816 C4817 1.391 . S
C4817 H4805 0.950 . S
C4817 C4813 1.393 . S
C4817 C4816 1.391 . S
C4818 H4808 0.950 . S
C4818 C4819 1.386 . S
C4818 C4820 1.391 1_554 S
C4819 C4818 1.386 . S
C4819 C4823 1.393 . S
C4820 H4809 0.950 . S
C4820 C4818 1.391 1_556 S
C4820 C4821 1.400 . S
C4821 C4815 1.491 . S
C4821 C4820 1.400 . S
C4821 C4822 1.398 1_556 S
C4822 H4810 0.950 . S
C4822 C4821 1.398 1_554 S
C4822 C4823 1.391 . S
C4823 H4811 0.950 . S
C4823 C4819 1.393 . S
C4823 C4822 1.391 . S
H4824 C4832 0.950 . S
H4825 C4837 0.950 . S
H4826 C4834 0.950 1_455 S
H4827 C4836 0.950 . S
H4828 C4838 0.950 . S
H4829 C4840 0.950 1_655 S
H4830 C4842 0.950 . S
H4831 C4843 0.950 . S
C4832 H4824 0.950 . S
C4832 C4833 1.386 . S
C4832 C4834 1.391 . S
C4833 C4832 1.386 . S
C4833 C4837 1.393 . S
C4834 H4826 0.950 1_655 S
C4834 C4832 1.391 . S
C4834 C4835 1.400 . S
C4835 C4834 1.400 . S
C4835 C4836 1.398 . S
C4835 C4841 1.491 1_655 S
C4836 H4827 0.950 . S
C4836 C4835 1.398 . S
C4836 C4837 1.391 . S
C4837 H4825 0.950 . S
C4837 C4833 1.393 . S
C4837 C4836 1.391 . S
C4838 H4828 0.950 . S
C4838 C4839 1.386 . S
C4838 C4840 1.391 . S
C4839 C4838 1.386 . S
C4839 C4843 1.393 . S
C4840 H4829 0.950 1_455 S
C4840 C4838 1.391 . S
C4840 C4841 1.400 . S
C4841 C4835 1.491 1_455 S
C4841 C4840 1.400 . S
C4841 C4842 1.398 . S
C4842 H4830 0.950 . S
C4842 C4841 1.398 . S
C4842 C4843 1.391 . S
C4843 H4831 0.950 . S
C4843 C4839 1.393 . S
C4843 C4842 1.391 . S
H4844 C4852 0.950 . S
H4845 C4857 0.950 . S
H4846 C4854 0.950 . S
H4847 C4856 0.950 . S
H4848 C4858 0.950 . S
H4849 C4860 0.950 . S
H4850 C4862 0.950 . S
H4851 C4863 0.950 . S
C4852 H4844 0.950 . S
C4852 C4853 1.386 . S
C4852 C4854 1.391 . S
C4853 C4852 1.386 . S
C4853 C4857 1.393 . S
C4854 H4846 0.950 . S
C4854 C4852 1.391 . S
C4854 C4855 1.400 . S
C4855 C4854 1.400 . S
C4855 C4856 1.398 . S
C4855 C4861 1.491 . S
C4856 H4847 0.950 . S
C4856 C4855 1.398 . S
C4856 C4857 1.391 . S
C4857 H4845 0.950 . S
C4857 C4853 1.393 . S
C4857 C4856 1.391 . S
C4858 H4848 0.950 . S
C4858 C4859 1.386 . S
C4858 C4860 1.391 . S
C4859 C4858 1.386 . S
C4859 C4863 1.393 . S
C4860 H4849 0.950 . S
C4860 C4858 1.391 . S
C4860 C4861 1.400 . S
C4861 C4855 1.491 . S
C4861 C4860 1.400 . S
C4861 C4862 1.398 . S
C4862 H4850 0.950 . S
C4862 C4861 1.398 . S
C4862 C4863 1.391 . S
C4863 H4851 0.950 . S
C4863 C4859 1.393 . S
C4863 C4862 1.391 . S
H4864 C4872 0.950 . S
H4865 C4877 0.950 . S
H4866 C4874 0.950 1_455 S
H4867 C4876 0.950 . S
H4868 C4878 0.950 . S
H4869 C4880 0.950 1_655 S
H4870 C4882 0.950 . S
H4871 C4883 0.950 . S
C4872 H4864 0.950 . S
C4872 C4873 1.386 . S
C4872 C4874 1.391 . S
C4873 C4872 1.386 . S
C4873 C4877 1.393 . S
C4874 H4866 0.950 1_655 S
C4874 C4872 1.391 . S
C4874 C4875 1.400 . S
C4875 C4874 1.400 . S
C4875 C4876 1.398 . S
C4875 C4881 1.491 1_655 S
C4876 H4867 0.950 . S
C4876 C4875 1.398 . S
C4876 C4877 1.391 . S
C4877 H4865 0.950 . S
C4877 C4873 1.393 . S
C4877 C4876 1.391 . S
C4878 H4868 0.950 . S
C4878 C4879 1.386 . S
C4878 C4880 1.391 . S
C4879 C4878 1.386 . S
C4879 C4883 1.393 . S
C4880 H4869 0.950 1_455 S
C4880 C4878 1.391 . S
C4880 C4881 1.400 . S
C4881 C4875 1.491 1_455 S
C4881 C4880 1.400 . S
C4881 C4882 1.398 . S
C4882 H4870 0.950 . S
C4882 C4881 1.398 . S
C4882 C4883 1.391 . S
C4883 H4871 0.950 . S
C4883 C4879 1.393 . S
C4883 C4882 1.391 . S
H4884 C4892 0.950 . S
H4885 C4897 0.950 . S
H4886 C4894 0.950 . S
H4887 C4896 0.950 . S
H4888 C4898 0.950 . S
H4889 C4900 0.950 . S
H4890 C4902 0.950 . S
H4891 C4903 0.950 . S
C4892 H4884 0.950 . S
C4892 C4893 1.386 . S
C4892 C4894 1.391 . S
C4893 C4892 1.386 . S
C4893 C4897 1.393 . S
C4894 H4886 0.950 . S
C4894 C4892 1.391 . S
C4894 C4895 1.400 . S
C4895 C4894 1.400 . S
C4895 C4896 1.398 . S
C4895 C4901 1.491 . S
C4896 H4887 0.950 . S
C4896 C4895 1.398 . S
C4896 C4897 1.391 . S
C4897 H4885 0.950 . S
C4897 C4893 1.393 . S
C4897 C4896 1.391 . S
C4898 H4888 0.950 . S
C4898 C4899 1.386 . S
C4898 C4900 1.391 . S
C4899 C4898 1.386 . S
C4899 C4903 1.393 . S
C4900 H4889 0.950 . S
C4900 C4898 1.391 . S
C4900 C4901 1.400 . S
C4901 C4895 1.491 . S
C4901 C4900 1.400 . S
C4901 C4902 1.398 . S
C4902 H4890 0.950 . S
C4902 C4901 1.398 . S
C4902 C4903 1.391 . S
C4903 H4891 0.950 . S
C4903 C4899 1.393 . S
C4903 C4902 1.391 . S
H4904 C4912 0.950 . S
H4905 C4917 0.950 . S
H4906 C4914 0.950 . S
H4907 C4916 0.950 . S
H4908 C4918 0.950 . S
H4909 C4920 0.950 . S
H4910 C4922 0.950 . S
H4911 C4923 0.950 . S
C4912 H4904 0.950 . S
C4912 C4913 1.386 . S
C4912 C4914 1.391 . S
C4913 C4912 1.386 . S
C4913 C4917 1.393 . S
C4914 H4906 0.950 . S
C4914 C4912 1.391 . S
C4914 C4915 1.400 . S
C4915 C4914 1.400 . S
C4915 C4916 1.398 . S
C4915 C4921 1.491 . S
C4916 H4907 0.950 . S
C4916 C4915 1.398 . S
C4916 C4917 1.391 . S
C4917 H4905 0.950 . S
C4917 C4913 1.393 . S
C4917 C4916 1.391 . S
C4918 H4908 0.950 . S
C4918 C4919 1.386 . S
C4918 C4920 1.391 . S
C4919 C4918 1.386 . S
C4919 C4923 1.393 . S
C4920 H4909 0.950 . S
C4920 C4918 1.391 . S
C4920 C4921 1.400 . S
C4921 C4915 1.491 . S
C4921 C4920 1.400 . S
C4921 C4922 1.398 . S
C4922 H4910 0.950 . S
C4922 C4921 1.398 . S
C4922 C4923 1.391 . S
C4923 H4911 0.950 . S
C4923 C4919 1.393 . S
C4923 C4922 1.391 . S
H4924 C4932 0.950 . S
H4925 C4937 0.950 . S
H4926 C4934 0.950 1_554 S
H4927 C4936 0.950 . S
H4928 C4938 0.950 . S
H4929 C4940 0.950 1_556 S
H4930 C4942 0.950 . S
H4931 C4943 0.950 . S
C4932 H4924 0.950 . S
C4932 C4933 1.386 . S
C4932 C4934 1.391 . S
C4933 C4932 1.386 . S
C4933 C4937 1.393 . S
C4934 H4926 0.950 1_556 S
C4934 C4932 1.391 . S
C4934 C4935 1.400 . S
C4935 C4934 1.400 . S
C4935 C4936 1.398 . S
C4935 C4941 1.491 1_556 S
C4936 H4927 0.950 . S
C4936 C4935 1.398 . S
C4936 C4937 1.391 . S
C4937 H4925 0.950 . S
C4937 C4933 1.393 . S
C4937 C4936 1.391 . S
C4938 H4928 0.950 . S
C4938 C4939 1.386 . S
C4938 C4940 1.391 . S
C4939 C4938 1.386 . S
C4939 C4943 1.393 . S
C4940 H4929 0.950 1_554 S
C4940 C4938 1.391 . S
C4940 C4941 1.400 . S
C4941 C4935 1.491 1_554 S
C4941 C4940 1.400 . S
C4941 C4942 1.398 . S
C4942 H4930 0.950 . S
C4942 C4941 1.398 . S
C4942 C4943 1.391 . S
C4943 H4931 0.950 . S
C4943 C4939 1.393 . S
C4943 C4942 1.391 . S
H4944 C4952 0.950 . S
H4945 C4957 0.950 . S
H4946 C4954 0.950 . S
H4947 C4956 0.950 . S
H4948 C4958 0.950 . S
H4949 C4960 0.950 . S
H4950 C4962 0.950 . S
H4951 C4963 0.950 . S
C4952 H4944 0.950 . S
C4952 C4953 1.386 . S
C4952 C4954 1.391 . S
C4953 C4952 1.386 . S
C4953 C4957 1.393 . S
C4954 H4946 0.950 . S
C4954 C4952 1.391 . S
C4954 C4955 1.400 . S
C4955 C4954 1.400 . S
C4955 C4956 1.398 . S
C4955 C4961 1.491 . S
C4956 H4947 0.950 . S
C4956 C4955 1.398 . S
C4956 C4957 1.391 . S
C4957 H4945 0.950 . S
C4957 C4953 1.393 . S
C4957 C4956 1.391 . S
C4958 H4948 0.950 . S
C4958 C4959 1.386 . S
C4958 C4960 1.391 . S
C4959 C4958 1.386 . S
C4959 C4963 1.393 . S
C4960 H4949 0.950 . S
C4960 C4958 1.391 . S
C4960 C4961 1.400 . S
C4961 C4955 1.491 . S
C4961 C4960 1.400 . S
C4961 C4962 1.398 . S
C4962 H4950 0.950 . S
C4962 C4961 1.398 . S
C4962 C4963 1.391 . S
C4963 H4951 0.950 . S
C4963 C4959 1.393 . S
C4963 C4962 1.391 . S
H4964 C4972 0.950 . S
H4965 C4977 0.950 . S
H4966 C4974 0.950 . S
H4967 C4976 0.950 . S
H4968 C4978 0.950 . S
H4969 C4980 0.950 . S
H4970 C4982 0.950 . S
H4971 C4983 0.950 . S
C4972 H4964 0.950 . S
C4972 C4973 1.386 . S
C4972 C4974 1.391 . S
C4973 C4972 1.386 . S
C4973 C4977 1.393 . S
C4974 H4966 0.950 . S
C4974 C4972 1.391 . S
C4974 C4975 1.400 . S
C4975 C4974 1.400 . S
C4975 C4976 1.398 . S
C4975 C4981 1.491 . S
C4976 H4967 0.950 . S
C4976 C4975 1.398 . S
C4976 C4977 1.391 . S
C4977 H4965 0.950 . S
C4977 C4973 1.393 . S
C4977 C4976 1.391 . S
C4978 H4968 0.950 . S
C4978 C4979 1.386 . S
C4978 C4980 1.391 . S
C4979 C4978 1.386 . S
C4979 C4983 1.393 . S
C4980 H4969 0.950 . S
C4980 C4978 1.391 . S
C4980 C4981 1.400 . S
C4981 C4975 1.491 . S
C4981 C4980 1.400 . S
C4981 C4982 1.398 . S
C4982 H4970 0.950 . S
C4982 C4981 1.398 . S
C4982 C4983 1.391 . S
C4983 H4971 0.950 . S
C4983 C4979 1.393 . S
C4983 C4982 1.391 . S
H4984 C4992 0.950 . S
H4985 C4997 0.950 . S
H4986 C4994 0.950 . S
H4987 C4996 0.950 . S
H4988 C4998 0.950 . S
H4989 C5000 0.950 . S
H4990 C5002 0.950 . S
H4991 C5003 0.950 . S
C4992 H4984 0.950 . S
C4992 C4993 1.386 . S
C4992 C4994 1.391 . S
C4993 C4992 1.386 . S
C4993 C4997 1.393 . S
C4994 H4986 0.950 . S
C4994 C4992 1.391 . S
C4994 C4995 1.400 . S
C4995 C4994 1.400 . S
C4995 C4996 1.398 . S
C4995 C5001 1.491 . S
C4996 H4987 0.950 . S
C4996 C4995 1.398 . S
C4996 C4997 1.391 . S
C4997 H4985 0.950 . S
C4997 C4993 1.393 . S
C4997 C4996 1.391 . S
C4998 H4988 0.950 . S
C4998 C4999 1.386 . S
C4998 C5000 1.391 . S
C4999 C4998 1.386 . S
C4999 C5003 1.393 . S
C5000 H4989 0.950 . S
C5000 C4998 1.391 . S
C5000 C5001 1.400 . S
C5001 C4995 1.491 . S
C5001 C5000 1.400 . S
C5001 C5002 1.398 . S
C5002 H4990 0.950 . S
C5002 C5001 1.398 . S
C5002 C5003 1.391 . S
C5003 H4991 0.950 . S
C5003 C4999 1.393 . S
C5003 C5002 1.391 . S
H5004 C5012 0.950 . S
H5005 C5017 0.950 . S
H5006 C5014 0.950 . S
H5007 C5016 0.950 . S
H5008 C5018 0.950 . S
H5009 C5020 0.950 . S
H5010 C5022 0.950 . S
H5011 C5023 0.950 . S
C5012 H5004 0.950 . S
C5012 C5013 1.386 . S
C5012 C5014 1.391 . S
C5013 C5012 1.386 . S
C5013 C5017 1.393 . S
C5014 H5006 0.950 . S
C5014 C5012 1.391 . S
C5014 C5015 1.400 . S
C5015 C5014 1.400 . S
C5015 C5016 1.398 . S
C5015 C5021 1.491 . S
C5016 H5007 0.950 . S
C5016 C5015 1.398 . S
C5016 C5017 1.391 . S
C5017 H5005 0.950 . S
C5017 C5013 1.393 . S
C5017 C5016 1.391 . S
C5018 H5008 0.950 . S
C5018 C5019 1.386 . S
C5018 C5020 1.391 . S
C5019 C5018 1.386 . S
C5019 C5023 1.393 . S
C5020 H5009 0.950 . S
C5020 C5018 1.391 . S
C5020 C5021 1.400 . S
C5021 C5015 1.491 . S
C5021 C5020 1.400 . S
C5021 C5022 1.398 . S
C5022 H5010 0.950 . S
C5022 C5021 1.398 . S
C5022 C5023 1.391 . S
C5023 H5011 0.950 . S
C5023 C5019 1.393 . S
C5023 C5022 1.391 . S
H5024 C5032 0.950 . S
H5025 C5037 0.950 . S
H5026 C5034 0.950 . S
H5027 C5036 0.950 . S
H5028 C5038 0.950 . S
H5029 C5040 0.950 . S
H5030 C5042 0.950 . S
H5031 C5043 0.950 . S
C5032 H5024 0.950 . S
C5032 C5033 1.386 . S
C5032 C5034 1.391 . S
C5033 C5032 1.386 . S
C5033 C5037 1.393 . S
C5034 H5026 0.950 . S
C5034 C5032 1.391 . S
C5034 C5035 1.400 . S
C5035 C5034 1.400 . S
C5035 C5036 1.398 . S
C5035 C5041 1.491 . S
C5036 H5027 0.950 . S
C5036 C5035 1.398 . S
C5036 C5037 1.391 . S
C5037 H5025 0.950 . S
C5037 C5033 1.393 . S
C5037 C5036 1.391 . S
C5038 H5028 0.950 . S
C5038 C5039 1.386 . S
C5038 C5040 1.391 . S
C5039 C5038 1.386 . S
C5039 C5043 1.393 . S
C5040 H5029 0.950 . S
C5040 C5038 1.391 . S
C5040 C5041 1.400 . S
C5041 C5035 1.491 . S
C5041 C5040 1.400 . S
C5041 C5042 1.398 . S
C5042 H5030 0.950 . S
C5042 C5041 1.398 . S
C5042 C5043 1.391 . S
C5043 H5031 0.950 . S
C5043 C5039 1.393 . S
C5043 C5042 1.391 . S
H5044 C5052 0.950 . S
H5045 C5057 0.950 . S
H5046 C5054 0.950 . S
H5047 C5056 0.950 . S
H5048 C5058 0.950 . S
H5049 C5060 0.950 . S
H5050 C5062 0.950 . S
H5051 C5063 0.950 . S
C5052 H5044 0.950 . S
C5052 C5053 1.386 . S
C5052 C5054 1.391 . S
C5053 C5052 1.386 . S
C5053 C5057 1.393 . S
C5054 H5046 0.950 . S
C5054 C5052 1.391 . S
C5054 C5055 1.400 . S
C5055 C5054 1.400 . S
C5055 C5056 1.398 . S
C5055 C5061 1.491 . S
C5056 H5047 0.950 . S
C5056 C5055 1.398 . S
C5056 C5057 1.391 . S
C5057 H5045 0.950 . S
C5057 C5053 1.393 . S
C5057 C5056 1.391 . S
C5058 H5048 0.950 . S
C5058 C5059 1.386 . S
C5058 C5060 1.391 . S
C5059 C5058 1.386 . S
C5059 C5063 1.393 . S
C5060 H5049 0.950 . S
C5060 C5058 1.391 . S
C5060 C5061 1.400 . S
C5061 C5055 1.491 . S
C5061 C5060 1.400 . S
C5061 C5062 1.398 . S
C5062 H5050 0.950 . S
C5062 C5061 1.398 . S
C5062 C5063 1.391 . S
C5063 H5051 0.950 . S
C5063 C5059 1.393 . S
C5063 C5062 1.391 . S
H5064 C5072 0.950 . S
H5065 C5077 0.950 . S
H5066 C5074 0.950 . S
H5067 C5076 0.950 . S
H5068 C5078 0.950 . S
H5069 C5080 0.950 . S
H5070 C5082 0.950 . S
H5071 C5083 0.950 . S
C5072 H5064 0.950 . S
C5072 C5073 1.386 . S
C5072 C5074 1.391 . S
C5073 C5072 1.386 . S
C5073 C5077 1.393 . S
C5074 H5066 0.950 . S
C5074 C5072 1.391 . S
C5074 C5075 1.400 . S
C5075 C5074 1.400 . S
C5075 C5076 1.398 . S
C5075 C5081 1.491 . S
C5076 H5067 0.950 . S
C5076 C5075 1.398 . S
C5076 C5077 1.391 . S
C5077 H5065 0.950 . S
C5077 C5073 1.393 . S
C5077 C5076 1.391 . S
C5078 H5068 0.950 . S
C5078 C5079 1.386 . S
C5078 C5080 1.391 . S
C5079 C5078 1.386 . S
C5079 C5083 1.393 . S
C5080 H5069 0.950 . S
C5080 C5078 1.391 . S
C5080 C5081 1.400 1_556 S
C5081 C5075 1.491 . S
C5081 C5080 1.400 1_554 S
C5081 C5082 1.398 . S
C5082 H5070 0.950 . S
C5082 C5081 1.398 . S
C5082 C5083 1.391 1_554 S
C5083 H5071 0.950 . S
C5083 C5079 1.393 . S
C5083 C5082 1.391 1_556 S
H5084 C5092 0.950 . S
H5085 C5097 0.950 . S
H5086 C5094 0.950 . S
H5087 C5096 0.950 . S
H5088 C5098 0.950 . S
H5089 C5100 0.950 . S
H5090 C5102 0.950 . S
H5091 C5103 0.950 . S
C5092 H5084 0.950 . S
C5092 C5093 1.386 . S
C5092 C5094 1.391 . S
C5093 C5092 1.386 . S
C5093 C5097 1.393 . S
C5094 H5086 0.950 . S
C5094 C5092 1.391 . S
C5094 C5095 1.400 . S
C5095 C5094 1.400 . S
C5095 C5096 1.398 . S
C5095 C5101 1.491 . S
C5096 H5087 0.950 . S
C5096 C5095 1.398 . S
C5096 C5097 1.391 . S
C5097 H5085 0.950 . S
C5097 C5093 1.393 . S
C5097 C5096 1.391 . S
C5098 H5088 0.950 . S
C5098 C5099 1.386 . S
C5098 C5100 1.391 . S
C5099 C5098 1.386 . S
C5099 C5103 1.393 . S
C5100 H5089 0.950 . S
C5100 C5098 1.391 . S
C5100 C5101 1.400 . S
C5101 C5095 1.491 . S
C5101 C5100 1.400 . S
C5101 C5102 1.398 . S
C5102 H5090 0.950 . S
C5102 C5101 1.398 . S
C5102 C5103 1.391 . S
C5103 H5091 0.950 . S
C5103 C5099 1.393 . S
C5103 C5102 1.391 . S
H5104 C5112 0.950 . S
H5105 C5117 0.950 . S
H5106 C5114 0.950 . S
H5107 C5116 0.950 . S
H5108 C5118 0.950 . S
H5109 C5120 0.950 . S
H5110 C5122 0.950 . S
H5111 C5123 0.950 . S
C5112 H5104 0.950 . S
C5112 C5113 1.386 . S
C5112 C5114 1.391 . S
C5113 C5112 1.386 . S
C5113 C5117 1.393 . S
C5114 H5106 0.950 . S
C5114 C5112 1.391 . S
C5114 C5115 1.400 . S
C5115 C5114 1.400 . S
C5115 C5116 1.398 . S
C5115 C5121 1.491 . S
C5116 H5107 0.950 . S
C5116 C5115 1.398 . S
C5116 C5117 1.391 . S
C5117 H5105 0.950 . S
C5117 C5113 1.393 . S
C5117 C5116 1.391 . S
C5118 H5108 0.950 . S
C5118 C5119 1.386 . S
C5118 C5120 1.391 . S
C5119 C5118 1.386 . S
C5119 C5123 1.393 . S
C5120 H5109 0.950 . S
C5120 C5118 1.391 . S
C5120 C5121 1.400 . S
C5121 C5115 1.491 . S
C5121 C5120 1.400 . S
C5121 C5122 1.398 . S
C5122 H5110 0.950 . S
C5122 C5121 1.398 . S
C5122 C5123 1.391 . S
C5123 H5111 0.950 . S
C5123 C5119 1.393 . S
C5123 C5122 1.391 . S
H5124 C5132 0.950 . S
H5125 C5137 0.950 . S
H5126 C5134 0.950 . S
H5127 C5136 0.950 . S
H5128 C5138 0.950 . S
H5129 C5140 0.950 . S
H5130 C5142 0.950 . S
H5131 C5143 0.950 . S
C5132 H5124 0.950 . S
C5132 C5133 1.386 . S
C5132 C5134 1.391 . S
C5133 C5132 1.386 . S
C5133 C5137 1.393 . S
C5134 H5126 0.950 . S
C5134 C5132 1.391 . S
C5134 C5135 1.400 . S
C5135 C5134 1.400 . S
C5135 C5136 1.398 . S
C5135 C5141 1.491 . S
C5136 H5127 0.950 . S
C5136 C5135 1.398 . S
C5136 C5137 1.391 . S
C5137 H5125 0.950 . S
C5137 C5133 1.393 . S
C5137 C5136 1.391 . S
C5138 H5128 0.950 . S
C5138 C5139 1.386 . S
C5138 C5140 1.391 . S
C5139 C5138 1.386 . S
C5139 C5143 1.393 . S
C5140 H5129 0.950 . S
C5140 C5138 1.391 . S
C5140 C5141 1.400 . S
C5141 C5135 1.491 . S
C5141 C5140 1.400 . S
C5141 C5142 1.398 . S
C5142 H5130 0.950 . S
C5142 C5141 1.398 . S
C5142 C5143 1.391 . S
C5143 H5131 0.950 . S
C5143 C5139 1.393 . S
C5143 C5142 1.391 . S
H5144 C5152 0.950 . S
H5145 C5157 0.950 . S
H5146 C5154 0.950 . S
H5147 C5156 0.950 . S
H5148 C5158 0.950 . S
H5149 C5160 0.950 . S
H5150 C5162 0.950 . S
H5151 C5163 0.950 . S
C5152 H5144 0.950 . S
C5152 C5153 1.386 . S
C5152 C5154 1.391 . S
C5153 C5152 1.386 . S
C5153 C5157 1.393 . S
C5154 H5146 0.950 . S
C5154 C5152 1.391 . S
C5154 C5155 1.400 . S
C5155 C5154 1.400 . S
C5155 C5156 1.398 . S
C5155 C5161 1.491 . S
C5156 H5147 0.950 . S
C5156 C5155 1.398 . S
C5156 C5157 1.391 . S
C5157 H5145 0.950 . S
C5157 C5153 1.393 . S
C5157 C5156 1.391 . S
C5158 H5148 0.950 . S
C5158 C5159 1.386 . S
C5158 C5160 1.391 . S
C5159 C5158 1.386 . S
C5159 C5163 1.393 . S
C5160 H5149 0.950 . S
C5160 C5158 1.391 . S
C5160 C5161 1.400 . S
C5161 C5155 1.491 . S
C5161 C5160 1.400 . S
C5161 C5162 1.398 . S
C5162 H5150 0.950 . S
C5162 C5161 1.398 . S
C5162 C5163 1.391 . S
C5163 H5151 0.950 . S
C5163 C5159 1.393 . S
C5163 C5162 1.391 . S
H5164 C5172 0.950 . S
H5165 C5177 0.950 . S
H5166 C5174 0.950 . S
H5167 C5176 0.950 . S
H5168 C5178 0.950 . S
H5169 C5180 0.950 . S
H5170 C5182 0.950 . S
H5171 C5183 0.950 . S
C5172 H5164 0.950 . S
C5172 C5173 1.386 . S
C5172 C5174 1.391 . S
C5173 C5172 1.386 . S
C5173 C5177 1.393 . S
C5174 H5166 0.950 . S
C5174 C5172 1.391 . S
C5174 C5175 1.400 . S
C5175 C5174 1.400 . S
C5175 C5176 1.398 . S
C5175 C5181 1.491 . S
C5176 H5167 0.950 . S
C5176 C5175 1.398 . S
C5176 C5177 1.391 . S
C5177 H5165 0.950 . S
C5177 C5173 1.393 . S
C5177 C5176 1.391 . S
C5178 H5168 0.950 . S
C5178 C5179 1.386 . S
C5178 C5180 1.391 . S
C5179 C5178 1.386 . S
C5179 C5183 1.393 . S
C5180 H5169 0.950 . S
C5180 C5178 1.391 . S
C5180 C5181 1.400 . S
C5181 C5175 1.491 . S
C5181 C5180 1.400 . S
C5181 C5182 1.398 . S
C5182 H5170 0.950 . S
C5182 C5181 1.398 . S
C5182 C5183 1.391 . S
C5183 H5171 0.950 . S
C5183 C5179 1.393 . S
C5183 C5182 1.391 . S
C1353 C7 1.122 . S
C1359 C1057 1.095 . S
C1373 C343 1.212 . S
C1379 C23 1.175 . S
C1393 C1029 1.129 . S
C1399 C35 1.113 . S
C1413 C371 1.220 . S
C1419 C51 1.190 . S
C1433 C63 1.121 . S
C1439 C1085 1.127 . S
C1453 C79 1.182 . S
C1459 C427 1.216 . S
C1473 C1113 1.102 . S
C1479 C91 1.095 . S
C1493 C107 1.163 . S
C1499 C399 1.202 . S
C1513 C121 1.148 . S
C1519 C1267 1.179 . S
C1533 C609 1.118 . S
C1539 C133 1.097 . S
C1553 C149 1.155 . S
C1559 C623 1.170 . S
C1573 C161 1.109 . S
C1579 C581 1.128 . S
C1593 C177 1.123 . S
C1599 C1323 1.161 . S
C1613 C189 1.116 . S
C1619 C1239 1.092 . S
C1633 C205 1.133 . S
C1639 C1337 1.170 . S
C1653 C217 1.097 . S
C1659 C1309 1.099 . S
C1673 C1141 1.192 . S
C1679 C233 1.171 . S
C1693 C247 1.197 . S
C1699 C553 1.218 . S
C1713 C261 1.153 . S
C1719 C1183 1.168 . S
C1733 C525 1.190 . S
C1739 C275 1.168 . S
C1753 C289 1.158 . S
C1759 C539 1.175 . S
C1773 C1169 1.205 . S
C1779 C303 1.188 . S
C1793 C317 1.119 . S
C1799 C1127 1.156 . S
C1813 C1155 1.175 . S
C1819 C331 1.141 . S
C1833 C721 1.112 . S
C1839 C345 1.085 . S
C1853 C9 1.228 . S
C1859 C359 1.139 . S
C1873 C373 1.084 . S
C1879 C693 1.111 . S
C1893 C387 1.165 . S
C1899 C37 1.216 . S
C1913 C401 1.118 . S
C1919 C749 1.137 . S
C1933 C93 1.219 . S
C1939 C415 1.177 . S
C1953 C429 1.117 . S
C1959 C777 1.136 . S
C1973 C443 1.154 . S
C1979 C65 1.217 . S
C1993 C457 1.138 . S
C1999 C931 1.165 . S
C2013 C273 1.112 . S
C2019 C471 1.086 . S
C2033 C485 1.145 . S
C2039 C287 1.161 . S
C2053 C245 1.118 . S
C2059 C499 1.097 . S
C2073 C513 1.132 . S
C2079 C987 1.162 . S
C2093 C527 1.117 . S
C2099 C903 1.146 . S
C2113 C541 1.124 . S
C2119 C1001 1.139 . S
C2133 C973 1.114 . S
C2139 C555 1.090 . S
C2153 C807 1.228 . S
C2159 C569 1.139 . S
C2173 C219 1.218 . S
C2179 C583 1.150 . S
C2193 C847 1.149 . S
C2199 C597 1.136 . S
C2213 C611 1.145 . S
C2219 C191 1.219 . S
C2233 C625 1.121 . S
C2239 C203 1.155 . S
C2253 C639 1.144 . S
C2259 C835 1.230 . S
C2273 C791 1.155 . S
C2279 C653 1.122 . S
C2293 C667 1.130 . S
C2299 C819 1.161 . S
C2313 C385 1.092 . S
C2319 C679 1.107 . S
C2333 C1015 1.215 . S
C2339 C695 1.180 . S
C2353 C707 1.123 . S
C2359 C357 1.096 . S
C2373 C1043 1.195 . S
C2379 C723 1.157 . S
C2393 C735 1.129 . S
C2399 C413 1.120 . S
C2413 C1099 1.206 . S
C2419 C751 1.189 . S
C2433 C763 1.098 . S
C2439 C441 1.120 . S
C2453 C1071 1.193 . S
C2459 C779 1.157 . S
C2473 C595 1.147 . S
C2479 C793 1.115 . S
C2493 C805 1.098 . S
C2499 C1281 1.120 . S
C2513 C1295 1.170 . S
C2519 C821 1.133 . S
C2533 C833 1.115 . S
C2539 C1253 1.092 . S
C2553 C651 1.145 . S
C2559 C849 1.118 . S
C2573 C861 1.105 . S
C2579 C567 1.092 . S
C2593 C665 1.150 . S
C2599 C877 1.133 . S
C2613 C637 1.126 . S
C2619 C889 1.104 . S
C2633 C469 1.190 . S
C2639 C905 1.155 . S
C2653 C1225 1.188 . S
C2659 C919 1.165 . S
C2673 C933 1.146 . S
C2679 C511 1.160 . S
C2693 C947 1.183 . S
C2699 C1197 1.200 . S
C2713 C1211 1.180 . S
C2719 C961 1.153 . S
C2733 C497 1.219 . S
C2739 C975 1.186 . S
C2753 C455 1.150 . S
C2759 C989 1.132 . S
C2773 C483 1.147 . S
C2779 C1003 1.126 . S
C2793 C1017 1.111 . S
C2799 C49 1.145 . S
C2813 C1031 1.177 . S
C2819 C681 1.219 . S
C2833 C1045 1.112 . S
C2839 C21 1.145 . S
C2853 C1059 1.142 . S
C2859 C709 1.220 . S
C2873 C77 1.118 . S
C2879 C1073 1.077 . S
C2893 C765 1.231 . S
C2899 C1087 1.151 . S
C2913 C105 1.117 . S
C2919 C1101 1.077 . S
C2933 C737 1.230 . S
C2939 C1115 1.168 . S
C2953 C1129 1.116 . S
C2959 C259 1.134 . S
C2973 C945 1.136 . S
C2979 C1143 1.117 . S
C2993 C1157 1.104 . S
C2999 C959 1.130 . S
C3013 C1171 1.075 . S
C3019 C917 1.115 . S
C3033 C315 1.143 . S
C3039 C1185 1.108 . S
C3053 C231 1.146 . S
C3059 C1199 1.117 . S
C3073 C1213 1.130 . S
C3079 C329 1.161 . S
C3093 C301 1.117 . S
C3099 C1227 1.096 . S
C3113 C1241 1.160 . S
C3119 C135 1.216 . S
C3133 C1255 1.174 . S
C3139 C891 1.227 . S
C3153 C175 1.138 . S
C3159 C1269 1.105 . S
C3173 C1283 1.151 . S
C3179 C863 1.218 . S
C3193 C875 1.131 . S
C3199 C1297 1.102 . S
C3213 C1311 1.175 . S
C3219 C163 1.218 . S
C3233 C1325 1.109 . S
C3239 C119 1.131 . S
C3253 C1339 1.110 . S
C3259 C147 1.145 . S
C3273 C8 1.314 . S
C3279 C134 1.320 . S
C3293 C17 1.282 . S
C3299 C143 1.289 . S
C3313 C162 1.320 . S
C3319 C36 1.314 . S
C3333 C45 1.285 . S
C3339 C115 1.286 . S
C3353 C218 1.321 . S
C3359 C64 1.313 . S
C3373 C73 1.281 . S
C3379 C171 1.290 . S
C3393 C92 1.308 . S
C3399 C190 1.306 . S
C3413 C199 1.284 . S
C3419 C101 1.287 . S
C3433 C255 1.289 . S
C3439 C227 1.282 . S
C3453 C241 1.284 . S
C3459 C983 1.287 . S
C3473 C997 1.279 . S
C3479 C269 1.292 . S
C3493 C283 1.287 . S
C3499 C969 1.283 . S
C3513 C955 1.281 . S
C3519 C297 1.290 . S
C3533 C311 1.280 . S
C3539 C913 1.291 . S
C3553 C325 1.288 . S
C3559 C941 1.283 . S
C3573 C339 1.369 . S
C3579 C465 1.377 . S
C3593 C479 1.233 . S
C3599 C353 1.247 . S
C3613 C493 1.376 . S
C3619 C367 1.371 . S
C3633 C381 1.234 . S
C3639 C451 1.247 . S
C3653 C549 1.374 . S
C3659 C395 1.373 . S
C3673 C409 1.236 . S
C3679 C507 1.243 . S
C3693 C521 1.378 . S
C3699 C423 1.369 . S
C3713 C437 1.234 . S
C3719 C535 1.246 . S
C3733 C591 1.247 . S
C3739 C563 1.234 . S
C3753 C577 1.240 . S
C3759 C1319 1.238 . S
C3773 C605 1.234 . S
C3779 C1333 1.247 . S
C3793 C1305 1.248 . S
C3799 C619 1.233 . S
C3813 C1291 1.234 . S
C3819 C633 1.245 . S
C3833 C1249 1.235 . S
C3839 C647 1.244 . S
C3853 C1277 1.238 . S
C3859 C661 1.240 . S
C3873 C806 1.309 . S
C3879 C680 1.305 . S
C3893 C815 1.287 . S
C3899 C689 1.284 . S
C3913 C834 1.318 . S
C3919 C708 1.303 . S
C3933 C717 1.290 . S
C3939 C787 1.282 . S
C3953 C736 1.303 . S
C3959 C890 1.315 . S
C3973 C745 1.291 . S
C3979 C843 1.280 . S
C3993 C764 1.321 . S
C3999 C862 1.308 . S
C4013 C773 1.282 . S
C4019 C871 1.289 . S
C4033 C927 1.279 . S
C4039 C899 1.292 . S
C4053 C1137 1.379 . S
C4059 C1011 1.367 . S
C4073 C1025 1.235 . S
C4079 C1151 1.248 . S
C4093 C1165 1.374 . S
C4099 C1039 1.373 . S
C4113 C1123 1.241 . S
C4119 C1053 1.244 . S
C4133 C1221 1.378 . S
C4139 C1067 1.368 . S
C4153 C1179 1.243 . S
C4159 C1081 1.236 . S
C4173 C1193 1.367 . S
C4179 C1095 1.379 . S
C4193 C1207 1.248 . S
C4199 C1109 1.235 . S
C4213 C1263 1.236 . S
C4219 C1235 1.247 . S
C4233 C3 1.416 . S
C4239 C288 1.447 . S
C4253 C918 1.506 . S
C4259 C22 1.492 . S
C4273 C932 1.447 . S
C4279 C31 1.412 . S
C4293 C946 1.492 . S
C4299 C50 1.505 . S
C4313 C1002 1.435 . S
C4319 C59 1.433 . S
C4333 C78 1.492 . S
C4339 C302 1.500 . S
C4353 C87 1.417 . S
C4359 C988 1.447 . S
C4373 C106 1.505 . S
C4379 C232 1.497 . S
C4393 C120 1.433 . S
C4399 C213 1.431 . S
C4413 C129 1.421 . S
C4419 C176 1.439 . S
C4433 C148 1.446 . S
C4439 C185 1.413 . S
C4453 C204 1.447 . S
C4459 C157 1.413 . S
C4473 C694 1.491 . S
C4479 C246 1.502 . S
C4493 C260 1.441 . S
C4499 C703 1.427 . S
C4513 C274 1.491 . S
C4519 C722 1.504 . S
C4533 C759 1.418 . S
C4539 C316 1.446 . S
C4553 C330 1.434 . S
C4559 C731 1.434 . S
C4573 C344 1.484 . S
C4579 C624 1.496 . S
C4593 C1254 1.523 . S
C4599 C358 1.515 . S
C4613 C1268 1.485 . S
C4619 C372 1.492 . S
C4633 C1282 1.517 . S
C4639 C386 1.529 . S
C4653 C400 1.484 . S
C4659 C1338 1.499 . S
C4673 C414 1.530 . S
C4679 C638 1.519 . S
C4693 C428 1.499 . S
C4699 C1324 1.491 . S
C4713 C442 1.524 . S
C4719 C568 1.515 . S
C4733 C456 1.500 . S
C4739 C554 1.487 . S
C4753 C470 1.484 . S
C4759 C512 1.494 . S
C4773 C526 1.484 . S
C4779 C484 1.495 . S
C4793 C498 1.500 . S
C4799 C540 1.489 . S
C4813 C1030 1.516 . S
C4819 C582 1.520 . S
C4833 C596 1.484 . S
C4839 C1044 1.495 . S
C4853 C1058 1.517 . S
C4859 C610 1.520 . S
C4873 C652 1.491 . S
C4879 C1100 1.486 . S
C4893 C1072 1.497 . S
C4899 C666 1.484 . S
C4913 C675 1.434 . S
C4919 C960 1.434 . S
C4933 C750 1.506 . S
C4939 C974 1.496 . S
C4953 C778 1.505 . S
C4959 C904 1.492 . S
C4973 C885 1.422 . S
C4979 C792 1.444 . S
C4993 C801 1.417 . S
C4999 C848 1.447 . S
C5013 C857 1.413 . S
C5019 C820 1.448 . S
C5033 C829 1.419 . S
C5039 C876 1.446 . S
C5053 C1296 1.490 . S
C5059 C1016 1.499 . S
C5073 C1086 1.523 . S
C5079 C1310 1.529 . S
C5093 C1114 1.517 . S
C5099 C1240 1.529 . S
C5113 C1226 1.488 . S
C5119 C1128 1.489 . S
C5133 C1184 1.500 . S
C5139 C1142 1.490 . S
C5153 C1156 1.496 . S
C5159 C1198 1.484 . S
C5173 C1170 1.500 . S
C5179 C1212 1.489 . S
