# Generated by pormake.
# Topology uoz, (4)-cn, num edge types: 1
# Building blocks:
#     Node 0, Type 0, BuildingBlock: AZAVOO_clean_sbu_0, # of connection points: 4
#     Node 1, Type 0, BuildingBlock: AZAVOO_clean_sbu_0, # of connection points: 4
#     Node 2, Type 0, BuildingBlock: AZAVOO_clean_sbu_0, # of connection points: 4
#     Node 3, Type 0, BuildingBlock: AZAVOO_clean_sbu_0, # of connection points: 4
#     Node 4, Type 0, BuildingBlock: AZAVOO_clean_sbu_0, # of connection points: 4
#     Node 5, Type 0, BuildingBlock: AZAVOO_clean_sbu_0, # of connection points: 4
#     Node 6, Type 0, BuildingBlock: AZAVOO_clean_sbu_0, # of connection points: 4
#     Node 7, Type 0, BuildingBlock: AZAVOO_clean_sbu_0, # of connection points: 4
#     Node 8, Type 0, BuildingBlock: AZAVOO_clean_sbu_0, # of connection points: 4
#     Node 9, Type 0, BuildingBlock: AZAVOO_clean_sbu_0, # of connection points: 4
#     Node 10, Type 0, BuildingBlock: AZAVOO_clean_sbu_0, # of connection points: 4
#     Node 11, Type 0, BuildingBlock: AZAVOO_clean_sbu_0, # of connection points: 4
#     Node 12, Type 0, BuildingBlock: AZAVOO_clean_sbu_0, # of connection points: 4
#     Node 13, Type 0, BuildingBlock: AZAVOO_clean_sbu_0, # of connection points: 4
#     Node 14, Type 0, BuildingBlock: AZAVOO_clean_sbu_0, # of connection points: 4
#     Node 15, Type 0, BuildingBlock: AZAVOO_clean_sbu_0, # of connection points: 4
#     Edge 16, Type (0, 0), BuildingBlock: KIFKEQ_clean_linker_1, # of connection points: 2
#     Edge 17, Type (0, 0), BuildingBlock: KIFKEQ_clean_linker_1, # of connection points: 2
#     Edge 18, Type (0, 0), BuildingBlock: KIFKEQ_clean_linker_1, # of connection points: 2
#     Edge 19, Type (0, 0), BuildingBlock: KIFKEQ_clean_linker_1, # of connection points: 2
#     Edge 20, Type (0, 0), BuildingBlock: KIFKEQ_clean_linker_1, # of connection points: 2
#     Edge 21, Type (0, 0), BuildingBlock: KIFKEQ_clean_linker_1, # of connection points: 2
#     Edge 22, Type (0, 0), BuildingBlock: KIFKEQ_clean_linker_1, # of connection points: 2
#     Edge 23, Type (0, 0), BuildingBlock: KIFKEQ_clean_linker_1, # of connection points: 2
#     Edge 24, Type (0, 0), BuildingBlock: KIFKEQ_clean_linker_1, # of connection points: 2
#     Edge 25, Type (0, 0), BuildingBlock: KIFKEQ_clean_linker_1, # of connection points: 2
#     Edge 26, Type (0, 0), BuildingBlock: KIFKEQ_clean_linker_1, # of connection points: 2
#     Edge 27, Type (0, 0), BuildingBlock: KIFKEQ_clean_linker_1, # of connection points: 2
#     Edge 28, Type (0, 0), BuildingBlock: KIFKEQ_clean_linker_1, # of connection points: 2
#     Edge 29, Type (0, 0), BuildingBlock: KIFKEQ_clean_linker_1, # of connection points: 2
#     Edge 30, Type (0, 0), BuildingBlock: KIFKEQ_clean_linker_1, # of connection points: 2
#     Edge 31, Type (0, 0), BuildingBlock: KIFKEQ_clean_linker_1, # of connection points: 2
#     Edge 32, Type (0, 0), BuildingBlock: KIFKEQ_clean_linker_1, # of connection points: 2
#     Edge 33, Type (0, 0), BuildingBlock: KIFKEQ_clean_linker_1, # of connection points: 2
#     Edge 34, Type (0, 0), BuildingBlock: KIFKEQ_clean_linker_1, # of connection points: 2
#     Edge 35, Type (0, 0), BuildingBlock: KIFKEQ_clean_linker_1, # of connection points: 2
#     Edge 36, Type (0, 0), BuildingBlock: KIFKEQ_clean_linker_1, # of connection points: 2
#     Edge 37, Type (0, 0), BuildingBlock: KIFKEQ_clean_linker_1, # of connection points: 2
#     Edge 38, Type (0, 0), BuildingBlock: KIFKEQ_clean_linker_1, # of connection points: 2
#     Edge 39, Type (0, 0), BuildingBlock: KIFKEQ_clean_linker_1, # of connection points: 2
#     Edge 40, Type (0, 0), BuildingBlock: KIFKEQ_clean_linker_1, # of connection points: 2
#     Edge 41, Type (0, 0), BuildingBlock: KIFKEQ_clean_linker_1, # of connection points: 2
#     Edge 42, Type (0, 0), BuildingBlock: KIFKEQ_clean_linker_1, # of connection points: 2
#     Edge 43, Type (0, 0), BuildingBlock: KIFKEQ_clean_linker_1, # of connection points: 2
#     Edge 44, Type (0, 0), BuildingBlock: KIFKEQ_clean_linker_1, # of connection points: 2
#     Edge 45, Type (0, 0), BuildingBlock: KIFKEQ_clean_linker_1, # of connection points: 2
#     Edge 46, Type (0, 0), BuildingBlock: KIFKEQ_clean_linker_1, # of connection points: 2
#     Edge 47, Type (0, 0), BuildingBlock: KIFKEQ_clean_linker_1, # of connection points: 2
# Relax obj value: 0.115
# Max RMSD: 0.104
# Mean RMSD: 0.104
data_MOF--net-uoz--node1-AZAVOO_clean_sbu_0--edge1-KIFKEQ_clean_linker_1
_symmetry_space_group_name_H-M    P1
_symmetry_Int_Tables_number       1
_symmetry_cell_setting            triclinic
loop_
_symmetry_equiv_pos_as_xyz
'x, y, z'
_cell_length_a     60.716614
_cell_length_b     60.732152
_cell_length_c     22.872332
_cell_angle_alpha  89.974644
_cell_angle_beta   89.950599
_cell_angle_gamma 90.168383
loop_
_atom_site_label
_atom_site_type_symbol
_atom_site_fract_x
_atom_site_fract_y
_atom_site_fract_z
_atom_type_partial_charge
Mg0 Mg 0.01226 0.5832 0.33129 0.0
O1 O 0.0036 0.55971 0.25598 0.0
O2 O -0.00166 0.57959 0.1748 0.0
Mg3 Mg 0.00491 0.61547 0.19648 0.0
C4 C -0.00123 0.5612 0.20172 0.0
C5 C 0.02887 0.55695 0.44019 0.0
O6 O 0.03189 0.5772 0.45885 0.0
O7 O 0.04729 0.58661 0.29513 0.0
O8 O 0.04083 0.6061 0.21375 0.0
O9 O 0.97632 0.58856 0.3496 0.0
O10 O -0.00386 0.60825 0.2873 0.0
C11 C 0.05389 0.59603 0.24829 0.0
C12 C 0.97725 0.60356 0.30948 0.0
O13 O 0.02159 0.55393 0.38872 0.0
Mg14 Mg 0.6698 0.74348 0.58545 0.0
O15 O 0.69341 0.7367 0.50845 0.0
O16 O 0.67342 0.73541 0.42618 0.0
Mg17 Mg 0.63765 0.74164 0.44881 0.0
C18 C 0.6918 0.73424 0.45304 0.0
C19 C 0.71515 0.73782 0.64908 0.0
O20 O 0.7165 0.72186 0.61049 0.0
O21 O 0.66801 0.7797 0.55711 0.0
O22 O 0.64845 0.77638 0.47451 0.0
O23 O 0.66313 0.70727 0.59554 0.0
O24 O 0.6447 0.7294 0.53658 0.0
C25 C 0.659 0.78798 0.51169 0.0
C26 C 0.64857 0.70978 0.55481 0.0
O27 O 0.6983 0.75021 0.64881 0.0
Mg28 Mg 0.51757 0.40278 0.81991 0.0
O29 O 0.52109 0.42673 0.74226 0.0
O30 O 0.52437 0.40703 0.65993 0.0
Mg31 Mg 0.52044 0.37092 0.68311 0.0
C32 C 0.52381 0.42542 0.68688 0.0
C33 C 0.51953 0.44891 0.88168 0.0
O34 O 0.53445 0.45186 0.84078 0.0
O35 O 0.48132 0.39746 0.79539 0.0
O36 O 0.48528 0.37875 0.71172 0.0
O37 O 0.55435 0.39983 0.82637 0.0
O38 O 0.53344 0.37902 0.76974 0.0
C39 C 0.47328 0.38798 0.75031 0.0
C40 C 0.55285 0.38497 0.78605 0.0
O41 O 0.50909 0.43073 0.88364 0.0
Mg42 Mg 0.85838 0.23792 0.07552 0.0
O43 O 0.83285 0.24401 1.00275 0.0
O44 O 0.85106 0.24562 0.91768 0.0
Mg45 Mg 0.88691 0.23773 0.93342 0.0
C46 C 0.83332 0.24687 0.94734 0.0
C47 C 0.8304 0.2463 0.18537 0.0
O48 O 0.84513 0.26218 0.18646 0.0
O49 O 0.85938 0.20127 0.05121 0.0
O50 O 0.87634 0.20355 0.96443 0.0
O51 O 0.86562 0.27421 0.07893 0.0
O52 O 0.8832 0.25088 0.02195 0.0
C53 C 0.86694 0.1924 1.00469 0.0
C54 C 0.8799 0.2709 0.0379 0.0
O55 O 0.83094 0.23253 0.14345 0.0
Mg56 Mg 0.01347 0.40229 0.83008 0.0
O57 O 0.00404 0.42576 0.90468 0.0
O58 O -0.00046 0.40607 0.98659 0.0
Mg59 Mg 0.00751 0.37042 0.96613 0.0
C60 C -0.00069 0.42434 0.95904 0.0
C61 C 0.02987 0.42896 0.72097 0.0
O62 O 0.03444 0.4089 0.70328 0.0
O63 O 0.04864 0.40072 0.86601 0.0
O64 O 0.04297 0.38149 0.94832 0.0
O65 O 0.97773 0.39526 0.81247 0.0
O66 O -0.00169 0.37678 0.87524 0.0
C67 C 0.05561 0.39197 0.91329 0.0
C68 C 0.97923 0.38054 0.85318 0.0
O69 O 0.02167 0.43168 0.7716 0.0
Mg70 Mg 0.85503 0.74334 0.08604 0.0
O71 O 0.83016 0.73777 0.16099 0.0
O72 O 0.84915 0.73856 0.24488 0.0
Mg73 Mg 0.885 0.74553 0.2258 0.0
C74 C 0.83114 0.73642 0.21677 0.0
C75 C 0.82499 0.73325 0.98054 0.0
O76 O 0.83819 0.71616 0.98207 0.0
O77 O 0.85616 0.78027 0.10752 0.0
O78 O 0.87428 0.77925 0.19271 0.0
O79 O 0.86213 0.70711 0.08459 0.0
O80 O 0.88018 0.73102 0.13909 0.0
C81 C 0.86431 0.78978 0.15241 0.0
C82 C 0.87666 0.71084 0.12473 0.0
O83 O 0.82719 0.74815 0.01922 0.0
Mg84 Mg 0.50915 0.58867 0.31835 0.0
O85 O 0.51527 0.56326 0.39148 0.0
O86 O 0.51589 0.58148 0.47655 0.0
Mg87 Mg 0.50739 0.61715 0.46032 0.0
C88 C 0.51773 0.56377 0.44701 0.0
C89 C 0.51911 0.56013 0.21021 0.0
O90 O 0.53534 0.57449 0.2106 0.0
O91 O 0.47232 0.58901 0.3409 0.0
O92 O 0.47361 0.60603 0.42766 0.0
O93 O 0.54532 0.59664 0.31638 0.0
O94 O 0.52131 0.61375 0.37242 0.0
C95 C 0.46296 0.59643 0.38687 0.0
C96 C 0.54149 0.61085 0.35721 0.0
O97 O 0.50465 0.56113 0.25043 0.0
Mg98 Mg 0.67258 0.24362 0.57458 0.0
O99 O 0.69633 0.24734 0.65252 0.0
O100 O 0.67642 0.25109 0.73442 0.0
Mg101 Mg 0.64035 0.24723 0.71075 0.0
C102 C 0.69488 0.25032 0.70777 0.0
C103 C 0.71894 0.2451 0.51368 0.0
O104 O 0.72191 0.25996 0.55466 0.0
O105 O 0.66699 0.20747 0.60019 0.0
O106 O 0.6481 0.21194 0.68345 0.0
O107 O 0.66998 0.28037 0.56693 0.0
O108 O 0.64881 0.25991 0.62393 0.0
C109 C 0.65737 0.1997 0.64544 0.0
C110 C 0.65504 0.27919 0.60717 0.0
O111 O 0.70067 0.23482 0.51142 0.0
Mg112 Mg 0.35256 0.24081 0.58893 0.0
O113 O 0.32869 0.2372 0.66676 0.0
O114 O 0.34845 0.23336 0.74879 0.0
Mg115 Mg 0.38457 0.23703 0.72528 0.0
C116 C 0.33003 0.23424 0.72203 0.0
C117 C 0.30631 0.23951 0.52799 0.0
O118 O 0.30329 0.2246 0.56887 0.0
O119 O 0.35829 0.2769 0.61448 0.0
O120 O 0.37708 0.27237 0.6978 0.0
O121 O 0.35511 0.20408 0.58119 0.0
O122 O 0.37624 0.22448 0.63829 0.0
C123 C 0.36792 0.28464 0.65969 0.0
C124 C 0.37007 0.20522 0.62133 0.0
O125 O 0.32459 0.24976 0.52577 0.0
Mg126 Mg 0.16963 0.74385 0.07583 0.0
O127 O 0.19296 0.74883 0.15366 0.0
O128 O 0.17286 0.751 0.23559 0.0
Mg129 Mg 0.13706 0.74518 0.21139 0.0
C130 C 0.19134 0.75151 0.20895 0.0
C131 C 0.19679 0.73944 0.9613 0.0
O132 O 0.17769 0.74603 0.94089 0.0
O133 O 0.16576 0.70744 0.10008 0.0
O134 O 0.14638 0.71038 0.18299 0.0
O135 O 0.16517 0.78039 0.06906 0.0
O136 O 0.14473 0.75862 0.12461 0.0
C137 C 0.15635 0.69888 0.14459 0.0
C138 C 0.15011 0.77826 0.10875 0.0
O139 O 0.19887 0.73646 0.01605 0.0
Mg140 Mg 0.16676 0.24822 0.0912 0.0
O141 O 0.19218 0.24234 0.01786 0.0
O142 O 0.17384 0.24133 0.93301 0.0
Mg143 Mg 0.13806 0.24932 0.9496 0.0
C144 C 0.19162 0.23979 0.96236 0.0
C145 C 0.19487 0.23926 0.2003 0.0
O146 O 0.18014 0.22339 0.20115 0.0
O147 O 0.16587 0.28498 0.0683 0.0
O148 O 0.14875 0.28331 0.98173 0.0
O149 O 0.15937 0.21195 0.09365 0.0
O150 O 0.14181 0.23562 0.0376 0.0
C151 C 0.15826 0.29416 0.02231 0.0
C152 C 0.14505 0.21551 0.05294 0.0
O153 O 0.1943 0.25321 0.15879 0.0
Mg154 Mg 0.35427 0.7412 0.57315 0.0
O155 O 0.32944 0.74955 0.50085 0.0
O156 O 0.34779 0.75386 0.41665 0.0
Mg157 Mg 0.38387 0.74658 0.43324 0.0
C158 C 0.32996 0.75392 0.44619 0.0
C159 C 0.32746 0.73953 0.68839 0.0
O160 O 0.34544 0.74983 0.70513 0.0
O161 O 0.35586 0.70577 0.53889 0.0
O162 O 0.37367 0.71111 0.4542 0.0
O163 O 0.36107 0.77719 0.58787 0.0
O164 O 0.37881 0.75635 0.52422 0.0
C165 C 0.36398 0.69858 0.49101 0.0
C166 C 0.37517 0.77555 0.54567 0.0
O167 O 0.32598 0.73308 0.63564 0.0
Mg168 Mg 0.51073 0.08174 0.82138 0.0
O169 O 0.5054 0.05739 0.74536 0.0
O170 O 0.50164 0.07705 0.66304 0.0
Mg171 Mg 0.50663 0.11319 0.68412 0.0
C172 C 0.502 0.05869 0.69024 0.0
C173 C 0.50495 0.03884 0.89336 0.0
O174 O 0.48686 0.03916 0.86188 0.0
O175 O 0.54677 0.0862 0.79295 0.0
O176 O 0.54198 0.10493 0.70961 0.0
O177 O 0.47417 0.08563 0.83176 0.0
O178 O 0.49463 0.10572 0.77217 0.0
C179 C 0.55436 0.09554 0.74706 0.0
C180 C 0.47536 0.10026 0.79078 0.0
O181 O 0.51928 0.05386 0.88521 0.0
Mg182 Mg 0.0103 0.9014 0.32187 0.0
O183 O 0.01646 0.92481 0.24416 0.0
O184 O 0.01926 0.90463 0.1625 0.0
Mg185 Mg 0.01216 0.86904 0.18586 0.0
C186 C 0.0198 0.9231 0.18909 0.0
C187 C 0.0141 0.9478 0.3824 0.0
O188 O 0.02897 0.95027 0.34114 0.0
O189 O 0.97402 0.89882 0.29475 0.0
O190 O 0.97749 0.87981 0.21146 0.0
O191 O 0.04664 0.89605 0.33109 0.0
O192 O 0.02507 0.87649 0.27307 0.0
C193 C 0.9658 0.89003 0.24896 0.0
C194 C 0.04465 0.88134 0.29053 0.0
O195 O 0.00315 0.92993 0.38487 0.0
Mg196 Mg 0.51736 0.89651 0.32178 0.0
O197 O 0.5094 0.92156 0.39449 0.0
O198 O 0.50712 0.90309 0.47901 0.0
Mg199 Mg 0.51627 0.86755 0.46319 0.0
C200 C 0.50578 0.92087 0.44957 0.0
C201 C 0.50654 0.93635 0.24153 0.0
O202 O 0.48773 0.93327 0.26882 0.0
O203 O 0.55364 0.89661 0.34999 0.0
O204 O 0.55055 0.87929 0.43609 0.0
O205 O 0.48138 0.88806 0.3142 0.0
O206 O 0.50444 0.87116 0.37337 0.0
C207 C 0.56201 0.88917 0.39728 0.0
C208 C 0.48457 0.87386 0.3555 0.0
O209 O 0.52285 0.92429 0.25511 0.0
Mg210 Mg 0.01408 0.08619 0.82217 0.0
O211 O 0.02156 0.06048 0.89359 0.0
O212 O 0.02452 0.0785 0.97876 0.0
Mg213 Mg 0.01705 0.11461 0.96444 0.0
C214 C 0.02519 0.06081 0.9487 0.0
C215 C 0.02001 0.0589 0.71045 0.0
O216 O 0.03583 0.07366 0.7076 0.0
O217 O 0.9781 0.08709 0.85286 0.0
O218 O 0.98212 0.10417 0.93903 0.0
O219 O 0.05027 0.09353 0.81192 0.0
O220 O 0.02835 0.11026 0.87475 0.0
C221 C 0.97019 0.09469 0.90054 0.0
C222 C 0.04789 0.10712 0.85491 0.0
O223 O 0.00707 0.05919 0.75425 0.0
H224 H 0.16918 0.67263 0.23419 0.0
H225 H 0.13641 0.67191 0.0673 0.0
H226 H 0.15323 0.63683 0.25789 0.0
H227 H 0.11883 0.63737 0.092 0.0
H228 H 0.07552 0.58675 0.14739 0.0
H229 H 0.11082 0.60231 0.11751 0.0
H230 H 0.11904 0.62923 0.29156 0.0
H231 H 0.08493 0.61197 0.32161 0.0
C232 C 0.15909 0.66436 0.20184 0.0
C233 C 0.15382 0.67492 0.1492 0.0
C234 C 0.14961 0.64402 0.21568 0.0
C235 C 0.13385 0.63442 0.17825 0.0
C236 C 0.13076 0.64394 0.12248 0.0
C237 C 0.14084 0.66391 0.10797 0.0
C238 C 0.08555 0.59513 0.17967 0.0
C239 C 0.07755 0.59844 0.23651 0.0
C240 C 0.10564 0.60437 0.16246 0.0
C241 C 0.11756 0.61798 0.20108 0.0
C242 C 0.11062 0.61899 0.25999 0.0
C243 C 0.09089 0.6091 0.27759 0.0
H244 H 0.58559 0.90335 0.49075 0.0
H245 H 0.59182 0.87164 0.32316 0.0
H246 H 0.6209 0.88815 0.52097 0.0
H247 H 0.62601 0.85498 0.35396 0.0
H248 H 0.64121 0.81809 0.58449 0.0
H249 H 0.62624 0.85311 0.5538 0.0
H250 H 0.66034 0.84719 0.38816 0.0
H251 H 0.67379 0.81113 0.41822 0.0
C252 C 0.59502 0.89379 0.4596 0.0
C253 C 0.586 0.88837 0.40501 0.0
C254 C 0.6151 0.88475 0.47714 0.0
C255 C 0.62597 0.86938 0.44128 0.0
C256 C 0.61831 0.86656 0.38345 0.0
C257 C 0.59856 0.87615 0.36537 0.0
C258 C 0.64622 0.82478 0.54258 0.0
C259 C 0.6583 0.81192 0.50334 0.0
C260 C 0.63766 0.84501 0.52461 0.0
C261 C 0.64135 0.85285 0.46724 0.0
C262 C 0.65635 0.84136 0.43163 0.0
C263 C 0.66436 0.82083 0.44906 0.0
H264 H 0.44547 0.36945 0.8287 0.0
H265 H 0.44798 0.39842 0.65686 0.0
H266 H 0.41089 0.35167 0.80465 0.0
H267 H 0.41233 0.38211 0.63341 0.0
H268 H 0.35826 0.30967 0.75426 0.0
H269 H 0.37524 0.34495 0.77832 0.0
H270 H 0.40489 0.34671 0.60607 0.0
H271 H 0.38645 0.31253 0.58151 0.0
C272 C 0.4379 0.37299 0.78686 0.0
C273 C 0.44939 0.38497 0.74433 0.0
C274 C 0.41793 0.36281 0.77275 0.0
C275 C 0.40894 0.36478 0.71605 0.0
C276 C 0.41909 0.37945 0.67661 0.0
C277 C 0.43936 0.38908 0.69022 0.0
C278 C 0.36757 0.3183 0.72086 0.0
C279 C 0.37128 0.30846 0.66629 0.0
C280 C 0.37759 0.33835 0.7348 0.0
C281 C 0.39223 0.34845 0.69519 0.0
C282 C 0.39379 0.33969 0.63813 0.0
C283 C 0.38322 0.31996 0.62371 0.0
H284 H 0.85348 0.16693 0.914 0.0
H285 H 0.88537 0.16436 0.082 0.0
H286 H 0.86947 0.13149 0.88806 0.0
H287 H 0.90282 0.13008 0.05532 0.0
H288 H 0.94744 0.08182 0.99687 0.0
H289 H 0.91129 0.09539 0.0257 0.0
H290 H 0.90444 0.12592 0.85553 0.0
H291 H 0.93956 0.11078 0.82623 0.0
C292 C 0.86329 0.15829 0.94619 0.0
C293 C 0.86848 0.16836 0.99963 0.0
C294 C 0.87277 0.13814 0.93108 0.0
C295 C 0.88838 0.12824 0.96817 0.0
C296 C 0.89106 0.13699 0.02496 0.0
C297 C 0.88102 0.1568 0.04066 0.0
C298 C 0.93756 0.09053 0.96496 0.0
C299 C 0.94625 0.09557 0.90969 0.0
C300 C 0.91696 0.09859 0.98163 0.0
C301 C 0.90516 0.11267 0.94415 0.0
C302 C 0.9128 0.11526 0.88617 0.0
C303 C 0.93309 0.1066 0.86901 0.0
H304 H 0.08763 0.37701 0.84162 0.0
H305 H 0.07644 0.40357 0.01364 0.0
H306 H 0.12239 0.36189 0.87357 0.0
H307 H 0.11229 0.39017 0.04535 0.0
H308 H 0.17264 0.32049 0.93419 0.0
H309 H 0.15668 0.35602 0.90905 0.0
H310 H 0.12124 0.35564 0.07351 0.0
H311 H 0.13875 0.32137 0.09966 0.0
C312 C 0.0933 0.38067 0.88548 0.0
C313 C 0.07932 0.39102 0.92553 0.0
C314 C 0.1134 0.37203 0.90419 0.0
C315 C 0.12005 0.37399 0.96316 0.0
C316 C 0.1074 0.3874 1.00046 0.0
C317 C 0.08697 0.3954 0.98219 0.0
C318 C 0.16238 0.32878 0.96606 0.0
C319 C 0.15666 0.31823 0.01849 0.0
C320 C 0.15288 0.34897 0.95135 0.0
C321 C 0.1367 0.35838 0.98767 0.0
C322 C 0.13344 0.34914 0.04372 0.0
C323 C 0.14352 0.32932 0.05912 0.0
H324 H 0.93568 0.87386 0.32494 0.0
H325 H 0.94255 0.90232 0.15332 0.0
H326 H 0.90064 0.85795 0.2971 0.0
H327 H 0.9065 0.88789 0.12589 0.0
H328 H 0.85022 0.81566 0.2413 0.0
H329 H 0.86551 0.8517 0.26519 0.0
H330 H 0.89906 0.85253 0.09804 0.0
H331 H 0.88235 0.81755 0.0734 0.0
C332 C 0.92898 0.87778 0.28229 0.0
C333 C 0.94184 0.8889 0.2409 0.0
C334 C 0.90874 0.86867 0.26597 0.0
C335 C 0.9009 0.87086 0.20812 0.0
C336 C 0.91235 0.88503 0.16993 0.0
C337 C 0.93288 0.89358 0.18579 0.0
C338 C 0.8599 0.82428 0.20863 0.0
C339 C 0.86539 0.81388 0.15586 0.0
C340 C 0.86897 0.84478 0.22257 0.0
C341 C 0.88442 0.85474 0.18493 0.0
C342 C 0.88738 0.84558 0.12871 0.0
C343 C 0.87778 0.82538 0.1142 0.0
H344 H 0.37938 0.6672 0.56412 0.0
H345 H 0.3525 0.67689 0.39181 0.0
H346 H 0.39485 0.6324 0.5337 0.0
H347 H 0.36632 0.641 0.36169 0.0
H348 H 0.43559 0.61516 0.30858 0.0
H349 H 0.40107 0.6324 0.3339 0.0
H350 H 0.40094 0.59787 0.49965 0.0
H351 H 0.43667 0.58216 0.47526 0.0
C352 C 0.37574 0.6612 0.52057 0.0
C353 C 0.3652 0.67479 0.47994 0.0
C354 C 0.38458 0.64107 0.50275 0.0
C355 C 0.38265 0.634 0.44412 0.0
C356 C 0.36905 0.64624 0.40633 0.0
C357 C 0.36084 0.66668 0.4237 0.0
C358 C 0.42764 0.61052 0.34923 0.0
C359 C 0.43885 0.59773 0.39042 0.0
C360 C 0.40769 0.62044 0.36416 0.0
C361 C 0.39843 0.61738 0.42028 0.0
C362 C 0.40799 0.6015 0.45724 0.0
C363 C 0.4283 0.59215 0.44297 0.0
H364 H 0.63795 0.17161 0.5695 0.0
H365 H 0.66856 0.17485 0.73911 0.0
H366 H 0.62022 0.13725 0.59618 0.0
H367 H 0.65229 0.13943 0.76516 0.0
H368 H 0.5831 0.11405 0.82284 0.0
H369 H 0.61714 0.13219 0.79525 0.0
H370 H 0.61365 0.10174 0.62432 0.0
H371 H 0.57853 0.08504 0.65143 0.0
C372 C 0.64185 0.16423 0.61137 0.0
C373 C 0.65431 0.17586 0.65253 0.0
C374 C 0.6317 0.14439 0.627 0.0
C375 C 0.63417 0.13567 0.68389 0.0
C376 C 0.64926 0.14596 0.72188 0.0
C377 C 0.65887 0.16611 0.70677 0.0
C378 C 0.59014 0.11056 0.78029 0.0
C379 C 0.57818 0.09847 0.73898 0.0
C380 C 0.60979 0.12097 0.76412 0.0
C381 C 0.61799 0.11912 0.70652 0.0
C382 C 0.60748 0.10431 0.6682 0.0
C383 C 0.58752 0.09444 0.68391 0.0
H384 H 0.96682 0.37786 0.96676 0.0
H385 H 0.94803 0.35775 0.79296 0.0
H386 H 0.93856 0.35386 0.00842 0.0
H387 H 0.91977 0.33331 0.83478 0.0
H388 H 0.87564 0.31522 0.0585 0.0
H389 H 0.89549 0.34537 0.00987 0.0
H390 H 0.92887 0.29832 0.90007 0.0
H391 H 0.91011 0.26841 0.94971 0.0
C392 C 0.9564 0.36851 0.93753 0.0
C393 C 0.95971 0.36932 0.87685 0.0
C394 C 0.94009 0.35498 0.96131 0.0
C395 C 0.92712 0.34171 0.92476 0.0
C396 C 0.92964 0.34341 0.86377 0.0
C397 C 0.94569 0.35736 0.83992 0.0
C398 C 0.8871 0.31135 0.0237 0.0
C399 C 0.89104 0.28937 0.00753 0.0
C400 C 0.89835 0.32858 0.99582 0.0
C401 C 0.91336 0.32411 0.95061 0.0
C402 C 0.91695 0.30223 0.93379 0.0
C403 C 0.90614 0.28506 0.96236 0.0
H404 H 0.46863 0.11168 0.67687 0.0
H405 H 0.43658 0.10986 0.84517 0.0
H406 H 0.43842 0.13286 0.63703 0.0
H407 H 0.40554 0.13055 0.80459 0.0
H408 H 0.38165 0.19902 0.73522 0.0
H409 H 0.40294 0.16898 0.77568 0.0
H410 H 0.39982 0.13518 0.60964 0.0
H411 H 0.37902 0.16603 0.56843 0.0
C412 C 0.45509 0.11578 0.70538 0.0
C413 C 0.45537 0.10988 0.76468 0.0
C414 C 0.43747 0.12753 0.68215 0.0
C415 C 0.41965 0.13362 0.71777 0.0
C416 C 0.4192 0.12637 0.77624 0.0
C417 C 0.43688 0.11447 0.79942 0.0
C418 C 0.38557 0.18529 0.70722 0.0
C419 C 0.37943 0.18525 0.64811 0.0
C420 C 0.39739 0.16777 0.73081 0.0
C421 C 0.40333 0.14978 0.69571 0.0
C422 C 0.39577 0.14899 0.63755 0.0
C423 C 0.38381 0.16656 0.61403 0.0
H424 H 0.53803 0.64024 0.4471 0.0
H425 H 0.58594 0.60825 0.33627 0.0
H426 H 0.56736 0.65925 0.49836 0.0
H427 H 0.61546 0.62852 0.38637 0.0
H428 H 0.62737 0.67602 0.60915 0.0
H429 H 0.60359 0.64825 0.56281 0.0
H430 H 0.62151 0.67335 0.39269 0.0
H431 H 0.64481 0.70123 0.43889 0.0
C432 C 0.55479 0.63688 0.43425 0.0
C433 C 0.55958 0.62233 0.38821 0.0
C434 C 0.57162 0.64786 0.4637 0.0
C435 C 0.59361 0.64504 0.4468 0.0
C436 C 0.59858 0.63071 0.40048 0.0
C437 C 0.5817 0.61923 0.3718 0.0
C438 C 0.62653 0.67522 0.56188 0.0
C439 C 0.63754 0.69087 0.52743 0.0
C440 C 0.61298 0.65943 0.53549 0.0
C441 C 0.61078 0.65879 0.47433 0.0
C442 C 0.62306 0.67347 0.43988 0.0
C443 C 0.63617 0.68953 0.46629 0.0
H444 H 0.13888 0.78304 0.22342 0.0
H445 H 0.13938 0.81752 0.05854 0.0
H446 H 0.11713 0.81214 0.26691 0.0
H447 H 0.1181 0.84744 0.10282 0.0
H448 H 0.04998 0.86985 0.17613 0.0
H449 H 0.0797 0.84884 0.13328 0.0
H450 H 0.11436 0.85037 0.29818 0.0
H451 H 0.08381 0.87093 0.34184 0.0
C452 C 0.13435 0.79687 0.19643 0.0
C453 C 0.14007 0.79761 0.13702 0.0
C454 C 0.12226 0.81385 0.22177 0.0
C455 C 0.11565 0.83202 0.18818 0.0
C456 C 0.12268 0.83348 0.12961 0.0
C457 C 0.13491 0.81645 0.10432 0.0
C458 C 0.06376 0.86557 0.2035 0.0
C459 C 0.06416 0.87129 0.26291 0.0
C460 C 0.08111 0.85392 0.17851 0.0
C461 C 0.09934 0.84773 0.21242 0.0
C462 C 0.10038 0.85465 0.27111 0.0
C463 C 0.08297 0.86646 0.29606 0.0
H464 H 0.94601 0.62583 0.37049 0.0
H465 H 0.96415 0.60536 0.19651 0.0
H466 H 0.91727 0.64962 0.32917 0.0
H467 H 0.9354 0.62868 0.15535 0.0
H468 H 0.90702 0.71401 0.21242 0.0
H469 H 0.92594 0.68447 0.26263 0.0
H470 H 0.89229 0.63666 0.15532 0.0
H471 H 0.87231 0.66642 0.10611 0.0
C472 C 0.94339 0.62596 0.32364 0.0
C473 C 0.95735 0.6141 0.28644 0.0
C474 C 0.92707 0.63954 0.30007 0.0
C475 C 0.92425 0.64097 0.23915 0.0
C476 C 0.93715 0.62775 0.20243 0.0
C477 C 0.95372 0.61459 0.2259 0.0
C478 C 0.90303 0.69727 0.20044 0.0
C479 C 0.88784 0.69264 0.15574 0.0
C480 C 0.91393 0.68032 0.22936 0.0
C481 C 0.91031 0.65833 0.21336 0.0
C482 C 0.89517 0.65353 0.16873 0.0
C483 C 0.88385 0.67055 0.14051 0.0
H484 H 0.05739 0.1097 0.97072 0.0
H485 H 0.08076 0.12954 0.80044 0.0
H486 H 0.08489 0.13341 0.01704 0.0
H487 H 0.10819 0.15363 0.84691 0.0
H488 H 0.14881 0.17109 0.07302 0.0
H489 H 0.12915 0.14121 0.02273 0.0
H490 H 0.09672 0.18883 0.91278 0.0
H491 H 0.11516 0.21847 0.96419 0.0
C492 C 0.06861 0.11895 0.9433 0.0
C493 C 0.06681 0.11818 0.88217 0.0
C494 C 0.08448 0.13229 0.96977 0.0
C495 C 0.0985 0.14535 0.93542 0.0
C496 C 0.0975 0.14366 0.87418 0.0
C497 C 0.08191 0.12992 0.8477 0.0
C498 C 0.13757 0.17515 0.03791 0.0
C499 C 0.13386 0.19722 0.02206 0.0
C500 C 0.12644 0.15807 0.00912 0.0
C501 C 0.11182 0.1628 0.96327 0.0
C502 C 0.10835 0.18476 0.94703 0.0
C503 C 0.119 0.20177 0.97656 0.0
H504 H 0.6462 0.31868 0.55555 0.0
H505 H 0.64411 0.2851 0.72167 0.0
H506 H 0.6263 0.34977 0.59865 0.0
H507 H 0.62373 0.3154 0.76402 0.0
H508 H 0.59206 0.37484 0.83733 0.0
H509 H 0.62237 0.35382 0.79398 0.0
H510 H 0.58795 0.35288 0.62866 0.0
H511 H 0.55845 0.37436 0.67131 0.0
C512 C 0.6417 0.31805 0.60137 0.0
C513 C 0.64598 0.29916 0.63477 0.0
C514 C 0.63026 0.33577 0.62599 0.0
C515 C 0.62315 0.33493 0.68458 0.0
C516 C 0.62896 0.31666 0.71886 0.0
C517 C 0.64024 0.299 0.69419 0.0
C518 C 0.59129 0.37049 0.79145 0.0
C519 C 0.57258 0.37552 0.75815 0.0
C520 C 0.60855 0.3584 0.76669 0.0
C521 C 0.60741 0.35138 0.70808 0.0
C522 C 0.58942 0.358 0.67385 0.0
C523 C 0.57221 0.36993 0.69866 0.0
H524 H 0.39825 0.80724 0.60304 0.0
H525 H 0.37698 0.78714 0.43125 0.0
H526 H 0.42258 0.83499 0.5586 0.0
H527 H 0.40093 0.81492 0.38695 0.0
H528 H 0.48704 0.84292 0.44162 0.0
H529 H 0.45712 0.82437 0.49177 0.0
H530 H 0.40998 0.85837 0.3837 0.0
H531 H 0.44018 0.8781 0.33468 0.0
C532 C 0.39834 0.80921 0.55596 0.0
C533 C 0.38611 0.79494 0.52036 0.0
C534 C 0.41224 0.82497 0.5306 0.0
C535 C 0.41363 0.82694 0.46943 0.0
C536 C 0.40005 0.81379 0.43417 0.0
C537 C 0.38655 0.79776 0.45947 0.0
C538 C 0.47037 0.84706 0.42942 0.0
C539 C 0.46605 0.86239 0.38486 0.0
C540 C 0.4532 0.83635 0.45825 0.0
C541 C 0.43129 0.84025 0.44225 0.0
C542 C 0.4268 0.85531 0.39717 0.0
C543 C 0.44405 0.86647 0.36905 0.0
H544 H 0.00642 0.51866 0.23503 0.0
H545 H 0.98169 0.55788 0.09166 0.0
H546 H 0.00307 0.4857 0.17529 0.0
H547 H 0.97778 0.5248 0.03252 0.0
H548 H 0.00619 0.46695 0.9248 0.0
H549 H 0.00269 0.49994 0.98431 0.0
H550 H 0.97801 0.46066 0.12789 0.0
H551 H 0.98208 0.42757 0.06898 0.0
C552 C -9e-05 0.52021 0.19114 0.0
C553 C -0.00543 0.54092 0.16789 0.0
C554 C -0.00213 0.50128 0.15696 0.0
C555 C 0.99028 0.50266 0.09899 0.0
C556 C 0.98405 0.52326 0.07664 0.0
C557 C 0.98622 0.54219 0.11066 0.0
C558 C -0.00025 0.46537 0.9688 0.0
C559 C -0.00533 0.44461 0.99239 0.0
C560 C -0.00236 0.48431 1.00286 0.0
C561 C 0.99024 0.48289 0.06103 0.0
C562 C 0.98416 0.46224 0.08363 0.0
C563 C 0.98641 0.4433 0.04973 0.0
H564 H 0.82505 0.74465 0.3324 0.0
H565 H 0.79119 0.72093 0.17855 0.0
H566 H 0.79142 0.74138 0.38858 0.0
H567 H 0.75749 0.71664 0.23579 0.0
H568 H 0.69671 0.74094 0.33612 0.0
H569 H 0.73027 0.73888 0.27896 0.0
H570 H 0.7659 0.71741 0.43234 0.0
H571 H 0.73235 0.72054 0.49031 0.0
C572 C 0.81046 0.73837 0.31074 0.0
C573 C 0.81075 0.73315 0.25089 0.0
C574 C 0.79117 0.73631 0.34321 0.0
C575 C 0.77169 0.72868 0.31689 0.0
C576 C 0.7721 0.7229 0.25727 0.0
C577 C 0.79141 0.72527 0.22447 0.0
C578 C 0.71167 0.7356 0.35762 0.0
C579 C 0.71193 0.73109 0.4179 0.0
C580 C 0.73092 0.73425 0.32464 0.0
C581 C 0.75086 0.72806 0.35096 0.0
C582 C 0.75092 0.72269 0.41086 0.0
C583 C 0.73169 0.72437 0.4441 0.0
H584 H 0.53479 0.55965 0.5564 0.0
H585 H 0.51021 0.52145 0.4109 0.0
H586 H 0.53891 0.5262 0.61365 0.0
H587 H 0.51362 0.48795 0.46901 0.0
H588 H 0.53731 0.42951 0.5735 0.0
H589 H 0.53863 0.46279 0.5144 0.0
H590 H 0.51516 0.50064 0.66176 0.0
H591 H 0.51452 0.46748 0.72143 0.0
C592 C 0.53027 0.54407 0.53661 0.0
C593 C 0.52199 0.54318 0.47929 0.0
C594 C 0.53252 0.52492 0.56958 0.0
C595 C 0.52634 0.50443 0.54624 0.0
C596 C 0.51874 0.50345 0.48816 0.0
C597 C 0.5167 0.52263 0.45488 0.0
C598 C 0.53255 0.44496 0.59342 0.0
C599 C 0.52571 0.44584 0.65213 0.0
C600 C 0.53321 0.46402 0.55939 0.0
C601 C 0.5269 0.48436 0.58319 0.0
C602 C 0.52045 0.48529 0.64224 0.0
C603 C 0.51996 0.46626 0.67643 0.0
H604 H 0.82876 0.26407 0.83816 0.0
H605 H 0.79116 0.23843 0.98373 0.0
H606 H 0.79521 0.26746 0.78109 0.0
H607 H 0.75757 0.24116 0.92581 0.0
H608 H 0.69863 0.2638 0.82122 0.0
H609 H 0.73186 0.26576 0.88036 0.0
H610 H 0.77024 0.24288 0.73327 0.0
H611 H 0.73713 0.24156 0.67356 0.0
C612 C 0.8133 0.25918 0.85802 0.0
C613 C 0.81261 0.25079 0.91529 0.0
C614 C 0.79408 0.26101 0.82515 0.0
C615 C 0.77376 0.25431 0.84856 0.0
C616 C 0.77295 0.24665 0.90662 0.0
C617 C 0.79219 0.24501 0.93979 0.0
C618 C 0.71418 0.25929 0.80137 0.0
C619 C 0.71523 0.25243 0.7427 0.0
C620 C 0.73321 0.26032 0.83541 0.0
C621 C 0.75368 0.25439 0.81167 0.0
C622 C 0.75477 0.24788 0.75271 0.0
C623 C 0.73576 0.247 0.71851 0.0
H624 H 0.23394 0.2475 0.99839 0.0
H625 H 0.19581 0.22299 0.85265 0.0
H626 H 0.26745 0.2443 0.94017 0.0
H627 H 0.22927 0.21911 0.79529 0.0
H628 H 0.28797 0.24372 0.68776 0.0
H629 H 0.25481 0.24305 0.74749 0.0
H630 H 0.29265 0.2193 0.8945 0.0
H631 H 0.32594 0.22064 0.83534 0.0
C632 C 0.23277 0.24108 0.95432 0.0
C633 C 0.21223 0.23574 0.9299 0.0
C634 C 0.25197 0.23916 0.92099 0.0
C635 C 0.251 0.23165 0.86283 0.0
C636 C 0.23054 0.22543 0.83943 0.0
C637 C 0.21137 0.22755 0.87247 0.0
C638 C 0.2892 0.23822 0.73269 0.0
C639 C 0.30961 0.23238 0.75687 0.0
C640 C 0.27016 0.23771 0.76691 0.0
C641 C 0.27109 0.23116 0.82588 0.0
C642 C 0.29143 0.22479 0.84957 0.0
C643 C 0.31049 0.22546 0.81551 0.0
H644 H 0.32461 0.77221 0.33825 0.0
H645 H 0.28821 0.74407 0.48277 0.0
H646 H 0.29077 0.77478 0.28178 0.0
H647 H 0.25449 0.74597 0.42558 0.0
H648 H 0.19436 0.76521 0.32241 0.0
H649 H 0.22753 0.76936 0.3811 0.0
H650 H 0.26704 0.74905 0.23345 0.0
H651 H 0.23398 0.74556 0.17425 0.0
C652 C 0.30936 0.76666 0.35806 0.0
C653 C 0.3091 0.75774 0.41476 0.0
C654 C 0.29 0.76802 0.32556 0.0
C655 C 0.26999 0.76032 0.34885 0.0
C656 C 0.26958 0.75225 0.4065 0.0
C657 C 0.28894 0.75107 0.43925 0.0
C658 C 0.21015 0.76174 0.30236 0.0
C659 C 0.21153 0.75493 0.24373 0.0
C660 C 0.22914 0.76406 0.3361 0.0
C661 C 0.24992 0.75947 0.31206 0.0
C662 C 0.25132 0.75306 0.25309 0.0
C663 C 0.23235 0.75091 0.21921 0.0
H664 H 0.48794 0.92484 0.55833 0.0
H665 H 0.51322 0.96327 0.41385 0.0
H666 H 0.48389 0.95817 0.61607 0.0
H667 H 0.50981 -0.00339 0.47239 0.0
H668 H 0.48739 0.05502 0.57784 0.0
H669 H 0.48494 0.02188 0.51856 0.0
H670 H 0.50832 0.98324 0.66452 0.0
H671 H 0.51015 0.01631 0.72444 0.0
C672 C 0.49257 0.94044 0.5388 0.0
C673 C 0.50112 0.94141 0.4817 0.0
C674 C 0.49036 0.95952 0.57206 0.0
C675 C 0.4968 0.98001 0.54918 0.0
C676 C 0.5045 0.98111 0.49119 0.0
C677 C 0.50654 0.962 0.45766 0.0
C678 C 0.49187 0.03943 0.59747 0.0
C679 C 0.49912 0.03832 0.6558 0.0
C680 C 0.49055 0.02045 0.56334 0.0
C681 C 0.49657 -6e-05 0.58661 0.0
C682 C 0.50328 -0.00125 0.64541 0.0
C683 C 0.50445 0.01772 0.67973 0.0
H684 H 0.01525 0.01904 0.91243 0.0
H685 H 0.04322 0.05553 0.05675 0.0
H686 H 0.01655 0.98545 0.97065 0.0
H687 H 0.04512 0.02191 0.11423 0.0
H688 H 0.01429 0.96597 0.22252 0.0
H689 H 0.01863 -0.00124 0.16242 0.0
H690 H 0.03956 0.95843 0.01705 0.0
H691 H 0.03463 0.92558 0.07657 0.0
C692 C 0.02211 0.0198 0.95609 0.0
C693 C 0.02887 0.03995 0.98026 0.0
C694 C 0.02292 0.00054 0.98945 0.0
C695 C 0.0307 0.00108 0.04737 0.0
C696 C 0.03857 0.02105 0.07027 0.0
C697 C 0.03758 0.04029 0.03717 0.0
C698 C 0.01998 0.96411 0.1779 0.0
C699 C 0.02393 0.94316 0.15422 0.0
C700 C 0.0226 0.98292 0.1435 0.0
C701 C 0.0294 0.98119 0.08485 0.0
C702 C 0.03396 0.96029 0.06174 0.0
C703 C 0.0312 0.94147 0.09599 0.0
H704 H 0.01971 0.47213 0.74158 0.0
H705 H 0.04635 0.42883 0.60952 0.0
H706 H 0.02175 0.50284 0.67335 0.0
H707 H 0.04884 0.45972 0.54161 0.0
H708 H 0.02137 0.51329 0.41797 0.0
H709 H 0.02384 0.4826 0.48618 0.0
H710 H 0.04666 0.52694 0.62097 0.0
H711 H 0.04372 0.55775 0.55308 0.0
C712 C 0.02626 0.4692 0.69821 0.0
C713 C 0.03273 0.44797 0.68094 0.0
C714 C 0.02755 0.48687 0.65914 0.0
C715 C 0.0354 0.48376 0.60186 0.0
C716 C 0.04241 0.46263 0.5851 0.0
C717 C 0.0411 0.44494 0.62418 0.0
C718 C 0.02708 0.51649 0.46201 0.0
C719 C 0.0322 0.53802 0.48014 0.0
C720 C 0.02862 0.49884 0.50109 0.0
C721 C 0.03535 0.50229 0.55922 0.0
C722 C 0.04108 0.52375 0.57681 0.0
C723 C 0.03952 0.5414 0.53775 0.0
H724 H 0.81266 0.70148 0.90339 0.0
H725 H 0.79997 0.76917 0.95011 0.0
H726 H 0.7866 0.70421 0.82349 0.0
H727 H 0.77423 0.7722 0.86826 0.0
H728 H 0.71253 0.76068 0.75225 0.0
H729 H 0.73896 0.76059 0.83264 0.0
H730 H 0.78278 0.72007 0.72993 0.0
H731 H 0.75605 0.71949 0.65085 0.0
C732 C 0.80438 0.71704 0.89639 0.0
C733 C 0.80847 0.73513 0.93309 0.0
C734 C 0.78953 0.71867 0.85009 0.0
C735 C 0.77846 0.73852 0.83867 0.0
C736 C 0.78232 0.7566 0.8759 0.0
C737 C 0.79712 0.7549 0.92273 0.0
C738 C 0.72791 0.75191 0.74674 0.0
C739 C 0.73209 0.73989 0.6954 0.0
C740 C 0.74312 0.75192 0.79279 0.0
C741 C 0.76293 0.74007 0.78828 0.0
C742 C 0.76746 0.72889 0.73573 0.0
C743 C 0.75219 0.72869 0.69009 0.0
H744 H 0.55042 0.55081 0.12892 0.0
H745 H 0.48503 0.53179 0.18419 0.0
H746 H 0.54875 0.5243 0.04986 0.0
H747 H 0.48302 0.50552 0.1032 0.0
H748 H 0.49875 0.4445 0.98768 0.0
H749 H 0.49748 0.47129 0.06722 0.0
H750 H 0.53167 0.51851 0.95839 0.0
H751 H 0.53362 0.49153 0.88007 0.0
C752 C 0.53557 0.54105 0.12396 0.0
C753 C 0.51782 0.5435 0.16284 0.0
C754 C 0.53454 0.52592 0.07816 0.0
C755 C 0.51563 0.5129 0.06944 0.0
C756 C 0.4979 0.51515 0.10875 0.0
C757 C 0.49901 0.53026 0.15506 0.0
C758 C 0.50582 0.46068 0.98066 0.0
C759 C 0.5165 0.4658 0.92777 0.0
C760 C 0.50502 0.47609 0.02622 0.0
C761 C 0.51475 0.49702 0.01969 0.0
C762 C 0.52453 0.50239 0.96569 0.0
C763 C 0.52551 0.48695 0.92051 0.0
H764 H 0.80142 0.21243 0.2086 0.0
H765 H 0.82182 0.2766 0.26974 0.0
H766 H 0.77515 0.20985 0.28959 0.0
H767 H 0.7953 0.27442 0.34876 0.0
H768 H 0.76186 0.25819 0.51676 0.0
H769 H 0.78896 0.25649 0.43859 0.0
H770 H 0.74126 0.22438 0.32706 0.0
H771 H 0.71435 0.22535 0.40645 0.0
C772 C 0.8002 0.22602 0.23904 0.0
C773 C 0.81382 0.24465 0.23287 0.0
C774 C 0.78509 0.2246 0.28537 0.0
C775 C 0.7832 0.24183 0.32629 0.0
C776 C 0.79662 0.26056 0.31922 0.0
C777 C 0.81177 0.2619 0.27342 0.0
C778 C 0.75721 0.25057 0.47575 0.0
C779 C 0.73589 0.24207 0.4677 0.0
C780 C 0.77271 0.24973 0.43066 0.0
C781 C 0.76725 0.24064 0.37593 0.0
C782 C 0.74614 0.23138 0.3686 0.0
C783 C 0.73067 0.23201 0.41409 0.0
H784 H 0.26337 0.22648 0.53105 0.0
H785 H 0.31097 0.25946 0.421 0.0
H786 H 0.2363 0.22839 0.45296 0.0
H787 H 0.28409 0.26064 0.34169 0.0
H788 H 0.22388 0.27304 0.22391 0.0
H789 H 0.25017 0.27536 0.30475 0.0
H790 H 0.23004 0.21061 0.36282 0.0
H791 H 0.20349 0.20868 0.28393 0.0
C792 C 0.26805 0.23417 0.49012 0.0
C793 C 0.28938 0.24265 0.4821 0.0
C794 C 0.25256 0.23513 0.44508 0.0
C795 C 0.25806 0.24432 0.39046 0.0
C796 C 0.27918 0.25356 0.38317 0.0
C797 C 0.29464 0.25281 0.4286 0.0
C798 C 0.22511 0.25934 0.25407 0.0
C799 C 0.21149 0.24073 0.24764 0.0
C800 C 0.24023 0.26063 0.3003 0.0
C801 C 0.24212 0.24327 0.34087 0.0
C802 C 0.22871 0.22456 0.33353 0.0
C803 C 0.21355 0.22336 0.28782 0.0
H804 H 0.28713 0.72074 0.66709 0.0
H805 H 0.32535 0.75229 0.80275 0.0
H806 H 0.25573 0.71827 0.73353 0.0
H807 H 0.2939 0.75022 0.86857 0.0
H808 H 0.23903 0.72763 0.98931 0.0
H809 H 0.27073 0.72516 0.92396 0.0
H810 H 0.22946 0.74325 0.77793 0.0
H811 H 0.19776 0.74528 0.84288 0.0
C812 C 0.28887 0.72707 0.71112 0.0
C813 C 0.30874 0.73679 0.72949 0.0
C814 C 0.27083 0.72576 0.74911 0.0
C815 C 0.27224 0.73412 0.80636 0.0
C816 C 0.29229 0.74337 0.82506 0.0
C817 C 0.31031 0.74469 0.78712 0.0
C818 C 0.23669 0.73091 0.94318 0.0
C819 C 0.21586 0.73675 0.9214 0.0
C820 C 0.25489 0.72961 0.90576 0.0
C821 C 0.25268 0.73409 0.84569 0.0
C822 C 0.23173 0.73943 0.82379 0.0
C823 C 0.21355 0.74074 0.86117 0.0
H824 H 0.47369 0.96217 0.19838 0.0
H825 H 0.54241 0.94649 0.17285 0.0
H826 H 0.4748 0.98637 0.11375 0.0
H827 H 0.54343 0.97076 0.08732 0.0
H828 H 0.5387 0.03496 0.97292 0.0
H829 H 0.5403 0.01039 0.05773 0.0
H830 H 0.47804 0.9816 0.00742 0.0
H831 H 0.4763 0.00609 0.92345 0.0
C832 C 0.48909 0.96393 0.17487 0.0
C833 C 0.50793 0.95226 0.19233 0.0
C834 C 0.48967 0.97772 0.12601 0.0
C835 C 0.50913 0.98029 0.09331 0.0
C836 C 0.5282 0.96916 0.11168 0.0
C837 C 0.52759 0.95522 0.16058 0.0
C838 C 0.52546 0.02324 0.97971 0.0
C839 C 0.50728 0.02264 0.94159 0.0
C840 C 0.52641 0.00913 0.02822 0.0
C841 C 0.50915 -0.00576 0.03976 0.0
C842 C 0.49139 -0.00682 1.00047 0.0
C843 C 0.49048 0.00715 0.95204 0.0
H844 H 0.04933 0.05002 0.62391 0.0
H845 H 0.98544 0.03054 0.68949 0.0
H846 H 0.046 0.02364 0.54499 0.0
H847 H 0.98166 0.00446 0.6085 0.0
H848 H -0.005 0.9436 0.49055 0.0
H849 H -0.00488 0.97048 0.56989 0.0
H850 H 0.02738 0.01756 0.45649 0.0
H851 H 0.02806 0.99042 0.3784 0.0
C852 C 0.03443 0.04021 0.62119 0.0
C853 C 0.01762 0.04246 0.66296 0.0
C854 C 0.03243 0.02515 0.57545 0.0
C855 C 0.01342 0.01205 0.56962 0.0
C856 C -0.00339 0.01415 0.61174 0.0
C857 C -0.00128 0.02915 0.65806 0.0
C858 C 0.00193 0.95978 0.48251 0.0
C859 C 0.01175 0.9648 0.42841 0.0
C860 C 0.00193 0.97524 0.52797 0.0
C861 C 0.01155 -0.00385 0.52008 0.0
C862 C 0.02037 0.00145 0.46486 0.0
C863 C 0.02062 0.98593 0.41982 0.0
loop_
_geom_bond_atom_site_label_1
_geom_bond_atom_site_label_2
_geom_bond_distance
_geom_bond_site_symmetry_2
_ccdc_geom_bond_type
Mg0 O1 2.028 . S
Mg0 O7 1.986 . S
Mg0 O9 2.114 1_455 S
Mg0 O10 2.251 1_455 S
Mg0 O13 2.010 . S
O1 Mg0 2.028 . S
O1 C4 1.250 . S
O2 Mg3 2.028 . S
O2 C4 1.248 . S
Mg3 O2 2.028 . S
Mg3 O8 2.032 . S
Mg3 O10 2.079 1_455 S
C4 O1 1.250 . S
C4 O2 1.248 . S
C5 O6 1.264 . S
C5 O13 1.249 . S
O6 C5 1.264 . S
O7 Mg0 1.986 . S
O7 C11 1.246 . S
O8 Mg3 2.032 . S
O8 C11 1.259 . S
O9 Mg0 2.114 1_655 S
O9 C12 1.252 . S
O10 Mg0 2.251 1_655 S
O10 Mg3 2.079 1_655 S
O10 C12 1.273 . S
C11 O7 1.246 . S
C11 O8 1.259 . S
C12 O9 1.252 . S
C12 O10 1.273 . S
O13 Mg0 2.010 . S
O13 C5 1.249 . S
Mg14 O15 2.028 . S
Mg14 O21 1.986 . S
Mg14 O23 2.114 . S
Mg14 O24 2.251 . S
Mg14 O27 2.010 . S
O15 Mg14 2.028 . S
O15 C18 1.250 . S
O16 Mg17 2.028 . S
O16 C18 1.248 . S
Mg17 O16 2.028 . S
Mg17 O22 2.032 . S
Mg17 O24 2.079 . S
C18 O15 1.250 . S
C18 O16 1.248 . S
C19 O20 1.264 . S
C19 O27 1.249 . S
O20 C19 1.264 . S
O21 Mg14 1.986 . S
O21 C25 1.246 . S
O22 Mg17 2.032 . S
O22 C25 1.259 . S
O23 Mg14 2.114 . S
O23 C26 1.252 . S
O24 Mg14 2.251 . S
O24 Mg17 2.079 . S
O24 C26 1.273 . S
C25 O21 1.246 . S
C25 O22 1.259 . S
C26 O23 1.252 . S
C26 O24 1.273 . S
O27 Mg14 2.010 . S
O27 C19 1.249 . S
Mg28 O29 2.028 . S
Mg28 O35 1.986 . S
Mg28 O37 2.114 . S
Mg28 O38 2.251 . S
Mg28 O41 2.010 . S
O29 Mg28 2.028 . S
O29 C32 1.250 . S
O30 Mg31 2.028 . S
O30 C32 1.248 . S
Mg31 O30 2.028 . S
Mg31 O36 2.032 . S
Mg31 O38 2.079 . S
C32 O29 1.250 . S
C32 O30 1.248 . S
C33 O34 1.264 . S
C33 O41 1.249 . S
O34 C33 1.264 . S
O35 Mg28 1.986 . S
O35 C39 1.246 . S
O36 Mg31 2.032 . S
O36 C39 1.259 . S
O37 Mg28 2.114 . S
O37 C40 1.252 . S
O38 Mg28 2.251 . S
O38 Mg31 2.079 . S
O38 C40 1.273 . S
C39 O35 1.246 . S
C39 O36 1.259 . S
C40 O37 1.252 . S
C40 O38 1.273 . S
O41 Mg28 2.010 . S
O41 C33 1.249 . S
Mg42 O43 2.028 1_554 S
Mg42 O49 1.986 . S
Mg42 O51 2.114 . S
Mg42 O52 2.251 1_554 S
Mg42 O55 2.010 . S
O43 Mg42 2.028 1_556 S
O43 C46 1.250 . S
O44 Mg45 2.028 . S
O44 C46 1.248 . S
Mg45 O44 2.028 . S
Mg45 O50 2.032 . S
Mg45 O52 2.079 . S
C46 O43 1.250 . S
C46 O44 1.248 . S
C47 O48 1.264 . S
C47 O55 1.249 . S
O48 C47 1.264 . S
O49 Mg42 1.986 . S
O49 C53 1.246 1_554 S
O50 Mg45 2.032 . S
O50 C53 1.259 . S
O51 Mg42 2.114 . S
O51 C54 1.250 1_554 S
O52 Mg42 2.251 1_556 S
O52 Mg45 2.079 . S
O52 C54 1.274 . S
C53 O49 1.246 1_556 S
C53 O50 1.259 . S
C54 O51 1.250 1_556 S
C54 O52 1.274 . S
O55 Mg42 2.010 . S
O55 C47 1.249 . S
Mg56 O57 2.028 . S
Mg56 O63 1.986 . S
Mg56 O65 2.114 1_455 S
Mg56 O66 2.251 1_455 S
Mg56 O69 2.010 . S
O57 Mg56 2.028 . S
O57 C60 1.250 . S
O58 Mg59 2.028 . S
O58 C60 1.248 . S
Mg59 O58 2.028 . S
Mg59 O64 2.032 . S
Mg59 O66 2.079 1_455 S
C60 O57 1.250 . S
C60 O58 1.248 . S
C61 O62 1.264 . S
C61 O69 1.249 . S
O62 C61 1.264 . S
O63 Mg56 1.986 . S
O63 C67 1.246 . S
O64 Mg59 2.032 . S
O64 C67 1.259 . S
O65 Mg56 2.114 1_655 S
O65 C68 1.252 . S
O66 Mg56 2.251 1_655 S
O66 Mg59 2.079 1_655 S
O66 C68 1.273 . S
C67 O63 1.246 . S
C67 O64 1.259 . S
C68 O65 1.252 . S
C68 O66 1.273 . S
O69 Mg56 2.010 . S
O69 C61 1.249 . S
Mg70 O71 2.028 . S
Mg70 O77 1.986 . S
Mg70 O79 2.114 . S
Mg70 O80 2.251 . S
Mg70 O83 2.010 . S
O71 Mg70 2.028 . S
O71 C74 1.250 . S
O72 Mg73 2.028 . S
O72 C74 1.248 . S
Mg73 O72 2.028 . S
Mg73 O78 2.032 . S
Mg73 O80 2.079 . S
C74 O71 1.250 . S
C74 O72 1.248 . S
C75 O76 1.264 . S
C75 O83 1.249 1_556 S
O76 C75 1.264 . S
O77 Mg70 1.986 . S
O77 C81 1.246 . S
O78 Mg73 2.032 . S
O78 C81 1.259 . S
O79 Mg70 2.114 . S
O79 C82 1.252 . S
O80 Mg70 2.251 . S
O80 Mg73 2.079 . S
O80 C82 1.273 . S
C81 O77 1.246 . S
C81 O78 1.259 . S
C82 O79 1.252 . S
C82 O80 1.273 . S
O83 Mg70 2.010 . S
O83 C75 1.249 1_554 S
Mg84 O85 2.028 . S
Mg84 O91 1.986 . S
Mg84 O93 2.114 . S
Mg84 O94 2.251 . S
Mg84 O97 2.010 . S
O85 Mg84 2.028 . S
O85 C88 1.250 . S
O86 Mg87 2.028 . S
O86 C88 1.248 . S
Mg87 O86 2.028 . S
Mg87 O92 2.032 . S
Mg87 O94 2.079 . S
C88 O85 1.250 . S
C88 O86 1.248 . S
C89 O90 1.264 . S
C89 O97 1.249 . S
O90 C89 1.264 . S
O91 Mg84 1.986 . S
O91 C95 1.246 . S
O92 Mg87 2.032 . S
O92 C95 1.259 . S
O93 Mg84 2.114 . S
O93 C96 1.252 . S
O94 Mg84 2.251 . S
O94 Mg87 2.079 . S
O94 C96 1.273 . S
C95 O91 1.246 . S
C95 O92 1.259 . S
C96 O93 1.252 . S
C96 O94 1.273 . S
O97 Mg84 2.010 . S
O97 C89 1.249 . S
Mg98 O99 2.028 . S
Mg98 O105 1.986 . S
Mg98 O107 2.114 . S
Mg98 O108 2.251 . S
Mg98 O111 2.010 . S
O99 Mg98 2.028 . S
O99 C102 1.250 . S
O100 Mg101 2.028 . S
O100 C102 1.248 . S
Mg101 O100 2.028 . S
Mg101 O106 2.032 . S
Mg101 O108 2.079 . S
C102 O99 1.250 . S
C102 O100 1.248 . S
C103 O104 1.264 . S
C103 O111 1.249 . S
O104 C103 1.264 . S
O105 Mg98 1.986 . S
O105 C109 1.246 . S
O106 Mg101 2.032 . S
O106 C109 1.259 . S
O107 Mg98 2.114 . S
O107 C110 1.252 . S
O108 Mg98 2.251 . S
O108 Mg101 2.079 . S
O108 C110 1.273 . S
C109 O105 1.246 . S
C109 O106 1.259 . S
C110 O107 1.252 . S
C110 O108 1.273 . S
O111 Mg98 2.010 . S
O111 C103 1.249 . S
Mg112 O113 2.028 . S
Mg112 O119 1.986 . S
Mg112 O121 2.114 . S
Mg112 O122 2.251 . S
Mg112 O125 2.010 . S
O113 Mg112 2.028 . S
O113 C116 1.250 . S
O114 Mg115 2.028 . S
O114 C116 1.248 . S
Mg115 O114 2.028 . S
Mg115 O120 2.032 . S
Mg115 O122 2.079 . S
C116 O113 1.250 . S
C116 O114 1.248 . S
C117 O118 1.264 . S
C117 O125 1.249 . S
O118 C117 1.264 . S
O119 Mg112 1.986 . S
O119 C123 1.246 . S
O120 Mg115 2.032 . S
O120 C123 1.259 . S
O121 Mg112 2.114 . S
O121 C124 1.252 . S
O122 Mg112 2.251 . S
O122 Mg115 2.079 . S
O122 C124 1.273 . S
C123 O119 1.246 . S
C123 O120 1.259 . S
C124 O121 1.252 . S
C124 O122 1.273 . S
O125 Mg112 2.010 . S
O125 C117 1.249 . S
Mg126 O127 2.028 . S
Mg126 O133 1.986 . S
Mg126 O135 2.114 . S
Mg126 O136 2.251 . S
Mg126 O139 2.010 . S
O127 Mg126 2.028 . S
O127 C130 1.250 . S
O128 Mg129 2.028 . S
O128 C130 1.248 . S
Mg129 O128 2.028 . S
Mg129 O134 2.032 . S
Mg129 O136 2.079 . S
C130 O127 1.250 . S
C130 O128 1.248 . S
C131 O132 1.264 . S
C131 O139 1.249 1_556 S
O132 C131 1.264 . S
O133 Mg126 1.986 . S
O133 C137 1.246 . S
O134 Mg129 2.032 . S
O134 C137 1.259 . S
O135 Mg126 2.114 . S
O135 C138 1.252 . S
O136 Mg126 2.251 . S
O136 Mg129 2.079 . S
O136 C138 1.273 . S
C137 O133 1.246 . S
C137 O134 1.259 . S
C138 O135 1.252 . S
C138 O136 1.273 . S
O139 Mg126 2.010 . S
O139 C131 1.249 1_554 S
Mg140 O141 2.028 1_554 S
Mg140 O147 1.986 . S
Mg140 O149 2.114 . S
Mg140 O150 2.251 1_554 S
Mg140 O153 2.010 . S
O141 Mg140 2.028 1_556 S
O141 C144 1.250 . S
O142 Mg143 2.028 . S
O142 C144 1.248 . S
Mg143 O142 2.028 . S
Mg143 O148 2.032 . S
Mg143 O150 2.079 . S
C144 O141 1.250 . S
C144 O142 1.248 . S
C145 O146 1.264 . S
C145 O153 1.249 . S
O146 C145 1.264 . S
O147 Mg140 1.986 . S
O147 C151 1.246 1_554 S
O148 Mg143 2.032 . S
O148 C151 1.259 . S
O149 Mg140 2.114 . S
O149 C152 1.250 1_554 S
O150 Mg140 2.251 1_556 S
O150 Mg143 2.079 . S
O150 C152 1.274 . S
C151 O147 1.246 1_556 S
C151 O148 1.259 . S
C152 O149 1.250 1_556 S
C152 O150 1.274 . S
O153 Mg140 2.010 . S
O153 C145 1.249 . S
Mg154 O155 2.028 . S
Mg154 O161 1.986 . S
Mg154 O163 2.114 . S
Mg154 O164 2.251 . S
Mg154 O167 2.010 . S
O155 Mg154 2.028 . S
O155 C158 1.250 . S
O156 Mg157 2.028 . S
O156 C158 1.248 . S
Mg157 O156 2.028 . S
Mg157 O162 2.032 . S
Mg157 O164 2.079 . S
C158 O155 1.250 . S
C158 O156 1.248 . S
C159 O160 1.264 . S
C159 O167 1.249 . S
O160 C159 1.264 . S
O161 Mg154 1.986 . S
O161 C165 1.246 . S
O162 Mg157 2.032 . S
O162 C165 1.259 . S
O163 Mg154 2.114 . S
O163 C166 1.252 . S
O164 Mg154 2.251 . S
O164 Mg157 2.079 . S
O164 C166 1.273 . S
C165 O161 1.246 . S
C165 O162 1.259 . S
C166 O163 1.252 . S
C166 O164 1.273 . S
O167 Mg154 2.010 . S
O167 C159 1.249 . S
Mg168 O169 2.028 . S
Mg168 O175 1.986 . S
Mg168 O177 2.114 . S
Mg168 O178 2.251 . S
Mg168 O181 2.010 . S
O169 Mg168 2.028 . S
O169 C172 1.250 . S
O170 Mg171 2.028 . S
O170 C172 1.248 . S
Mg171 O170 2.028 . S
Mg171 O176 2.032 . S
Mg171 O178 2.079 . S
C172 O169 1.250 . S
C172 O170 1.248 . S
C173 O174 1.264 . S
C173 O181 1.249 . S
O174 C173 1.264 . S
O175 Mg168 1.986 . S
O175 C179 1.246 . S
O176 Mg171 2.032 . S
O176 C179 1.259 . S
O177 Mg168 2.114 . S
O177 C180 1.252 . S
O178 Mg168 2.251 . S
O178 Mg171 2.079 . S
O178 C180 1.273 . S
C179 O175 1.246 . S
C179 O176 1.259 . S
C180 O177 1.252 . S
C180 O178 1.273 . S
O181 Mg168 2.010 . S
O181 C173 1.249 . S
Mg182 O183 2.028 . S
Mg182 O189 1.986 1_455 S
Mg182 O191 2.114 . S
Mg182 O192 2.251 . S
Mg182 O195 2.010 . S
O183 Mg182 2.028 . S
O183 C186 1.250 . S
O184 Mg185 2.028 . S
O184 C186 1.248 . S
Mg185 O184 2.028 . S
Mg185 O190 2.032 1_455 S
Mg185 O192 2.079 . S
C186 O183 1.250 . S
C186 O184 1.248 . S
C187 O188 1.264 . S
C187 O195 1.249 . S
O188 C187 1.264 . S
O189 Mg182 1.986 1_655 S
O189 C193 1.246 . S
O190 Mg185 2.032 1_655 S
O190 C193 1.259 . S
O191 Mg182 2.114 . S
O191 C194 1.252 . S
O192 Mg182 2.251 . S
O192 Mg185 2.079 . S
O192 C194 1.273 . S
C193 O189 1.246 . S
C193 O190 1.259 . S
C194 O191 1.252 . S
C194 O192 1.273 . S
O195 Mg182 2.010 . S
O195 C187 1.249 . S
Mg196 O197 2.028 . S
Mg196 O203 1.986 . S
Mg196 O205 2.114 . S
Mg196 O206 2.251 . S
Mg196 O209 2.010 . S
O197 Mg196 2.028 . S
O197 C200 1.250 . S
O198 Mg199 2.028 . S
O198 C200 1.248 . S
Mg199 O198 2.028 . S
Mg199 O204 2.032 . S
Mg199 O206 2.079 . S
C200 O197 1.250 . S
C200 O198 1.248 . S
C201 O202 1.264 . S
C201 O209 1.249 . S
O202 C201 1.264 . S
O203 Mg196 1.986 . S
O203 C207 1.246 . S
O204 Mg199 2.032 . S
O204 C207 1.259 . S
O205 Mg196 2.114 . S
O205 C208 1.252 . S
O206 Mg196 2.251 . S
O206 Mg199 2.079 . S
O206 C208 1.273 . S
C207 O203 1.246 . S
C207 O204 1.259 . S
C208 O205 1.252 . S
C208 O206 1.273 . S
O209 Mg196 2.010 . S
O209 C201 1.249 . S
Mg210 O211 2.028 . S
Mg210 O217 1.986 1_455 S
Mg210 O219 2.114 . S
Mg210 O220 2.251 . S
Mg210 O223 2.010 . S
O211 Mg210 2.028 . S
O211 C214 1.250 . S
O212 Mg213 2.028 . S
O212 C214 1.248 . S
Mg213 O212 2.028 . S
Mg213 O218 2.032 1_455 S
Mg213 O220 2.079 . S
C214 O211 1.250 . S
C214 O212 1.248 . S
C215 O216 1.264 . S
C215 O223 1.249 . S
O216 C215 1.264 . S
O217 Mg210 1.986 1_655 S
O217 C221 1.246 . S
O218 Mg213 2.032 1_655 S
O218 C221 1.259 . S
O219 Mg210 2.114 . S
O219 C222 1.252 . S
O220 Mg210 2.251 . S
O220 Mg213 2.079 . S
O220 C222 1.273 . S
C221 O217 1.246 . S
C221 O218 1.259 . S
C222 O219 1.252 . S
C222 O220 1.273 . S
O223 Mg210 2.010 . S
O223 C215 1.249 . S
H224 C232 0.950 . S
H225 C237 0.950 . S
H226 C234 0.950 . S
H227 C236 0.950 . S
H228 C238 0.950 . S
H229 C240 0.950 . S
H230 C242 0.950 . S
H231 C243 0.950 . S
C232 H224 0.950 . S
C232 C233 1.386 . S
C232 C234 1.391 . S
C233 C232 1.386 . S
C233 C237 1.393 . S
C234 H226 0.950 . S
C234 C232 1.391 . S
C234 C235 1.400 . S
C235 C234 1.400 . S
C235 C236 1.398 . S
C235 C241 1.491 . S
C236 H227 0.950 . S
C236 C235 1.398 . S
C236 C237 1.391 . S
C237 H225 0.950 . S
C237 C233 1.393 . S
C237 C236 1.391 . S
C238 H228 0.950 . S
C238 C239 1.386 . S
C238 C240 1.391 . S
C239 C238 1.386 . S
C239 C243 1.393 . S
C240 H229 0.950 . S
C240 C238 1.391 . S
C240 C241 1.400 . S
C241 C235 1.491 . S
C241 C240 1.400 . S
C241 C242 1.398 . S
C242 H230 0.950 . S
C242 C241 1.398 . S
C242 C243 1.391 . S
C243 H231 0.950 . S
C243 C239 1.393 . S
C243 C242 1.391 . S
H244 C252 0.950 . S
H245 C257 0.950 . S
H246 C254 0.950 . S
H247 C256 0.950 . S
H248 C258 0.950 . S
H249 C260 0.950 . S
H250 C262 0.950 . S
H251 C263 0.950 . S
C252 H244 0.950 . S
C252 C253 1.386 . S
C252 C254 1.391 . S
C253 C252 1.386 . S
C253 C257 1.393 . S
C254 H246 0.950 . S
C254 C252 1.391 . S
C254 C255 1.400 . S
C255 C254 1.400 . S
C255 C256 1.398 . S
C255 C261 1.491 . S
C256 H247 0.950 . S
C256 C255 1.398 . S
C256 C257 1.391 . S
C257 H245 0.950 . S
C257 C253 1.393 . S
C257 C256 1.391 . S
C258 H248 0.950 . S
C258 C259 1.386 . S
C258 C260 1.391 . S
C259 C258 1.386 . S
C259 C263 1.393 . S
C260 H249 0.950 . S
C260 C258 1.391 . S
C260 C261 1.400 . S
C261 C255 1.491 . S
C261 C260 1.400 . S
C261 C262 1.398 . S
C262 H250 0.950 . S
C262 C261 1.398 . S
C262 C263 1.391 . S
C263 H251 0.950 . S
C263 C259 1.393 . S
C263 C262 1.391 . S
H264 C272 0.950 . S
H265 C277 0.950 . S
H266 C274 0.950 . S
H267 C276 0.950 . S
H268 C278 0.950 . S
H269 C280 0.950 . S
H270 C282 0.950 . S
H271 C283 0.950 . S
C272 H264 0.950 . S
C272 C273 1.386 . S
C272 C274 1.391 . S
C273 C272 1.386 . S
C273 C277 1.393 . S
C274 H266 0.950 . S
C274 C272 1.391 . S
C274 C275 1.400 . S
C275 C274 1.400 . S
C275 C276 1.398 . S
C275 C281 1.491 . S
C276 H267 0.950 . S
C276 C275 1.398 . S
C276 C277 1.391 . S
C277 H265 0.950 . S
C277 C273 1.393 . S
C277 C276 1.391 . S
C278 H268 0.950 . S
C278 C279 1.386 . S
C278 C280 1.391 . S
C279 C278 1.386 . S
C279 C283 1.393 . S
C280 H269 0.950 . S
C280 C278 1.391 . S
C280 C281 1.400 . S
C281 C275 1.491 . S
C281 C280 1.400 . S
C281 C282 1.398 . S
C282 H270 0.950 . S
C282 C281 1.398 . S
C282 C283 1.391 . S
C283 H271 0.950 . S
C283 C279 1.393 . S
C283 C282 1.391 . S
H284 C292 0.950 . S
H285 C297 0.950 . S
H286 C294 0.950 . S
H287 C296 0.950 . S
H288 C298 0.950 . S
H289 C300 0.950 1_554 S
H290 C302 0.950 . S
H291 C303 0.950 . S
C292 H284 0.950 . S
C292 C293 1.386 . S
C292 C294 1.391 . S
C293 C292 1.386 . S
C293 C297 1.393 1_556 S
C294 H286 0.950 . S
C294 C292 1.391 . S
C294 C295 1.400 . S
C295 C294 1.400 . S
C295 C296 1.398 1_556 S
C295 C301 1.491 . S
C296 H287 0.950 . S
C296 C295 1.398 1_554 S
C296 C297 1.391 . S
C297 H285 0.950 . S
C297 C293 1.393 1_554 S
C297 C296 1.391 . S
C298 H288 0.950 . S
C298 C299 1.386 . S
C298 C300 1.391 . S
C299 C298 1.386 . S
C299 C303 1.393 . S
C300 H289 0.950 1_556 S
C300 C298 1.391 . S
C300 C301 1.400 . S
C301 C295 1.491 . S
C301 C300 1.400 . S
C301 C302 1.398 . S
C302 H290 0.950 . S
C302 C301 1.398 . S
C302 C303 1.391 . S
C303 H291 0.950 . S
C303 C299 1.393 . S
C303 C302 1.391 . S
H304 C312 0.950 . S
H305 C317 0.950 . S
H306 C314 0.950 . S
H307 C316 0.950 . S
H308 C318 0.950 1_554 S
H309 C320 0.950 . S
H310 C322 0.950 . S
H311 C323 0.950 . S
C312 H304 0.950 . S
C312 C313 1.386 . S
C312 C314 1.391 . S
C313 C312 1.386 . S
C313 C317 1.393 . S
C314 H306 0.950 . S
C314 C312 1.391 . S
C314 C315 1.400 . S
C315 C314 1.400 . S
C315 C316 1.398 . S
C315 C321 1.491 . S
C316 H307 0.950 . S
C316 C315 1.398 . S
C316 C317 1.391 . S
C317 H305 0.950 . S
C317 C313 1.393 . S
C317 C316 1.391 . S
C318 H308 0.950 1_556 S
C318 C319 1.386 . S
C318 C320 1.391 . S
C319 C318 1.386 . S
C319 C323 1.393 . S
C320 H309 0.950 . S
C320 C318 1.391 . S
C320 C321 1.400 . S
C321 C315 1.491 . S
C321 C320 1.400 . S
C321 C322 1.398 . S
C322 H310 0.950 . S
C322 C321 1.398 . S
C322 C323 1.391 . S
C323 H311 0.950 . S
C323 C319 1.393 . S
C323 C322 1.391 . S
H324 C332 0.950 . S
H325 C337 0.950 . S
H326 C334 0.950 . S
H327 C336 0.950 . S
H328 C338 0.950 . S
H329 C340 0.950 . S
H330 C342 0.950 . S
H331 C343 0.950 . S
C332 H324 0.950 . S
C332 C333 1.386 . S
C332 C334 1.391 . S
C333 C332 1.386 . S
C333 C337 1.393 . S
C334 H326 0.950 . S
C334 C332 1.391 . S
C334 C335 1.400 . S
C335 C334 1.400 . S
C335 C336 1.398 . S
C335 C341 1.491 . S
C336 H327 0.950 . S
C336 C335 1.398 . S
C336 C337 1.391 . S
C337 H325 0.950 . S
C337 C333 1.393 . S
C337 C336 1.391 . S
C338 H328 0.950 . S
C338 C339 1.386 . S
C338 C340 1.391 . S
C339 C338 1.386 . S
C339 C343 1.393 . S
C340 H329 0.950 . S
C340 C338 1.391 . S
C340 C341 1.400 . S
C341 C335 1.491 . S
C341 C340 1.400 . S
C341 C342 1.398 . S
C342 H330 0.950 . S
C342 C341 1.398 . S
C342 C343 1.391 . S
C343 H331 0.950 . S
C343 C339 1.393 . S
C343 C342 1.391 . S
H344 C352 0.950 . S
H345 C357 0.950 . S
H346 C354 0.950 . S
H347 C356 0.950 . S
H348 C358 0.950 . S
H349 C360 0.950 . S
H350 C362 0.950 . S
H351 C363 0.950 . S
C352 H344 0.950 . S
C352 C353 1.386 . S
C352 C354 1.391 . S
C353 C352 1.386 . S
C353 C357 1.393 . S
C354 H346 0.950 . S
C354 C352 1.391 . S
C354 C355 1.400 . S
C355 C354 1.400 . S
C355 C356 1.398 . S
C355 C361 1.491 . S
C356 H347 0.950 . S
C356 C355 1.398 . S
C356 C357 1.391 . S
C357 H345 0.950 . S
C357 C353 1.393 . S
C357 C356 1.391 . S
C358 H348 0.950 . S
C358 C359 1.386 . S
C358 C360 1.391 . S
C359 C358 1.386 . S
C359 C363 1.393 . S
C360 H349 0.950 . S
C360 C358 1.391 . S
C360 C361 1.400 . S
C361 C355 1.491 . S
C361 C360 1.400 . S
C361 C362 1.398 . S
C362 H350 0.950 . S
C362 C361 1.398 . S
C362 C363 1.391 . S
C363 H351 0.950 . S
C363 C359 1.393 . S
C363 C362 1.391 . S
H364 C372 0.950 . S
H365 C377 0.950 . S
H366 C374 0.950 . S
H367 C376 0.950 . S
H368 C378 0.950 . S
H369 C380 0.950 . S
H370 C382 0.950 . S
H371 C383 0.950 . S
C372 H364 0.950 . S
C372 C373 1.386 . S
C372 C374 1.391 . S
C373 C372 1.386 . S
C373 C377 1.393 . S
C374 H366 0.950 . S
C374 C372 1.391 . S
C374 C375 1.400 . S
C375 C374 1.400 . S
C375 C376 1.398 . S
C375 C381 1.491 . S
C376 H367 0.950 . S
C376 C375 1.398 . S
C376 C377 1.391 . S
C377 H365 0.950 . S
C377 C373 1.393 . S
C377 C376 1.391 . S
C378 H368 0.950 . S
C378 C379 1.386 . S
C378 C380 1.391 . S
C379 C378 1.386 . S
C379 C383 1.393 . S
C380 H369 0.950 . S
C380 C378 1.391 . S
C380 C381 1.400 . S
C381 C375 1.491 . S
C381 C380 1.400 . S
C381 C382 1.398 . S
C382 H370 0.950 . S
C382 C381 1.398 . S
C382 C383 1.391 . S
C383 H371 0.950 . S
C383 C379 1.393 . S
C383 C382 1.391 . S
H384 C392 0.950 . S
H385 C397 0.950 . S
H386 C394 0.950 . S
H387 C396 0.950 . S
H388 C398 0.950 . S
H389 C400 0.950 . S
H390 C402 0.950 . S
H391 C403 0.950 . S
C392 H384 0.950 . S
C392 C393 1.386 . S
C392 C394 1.391 . S
C393 C392 1.386 . S
C393 C397 1.393 . S
C394 H386 0.950 . S
C394 C392 1.391 . S
C394 C395 1.400 . S
C395 C394 1.400 . S
C395 C396 1.398 . S
C395 C401 1.491 . S
C396 H387 0.950 . S
C396 C395 1.398 . S
C396 C397 1.391 . S
C397 H385 0.950 . S
C397 C393 1.393 . S
C397 C396 1.391 . S
C398 H388 0.950 . S
C398 C399 1.386 . S
C398 C400 1.391 . S
C399 C398 1.386 . S
C399 C403 1.393 1_556 S
C400 H389 0.950 . S
C400 C398 1.391 . S
C400 C401 1.400 . S
C401 C395 1.491 . S
C401 C400 1.400 . S
C401 C402 1.398 . S
C402 H390 0.950 . S
C402 C401 1.398 . S
C402 C403 1.391 1_556 S
C403 H391 0.950 . S
C403 C399 1.393 1_554 S
C403 C402 1.391 1_554 S
H404 C412 0.950 . S
H405 C417 0.950 . S
H406 C414 0.950 . S
H407 C416 0.950 . S
H408 C418 0.950 . S
H409 C420 0.950 . S
H410 C422 0.950 . S
H411 C423 0.950 . S
C412 H404 0.950 . S
C412 C413 1.386 . S
C412 C414 1.391 . S
C413 C412 1.386 . S
C413 C417 1.393 . S
C414 H406 0.950 . S
C414 C412 1.391 . S
C414 C415 1.400 . S
C415 C414 1.400 . S
C415 C416 1.398 . S
C415 C421 1.491 . S
C416 H407 0.950 . S
C416 C415 1.398 . S
C416 C417 1.391 . S
C417 H405 0.950 . S
C417 C413 1.393 . S
C417 C416 1.391 . S
C418 H408 0.950 . S
C418 C419 1.386 . S
C418 C420 1.391 . S
C419 C418 1.386 . S
C419 C423 1.393 . S
C420 H409 0.950 . S
C420 C418 1.391 . S
C420 C421 1.400 . S
C421 C415 1.491 . S
C421 C420 1.400 . S
C421 C422 1.398 . S
C422 H410 0.950 . S
C422 C421 1.398 . S
C422 C423 1.391 . S
C423 H411 0.950 . S
C423 C419 1.393 . S
C423 C422 1.391 . S
H424 C432 0.950 . S
H425 C437 0.950 . S
H426 C434 0.950 . S
H427 C436 0.950 . S
H428 C438 0.950 . S
H429 C440 0.950 . S
H430 C442 0.950 . S
H431 C443 0.950 . S
C432 H424 0.950 . S
C432 C433 1.386 . S
C432 C434 1.391 . S
C433 C432 1.386 . S
C433 C437 1.393 . S
C434 H426 0.950 . S
C434 C432 1.391 . S
C434 C435 1.400 . S
C435 C434 1.400 . S
C435 C436 1.398 . S
C435 C441 1.491 . S
C436 H427 0.950 . S
C436 C435 1.398 . S
C436 C437 1.391 . S
C437 H425 0.950 . S
C437 C433 1.393 . S
C437 C436 1.391 . S
C438 H428 0.950 . S
C438 C439 1.386 . S
C438 C440 1.391 . S
C439 C438 1.386 . S
C439 C443 1.393 . S
C440 H429 0.950 . S
C440 C438 1.391 . S
C440 C441 1.400 . S
C441 C435 1.491 . S
C441 C440 1.400 . S
C441 C442 1.398 . S
C442 H430 0.950 . S
C442 C441 1.398 . S
C442 C443 1.391 . S
C443 H431 0.950 . S
C443 C439 1.393 . S
C443 C442 1.391 . S
H444 C452 0.950 . S
H445 C457 0.950 . S
H446 C454 0.950 . S
H447 C456 0.950 . S
H448 C458 0.950 . S
H449 C460 0.950 . S
H450 C462 0.950 . S
H451 C463 0.950 . S
C452 H444 0.950 . S
C452 C453 1.386 . S
C452 C454 1.391 . S
C453 C452 1.386 . S
C453 C457 1.393 . S
C454 H446 0.950 . S
C454 C452 1.391 . S
C454 C455 1.400 . S
C455 C454 1.400 . S
C455 C456 1.398 . S
C455 C461 1.491 . S
C456 H447 0.950 . S
C456 C455 1.398 . S
C456 C457 1.391 . S
C457 H445 0.950 . S
C457 C453 1.393 . S
C457 C456 1.391 . S
C458 H448 0.950 . S
C458 C459 1.386 . S
C458 C460 1.391 . S
C459 C458 1.386 . S
C459 C463 1.393 . S
C460 H449 0.950 . S
C460 C458 1.391 . S
C460 C461 1.400 . S
C461 C455 1.491 . S
C461 C460 1.400 . S
C461 C462 1.398 . S
C462 H450 0.950 . S
C462 C461 1.398 . S
C462 C463 1.391 . S
C463 H451 0.950 . S
C463 C459 1.393 . S
C463 C462 1.391 . S
H464 C472 0.950 . S
H465 C477 0.950 . S
H466 C474 0.950 . S
H467 C476 0.950 . S
H468 C478 0.950 . S
H469 C480 0.950 . S
H470 C482 0.950 . S
H471 C483 0.950 . S
C472 H464 0.950 . S
C472 C473 1.386 . S
C472 C474 1.391 . S
C473 C472 1.386 . S
C473 C477 1.393 . S
C474 H466 0.950 . S
C474 C472 1.391 . S
C474 C475 1.400 . S
C475 C474 1.400 . S
C475 C476 1.398 . S
C475 C481 1.491 . S
C476 H467 0.950 . S
C476 C475 1.398 . S
C476 C477 1.391 . S
C477 H465 0.950 . S
C477 C473 1.393 . S
C477 C476 1.391 . S
C478 H468 0.950 . S
C478 C479 1.386 . S
C478 C480 1.391 . S
C479 C478 1.386 . S
C479 C483 1.393 . S
C480 H469 0.950 . S
C480 C478 1.391 . S
C480 C481 1.400 . S
C481 C475 1.491 . S
C481 C480 1.400 . S
C481 C482 1.398 . S
C482 H470 0.950 . S
C482 C481 1.398 . S
C482 C483 1.391 . S
C483 H471 0.950 . S
C483 C479 1.393 . S
C483 C482 1.391 . S
H484 C492 0.950 . S
H485 C497 0.950 . S
H486 C494 0.950 1_554 S
H487 C496 0.950 . S
H488 C498 0.950 . S
H489 C500 0.950 . S
H490 C502 0.950 . S
H491 C503 0.950 . S
C492 H484 0.950 . S
C492 C493 1.386 . S
C492 C494 1.391 . S
C493 C492 1.386 . S
C493 C497 1.393 . S
C494 H486 0.950 1_556 S
C494 C492 1.391 . S
C494 C495 1.400 . S
C495 C494 1.400 . S
C495 C496 1.398 . S
C495 C501 1.491 . S
C496 H487 0.950 . S
C496 C495 1.398 . S
C496 C497 1.391 . S
C497 H485 0.950 . S
C497 C493 1.393 . S
C497 C496 1.391 . S
C498 H488 0.950 . S
C498 C499 1.386 . S
C498 C500 1.391 . S
C499 C498 1.386 . S
C499 C503 1.393 1_556 S
C500 H489 0.950 . S
C500 C498 1.391 . S
C500 C501 1.400 . S
C501 C495 1.491 . S
C501 C500 1.400 . S
C501 C502 1.398 1_556 S
C502 H490 0.950 . S
C502 C501 1.398 1_554 S
C502 C503 1.391 . S
C503 H491 0.950 . S
C503 C499 1.393 1_554 S
C503 C502 1.391 . S
H504 C512 0.950 . S
H505 C517 0.950 . S
H506 C514 0.950 . S
H507 C516 0.950 . S
H508 C518 0.950 . S
H509 C520 0.950 . S
H510 C522 0.950 . S
H511 C523 0.950 . S
C512 H504 0.950 . S
C512 C513 1.386 . S
C512 C514 1.391 . S
C513 C512 1.386 . S
C513 C517 1.393 . S
C514 H506 0.950 . S
C514 C512 1.391 . S
C514 C515 1.400 . S
C515 C514 1.400 . S
C515 C516 1.398 . S
C515 C521 1.491 . S
C516 H507 0.950 . S
C516 C515 1.398 . S
C516 C517 1.391 . S
C517 H505 0.950 . S
C517 C513 1.393 . S
C517 C516 1.391 . S
C518 H508 0.950 . S
C518 C519 1.386 . S
C518 C520 1.391 . S
C519 C518 1.386 . S
C519 C523 1.393 . S
C520 H509 0.950 . S
C520 C518 1.391 . S
C520 C521 1.400 . S
C521 C515 1.491 . S
C521 C520 1.400 . S
C521 C522 1.398 . S
C522 H510 0.950 . S
C522 C521 1.398 . S
C522 C523 1.391 . S
C523 H511 0.950 . S
C523 C519 1.393 . S
C523 C522 1.391 . S
H524 C532 0.950 . S
H525 C537 0.950 . S
H526 C534 0.950 . S
H527 C536 0.950 . S
H528 C538 0.950 . S
H529 C540 0.950 . S
H530 C542 0.950 . S
H531 C543 0.950 . S
C532 H524 0.950 . S
C532 C533 1.386 . S
C532 C534 1.391 . S
C533 C532 1.386 . S
C533 C537 1.393 . S
C534 H526 0.950 . S
C534 C532 1.391 . S
C534 C535 1.400 . S
C535 C534 1.400 . S
C535 C536 1.398 . S
C535 C541 1.491 . S
C536 H527 0.950 . S
C536 C535 1.398 . S
C536 C537 1.391 . S
C537 H525 0.950 . S
C537 C533 1.393 . S
C537 C536 1.391 . S
C538 H528 0.950 . S
C538 C539 1.386 . S
C538 C540 1.391 . S
C539 C538 1.386 . S
C539 C543 1.393 . S
C540 H529 0.950 . S
C540 C538 1.391 . S
C540 C541 1.400 . S
C541 C535 1.491 . S
C541 C540 1.400 . S
C541 C542 1.398 . S
C542 H530 0.950 . S
C542 C541 1.398 . S
C542 C543 1.391 . S
C543 H531 0.950 . S
C543 C539 1.393 . S
C543 C542 1.391 . S
H544 C552 0.950 . S
H545 C557 0.950 . S
H546 C554 0.950 . S
H547 C556 0.950 . S
H548 C558 0.950 . S
H549 C560 0.950 . S
H550 C562 0.950 . S
H551 C563 0.950 . S
C552 H544 0.950 . S
C552 C553 1.386 . S
C552 C554 1.391 . S
C553 C552 1.386 . S
C553 C557 1.393 1_455 S
C554 H546 0.950 . S
C554 C552 1.391 . S
C554 C555 1.400 . S
C555 C554 1.400 . S
C555 C556 1.398 1_455 S
C555 C561 1.491 . S
C556 H547 0.950 . S
C556 C555 1.398 1_655 S
C556 C557 1.391 . S
C557 H545 0.950 . S
C557 C553 1.393 1_655 S
C557 C556 1.391 . S
C558 H548 0.950 . S
C558 C559 1.386 1_655 S
C558 C560 1.391 1_556 S
C559 C558 1.386 1_455 S
C559 C563 1.393 . S
C560 H549 0.950 . S
C560 C558 1.391 1_554 S
C560 C561 1.400 1_655 S
C561 C555 1.491 . S
C561 C560 1.400 1_455 S
C561 C562 1.398 . S
C562 H550 0.950 . S
C562 C561 1.398 . S
C562 C563 1.391 1_554 S
C563 H551 0.950 . S
C563 C559 1.393 . S
C563 C562 1.391 1_556 S
H564 C572 0.950 . S
H565 C577 0.950 . S
H566 C574 0.950 . S
H567 C576 0.950 . S
H568 C578 0.950 . S
H569 C580 0.950 . S
H570 C582 0.950 . S
H571 C583 0.950 . S
C572 H564 0.950 . S
C572 C573 1.386 . S
C572 C574 1.391 . S
C573 C572 1.386 . S
C573 C577 1.393 . S
C574 H566 0.950 . S
C574 C572 1.391 . S
C574 C575 1.400 . S
C575 C574 1.400 . S
C575 C576 1.398 . S
C575 C581 1.491 . S
C576 H567 0.950 . S
C576 C575 1.398 . S
C576 C577 1.391 . S
C577 H565 0.950 . S
C577 C573 1.393 . S
C577 C576 1.391 . S
C578 H568 0.950 . S
C578 C579 1.386 . S
C578 C580 1.391 . S
C579 C578 1.386 . S
C579 C583 1.393 . S
C580 H569 0.950 . S
C580 C578 1.391 . S
C580 C581 1.400 . S
C581 C575 1.491 . S
C581 C580 1.400 . S
C581 C582 1.398 . S
C582 H570 0.950 . S
C582 C581 1.398 . S
C582 C583 1.391 . S
C583 H571 0.950 . S
C583 C579 1.393 . S
C583 C582 1.391 . S
H584 C592 0.950 . S
H585 C597 0.950 . S
H586 C594 0.950 . S
H587 C596 0.950 . S
H588 C598 0.950 . S
H589 C600 0.950 . S
H590 C602 0.950 . S
H591 C603 0.950 . S
C592 H584 0.950 . S
C592 C593 1.386 . S
C592 C594 1.391 . S
C593 C592 1.386 . S
C593 C597 1.393 . S
C594 H586 0.950 . S
C594 C592 1.391 . S
C594 C595 1.400 . S
C595 C594 1.400 . S
C595 C596 1.398 . S
C595 C601 1.491 . S
C596 H587 0.950 . S
C596 C595 1.398 . S
C596 C597 1.391 . S
C597 H585 0.950 . S
C597 C593 1.393 . S
C597 C596 1.391 . S
C598 H588 0.950 . S
C598 C599 1.386 . S
C598 C600 1.391 . S
C599 C598 1.386 . S
C599 C603 1.393 . S
C600 H589 0.950 . S
C600 C598 1.391 . S
C600 C601 1.400 . S
C601 C595 1.491 . S
C601 C600 1.400 . S
C601 C602 1.398 . S
C602 H590 0.950 . S
C602 C601 1.398 . S
C602 C603 1.391 . S
C603 H591 0.950 . S
C603 C599 1.393 . S
C603 C602 1.391 . S
H604 C612 0.950 . S
H605 C617 0.950 . S
H606 C614 0.950 . S
H607 C616 0.950 . S
H608 C618 0.950 . S
H609 C620 0.950 . S
H610 C622 0.950 . S
H611 C623 0.950 . S
C612 H604 0.950 . S
C612 C613 1.386 . S
C612 C614 1.391 . S
C613 C612 1.386 . S
C613 C617 1.393 . S
C614 H606 0.950 . S
C614 C612 1.391 . S
C614 C615 1.400 . S
C615 C614 1.400 . S
C615 C616 1.398 . S
C615 C621 1.491 . S
C616 H607 0.950 . S
C616 C615 1.398 . S
C616 C617 1.391 . S
C617 H605 0.950 . S
C617 C613 1.393 . S
C617 C616 1.391 . S
C618 H608 0.950 . S
C618 C619 1.386 . S
C618 C620 1.391 . S
C619 C618 1.386 . S
C619 C623 1.393 . S
C620 H609 0.950 . S
C620 C618 1.391 . S
C620 C621 1.400 . S
C621 C615 1.491 . S
C621 C620 1.400 . S
C621 C622 1.398 . S
C622 H610 0.950 . S
C622 C621 1.398 . S
C622 C623 1.391 . S
C623 H611 0.950 . S
C623 C619 1.393 . S
C623 C622 1.391 . S
H624 C632 0.950 . S
H625 C637 0.950 . S
H626 C634 0.950 . S
H627 C636 0.950 . S
H628 C638 0.950 . S
H629 C640 0.950 . S
H630 C642 0.950 . S
H631 C643 0.950 . S
C632 H624 0.950 . S
C632 C633 1.386 . S
C632 C634 1.391 . S
C633 C632 1.386 . S
C633 C637 1.393 . S
C634 H626 0.950 . S
C634 C632 1.391 . S
C634 C635 1.400 . S
C635 C634 1.400 . S
C635 C636 1.398 . S
C635 C641 1.491 . S
C636 H627 0.950 . S
C636 C635 1.398 . S
C636 C637 1.391 . S
C637 H625 0.950 . S
C637 C633 1.393 . S
C637 C636 1.391 . S
C638 H628 0.950 . S
C638 C639 1.386 . S
C638 C640 1.391 . S
C639 C638 1.386 . S
C639 C643 1.393 . S
C640 H629 0.950 . S
C640 C638 1.391 . S
C640 C641 1.400 . S
C641 C635 1.491 . S
C641 C640 1.400 . S
C641 C642 1.398 . S
C642 H630 0.950 . S
C642 C641 1.398 . S
C642 C643 1.391 . S
C643 H631 0.950 . S
C643 C639 1.393 . S
C643 C642 1.391 . S
H644 C652 0.950 . S
H645 C657 0.950 . S
H646 C654 0.950 . S
H647 C656 0.950 . S
H648 C658 0.950 . S
H649 C660 0.950 . S
H650 C662 0.950 . S
H651 C663 0.950 . S
C652 H644 0.950 . S
C652 C653 1.386 . S
C652 C654 1.391 . S
C653 C652 1.386 . S
C653 C657 1.393 . S
C654 H646 0.950 . S
C654 C652 1.391 . S
C654 C655 1.400 . S
C655 C654 1.400 . S
C655 C656 1.398 . S
C655 C661 1.491 . S
C656 H647 0.950 . S
C656 C655 1.398 . S
C656 C657 1.391 . S
C657 H645 0.950 . S
C657 C653 1.393 . S
C657 C656 1.391 . S
C658 H648 0.950 . S
C658 C659 1.386 . S
C658 C660 1.391 . S
C659 C658 1.386 . S
C659 C663 1.393 . S
C660 H649 0.950 . S
C660 C658 1.391 . S
C660 C661 1.400 . S
C661 C655 1.491 . S
C661 C660 1.400 . S
C661 C662 1.398 . S
C662 H650 0.950 . S
C662 C661 1.398 . S
C662 C663 1.391 . S
C663 H651 0.950 . S
C663 C659 1.393 . S
C663 C662 1.391 . S
H664 C672 0.950 . S
H665 C677 0.950 . S
H666 C674 0.950 . S
H667 C676 0.950 1_545 S
H668 C678 0.950 . S
H669 C680 0.950 . S
H670 C682 0.950 1_565 S
H671 C683 0.950 . S
C672 H664 0.950 . S
C672 C673 1.386 . S
C672 C674 1.391 . S
C673 C672 1.386 . S
C673 C677 1.393 . S
C674 H666 0.950 . S
C674 C672 1.391 . S
C674 C675 1.400 . S
C675 C674 1.400 . S
C675 C676 1.398 . S
C675 C681 1.491 1_565 S
C676 H667 0.950 1_565 S
C676 C675 1.398 . S
C676 C677 1.391 . S
C677 H665 0.950 . S
C677 C673 1.393 . S
C677 C676 1.391 . S
C678 H668 0.950 . S
C678 C679 1.386 . S
C678 C680 1.391 . S
C679 C678 1.386 . S
C679 C683 1.393 . S
C680 H669 0.950 . S
C680 C678 1.391 . S
C680 C681 1.400 . S
C681 C675 1.491 1_545 S
C681 C680 1.400 . S
C681 C682 1.398 . S
C682 H670 0.950 1_545 S
C682 C681 1.398 . S
C682 C683 1.391 . S
C683 H671 0.950 . S
C683 C679 1.393 . S
C683 C682 1.391 . S
H684 C692 0.950 . S
H685 C697 0.950 1_655 S
H686 C694 0.950 . S
H687 C696 0.950 1_655 S
H688 C698 0.950 1_655 S
H689 C700 0.950 1_655 S
H690 C702 0.950 . S
H691 C703 0.950 . S
C692 H684 0.950 . S
C692 C693 1.386 . S
C692 C694 1.391 1_556 S
C693 C692 1.386 . S
C693 C697 1.393 . S
C694 H686 0.950 . S
C694 C692 1.391 1_554 S
C694 C695 1.400 . S
C695 C694 1.400 . S
C695 C696 1.398 . S
C695 C701 1.491 1_545 S
C696 H687 0.950 1_455 S
C696 C695 1.398 . S
C696 C697 1.391 1_554 S
C697 H685 0.950 1_455 S
C697 C693 1.393 . S
C697 C696 1.391 1_556 S
C698 H688 0.950 1_455 S
C698 C699 1.386 . S
C698 C700 1.391 . S
C699 C698 1.386 . S
C699 C703 1.393 . S
C700 H689 0.950 1_455 S
C700 C698 1.391 . S
C700 C701 1.400 . S
C701 C695 1.491 1_565 S
C701 C700 1.400 . S
C701 C702 1.398 . S
C702 H690 0.950 . S
C702 C701 1.398 . S
C702 C703 1.391 . S
C703 H691 0.950 . S
C703 C699 1.393 . S
C703 C702 1.391 . S
H704 C712 0.950 . S
H705 C717 0.950 . S
H706 C714 0.950 . S
H707 C716 0.950 . S
H708 C718 0.950 . S
H709 C720 0.950 . S
H710 C722 0.950 . S
H711 C723 0.950 . S
C712 H704 0.950 . S
C712 C713 1.386 . S
C712 C714 1.391 . S
C713 C712 1.386 . S
C713 C717 1.393 . S
C714 H706 0.950 . S
C714 C712 1.391 . S
C714 C715 1.400 . S
C715 C714 1.400 . S
C715 C716 1.398 . S
C715 C721 1.491 . S
C716 H707 0.950 . S
C716 C715 1.398 . S
C716 C717 1.391 . S
C717 H705 0.950 . S
C717 C713 1.393 . S
C717 C716 1.391 . S
C718 H708 0.950 . S
C718 C719 1.386 . S
C718 C720 1.391 . S
C719 C718 1.386 . S
C719 C723 1.393 . S
C720 H709 0.950 . S
C720 C718 1.391 . S
C720 C721 1.400 . S
C721 C715 1.491 . S
C721 C720 1.400 . S
C721 C722 1.398 . S
C722 H710 0.950 . S
C722 C721 1.398 . S
C722 C723 1.391 . S
C723 H711 0.950 . S
C723 C719 1.393 . S
C723 C722 1.391 . S
H724 C732 0.950 . S
H725 C737 0.950 . S
H726 C734 0.950 . S
H727 C736 0.950 . S
H728 C738 0.950 . S
H729 C740 0.950 . S
H730 C742 0.950 . S
H731 C743 0.950 . S
C732 H724 0.950 . S
C732 C733 1.386 . S
C732 C734 1.391 . S
C733 C732 1.386 . S
C733 C737 1.393 . S
C734 H726 0.950 . S
C734 C732 1.391 . S
C734 C735 1.400 . S
C735 C734 1.400 . S
C735 C736 1.398 . S
C735 C741 1.491 . S
C736 H727 0.950 . S
C736 C735 1.398 . S
C736 C737 1.391 . S
C737 H725 0.950 . S
C737 C733 1.393 . S
C737 C736 1.391 . S
C738 H728 0.950 . S
C738 C739 1.386 . S
C738 C740 1.391 . S
C739 C738 1.386 . S
C739 C743 1.393 . S
C740 H729 0.950 . S
C740 C738 1.391 . S
C740 C741 1.400 . S
C741 C735 1.491 . S
C741 C740 1.400 . S
C741 C742 1.398 . S
C742 H730 0.950 . S
C742 C741 1.398 . S
C742 C743 1.391 . S
C743 H731 0.950 . S
C743 C739 1.393 . S
C743 C742 1.391 . S
H744 C752 0.950 . S
H745 C757 0.950 . S
H746 C754 0.950 . S
H747 C756 0.950 . S
H748 C758 0.950 . S
H749 C760 0.950 . S
H750 C762 0.950 . S
H751 C763 0.950 . S
C752 H744 0.950 . S
C752 C753 1.386 . S
C752 C754 1.391 . S
C753 C752 1.386 . S
C753 C757 1.393 . S
C754 H746 0.950 . S
C754 C752 1.391 . S
C754 C755 1.400 . S
C755 C754 1.400 . S
C755 C756 1.398 . S
C755 C761 1.491 . S
C756 H747 0.950 . S
C756 C755 1.398 . S
C756 C757 1.391 . S
C757 H745 0.950 . S
C757 C753 1.393 . S
C757 C756 1.391 . S
C758 H748 0.950 . S
C758 C759 1.386 . S
C758 C760 1.391 1_556 S
C759 C758 1.386 . S
C759 C763 1.393 . S
C760 H749 0.950 . S
C760 C758 1.391 1_554 S
C760 C761 1.400 . S
C761 C755 1.491 . S
C761 C760 1.400 . S
C761 C762 1.398 . S
C762 H750 0.950 . S
C762 C761 1.398 . S
C762 C763 1.391 1_554 S
C763 H751 0.950 . S
C763 C759 1.393 . S
C763 C762 1.391 1_556 S
H764 C772 0.950 . S
H765 C777 0.950 . S
H766 C774 0.950 . S
H767 C776 0.950 . S
H768 C778 0.950 . S
H769 C780 0.950 . S
H770 C782 0.950 . S
H771 C783 0.950 . S
C772 H764 0.950 . S
C772 C773 1.386 . S
C772 C774 1.391 . S
C773 C772 1.386 . S
C773 C777 1.393 . S
C774 H766 0.950 . S
C774 C772 1.391 . S
C774 C775 1.400 . S
C775 C774 1.400 . S
C775 C776 1.398 . S
C775 C781 1.491 . S
C776 H767 0.950 . S
C776 C775 1.398 . S
C776 C777 1.391 . S
C777 H765 0.950 . S
C777 C773 1.393 . S
C777 C776 1.391 . S
C778 H768 0.950 . S
C778 C779 1.386 . S
C778 C780 1.391 . S
C779 C778 1.386 . S
C779 C783 1.393 . S
C780 H769 0.950 . S
C780 C778 1.391 . S
C780 C781 1.400 . S
C781 C775 1.491 . S
C781 C780 1.400 . S
C781 C782 1.398 . S
C782 H770 0.950 . S
C782 C781 1.398 . S
C782 C783 1.391 . S
C783 H771 0.950 . S
C783 C779 1.393 . S
C783 C782 1.391 . S
H784 C792 0.950 . S
H785 C797 0.950 . S
H786 C794 0.950 . S
H787 C796 0.950 . S
H788 C798 0.950 . S
H789 C800 0.950 . S
H790 C802 0.950 . S
H791 C803 0.950 . S
C792 H784 0.950 . S
C792 C793 1.386 . S
C792 C794 1.391 . S
C793 C792 1.386 . S
C793 C797 1.393 . S
C794 H786 0.950 . S
C794 C792 1.391 . S
C794 C795 1.400 . S
C795 C794 1.400 . S
C795 C796 1.398 . S
C795 C801 1.491 . S
C796 H787 0.950 . S
C796 C795 1.398 . S
C796 C797 1.391 . S
C797 H785 0.950 . S
C797 C793 1.393 . S
C797 C796 1.391 . S
C798 H788 0.950 . S
C798 C799 1.386 . S
C798 C800 1.391 . S
C799 C798 1.386 . S
C799 C803 1.393 . S
C800 H789 0.950 . S
C800 C798 1.391 . S
C800 C801 1.400 . S
C801 C795 1.491 . S
C801 C800 1.400 . S
C801 C802 1.398 . S
C802 H790 0.950 . S
C802 C801 1.398 . S
C802 C803 1.391 . S
C803 H791 0.950 . S
C803 C799 1.393 . S
C803 C802 1.391 . S
H804 C812 0.950 . S
H805 C817 0.950 . S
H806 C814 0.950 . S
H807 C816 0.950 . S
H808 C818 0.950 . S
H809 C820 0.950 . S
H810 C822 0.950 . S
H811 C823 0.950 . S
C812 H804 0.950 . S
C812 C813 1.386 . S
C812 C814 1.391 . S
C813 C812 1.386 . S
C813 C817 1.393 . S
C814 H806 0.950 . S
C814 C812 1.391 . S
C814 C815 1.400 . S
C815 C814 1.400 . S
C815 C816 1.398 . S
C815 C821 1.491 . S
C816 H807 0.950 . S
C816 C815 1.398 . S
C816 C817 1.391 . S
C817 H805 0.950 . S
C817 C813 1.393 . S
C817 C816 1.391 . S
C818 H808 0.950 . S
C818 C819 1.386 . S
C818 C820 1.391 . S
C819 C818 1.386 . S
C819 C823 1.393 . S
C820 H809 0.950 . S
C820 C818 1.391 . S
C820 C821 1.400 . S
C821 C815 1.491 . S
C821 C820 1.400 . S
C821 C822 1.398 . S
C822 H810 0.950 . S
C822 C821 1.398 . S
C822 C823 1.391 . S
C823 H811 0.950 . S
C823 C819 1.393 . S
C823 C822 1.391 . S
H824 C832 0.950 . S
H825 C837 0.950 . S
H826 C834 0.950 . S
H827 C836 0.950 . S
H828 C838 0.950 . S
H829 C840 0.950 . S
H830 C842 0.950 . S
H831 C843 0.950 . S
C832 H824 0.950 . S
C832 C833 1.386 . S
C832 C834 1.391 . S
C833 C832 1.386 . S
C833 C837 1.393 . S
C834 H826 0.950 . S
C834 C832 1.391 . S
C834 C835 1.400 . S
C835 C834 1.400 . S
C835 C836 1.398 . S
C835 C841 1.491 1_565 S
C836 H827 0.950 . S
C836 C835 1.398 . S
C836 C837 1.391 . S
C837 H825 0.950 . S
C837 C833 1.393 . S
C837 C836 1.391 . S
C838 H828 0.950 . S
C838 C839 1.386 . S
C838 C840 1.391 1_556 S
C839 C838 1.386 . S
C839 C843 1.393 . S
C840 H829 0.950 . S
C840 C838 1.391 1_554 S
C840 C841 1.400 . S
C841 C835 1.491 1_545 S
C841 C840 1.400 . S
C841 C842 1.398 . S
C842 H830 0.950 . S
C842 C841 1.398 . S
C842 C843 1.391 1_554 S
C843 H831 0.950 . S
C843 C839 1.393 . S
C843 C842 1.391 1_556 S
H844 C852 0.950 . S
H845 C857 0.950 1_655 S
H846 C854 0.950 . S
H847 C856 0.950 1_655 S
H848 C858 0.950 1_655 S
H849 C860 0.950 1_655 S
H850 C862 0.950 . S
H851 C863 0.950 . S
C852 H844 0.950 . S
C852 C853 1.386 . S
C852 C854 1.391 . S
C853 C852 1.386 . S
C853 C857 1.393 . S
C854 H846 0.950 . S
C854 C852 1.391 . S
C854 C855 1.400 . S
C855 C854 1.400 . S
C855 C856 1.398 . S
C855 C861 1.491 1_545 S
C856 H847 0.950 1_455 S
C856 C855 1.398 . S
C856 C857 1.391 . S
C857 H845 0.950 1_455 S
C857 C853 1.393 . S
C857 C856 1.391 . S
C858 H848 0.950 1_455 S
C858 C859 1.386 . S
C858 C860 1.391 . S
C859 C858 1.386 . S
C859 C863 1.393 . S
C860 H849 0.950 1_455 S
C860 C858 1.391 . S
C860 C861 1.400 . S
C861 C855 1.491 1_565 S
C861 C860 1.400 . S
C861 C862 1.398 . S
C862 H850 0.950 . S
C862 C861 1.398 . S
C862 C863 1.391 . S
C863 H851 0.950 . S
C863 C859 1.393 . S
C863 C862 1.391 . S
C233 C137 1.427 . S
C239 C11 1.442 . S
C253 C207 1.421 . S
C259 C25 1.422 . S
C273 C39 1.445 . S
C279 C123 1.441 . S
C293 C53 1.421 . S
C299 C221 1.436 . S
C313 C67 1.445 . S
C319 C151 1.440 . S
C333 C193 1.442 . S
C339 C81 1.445 . S
C353 C165 1.443 . S
C359 C95 1.428 . S
C373 C109 1.434 . S
C379 C179 1.421 . S
C393 C68 1.441 . S
C399 C54 1.436 . S
C413 C180 1.444 . S
C419 C124 1.434 . S
C433 C96 1.435 . S
C439 C26 1.441 . S
C453 C138 1.444 . S
C459 C194 1.436 . S
C473 C12 1.439 . S
C479 C82 1.442 . S
C493 C222 1.443 . S
C499 C152 1.435 . S
C513 C110 1.434 . S
C519 C40 1.444 . S
C533 C166 1.437 . S
C539 C208 1.444 . S
C553 C4 0.581 . S
C559 C60 0.581 . S
C573 C74 0.564 . S
C579 C18 0.564 . S
C593 C88 0.572 . S
C599 C32 0.572 . S
C613 C46 0.565 . S
C619 C102 0.565 . S
C633 C144 0.528 . S
C639 C116 0.528 . S
C653 C158 0.550 . S
C659 C130 0.550 . S
C673 C200 0.565 . S
C679 C172 0.565 . S
C693 C214 0.519 . S
C699 C186 0.519 . S
C713 C61 1.391 . S
C719 C5 1.389 . S
C733 C75 1.409 . S
C739 C19 1.410 . S
C753 C89 1.416 . S
C759 C33 1.416 . S
C773 C47 1.374 . S
C779 C103 1.373 . S
C793 C117 1.414 . S
C799 C145 1.414 . S
C813 C159 1.380 . S
C819 C131 1.379 . S
C833 C201 1.417 . S
C839 C173 1.417 . S
C853 C215 1.417 . S
C859 C187 1.417 . S
