# Generated by pormake.
# Topology wlj, (5)-cn, num edge types: 1
# Building blocks:
#     Node 0, Type 0, BuildingBlock: XOMCOT_clean_sbu_1, # of connection points: 5
#     Node 1, Type 0, BuildingBlock: XOMCOT_clean_sbu_1, # of connection points: 5
#     Node 2, Type 0, BuildingBlock: XOMCOT_clean_sbu_1, # of connection points: 5
#     Node 3, Type 0, BuildingBlock: XOMCOT_clean_sbu_1, # of connection points: 5
#     Node 4, Type 0, BuildingBlock: XOMCOT_clean_sbu_1, # of connection points: 5
#     Node 5, Type 0, BuildingBlock: XOMCOT_clean_sbu_1, # of connection points: 5
#     Edge 6, Type (0, 0), BuildingBlock: AJUNOK_clean_linker_0, # of connection points: 2
#     Edge 7, Type (0, 0), BuildingBlock: AJUNOK_clean_linker_0, # of connection points: 2
#     Edge 8, Type (0, 0), BuildingBlock: AJUNOK_clean_linker_0, # of connection points: 2
#     Edge 9, Type (0, 0), BuildingBlock: AJUNOK_clean_linker_0, # of connection points: 2
#     Edge 10, Type (0, 0), BuildingBlock: AJUNOK_clean_linker_0, # of connection points: 2
#     Edge 11, Type (0, 0), BuildingBlock: AJUNOK_clean_linker_0, # of connection points: 2
#     Edge 12, Type (0, 0), BuildingBlock: AJUNOK_clean_linker_0, # of connection points: 2
#     Edge 13, Type (0, 0), BuildingBlock: AJUNOK_clean_linker_0, # of connection points: 2
#     Edge 14, Type (0, 0), BuildingBlock: AJUNOK_clean_linker_0, # of connection points: 2
#     Edge 15, Type (0, 0), BuildingBlock: AJUNOK_clean_linker_0, # of connection points: 2
#     Edge 16, Type (0, 0), BuildingBlock: AJUNOK_clean_linker_0, # of connection points: 2
#     Edge 17, Type (0, 0), BuildingBlock: AJUNOK_clean_linker_0, # of connection points: 2
#     Edge 18, Type (0, 0), BuildingBlock: AJUNOK_clean_linker_0, # of connection points: 2
#     Edge 19, Type (0, 0), BuildingBlock: AJUNOK_clean_linker_0, # of connection points: 2
#     Edge 20, Type (0, 0), BuildingBlock: AJUNOK_clean_linker_0, # of connection points: 2
# Relax obj value: 0.139
# Max RMSD: 0.179
# Mean RMSD: 0.179
data_MOF--net-wlj--node1-XOMCOT_clean_sbu_1--edge1-AJUNOK_clean_linker_0
_symmetry_space_group_name_H-M    P1
_symmetry_Int_Tables_number       1
_symmetry_cell_setting            triclinic
loop_
_symmetry_equiv_pos_as_xyz
'x, y, z'
_cell_length_a     19.148797
_cell_length_b     19.201392
_cell_length_c     39.587933
_cell_angle_alpha  89.58399
_cell_angle_beta   90.131574
_cell_angle_gamma 120.36382
loop_
_atom_site_label
_atom_site_type_symbol
_atom_site_fract_x
_atom_site_fract_y
_atom_site_fract_z
_atom_type_partial_charge
C0 C 0.65736 0.2426 0.37488 0.0
C1 C 0.64766 0.17677 0.39277 0.0
N2 N 0.62914 0.11589 0.37115 0.0
N3 N 0.64421 0.2244 0.34183 0.0
C4 C 0.62821 0.14703 0.34023 0.0
H5 H 0.67311 0.30021 0.38562 0.0
Co6 Co 0.65249 0.29807 0.30783 0.0
C7 C 0.54048 0.19503 0.2511 0.0
O8 O 0.56178 0.25744 0.23116 0.0
N9 N 0.66339 0.37633 0.27442 0.0
C10 C 0.71736 0.47855 0.23728 0.0
C11 C 0.72979 0.42494 0.25564 0.0
C12 C 0.6118 0.40367 0.26708 0.0
N13 N 0.64302 0.46519 0.24437 0.0
O14 O 0.56927 0.31029 0.32992 0.0
H15 H 0.78572 0.42441 0.25561 0.0
H16 H 0.55194 0.37846 0.2778 0.0
O17 O 0.57121 0.20584 0.28078 0.0
C18 C 0.59994 0.37224 0.349 0.0
O19 O 0.67913 0.41609 0.35137 0.0
N20 N 0.73888 0.29218 0.28848 0.0
C21 C 0.88494 0.34213 0.25548 0.0
C22 C 0.81212 0.28 0.24206 0.0
C23 C 0.73917 0.25588 0.25897 0.0
C24 C 0.80979 0.34272 0.30441 0.0
C25 C 0.88379 0.36901 0.28824 0.0
H26 H 0.68375 0.21317 0.24677 0.0
H27 H 0.80851 0.37011 0.32801 0.0
H28 H 0.61802 0.11536 0.31666 0.0
H29 H 0.65197 0.17375 0.41993 0.0
H30 H 0.76096 0.52571 0.2208 0.0
H31 H 0.81076 0.25522 0.21742 0.0
H32 H 0.93841 0.41644 0.29979 0.0
C33 C 0.807 0.48601 1.02207 0.0
C34 C 0.87177 0.54969 1.03803 0.0
N35 N 0.93929 0.54747 1.03069 0.0
N36 N 0.83313 0.44319 1.00478 0.0
C37 C 0.91382 0.4817 1.01088 0.0
H38 H 0.74471 0.47174 1.02313 0.0
Co39 Co 0.77025 0.35014 0.9784 0.0
C40 C 0.87708 0.37398 0.91862 0.0
O41 O 0.81382 0.34395 0.89856 0.0
N42 N 0.70883 0.2556 0.95262 0.0
C43 C 0.67852 0.13641 0.9314 0.0
C44 C 0.73756 0.2056 0.94604 0.0
C45 C 0.631 0.21445 0.94163 0.0
N46 N 0.61167 0.14199 0.9286 0.0
O47 O 0.79289 0.28517 1.0091 0.0
H48 H 0.79753 0.21764 0.95254 0.0
H49 H 0.58785 0.23447 0.94456 0.0
O50 O 0.86732 0.3798 0.95032 0.0
C51 C 0.73663 0.25815 1.03134 0.0
O52 O 0.69359 0.29382 1.03353 0.0
N53 N 0.73641 0.40885 0.95135 0.0
C54 C 0.65854 0.48492 0.92253 0.0
C55 C 0.73712 0.50593 0.91226 0.0
C56 C 0.77602 0.46816 0.9276 0.0
C57 C 0.66106 0.38971 0.9619 0.0
C58 C 0.62081 0.42606 0.94767 0.0
H59 H 0.83804 0.4883 0.921 0.0
H60 H 0.63215 0.34601 0.98204 0.0
H61 H 0.9529 0.4605 1.00175 0.0
H62 H 0.86941 0.59444 1.05369 0.0
H63 H 0.6836 0.085 0.92395 0.0
H64 H 0.76897 0.55288 0.8935 0.0
H65 H 0.56072 0.40888 0.95661 0.0
C66 C 0.57647 0.33668 0.69362 0.0
C67 C 0.52849 0.35052 0.71512 0.0
N68 N 0.54765 0.42793 0.71152 0.0
N69 N 0.62576 0.4048 0.67606 0.0
C70 C 0.60889 0.46009 0.68875 0.0
H71 H 0.57457 0.27986 0.69126 0.0
Co72 Co 0.70029 0.41959 0.64102 0.0
C73 C 0.608 0.49425 0.6118 0.0
O74 O 0.53945 0.43526 0.62384 0.0
N75 N 0.77392 0.43429 0.60691 0.0
C76 C 0.83239 0.45571 0.55655 0.0
C77 C 0.77102 0.45498 0.57447 0.0
C78 C 0.83852 0.42354 0.60814 0.0
N79 N 0.87447 0.43536 0.5776 0.0
O80 O 0.7869 0.50722 0.66574 0.0
H81 H 0.72715 0.46868 0.56413 0.0
H82 H 0.85837 0.4068 0.63082 0.0
O83 O 0.67427 0.49446 0.61673 0.0
C84 C 0.81278 0.47986 0.68919 0.0
O85 O 0.77167 0.40196 0.69564 0.0
N86 N 0.62142 0.32778 0.61788 0.0
C87 C 0.54016 0.18031 0.58447 0.0
C88 C 0.54139 0.24843 0.57087 0.0
C89 C 0.58282 0.32216 0.58797 0.0
C90 C 0.62165 0.2619 0.63074 0.0
C91 C 0.57991 0.1873 0.61496 0.0
H92 H 0.58795 0.37469 0.5757 0.0
H93 H 0.65813 0.2684 0.65269 0.0
H94 H 0.63855 0.52226 0.68023 0.0
H95 H 0.48345 0.30679 0.73223 0.0
H96 H 0.84636 0.472 0.53016 0.0
H97 H 0.51323 0.24532 0.54673 0.0
H98 H 0.58235 0.13637 0.62556 0.0
C99 C 0.26683 0.65672 0.74065 0.0
C100 C 0.20259 0.64699 0.72148 0.0
N101 N 0.13783 0.62269 0.74183 0.0
N102 N 0.24333 0.63744 0.77307 0.0
C103 C 0.16433 0.61703 0.77306 0.0
H104 H 0.32689 0.67577 0.73133 0.0
Co105 Co 0.31355 0.64321 0.80777 0.0
C106 C 0.20547 0.52779 0.86295 0.0
O107 O 0.26609 0.55021 0.88398 0.0
N108 N 0.3888 0.65155 0.84188 0.0
C109 C 0.49209 0.70447 0.87822 0.0
C110 C 0.43924 0.7181 0.85984 0.0
C111 C 0.41432 0.59875 0.84955 0.0
N112 N 0.47649 0.62938 0.87175 0.0
O113 O 0.32883 0.56299 0.78525 0.0
H114 H 0.44117 0.77511 0.85878 0.0
H115 H 0.38842 0.53903 0.83886 0.0
O116 O 0.21846 0.55941 0.83332 0.0
C117 C 0.39722 0.59668 0.77006 0.0
O118 O 0.4412 0.6759 0.77051 0.0
N119 N 0.30547 0.72763 0.82766 0.0
C120 C 0.35623 0.87298 0.86074 0.0
C121 C 0.29771 0.79959 0.87541 0.0
C122 C 0.27269 0.72715 0.85834 0.0
C123 C 0.35346 0.79875 0.81116 0.0
C124 C 0.37993 0.87235 0.82729 0.0
H125 H 0.23327 0.67168 0.87142 0.0
H126 H 0.37914 0.79823 0.78691 0.0
H127 H 0.12695 0.59836 0.79553 0.0
H128 H 0.20316 0.65401 0.69434 0.0
H129 H 0.54085 0.74796 0.89392 0.0
H130 H 0.27718 0.79761 0.90106 0.0
H131 H 0.42572 0.92715 0.81505 0.0
C132 C 0.3528 0.56779 0.42113 0.0
C133 C 0.3656 0.51524 0.40237 0.0
N134 N 0.43873 0.52566 0.4104 0.0
N135 N 0.41733 0.61155 0.44115 0.0
C136 C 0.46918 0.58536 0.43372 0.0
H137 H 0.29901 0.57271 0.42059 0.0
Co138 Co 0.42512 0.68572 0.47388 0.0
C139 C 0.55348 0.6974 0.51986 0.0
O140 O 0.58752 0.77623 0.52155 0.0
N141 N 0.43129 0.75865 0.5069 0.0
C142 C 0.42572 0.80856 0.55666 0.0
C143 C 0.41896 0.74277 0.54036 0.0
C144 C 0.4451 0.83486 0.50353 0.0
N145 N 0.44231 0.86663 0.53356 0.0
O146 O 0.51861 0.77225 0.45123 0.0
H147 H 0.40685 0.68711 0.55242 0.0
H148 H 0.45588 0.86604 0.47956 0.0
O149 O 0.49075 0.65669 0.50169 0.0
C150 C 0.49424 0.79504 0.42563 0.0
O151 O 0.41673 0.75383 0.4183 0.0
N152 N 0.32966 0.60551 0.49393 0.0
C153 C 0.1793 0.51393 0.52453 0.0
C154 C 0.2434 0.5018 0.53333 0.0
C155 C 0.31861 0.54774 0.51717 0.0
C156 C 0.26712 0.6159 0.48457 0.0
C157 C 0.19131 0.5704 0.49937 0.0
H158 H 0.36827 0.53935 0.52448 0.0
H159 H 0.27736 0.66217 0.46622 0.0
H160 H 0.52838 0.61042 0.44508 0.0
H161 H 0.32329 0.47142 0.38468 0.0
H162 H 0.42078 0.81404 0.58363 0.0
H163 H 0.23571 0.45847 0.55276 0.0
H164 H 0.14313 0.5815 0.49215 0.0
C165 C 0.47375 0.79665 0.08112 0.0
C166 C 0.53663 0.86222 0.06488 0.0
N167 N 0.55598 0.92952 0.08252 0.0
N168 N 0.45191 0.82179 0.10872 0.0
C169 C 0.50382 0.90271 0.10904 0.0
H170 H 0.44385 0.73489 0.07252 0.0
Co171 Co 0.36201 0.75779 0.13726 0.0
C172 C 0.3893 0.86748 0.19647 0.0
O173 O 0.36432 0.80679 0.21787 0.0
N174 N 0.27106 0.69518 0.16504 0.0
C175 C 0.15426 0.66236 0.19005 0.0
C176 C 0.22171 0.72282 0.17461 0.0
C177 C 0.2308 0.61628 0.17457 0.0
N178 N 0.15985 0.5955 0.18992 0.0
O179 O 0.29161 0.77734 0.10849 0.0
H180 H 0.23207 0.78258 0.16914 0.0
H181 H 0.24996 0.57362 0.16865 0.0
O182 O 0.39119 0.85484 0.16483 0.0
C183 C 0.25983 0.72108 0.08654 0.0
O184 O 0.28827 0.67183 0.08395 0.0
N185 N 0.42579 0.72716 0.16262 0.0
C186 C 0.5025 0.64921 0.19096 0.0
C187 C 0.52152 0.72634 0.20199 0.0
C188 C 0.48354 0.76537 0.1869 0.0
C189 C 0.4092 0.6537 0.15106 0.0
C190 C 0.44587 0.61342 0.16502 0.0
H191 H 0.5017 0.82607 0.19443 0.0
H192 H 0.36615 0.62569 0.13077 0.0
H193 H 0.50254 0.942 0.12803 0.0
H194 H 0.56222 0.86019 1.04086 0.0
H195 H 0.10305 0.666 0.19933 0.0
H196 H 0.56665 0.75683 0.22142 0.0
H197 H 0.42983 0.55436 0.15556 0.0
C198 C 0.47354 0.04416 0.25768 0.0
C199 C 0.49371 0.11154 0.23693 0.0
C200 C 0.43777 0.9659 0.24437 0.0
C201 C 0.42102 0.95097 0.20969 0.0
H202 H 0.48651 0.05188 0.28444 0.0
H203 H 0.42445 0.91659 0.26138 0.0
S204 S 0.44942 0.10418 0.14504 0.0
N205 N 0.48535 0.15643 0.18009 0.0
N206 N 0.41841 1.00949 0.1554 0.0
C207 C 0.43663 1.01703 0.18884 0.0
C208 C 0.47274 0.09701 0.20239 0.0
C209 C 0.10745 0.48409 0.91132 0.0
C210 C 0.12126 0.48136 0.87653 0.0
C211 C 1.0288 0.44801 0.92473 0.0
C212 C 0.96007 0.4067 0.90404 0.0
H213 H 0.15792 0.51643 0.92836 0.0
H214 H 1.02213 0.4538 0.95152 0.0
S215 S 0.96324 0.3695 0.81213 0.0
N216 N 0.05969 0.42634 0.82223 0.0
N217 N 0.91191 0.35713 0.84729 0.0
C218 C 0.97311 0.39965 0.86942 0.0
C219 C 0.05347 0.43729 0.85572 0.0
C220 C 0.60042 0.59955 0.53173 0.0
C221 C 0.57748 0.6538 0.54376 0.0
C222 C 0.61516 0.55124 0.55414 0.0
C223 C 0.60542 0.55435 0.58921 0.0
H224 H 0.60572 0.5936 0.50483 0.0
H225 H 0.6306 0.50866 0.54383 0.0
S226 S 0.54441 0.68478 0.63329 0.0
N227 N 0.54655 0.70838 0.59293 0.0
N228 N 0.57079 0.6151 0.63485 0.0
C229 C 0.58295 0.60857 0.6015 0.0
C230 C 0.56995 0.65911 0.5788 0.0
C231 C 0.535 0.5842 0.23948 0.0
C232 C 0.54259 0.60598 0.20505 0.0
C233 C 0.56619 0.53651 0.25218 0.0
C234 C 0.6071 0.51014 0.23096 0.0
H235 H 0.50327 0.60266 0.25653 0.0
H236 H 0.55936 0.52114 0.27881 0.0
S237 S 0.64284 0.55085 0.13899 0.0
N238 N 0.59403 0.59752 0.15014 0.0
N239 N 0.65231 0.50863 0.17385 0.0
C240 C 0.61532 0.53205 0.1966 0.0
C241 C 0.58318 0.57974 0.1837 0.0
C242 C 0.44084 0.93403 0.91187 0.0
C243 C 0.40642 0.94468 0.88221 0.0
C244 C 0.50427 0.99987 0.92839 0.0
C245 C 0.53515 0.07897 0.91623 0.0
H246 H 0.42315 0.87398 0.92098 0.0
H247 H 0.53263 0.98866 0.94981 0.0
S248 S 0.45973 0.14116 0.84255 0.0
N249 N 0.40264 0.04168 0.84347 0.0
N250 N 0.52224 0.16565 0.87496 0.0
C251 C 0.4974 0.09143 0.88834 0.0
C252 C 0.43305 0.02418 0.87118 0.0
C253 C 1.01825 0.48018 0.58783 0.0
C254 C 0.9473 0.43542 0.56877 0.0
C255 C 0.09407 0.49893 0.57472 0.0
C256 C 0.10064 0.47302 0.54232 0.0
H257 H 1.01582 0.50636 0.61163 0.0
H258 H 0.14816 0.53925 0.58875 0.0
S259 S 0.93156 0.34244 0.48531 0.0
N260 N 0.8873 0.35625 0.51828 0.0
N261 N 1.02957 0.39242 0.49351 0.0
C262 C 1.02952 0.4223 0.52452 0.0
C263 C 0.95279 0.40316 0.53782 0.0
C264 C 0.59329 0.51912 0.87483 0.0
C265 C 0.61632 0.52632 0.90901 0.0
C266 C 0.54604 0.55138 0.8628 0.0
C267 C 0.52141 0.5929 0.88448 0.0
H268 H 0.61036 0.48684 0.8575 0.0
H269 H 0.52954 0.54482 0.83634 0.0
S270 S 0.56599 0.62785 0.97602 0.0
N271 N 0.61091 0.57779 0.96419 0.0
N272 N 0.52305 0.63848 0.94167 0.0
C273 C 0.54473 0.60085 0.91857 0.0
C274 C 0.5919 0.56755 0.9308 0.0
C275 C 0.43804 0.03425 0.57965 0.0
C276 C 0.50502 0.1033 0.56602 0.0
C277 C 0.41458 0.95736 0.56723 0.0
C278 C 0.45788 0.94664 0.54104 0.0
H279 H 0.40598 0.03948 0.6011 0.0
H280 H 0.36424 0.90541 0.57922 0.0
S281 S 0.63706 0.10941 0.49654 0.0
N282 N 0.61268 0.15738 0.52431 0.0
N283 N 0.56959 1.01253 0.50123 0.0
C284 C 0.5227 1.0158 0.52612 0.0
C285 C 0.54617 0.09426 0.53865 0.0
C286 C 0.10443 0.48191 0.23025 0.0
C287 C 0.09623 0.51731 0.2005 0.0
C288 C 0.03603 0.41939 0.24663 0.0
C289 C 0.95741 0.39042 0.23367 0.0
H290 H 0.16307 0.50703 0.24225 0.0
H291 H 0.04418 0.39718 0.27068 0.0
S292 S 0.90679 0.45956 0.1542 0.0
N293 N 1.00625 0.51512 0.157 0.0
N294 N 0.87748 0.39909 0.18753 0.0
C295 C 0.94989 0.42163 0.20239 0.0
C296 C 1.01941 0.48485 0.1859 0.0
C297 C 0.6039 0.94165 0.42566 0.0
C298 C 0.54488 0.87396 0.40816 0.0
C299 C 0.6354 1.02007 0.4122 0.0
C300 C 0.60854 0.03428 0.38091 0.0
H301 H 0.62205 0.93463 0.4508 0.0
H302 H 0.67895 0.07024 0.42717 0.0
S303 S 0.46683 0.8741 0.32251 0.0
N304 N 0.47113 0.82426 0.35572 0.0
N305 N 0.52724 0.97059 0.33095 0.0
C306 C 0.55507 0.96596 0.36194 0.0
C307 C 0.52398 0.88628 0.37549 0.0
C308 C 1.03391 0.63291 0.0759 0.0
C309 C 1.02068 0.60182 1.04281 0.0
C310 C 0.11272 0.67922 0.08918 0.0
C311 C 0.18122 0.69627 0.06982 0.0
H312 H 0.98289 0.61784 0.09226 0.0
H313 H 0.11957 0.69689 0.11543 0.0
S314 S 0.18084 0.64176 0.98018 0.0
N315 N 0.08401 0.60164 0.98971 0.0
N316 N 0.23113 0.68613 1.01492 0.0
C317 C 0.16897 0.67007 1.03614 0.0
C318 C 0.0891 0.62351 1.02257 0.0
C319 C 0.51616 0.59077 0.74774 0.0
C320 C 0.43273 0.55023 0.75536 0.0
C321 C 0.553 0.55034 0.73386 0.0
C322 C 0.50827 0.4674 0.72687 0.0
H323 H 0.55407 0.65465 0.75272 0.0
H324 H 0.61737 0.58437 0.7288 0.0
S325 S 0.28686 0.33363 0.74027 0.0
N326 N 0.30595 0.42248 0.75411 0.0
N327 N 0.37453 0.3465 0.72726 0.0
C328 C 0.4245 0.4259 0.73413 0.0
C329 C 0.38698 0.46725 0.74853 0.0
C330 C 0.98945 0.53426 0.74818 0.0
C331 C 0.05576 0.59782 0.73128 0.0
C332 C 0.91046 0.50018 0.73541 0.0
C333 C 0.89375 0.5288 0.70533 0.0
H334 H 0.9991 0.50778 0.77054 0.0
H335 H 0.86242 0.44862 0.74863 0.0
S336 S 0.04358 0.70305 0.65418 0.0
N337 N 0.09751 0.69518 0.685 0.0
N338 N 0.94931 0.6303 0.66082 0.0
C339 C 0.9584 0.59626 0.68945 0.0
C340 C 0.03922 0.63086 0.70241 0.0
C341 C 0.49132 0.40883 0.34901 0.0
C342 C 0.55048 0.40035 0.36651 0.0
C343 C 0.45492 0.44931 0.36359 0.0
C344 C 0.47521 0.48172 0.39647 0.0
H345 H 0.47572 0.38754 0.32333 0.0
H346 H 0.41233 0.45732 0.34847 0.0
S347 S 0.61756 0.46303 0.45465 0.0
N348 N 0.62288 0.4209 0.41928 0.0
N349 N 0.55156 0.49265 0.44739 0.0
C350 C 0.53103 0.46915 0.41486 0.0
C351 C 0.5692 0.42946 0.39972 0.0
C352 C 0.64137 0.15391 0.07222 0.0
C353 C 0.70401 0.17767 1.04833 0.0
C354 C 0.59576 0.0741 0.08386 0.0
C355 C 0.61056 1.01334 0.07264 0.0
H356 H 0.62437 0.19662 0.08101 0.0
H357 H 0.54585 0.05965 0.10063 0.0
S358 S 0.77662 0.04596 1.01421 0.0
N359 N 0.78417 0.13538 1.01637 0.0
N360 N 0.70033 0.98562 1.03913 0.0
C361 C 0.67691 0.03725 1.05048 0.0
C362 C 0.72326 0.11916 1.03829 0.0
loop_
_geom_bond_atom_site_label_1
_geom_bond_atom_site_label_2
_geom_bond_distance
_geom_bond_site_symmetry_2
_ccdc_geom_bond_type
C0 C1 1.351 . S
C0 N3 1.368 . S
C0 H5 0.931 . S
C1 C0 1.351 . S
C1 N2 1.373 . S
C1 H29 0.930 . S
N2 C1 1.373 . S
N2 C4 1.340 . S
N3 C0 1.368 . S
N3 C4 1.321 . S
N3 Co6 2.135 . S
C4 N2 1.340 . S
C4 N3 1.321 . S
C4 H28 0.930 . S
H5 C0 0.931 . S
Co6 N3 2.135 . S
Co6 N9 2.121 . S
Co6 O14 2.055 . S
Co6 O17 2.039 . S
Co6 N20 2.140 . S
C7 O8 1.227 . S
C7 O17 1.265 . S
O8 C7 1.227 . S
N9 Co6 2.121 . S
N9 C11 1.375 . S
N9 C12 1.313 . S
C10 C11 1.338 . S
C10 N13 1.377 . S
C10 H30 0.930 . S
C11 N9 1.375 . S
C11 C10 1.338 . S
C11 H15 0.931 . S
C12 N9 1.313 . S
C12 N13 1.344 . S
C12 H16 0.930 . S
N13 C10 1.377 . S
N13 C12 1.344 . S
O14 Co6 2.055 . S
O14 C18 1.253 . S
H15 C11 0.931 . S
H16 C12 0.930 . S
O17 Co6 2.039 . S
O17 C7 1.265 . S
C18 O14 1.253 . S
C18 O19 1.227 . S
O19 C18 1.227 . S
N20 Co6 2.140 . S
N20 C23 1.346 . S
N20 C24 1.345 . S
C21 C22 1.387 . S
C21 C25 1.391 . S
C22 C21 1.387 . S
C22 C23 1.369 . S
C22 H31 0.929 . S
C23 N20 1.346 . S
C23 C22 1.369 . S
C23 H26 0.928 . S
C24 N20 1.345 . S
C24 C25 1.371 . S
C24 H27 0.931 . S
C25 C21 1.391 . S
C25 C24 1.371 . S
C25 H32 0.930 . S
H26 C23 0.928 . S
H27 C24 0.931 . S
H28 C4 0.930 . S
H29 C1 0.930 . S
H30 C10 0.930 . S
H31 C22 0.929 . S
H32 C25 0.930 . S
C33 C34 1.351 . S
C33 N36 1.368 . S
C33 H38 0.931 . S
C34 C33 1.351 . S
C34 N35 1.373 . S
C34 H62 0.933 1_556 S
N35 C34 1.373 . S
N35 C37 1.340 . S
N36 C33 1.368 . S
N36 C37 1.321 . S
N36 Co39 2.135 . S
C37 N35 1.340 . S
C37 N36 1.321 . S
C37 H61 0.930 . S
H38 C33 0.931 . S
Co39 N36 2.135 . S
Co39 N42 2.121 . S
Co39 O47 2.055 . S
Co39 O50 2.039 . S
Co39 N53 2.140 . S
C40 O41 1.227 . S
C40 O50 1.265 . S
O41 C40 1.227 . S
N42 Co39 2.121 . S
N42 C44 1.375 . S
N42 C45 1.313 . S
C43 C44 1.338 . S
C43 N46 1.377 . S
C43 H63 0.930 . S
C44 N42 1.375 . S
C44 C43 1.338 . S
C44 H48 0.931 . S
C45 N42 1.313 . S
C45 N46 1.344 . S
C45 H49 0.930 . S
N46 C43 1.377 . S
N46 C45 1.344 . S
O47 Co39 2.055 . S
O47 C51 1.253 . S
H48 C44 0.931 . S
H49 C45 0.930 . S
O50 Co39 2.039 . S
O50 C40 1.265 . S
C51 O47 1.253 . S
C51 O52 1.227 . S
O52 C51 1.227 . S
N53 Co39 2.140 . S
N53 C56 1.346 . S
N53 C57 1.345 . S
C54 C55 1.387 . S
C54 C58 1.391 . S
C55 C54 1.387 . S
C55 C56 1.369 . S
C55 H64 0.929 . S
C56 N53 1.346 . S
C56 C55 1.369 . S
C56 H59 0.928 . S
C57 N53 1.345 . S
C57 C58 1.371 . S
C57 H60 0.931 . S
C58 C54 1.391 . S
C58 C57 1.371 . S
C58 H65 0.930 . S
H59 C56 0.928 . S
H60 C57 0.931 . S
H61 C37 0.930 . S
H62 C34 0.933 1_554 S
H63 C43 0.930 . S
H64 C55 0.929 . S
H65 C58 0.930 . S
C66 C67 1.351 . S
C66 N69 1.368 . S
C66 H71 0.931 . S
C67 C66 1.351 . S
C67 N68 1.373 . S
C67 H95 0.930 . S
N68 C67 1.373 . S
N68 C70 1.340 . S
N69 C66 1.368 . S
N69 C70 1.321 . S
N69 Co72 2.135 . S
C70 N68 1.340 . S
C70 N69 1.321 . S
C70 H94 0.930 . S
H71 C66 0.931 . S
Co72 N69 2.135 . S
Co72 N75 2.121 . S
Co72 O80 2.055 . S
Co72 O83 2.039 . S
Co72 N86 2.140 . S
C73 O74 1.227 . S
C73 O83 1.265 . S
O74 C73 1.227 . S
N75 Co72 2.121 . S
N75 C77 1.375 . S
N75 C78 1.313 . S
C76 C77 1.338 . S
C76 N79 1.377 . S
C76 H96 0.930 . S
C77 N75 1.375 . S
C77 C76 1.338 . S
C77 H81 0.931 . S
C78 N75 1.313 . S
C78 N79 1.344 . S
C78 H82 0.930 . S
N79 C76 1.377 . S
N79 C78 1.344 . S
O80 Co72 2.055 . S
O80 C84 1.253 . S
H81 C77 0.931 . S
H82 C78 0.930 . S
O83 Co72 2.039 . S
O83 C73 1.265 . S
C84 O80 1.253 . S
C84 O85 1.227 . S
O85 C84 1.227 . S
N86 Co72 2.140 . S
N86 C89 1.346 . S
N86 C90 1.345 . S
C87 C88 1.387 . S
C87 C91 1.391 . S
C88 C87 1.387 . S
C88 C89 1.369 . S
C88 H97 0.929 . S
C89 N86 1.346 . S
C89 C88 1.369 . S
C89 H92 0.928 . S
C90 N86 1.345 . S
C90 C91 1.371 . S
C90 H93 0.931 . S
C91 C87 1.391 . S
C91 C90 1.371 . S
C91 H98 0.930 . S
H92 C89 0.928 . S
H93 C90 0.931 . S
H94 C70 0.930 . S
H95 C67 0.930 . S
H96 C76 0.930 . S
H97 C88 0.929 . S
H98 C91 0.930 . S
C99 C100 1.351 . S
C99 N102 1.368 . S
C99 H104 0.931 . S
C100 C99 1.351 . S
C100 N101 1.373 . S
C100 H128 0.930 . S
N101 C100 1.373 . S
N101 C103 1.340 . S
N102 C99 1.368 . S
N102 C103 1.321 . S
N102 Co105 2.135 . S
C103 N101 1.340 . S
C103 N102 1.321 . S
C103 H127 0.930 . S
H104 C99 0.931 . S
Co105 N102 2.135 . S
Co105 N108 2.121 . S
Co105 O113 2.055 . S
Co105 O116 2.039 . S
Co105 N119 2.140 . S
C106 O107 1.227 . S
C106 O116 1.265 . S
O107 C106 1.227 . S
N108 Co105 2.121 . S
N108 C110 1.375 . S
N108 C111 1.313 . S
C109 C110 1.338 . S
C109 N112 1.377 . S
C109 H129 0.930 . S
C110 N108 1.375 . S
C110 C109 1.338 . S
C110 H114 0.931 . S
C111 N108 1.313 . S
C111 N112 1.344 . S
C111 H115 0.930 . S
N112 C109 1.377 . S
N112 C111 1.344 . S
O113 Co105 2.055 . S
O113 C117 1.253 . S
H114 C110 0.931 . S
H115 C111 0.930 . S
O116 Co105 2.039 . S
O116 C106 1.265 . S
C117 O113 1.253 . S
C117 O118 1.227 . S
O118 C117 1.227 . S
N119 Co105 2.140 . S
N119 C122 1.346 . S
N119 C123 1.345 . S
C120 C121 1.387 . S
C120 C124 1.391 . S
C121 C120 1.387 . S
C121 C122 1.369 . S
C121 H130 0.929 . S
C122 N119 1.346 . S
C122 C121 1.369 . S
C122 H125 0.928 . S
C123 N119 1.345 . S
C123 C124 1.371 . S
C123 H126 0.931 . S
C124 C120 1.391 . S
C124 C123 1.371 . S
C124 H131 0.930 . S
H125 C122 0.928 . S
H126 C123 0.931 . S
H127 C103 0.930 . S
H128 C100 0.930 . S
H129 C109 0.930 . S
H130 C121 0.929 . S
H131 C124 0.930 . S
C132 C133 1.351 . S
C132 N135 1.368 . S
C132 H137 0.931 . S
C133 C132 1.351 . S
C133 N134 1.373 . S
C133 H161 0.930 . S
N134 C133 1.373 . S
N134 C136 1.340 . S
N135 C132 1.368 . S
N135 C136 1.321 . S
N135 Co138 2.135 . S
C136 N134 1.340 . S
C136 N135 1.321 . S
C136 H160 0.930 . S
H137 C132 0.931 . S
Co138 N135 2.135 . S
Co138 N141 2.121 . S
Co138 O146 2.055 . S
Co138 O149 2.039 . S
Co138 N152 2.140 . S
C139 O140 1.227 . S
C139 O149 1.265 . S
O140 C139 1.227 . S
N141 Co138 2.121 . S
N141 C143 1.375 . S
N141 C144 1.313 . S
C142 C143 1.338 . S
C142 N145 1.377 . S
C142 H162 0.930 . S
C143 N141 1.375 . S
C143 C142 1.338 . S
C143 H147 0.931 . S
C144 N141 1.313 . S
C144 N145 1.344 . S
C144 H148 0.930 . S
N145 C142 1.377 . S
N145 C144 1.344 . S
O146 Co138 2.055 . S
O146 C150 1.253 . S
H147 C143 0.931 . S
H148 C144 0.930 . S
O149 Co138 2.039 . S
O149 C139 1.265 . S
C150 O146 1.253 . S
C150 O151 1.227 . S
O151 C150 1.227 . S
N152 Co138 2.140 . S
N152 C155 1.346 . S
N152 C156 1.345 . S
C153 C154 1.387 . S
C153 C157 1.391 . S
C154 C153 1.387 . S
C154 C155 1.369 . S
C154 H163 0.929 . S
C155 N152 1.346 . S
C155 C154 1.369 . S
C155 H158 0.928 . S
C156 N152 1.345 . S
C156 C157 1.371 . S
C156 H159 0.931 . S
C157 C153 1.391 . S
C157 C156 1.371 . S
C157 H164 0.930 . S
H158 C155 0.928 . S
H159 C156 0.931 . S
H160 C136 0.930 . S
H161 C133 0.930 . S
H162 C142 0.930 . S
H163 C154 0.929 . S
H164 C157 0.930 . S
C165 C166 1.351 . S
C165 N168 1.368 . S
C165 H170 0.931 . S
C166 C165 1.351 . S
C166 N167 1.373 . S
C166 H194 0.933 1_554 S
N167 C166 1.373 . S
N167 C169 1.340 . S
N168 C165 1.368 . S
N168 C169 1.321 . S
N168 Co171 2.135 . S
C169 N167 1.340 . S
C169 N168 1.321 . S
C169 H193 0.930 . S
H170 C165 0.931 . S
Co171 N168 2.135 . S
Co171 N174 2.121 . S
Co171 O179 2.055 . S
Co171 O182 2.039 . S
Co171 N185 2.140 . S
C172 O173 1.227 . S
C172 O182 1.265 . S
O173 C172 1.227 . S
N174 Co171 2.121 . S
N174 C176 1.375 . S
N174 C177 1.313 . S
C175 C176 1.338 . S
C175 N178 1.377 . S
C175 H195 0.930 . S
C176 N174 1.375 . S
C176 C175 1.338 . S
C176 H180 0.931 . S
C177 N174 1.313 . S
C177 N178 1.344 . S
C177 H181 0.930 . S
N178 C175 1.377 . S
N178 C177 1.344 . S
O179 Co171 2.055 . S
O179 C183 1.253 . S
H180 C176 0.931 . S
H181 C177 0.930 . S
O182 Co171 2.039 . S
O182 C172 1.265 . S
C183 O179 1.253 . S
C183 O184 1.227 . S
O184 C183 1.227 . S
N185 Co171 2.140 . S
N185 C188 1.346 . S
N185 C189 1.345 . S
C186 C187 1.387 . S
C186 C190 1.391 . S
C187 C186 1.387 . S
C187 C188 1.369 . S
C187 H196 0.929 . S
C188 N185 1.346 . S
C188 C187 1.369 . S
C188 H191 0.928 . S
C189 N185 1.345 . S
C189 C190 1.371 . S
C189 H192 0.931 . S
C190 C186 1.391 . S
C190 C189 1.371 . S
C190 H197 0.930 . S
H191 C188 0.928 . S
H192 C189 0.931 . S
H193 C169 0.930 . S
H194 C166 0.933 1_556 S
H195 C175 0.930 . S
H196 C187 0.929 . S
H197 C190 0.930 . S
C198 C199 1.369 1_565 S
C198 C200 1.419 . S
C198 H202 0.930 . S
C199 C198 1.369 1_545 S
C199 C208 1.429 . S
C200 C198 1.419 . S
C200 C201 1.363 . S
C200 H203 0.929 . S
C201 C200 1.363 . S
C201 C207 1.428 1_565 S
H202 C198 0.930 . S
H203 C200 0.929 . S
S204 N205 1.613 . S
S204 N206 1.610 . S
N205 S204 1.613 . S
N205 C208 1.350 . S
N206 S204 1.610 . S
N206 C207 1.351 . S
C207 C201 1.428 1_545 S
C207 N206 1.351 . S
C207 C208 1.434 . S
C208 C199 1.429 . S
C208 N205 1.350 . S
C208 C207 1.434 . S
C209 C210 1.369 . S
C209 C211 1.419 . S
C209 H213 0.930 . S
C210 C209 1.369 . S
C210 C219 1.429 1_455 S
C211 C209 1.419 . S
C211 C212 1.363 1_455 S
C211 H214 0.929 . S
C212 C211 1.363 1_655 S
C212 C218 1.428 . S
H213 C209 0.930 . S
H214 C211 0.929 . S
S215 N216 1.613 . S
S215 N217 1.610 . S
N216 S215 1.613 . S
N216 C219 1.350 . S
N217 S215 1.610 . S
N217 C218 1.351 . S
C218 C212 1.428 . S
C218 N217 1.351 . S
C218 C219 1.434 . S
C219 C210 1.429 1_655 S
C219 N216 1.350 . S
C219 C218 1.434 . S
C220 C221 1.369 . S
C220 C222 1.419 . S
C220 H224 0.930 . S
C221 C220 1.369 . S
C221 C230 1.429 . S
C222 C220 1.419 . S
C222 C223 1.363 . S
C222 H225 0.929 . S
C223 C222 1.363 . S
C223 C229 1.428 . S
H224 C220 0.930 . S
H225 C222 0.929 . S
S226 N227 1.613 . S
S226 N228 1.610 . S
N227 S226 1.613 . S
N227 C230 1.350 . S
N228 S226 1.610 . S
N228 C229 1.351 . S
C229 C223 1.428 . S
C229 N228 1.351 . S
C229 C230 1.434 . S
C230 C221 1.429 . S
C230 N227 1.350 . S
C230 C229 1.434 . S
C231 C232 1.369 . S
C231 C233 1.419 . S
C231 H235 0.930 . S
C232 C231 1.369 . S
C232 C241 1.429 . S
C233 C231 1.419 . S
C233 C234 1.363 . S
C233 H236 0.929 . S
C234 C233 1.363 . S
C234 C240 1.428 . S
H235 C231 0.930 . S
H236 C233 0.929 . S
S237 N238 1.613 . S
S237 N239 1.610 . S
N238 S237 1.613 . S
N238 C241 1.350 . S
N239 S237 1.610 . S
N239 C240 1.351 . S
C240 C234 1.428 . S
C240 N239 1.351 . S
C240 C241 1.434 . S
C241 C232 1.429 . S
C241 N238 1.350 . S
C241 C240 1.434 . S
C242 C243 1.369 . S
C242 C244 1.419 . S
C242 H246 0.930 . S
C243 C242 1.369 . S
C243 C252 1.429 . S
C244 C242 1.419 . S
C244 C245 1.363 . S
C244 H247 0.929 . S
C245 C244 1.363 . S
C245 C251 1.428 . S
H246 C242 0.930 . S
H247 C244 0.929 . S
S248 N249 1.613 . S
S248 N250 1.610 1_565 S
N249 S248 1.613 . S
N249 C252 1.350 . S
N250 S248 1.610 1_545 S
N250 C251 1.351 1_545 S
C251 C245 1.428 . S
C251 N250 1.351 1_565 S
C251 C252 1.434 . S
C252 C243 1.429 . S
C252 N249 1.350 . S
C252 C251 1.434 . S
C253 C254 1.369 . S
C253 C255 1.419 . S
C253 H257 0.930 . S
C254 C253 1.369 . S
C254 C263 1.429 . S
C255 C253 1.419 . S
C255 C256 1.363 . S
C255 H258 0.929 . S
C256 C255 1.363 . S
C256 C262 1.428 . S
H257 C253 0.930 . S
H258 C255 0.929 . S
S259 N260 1.613 . S
S259 N261 1.610 . S
N260 S259 1.613 . S
N260 C263 1.350 . S
N261 S259 1.610 . S
N261 C262 1.351 . S
C262 C256 1.428 . S
C262 N261 1.351 . S
C262 C263 1.434 . S
C263 C254 1.429 . S
C263 N260 1.350 . S
C263 C262 1.434 . S
C264 C265 1.369 . S
C264 C266 1.419 . S
C264 H268 0.930 . S
C265 C264 1.369 . S
C265 C274 1.429 . S
C266 C264 1.419 . S
C266 C267 1.363 . S
C266 H269 0.929 . S
C267 C266 1.363 . S
C267 C273 1.428 . S
H268 C264 0.930 . S
H269 C266 0.929 . S
S270 N271 1.613 . S
S270 N272 1.610 . S
N271 S270 1.613 . S
N271 C274 1.350 . S
N272 S270 1.610 . S
N272 C273 1.351 . S
C273 C267 1.428 . S
C273 N272 1.351 . S
C273 C274 1.434 . S
C274 C265 1.429 . S
C274 N271 1.350 . S
C274 C273 1.434 . S
C275 C276 1.369 . S
C275 C277 1.419 . S
C275 H279 0.930 . S
C276 C275 1.369 . S
C276 C285 1.429 . S
C277 C275 1.419 . S
C277 C278 1.363 . S
C277 H280 0.929 . S
C278 C277 1.363 . S
C278 C284 1.428 . S
H279 C275 0.930 . S
H280 C277 0.929 . S
S281 N282 1.613 . S
S281 N283 1.610 . S
N282 S281 1.613 . S
N282 C285 1.350 . S
N283 S281 1.610 . S
N283 C284 1.351 . S
C284 C278 1.428 . S
C284 N283 1.351 . S
C284 C285 1.434 . S
C285 C276 1.429 . S
C285 N282 1.350 . S
C285 C284 1.434 . S
C286 C287 1.369 . S
C286 C288 1.419 . S
C286 H290 0.930 . S
C287 C286 1.369 . S
C287 C296 1.429 . S
C288 C286 1.419 . S
C288 C289 1.363 . S
C288 H291 0.929 . S
C289 C288 1.363 . S
C289 C295 1.428 . S
H290 C286 0.930 . S
H291 C288 0.929 . S
S292 N293 1.613 . S
S292 N294 1.610 . S
N293 S292 1.613 . S
N293 C296 1.350 . S
N294 S292 1.610 . S
N294 C295 1.351 . S
C295 C289 1.428 . S
C295 N294 1.351 . S
C295 C296 1.434 . S
C296 C287 1.429 . S
C296 N293 1.350 . S
C296 C295 1.434 . S
C297 C298 1.369 . S
C297 C299 1.419 1_565 S
C297 H301 0.930 . S
C298 C297 1.369 . S
C298 C307 1.429 1_565 S
C299 C297 1.419 1_545 S
C299 C300 1.363 . S
C299 H302 0.929 . S
C300 C299 1.363 . S
C300 C306 1.428 . S
H301 C297 0.930 . S
H302 C299 0.929 . S
S303 N304 1.613 . S
S303 N305 1.610 . S
N304 S303 1.613 . S
N304 C307 1.350 . S
N305 S303 1.610 . S
N305 C306 1.351 . S
C306 C300 1.428 . S
C306 N305 1.351 . S
C306 C307 1.434 . S
C307 C298 1.429 1_545 S
C307 N304 1.350 . S
C307 C306 1.434 . S
C308 C309 1.369 1_554 S
C308 C310 1.419 . S
C308 H312 0.930 . S
C309 C308 1.369 1_556 S
C309 C318 1.429 . S
C310 C308 1.419 . S
C310 C311 1.363 1_655 S
C310 H313 0.929 . S
C311 C310 1.363 1_455 S
C311 C317 1.448 . S
H312 C308 0.930 . S
H313 C310 0.929 . S
S314 N315 1.613 . S
S314 N316 1.610 . S
N315 S314 1.613 . S
N315 C318 1.350 1_455 S
N316 S314 1.610 . S
N316 C317 1.346 1_556 S
C317 C311 1.448 . S
C317 N316 1.346 1_554 S
C317 C318 1.418 1_454 S
C318 C309 1.429 . S
C318 N315 1.350 1_655 S
C318 C317 1.418 1_656 S
C319 C320 1.369 . S
C319 C321 1.419 . S
C319 H323 0.930 . S
C320 C319 1.369 . S
C320 C329 1.429 . S
C321 C319 1.419 . S
C321 C322 1.363 . S
C321 H324 0.929 . S
C322 C321 1.363 . S
C322 C328 1.428 . S
H323 C319 0.930 . S
H324 C321 0.929 . S
S325 N326 1.613 . S
S325 N327 1.610 . S
N326 S325 1.613 . S
N326 C329 1.350 . S
N327 S325 1.610 . S
N327 C328 1.351 . S
C328 C322 1.428 . S
C328 N327 1.351 . S
C328 C329 1.434 . S
C329 C320 1.429 . S
C329 N326 1.350 . S
C329 C328 1.434 . S
C330 C331 1.369 . S
C330 C332 1.419 1_455 S
C330 H334 0.930 1_455 S
C331 C330 1.369 . S
C331 C340 1.429 . S
C332 C330 1.419 1_655 S
C332 C333 1.363 . S
C332 H335 0.929 . S
C333 C332 1.363 . S
C333 C339 1.428 1_655 S
H334 C330 0.930 1_655 S
H335 C332 0.929 . S
S336 N337 1.613 . S
S336 N338 1.610 . S
N337 S336 1.613 . S
N337 C340 1.350 . S
N338 S336 1.610 . S
N338 C339 1.351 . S
C339 C333 1.428 1_455 S
C339 N338 1.351 . S
C339 C340 1.434 . S
C340 C331 1.429 . S
C340 N337 1.350 . S
C340 C339 1.434 . S
C341 C342 1.369 . S
C341 C343 1.419 . S
C341 H345 0.930 . S
C342 C341 1.369 . S
C342 C351 1.429 . S
C343 C341 1.419 . S
C343 C344 1.363 . S
C343 H346 0.929 . S
C344 C343 1.363 . S
C344 C350 1.428 . S
H345 C341 0.930 . S
H346 C343 0.929 . S
S347 N348 1.613 . S
S347 N349 1.610 . S
N348 S347 1.613 . S
N348 C351 1.350 . S
N349 S347 1.610 . S
N349 C350 1.351 . S
C350 C344 1.428 . S
C350 N349 1.351 . S
C350 C351 1.434 . S
C351 C342 1.429 . S
C351 N348 1.350 . S
C351 C350 1.434 . S
C352 C353 1.369 . S
C352 C354 1.419 1_545 S
C352 H356 0.930 . S
C353 C352 1.369 . S
C353 C362 1.429 1_545 S
C354 C352 1.419 1_565 S
C354 C355 1.363 1_556 S
C354 H357 0.929 . S
C355 C354 1.363 1_554 S
C355 C361 1.428 . S
H356 C352 0.930 . S
H357 C354 0.929 . S
S358 N359 1.613 1_554 S
S358 N360 1.610 . S
N359 S358 1.613 1_556 S
N359 C362 1.350 . S
N360 S358 1.610 . S
N360 C361 1.351 . S
C361 C355 1.428 . S
C361 N360 1.351 . S
C361 C362 1.434 1_554 S
C362 C353 1.429 1_565 S
C362 N359 1.350 . S
C362 C361 1.434 1_556 S
C199 C7 1.618 . S
C201 C172 1.619 . S
C210 C106 1.616 . S
C212 C40 1.614 . S
C221 C139 1.620 . S
C223 C73 1.619 . S
C232 C186 1.195 . S
C234 N13 1.198 . S
C243 C120 1.198 . S
C245 N46 1.197 1_565 S
C254 N79 1.196 1_455 S
C256 C153 1.198 . S
C265 C54 1.195 . S
C267 N112 1.198 . S
C276 C87 1.199 . S
C278 N145 1.201 1_545 S
C287 N178 1.198 1_655 S
C289 C21 1.196 . S
C298 C150 1.637 . S
C300 N2 1.597 . S
C309 N35 1.600 . S
C311 C183 1.638 . S
C320 C117 1.642 . S
C322 N68 1.603 . S
C331 N101 1.599 . S
C333 C84 1.639 . S
C342 C18 1.641 . S
C344 N134 1.604 . S
C353 C51 1.641 . S
C355 N167 1.602 . S
