# Generated by pormake.
# Topology sod, (4)-cn, num edge types: 1
# Building blocks:
#     Node 0, Type 0, BuildingBlock: GALJAG_clean_sbu_0, # of connection points: 4
#     Node 1, Type 0, BuildingBlock: GALJAG_clean_sbu_0, # of connection points: 4
#     Node 2, Type 0, BuildingBlock: GALJAG_clean_sbu_0, # of connection points: 4
#     Node 3, Type 0, BuildingBlock: GALJAG_clean_sbu_0, # of connection points: 4
#     Node 4, Type 0, BuildingBlock: GALJAG_clean_sbu_0, # of connection points: 4
#     Node 5, Type 0, BuildingBlock: GALJAG_clean_sbu_0, # of connection points: 4
#     Node 6, Type 0, BuildingBlock: GALJAG_clean_sbu_0, # of connection points: 4
#     Node 7, Type 0, BuildingBlock: GALJAG_clean_sbu_0, # of connection points: 4
#     Node 8, Type 0, BuildingBlock: GALJAG_clean_sbu_0, # of connection points: 4
#     Node 9, Type 0, BuildingBlock: GALJAG_clean_sbu_0, # of connection points: 4
#     Node 10, Type 0, BuildingBlock: GALJAG_clean_sbu_0, # of connection points: 4
#     Node 11, Type 0, BuildingBlock: GALJAG_clean_sbu_0, # of connection points: 4
#     Edge 12, Type (0, 0), BuildingBlock: TEMPAE_clean_linker_10, # of connection points: 2
#     Edge 13, Type (0, 0), BuildingBlock: TEMPAE_clean_linker_10, # of connection points: 2
#     Edge 14, Type (0, 0), BuildingBlock: TEMPAE_clean_linker_10, # of connection points: 2
#     Edge 15, Type (0, 0), BuildingBlock: TEMPAE_clean_linker_10, # of connection points: 2
#     Edge 16, Type (0, 0), BuildingBlock: TEMPAE_clean_linker_10, # of connection points: 2
#     Edge 17, Type (0, 0), BuildingBlock: TEMPAE_clean_linker_10, # of connection points: 2
#     Edge 18, Type (0, 0), BuildingBlock: TEMPAE_clean_linker_10, # of connection points: 2
#     Edge 19, Type (0, 0), BuildingBlock: TEMPAE_clean_linker_10, # of connection points: 2
#     Edge 20, Type (0, 0), BuildingBlock: TEMPAE_clean_linker_10, # of connection points: 2
#     Edge 21, Type (0, 0), BuildingBlock: TEMPAE_clean_linker_10, # of connection points: 2
#     Edge 22, Type (0, 0), BuildingBlock: TEMPAE_clean_linker_10, # of connection points: 2
#     Edge 23, Type (0, 0), BuildingBlock: TEMPAE_clean_linker_10, # of connection points: 2
#     Edge 24, Type (0, 0), BuildingBlock: TEMPAE_clean_linker_10, # of connection points: 2
#     Edge 25, Type (0, 0), BuildingBlock: TEMPAE_clean_linker_10, # of connection points: 2
#     Edge 26, Type (0, 0), BuildingBlock: TEMPAE_clean_linker_10, # of connection points: 2
#     Edge 27, Type (0, 0), BuildingBlock: TEMPAE_clean_linker_10, # of connection points: 2
#     Edge 28, Type (0, 0), BuildingBlock: TEMPAE_clean_linker_10, # of connection points: 2
#     Edge 29, Type (0, 0), BuildingBlock: TEMPAE_clean_linker_10, # of connection points: 2
#     Edge 30, Type (0, 0), BuildingBlock: TEMPAE_clean_linker_10, # of connection points: 2
#     Edge 31, Type (0, 0), BuildingBlock: TEMPAE_clean_linker_10, # of connection points: 2
#     Edge 32, Type (0, 0), BuildingBlock: TEMPAE_clean_linker_10, # of connection points: 2
#     Edge 33, Type (0, 0), BuildingBlock: TEMPAE_clean_linker_10, # of connection points: 2
#     Edge 34, Type (0, 0), BuildingBlock: TEMPAE_clean_linker_10, # of connection points: 2
#     Edge 35, Type (0, 0), BuildingBlock: TEMPAE_clean_linker_10, # of connection points: 2
# Relax obj value: 0.078
# Max RMSD: 0.153
# Mean RMSD: 0.153
data_MOF--net-sod--node1-GALJAG_clean_sbu_0--edge1-TEMPAE_clean_linker_10
_symmetry_space_group_name_H-M    P1
_symmetry_Int_Tables_number       1
_symmetry_cell_setting            triclinic
loop_
_symmetry_equiv_pos_as_xyz
'x, y, z'
_cell_length_a     43.584482
_cell_length_b     43.526838
_cell_length_c     43.555749
_cell_angle_alpha  89.980592
_cell_angle_beta   89.98844
_cell_angle_gamma 89.994618
loop_
_atom_site_label
_atom_site_type_symbol
_atom_site_fract_x
_atom_site_fract_y
_atom_site_fract_z
_atom_type_partial_charge
In0 In 0.00128 0.24777 0.49706 0.0
O1 O 0.9695 0.21423 0.52178 0.0
O2 O 0.96116 0.22249 0.47452 0.0
C3 C 0.00252 0.28846 0.54381 0.0
C4 C 0.04921 0.20829 0.49802 0.0
C5 C 0.00058 0.28709 0.44899 0.0
O6 O 0.97936 0.27213 0.53784 0.0
O7 O 0.02517 0.28414 0.52627 0.0
O8 O 0.02254 0.26892 0.45403 0.0
O9 O 0.97885 0.28525 0.46801 0.0
C10 C 0.95327 0.20838 0.49856 0.0
O11 O 0.0318 0.21125 0.47511 0.0
O12 O 0.0425 0.22526 0.5205 0.0
In13 In 0.7519 0.99489 0.50576 0.0
O14 O 0.73002 0.97284 0.54799 0.0
O15 O 0.72368 0.02075 0.54167 0.0
C16 C 0.78607 0.94333 0.50646 0.0
C17 C 0.71296 0.9933 0.4573 0.0
C18 C 0.79214 0.04247 0.50371 0.0
O19 O 0.78457 0.96153 0.52899 0.0
O20 O 0.76987 0.95091 0.4836 0.0
O21 O 0.76356 0.04645 0.50555 0.0
O22 O 0.80025 0.01475 0.50296 0.0
C23 C 0.71811 0.99734 0.5578 0.0
O24 O 0.74038 0.00218 0.45485 0.0
O25 O 0.70543 0.98489 0.48392 0.0
In26 In 0.00488 0.7499 0.49286 0.0
O27 O 0.00612 0.70289 0.51533 0.0
O28 O 0.00218 0.74156 0.54479 0.0
C29 C 0.05585 0.78515 0.49236 0.0
C30 C 0.00511 0.71499 0.44155 0.0
C31 C 0.95514 0.78694 0.49594 0.0
O32 O 0.05047 0.76597 0.5134 0.0
O33 O 0.03584 0.78617 0.47151 0.0
O34 O 0.98148 0.79639 0.48873 0.0
O35 O 0.95369 0.75858 0.50174 0.0
C36 C 0.00397 0.7127 0.54247 0.0
O37 O 0.98204 0.73044 0.44972 0.0
O38 O 0.0281 0.71767 0.45887 0.0
In39 In 0.2539 0.9985 0.50844 0.0
O40 O 0.23494 0.95577 0.48443 0.0
O41 O 0.22089 0.96444 0.53032 0.0
C42 C 0.29278 0.99701 0.46012 0.0
C43 C 0.21327 0.0454 0.50647 0.0
C44 C 0.28916 0.00351 0.55931 0.0
O45 O 0.29954 0.98649 0.48621 0.0
O46 O 0.26615 0.00826 0.45818 0.0
O47 O 0.27672 0.02644 0.54676 0.0
O48 O 0.28339 0.97821 0.54655 0.0
C49 C 0.21892 0.94735 0.50705 0.0
O50 O 0.20652 0.01892 0.51598 0.0
O51 O 0.24079 0.04848 0.49792 0.0
In52 In 0.50219 0.00161 0.25501 0.0
O53 O 0.53791 0.97609 0.28369 0.0
O54 O 0.54221 0.02448 0.28016 0.0
C55 C 0.49935 0.95461 0.21463 0.0
C56 C 0.45408 0.00134 0.29462 0.0
C57 C 0.50478 0.0502 0.2166 0.0
O58 O 0.51601 0.95387 0.2383 0.0
O59 O 0.48392 0.97893 0.21145 0.0
O60 O 0.48267 0.04573 0.23476 0.0
O61 O 0.52579 0.03026 0.21796 0.0
C62 C 0.55264 -0.00017 0.29121 0.0
O63 O 0.47478 0.02146 0.29506 0.0
O64 O 0.45745 0.98126 0.27409 0.0
In65 In 0.00014 0.49818 0.24587 0.0
O66 O 0.9723 0.47654 0.20716 0.0
O67 O 0.95263 0.51438 0.23068 0.0
C68 C 0.00401 0.44993 0.28466 0.0
C69 C 0.04909 0.50103 0.20778 0.0
C70 C 0.99742 0.548 0.28266 0.0
O71 O 0.98531 0.45068 0.26256 0.0
O72 O 0.02107 0.47324 0.28683 0.0
O73 O 0.01492 0.5466 0.25964 0.0
O74 O 0.98114 0.52443 0.28693 0.0
C75 C 0.94993 0.49473 0.2096 0.0
O76 O 0.02678 0.51936 0.20616 0.0
O77 O 0.04695 0.4813 0.22889 0.0
In78 In 0.50389 0.00419 0.75573 0.0
O79 O 0.55413 0.01316 0.74364 0.0
O80 O 0.52829 0.98428 0.71402 0.0
C81 C 0.49956 0.05357 0.79317 0.0
C82 C 0.45451 0.01306 0.71931 0.0
C83 C 0.50762 0.95239 0.78977 0.0
O84 O 0.51528 0.05386 0.76887 0.0
O85 O 0.48584 0.02862 0.79828 0.0
O86 O 0.48891 0.95535 0.76789 0.0
O87 O 0.52488 0.97525 0.79398 0.0
C88 C 0.55363 0.99718 0.71947 0.0
O89 O 0.453 0.99867 0.74439 0.0
O90 O 0.48075 0.0234 0.7129 0.0
In91 In 0.99815 0.50301 0.74436 0.0
O92 O 0.04876 0.49808 0.75695 0.0
O93 O 0.01934 0.52012 0.78904 0.0
C94 C 0.99842 0.45539 0.70405 0.0
C95 C 0.94872 0.49505 0.78105 0.0
C96 C 0.9994 0.55504 0.71067 0.0
O97 O 0.00899 0.45312 0.73085 0.0
O98 O 0.98756 0.4814 0.69776 0.0
O99 O 0.97479 0.54193 0.71845 0.0
O100 O 0.02351 0.54212 0.72024 0.0
C101 C 0.04606 0.51081 0.78284 0.0
O102 O 0.95159 0.5177 0.76326 0.0
O103 O 0.97059 0.47611 0.78011 0.0
In104 In 0.24871 0.50263 0.99344 0.0
O105 O 0.20585 0.48541 0.01809 0.0
O106 O 0.2344 0.51645 0.04222 0.0
C107 C 0.28702 0.45412 0.99899 0.0
C108 C 0.2113 0.50589 0.94399 0.0
C109 C 0.28719 0.55082 0.98742 0.0
O110 O 0.28167 0.47238 0.02082 0.0
O111 O 0.27291 0.4602 0.97445 0.0
O112 O 0.29311 0.52457 0.97663 0.0
O113 O 0.26155 0.55293 0.00076 0.0
C114 C 0.21035 0.50038 0.04238 0.0
O115 O 0.22334 0.52936 0.95593 0.0
O116 O 0.21848 0.48088 0.9567 0.0
In117 In 0.5011 0.25403 0.00591 0.0
O118 O 0.51788 0.23739 0.05287 0.0
O119 O 0.48201 0.21246 0.0314 0.0
C120 C 0.55112 0.29056 0.00708 0.0
C121 C 0.50264 0.21693 0.95629 0.0
C122 C 0.45306 0.29344 0.00463 0.0
O123 O 0.53125 0.2906 0.02817 0.0
O124 O 0.546 0.27172 0.98568 0.0
O125 O 0.47622 0.29624 0.98756 0.0
O126 O 0.45387 0.27051 0.02231 0.0
C127 C 0.49974 0.21486 0.05413 0.0
O128 O 0.48183 0.23669 0.96032 0.0
O129 O 0.52276 0.21618 0.97709 0.0
In130 In 0.75071 0.50413 0.99588 0.0
O131 O 0.70502 0.48157 0.98461 0.0
O132 O 0.73918 0.4539 0.00584 0.0
C133 C 0.78814 0.50057 0.94641 0.0
C134 C 0.714 0.55421 0.9984 0.0
C135 C 0.78853 0.50393 0.04504 0.0
O136 O 0.77093 0.47871 0.95439 0.0
O137 O 0.7861 0.52416 0.96302 0.0
O138 O 0.79457 0.51808 0.02053 0.0
O139 O 0.76313 0.49004 0.04499 0.0
C140 C 0.71226 0.4556 0.99524 0.0
O141 O 0.72523 0.54189 0.02206 0.0
O142 O 0.72158 0.5415 0.97353 0.0
In143 In 0.49845 0.75244 0.00241 0.0
O144 O 0.46319 0.71996 0.02313 0.0
O145 O 0.45985 0.72942 0.97534 0.0
C146 C 0.49995 0.79023 0.05184 0.0
C147 C 0.54702 0.71364 0.00551 0.0
C148 C 0.49618 0.7891 0.95242 0.0
O149 O 0.47603 0.77627 0.04355 0.0
O150 O 0.52319 0.78478 0.03553 0.0
O151 O 0.5115 0.7645 0.95305 0.0
O152 O 0.48155 0.79481 0.97676 0.0
C153 C 0.44921 0.71512 0.99821 0.0
O154 O 0.54969 0.74133 0.99751 0.0
O155 O 0.52006 0.7057 0.01217 0.0
C156 C 0.02363 0.30808 0.40081 0.0
C157 C 0.00073 0.30937 0.42339 0.0
C158 C 0.0246 0.32974 0.37694 0.0
C159 C 0.00236 0.35341 0.37588 0.0
C160 C 0.97902 0.35464 0.39848 0.0
C161 C 0.97839 0.33248 0.42187 0.0
C162 C 0.04962 0.32749 0.35305 0.0
C163 C 0.95507 0.37972 0.39828 0.0
C164 C 0.02171 0.4276 0.33435 0.0
C165 C 0.00486 0.4245 0.30713 0.0
C166 C 0.02133 0.40448 0.3568 0.0
C167 C 0.00395 0.37748 0.3517 0.0
C168 C 0.98749 0.3739 0.32391 0.0
C169 C 0.98798 0.39758 0.30201 0.0
C170 C 0.03895 0.40926 0.38626 0.0
C171 C 0.96903 0.34526 0.31751 0.0
H172 H 0.04088 0.29017 0.40184 0.0
H173 H 0.9607 0.33361 0.43933 0.0
H174 H 0.03939 0.32653 0.32974 0.0
H175 H 0.06432 0.34827 0.35398 0.0
H176 H 0.06434 0.30692 0.35637 0.0
H177 H 0.9382 0.37713 0.41723 0.0
H178 H 0.96634 0.40247 0.40049 0.0
H179 H 0.94252 0.37963 0.37613 0.0
H180 H 0.03472 0.44843 0.33845 0.0
H181 H 0.97499 0.39507 0.28094 0.0
H182 H 0.05549 0.39021 0.38975 0.0
H183 H 0.02291 0.40904 0.40605 0.0
H184 H 0.05176 0.43133 0.38643 0.0
H185 H 0.9838 0.32462 0.31974 0.0
H186 H 0.9587 0.34543 0.29419 0.0
H187 H 0.95034 0.34304 0.33466 0.0
C188 C 0.70122 0.99808 0.40124 0.0
C189 C 0.69104 0.99349 0.43143 0.0
C190 C 0.68036 0.99877 0.37666 0.0
C191 C 0.64859 0.99528 0.38256 0.0
C192 C 0.63824 0.99065 0.41303 0.0
C193 C 0.65962 0.98958 0.43705 0.0
C194 C 0.69226 0.00327 0.34442 0.0
C195 C 0.60453 0.98721 0.42032 0.0
C196 C 0.58965 0.02607 0.32622 0.0
C197 C 0.57892 0.99896 0.31261 0.0
C198 C 0.61287 0.0253 0.34854 0.0
C199 C 0.62595 0.99676 0.35705 0.0
C200 C 0.61603 0.96944 0.34247 0.0
C201 C 0.59243 0.97084 0.32059 0.0
C202 C 0.62257 0.05488 0.36382 0.0
C203 C 0.62977 0.93864 0.35058 0.0
H204 H 0.72552 0.001 0.39681 0.0
H205 H 0.65163 0.98616 0.46038 0.0
H206 H 0.68472 0.98395 0.3296 0.0
H207 H 0.68257 0.02464 0.33448 0.0
H208 H 0.71769 0.00474 0.34361 0.0
H209 H 0.60026 0.98402 0.44526 0.0
H210 H 0.59184 0.00788 0.41247 0.0
H211 H 0.59492 0.9672 0.40783 0.0
H212 H 0.57921 0.04785 0.32016 0.0
H213 H 0.58432 0.94984 0.30996 0.0
H214 H 0.64778 0.05787 0.36203 0.0
H215 H 0.61681 0.05397 0.38863 0.0
H216 H 0.61119 0.07529 0.35358 0.0
H217 H 0.65515 0.93963 0.34893 0.0
H218 H 0.6213 0.91997 0.3354 0.0
H219 H 0.62397 0.93272 0.37467 0.0
C220 C 0.98268 0.57203 0.33244 0.0
C221 C 0.99689 0.57457 0.3037 0.0
C222 C 0.98356 0.59636 0.35351 0.0
C223 C 0.99861 0.62402 0.34541 0.0
C224 C 0.01218 0.62706 0.31604 0.0
C225 C 0.01139 0.60215 0.29559 0.0
C226 C 0.96916 0.5921 0.38478 0.0
C227 C 0.02799 0.65639 0.30644 0.0
C228 C 0.97966 0.69328 0.39492 0.0
C229 C 0.00456 0.69359 0.41527 0.0
C230 C 0.97791 0.67141 0.37129 0.0
C231 C 0.00139 0.64912 0.36835 0.0
C232 C 0.02692 0.64981 0.38843 0.0
C233 C 0.0283 0.67219 0.41152 0.0
C234 C 0.95059 0.67166 0.34999 0.0
C235 C 0.05226 0.62623 0.38624 0.0
H236 H 0.97152 0.5507 0.33881 0.0
H237 H 0.02225 0.60422 0.27329 0.0
H238 H 0.98704 0.59405 0.40281 0.0
H239 H 0.95203 0.61044 0.3891 0.0
H240 H 0.95767 0.56945 0.38717 0.0
H241 H 0.03553 0.65578 0.28208 0.0
H242 H 0.01238 0.67626 0.30968 0.0
H243 H 0.04839 0.66036 0.32114 0.0
H244 H 0.96133 0.70988 0.39769 0.0
H245 H 0.04756 0.6723 0.42726 0.0
H246 H 0.93679 0.65054 0.3535 0.0
H247 H 0.95835 0.67168 0.32572 0.0
H248 H 0.93558 0.69193 0.3538 0.0
H249 H 0.04278 0.60297 0.39063 0.0
H250 H 0.07103 0.6306 0.40293 0.0
H251 H 0.06212 0.62607 0.36276 0.0
C252 C 0.30737 0.01071 0.40621 0.0
C253 C 0.31469 0.9966 0.43421 0.0
C254 C 0.32863 0.01139 0.38197 0.0
C255 C 0.35778 0.99755 0.38587 0.0
C256 C 0.36503 0.98279 0.4139 0.0
C257 C 0.34342 0.98254 0.43774 0.0
C258 C 0.32014 0.0274 0.35241 0.0
C259 C 0.39582 0.96767 0.41891 0.0
C260 C 0.40706 0.97699 0.31687 0.0
C261 C 0.42846 0.00104 0.31686 0.0
C262 C 0.38346 0.97587 0.33881 0.0
C263 C 0.38124 0.9994 0.36114 0.0
C264 C 0.4024 0.02407 0.36078 0.0
C265 C 0.42578 0.02456 0.33866 0.0
C266 C 0.36135 0.94918 0.33853 0.0
C267 C 0.40074 0.04964 0.38417 0.0
H268 H 0.28518 0.0216 0.40339 0.0
H269 H 0.34916 0.97152 0.45931 0.0
H270 H 0.33579 0.04712 0.34848 0.0
H271 H 0.32294 0.01149 0.33273 0.0
H272 H 0.29614 0.03602 0.35263 0.0
H273 H 0.39743 0.9562 0.44164 0.0
H274 H 0.40014 0.95034 0.40074 0.0
H275 H 0.41432 0.98511 0.4173 0.0
H276 H 0.40902 0.95878 0.30002 0.0
H277 H 0.44221 0.04326 0.33869 0.0
H278 H 0.33737 0.95769 0.33758 0.0
H279 H 0.36376 0.93577 0.36006 0.0
H280 H 0.36528 0.93355 0.31876 0.0
H281 H 0.37758 0.06021 0.38398 0.0
H282 H 0.41804 0.06787 0.37986 0.0
H283 H 0.40456 0.04018 0.40752 0.0
C284 C 0.97266 0.59266 0.67672 0.0
C285 C -7e-05 0.58201 0.69006 0.0
C286 C 0.97307 0.61613 0.65466 0.0
C287 C 0.00142 0.62935 0.64589 0.0
C288 C 0.02887 0.6197 0.66036 0.0
C289 C 0.02781 0.59603 0.68223 0.0
C290 C 0.94332 0.62574 0.63969 0.0
C291 C 0.0595 0.63343 0.65179 0.0
C292 C 0.00679 0.66005 0.56465 0.0
C293 C 0.00366 0.69177 0.56918 0.0
C294 C 0.00634 0.6396 0.58948 0.0
C295 C 0.00263 0.65114 0.61963 0.0
C296 C 0.99962 0.68317 0.62443 0.0
C297 C 0.00019 0.70317 0.59909 0.0
C298 C 0.00964 0.60558 0.5834 0.0
C299 C 0.99562 0.69625 0.65628 0.0
H300 H 0.95103 0.58195 0.68276 0.0
H301 H 0.04893 0.58799 0.69263 0.0
H302 H 0.94077 0.65108 0.64045 0.0
H303 H 0.94352 0.61888 0.61516 0.0
H304 H 0.92303 0.61512 0.65089 0.0
H305 H 0.07821 0.62561 0.66726 0.0
H306 H 0.06544 0.6268 0.62792 0.0
H307 H 0.05835 0.65888 0.65253 0.0
H308 H 0.00954 0.65111 0.54159 0.0
H309 H 0.99778 0.72769 0.60269 0.0
H310 H 0.98902 0.59322 0.59181 0.0
H311 H 0.02968 0.59635 0.59611 0.0
H312 H 0.01267 0.6004 0.55861 0.0
H313 H 0.97441 0.68695 0.66685 0.0
H314 H 0.9942 0.72174 0.65617 0.0
H315 H 0.0151 0.68921 0.67109 0.0
C316 C 0.39867 0.00735 0.70759 0.0
C317 C 0.42825 0.01564 0.69806 0.0
C318 C 0.37403 0.00733 0.68683 0.0
C319 C 0.37931 0.01528 0.65575 0.0
C320 C 0.40898 0.02449 0.64624 0.0
C321 C 0.43305 0.02479 0.66759 0.0
C322 C 0.34259 0.99791 0.69792 0.0
C323 C 0.41562 0.03277 0.61321 0.0
C324 C 0.3284 0.98086 0.59418 0.0
C325 C 0.31046 0.00614 0.58554 0.0
C326 C 0.35051 0.98343 0.61739 0.0
C327 C 0.35445 0.01187 0.63265 0.0
C328 C 0.33567 0.03722 0.62476 0.0
C329 C 0.31401 0.03412 0.60109 0.0
C330 C 0.37032 0.95595 0.62491 0.0
C331 C 0.33891 0.06775 0.64088 0.0
H332 H 0.39485 0.00044 0.7312 0.0
H333 H 0.45591 0.03116 0.66011 0.0
H334 H 0.32522 0.01516 0.69085 0.0
H335 H 0.33603 0.97572 0.68725 0.0
H336 H 0.34169 0.99526 0.72327 0.0
H337 H 0.43957 0.04084 0.60987 0.0
H338 H 0.41177 0.01241 0.59837 0.0
H339 H 0.39972 0.05103 0.60532 0.0
H340 H 0.32578 0.95921 0.58217 0.0
H341 H 0.30007 0.05368 0.59454 0.0
H342 H 0.36857 0.95038 0.6497 0.0
H343 H 0.39472 0.96139 0.62006 0.0
H344 H 0.36379 0.93528 0.61146 0.0
H345 H 0.33739 0.06455 0.66611 0.0
H346 H 0.32106 0.08446 0.63363 0.0
H347 H 0.3618 0.07772 0.63589 0.0
C348 C 0.02841 0.33029 0.57335 0.0
C349 C 0.00277 0.31138 0.56884 0.0
C350 C 0.02843 0.35302 0.59621 0.0
C351 C 0.0022 0.35682 0.61502 0.0
C352 C 0.97649 0.33738 0.61096 0.0
C353 C 0.97707 0.31491 0.58787 0.0
C354 C 0.05626 0.37336 0.59982 0.0
C355 C 0.94814 0.34068 0.63063 0.0
C356 C 0.01041 0.40098 0.68988 0.0
C357 C 0.99914 0.42998 0.68156 0.0
C358 C 0.01149 0.37686 0.66848 0.0
C359 C 0.00116 0.38198 0.63808 0.0
C360 C 0.98975 0.41123 0.62961 0.0
C361 C 0.98882 0.43485 0.65147 0.0
C362 C 0.02369 0.34593 0.67836 0.0
C363 C 0.97862 0.41762 0.59739 0.0
H364 H 0.04836 0.32764 0.55871 0.0
H365 H 0.95721 0.30029 0.58453 0.0
H366 H 0.04992 0.39758 0.59502 0.0
H367 H 0.06475 0.37239 0.6238 0.0
H368 H 0.07523 0.36667 0.58415 0.0
H369 H 0.93063 0.32288 0.62544 0.0
H370 H 0.95434 0.33907 0.65528 0.0
H371 H 0.93774 0.36365 0.62694 0.0
H372 H 0.01841 0.39711 0.71313 0.0
H373 H 0.98015 0.45725 0.64491 0.0
H374 H 0.04379 0.33959 0.66409 0.0
H375 H 0.00594 0.32802 0.67475 0.0
H376 H 0.03066 0.34566 0.70289 0.0
H377 H 0.99738 0.41332 0.58071 0.0
H378 H 0.97051 0.44164 0.59449 0.0
H379 H 0.95953 0.40182 0.59151 0.0
C380 C 0.60871 0.00697 0.70656 0.0
C381 C 0.57992 0.99534 0.69814 0.0
C382 C 0.6333 0.00696 0.68571 0.0
C383 C 0.62877 0.99549 0.65563 0.0
C384 C 0.59985 0.98331 0.6472 0.0
C385 C 0.57585 0.98318 0.66863 0.0
C386 C 0.66395 0.01967 0.69566 0.0
C387 C 0.59401 0.97115 0.61524 0.0
C388 C 0.67868 0.02362 0.58998 0.0
C389 C 0.69743 0.99801 0.58466 0.0
C390 C 0.65673 0.0234 0.61355 0.0
C391 C 0.65382 0.99711 0.63251 0.0
C392 C 0.67361 0.97171 0.62806 0.0
C393 C 0.69504 0.97237 0.604 0.0
C394 C 0.63582 0.0508 0.61736 0.0
C395 C 0.67155 0.94349 0.64812 0.0
H396 H 0.61197 0.0163 0.72941 0.0
H397 H 0.5536 0.97426 0.66198 0.0
H398 H 0.68231 0.00254 0.69139 0.0
H399 H 0.66957 0.04039 0.68193 0.0
H400 H 0.66422 0.02599 0.72037 0.0
H401 H 0.57036 0.96202 0.61251 0.0
H402 H 0.59755 0.98976 0.59818 0.0
H403 H 0.61055 0.95258 0.60977 0.0
H404 H 0.6804 0.04346 0.57503 0.0
H405 H 0.70963 0.95259 0.60005 0.0
H406 H 0.63669 0.0593 0.64135 0.0
H407 H 0.61176 0.0439 0.61265 0.0
H408 H 0.64198 0.06998 0.60169 0.0
H409 H 0.67242 0.95008 0.67271 0.0
H410 H 0.69032 0.92689 0.64341 0.0
H411 H 0.64928 0.9318 0.64421 0.0
C412 C 0.4304 0.34332 0.98802 0.0
C413 C 0.42745 0.31567 0.00424 0.0
C414 C 0.40668 0.36508 0.98786 0.0
C415 C 0.37918 0.35885 0.00399 0.0
C416 C 0.3759 0.3308 0.02014 0.0
C417 C 0.40021 0.30959 0.02025 0.0
C418 C 0.41119 0.39488 0.97065 0.0
C419 C 0.34675 0.32322 0.03726 0.0
C420 C 0.3303 0.42772 0.02567 0.0
C421 C 0.30917 0.42857 0.00144 0.0
C422 C 0.3529 0.4048 0.02711 0.0
C423 C 0.35401 0.38192 0.00402 0.0
C424 C 0.33204 0.38208 0.98008 0.0
C425 C 0.31004 0.40559 0.97892 0.0
C426 C 0.37621 0.40566 0.05275 0.0
C427 C 0.33218 0.35778 0.95535 0.0
H428 H 0.45147 0.34817 0.97571 0.0
H429 H 0.39781 0.28818 0.03275 0.0
H430 H 0.39332 0.39735 0.95268 0.0
H431 H 0.40865 0.41459 0.9866 0.0
H432 H 0.43409 0.3963 0.95954 0.0
H433 H 0.3476 0.30012 0.0481 0.0
H434 H 0.34258 0.34059 0.05542 0.0
H435 H 0.3269 0.32404 0.02134 0.0
H436 H 0.32975 0.44552 0.04307 0.0
H437 H 0.2936 0.40609 0.96025 0.0
H438 H 0.39948 0.40921 0.04303 0.0
H439 H 0.3765 0.3834 0.06514 0.0
H440 H 0.37148 0.42429 0.06952 0.0
H441 H 0.35352 0.35965 0.94158 0.0
H442 H 0.31221 0.35988 0.93964 0.0
H443 H 0.33194 0.33455 0.96583 0.0
C444 C 0.30073 0.60599 0.99592 0.0
C445 C 0.30926 0.57656 0.98601 0.0
C446 C 0.32212 0.63011 0.99656 0.0
C447 C 0.35279 0.6245 0.98743 0.0
C448 C 0.36132 0.59499 0.97676 0.0
C449 C 0.3394 0.57141 0.97602 0.0
C450 C 0.31208 0.66137 0.00771 0.0
C451 C 0.39386 0.58804 0.96705 0.0
C452 C 0.40674 0.69046 0.96845 0.0
C453 C 0.42343 0.69319 0.99583 0.0
C454 C 0.38314 0.66867 0.96557 0.0
C455 C 0.3764 0.64897 0.99055 0.0
C456 C 0.39295 0.65192 0.01837 0.0
C457 C 0.41615 0.67412 0.02072 0.0
C458 C 0.36573 0.66643 0.93569 0.0
C459 C 0.38662 0.63116 0.04543 0.0
H460 H 0.27741 0.6101 0.00354 0.0
H461 H 0.34611 0.54868 0.96838 0.0
H462 H 0.32417 0.66705 0.0294 0.0
H463 H 0.31835 0.67924 0.99066 0.0
H464 H 0.28697 0.66252 0.01191 0.0
H465 H 0.39647 0.56425 0.95819 0.0
H466 H 0.40131 0.60435 0.94896 0.0
H467 H 0.40954 0.59106 0.9869 0.0
H468 H 0.41224 0.70524 0.94918 0.0
H469 H 0.42904 0.67609 0.04191 0.0
H470 H 0.34072 0.66848 0.93998 0.0
H471 H 0.36972 0.6436 0.92509 0.0
H472 H 0.37269 0.68447 0.91905 0.0
H473 H 0.36218 0.63293 0.05229 0.0
H474 H 0.40115 0.63683 0.06561 0.0
H475 H 0.39092 0.6069 0.0389 0.0
C476 C 0.58084 0.33391 0.02997 0.0
C477 C 0.5773 0.31212 0.00656 0.0
C478 C 0.60421 0.35603 0.02859 0.0
C479 C 0.62448 0.35633 0.00318 0.0
C480 C 0.62157 0.3338 0.97993 0.0
C481 C 0.59797 0.31195 0.98189 0.0
C482 C 0.60663 0.37966 0.05385 0.0
C483 C 0.64279 0.33336 0.95252 0.0
C484 C 0.66113 0.43282 0.98333 0.0
C485 C 0.69046 0.42962 0.99613 0.0
C486 C 0.63961 0.40895 0.98511 0.0
C487 C 0.6476 0.38123 0.00013 0.0
C488 C 0.67733 0.37768 0.01273 0.0
C489 C 0.69846 0.40194 0.01054 0.0
C490 C 0.60816 0.41356 0.97128 0.0
C491 C 0.68663 0.34846 0.02893 0.0
H492 H 0.56494 0.3341 0.04911 0.0
H493 H 0.59536 0.29511 0.96376 0.0
H494 H 0.63022 0.37993 0.0634 0.0
H495 H 0.60202 0.40288 0.04438 0.0
H496 H 0.59019 0.37524 0.07285 0.0
H497 H 0.63865 0.31323 0.93741 0.0
H498 H 0.63955 0.35461 0.93882 0.0
H499 H 0.66705 0.33294 0.9602 0.0
H500 H 0.65485 0.45415 0.97212 0.0
H501 H 0.72111 0.39938 0.0205 0.0
H502 H 0.59042 0.41192 0.98948 0.0
H503 H 0.60332 0.3952 0.9543 0.0
H504 H 0.60586 0.43619 0.95971 0.0
H505 H 0.67171 0.34472 0.04923 0.0
H506 H 0.71091 0.349 0.03668 0.0
H507 H 0.68345 0.32847 0.01346 0.0
C508 C 0.68585 0.59471 0.02777 0.0
C509 C 0.69227 0.58023 -0.00025 0.0
C510 C 0.66374 0.6181 0.02963 0.0
C511 C 0.64751 0.62693 0.00289 0.0
C512 C 0.65444 0.61287 0.97442 0.0
C513 C 0.67685 0.58977 0.97317 0.0
C514 C 0.65718 0.63278 0.06034 0.0
C515 C 0.63748 0.62151 0.94543 0.0
C516 C 0.56772 0.6606 0.01164 0.0
C517 C 0.57303 0.69187 0.0061 0.0
C518 C 0.59185 0.63931 0.011 0.0
C519 C 0.62206 0.64958 0.00492 0.0
C520 C 0.62768 0.68123 -9e-05 0.0
C521 C 0.60303 0.70202 0.00042 0.0
C522 C 0.5849 0.60571 0.01626 0.0
C523 C 0.65964 0.69304 0.99364 0.0
H524 H 0.69782 0.58748 0.04836 0.0
H525 H 0.68172 0.57863 0.95145 0.0
H526 H 0.65874 0.65816 0.05847 0.0
H527 H 0.63344 0.62718 0.06764 0.0
H528 H 0.67329 0.62489 0.07846 0.0
H529 H 0.64656 0.60939 0.92491 0.0
H530 H 0.61279 0.61581 0.94795 0.0
H531 H 0.63908 0.64663 0.94144 0.0
H532 H 0.54456 0.65263 0.016 0.0
H533 H 0.60723 0.72621 0.99622 0.0
H534 H 0.59869 0.59686 0.03574 0.0
H535 H 0.59139 0.59222 0.99564 0.0
H536 H 0.56024 0.60157 0.02123 0.0
H537 H 0.67539 0.68592 0.01234 0.0
H538 H 0.66034 0.71847 0.99156 0.0
H539 H 0.6685 0.68288 0.97203 0.0
C540 C 0.47942 0.83758 0.92688 0.0
C541 C 0.49656 0.81036 0.92596 0.0
C542 C 0.48113 0.85908 0.90296 0.0
C543 C 0.5005 0.85321 0.87752 0.0
C544 C 0.51725 0.82538 0.87607 0.0
C545 C 0.51507 0.80425 0.90034 0.0
C546 C 0.46283 0.88845 0.9053 0.0
C547 C 0.53809 0.81833 0.84928 0.0
C548 C 0.48617 0.9018 0.8065 0.0
C549 C 0.50773 0.92539 0.81036 0.0
C550 C 0.48416 0.87754 0.82767 0.0
C551 C 0.5042 0.87695 0.85324 0.0
C552 C 0.52673 0.90013 0.85662 0.0
C553 C 0.52821 0.92409 0.83513 0.0
C554 C 0.45991 0.85317 0.82327 0.0
C555 C 0.54858 0.90023 0.88353 0.0
H556 H 0.46502 0.84238 0.9466 0.0
H557 H 0.52836 0.78321 0.89952 0.0
H558 H 0.47863 0.90841 0.90638 0.0
H559 H 0.44832 0.89142 0.88458 0.0
H560 H 0.44781 0.88889 0.92591 0.0
H561 H 0.54813 0.79491 0.85076 0.0
H562 H 0.52527 0.82035 0.82738 0.0
H563 H 0.55707 0.83529 0.8485 0.0
H564 H 0.4703 0.90269 0.78736 0.0
H565 H 0.54498 0.94223 0.83818 0.0
H566 H 0.44286 0.85458 0.84213 0.0
H567 H 0.47039 0.82996 0.82428 0.0
H568 H 0.44766 0.85567 0.80104 0.0
H569 H 0.53552 0.90331 0.90518 0.0
H570 H 0.56593 0.91886 0.88182 0.0
H571 H 0.5607 0.87788 0.88511 0.0
C572 C 0.17252 0.48148 0.9097 0.0
C573 C 0.18931 0.50758 0.91823 0.0
C574 C 0.15015 0.48303 0.88661 0.0
C575 C 0.14472 0.51128 0.87143 0.0
C576 C 0.16219 0.53753 0.87937 0.0
C577 C 0.18417 0.53541 0.90285 0.0
C578 C 0.1318 0.4546 0.879 0.0
C579 C 0.15731 0.56793 0.86341 0.0
C580 C 0.10175 0.50604 0.79574 0.0
C581 C 0.07173 0.51316 0.80487 0.0
C582 C 0.12599 0.50633 0.81697 0.0
C583 C 0.11991 0.51348 0.8481 0.0
C584 C 0.08973 0.52127 0.85728 0.0
C585 C 0.06604 0.52122 0.83549 0.0
C586 C 0.15795 0.49834 0.80625 0.0
C587 C 0.08227 0.52871 0.89032 0.0
H588 H 0.17635 0.45993 0.92158 0.0
H589 H 0.1972 0.55561 0.90931 0.0
H590 H 0.10713 0.45879 0.88371 0.0
H591 H 0.13395 0.44915 0.85422 0.0
H592 H 0.1393 0.43427 0.89248 0.0
H593 H 0.17397 0.58567 0.87104 0.0
H594 H 0.15944 0.56502 0.83819 0.0
H595 H 0.13376 0.57642 0.86806 0.0
H596 H 0.10626 0.49993 0.77204 0.0
H597 H 0.04284 0.52666 0.84266 0.0
H598 H 0.16553 0.47664 0.81725 0.0
H599 H 0.17435 0.51653 0.81326 0.0
H600 H 0.15923 0.49548 0.78094 0.0
H601 H 0.08717 0.50845 0.90499 0.0
H602 H 0.05786 0.53532 0.89349 0.0
H603 H 0.09698 0.54779 0.89857 0.0
C604 C 0.48194 0.07705 0.8423 0.0
C605 C 0.49843 0.07968 0.81479 0.0
C606 C 0.48214 0.10077 0.86405 0.0
C607 C 0.49917 0.12781 0.8581 0.0
C608 C 0.51522 0.13096 0.83001 0.0
C609 C 0.5147 0.10679 0.80867 0.0
C610 C 0.46476 0.09654 0.89377 0.0
C611 C 0.5335 0.15953 0.82283 0.0
C612 C 0.48007 0.19723 0.90733 0.0
C613 C 0.50281 0.19546 0.93003 0.0
C614 C 0.47906 0.17584 0.88323 0.0
C615 C 0.50123 0.1521 0.88197 0.0
C616 C 0.52463 0.15065 0.90446 0.0
C617 C 0.52517 0.1724 0.92819 0.0
C618 C 0.45387 0.17819 0.85955 0.0
C619 C 0.54863 0.12562 0.90394 0.0
H620 H 0.46929 0.05616 0.84712 0.0
H621 H 0.52744 0.10893 0.78739 0.0
H622 H 0.48102 0.09674 0.91336 0.0
H623 H 0.44851 0.11585 0.89723 0.0
H624 H 0.45168 0.07465 0.89433 0.0
H625 H 0.54323 0.15911 0.79926 0.0
H626 H 0.51882 0.18022 0.82524 0.0
H627 H 0.55262 0.16188 0.83947 0.0
H628 H 0.46278 0.21509 0.90862 0.0
H629 H 0.54281 0.17095 0.94567 0.0
H630 H 0.43883 0.15768 0.86098 0.0
H631 H 0.46384 0.17864 0.83612 0.0
H632 H 0.43953 0.19905 0.86274 0.0
H633 H 0.53746 0.10289 0.90681 0.0
H634 H 0.56601 0.12848 0.92238 0.0
H635 H 0.56058 0.12539 0.88145 0.0
C636 C 0.92566 0.47369 0.82893 0.0
C637 C 0.92289 0.49222 0.80277 0.0
C638 C 0.90261 0.47333 0.85144 0.0
C639 C 0.87594 0.49145 0.84729 0.0
C640 C 0.8724 0.50903 0.82017 0.0
C641 C 0.89611 0.50949 0.79837 0.0
C642 C 0.90747 0.45471 0.88029 0.0
C643 C 0.84401 0.52812 0.81462 0.0
C644 C 0.80725 0.47504 0.89862 0.0
C645 C 0.80993 0.49845 0.92055 0.0
C646 C 0.82829 0.4727 0.87429 0.0
C647 C 0.85288 0.49387 0.87234 0.0
C648 C 0.85571 0.51746 0.89454 0.0
C649 C 0.83401 0.51963 0.91819 0.0
C650 C 0.82422 0.44764 0.85068 0.0
C651 C 0.8819 0.54018 0.89355 0.0
H652 H 0.94642 0.46042 0.83243 0.0
H653 H 0.89384 0.52367 0.77803 0.0
H654 H 0.90917 0.47036 0.90033 0.0
H655 H 0.88761 0.43933 0.88437 0.0
H656 H 0.92865 0.44055 0.87922 0.0
H657 H 0.84346 0.53798 0.79109 0.0
H658 H 0.82309 0.51401 0.81809 0.0
H659 H 0.84312 0.54727 0.8314 0.0
H660 H 0.78856 0.4587 0.90035 0.0
H661 H 0.83627 0.53764 0.93523 0.0
H662 H 0.84451 0.43225 0.85074 0.0
H663 H 0.82258 0.45786 0.8274 0.0
H664 H 0.80337 0.4336 0.85497 0.0
H665 H 0.90413 0.52777 0.8944 0.0
H666 H 0.88109 0.55678 0.9129 0.0
H667 H 0.88132 0.55322 0.87168 0.0
C668 C 0.5269 0.07662 0.17074 0.0
C669 C 0.50535 0.07606 0.19462 0.0
C670 C 0.5265 0.10009 0.14863 0.0
C671 C 0.50426 0.12372 0.15073 0.0
C672 C 0.48299 0.12371 0.1753 0.0
C673 C 0.48367 0.09975 0.19685 0.0
C674 C 0.54936 0.09915 0.12259 0.0
C675 C 0.45919 0.14871 0.1785 0.0
C676 C 0.51859 0.19696 0.10536 0.0
C677 C 0.50004 0.19228 0.07948 0.0
C678 C 0.51988 0.17504 0.12899 0.0
C679 C 0.50243 0.14771 0.12648 0.0
C680 C 0.4835 0.14301 0.10049 0.0
C681 C 0.48242 0.16542 0.07738 0.0
C682 C 0.54008 0.18098 0.15651 0.0
C683 C 0.46472 0.11407 0.09687 0.0
H684 H 0.54365 0.0583 0.16889 0.0
H685 H 0.46706 0.09947 0.21538 0.0
H686 H 0.53705 0.09691 0.10041 0.0
H687 H 0.56256 0.12092 0.12173 0.0
H688 H 0.56574 0.07972 0.12478 0.0
H689 H 0.44546 0.1463 0.19986 0.0
H690 H 0.47041 0.17159 0.17854 0.0
H691 H 0.44335 0.14812 0.15857 0.0
H692 H 0.53221 0.21772 0.10709 0.0
H693 H 0.46812 0.16165 0.05737 0.0
H694 H 0.55807 0.16301 0.15805 0.0
H695 H 0.5263 0.17968 0.1779 0.0
H696 H 0.5514 0.20381 0.15545 0.0
H697 H 0.48007 0.09373 0.09675 0.0
H698 H 0.45102 0.11404 0.07537 0.0
H699 H 0.44886 0.11143 0.11662 0.0
C700 C 0.9001 0.51606 0.19088 0.0
C701 C 0.92359 0.49421 0.18827 0.0
C702 C 0.87626 0.51736 0.16926 0.0
C703 C 0.87599 0.49631 0.14449 0.0
C704 C 0.89911 0.47357 0.14233 0.0
C705 C 0.92265 0.47279 0.16426 0.0
C706 C 0.85195 0.54188 0.17234 0.0
C707 C 0.89957 0.4507 0.11626 0.0
C708 C 0.80362 0.48501 0.09714 0.0
C709 C 0.81006 0.50298 0.07121 0.0
C710 C 0.82468 0.48293 0.12146 0.0
C711 C 0.85272 0.49926 0.11973 0.0
C712 C 0.85904 0.51786 0.09383 0.0
C713 C 0.83765 0.51946 0.06987 0.0
C714 C 0.81719 0.46286 0.14873 0.0
C715 C 0.88866 0.53569 0.09118 0.0
H716 H 0.90069 0.53263 0.20945 0.0
H717 H 0.94072 0.45581 0.16219 0.0
H718 H 0.85363 0.55814 0.15278 0.0
H719 H 0.82875 0.53143 0.17152 0.0
H720 H 0.85421 0.55508 0.19405 0.0
H721 H 0.91803 0.4333 0.11895 0.0
H722 H 0.8772 0.43864 0.11473 0.0
H723 H 0.90312 0.46294 0.0942 0.0
H724 H 0.78231 0.47222 0.09826 0.0
H725 H 0.8427 0.53344 0.04989 0.0
H726 H 0.81859 0.47645 0.17023 0.0
H727 H 0.83427 0.44405 0.15056 0.0
H728 H 0.79393 0.45256 0.14707 0.0
H729 H 0.89142 0.5511 0.11128 0.0
H730 H 0.88966 0.54979 0.06994 0.0
H731 H 0.90842 0.51961 0.09118 0.0
C732 C 0.47543 0.81431 0.09779 0.0
C733 C 0.50034 0.8124 0.07751 0.0
C734 C 0.47492 0.83629 0.12137 0.0
C735 C 0.49968 0.85714 0.12436 0.0
C736 C 0.52503 0.85507 0.10413 0.0
C737 C 0.52516 0.83255 0.08109 0.0
C738 C 0.44773 0.83748 0.14282 0.0
C739 C 0.55168 0.87714 0.10634 0.0
C740 C 0.48493 0.93382 0.16321 0.0
C741 C 0.49856 0.92933 0.19201 0.0
C742 C 0.48503 0.91045 0.14103 0.0
C743 C 0.49869 0.88177 0.14801 0.0
C744 C 0.51196 0.87691 0.17728 0.0
C745 C 0.51194 0.90085 0.19887 0.0
C746 C 0.47099 0.91665 0.10994 0.0
C747 C 0.52634 0.84649 0.1857 0.0
H748 H 0.45626 0.79867 0.09516 0.0
H749 H 0.5444 0.83124 0.06536 0.0
H750 H 0.45558 0.83598 0.167 0.0
H751 H 0.43563 0.85974 0.14016 0.0
H752 H 0.43113 0.81861 0.13844 0.0
H753 H 0.56986 0.87212 0.08917 0.0
H754 H 0.54346 0.901 0.10273 0.0
H755 H 0.56196 0.87613 0.12961 0.0
H756 H 0.47466 0.95585 0.15778 0.0
H757 H 0.52239 0.89726 0.22117 0.0
H758 H 0.45257 0.89973 0.10517 0.0
H759 H 0.48865 0.9139 0.09178 0.0
H760 H 0.46116 0.94013 0.10823 0.0
H761 H 0.50949 0.82766 0.18247 0.0
H762 H 0.53456 0.84602 0.20984 0.0
H763 H 0.54604 0.84169 0.17031 0.0
C764 C 0.19443 0.51696 0.09504 0.0
C765 C 0.18868 0.49972 0.06847 0.0
C766 C 0.1733 0.51736 0.1194 0.0
C767 C 0.14582 0.50019 0.11701 0.0
C768 C 0.14018 0.48235 0.09043 0.0
C769 C 0.16169 0.48232 0.0665 0.0
C770 C 0.18012 0.53657 0.14744 0.0
C771 C 0.11111 0.46376 0.08701 0.0
C772 C 0.09872 0.48029 0.18768 0.0
C773 C 0.07496 0.50193 0.18586 0.0
C774 C 0.12245 0.47992 0.16587 0.0
C775 C 0.12231 0.50169 0.1417 0.0
C776 C 0.09877 0.52405 0.14021 0.0
C777 C 0.07539 0.5239 0.16233 0.0
C778 C 0.14722 0.45579 0.16823 0.0
C779 C 0.09783 0.54764 0.11479 0.0
H780 H 0.21529 0.53041 0.09668 0.0
H781 H 0.15715 0.46892 0.04602 0.0
H782 H 0.16257 0.55488 0.14982 0.0
H783 H 0.17892 0.52216 0.16842 0.0
H784 H 0.20313 0.5475 0.14631 0.0
H785 H 0.11067 0.45035 0.06531 0.0
H786 H 0.10866 0.44763 0.10658 0.0
H787 H 0.09091 0.47927 0.08738 0.0
H788 H 0.09852 0.4633 0.20588 0.0
H789 H 0.05711 0.54074 0.16086 0.0
H790 H 0.17019 0.46678 0.16807 0.0
H791 H 0.14611 0.44032 0.14802 0.0
H792 H 0.14502 0.44168 0.18937 0.0
H793 H 0.1198 0.56049 0.11391 0.0
H794 H 0.07877 0.56433 0.11774 0.0
H795 H 0.09499 0.53596 0.09234 0.0
C796 C 0.82511 0.90999 0.53186 0.0
C797 C 0.80701 0.91663 0.5061 0.0
C798 C 0.84738 0.88675 0.53092 0.0
C799 C 0.85165 0.86979 0.50352 0.0
C800 C 0.83254 0.8755 0.47786 0.0
C801 C 0.8104 0.89888 0.47946 0.0
C802 C 0.86724 0.88128 0.5588 0.0
C803 C 0.83639 0.85785 0.44827 0.0
C804 C 0.93164 0.83869 0.4894 0.0
C805 C 0.92834 0.80769 0.49745 0.0
C806 C 0.90674 0.85899 0.49096 0.0
C807 C 0.87782 0.84804 0.50092 0.0
C808 C 0.87425 0.81671 0.5089 0.0
C809 C 0.8996 0.79684 0.50703 0.0
C810 C 0.91148 0.89224 0.48219 0.0
C811 C 0.84375 0.80428 0.51966 0.0
H812 H 0.82249 0.92356 0.55257 0.0
H813 H 0.7964 0.90386 0.45951 0.0
H814 H 0.86747 0.85652 0.56481 0.0
H815 H 0.89123 0.88806 0.55362 0.0
H816 H 0.85929 0.89456 0.57908 0.0
H817 H 0.81796 0.86312 0.43144 0.0
H818 H 0.85883 0.86367 0.43774 0.0
H819 H 0.83642 0.83278 0.45283 0.0
H820 H 0.95379 0.84719 0.4819 0.0
H821 H 0.89696 0.77288 0.51327 0.0
H822 H 0.90642 0.90727 0.50213 0.0
H823 H 0.89539 0.89873 0.46354 0.0
H824 H 0.93528 0.89692 0.47434 0.0
H825 H 0.83656 0.8163 0.54094 0.0
H826 H 0.84461 0.7792 0.52435 0.0
H827 H 0.82586 0.80871 0.5021 0.0
C828 C 0.91293 0.17732 0.47209 0.0
C829 C 0.92764 0.18615 0.49931 0.0
C830 C 0.88963 0.15505 0.47234 0.0
C831 C 0.88072 0.14149 0.50052 0.0
C832 C 0.89494 0.15094 0.52818 0.0
C833 C 0.91833 0.17307 0.52722 0.0
C834 C 0.87512 0.14544 0.44237 0.0
C835 C 0.88592 0.13718 0.5587 0.0
C836 C 0.80479 0.0986 0.50506 0.0
C837 C 0.8145 0.06799 0.5026 0.0
C838 C 0.82606 0.12285 0.50432 0.0
C839 C 0.85771 0.11625 0.50093 0.0
C840 C 0.86756 0.08539 0.49824 0.0
C841 C 0.84585 0.06164 0.49917 0.0
C842 C 0.81474 0.15548 0.50737 0.0
C843 C 0.90109 0.07741 0.49449 0.0
H844 H 0.92005 0.18737 0.45046 0.0
H845 H 0.92953 0.17994 0.54835 0.0
H846 H 0.88014 0.12085 0.43789 0.0
H847 H 0.84982 0.14785 0.4437 0.0
H848 H 0.88362 0.1592 0.42264 0.0
H849 H 0.89795 0.14828 0.57826 0.0
H850 H 0.86081 0.13943 0.56226 0.0
H851 H 0.89139 0.11228 0.55889 0.0
H852 H 0.78057 0.1036 0.50772 0.0
H853 H 0.85349 0.03802 0.49721 0.0
H854 H 0.82181 0.16911 0.48704 0.0
H855 H 0.82528 0.16643 0.52781 0.0
H856 H 0.78938 0.15675 0.50962 0.0
H857 H 0.91052 0.08897 0.47383 0.0
H858 H 0.90491 0.05228 0.49223 0.0
H859 H 0.91429 0.08584 0.51457 0.0
C860 C 0.10735 0.80047 0.51247 0.0
C861 C 0.08237 0.8062 0.49303 0.0
C862 C 0.13183 0.82134 0.51444 0.0
C863 C 0.13084 0.84886 0.49712 0.0
C864 C 0.10586 0.8545 0.47713 0.0
C865 C 0.08208 0.83292 0.47508 0.0
C866 C 0.15843 0.81426 0.53548 0.0
C867 C 0.10367 0.88384 0.45872 0.0
C868 C 0.17333 0.91893 0.52646 0.0
C869 C 0.19788 0.92084 0.50577 0.0
C870 C 0.1516 0.89531 0.52417 0.0
C871 C 0.15496 0.87266 0.50109 0.0
C872 C 0.18039 0.87381 0.48089 0.0
C873 C 0.20138 0.89817 0.48321 0.0
C874 C 0.12446 0.89525 0.54574 0.0
C875 C 0.1851 0.84964 0.45648 0.0
H876 H 0.10768 0.77971 0.52623 0.0
H877 H 0.06272 0.83748 0.46014 0.0
H878 H 0.18043 0.81648 0.52284 0.0
H879 H 0.15897 0.83105 0.55462 0.0
H880 H 0.15696 0.79076 0.54534 0.0
H881 H 0.08305 0.88438 0.44374 0.0
H882 H 0.10275 0.90384 0.4745 0.0
H883 H 0.12435 0.88665 0.44415 0.0
H884 H 0.17049 0.93655 0.54382 0.0
H885 H 0.22049 0.89954 0.46733 0.0
H886 H 0.12317 0.87307 0.55821 0.0
H887 H 0.10291 0.8977 0.53239 0.0
H888 H 0.1256 0.91416 0.56283 0.0
H889 H 0.18421 0.82637 0.46685 0.0
H890 H 0.20737 0.85238 0.44437 0.0
H891 H 0.16636 0.851 0.43931 0.0
C892 C 0.08087 0.16739 0.47324 0.0
C893 C 0.07501 0.18624 0.49866 0.0
C894 C 0.10451 0.14551 0.47392 0.0
C895 C 0.1227 0.14245 0.50067 0.0
C896 C 0.1173 0.16186 0.52618 0.0
C897 C 0.09348 0.18354 0.52487 0.0
C898 C 0.10955 0.1252 0.44627 0.0
C899 C 0.13624 0.15928 0.55509 0.0
C900 C 0.16024 0.06512 0.51485 0.0
C901 C 0.19048 0.07053 0.50529 0.0
C902 C 0.13805 0.0884 0.5136 0.0
C903 C 0.14629 0.11783 0.50253 0.0
C904 C 0.17684 0.12352 0.49298 0.0
C905 C 0.19861 0.09975 0.49447 0.0
C906 C 0.10571 0.08141 0.52397 0.0
C907 C 0.18644 0.15464 0.48107 0.0
H908 H 0.0667 0.16944 0.45289 0.0
H909 H 0.08909 0.19812 0.54456 0.0
H910 H 0.13377 0.12673 0.43856 0.0
H911 H 0.10513 0.10089 0.45252 0.0
H912 H 0.09438 0.13147 0.42675 0.0
H913 H 0.13014 0.17711 0.57228 0.0
H914 H 0.13279 0.13632 0.56561 0.0
H915 H 0.16099 0.16141 0.54956 0.0
H916 H 0.15381 0.04257 0.52324 0.0
H917 H 0.22197 0.10403 0.48706 0.0
H918 H 0.08946 0.08515 0.50472 0.0
H919 H 0.09898 0.09725 0.54274 0.0
H920 H 0.10313 0.0574 0.53225 0.0
H921 H 0.17276 0.16063 0.46044 0.0
H922 H 0.21117 0.15545 0.47495 0.0
H923 H 0.18179 0.17251 0.49863 0.0
loop_
_geom_bond_atom_site_label_1
_geom_bond_atom_site_label_2
_geom_bond_distance
_geom_bond_site_symmetry_2
_ccdc_geom_bond_type
In0 O1 2.294 1_455 S
In0 O2 2.326 1_455 S
In0 O6 2.266 1_455 S
In0 O7 2.326 . S
In0 O8 2.266 . S
In0 O9 2.326 1_455 S
In0 O11 2.294 . S
In0 O12 2.326 . S
O1 In0 2.294 1_655 S
O1 C10 1.240 . S
O2 In0 2.326 1_655 S
O2 C10 1.252 . S
C3 O6 1.252 1_455 S
C3 O7 1.260 . S
C4 O11 1.240 . S
C4 O12 1.252 . S
C5 O8 1.252 1_655 S
C5 O9 1.260 . S
O6 In0 2.266 1_655 S
O6 C3 1.252 1_655 S
O7 In0 2.326 . S
O7 C3 1.260 . S
O8 In0 2.266 . S
O8 C5 1.252 1_455 S
O9 In0 2.326 1_655 S
O9 C5 1.260 . S
C10 O1 1.240 . S
C10 O2 1.252 . S
O11 In0 2.294 . S
O11 C4 1.240 . S
O12 In0 2.326 . S
O12 C4 1.252 . S
In13 O14 2.294 1_545 S
In13 O15 2.326 . S
In13 O19 2.266 1_545 S
In13 O20 2.326 1_545 S
In13 O21 2.266 . S
In13 O22 2.326 . S
In13 O24 2.294 . S
In13 O25 2.326 1_545 S
O14 In13 2.294 1_565 S
O14 C23 1.240 1_565 S
O15 In13 2.326 . S
O15 C23 1.252 . S
C16 O19 1.252 . S
C16 O20 1.260 . S
C17 O24 1.240 1_565 S
C17 O25 1.252 . S
C18 O21 1.252 . S
C18 O22 1.260 . S
O19 In13 2.266 1_565 S
O19 C16 1.252 . S
O20 In13 2.326 1_565 S
O20 C16 1.260 . S
O21 In13 2.266 . S
O21 C18 1.252 . S
O22 In13 2.326 . S
O22 C18 1.260 . S
C23 O14 1.240 1_545 S
C23 O15 1.252 . S
O24 In13 2.294 . S
O24 C17 1.240 1_545 S
O25 In13 2.326 1_565 S
O25 C17 1.252 . S
In26 O27 2.294 . S
In26 O28 2.326 1_455 S
In26 O32 2.266 . S
In26 O33 2.326 . S
In26 O34 2.266 1_455 S
In26 O35 2.326 1_455 S
In26 O37 2.294 1_455 S
In26 O38 2.326 . S
O27 In26 2.294 . S
O27 C36 1.240 1_455 S
O28 In26 2.326 1_655 S
O28 C36 1.252 . S
C29 O32 1.252 . S
C29 O33 1.260 . S
C30 O37 1.240 1_455 S
C30 O38 1.252 . S
C31 O34 1.252 . S
C31 O35 1.260 . S
O32 In26 2.266 . S
O32 C29 1.252 . S
O33 In26 2.326 . S
O33 C29 1.260 . S
O34 In26 2.266 1_655 S
O34 C31 1.252 . S
O35 In26 2.326 1_655 S
O35 C31 1.260 . S
C36 O27 1.240 1_655 S
C36 O28 1.252 . S
O37 In26 2.294 1_655 S
O37 C30 1.240 1_655 S
O38 In26 2.326 . S
O38 C30 1.252 . S
In39 O40 2.294 1_545 S
In39 O41 2.326 1_545 S
In39 O45 2.266 1_545 S
In39 O46 2.326 . S
In39 O47 2.266 . S
In39 O48 2.326 1_545 S
In39 O50 2.294 . S
In39 O51 2.326 . S
O40 In39 2.294 1_565 S
O40 C49 1.240 . S
O41 In39 2.326 1_565 S
O41 C49 1.252 . S
C42 O45 1.252 1_545 S
C42 O46 1.260 . S
C43 O50 1.240 . S
C43 O51 1.252 . S
C44 O47 1.252 1_565 S
C44 O48 1.260 . S
O45 In39 2.266 1_565 S
O45 C42 1.252 1_565 S
O46 In39 2.326 . S
O46 C42 1.260 . S
O47 In39 2.266 . S
O47 C44 1.252 1_545 S
O48 In39 2.326 1_565 S
O48 C44 1.260 . S
C49 O40 1.240 . S
C49 O41 1.252 . S
O50 In39 2.294 . S
O50 C43 1.240 . S
O51 In39 2.326 . S
O51 C43 1.252 . S
In52 O53 2.294 1_545 S
In52 O54 2.326 . S
In52 O58 2.266 1_545 S
In52 O59 2.326 1_545 S
In52 O60 2.266 . S
In52 O61 2.326 . S
In52 O63 2.294 . S
In52 O64 2.326 1_545 S
O53 In52 2.294 1_565 S
O53 C62 1.240 1_565 S
O54 In52 2.326 . S
O54 C62 1.252 . S
C55 O58 1.252 . S
C55 O59 1.260 . S
C56 O63 1.240 1_565 S
C56 O64 1.252 . S
C57 O60 1.252 . S
C57 O61 1.260 . S
O58 In52 2.266 1_565 S
O58 C55 1.252 . S
O59 In52 2.326 1_565 S
O59 C55 1.260 . S
O60 In52 2.266 . S
O60 C57 1.252 . S
O61 In52 2.326 . S
O61 C57 1.260 . S
C62 O53 1.240 1_545 S
C62 O54 1.252 . S
O63 In52 2.294 . S
O63 C56 1.240 1_545 S
O64 In52 2.326 1_565 S
O64 C56 1.252 . S
In65 O66 2.294 1_455 S
In65 O67 2.326 1_455 S
In65 O71 2.266 1_455 S
In65 O72 2.326 . S
In65 O73 2.266 . S
In65 O74 2.326 1_455 S
In65 O76 2.294 . S
In65 O77 2.326 . S
O66 In65 2.294 1_655 S
O66 C75 1.240 . S
O67 In65 2.326 1_655 S
O67 C75 1.252 . S
C68 O71 1.252 1_455 S
C68 O72 1.260 . S
C69 O76 1.240 . S
C69 O77 1.252 . S
C70 O73 1.252 1_655 S
C70 O74 1.260 . S
O71 In65 2.266 1_655 S
O71 C68 1.252 1_655 S
O72 In65 2.326 . S
O72 C68 1.260 . S
O73 In65 2.266 . S
O73 C70 1.252 1_455 S
O74 In65 2.326 1_655 S
O74 C70 1.260 . S
C75 O66 1.240 . S
C75 O67 1.252 . S
O76 In65 2.294 . S
O76 C69 1.240 . S
O77 In65 2.326 . S
O77 C69 1.252 . S
In78 O79 2.294 . S
In78 O80 2.326 1_545 S
In78 O84 2.266 . S
In78 O85 2.326 . S
In78 O86 2.266 1_545 S
In78 O87 2.326 1_545 S
In78 O89 2.294 1_545 S
In78 O90 2.326 . S
O79 In78 2.294 . S
O79 C88 1.240 1_545 S
O80 In78 2.326 1_565 S
O80 C88 1.252 . S
C81 O84 1.252 . S
C81 O85 1.260 . S
C82 O89 1.240 1_545 S
C82 O90 1.252 . S
C83 O86 1.252 . S
C83 O87 1.260 . S
O84 In78 2.266 . S
O84 C81 1.252 . S
O85 In78 2.326 . S
O85 C81 1.260 . S
O86 In78 2.266 1_565 S
O86 C83 1.252 . S
O87 In78 2.326 1_565 S
O87 C83 1.260 . S
C88 O79 1.240 1_565 S
C88 O80 1.252 . S
O89 In78 2.294 1_565 S
O89 C82 1.240 1_565 S
O90 In78 2.326 . S
O90 C82 1.252 . S
In91 O92 2.294 . S
In91 O93 2.326 . S
In91 O97 2.266 . S
In91 O98 2.326 1_455 S
In91 O99 2.266 1_455 S
In91 O100 2.326 . S
In91 O102 2.294 1_455 S
In91 O103 2.326 1_455 S
O92 In91 2.294 . S
O92 C101 1.240 . S
O93 In91 2.326 . S
O93 C101 1.252 . S
C94 O97 1.252 1_655 S
C94 O98 1.260 . S
C95 O102 1.240 . S
C95 O103 1.252 . S
C96 O99 1.252 1_455 S
C96 O100 1.260 . S
O97 In91 2.266 . S
O97 C94 1.252 1_455 S
O98 In91 2.326 1_655 S
O98 C94 1.260 . S
O99 In91 2.266 1_655 S
O99 C96 1.252 1_655 S
O100 In91 2.326 . S
O100 C96 1.260 . S
C101 O92 1.240 . S
C101 O93 1.252 . S
O102 In91 2.294 1_655 S
O102 C95 1.240 . S
O103 In91 2.326 1_655 S
O103 C95 1.252 . S
In104 O105 2.299 . S
In104 O106 2.329 . S
In104 O110 2.268 . S
In104 O111 2.322 1_554 S
In104 O112 2.264 1_554 S
In104 O113 2.329 . S
In104 O115 2.289 1_554 S
In104 O116 2.324 1_554 S
O105 In104 2.299 . S
O105 C114 1.240 . S
O106 In104 2.329 . S
O106 C114 1.252 . S
C107 O110 1.252 1_556 S
C107 O111 1.260 . S
C108 O115 1.240 . S
C108 O116 1.252 . S
C109 O112 1.252 1_554 S
C109 O113 1.260 . S
O110 In104 2.268 . S
O110 C107 1.252 1_554 S
O111 In104 2.322 1_556 S
O111 C107 1.260 . S
O112 In104 2.264 1_556 S
O112 C109 1.252 1_556 S
O113 In104 2.329 . S
O113 C109 1.260 . S
C114 O105 1.240 . S
C114 O106 1.252 . S
O115 In104 2.289 1_556 S
O115 C108 1.240 . S
O116 In104 2.324 1_556 S
O116 C108 1.252 . S
In117 O118 2.301 . S
In117 O119 2.330 . S
In117 O123 2.269 . S
In117 O124 2.321 1_554 S
In117 O125 2.264 1_554 S
In117 O126 2.331 . S
In117 O128 2.287 1_554 S
In117 O129 2.323 1_554 S
O118 In117 2.301 . S
O118 C127 1.240 . S
O119 In117 2.330 . S
O119 C127 1.252 . S
C120 O123 1.252 1_556 S
C120 O124 1.260 . S
C121 O128 1.240 . S
C121 O129 1.252 . S
C122 O125 1.252 1_554 S
C122 O126 1.260 . S
O123 In117 2.269 . S
O123 C120 1.252 1_554 S
O124 In117 2.321 1_556 S
O124 C120 1.260 . S
O125 In117 2.264 1_556 S
O125 C122 1.252 1_556 S
O126 In117 2.331 . S
O126 C122 1.260 . S
C127 O118 1.240 . S
C127 O119 1.252 . S
O128 In117 2.287 1_556 S
O128 C121 1.240 . S
O129 In117 2.323 1_556 S
O129 C121 1.252 . S
In130 O131 2.291 1_554 S
In130 O132 2.331 . S
In130 O136 2.259 1_554 S
In130 O137 2.322 1_554 S
In130 O138 2.273 . S
In130 O139 2.329 . S
In130 O141 2.296 . S
In130 O142 2.322 1_554 S
O131 In130 2.291 1_556 S
O131 C140 1.240 1_556 S
O132 In130 2.331 . S
O132 C140 1.252 . S
C133 O136 1.252 . S
C133 O137 1.260 . S
C134 O141 1.240 1_556 S
C134 O142 1.252 . S
C135 O138 1.252 . S
C135 O139 1.260 . S
O136 In130 2.259 1_556 S
O136 C133 1.252 . S
O137 In130 2.322 1_556 S
O137 C133 1.260 . S
O138 In130 2.273 . S
O138 C135 1.252 . S
O139 In130 2.329 . S
O139 C135 1.260 . S
C140 O131 1.240 1_554 S
C140 O132 1.252 . S
O141 In130 2.296 . S
O141 C134 1.240 1_554 S
O142 In130 2.322 1_556 S
O142 C134 1.252 . S
In143 O144 2.296 . S
In143 O145 2.323 1_554 S
In143 O149 2.271 . S
In143 O150 2.328 . S
In143 O151 2.261 1_554 S
In143 O152 2.323 1_554 S
In143 O154 2.292 1_554 S
In143 O155 2.330 . S
O144 In143 2.296 . S
O144 C153 1.240 1_554 S
O145 In143 2.323 1_556 S
O145 C153 1.252 . S
C146 O149 1.252 . S
C146 O150 1.260 . S
C147 O154 1.240 1_554 S
C147 O155 1.252 . S
C148 O151 1.252 . S
C148 O152 1.260 . S
O149 In143 2.271 . S
O149 C146 1.252 . S
O150 In143 2.328 . S
O150 C146 1.260 . S
O151 In143 2.261 1_556 S
O151 C148 1.252 . S
O152 In143 2.323 1_556 S
O152 C148 1.260 . S
C153 O144 1.240 1_556 S
C153 O145 1.252 . S
O154 In143 2.292 1_556 S
O154 C147 1.240 1_556 S
O155 In143 2.330 . S
O155 C147 1.252 . S
C156 C157 1.391 1_455 S
C156 C158 1.394 . S
C156 H172 0.931 . S
C157 C156 1.391 1_655 S
C157 C161 1.376 . S
C158 C156 1.394 . S
C158 C159 1.369 1_455 S
C158 C162 1.531 . S
C159 C158 1.369 1_655 S
C159 C160 1.410 . S
C159 C167 1.503 1_655 S
C160 C159 1.410 . S
C160 C161 1.392 . S
C160 C163 1.511 . S
C161 C157 1.376 . S
C161 C160 1.392 . S
C161 H173 0.929 . S
C162 C158 1.531 . S
C162 H174 0.960 . S
C162 H175 0.962 . S
C162 H176 0.960 . S
C163 C160 1.511 . S
C163 H177 0.961 . S
C163 H178 0.961 . S
C163 H179 0.961 . S
C164 C165 1.370 . S
C164 C166 1.363 . S
C164 H180 0.931 . S
C165 C164 1.370 . S
C165 C169 1.408 . S
C166 C164 1.363 . S
C166 C167 1.370 . S
C166 C170 1.524 . S
C167 C159 1.503 1_455 S
C167 C166 1.370 . S
C167 C168 1.404 . S
C168 C167 1.404 . S
C168 C169 1.406 . S
C168 C171 1.535 1_455 S
C169 C165 1.408 . S
C169 C168 1.406 . S
C169 H181 0.930 . S
C170 C166 1.524 . S
C170 H182 0.956 . S
C170 H183 0.961 1_455 S
C170 H184 0.961 . S
C171 C168 1.535 1_655 S
C171 H185 0.958 1_655 S
C171 H186 0.961 . S
C171 H187 0.960 . S
H172 C156 0.931 . S
H173 C161 0.929 . S
H174 C162 0.960 . S
H175 C162 0.962 . S
H176 C162 0.960 . S
H177 C163 0.961 . S
H178 C163 0.961 . S
H179 C163 0.961 . S
H180 C164 0.931 . S
H181 C169 0.930 . S
H182 C170 0.956 . S
H183 C170 0.961 1_655 S
H184 C170 0.961 . S
H185 C171 0.958 1_455 S
H186 C171 0.961 . S
H187 C171 0.960 . S
C188 C189 1.391 1_545 S
C188 C190 1.394 . S
C188 H204 0.931 . S
C189 C188 1.391 1_565 S
C189 C193 1.376 . S
C190 C188 1.394 . S
C190 C191 1.369 1_545 S
C190 C194 1.531 . S
C191 C190 1.369 1_565 S
C191 C192 1.410 . S
C191 C199 1.508 . S
C192 C191 1.410 . S
C192 C193 1.392 . S
C192 C195 1.511 . S
C193 C189 1.376 . S
C193 C192 1.392 . S
C193 H205 0.929 . S
C194 C190 1.531 . S
C194 H206 0.960 . S
C194 H207 0.962 . S
C194 H208 0.960 . S
C195 C192 1.511 . S
C195 H209 0.961 . S
C195 H210 0.961 . S
C195 H211 0.961 . S
C196 C197 1.370 . S
C196 C198 1.363 . S
C196 H212 0.931 . S
C197 C196 1.370 . S
C197 C201 1.408 1_545 S
C198 C196 1.363 . S
C198 C199 1.348 1_545 S
C198 C202 1.524 . S
C199 C191 1.508 . S
C199 C198 1.348 1_565 S
C199 C200 1.420 . S
C200 C199 1.420 . S
C200 C201 1.404 . S
C200 C203 1.539 . S
C201 C197 1.408 1_565 S
C201 C200 1.404 . S
C201 H213 0.930 . S
C202 C198 1.524 . S
C202 H214 0.956 . S
C202 H215 0.961 . S
C202 H216 0.961 . S
C203 C200 1.539 . S
C203 H217 0.958 . S
C203 H218 0.961 . S
C203 H219 0.960 . S
H204 C188 0.931 . S
H205 C193 0.929 . S
H206 C194 0.960 . S
H207 C194 0.962 . S
H208 C194 0.960 . S
H209 C195 0.961 . S
H210 C195 0.961 . S
H211 C195 0.961 . S
H212 C196 0.931 . S
H213 C201 0.930 . S
H214 C202 0.956 . S
H215 C202 0.961 . S
H216 C202 0.961 . S
H217 C203 0.958 . S
H218 C203 0.961 . S
H219 C203 0.960 . S
C220 C221 1.391 . S
C220 C222 1.394 . S
C220 H236 0.931 . S
C221 C220 1.391 . S
C221 C225 1.376 1_655 S
C222 C220 1.394 . S
C222 C223 1.369 1_655 S
C222 C226 1.531 . S
C223 C222 1.369 1_455 S
C223 C224 1.410 . S
C223 C231 1.503 . S
C224 C223 1.410 . S
C224 C225 1.392 . S
C224 C227 1.511 . S
C225 C221 1.376 1_455 S
C225 C224 1.392 . S
C225 H237 0.929 . S
C226 C222 1.531 . S
C226 H238 0.960 . S
C226 H239 0.962 . S
C226 H240 0.960 . S
C227 C224 1.511 . S
C227 H241 0.961 . S
C227 H242 0.961 . S
C227 H243 0.961 . S
C228 C229 1.370 1_655 S
C228 C230 1.363 . S
C228 H244 0.931 . S
C229 C228 1.370 1_455 S
C229 C233 1.408 . S
C230 C228 1.363 . S
C230 C231 1.370 1_655 S
C230 C234 1.524 . S
C231 C223 1.503 . S
C231 C230 1.370 1_455 S
C231 C232 1.403 . S
C232 C231 1.403 . S
C232 C233 1.404 . S
C232 C235 1.539 . S
C233 C229 1.408 . S
C233 C232 1.404 . S
C233 H245 0.930 . S
C234 C230 1.524 . S
C234 H246 0.956 . S
C234 H247 0.961 . S
C234 H248 0.961 . S
C235 C232 1.539 . S
C235 H249 0.958 . S
C235 H250 0.961 . S
C235 H251 0.960 . S
H236 C220 0.931 . S
H237 C225 0.929 . S
H238 C226 0.960 . S
H239 C226 0.962 . S
H240 C226 0.960 . S
H241 C227 0.961 . S
H242 C227 0.961 . S
H243 C227 0.961 . S
H244 C228 0.931 . S
H245 C233 0.930 . S
H246 C234 0.956 . S
H247 C234 0.961 . S
H248 C234 0.961 . S
H249 C235 0.958 . S
H250 C235 0.961 . S
H251 C235 0.960 . S
C252 C253 1.391 . S
C252 C254 1.394 . S
C252 H268 0.931 . S
C253 C252 1.391 . S
C253 C257 1.370 1_545 S
C254 C252 1.394 . S
C254 C255 1.369 . S
C254 C258 1.531 . S
C255 C254 1.369 . S
C255 C256 1.410 1_545 S
C255 C263 1.503 . S
C256 C255 1.410 1_565 S
C256 C257 1.393 . S
C256 C259 1.511 . S
C257 C253 1.370 1_565 S
C257 C256 1.393 . S
C257 H269 0.934 . S
C258 C254 1.531 . S
C258 H270 0.960 . S
C258 H271 0.962 . S
C258 H272 0.960 . S
C259 C256 1.511 . S
C259 H273 0.961 . S
C259 H274 0.961 . S
C259 H275 0.961 . S
C260 C261 1.370 . S
C260 C262 1.363 . S
C260 H276 0.931 . S
C261 C260 1.370 . S
C261 C265 1.408 1_565 S
C262 C260 1.363 . S
C262 C263 1.370 1_565 S
C262 C266 1.524 . S
C263 C255 1.503 . S
C263 C262 1.370 1_545 S
C263 C264 1.403 . S
C264 C263 1.403 . S
C264 C265 1.404 . S
C264 C267 1.539 . S
C265 C261 1.408 1_545 S
C265 C264 1.404 . S
C265 H277 0.930 . S
C266 C262 1.524 . S
C266 H278 0.956 . S
C266 H279 0.961 . S
C266 H280 0.961 . S
C267 C264 1.539 . S
C267 H281 0.958 . S
C267 H282 0.961 . S
C267 H283 0.960 . S
H268 C252 0.931 . S
H269 C257 0.934 . S
H270 C258 0.960 . S
H271 C258 0.962 . S
H272 C258 0.960 . S
H273 C259 0.961 . S
H274 C259 0.961 . S
H275 C259 0.961 . S
H276 C260 0.931 . S
H277 C265 0.930 . S
H278 C266 0.956 . S
H279 C266 0.961 . S
H280 C266 0.961 . S
H281 C267 0.958 . S
H282 C267 0.961 . S
H283 C267 0.960 . S
C284 C285 1.391 1_655 S
C284 C286 1.394 . S
C284 H300 0.931 . S
C285 C284 1.391 1_455 S
C285 C289 1.376 . S
C286 C284 1.394 . S
C286 C287 1.369 . S
C286 C290 1.531 . S
C287 C286 1.369 . S
C287 C288 1.410 1_655 S
C287 C295 1.503 . S
C288 C287 1.410 1_455 S
C288 C289 1.392 . S
C288 C291 1.511 . S
C289 C285 1.376 . S
C289 C288 1.392 . S
C289 H301 0.929 . S
C290 C286 1.531 . S
C290 H302 0.960 . S
C290 H303 0.962 . S
C290 H304 0.960 . S
C291 C288 1.511 . S
C291 H305 0.961 . S
C291 H306 0.961 . S
C291 H307 0.961 . S
C292 C293 1.370 1_455 S
C292 C294 1.363 . S
C292 H308 0.931 . S
C293 C292 1.370 1_655 S
C293 C297 1.408 . S
C294 C292 1.363 . S
C294 C295 1.370 1_455 S
C294 C298 1.524 . S
C295 C287 1.503 . S
C295 C294 1.370 1_655 S
C295 C296 1.403 . S
C296 C295 1.403 . S
C296 C297 1.404 . S
C296 C299 1.539 . S
C297 C293 1.408 . S
C297 C296 1.404 . S
C297 H309 0.930 . S
C298 C294 1.524 . S
C298 H310 0.956 . S
C298 H311 0.961 . S
C298 H312 0.961 . S
C299 C296 1.539 . S
C299 H313 0.958 . S
C299 H314 0.961 . S
C299 H315 0.960 . S
H300 C284 0.931 . S
H301 C289 0.929 . S
H302 C290 0.960 . S
H303 C290 0.962 . S
H304 C290 0.960 . S
H305 C291 0.961 . S
H306 C291 0.961 . S
H307 C291 0.961 . S
H308 C292 0.931 . S
H309 C297 0.930 . S
H310 C298 0.956 . S
H311 C298 0.961 . S
H312 C298 0.961 . S
H313 C299 0.958 . S
H314 C299 0.961 . S
H315 C299 0.960 . S
C316 C317 1.391 . S
C316 C318 1.394 . S
C316 H332 0.931 . S
C317 C316 1.391 . S
C317 C321 1.376 . S
C318 C316 1.394 . S
C318 C319 1.369 . S
C318 C322 1.531 . S
C319 C318 1.369 . S
C319 C320 1.410 . S
C319 C327 1.503 . S
C320 C319 1.410 . S
C320 C321 1.392 . S
C320 C323 1.507 1_545 S
C321 C317 1.376 . S
C321 C320 1.392 . S
C321 H333 0.929 . S
C322 C318 1.531 . S
C322 H334 0.960 . S
C322 H335 0.962 . S
C322 H336 0.960 . S
C323 C320 1.507 1_565 S
C323 H337 0.974 . S
C323 H338 0.974 . S
C323 H339 0.940 1_565 S
C324 C325 1.370 . S
C324 C326 1.363 . S
C324 H340 0.931 . S
C325 C324 1.370 . S
C325 C329 1.408 1_565 S
C326 C324 1.363 . S
C326 C327 1.370 1_565 S
C326 C330 1.524 . S
C327 C319 1.503 . S
C327 C326 1.370 1_545 S
C327 C328 1.403 . S
C328 C327 1.403 . S
C328 C329 1.404 . S
C328 C331 1.539 . S
C329 C325 1.408 1_545 S
C329 C328 1.404 . S
C329 H341 0.930 . S
C330 C326 1.524 . S
C330 H342 0.956 . S
C330 H343 0.961 . S
C330 H344 0.961 . S
C331 C328 1.539 . S
C331 H345 0.958 . S
C331 H346 0.961 . S
C331 H347 0.960 . S
H332 C316 0.931 . S
H333 C321 0.929 . S
H334 C322 0.960 . S
H335 C322 0.962 . S
H336 C322 0.960 . S
H337 C323 0.974 . S
H338 C323 0.974 . S
H339 C323 0.940 1_545 S
H340 C324 0.931 . S
H341 C329 0.930 . S
H342 C330 0.956 . S
H343 C330 0.961 . S
H344 C330 0.961 . S
H345 C331 0.958 . S
H346 C331 0.961 . S
H347 C331 0.960 . S
C348 C349 1.391 . S
C348 C350 1.394 . S
C348 H364 0.931 . S
C349 C348 1.391 . S
C349 C353 1.376 1_455 S
C350 C348 1.394 . S
C350 C351 1.388 . S
C350 C354 1.531 . S
C351 C350 1.388 . S
C351 C352 1.393 1_455 S
C351 C359 1.501 1_455 S
C352 C351 1.393 1_655 S
C352 C353 1.392 . S
C352 C355 1.511 . S
C353 C349 1.376 1_655 S
C353 C352 1.392 . S
C353 H365 0.929 . S
C354 C350 1.531 . S
C354 H366 0.960 . S
C354 H367 0.962 . S
C354 H368 0.960 . S
C355 C352 1.511 . S
C355 H369 0.961 . S
C355 H370 0.961 . S
C355 H371 0.961 . S
C356 C357 1.370 1_455 S
C356 C358 1.363 . S
C356 H372 0.931 . S
C357 C356 1.370 1_655 S
C357 C361 1.408 . S
C358 C356 1.363 . S
C358 C359 1.370 1_455 S
C358 C362 1.524 . S
C359 C351 1.501 1_655 S
C359 C358 1.370 1_655 S
C359 C360 1.403 . S
C360 C359 1.403 . S
C360 C361 1.404 . S
C360 C363 1.539 . S
C361 C357 1.408 . S
C361 C360 1.404 . S
C361 H373 0.930 . S
C362 C358 1.524 . S
C362 H374 0.956 . S
C362 H375 0.961 . S
C362 H376 0.961 . S
C363 C360 1.539 . S
C363 H377 0.958 . S
C363 H378 0.961 . S
C363 H379 0.960 . S
H364 C348 0.931 . S
H365 C353 0.929 . S
H366 C354 0.960 . S
H367 C354 0.962 . S
H368 C354 0.960 . S
H369 C355 0.961 . S
H370 C355 0.961 . S
H371 C355 0.961 . S
H372 C356 0.931 . S
H373 C361 0.930 . S
H374 C362 0.956 . S
H375 C362 0.961 . S
H376 C362 0.961 . S
H377 C363 0.958 . S
H378 C363 0.961 . S
H379 C363 0.960 . S
C380 C381 1.389 1_545 S
C380 C382 1.394 . S
C380 H396 0.932 . S
C381 C380 1.389 1_565 S
C381 C385 1.376 . S
C382 C380 1.394 . S
C382 C383 1.369 1_545 S
C382 C386 1.531 . S
C383 C382 1.369 1_565 S
C383 C384 1.410 . S
C383 C391 1.503 . S
C384 C383 1.410 . S
C384 C385 1.392 . S
C384 C387 1.511 . S
C385 C381 1.376 . S
C385 C384 1.392 . S
C385 H397 0.929 . S
C386 C382 1.531 . S
C386 H398 0.960 . S
C386 H399 0.962 . S
C386 H400 0.960 . S
C387 C384 1.511 . S
C387 H401 0.961 . S
C387 H402 0.961 . S
C387 H403 0.961 . S
C388 C389 1.370 . S
C388 C390 1.363 . S
C388 H404 0.931 . S
C389 C388 1.370 . S
C389 C393 1.408 1_545 S
C390 C388 1.363 . S
C390 C391 1.370 1_545 S
C390 C394 1.524 . S
C391 C383 1.503 . S
C391 C390 1.370 1_565 S
C391 C392 1.403 . S
C392 C391 1.403 . S
C392 C393 1.404 . S
C392 C395 1.539 . S
C393 C389 1.408 1_565 S
C393 C392 1.404 . S
C393 H405 0.930 . S
C394 C390 1.524 . S
C394 H406 0.956 . S
C394 H407 0.961 . S
C394 H408 0.961 . S
C395 C392 1.539 . S
C395 H409 0.958 . S
C395 H410 0.961 . S
C395 H411 0.960 . S
H396 C380 0.932 . S
H397 C385 0.929 . S
H398 C386 0.960 . S
H399 C386 0.962 . S
H400 C386 0.960 . S
H401 C387 0.961 . S
H402 C387 0.961 . S
H403 C387 0.961 . S
H404 C388 0.931 . S
H405 C393 0.930 . S
H406 C394 0.956 . S
H407 C394 0.961 . S
H408 C394 0.961 . S
H409 C395 0.958 . S
H410 C395 0.961 . S
H411 C395 0.960 . S
C412 C413 1.391 1_556 S
C412 C414 1.394 . S
C412 H428 0.931 . S
C413 C412 1.391 1_554 S
C413 C417 1.376 . S
C414 C412 1.394 . S
C414 C415 1.357 1_556 S
C414 C418 1.531 . S
C415 C414 1.357 1_554 S
C415 C416 1.423 . S
C415 C423 1.502 1_554 S
C416 C415 1.423 . S
C416 C417 1.392 . S
C416 C419 1.511 . S
C417 C413 1.376 . S
C417 C416 1.392 . S
C417 H429 0.929 . S
C418 C414 1.531 . S
C418 H430 0.960 . S
C418 H431 0.962 . S
C418 H432 0.960 . S
C419 C416 1.511 . S
C419 H433 0.961 . S
C419 H434 0.961 . S
C419 H435 0.961 . S
C420 C421 1.370 . S
C420 C422 1.359 1_556 S
C420 H436 0.934 . S
C421 C420 1.370 . S
C421 C425 1.408 . S
C422 C420 1.359 1_554 S
C422 C423 1.366 1_554 S
C422 C426 1.533 . S
C423 C415 1.502 1_556 S
C423 C422 1.366 1_556 S
C423 C424 1.403 . S
C424 C423 1.403 . S
C424 C425 1.404 . S
C424 C427 1.539 . S
C425 C421 1.408 . S
C425 C424 1.404 . S
C425 H437 0.930 . S
C426 C422 1.533 . S
C426 H438 0.956 1_554 S
C426 H439 0.961 . S
C426 H440 0.961 . S
C427 C424 1.539 . S
C427 H441 0.958 . S
C427 H442 0.961 . S
C427 H443 0.980 . S
H428 C412 0.931 . S
H429 C417 0.929 . S
H430 C418 0.960 . S
H431 C418 0.962 . S
H432 C418 0.960 . S
H433 C419 0.961 . S
H434 C419 0.961 . S
H435 C419 0.961 . S
H436 C420 0.934 . S
H437 C425 0.930 . S
H438 C426 0.956 1_556 S
H439 C426 0.961 . S
H440 C426 0.961 . S
H441 C427 0.958 . S
H442 C427 0.961 . S
H443 C427 0.980 . S
C444 C445 1.391 . S
C444 C446 1.394 . S
C444 H460 0.931 . S
C445 C444 1.391 . S
C445 C449 1.376 1_554 S
C446 C444 1.394 . S
C446 C447 1.369 . S
C446 C450 1.531 . S
C447 C446 1.369 . S
C447 C448 1.410 1_554 S
C447 C455 1.503 . S
C448 C447 1.410 1_556 S
C448 C449 1.392 . S
C448 C451 1.511 . S
C449 C445 1.376 1_556 S
C449 C448 1.392 . S
C449 H461 0.929 . S
C450 C446 1.531 . S
C450 H462 0.960 . S
C450 H463 0.962 . S
C450 H464 0.960 . S
C451 C448 1.511 . S
C451 H465 0.961 . S
C451 H466 0.961 . S
C451 H467 0.961 . S
C452 C453 1.370 . S
C452 C454 1.363 . S
C452 H468 0.931 . S
C453 C452 1.370 . S
C453 C457 1.408 1_556 S
C454 C452 1.363 . S
C454 C455 1.370 1_556 S
C454 C458 1.524 . S
C455 C447 1.503 . S
C455 C454 1.370 1_554 S
C455 C456 1.403 . S
C456 C455 1.403 . S
C456 C457 1.404 . S
C456 C459 1.539 . S
C457 C453 1.408 1_554 S
C457 C456 1.404 . S
C457 H469 0.930 . S
C458 C454 1.524 . S
C458 H470 0.956 . S
C458 H471 0.961 . S
C458 H472 0.961 . S
C459 C456 1.539 . S
C459 H473 0.958 . S
C459 H474 0.961 . S
C459 H475 0.960 . S
H460 C444 0.931 . S
H461 C449 0.929 . S
H462 C450 0.960 . S
H463 C450 0.962 . S
H464 C450 0.960 . S
H465 C451 0.961 . S
H466 C451 0.961 . S
H467 C451 0.961 . S
H468 C452 0.931 . S
H469 C457 0.930 . S
H470 C458 0.956 . S
H471 C458 0.961 . S
H472 C458 0.961 . S
H473 C459 0.958 . S
H474 C459 0.961 . S
H475 C459 0.960 . S
C476 C477 1.391 1_554 S
C476 C478 1.394 . S
C476 H492 0.931 . S
C477 C476 1.391 1_556 S
C477 C481 1.376 . S
C478 C476 1.394 . S
C478 C479 1.369 . S
C478 C482 1.531 . S
C479 C478 1.369 . S
C479 C480 1.410 1_554 S
C479 C487 1.503 . S
C480 C479 1.410 1_556 S
C480 C481 1.392 . S
C480 C483 1.511 . S
C481 C477 1.376 . S
C481 C480 1.392 . S
C481 H493 0.929 . S
C482 C478 1.531 . S
C482 H494 0.960 . S
C482 H495 0.962 . S
C482 H496 0.960 . S
C483 C480 1.511 . S
C483 H497 0.961 . S
C483 H498 0.961 . S
C483 H499 0.961 . S
C484 C485 1.370 1_556 S
C484 C486 1.363 . S
C484 H500 0.931 . S
C485 C484 1.370 1_554 S
C485 C489 1.408 . S
C486 C484 1.363 . S
C486 C487 1.370 1_556 S
C486 C490 1.524 . S
C487 C479 1.503 . S
C487 C486 1.370 1_554 S
C487 C488 1.403 . S
C488 C487 1.403 . S
C488 C489 1.404 . S
C488 C491 1.539 . S
C489 C485 1.408 . S
C489 C488 1.404 . S
C489 H501 0.930 . S
C490 C486 1.524 . S
C490 H502 0.956 . S
C490 H503 0.961 . S
C490 H504 0.961 . S
C491 C488 1.539 . S
C491 H505 0.958 . S
C491 H506 0.961 . S
C491 H507 0.960 . S
H492 C476 0.931 . S
H493 C481 0.929 . S
H494 C482 0.960 . S
H495 C482 0.962 . S
H496 C482 0.960 . S
H497 C483 0.961 . S
H498 C483 0.961 . S
H499 C483 0.961 . S
H500 C484 0.931 . S
H501 C489 0.930 . S
H502 C490 0.956 . S
H503 C490 0.961 . S
H504 C490 0.961 . S
H505 C491 0.958 . S
H506 C491 0.961 . S
H507 C491 0.960 . S
C508 C509 1.391 1_554 S
C508 C510 1.394 . S
C508 H524 0.931 . S
C509 C508 1.391 1_556 S
C509 C513 1.376 . S
C510 C508 1.394 . S
C510 C511 1.369 1_554 S
C510 C514 1.531 . S
C511 C510 1.369 1_556 S
C511 C512 1.410 . S
C511 C519 1.501 1_556 S
C512 C511 1.410 . S
C512 C513 1.392 . S
C512 C515 1.511 . S
C513 C509 1.376 . S
C513 C512 1.392 . S
C513 H525 0.929 . S
C514 C510 1.531 . S
C514 H526 0.960 . S
C514 H527 0.962 . S
C514 H528 0.960 . S
C515 C512 1.511 . S
C515 H529 0.961 . S
C515 H530 0.961 . S
C515 H531 0.961 . S
C516 C517 1.370 . S
C516 C518 1.363 . S
C516 H532 0.931 . S
C517 C516 1.370 . S
C517 C521 1.408 1_554 S
C518 C516 1.363 . S
C518 C519 1.379 . S
C518 C522 1.524 . S
C519 C511 1.501 1_554 S
C519 C518 1.379 . S
C519 C520 1.398 1_554 S
C520 C519 1.398 1_556 S
C520 C521 1.404 . S
C520 C523 1.539 . S
C521 C517 1.408 1_556 S
C521 C520 1.404 . S
C521 H533 0.930 . S
C522 C518 1.524 . S
C522 H534 0.956 . S
C522 H535 0.961 . S
C522 H536 0.961 . S
C523 C520 1.539 . S
C523 H537 0.958 . S
C523 H538 0.961 . S
C523 H539 0.960 . S
H524 C508 0.931 . S
H525 C513 0.929 . S
H526 C514 0.960 . S
H527 C514 0.962 . S
H528 C514 0.960 . S
H529 C515 0.961 . S
H530 C515 0.961 . S
H531 C515 0.961 . S
H532 C516 0.931 . S
H533 C521 0.930 . S
H534 C522 0.956 . S
H535 C522 0.961 . S
H536 C522 0.961 . S
H537 C523 0.958 . S
H538 C523 0.961 . S
H539 C523 0.960 . S
C540 C541 1.391 . S
C540 C542 1.394 . S
C540 H556 0.931 . S
C541 C540 1.391 . S
C541 C545 1.376 . S
C542 C540 1.394 . S
C542 C543 1.369 . S
C542 C546 1.531 . S
C543 C542 1.369 . S
C543 C544 1.410 . S
C543 C551 1.503 . S
C544 C543 1.410 . S
C544 C545 1.392 . S
C544 C547 1.511 . S
C545 C541 1.376 . S
C545 C544 1.392 . S
C545 H557 0.929 . S
C546 C542 1.531 . S
C546 H558 0.960 . S
C546 H559 0.962 . S
C546 H560 0.960 . S
C547 C544 1.511 . S
C547 H561 0.961 . S
C547 H562 0.961 . S
C547 H563 0.961 . S
C548 C549 1.370 . S
C548 C550 1.363 . S
C548 H564 0.931 . S
C549 C548 1.370 . S
C549 C553 1.408 . S
C550 C548 1.363 . S
C550 C551 1.370 . S
C550 C554 1.524 . S
C551 C543 1.503 . S
C551 C550 1.370 . S
C551 C552 1.403 . S
C552 C551 1.403 . S
C552 C553 1.404 . S
C552 C555 1.539 . S
C553 C549 1.408 . S
C553 C552 1.404 . S
C553 H565 0.930 . S
C554 C550 1.524 . S
C554 H566 0.956 . S
C554 H567 0.961 . S
C554 H568 0.961 . S
C555 C552 1.539 . S
C555 H569 0.958 . S
C555 H570 0.961 . S
C555 H571 0.960 . S
H556 C540 0.931 . S
H557 C545 0.929 . S
H558 C546 0.960 . S
H559 C546 0.962 . S
H560 C546 0.960 . S
H561 C547 0.961 . S
H562 C547 0.961 . S
H563 C547 0.961 . S
H564 C548 0.931 . S
H565 C553 0.930 . S
H566 C554 0.956 . S
H567 C554 0.961 . S
H568 C554 0.961 . S
H569 C555 0.958 . S
H570 C555 0.961 . S
H571 C555 0.960 . S
C572 C573 1.391 . S
C572 C574 1.394 . S
C572 H588 0.931 . S
C573 C572 1.391 . S
C573 C577 1.376 . S
C574 C572 1.394 . S
C574 C575 1.369 . S
C574 C578 1.531 . S
C575 C574 1.369 . S
C575 C576 1.410 . S
C575 C583 1.503 . S
C576 C575 1.410 . S
C576 C577 1.392 . S
C576 C579 1.511 . S
C577 C573 1.376 . S
C577 C576 1.392 . S
C577 H589 0.929 . S
C578 C574 1.531 . S
C578 H590 0.960 . S
C578 H591 0.962 . S
C578 H592 0.960 . S
C579 C576 1.511 . S
C579 H593 0.961 . S
C579 H594 0.961 . S
C579 H595 0.961 . S
C580 C581 1.370 . S
C580 C582 1.363 . S
C580 H596 0.931 . S
C581 C580 1.370 . S
C581 C585 1.408 . S
C582 C580 1.363 . S
C582 C583 1.370 . S
C582 C586 1.524 . S
C583 C575 1.503 . S
C583 C582 1.370 . S
C583 C584 1.403 . S
C584 C583 1.403 . S
C584 C585 1.404 . S
C584 C587 1.539 . S
C585 C581 1.408 . S
C585 C584 1.404 . S
C585 H597 0.930 . S
C586 C582 1.524 . S
C586 H598 0.956 . S
C586 H599 0.961 . S
C586 H600 0.961 . S
C587 C584 1.539 . S
C587 H601 0.958 . S
C587 H602 0.961 . S
C587 H603 0.960 . S
H588 C572 0.931 . S
H589 C577 0.929 . S
H590 C578 0.960 . S
H591 C578 0.962 . S
H592 C578 0.960 . S
H593 C579 0.961 . S
H594 C579 0.961 . S
H595 C579 0.961 . S
H596 C580 0.931 . S
H597 C585 0.930 . S
H598 C586 0.956 . S
H599 C586 0.961 . S
H600 C586 0.961 . S
H601 C587 0.958 . S
H602 C587 0.961 . S
H603 C587 0.960 . S
C604 C605 1.391 . S
C604 C606 1.394 . S
C604 H620 0.931 . S
C605 C604 1.391 . S
C605 C609 1.376 . S
C606 C604 1.394 . S
C606 C607 1.369 . S
C606 C610 1.531 . S
C607 C606 1.369 . S
C607 C608 1.410 . S
C607 C615 1.503 . S
C608 C607 1.410 . S
C608 C609 1.392 . S
C608 C611 1.511 . S
C609 C605 1.376 . S
C609 C608 1.392 . S
C609 H621 0.929 . S
C610 C606 1.531 . S
C610 H622 0.960 . S
C610 H623 0.962 . S
C610 H624 0.960 . S
C611 C608 1.511 . S
C611 H625 0.961 . S
C611 H626 0.961 . S
C611 H627 0.961 . S
C612 C613 1.370 . S
C612 C614 1.363 . S
C612 H628 0.931 . S
C613 C612 1.370 . S
C613 C617 1.408 . S
C614 C612 1.363 . S
C614 C615 1.370 . S
C614 C618 1.524 . S
C615 C607 1.503 . S
C615 C614 1.370 . S
C615 C616 1.403 . S
C616 C615 1.403 . S
C616 C617 1.404 . S
C616 C619 1.539 . S
C617 C613 1.408 . S
C617 C616 1.404 . S
C617 H629 0.930 . S
C618 C614 1.524 . S
C618 H630 0.956 . S
C618 H631 0.961 . S
C618 H632 0.961 . S
C619 C616 1.539 . S
C619 H633 0.958 . S
C619 H634 0.961 . S
C619 H635 0.960 . S
H620 C604 0.931 . S
H621 C609 0.929 . S
H622 C610 0.960 . S
H623 C610 0.962 . S
H624 C610 0.960 . S
H625 C611 0.961 . S
H626 C611 0.961 . S
H627 C611 0.961 . S
H628 C612 0.931 . S
H629 C617 0.930 . S
H630 C618 0.956 . S
H631 C618 0.961 . S
H632 C618 0.961 . S
H633 C619 0.958 . S
H634 C619 0.961 . S
H635 C619 0.960 . S
C636 C637 1.391 . S
C636 C638 1.394 . S
C636 H652 0.931 . S
C637 C636 1.391 . S
C637 C641 1.376 . S
C638 C636 1.394 . S
C638 C639 1.369 . S
C638 C642 1.531 . S
C639 C638 1.369 . S
C639 C640 1.410 . S
C639 C647 1.503 . S
C640 C639 1.410 . S
C640 C641 1.392 . S
C640 C643 1.511 . S
C641 C637 1.376 . S
C641 C640 1.392 . S
C641 H653 0.929 . S
C642 C638 1.531 . S
C642 H654 0.960 . S
C642 H655 0.962 . S
C642 H656 0.960 . S
C643 C640 1.511 . S
C643 H657 0.961 . S
C643 H658 0.961 . S
C643 H659 0.961 . S
C644 C645 1.370 . S
C644 C646 1.363 . S
C644 H660 0.931 . S
C645 C644 1.370 . S
C645 C649 1.408 . S
C646 C644 1.363 . S
C646 C647 1.370 . S
C646 C650 1.524 . S
C647 C639 1.503 . S
C647 C646 1.370 . S
C647 C648 1.403 . S
C648 C647 1.403 . S
C648 C649 1.404 . S
C648 C651 1.539 . S
C649 C645 1.408 . S
C649 C648 1.404 . S
C649 H661 0.930 . S
C650 C646 1.524 . S
C650 H662 0.956 . S
C650 H663 0.961 . S
C650 H664 0.961 . S
C651 C648 1.539 . S
C651 H665 0.958 . S
C651 H666 0.961 . S
C651 H667 0.960 . S
H652 C636 0.931 . S
H653 C641 0.929 . S
H654 C642 0.960 . S
H655 C642 0.962 . S
H656 C642 0.960 . S
H657 C643 0.961 . S
H658 C643 0.961 . S
H659 C643 0.961 . S
H660 C644 0.931 . S
H661 C649 0.930 . S
H662 C650 0.956 . S
H663 C650 0.961 . S
H664 C650 0.961 . S
H665 C651 0.958 . S
H666 C651 0.961 . S
H667 C651 0.960 . S
C668 C669 1.391 . S
C668 C670 1.394 . S
C668 H684 0.931 . S
C669 C668 1.391 . S
C669 C673 1.376 . S
C670 C668 1.394 . S
C670 C671 1.369 . S
C670 C674 1.531 . S
C671 C670 1.369 . S
C671 C672 1.410 . S
C671 C679 1.503 . S
C672 C671 1.410 . S
C672 C673 1.392 . S
C672 C675 1.511 . S
C673 C669 1.376 . S
C673 C672 1.392 . S
C673 H685 0.929 . S
C674 C670 1.531 . S
C674 H686 0.960 . S
C674 H687 0.962 . S
C674 H688 0.960 . S
C675 C672 1.511 . S
C675 H689 0.961 . S
C675 H690 0.961 . S
C675 H691 0.961 . S
C676 C677 1.370 . S
C676 C678 1.363 . S
C676 H692 0.931 . S
C677 C676 1.370 . S
C677 C681 1.408 . S
C678 C676 1.363 . S
C678 C679 1.370 . S
C678 C682 1.524 . S
C679 C671 1.503 . S
C679 C678 1.370 . S
C679 C680 1.403 . S
C680 C679 1.403 . S
C680 C681 1.404 . S
C680 C683 1.539 . S
C681 C677 1.408 . S
C681 C680 1.404 . S
C681 H693 0.930 . S
C682 C678 1.524 . S
C682 H694 0.956 . S
C682 H695 0.961 . S
C682 H696 0.961 . S
C683 C680 1.539 . S
C683 H697 0.958 . S
C683 H698 0.961 . S
C683 H699 0.960 . S
H684 C668 0.931 . S
H685 C673 0.929 . S
H686 C674 0.960 . S
H687 C674 0.962 . S
H688 C674 0.960 . S
H689 C675 0.961 . S
H690 C675 0.961 . S
H691 C675 0.961 . S
H692 C676 0.931 . S
H693 C681 0.930 . S
H694 C682 0.956 . S
H695 C682 0.961 . S
H696 C682 0.961 . S
H697 C683 0.958 . S
H698 C683 0.961 . S
H699 C683 0.960 . S
C700 C701 1.391 . S
C700 C702 1.394 . S
C700 H716 0.931 . S
C701 C700 1.391 . S
C701 C705 1.376 . S
C702 C700 1.394 . S
C702 C703 1.369 . S
C702 C706 1.531 . S
C703 C702 1.369 . S
C703 C704 1.410 . S
C703 C711 1.503 . S
C704 C703 1.410 . S
C704 C705 1.392 . S
C704 C707 1.511 . S
C705 C701 1.376 . S
C705 C704 1.392 . S
C705 H717 0.929 . S
C706 C702 1.531 . S
C706 H718 0.960 . S
C706 H719 0.962 . S
C706 H720 0.960 . S
C707 C704 1.511 . S
C707 H721 0.961 . S
C707 H722 0.961 . S
C707 H723 0.961 . S
C708 C709 1.370 . S
C708 C710 1.363 . S
C708 H724 0.931 . S
C709 C708 1.370 . S
C709 C713 1.408 . S
C710 C708 1.363 . S
C710 C711 1.370 . S
C710 C714 1.524 . S
C711 C703 1.503 . S
C711 C710 1.370 . S
C711 C712 1.403 . S
C712 C711 1.403 . S
C712 C713 1.404 . S
C712 C715 1.539 . S
C713 C709 1.408 . S
C713 C712 1.404 . S
C713 H725 0.930 . S
C714 C710 1.524 . S
C714 H726 0.956 . S
C714 H727 0.961 . S
C714 H728 0.961 . S
C715 C712 1.539 . S
C715 H729 0.958 . S
C715 H730 0.961 . S
C715 H731 0.960 . S
H716 C700 0.931 . S
H717 C705 0.929 . S
H718 C706 0.960 . S
H719 C706 0.962 . S
H720 C706 0.960 . S
H721 C707 0.961 . S
H722 C707 0.961 . S
H723 C707 0.961 . S
H724 C708 0.931 . S
H725 C713 0.930 . S
H726 C714 0.956 . S
H727 C714 0.961 . S
H728 C714 0.961 . S
H729 C715 0.958 . S
H730 C715 0.961 . S
H731 C715 0.960 . S
C732 C733 1.391 . S
C732 C734 1.394 . S
C732 H748 0.931 . S
C733 C732 1.391 . S
C733 C737 1.376 . S
C734 C732 1.394 . S
C734 C735 1.369 . S
C734 C738 1.531 . S
C735 C734 1.369 . S
C735 C736 1.410 . S
C735 C743 1.503 . S
C736 C735 1.410 . S
C736 C737 1.392 . S
C736 C739 1.511 . S
C737 C733 1.376 . S
C737 C736 1.392 . S
C737 H749 0.929 . S
C738 C734 1.531 . S
C738 H750 0.960 . S
C738 H751 0.962 . S
C738 H752 0.960 . S
C739 C736 1.511 . S
C739 H753 0.961 . S
C739 H754 0.961 . S
C739 H755 0.961 . S
C740 C741 1.370 . S
C740 C742 1.363 . S
C740 H756 0.931 . S
C741 C740 1.370 . S
C741 C745 1.408 . S
C742 C740 1.363 . S
C742 C743 1.370 . S
C742 C746 1.524 . S
C743 C735 1.503 . S
C743 C742 1.370 . S
C743 C744 1.403 . S
C744 C743 1.403 . S
C744 C745 1.404 . S
C744 C747 1.539 . S
C745 C741 1.408 . S
C745 C744 1.404 . S
C745 H757 0.930 . S
C746 C742 1.524 . S
C746 H758 0.956 . S
C746 H759 0.961 . S
C746 H760 0.961 . S
C747 C744 1.539 . S
C747 H761 0.958 . S
C747 H762 0.961 . S
C747 H763 0.960 . S
H748 C732 0.931 . S
H749 C737 0.929 . S
H750 C738 0.960 . S
H751 C738 0.962 . S
H752 C738 0.960 . S
H753 C739 0.961 . S
H754 C739 0.961 . S
H755 C739 0.961 . S
H756 C740 0.931 . S
H757 C745 0.930 . S
H758 C746 0.956 . S
H759 C746 0.961 . S
H760 C746 0.961 . S
H761 C747 0.958 . S
H762 C747 0.961 . S
H763 C747 0.960 . S
C764 C765 1.391 . S
C764 C766 1.394 . S
C764 H780 0.931 . S
C765 C764 1.391 . S
C765 C769 1.376 . S
C766 C764 1.394 . S
C766 C767 1.369 . S
C766 C770 1.531 . S
C767 C766 1.369 . S
C767 C768 1.410 . S
C767 C775 1.503 . S
C768 C767 1.410 . S
C768 C769 1.392 . S
C768 C771 1.511 . S
C769 C765 1.376 . S
C769 C768 1.392 . S
C769 H781 0.929 . S
C770 C766 1.531 . S
C770 H782 0.960 . S
C770 H783 0.962 . S
C770 H784 0.960 . S
C771 C768 1.511 . S
C771 H785 0.961 . S
C771 H786 0.961 . S
C771 H787 0.961 . S
C772 C773 1.370 . S
C772 C774 1.363 . S
C772 H788 0.931 . S
C773 C772 1.370 . S
C773 C777 1.408 . S
C774 C772 1.363 . S
C774 C775 1.370 . S
C774 C778 1.524 . S
C775 C767 1.503 . S
C775 C774 1.370 . S
C775 C776 1.403 . S
C776 C775 1.403 . S
C776 C777 1.404 . S
C776 C779 1.539 . S
C777 C773 1.408 . S
C777 C776 1.404 . S
C777 H789 0.930 . S
C778 C774 1.524 . S
C778 H790 0.956 . S
C778 H791 0.961 . S
C778 H792 0.961 . S
C779 C776 1.539 . S
C779 H793 0.958 . S
C779 H794 0.961 . S
C779 H795 0.960 . S
H780 C764 0.931 . S
H781 C769 0.929 . S
H782 C770 0.960 . S
H783 C770 0.962 . S
H784 C770 0.960 . S
H785 C771 0.961 . S
H786 C771 0.961 . S
H787 C771 0.961 . S
H788 C772 0.931 . S
H789 C777 0.930 . S
H790 C778 0.956 . S
H791 C778 0.961 . S
H792 C778 0.961 . S
H793 C779 0.958 . S
H794 C779 0.961 . S
H795 C779 0.960 . S
C796 C797 1.391 . S
C796 C798 1.394 . S
C796 H812 0.931 . S
C797 C796 1.391 . S
C797 C801 1.376 . S
C798 C796 1.394 . S
C798 C799 1.369 . S
C798 C802 1.531 . S
C799 C798 1.369 . S
C799 C800 1.410 . S
C799 C807 1.503 . S
C800 C799 1.410 . S
C800 C801 1.392 . S
C800 C803 1.511 . S
C801 C797 1.376 . S
C801 C800 1.392 . S
C801 H813 0.929 . S
C802 C798 1.531 . S
C802 H814 0.960 . S
C802 H815 0.962 . S
C802 H816 0.960 . S
C803 C800 1.511 . S
C803 H817 0.961 . S
C803 H818 0.961 . S
C803 H819 0.961 . S
C804 C805 1.370 . S
C804 C806 1.363 . S
C804 H820 0.931 . S
C805 C804 1.370 . S
C805 C809 1.408 . S
C806 C804 1.363 . S
C806 C807 1.370 . S
C806 C810 1.524 . S
C807 C799 1.503 . S
C807 C806 1.370 . S
C807 C808 1.403 . S
C808 C807 1.403 . S
C808 C809 1.404 . S
C808 C811 1.539 . S
C809 C805 1.408 . S
C809 C808 1.404 . S
C809 H821 0.930 . S
C810 C806 1.524 . S
C810 H822 0.956 . S
C810 H823 0.961 . S
C810 H824 0.961 . S
C811 C808 1.539 . S
C811 H825 0.958 . S
C811 H826 0.961 . S
C811 H827 0.960 . S
H812 C796 0.931 . S
H813 C801 0.929 . S
H814 C802 0.960 . S
H815 C802 0.962 . S
H816 C802 0.960 . S
H817 C803 0.961 . S
H818 C803 0.961 . S
H819 C803 0.961 . S
H820 C804 0.931 . S
H821 C809 0.930 . S
H822 C810 0.956 . S
H823 C810 0.961 . S
H824 C810 0.961 . S
H825 C811 0.958 . S
H826 C811 0.961 . S
H827 C811 0.960 . S
C828 C829 1.391 . S
C828 C830 1.394 . S
C828 H844 0.931 . S
C829 C828 1.391 . S
C829 C833 1.376 . S
C830 C828 1.394 . S
C830 C831 1.369 . S
C830 C834 1.531 . S
C831 C830 1.369 . S
C831 C832 1.410 . S
C831 C839 1.503 . S
C832 C831 1.410 . S
C832 C833 1.392 . S
C832 C835 1.511 . S
C833 C829 1.376 . S
C833 C832 1.392 . S
C833 H845 0.929 . S
C834 C830 1.531 . S
C834 H846 0.960 . S
C834 H847 0.962 . S
C834 H848 0.960 . S
C835 C832 1.511 . S
C835 H849 0.961 . S
C835 H850 0.961 . S
C835 H851 0.961 . S
C836 C837 1.370 . S
C836 C838 1.363 . S
C836 H852 0.931 . S
C837 C836 1.370 . S
C837 C841 1.408 . S
C838 C836 1.363 . S
C838 C839 1.370 . S
C838 C842 1.524 . S
C839 C831 1.503 . S
C839 C838 1.370 . S
C839 C840 1.403 . S
C840 C839 1.403 . S
C840 C841 1.404 . S
C840 C843 1.539 . S
C841 C837 1.408 . S
C841 C840 1.404 . S
C841 H853 0.930 . S
C842 C838 1.524 . S
C842 H854 0.956 . S
C842 H855 0.961 . S
C842 H856 0.961 . S
C843 C840 1.539 . S
C843 H857 0.958 . S
C843 H858 0.961 . S
C843 H859 0.960 . S
H844 C828 0.931 . S
H845 C833 0.929 . S
H846 C834 0.960 . S
H847 C834 0.962 . S
H848 C834 0.960 . S
H849 C835 0.961 . S
H850 C835 0.961 . S
H851 C835 0.961 . S
H852 C836 0.931 . S
H853 C841 0.930 . S
H854 C842 0.956 . S
H855 C842 0.961 . S
H856 C842 0.961 . S
H857 C843 0.958 . S
H858 C843 0.961 . S
H859 C843 0.960 . S
C860 C861 1.391 . S
C860 C862 1.394 . S
C860 H876 0.931 . S
C861 C860 1.391 . S
C861 C865 1.376 . S
C862 C860 1.394 . S
C862 C863 1.369 . S
C862 C866 1.531 . S
C863 C862 1.369 . S
C863 C864 1.410 . S
C863 C871 1.503 . S
C864 C863 1.410 . S
C864 C865 1.392 . S
C864 C867 1.511 . S
C865 C861 1.376 . S
C865 C864 1.392 . S
C865 H877 0.929 . S
C866 C862 1.531 . S
C866 H878 0.960 . S
C866 H879 0.962 . S
C866 H880 0.960 . S
C867 C864 1.511 . S
C867 H881 0.961 . S
C867 H882 0.961 . S
C867 H883 0.961 . S
C868 C869 1.370 . S
C868 C870 1.363 . S
C868 H884 0.931 . S
C869 C868 1.370 . S
C869 C873 1.408 . S
C870 C868 1.363 . S
C870 C871 1.370 . S
C870 C874 1.524 . S
C871 C863 1.503 . S
C871 C870 1.370 . S
C871 C872 1.403 . S
C872 C871 1.403 . S
C872 C873 1.404 . S
C872 C875 1.539 . S
C873 C869 1.408 . S
C873 C872 1.404 . S
C873 H885 0.930 . S
C874 C870 1.524 . S
C874 H886 0.956 . S
C874 H887 0.961 . S
C874 H888 0.961 . S
C875 C872 1.539 . S
C875 H889 0.958 . S
C875 H890 0.961 . S
C875 H891 0.960 . S
H876 C860 0.931 . S
H877 C865 0.929 . S
H878 C866 0.960 . S
H879 C866 0.962 . S
H880 C866 0.960 . S
H881 C867 0.961 . S
H882 C867 0.961 . S
H883 C867 0.961 . S
H884 C868 0.931 . S
H885 C873 0.930 . S
H886 C874 0.956 . S
H887 C874 0.961 . S
H888 C874 0.961 . S
H889 C875 0.958 . S
H890 C875 0.961 . S
H891 C875 0.960 . S
C892 C893 1.391 . S
C892 C894 1.394 . S
C892 H908 0.931 . S
C893 C892 1.391 . S
C893 C897 1.376 . S
C894 C892 1.394 . S
C894 C895 1.369 . S
C894 C898 1.531 . S
C895 C894 1.369 . S
C895 C896 1.410 . S
C895 C903 1.503 . S
C896 C895 1.410 . S
C896 C897 1.392 . S
C896 C899 1.511 . S
C897 C893 1.376 . S
C897 C896 1.392 . S
C897 H909 0.929 . S
C898 C894 1.531 . S
C898 H910 0.960 . S
C898 H911 0.962 . S
C898 H912 0.960 . S
C899 C896 1.511 . S
C899 H913 0.961 . S
C899 H914 0.961 . S
C899 H915 0.961 . S
C900 C901 1.370 . S
C900 C902 1.363 . S
C900 H916 0.931 . S
C901 C900 1.370 . S
C901 C905 1.408 . S
C902 C900 1.363 . S
C902 C903 1.370 . S
C902 C906 1.524 . S
C903 C895 1.503 . S
C903 C902 1.370 . S
C903 C904 1.403 . S
C904 C903 1.403 . S
C904 C905 1.404 . S
C904 C907 1.539 . S
C905 C901 1.408 . S
C905 C904 1.404 . S
C905 H917 0.930 . S
C906 C902 1.524 . S
C906 H918 0.956 . S
C906 H919 0.961 . S
C906 H920 0.961 . S
C907 C904 1.539 . S
C907 H921 0.958 . S
C907 H922 0.961 . S
C907 H923 0.960 . S
H908 C892 0.931 . S
H909 C897 0.929 . S
H910 C898 0.960 . S
H911 C898 0.962 . S
H912 C898 0.960 . S
H913 C899 0.961 . S
H914 C899 0.961 . S
H915 C899 0.961 . S
H916 C900 0.931 . S
H917 C905 0.930 . S
H918 C906 0.956 . S
H919 C906 0.961 . S
H920 C906 0.961 . S
H921 C907 0.958 . S
H922 C907 0.961 . S
H923 C907 0.960 . S
C157 C5 1.590 . S
C165 C68 1.589 . S
C189 C17 1.585 . S
C197 C62 1.569 . S
C221 C70 1.565 . S
C229 C30 1.581 . S
C253 C42 1.597 . S
C261 C56 1.580 . S
C285 C96 1.564 . S
C293 C36 1.581 . S
C317 C82 1.596 . S
C325 C44 1.585 . S
C349 C3 1.581 . S
C357 C94 1.594 . S
C381 C88 1.586 . S
C389 C23 1.568 . S
C413 C122 1.590 . S
C421 C107 1.596 . S
C445 C109 1.592 . S
C453 C153 1.576 . S
C477 C120 1.571 . S
C485 C140 1.585 . S
C509 C134 1.573 . S
C517 C147 1.567 . S
C541 C148 1.580 . S
C549 C83 1.595 . S
C573 C108 1.568 . S
C581 C101 1.575 . S
C605 C81 1.567 . S
C613 C121 1.580 . S
C637 C95 1.566 . S
C645 C133 1.596 . S
C669 C57 1.562 . S
C677 C127 1.582 . S
C701 C75 1.595 . S
C709 C135 1.586 . S
C733 C146 1.596 . S
C741 C55 1.587 . S
C765 C114 1.582 . S
C773 C69 1.570 . S
C797 C16 1.582 . S
C805 C31 1.600 . S
C829 C10 1.569 . S
C837 C18 1.588 . S
C861 C29 1.590 . S
C869 C49 1.576 . S
C893 C4 1.560 . S
C901 C43 1.572 . S
