# Generated by pormake.
# Topology snp, (6)-cn, num edge types: 1
# Building blocks:
#     Node 0, Type 0, BuildingBlock: KUMBOL_clean_sbu_1, # of connection points: 6
#     Node 1, Type 0, BuildingBlock: KUMBOL_clean_sbu_1, # of connection points: 6
#     Node 2, Type 0, BuildingBlock: KUMBOL_clean_sbu_1, # of connection points: 6
#     Node 3, Type 0, BuildingBlock: KUMBOL_clean_sbu_1, # of connection points: 6
#     Edge 4, Type (0, 0), BuildingBlock: TEMPAE_clean_linker_10, # of connection points: 2
#     Edge 5, Type (0, 0), BuildingBlock: TEMPAE_clean_linker_10, # of connection points: 2
#     Edge 6, Type (0, 0), BuildingBlock: TEMPAE_clean_linker_10, # of connection points: 2
#     Edge 7, Type (0, 0), BuildingBlock: TEMPAE_clean_linker_10, # of connection points: 2
#     Edge 8, Type (0, 0), BuildingBlock: TEMPAE_clean_linker_10, # of connection points: 2
#     Edge 9, Type (0, 0), BuildingBlock: TEMPAE_clean_linker_10, # of connection points: 2
#     Edge 10, Type (0, 0), BuildingBlock: TEMPAE_clean_linker_10, # of connection points: 2
#     Edge 11, Type (0, 0), BuildingBlock: TEMPAE_clean_linker_10, # of connection points: 2
#     Edge 12, Type (0, 0), BuildingBlock: TEMPAE_clean_linker_10, # of connection points: 2
#     Edge 13, Type (0, 0), BuildingBlock: TEMPAE_clean_linker_10, # of connection points: 2
#     Edge 14, Type (0, 0), BuildingBlock: TEMPAE_clean_linker_10, # of connection points: 2
#     Edge 15, Type (0, 0), BuildingBlock: TEMPAE_clean_linker_10, # of connection points: 2
# Relax obj value: 0.189
# Max RMSD: 0.243
# Mean RMSD: 0.243
data_MOF--net-snp--node1-KUMBOL_clean_sbu_1--edge1-TEMPAE_clean_linker_10
_symmetry_space_group_name_H-M    P1
_symmetry_Int_Tables_number       1
_symmetry_cell_setting            triclinic
loop_
_symmetry_equiv_pos_as_xyz
'x, y, z'
_cell_length_a     25.118259
_cell_length_b     25.028842
_cell_length_c     33.670002
_cell_angle_alpha  110.20925
_cell_angle_beta   69.985041
_cell_angle_gamma 154.91751
loop_
_atom_site_label
_atom_site_type_symbol
_atom_site_fract_x
_atom_site_fract_y
_atom_site_fract_z
_atom_type_partial_charge
C0 C 0.70482 0.32075 0.23524 0.0
C1 C 0.89478 0.49012 0.26987 0.0
C2 C 0.82458 0.44809 0.24468 0.0
C3 C 0.83797 0.40088 0.28814 0.0
C4 C 0.64446 0.23085 0.25527 0.0
C5 C 0.71184 0.27151 0.28172 0.0
N6 N 0.64483 0.28565 0.20846 0.0
C7 C 0.5258 0.16159 0.199 0.0
C8 C 0.51685 0.1039 0.24948 0.0
C9 C 0.45744 0.06879 0.22079 0.0
Gd10 Gd 0.88612 0.66113 0.11612 0.0
Gd11 Gd 0.71517 0.43696 0.20676 0.0
N12 N 0.86997 0.53045 0.23035 0.0
C13 C 0.01817 0.62043 0.27696 0.0
C14 C -0.01042 0.658 0.23788 0.0
C15 C 0.06633 0.70468 0.26034 0.0
H16 H 0.02588 0.72452 0.2274 0.0
H17 H 0.16108 0.80563 0.26606 0.0
H18 H 0.78975 0.70657 0.13727 0.0
H19 H 0.48264 0.13682 0.1766 0.0
H20 H 0.84448 0.85257 0.18379 0.0
H21 H 0.07613 0.65691 0.29569 0.0
H22 H 0.88943 0.43117 0.30824 0.0
H23 H 0.11687 0.77804 0.11938 0.0
H24 H 0.46501 0.03203 0.26561 0.0
H25 H 0.36029 -0.02973 0.21505 0.0
H26 H 0.19382 0.13509 0.25292 0.0
H27 H 0.6675 0.20391 0.29722 0.0
H28 H 0.34481 0.07968 0.21671 0.0
H29 H 0.28301 0.93103 0.16481 0.0
N30 N 0.07026 0.82418 0.1481 0.0
C31 C 0.10991 0.9119 0.17312 0.0
C32 C 0.13698 0.8363 0.143 0.0
C33 C 0.27076 0.01139 0.19653 0.0
C34 C 0.23549 0.92727 0.16804 0.0
C35 C 0.21021 0.00671 0.19845 0.0
H36 H 0.31908 0.16186 0.24572 0.0
N37 N 0.94149 0.80345 0.15351 0.0
C38 C 0.0459 0.90335 0.17504 0.0
C39 C 0.00315 -0.03444 0.20651 0.0
C40 C 0.07786 -0.01417 0.20296 0.0
C41 C 0.87299 0.78771 0.15437 0.0
C42 C 0.90314 0.86923 0.18091 0.0
O43 O 0.62648 0.32134 0.14183 0.0
O44 O 0.73022 0.4579 0.09528 0.0
O45 O 0.02089 0.79208 0.06695 0.0
O46 O 0.83408 0.65143 0.06794 0.0
O47 O 0.88852 0.57425 0.16343 0.0
O48 O 0.90544 0.57882 0.09557 0.0
O49 O 0.82582 0.65979 0.18676 0.0
O50 O 0.85236 0.63293 0.23085 0.0
O51 O 0.69396 0.44015 0.2755 0.0
O52 O 0.53621 0.30672 0.24182 0.0
O53 O 0.68859 0.51115 0.13609 0.0
O54 O 0.59854 0.39411 0.18844 0.0
C55 C 0.64416 0.34671 0.10481 0.0
C56 C 0.89346 0.54268 0.12447 0.0
C57 C -0.02137 0.78067 1.00661 0.0
C58 C 0.0557 0.89496 0.9522 0.0
C59 C 0.03533 0.77282 0.93389 0.0
C60 C -0.00656 0.74042 0.97514 0.0
C61 C 0.06634 0.84852 0.923 0.0
C62 C 0.00574 0.85498 0.99468 0.0
C63 C 0.94863 0.75528 0.05189 0.0
C64 C 0.17503 0.07751 0.22922 0.0
C65 C 0.24301 0.08985 0.22612 0.0
H66 H 0.01575 0.01701 0.23127 0.0
C67 C 0.86326 0.69016 0.22253 0.0
C68 C 0.59746 0.4237 0.16318 0.0
C69 C 0.48954 0.23608 0.30189 0.0
C70 C 0.45461 0.14289 0.34441 0.0
C71 C 0.27678 0.01974 0.32069 0.0
C72 C 0.35853 0.1233 0.3021 0.0
C73 C 0.32411 0.02871 0.34135 0.0
C74 C 0.53727 0.24753 0.3251 0.0
C75 C 0.57301 0.33931 0.27765 0.0
H76 H 0.04508 0.73963 0.90988 0.0
H77 H -0.02616 0.68453 0.98264 0.0
H78 H 0.09476 0.86664 0.89041 0.0
H79 H -0.01061 0.88197 1.0184 0.0
H80 H 0.17606 0.93238 0.31949 0.0
H81 H 0.31818 0.11396 0.28771 0.0
H82 H 0.25752 0.94734 0.3566 0.0
H83 H 0.6378 0.33597 0.32746 0.0
C84 C 0.11734 0.34838 0.61143 0.0
C85 C -0.00928 0.31382 0.6129 0.0
C86 C 0.10018 0.37814 0.59798 0.0
C87 C 0.91399 0.24006 0.64731 0.0
C88 C 0.03778 0.27047 0.64512 0.0
C89 C 0.94076 0.22266 0.66459 0.0
N90 N 0.19985 0.38088 0.58777 0.0
C91 C 0.18044 0.31049 0.59016 0.0
C92 C 0.04936 0.23169 0.65492 0.0
C93 C 0.11327 0.24314 0.62532 0.0
Gd94 Gd 0.66866 0.81454 0.61212 0.0
Gd95 Gd 0.3552 0.54808 0.54251 0.0
N96 N 0.182 0.45797 0.5668 0.0
C97 C -0.04193 0.32008 0.59133 0.0
C98 C 0.15059 0.46606 0.54682 0.0
C99 C 0.03878 0.39703 0.55817 0.0
H100 H 0.20707 0.51991 0.52043 0.0
H101 H 0.01495 0.40316 0.54115 0.0
H102 H 0.63173 0.64813 0.61098 0.0
H103 H 0.21029 0.29988 0.56428 0.0
H104 H 0.71519 0.62916 0.57 0.0
H105 H 0.87142 0.26668 0.60018 0.0
H106 H 0.83206 0.19351 0.66003 0.0
H107 H 0.83878 0.06137 0.57943 0.0
H108 H -0.0022 0.18001 0.68219 0.0
H109 H 0.10588 0.19527 0.62849 0.0
H110 H 0.05825 -0.02703 0.48204 0.0
H111 H 0.87894 0.16261 0.69037 0.0
H112 H 0.10812 0.20671 0.48212 0.0
H113 H 0.01008 0.21281 0.52829 0.0
N114 N 0.84591 -0.02095 0.56882 0.0
C115 C 0.90992 -0.01334 0.5489 0.0
C116 C 0.88219 0.06003 0.56168 0.0
C117 C 0.03684 0.14531 0.5073 0.0
C118 C -0.02091 0.14534 0.53142 0.0
C119 C 0.00405 0.06708 0.51657 0.0
H120 H 0.12399 0.11804 0.4667 0.0
N121 N 0.76036 0.80686 0.58163 0.0
C122 C 0.86688 0.89889 0.55598 0.0
C123 C 0.86722 0.79711 0.53772 0.0
C124 C 0.92034 0.89352 0.53218 0.0
C125 C 0.70977 0.71436 0.58799 0.0
C126 C 0.76031 0.70626 0.56553 0.0
O127 O 0.35209 0.60784 0.61098 0.0
O128 O 0.46323 0.65017 0.63591 0.0
O129 O 0.77984 -0.04299 0.66596 0.0
O130 O 0.70134 0.80503 0.66058 0.0
O131 O 0.54709 0.7588 0.55592 0.0
O132 O 0.64079 0.88257 0.61488 0.0
O133 O 0.66565 0.75935 0.53975 0.0
O134 O 0.5564 0.71154 0.5073 0.0
O135 O 0.35302 0.57933 0.49039 0.0
O136 O 0.25346 0.41295 0.48731 0.0
O137 O 0.47895 0.6036 0.60525 0.0
O138 O 0.40343 0.50205 0.54016 0.0
C139 C 0.40081 0.64184 0.64293 0.0
C140 C 0.57961 0.83517 0.58447 0.0
C141 C 0.79749 0.94258 0.72709 0.0
C142 C 0.8926 0.00485 0.78534 0.0
C143 C 0.77772 -0.00922 0.79975 0.0
C144 C 0.75717 -0.04142 0.75699 0.0
C145 C 0.8436 0.01307 0.81371 0.0
C146 C 0.86468 -0.03535 0.74167 0.0
C147 C 0.77722 0.91274 0.68079 0.0
C148 C 0.01819 -0.0221 0.50136 0.0
C149 C 0.05759 0.06221 0.49298 0.0
H150 H 0.90728 0.79169 0.52009 0.0
C151 C 0.648 0.75772 0.50617 0.0
C152 C 0.45088 0.53467 0.57218 0.0
C153 C 0.16907 0.39454 0.4513 0.0
C154 C 0.08006 0.37465 0.41641 0.0
C155 C 0.94384 0.19169 0.44314 0.0
C156 C 0.04873 0.26358 0.45386 0.0
C157 C -0.04108 0.24733 0.42523 0.0
C158 C 0.18551 0.44955 0.43043 0.0
C159 C 0.27608 0.47143 0.46926 0.0
H160 H 0.74343 0.00017 0.8224 0.0
H161 H 0.70852 0.94533 0.7473 0.0
H162 H 0.85615 0.03726 0.84734 0.0
H163 H 0.89682 0.95299 0.71924 0.0
H164 H 0.85144 0.09107 0.44658 0.0
H165 H 0.03577 0.21513 0.46251 0.0
H166 H 0.87672 0.18729 0.41427 0.0
H167 H 0.27924 0.54792 0.42384 0.0
C168 C 0.46302 0.56037 0.0389 0.0
C169 C 0.49388 0.48917 0.03118 0.0
C170 C 0.51504 0.56669 0.05221 0.0
C171 C 0.42001 0.40569 0.99631 0.0
C172 C 0.40346 0.48884 1.00044 0.0
C173 C 0.38048 0.41018 0.9798 0.0
N174 N 0.47552 0.628 0.06212 0.0
C175 C 0.42575 0.62262 0.04789 0.0
C176 C 0.37367 0.50275 0.98317 0.0
C177 C 0.3891 0.57364 1.00655 0.0
Gd178 Gd 0.907 0.11701 0.05579 0.0
Gd179 Gd 0.62965 0.78479 0.11301 0.0
N180 N 0.59475 0.65594 0.08342 0.0
C181 C 0.55621 0.50558 0.04347 0.0
C182 C 0.66414 0.67998 0.09311 0.0
C183 C 0.64493 0.60425 0.07348 0.0
H184 H 0.73384 0.75727 0.11618 0.0
H185 H 0.69874 0.62195 0.08088 0.0
H186 H 0.92032 0.2697 0.0627 0.0
H187 H 0.41561 0.65757 0.06699 0.0
H188 H 0.05339 0.47205 0.09524 0.0
H189 H 0.5429 0.44827 0.02802 0.0
H190 H 0.40111 0.34407 0.9798 0.0
H191 H 0.13675 0.21938 0.03411 0.0
H192 H 0.34079 0.4613 0.95181 0.0
H193 H 0.37404 0.59178 0.99255 0.0
H194 H 0.3036 0.63278 0.18375 0.0
H195 H 0.3328 0.35254 0.95106 0.0
H196 H 0.30669 0.43076 0.15187 0.0
H197 H 0.27978 0.33139 0.08302 0.0
N198 N 0.10486 0.2769 0.07343 0.0
C199 C 0.14829 0.36155 0.10491 0.0
C200 C 0.1657 0.28049 0.06093 0.0
C201 C 0.26386 0.40221 0.12744 0.0
C202 C 0.24196 0.33898 0.08947 0.0
C203 C 0.2319 0.42926 0.13254 0.0
H204 H 0.33754 0.56842 0.18726 0.0
N205 N 0.0067 0.29376 0.08913 0.0
C206 C 0.10578 0.37726 0.11033 0.0
C207 C 0.15176 0.51852 0.12981 0.0
C208 C 0.17173 0.48437 0.1349 0.0
C209 C -0.01327 0.32641 0.08382 0.0
C210 C 0.06426 0.4429 0.10183 0.0
O211 O 0.73764 0.83027 0.04997 0.0
O212 O 0.80473 0.94756 1.01141 0.0
O213 O 0.88037 0.13798 1.01299 0.0
O214 O 0.03135 0.21204 0.99793 0.0
O215 O 0.8172 0.91989 0.08829 0.0
O216 O 0.95471 0.11495 0.10183 0.0
O217 O 0.83817 0.11492 0.12089 0.0
O218 O 0.72945 -0.04391 0.15187 0.0
O219 O 0.50048 0.64632 0.15758 0.0
O220 O 0.69314 0.82872 0.17046 0.0
O221 O 0.69827 0.91943 0.05755 0.0
O222 O 0.56987 0.82075 0.1153 0.0
C223 C 0.74924 0.85061 1.01372 0.0
C224 C 0.91219 0.03036 0.10763 0.0
C225 C 0.05811 0.31643 0.97493 0.0
C226 C 0.10777 0.41768 0.92905 0.0
C227 C 0.2176 0.53324 0.99303 0.0
C228 C 0.14978 0.42873 1.00138 0.0
C229 C 0.19849 0.5288 0.95695 0.0
C230 C 0.03612 0.31043 0.93885 0.0
C231 C -0.02278 0.20243 0.98721 0.0
C232 C 0.25669 0.55412 0.16266 0.0
C233 C 0.27914 0.51986 0.16366 0.0
H234 H 0.20561 0.60427 0.14615 0.0
C235 C 0.79262 0.06047 0.15413 0.0
C236 C 0.62092 0.88568 0.08553 0.0
C237 C 0.54397 0.69037 0.22853 0.0
C238 C 0.49652 0.61343 0.29038 0.0
C239 C 0.45682 0.67658 0.29637 0.0
C240 C 0.50043 0.70526 0.25417 0.0
C241 C 0.45291 0.6298 0.31395 0.0
C242 C 0.54446 0.64701 0.24725 0.0
C243 C 0.58282 0.71421 0.18209 0.0
H244 H 0.28851 0.61961 1.01391 0.0
H245 H 0.17065 0.43671 0.02847 0.0
H246 H 0.25892 0.61486 0.95035 0.0
H247 H -0.03692 0.22237 0.91884 0.0
H248 H 0.42259 0.68791 0.31554 0.0
H249 H 0.4989 0.73808 0.24142 0.0
H250 H 0.41297 0.60469 0.34622 0.0
H251 H 0.58337 0.64082 0.22836 0.0
C252 C 0.57318 0.36212 0.66023 0.0
C253 C 0.49479 0.38903 0.69146 0.0
C254 C 0.5842 0.42951 0.6656 0.0
C255 C 0.39318 0.27919 0.71212 0.0
C256 C 0.46883 0.24938 0.67946 0.0
C257 C 0.38008 0.20956 0.70598 0.0
N258 N 0.66348 0.40598 0.63576 0.0
C259 C 0.64758 0.33476 0.62497 0.0
C260 C 0.45598 0.17931 0.6706 0.0
C261 C 0.54586 0.22245 0.643 0.0
Gd262 Gd 0.07579 0.77688 0.69836 0.0
Gd263 Gd 0.83963 0.60689 0.61551 0.0
N264 N 0.68912 0.54131 0.6485 0.0
C265 C 0.51876 0.4685 0.6997 0.0
C266 C 0.708 0.61415 0.65337 0.0
C267 C 0.62346 0.57947 0.67945 0.0
H268 H 0.79151 0.70199 0.63886 0.0
H269 H 0.6421 0.64093 0.68547 0.0
H270 H 0.80969 0.46751 0.71932 0.0
H271 H 0.71186 0.36276 0.60234 0.0
H272 H 0.75467 0.35949 0.76344 0.0
H273 H 0.46224 0.44953 0.72405 0.0
H274 H 0.32451 0.24743 0.73304 0.0
H275 H 0.36274 -0.01451 0.65137 0.0
H276 H 0.37527 0.09093 0.68426 0.0
H277 H 0.5399 0.17172 0.63458 0.0
H278 H 0.15434 0.68135 0.80727 0.0
H279 H 0.29897 0.12382 0.72136 0.0
H280 H 0.52577 0.07511 0.74264 0.0
H281 H 0.55345 0.13093 0.68023 0.0
N282 N 0.23803 0.86061 0.6977 0.0
C283 C 0.22065 0.8223 0.72872 0.0
C284 C 0.35404 -0.03513 0.67847 0.0
C285 C 0.44429 0.01398 0.73028 0.0
C286 C 0.46002 0.04523 0.6948 0.0
C287 C 0.32216 0.89687 0.74617 0.0
H288 H 0.37391 0.90034 0.78845 0.0
N289 N 0.00801 0.64182 0.72394 0.0
C290 C 0.09948 0.70351 0.74041 0.0
C291 C 0.94678 0.52264 0.776 0.0
C292 C 0.07261 0.64843 0.76782 0.0
C293 C 0.8846 0.51881 0.7319 0.0
C294 C 0.85247 0.45686 0.75733 0.0
O295 O 0.81882 0.63589 0.68819 0.0
O296 O 0.86675 0.60734 0.7111 0.0
O297 O 0.06615 0.79328 0.76708 0.0
O298 O 0.16248 0.93299 0.73714 0.0
O299 O 0.94858 0.7688 0.66499 0.0
O300 O 0.13778 0.90671 0.67621 0.0
O301 O 0.18101 0.8623 0.63274 0.0
O302 O 0.04115 0.7649 0.59159 0.0
O303 O 0.72309 0.49091 0.56238 0.0
O304 O 0.87039 0.68578 0.57476 0.0
O305 O 0.92193 0.59815 0.65838 0.0
O306 O 0.91664 0.58285 0.59124 0.0
C307 C 0.81481 0.61033 0.71879 0.0
C308 C 0.07082 0.88251 0.66534 0.0
C309 C 0.2658 0.00498 0.79043 0.0
C310 C 0.36665 0.06745 0.84258 0.0
C311 C 0.49202 0.22026 0.79678 0.0
C312 C 0.38364 0.12919 0.77819 0.0
C313 C 0.48339 0.1903 0.82945 0.0
C314 C 0.25986 -0.02657 0.8213 0.0
C315 C 0.14981 0.9077 0.7709 0.0
C316 C 0.17249 0.72104 0.78572 0.0
C317 C 0.29735 0.84608 0.77534 0.0
H318 H 0.92162 0.47559 0.79644 0.0
C319 C 0.15294 0.84895 0.59818 0.0
C320 C 0.94816 0.58876 0.61924 0.0
C321 C 0.79215 0.58709 0.50549 0.0
C322 C 0.72423 0.54352 0.44131 0.0
C323 C 0.92649 0.67859 0.44064 0.0
C324 C 0.90229 0.66025 0.48241 0.0
C325 C 0.84154 0.62422 0.42084 0.0
C326 C 0.70211 0.52774 0.48488 0.0
C327 C 0.77666 0.57977 0.55151 0.0
H328 H 0.58178 0.31568 0.78716 0.0
H329 H 0.39231 0.15783 0.7553 0.0
H330 H 0.56676 0.26408 0.84567 0.0
H331 H 0.1714 0.87728 0.82998 0.0
H332 H 0.01377 0.73808 0.42345 0.0
H333 H -0.02939 0.70443 0.49695 0.0
H334 H 0.87429 0.65236 0.38947 0.0
H335 H 0.61739 0.47197 0.50301 0.0
C336 C 0.04051 0.1252 0.15875 0.0
C337 C -0.00122 0.07225 0.11829 0.0
C338 C 0.13332 0.17638 0.1675 0.0
C339 C 0.19134 0.18155 0.13356 0.0
C340 C 0.15095 0.13257 0.09201 0.0
C341 C 0.04723 0.06773 0.08601 0.0
C342 C 0.16846 0.22778 0.21306 0.0
C343 C 0.22872 0.16838 0.05233 0.0
C344 C 0.49626 0.4215 0.17091 0.0
C345 C 0.48491 0.35327 0.16308 0.0
C346 C 0.40662 0.37 0.15819 0.0
C347 C 0.29631 0.24248 0.14084 0.0
C348 C 0.29136 0.17753 0.12952 0.0
C349 C 0.38523 0.2337 0.14154 0.0
C350 C 0.44087 0.45885 0.1575 0.0
C351 C 0.19853 0.05686 0.10079 0.0
H352 H 0.001 0.12722 0.18352 0.0
H353 H 0.01593 0.02937 0.05433 0.0
H354 H 0.22534 0.24758 0.22053 0.0
H355 H 0.21821 0.31382 0.22069 0.0
H356 H 0.08247 0.16134 0.23513 0.0
H357 H 0.23269 0.1947 0.0294 0.0
H358 H 0.32565 0.24694 0.05833 0.0
H359 H 0.18152 0.08578 0.03586 0.0
H360 H 0.58156 0.51978 0.18368 0.0
H361 H 0.38521 0.18759 0.13164 0.0
H362 H 0.396 0.45178 0.18504 0.0
H363 H 0.41226 0.43817 0.12822 0.0
H364 H 0.54342 0.55823 0.15917 0.0
H365 H 0.1054 -0.00634 0.10442 0.0
H366 H 0.18905 0.0066 0.10498 0.0
H367 H 0.23748 0.08001 0.06768 0.0
C368 C 0.06438 -0.0332 0.6511 0.0
C369 C 0.13166 -0.02113 0.64834 0.0
C370 C 0.11075 0.04507 0.63032 0.0
C371 C 0.23445 0.14839 0.6105 0.0
C372 C 0.30098 0.15771 0.60594 0.0
C373 C 0.24742 0.07139 0.62456 0.0
C374 C 0.02476 0.01377 0.62915 0.0
C375 C 0.42529 0.25353 0.58014 0.0
C376 C 0.38592 0.37398 0.54814 0.0
C377 C 0.41282 0.44808 0.58075 0.0
C378 C 0.32964 0.2769 0.55677 0.0
C379 C 0.29742 0.25241 0.59963 0.0
C380 C 0.32222 0.32649 0.63278 0.0
C381 C 0.38359 0.42554 0.62284 0.0
C382 C 0.3007 0.19897 0.51945 0.0
C383 C 0.27487 0.29753 0.67877 0.0
H384 H -0.02601 0.89464 0.66914 0.0
H385 H 0.29708 0.07733 0.62073 0.0
H386 H 0.05464 0.05598 0.60282 0.0
H387 H 0.92703 0.91006 0.62606 0.0
H388 H 0.02183 0.04708 0.65933 0.0
H389 H 0.47725 0.26866 0.58881 0.0
H390 H 0.40705 0.21498 0.54652 0.0
H391 H 0.48567 0.34545 0.58284 0.0
H392 H 0.40346 0.38864 0.516 0.0
H393 H 0.39977 0.47952 0.6485 0.0
H394 H 0.3875 0.2513 0.5071 0.0
H395 H 0.27356 0.18706 0.49278 0.0
H396 H 0.22561 0.10461 0.52744 0.0
H397 H 0.18543 0.24109 0.68507 0.0
H398 H 0.33811 0.38493 0.70017 0.0
H399 H 0.26084 0.24674 0.68804 0.0
C400 C 0.59834 -0.0291 0.12782 0.0
C401 C 0.62062 0.94719 0.08901 0.0
C402 C 0.62507 0.05218 0.13218 0.0
C403 C 0.68593 0.12209 0.09812 0.0
C404 C 0.69334 0.08441 0.05733 0.0
C405 C 0.65519 -0.00609 0.05347 0.0
C406 C 0.58312 0.0578 0.1736 0.0
C407 C 0.75154 0.14541 1.01751 0.0
C408 C 0.77714 0.34746 0.08186 0.0
C409 C 0.85345 0.44429 0.11478 0.0
C410 C 0.71056 0.23701 0.07979 0.0
C411 C 0.74208 0.23277 0.10503 0.0
C412 C 0.8315 0.33891 0.13603 0.0
C413 C 0.88284 0.43991 0.14071 0.0
C414 C 0.59895 0.12252 0.053 0.0
C415 C 0.87213 0.34771 0.16631 0.0
H416 H 0.56258 0.92833 0.1553 0.0
H417 H 0.65942 -0.03512 0.02239 0.0
H418 H 0.60274 0.11832 0.17292 0.0
H419 H 0.48022 -0.03898 0.18015 0.0
H420 H 0.63076 0.09332 0.1995 0.0
H421 H 0.67622 0.08613 0.99949 0.0
H422 H 0.82116 0.24302 0.02433 0.0
H423 H 0.80008 0.15 0.99581 0.0
H424 H 0.76471 0.35494 0.05841 0.0
H425 H 0.94947 0.51806 0.16436 0.0
H426 H 0.54535 0.0366 0.05458 0.0
H427 H 0.62954 0.14481 1.01957 0.0
H428 H 0.53209 0.09858 0.06453 0.0
H429 H 0.817 0.31571 0.19698 0.0
H430 H -0.02821 0.44741 0.17338 0.0
H431 H 0.85843 0.28887 0.15474 0.0
C432 C 0.47342 0.83147 0.62896 0.0
C433 C 0.51102 0.82694 0.58915 0.0
C434 C 0.38369 0.79343 0.63398 0.0
C435 C 0.32735 0.74854 0.59835 0.0
C436 C 0.37493 0.75443 0.55715 0.0
C437 C 0.4656 0.79379 0.55348 0.0
C438 C 0.35339 0.80439 0.67837 0.0
C439 C 0.33129 0.7184 0.51607 0.0
C440 C 0.01923 0.56371 0.63094 0.0
C441 C 0.03823 0.61938 0.60921 0.0
C442 C 0.1086 0.60132 0.62786 0.0
C443 C 0.22666 0.70362 0.60339 0.0
C444 C 0.24795 0.76373 0.58307 0.0
C445 C 0.15002 0.71315 0.58271 0.0
C446 C 0.07569 0.53438 0.6539 0.0
C447 C 0.37857 0.89118 0.56612 0.0
H448 H 0.50951 0.85893 0.65676 0.0
H449 H 0.49884 0.79529 0.52225 0.0
H450 H 0.30078 0.79424 0.67866 0.0
H451 H 0.2979 0.73105 0.6963 0.0
H452 H 0.44166 0.89731 0.69453 0.0
H453 H 0.3398 0.68424 0.49001 0.0
H454 H 0.23273 0.64513 0.51981 0.0
H455 H 0.39367 0.80255 0.50425 0.0
H456 H 0.93246 0.48865 0.65059 0.0
H457 H 0.16546 0.75316 0.56332 0.0
H458 H 0.1307 0.54376 0.6428 0.0
H459 H -0.02656 0.43307 0.65441 0.0
H460 H 0.09285 0.57343 0.68746 0.0
H461 H 0.44864 0.92054 0.56159 0.0
H462 H 0.41995 -0.03525 0.59025 0.0
H463 H 0.37427 0.89625 0.53623 0.0
C464 C 0.78631 0.88637 0.44071 0.0
C465 C 0.73284 0.80736 0.46573 0.0
C466 C 0.86267 0.92792 0.40239 0.0
C467 C 0.87522 0.87881 0.38524 0.0
C468 C 0.83789 0.81608 0.41423 0.0
C469 C 0.76609 0.77968 0.4529 0.0
C470 C 0.9451 0.03877 0.38415 0.0
C471 C 0.88553 0.80049 0.40873 0.0
C472 C 0.83689 0.77181 0.26568 0.0
C473 C 0.89917 0.77599 0.25789 0.0
C474 C 0.84801 0.82854 0.30405 0.0
C475 C 0.91492 0.88214 0.33751 0.0
C476 C 0.00366 0.91636 0.32419 0.0
C477 C -0.00932 0.85794 0.28597 0.0
C478 C 0.79119 0.83303 0.30673 0.0
C479 C 0.11815 0.0217 0.34817 0.0
H480 H 0.77376 0.92087 0.45203 0.0
H481 H 0.73359 0.72674 0.47323 0.0
H482 H 0.01812 0.12331 0.40634 0.0
H483 H -0.00163 0.06249 0.3539 0.0
H484 H 0.8896 0.02384 0.38071 0.0
H485 H 0.83715 0.73957 0.43178 0.0
H486 H 0.87895 0.76421 0.37657 0.0
H487 H -0.01435 0.89344 0.41547 0.0
H488 H 0.77226 0.71649 0.24316 0.0
H489 H 0.05029 0.87436 0.27865 0.0
H490 H 0.73592 0.80361 0.33716 0.0
H491 H 0.73256 0.77495 0.28001 0.0
H492 H 0.86708 0.93058 0.30314 0.0
H493 H 0.1166 0.05784 0.37779 0.0
H494 H 0.20333 0.10135 0.32789 0.0
H495 H 0.12725 -0.00987 0.35526 0.0
C496 C 0.23972 0.55949 0.69695 0.0
C497 C 0.35101 0.62718 0.68721 0.0
C498 C 0.17654 0.51768 0.73764 0.0
C499 C 0.22855 0.54796 0.76911 0.0
C500 C 0.34917 0.63071 0.76084 0.0
C501 C 0.40849 0.66867 0.71998 0.0
C502 C 0.05156 0.4358 0.74629 0.0
C503 C 0.41107 0.67094 0.79436 0.0
C504 C 0.13177 0.50388 0.88578 0.0
C505 C 0.09861 0.42053 0.88842 0.0
C506 C 0.16344 0.53892 0.84651 0.0
C507 C 0.154 0.48312 0.80885 0.0
C508 C 0.09964 0.38306 0.81115 0.0
C509 C 0.07489 0.35454 0.85088 0.0
C510 C 0.21878 0.64479 0.84661 0.0
C511 C 0.07961 0.31496 0.77138 0.0
H512 H 0.19815 0.53275 0.67237 0.0
H513 H 0.49709 0.72529 0.71313 0.0
H514 H 0.05184 0.47402 0.77562 0.0
H515 H 0.02874 0.42917 0.71971 0.0
H516 H -0.024 0.33924 0.75157 0.0
H517 H 0.41464 0.71201 0.82369 0.0
H518 H 0.35555 0.58773 0.80254 0.0
H519 H 0.50767 0.74102 0.78363 0.0
H520 H 0.14267 0.54984 0.91448 0.0
H521 H 0.04668 0.28788 0.85201 0.0
H522 H 0.23942 0.66559 0.81446 0.0
H523 H 0.30751 0.73224 0.86299 0.0
H524 H 0.15287 0.62061 0.86503 0.0
H525 H 0.01478 0.26955 0.75201 0.0
H526 H 0.03993 0.24192 0.77838 0.0
H527 H 0.1697 0.38249 0.75187 0.0
C528 C 0.53312 0.43293 0.43459 0.0
C529 C 0.63743 0.49034 0.41696 0.0
C530 C 0.47322 0.40828 0.41084 0.0
C531 C 0.53188 0.46427 0.37202 0.0
C532 C 0.62773 0.50854 0.35381 0.0
C533 C 0.6644 0.50375 0.37364 0.0
C534 C 0.3404 0.30805 0.42435 0.0
C535 C 0.7113 0.58389 0.31726 0.0
C536 C 0.49097 0.50415 0.28798 0.0
C537 C 0.4926 0.56375 0.31155 0.0
C538 C 0.49155 0.46169 0.30693 0.0
C539 C 0.50137 0.48332 0.35167 0.0
C540 C 0.49246 0.53491 0.37575 0.0
C541 C 0.48941 0.57428 0.35595 0.0
C542 C 0.46916 0.38308 0.27752 0.0
C543 C 0.47546 0.5412 0.42299 0.0
H544 H 0.4939 0.40036 0.4655 0.0
H545 H 0.72681 0.52544 0.35536 0.0
H546 H 0.29737 0.28551 0.40168 0.0
H547 H 0.28602 0.22149 0.42583 0.0
H548 H 0.33448 0.33554 0.45648 0.0
H549 H 0.72263 0.63842 0.32041 0.0
H550 H 0.80291 0.64572 0.31631 0.0
H551 H 0.67344 0.5258 0.28724 0.0
H552 H 0.48467 0.48593 0.25412 0.0
H553 H 0.48834 0.61756 0.37612 0.0
H554 H 0.44799 0.33334 0.2942 0.0
H555 H 0.54888 0.44139 0.25318 0.0
H556 H 0.39114 0.31512 0.25887 0.0
H557 H 0.37423 0.44801 0.43189 0.0
H558 H 0.50299 0.61112 0.43595 0.0
H559 H 0.5271 0.56245 0.43749 0.0
C560 C 0.37494 0.11105 0.91996 0.0
C561 C 0.35404 0.04636 0.88326 0.0
C562 C 0.38448 0.11155 0.95848 0.0
C563 C 0.37853 0.05014 0.95981 0.0
C564 C 0.34453 -0.02615 0.92379 0.0
C565 C 0.33156 -0.02794 0.88567 0.0
C566 C 0.41975 0.19414 0.99572 0.0
C567 C 0.33417 0.90469 0.92444 0.0
C568 C 0.63821 0.29724 0.0272 0.0
C569 C 0.57422 0.25198 0.06758 0.0
C570 C 0.576 0.22053 0.99029 0.0
C571 C 0.44384 0.09816 0.99357 0.0
C572 C 0.37997 0.04587 0.03319 0.0
C573 C 0.44618 0.12407 0.0703 0.0
C574 C 0.65071 0.27738 0.94825 0.0
C575 C 0.24214 0.90959 0.03666 0.0
H576 H 0.391 0.16754 0.91809 0.0
H577 H 0.31233 0.91974 0.85742 0.0
H578 H 0.39746 0.16783 0.02645 0.0
H579 H 0.52254 0.29411 0.99243 0.0
H580 H 0.37079 0.18902 0.99609 0.0
H581 H 0.29689 0.84132 0.895 0.0
H582 H 0.42839 -0.02587 0.92784 0.0
H583 H 0.27151 0.84761 0.95213 0.0
H584 H 0.73835 0.39552 0.02428 0.0
H585 H 0.39699 0.08753 0.10111 0.0
H586 H 0.64951 0.31541 0.9398 0.0
H587 H 0.60966 0.20524 0.92255 0.0
H588 H 0.75056 0.3566 0.94982 0.0
H589 H 0.22989 0.85338 0.03411 0.0
H590 H 0.19099 0.8707 1.01147 0.0
H591 H 0.20051 0.89881 0.06797 0.0
C592 C 0.71918 0.71826 0.96993 0.0
C593 C 0.72726 0.78283 0.97278 0.0
C594 C 0.70044 0.65676 0.93113 0.0
C595 C 0.70729 0.67398 0.89195 0.0
C596 C 0.71556 0.7404 0.89553 0.0
C597 C 0.71805 0.78622 0.93552 0.0
C598 C 0.67831 0.57786 0.93314 0.0
C599 C 0.7263 0.77077 0.85844 0.0
C600 C 0.8049 0.62331 0.7972 0.0
C601 C 0.76347 0.59769 0.76302 0.0
C602 C 0.79629 0.65704 0.83795 0.0
C603 C 0.7132 0.63052 0.8484 0.0
C604 C 0.64172 0.56776 0.81464 0.0
C605 C 0.68055 0.56905 0.77243 0.0
C606 C 0.89018 0.73424 0.86622 0.0
C607 C 0.52593 0.5002 0.82143 0.0
H608 H 0.72956 0.71708 0.99805 0.0
H609 H 0.72109 0.83304 0.93719 0.0
H610 H 0.64356 0.51582 0.90373 0.0
H611 H 0.76493 0.64017 0.94193 0.0
H612 H 0.60965 0.51652 0.95897 0.0
H613 H 0.79475 0.86778 0.86421 0.0
H614 H 0.75578 0.76401 0.82813 0.0
H615 H 0.63475 0.70695 0.85603 0.0
H616 H 0.85798 0.63271 0.7916 0.0
H617 H 0.647 0.54928 0.74719 0.0
H618 H 0.90303 0.78591 0.89195 0.0
H619 H -0.01732 0.80402 0.84828 0.0
H620 H 0.85989 0.6721 0.87797 0.0
H621 H 0.49408 0.49194 0.85544 0.0
H622 H 0.44851 0.40403 0.80469 0.0
H623 H 0.54266 0.54767 0.80601 0.0
C624 C 0.43705 0.04744 0.3732 0.0
C625 C 0.49874 0.15258 0.37188 0.0
C626 C 0.4271 0.02591 0.41081 0.0
C627 C 0.48089 0.11206 0.44702 0.0
C628 C 0.56908 0.23177 0.44189 0.0
C629 C 0.57625 0.25087 0.40431 0.0
C630 C 0.34018 0.90082 0.41395 0.0
C631 C 0.63715 0.33056 0.47849 0.0
C632 C 0.22524 0.93877 0.53467 0.0
C633 C 0.25057 0.93441 0.5634 0.0
C634 C 0.30342 0.00196 0.49809 0.0
C635 C 0.40925 0.06043 0.48895 0.0
C636 C 0.44293 0.06774 0.51965 0.0
C637 C 0.36471 0.00811 0.55736 0.0
C638 C 0.27004 0.00307 0.46892 0.0
C639 C 0.55717 0.13269 0.51209 0.0
H640 H 0.3825 -0.02604 0.34707 0.0
H641 H 0.62865 0.3351 0.40305 0.0
H642 H 0.37146 0.91048 0.43717 0.0
H643 H 0.24396 0.83203 0.42496 0.0
H644 H 0.33522 0.86206 0.38259 0.0
H645 H 0.73544 0.42406 0.46716 0.0
H646 H 0.58909 0.32929 0.49096 0.0
H647 H 0.63881 0.31516 0.50478 0.0
H648 H 0.14321 0.89222 0.54064 0.0
H649 H 0.39026 0.01574 0.58154 0.0
H650 H 0.24594 0.95032 0.43798 0.0
H651 H 0.3514 0.1016 0.46299 0.0
H652 H 0.18877 -0.04056 0.48226 0.0
H653 H 0.53333 0.06759 0.49149 0.0
H654 H 0.5879 0.15813 0.54229 0.0
H655 H 0.63722 0.21907 0.49533 0.0
C656 C 0.0449 0.13155 0.83767 0.0
C657 C -0.03041 0.03784 0.80357 0.0
C658 C 0.10041 0.15055 0.86022 0.0
C659 C 0.07143 0.06595 0.85273 0.0
C660 C 0.0141 -0.0134 0.8134 0.0
C661 C -0.03476 -0.02569 0.78967 0.0
C662 C 0.2026 0.27208 0.88763 0.0
C663 C 0.00657 0.91646 0.79376 0.0
C664 C 0.17293 0.04044 0.8974 0.0
C665 C 0.09055 -0.02451 0.93464 0.0
C666 C 0.17875 0.08301 0.87332 0.0
C667 C 0.09817 0.0587 0.8847 0.0
C668 C 0.04379 0.02666 0.92755 0.0
C669 C 0.03437 -0.02066 0.95074 0.0
C670 C 0.27964 0.16441 0.83783 0.0
C671 C 0.01906 0.06591 0.95222 0.0
H672 H 0.06408 0.19397 0.8464 0.0
H673 H 0.91644 0.9082 0.76154 0.0
H674 H 0.16064 0.26813 0.9162 0.0
H675 H 0.25962 0.29286 0.89565 0.0
H676 H 0.26677 0.35163 0.87057 0.0
H677 H 0.08577 -0.02714 0.76918 0.0
H678 H 0.011 0.89869 0.81688 0.0
H679 H 0.91985 0.82621 0.77688 0.0
H680 H 0.23247 0.05672 0.88604 0.0
H681 H -0.01777 0.94484 0.98141 0.0
H682 H 0.30544 0.22814 0.83305 0.0
H683 H 0.24565 0.10465 0.80797 0.0
H684 H 0.36534 0.22262 0.84458 0.0
H685 H 0.1102 0.17009 0.95729 0.0
H686 H -0.03867 0.03425 0.93534 0.0
H687 H -0.02132 0.03552 0.98455 0.0
C688 C 0.77096 0.06528 0.23262 0.0
C689 C 0.81786 0.12166 0.19746 0.0
C690 C 0.82049 0.13444 0.27212 0.0
C691 C 0.91965 0.26344 0.2766 0.0
C692 C 0.95392 0.31505 0.24323 0.0
C693 C 0.90201 0.24302 0.20389 0.0
C694 C 0.77618 0.07306 0.30759 0.0
C695 C 0.05266 0.44933 0.24812 0.0
C696 C 0.01561 0.39085 0.38831 0.0
C697 C 0.092 0.41249 0.38371 0.0
C698 C -0.02979 0.35795 0.35263 0.0
C699 C 0.0026 0.34688 0.31187 0.0
C700 C 0.09522 0.38808 0.30701 0.0
C701 C 0.13941 0.42124 0.34314 0.0
C702 C 0.87394 0.31761 0.35957 0.0
C703 C 0.13187 0.37695 0.26419 0.0
H704 H 0.70192 -0.03035 0.22875 0.0
H705 H 0.93359 0.28486 0.17764 0.0
H706 H 0.84948 0.11085 0.31167 0.0
H707 H 0.76057 0.095 0.33798 0.0
H708 H 0.68743 -0.03138 0.30105 0.0
H709 H 0.14606 0.51559 0.24955 0.0
H710 H 0.0575 0.47039 0.2215 0.0
H711 H 0.03291 0.46743 0.27834 0.0
H712 H -0.02147 0.3837 0.41979 0.0
H713 H 0.19577 0.43484 0.33953 0.0
H714 H 0.7811 0.21994 0.36956 0.0
H715 H 0.8637 0.31879 0.33053 0.0
H716 H 0.89973 0.38006 0.38548 0.0
H717 H 0.2169 0.42889 0.26463 0.0
H718 H 0.14917 0.41312 0.24004 0.0
H719 H 0.05351 0.27587 0.25428 0.0
loop_
_geom_bond_atom_site_label_1
_geom_bond_atom_site_label_2
_geom_bond_distance
_geom_bond_site_symmetry_2
_ccdc_geom_bond_type
C0 C2 1.422 . S
C0 C4 1.415 1_545 S
C0 N6 1.369 . S
C1 C2 1.421 1_565 S
C1 C3 1.417 . S
C1 C13 1.422 . S
C2 C0 1.422 . S
C2 C1 1.421 1_545 S
C2 N12 1.359 . S
C3 C1 1.417 . S
C3 C5 1.329 . S
C3 H22 0.930 . S
C4 C0 1.415 1_565 S
C4 C5 1.437 . S
C4 C8 1.413 . S
C5 C3 1.329 . S
C5 C4 1.437 . S
C5 H27 0.929 1_455 S
N6 C0 1.369 . S
N6 C7 1.338 . S
N6 Gd11 2.622 . S
C7 N6 1.338 . S
C7 C9 1.378 1_545 S
C7 H19 0.929 . S
C8 C4 1.413 . S
C8 C9 1.348 . S
C8 H24 0.931 1_455 S
C9 C7 1.378 1_565 S
C9 C8 1.348 . S
C9 H25 0.930 . S
Gd10 N30 2.622 1_655 S
Gd10 N37 2.570 1_655 S
Gd10 O44 2.353 . S
Gd10 O45 2.468 . S
Gd10 O46 2.427 1_655 S
Gd10 O48 2.388 1_655 S
Gd10 O49 2.386 . S
Gd10 O53 2.307 . S
Gd10 C63 2.805 1_655 S
Gd11 N6 2.622 . S
Gd11 N12 2.570 . S
Gd11 O43 2.386 . S
Gd11 O47 2.307 . S
Gd11 O50 2.353 . S
Gd11 O51 2.468 . S
Gd11 O52 2.427 . S
Gd11 O54 2.388 . S
Gd11 C75 2.805 . S
N12 C2 1.359 . S
N12 Gd11 2.570 . S
N12 C14 1.343 . S
C13 C1 1.422 . S
C13 C15 1.321 1_565 S
C13 H21 0.931 . S
C14 N12 1.343 . S
C14 C15 1.390 . S
C14 H16 0.931 . S
C15 C13 1.321 1_545 S
C15 C14 1.390 . S
C15 H17 0.930 . S
H16 C14 0.931 . S
H17 C15 0.930 . S
H18 C41 0.931 1_655 S
H19 C7 0.929 . S
H20 C42 0.930 . S
H21 C13 0.931 . S
H22 C3 0.930 . S
H23 C32 0.929 1_565 S
H24 C8 0.931 1_655 S
H25 C9 0.930 . S
H26 C64 0.930 . S
H27 C5 0.929 1_655 S
H28 C33 0.931 . S
H29 C34 0.930 . S
N30 Gd10 2.622 1_455 S
N30 C31 1.369 1_565 S
N30 C32 1.338 1_565 S
C31 N30 1.369 1_545 S
C31 C35 1.415 . S
C31 C38 1.422 . S
C32 H23 0.929 1_545 S
C32 N30 1.338 1_545 S
C32 C34 1.378 . S
C33 H28 0.931 . S
C33 C34 1.348 . S
C33 C35 1.413 . S
C34 H29 0.930 . S
C34 C32 1.378 . S
C34 C33 1.348 . S
C35 C31 1.415 . S
C35 C33 1.413 . S
C35 C65 1.437 . S
H36 C65 0.929 . S
N37 Gd10 2.570 1_455 S
N37 C38 1.359 1_565 S
N37 C41 1.343 . S
C38 C31 1.422 . S
C38 N37 1.359 1_545 S
C38 C40 1.421 . S
C39 C40 1.422 . S
C39 C42 1.321 . S
C39 H66 0.931 . S
C40 C38 1.421 . S
C40 C39 1.422 . S
C40 C64 1.417 . S
C41 H18 0.931 1_455 S
C41 N37 1.343 . S
C41 C42 1.390 1_565 S
C42 H20 0.930 . S
C42 C39 1.321 . S
C42 C41 1.390 1_545 S
O43 Gd11 2.386 . S
O43 C55 1.265 . S
O44 Gd10 2.353 . S
O44 C55 1.242 . S
O45 Gd10 2.468 . S
O45 C63 1.263 1_655 S
O46 Gd10 2.427 1_455 S
O46 C63 1.252 . S
O47 Gd11 2.307 . S
O47 C56 1.261 . S
O48 Gd10 2.388 1_455 S
O48 C56 1.252 1_455 S
O49 Gd10 2.386 . S
O49 C67 1.265 . S
O50 Gd11 2.353 . S
O50 C67 1.242 . S
O51 Gd11 2.468 . S
O51 C75 1.263 . S
O52 Gd11 2.427 . S
O52 C75 1.252 . S
O53 Gd10 2.307 . S
O53 C68 1.261 . S
O54 Gd11 2.388 . S
O54 C68 1.252 . S
C55 O43 1.265 . S
C55 O44 1.242 . S
C56 O47 1.261 . S
C56 O48 1.252 1_655 S
C57 C60 1.394 . S
C57 C62 1.370 . S
C57 C63 1.500 1_556 S
C58 C61 1.383 1_565 S
C58 C62 1.395 . S
C59 C60 1.396 1_545 S
C59 C61 1.365 . S
C59 H76 0.929 . S
C60 C57 1.394 . S
C60 C59 1.396 1_565 S
C60 H77 0.930 1_565 S
C61 C58 1.383 1_545 S
C61 C59 1.365 . S
C61 H78 0.931 . S
C62 C57 1.370 . S
C62 C58 1.395 . S
C62 H79 0.930 1_455 S
C63 Gd10 2.805 1_455 S
C63 O45 1.263 1_455 S
C63 O46 1.252 . S
C63 C57 1.500 1_554 S
C64 H26 0.930 . S
C64 C40 1.417 . S
C64 C65 1.329 . S
C65 C35 1.437 . S
C65 H36 0.929 . S
C65 C64 1.329 . S
H66 C39 0.931 . S
C67 O49 1.265 . S
C67 O50 1.242 . S
C68 O53 1.261 . S
C68 O54 1.252 . S
C69 C72 1.394 . S
C69 C74 1.370 . S
C69 C75 1.500 . S
C70 C73 1.383 . S
C70 C74 1.395 . S
C71 C72 1.396 . S
C71 C73 1.365 . S
C71 H80 0.929 . S
C72 C69 1.394 . S
C72 C71 1.396 . S
C72 H81 0.930 . S
C73 C70 1.383 . S
C73 C71 1.365 . S
C73 H82 0.931 . S
C74 C69 1.370 . S
C74 C70 1.395 . S
C74 H83 0.930 . S
C75 Gd11 2.805 . S
C75 O51 1.263 . S
C75 O52 1.252 . S
C75 C69 1.500 . S
H76 C59 0.929 . S
H77 C60 0.930 1_545 S
H78 C61 0.931 . S
H79 C62 0.930 1_655 S
H80 C71 0.929 . S
H81 C72 0.930 . S
H82 C73 0.931 . S
H83 C74 0.930 . S
C84 C86 1.422 . S
C84 C88 1.415 1_455 S
C84 N90 1.369 . S
C85 C86 1.421 1_655 S
C85 C87 1.417 . S
C85 C97 1.422 . S
C86 C84 1.422 . S
C86 C85 1.421 1_455 S
C86 N96 1.359 . S
C87 C85 1.417 . S
C87 C89 1.329 . S
C87 H106 0.930 . S
C88 C84 1.415 1_655 S
C88 C89 1.437 . S
C88 C92 1.413 . S
C89 C87 1.329 . S
C89 C88 1.437 . S
C89 H111 0.929 1_545 S
N90 C84 1.369 . S
N90 C91 1.338 . S
N90 Gd95 2.622 . S
C91 N90 1.338 . S
C91 C93 1.378 . S
C91 H103 0.929 . S
C92 C88 1.413 . S
C92 C93 1.348 1_655 S
C92 H108 0.931 1_545 S
C93 C91 1.378 . S
C93 C92 1.348 1_455 S
C93 H109 0.930 . S
Gd94 N114 2.622 1_665 S
Gd94 N121 2.570 1_565 S
Gd94 O128 2.353 . S
Gd94 O129 2.468 . S
Gd94 O130 2.427 1_565 S
Gd94 O132 2.388 . S
Gd94 O133 2.386 . S
Gd94 O137 2.307 . S
Gd94 C147 2.805 1_565 S
Gd95 N90 2.622 . S
Gd95 N96 2.570 . S
Gd95 O127 2.386 . S
Gd95 O131 2.307 . S
Gd95 O134 2.353 . S
Gd95 O135 2.468 . S
Gd95 O136 2.427 . S
Gd95 O138 2.388 . S
Gd95 C159 2.805 . S
N96 C86 1.359 . S
N96 Gd95 2.570 . S
N96 C98 1.343 . S
C97 C85 1.422 . S
C97 C99 1.321 1_655 S
C97 H105 0.931 . S
C98 N96 1.343 . S
C98 C99 1.390 . S
C98 H100 0.931 . S
C99 C97 1.321 1_455 S
C99 C98 1.390 . S
C99 H101 0.930 . S
H100 C98 0.931 . S
H101 C99 0.930 . S
H102 C125 0.931 1_565 S
H103 C91 0.929 . S
H104 C126 0.930 . S
H105 C97 0.931 . S
H106 C87 0.930 . S
H107 C116 0.929 1_655 S
H108 C92 0.931 1_565 S
H109 C93 0.930 . S
H110 C148 0.930 . S
H111 C89 0.929 1_565 S
H112 C117 0.931 . S
H113 C118 0.930 . S
N114 Gd94 2.622 1_445 S
N114 C115 1.369 . S
N114 C116 1.338 . S
C115 N114 1.369 . S
C115 C119 1.415 . S
C115 C122 1.422 . S
C116 H107 0.929 1_455 S
C116 N114 1.338 . S
C116 C118 1.378 . S
C117 H112 0.931 . S
C117 C118 1.348 . S
C117 C119 1.413 . S
C118 H113 0.930 . S
C118 C116 1.378 . S
C118 C117 1.348 . S
C119 C115 1.415 . S
C119 C117 1.413 . S
C119 C149 1.437 . S
H120 C149 0.929 . S
N121 Gd94 2.570 1_545 S
N121 C122 1.359 1_655 S
N121 C125 1.343 . S
C122 C115 1.422 . S
C122 N121 1.359 1_455 S
C122 C124 1.421 . S
C123 C124 1.422 . S
C123 C126 1.321 . S
C123 H150 0.931 . S
C124 C122 1.421 . S
C124 C123 1.422 . S
C124 C148 1.417 . S
C125 H102 0.931 1_545 S
C125 N121 1.343 . S
C125 C126 1.390 1_655 S
C126 H104 0.930 . S
C126 C123 1.321 . S
C126 C125 1.390 1_455 S
O127 Gd95 2.386 . S
O127 C139 1.265 . S
O128 Gd94 2.353 . S
O128 C139 1.242 . S
O129 Gd94 2.468 . S
O129 C147 1.263 1_565 S
O130 Gd94 2.427 1_545 S
O130 C147 1.252 . S
O131 Gd95 2.307 . S
O131 C140 1.261 . S
O132 Gd94 2.388 . S
O132 C140 1.252 . S
O133 Gd94 2.386 . S
O133 C151 1.265 . S
O134 Gd95 2.353 . S
O134 C151 1.242 . S
O135 Gd95 2.468 . S
O135 C159 1.263 . S
O136 Gd95 2.427 . S
O136 C159 1.252 . S
O137 Gd94 2.307 . S
O137 C152 1.261 . S
O138 Gd95 2.388 . S
O138 C152 1.252 . S
C139 O127 1.265 . S
C139 O128 1.242 . S
C140 O131 1.261 . S
C140 O132 1.252 . S
C141 C144 1.394 1_655 S
C141 C146 1.370 . S
C141 C147 1.500 . S
C142 C145 1.383 1_655 S
C142 C146 1.395 . S
C143 C144 1.396 . S
C143 C145 1.365 . S
C143 H160 0.929 . S
C144 C141 1.394 1_455 S
C144 C143 1.396 . S
C144 H161 0.930 . S
C145 C142 1.383 1_455 S
C145 C143 1.365 . S
C145 H162 0.931 . S
C146 C141 1.370 . S
C146 C142 1.395 . S
C146 H163 0.930 1_545 S
C147 Gd94 2.805 1_545 S
C147 O129 1.263 1_545 S
C147 O130 1.252 . S
C147 C141 1.500 . S
C148 H110 0.930 . S
C148 C124 1.417 . S
C148 C149 1.329 . S
C149 C119 1.437 . S
C149 H120 0.929 . S
C149 C148 1.329 . S
H150 C123 0.931 . S
C151 O133 1.265 . S
C151 O134 1.242 . S
C152 O137 1.261 . S
C152 O138 1.252 . S
C153 C156 1.394 . S
C153 C158 1.370 . S
C153 C159 1.500 . S
C154 C157 1.383 . S
C154 C158 1.395 . S
C155 C156 1.396 . S
C155 C157 1.365 . S
C155 H164 0.929 . S
C156 C153 1.394 . S
C156 C155 1.396 . S
C156 H165 0.930 . S
C157 C154 1.383 . S
C157 C155 1.365 . S
C157 H166 0.931 . S
C158 C153 1.370 . S
C158 C154 1.395 . S
C158 H167 0.930 . S
C159 Gd95 2.805 . S
C159 O135 1.263 . S
C159 O136 1.252 . S
C159 C153 1.500 . S
H160 C143 0.929 . S
H161 C144 0.930 . S
H162 C145 0.931 . S
H163 C146 0.930 1_565 S
H164 C155 0.929 . S
H165 C156 0.930 . S
H166 C157 0.931 . S
H167 C158 0.930 . S
C168 C170 1.422 . S
C168 C172 1.415 . S
C168 N174 1.369 . S
C169 C170 1.421 . S
C169 C171 1.417 . S
C169 C181 1.422 . S
C170 C168 1.422 . S
C170 C169 1.421 . S
C170 N180 1.359 . S
C171 C169 1.417 . S
C171 C173 1.329 . S
C171 H190 0.930 . S
C172 C168 1.415 . S
C172 C173 1.437 . S
C172 C176 1.413 . S
C173 C171 1.329 . S
C173 C172 1.437 . S
C173 H195 0.929 . S
N174 C168 1.369 . S
N174 C175 1.338 . S
N174 Gd179 2.622 . S
C175 N174 1.338 . S
C175 C177 1.378 . S
C175 H187 0.929 . S
C176 C172 1.413 . S
C176 C177 1.348 . S
C176 H192 0.931 . S
C177 C175 1.378 . S
C177 C176 1.348 . S
C177 H193 0.930 . S
Gd178 N198 2.622 . S
Gd178 N205 2.570 . S
Gd178 O212 2.353 1_445 S
Gd178 O213 2.468 . S
Gd178 O214 2.427 1_554 S
Gd178 O216 2.388 . S
Gd178 O217 2.386 . S
Gd178 O221 2.307 1_455 S
Gd178 C231 2.805 1_554 S
Gd179 N174 2.622 . S
Gd179 N180 2.570 . S
Gd179 O211 2.386 . S
Gd179 O215 2.307 . S
Gd179 O218 2.353 1_565 S
Gd179 O219 2.468 . S
Gd179 O220 2.427 . S
Gd179 O222 2.388 . S
Gd179 C243 2.805 . S
N180 C170 1.359 . S
N180 Gd179 2.570 . S
N180 C182 1.343 . S
C181 C169 1.422 . S
C181 C183 1.321 . S
C181 H189 0.931 . S
C182 N180 1.343 . S
C182 C183 1.390 . S
C182 H184 0.931 . S
C183 C181 1.321 . S
C183 C182 1.390 . S
C183 H185 0.930 . S
H184 C182 0.931 . S
H185 C183 0.930 . S
H186 C209 0.931 1_655 S
H187 C175 0.929 . S
H188 C210 0.930 . S
H189 C181 0.931 . S
H190 C171 0.930 . S
H191 C200 0.929 . S
H192 C176 0.931 . S
H193 C177 0.930 . S
H194 C232 0.930 . S
H195 C173 0.929 . S
H196 C201 0.931 . S
H197 C202 0.930 . S
N198 Gd178 2.622 . S
N198 C199 1.369 . S
N198 C200 1.338 . S
C199 N198 1.369 . S
C199 C203 1.415 . S
C199 C206 1.422 . S
C200 H191 0.929 . S
C200 N198 1.338 . S
C200 C202 1.378 . S
C201 H196 0.931 . S
C201 C202 1.348 . S
C201 C203 1.413 . S
C202 H197 0.930 . S
C202 C200 1.378 . S
C202 C201 1.348 . S
C203 C199 1.415 . S
C203 C201 1.413 . S
C203 C233 1.437 . S
H204 C233 0.929 . S
N205 Gd178 2.570 . S
N205 C206 1.359 . S
N205 C209 1.343 . S
C206 C199 1.422 . S
C206 N205 1.359 . S
C206 C208 1.421 . S
C207 C208 1.422 . S
C207 C210 1.321 . S
C207 H234 0.931 . S
C208 C206 1.421 . S
C208 C207 1.422 . S
C208 C232 1.417 . S
C209 H186 0.931 1_455 S
C209 N205 1.343 . S
C209 C210 1.390 . S
C210 H188 0.930 . S
C210 C207 1.321 . S
C210 C209 1.390 . S
O211 Gd179 2.386 . S
O211 C223 1.265 . S
O212 Gd178 2.353 1_665 S
O212 C223 1.242 . S
O213 Gd178 2.468 . S
O213 C231 1.263 1_554 S
O214 Gd178 2.427 1_556 S
O214 C231 1.252 . S
O215 Gd179 2.307 . S
O215 C224 1.261 1_565 S
O216 Gd178 2.388 . S
O216 C224 1.252 1_455 S
O217 Gd178 2.386 . S
O217 C235 1.265 1_455 S
O218 Gd179 2.353 1_545 S
O218 C235 1.242 . S
O219 Gd179 2.468 . S
O219 C243 1.263 . S
O220 Gd179 2.427 . S
O220 C243 1.252 . S
O221 Gd178 2.307 1_655 S
O221 C236 1.261 1_545 S
O222 Gd179 2.388 . S
O222 C236 1.252 . S
C223 O211 1.265 . S
C223 O212 1.242 . S
C224 O215 1.261 1_545 S
C224 O216 1.252 1_655 S
C225 C228 1.394 . S
C225 C230 1.370 . S
C225 C231 1.500 . S
C226 C229 1.383 . S
C226 C230 1.395 . S
C227 C228 1.396 . S
C227 C229 1.365 . S
C227 H244 0.929 . S
C228 C225 1.394 . S
C228 C227 1.396 . S
C228 H245 0.930 . S
C229 C226 1.383 . S
C229 C227 1.365 . S
C229 H246 0.931 . S
C230 C225 1.370 . S
C230 C226 1.395 . S
C230 H247 0.930 . S
C231 Gd178 2.805 1_556 S
C231 O213 1.263 1_556 S
C231 O214 1.252 . S
C231 C225 1.500 . S
C232 H194 0.930 . S
C232 C208 1.417 . S
C232 C233 1.329 . S
C233 C203 1.437 . S
C233 H204 0.929 . S
C233 C232 1.329 . S
H234 C207 0.931 . S
C235 O217 1.265 1_655 S
C235 O218 1.242 . S
C236 O221 1.261 1_565 S
C236 O222 1.252 . S
C237 C240 1.394 . S
C237 C242 1.370 . S
C237 C243 1.500 . S
C238 C241 1.383 . S
C238 C242 1.395 . S
C239 C240 1.396 . S
C239 C241 1.365 . S
C239 H248 0.929 . S
C240 C237 1.394 . S
C240 C239 1.396 . S
C240 H249 0.930 . S
C241 C238 1.383 . S
C241 C239 1.365 . S
C241 H250 0.931 . S
C242 C237 1.370 . S
C242 C238 1.395 . S
C242 H251 0.930 . S
C243 Gd179 2.805 . S
C243 O219 1.263 . S
C243 O220 1.252 . S
C243 C237 1.500 . S
H244 C227 0.929 . S
H245 C228 0.930 . S
H246 C229 0.931 . S
H247 C230 0.930 . S
H248 C239 0.929 . S
H249 C240 0.930 . S
H250 C241 0.931 . S
H251 C242 0.930 . S
C252 C254 1.422 . S
C252 C256 1.415 . S
C252 N258 1.369 . S
C253 C254 1.421 . S
C253 C255 1.417 . S
C253 C265 1.422 . S
C254 C252 1.422 . S
C254 C253 1.421 . S
C254 N264 1.359 . S
C255 C253 1.417 . S
C255 C257 1.329 . S
C255 H274 0.930 . S
C256 C252 1.415 . S
C256 C257 1.437 . S
C256 C260 1.413 . S
C257 C255 1.329 . S
C257 C256 1.437 . S
C257 H279 0.929 1_545 S
N258 C252 1.369 . S
N258 C259 1.338 . S
N258 Gd263 2.622 . S
C259 N258 1.338 . S
C259 C261 1.378 . S
C259 H271 0.929 . S
C260 C256 1.413 . S
C260 C261 1.348 . S
C260 H276 0.931 1_545 S
C261 C259 1.378 . S
C261 C260 1.348 . S
C261 H277 0.930 . S
Gd262 N282 2.622 1_565 S
Gd262 N289 2.570 1_565 S
Gd262 O296 2.353 . S
Gd262 O297 2.468 . S
Gd262 O298 2.427 1_565 S
Gd262 O300 2.388 1_565 S
Gd262 O301 2.386 . S
Gd262 O305 2.307 . S
Gd262 C315 2.805 1_565 S
Gd263 N258 2.622 . S
Gd263 N264 2.570 . S
Gd263 O295 2.386 . S
Gd263 O299 2.307 . S
Gd263 O302 2.353 1_655 S
Gd263 O303 2.468 . S
Gd263 O304 2.427 . S
Gd263 O306 2.388 . S
Gd263 C327 2.805 . S
N264 C254 1.359 . S
N264 Gd263 2.570 . S
N264 C266 1.343 . S
C265 C253 1.422 . S
C265 C267 1.321 . S
C265 H273 0.931 . S
C266 N264 1.343 . S
C266 C267 1.390 . S
C266 H268 0.931 . S
C267 C265 1.321 . S
C267 C266 1.390 . S
C267 H269 0.930 . S
H268 C266 0.931 . S
H269 C267 0.930 . S
H270 C293 0.931 1_565 S
H271 C259 0.929 . S
H272 C294 0.930 . S
H273 C265 0.931 . S
H274 C255 0.930 . S
H275 C284 0.929 . S
H276 C260 0.931 1_565 S
H277 C261 0.930 . S
H278 C316 0.930 . S
H279 C257 0.929 1_565 S
H280 C285 0.931 . S
H281 C286 0.930 . S
N282 Gd262 2.622 1_545 S
N282 C283 1.369 . S
N282 C284 1.338 . S
C283 N282 1.369 . S
C283 C287 1.415 . S
C283 C290 1.422 . S
C284 H275 0.929 . S
C284 N282 1.338 . S
C284 C286 1.378 . S
C285 H280 0.931 . S
C285 C286 1.348 . S
C285 C287 1.413 . S
C286 H281 0.930 . S
C286 C284 1.378 . S
C286 C285 1.348 . S
C287 C283 1.415 . S
C287 C285 1.413 . S
C287 C317 1.437 . S
H288 C317 0.929 . S
N289 Gd262 2.570 1_545 S
N289 C290 1.359 . S
N289 C293 1.343 . S
C290 C283 1.422 . S
C290 N289 1.359 . S
C290 C292 1.421 . S
C291 C292 1.422 . S
C291 C294 1.321 . S
C291 H318 0.931 . S
C292 C290 1.421 . S
C292 C291 1.422 . S
C292 C316 1.417 . S
C293 H270 0.931 1_545 S
C293 N289 1.343 . S
C293 C294 1.390 . S
C294 H272 0.930 . S
C294 C291 1.321 . S
C294 C293 1.390 . S
O295 Gd263 2.386 . S
O295 C307 1.265 . S
O296 Gd262 2.353 . S
O296 C307 1.242 1_455 S
O297 Gd262 2.468 . S
O297 C315 1.263 1_565 S
O298 Gd262 2.427 1_545 S
O298 C315 1.252 . S
O299 Gd263 2.307 . S
O299 C308 1.261 1_655 S
O300 Gd262 2.388 1_545 S
O300 C308 1.252 1_545 S
O301 Gd262 2.386 . S
O301 C319 1.265 . S
O302 Gd263 2.353 1_455 S
O302 C319 1.242 . S
O303 Gd263 2.468 . S
O303 C327 1.263 . S
O304 Gd263 2.427 . S
O304 C327 1.252 . S
O305 Gd262 2.307 . S
O305 C320 1.261 1_455 S
O306 Gd263 2.388 . S
O306 C320 1.252 . S
C307 O295 1.265 . S
C307 O296 1.242 1_655 S
C308 O299 1.261 1_455 S
C308 O300 1.252 1_565 S
C309 C312 1.394 . S
C309 C314 1.370 . S
C309 C315 1.500 . S
C310 C313 1.383 . S
C310 C314 1.395 . S
C311 C312 1.396 . S
C311 C313 1.365 . S
C311 H328 0.929 . S
C312 C309 1.394 . S
C312 C311 1.396 . S
C312 H329 0.930 . S
C313 C310 1.383 . S
C313 C311 1.365 . S
C313 H330 0.931 . S
C314 C309 1.370 . S
C314 C310 1.395 . S
C314 H331 0.930 1_545 S
C315 Gd262 2.805 1_545 S
C315 O297 1.263 1_545 S
C315 O298 1.252 . S
C315 C309 1.500 . S
C316 H278 0.930 . S
C316 C292 1.417 . S
C316 C317 1.329 . S
C317 C287 1.437 . S
C317 H288 0.929 . S
C317 C316 1.329 . S
H318 C291 0.931 . S
C319 O301 1.265 . S
C319 O302 1.242 . S
C320 O305 1.261 1_655 S
C320 O306 1.252 . S
C321 C324 1.394 . S
C321 C326 1.370 . S
C321 C327 1.500 . S
C322 C325 1.383 . S
C322 C326 1.395 . S
C323 C324 1.396 . S
C323 C325 1.365 . S
C323 H332 0.929 . S
C324 C321 1.394 . S
C324 C323 1.396 . S
C324 H333 0.930 . S
C325 C322 1.383 . S
C325 C323 1.365 . S
C325 H334 0.931 . S
C326 C321 1.370 . S
C326 C322 1.395 . S
C326 H335 0.930 . S
C327 Gd263 2.805 . S
C327 O303 1.263 . S
C327 O304 1.252 . S
C327 C321 1.500 . S
H328 C311 0.929 . S
H329 C312 0.930 . S
H330 C313 0.931 . S
H331 C314 0.930 1_565 S
H332 C323 0.929 . S
H333 C324 0.930 . S
H334 C325 0.931 . S
H335 C326 0.930 . S
C336 C337 1.391 1_455 S
C336 C338 1.394 . S
C336 H352 0.931 1_455 S
C337 C336 1.391 1_655 S
C337 C341 1.376 1_655 S
C338 C336 1.394 . S
C338 C339 1.369 . S
C338 C342 1.531 . S
C339 C338 1.369 . S
C339 C340 1.410 . S
C339 C347 1.503 . S
C340 C339 1.410 . S
C340 C341 1.392 . S
C340 C343 1.511 . S
C341 C337 1.376 1_455 S
C341 C340 1.392 . S
C341 H353 0.929 . S
C342 C338 1.531 . S
C342 H354 0.960 . S
C342 H355 0.962 . S
C342 H356 0.960 . S
C343 C340 1.511 . S
C343 H357 0.970 . S
C343 H358 0.961 . S
C343 H359 0.961 . S
C344 C345 1.370 . S
C344 C346 1.363 . S
C344 H360 0.931 . S
C345 C344 1.370 . S
C345 C349 1.408 . S
C346 C344 1.363 . S
C346 C347 1.370 . S
C346 C350 1.524 . S
C347 C339 1.503 . S
C347 C346 1.370 . S
C347 C348 1.403 . S
C348 C347 1.403 . S
C348 C349 1.404 . S
C348 C351 1.539 . S
C349 C345 1.408 . S
C349 C348 1.404 . S
C349 H361 0.930 . S
C350 C346 1.524 . S
C350 H362 0.956 . S
C350 H363 0.961 . S
C350 H364 0.961 . S
C351 C348 1.539 . S
C351 H365 0.958 . S
C351 H366 0.961 . S
C351 H367 0.960 . S
H352 C336 0.931 1_655 S
H353 C341 0.929 . S
H354 C342 0.960 . S
H355 C342 0.962 . S
H356 C342 0.960 . S
H357 C343 0.970 . S
H358 C343 0.961 . S
H359 C343 0.961 . S
H360 C344 0.931 . S
H361 C349 0.930 . S
H362 C350 0.956 . S
H363 C350 0.961 . S
H364 C350 0.961 . S
H365 C351 0.958 . S
H366 C351 0.961 . S
H367 C351 0.960 . S
C368 C369 1.391 1_545 S
C368 C370 1.394 . S
C368 H384 0.931 1_445 S
C369 C368 1.391 1_565 S
C369 C373 1.376 1_565 S
C370 C368 1.394 . S
C370 C371 1.369 . S
C370 C374 1.531 . S
C371 C370 1.369 . S
C371 C372 1.410 . S
C371 C379 1.503 . S
C372 C371 1.410 . S
C372 C373 1.392 . S
C372 C375 1.511 . S
C373 C369 1.376 1_545 S
C373 C372 1.392 . S
C373 H385 0.929 . S
C374 C370 1.531 . S
C374 H386 0.960 . S
C374 H387 0.962 . S
C374 H388 0.960 . S
C375 C372 1.511 . S
C375 H389 0.961 . S
C375 H390 0.961 . S
C375 H391 0.961 . S
C376 C377 1.370 . S
C376 C378 1.363 . S
C376 H392 0.931 . S
C377 C376 1.370 . S
C377 C381 1.408 . S
C378 C376 1.363 . S
C378 C379 1.370 . S
C378 C382 1.524 . S
C379 C371 1.503 . S
C379 C378 1.370 . S
C379 C380 1.403 . S
C380 C379 1.403 . S
C380 C381 1.404 . S
C380 C383 1.539 . S
C381 C377 1.408 . S
C381 C380 1.404 . S
C381 H393 0.930 . S
C382 C378 1.524 . S
C382 H394 0.956 . S
C382 H395 0.961 . S
C382 H396 0.961 . S
C383 C380 1.539 . S
C383 H397 0.958 . S
C383 H398 0.961 . S
C383 H399 0.960 . S
H384 C368 0.931 1_665 S
H385 C373 0.929 . S
H386 C374 0.960 . S
H387 C374 0.962 . S
H388 C374 0.960 . S
H389 C375 0.961 . S
H390 C375 0.961 . S
H391 C375 0.961 . S
H392 C376 0.931 . S
H393 C381 0.930 . S
H394 C382 0.956 . S
H395 C382 0.961 . S
H396 C382 0.961 . S
H397 C383 0.958 . S
H398 C383 0.961 . S
H399 C383 0.960 . S
C400 C401 1.391 . S
C400 C402 1.394 . S
C400 H416 0.931 1_545 S
C401 C400 1.391 . S
C401 C405 1.376 . S
C402 C400 1.394 . S
C402 C403 1.369 . S
C402 C406 1.531 . S
C403 C402 1.369 . S
C403 C404 1.410 . S
C403 C411 1.503 . S
C404 C403 1.410 . S
C404 C405 1.392 . S
C404 C407 1.511 1_655 S
C405 C401 1.376 . S
C405 C404 1.392 . S
C405 H417 0.929 . S
C406 C402 1.531 . S
C406 H418 0.960 . S
C406 H419 0.962 . S
C406 H420 0.960 . S
C407 C404 1.511 1_455 S
C407 H421 0.961 . S
C407 H422 0.961 . S
C407 H423 0.961 . S
C408 C409 1.370 . S
C408 C410 1.363 . S
C408 H424 0.931 . S
C409 C408 1.370 . S
C409 C413 1.408 . S
C410 C408 1.363 . S
C410 C411 1.370 . S
C410 C414 1.524 . S
C411 C403 1.503 . S
C411 C410 1.370 . S
C411 C412 1.403 . S
C412 C411 1.403 . S
C412 C413 1.404 . S
C412 C415 1.539 1_655 S
C413 C409 1.408 . S
C413 C412 1.404 . S
C413 H425 0.930 1_655 S
C414 C410 1.524 . S
C414 H426 0.956 . S
C414 H427 0.961 . S
C414 H428 0.961 . S
C415 C412 1.539 1_455 S
C415 H429 0.958 1_455 S
C415 H430 0.961 . S
C415 H431 0.960 . S
H416 C400 0.931 1_565 S
H417 C405 0.929 . S
H418 C406 0.960 . S
H419 C406 0.962 . S
H420 C406 0.960 . S
H421 C407 0.961 . S
H422 C407 0.961 . S
H423 C407 0.961 . S
H424 C408 0.931 . S
H425 C413 0.930 1_455 S
H426 C414 0.956 . S
H427 C414 0.961 . S
H428 C414 0.961 . S
H429 C415 0.958 1_655 S
H430 C415 0.961 . S
H431 C415 0.960 . S
C432 C433 1.391 . S
C432 C434 1.394 . S
C432 H448 0.931 . S
C433 C432 1.391 . S
C433 C437 1.376 . S
C434 C432 1.394 . S
C434 C435 1.369 . S
C434 C438 1.531 . S
C435 C434 1.369 . S
C435 C436 1.410 . S
C435 C443 1.503 . S
C436 C435 1.410 . S
C436 C437 1.392 . S
C436 C439 1.511 . S
C437 C433 1.376 . S
C437 C436 1.392 . S
C437 H449 0.929 . S
C438 C434 1.531 . S
C438 H450 0.960 . S
C438 H451 0.962 . S
C438 H452 0.960 1_565 S
C439 C436 1.511 . S
C439 H453 0.961 . S
C439 H454 0.961 . S
C439 H455 0.961 . S
C440 C441 1.370 . S
C440 C442 1.363 . S
C440 H456 0.931 1_455 S
C441 C440 1.370 . S
C441 C445 1.408 . S
C442 C440 1.363 . S
C442 C443 1.370 . S
C442 C446 1.524 . S
C443 C435 1.503 . S
C443 C442 1.370 . S
C443 C444 1.403 . S
C444 C443 1.403 . S
C444 C445 1.404 . S
C444 C447 1.545 . S
C445 C441 1.408 . S
C445 C444 1.404 . S
C445 H457 0.930 . S
C446 C442 1.524 . S
C446 H458 0.956 . S
C446 H459 0.961 . S
C446 H460 0.961 . S
C447 C444 1.545 . S
C447 H461 0.953 1_565 S
C447 H462 0.946 1_565 S
C447 H463 0.975 1_565 S
H448 C432 0.931 . S
H449 C437 0.929 . S
H450 C438 0.960 . S
H451 C438 0.962 . S
H452 C438 0.960 1_545 S
H453 C439 0.961 . S
H454 C439 0.961 . S
H455 C439 0.961 . S
H456 C440 0.931 1_655 S
H457 C445 0.930 . S
H458 C446 0.956 . S
H459 C446 0.961 . S
H460 C446 0.961 . S
H461 C447 0.953 1_545 S
H462 C447 0.946 1_545 S
H463 C447 0.975 1_545 S
C464 C465 1.391 . S
C464 C466 1.394 . S
C464 H480 0.931 . S
C465 C464 1.391 . S
C465 C469 1.376 . S
C466 C464 1.394 . S
C466 C467 1.369 . S
C466 C470 1.531 . S
C467 C466 1.369 . S
C467 C468 1.410 . S
C467 C475 1.503 . S
C468 C467 1.410 . S
C468 C469 1.392 . S
C468 C471 1.511 . S
C469 C465 1.376 . S
C469 C468 1.392 . S
C469 H481 0.929 . S
C470 C466 1.531 . S
C470 H482 0.960 . S
C470 H483 0.962 . S
C470 H484 0.960 . S
C471 C468 1.511 . S
C471 H485 0.961 . S
C471 H486 0.961 . S
C471 H487 0.961 1_655 S
C472 C473 1.370 . S
C472 C474 1.363 . S
C472 H488 0.931 . S
C473 C472 1.370 . S
C473 C477 1.408 1_655 S
C474 C472 1.363 . S
C474 C475 1.370 . S
C474 C478 1.524 . S
C475 C467 1.503 . S
C475 C474 1.370 . S
C475 C476 1.403 1_655 S
C476 C475 1.403 1_455 S
C476 C477 1.404 . S
C476 C479 1.539 1_565 S
C477 C473 1.408 1_455 S
C477 C476 1.404 . S
C477 H489 0.930 . S
C478 C474 1.524 . S
C478 H490 0.956 . S
C478 H491 0.961 . S
C478 H492 0.961 . S
C479 C476 1.539 1_545 S
C479 H493 0.958 . S
C479 H494 0.961 . S
C479 H495 0.960 . S
H480 C464 0.931 . S
H481 C469 0.929 . S
H482 C470 0.960 . S
H483 C470 0.962 . S
H484 C470 0.960 . S
H485 C471 0.961 . S
H486 C471 0.961 . S
H487 C471 0.961 1_455 S
H488 C472 0.931 . S
H489 C477 0.930 . S
H490 C478 0.956 . S
H491 C478 0.961 . S
H492 C478 0.961 . S
H493 C479 0.958 . S
H494 C479 0.961 . S
H495 C479 0.960 . S
C496 C497 1.391 . S
C496 C498 1.394 . S
C496 H512 0.931 . S
C497 C496 1.391 . S
C497 C501 1.376 . S
C498 C496 1.394 . S
C498 C499 1.369 . S
C498 C502 1.531 . S
C499 C498 1.369 . S
C499 C500 1.410 . S
C499 C507 1.503 . S
C500 C499 1.410 . S
C500 C501 1.392 . S
C500 C503 1.511 . S
C501 C497 1.376 . S
C501 C500 1.392 . S
C501 H513 0.929 . S
C502 C498 1.531 . S
C502 H514 0.960 . S
C502 H515 0.962 . S
C502 H516 0.960 . S
C503 C500 1.511 . S
C503 H517 0.961 . S
C503 H518 0.961 . S
C503 H519 0.961 . S
C504 C505 1.370 . S
C504 C506 1.363 . S
C504 H520 0.931 . S
C505 C504 1.370 . S
C505 C509 1.408 . S
C506 C504 1.363 . S
C506 C507 1.370 . S
C506 C510 1.524 . S
C507 C499 1.503 . S
C507 C506 1.370 . S
C507 C508 1.403 . S
C508 C507 1.403 . S
C508 C509 1.404 . S
C508 C511 1.539 . S
C509 C505 1.408 . S
C509 C508 1.404 . S
C509 H521 0.930 . S
C510 C506 1.524 . S
C510 H522 0.956 . S
C510 H523 0.961 . S
C510 H524 0.961 . S
C511 C508 1.539 . S
C511 H525 0.958 . S
C511 H526 0.961 . S
C511 H527 0.960 . S
H512 C496 0.931 . S
H513 C501 0.929 . S
H514 C502 0.960 . S
H515 C502 0.962 . S
H516 C502 0.960 . S
H517 C503 0.961 . S
H518 C503 0.961 . S
H519 C503 0.961 . S
H520 C504 0.931 . S
H521 C509 0.930 . S
H522 C510 0.956 . S
H523 C510 0.961 . S
H524 C510 0.961 . S
H525 C511 0.958 . S
H526 C511 0.961 . S
H527 C511 0.960 . S
C528 C529 1.391 . S
C528 C530 1.394 . S
C528 H544 0.931 . S
C529 C528 1.391 . S
C529 C533 1.376 . S
C530 C528 1.394 . S
C530 C531 1.369 . S
C530 C534 1.531 . S
C531 C530 1.369 . S
C531 C532 1.410 . S
C531 C539 1.503 . S
C532 C531 1.410 . S
C532 C533 1.392 . S
C532 C535 1.511 . S
C533 C529 1.376 . S
C533 C532 1.392 . S
C533 H545 0.929 . S
C534 C530 1.531 . S
C534 H546 0.960 . S
C534 H547 0.962 . S
C534 H548 0.960 . S
C535 C532 1.511 . S
C535 H549 0.961 . S
C535 H550 0.961 . S
C535 H551 0.961 . S
C536 C537 1.370 . S
C536 C538 1.363 . S
C536 H552 0.931 . S
C537 C536 1.370 . S
C537 C541 1.408 . S
C538 C536 1.363 . S
C538 C539 1.370 . S
C538 C542 1.524 . S
C539 C531 1.503 . S
C539 C538 1.370 . S
C539 C540 1.403 . S
C540 C539 1.403 . S
C540 C541 1.404 . S
C540 C543 1.539 . S
C541 C537 1.408 . S
C541 C540 1.404 . S
C541 H553 0.930 . S
C542 C538 1.524 . S
C542 H554 0.956 . S
C542 H555 0.961 . S
C542 H556 0.961 . S
C543 C540 1.539 . S
C543 H557 0.958 . S
C543 H558 0.961 . S
C543 H559 0.960 . S
H544 C528 0.931 . S
H545 C533 0.929 . S
H546 C534 0.960 . S
H547 C534 0.962 . S
H548 C534 0.960 . S
H549 C535 0.961 . S
H550 C535 0.961 . S
H551 C535 0.961 . S
H552 C536 0.931 . S
H553 C541 0.930 . S
H554 C542 0.956 . S
H555 C542 0.961 . S
H556 C542 0.961 . S
H557 C543 0.958 . S
H558 C543 0.961 . S
H559 C543 0.960 . S
C560 C561 1.391 . S
C560 C562 1.394 . S
C560 H576 0.931 . S
C561 C560 1.391 . S
C561 C565 1.376 . S
C562 C560 1.394 . S
C562 C563 1.369 . S
C562 C566 1.531 . S
C563 C562 1.369 . S
C563 C564 1.410 . S
C563 C571 1.503 . S
C564 C563 1.410 . S
C564 C565 1.392 . S
C564 C567 1.511 . S
C565 C561 1.376 . S
C565 C564 1.392 . S
C565 H577 0.929 1_545 S
C566 C562 1.531 . S
C566 H578 0.960 . S
C566 H579 0.962 . S
C566 H580 0.960 . S
C567 C564 1.511 . S
C567 H581 0.961 1_545 S
C567 H582 0.961 . S
C567 H583 0.961 1_545 S
C568 C569 1.370 1_556 S
C568 C570 1.363 . S
C568 H584 0.931 . S
C569 C568 1.370 1_554 S
C569 C573 1.408 . S
C570 C568 1.363 . S
C570 C571 1.370 . S
C570 C574 1.524 . S
C571 C563 1.503 . S
C571 C570 1.370 . S
C571 C572 1.403 . S
C572 C571 1.403 . S
C572 C573 1.404 1_556 S
C572 C575 1.539 . S
C573 C569 1.408 . S
C573 C572 1.404 1_554 S
C573 H585 0.930 . S
C574 C570 1.524 . S
C574 H586 0.956 . S
C574 H587 0.961 . S
C574 H588 0.961 . S
C575 C572 1.539 . S
C575 H589 0.958 . S
C575 H590 0.961 . S
C575 H591 0.960 . S
H576 C560 0.931 . S
H577 C565 0.929 1_565 S
H578 C566 0.960 . S
H579 C566 0.962 . S
H580 C566 0.960 . S
H581 C567 0.961 1_565 S
H582 C567 0.961 . S
H583 C567 0.961 1_565 S
H584 C568 0.931 . S
H585 C573 0.930 . S
H586 C574 0.956 . S
H587 C574 0.961 . S
H588 C574 0.961 . S
H589 C575 0.958 . S
H590 C575 0.961 . S
H591 C575 0.960 . S
C592 C593 1.391 . S
C592 C594 1.394 . S
C592 H608 0.931 . S
C593 C592 1.391 . S
C593 C597 1.376 . S
C594 C592 1.394 . S
C594 C595 1.369 . S
C594 C598 1.531 . S
C595 C594 1.369 . S
C595 C596 1.410 . S
C595 C603 1.503 . S
C596 C595 1.410 . S
C596 C597 1.392 . S
C596 C599 1.511 . S
C597 C593 1.376 . S
C597 C596 1.392 . S
C597 H609 0.929 . S
C598 C594 1.531 . S
C598 H610 0.960 . S
C598 H611 0.962 . S
C598 H612 0.960 . S
C599 C596 1.511 . S
C599 H613 0.961 . S
C599 H614 0.961 . S
C599 H615 0.961 . S
C600 C601 1.370 . S
C600 C602 1.363 . S
C600 H616 0.931 1_655 S
C601 C600 1.370 . S
C601 C605 1.408 . S
C602 C600 1.363 . S
C602 C603 1.370 . S
C602 C606 1.524 1_655 S
C603 C595 1.503 . S
C603 C602 1.370 . S
C603 C604 1.403 . S
C604 C603 1.403 . S
C604 C605 1.404 . S
C604 C607 1.539 . S
C605 C601 1.408 . S
C605 C604 1.404 . S
C605 H617 0.930 . S
C606 C602 1.524 1_455 S
C606 H618 0.956 . S
C606 H619 0.961 . S
C606 H620 0.961 1_565 S
C607 C604 1.539 . S
C607 H621 0.958 . S
C607 H622 0.961 . S
C607 H623 0.960 . S
H608 C592 0.931 . S
H609 C597 0.929 . S
H610 C598 0.960 . S
H611 C598 0.962 . S
H612 C598 0.960 . S
H613 C599 0.961 . S
H614 C599 0.961 . S
H615 C599 0.961 . S
H616 C600 0.931 1_455 S
H617 C605 0.930 . S
H618 C606 0.956 . S
H619 C606 0.961 . S
H620 C606 0.961 1_545 S
H621 C607 0.958 . S
H622 C607 0.961 . S
H623 C607 0.960 . S
C624 C625 1.391 . S
C624 C626 1.394 1_545 S
C624 H640 0.931 1_545 S
C625 C624 1.391 . S
C625 C629 1.376 . S
C626 C624 1.394 1_565 S
C626 C627 1.369 1_565 S
C626 C630 1.531 . S
C627 C626 1.369 1_545 S
C627 C628 1.410 . S
C627 C635 1.503 1_545 S
C628 C627 1.410 . S
C628 C629 1.392 . S
C628 C631 1.511 . S
C629 C625 1.376 . S
C629 C628 1.392 . S
C629 H641 0.929 . S
C630 C626 1.531 . S
C630 H642 0.960 . S
C630 H643 0.962 . S
C630 H644 0.960 . S
C631 C628 1.511 . S
C631 H645 0.961 . S
C631 H646 0.961 . S
C631 H647 0.961 . S
C632 C633 1.370 . S
C632 C634 1.363 1_565 S
C632 H648 0.931 1_565 S
C633 C632 1.370 . S
C633 C637 1.408 . S
C634 C632 1.363 1_545 S
C634 C635 1.370 1_545 S
C634 C638 1.524 . S
C635 C627 1.503 1_565 S
C635 C634 1.370 1_565 S
C635 C636 1.403 . S
C636 C635 1.403 . S
C636 C637 1.404 . S
C636 C639 1.539 . S
C637 C633 1.408 . S
C637 C636 1.404 . S
C637 H649 0.930 . S
C638 C634 1.524 . S
C638 H650 0.956 . S
C638 H651 0.961 . S
C638 H652 0.961 . S
C639 C636 1.539 . S
C639 H653 0.958 . S
C639 H654 0.961 . S
C639 H655 0.960 . S
H640 C624 0.931 1_565 S
H641 C629 0.929 . S
H642 C630 0.960 . S
H643 C630 0.962 . S
H644 C630 0.960 . S
H645 C631 0.961 . S
H646 C631 0.961 . S
H647 C631 0.961 . S
H648 C632 0.931 1_545 S
H649 C637 0.930 . S
H650 C638 0.956 . S
H651 C638 0.961 . S
H652 C638 0.961 . S
H653 C639 0.958 . S
H654 C639 0.961 . S
H655 C639 0.960 . S
C656 C657 1.391 . S
C656 C658 1.394 1_655 S
C656 H672 0.931 . S
C657 C656 1.391 . S
C657 C661 1.376 1_545 S
C658 C656 1.394 1_455 S
C658 C659 1.369 1_445 S
C658 C662 1.531 . S
C659 C658 1.369 1_665 S
C659 C660 1.410 . S
C659 C667 1.503 1_655 S
C660 C659 1.410 . S
C660 C661 1.392 . S
C660 C663 1.511 . S
C661 C657 1.376 1_565 S
C661 C660 1.392 . S
C661 H673 0.929 . S
C662 C658 1.531 . S
C662 H674 0.960 1_455 S
C662 H675 0.962 . S
C662 H676 0.960 1_455 S
C663 C660 1.511 . S
C663 H677 0.961 1_655 S
C663 H678 0.961 1_655 S
C663 H679 0.961 . S
C664 C665 1.370 1_545 S
C664 C666 1.363 . S
C664 H680 0.931 . S
C665 C664 1.370 1_565 S
C665 C669 1.408 1_455 S
C666 C664 1.363 . S
C666 C667 1.370 1_545 S
C666 C670 1.524 . S
C667 C659 1.503 1_455 S
C667 C666 1.370 1_565 S
C667 C668 1.403 1_455 S
C668 C667 1.403 1_655 S
C668 C669 1.404 . S
C668 C671 1.539 . S
C669 C665 1.408 1_655 S
C669 C668 1.404 . S
C669 H681 0.930 . S
C670 C666 1.524 . S
C670 H682 0.956 . S
C670 H683 0.961 . S
C670 H684 0.961 . S
C671 C668 1.539 . S
C671 H685 0.958 . S
C671 H686 0.961 . S
C671 H687 0.960 . S
H672 C656 0.931 . S
H673 C661 0.929 . S
H674 C662 0.960 1_655 S
H675 C662 0.962 . S
H676 C662 0.960 1_655 S
H677 C663 0.961 1_455 S
H678 C663 0.961 1_455 S
H679 C663 0.961 . S
H680 C664 0.931 . S
H681 C669 0.930 . S
H682 C670 0.956 . S
H683 C670 0.961 . S
H684 C670 0.961 . S
H685 C671 0.958 . S
H686 C671 0.961 . S
H687 C671 0.960 . S
C688 C689 1.391 . S
C688 C690 1.394 . S
C688 H704 0.931 . S
C689 C688 1.391 . S
C689 C693 1.376 1_655 S
C690 C688 1.394 . S
C690 C691 1.369 1_655 S
C690 C694 1.531 . S
C691 C690 1.369 1_455 S
C691 C692 1.410 . S
C691 C699 1.503 . S
C692 C691 1.410 . S
C692 C693 1.392 . S
C692 C695 1.511 . S
C693 C689 1.376 1_455 S
C693 C692 1.392 . S
C693 H705 0.929 . S
C694 C690 1.531 . S
C694 H706 0.960 . S
C694 H707 0.962 . S
C694 H708 0.960 1_545 S
C695 C692 1.511 . S
C695 H709 0.961 . S
C695 H710 0.961 . S
C695 H711 0.961 . S
C696 C697 1.370 . S
C696 C698 1.363 . S
C696 H712 0.931 . S
C697 C696 1.370 . S
C697 C701 1.408 . S
C698 C696 1.363 . S
C698 C699 1.370 . S
C698 C702 1.524 . S
C699 C691 1.503 . S
C699 C698 1.370 . S
C699 C700 1.403 . S
C700 C699 1.403 . S
C700 C701 1.404 . S
C700 C703 1.539 . S
C701 C697 1.408 . S
C701 C700 1.404 . S
C701 H713 0.930 . S
C702 C698 1.524 . S
C702 H714 0.956 . S
C702 H715 0.961 . S
C702 H716 0.961 . S
C703 C700 1.539 . S
C703 H717 0.958 1_455 S
C703 H718 0.961 . S
C703 H719 0.960 . S
H704 C688 0.931 . S
H705 C693 0.929 . S
H706 C694 0.960 . S
H707 C694 0.962 . S
H708 C694 0.960 1_565 S
H709 C695 0.961 . S
H710 C695 0.961 . S
H711 C695 0.961 . S
H712 C696 0.931 . S
H713 C701 0.930 . S
H714 C702 0.956 . S
H715 C702 0.961 . S
H716 C702 0.961 . S
H717 C703 0.958 1_655 S
H718 C703 0.961 . S
H719 C703 0.960 . S
C337 C224 0.846 . S
C345 C68 0.756 . S
C369 C308 0.724 . S
C377 C152 0.807 . S
C401 C236 1.689 1_545 S
C409 C56 1.742 . S
C433 C140 1.763 . S
C441 C320 1.715 1_455 S
C465 C151 2.045 . S
C473 C67 2.041 . S
C497 C139 1.163 . S
C505 C226 0.984 . S
C529 C322 1.764 . S
C537 C238 1.749 . S
C561 C310 1.005 . S
C569 C55 1.194 . S
C593 C223 2.046 1_556 S
C601 C307 2.039 . S
C625 C70 1.080 . S
C633 C319 1.211 . S
C657 C142 1.749 . S
C665 C58 1.752 . S
C689 C235 1.163 . S
C697 C154 0.988 . S
