# Generated by pormake.
# Topology neb, (4)-cn, num edge types: 1
# Building blocks:
#     Node 0, Type 0, BuildingBlock: QUQFOY_clean_sbu_1, # of connection points: 4
#     Node 1, Type 0, BuildingBlock: QUQFOY_clean_sbu_1, # of connection points: 4
#     Node 2, Type 0, BuildingBlock: QUQFOY_clean_sbu_1, # of connection points: 4
#     Node 3, Type 0, BuildingBlock: QUQFOY_clean_sbu_1, # of connection points: 4
#     Node 4, Type 0, BuildingBlock: QUQFOY_clean_sbu_1, # of connection points: 4
#     Node 5, Type 0, BuildingBlock: QUQFOY_clean_sbu_1, # of connection points: 4
#     Node 6, Type 0, BuildingBlock: QUQFOY_clean_sbu_1, # of connection points: 4
#     Node 7, Type 0, BuildingBlock: QUQFOY_clean_sbu_1, # of connection points: 4
#     Node 8, Type 0, BuildingBlock: QUQFOY_clean_sbu_1, # of connection points: 4
#     Node 9, Type 0, BuildingBlock: QUQFOY_clean_sbu_1, # of connection points: 4
#     Node 10, Type 0, BuildingBlock: QUQFOY_clean_sbu_1, # of connection points: 4
#     Node 11, Type 0, BuildingBlock: QUQFOY_clean_sbu_1, # of connection points: 4
#     Node 12, Type 0, BuildingBlock: QUQFOY_clean_sbu_1, # of connection points: 4
#     Node 13, Type 0, BuildingBlock: QUQFOY_clean_sbu_1, # of connection points: 4
#     Node 14, Type 0, BuildingBlock: QUQFOY_clean_sbu_1, # of connection points: 4
#     Node 15, Type 0, BuildingBlock: QUQFOY_clean_sbu_1, # of connection points: 4
#     Edge 16, Type (0, 0), BuildingBlock: ZUJKAS_clean_linker_0, # of connection points: 2
#     Edge 17, Type (0, 0), BuildingBlock: ZUJKAS_clean_linker_0, # of connection points: 2
#     Edge 18, Type (0, 0), BuildingBlock: ZUJKAS_clean_linker_0, # of connection points: 2
#     Edge 19, Type (0, 0), BuildingBlock: ZUJKAS_clean_linker_0, # of connection points: 2
#     Edge 20, Type (0, 0), BuildingBlock: ZUJKAS_clean_linker_0, # of connection points: 2
#     Edge 21, Type (0, 0), BuildingBlock: ZUJKAS_clean_linker_0, # of connection points: 2
#     Edge 22, Type (0, 0), BuildingBlock: ZUJKAS_clean_linker_0, # of connection points: 2
#     Edge 23, Type (0, 0), BuildingBlock: ZUJKAS_clean_linker_0, # of connection points: 2
#     Edge 24, Type (0, 0), BuildingBlock: ZUJKAS_clean_linker_0, # of connection points: 2
#     Edge 25, Type (0, 0), BuildingBlock: ZUJKAS_clean_linker_0, # of connection points: 2
#     Edge 26, Type (0, 0), BuildingBlock: ZUJKAS_clean_linker_0, # of connection points: 2
#     Edge 27, Type (0, 0), BuildingBlock: ZUJKAS_clean_linker_0, # of connection points: 2
#     Edge 28, Type (0, 0), BuildingBlock: ZUJKAS_clean_linker_0, # of connection points: 2
#     Edge 29, Type (0, 0), BuildingBlock: ZUJKAS_clean_linker_0, # of connection points: 2
#     Edge 30, Type (0, 0), BuildingBlock: ZUJKAS_clean_linker_0, # of connection points: 2
#     Edge 31, Type (0, 0), BuildingBlock: ZUJKAS_clean_linker_0, # of connection points: 2
#     Edge 32, Type (0, 0), BuildingBlock: ZUJKAS_clean_linker_0, # of connection points: 2
#     Edge 33, Type (0, 0), BuildingBlock: ZUJKAS_clean_linker_0, # of connection points: 2
#     Edge 34, Type (0, 0), BuildingBlock: ZUJKAS_clean_linker_0, # of connection points: 2
#     Edge 35, Type (0, 0), BuildingBlock: ZUJKAS_clean_linker_0, # of connection points: 2
#     Edge 36, Type (0, 0), BuildingBlock: ZUJKAS_clean_linker_0, # of connection points: 2
#     Edge 37, Type (0, 0), BuildingBlock: ZUJKAS_clean_linker_0, # of connection points: 2
#     Edge 38, Type (0, 0), BuildingBlock: ZUJKAS_clean_linker_0, # of connection points: 2
#     Edge 39, Type (0, 0), BuildingBlock: ZUJKAS_clean_linker_0, # of connection points: 2
#     Edge 40, Type (0, 0), BuildingBlock: ZUJKAS_clean_linker_0, # of connection points: 2
#     Edge 41, Type (0, 0), BuildingBlock: ZUJKAS_clean_linker_0, # of connection points: 2
#     Edge 42, Type (0, 0), BuildingBlock: ZUJKAS_clean_linker_0, # of connection points: 2
#     Edge 43, Type (0, 0), BuildingBlock: ZUJKAS_clean_linker_0, # of connection points: 2
#     Edge 44, Type (0, 0), BuildingBlock: ZUJKAS_clean_linker_0, # of connection points: 2
#     Edge 45, Type (0, 0), BuildingBlock: ZUJKAS_clean_linker_0, # of connection points: 2
#     Edge 46, Type (0, 0), BuildingBlock: ZUJKAS_clean_linker_0, # of connection points: 2
#     Edge 47, Type (0, 0), BuildingBlock: ZUJKAS_clean_linker_0, # of connection points: 2
# Relax obj value: 0.018
# Max RMSD: 0.097
# Mean RMSD: 0.097
data_MOF--net-neb--node1-QUQFOY_clean_sbu_1--edge1-ZUJKAS_clean_linker_0
_symmetry_space_group_name_H-M    P1
_symmetry_Int_Tables_number       1
_symmetry_cell_setting            triclinic
loop_
_symmetry_equiv_pos_as_xyz
'x, y, z'
_cell_length_a     63.36722
_cell_length_b     28.334113
_cell_length_c     101.38213
_cell_angle_alpha  89.996169
_cell_angle_beta   90.004466
_cell_angle_gamma 90.001358
loop_
_atom_site_label
_atom_site_type_symbol
_atom_site_fract_x
_atom_site_fract_y
_atom_site_fract_z
_atom_type_partial_charge
O0 O 0.12499 0.05573 0.43452 0.0
Cd1 Cd 0.11297 0.11202 0.44495 0.0
Cd2 Cd 0.15626 0.13572 0.44497 0.0
O3 O 0.1591 0.07101 0.43578 0.0
O4 O 0.08314 0.0927 0.44818 0.0
O5 O 0.10595 0.10458 0.4643 0.0
C6 C 0.0872 0.09246 0.46062 0.0
C7 C 0.18165 0.1579 0.46062 0.0
C8 C 0.14401 0.04484 0.43194 0.0
C9 C 0.12555 0.20039 0.43072 0.0
O10 O 0.1445 0.18998 0.43362 0.0
O11 O 0.11037 0.17501 0.43483 0.0
O12 O 0.186 0.15566 0.44823 0.0
O13 O 0.1628 0.14641 0.46427 0.0
O14 O 0.14396 0.05551 0.82677 0.0
Cd15 Cd 0.15587 0.1115 0.81615 0.0
Cd16 Cd 0.11263 0.13492 0.81615 0.0
O17 O 0.10984 0.07045 0.82548 0.0
O18 O 0.1857 0.09221 0.81293 0.0
O19 O 0.16284 0.10352 0.79681 0.0
C20 C 0.18162 0.09161 0.80049 0.0
C21 C 0.08728 0.15652 0.80042 0.0
C22 C 0.12497 0.04456 0.8294 0.0
C23 C 0.14329 0.20004 0.83027 0.0
O24 O 0.12433 0.18945 0.82743 0.0
O25 O 0.15848 0.17472 0.82615 0.0
O26 O 0.08288 0.1546 0.8128 0.0
O27 O 0.10616 0.14508 0.79682 0.0
O28 O 0.89477 0.94066 0.57696 0.0
Cd29 Cd 0.90644 0.88544 0.56594 0.0
Cd30 Cd 0.86324 0.86235 0.56605 0.0
O31 O 0.8606 0.92621 0.57572 0.0
O32 O 0.93625 0.90486 0.56266 0.0
O33 O 0.91316 0.89463 0.54661 0.0
C34 C 0.932 0.90624 0.55025 0.0
C35 C 0.8377 0.84146 0.55036 0.0
C36 C 0.87583 0.9516 0.57974 0.0
C37 C 0.89399 0.79625 0.57974 0.0
O38 O 0.87501 0.80717 0.57705 0.0
O39 O 0.90916 0.82162 0.57562 0.0
O40 O 0.83344 0.84283 0.56277 0.0
O41 O 0.85652 0.85316 0.54672 0.0
O42 O 0.87513 0.93985 0.18457 0.0
Cd43 Cd 0.86331 0.88414 0.19534 0.0
Cd44 Cd 0.90654 0.86066 0.19521 0.0
O45 O 0.90926 0.92483 0.18571 0.0
O46 O 0.83352 0.90364 0.19865 0.0
O47 O 0.85655 0.89257 0.2147 0.0
C48 C 0.83774 0.90451 0.21107 0.0
C49 C 0.93206 0.83944 0.21088 0.0
C50 C 0.89409 0.95067 0.18182 0.0
C51 C 0.8757 0.79523 0.18135 0.0
O52 O 0.89468 0.80583 0.18411 0.0
O53 O 0.86056 0.82071 0.18546 0.0
O54 O 0.9363 0.84092 0.19846 0.0
O55 O 0.91323 0.85112 0.21453 0.0
O56 O 0.12449 0.55542 0.9345 0.0
Cd57 Cd 0.11236 0.61115 0.94512 0.0
Cd58 Cd 0.15558 0.63507 0.94518 0.0
O59 O 0.15858 0.57066 0.93584 0.0
O60 O 0.08259 0.59122 0.94827 0.0
O61 O 0.10532 0.60285 0.96444 0.0
C62 C 0.08662 0.59051 0.96071 0.0
C63 C 0.18085 0.65732 0.96089 0.0
C64 C 0.1435 0.54465 0.93189 0.0
C65 C 0.12476 0.69981 0.93102 0.0
O66 O 0.14372 0.68938 0.93388 0.0
O67 O 0.1096 0.67438 0.93513 0.0
O68 O 0.18525 0.65538 0.9485 0.0
O69 O 0.16203 0.64543 0.9645 0.0
O70 O 0.14526 0.55673 0.3268 0.0
Cd71 Cd 0.15744 0.61259 0.31625 0.0
Cd72 Cd 0.11424 0.63695 0.31619 0.0
O73 O 0.11122 0.5727 0.3256 0.0
O74 O 0.18718 0.59265 0.313 0.0
O75 O 0.16437 0.60475 0.2969 0.0
C76 C 0.18309 0.59233 0.30056 0.0
C77 C 0.08882 0.65873 0.30051 0.0
C78 C 0.12622 0.54634 0.32947 0.0
C79 C 0.14516 0.70149 0.33031 0.0
O80 O 0.12619 0.69143 0.32738 0.0
O81 O 0.16026 0.67568 0.32629 0.0
O82 O 0.08454 0.65718 0.31292 0.0
O83 O 0.10762 0.64685 0.29687 0.0
O84 O 0.89375 0.43991 0.07696 0.0
Cd85 Cd 0.90567 0.38433 0.06618 0.0
Cd86 Cd 0.86243 0.36072 0.06625 0.0
O87 O 0.85962 0.42488 0.07575 0.0
O88 O 0.93545 0.40409 0.06297 0.0
O89 O 0.91255 0.39303 0.04685 0.0
C90 C 0.93131 0.40511 0.05054 0.0
C91 C 0.83699 0.33934 0.05056 0.0
C92 C 0.87477 0.45071 0.07967 0.0
C93 C 0.89328 0.29536 0.08015 0.0
O94 O 0.8743 0.30596 0.07737 0.0
O95 O 0.90843 0.32084 0.07604 0.0
O96 O 0.83269 0.34086 0.06296 0.0
O97 O 0.85581 0.3511 0.04693 0.0
O98 O 0.87489 0.44223 0.68422 0.0
Cd99 Cd 0.86302 0.38658 0.69499 0.0
Cd100 Cd 0.90639 0.36336 0.69504 0.0
O101 O 0.90903 0.42746 0.68549 0.0
O102 O 0.8332 0.40599 0.6982 0.0
O103 O 0.85615 0.39541 0.71431 0.0
C104 C 0.83736 0.40722 0.71062 0.0
C105 C 0.9319 0.34256 0.71075 0.0
C106 C 0.89386 0.45319 0.68154 0.0
C107 C 0.8757 0.29726 0.68127 0.0
O108 O 0.89465 0.30814 0.68405 0.0
O109 O 0.86049 0.32278 0.68526 0.0
O110 O 0.93619 0.344 0.69835 0.0
O111 O 0.91304 0.35408 0.71437 0.0
O112 O 0.62418 0.05544 0.93452 0.0
Cd113 Cd 0.61218 0.11171 0.94499 0.0
Cd114 Cd 0.65545 0.13518 0.94508 0.0
O115 O 0.65828 0.07064 0.9358 0.0
O116 O 0.58236 0.09237 0.94825 0.0
O117 O 0.60523 0.10425 0.96434 0.0
C118 C 0.58647 0.0921 0.96069 0.0
C119 C 0.6808 0.15693 0.9608 0.0
C120 C 0.64319 0.04455 0.93193 0.0
C121 C 0.62486 0.20011 0.93082 0.0
O122 O 0.64378 0.18962 0.93377 0.0
O123 O 0.60963 0.17476 0.93488 0.0
O124 O 0.68519 0.15497 0.94842 0.0
O125 O 0.66193 0.14544 0.9644 0.0
O126 O 0.64452 0.05534 0.3268 0.0
Cd127 Cd 0.65657 0.11122 0.3162 0.0
Cd128 Cd 0.61338 0.13495 0.31615 0.0
O129 O 0.61042 0.07048 0.32546 0.0
O130 O 0.68635 0.09158 0.31297 0.0
O131 O 0.66351 0.10322 0.29686 0.0
C132 C 0.68226 0.09104 0.30054 0.0
C133 C 0.58816 0.15714 0.3004 0.0
C134 C 0.62551 0.0445 0.3294 0.0
C135 C 0.64411 0.19975 0.33034 0.0
O136 O 0.62515 0.18927 0.32747 0.0
O137 O 0.65929 0.17439 0.32622 0.0
O138 O 0.58371 0.15512 0.31277 0.0
O139 O 0.60701 0.14537 0.29682 0.0
O140 O 0.39353 0.94082 0.07758 0.0
Cd141 Cd 0.40527 0.88665 0.06618 0.0
Cd142 Cd 0.36203 0.86289 0.06626 0.0
O143 O 0.3594 0.92583 0.07641 0.0
O144 O 0.43496 0.90676 0.06283 0.0
O145 O 0.41165 0.89732 0.04687 0.0
C146 C 0.43052 0.90892 0.05046 0.0
C147 C 0.33635 0.84313 0.05055 0.0
C148 C 0.37459 0.95119 0.08051 0.0
C149 C 0.39315 0.79573 0.07923 0.0
O150 O 0.37412 0.80661 0.07668 0.0
O151 O 0.40822 0.82193 0.07537 0.0
O152 O 0.33225 0.84332 0.06299 0.0
O153 O 0.35508 0.85548 0.0469 0.0
O154 O 0.37437 0.94055 0.68431 0.0
Cd155 Cd 0.3627 0.88524 0.6953 0.0
Cd156 Cd 0.40593 0.86222 0.6952 0.0
O157 O 0.40854 0.92612 0.68555 0.0
O158 O 0.33288 0.90456 0.69856 0.0
O159 O 0.35593 0.8943 0.71463 0.0
C160 C 0.33709 0.90588 0.71098 0.0
C161 C 0.43149 0.84134 0.71087 0.0
C162 C 0.39331 0.95152 0.68153 0.0
C163 C 0.37521 0.79615 0.68147 0.0
O164 O 0.39418 0.80707 0.68418 0.0
O165 O 0.36002 0.82147 0.68559 0.0
O166 O 0.43573 0.84275 0.69846 0.0
O167 O 0.41266 0.85298 0.71452 0.0
O168 O 0.62506 0.55557 0.43452 0.0
Cd169 Cd 0.61308 0.6114 0.44517 0.0
Cd170 Cd 0.65629 0.63504 0.44516 0.0
O171 O 0.65917 0.5706 0.43583 0.0
O172 O 0.58331 0.5917 0.44844 0.0
O173 O 0.60623 0.60324 0.46452 0.0
C174 C 0.58747 0.59105 0.46087 0.0
C175 C 0.68165 0.65695 0.46086 0.0
C176 C 0.64406 0.54468 0.4319 0.0
C177 C 0.62551 0.7 0.43106 0.0
O178 O 0.64448 0.68947 0.43389 0.0
O179 O 0.61034 0.67464 0.43519 0.0
O180 O 0.68601 0.65505 0.44846 0.0
O181 O 0.66281 0.64527 0.46448 0.0
O182 O 0.64443 0.55722 0.82685 0.0
Cd183 Cd 0.65638 0.61291 0.81612 0.0
Cd184 Cd 0.61314 0.63643 0.81613 0.0
O185 O 0.61031 0.57206 0.82552 0.0
O186 O 0.68617 0.59325 0.81292 0.0
O187 O 0.66329 0.60435 0.7968 0.0
C188 C 0.68204 0.59229 0.80049 0.0
C189 C 0.58776 0.65809 0.80043 0.0
C190 C 0.62544 0.54627 0.82948 0.0
C191 C 0.6439 0.70167 0.83015 0.0
O192 O 0.62494 0.69102 0.82735 0.0
O193 O 0.65908 0.67633 0.82602 0.0
O194 O 0.58341 0.65631 0.81282 0.0
O195 O 0.6066 0.64643 0.79681 0.0
O196 O 0.39422 0.44217 0.57694 0.0
Cd197 Cd 0.40602 0.38638 0.56619 0.0
Cd198 Cd 0.36264 0.36331 0.56622 0.0
O199 O 0.36006 0.42756 0.57568 0.0
O200 O 0.43582 0.40572 0.56289 0.0
O201 O 0.41276 0.39491 0.54685 0.0
C202 C 0.43157 0.40674 0.55047 0.0
C203 C 0.33707 0.34215 0.55058 0.0
C204 C 0.37525 0.45325 0.57961 0.0
C205 C 0.39335 0.2973 0.58002 0.0
O206 O 0.3744 0.30825 0.57726 0.0
O207 O 0.40858 0.32269 0.57597 0.0
O208 O 0.33283 0.34386 0.56299 0.0
O209 O 0.3559 0.35365 0.54691 0.0
O210 O 0.37576 0.44081 0.18357 0.0
Cd211 Cd 0.36404 0.38661 0.19496 0.0
Cd212 Cd 0.40726 0.36287 0.19487 0.0
O213 O 0.4099 0.42582 0.18473 0.0
O214 O 0.33436 0.4067 0.19834 0.0
O215 O 0.35771 0.39717 0.21428 0.0
C216 C 0.33884 0.40879 0.21072 0.0
C217 C 0.43291 0.34309 0.21059 0.0
C218 C 0.3947 0.4512 0.18063 0.0
C219 C 0.37614 0.29573 0.18189 0.0
O220 O 0.39517 0.30659 0.18444 0.0
O221 O 0.36108 0.32192 0.18576 0.0
O222 O 0.43704 0.34331 0.19816 0.0
O223 O 0.41417 0.35543 0.21423 0.0
H224 H 0.29619 0.31853 0.55575 0.0
H225 H 0.26991 0.28739 0.54046 0.0
H226 H 0.31486 0.29649 0.50863 0.0
H227 H 0.34133 0.32834 0.5239 0.0
H228 H 0.2742 0.33049 0.5022 0.0
H229 H 0.27 0.15323 0.52536 0.0
H230 H 0.26579 0.20125 0.53661 0.0
H231 H 0.29106 0.19435 0.52878 0.0
C232 C 0.30053 0.31405 0.54549 0.0
C233 C 0.32092 0.32567 0.54106 0.0
C234 C 0.2855 0.29593 0.53678 0.0
C235 C 0.29056 0.28871 0.52347 0.0
C236 C 0.3107 0.30144 0.5189 0.0
H237 H 0.22249 0.18198 0.45548 0.0
H238 H 0.24866 0.2135 0.47078 0.0
C239 C 0.32579 0.31966 0.52763 0.0
C240 C 0.27472 0.26821 0.51434 0.0
H241 H 0.24427 0.17048 0.50903 0.0
C242 C 0.26774 0.29542 0.50363 0.0
C243 C 0.26625 0.22249 0.51629 0.0
C244 C 0.27377 0.19089 0.52731 0.0
C245 C 0.25222 0.27847 0.49494 0.0
C246 C 0.24375 0.23275 0.49689 0.0
C247 C 0.25073 0.20555 0.50759 0.0
C248 C 0.22795 0.2122 0.48774 0.0
C249 C 0.24471 0.31006 0.48391 0.0
C250 C 0.20781 0.1994 0.49229 0.0
C251 C 0.19277 0.18098 0.48356 0.0
C252 C 0.19771 0.17482 0.47014 0.0
C253 C 0.21809 0.18657 0.46572 0.0
C254 C 0.23306 0.2049 0.47444 0.0
H255 H 0.24847 0.34772 0.48586 0.0
H256 H 0.2527 0.2997 0.47462 0.0
H257 H 0.22742 0.30657 0.48243 0.0
H258 H 0.20361 0.20441 0.50255 0.0
H259 H 0.17724 0.1722 0.48727 0.0
H260 H 0.92766 0.91987 0.52356 0.0
H261 H 0.95423 0.95064 0.50819 0.0
H262 H 0.99908 0.96114 0.54004 0.0
H263 H 0.97286 0.9301 0.55537 0.0
H264 H 0.97499 0.03842 0.50964 0.0
H265 H 0.03242 0.89078 0.51164 0.0
H266 H 1.00559 0.88507 0.51743 0.0
H267 H 0.02514 0.91352 0.52754 0.0
C268 C 0.94326 0.92824 0.52725 0.0
C269 C 0.94816 0.92235 0.54068 0.0
C270 C 0.95839 0.94591 0.51847 0.0
C271 C 0.97872 0.95758 0.52295 0.0
C272 C 0.98365 0.95148 0.53632 0.0
H273 H 0.09134 0.0799 0.48736 0.0
H274 H 0.06468 0.04955 0.50273 0.0
C275 C 0.96857 0.93393 0.54508 0.0
C276 C 0.99454 0.9781 0.5138 0.0
H277 H 0.044 0.96138 0.50124 0.0
C278 C 0.99002 0.02145 0.50772 0.0
C279 C 0.0142 0.95604 0.5114 0.0
C280 C 0.01961 0.90857 0.51724 0.0
C281 C 1.00478 0.04374 0.49948 0.0
C282 C 0.02445 0.0217 0.49708 0.0
C283 C 0.02897 0.97835 0.50316 0.0
C284 C 0.04028 0.0422 0.48794 0.0
C285 C 0.99937 0.09117 0.49361 0.0
C286 C 0.03541 0.04798 0.47455 0.0
C287 C 0.05055 0.06526 0.46578 0.0
C288 C 0.07094 0.07692 0.4702 0.0
C289 C 0.07576 0.07147 0.48365 0.0
C290 C 0.06057 0.05403 0.49244 0.0
H291 H 0.98651 0.10891 0.49916 0.0
H292 H 0.01337 0.11473 0.49346 0.0
H293 H 0.99394 0.08618 0.4833 0.0
H294 H 0.02 0.03822 0.47081 0.0
H295 H 0.04632 0.06878 0.45547 0.0
H296 H 0.34137 0.91946 0.73767 0.0
H297 H 0.31474 0.95006 0.75303 0.0
H298 H 0.26993 0.96039 0.72115 0.0
H299 H 0.29621 0.92953 0.70583 0.0
H300 H 0.2939 0.03777 0.75155 0.0
H301 H 0.23663 0.88982 0.74953 0.0
H302 H 0.26347 0.88424 0.74377 0.0
H303 H 0.24391 0.91258 0.73365 0.0
C304 C 0.32577 0.92775 0.73397 0.0
C305 C 0.3209 0.92187 0.72054 0.0
C306 C 0.3106 0.94533 0.74274 0.0
C307 C 0.29027 0.95691 0.73826 0.0
C308 C 0.28537 0.95081 0.72488 0.0
H309 H 0.17748 0.07869 0.77377 0.0
H310 H 0.20417 0.04833 0.75842 0.0
C311 C 0.30048 0.93336 0.71612 0.0
C312 C 0.27442 0.97734 0.74739 0.0
H313 H 0.22496 0.96035 0.75993 0.0
C314 C 0.27888 0.02072 0.75347 0.0
C315 C 0.25477 0.95517 0.74979 0.0
C316 C 0.24942 0.90767 0.74394 0.0
C317 C 0.26408 0.04294 0.7617 0.0
C318 C 0.24444 0.02079 0.76409 0.0
C319 C 0.23997 0.9774 0.75802 0.0
C320 C 0.22857 0.04121 0.77322 0.0
C321 C 0.26943 0.09041 0.76756 0.0
C322 C 0.23343 0.04712 0.78661 0.0
C323 C 0.21828 0.06441 0.79537 0.0
C324 C 0.19787 0.07595 0.79093 0.0
C325 C 0.19306 0.07035 0.77748 0.0
C326 C 0.20827 0.0529 0.76871 0.0
H327 H 0.28227 0.10823 0.762 0.0
H328 H 0.2554 0.11389 0.76771 0.0
H329 H 0.27487 0.08548 0.77787 0.0
H330 H 0.24885 0.03746 0.79035 0.0
H331 H 0.2225 0.06805 0.80567 0.0
H332 H 0.04633 0.17999 0.80541 0.0
H333 H 0.02015 0.21075 0.78998 0.0
H334 H 0.06559 0.20258 0.75841 0.0
H335 H 0.09192 0.17109 0.77379 0.0
H336 H 0.02268 0.29311 0.77523 0.0
H337 H 0.0139 0.13654 0.74274 0.0
H338 H 0.02646 0.13347 0.7587 0.0
H339 H 0.04058 0.15669 0.74476 0.0
C340 C 0.05075 0.1843 0.79516 0.0
C341 C 0.07123 0.17293 0.79082 0.0
C342 C 0.03575 0.20199 0.78636 0.0
C343 C 0.04083 0.20852 0.77303 0.0
C344 C 0.06121 0.197 0.76861 0.0
H345 H 0.97286 0.31933 0.70572 0.0
H346 H 0.99914 0.28887 0.72113 0.0
C347 C 0.07627 0.17919 0.77743 0.0
C348 C 0.02495 0.22901 0.76391 0.0
H349 H 0.99671 0.20669 0.73591 0.0
C350 C 0.01693 0.27417 0.76665 0.0
C351 C 0.01749 0.20423 0.75273 0.0
C352 C 0.02487 0.15488 0.74958 0.0
C353 C 1.00191 0.29557 0.7584 0.0
C354 C 0.99444 0.27079 0.74723 0.0
C355 C 1.00246 0.22563 0.74448 0.0
C356 C 0.97853 0.29123 0.73812 0.0
C357 C 0.99452 0.34493 0.76155 0.0
C358 C 0.95816 0.30275 0.74256 0.0
C359 C 0.94305 0.32041 0.73376 0.0
C360 C 0.94802 0.32649 0.72034 0.0
C361 C 0.96849 0.31516 0.71598 0.0
C362 C 0.98354 0.29763 0.72477 0.0
H363 H 1.00553 0.3633 0.76837 0.0
H364 H 0.99289 0.36631 0.75243 0.0
H365 H 0.97884 0.34312 0.7664 0.0
H366 H 0.95382 0.29727 0.75277 0.0
H367 H 0.9274 0.32848 0.73741 0.0
H368 H 0.79691 0.81689 0.55549 0.0
H369 H 0.77076 0.78554 0.54013 0.0
H370 H 0.81546 0.79787 0.50825 0.0
H371 H 0.84193 0.82888 0.52363 0.0
H372 H 0.75358 0.82531 0.51731 0.0
H373 H 0.7967 0.65929 0.5062 0.0
H374 H 0.80357 0.69691 0.51991 0.0
H375 H 0.81156 0.71239 0.50347 0.0
C376 C 0.80122 0.81307 0.5452 0.0
C377 C 0.82158 0.82515 0.54079 0.0
C378 C 0.78622 0.79514 0.53644 0.0
C379 C 0.79126 0.78865 0.5231 0.0
C380 C 0.81138 0.80173 0.51857 0.0
H381 H 0.7224 0.68186 0.45576 0.0
H382 H 0.74847 0.71352 0.47112 0.0
C383 C 0.82644 0.81974 0.52734 0.0
C384 C 0.77534 0.7682 0.514 0.0
H385 H 0.76558 0.67385 0.49393 0.0
C386 C 0.75616 0.79214 0.51222 0.0
C387 C 0.77874 0.72484 0.50741 0.0
C388 C 0.79866 0.69654 0.5094 0.0
C389 C 0.74041 0.77432 0.50382 0.0
C390 C 0.74381 0.73097 0.49723 0.0
C391 C 0.763 0.70703 0.49902 0.0
C392 C 0.72791 0.71052 0.48812 0.0
C393 C 0.72049 0.80262 0.50184 0.0
C394 C 0.70778 0.69745 0.49264 0.0
C395 C 0.69277 0.67927 0.48386 0.0
C396 C 0.69769 0.67368 0.47042 0.0
C397 C 0.71804 0.68581 0.46603 0.0
C398 C 0.733 0.70391 0.47479 0.0
H399 H 0.72245 0.83987 0.50504 0.0
H400 H 0.71558 0.80224 0.49133 0.0
H401 H 0.70759 0.78677 0.50778 0.0
H402 H 0.70367 0.70139 0.50295 0.0
H403 H 0.67727 0.67008 0.48756 0.0
H404 H 0.72307 0.0668 0.3057 0.0
H405 H 0.74938 0.03621 0.29034 0.0
H406 H 0.70451 0.04687 0.2585 0.0
H407 H 0.67806 0.07822 0.27382 0.0
H408 H 0.74669 0.95458 0.27538 0.0
H409 H 0.75676 0.11178 0.24329 0.0
H410 H 0.74393 0.11471 0.25917 0.0
H411 H 0.72994 0.09231 0.24507 0.0
C412 C 0.71881 0.06312 0.29541 0.0
C413 C 0.69845 0.0751 0.29097 0.0
C414 C 0.73388 0.04551 0.28664 0.0
C415 C 0.729 0.03967 0.27325 0.0
C416 C 0.70875 0.05191 0.26875 0.0
H417 H 0.79689 0.92864 0.206 0.0
H418 H 0.77068 0.95935 0.22141 0.0
C419 C 0.69363 0.06965 0.27752 0.0
C420 C 0.7449 0.01903 0.26418 0.0
H421 H 0.77355 0.04125 0.23634 0.0
C422 C 0.75264 0.97358 0.26687 0.0
C423 C 0.75263 0.04389 0.25309 0.0
C424 C 0.74556 0.09354 0.25001 0.0
C425 C 0.76762 0.95196 0.25864 0.0
C426 C 0.77533 0.9768 0.24754 0.0
C427 C 0.76761 0.02226 0.24485 0.0
C428 C 0.79118 0.9561 0.23844 0.0
C429 C 0.7747 0.90232 0.26172 0.0
C430 C 0.81146 0.94395 0.2429 0.0
C431 C 0.82654 0.92614 0.2341 0.0
C432 C 0.82162 0.92054 0.22067 0.0
C433 C 0.80123 0.93244 0.21628 0.0
C434 C 0.78621 0.95012 0.22507 0.0
H435 H 0.76356 0.88412 0.26848 0.0
H436 H 0.77625 0.8811 0.25256 0.0
H437 H 0.79037 0.90356 0.2666 0.0
H438 H 0.81577 0.94909 0.25314 0.0
H439 H 0.84213 0.91763 0.23777 0.0
H440 H 0.97275 0.8143 0.2057 0.0
H441 H 0.999 0.78348 0.22107 0.0
H442 H 0.95455 0.7972 0.25304 0.0
H443 H 0.92797 0.82764 0.23765 0.0
H444 H 0.01637 0.82431 0.24363 0.0
H445 H 0.97339 0.65892 0.25564 0.0
H446 H 0.96634 0.69583 0.24181 0.0
H447 H 0.95854 0.71214 0.25823 0.0
C448 C 0.96851 0.81087 0.216 0.0
C449 C 0.9482 0.82319 0.22043 0.0
C450 C 0.98357 0.79325 0.22478 0.0
C451 C 0.97864 0.78734 0.23816 0.0
C452 C 0.95855 0.80061 0.2427 0.0
H453 H 0.04816 0.68421 0.30568 0.0
H454 H 0.02196 0.71517 0.2903 0.0
C455 C 0.94343 0.81829 0.23391 0.0
C456 C 0.99464 0.7674 0.24728 0.0
H457 H 1.00461 0.67423 0.26774 0.0
C458 C 0.01384 0.79144 0.24888 0.0
C459 C 0.99131 0.72442 0.25408 0.0
C460 C 0.97137 0.696 0.2523 0.0
C461 C 0.02967 0.77411 0.25729 0.0
C462 C 0.02634 0.73115 0.26409 0.0
C463 C 1.00714 0.7071 0.26249 0.0
C464 C 0.04234 0.71122 0.27322 0.0
C465 C 0.04962 0.80252 0.25906 0.0
C466 C 0.06242 0.69787 0.26868 0.0
C467 C 0.07751 0.6801 0.27748 0.0
C468 C 0.07272 0.67519 0.29095 0.0
C469 C 0.05242 0.68764 0.29538 0.0
C470 C 0.03739 0.70534 0.2866 0.0
H471 H 0.04762 0.83959 0.25571 0.0
H472 H 0.05464 0.80274 0.26956 0.0
H473 H 0.06245 0.78634 0.25315 0.0
H474 H 0.06642 0.70125 0.25834 0.0
H475 H 0.09296 0.67065 0.27375 0.0
H476 H 0.29565 0.81779 0.05567 0.0
H477 H 0.26954 0.78657 0.04027 0.0
H478 H 0.31399 0.80124 0.00833 0.0
H479 H 0.34043 0.83214 0.02376 0.0
H480 H 0.25203 0.82669 0.01752 0.0
H481 H 0.296 0.66208 0.00605 0.0
H482 H 0.30268 0.69949 0.01984 0.0
H483 H 0.31057 0.71567 1.00343 0.0
C484 C 0.29991 0.81455 0.04537 0.0
C485 C 0.32019 0.82721 0.04096 0.0
C486 C 0.28493 0.7967 0.03658 0.0
C487 C 0.28992 0.79086 0.02321 0.0
C488 C 0.30995 0.80461 0.01867 0.0
H489 H 0.22149 0.6832 0.9558 0.0
H490 H 0.2474 0.71539 0.97117 0.0
C491 C 0.32499 0.82256 0.02748 0.0
C492 C 0.27409 0.77023 0.01409 0.0
H493 H 0.26475 0.67605 0.99388 0.0
C494 C 0.25477 0.7937 0.01237 0.0
C495 C 0.27769 0.7271 0.00742 0.0
C496 C 0.29777 0.69929 0.00933 0.0
C497 C 0.23909 0.77566 1.00396 0.0
C498 C 0.24269 0.73253 0.9973 0.0
C499 C 0.26201 0.70905 0.99902 0.0
C500 C 0.22687 0.71183 0.98818 0.0
C501 C 0.21902 0.80349 1.00205 0.0
C502 C 0.2068 0.69825 0.99269 0.0
C503 C 0.19187 0.67977 0.9839 0.0
C504 C 0.19682 0.67436 0.97046 0.0
C505 C 0.21711 0.687 0.96607 0.0
C506 C 0.23198 0.70541 0.97484 0.0
H507 H 0.22082 0.84075 1.00528 0.0
H508 H 0.21405 0.80312 0.99155 0.0
H509 H 0.20624 0.78726 0.008 0.0
H510 H 0.20268 0.70202 1.003 0.0
H511 H 0.17642 0.67021 0.9876 0.0
H512 H 0.09058 0.57828 0.98748 0.0
H513 H 0.06414 0.54611 1.00271 0.0
H514 H 0.01972 0.53386 0.97068 0.0
H515 H 0.04597 0.56532 0.95542 0.0
H516 H 0.02313 0.57864 0.00882 0.0
H517 H 0.02072 0.40033 0.9862 0.0
H518 H 0.04148 0.44219 0.98275 0.0
H519 H 0.01626 0.44772 0.97478 0.0
C520 C 0.07516 0.56887 0.98369 0.0
C521 C 0.07044 0.57406 0.97022 0.0
C522 C 0.06009 0.55046 0.9924 0.0
C523 C 0.04012 0.53672 0.98777 0.0
C524 C 0.03519 0.54318 0.9744 0.0
H525 H 0.9272 0.4176 0.02379 0.0
H526 H 0.95358 0.44981 0.00852 0.0
C527 C 0.0502 0.56149 0.96571 0.0
C528 C 0.02432 0.51592 0.99688 0.0
H529 H 0.99464 0.41713 1.00234 0.0
C530 C 0.01698 0.54324 0.00746 0.0
C531 C 0.01627 0.46978 0.99504 0.0
C532 C 0.02419 0.43806 0.98415 0.0
C533 C 1.0015 0.52598 0.01613 0.0
C534 C 0.99344 0.47984 0.01429 0.0
C535 C 1.00079 0.45252 1.0037 0.0
C536 C 0.97768 0.45901 0.02342 0.0
C537 C 0.99358 0.55768 0.02702 0.0
C538 C 0.98268 0.45244 0.03677 0.0
C539 C 0.96771 0.4341 0.04548 0.0
C540 C 0.94744 0.42162 0.04101 0.0
C541 C 0.94265 0.42695 0.02755 0.0
C542 C 0.95768 0.44538 0.01882 0.0
H543 H 0.99707 0.59541 0.02498 0.0
H544 H 0.97629 0.55357 0.02842 0.0
H545 H 1.00151 0.54797 0.03639 0.0
H546 H 0.99817 0.4617 0.04047 0.0
H547 H 0.972 0.43018 0.05576 0.0
H548 H 0.29814 0.43436 0.2057 0.0
H549 H 0.2722 0.46602 0.22113 0.0
H550 H 0.31707 0.45275 0.2529 0.0
H551 H 0.34335 0.42148 0.23743 0.0
H552 H 0.25502 0.42612 0.2438 0.0
H553 H 0.29857 0.59114 0.2554 0.0
H554 H 0.30542 0.55382 0.24162 0.0
H555 H 0.31329 0.53778 0.25805 0.0
C556 C 0.30255 0.43808 0.21597 0.0
C557 C 0.32289 0.42562 0.22032 0.0
C558 C 0.28766 0.45618 0.22478 0.0
C559 C 0.2928 0.46246 0.23812 0.0
C560 C 0.31292 0.44909 0.24259 0.0
H561 H 0.22376 0.5669 0.30572 0.0
H562 H 0.24993 0.53588 0.29033 0.0
C563 C 0.32787 0.43093 0.23376 0.0
C564 C 0.27695 0.4828 0.24728 0.0
H565 H 0.2674 0.57652 0.26762 0.0
C566 C 0.25769 0.45906 0.24898 0.0
C567 C 0.28046 0.52585 0.254 0.0
C568 C 0.30046 0.55395 0.25212 0.0
C569 C 0.24197 0.4768 0.2574 0.0
C570 C 0.24548 0.51986 0.26412 0.0
C571 C 0.26474 0.54358 0.26243 0.0
C572 C 0.22959 0.54021 0.27325 0.0
C573 C 0.22196 0.44874 0.25928 0.0
C574 C 0.20955 0.55388 0.2687 0.0
C575 C 0.19448 0.57172 0.2775 0.0
C576 C 0.19925 0.57633 0.29098 0.0
C577 C 0.21952 0.56368 0.29541 0.0
C578 C 0.23454 0.54596 0.28663 0.0
H579 H 0.2238 0.4116 0.25596 0.0
H580 H 0.21704 0.44874 0.26979 0.0
H581 H 0.20912 0.46506 0.25339 0.0
H582 H 0.20554 0.55059 0.25836 0.0
H583 H 0.17905 0.58129 0.27377 0.0
H584 H 0.67643 0.16967 0.98753 0.0
H585 H 0.70287 0.20052 1.00295 0.0
H586 H 0.74767 0.21303 0.97113 0.0
H587 H 0.72157 0.1818 0.95573 0.0
H588 H 0.76476 0.17284 0.99385 0.0
H589 H 0.72181 0.33877 1.00531 0.0
H590 H 0.7069 0.28569 0.00797 0.0
H591 H 0.71486 0.30148 0.99154 0.0
C592 C 0.69193 0.17885 0.98383 0.0
C593 C 0.69685 0.17347 0.97039 0.0
C594 C 0.70697 0.19677 0.99264 0.0
C595 C 0.72712 0.20981 0.98814 0.0
C596 C 0.73219 0.20344 0.9748 0.0
H597 H 0.84124 0.327 0.02382 0.0
H598 H 0.81477 0.29623 0.0084 0.0
C599 C 0.71721 0.18559 0.96601 0.0
C600 C 0.74305 0.22996 0.99728 0.0
H601 H 0.75292 0.32371 0.01755 0.0
C602 C 0.76222 0.20588 0.99901 0.0
C603 C 0.7397 0.27315 1.00396 0.0
C604 C 0.7198 0.3016 1.00205 0.0
C605 C 0.77799 0.2234 0.00743 0.0
C606 C 0.77463 0.26659 0.01411 0.0
C607 C 0.75547 0.29066 0.01239 0.0
C608 C 0.79057 0.28674 0.02325 0.0
C609 C 0.79789 0.19497 0.00934 0.0
C610 C 0.78555 0.29297 0.0366 0.0
C611 C 0.80055 0.31075 0.04538 0.0
C612 C 0.8209 0.32296 0.04098 0.0
C613 C 0.82576 0.31776 0.02753 0.0
C614 C 0.8107 0.29989 0.01873 0.0
H615 H 0.79589 0.15781 0.00607 0.0
H616 H 0.81079 0.21092 1.00344 0.0
H617 H 0.80281 0.19505 0.01986 0.0
H618 H 0.77009 0.2833 0.04028 0.0
H619 H 0.79624 0.31442 0.05567 0.0
H620 H 0.67789 0.57933 0.77376 0.0
H621 H 0.7043 0.54718 0.7585 0.0
H622 H 0.74903 0.53647 0.79041 0.0
H623 H 0.72282 0.5679 0.80569 0.0
H624 H 0.74514 0.58015 0.75217 0.0
H625 H 0.74833 0.40253 0.77518 0.0
H626 H 0.72747 0.44416 0.77861 0.0
H627 H 0.75275 0.4503 0.78648 0.0
C628 C 0.69337 0.57026 0.77751 0.0
C629 C 0.69819 0.57587 0.79096 0.0
C630 C 0.70843 0.55186 0.76879 0.0
C631 C 0.72848 0.53856 0.77338 0.0
C632 C 0.7335 0.54545 0.78671 0.0
H633 H 0.84153 0.42038 0.73734 0.0
H634 H 0.81511 0.45251 0.75259 0.0
C635 C 0.71851 0.56373 0.79542 0.0
C636 C 0.74426 0.51776 0.76426 0.0
H637 H 0.77424 0.41933 0.75892 0.0
C638 C 0.75142 0.5449 0.75359 0.0
C639 C 0.75248 0.47181 0.76618 0.0
C640 C 0.74476 0.44026 0.77716 0.0
C641 C 0.76689 0.52767 0.74491 0.0
C642 C 0.77512 0.48172 0.74683 0.0
C643 C 0.76796 0.45458 0.7575 0.0
C644 C 0.79091 0.46093 0.73772 0.0
C645 C 0.77462 0.55919 0.73393 0.0
C646 C 0.78588 0.45395 0.72439 0.0
C647 C 0.80087 0.43567 0.71569 0.0
C648 C 0.82121 0.42364 0.72015 0.0
C649 C 0.82603 0.42937 0.73359 0.0
C650 C 0.81098 0.44775 0.74231 0.0
H651 H 0.77101 0.59692 0.73589 0.0
H652 H 0.7919 0.55535 0.73249 0.0
H653 H 0.76665 0.54909 0.7246 0.0
H654 H 0.77033 0.46285 0.7207 0.0
H655 H 0.79656 0.43142 0.70542 0.0
H656 H 0.59053 0.08103 0.98748 0.0
H657 H 0.564 0.05057 1.00291 0.0
H658 H 0.5195 0.03651 0.97098 0.0
H659 H 0.5457 0.0673 0.95557 0.0
H660 H 0.50215 0.07705 0.99373 0.0
H661 H 0.54553 0.91169 1.00522 0.0
H662 H 0.5603 0.96503 0.00782 0.0
H663 H 0.55232 0.94893 0.99141 0.0
C664 C 0.57506 0.07167 0.98376 0.0
C665 C 0.57028 0.07637 0.97028 0.0
C666 C 0.55997 0.05396 0.99257 0.0
C667 C 0.5399 0.04052 0.98804 0.0
C668 C 0.53492 0.0464 0.97467 0.0
H669 H 0.42604 0.92198 0.02375 0.0
H670 H 0.45235 0.95335 0.00833 0.0
C671 C 0.54996 0.064 0.96587 0.0
C672 C 0.524 0.0202 0.99717 0.0
H673 H 0.51435 0.92627 0.01741 0.0
C674 C 0.50477 0.04403 0.99889 0.0
C675 C 0.52745 0.97704 1.00384 0.0
C676 C 0.54743 0.94886 1.00193 0.0
C677 C 0.48904 0.02631 0.00731 0.0
C678 C 0.4925 0.98314 0.01399 0.0
C679 C 0.51172 0.9593 0.01225 0.0
C680 C 0.47662 0.96277 0.02313 0.0
C681 C 0.46907 0.05451 0.00922 0.0
C682 C 0.48174 0.9563 0.03646 0.0
C683 C 0.46683 0.93814 0.04525 0.0
C684 C 0.44649 0.92582 0.04087 0.0
C685 C 0.44152 0.93131 0.02744 0.0
C686 C 0.45649 0.94954 0.01864 0.0
H687 H 0.47101 0.09172 0.00598 0.0
H688 H 0.45622 0.03849 1.00329 0.0
H689 H 0.46413 0.05428 0.01973 0.0
H690 H 0.49721 0.96602 0.04012 0.0
H691 H 0.47123 0.93427 0.05551 0.0
H692 H 0.47365 0.31801 0.20551 0.0
H693 H 0.49973 0.28674 0.22093 0.0
H694 H 0.45514 0.30085 0.25281 0.0
H695 H 0.42874 0.33181 0.23737 0.0
H696 H 0.51709 0.32672 0.24377 0.0
H697 H 0.47326 0.16169 0.25497 0.0
H698 H 0.46662 0.19923 0.24119 0.0
H699 H 0.45861 0.21516 0.2576 0.0
C700 C 0.46936 0.31463 0.21581 0.0
C701 C 0.44905 0.32715 0.2202 0.0
C702 C 0.48432 0.29676 0.22461 0.0
C703 C 0.47928 0.29074 0.23796 0.0
C704 C 0.45922 0.30435 0.24248 0.0
H705 H 0.54746 0.18266 0.30541 0.0
H706 H 0.52159 0.21485 0.29001 0.0
C707 C 0.4442 0.32234 0.23367 0.0
C708 C 0.49509 0.27008 0.24709 0.0
H709 H 0.50443 0.17567 0.26722 0.0
C710 C 0.51437 0.29364 0.24888 0.0
C711 C 0.49151 0.22683 0.2537 0.0
C712 C 0.47147 0.19893 0.25172 0.0
C713 C 0.53002 0.27558 0.2573 0.0
C714 C 0.52644 0.23233 0.26391 0.0
C715 C 0.50716 0.20876 0.26211 0.0
C716 C 0.54223 0.21161 0.27305 0.0
C717 C 0.55005 0.30351 0.25929 0.0
C718 C 0.56234 0.19822 0.26857 0.0
C719 C 0.57724 0.17974 0.27738 0.0
C720 C 0.57223 0.17415 0.2908 0.0
C721 C 0.55189 0.1866 0.29515 0.0
C722 C 0.53705 0.20501 0.28636 0.0
H723 H 0.54822 0.34079 0.25609 0.0
H724 H 0.55495 0.30304 0.2698 0.0
H725 H 0.56289 0.28743 0.25335 0.0
H726 H 0.56652 0.20213 0.25827 0.0
H727 H 0.59273 0.17032 0.2737 0.0
H728 H 0.47227 0.81676 0.70572 0.0
H729 H 0.49846 0.78555 0.72107 0.0
H730 H 0.45383 0.79804 0.75299 0.0
H731 H 0.42731 0.82889 0.73761 0.0
H732 H 0.51569 0.82554 0.74384 0.0
H733 H 0.47266 0.65955 0.75513 0.0
H734 H 0.46573 0.69703 0.7414 0.0
H735 H 0.45778 0.71264 0.75785 0.0
C736 C 0.46798 0.813 0.71601 0.0
C737 C 0.44763 0.82508 0.72043 0.0
C738 C 0.483 0.79516 0.72477 0.0
C739 C 0.478 0.78875 0.73812 0.0
C740 C 0.45789 0.80183 0.74266 0.0
H741 H 0.547 0.68297 0.80552 0.0
H742 H 0.52091 0.71436 0.79014 0.0
C743 C 0.4428 0.81975 0.73389 0.0
C744 C 0.49395 0.76843 0.74722 0.0
H745 H 0.50379 0.67435 0.76737 0.0
C746 C 0.51313 0.79243 0.74896 0.0
C747 C 0.49058 0.72514 0.75385 0.0
C748 C 0.47067 0.69677 0.75191 0.0
C749 C 0.5289 0.77475 0.75736 0.0
C750 C 0.52553 0.73147 0.764 0.0
C751 C 0.50635 0.70746 0.76225 0.0
C752 C 0.54145 0.71119 0.77312 0.0
C753 C 0.54882 0.80311 0.7593 0.0
C754 C 0.56158 0.6981 0.76861 0.0
C755 C 0.57661 0.68007 0.77741 0.0
C756 C 0.57171 0.67465 0.79085 0.0
C757 C 0.55135 0.6868 0.79524 0.0
C758 C 0.53638 0.70474 0.78646 0.0
H759 H 0.54683 0.84032 0.75606 0.0
H760 H 0.55374 0.80289 0.76981 0.0
H761 H 0.56171 0.78721 0.75337 0.0
H762 H 0.56568 0.70191 0.7583 0.0
H763 H 0.59211 0.67088 0.77371 0.0
H764 H 0.47233 0.43165 0.55556 0.0
H765 H 0.4984 0.46309 0.54017 0.0
H766 H 0.45373 0.44983 0.50831 0.0
H767 H 0.42732 0.41875 0.52372 0.0
H768 H 0.51571 0.42338 0.51741 0.0
H769 H 0.47209 0.58859 0.50611 0.0
H770 H 0.4653 0.55102 0.51985 0.0
H771 H 0.4574 0.53523 0.50341 0.0
C772 C 0.46801 0.43527 0.54527 0.0
C773 C 0.44768 0.42294 0.54088 0.0
C774 C 0.48296 0.45325 0.53649 0.0
C775 C 0.47791 0.45953 0.52314 0.0
C776 C 0.45782 0.44615 0.51863 0.0
H777 H 0.54676 0.5659 0.45574 0.0
H778 H 0.52065 0.53446 0.47111 0.0
C779 C 0.4428 0.42809 0.52742 0.0
C780 C 0.49376 0.48011 0.51403 0.0
H781 H 0.50328 0.57438 0.49388 0.0
C782 C 0.51303 0.45645 0.51229 0.0
C783 C 0.49025 0.52334 0.5074 0.0
C784 C 0.47023 0.55135 0.50934 0.0
C785 C 0.52874 0.47443 0.5039 0.0
C786 C 0.52522 0.51766 0.49727 0.0
C787 C 0.50595 0.54131 0.49901 0.0
C788 C 0.54109 0.53825 0.48816 0.0
C789 C 0.54876 0.44644 0.50196 0.0
C790 C 0.56115 0.55176 0.4927 0.0
C791 C 0.57618 0.56984 0.48392 0.0
C792 C 0.57135 0.57486 0.47045 0.0
C793 C 0.55105 0.56238 0.46603 0.0
C794 C 0.53607 0.54441 0.4748 0.0
H795 H 0.54692 0.40921 0.50521 0.0
H796 H 0.55368 0.44673 0.49145 0.0
H797 H 0.5616 0.46262 0.50788 0.0
H798 H 0.5652 0.54817 0.50303 0.0
H799 H 0.59163 0.57928 0.48764 0.0
H800 H 0.11649 0.76206 0.34113 0.0
H801 H 0.12239 0.81894 0.35882 0.0
H802 H 0.18883 0.78662 0.35861 0.0
H803 H 0.18317 0.72909 0.34087 0.0
H804 H 0.14663 0.78421 0.38474 0.0
H805 H 0.17845 0.94098 0.35806 0.0
H806 H 0.16036 0.90085 0.35005 0.0
H807 H 0.18675 0.88215 0.35359 0.0
C808 C 0.13244 0.76741 0.34467 0.0
C809 C 0.14934 0.74073 0.33962 0.0
C810 C 0.13575 0.79991 0.35479 0.0
C811 C 0.15599 0.8067 0.35998 0.0
C812 C 0.1731 0.7818 0.35465 0.0
H813 H 0.18206 0.01571 0.42183 0.0
H814 H 0.18806 0.95328 0.40553 0.0
C815 C 0.16981 0.74905 0.34451 0.0
C816 C 0.15871 0.83743 0.3716 0.0
H817 H 0.17075 0.95014 0.38064 0.0
C818 C 0.15217 0.82033 0.38392 0.0
C819 C 0.16616 0.88415 0.37045 0.0
C820 C 0.17337 0.90354 0.35736 0.0
C821 C 0.15216 0.84946 0.39509 0.0
C822 C 0.1584 0.89717 0.39381 0.0
C823 C 0.16592 0.91358 0.3816 0.0
C824 C 0.15535 0.93167 0.40462 0.0
C825 C 0.14521 0.82898 0.40813 0.0
C826 C 0.13501 0.93993 0.40958 0.0
C827 C 0.13154 0.97531 0.41889 0.0
C828 C 0.14831 0.0036 0.42336 0.0
C829 C 0.1688 0.99446 0.41864 0.0
C830 C 0.17226 0.95892 0.4093 0.0
H831 H 0.148 0.79029 0.4085 0.0
H832 H 0.15361 0.84582 0.41651 0.0
H833 H 0.12802 0.83499 0.40938 0.0
H834 H 0.12164 0.92007 0.40589 0.0
H835 H 0.11554 0.98144 0.42225 0.0
H836 H 0.08757 0.22897 0.42034 0.0
H837 H 0.08196 0.28706 0.40272 0.0
H838 H 0.14856 0.3177 0.40223 0.0
H839 H 0.1544 0.26026 0.41978 0.0
H840 H 0.10206 0.39583 0.40169 0.0
H841 H 0.12452 0.26377 0.36351 0.0
H842 H 0.11257 0.247 0.37901 0.0
H843 H 0.13965 0.26527 0.37856 0.0
C844 C 0.10098 0.24861 0.41664 0.0
C845 C 0.12147 0.23969 0.42142 0.0
C846 C 0.09772 0.28167 0.40658 0.0
C847 C 0.11489 0.30612 0.40117 0.0
C848 C 0.13516 0.29887 0.40628 0.0
H849 H 0.15446 0.48245 0.33919 0.0
H850 H 0.14828 0.42228 0.35592 0.0
C851 C 0.13844 0.26604 0.41633 0.0
C852 C 0.11212 0.33749 0.3897 0.0
H853 H 0.12187 0.34332 0.35665 0.0
C854 C 0.106 0.38439 0.39178 0.0
C855 C 0.11739 0.32211 0.37687 0.0
C856 C 0.12381 0.27173 0.37423 0.0
C857 C 0.10597 0.41716 0.38138 0.0
C858 C 0.11191 0.40212 0.36858 0.0
C859 C 0.11725 0.35467 0.36646 0.0
C860 C 0.1148 0.43597 0.3576 0.0
C861 C 0.10074 0.46805 0.38431 0.0
C862 C 0.09787 0.46262 0.35269 0.0
C863 C 0.10135 0.49728 0.34309 0.0
C864 C 0.12183 0.50567 0.33824 0.0
C865 C 0.13852 0.47718 0.34274 0.0
C866 C 0.13502 0.4427 0.35231 0.0
H867 H 0.1003 0.47534 0.39507 0.0
H868 H 0.11246 0.49197 0.37966 0.0
H869 H 0.08499 0.47654 0.38015 0.0
H870 H 0.08206 0.45727 0.35647 0.0
H871 H 0.08812 0.51842 0.3398 0.0
H872 H 0.18134 0.22941 0.84037 0.0
H873 H 0.18703 0.28718 0.85805 0.0
H874 H 0.1203 0.31619 0.85913 0.0
H875 H 0.11438 0.25908 0.84151 0.0
H876 H 0.16759 0.39458 0.85957 0.0
H877 H 0.14403 0.26261 0.89749 0.0
H878 H 0.15548 0.24579 0.88185 0.0
H879 H 0.12858 0.2653 0.88259 0.0
C880 C 0.16792 0.24864 0.84421 0.0
C881 C 0.14738 0.23933 0.83957 0.0
C882 C 0.17121 0.28152 0.85431 0.0
C883 C 0.15404 0.30537 0.85991 0.0
C884 C 0.13371 0.29779 0.85493 0.0
H885 H 0.11504 0.4816 0.92202 0.0
H886 H 0.12104 0.4216 0.90523 0.0
C887 C 0.13039 0.26516 0.84485 0.0
C888 C 0.1569 0.33646 0.87144 0.0
H889 H 0.14685 0.34209 0.90445 0.0
C890 C 0.16344 0.38313 0.86945 0.0
C891 C 0.15139 0.32107 0.88423 0.0
C892 C 0.14457 0.27088 0.88678 0.0
C893 C 0.1636 0.41572 0.87989 0.0
C894 C 0.15739 0.40071 0.89265 0.0
C895 C 0.15166 0.35343 0.89468 0.0
C896 C 0.15461 0.43447 0.90366 0.0
C897 C 0.16927 0.46645 0.87705 0.0
C898 C 0.17164 0.4606 0.90866 0.0
C899 C 0.16826 0.49519 0.91829 0.0
C900 C 0.14779 0.504 0.9231 0.0
C901 C 0.13099 0.476 0.91851 0.0
C902 C 0.13438 0.44161 0.9089 0.0
H903 H 0.16984 0.47391 0.8663 0.0
H904 H 0.1577 0.49075 0.8817 0.0
H905 H 0.18505 0.47423 0.88127 0.0
H906 H 0.18744 0.45491 0.90493 0.0
H907 H 0.18156 0.51596 0.92165 0.0
H908 H 0.08675 0.72848 0.92068 0.0
H909 H 0.08115 0.78606 0.90293 0.0
H910 H 0.14778 0.81628 0.90228 0.0
H911 H 0.15362 0.75939 0.91997 0.0
H912 H 0.09953 0.89323 0.90141 0.0
H913 H 0.12577 0.76264 0.86383 0.0
H914 H 0.11428 0.74525 0.87941 0.0
H915 H 0.14095 0.76636 0.87882 0.0
C916 C 0.10017 0.74794 0.91692 0.0
C917 C 0.12066 0.73903 0.92169 0.0
C918 C 0.09692 0.78071 0.90678 0.0
C919 C 0.11411 0.80481 0.90128 0.0
C920 C 0.13438 0.79765 0.9064 0.0
H921 H 0.15364 0.98281 0.83967 0.0
H922 H 0.1476 0.92262 0.85641 0.0
C923 C 0.13764 0.76515 0.91652 0.0
C924 C 0.11134 0.83578 0.8897 0.0
H925 H 0.12265 0.84212 0.85687 0.0
C926 C 0.1042 0.88206 0.8916 0.0
C927 C 0.11753 0.82075 0.877 0.0
C928 C 0.12496 0.77095 0.87453 0.0
C929 C 0.10413 0.9147 0.88117 0.0
C930 C 0.11102 0.90011 0.86851 0.0
C931 C 0.11733 0.85316 0.86656 0.0
C932 C 0.11389 0.93405 0.85755 0.0
C933 C 0.09781 0.96509 0.88393 0.0
C934 C 0.09681 0.95946 0.85233 0.0
C935 C 0.10021 0.99418 0.84274 0.0
C936 C 0.12075 0.00383 0.83818 0.0
C937 C 0.13763 0.97656 0.84299 0.0
C938 C 0.13422 0.94206 0.85256 0.0
H939 H 0.09679 0.97248 0.89468 0.0
H940 H 0.10926 0.99005 0.87945 0.0
H941 H 0.08209 0.972 0.87952 0.0
H942 H 0.08093 0.95308 0.85585 0.0
H943 H 0.08685 0.01435 0.83919 0.0
H944 H 0.90459 0.23638 0.67084 0.0
H945 H 0.89879 0.17649 0.654 0.0
H946 H 0.83204 0.20611 0.65447 0.0
H947 H 0.83772 0.26708 0.67125 0.0
H948 H 0.87407 0.09573 0.65354 0.0
H949 H 0.84791 0.22548 0.61565 0.0
H950 H 0.86029 0.24331 0.63088 0.0
H951 H 0.83317 0.22489 0.63079 0.0
C952 C 0.88862 0.23004 0.66748 0.0
C953 C 0.87165 0.25694 0.67232 0.0
C954 C 0.88534 0.19571 0.65784 0.0
C955 C 0.86505 0.18751 0.65281 0.0
C956 C 0.84789 0.21264 0.65803 0.0
H957 H 0.83787 0.98146 0.58988 0.0
H958 H 0.83241 0.03962 0.60749 0.0
C959 C 0.85116 0.24719 0.66769 0.0
C960 C 0.8623 0.15348 0.64186 0.0
H961 H 0.85076 0.14615 0.60897 0.0
C962 C 0.86872 0.10662 0.64385 0.0
C963 C 0.85536 0.16788 0.62919 0.0
C964 C 0.84892 0.21817 0.6264 0.0
C965 C 0.86896 0.07412 0.63343 0.0
C966 C 0.86272 0.08894 0.62072 0.0
C967 C 0.85548 0.13514 0.61878 0.0
C968 C 0.86542 0.05778 0.60918 0.0
C969 C 0.87647 0.0244 0.63595 0.0
C970 C 0.88569 0.05011 0.60411 0.0
C971 C 0.88888 0.01728 0.59406 0.0
C972 C 0.87183 0.99131 0.58892 0.0
C973 C 0.85135 0.00078 0.59362 0.0
C974 C 0.84817 0.03389 0.60368 0.0
H975 H 0.87723 0.01618 0.64665 0.0
H976 H 0.86587 -0.00145 0.63105 0.0
H977 H 0.8925 0.01994 0.6317 0.0
H978 H 0.89915 0.06858 0.60822 0.0
H979 H 0.90485 0.0111 0.59067 0.0
H980 H 0.93173 0.48181 0.67107 0.0
H981 H 0.93747 0.54379 0.65459 0.0
H982 H 0.87108 0.57716 0.65534 0.0
H983 H 0.86524 0.51622 0.67186 0.0
H984 H 0.91957 0.54659 0.62976 0.0
H985 H 0.89774 0.7069 0.65771 0.0
H986 H 0.9035 0.65141 0.66571 0.0
H987 H 0.87775 0.66226 0.65882 0.0
C988 C 0.91842 0.50298 0.66791 0.0
C989 C 0.89802 0.49403 0.6728 0.0
C990 C 0.92173 0.53826 0.65847 0.0
C991 C 0.90475 0.56544 0.65386 0.0
C992 C 0.8845 0.55734 0.65896 0.0
H993 H 0.86513 0.73674 0.59084 0.0
H994 H 0.87109 0.67947 0.60842 0.0
C995 C 0.88117 0.5222 0.66837 0.0
C996 C 0.90764 0.5998 0.643 0.0
H997 H 0.89598 0.71286 0.63397 0.0
C998 C 0.91485 0.58322 0.63074 0.0
C999 C 0.90154 0.64759 0.64431 0.0
C1000 C 0.89491 0.66821 0.65739 0.0
C1001 C 0.91493 0.61258 0.61957 0.0
C1002 C 0.90764 0.65941 0.62077 0.0
C1003 C 0.90139 0.67666 0.63312 0.0
C1004 C 0.90483 0.69021 0.60916 0.0
C1005 C 0.9218 0.59301 0.60643 0.0
C1006 C 0.92198 0.71435 0.60362 0.0
C1007 C 0.91866 0.74733 0.59355 0.0
C1008 C 0.89812 0.75662 0.58892 0.0
C1009 C 0.88115 0.73063 0.59416 0.0
C1010 C 0.88449 0.69792 0.60422 0.0
H1011 H 0.92662 0.55538 0.60709 0.0
H1012 H 0.90872 0.59623 0.5992 0.0
H1013 H 0.9353 0.61392 0.6026 0.0
H1014 H 0.93779 0.70883 0.60739 0.0
H1015 H 0.93207 0.76673 0.58975 0.0
H1016 H 0.90346 0.51292 0.08971 0.0
H1017 H 0.89762 0.57277 0.10657 0.0
H1018 H 0.83108 0.54082 0.10671 0.0
H1019 H 0.8368 0.47991 0.08992 0.0
H1020 H 0.8722 0.65274 0.10732 0.0
H1021 H 0.84828 0.52136 0.14536 0.0
H1022 H 0.86044 0.50428 0.12999 0.0
H1023 H 0.83317 0.52148 0.13036 0.0
C1024 C 0.88752 0.51877 0.09321 0.0
C1025 C 0.87062 0.49121 0.08855 0.0
C1026 C 0.88422 0.55308 0.10285 0.0
C1027 C 0.864 0.56057 0.10806 0.0
C1028 C 0.84689 0.53484 0.103 0.0
H1029 H 0.83759 0.76623 0.17124 0.0
H1030 H 0.83182 0.70832 0.1536 0.0
C1031 C 0.85017 0.50033 0.09334 0.0
C1032 C 0.86128 0.59435 0.11908 0.0
H1033 H 0.8508 0.60064 0.15211 0.0
C1034 C 0.86725 0.64149 0.11707 0.0
C1035 C 0.85489 0.57945 0.13181 0.0
C1036 C 0.84896 0.52885 0.13461 0.0
C1037 C 0.86758 0.67383 0.12753 0.0
C1038 C 0.86188 0.65853 0.1403 0.0
C1039 C 0.8551 0.61201 0.14226 0.0
C1040 C 0.86476 0.68957 0.15184 0.0
C1041 C 0.87464 0.72386 0.125 0.0
C1042 C 0.88508 0.69685 0.15686 0.0
C1043 C 0.88845 0.72956 0.16692 0.0
C1044 C 0.87152 0.75576 0.17212 0.0
C1045 C 0.85097 0.74671 0.16745 0.0
C1046 C 0.84763 0.71375 0.15738 0.0
H1047 H 0.87529 0.73215 0.1143 0.0
H1048 H 0.86383 0.7492 0.12992 0.0
H1049 H 0.89063 0.72905 0.12924 0.0
H1050 H 0.89845 0.67819 0.15271 0.0
H1051 H 0.90446 0.73543 0.17029 0.0
H1052 H 0.86533 0.01256 0.17171 0.0
H1053 H 0.87114 0.07246 0.15486 0.0
H1054 H 0.93774 0.04123 0.15488 0.0
H1055 H 0.93206 0.98026 0.17166 0.0
H1056 H 0.89633 0.15268 0.15416 0.0
H1057 H 0.92092 0.02169 0.11619 0.0
H1058 H 0.90872 0.00442 0.13153 0.0
H1059 H 0.93594 0.022 0.13123 0.0
C1060 C 0.88128 0.01858 0.16825 0.0
C1061 C 0.8982 0.9912 0.17295 0.0
C1062 C 0.88456 0.05291 0.15861 0.0
C1063 C 0.9048 0.06063 0.15345 0.0
C1064 C 0.92193 0.03508 0.15855 0.0
H1065 H 0.93136 0.26641 0.09031 0.0
H1066 H 0.93707 0.20852 0.10797 0.0
C1067 C 0.91866 0.00054 0.16821 0.0
C1068 C 0.90751 0.09445 0.14244 0.0
H1069 H 0.91831 0.10097 0.10944 0.0
C1070 C 0.90141 0.14151 0.14443 0.0
C1071 C 0.91407 0.07967 0.12973 0.0
C1072 C 0.92015 0.02916 0.12694 0.0
C1073 C 0.9011 0.17387 0.13398 0.0
C1074 C 0.90697 0.15869 0.12123 0.0
C1075 C 0.91388 0.11226 0.11929 0.0
C1076 C 0.90413 0.18972 0.10968 0.0
C1077 C 0.89389 0.22381 0.13649 0.0
C1078 C 0.88382 0.19698 0.10462 0.0
C1079 C 0.88049 0.22967 0.09455 0.0
C1080 C 0.89743 0.25589 0.08938 0.0
C1081 C 0.91796 0.24687 0.09408 0.0
C1082 C 0.92128 0.21392 0.10416 0.0
H1083 H 0.89318 0.2321 0.14719 0.0
H1084 H 0.90465 0.2493 0.13159 0.0
H1085 H 0.8779 0.22877 0.13223 0.0
H1086 H 0.87044 0.17829 0.10876 0.0
H1087 H 0.86449 0.23551 0.09116 0.0
H1088 H 0.61505 0.76108 0.84128 0.0
H1089 H 0.62096 0.81812 0.85892 0.0
H1090 H 0.68763 0.78837 0.85803 0.0
H1091 H 0.68195 0.7307 0.84033 0.0
H1092 H 0.64609 0.78426 0.88458 0.0
H1093 H 0.67609 0.94227 0.85765 0.0
H1094 H 0.65811 0.90148 0.84981 0.0
H1095 H 0.68473 0.88378 0.85308 0.0
C1096 C 0.63105 0.76704 0.84465 0.0
C1097 C 0.64802 0.74103 0.83942 0.0
C1098 C 0.63436 0.79963 0.85475 0.0
C1099 C 0.65468 0.80717 0.85974 0.0
C1100 C 0.67184 0.78296 0.85423 0.0
H1101 H 0.68114 0.01627 0.9215 0.0
H1102 H 0.68703 0.95414 0.90509 0.0
C1103 C 0.66854 0.75012 0.84412 0.0
C1104 C 0.65747 0.83795 0.87135 0.0
H1105 H 0.669 0.951 0.88032 0.0
C1106 C 0.65136 0.82057 0.88372 0.0
C1107 C 0.66456 0.88493 0.87014 0.0
C1108 C 0.67128 0.90464 0.85698 0.0
C1109 C 0.65146 0.84963 0.89491 0.0
C1110 C 0.65735 0.89754 0.89358 0.0
C1111 C 0.66443 0.91427 0.88131 0.0
C1112 C 0.6544 0.93185 0.90445 0.0
C1113 C 0.64497 0.82888 0.908 0.0
C1114 C 0.63414 0.93961 0.90959 0.0
C1115 C 0.63072 0.97484 0.91896 0.0
C1116 C 0.64748 0.00344 0.92331 0.0
C1117 C 0.6679 0.99477 0.91841 0.0
C1118 C 0.6713 0.95941 0.909 0.0
H1119 H 0.64794 0.79024 0.90831 0.0
H1120 H 0.65354 0.84584 0.9163 0.0
H1121 H 0.6278 0.8345 0.90946 0.0
H1122 H 0.62078 0.91948 0.90601 0.0
H1123 H 0.61478 0.9806 0.92246 0.0
H1124 H 0.58693 0.22943 0.92051 0.0
H1125 H 0.58148 0.28729 0.90282 0.0
H1126 H 0.64821 0.31639 0.90212 0.0
H1127 H 0.6539 0.25922 0.91976 0.0
H1128 H 0.59976 0.39378 0.90136 0.0
H1129 H 0.62644 0.26419 0.86365 0.0
H1130 H 0.61505 0.24642 0.87923 0.0
H1131 H 0.64167 0.26787 0.87862 0.0
C1132 C 0.6004 0.24869 0.91675 0.0
C1133 C 0.62088 0.23939 0.92149 0.0
C1134 C 0.59724 0.28162 0.90664 0.0
C1135 C 0.61449 0.30549 0.90113 0.0
C1136 C 0.63476 0.29792 0.90623 0.0
H1137 H 0.65416 0.4848 0.83984 0.0
H1138 H 0.64813 0.42448 0.85653 0.0
C1139 C 0.63793 0.26527 0.91633 0.0
C1140 C 0.61179 0.3367 0.88961 0.0
H1141 H 0.62336 0.34384 0.85681 0.0
C1142 C 0.60454 0.38287 0.89156 0.0
C1143 C 0.61811 0.32201 0.8769 0.0
C1144 C 0.62565 0.27233 0.87436 0.0
C1145 C 0.60449 0.41573 0.88117 0.0
C1146 C 0.61151 0.40147 0.86852 0.0
C1147 C 0.61794 0.35463 0.86651 0.0
C1148 C 0.61439 0.43565 0.85761 0.0
C1149 C 0.59804 0.466 0.884 0.0
C1150 C 0.59731 0.461 0.85238 0.0
C1151 C 0.6007 0.4958 0.84281 0.0
C1152 C 0.62125 0.50559 0.83828 0.0
C1153 C 0.63814 0.47843 0.84312 0.0
C1154 C 0.63473 0.44386 0.85267 0.0
H1155 H 0.59694 0.47316 0.89475 0.0
H1156 H 0.60946 0.49117 0.87958 0.0
H1157 H 0.58234 0.47282 0.87955 0.0
H1158 H 0.58142 0.45446 0.85586 0.0
H1159 H 0.58732 0.51588 0.83924 0.0
H1160 H 0.68214 0.22881 0.34056 0.0
H1161 H 0.68776 0.28643 0.35829 0.0
H1162 H 0.62107 0.31585 0.35919 0.0
H1163 H 0.61521 0.25892 0.34151 0.0
H1164 H 0.66924 0.3933 0.35986 0.0
H1165 H 0.64347 0.26265 0.39756 0.0
H1166 H 0.65484 0.2453 0.38194 0.0
H1167 H 0.62815 0.26625 0.38263 0.0
C1168 C 0.66871 0.2481 0.34437 0.0
C1169 C 0.64819 0.23895 0.33967 0.0
C1170 C 0.67197 0.28089 0.3545 0.0
C1171 C 0.65478 0.30478 0.36007 0.0
C1172 C 0.63448 0.29738 0.35502 0.0
H1173 H 0.61542 0.4827 0.4217 0.0
H1174 H 0.62145 0.4225 0.40497 0.0
C1175 C 0.6312 0.26486 0.3449 0.0
C1176 C 0.65759 0.33581 0.37162 0.0
H1177 H 0.64652 0.34219 0.40449 0.0
C1178 C 0.66465 0.38214 0.36969 0.0
C1179 C 0.65152 0.32079 0.38435 0.0
C1180 C 0.64417 0.27095 0.38686 0.0
C1181 C 0.66476 0.41481 0.38011 0.0
C1182 C 0.65798 0.40021 0.39279 0.0
C1183 C 0.65175 0.35323 0.39478 0.0
C1184 C 0.65513 0.43418 0.40375 0.0
C1185 C 0.67099 0.46524 0.37732 0.0
C1186 C 0.67221 0.45974 0.40892 0.0
C1187 C 0.66881 0.49447 0.41851 0.0
C1188 C 0.64828 0.50397 0.42312 0.0
C1189 C 0.63142 0.47656 0.41835 0.0
C1190 C 0.63483 0.44205 0.40878 0.0
H1191 H 0.67194 0.47259 0.36657 0.0
H1192 H 0.65954 0.49013 0.38182 0.0
H1193 H 0.68673 0.47228 0.38169 0.0
H1194 H 0.68807 0.45347 0.40537 0.0
H1195 H 0.68217 0.51475 0.42202 0.0
H1196 H 0.58746 0.72893 0.42084 0.0
H1197 H 0.5818 0.78663 0.40313 0.0
H1198 H 0.64846 0.81647 0.40229 0.0
H1199 H 0.65436 0.75944 0.41994 0.0
H1200 H 0.60091 0.89421 0.40164 0.0
H1201 H 0.62535 0.76253 0.36386 0.0
H1202 H 0.61381 0.74558 0.37947 0.0
H1203 H 0.64064 0.76554 0.37882 0.0
C1204 C 0.60088 0.74834 0.41705 0.0
C1205 C 0.6214 0.73928 0.42175 0.0
C1206 C 0.59759 0.78118 0.40693 0.0
C1207 C 0.61476 0.80522 0.40139 0.0
C1208 C 0.63506 0.7979 0.40644 0.0
H1209 H 0.65402 0.98183 0.33941 0.0
H1210 H 0.64798 0.92179 0.35619 0.0
C1211 C 0.63837 0.76532 0.41654 0.0
C1212 C 0.61194 0.83624 0.38984 0.0
H1213 H 0.62242 0.84198 0.35688 0.0
C1214 C 0.60522 0.88282 0.39179 0.0
C1215 C 0.61767 0.82092 0.37708 0.0
C1216 C 0.62468 0.77084 0.37457 0.0
C1217 C 0.60511 0.91539 0.38134 0.0
C1218 C 0.61154 0.90046 0.36862 0.0
C1219 C 0.61744 0.85327 0.36662 0.0
C1220 C 0.61437 0.93424 0.35761 0.0
C1221 C 0.59926 0.96603 0.38414 0.0
C1222 C 0.59733 0.96015 0.35253 0.0
C1223 C 0.60073 0.99476 0.34291 0.0
C1224 C 0.62123 0.00382 0.33819 0.0
C1225 C 0.63805 0.97604 0.34285 0.0
C1226 C 0.63463 0.94163 0.35246 0.0
H1227 H 0.59853 0.97351 0.39489 0.0
H1228 H 0.6108 0.99051 0.37954 0.0
H1229 H 0.5835 0.97355 0.37985 0.0
H1230 H 0.5815 0.95426 0.35619 0.0
H1231 H 0.58741 0.01534 0.33948 0.0
H1232 H 0.33809 0.26699 0.1717 0.0
H1233 H 0.33204 0.2044 0.15544 0.0
H1234 H 0.39836 0.17031 0.15604 0.0
H1235 H 0.40451 0.23185 0.17234 0.0
H1236 H 0.3496 0.20062 0.13059 0.0
H1237 H 0.37156 0.04092 0.15877 0.0
H1238 H 0.36602 0.09668 0.16668 0.0
H1239 H 0.39165 0.08537 0.15968 0.0
C1240 C 0.35132 0.24553 0.16857 0.0
C1241 C 0.37179 0.25446 0.17333 0.0
C1242 C 0.34783 0.2099 0.15925 0.0
C1243 C 0.3647 0.18234 0.15466 0.0
C1244 C 0.38502 0.19041 0.15966 0.0
H1245 H 0.40353 0.01039 0.09164 0.0
H1246 H 0.39775 0.06744 0.10929 0.0
C1247 C 0.38853 0.22589 0.16894 0.0
C1248 C 0.36163 0.1477 0.14388 0.0
H1249 H 0.37308 0.03435 0.13503 0.0
C1250 C 0.35429 0.164 0.13162 0.0
C1251 C 0.36769 0.0999 0.14526 0.0
C1252 C 0.37446 0.07957 0.15835 0.0
C1253 C 0.35406 0.13436 0.12052 0.0
C1254 C 0.36132 0.08752 0.12177 0.0
C1255 C 0.36769 0.07055 0.13413 0.0
C1256 C 0.36403 0.05651 0.1102 0.0
C1257 C 0.34706 0.15365 0.10737 0.0
C1258 C 0.34684 0.03227 0.10474 0.0
C1259 C 0.35006 -0.00058 0.09462 0.0
C1260 C 0.37055 0.99036 0.08986 0.0
C1261 C 0.38756 0.01633 0.09506 0.0
C1262 C 0.38432 0.04892 0.10517 0.0
H1263 H 0.34223 0.19128 0.10798 0.0
H1264 H 0.36008 0.15031 0.1001 0.0
H1265 H 0.33354 0.13264 0.10362 0.0
H1266 H 0.33107 0.03772 0.10857 0.0
H1267 H 0.33662 0.98002 0.09086 0.0
H1268 H 0.43267 0.48004 0.17028 0.0
H1269 H 0.43821 0.53773 0.15256 0.0
H1270 H 0.37153 0.56743 0.15184 0.0
H1271 H 0.36575 0.51039 0.1695 0.0
H1272 H 0.39614 0.53437 0.12612 0.0
H1273 H 0.4271 0.69125 0.15313 0.0
H1274 H 0.4358 0.6326 0.15748 0.0
H1275 H 0.40927 0.65028 0.16103 0.0
C1276 C 0.41923 0.49944 0.16652 0.0
C1277 C 0.39874 0.49037 0.17128 0.0
C1278 C 0.42244 0.53229 0.1564 0.0
C1279 C 0.40525 0.55652 0.15093 0.0
C1280 C 0.38496 0.54892 0.15597 0.0
H1281 H 0.36477 0.7319 0.08879 0.0
H1282 H 0.37091 0.67036 0.10509 0.0
C1283 C 0.38173 0.51633 0.16608 0.0
C1284 C 0.40796 0.58752 0.13936 0.0
H1285 H 0.41972 0.70058 0.13052 0.0
C1286 C 0.40156 0.57056 0.12701 0.0
C1287 C 0.41525 0.63434 0.14061 0.0
C1288 C 0.42228 0.65362 0.15375 0.0
C1289 C 0.40155 0.5999 0.11587 0.0
C1290 C 0.40764 0.64768 0.11724 0.0
C1291 C 0.41501 0.66397 0.1295 0.0
C1292 C 0.40457 0.68233 0.10646 0.0
C1293 C 0.39476 0.57958 0.10279 0.0
C1294 C 0.42145 0.70985 0.10186 0.0
C1295 C 0.41797 0.74548 0.09255 0.0
C1296 C 0.39749 0.75445 0.08779 0.0
C1297 C 0.38076 0.72591 0.09219 0.0
C1298 C 0.38425 0.69043 0.10147 0.0
H1299 H 0.39764 0.54092 0.10237 0.0
H1300 H 0.37757 0.5854 0.10148 0.0
H1301 H 0.40319 0.59666 0.09446 0.0
H1302 H 0.43724 0.70433 0.10567 0.0
H1303 H 0.4312 0.76692 0.08941 0.0
H1304 H 0.33714 0.76657 0.67145 0.0
H1305 H 0.33145 0.70879 0.65378 0.0
H1306 H 0.39817 0.67969 0.65272 0.0
H1307 H 0.40409 0.73684 0.67033 0.0
H1308 H 0.37359 0.71285 0.62721 0.0
H1309 H 0.34228 0.55573 0.65396 0.0
H1310 H 0.33355 0.61429 0.65837 0.0
H1311 H 0.36008 0.59659 0.66194 0.0
C1312 C 0.35056 0.74724 0.66764 0.0
C1313 C 0.3711 0.75657 0.67227 0.0
C1314 C 0.34726 0.71434 0.65755 0.0
C1315 C 0.36442 0.6903 0.65199 0.0
C1316 C 0.38476 0.69805 0.65692 0.0
H1317 H 0.40398 0.51593 0.58936 0.0
H1318 H 0.3982 0.57692 0.60586 0.0
C1319 C 0.38808 0.73069 0.66701 0.0
C1320 C 0.36163 0.65957 0.64037 0.0
H1321 H 0.34938 0.54699 0.6313 0.0
C1322 C 0.36805 0.67674 0.62804 0.0
C1323 C 0.35416 0.61285 0.64152 0.0
C1324 C 0.3471 0.59335 0.65463 0.0
C1325 C 0.36789 0.64772 0.61684 0.0
C1326 C 0.36162 0.60002 0.61812 0.0
C1327 C 0.35424 0.58353 0.63035 0.0
C1328 C 0.36448 0.56565 0.60725 0.0
C1329 C 0.3747 0.66828 0.60379 0.0
C1330 C 0.34746 0.5387 0.6026 0.0
C1331 C 0.35073 0.50338 0.59317 0.0
C1332 C 0.37115 0.49417 0.58834 0.0
C1333 C 0.38804 0.52212 0.5928 0.0
C1334 C 0.38475 0.55729 0.6022 0.0
H1335 H 0.37199 0.70701 0.60346 0.0
H1336 H 0.39186 0.66211 0.60243 0.0
H1337 H 0.36615 0.65162 0.59544 0.0
H1338 H 0.33171 0.54444 0.60645 0.0
H1339 H 0.33739 0.48239 0.58998 0.0
H1340 H 0.36442 0.23683 0.59058 0.0
H1341 H 0.37024 0.17695 0.60743 0.0
H1342 H 0.43705 0.20586 0.60672 0.0
H1343 H 0.43135 0.26684 0.58995 0.0
H1344 H 0.39475 0.09596 0.60779 0.0
H1345 H 0.42162 0.22525 0.64561 0.0
H1346 H 0.40915 0.2433 0.63042 0.0
H1347 H 0.43621 0.2245 0.63041 0.0
C1348 C 0.38041 0.23034 0.5939 0.0
C1349 C 0.3974 0.25703 0.58899 0.0
C1350 C 0.3837 0.19602 0.60354 0.0
C1351 C 0.40401 0.18761 0.6085 0.0
C1352 C 0.42118 0.21255 0.60322 0.0
H1353 H 0.43125 0.9814 0.67139 0.0
H1354 H 0.4367 0.0396 0.65378 0.0
C1355 C 0.4179 0.24711 0.59356 0.0
C1356 C 0.40678 0.15352 0.61944 0.0
H1357 H 0.4186 0.14595 0.65228 0.0
C1358 C 0.40022 0.10676 0.61747 0.0
C1359 C 0.41388 0.1678 0.63208 0.0
C1360 C 0.42049 0.21799 0.63486 0.0
C1361 C 0.39998 0.07423 0.62788 0.0
C1362 C 0.40637 0.08894 0.64057 0.0
C1363 C 0.41376 0.13503 0.64249 0.0
C1364 C 0.40368 0.05779 0.65212 0.0
C1365 C 0.39232 0.02462 0.62537 0.0
C1366 C 0.38342 0.05014 0.6572 0.0
C1367 C 0.38024 0.01728 0.66725 0.0
C1368 C 0.3973 0.99128 0.67237 0.0
C1369 C 0.41778 0.00075 0.66766 0.0
C1370 C 0.42094 0.03388 0.6576 0.0
H1371 H 0.39152 0.01639 0.61467 0.0
H1372 H 0.40284 -0.00139 0.63027 0.0
H1373 H 0.37628 0.0204 0.62962 0.0
H1374 H 0.36996 0.06863 0.65311 0.0
H1375 H 0.36428 0.01111 0.67065 0.0
loop_
_geom_bond_atom_site_label_1
_geom_bond_atom_site_label_2
_geom_bond_distance
_geom_bond_site_symmetry_2
_ccdc_geom_bond_type
O0 Cd1 2.223 . S
O0 C8 1.315 . S
Cd1 O0 2.223 . S
Cd1 O4 2.297 . S
Cd1 O5 2.439 . S
Cd1 O11 2.240 . S
Cd2 O3 2.240 . S
Cd2 O10 2.223 . S
Cd2 O12 2.297 . S
Cd2 O13 2.439 . S
O3 Cd2 2.240 . S
O3 C8 1.279 . S
O4 Cd1 2.297 . S
O4 C6 1.247 . S
O5 Cd1 2.439 . S
O5 C6 1.208 . S
C6 O4 1.247 . S
C6 O5 1.208 . S
C7 O12 1.247 . S
C7 O13 1.208 . S
C8 O0 1.315 . S
C8 O3 1.279 . S
C9 O10 1.315 . S
C9 O11 1.279 . S
O10 Cd2 2.223 . S
O10 C9 1.315 . S
O11 Cd1 2.240 . S
O11 C9 1.279 . S
O12 Cd2 2.297 . S
O12 C7 1.247 . S
O13 Cd2 2.439 . S
O13 C7 1.208 . S
O14 Cd15 2.223 . S
O14 C22 1.315 . S
Cd15 O14 2.223 . S
Cd15 O18 2.297 . S
Cd15 O19 2.439 . S
Cd15 O25 2.240 . S
Cd16 O17 2.240 . S
Cd16 O24 2.223 . S
Cd16 O26 2.297 . S
Cd16 O27 2.439 . S
O17 Cd16 2.240 . S
O17 C22 1.279 . S
O18 Cd15 2.297 . S
O18 C20 1.247 . S
O19 Cd15 2.439 . S
O19 C20 1.208 . S
C20 O18 1.247 . S
C20 O19 1.208 . S
C21 O26 1.247 . S
C21 O27 1.208 . S
C22 O14 1.315 . S
C22 O17 1.279 . S
C23 O24 1.315 . S
C23 O25 1.279 . S
O24 Cd16 2.223 . S
O24 C23 1.315 . S
O25 Cd15 2.240 . S
O25 C23 1.279 . S
O26 Cd16 2.297 . S
O26 C21 1.247 . S
O27 Cd16 2.439 . S
O27 C21 1.208 . S
O28 Cd29 2.223 . S
O28 C36 1.315 . S
Cd29 O28 2.223 . S
Cd29 O32 2.297 . S
Cd29 O33 2.439 . S
Cd29 O39 2.240 . S
Cd30 O31 2.240 . S
Cd30 O38 2.223 . S
Cd30 O40 2.297 . S
Cd30 O41 2.439 . S
O31 Cd30 2.240 . S
O31 C36 1.279 . S
O32 Cd29 2.297 . S
O32 C34 1.247 . S
O33 Cd29 2.439 . S
O33 C34 1.208 . S
C34 O32 1.247 . S
C34 O33 1.208 . S
C35 O40 1.247 . S
C35 O41 1.208 . S
C36 O28 1.315 . S
C36 O31 1.279 . S
C37 O38 1.315 . S
C37 O39 1.279 . S
O38 Cd30 2.223 . S
O38 C37 1.315 . S
O39 Cd29 2.240 . S
O39 C37 1.279 . S
O40 Cd30 2.297 . S
O40 C35 1.247 . S
O41 Cd30 2.439 . S
O41 C35 1.208 . S
O42 Cd43 2.223 . S
O42 C50 1.315 . S
Cd43 O42 2.223 . S
Cd43 O46 2.297 . S
Cd43 O47 2.439 . S
Cd43 O53 2.240 . S
Cd44 O45 2.240 . S
Cd44 O52 2.223 . S
Cd44 O54 2.297 . S
Cd44 O55 2.439 . S
O45 Cd44 2.240 . S
O45 C50 1.279 . S
O46 Cd43 2.297 . S
O46 C48 1.247 . S
O47 Cd43 2.439 . S
O47 C48 1.208 . S
C48 O46 1.247 . S
C48 O47 1.208 . S
C49 O54 1.247 . S
C49 O55 1.208 . S
C50 O42 1.315 . S
C50 O45 1.279 . S
C51 O52 1.315 . S
C51 O53 1.279 . S
O52 Cd44 2.223 . S
O52 C51 1.315 . S
O53 Cd43 2.240 . S
O53 C51 1.279 . S
O54 Cd44 2.297 . S
O54 C49 1.247 . S
O55 Cd44 2.439 . S
O55 C49 1.208 . S
O56 Cd57 2.223 . S
O56 C64 1.315 . S
Cd57 O56 2.223 . S
Cd57 O60 2.297 . S
Cd57 O61 2.439 . S
Cd57 O67 2.240 . S
Cd58 O59 2.240 . S
Cd58 O66 2.223 . S
Cd58 O68 2.297 . S
Cd58 O69 2.439 . S
O59 Cd58 2.240 . S
O59 C64 1.279 . S
O60 Cd57 2.297 . S
O60 C62 1.247 . S
O61 Cd57 2.439 . S
O61 C62 1.208 . S
C62 O60 1.247 . S
C62 O61 1.208 . S
C63 O68 1.247 . S
C63 O69 1.208 . S
C64 O56 1.315 . S
C64 O59 1.279 . S
C65 O66 1.315 . S
C65 O67 1.279 . S
O66 Cd58 2.223 . S
O66 C65 1.315 . S
O67 Cd57 2.240 . S
O67 C65 1.279 . S
O68 Cd58 2.297 . S
O68 C63 1.247 . S
O69 Cd58 2.439 . S
O69 C63 1.208 . S
O70 Cd71 2.223 . S
O70 C78 1.315 . S
Cd71 O70 2.223 . S
Cd71 O74 2.297 . S
Cd71 O75 2.439 . S
Cd71 O81 2.240 . S
Cd72 O73 2.240 . S
Cd72 O80 2.223 . S
Cd72 O82 2.297 . S
Cd72 O83 2.439 . S
O73 Cd72 2.240 . S
O73 C78 1.279 . S
O74 Cd71 2.297 . S
O74 C76 1.247 . S
O75 Cd71 2.439 . S
O75 C76 1.208 . S
C76 O74 1.247 . S
C76 O75 1.208 . S
C77 O82 1.247 . S
C77 O83 1.208 . S
C78 O70 1.315 . S
C78 O73 1.279 . S
C79 O80 1.315 . S
C79 O81 1.279 . S
O80 Cd72 2.223 . S
O80 C79 1.315 . S
O81 Cd71 2.240 . S
O81 C79 1.279 . S
O82 Cd72 2.297 . S
O82 C77 1.247 . S
O83 Cd72 2.439 . S
O83 C77 1.208 . S
O84 Cd85 2.223 . S
O84 C92 1.315 . S
Cd85 O84 2.223 . S
Cd85 O88 2.297 . S
Cd85 O89 2.439 . S
Cd85 O95 2.240 . S
Cd86 O87 2.240 . S
Cd86 O94 2.223 . S
Cd86 O96 2.297 . S
Cd86 O97 2.439 . S
O87 Cd86 2.240 . S
O87 C92 1.279 . S
O88 Cd85 2.297 . S
O88 C90 1.247 . S
O89 Cd85 2.439 . S
O89 C90 1.208 . S
C90 O88 1.247 . S
C90 O89 1.208 . S
C91 O96 1.247 . S
C91 O97 1.208 . S
C92 O84 1.315 . S
C92 O87 1.279 . S
C93 O94 1.315 . S
C93 O95 1.279 . S
O94 Cd86 2.223 . S
O94 C93 1.315 . S
O95 Cd85 2.240 . S
O95 C93 1.279 . S
O96 Cd86 2.297 . S
O96 C91 1.247 . S
O97 Cd86 2.439 . S
O97 C91 1.208 . S
O98 Cd99 2.223 . S
O98 C106 1.315 . S
Cd99 O98 2.223 . S
Cd99 O102 2.297 . S
Cd99 O103 2.439 . S
Cd99 O109 2.240 . S
Cd100 O101 2.240 . S
Cd100 O108 2.223 . S
Cd100 O110 2.297 . S
Cd100 O111 2.439 . S
O101 Cd100 2.240 . S
O101 C106 1.279 . S
O102 Cd99 2.297 . S
O102 C104 1.247 . S
O103 Cd99 2.439 . S
O103 C104 1.208 . S
C104 O102 1.247 . S
C104 O103 1.208 . S
C105 O110 1.247 . S
C105 O111 1.208 . S
C106 O98 1.315 . S
C106 O101 1.279 . S
C107 O108 1.315 . S
C107 O109 1.279 . S
O108 Cd100 2.223 . S
O108 C107 1.315 . S
O109 Cd99 2.240 . S
O109 C107 1.279 . S
O110 Cd100 2.297 . S
O110 C105 1.247 . S
O111 Cd100 2.439 . S
O111 C105 1.208 . S
O112 Cd113 2.223 . S
O112 C120 1.315 . S
Cd113 O112 2.223 . S
Cd113 O116 2.297 . S
Cd113 O117 2.439 . S
Cd113 O123 2.240 . S
Cd114 O115 2.240 . S
Cd114 O122 2.223 . S
Cd114 O124 2.297 . S
Cd114 O125 2.439 . S
O115 Cd114 2.240 . S
O115 C120 1.279 . S
O116 Cd113 2.297 . S
O116 C118 1.247 . S
O117 Cd113 2.439 . S
O117 C118 1.208 . S
C118 O116 1.247 . S
C118 O117 1.208 . S
C119 O124 1.247 . S
C119 O125 1.208 . S
C120 O112 1.315 . S
C120 O115 1.279 . S
C121 O122 1.315 . S
C121 O123 1.279 . S
O122 Cd114 2.223 . S
O122 C121 1.315 . S
O123 Cd113 2.240 . S
O123 C121 1.279 . S
O124 Cd114 2.297 . S
O124 C119 1.247 . S
O125 Cd114 2.439 . S
O125 C119 1.208 . S
O126 Cd127 2.223 . S
O126 C134 1.315 . S
Cd127 O126 2.223 . S
Cd127 O130 2.297 . S
Cd127 O131 2.439 . S
Cd127 O137 2.240 . S
Cd128 O129 2.240 . S
Cd128 O136 2.223 . S
Cd128 O138 2.297 . S
Cd128 O139 2.439 . S
O129 Cd128 2.240 . S
O129 C134 1.279 . S
O130 Cd127 2.297 . S
O130 C132 1.247 . S
O131 Cd127 2.439 . S
O131 C132 1.208 . S
C132 O130 1.247 . S
C132 O131 1.208 . S
C133 O138 1.247 . S
C133 O139 1.208 . S
C134 O126 1.315 . S
C134 O129 1.279 . S
C135 O136 1.315 . S
C135 O137 1.279 . S
O136 Cd128 2.223 . S
O136 C135 1.315 . S
O137 Cd127 2.240 . S
O137 C135 1.279 . S
O138 Cd128 2.297 . S
O138 C133 1.247 . S
O139 Cd128 2.439 . S
O139 C133 1.208 . S
O140 Cd141 2.223 . S
O140 C148 1.315 . S
Cd141 O140 2.223 . S
Cd141 O144 2.297 . S
Cd141 O145 2.439 . S
Cd141 O151 2.240 . S
Cd142 O143 2.240 . S
Cd142 O150 2.223 . S
Cd142 O152 2.297 . S
Cd142 O153 2.439 . S
O143 Cd142 2.240 . S
O143 C148 1.279 . S
O144 Cd141 2.297 . S
O144 C146 1.247 . S
O145 Cd141 2.439 . S
O145 C146 1.208 . S
C146 O144 1.247 . S
C146 O145 1.208 . S
C147 O152 1.247 . S
C147 O153 1.208 . S
C148 O140 1.315 . S
C148 O143 1.279 . S
C149 O150 1.315 . S
C149 O151 1.279 . S
O150 Cd142 2.223 . S
O150 C149 1.315 . S
O151 Cd141 2.240 . S
O151 C149 1.279 . S
O152 Cd142 2.297 . S
O152 C147 1.247 . S
O153 Cd142 2.439 . S
O153 C147 1.208 . S
O154 Cd155 2.223 . S
O154 C162 1.315 . S
Cd155 O154 2.223 . S
Cd155 O158 2.297 . S
Cd155 O159 2.439 . S
Cd155 O165 2.240 . S
Cd156 O157 2.240 . S
Cd156 O164 2.223 . S
Cd156 O166 2.297 . S
Cd156 O167 2.439 . S
O157 Cd156 2.240 . S
O157 C162 1.279 . S
O158 Cd155 2.297 . S
O158 C160 1.247 . S
O159 Cd155 2.439 . S
O159 C160 1.208 . S
C160 O158 1.247 . S
C160 O159 1.208 . S
C161 O166 1.247 . S
C161 O167 1.208 . S
C162 O154 1.315 . S
C162 O157 1.279 . S
C163 O164 1.315 . S
C163 O165 1.279 . S
O164 Cd156 2.223 . S
O164 C163 1.315 . S
O165 Cd155 2.240 . S
O165 C163 1.279 . S
O166 Cd156 2.297 . S
O166 C161 1.247 . S
O167 Cd156 2.439 . S
O167 C161 1.208 . S
O168 Cd169 2.223 . S
O168 C176 1.315 . S
Cd169 O168 2.223 . S
Cd169 O172 2.297 . S
Cd169 O173 2.439 . S
Cd169 O179 2.240 . S
Cd170 O171 2.240 . S
Cd170 O178 2.223 . S
Cd170 O180 2.297 . S
Cd170 O181 2.439 . S
O171 Cd170 2.240 . S
O171 C176 1.279 . S
O172 Cd169 2.297 . S
O172 C174 1.247 . S
O173 Cd169 2.439 . S
O173 C174 1.208 . S
C174 O172 1.247 . S
C174 O173 1.208 . S
C175 O180 1.247 . S
C175 O181 1.208 . S
C176 O168 1.315 . S
C176 O171 1.279 . S
C177 O178 1.315 . S
C177 O179 1.279 . S
O178 Cd170 2.223 . S
O178 C177 1.315 . S
O179 Cd169 2.240 . S
O179 C177 1.279 . S
O180 Cd170 2.297 . S
O180 C175 1.247 . S
O181 Cd170 2.439 . S
O181 C175 1.208 . S
O182 Cd183 2.223 . S
O182 C190 1.315 . S
Cd183 O182 2.223 . S
Cd183 O186 2.297 . S
Cd183 O187 2.439 . S
Cd183 O193 2.240 . S
Cd184 O185 2.240 . S
Cd184 O192 2.223 . S
Cd184 O194 2.297 . S
Cd184 O195 2.439 . S
O185 Cd184 2.240 . S
O185 C190 1.279 . S
O186 Cd183 2.297 . S
O186 C188 1.247 . S
O187 Cd183 2.439 . S
O187 C188 1.208 . S
C188 O186 1.247 . S
C188 O187 1.208 . S
C189 O194 1.247 . S
C189 O195 1.208 . S
C190 O182 1.315 . S
C190 O185 1.279 . S
C191 O192 1.315 . S
C191 O193 1.279 . S
O192 Cd184 2.223 . S
O192 C191 1.315 . S
O193 Cd183 2.240 . S
O193 C191 1.279 . S
O194 Cd184 2.297 . S
O194 C189 1.247 . S
O195 Cd184 2.439 . S
O195 C189 1.208 . S
O196 Cd197 2.223 . S
O196 C204 1.315 . S
Cd197 O196 2.223 . S
Cd197 O200 2.297 . S
Cd197 O201 2.439 . S
Cd197 O207 2.240 . S
Cd198 O199 2.240 . S
Cd198 O206 2.223 . S
Cd198 O208 2.297 . S
Cd198 O209 2.439 . S
O199 Cd198 2.240 . S
O199 C204 1.279 . S
O200 Cd197 2.297 . S
O200 C202 1.247 . S
O201 Cd197 2.439 . S
O201 C202 1.208 . S
C202 O200 1.247 . S
C202 O201 1.208 . S
C203 O208 1.247 . S
C203 O209 1.208 . S
C204 O196 1.315 . S
C204 O199 1.279 . S
C205 O206 1.315 . S
C205 O207 1.279 . S
O206 Cd198 2.223 . S
O206 C205 1.315 . S
O207 Cd197 2.240 . S
O207 C205 1.279 . S
O208 Cd198 2.297 . S
O208 C203 1.247 . S
O209 Cd198 2.439 . S
O209 C203 1.208 . S
O210 Cd211 2.223 . S
O210 C218 1.315 . S
Cd211 O210 2.223 . S
Cd211 O214 2.297 . S
Cd211 O215 2.439 . S
Cd211 O221 2.240 . S
Cd212 O213 2.240 . S
Cd212 O220 2.223 . S
Cd212 O222 2.297 . S
Cd212 O223 2.439 . S
O213 Cd212 2.240 . S
O213 C218 1.279 . S
O214 Cd211 2.297 . S
O214 C216 1.247 . S
O215 Cd211 2.439 . S
O215 C216 1.208 . S
C216 O214 1.247 . S
C216 O215 1.208 . S
C217 O222 1.247 . S
C217 O223 1.208 . S
C218 O210 1.315 . S
C218 O213 1.279 . S
C219 O220 1.315 . S
C219 O221 1.279 . S
O220 Cd212 2.223 . S
O220 C219 1.315 . S
O221 Cd211 2.240 . S
O221 C219 1.279 . S
O222 Cd212 2.297 . S
O222 C217 1.247 . S
O223 Cd212 2.439 . S
O223 C217 1.208 . S
H224 C232 0.929 . S
H225 C234 0.930 . S
H226 C236 0.930 . S
H227 C239 0.929 . S
H228 C242 0.930 . S
H229 C244 0.960 . S
H230 C244 0.960 . S
H231 C244 0.960 . S
C232 H224 0.929 . S
C232 C233 1.377 . S
C232 C234 1.384 . S
C233 C232 1.377 . S
C233 C239 1.390 . S
C234 H225 0.930 . S
C234 C232 1.384 . S
C234 C235 1.372 . S
C235 C234 1.372 . S
C235 C236 1.400 . S
C235 C240 1.490 . S
C236 H226 0.930 . S
C236 C235 1.400 . S
C236 C239 1.386 . S
H237 C253 0.930 . S
H238 C254 0.931 . S
C239 H227 0.929 . S
C239 C233 1.390 . S
C239 C236 1.386 . S
C240 C235 1.490 . S
C240 C242 1.395 . S
C240 C243 1.403 . S
H241 C247 0.930 . S
C242 H228 0.930 . S
C242 C240 1.395 . S
C242 C245 1.403 . S
C243 C240 1.403 . S
C243 C244 1.524 . S
C243 C247 1.400 . S
C244 H229 0.960 . S
C244 H230 0.960 . S
C244 H231 0.960 . S
C244 C243 1.524 . S
C245 C242 1.403 . S
C245 C246 1.392 . S
C245 C249 1.495 . S
C246 C245 1.392 . S
C246 C247 1.385 . S
C246 C248 1.478 . S
C247 H241 0.930 . S
C247 C243 1.400 . S
C247 C246 1.385 . S
C248 C246 1.478 . S
C248 C250 1.381 . S
C248 C254 1.383 . S
C249 C245 1.495 . S
C249 H255 0.959 . S
C249 H256 0.961 . S
C249 H257 0.960 . S
C250 C248 1.381 . S
C250 C251 1.394 . S
C250 H258 0.930 . S
C251 C250 1.394 . S
C251 C252 1.383 . S
C251 H259 0.929 . S
C252 C251 1.383 . S
C252 C253 1.377 . S
C253 H237 0.930 . S
C253 C252 1.377 . S
C253 C254 1.379 . S
C254 H238 0.931 . S
C254 C248 1.383 . S
C254 C253 1.379 . S
H255 C249 0.959 . S
H256 C249 0.961 . S
H257 C249 0.960 . S
H258 C250 0.930 . S
H259 C251 0.929 . S
H260 C268 0.929 . S
H261 C270 0.930 . S
H262 C272 0.930 . S
H263 C275 0.929 . S
H264 C278 0.930 . S
H265 C280 0.960 . S
H266 C280 0.960 . S
H267 C280 0.960 . S
C268 H260 0.929 . S
C268 C269 1.377 . S
C268 C270 1.384 . S
C269 C268 1.377 . S
C269 C275 1.390 . S
C270 H261 0.930 . S
C270 C268 1.384 . S
C270 C271 1.372 . S
C271 C270 1.372 . S
C271 C272 1.400 . S
C271 C276 1.490 . S
C272 H262 0.930 . S
C272 C271 1.400 . S
C272 C275 1.386 . S
H273 C289 0.930 . S
H274 C290 0.931 . S
C275 H263 0.929 . S
C275 C269 1.390 . S
C275 C272 1.386 . S
C276 C271 1.490 . S
C276 C278 1.395 1_565 S
C276 C279 1.403 1_655 S
H277 C283 0.930 . S
C278 H264 0.930 . S
C278 C276 1.395 1_545 S
C278 C281 1.403 . S
C279 C276 1.403 1_455 S
C279 C280 1.524 . S
C279 C283 1.400 . S
C280 H265 0.960 . S
C280 H266 0.960 . S
C280 H267 0.960 . S
C280 C279 1.524 . S
C281 C278 1.403 . S
C281 C282 1.392 1_655 S
C281 C285 1.495 . S
C282 C281 1.392 1_455 S
C282 C283 1.385 1_545 S
C282 C284 1.478 . S
C283 H277 0.930 . S
C283 C279 1.400 . S
C283 C282 1.385 1_565 S
C284 C282 1.478 . S
C284 C286 1.381 . S
C284 C290 1.383 . S
C285 C281 1.495 . S
C285 H291 0.959 . S
C285 H292 0.961 . S
C285 H293 0.960 . S
C286 C284 1.381 . S
C286 C287 1.394 . S
C286 H294 0.930 . S
C287 C286 1.394 . S
C287 C288 1.383 . S
C287 H295 0.929 . S
C288 C287 1.383 . S
C288 C289 1.377 . S
C289 H273 0.930 . S
C289 C288 1.377 . S
C289 C290 1.379 . S
C290 H274 0.931 . S
C290 C284 1.383 . S
C290 C289 1.379 . S
H291 C285 0.959 . S
H292 C285 0.961 . S
H293 C285 0.960 . S
H294 C286 0.930 . S
H295 C287 0.929 . S
H296 C304 0.929 . S
H297 C306 0.930 . S
H298 C308 0.930 . S
H299 C311 0.929 . S
H300 C314 0.930 . S
H301 C316 0.960 . S
H302 C316 0.960 . S
H303 C316 0.960 . S
C304 H296 0.929 . S
C304 C305 1.377 . S
C304 C306 1.384 . S
C305 C304 1.377 . S
C305 C311 1.390 . S
C306 H297 0.930 . S
C306 C304 1.384 . S
C306 C307 1.372 . S
C307 C306 1.372 . S
C307 C308 1.400 . S
C307 C312 1.490 . S
C308 H298 0.930 . S
C308 C307 1.400 . S
C308 C311 1.386 . S
H309 C325 0.930 . S
H310 C326 0.931 . S
C311 H299 0.929 . S
C311 C305 1.390 . S
C311 C308 1.386 . S
C312 C307 1.490 . S
C312 C314 1.395 1_565 S
C312 C315 1.403 . S
H313 C319 0.930 . S
C314 H300 0.930 . S
C314 C312 1.395 1_545 S
C314 C317 1.403 . S
C315 C312 1.403 . S
C315 C316 1.524 . S
C315 C319 1.400 . S
C316 H301 0.960 . S
C316 H302 0.960 . S
C316 H303 0.960 . S
C316 C315 1.524 . S
C317 C314 1.403 . S
C317 C318 1.392 . S
C317 C321 1.495 . S
C318 C317 1.392 . S
C318 C319 1.385 1_545 S
C318 C320 1.478 . S
C319 H313 0.930 . S
C319 C315 1.400 . S
C319 C318 1.385 1_565 S
C320 C318 1.478 . S
C320 C322 1.381 . S
C320 C326 1.383 . S
C321 C317 1.495 . S
C321 H327 0.959 . S
C321 H328 0.961 . S
C321 H329 0.960 . S
C322 C320 1.381 . S
C322 C323 1.394 . S
C322 H330 0.930 . S
C323 C322 1.394 . S
C323 C324 1.383 . S
C323 H331 0.929 . S
C324 C323 1.383 . S
C324 C325 1.377 . S
C325 H309 0.930 . S
C325 C324 1.377 . S
C325 C326 1.379 . S
C326 H310 0.931 . S
C326 C320 1.383 . S
C326 C325 1.379 . S
H327 C321 0.959 . S
H328 C321 0.961 . S
H329 C321 0.960 . S
H330 C322 0.930 . S
H331 C323 0.929 . S
H332 C340 0.929 . S
H333 C342 0.930 . S
H334 C344 0.930 . S
H335 C347 0.929 . S
H336 C350 0.930 . S
H337 C352 0.960 . S
H338 C352 0.960 . S
H339 C352 0.960 . S
C340 H332 0.929 . S
C340 C341 1.377 . S
C340 C342 1.384 . S
C341 C340 1.377 . S
C341 C347 1.390 . S
C342 H333 0.930 . S
C342 C340 1.384 . S
C342 C343 1.372 . S
C343 C342 1.372 . S
C343 C344 1.400 . S
C343 C348 1.490 . S
C344 H334 0.930 . S
C344 C343 1.400 . S
C344 C347 1.386 . S
H345 C361 0.930 . S
H346 C362 0.931 . S
C347 H335 0.929 . S
C347 C341 1.390 . S
C347 C344 1.386 . S
C348 C343 1.490 . S
C348 C350 1.395 1_455 S
C348 C351 1.403 . S
H349 C355 0.933 . S
C350 H336 0.930 . S
C350 C348 1.395 1_655 S
C350 C353 1.403 . S
C351 C348 1.403 . S
C351 C352 1.524 . S
C351 C355 1.400 1_455 S
C352 H337 0.960 . S
C352 H338 0.960 . S
C352 H339 0.960 . S
C352 C351 1.524 . S
C353 C350 1.403 . S
C353 C354 1.392 . S
C353 C357 1.495 . S
C354 C353 1.392 . S
C354 C355 1.385 . S
C354 C356 1.478 . S
C355 H349 0.933 . S
C355 C351 1.400 1_655 S
C355 C354 1.385 . S
C356 C354 1.478 . S
C356 C358 1.381 . S
C356 C362 1.383 . S
C357 C353 1.495 . S
C357 H363 0.959 . S
C357 H364 0.961 . S
C357 H365 0.960 . S
C358 C356 1.381 . S
C358 C359 1.394 . S
C358 H366 0.930 . S
C359 C358 1.394 . S
C359 C360 1.383 . S
C359 H367 0.929 . S
C360 C359 1.383 . S
C360 C361 1.377 . S
C361 H345 0.930 . S
C361 C360 1.377 . S
C361 C362 1.379 . S
C362 H346 0.931 . S
C362 C356 1.383 . S
C362 C361 1.379 . S
H363 C357 0.959 . S
H364 C357 0.961 . S
H365 C357 0.960 . S
H366 C358 0.930 . S
H367 C359 0.929 . S
H368 C376 0.929 . S
H369 C378 0.930 . S
H370 C380 0.930 . S
H371 C383 0.929 . S
H372 C386 0.930 . S
H373 C388 0.960 . S
H374 C388 0.960 . S
H375 C388 0.960 . S
C376 H368 0.929 . S
C376 C377 1.377 . S
C376 C378 1.384 . S
C377 C376 1.377 . S
C377 C383 1.390 . S
C378 H369 0.930 . S
C378 C376 1.384 . S
C378 C379 1.372 . S
C379 C378 1.372 . S
C379 C380 1.400 . S
C379 C384 1.490 . S
C380 H370 0.930 . S
C380 C379 1.400 . S
C380 C383 1.386 . S
H381 C397 0.930 . S
H382 C398 0.931 . S
C383 H371 0.929 . S
C383 C377 1.390 . S
C383 C380 1.386 . S
C384 C379 1.490 . S
C384 C386 1.395 . S
C384 C387 1.403 . S
H385 C391 0.930 . S
C386 H372 0.930 . S
C386 C384 1.395 . S
C386 C389 1.403 . S
C387 C384 1.403 . S
C387 C388 1.524 . S
C387 C391 1.400 . S
C388 H373 0.960 . S
C388 H374 0.960 . S
C388 H375 0.960 . S
C388 C387 1.524 . S
C389 C386 1.403 . S
C389 C390 1.392 . S
C389 C393 1.495 . S
C390 C389 1.392 . S
C390 C391 1.385 . S
C390 C392 1.478 . S
C391 H385 0.930 . S
C391 C387 1.400 . S
C391 C390 1.385 . S
C392 C390 1.478 . S
C392 C394 1.381 . S
C392 C398 1.383 . S
C393 C389 1.495 . S
C393 H399 0.959 . S
C393 H400 0.961 . S
C393 H401 0.960 . S
C394 C392 1.381 . S
C394 C395 1.394 . S
C394 H402 0.930 . S
C395 C394 1.394 . S
C395 C396 1.383 . S
C395 H403 0.929 . S
C396 C395 1.383 . S
C396 C397 1.377 . S
C397 H381 0.930 . S
C397 C396 1.377 . S
C397 C398 1.379 . S
C398 H382 0.931 . S
C398 C392 1.383 . S
C398 C397 1.379 . S
H399 C393 0.959 . S
H400 C393 0.961 . S
H401 C393 0.960 . S
H402 C394 0.930 . S
H403 C395 0.929 . S
H404 C412 0.929 . S
H405 C414 0.930 . S
H406 C416 0.922 1_565 S
H407 C419 0.929 1_565 S
H408 C422 0.930 . S
H409 C424 0.960 1_565 S
H410 C424 0.960 . S
H411 C424 0.960 1_565 S
C412 H404 0.929 . S
C412 C413 1.377 . S
C412 C414 1.384 . S
C413 C412 1.377 . S
C413 C419 1.390 . S
C414 H405 0.930 . S
C414 C412 1.384 . S
C414 C415 1.372 . S
C415 C414 1.372 . S
C415 C416 1.405 . S
C415 C420 1.490 . S
C416 H406 0.922 1_545 S
C416 C415 1.405 . S
C416 C419 1.388 . S
H417 C433 0.930 . S
H418 C434 0.931 . S
C419 H407 0.929 1_545 S
C419 C413 1.390 . S
C419 C416 1.388 . S
C420 C415 1.490 . S
C420 C422 1.395 . S
C420 C423 1.403 . S
H421 C427 0.930 . S
C422 H408 0.930 . S
C422 C420 1.395 . S
C422 C425 1.403 . S
C423 C420 1.403 . S
C423 C424 1.524 . S
C423 C427 1.400 1_545 S
C424 H409 0.960 1_545 S
C424 H410 0.960 . S
C424 H411 0.960 1_545 S
C424 C423 1.524 . S
C425 C422 1.403 . S
C425 C426 1.392 1_545 S
C425 C429 1.495 . S
C426 C425 1.392 1_565 S
C426 C427 1.385 . S
C426 C428 1.478 . S
C427 H421 0.930 . S
C427 C423 1.400 1_565 S
C427 C426 1.385 . S
C428 C426 1.478 . S
C428 C430 1.381 1_565 S
C428 C434 1.383 . S
C429 C425 1.495 . S
C429 H435 0.959 . S
C429 H436 0.961 1_545 S
C429 H437 0.960 . S
C430 C428 1.381 1_545 S
C430 C431 1.394 1_545 S
C430 H438 0.930 . S
C431 C430 1.394 1_565 S
C431 C432 1.383 . S
C431 H439 0.929 1_565 S
C432 C431 1.383 . S
C432 C433 1.377 . S
C433 H417 0.930 . S
C433 C432 1.377 . S
C433 C434 1.379 . S
C434 H418 0.931 . S
C434 C428 1.383 . S
C434 C433 1.379 . S
H435 C429 0.959 . S
H436 C429 0.961 1_565 S
H437 C429 0.960 . S
H438 C430 0.930 . S
H439 C431 0.929 1_545 S
H440 C448 0.929 . S
H441 C450 0.930 . S
H442 C452 0.930 . S
H443 C455 0.929 . S
H444 C458 0.930 . S
H445 C460 0.960 . S
H446 C460 0.960 . S
H447 C460 0.960 . S
C448 H440 0.929 . S
C448 C449 1.377 . S
C448 C450 1.384 . S
C449 C448 1.377 . S
C449 C455 1.390 . S
C450 H441 0.930 . S
C450 C448 1.384 . S
C450 C451 1.372 . S
C451 C450 1.372 . S
C451 C452 1.400 . S
C451 C456 1.490 . S
C452 H442 0.930 . S
C452 C451 1.400 . S
C452 C455 1.386 . S
H453 C469 0.930 . S
H454 C470 0.931 . S
C455 H443 0.929 . S
C455 C449 1.390 . S
C455 C452 1.386 . S
C456 C451 1.490 . S
C456 C458 1.395 1_655 S
C456 C459 1.403 . S
H457 C463 0.930 . S
C458 H444 0.930 . S
C458 C456 1.395 1_455 S
C458 C461 1.403 . S
C459 C456 1.403 . S
C459 C460 1.524 . S
C459 C463 1.395 . S
C460 H445 0.960 . S
C460 H446 0.960 . S
C460 H447 0.960 . S
C460 C459 1.524 . S
C461 C458 1.403 . S
C461 C462 1.392 . S
C461 C465 1.495 . S
C462 C461 1.392 . S
C462 C463 1.390 1_455 S
C462 C464 1.478 . S
C463 H457 0.930 . S
C463 C459 1.395 . S
C463 C462 1.390 1_655 S
C464 C462 1.478 . S
C464 C466 1.381 . S
C464 C470 1.383 . S
C465 C461 1.495 . S
C465 H471 0.959 . S
C465 H472 0.961 . S
C465 H473 0.960 . S
C466 C464 1.381 . S
C466 C467 1.394 . S
C466 H474 0.930 . S
C467 C466 1.394 . S
C467 C468 1.383 . S
C467 H475 0.929 . S
C468 C467 1.383 . S
C468 C469 1.377 . S
C469 H453 0.930 . S
C469 C468 1.377 . S
C469 C470 1.379 . S
C470 H454 0.931 . S
C470 C464 1.383 . S
C470 C469 1.379 . S
H471 C465 0.959 . S
H472 C465 0.961 . S
H473 C465 0.960 . S
H474 C466 0.930 . S
H475 C467 0.929 . S
H476 C484 0.929 . S
H477 C486 0.930 . S
H478 C488 0.930 . S
H479 C491 0.929 . S
H480 C494 0.930 . S
H481 C496 0.960 . S
H482 C496 1.020 . S
H483 C496 0.960 . S
C484 H476 0.929 . S
C484 C485 1.377 . S
C484 C486 1.384 . S
C485 C484 1.377 . S
C485 C491 1.390 . S
C486 H477 0.930 . S
C486 C484 1.384 . S
C486 C487 1.372 . S
C487 C486 1.372 . S
C487 C488 1.400 . S
C487 C492 1.490 . S
C488 H478 0.930 . S
C488 C487 1.400 . S
C488 C491 1.386 . S
H489 C505 0.930 . S
H490 C506 0.931 . S
C491 H479 0.929 . S
C491 C485 1.390 . S
C491 C488 1.386 . S
C492 C487 1.490 . S
C492 C494 1.395 . S
C492 C495 1.403 1_554 S
H493 C499 0.930 . S
C494 H480 0.930 . S
C494 C492 1.395 . S
C494 C497 1.403 . S
C495 C492 1.403 1_556 S
C495 C496 1.524 . S
C495 C499 1.400 . S
C496 H481 0.960 . S
C496 H482 1.020 . S
C496 H483 0.960 . S
C496 C495 1.524 . S
C497 C494 1.403 . S
C497 C498 1.392 1_554 S
C497 C501 1.495 . S
C498 C497 1.392 1_556 S
C498 C499 1.385 . S
C498 C500 1.478 . S
C499 H493 0.930 . S
C499 C495 1.400 . S
C499 C498 1.385 . S
C500 C498 1.478 . S
C500 C502 1.381 . S
C500 C506 1.383 . S
C501 C497 1.495 . S
C501 H507 0.959 . S
C501 H508 0.961 . S
C501 H509 0.960 . S
C502 C500 1.381 . S
C502 C503 1.394 . S
C502 H510 0.930 . S
C503 C502 1.394 . S
C503 C504 1.383 . S
C503 H511 0.929 . S
C504 C503 1.383 . S
C504 C505 1.377 . S
C505 H489 0.930 . S
C505 C504 1.377 . S
C505 C506 1.379 . S
C506 H490 0.931 . S
C506 C500 1.383 . S
C506 C505 1.379 . S
H507 C501 0.959 . S
H508 C501 0.961 . S
H509 C501 0.960 . S
H510 C502 0.930 . S
H511 C503 0.929 . S
H512 C520 0.929 . S
H513 C522 0.930 . S
H514 C524 0.930 . S
H515 C527 0.929 . S
H516 C530 0.930 . S
H517 C532 0.960 1_655 S
H518 C532 0.960 . S
H519 C532 0.960 . S
C520 H512 0.929 . S
C520 C521 1.377 . S
C520 C522 1.384 . S
C521 C520 1.377 . S
C521 C527 1.390 . S
C522 H513 0.930 . S
C522 C520 1.384 . S
C522 C523 1.372 . S
C523 C522 1.372 . S
C523 C524 1.400 . S
C523 C528 1.490 . S
C524 H514 0.930 . S
C524 C523 1.400 . S
C524 C527 1.386 . S
H525 C541 0.930 . S
H526 C542 0.931 . S
C527 H515 0.929 . S
C527 C521 1.390 . S
C527 C524 1.386 . S
C528 C523 1.490 . S
C528 C530 1.395 1_556 S
C528 C531 1.403 . S
H529 C535 0.930 . S
C530 H516 0.930 . S
C530 C528 1.395 1_554 S
C530 C533 1.403 1_455 S
C531 C528 1.403 . S
C531 C532 1.524 . S
C531 C535 1.400 1_455 S
C532 H517 0.960 1_455 S
C532 H518 0.960 . S
C532 H519 0.960 . S
C532 C531 1.524 . S
C533 C530 1.403 1_655 S
C533 C534 1.392 . S
C533 C537 1.495 . S
C534 C533 1.392 . S
C534 C535 1.385 1_554 S
C534 C536 1.478 . S
C535 H529 0.930 . S
C535 C531 1.400 1_655 S
C535 C534 1.385 1_556 S
C536 C534 1.478 . S
C536 C538 1.381 . S
C536 C542 1.383 . S
C537 C533 1.495 . S
C537 H543 0.959 1_655 S
C537 H544 0.961 . S
C537 H545 0.960 . S
C538 C536 1.381 . S
C538 C539 1.394 . S
C538 H546 0.930 . S
C539 C538 1.394 . S
C539 C540 1.383 . S
C539 H547 0.929 . S
C540 C539 1.383 . S
C540 C541 1.377 . S
C541 H525 0.930 . S
C541 C540 1.377 . S
C541 C542 1.379 . S
C542 H526 0.931 . S
C542 C536 1.383 . S
C542 C541 1.379 . S
H543 C537 0.959 1_455 S
H544 C537 0.961 . S
H545 C537 0.960 . S
H546 C538 0.930 . S
H547 C539 0.929 . S
H548 C556 0.929 . S
H549 C558 0.930 . S
H550 C560 0.930 . S
H551 C563 0.929 . S
H552 C566 0.930 . S
H553 C568 0.960 . S
H554 C568 0.960 . S
H555 C568 0.960 . S
C556 H548 0.929 . S
C556 C557 1.377 . S
C556 C558 1.384 . S
C557 C556 1.377 . S
C557 C563 1.390 . S
C558 H549 0.930 . S
C558 C556 1.384 . S
C558 C559 1.372 . S
C559 C558 1.372 . S
C559 C560 1.400 . S
C559 C564 1.490 . S
C560 H550 0.930 . S
C560 C559 1.400 . S
C560 C563 1.386 . S
H561 C577 0.930 . S
H562 C578 0.931 . S
C563 H551 0.929 . S
C563 C557 1.390 . S
C563 C560 1.386 . S
C564 C559 1.490 . S
C564 C566 1.395 . S
C564 C567 1.403 . S
H565 C571 0.930 . S
C566 H552 0.930 . S
C566 C564 1.395 . S
C566 C569 1.403 . S
C567 C564 1.403 . S
C567 C568 1.524 . S
C567 C571 1.400 . S
C568 H553 0.960 . S
C568 H554 0.960 . S
C568 H555 0.960 . S
C568 C567 1.524 . S
C569 C566 1.403 . S
C569 C570 1.392 . S
C569 C573 1.495 . S
C570 C569 1.392 . S
C570 C571 1.385 . S
C570 C572 1.478 . S
C571 H565 0.930 . S
C571 C567 1.400 . S
C571 C570 1.385 . S
C572 C570 1.478 . S
C572 C574 1.381 . S
C572 C578 1.383 . S
C573 C569 1.495 . S
C573 H579 0.959 . S
C573 H580 0.961 . S
C573 H581 0.960 . S
C574 C572 1.381 . S
C574 C575 1.394 . S
C574 H582 0.930 . S
C575 C574 1.394 . S
C575 C576 1.383 . S
C575 H583 0.929 . S
C576 C575 1.383 . S
C576 C577 1.377 . S
C577 H561 0.930 . S
C577 C576 1.377 . S
C577 C578 1.379 . S
C578 H562 0.931 . S
C578 C572 1.383 . S
C578 C577 1.379 . S
H579 C573 0.959 . S
H580 C573 0.961 . S
H581 C573 0.960 . S
H582 C574 0.930 . S
H583 C575 0.929 . S
H584 C592 0.929 . S
H585 C594 0.930 . S
H586 C596 0.930 . S
H587 C599 0.929 . S
H588 C602 0.930 . S
H589 C604 0.960 . S
H590 C604 0.960 . S
H591 C604 0.960 1_556 S
C592 H584 0.929 . S
C592 C593 1.377 . S
C592 C594 1.384 . S
C593 C592 1.377 . S
C593 C599 1.390 . S
C594 H585 0.930 . S
C594 C592 1.384 . S
C594 C595 1.372 . S
C595 C594 1.372 . S
C595 C596 1.400 . S
C595 C600 1.490 . S
C596 H586 0.930 . S
C596 C595 1.400 . S
C596 C599 1.386 . S
H597 C613 0.930 . S
H598 C614 0.931 . S
C599 H587 0.929 . S
C599 C593 1.390 . S
C599 C596 1.386 . S
C600 C595 1.490 . S
C600 C602 1.395 . S
C600 C603 1.403 1_556 S
H601 C607 0.930 . S
C602 H588 0.930 . S
C602 C600 1.395 . S
C602 C605 1.403 . S
C603 C600 1.403 1_554 S
C603 C604 1.524 . S
C603 C607 1.400 . S
C604 H589 0.960 . S
C604 H590 0.960 . S
C604 H591 0.960 1_554 S
C604 C603 1.524 . S
C605 C602 1.403 . S
C605 C606 1.392 1_556 S
C605 C609 1.495 . S
C606 C605 1.392 1_554 S
C606 C607 1.385 . S
C606 C608 1.478 . S
C607 H601 0.930 . S
C607 C603 1.400 . S
C607 C606 1.385 . S
C608 C606 1.478 . S
C608 C610 1.381 . S
C608 C614 1.383 . S
C609 C605 1.495 . S
C609 H615 0.959 . S
C609 H616 0.961 . S
C609 H617 0.960 1_556 S
C610 C608 1.381 . S
C610 C611 1.394 . S
C610 H618 0.930 . S
C611 C610 1.394 . S
C611 C612 1.383 . S
C611 H619 0.929 . S
C612 C611 1.383 . S
C612 C613 1.377 . S
C613 H597 0.930 . S
C613 C612 1.377 . S
C613 C614 1.379 . S
C614 H598 0.931 . S
C614 C608 1.383 . S
C614 C613 1.379 . S
H615 C609 0.959 . S
H616 C609 0.961 . S
H617 C609 0.960 1_554 S
H618 C610 0.930 . S
H619 C611 0.929 . S
H620 C628 0.929 . S
H621 C630 0.930 . S
H622 C632 0.930 . S
H623 C635 0.929 . S
H624 C638 0.930 . S
H625 C640 0.960 . S
H626 C640 0.960 . S
H627 C640 0.960 . S
C628 H620 0.929 . S
C628 C629 1.377 . S
C628 C630 1.384 . S
C629 C628 1.377 . S
C629 C635 1.390 . S
C630 H621 0.930 . S
C630 C628 1.384 . S
C630 C631 1.372 . S
C631 C630 1.372 . S
C631 C632 1.400 . S
C631 C636 1.490 . S
C632 H622 0.930 . S
C632 C631 1.400 . S
C632 C635 1.386 . S
H633 C649 0.930 . S
H634 C650 0.931 . S
C635 H623 0.929 . S
C635 C629 1.390 . S
C635 C632 1.386 . S
C636 C631 1.490 . S
C636 C638 1.395 . S
C636 C639 1.403 . S
H637 C643 0.930 . S
C638 H624 0.930 . S
C638 C636 1.395 . S
C638 C641 1.403 . S
C639 C636 1.403 . S
C639 C640 1.524 . S
C639 C643 1.400 . S
C640 H625 0.960 . S
C640 H626 0.960 . S
C640 H627 0.960 . S
C640 C639 1.524 . S
C641 C638 1.403 . S
C641 C642 1.392 . S
C641 C645 1.495 . S
C642 C641 1.392 . S
C642 C643 1.385 . S
C642 C644 1.478 . S
C643 H637 0.930 . S
C643 C639 1.400 . S
C643 C642 1.385 . S
C644 C642 1.478 . S
C644 C646 1.381 . S
C644 C650 1.383 . S
C645 C641 1.495 . S
C645 H651 0.959 . S
C645 H652 0.961 . S
C645 H653 0.960 . S
C646 C644 1.381 . S
C646 C647 1.394 . S
C646 H654 0.930 . S
C647 C646 1.394 . S
C647 C648 1.383 . S
C647 H655 0.929 . S
C648 C647 1.383 . S
C648 C649 1.377 . S
C649 H633 0.930 . S
C649 C648 1.377 . S
C649 C650 1.379 . S
C650 H634 0.931 . S
C650 C644 1.383 . S
C650 C649 1.379 . S
H651 C645 0.959 . S
H652 C645 0.961 . S
H653 C645 0.960 . S
H654 C646 0.930 . S
H655 C647 0.929 . S
H656 C664 0.929 . S
H657 C666 0.930 . S
H658 C668 0.930 1_565 S
H659 C671 0.936 . S
H660 C674 0.930 . S
H661 C676 0.960 1_554 S
H662 C676 0.960 1_554 S
H663 C676 0.960 . S
C664 H656 0.929 . S
C664 C665 1.377 . S
C664 C666 1.384 . S
C665 C664 1.377 . S
C665 C671 1.390 . S
C666 H657 0.930 . S
C666 C664 1.384 . S
C666 C667 1.372 . S
C667 C666 1.372 . S
C667 C668 1.400 . S
C667 C672 1.490 . S
C668 H658 0.930 1_545 S
C668 C667 1.400 . S
C668 C671 1.386 . S
H669 C685 0.930 . S
H670 C686 0.931 . S
C671 H659 0.936 . S
C671 C665 1.390 . S
C671 C668 1.386 . S
C672 C667 1.490 . S
C672 C674 1.395 . S
C672 C675 1.438 1_545 S
H673 C679 0.930 . S
C674 H660 0.930 . S
C674 C672 1.395 . S
C674 C677 1.403 1_556 S
C675 C672 1.438 1_565 S
C675 C676 1.527 . S
C675 C679 1.362 1_556 S
C676 H661 0.960 1_556 S
C676 H662 0.960 1_556 S
C676 H663 0.960 . S
C676 C675 1.527 . S
C677 C674 1.403 1_554 S
C677 C678 1.392 1_545 S
C677 C681 1.495 . S
C678 C677 1.392 1_565 S
C678 C679 1.385 . S
C678 C680 1.478 . S
C679 H673 0.930 . S
C679 C675 1.362 1_554 S
C679 C678 1.385 . S
C680 C678 1.478 . S
C680 C682 1.383 . S
C680 C686 1.383 . S
C681 C677 1.495 . S
C681 H687 0.959 1_554 S
C681 H688 0.961 1_554 S
C681 H689 0.960 . S
C682 C680 1.383 . S
C682 C683 1.396 . S
C682 H690 0.927 1_565 S
C683 C682 1.396 . S
C683 C684 1.383 . S
C683 H691 0.929 . S
C684 C683 1.383 . S
C684 C685 1.377 . S
C685 H669 0.930 . S
C685 C684 1.377 . S
C685 C686 1.379 . S
C686 H670 0.931 . S
C686 C680 1.383 . S
C686 C685 1.379 . S
H687 C681 0.959 1_556 S
H688 C681 0.961 1_556 S
H689 C681 0.960 . S
H690 C682 0.927 1_545 S
H691 C683 0.929 . S
H692 C700 0.929 . S
H693 C702 0.930 . S
H694 C704 0.930 . S
H695 C707 0.929 . S
H696 C710 0.930 . S
H697 C712 0.960 . S
H698 C712 0.960 . S
H699 C712 0.960 . S
C700 H692 0.929 . S
C700 C701 1.377 . S
C700 C702 1.384 . S
C701 C700 1.377 . S
C701 C707 1.390 . S
C702 H693 0.930 . S
C702 C700 1.384 . S
C702 C703 1.372 . S
C703 C702 1.372 . S
C703 C704 1.400 . S
C703 C708 1.490 . S
C704 H694 0.930 . S
C704 C703 1.400 . S
C704 C707 1.386 . S
H705 C721 0.930 . S
H706 C722 0.931 . S
C707 H695 0.929 . S
C707 C701 1.390 . S
C707 C704 1.386 . S
C708 C703 1.490 . S
C708 C710 1.395 . S
C708 C711 1.403 . S
H709 C715 0.930 . S
C710 H696 0.930 . S
C710 C708 1.395 . S
C710 C713 1.403 . S
C711 C708 1.403 . S
C711 C712 1.524 . S
C711 C715 1.400 . S
C712 H697 0.960 . S
C712 H698 0.960 . S
C712 H699 0.960 . S
C712 C711 1.524 . S
C713 C710 1.403 . S
C713 C714 1.392 . S
C713 C717 1.495 . S
C714 C713 1.392 . S
C714 C715 1.385 . S
C714 C716 1.478 . S
C715 H709 0.930 . S
C715 C711 1.400 . S
C715 C714 1.385 . S
C716 C714 1.478 . S
C716 C718 1.381 . S
C716 C722 1.383 . S
C717 C713 1.495 . S
C717 H723 0.959 . S
C717 H724 0.961 . S
C717 H725 0.960 . S
C718 C716 1.381 . S
C718 C719 1.394 . S
C718 H726 0.930 . S
C719 C718 1.394 . S
C719 C720 1.383 . S
C719 H727 0.929 . S
C720 C719 1.383 . S
C720 C721 1.377 . S
C721 H705 0.930 . S
C721 C720 1.377 . S
C721 C722 1.379 . S
C722 H706 0.931 . S
C722 C716 1.383 . S
C722 C721 1.379 . S
H723 C717 0.959 . S
H724 C717 0.961 . S
H725 C717 0.960 . S
H726 C718 0.930 . S
H727 C719 0.929 . S
H728 C736 0.929 . S
H729 C738 0.930 . S
H730 C740 0.930 . S
H731 C743 0.929 . S
H732 C746 0.930 . S
H733 C748 0.960 . S
H734 C748 0.960 . S
H735 C748 0.960 . S
C736 H728 0.929 . S
C736 C737 1.377 . S
C736 C738 1.384 . S
C737 C736 1.377 . S
C737 C743 1.390 . S
C738 H729 0.930 . S
C738 C736 1.384 . S
C738 C739 1.372 . S
C739 C738 1.372 . S
C739 C740 1.400 . S
C739 C744 1.490 . S
C740 H730 0.930 . S
C740 C739 1.400 . S
C740 C743 1.386 . S
H741 C757 0.930 . S
H742 C758 0.931 . S
C743 H731 0.929 . S
C743 C737 1.390 . S
C743 C740 1.386 . S
C744 C739 1.490 . S
C744 C746 1.395 . S
C744 C747 1.403 . S
H745 C751 0.930 . S
C746 H732 0.930 . S
C746 C744 1.395 . S
C746 C749 1.403 . S
C747 C744 1.403 . S
C747 C748 1.524 . S
C747 C751 1.400 . S
C748 H733 0.960 . S
C748 H734 0.960 . S
C748 H735 0.960 . S
C748 C747 1.524 . S
C749 C746 1.403 . S
C749 C750 1.392 . S
C749 C753 1.495 . S
C750 C749 1.392 . S
C750 C751 1.385 . S
C750 C752 1.478 . S
C751 H745 0.930 . S
C751 C747 1.400 . S
C751 C750 1.385 . S
C752 C750 1.478 . S
C752 C754 1.381 . S
C752 C758 1.383 . S
C753 C749 1.495 . S
C753 H759 0.959 . S
C753 H760 0.961 . S
C753 H761 0.960 . S
C754 C752 1.381 . S
C754 C755 1.394 . S
C754 H762 0.930 . S
C755 C754 1.394 . S
C755 C756 1.383 . S
C755 H763 0.929 . S
C756 C755 1.383 . S
C756 C757 1.377 . S
C757 H741 0.930 . S
C757 C756 1.377 . S
C757 C758 1.379 . S
C758 H742 0.931 . S
C758 C752 1.383 . S
C758 C757 1.379 . S
H759 C753 0.959 . S
H760 C753 0.961 . S
H761 C753 0.960 . S
H762 C754 0.930 . S
H763 C755 0.929 . S
H764 C772 0.929 . S
H765 C774 0.930 . S
H766 C776 0.930 . S
H767 C779 0.929 . S
H768 C782 0.930 . S
H769 C784 0.960 . S
H770 C784 0.960 . S
H771 C784 0.960 . S
C772 H764 0.929 . S
C772 C773 1.377 . S
C772 C774 1.384 . S
C773 C772 1.377 . S
C773 C779 1.390 . S
C774 H765 0.930 . S
C774 C772 1.384 . S
C774 C775 1.372 . S
C775 C774 1.372 . S
C775 C776 1.400 . S
C775 C780 1.490 . S
C776 H766 0.930 . S
C776 C775 1.400 . S
C776 C779 1.386 . S
H777 C793 0.930 . S
H778 C794 0.931 . S
C779 H767 0.929 . S
C779 C773 1.390 . S
C779 C776 1.386 . S
C780 C775 1.490 . S
C780 C782 1.395 . S
C780 C783 1.403 . S
H781 C787 0.930 . S
C782 H768 0.930 . S
C782 C780 1.395 . S
C782 C785 1.403 . S
C783 C780 1.403 . S
C783 C784 1.524 . S
C783 C787 1.400 . S
C784 H769 0.960 . S
C784 H770 0.960 . S
C784 H771 0.960 . S
C784 C783 1.524 . S
C785 C782 1.403 . S
C785 C786 1.392 . S
C785 C789 1.495 . S
C786 C785 1.392 . S
C786 C787 1.385 . S
C786 C788 1.478 . S
C787 H781 0.930 . S
C787 C783 1.400 . S
C787 C786 1.385 . S
C788 C786 1.478 . S
C788 C790 1.381 . S
C788 C794 1.383 . S
C789 C785 1.495 . S
C789 H795 0.959 . S
C789 H796 0.961 . S
C789 H797 0.960 . S
C790 C788 1.381 . S
C790 C791 1.394 . S
C790 H798 0.930 . S
C791 C790 1.394 . S
C791 C792 1.383 . S
C791 H799 0.929 . S
C792 C791 1.383 . S
C792 C793 1.377 . S
C793 H777 0.930 . S
C793 C792 1.377 . S
C793 C794 1.379 . S
C794 H778 0.931 . S
C794 C788 1.383 . S
C794 C793 1.379 . S
H795 C789 0.959 . S
H796 C789 0.961 . S
H797 C789 0.960 . S
H798 C790 0.930 . S
H799 C791 0.929 . S
H800 C808 0.929 . S
H801 C810 0.930 . S
H802 C812 0.930 . S
H803 C815 0.929 . S
H804 C818 0.930 . S
H805 C820 0.960 . S
H806 C820 0.960 . S
H807 C820 0.960 . S
C808 H800 0.929 . S
C808 C809 1.377 . S
C808 C810 1.384 . S
C809 C808 1.377 . S
C809 C815 1.390 . S
C810 H801 0.930 . S
C810 C808 1.384 . S
C810 C811 1.372 . S
C811 C810 1.372 . S
C811 C812 1.400 . S
C811 C816 1.490 . S
C812 H802 0.930 . S
C812 C811 1.400 . S
C812 C815 1.386 . S
H813 C829 0.930 . S
H814 C830 0.931 . S
C815 H803 0.929 . S
C815 C809 1.390 . S
C815 C812 1.386 . S
C816 C811 1.490 . S
C816 C818 1.395 . S
C816 C819 1.403 . S
H817 C823 0.930 . S
C818 H804 0.930 . S
C818 C816 1.395 . S
C818 C821 1.403 . S
C819 C816 1.403 . S
C819 C820 1.524 . S
C819 C823 1.400 . S
C820 H805 0.960 . S
C820 H806 0.960 . S
C820 H807 0.960 . S
C820 C819 1.524 . S
C821 C818 1.403 . S
C821 C822 1.392 . S
C821 C825 1.495 . S
C822 C821 1.392 . S
C822 C823 1.385 . S
C822 C824 1.478 . S
C823 H817 0.930 . S
C823 C819 1.400 . S
C823 C822 1.385 . S
C824 C822 1.478 . S
C824 C826 1.381 . S
C824 C830 1.383 . S
C825 C821 1.495 . S
C825 H831 0.959 . S
C825 H832 0.961 . S
C825 H833 0.960 . S
C826 C824 1.381 . S
C826 C827 1.394 1_565 S
C826 H834 0.930 1_565 S
C827 C826 1.394 1_545 S
C827 C828 1.383 . S
C827 H835 0.929 . S
C828 C827 1.383 . S
C828 C829 1.377 1_545 S
C829 H813 0.930 . S
C829 C828 1.377 1_565 S
C829 C830 1.379 . S
C830 H814 0.931 . S
C830 C824 1.383 . S
C830 C829 1.379 . S
H831 C825 0.959 . S
H832 C825 0.961 . S
H833 C825 0.960 . S
H834 C826 0.930 1_545 S
H835 C827 0.929 . S
H836 C844 0.929 . S
H837 C846 0.930 . S
H838 C848 0.930 . S
H839 C851 0.929 . S
H840 C854 0.930 . S
H841 C856 0.960 . S
H842 C856 0.960 . S
H843 C856 0.960 . S
C844 H836 0.929 . S
C844 C845 1.377 . S
C844 C846 1.384 . S
C845 C844 1.377 . S
C845 C851 1.390 . S
C846 H837 0.930 . S
C846 C844 1.384 . S
C846 C847 1.372 . S
C847 C846 1.372 . S
C847 C848 1.400 . S
C847 C852 1.490 . S
C848 H838 0.930 . S
C848 C847 1.400 . S
C848 C851 1.386 . S
H849 C865 0.930 . S
H850 C866 0.931 . S
C851 H839 0.929 . S
C851 C845 1.390 . S
C851 C848 1.386 . S
C852 C847 1.490 . S
C852 C854 1.395 . S
C852 C855 1.403 . S
H853 C859 0.930 . S
C854 H840 0.930 . S
C854 C852 1.395 . S
C854 C857 1.403 . S
C855 C852 1.403 . S
C855 C856 1.524 . S
C855 C859 1.400 . S
C856 H841 0.960 . S
C856 H842 0.960 . S
C856 H843 0.960 . S
C856 C855 1.524 . S
C857 C854 1.403 . S
C857 C858 1.392 . S
C857 C861 1.495 . S
C858 C857 1.392 . S
C858 C859 1.385 . S
C858 C860 1.478 . S
C859 H853 0.930 . S
C859 C855 1.400 . S
C859 C858 1.385 . S
C860 C858 1.478 . S
C860 C862 1.381 . S
C860 C866 1.383 . S
C861 C857 1.495 . S
C861 H867 0.959 . S
C861 H868 0.961 . S
C861 H869 0.960 . S
C862 C860 1.381 . S
C862 C863 1.394 . S
C862 H870 0.930 . S
C863 C862 1.394 . S
C863 C864 1.383 . S
C863 H871 0.929 . S
C864 C863 1.383 . S
C864 C865 1.377 . S
C865 H849 0.930 . S
C865 C864 1.377 . S
C865 C866 1.379 . S
C866 H850 0.931 . S
C866 C860 1.383 . S
C866 C865 1.379 . S
H867 C861 0.959 . S
H868 C861 0.961 . S
H869 C861 0.960 . S
H870 C862 0.930 . S
H871 C863 0.929 . S
H872 C880 0.929 . S
H873 C882 0.930 . S
H874 C884 0.930 . S
H875 C887 0.929 . S
H876 C890 0.930 . S
H877 C892 0.960 . S
H878 C892 0.960 . S
H879 C892 0.960 . S
C880 H872 0.929 . S
C880 C881 1.377 . S
C880 C882 1.384 . S
C881 C880 1.377 . S
C881 C887 1.390 . S
C882 H873 0.930 . S
C882 C880 1.384 . S
C882 C883 1.372 . S
C883 C882 1.372 . S
C883 C884 1.400 . S
C883 C888 1.490 . S
C884 H874 0.930 . S
C884 C883 1.400 . S
C884 C887 1.386 . S
H885 C901 0.930 . S
H886 C902 0.931 . S
C887 H875 0.929 . S
C887 C881 1.390 . S
C887 C884 1.386 . S
C888 C883 1.490 . S
C888 C890 1.395 . S
C888 C891 1.403 . S
H889 C895 0.930 . S
C890 H876 0.930 . S
C890 C888 1.395 . S
C890 C893 1.403 . S
C891 C888 1.403 . S
C891 C892 1.524 . S
C891 C895 1.400 . S
C892 H877 0.960 . S
C892 H878 0.960 . S
C892 H879 0.960 . S
C892 C891 1.524 . S
C893 C890 1.403 . S
C893 C894 1.392 . S
C893 C897 1.495 . S
C894 C893 1.392 . S
C894 C895 1.385 . S
C894 C896 1.478 . S
C895 H889 0.930 . S
C895 C891 1.400 . S
C895 C894 1.385 . S
C896 C894 1.478 . S
C896 C898 1.381 . S
C896 C902 1.383 . S
C897 C893 1.495 . S
C897 H903 0.959 . S
C897 H904 0.961 . S
C897 H905 0.960 . S
C898 C896 1.381 . S
C898 C899 1.394 . S
C898 H906 0.930 . S
C899 C898 1.394 . S
C899 C900 1.383 . S
C899 H907 0.929 . S
C900 C899 1.383 . S
C900 C901 1.377 . S
C901 H885 0.930 . S
C901 C900 1.377 . S
C901 C902 1.379 . S
C902 H886 0.931 . S
C902 C896 1.383 . S
C902 C901 1.379 . S
H903 C897 0.959 . S
H904 C897 0.961 . S
H905 C897 0.960 . S
H906 C898 0.930 . S
H907 C899 0.929 . S
H908 C916 0.929 . S
H909 C918 0.930 . S
H910 C920 0.930 . S
H911 C923 0.929 . S
H912 C926 0.930 . S
H913 C928 0.960 . S
H914 C928 0.960 . S
H915 C928 0.960 . S
C916 H908 0.929 . S
C916 C917 1.377 . S
C916 C918 1.384 . S
C917 C916 1.377 . S
C917 C923 1.390 . S
C918 H909 0.930 . S
C918 C916 1.384 . S
C918 C919 1.372 . S
C919 C918 1.372 . S
C919 C920 1.400 . S
C919 C924 1.490 . S
C920 H910 0.930 . S
C920 C919 1.400 . S
C920 C923 1.386 . S
H921 C937 0.930 . S
H922 C938 0.931 . S
C923 H911 0.929 . S
C923 C917 1.390 . S
C923 C920 1.386 . S
C924 C919 1.490 . S
C924 C926 1.395 . S
C924 C927 1.403 . S
H925 C931 0.930 . S
C926 H912 0.930 . S
C926 C924 1.395 . S
C926 C929 1.403 . S
C927 C924 1.403 . S
C927 C928 1.524 . S
C927 C931 1.400 . S
C928 H913 0.960 . S
C928 H914 0.960 . S
C928 H915 0.960 . S
C928 C927 1.524 . S
C929 C926 1.403 . S
C929 C930 1.392 . S
C929 C933 1.495 . S
C930 C929 1.392 . S
C930 C931 1.385 . S
C930 C932 1.478 . S
C931 H925 0.930 . S
C931 C927 1.400 . S
C931 C930 1.385 . S
C932 C930 1.478 . S
C932 C934 1.381 . S
C932 C938 1.383 . S
C933 C929 1.495 . S
C933 H939 0.959 . S
C933 H940 0.961 . S
C933 H941 0.960 . S
C934 C932 1.381 . S
C934 C935 1.397 . S
C934 H942 0.930 . S
C935 C934 1.397 . S
C935 C936 1.382 1_565 S
C935 H943 0.928 1_565 S
C936 C935 1.382 1_545 S
C936 C937 1.377 . S
C937 H921 0.930 . S
C937 C936 1.377 . S
C937 C938 1.379 1_545 S
C938 H922 0.931 . S
C938 C932 1.383 . S
C938 C937 1.379 1_565 S
H939 C933 0.959 . S
H940 C933 0.961 . S
H941 C933 0.960 . S
H942 C934 0.930 . S
H943 C935 0.928 1_545 S
H944 C952 0.929 . S
H945 C954 0.930 . S
H946 C956 0.930 . S
H947 C959 0.929 . S
H948 C962 0.930 . S
H949 C964 0.960 . S
H950 C964 0.960 . S
H951 C964 0.960 . S
C952 H944 0.929 . S
C952 C953 1.377 . S
C952 C954 1.384 . S
C953 C952 1.377 . S
C953 C959 1.390 . S
C954 H945 0.930 . S
C954 C952 1.384 . S
C954 C955 1.372 . S
C955 C954 1.372 . S
C955 C956 1.400 . S
C955 C960 1.490 . S
C956 H946 0.930 . S
C956 C955 1.400 . S
C956 C959 1.386 . S
H957 C973 0.930 . S
H958 C974 0.931 . S
C959 H947 0.929 . S
C959 C953 1.390 . S
C959 C956 1.386 . S
C960 C955 1.490 . S
C960 C962 1.395 . S
C960 C963 1.403 . S
H961 C967 0.930 . S
C962 H948 0.930 . S
C962 C960 1.395 . S
C962 C965 1.403 . S
C963 C960 1.403 . S
C963 C964 1.524 . S
C963 C967 1.400 . S
C964 H949 0.960 . S
C964 H950 0.960 . S
C964 H951 0.960 . S
C964 C963 1.524 . S
C965 C962 1.403 . S
C965 C966 1.392 . S
C965 C969 1.495 . S
C966 C965 1.392 . S
C966 C967 1.385 . S
C966 C968 1.478 . S
C967 H961 0.930 . S
C967 C963 1.400 . S
C967 C966 1.385 . S
C968 C966 1.478 . S
C968 C970 1.381 . S
C968 C974 1.383 . S
C969 C965 1.495 . S
C969 H975 0.959 . S
C969 H976 0.961 . S
C969 H977 0.960 . S
C970 C968 1.381 . S
C970 C971 1.394 . S
C970 H978 0.930 . S
C971 C970 1.394 . S
C971 C972 1.383 1_545 S
C971 H979 0.929 . S
C972 C971 1.383 1_565 S
C972 C973 1.377 . S
C973 H957 0.930 . S
C973 C972 1.377 . S
C973 C974 1.379 1_565 S
C974 H958 0.931 . S
C974 C968 1.383 . S
C974 C973 1.379 1_545 S
H975 C969 0.959 . S
H976 C969 0.961 . S
H977 C969 0.960 . S
H978 C970 0.930 . S
H979 C971 0.929 . S
H980 C988 0.929 . S
H981 C990 0.930 . S
H982 C992 0.930 . S
H983 C995 0.929 . S
H984 C998 0.930 . S
H985 C1000 0.960 . S
H986 C1000 0.960 . S
H987 C1000 0.960 . S
C988 H980 0.929 . S
C988 C989 1.377 . S
C988 C990 1.384 . S
C989 C988 1.377 . S
C989 C995 1.390 . S
C990 H981 0.930 . S
C990 C988 1.384 . S
C990 C991 1.372 . S
C991 C990 1.372 . S
C991 C992 1.400 . S
C991 C996 1.490 . S
C992 H982 0.930 . S
C992 C991 1.400 . S
C992 C995 1.386 . S
H993 C1009 0.930 . S
H994 C1010 0.931 . S
C995 H983 0.929 . S
C995 C989 1.390 . S
C995 C992 1.386 . S
C996 C991 1.490 . S
C996 C998 1.395 . S
C996 C999 1.403 . S
H997 C1003 0.930 . S
C998 H984 0.930 . S
C998 C996 1.395 . S
C998 C1001 1.403 . S
C999 C996 1.403 . S
C999 C1000 1.524 . S
C999 C1003 1.400 . S
C1000 H985 0.960 . S
C1000 H986 0.960 . S
C1000 H987 0.960 . S
C1000 C999 1.524 . S
C1001 C998 1.403 . S
C1001 C1002 1.392 . S
C1001 C1005 1.495 . S
C1002 C1001 1.392 . S
C1002 C1003 1.385 . S
C1002 C1004 1.478 . S
C1003 H997 0.930 . S
C1003 C999 1.400 . S
C1003 C1002 1.385 . S
C1004 C1002 1.478 . S
C1004 C1006 1.381 . S
C1004 C1010 1.383 . S
C1005 C1001 1.495 . S
C1005 H1011 0.959 . S
C1005 H1012 0.961 . S
C1005 H1013 0.960 . S
C1006 C1004 1.381 . S
C1006 C1007 1.394 . S
C1006 H1014 0.930 . S
C1007 C1006 1.394 . S
C1007 C1008 1.383 . S
C1007 H1015 0.929 . S
C1008 C1007 1.383 . S
C1008 C1009 1.377 . S
C1009 H993 0.930 . S
C1009 C1008 1.377 . S
C1009 C1010 1.379 . S
C1010 H994 0.931 . S
C1010 C1004 1.383 . S
C1010 C1009 1.379 . S
H1011 C1005 0.959 . S
H1012 C1005 0.961 . S
H1013 C1005 0.960 . S
H1014 C1006 0.930 . S
H1015 C1007 0.929 . S
H1016 C1024 0.929 . S
H1017 C1026 0.930 . S
H1018 C1028 0.930 . S
H1019 C1031 0.929 . S
H1020 C1034 0.930 . S
H1021 C1036 0.960 . S
H1022 C1036 0.960 . S
H1023 C1036 0.960 . S
C1024 H1016 0.929 . S
C1024 C1025 1.377 . S
C1024 C1026 1.384 . S
C1025 C1024 1.377 . S
C1025 C1031 1.390 . S
C1026 H1017 0.930 . S
C1026 C1024 1.384 . S
C1026 C1027 1.372 . S
C1027 C1026 1.372 . S
C1027 C1028 1.400 . S
C1027 C1032 1.490 . S
C1028 H1018 0.930 . S
C1028 C1027 1.400 . S
C1028 C1031 1.386 . S
H1029 C1045 0.930 . S
H1030 C1046 0.931 . S
C1031 H1019 0.929 . S
C1031 C1025 1.390 . S
C1031 C1028 1.386 . S
C1032 C1027 1.490 . S
C1032 C1034 1.395 . S
C1032 C1035 1.403 . S
H1033 C1039 0.930 . S
C1034 H1020 0.930 . S
C1034 C1032 1.395 . S
C1034 C1037 1.403 . S
C1035 C1032 1.403 . S
C1035 C1036 1.524 . S
C1035 C1039 1.400 . S
C1036 H1021 0.960 . S
C1036 H1022 0.960 . S
C1036 H1023 0.960 . S
C1036 C1035 1.524 . S
C1037 C1034 1.403 . S
C1037 C1038 1.392 . S
C1037 C1041 1.495 . S
C1038 C1037 1.392 . S
C1038 C1039 1.385 . S
C1038 C1040 1.478 . S
C1039 H1033 0.930 . S
C1039 C1035 1.400 . S
C1039 C1038 1.385 . S
C1040 C1038 1.478 . S
C1040 C1042 1.381 . S
C1040 C1046 1.383 . S
C1041 C1037 1.495 . S
C1041 H1047 0.959 . S
C1041 H1048 0.961 . S
C1041 H1049 0.960 . S
C1042 C1040 1.381 . S
C1042 C1043 1.394 . S
C1042 H1050 0.930 . S
C1043 C1042 1.394 . S
C1043 C1044 1.383 . S
C1043 H1051 0.929 . S
C1044 C1043 1.383 . S
C1044 C1045 1.377 . S
C1045 H1029 0.930 . S
C1045 C1044 1.377 . S
C1045 C1046 1.379 . S
C1046 H1030 0.931 . S
C1046 C1040 1.383 . S
C1046 C1045 1.379 . S
H1047 C1041 0.959 . S
H1048 C1041 0.961 . S
H1049 C1041 0.960 . S
H1050 C1042 0.930 . S
H1051 C1043 0.929 . S
H1052 C1060 0.929 . S
H1053 C1062 0.930 . S
H1054 C1064 0.930 . S
H1055 C1067 0.929 . S
H1056 C1070 0.930 . S
H1057 C1072 0.960 . S
H1058 C1072 0.960 . S
H1059 C1072 0.960 . S
C1060 H1052 0.929 . S
C1060 C1061 1.377 . S
C1060 C1062 1.384 1_565 S
C1061 C1060 1.377 . S
C1061 C1067 1.390 . S
C1062 H1053 0.930 . S
C1062 C1060 1.384 1_545 S
C1062 C1063 1.372 . S
C1063 C1062 1.372 . S
C1063 C1064 1.400 . S
C1063 C1068 1.490 . S
C1064 H1054 0.930 . S
C1064 C1063 1.400 . S
C1064 C1067 1.386 1_545 S
H1065 C1081 0.930 . S
H1066 C1082 0.931 . S
C1067 H1055 0.929 . S
C1067 C1061 1.390 . S
C1067 C1064 1.386 1_565 S
C1068 C1063 1.490 . S
C1068 C1070 1.395 . S
C1068 C1071 1.403 . S
H1069 C1075 0.930 . S
C1070 H1056 0.930 . S
C1070 C1068 1.395 . S
C1070 C1073 1.403 . S
C1071 C1068 1.403 . S
C1071 C1072 1.524 . S
C1071 C1075 1.400 . S
C1072 H1057 0.960 . S
C1072 H1058 0.960 . S
C1072 H1059 0.960 . S
C1072 C1071 1.524 . S
C1073 C1070 1.403 . S
C1073 C1074 1.392 . S
C1073 C1077 1.495 . S
C1074 C1073 1.392 . S
C1074 C1075 1.385 . S
C1074 C1076 1.478 . S
C1075 H1069 0.930 . S
C1075 C1071 1.400 . S
C1075 C1074 1.385 . S
C1076 C1074 1.478 . S
C1076 C1078 1.381 . S
C1076 C1082 1.383 . S
C1077 C1073 1.495 . S
C1077 H1083 0.959 . S
C1077 H1084 0.961 . S
C1077 H1085 0.960 . S
C1078 C1076 1.381 . S
C1078 C1079 1.394 . S
C1078 H1086 0.930 . S
C1079 C1078 1.394 . S
C1079 C1080 1.383 . S
C1079 H1087 0.929 . S
C1080 C1079 1.383 . S
C1080 C1081 1.377 . S
C1081 H1065 0.930 . S
C1081 C1080 1.377 . S
C1081 C1082 1.379 . S
C1082 H1066 0.931 . S
C1082 C1076 1.383 . S
C1082 C1081 1.379 . S
H1083 C1077 0.959 . S
H1084 C1077 0.961 . S
H1085 C1077 0.960 . S
H1086 C1078 0.930 . S
H1087 C1079 0.929 . S
H1088 C1096 0.929 . S
H1089 C1098 0.930 . S
H1090 C1100 0.930 . S
H1091 C1103 0.929 . S
H1092 C1106 0.930 . S
H1093 C1108 0.960 . S
H1094 C1108 0.960 . S
H1095 C1108 0.960 . S
C1096 H1088 0.929 . S
C1096 C1097 1.377 . S
C1096 C1098 1.384 . S
C1097 C1096 1.377 . S
C1097 C1103 1.390 . S
C1098 H1089 0.930 . S
C1098 C1096 1.384 . S
C1098 C1099 1.372 . S
C1099 C1098 1.372 . S
C1099 C1100 1.400 . S
C1099 C1104 1.490 . S
C1100 H1090 0.930 . S
C1100 C1099 1.400 . S
C1100 C1103 1.386 . S
H1101 C1117 0.930 . S
H1102 C1118 0.931 . S
C1103 H1091 0.929 . S
C1103 C1097 1.390 . S
C1103 C1100 1.386 . S
C1104 C1099 1.490 . S
C1104 C1106 1.395 . S
C1104 C1107 1.403 . S
H1105 C1111 0.930 . S
C1106 H1092 0.930 . S
C1106 C1104 1.395 . S
C1106 C1109 1.403 . S
C1107 C1104 1.403 . S
C1107 C1108 1.524 . S
C1107 C1111 1.400 . S
C1108 H1093 0.960 . S
C1108 H1094 0.960 . S
C1108 H1095 0.960 . S
C1108 C1107 1.524 . S
C1109 C1106 1.403 . S
C1109 C1110 1.392 . S
C1109 C1113 1.495 . S
C1110 C1109 1.392 . S
C1110 C1111 1.385 . S
C1110 C1112 1.478 . S
C1111 H1105 0.930 . S
C1111 C1107 1.400 . S
C1111 C1110 1.385 . S
C1112 C1110 1.478 . S
C1112 C1114 1.381 . S
C1112 C1118 1.383 . S
C1113 C1109 1.495 . S
C1113 H1119 0.959 . S
C1113 H1120 0.961 . S
C1113 H1121 0.960 . S
C1114 C1112 1.381 . S
C1114 C1115 1.394 1_565 S
C1114 H1122 0.930 . S
C1115 C1114 1.394 1_545 S
C1115 C1116 1.383 . S
C1115 H1123 0.929 . S
C1116 C1115 1.383 . S
C1116 C1117 1.377 1_545 S
C1117 H1101 0.930 . S
C1117 C1116 1.377 1_565 S
C1117 C1118 1.379 . S
C1118 H1102 0.931 . S
C1118 C1112 1.383 . S
C1118 C1117 1.379 . S
H1119 C1113 0.959 . S
H1120 C1113 0.961 . S
H1121 C1113 0.960 . S
H1122 C1114 0.930 . S
H1123 C1115 0.929 . S
H1124 C1132 0.929 . S
H1125 C1134 0.930 . S
H1126 C1136 0.930 . S
H1127 C1139 0.929 . S
H1128 C1142 0.930 . S
H1129 C1144 0.960 . S
H1130 C1144 0.960 . S
H1131 C1144 0.960 . S
C1132 H1124 0.929 . S
C1132 C1133 1.377 . S
C1132 C1134 1.384 . S
C1133 C1132 1.377 . S
C1133 C1139 1.390 . S
C1134 H1125 0.930 . S
C1134 C1132 1.384 . S
C1134 C1135 1.372 . S
C1135 C1134 1.372 . S
C1135 C1136 1.400 . S
C1135 C1140 1.490 . S
C1136 H1126 0.930 . S
C1136 C1135 1.400 . S
C1136 C1139 1.386 . S
H1137 C1153 0.930 . S
H1138 C1154 0.931 . S
C1139 H1127 0.929 . S
C1139 C1133 1.390 . S
C1139 C1136 1.386 . S
C1140 C1135 1.490 . S
C1140 C1142 1.395 . S
C1140 C1143 1.403 . S
H1141 C1147 0.930 . S
C1142 H1128 0.930 . S
C1142 C1140 1.395 . S
C1142 C1145 1.403 . S
C1143 C1140 1.403 . S
C1143 C1144 1.524 . S
C1143 C1147 1.400 . S
C1144 H1129 0.960 . S
C1144 H1130 0.960 . S
C1144 H1131 0.960 . S
C1144 C1143 1.524 . S
C1145 C1142 1.403 . S
C1145 C1146 1.392 . S
C1145 C1149 1.495 . S
C1146 C1145 1.392 . S
C1146 C1147 1.385 . S
C1146 C1148 1.478 . S
C1147 H1141 0.930 . S
C1147 C1143 1.400 . S
C1147 C1146 1.385 . S
C1148 C1146 1.478 . S
C1148 C1150 1.381 . S
C1148 C1154 1.383 . S
C1149 C1145 1.495 . S
C1149 H1155 0.959 . S
C1149 H1156 0.961 . S
C1149 H1157 0.960 . S
C1150 C1148 1.381 . S
C1150 C1151 1.394 . S
C1150 H1158 0.930 . S
C1151 C1150 1.394 . S
C1151 C1152 1.383 . S
C1151 H1159 0.929 . S
C1152 C1151 1.383 . S
C1152 C1153 1.377 . S
C1153 H1137 0.930 . S
C1153 C1152 1.377 . S
C1153 C1154 1.379 . S
C1154 H1138 0.931 . S
C1154 C1148 1.383 . S
C1154 C1153 1.379 . S
H1155 C1149 0.959 . S
H1156 C1149 0.961 . S
H1157 C1149 0.960 . S
H1158 C1150 0.930 . S
H1159 C1151 0.929 . S
H1160 C1168 0.929 . S
H1161 C1170 0.930 . S
H1162 C1172 0.930 . S
H1163 C1175 0.929 . S
H1164 C1178 0.930 . S
H1165 C1180 0.960 . S
H1166 C1180 0.960 . S
H1167 C1180 0.960 . S
C1168 H1160 0.929 . S
C1168 C1169 1.377 . S
C1168 C1170 1.384 . S
C1169 C1168 1.377 . S
C1169 C1175 1.390 . S
C1170 H1161 0.930 . S
C1170 C1168 1.384 . S
C1170 C1171 1.372 . S
C1171 C1170 1.372 . S
C1171 C1172 1.400 . S
C1171 C1176 1.490 . S
C1172 H1162 0.930 . S
C1172 C1171 1.400 . S
C1172 C1175 1.386 . S
H1173 C1189 0.930 . S
H1174 C1190 0.931 . S
C1175 H1163 0.929 . S
C1175 C1169 1.390 . S
C1175 C1172 1.386 . S
C1176 C1171 1.490 . S
C1176 C1178 1.395 . S
C1176 C1179 1.403 . S
H1177 C1183 0.930 . S
C1178 H1164 0.930 . S
C1178 C1176 1.395 . S
C1178 C1181 1.403 . S
C1179 C1176 1.403 . S
C1179 C1180 1.524 . S
C1179 C1183 1.400 . S
C1180 H1165 0.960 . S
C1180 H1166 0.960 . S
C1180 H1167 0.960 . S
C1180 C1179 1.524 . S
C1181 C1178 1.403 . S
C1181 C1182 1.392 . S
C1181 C1185 1.495 . S
C1182 C1181 1.392 . S
C1182 C1183 1.385 . S
C1182 C1184 1.478 . S
C1183 H1177 0.930 . S
C1183 C1179 1.400 . S
C1183 C1182 1.385 . S
C1184 C1182 1.478 . S
C1184 C1186 1.381 . S
C1184 C1190 1.383 . S
C1185 C1181 1.495 . S
C1185 H1191 0.959 . S
C1185 H1192 0.961 . S
C1185 H1193 0.960 . S
C1186 C1184 1.381 . S
C1186 C1187 1.394 . S
C1186 H1194 0.930 . S
C1187 C1186 1.394 . S
C1187 C1188 1.383 . S
C1187 H1195 0.929 . S
C1188 C1187 1.383 . S
C1188 C1189 1.377 . S
C1189 H1173 0.930 . S
C1189 C1188 1.377 . S
C1189 C1190 1.379 . S
C1190 H1174 0.931 . S
C1190 C1184 1.383 . S
C1190 C1189 1.379 . S
H1191 C1185 0.959 . S
H1192 C1185 0.961 . S
H1193 C1185 0.960 . S
H1194 C1186 0.930 . S
H1195 C1187 0.929 . S
H1196 C1204 0.929 . S
H1197 C1206 0.930 . S
H1198 C1208 0.930 . S
H1199 C1211 0.929 . S
H1200 C1214 0.930 . S
H1201 C1216 0.960 . S
H1202 C1216 0.960 . S
H1203 C1216 0.960 . S
C1204 H1196 0.929 . S
C1204 C1205 1.377 . S
C1204 C1206 1.384 . S
C1205 C1204 1.377 . S
C1205 C1211 1.390 . S
C1206 H1197 0.930 . S
C1206 C1204 1.384 . S
C1206 C1207 1.372 . S
C1207 C1206 1.372 . S
C1207 C1208 1.400 . S
C1207 C1212 1.490 . S
C1208 H1198 0.930 . S
C1208 C1207 1.400 . S
C1208 C1211 1.386 . S
H1209 C1225 0.930 . S
H1210 C1226 0.931 . S
C1211 H1199 0.929 . S
C1211 C1205 1.390 . S
C1211 C1208 1.386 . S
C1212 C1207 1.490 . S
C1212 C1214 1.395 . S
C1212 C1215 1.403 . S
H1213 C1219 0.930 . S
C1214 H1200 0.930 . S
C1214 C1212 1.395 . S
C1214 C1217 1.403 . S
C1215 C1212 1.403 . S
C1215 C1216 1.524 . S
C1215 C1219 1.400 . S
C1216 H1201 0.960 . S
C1216 H1202 0.960 . S
C1216 H1203 0.960 . S
C1216 C1215 1.524 . S
C1217 C1214 1.403 . S
C1217 C1218 1.392 . S
C1217 C1221 1.495 . S
C1218 C1217 1.392 . S
C1218 C1219 1.385 . S
C1218 C1220 1.478 . S
C1219 H1213 0.930 . S
C1219 C1215 1.400 . S
C1219 C1218 1.385 . S
C1220 C1218 1.478 . S
C1220 C1222 1.381 . S
C1220 C1226 1.383 . S
C1221 C1217 1.495 . S
C1221 H1227 0.959 . S
C1221 H1228 0.961 . S
C1221 H1229 0.960 . S
C1222 C1220 1.381 . S
C1222 C1223 1.394 1_565 S
C1222 H1230 0.930 . S
C1223 C1222 1.394 1_545 S
C1223 C1224 1.383 . S
C1223 H1231 0.929 . S
C1224 C1223 1.383 . S
C1224 C1225 1.377 1_545 S
C1225 H1209 0.930 . S
C1225 C1224 1.377 1_565 S
C1225 C1226 1.379 . S
C1226 H1210 0.931 . S
C1226 C1220 1.383 . S
C1226 C1225 1.379 . S
H1227 C1221 0.959 . S
H1228 C1221 0.961 . S
H1229 C1221 0.960 . S
H1230 C1222 0.930 . S
H1231 C1223 0.929 . S
H1232 C1240 0.929 . S
H1233 C1242 0.930 . S
H1234 C1244 0.930 . S
H1235 C1247 0.929 . S
H1236 C1250 0.930 . S
H1237 C1252 0.960 . S
H1238 C1252 0.960 . S
H1239 C1252 0.960 . S
C1240 H1232 0.929 . S
C1240 C1241 1.377 . S
C1240 C1242 1.384 . S
C1241 C1240 1.377 . S
C1241 C1247 1.390 . S
C1242 H1233 0.930 . S
C1242 C1240 1.384 . S
C1242 C1243 1.372 . S
C1243 C1242 1.372 . S
C1243 C1244 1.400 . S
C1243 C1248 1.490 . S
C1244 H1234 0.930 . S
C1244 C1243 1.400 . S
C1244 C1247 1.386 . S
H1245 C1261 0.930 . S
H1246 C1262 0.931 . S
C1247 H1235 0.929 . S
C1247 C1241 1.390 . S
C1247 C1244 1.386 . S
C1248 C1243 1.490 . S
C1248 C1250 1.395 . S
C1248 C1251 1.403 . S
H1249 C1255 0.930 . S
C1250 H1236 0.930 . S
C1250 C1248 1.395 . S
C1250 C1253 1.403 . S
C1251 C1248 1.403 . S
C1251 C1252 1.524 . S
C1251 C1255 1.400 . S
C1252 H1237 0.960 . S
C1252 H1238 0.960 . S
C1252 H1239 0.960 . S
C1252 C1251 1.524 . S
C1253 C1250 1.403 . S
C1253 C1254 1.392 . S
C1253 C1257 1.495 . S
C1254 C1253 1.392 . S
C1254 C1255 1.385 . S
C1254 C1256 1.478 . S
C1255 H1249 0.930 . S
C1255 C1251 1.400 . S
C1255 C1254 1.385 . S
C1256 C1254 1.478 . S
C1256 C1258 1.381 . S
C1256 C1262 1.383 . S
C1257 C1253 1.495 . S
C1257 H1263 0.959 . S
C1257 H1264 0.961 . S
C1257 H1265 0.960 . S
C1258 C1256 1.381 . S
C1258 C1259 1.394 1_545 S
C1258 H1266 0.930 . S
C1259 C1258 1.394 1_565 S
C1259 C1260 1.383 . S
C1259 H1267 0.929 . S
C1260 C1259 1.383 . S
C1260 C1261 1.377 1_565 S
C1261 H1245 0.930 . S
C1261 C1260 1.377 1_545 S
C1261 C1262 1.379 . S
C1262 H1246 0.931 . S
C1262 C1256 1.383 . S
C1262 C1261 1.379 . S
H1263 C1257 0.959 . S
H1264 C1257 0.961 . S
H1265 C1257 0.960 . S
H1266 C1258 0.930 . S
H1267 C1259 0.929 . S
H1268 C1276 0.929 . S
H1269 C1278 0.930 . S
H1270 C1280 0.930 . S
H1271 C1283 0.929 . S
H1272 C1286 0.930 . S
H1273 C1288 0.960 . S
H1274 C1288 0.960 . S
H1275 C1288 0.960 . S
C1276 H1268 0.929 . S
C1276 C1277 1.377 . S
C1276 C1278 1.384 . S
C1277 C1276 1.377 . S
C1277 C1283 1.390 . S
C1278 H1269 0.930 . S
C1278 C1276 1.384 . S
C1278 C1279 1.372 . S
C1279 C1278 1.372 . S
C1279 C1280 1.400 . S
C1279 C1284 1.490 . S
C1280 H1270 0.930 . S
C1280 C1279 1.400 . S
C1280 C1283 1.386 . S
H1281 C1297 0.930 . S
H1282 C1298 0.931 . S
C1283 H1271 0.929 . S
C1283 C1277 1.390 . S
C1283 C1280 1.386 . S
C1284 C1279 1.490 . S
C1284 C1286 1.395 . S
C1284 C1287 1.403 . S
H1285 C1291 0.930 . S
C1286 H1272 0.930 . S
C1286 C1284 1.395 . S
C1286 C1289 1.403 . S
C1287 C1284 1.403 . S
C1287 C1288 1.524 . S
C1287 C1291 1.400 . S
C1288 H1273 0.960 . S
C1288 H1274 0.960 . S
C1288 H1275 0.960 . S
C1288 C1287 1.524 . S
C1289 C1286 1.403 . S
C1289 C1290 1.392 . S
C1289 C1293 1.495 . S
C1290 C1289 1.392 . S
C1290 C1291 1.385 . S
C1290 C1292 1.478 . S
C1291 H1285 0.930 . S
C1291 C1287 1.400 . S
C1291 C1290 1.385 . S
C1292 C1290 1.478 . S
C1292 C1294 1.381 . S
C1292 C1298 1.383 . S
C1293 C1289 1.495 . S
C1293 H1299 0.959 . S
C1293 H1300 0.961 . S
C1293 H1301 0.960 . S
C1294 C1292 1.381 . S
C1294 C1295 1.394 . S
C1294 H1302 0.930 . S
C1295 C1294 1.394 . S
C1295 C1296 1.383 . S
C1295 H1303 0.929 . S
C1296 C1295 1.383 . S
C1296 C1297 1.377 . S
C1297 H1281 0.930 . S
C1297 C1296 1.377 . S
C1297 C1298 1.379 . S
C1298 H1282 0.931 . S
C1298 C1292 1.383 . S
C1298 C1297 1.379 . S
H1299 C1293 0.959 . S
H1300 C1293 0.961 . S
H1301 C1293 0.960 . S
H1302 C1294 0.930 . S
H1303 C1295 0.929 . S
H1304 C1312 0.929 . S
H1305 C1314 0.930 . S
H1306 C1316 0.930 . S
H1307 C1319 0.929 . S
H1308 C1322 0.930 . S
H1309 C1324 0.960 . S
H1310 C1324 0.960 . S
H1311 C1324 0.960 . S
C1312 H1304 0.929 . S
C1312 C1313 1.377 . S
C1312 C1314 1.384 . S
C1313 C1312 1.377 . S
C1313 C1319 1.390 . S
C1314 H1305 0.930 . S
C1314 C1312 1.384 . S
C1314 C1315 1.372 . S
C1315 C1314 1.372 . S
C1315 C1316 1.400 . S
C1315 C1320 1.490 . S
C1316 H1306 0.930 . S
C1316 C1315 1.400 . S
C1316 C1319 1.386 . S
H1317 C1333 0.930 . S
H1318 C1334 0.931 . S
C1319 H1307 0.929 . S
C1319 C1313 1.390 . S
C1319 C1316 1.386 . S
C1320 C1315 1.490 . S
C1320 C1322 1.395 . S
C1320 C1323 1.403 . S
H1321 C1327 0.930 . S
C1322 H1308 0.930 . S
C1322 C1320 1.395 . S
C1322 C1325 1.403 . S
C1323 C1320 1.403 . S
C1323 C1324 1.524 . S
C1323 C1327 1.400 . S
C1324 H1309 0.960 . S
C1324 H1310 0.960 . S
C1324 H1311 0.960 . S
C1324 C1323 1.524 . S
C1325 C1322 1.403 . S
C1325 C1326 1.392 . S
C1325 C1329 1.495 . S
C1326 C1325 1.392 . S
C1326 C1327 1.385 . S
C1326 C1328 1.478 . S
C1327 H1321 0.930 . S
C1327 C1323 1.400 . S
C1327 C1326 1.385 . S
C1328 C1326 1.478 . S
C1328 C1330 1.381 . S
C1328 C1334 1.383 . S
C1329 C1325 1.495 . S
C1329 H1335 0.959 . S
C1329 H1336 0.961 . S
C1329 H1337 0.960 . S
C1330 C1328 1.381 . S
C1330 C1331 1.394 . S
C1330 H1338 0.930 . S
C1331 C1330 1.394 . S
C1331 C1332 1.383 . S
C1331 H1339 0.929 . S
C1332 C1331 1.383 . S
C1332 C1333 1.377 . S
C1333 H1317 0.930 . S
C1333 C1332 1.377 . S
C1333 C1334 1.379 . S
C1334 H1318 0.931 . S
C1334 C1328 1.383 . S
C1334 C1333 1.379 . S
H1335 C1329 0.959 . S
H1336 C1329 0.961 . S
H1337 C1329 0.960 . S
H1338 C1330 0.930 . S
H1339 C1331 0.929 . S
H1340 C1348 0.929 . S
H1341 C1350 0.930 . S
H1342 C1352 0.930 . S
H1343 C1355 0.929 . S
H1344 C1358 0.930 . S
H1345 C1360 0.960 . S
H1346 C1360 0.960 . S
H1347 C1360 0.960 . S
C1348 H1340 0.929 . S
C1348 C1349 1.377 . S
C1348 C1350 1.384 . S
C1349 C1348 1.377 . S
C1349 C1355 1.390 . S
C1350 H1341 0.930 . S
C1350 C1348 1.384 . S
C1350 C1351 1.372 . S
C1351 C1350 1.372 . S
C1351 C1352 1.400 . S
C1351 C1356 1.490 . S
C1352 H1342 0.930 . S
C1352 C1351 1.400 . S
C1352 C1355 1.386 . S
H1353 C1369 0.930 . S
H1354 C1370 0.931 . S
C1355 H1343 0.929 . S
C1355 C1349 1.390 . S
C1355 C1352 1.386 . S
C1356 C1351 1.490 . S
C1356 C1358 1.395 . S
C1356 C1359 1.403 . S
H1357 C1363 0.930 . S
C1358 H1344 0.930 . S
C1358 C1356 1.395 . S
C1358 C1361 1.403 . S
C1359 C1356 1.403 . S
C1359 C1360 1.524 . S
C1359 C1363 1.400 . S
C1360 H1345 0.960 . S
C1360 H1346 0.960 . S
C1360 H1347 0.960 . S
C1360 C1359 1.524 . S
C1361 C1358 1.403 . S
C1361 C1362 1.392 . S
C1361 C1365 1.495 . S
C1362 C1361 1.392 . S
C1362 C1363 1.385 . S
C1362 C1364 1.478 . S
C1363 H1357 0.930 . S
C1363 C1359 1.400 . S
C1363 C1362 1.385 . S
C1364 C1362 1.478 . S
C1364 C1366 1.381 . S
C1364 C1370 1.383 . S
C1365 C1361 1.495 . S
C1365 H1371 0.959 . S
C1365 H1372 0.961 . S
C1365 H1373 0.960 . S
C1366 C1364 1.381 . S
C1366 C1367 1.394 . S
C1366 H1374 0.930 . S
C1367 C1366 1.394 . S
C1367 C1368 1.383 1_545 S
C1367 H1375 0.929 . S
C1368 C1367 1.383 1_565 S
C1368 C1369 1.377 . S
C1369 H1353 0.930 . S
C1369 C1368 1.377 . S
C1369 C1370 1.379 1_565 S
C1370 H1354 0.931 . S
C1370 C1364 1.383 . S
C1370 C1369 1.379 1_545 S
H1371 C1365 0.959 . S
H1372 C1365 0.961 . S
H1373 C1365 0.960 . S
H1374 C1366 0.930 . S
H1375 C1367 0.929 . S
C233 C203 1.486 . S
C252 C7 1.477 . S
C269 C34 1.489 . S
C288 C6 1.466 . S
C305 C160 1.493 . S
C324 C20 1.473 . S
C341 C21 1.490 . S
C360 C105 1.504 . S
C377 C35 1.490 . S
C396 C175 1.503 . S
C413 C132 1.491 . S
C432 C48 1.508 . S
C449 C49 1.494 . S
C468 C77 1.510 . S
C485 C147 1.493 . S
C504 C63 1.510 . S
C521 C62 1.495 . S
C540 C90 1.484 . S
C557 C216 1.489 . S
C576 C76 1.503 . S
C593 C119 1.494 . S
C612 C91 1.510 . S
C629 C188 1.492 . S
C648 C104 1.471 . S
C665 C118 1.495 . S
C684 C146 1.508 . S
C701 C217 1.489 . S
C720 C133 1.500 . S
C737 C161 1.491 . S
C756 C189 1.506 . S
C773 C202 1.491 . S
C792 C174 1.507 . S
C809 C79 1.725 . S
C828 C8 1.708 . S
C845 C9 1.727 . S
C864 C78 1.719 . S
C881 C23 1.727 . S
C900 C64 1.719 . S
C917 C65 1.726 . S
C936 C22 1.729 . S
C953 C107 1.724 . S
C972 C36 1.711 . S
C989 C106 1.726 . S
C1008 C37 1.717 . S
C1025 C92 1.723 . S
C1044 C51 1.718 . S
C1061 C50 1.723 . S
C1080 C93 1.717 . S
C1097 C191 1.723 . S
C1116 C120 1.711 . S
C1133 C121 1.724 . S
C1152 C190 1.733 . S
C1169 C135 1.725 . S
C1188 C176 1.730 . S
C1205 C177 1.727 . S
C1224 C134 1.720 . S
C1241 C219 1.724 . S
C1260 C148 1.730 . S
C1277 C218 1.726 . S
C1296 C149 1.709 . S
C1313 C163 1.727 . S
C1332 C204 1.710 . S
C1349 C205 1.725 . S
C1368 C162 1.709 . S
