# Generated by pormake.
# Topology lcy-e, (6)-cn, num edge types: 1
# Building blocks:
#     Node 0, Type 0, BuildingBlock: CUWYAW_clean_sbu_0, # of connection points: 6
#     Node 1, Type 0, BuildingBlock: CUWYAW_clean_sbu_0, # of connection points: 6
#     Node 2, Type 0, BuildingBlock: CUWYAW_clean_sbu_0, # of connection points: 6
#     Node 3, Type 0, BuildingBlock: CUWYAW_clean_sbu_0, # of connection points: 6
#     Node 4, Type 0, BuildingBlock: CUWYAW_clean_sbu_0, # of connection points: 6
#     Node 5, Type 0, BuildingBlock: CUWYAW_clean_sbu_0, # of connection points: 6
#     Node 6, Type 0, BuildingBlock: CUWYAW_clean_sbu_0, # of connection points: 6
#     Node 7, Type 0, BuildingBlock: CUWYAW_clean_sbu_0, # of connection points: 6
#     Node 8, Type 0, BuildingBlock: CUWYAW_clean_sbu_0, # of connection points: 6
#     Node 9, Type 0, BuildingBlock: CUWYAW_clean_sbu_0, # of connection points: 6
#     Node 10, Type 0, BuildingBlock: CUWYAW_clean_sbu_0, # of connection points: 6
#     Node 11, Type 0, BuildingBlock: CUWYAW_clean_sbu_0, # of connection points: 6
#     Edge 12, Type (0, 0), BuildingBlock: KIFKEQ_clean_linker_1, # of connection points: 2
#     Edge 13, Type (0, 0), BuildingBlock: KIFKEQ_clean_linker_1, # of connection points: 2
#     Edge 14, Type (0, 0), BuildingBlock: KIFKEQ_clean_linker_1, # of connection points: 2
#     Edge 15, Type (0, 0), BuildingBlock: KIFKEQ_clean_linker_1, # of connection points: 2
#     Edge 16, Type (0, 0), BuildingBlock: KIFKEQ_clean_linker_1, # of connection points: 2
#     Edge 17, Type (0, 0), BuildingBlock: KIFKEQ_clean_linker_1, # of connection points: 2
#     Edge 18, Type (0, 0), BuildingBlock: KIFKEQ_clean_linker_1, # of connection points: 2
#     Edge 19, Type (0, 0), BuildingBlock: KIFKEQ_clean_linker_1, # of connection points: 2
#     Edge 20, Type (0, 0), BuildingBlock: KIFKEQ_clean_linker_1, # of connection points: 2
#     Edge 21, Type (0, 0), BuildingBlock: KIFKEQ_clean_linker_1, # of connection points: 2
#     Edge 22, Type (0, 0), BuildingBlock: KIFKEQ_clean_linker_1, # of connection points: 2
#     Edge 23, Type (0, 0), BuildingBlock: KIFKEQ_clean_linker_1, # of connection points: 2
#     Edge 24, Type (0, 0), BuildingBlock: KIFKEQ_clean_linker_1, # of connection points: 2
#     Edge 25, Type (0, 0), BuildingBlock: KIFKEQ_clean_linker_1, # of connection points: 2
#     Edge 26, Type (0, 0), BuildingBlock: KIFKEQ_clean_linker_1, # of connection points: 2
#     Edge 27, Type (0, 0), BuildingBlock: KIFKEQ_clean_linker_1, # of connection points: 2
#     Edge 28, Type (0, 0), BuildingBlock: KIFKEQ_clean_linker_1, # of connection points: 2
#     Edge 29, Type (0, 0), BuildingBlock: KIFKEQ_clean_linker_1, # of connection points: 2
#     Edge 30, Type (0, 0), BuildingBlock: KIFKEQ_clean_linker_1, # of connection points: 2
#     Edge 31, Type (0, 0), BuildingBlock: KIFKEQ_clean_linker_1, # of connection points: 2
#     Edge 32, Type (0, 0), BuildingBlock: KIFKEQ_clean_linker_1, # of connection points: 2
#     Edge 33, Type (0, 0), BuildingBlock: KIFKEQ_clean_linker_1, # of connection points: 2
#     Edge 34, Type (0, 0), BuildingBlock: KIFKEQ_clean_linker_1, # of connection points: 2
#     Edge 35, Type (0, 0), BuildingBlock: KIFKEQ_clean_linker_1, # of connection points: 2
#     Edge 36, Type (0, 0), BuildingBlock: KIFKEQ_clean_linker_1, # of connection points: 2
#     Edge 37, Type (0, 0), BuildingBlock: KIFKEQ_clean_linker_1, # of connection points: 2
#     Edge 38, Type (0, 0), BuildingBlock: KIFKEQ_clean_linker_1, # of connection points: 2
#     Edge 39, Type (0, 0), BuildingBlock: KIFKEQ_clean_linker_1, # of connection points: 2
#     Edge 40, Type (0, 0), BuildingBlock: KIFKEQ_clean_linker_1, # of connection points: 2
#     Edge 41, Type (0, 0), BuildingBlock: KIFKEQ_clean_linker_1, # of connection points: 2
#     Edge 42, Type (0, 0), BuildingBlock: KIFKEQ_clean_linker_1, # of connection points: 2
#     Edge 43, Type (0, 0), BuildingBlock: KIFKEQ_clean_linker_1, # of connection points: 2
#     Edge 44, Type (0, 0), BuildingBlock: KIFKEQ_clean_linker_1, # of connection points: 2
#     Edge 45, Type (0, 0), BuildingBlock: KIFKEQ_clean_linker_1, # of connection points: 2
#     Edge 46, Type (0, 0), BuildingBlock: KIFKEQ_clean_linker_1, # of connection points: 2
#     Edge 47, Type (0, 0), BuildingBlock: KIFKEQ_clean_linker_1, # of connection points: 2
# Relax obj value: 0.182
# Max RMSD: 0.288
# Mean RMSD: 0.269
data_MOF--net-lcy-e--node1-CUWYAW_clean_sbu_0--edge1-KIFKEQ_clean_linker_1
_symmetry_space_group_name_H-M    P1
_symmetry_Int_Tables_number       1
_symmetry_cell_setting            triclinic
loop_
_symmetry_equiv_pos_as_xyz
'x, y, z'
_cell_length_a     42.683264
_cell_length_b     45.818819
_cell_length_c     45.797253
_cell_angle_alpha  90.997075
_cell_angle_beta   90.731907
_cell_angle_gamma 88.409861
loop_
_atom_site_label
_atom_site_type_symbol
_atom_site_fract_x
_atom_site_fract_y
_atom_site_fract_z
_atom_type_partial_charge
C0 C 0.11143 0.32761 0.46796 0.0
Eu1 Eu 0.12111 0.29362 0.51258 0.0
C2 C 0.12805 0.34269 0.44489 0.0
C3 C 0.11274 0.36603 0.43084 0.0
C4 C 0.12598 0.37851 0.40646 0.0
C5 C 0.15485 0.36785 0.39556 0.0
C6 C 0.17087 0.34523 0.41049 0.0
C7 C 0.15751 0.33266 0.43495 0.0
C8 C 0.09186 0.29916 0.56558 0.0
C9 C 0.17806 0.31545 0.55222 0.0
C10 C 0.15199 0.2202 0.60405 0.0
Eu11 Eu 0.14596 0.25411 0.55912 0.0
C12 C 0.13983 0.19175 0.61283 0.0
C13 C 0.14513 0.16616 0.59599 0.0
C14 C 0.13329 0.13956 0.6048 0.0
C15 C 0.11571 0.13803 0.63047 0.0
C16 C 0.11026 0.1637 0.64712 0.0
C17 C 0.12228 0.19023 0.63844 0.0
C18 C 0.18143 0.25206 0.51079 0.0
C19 C 0.08619 0.23387 0.51777 0.0
O20 O 0.11191 0.29911 0.46625 0.0
O21 O 0.11437 0.33748 0.49478 0.0
O22 O 0.07694 0.30112 0.5408 0.0
O23 O 0.12046 0.29598 0.56081 0.0
O24 O 0.16748 0.31361 0.52506 0.0
O25 O 0.16921 0.29649 0.57183 0.0
O26 O 0.13139 0.24183 0.60258 0.0
O27 O 0.17202 0.22014 0.58264 0.0
O28 O 0.19242 0.25062 0.53729 0.0
O29 O 0.15159 0.25304 0.51044 0.0
O30 O 0.10361 0.22911 0.54144 0.0
O31 O 0.09033 0.25664 0.5014 0.0
H32 H 0.09002 0.37407 0.43821 0.0
H33 H 0.11334 0.39627 0.39583 0.0
H34 H 0.1931 0.3365 0.40261 0.0
H35 H 0.16969 0.31458 0.44552 0.0
H36 H 0.15836 0.16664 0.57599 0.0
H37 H 0.13766 0.12022 0.59137 0.0
H38 H 0.09717 0.1632 0.66721 0.0
H39 H 0.1179 0.20962 0.65182 0.0
C40 C 0.10548 0.92328 0.81072 0.0
Eu41 Eu 0.05001 0.91935 0.78665 0.0
C42 C 0.12891 0.90514 0.82666 0.0
C43 C 0.12002 0.88324 0.84571 0.0
C44 C 0.14276 0.86766 0.86192 0.0
C45 C 0.17483 0.87356 0.85927 0.0
C46 C 0.18358 0.89481 0.83934 0.0
C47 C 0.16084 0.91043 0.82326 0.0
C48 C 0.99526 0.9481 0.79922 0.0
C49 C 1.00277 0.87317 0.80706 0.0
C50 C 0.94508 0.8982 0.71283 0.0
Eu51 Eu 0.99591 0.90573 0.74417 0.0
C52 C 0.93489 0.90363 0.68235 0.0
C53 C 0.91375 0.88487 0.66854 0.0
C54 C 0.9021 0.89085 0.64049 0.0
C55 C 0.91116 0.9159 0.62562 0.0
C56 C 0.93316 0.93419 0.63924 0.0
C57 C 0.94495 0.92809 0.66725 0.0
C58 C 0.05096 0.87588 0.73426 0.0
C59 C 0.04239 0.95636 0.72644 0.0
O60 O 0.10097 0.91665 0.78309 0.0
O61 O 0.07941 0.93032 0.82426 0.0
O62 O 0.0164 0.94147 0.81881 0.0
O63 O 1.00561 0.94264 0.77395 0.0
O64 O 0.03283 0.87873 0.80602 0.0
O65 O 0.98269 0.88378 0.78714 0.0
O66 O 0.95004 0.92136 0.72909 0.0
O67 O 0.96631 0.87749 0.71701 0.0
O68 O 0.03298 0.88641 0.71373 0.0
O69 O 0.03877 0.88124 0.75867 0.0
O70 O 0.01491 0.94463 0.7212 0.0
O71 O 0.06029 0.94854 0.74886 0.0
H72 H 0.0955 0.87853 0.84843 0.0
H73 H 0.13521 0.8512 0.87679 0.0
H74 H 0.20794 0.90021 0.83697 0.0
H75 H 0.16819 0.92717 0.8086 0.0
H76 H 0.90582 0.8658 0.67967 0.0
H77 H 0.88576 0.87588 0.63053 0.0
H78 H 0.94055 0.95377 0.6287 0.0
H79 H 0.9614 0.94287 0.67737 0.0
C80 C 0.39243 0.72782 0.94818 0.0
Eu81 Eu 0.39143 0.75519 0.9985 0.0
C82 C 0.37353 0.71455 0.92429 0.0
C83 C 0.3622 0.68616 0.92632 0.0
C84 C 0.34924 0.67213 0.90177 0.0
C85 C 0.34755 0.68606 0.87458 0.0
C86 C 0.35734 0.71503 0.87305 0.0
C87 C 0.37024 0.72905 0.89758 0.0
C88 C 0.42459 0.74642 0.04912 0.0
C89 C 0.33812 0.73462 0.04292 0.0
C90 C 0.37901 0.82131 0.10589 0.0
Eu91 Eu 0.37385 0.79603 0.05487 0.0
C92 C 0.3844 0.85099 0.11727 0.0
C93 C 0.38611 0.87464 0.09833 0.0
C94 C 0.39464 0.90217 0.10908 0.0
C95 C 0.40174 0.90648 0.13894 0.0
C96 C 0.39961 0.88265 0.15779 0.0
C97 C 0.39104 0.85522 0.14703 0.0
C98 C 0.34001 0.81326 1.0069 0.0
C99 C 0.43 0.81366 1.0101 0.0
O100 O 0.391 0.75634 0.95109 0.0
O101 O 0.39514 0.7144 0.97323 0.0
O102 O 0.43668 0.74087 0.02356 0.0
O103 O 0.39641 0.75361 0.04586 0.0
O104 O 0.34757 0.73489 0.01541 0.0
O105 O 0.34687 0.75459 0.06272 0.0
O106 O 0.40273 0.80936 0.09174 0.0
O107 O 0.3518 0.8165 0.09315 0.0
O108 O 0.33757 0.82566 0.03253 0.0
O109 O 0.36052 0.79305 1.0085 0.0
O110 O 0.41657 0.81731 0.03592 0.0
O111 O 0.42195 0.79312 0.99111 0.0
H112 H 0.36441 0.67432 0.94654 0.0
H113 H 0.34145 0.64998 0.90387 0.0
H114 H 0.35678 0.72637 0.85249 0.0
H115 H 0.37905 0.75082 0.8952 0.0
H116 H 0.38145 0.87166 0.07517 0.0
H117 H 0.39569 0.92003 0.09399 0.0
H118 H 0.4054 0.88495 0.18078 0.0
H119 H 0.39038 0.83709 0.16187 0.0
C120 C 0.41997 0.13595 0.32223 0.0
Eu121 Eu 0.46906 0.13643 0.28853 0.0
C122 C 0.39646 0.15259 0.33974 0.0
C123 C 0.38036 0.13785 0.36124 0.0
C124 C 0.35557 0.15162 0.37625 0.0
C125 C 0.34624 0.1806 0.37015 0.0
C126 C 0.36304 0.19568 0.34909 0.0
C127 C 0.38784 0.18175 0.3339 0.0
C128 C 0.52377 0.1043 0.29638 0.0
C129 C 0.51602 0.18673 0.30586 0.0
C130 C 0.57031 0.14508 0.21271 0.0
Eu131 Eu 0.52175 0.14869 0.24694 0.0
C132 C 0.57886 0.13395 0.18312 0.0
C133 C 0.56574 0.14605 0.15753 0.0
C134 C 0.57532 0.13577 0.1299 0.0
C135 C 0.5981 0.11308 0.12724 0.0
C136 C 0.61093 0.10093 0.15292 0.0
C137 C 0.6015 0.11128 0.18043 0.0
C138 C 0.4713 0.18498 0.24037 0.0
C139 C 0.47291 0.09576 0.23182 0.0
O140 O 0.41846 0.13851 0.29386 0.0
O141 O 0.44877 0.13347 0.33218 0.0
O142 O 0.4962 0.09371 0.3 0.0
O143 O 0.52076 0.13076 0.29058 0.0
O144 O 0.48604 0.18046 0.30407 0.0
O145 O 0.53654 0.17343 0.28819 0.0
O146 O 0.56415 0.12549 0.23213 0.0
O147 O 0.55169 0.1682 0.21469 0.0
O148 O 0.50007 0.19233 0.2367 0.0
O149 O 0.46991 0.15781 0.24495 0.0
O150 O 0.49984 0.10809 0.22615 0.0
O151 O 0.45525 0.10467 0.2537 0.0
H152 H 0.38653 0.11531 0.36603 0.0
H153 H 0.34368 0.1395 0.39268 0.0
H154 H 0.35647 0.21798 0.34378 0.0
H155 H 0.39983 0.19351 0.31726 0.0
H156 H 0.54823 0.16357 0.15879 0.0
H157 H 0.5648 0.1455 0.11062 0.0
H158 H 0.62893 0.08383 0.1518 0.0
H159 H 0.61224 0.10174 0.19973 0.0
C160 C 0.64388 0.34415 0.48593 0.0
Eu161 Eu 0.64423 0.29814 0.51901 0.0
C162 C 0.62404 0.36773 0.47256 0.0
C163 C 0.61338 0.36523 0.44347 0.0
C164 C 0.59902 0.38916 0.42944 0.0
C165 C 0.59518 0.41634 0.44404 0.0
C166 C 0.60474 0.41844 0.47351 0.0
C167 C 0.61902 0.39452 0.48753 0.0
C168 C 0.67458 0.24514 0.51087 0.0
C169 C 0.58745 0.2563 0.50419 0.0
C170 C 0.632 0.20501 0.59678 0.0
Eu171 Eu 0.629 0.25008 0.56263 0.0
C172 C 0.64483 0.19673 0.62579 0.0
C173 C 0.63959 0.21413 0.65095 0.0
C174 C 0.65132 0.20515 0.67821 0.0
C175 C 0.6687 0.17872 0.68088 0.0
C176 C 0.6743 0.16168 0.65551 0.0
C177 C 0.66245 0.17057 0.62835 0.0
C178 C 0.59312 0.29887 0.5682 0.0
C179 C 0.68925 0.29265 0.57486 0.0
O180 O 0.6479 0.34504 0.5143 0.0
O181 O 0.64214 0.31741 0.47551 0.0
O182 O 0.68722 0.26971 0.50452 0.0
O183 O 0.64701 0.25015 0.51847 0.0
O184 O 0.59566 0.28391 0.50531 0.0
O185 O 0.60079 0.23701 0.52216 0.0
O186 O 0.65252 0.20965 0.57651 0.0
O187 O 0.60809 0.22358 0.59597 0.0
O188 O 0.58333 0.2728 0.57286 0.0
O189 O 0.62223 0.29852 0.563 0.0
O190 O 0.67313 0.2698 0.58271 0.0
O191 O 0.68163 0.30808 0.55173 0.0
H192 H 0.61707 0.34504 0.43117 0.0
H193 H 0.59153 0.3865 0.4069 0.0
H194 H 0.60261 0.439 0.48543 0.0
H195 H 0.62728 0.39745 0.50982 0.0
H196 H 0.62631 0.23456 0.64962 0.0
H197 H 0.64684 0.21898 0.69721 0.0
H198 H 0.68718 0.14103 0.65673 0.0
H199 H 0.66679 0.15678 0.60928 0.0
C200 C 0.05588 0.36717 0.87869 0.0
Eu201 Eu 0.02964 0.37885 0.82823 0.0
C202 C 0.0736 0.38074 0.90291 0.0
C203 C 0.08947 0.36263 0.92283 0.0
C204 C 0.10498 0.37456 0.94708 0.0
C205 C 0.10506 0.40499 0.95196 0.0
C206 C 0.08928 0.42318 0.93172 0.0
C207 C 0.07369 0.41115 0.90736 0.0
C208 C 0.04038 0.35051 0.77619 0.0
C209 C 0.05345 0.42792 0.78818 0.0
C210 C 0.95413 0.40762 0.73252 0.0
Eu211 Eu 0.98576 0.39641 0.78034 0.0
C212 C 0.92787 0.39353 0.71662 0.0
C213 C 0.89669 0.4025 0.72213 0.0
C214 C 0.87177 0.38889 0.70782 0.0
C215 C 0.87737 0.36612 0.68742 0.0
C216 C 0.90857 0.35737 0.68161 0.0
C217 C 0.93352 0.37093 0.69602 0.0
C218 C 0.97581 0.42585 0.83189 0.0
C219 C 0.9641 0.34465 0.8201 0.0
O220 O 0.02662 0.37587 0.87544 0.0
O221 O 0.0702 0.36325 0.85379 0.0
O222 O 0.06231 0.35791 0.79448 0.0
O223 O 0.014 0.35634 0.78714 0.0
O224 O 0.05381 0.41905 0.81537 0.0
O225 O 0.03105 0.41983 0.76959 0.0
O226 O 0.98129 0.39368 0.73279 0.0
O227 O 0.94761 0.41967 0.75785 0.0
O228 O 0.95387 0.4154 0.81529 0.0
O229 O 1.00214 0.42 0.82071 0.0
O230 O 0.96136 0.35558 0.79368 0.0
O231 O 0.98647 0.35318 0.8382 0.0
H232 H 0.08942 0.33911 0.9199 0.0
H233 H 0.11632 0.35981 0.96239 0.0
H234 H 0.08909 0.44669 0.93462 0.0
H235 H 0.06148 0.42551 0.8922 0.0
H236 H 0.89147 0.42008 0.73759 0.0
H237 H 0.84808 0.39657 0.7124 0.0
H238 H 0.9137 0.33981 0.66612 0.0
H239 H 0.95723 0.36358 0.69107 0.0
C240 C 0.87722 0.68825 0.98402 0.0
Eu241 Eu 0.87645 0.73775 1.01309 0.0
C242 C 0.89628 0.66507 0.96889 0.0
C243 C 0.89502 0.6625 0.93829 0.0
C244 C 0.90792 0.63782 0.92395 0.0
C245 C 0.92216 0.61489 0.93986 0.0
C246 C 0.92482 0.61818 0.97041 0.0
C247 C 0.91199 0.64292 0.98474 0.0
C248 C 0.84075 0.78742 1.00555 0.0
C249 C 0.92811 0.78364 0.99254 0.0
C250 C 0.88301 0.8453 0.07885 0.0
Eu251 Eu 0.89102 0.79435 0.05377 0.0
C252 C 0.87535 0.85622 0.10844 0.0
C253 C 0.87402 0.83711 0.13199 0.0
C254 C 0.86475 0.84751 0.15962 0.0
C255 C 0.85651 0.87723 0.16418 0.0
C256 C 0.85793 0.8962 0.14037 0.0
C257 C 0.86724 0.88578 0.11282 0.0
C258 C 0.92735 0.74744 0.07046 0.0
C259 C 0.83861 0.74704 0.07287 0.0
O260 O 0.87951 0.69035 1.01255 0.0
O261 O 0.87292 0.71364 0.97152 0.0
O262 O 0.82954 0.76153 1.00124 0.0
O263 O 0.86927 0.78506 1.01137 0.0
O264 O 0.9196 0.75596 0.99247 0.0
O265 O 0.91835 0.80308 1.01264 0.0
O266 O 0.86049 0.83134 0.06534 0.0
O267 O 0.91077 0.83265 0.07533 0.0
O268 O 0.92845 0.77311 0.08291 0.0
O269 O 0.90687 0.74845 0.05046 0.0
O270 O 0.84964 0.77374 0.07585 0.0
O271 O 0.84804 0.72842 0.05228 0.0
H272 H 0.8829 0.67902 0.92543 0.0
H273 H 0.90596 0.63637 0.90038 0.0
H274 H 0.93536 0.60095 0.98346 0.0
H275 H 0.91318 0.64398 1.00837 0.0
H276 H 0.87989 0.81411 0.12894 0.0
H277 H 0.86426 0.83231 0.17744 0.0
H278 H 0.85126 0.91907 0.14284 0.0
H279 H 0.86767 0.90077 0.0948 0.0
C280 C 0.59393 0.62591 0.24124 0.0
Eu281 Eu 0.54437 0.63354 0.27354 0.0
C282 C 0.61615 0.64217 0.22391 0.0
C283 C 0.63277 0.62724 0.20186 0.0
C284 C 0.65632 0.64104 0.18691 0.0
C285 C 0.66382 0.67009 0.19376 0.0
C286 C 0.64623 0.68544 0.21515 0.0
C287 C 0.62258 0.67155 0.23018 0.0
C288 C 0.4889 0.60521 0.26674 0.0
C289 C 0.49981 0.68512 0.24923 0.0
C290 C 0.44248 0.6617 0.34438 0.0
Eu291 Eu 0.4916 0.65584 0.31132 0.0
C292 C 0.43244 0.6501 0.37258 0.0
C293 C 0.45115 0.65254 0.39796 0.0
C294 C 0.44106 0.64144 0.4244 0.0
C295 C 0.41224 0.62745 0.42596 0.0
C296 C 0.39376 0.62474 0.40046 0.0
C297 C 0.40373 0.63604 0.37408 0.0
C298 C 0.54199 0.68983 0.31394 0.0
C299 C 0.53629 0.59991 0.33259 0.0
O300 O 0.595 0.63026 0.26952 0.0
O301 O 0.56533 0.62384 0.231 0.0
O302 O 0.51606 0.59177 0.26552 0.0
O303 O 0.49286 0.63195 0.26995 0.0
O304 O 0.52926 0.67577 0.25165 0.0
O305 O 0.47862 0.67686 0.26814 0.0
O306 O 0.44453 0.64284 0.32269 0.0
O307 O 0.46557 0.67992 0.34499 0.0
O308 O 0.5132 0.69958 0.31414 0.0
O309 O 0.54353 0.66206 0.3138 0.0
O310 O 0.50983 0.61538 0.33585 0.0
O311 O 0.55559 0.60488 0.31124 0.0
H312 H 0.62803 0.60461 0.19665 0.0
H313 H 0.66895 0.62879 0.17014 0.0
H314 H 0.65147 0.70781 0.22095 0.0
H315 H 0.60991 0.68346 0.24715 0.0
H316 H 0.47358 0.663 0.39743 0.0
H317 H 0.45595 0.6436 0.44361 0.0
H318 H 0.37129 0.61437 0.40101 0.0
H319 H 0.38893 0.63387 0.3548 0.0
C320 C 0.1634 0.55051 0.17967 0.0
Eu321 Eu 0.21932 0.52651 0.17516 0.0
C322 C 0.13985 0.56655 0.16182 0.0
C323 C 0.14863 0.58511 0.13945 0.0
C324 C 0.12582 0.60152 0.12415 0.0
C325 C 0.09382 0.59956 0.13084 0.0
C326 C 0.08517 0.58013 0.15259 0.0
C327 C 0.10798 0.56384 0.16792 0.0
C328 C 0.27342 0.54075 0.20325 0.0
C329 C 0.2659 0.54654 0.12826 0.0
C330 C 0.32535 0.4532 0.15529 0.0
Eu331 Eu 0.27417 0.48484 0.16281 0.0
C332 C 0.33507 0.42276 0.16203 0.0
C333 C 0.35363 0.40646 0.14231 0.0
C334 C 0.36398 0.37803 0.14895 0.0
C335 C 0.35616 0.3653 0.17562 0.0
C336 C 0.33693 0.38156 0.19505 0.0
C337 C 0.32641 0.40989 0.18828 0.0
C338 C 0.21979 0.47184 0.13426 0.0
C339 C 0.22883 0.46844 0.21512 0.0
O340 O 0.16843 0.52292 0.17288 0.0
O341 O 0.18919 0.56402 0.18647 0.0
O342 O 0.25224 0.55992 0.19523 0.0
O343 O 0.26364 0.5153 0.19904 0.0
O344 O 0.23582 0.54505 0.13378 0.0
O345 O 0.28641 0.52729 0.13953 0.0
O346 O 0.32066 0.47069 0.17773 0.0
O347 O 0.304 0.45679 0.13483 0.0
O348 O 0.23827 0.45278 0.14673 0.0
O349 O 0.23075 0.49695 0.13765 0.0
O350 O 0.25654 0.46327 0.20328 0.0
O351 O 0.21007 0.48998 0.20621 0.0
H352 H 0.1731 0.58731 0.13416 0.0
H353 H 0.13328 0.616 0.10729 0.0
H354 H 0.06086 0.57831 0.15859 0.0
H355 H 0.10073 0.54958 0.18506 0.0
H356 H 0.36037 0.41582 0.12183 0.0
H357 H 0.37818 0.36605 0.13313 0.0
H358 H 0.33065 0.37276 0.2159 0.0
H359 H 0.31189 0.42189 0.20385 0.0
C360 C 0.67301 0.98502 0.89332 0.0
Eu361 Eu 0.72361 0.01543 0.89884 0.0
C362 C 0.65073 0.96884 0.91095 0.0
C363 C 0.61879 0.97689 0.90964 0.0
C364 C 0.59678 0.9613 0.92488 0.0
C365 C 0.60619 0.93718 0.94175 0.0
C366 C 0.63831 0.92939 0.94342 0.0
C367 C 0.66038 0.94506 0.92816 0.0
C368 C 0.77851 1.00682 0.8691 0.0
C369 C 0.76795 0.99004 0.95004 0.0
C370 C 0.82786 0.08294 0.92294 0.0
Eu371 Eu 0.77795 0.05137 0.91975 0.0
C372 C 0.83791 0.11083 0.91068 0.0
C373 C 0.81907 0.13645 0.91269 0.0
C374 C 0.82923 0.16261 0.90113 0.0
C375 C 0.85829 0.16368 0.88706 0.0
C376 C 0.87684 0.13789 0.8847 0.0
C377 C 0.86678 0.1118 0.89645 0.0
C378 C 0.72796 0.05617 0.95491 0.0
C379 C 0.73189 0.07453 0.86572 0.0
O380 O 0.67269 0.01337 0.89709 0.0
O381 O 0.70132 0.97387 0.88991 0.0
O382 O 0.75118 1.00663 0.85628 0.0
O383 O 0.77497 1.01007 0.89597 0.0
O384 O 0.73862 0.99359 0.94092 0.0
O385 O 0.7898 1.00805 0.94153 0.0
O386 O 0.82463 0.06125 0.90431 0.0
O387 O 0.8056 0.08429 0.94235 0.0
O388 O 0.75686 0.05589 0.96401 0.0
O389 O 0.72624 0.05567 0.92716 0.0
O390 O 0.75888 0.07671 0.88013 0.0
O391 O 0.71235 0.05371 0.8711 0.0
H392 H 0.61075 0.99502 0.89636 0.0
H393 H 0.57224 0.96763 0.92267 0.0
H394 H 0.64638 0.91108 0.95642 0.0
H395 H 0.68484 0.93831 0.92955 0.0
H396 H 0.7965 0.13632 0.92323 0.0
H397 H 0.81422 0.18198 0.90302 0.0
H398 H 0.89948 0.13799 0.8743 0.0
H399 H 0.88167 0.09233 0.89455 0.0
C400 C 0.83951 0.05686 0.39968 0.0
Eu401 Eu 0.79111 0.02304 0.39887 0.0
C402 C 0.86103 0.07472 0.4178 0.0
C403 C 0.86662 0.10335 0.40928 0.0
C404 C 0.89019 0.11947 0.42289 0.0
C405 C 0.90888 0.10735 0.44539 0.0
C406 C 0.9023 0.07915 0.45492 0.0
C407 C 0.87871 0.06292 0.44116 0.0
C408 C 0.73664 0.03186 0.36722 0.0
C409 C 0.74388 0.04111 0.44941 0.0
C410 C 0.69041 0.94824 0.40754 0.0
Eu411 Eu 0.73857 0.98223 0.41128 0.0
C412 C 0.68265 0.91859 0.39636 0.0
C413 C 0.69409 0.89305 0.40998 0.0
C414 C 0.68535 0.8654 0.39956 0.0
C415 C 0.66506 0.86262 0.37524 0.0
C416 C 0.65385 0.88823 0.36161 0.0
C417 C 0.66244 0.91579 0.37208 0.0
C418 C 0.78863 0.97456 0.44724 0.0
C419 C 0.78777 0.96715 0.35746 0.0
O420 O 0.84155 0.02845 0.40196 0.0
O421 O 0.81071 0.06658 0.39557 0.0
O422 O 0.7643 0.03501 0.35638 0.0
O423 O 0.73944 0.02594 0.39365 0.0
O424 O 0.7739 0.03842 0.44313 0.0
O425 O 0.72342 0.02373 0.43626 0.0
O426 O 0.69672 0.96767 0.38801 0.0
O427 O 0.70845 0.95027 0.43078 0.0
O428 O 0.75977 0.97134 0.4547 0.0
O429 O 0.79038 0.97938 0.42008 0.0
O430 O 0.76083 0.96172 0.37012 0.0
O431 O 0.80546 0.98861 0.3665 0.0
H432 H 0.85345 0.11294 0.39129 0.0
H433 H 0.89423 0.1413 0.41533 0.0
H434 H 0.9163 0.06914 0.47212 0.0
H435 H 0.87511 0.04082 0.44813 0.0
H436 H 0.70964 0.89436 0.42879 0.0
H437 H 0.69461 0.84618 0.41049 0.0
H438 H 0.63773 0.88706 0.3432 0.0
H439 H 0.65294 0.93503 0.36132 0.0
C440 C 0.21495 0.61393 0.65004 0.0
Eu441 Eu 0.25066 0.56689 0.65017 0.0
C442 C 0.20238 0.63894 0.66765 0.0
C443 C 0.17005 0.64145 0.67287 0.0
C444 C 0.1569 0.66723 0.68483 0.0
C445 C 0.17578 0.69118 0.69152 0.0
C446 C 0.20831 0.68819 0.68753 0.0
C447 C 0.2215 0.66234 0.67579 0.0
C448 C 0.2432 0.51508 0.6209 0.0
C449 C 0.23963 0.52434 0.70432 0.0
C450 C 0.33062 0.46442 0.65791 0.0
Eu451 Eu 0.30068 0.51428 0.66334 0.0
C452 C 0.36177 0.45315 0.64907 0.0
C453 C 0.38934 0.46812 0.65576 0.0
C454 C 0.41822 0.45783 0.64479 0.0
C455 C 0.41977 0.43278 0.6266 0.0
C456 C 0.39212 0.41777 0.62038 0.0
C457 C 0.36349 0.42782 0.63154 0.0
C458 C 0.31648 0.56404 0.69298 0.0
C459 C 0.31221 0.55996 0.61049 0.0
O460 O 0.2449 0.61351 0.64406 0.0
O461 O 0.20414 0.58785 0.65442 0.0
O462 O 0.23451 0.54003 0.60987 0.0
O463 O 0.25258 0.51917 0.64652 0.0
O464 O 0.23702 0.5515 0.6948 0.0
O465 O 0.26055 0.50503 0.69363 0.0
O466 O 0.31382 0.47631 0.63688 0.0
O467 O 0.3283 0.47874 0.68296 0.0
O468 O 0.33281 0.5397 0.69411 0.0
O469 O 0.29404 0.56045 0.67538 0.0
O470 O 0.31825 0.53382 0.62152 0.0
O471 O 0.28985 0.57783 0.62047 0.0
H472 H 0.1547 0.62395 0.66649 0.0
H473 H 0.13173 0.66894 0.68742 0.0
H474 H 0.2235 0.70613 0.69282 0.0
H475 H 0.2465 0.66122 0.67204 0.0
H476 H 0.38846 0.48795 0.66898 0.0
H477 H 0.43916 0.46982 0.6499 0.0
H478 H 0.39264 0.39812 0.60686 0.0
H479 H 0.34247 0.41606 0.62601 0.0
H480 H 0.20502 0.35594 0.5179 0.0
H481 H 0.18604 0.33652 0.6078 0.0
H482 H 0.22382 0.40379 0.53297 0.0
H483 H 0.20343 0.3845 0.62274 0.0
H484 H 0.25548 0.46362 0.64719 0.0
H485 H 0.24555 0.4148 0.62932 0.0
H486 H 0.20494 0.45033 0.55011 0.0
H487 H 0.21721 0.49972 0.56751 0.0
C488 C 0.20521 0.36175 0.54093 0.0
C489 C 0.19417 0.34232 0.56167 0.0
C490 C 0.21563 0.38936 0.54954 0.0
C491 C 0.21502 0.3983 0.57908 0.0
C492 C 0.20485 0.37839 0.59984 0.0
C493 C 0.19481 0.35072 0.59128 0.0
C494 C 0.24508 0.4611 0.62564 0.0
C495 C 0.2375 0.48557 0.60859 0.0
C496 C 0.2389 0.43297 0.61554 0.0
C497 C 0.22406 0.42839 0.58836 0.0
C498 C 0.21674 0.4529 0.57102 0.0
C499 C 0.22352 0.48124 0.58102 0.0
H500 H 0.79377 0.99608 0.81114 0.0
H501 H 0.8339 1.00184 0.89798 0.0
H502 H 0.84624 0.98427 0.79166 0.0
H503 H 0.8854 0.99024 0.87891 0.0
H504 H 0.97924 0.99309 0.83602 0.0
H505 H 0.92652 1.00998 0.85004 0.0
H506 H 0.88662 0.94395 0.79353 0.0
H507 H 0.9393 0.92702 0.78027 0.0
C508 C 0.8137 0.99498 0.82599 0.0
C509 C 0.80965 1.00014 0.85605 0.0
C510 C 0.84372 0.98816 0.81491 0.0
C511 C 0.87019 0.98661 0.83368 0.0
C512 C 0.86585 0.99187 0.86366 0.0
C513 C 0.83611 0.99842 0.87464 0.0
C514 C 0.95913 0.98255 0.82631 0.0
C515 C 0.96333 0.95948 0.8061 0.0
C516 C 0.92892 0.99211 0.83438 0.0
C517 C 0.90217 0.97849 0.82272 0.0
C518 C 0.90652 0.95552 0.80231 0.0
C519 C 0.93676 0.94601 0.79432 0.0
H520 H 0.33831 0.68115 0.01561 0.0
H521 H 0.30634 0.72634 0.09382 0.0
H522 H 0.32187 0.63493 0.03527 0.0
H523 H 0.28907 0.67988 0.11302 0.0
H524 H 0.23071 0.59526 0.1161 0.0
H525 H 0.24707 0.64044 0.09493 0.0
H526 H 0.34029 0.60368 0.08353 0.0
H527 H 0.32417 0.55796 0.10576 0.0
C528 C 0.32718 0.6814 0.03674 0.0
C529 C 0.32342 0.70763 0.05306 0.0
C530 C 0.31816 0.65479 0.04809 0.0
C531 C 0.30453 0.65383 0.07572 0.0
C532 C 0.29963 0.68007 0.09164 0.0
C533 C 0.30933 0.70666 0.08059 0.0
C534 C 0.25472 0.59644 0.10895 0.0
C535 C 0.27614 0.57274 0.1126 0.0
C536 C 0.26405 0.62255 0.09698 0.0
C537 C 0.2949 0.6256 0.08777 0.0
C538 C 0.31628 0.60179 0.09048 0.0
C539 C 0.30708 0.57566 0.10314 0.0
H540 H 0.53682 0.04947 0.31848 0.0
H541 H 0.58104 0.12732 0.2897 0.0
H542 H 0.58853 0.02864 0.33217 0.0
H543 H 0.63216 0.10671 0.30304 0.0
H544 H 0.72394 0.05428 0.31254 0.0
H545 H 0.6723 0.0684 0.29205 0.0
H546 H 0.62818 0.03926 0.37028 0.0
H547 H 0.67921 0.02549 0.39053 0.0
C548 C 0.55752 0.06196 0.31476 0.0
C549 C 0.55475 0.09002 0.30297 0.0
C550 C 0.58715 0.05012 0.32266 0.0
C551 C 0.61464 0.06597 0.31864 0.0
C552 C 0.61172 0.09365 0.30605 0.0
C553 C 0.58225 0.10553 0.29851 0.0
C554 C 0.70314 0.05066 0.32514 0.0
C555 C 0.70575 0.03875 0.35314 0.0
C556 C 0.67356 0.05881 0.31349 0.0
C557 C 0.64595 0.05491 0.32949 0.0
C558 C 0.64872 0.04219 0.35711 0.0
C559 C 0.67814 0.03441 0.36879 0.0
H560 H 0.64458 0.19503 0.51999 0.0
H561 H 0.73174 0.22682 0.48791 0.0
H562 H 0.66167 0.14535 0.50944 0.0
H563 H 0.74876 0.17629 0.47613 0.0
H564 H 0.77965 0.08004 0.47998 0.0
H565 H 0.76431 0.12917 0.49656 0.0
H566 H 0.66915 0.11416 0.46805 0.0
H567 H 0.68436 0.06492 0.45197 0.0
C568 C 0.66757 0.19144 0.51071 0.0
C569 C 0.68685 0.21502 0.50488 0.0
C570 C 0.67725 0.16277 0.50437 0.0
C571 C 0.70647 0.15664 0.49164 0.0
C572 C 0.72617 0.18017 0.48617 0.0
C573 C 0.71643 0.20913 0.49274 0.0
C574 C 0.75529 0.087 0.47777 0.0
C575 C 0.7332 0.0684 0.4647 0.0
C576 C 0.74661 0.11536 0.48696 0.0
C577 C 0.71559 0.12588 0.48339 0.0
C578 C 0.69322 0.10681 0.47145 0.0
C579 C 0.7019 0.07843 0.4623 0.0
H580 H 0.10866 0.4368 0.81695 0.0
H581 H 0.05848 0.45839 0.73727 0.0
H582 H 0.15414 0.46222 0.79996 0.0
H583 H 0.10423 0.48437 0.72052 0.0
H584 H 0.18285 0.55113 0.71505 0.0
H585 H 0.13723 0.52977 0.73692 0.0
H586 H 0.19219 0.45196 0.7565 0.0
H587 H 0.23796 0.47299 0.73411 0.0
C588 C 0.10712 0.44728 0.79594 0.0
C589 C 0.07985 0.44555 0.77843 0.0
C590 C 0.13331 0.46171 0.78621 0.0
C591 C 0.13271 0.47519 0.75897 0.0
C592 C 0.10519 0.47428 0.74175 0.0
C593 C 0.07907 0.45937 0.75127 0.0
C594 C 0.18553 0.52969 0.72452 0.0
C595 C 0.21416 0.51374 0.72278 0.0
C596 C 0.15923 0.51739 0.73676 0.0
C597 C 0.16113 0.48915 0.74807 0.0
C598 C 0.19013 0.47382 0.74792 0.0
C599 C 0.21634 0.48589 0.73517 0.0
H600 H 0.82602 0.97171 0.9702 0.0
H601 H 0.72989 0.94516 0.96311 0.0
H602 H 0.84152 0.92297 0.98634 0.0
H603 H 0.74552 0.89611 0.97734 0.0
H604 H 0.78249 0.81099 0.01935 0.0
H605 H 0.76402 0.86154 1.01115 0.0
H606 H 0.84907 0.8775 0.96429 0.0
H607 H 0.86763 0.82815 0.97379 0.0
C608 C 0.80814 0.95559 0.97231 0.0
C609 C 0.7768 0.96235 0.96491 0.0
C610 C 0.81705 0.92741 0.98119 0.0
C611 C 0.79496 0.90509 0.98239 0.0
C612 C 0.7633 0.91247 0.97676 0.0
C613 C 0.75434 0.94075 0.96836 0.0
C614 C 0.79682 0.82538 1.00698 0.0
C615 C 0.82634 0.81574 0.99709 0.0
C616 C 0.78642 0.85438 1.00236 0.0
C617 C 0.80528 0.87405 0.98749 0.0
C618 C 0.83426 0.86363 0.9767 0.0
C619 C 0.84473 0.83507 0.98173 0.0
H620 H 0.43374 0.63546 0.26371 0.0
H621 H 0.4732 0.54819 0.25338 0.0
H622 H 0.38235 0.61823 0.25058 0.0
H623 H 0.42084 0.53052 0.24025 0.0
H624 H 0.33005 0.52244 0.18211 0.0
H625 H 0.38214 0.53467 0.20014 0.0
H626 H 0.33988 0.58992 0.26704 0.0
H627 H 0.28773 0.57706 0.24887 0.0
C628 C 0.43139 0.61239 0.259 0.0
C629 C 0.45766 0.59317 0.25976 0.0
C630 C 0.4017 0.60246 0.25158 0.0
C631 C 0.3972 0.57292 0.24455 0.0
C632 C 0.42346 0.55348 0.24541 0.0
C633 C 0.45342 0.56351 0.25303 0.0
C634 C 0.33194 0.53615 0.20137 0.0
C635 C 0.3049 0.54789 0.21474 0.0
C636 C 0.36184 0.54348 0.21157 0.0
C637 C 0.3654 0.5631 0.23526 0.0
C638 C 0.33814 0.57486 0.24864 0.0
C639 C 0.30824 0.5675 0.23834 0.0
H640 H 0.48187 0.22362 0.34142 0.0
H641 H 0.57418 0.1839 0.33152 0.0
H642 H 0.49629 0.2408 0.39047 0.0
H643 H 0.58848 0.20101 0.3806 0.0
H644 H 0.58789 0.20121 0.4803 0.0
H645 H 0.57058 0.1871 0.43118 0.0
H646 H 0.53342 0.27445 0.41763 0.0
H647 H 0.55082 0.28871 0.46677 0.0
C648 C 0.50545 0.2191 0.34946 0.0
C649 C 0.52689 0.20242 0.33253 0.0
C650 C 0.51365 0.22887 0.37759 0.0
C651 C 0.54331 0.2218 0.38957 0.0
C652 C 0.56524 0.20633 0.37213 0.0
C653 C 0.5572 0.19691 0.34384 0.0
C654 C 0.57533 0.21725 0.46718 0.0
C655 C 0.57071 0.2461 0.47751 0.0
C656 C 0.56585 0.20926 0.43885 0.0
C657 C 0.55117 0.22982 0.42037 0.0
C658 C 0.54477 0.25816 0.43133 0.0
C659 C 0.55462 0.26627 0.45952 0.0
H660 H 0.03755 0.28411 0.5931 0.0
H661 H 0.12039 0.33504 0.60402 0.0
H662 H 0.02375 0.29467 0.64423 0.0
H663 H 0.10608 0.34714 0.65385 0.0
H664 H 0.09644 0.34028 0.7499 0.0
H665 H 0.10644 0.3273 0.69922 0.0
H666 H 1.00667 0.32686 0.68158 0.0
H667 H 0.99691 0.33771 0.73323 0.0
C668 C 0.05235 0.29812 0.60625 0.0
C669 C 0.08007 0.30864 0.59466 0.0
C670 C 0.04452 0.30423 0.6356 0.0
C671 C 0.06409 0.32134 0.65377 0.0
C672 C 0.09091 0.33299 0.64129 0.0
C673 C 0.09897 0.32639 0.61242 0.0
C674 C 0.07662 0.33717 0.73527 0.0
C675 C 0.04589 0.34063 0.74551 0.0
C676 C 0.08231 0.33007 0.70593 0.0
C677 C 0.05742 0.32676 0.68565 0.0
C678 C 0.02655 0.32923 0.69624 0.0
C679 C 0.02089 0.33581 0.72586 0.0
H680 H 0.94517 0.84895 0.81692 0.0
H681 H 0.03623 0.86233 0.85665 0.0
H682 H 0.92837 0.82564 0.86199 0.0
H683 H 0.01924 0.83995 0.90108 0.0
H684 H 0.95826 0.8351 0.98554 0.0
H685 H 0.97588 0.85553 0.93969 0.0
H686 H 0.94718 0.77802 0.89297 0.0
H687 H 0.93022 0.75719 0.93865 0.0
C688 C 0.96158 0.8468 0.83503 0.0
C689 C 0.99205 0.85739 0.83301 0.0
C690 C 0.95201 0.83349 0.86076 0.0
C691 C 0.97253 0.83121 0.885 0.0
C692 C 1.00291 0.84163 0.88284 0.0
C693 C 0.01262 0.8543 0.85717 0.0
C694 C 0.95623 0.82219 0.9656 0.0
C695 C 0.94313 0.7944 0.9659 0.0
C696 C 0.96613 0.83395 0.93936 0.0
C697 C 0.96251 0.81844 0.9128 0.0
C698 C 0.94987 0.79053 0.91309 0.0
C699 C 0.94059 0.77851 0.93938 0.0
H700 H 0.53627 0.71107 0.20872 0.0
H701 H 0.44057 0.68991 0.22683 0.0
H702 H 0.52013 0.72811 0.16038 0.0
H703 H 0.42473 0.70538 0.17848 0.0
H704 H 0.39601 0.75438 0.1008 0.0
H705 H 0.41573 0.74482 0.14916 0.0
H706 H 0.5032 0.71202 0.11298 0.0
H707 H 0.48385 0.72432 0.06375 0.0
C708 C 0.51173 0.71035 0.2025 0.0
C709 C 0.48964 0.69943 0.22178 0.0
C710 C 0.50254 0.71977 0.17462 0.0
C711 C 0.47109 0.7182 0.16527 0.0
C712 C 0.44904 0.70768 0.18491 0.0
C713 C 0.45812 0.69872 0.21282 0.0
C714 C 0.41978 0.74583 0.10298 0.0
C715 C 0.43852 0.74057 0.07833 0.0
C716 C 0.43096 0.73978 0.13093 0.0
C717 C 0.46094 0.72711 0.13526 0.0
C718 C 0.48006 0.72203 0.11061 0.0
C719 C 0.46897 0.72884 0.08236 0.0
H720 H 0.21535 0.38242 0.38316 0.0
H721 H 0.12229 0.37937 0.34536 0.0
H722 H 0.23425 0.4044 0.33851 0.0
H723 H 0.14105 0.40086 0.30093 0.0
H724 H 0.17382 0.47406 0.24447 0.0
H725 H 0.15767 0.44808 0.28705 0.0
H726 H 0.24434 0.39712 0.28597 0.0
H727 H 0.26107 0.42385 0.24324 0.0
C728 C 0.19903 0.38614 0.36522 0.0
C729 C 0.16721 0.37962 0.368 0.0
C730 C 0.20986 0.39864 0.33961 0.0
C731 C 0.18909 0.40476 0.31623 0.0
C732 C 0.15756 0.39715 0.31872 0.0
C733 C 0.14677 0.38483 0.34424 0.0
C734 C 0.18952 0.45725 0.25308 0.0
C735 C 0.21879 0.45108 0.24029 0.0
C736 C 0.1801 0.44217 0.27752 0.0
C737 C 0.19958 0.42033 0.28991 0.0
C738 C 0.22886 0.41397 0.27711 0.0
C739 C 0.23835 0.42915 0.25251 0.0
H740 H 0.85027 0.90931 0.60795 0.0
H741 H 0.93866 0.94044 0.57783 0.0
H742 H 0.82593 0.92164 0.56151 0.0
H743 H 0.91385 0.95328 0.53107 0.0
H744 H 0.83988 1.00318 0.46829 0.0
H745 H 0.87326 0.98798 0.50983 0.0
H746 H 0.8268 0.90542 0.51074 0.0
H747 H 0.79343 0.92095 0.47003 0.0
C748 C 0.86472 0.91837 0.59129 0.0
C749 C 0.89662 0.92348 0.59672 0.0
C750 C 0.85068 0.92553 0.56455 0.0
C751 C 0.868 0.93812 0.54232 0.0
C752 C 0.89982 0.94367 0.54773 0.0
C753 C 0.91399 0.93634 0.57458 0.0
C754 C 0.83776 0.98143 0.47681 0.0
C755 C 0.81435 0.96312 0.46595 0.0
C756 C 0.85667 0.97276 0.50068 0.0
C757 C 0.85226 0.94568 0.51402 0.0
C758 C 0.83035 0.92666 0.5015 0.0
C759 C 0.81148 0.93538 0.47794 0.0
H760 H 0.3693 0.57679 0.72238 0.0
H761 H 0.27237 0.60465 0.71269 0.0
H762 H 0.37472 0.60849 0.76511 0.0
H763 H 0.27755 0.63628 0.75639 0.0
H764 H 0.3125 0.70517 0.82714 0.0
H765 H 0.30413 0.67933 0.78048 0.0
H766 H 0.35437 0.60383 0.81423 0.0
H767 H 0.36366 0.62969 0.86002 0.0
C768 C 0.34924 0.59013 0.72919 0.0
C769 C 0.32038 0.5881 0.71444 0.0
C770 C 0.35225 0.60808 0.75387 0.0
C771 C 0.32634 0.62427 0.76467 0.0
C772 C 0.2979 0.62393 0.74869 0.0
C773 C 0.29494 0.60594 0.72366 0.0
C774 C 0.3217 0.68303 0.82456 0.0
C775 C 0.33888 0.66959 0.84739 0.0
C776 C 0.31671 0.66819 0.7979 0.0
C777 C 0.32903 0.63971 0.79346 0.0
C778 C 0.34511 0.62598 0.81668 0.0
C779 C 0.35003 0.6407 0.8432 0.0
H780 H 0.61089 0.05675 0.10909 0.0
H781 H 0.61108 0.14558 0.0791 0.0
H782 H 0.63574 0.04004 0.06394 0.0
H783 H 0.63594 0.12877 0.0338 0.0
H784 H 0.67132 0.08637 0.94813 0.0
H785 H 0.63349 0.09845 0.9871 0.0
H786 H 0.68922 0.04648 0.04725 0.0
H787 H 0.7264 0.03481 1.00887 0.0
C788 C 0.61604 0.07273 0.09279 0.0
C789 C 0.60944 0.10259 0.09803 0.0
C790 C 0.63019 0.06312 0.06683 0.0
C791 C 0.63817 0.08309 0.04534 0.0
C792 C 0.62988 0.11276 0.04975 0.0
C793 C 0.61568 0.12241 0.0758 0.0
C794 C 0.67488 0.07707 0.96954 0.0
C795 C 0.70175 0.05972 0.97558 0.0
C796 C 0.65346 0.08416 0.99189 0.0
C797 C 0.65833 0.07347 0.02035 0.0
C798 C 0.68442 0.05484 0.02562 0.0
C799 C 0.70587 0.04824 1.00362 0.0
H800 H 0.63738 0.18116 0.73279 0.0
H801 H 0.72537 0.15233 0.69506 0.0
H802 H 0.65392 0.16073 0.7795 0.0
H803 H 0.74155 0.1311 0.74162 0.0
H804 H 0.76997 0.11164 0.83641 0.0
H805 H 0.75608 0.14075 0.79342 0.0
H806 H 0.66098 0.1114 0.79734 0.0
H807 H 0.67457 0.08289 0.84 0.0
C808 C 0.66043 0.1708 0.73452 0.0
C809 C 0.67992 0.16825 0.71003 0.0
C810 C 0.66981 0.15882 0.76127 0.0
C811 C 0.69899 0.14403 0.76433 0.0
C812 C 0.71902 0.14248 0.74016 0.0
C813 C 0.70957 0.15436 0.71334 0.0
C814 C 0.74601 0.11179 0.82831 0.0
C815 C 0.72345 0.0948 0.84164 0.0
C816 C 0.7381 0.12829 0.80355 0.0
C817 C 0.70739 0.12841 0.79184 0.0
C818 C 0.68473 0.11218 0.80587 0.0
C819 C 0.69264 0.0956 0.83032 0.0
H820 H 0.20304 0.41719 0.11763 0.0
H821 H 0.18835 0.5079 0.09588 0.0
H822 H 0.174 0.40267 0.07386 0.0
H823 H 0.15927 0.49328 0.0517 0.0
H824 H 0.08575 0.45093 0.98765 0.0
H825 H 0.11086 0.46849 0.03275 0.0
H826 H 0.18572 0.40419 0.02122 0.0
H827 H 0.16111 0.387 0.97618 0.0
C828 C 0.19329 0.43406 0.10364 0.0
C829 C 0.19826 0.46367 0.11003 0.0
C830 C 0.17684 0.42573 0.07842 0.0
C831 C 0.1648 0.44679 0.059 0.0
C832 C 0.16828 0.47653 0.0662 0.0
C833 C 0.18494 0.48489 0.09146 0.0
C834 C 0.1078 0.44082 0.99452 0.0
C835 C 0.12119 0.41729 0.97837 0.0
C836 C 0.12211 0.45084 0.02042 0.0
C837 C 0.15002 0.43744 0.03083 0.0
C838 C 0.16382 0.41453 0.01423 0.0
C839 C 0.14967 0.40466 0.98836 0.0
H840 H 0.75337 0.93056 0.32185 0.0
H841 H 0.84601 0.96482 0.33383 0.0
H842 H 0.76993 0.90723 0.27582 0.0
H843 H 0.86261 0.94115 0.28863 0.0
H844 H 0.87102 0.92922 0.19075 0.0
H845 H 0.85386 0.94853 0.23777 0.0
H846 H 0.8032 0.86985 0.25221 0.0
H847 H 0.81929 0.85098 0.20428 0.0
C848 C 0.77736 0.93273 0.31494 0.0
C849 C 0.79822 0.94986 0.33141 0.0
C850 C 0.78689 0.91931 0.28857 0.0
C851 C 0.81751 0.92267 0.27818 0.0
C852 C 0.83864 0.93869 0.29545 0.0
C853 C 0.82913 0.95215 0.32157 0.0
C854 C 0.85596 0.91608 0.20374 0.0
C855 C 0.84653 0.88852 0.19354 0.0
C856 C 0.84643 0.92702 0.23099 0.0
C857 C 0.82729 0.91069 0.24902 0.0
C858 C 0.81777 0.88312 0.23888 0.0
C859 C 0.82732 0.87215 0.21151 0.0
H860 H 0.31304 0.61447 0.58737 0.0
H861 H 0.3524 0.52711 0.57596 0.0
H862 H 0.33988 0.62972 0.54393 0.0
H863 H 0.37954 0.54263 0.53239 0.0
H864 H 0.38528 0.57512 0.43622 0.0
H865 H 0.36399 0.55826 0.48207 0.0
H866 H 0.39304 0.63768 0.52539 0.0
H867 H 0.41378 0.65475 0.47947 0.0
C868 C 0.32761 0.59852 0.57575 0.0
C869 C 0.33043 0.5695 0.58515 0.0
C870 C 0.34318 0.60737 0.55091 0.0
C871 C 0.36183 0.58739 0.5347 0.0
C872 C 0.36511 0.55846 0.5443 0.0
C873 C 0.34971 0.54963 0.56936 0.0
C874 C 0.38712 0.58895 0.45556 0.0
C875 C 0.40105 0.61634 0.45419 0.0
C876 C 0.37523 0.57917 0.48187 0.0
C877 C 0.37676 0.59668 0.50734 0.0
C878 C 0.39126 0.6238 0.50608 0.0
C879 C 0.40336 0.63347 0.47984 0.0
H880 H 0.24295 0.26294 0.50881 0.0
H881 H 0.16725 0.22965 0.45579 0.0
H882 H 0.28021 0.24901 0.47111 0.0
H883 H 0.20494 0.21553 0.41744 0.0
H884 H 0.28997 0.15669 0.38314 0.0
H885 H 0.24778 0.17783 0.41286 0.0
H886 H 0.29824 0.25792 0.42189 0.0
H887 H 0.34086 0.23648 0.39275 0.0
C888 C 0.2342 0.25301 0.48878 0.0
C889 C 0.2022 0.2472 0.48535 0.0
C890 C 0.25561 0.24518 0.46702 0.0
C891 C 0.24571 0.23102 0.44119 0.0
C892 C 0.2134 0.22617 0.43719 0.0
C893 C 0.19177 0.23443 0.459 0.0
C894 C 0.29207 0.17885 0.39141 0.0
C895 C 0.31911 0.19471 0.38586 0.0
C896 C 0.26762 0.19112 0.40814 0.0
C897 C 0.26958 0.21955 0.41994 0.0
C898 C 0.29606 0.23584 0.41342 0.0
C899 C 0.32044 0.22362 0.39652 0.0
H900 H 0.14673 0.08499 0.6313 0.0
H901 H 0.05778 0.12698 0.65215 0.0
H902 H 0.12839 0.03915 0.65034 0.0
H903 H 0.03968 0.08127 0.67181 0.0
H904 H 0.00852 0.98782 0.68563 0.0
H905 H 0.02554 0.03025 0.65883 0.0
H906 H 0.11713 0.02195 0.69949 0.0
H907 H 0.10043 0.9797 0.72589 0.0
C908 C 0.12313 0.08435 0.63964 0.0
C909 C 0.10378 0.10968 0.64036 0.0
C910 C 0.11271 0.05815 0.65077 0.0
C911 C 0.08262 0.05659 0.66273 0.0
C912 C 0.06288 0.08166 0.66256 0.0
C913 C 0.07338 0.10794 0.65159 0.0
C914 C 0.03239 0.99486 0.68856 0.0
C915 C 0.05304 0.98043 0.70805 0.0
C916 C 0.04207 0.01927 0.67335 0.0
C917 C 0.07267 0.02952 0.67708 0.0
C918 C 0.09353 0.01446 0.69584 0.0
C919 C 0.08383 0.99031 0.71116 0.0
H920 H 0.23419 0.85283 0.8455 0.0
H921 H 0.1701 0.86279 0.91747 0.0
H922 H 0.27545 0.83562 0.8793 0.0
H923 H 0.21088 0.84509 0.95081 0.0
H924 H 0.29912 0.85873 1.00446 0.0
H925 H 0.25968 0.86959 0.9674 0.0
H926 H 0.29189 0.79491 0.91618 0.0
H927 H 0.33199 0.78379 0.95397 0.0
C928 C 0.22878 0.85104 0.86843 0.0
C929 C 0.19885 0.85946 0.87878 0.0
C930 C 0.25234 0.84093 0.8877 0.0
C931 C 0.24652 0.83933 0.91775 0.0
C932 C 0.21621 0.84643 0.92782 0.0
C933 C 0.19271 0.85633 0.90862 0.0
C934 C 0.29801 0.84459 0.98528 0.0
C935 C 0.31857 0.8203 0.98221 0.0
C936 C 0.27521 0.85075 0.9641 0.0
C937 C 0.27225 0.83283 0.93912 0.0
C938 C 0.29358 0.80905 0.9353 0.0
C939 C 0.31653 0.80273 0.95682 0.0
H940 H 0.50732 0.05937 0.19507 0.0
H941 H 0.41404 0.07462 0.22859 0.0
H942 H 0.49001 0.01439 0.17089 0.0
H943 H 0.39669 0.03053 0.20402 0.0
H944 H 0.38581 0.93325 0.19078 0.0
H945 H 0.4036 0.97941 0.21078 0.0
H946 H 0.4572 0.99263 0.13295 0.0
H947 H 0.44051 0.94549 0.11343 0.0
C948 C 0.48305 0.05341 0.19688 0.0
C949 C 0.4622 0.07042 0.21407 0.0
C950 C 0.47309 0.02766 0.18298 0.0
C951 C 0.44203 0.01851 0.18588 0.0
C952 C 0.42096 0.03638 0.20193 0.0
C953 C 0.43091 0.06185 0.21591 0.0
C954 C 0.40161 0.9458 0.17797 0.0
C955 C 0.41173 0.9355 0.15048 0.0
C956 C 0.41152 0.97256 0.1893 0.0
C957 C 0.43171 0.98996 0.17342 0.0
C958 C 0.44183 0.97975 0.14587 0.0
C959 C 0.43192 0.95286 0.13453 0.0
H960 H 0.87315 0.35095 0.6295 0.0
H961 H 0.82127 0.34986 0.70982 0.0
H962 H 0.82857 0.33058 0.6032 0.0
H963 H 0.77627 0.33019 0.68328 0.0
H964 H 0.71106 0.27121 0.62748 0.0
H965 H 0.75741 0.28651 0.65531 0.0
H966 H 0.77637 0.34965 0.58936 0.0
H967 H 0.73074 0.33445 0.56163 0.0
C968 C 0.85235 0.3461 0.64161 0.0
C969 C 0.85074 0.35219 0.67175 0.0
C970 C 0.82667 0.33468 0.62649 0.0
C971 C 0.79877 0.32898 0.64111 0.0
C972 C 0.79746 0.3342 0.67141 0.0
C973 C 0.82312 0.34577 0.68654 0.0
C974 C 0.72517 0.28831 0.61893 0.0
C975 C 0.71709 0.30156 0.59229 0.0
C976 C 0.75164 0.29714 0.63493 0.0
C977 C 0.77069 0.31916 0.62444 0.0
C978 C 0.76254 0.3323 0.59784 0.0
C979 C 0.73613 0.32368 0.58203 0.0
H980 H 0.91968 0.44448 0.85373 0.0
H981 H 0.01804 0.46398 0.85561 0.0
H982 H 0.90796 0.48918 0.88152 0.0
H983 H 1.00627 0.5093 0.8829 0.0
H984 H 0.97406 0.57931 0.95108 0.0
H985 H 0.98781 0.53212 0.9282 0.0
H986 H 0.90652 0.54027 0.87148 0.0
H987 H 0.89213 0.58648 0.89502 0.0
C988 C 0.93885 0.45824 0.86031 0.0
C989 C 0.96973 0.45084 0.85224 0.0
C990 C 0.93212 0.48404 0.87603 0.0
C991 C 0.95606 0.50325 0.884 0.0
C992 C 0.98722 0.49508 0.87719 0.0
C993 C 0.99398 0.46912 0.8615 0.0
C994 C 0.95903 0.57093 0.93383 0.0
C995 C 0.93198 0.58687 0.92493 0.0
C996 C 0.96707 0.54396 0.92054 0.0
C997 C 0.94817 0.53216 0.89811 0.0
C998 C 0.92139 0.54832 0.88901 0.0
C999 C 0.91338 0.57518 0.90224 0.0
H1000 H 0.81315 0.69325 0.07457 0.0
H1001 H 0.80789 0.77863 0.11629 0.0
H1002 H 0.77193 0.6769 0.10557 0.0
H1003 H 0.76642 0.76178 0.14799 0.0
H1004 H 0.66729 0.72553 0.17197 0.0
H1005 H 0.71065 0.74585 0.14502 0.0
H1006 H 0.76439 0.66552 0.15652 0.0
H1007 H 0.72135 0.64534 0.18315 0.0
C1008 C 0.80338 0.70857 0.0905 0.0
C1009 C 0.81401 0.73731 0.09289 0.0
C1010 C 0.77977 0.69907 0.10847 0.0
C1011 C 0.76602 0.71794 0.12944 0.0
C1012 C 0.77646 0.74676 0.13192 0.0
C1013 C 0.80033 0.75634 0.11389 0.0
C1014 C 0.68853 0.7124 0.16899 0.0
C1015 C 0.69066 0.68362 0.17923 0.0
C1016 C 0.71338 0.72405 0.15363 0.0
C1017 C 0.7408 0.70714 0.14827 0.0
C1018 C 0.74332 0.67888 0.15965 0.0
C1019 C 0.71861 0.66728 0.17488 0.0
H1020 H 0.60764 0.43163 0.38787 0.0
H1021 H 0.55667 0.46166 0.46406 0.0
H1022 H 0.59175 0.47589 0.36265 0.0
H1023 H 0.54186 0.50682 0.43908 0.0
H1024 H 0.49836 0.57286 0.37176 0.0
H1025 H 0.51063 0.52838 0.39917 0.0
H1026 H 0.60445 0.52639 0.36483 0.0
H1027 H 0.59215 0.57002 0.33728 0.0
C1028 C 0.59277 0.44751 0.39922 0.0
C1029 C 0.58353 0.44288 0.42811 0.0
C1030 C 0.58402 0.47322 0.38485 0.0
C1031 C 0.56585 0.49526 0.39891 0.0
C1032 C 0.5558 0.49036 0.42752 0.0
C1033 C 0.56458 0.46454 0.44195 0.0
C1034 C 0.52167 0.56304 0.37032 0.0
C1035 C 0.54412 0.57494 0.35204 0.0
C1036 C 0.52873 0.53753 0.38605 0.0
C1037 C 0.5584 0.5234 0.38385 0.0
C1038 C 0.5811 0.5361 0.36648 0.0
C1039 C 0.57407 0.56137 0.3508 0.0
H1040 H 0.41443 0.34164 0.16407 0.0
H1041 H 0.32745 0.32189 0.2058 0.0
H1042 H 0.43624 0.29434 0.17782 0.0
H1043 H 0.3498 0.27444 0.22016 0.0
H1044 H 0.424 0.21241 0.27054 0.0
H1045 H 0.3919 0.25421 0.25345 0.0
H1046 H 0.43064 0.24231 0.16724 0.0
H1047 H 0.46285 0.20117 0.18459 0.0
C1048 C 0.39969 0.32707 0.17576 0.0
C1049 C 0.36901 0.33573 0.18358 0.0
C1050 C 0.41228 0.29985 0.18373 0.0
C1051 C 0.39469 0.28041 0.19989 0.0
C1052 C 0.36403 0.28894 0.20783 0.0
C1053 C 0.35128 0.31621 0.19966 0.0
C1054 C 0.42459 0.21815 0.24771 0.0
C1055 C 0.44551 0.20351 0.22875 0.0
C1056 C 0.4064 0.24215 0.23793 0.0
C1057 C 0.40913 0.25194 0.20908 0.0
C1058 C 0.42842 0.23574 0.18971 0.0
C1059 C 0.44655 0.21194 0.1995 0.0
H1060 H 0.92498 0.31106 0.78606 0.0
H1061 H 0.95805 0.32339 0.87486 0.0
H1062 H 0.89591 0.26856 0.80112 0.0
H1063 H 0.92945 0.28111 0.88968 0.0
H1064 H 0.85524 0.21778 0.91333 0.0
H1065 H 0.87651 0.26316 0.89606 0.0
H1066 H 0.90924 0.21833 0.81806 0.0
H1067 H 0.88731 0.17302 0.83505 0.0
C1068 C 0.92579 0.30494 0.8088 0.0
C1069 C 0.94395 0.32059 0.82921 0.0
C1070 C 0.90933 0.28048 0.81738 0.0
C1071 C 0.9104 0.27138 0.84661 0.0
C1072 C 0.92778 0.28765 0.86709 0.0
C1073 C 0.94438 0.31185 0.85851 0.0
C1074 C 0.86653 0.21768 0.89228 0.0
C1075 C 0.8697 0.19171 0.87565 0.0
C1076 C 0.87896 0.24366 0.88249 0.0
C1077 C 0.89473 0.24438 0.85573 0.0
C1078 C 0.89704 0.21861 0.83865 0.0
C1079 C 0.88478 0.19257 0.84855 0.0
H1080 H 0.03431 0.58646 0.1116 0.0
H1081 H 0.09863 0.65744 0.11895 0.0
H1082 H 0.9931 0.62056 0.09442 0.0
H1083 H 0.0579 0.69109 0.10123 0.0
H1084 H 0.96955 0.74657 0.11448 0.0
H1085 H 0.00944 0.70957 0.1255 0.0
H1086 H 0.9764 0.65617 0.05346 0.0
H1087 H 0.93586 0.69385 0.04224 0.0
C1088 C 0.03977 0.60923 0.10925 0.0
C1089 C 0.06975 0.61923 0.11691 0.0
C1090 C 0.01624 0.62868 0.09916 0.0
C1091 C 0.02214 0.65856 0.09679 0.0
C1092 C 0.05249 0.66825 0.10318 0.0
C1093 C 0.07597 0.64887 0.11308 0.0
C1094 C 0.97062 0.72694 0.10095 0.0
C1095 C 0.94964 0.72317 0.07741 0.0
C1096 C 0.99367 0.70579 0.10717 0.0
C1097 C 0.99645 0.68015 0.09008 0.0
C1098 C 0.97484 0.67577 0.06699 0.0
C1099 C 0.95166 0.69724 0.06059 0.0
H1100 H 0.64859 0.8154 0.40749 0.0
H1101 H 0.65792 0.84341 0.31855 0.0
H1102 H 0.62588 0.76992 0.38979 0.0
H1103 H 0.63521 0.79806 0.30093 0.0
H1104 H 0.54619 0.74231 0.28978 0.0
H1105 H 0.58186 0.78095 0.30282 0.0
H1106 H 0.6319 0.72274 0.36144 0.0
H1107 H 0.59565 0.6836 0.34801 0.0
C1108 C 0.64644 0.81164 0.38415 0.0
C1109 C 0.65467 0.83337 0.36449 0.0
C1110 C 0.63347 0.78547 0.37399 0.0
C1111 C 0.62841 0.78039 0.34393 0.0
C1112 C 0.63824 0.80144 0.32425 0.0
C1113 C 0.65117 0.82753 0.33438 0.0
C1114 C 0.56532 0.73751 0.3049 0.0
C1115 C 0.56822 0.71 0.31783 0.0
C1116 C 0.58588 0.75964 0.31235 0.0
C1117 C 0.60976 0.75508 0.33331 0.0
C1118 C 0.61362 0.72703 0.34538 0.0
C1119 C 0.59315 0.70456 0.33747 0.0
H1120 H 0.53203 0.30093 0.5545 0.0
H1121 H 0.60654 0.35462 0.58733 0.0
H1122 H 0.49396 0.33992 0.56474 0.0
H1123 H 0.56787 0.39426 0.59812 0.0
H1124 H 0.47656 0.42464 0.65446 0.0
H1125 H 0.52292 0.39836 0.63534 0.0
H1126 H 0.477 0.39014 0.55116 0.0
H1127 H 0.43081 0.41609 0.57026 0.0
C1128 C 0.54028 0.32141 0.56347 0.0
C1129 C 0.57209 0.32481 0.57028 0.0
C1130 C 0.51849 0.34385 0.56918 0.0
C1131 C 0.52788 0.3702 0.58225 0.0
C1132 C 0.56 0.37413 0.5881 0.0
C1133 C 0.58208 0.35163 0.58179 0.0
C1134 C 0.47676 0.41786 0.63168 0.0
C1135 C 0.44985 0.42182 0.61401 0.0
C1136 C 0.50333 0.40294 0.6207 0.0
C1137 C 0.5034 0.39185 0.59186 0.0
C1138 C 0.47743 0.398 0.57361 0.0
C1139 C 0.45095 0.41275 0.58457 0.0
H1140 H 0.12969 0.70191 0.73174 0.0
H1141 H 0.18871 0.74507 0.67099 0.0
H1142 H 0.10313 0.74859 0.74333 0.0
H1143 H 0.16238 0.79174 0.68278 0.0
H1144 H 0.07492 0.85631 0.68232 0.0
H1145 H 0.1083 0.81285 0.67373 0.0
H1146 H 0.11288 0.79783 0.76653 0.0
H1147 H 0.07961 0.84134 0.77512 0.0
C1148 C 0.13714 0.7214 0.72106 0.0
C1149 C 0.16129 0.7198 0.70047 0.0
C1150 C 0.12212 0.74816 0.72785 0.0
C1151 C 0.13066 0.77384 0.71393 0.0
C1152 C 0.15517 0.77231 0.69372 0.0
C1153 C 0.17042 0.74563 0.68718 0.0
C1154 C 0.08347 0.84397 0.70089 0.0
C1155 C 0.07447 0.85206 0.72934 0.0
C1156 C 0.10264 0.81913 0.69599 0.0
C1157 C 0.11298 0.80177 0.71945 0.0
C1158 C 0.10492 0.81054 0.748 0.0
C1159 C 0.08603 0.83554 0.75292 0.0
H1160 H 0.45331 0.86097 0.0405 0.0
H1161 H 0.46603 0.80934 0.96137 0.0
H1162 H 0.4974 0.8909 0.02707 0.0
H1163 H 0.50939 0.8392 0.94806 0.0
H1164 H 0.60455 0.87767 0.9446 0.0
H1165 H 0.56316 0.8483 0.96397 0.0
H1166 H 0.51151 0.92682 0.98952 0.0
H1167 H 0.5535 0.95629 0.97098 0.0
C1168 C 0.46538 0.85602 0.02028 0.0
C1169 C 0.45606 0.83268 1.00208 0.0
C1170 C 0.49057 0.87321 1.01256 0.0
C1171 C 0.5071 0.86725 0.98663 0.0
C1172 C 0.4976 0.84405 0.96845 0.0
C1173 C 0.47245 0.82705 0.97603 0.0
C1174 C 0.58471 0.88871 0.95488 0.0
C1175 C 0.58229 0.91936 0.95605 0.0
C1176 C 0.56079 0.87187 0.96569 0.0
C1177 C 0.53385 0.88523 0.97797 0.0
C1178 C 0.53198 0.91585 0.98027 0.0
C1179 C 0.5559 0.93273 0.96938 0.0
H1180 H 0.95186 0.13686 0.41491 0.0
H1181 H 0.92827 0.11403 0.50283 0.0
H1182 H 0.99532 0.16506 0.43353 0.0
H1183 H 0.97188 0.14292 0.52176 0.0
H1184 H 0.07126 0.18064 0.54118 0.0
H1185 H 0.02938 0.14817 0.52486 0.0
H1186 H 1.00115 0.21026 0.45901 0.0
H1187 H 0.04273 0.24185 0.47452 0.0
C1188 C 0.95578 0.1381 0.43831 0.0
C1189 C 0.93618 0.12359 0.45738 0.0
C1190 C 0.98078 0.15431 0.44904 0.0
C1191 C 0.98691 0.15676 0.47924 0.0
C1192 C 0.96796 0.14146 0.49838 0.0
C1193 C 0.9429 0.12498 0.48755 0.0
C1194 C 0.05611 0.18723 0.52318 0.0
C1195 C 0.06073 0.21376 0.509 0.0
C1196 C 0.03201 0.1687 0.51392 0.0
C1197 C 0.01208 0.17635 0.4903 0.0
C1198 C 0.01645 0.20317 0.47672 0.0
C1199 C 0.04037 0.22147 0.48581 0.0
loop_
_geom_bond_atom_site_label_1
_geom_bond_atom_site_label_2
_geom_bond_distance
_geom_bond_site_symmetry_2
_ccdc_geom_bond_type
C0 Eu1 2.835 . S
C0 C2 1.500 . S
C0 O20 1.257 . S
C0 O21 1.260 . S
Eu1 C0 2.835 . S
Eu1 O20 2.473 . S
Eu1 O21 2.480 . S
Eu1 O22 2.430 . S
Eu1 O23 2.670 . S
Eu1 O24 2.394 . S
Eu1 O29 2.355 . S
Eu1 O31 2.374 . S
C2 C0 1.500 . S
C2 C3 1.377 . S
C2 C7 1.377 . S
C3 C2 1.377 . S
C3 C4 1.395 . S
C3 H32 0.931 . S
C4 C3 1.395 . S
C4 C5 1.383 . S
C4 H33 0.931 . S
C5 C4 1.383 . S
C5 C6 1.394 . S
C6 C5 1.394 . S
C6 C7 1.378 . S
C6 H34 0.931 . S
C7 C2 1.377 . S
C7 C6 1.378 . S
C7 H35 0.931 . S
C8 O22 1.259 . S
C8 O23 1.270 . S
C9 O24 1.251 . S
C9 O25 1.251 . S
C10 Eu11 2.835 . S
C10 C12 1.500 . S
C10 O26 1.257 . S
C10 O27 1.260 . S
Eu11 C10 2.835 . S
Eu11 O23 2.355 . S
Eu11 O25 2.374 . S
Eu11 O26 2.473 . S
Eu11 O27 2.480 . S
Eu11 O28 2.430 . S
Eu11 O29 2.670 . S
Eu11 O30 2.394 . S
C12 C10 1.500 . S
C12 C13 1.377 . S
C12 C17 1.377 . S
C13 C12 1.377 . S
C13 C14 1.395 . S
C13 H36 0.931 . S
C14 C13 1.395 . S
C14 C15 1.383 . S
C14 H37 0.931 . S
C15 C14 1.383 . S
C15 C16 1.394 . S
C16 C15 1.394 . S
C16 C17 1.378 . S
C16 H38 0.931 . S
C17 C12 1.377 . S
C17 C16 1.378 . S
C17 H39 0.931 . S
C18 O28 1.259 . S
C18 O29 1.270 . S
C19 O30 1.251 . S
C19 O31 1.251 . S
O20 C0 1.257 . S
O20 Eu1 2.473 . S
O21 C0 1.260 . S
O21 Eu1 2.480 . S
O22 Eu1 2.430 . S
O22 C8 1.259 . S
O23 Eu1 2.670 . S
O23 C8 1.270 . S
O23 Eu11 2.355 . S
O24 Eu1 2.394 . S
O24 C9 1.251 . S
O25 C9 1.251 . S
O25 Eu11 2.374 . S
O26 C10 1.257 . S
O26 Eu11 2.473 . S
O27 C10 1.260 . S
O27 Eu11 2.480 . S
O28 Eu11 2.430 . S
O28 C18 1.259 . S
O29 Eu1 2.355 . S
O29 Eu11 2.670 . S
O29 C18 1.270 . S
O30 Eu11 2.394 . S
O30 C19 1.251 . S
O31 Eu1 2.374 . S
O31 C19 1.251 . S
H32 C3 0.931 . S
H33 C4 0.931 . S
H34 C6 0.931 . S
H35 C7 0.931 . S
H36 C13 0.931 . S
H37 C14 0.931 . S
H38 C16 0.931 . S
H39 C17 0.931 . S
C40 Eu41 2.835 . S
C40 C42 1.500 . S
C40 O60 1.257 . S
C40 O61 1.260 . S
Eu41 C40 2.835 . S
Eu41 O60 2.473 . S
Eu41 O61 2.480 . S
Eu41 O62 2.430 1_455 S
Eu41 O63 2.670 1_455 S
Eu41 O64 2.394 1_455 S
Eu41 O69 2.355 . S
Eu41 O71 2.374 . S
C42 C40 1.500 . S
C42 C43 1.377 . S
C42 C47 1.377 . S
C43 C42 1.377 . S
C43 C44 1.395 . S
C43 H72 0.931 . S
C44 C43 1.395 . S
C44 C45 1.383 . S
C44 H73 0.931 . S
C45 C44 1.383 . S
C45 C46 1.394 . S
C46 C45 1.394 . S
C46 C47 1.378 . S
C46 H74 0.931 . S
C47 C42 1.377 . S
C47 C46 1.378 . S
C47 H75 0.931 . S
C48 O62 1.259 . S
C48 O63 1.270 . S
C49 O64 1.251 . S
C49 O65 1.251 . S
C50 Eu51 2.835 . S
C50 C52 1.500 . S
C50 O66 1.257 . S
C50 O67 1.260 . S
Eu51 C50 2.835 . S
Eu51 O63 2.355 . S
Eu51 O65 2.374 . S
Eu51 O66 2.473 . S
Eu51 O67 2.480 . S
Eu51 O68 2.430 1_655 S
Eu51 O69 2.670 1_655 S
Eu51 O70 2.394 1_655 S
C52 C50 1.500 . S
C52 C53 1.377 . S
C52 C57 1.377 . S
C53 C52 1.377 . S
C53 C54 1.395 . S
C53 H76 0.931 . S
C54 C53 1.395 . S
C54 C55 1.383 . S
C54 H77 0.931 . S
C55 C54 1.383 . S
C55 C56 1.394 . S
C56 C55 1.394 . S
C56 C57 1.378 . S
C56 H78 0.931 . S
C57 C52 1.377 . S
C57 C56 1.378 . S
C57 H79 0.931 . S
C58 O68 1.259 . S
C58 O69 1.270 . S
C59 O70 1.251 . S
C59 O71 1.251 . S
O60 C40 1.257 . S
O60 Eu41 2.473 . S
O61 C40 1.260 . S
O61 Eu41 2.480 . S
O62 Eu41 2.430 1_655 S
O62 C48 1.259 . S
O63 Eu41 2.670 1_655 S
O63 C48 1.270 . S
O63 Eu51 2.355 . S
O64 Eu41 2.394 1_655 S
O64 C49 1.251 . S
O65 C49 1.251 . S
O65 Eu51 2.374 . S
O66 C50 1.257 . S
O66 Eu51 2.473 . S
O67 C50 1.260 . S
O67 Eu51 2.480 . S
O68 Eu51 2.430 1_455 S
O68 C58 1.259 . S
O69 Eu41 2.355 . S
O69 Eu51 2.670 1_455 S
O69 C58 1.270 . S
O70 Eu51 2.394 1_455 S
O70 C59 1.251 . S
O71 Eu41 2.374 . S
O71 C59 1.251 . S
H72 C43 0.931 . S
H73 C44 0.931 . S
H74 C46 0.931 . S
H75 C47 0.931 . S
H76 C53 0.931 . S
H77 C54 0.931 . S
H78 C56 0.931 . S
H79 C57 0.931 . S
C80 Eu81 2.835 . S
C80 C82 1.500 . S
C80 O100 1.257 . S
C80 O101 1.260 . S
Eu81 C80 2.835 . S
Eu81 O100 2.473 . S
Eu81 O101 2.480 . S
Eu81 O102 2.430 1_556 S
Eu81 O103 2.670 1_556 S
Eu81 O104 2.394 1_556 S
Eu81 O109 2.355 . S
Eu81 O111 2.374 . S
C82 C80 1.500 . S
C82 C83 1.377 . S
C82 C87 1.377 . S
C83 C82 1.377 . S
C83 C84 1.395 . S
C83 H112 0.931 . S
C84 C83 1.395 . S
C84 C85 1.383 . S
C84 H113 0.931 . S
C85 C84 1.383 . S
C85 C86 1.394 . S
C86 C85 1.394 . S
C86 C87 1.378 . S
C86 H114 0.931 . S
C87 C82 1.377 . S
C87 C86 1.378 . S
C87 H115 0.931 . S
C88 O102 1.259 . S
C88 O103 1.270 . S
C89 O104 1.251 . S
C89 O105 1.251 . S
C90 Eu91 2.835 . S
C90 C92 1.500 . S
C90 O106 1.257 . S
C90 O107 1.260 . S
Eu91 C90 2.835 . S
Eu91 O103 2.355 . S
Eu91 O105 2.374 . S
Eu91 O106 2.473 . S
Eu91 O107 2.480 . S
Eu91 O108 2.430 1_554 S
Eu91 O109 2.670 1_554 S
Eu91 O110 2.394 1_554 S
C92 C90 1.500 . S
C92 C93 1.377 . S
C92 C97 1.377 . S
C93 C92 1.377 . S
C93 C94 1.395 . S
C93 H116 0.931 . S
C94 C93 1.395 . S
C94 C95 1.383 . S
C94 H117 0.931 . S
C95 C94 1.383 . S
C95 C96 1.394 . S
C96 C95 1.394 . S
C96 C97 1.378 . S
C96 H118 0.931 . S
C97 C92 1.377 . S
C97 C96 1.378 . S
C97 H119 0.931 . S
C98 O108 1.259 . S
C98 O109 1.270 . S
C99 O110 1.251 . S
C99 O111 1.251 . S
O100 C80 1.257 . S
O100 Eu81 2.473 . S
O101 C80 1.260 . S
O101 Eu81 2.480 . S
O102 Eu81 2.430 1_554 S
O102 C88 1.259 . S
O103 Eu81 2.670 1_554 S
O103 C88 1.270 . S
O103 Eu91 2.355 . S
O104 Eu81 2.394 1_554 S
O104 C89 1.251 . S
O105 C89 1.251 . S
O105 Eu91 2.374 . S
O106 C90 1.257 . S
O106 Eu91 2.473 . S
O107 C90 1.260 . S
O107 Eu91 2.480 . S
O108 Eu91 2.430 1_556 S
O108 C98 1.259 . S
O109 Eu81 2.355 . S
O109 Eu91 2.670 1_556 S
O109 C98 1.270 . S
O110 Eu91 2.394 1_556 S
O110 C99 1.251 . S
O111 Eu81 2.374 . S
O111 C99 1.251 . S
H112 C83 0.931 . S
H113 C84 0.931 . S
H114 C86 0.931 . S
H115 C87 0.931 . S
H116 C93 0.931 . S
H117 C94 0.931 . S
H118 C96 0.931 . S
H119 C97 0.931 . S
C120 Eu121 2.835 . S
C120 C122 1.500 . S
C120 O140 1.257 . S
C120 O141 1.260 . S
Eu121 C120 2.835 . S
Eu121 O140 2.473 . S
Eu121 O141 2.480 . S
Eu121 O142 2.430 . S
Eu121 O143 2.670 . S
Eu121 O144 2.394 . S
Eu121 O149 2.355 . S
Eu121 O151 2.374 . S
C122 C120 1.500 . S
C122 C123 1.377 . S
C122 C127 1.377 . S
C123 C122 1.377 . S
C123 C124 1.395 . S
C123 H152 0.931 . S
C124 C123 1.395 . S
C124 C125 1.383 . S
C124 H153 0.931 . S
C125 C124 1.383 . S
C125 C126 1.394 . S
C126 C125 1.394 . S
C126 C127 1.378 . S
C126 H154 0.931 . S
C127 C122 1.377 . S
C127 C126 1.378 . S
C127 H155 0.931 . S
C128 O142 1.259 . S
C128 O143 1.270 . S
C129 O144 1.251 . S
C129 O145 1.251 . S
C130 Eu131 2.835 . S
C130 C132 1.500 . S
C130 O146 1.257 . S
C130 O147 1.260 . S
Eu131 C130 2.835 . S
Eu131 O143 2.355 . S
Eu131 O145 2.374 . S
Eu131 O146 2.473 . S
Eu131 O147 2.480 . S
Eu131 O148 2.430 . S
Eu131 O149 2.670 . S
Eu131 O150 2.394 . S
C132 C130 1.500 . S
C132 C133 1.377 . S
C132 C137 1.377 . S
C133 C132 1.377 . S
C133 C134 1.395 . S
C133 H156 0.931 . S
C134 C133 1.395 . S
C134 C135 1.383 . S
C134 H157 0.931 . S
C135 C134 1.383 . S
C135 C136 1.394 . S
C136 C135 1.394 . S
C136 C137 1.378 . S
C136 H158 0.931 . S
C137 C132 1.377 . S
C137 C136 1.378 . S
C137 H159 0.931 . S
C138 O148 1.259 . S
C138 O149 1.270 . S
C139 O150 1.251 . S
C139 O151 1.251 . S
O140 C120 1.257 . S
O140 Eu121 2.473 . S
O141 C120 1.260 . S
O141 Eu121 2.480 . S
O142 Eu121 2.430 . S
O142 C128 1.259 . S
O143 Eu121 2.670 . S
O143 C128 1.270 . S
O143 Eu131 2.355 . S
O144 Eu121 2.394 . S
O144 C129 1.251 . S
O145 C129 1.251 . S
O145 Eu131 2.374 . S
O146 C130 1.257 . S
O146 Eu131 2.473 . S
O147 C130 1.260 . S
O147 Eu131 2.480 . S
O148 Eu131 2.430 . S
O148 C138 1.259 . S
O149 Eu121 2.355 . S
O149 Eu131 2.670 . S
O149 C138 1.270 . S
O150 Eu131 2.394 . S
O150 C139 1.251 . S
O151 Eu121 2.374 . S
O151 C139 1.251 . S
H152 C123 0.931 . S
H153 C124 0.931 . S
H154 C126 0.931 . S
H155 C127 0.931 . S
H156 C133 0.931 . S
H157 C134 0.931 . S
H158 C136 0.931 . S
H159 C137 0.931 . S
C160 Eu161 2.835 . S
C160 C162 1.500 . S
C160 O180 1.257 . S
C160 O181 1.260 . S
Eu161 C160 2.835 . S
Eu161 O180 2.473 . S
Eu161 O181 2.480 . S
Eu161 O182 2.430 . S
Eu161 O183 2.670 . S
Eu161 O184 2.394 . S
Eu161 O189 2.355 . S
Eu161 O191 2.374 . S
C162 C160 1.500 . S
C162 C163 1.377 . S
C162 C167 1.377 . S
C163 C162 1.377 . S
C163 C164 1.395 . S
C163 H192 0.931 . S
C164 C163 1.395 . S
C164 C165 1.383 . S
C164 H193 0.931 . S
C165 C164 1.383 . S
C165 C166 1.394 . S
C166 C165 1.394 . S
C166 C167 1.378 . S
C166 H194 0.931 . S
C167 C162 1.377 . S
C167 C166 1.378 . S
C167 H195 0.931 . S
C168 O182 1.259 . S
C168 O183 1.270 . S
C169 O184 1.251 . S
C169 O185 1.251 . S
C170 Eu171 2.835 . S
C170 C172 1.500 . S
C170 O186 1.257 . S
C170 O187 1.260 . S
Eu171 C170 2.835 . S
Eu171 O183 2.355 . S
Eu171 O185 2.374 . S
Eu171 O186 2.473 . S
Eu171 O187 2.480 . S
Eu171 O188 2.430 . S
Eu171 O189 2.670 . S
Eu171 O190 2.394 . S
C172 C170 1.500 . S
C172 C173 1.377 . S
C172 C177 1.377 . S
C173 C172 1.377 . S
C173 C174 1.395 . S
C173 H196 0.931 . S
C174 C173 1.395 . S
C174 C175 1.383 . S
C174 H197 0.931 . S
C175 C174 1.383 . S
C175 C176 1.394 . S
C176 C175 1.394 . S
C176 C177 1.378 . S
C176 H198 0.931 . S
C177 C172 1.377 . S
C177 C176 1.378 . S
C177 H199 0.931 . S
C178 O188 1.259 . S
C178 O189 1.270 . S
C179 O190 1.251 . S
C179 O191 1.251 . S
O180 C160 1.257 . S
O180 Eu161 2.473 . S
O181 C160 1.260 . S
O181 Eu161 2.480 . S
O182 Eu161 2.430 . S
O182 C168 1.259 . S
O183 Eu161 2.670 . S
O183 C168 1.270 . S
O183 Eu171 2.355 . S
O184 Eu161 2.394 . S
O184 C169 1.251 . S
O185 C169 1.251 . S
O185 Eu171 2.374 . S
O186 C170 1.257 . S
O186 Eu171 2.473 . S
O187 C170 1.260 . S
O187 Eu171 2.480 . S
O188 Eu171 2.430 . S
O188 C178 1.259 . S
O189 Eu161 2.355 . S
O189 Eu171 2.670 . S
O189 C178 1.270 . S
O190 Eu171 2.394 . S
O190 C179 1.251 . S
O191 Eu161 2.374 . S
O191 C179 1.251 . S
H192 C163 0.931 . S
H193 C164 0.931 . S
H194 C166 0.931 . S
H195 C167 0.931 . S
H196 C173 0.931 . S
H197 C174 0.931 . S
H198 C176 0.931 . S
H199 C177 0.931 . S
C200 Eu201 2.835 . S
C200 C202 1.500 . S
C200 O220 1.257 . S
C200 O221 1.260 . S
Eu201 C200 2.835 . S
Eu201 O220 2.473 . S
Eu201 O221 2.480 . S
Eu201 O222 2.430 . S
Eu201 O223 2.670 . S
Eu201 O224 2.394 . S
Eu201 O229 2.355 1_455 S
Eu201 O231 2.374 1_455 S
C202 C200 1.500 . S
C202 C203 1.377 . S
C202 C207 1.377 . S
C203 C202 1.377 . S
C203 C204 1.395 . S
C203 H232 0.931 . S
C204 C203 1.395 . S
C204 C205 1.383 . S
C204 H233 0.931 . S
C205 C204 1.383 . S
C205 C206 1.394 . S
C206 C205 1.394 . S
C206 C207 1.378 . S
C206 H234 0.931 . S
C207 C202 1.377 . S
C207 C206 1.378 . S
C207 H235 0.931 . S
C208 O222 1.259 . S
C208 O223 1.270 . S
C209 O224 1.251 . S
C209 O225 1.251 . S
C210 Eu211 2.835 . S
C210 C212 1.500 . S
C210 O226 1.257 . S
C210 O227 1.260 . S
Eu211 C210 2.835 . S
Eu211 O223 2.355 1_655 S
Eu211 O225 2.374 1_655 S
Eu211 O226 2.473 . S
Eu211 O227 2.480 . S
Eu211 O228 2.430 . S
Eu211 O229 2.670 . S
Eu211 O230 2.394 . S
C212 C210 1.500 . S
C212 C213 1.377 . S
C212 C217 1.377 . S
C213 C212 1.377 . S
C213 C214 1.395 . S
C213 H236 0.931 . S
C214 C213 1.395 . S
C214 C215 1.383 . S
C214 H237 0.931 . S
C215 C214 1.383 . S
C215 C216 1.394 . S
C216 C215 1.394 . S
C216 C217 1.378 . S
C216 H238 0.931 . S
C217 C212 1.377 . S
C217 C216 1.378 . S
C217 H239 0.931 . S
C218 O228 1.259 . S
C218 O229 1.270 . S
C219 O230 1.251 . S
C219 O231 1.251 . S
O220 C200 1.257 . S
O220 Eu201 2.473 . S
O221 C200 1.260 . S
O221 Eu201 2.480 . S
O222 Eu201 2.430 . S
O222 C208 1.259 . S
O223 Eu201 2.670 . S
O223 C208 1.270 . S
O223 Eu211 2.355 1_455 S
O224 Eu201 2.394 . S
O224 C209 1.251 . S
O225 C209 1.251 . S
O225 Eu211 2.374 1_455 S
O226 C210 1.257 . S
O226 Eu211 2.473 . S
O227 C210 1.260 . S
O227 Eu211 2.480 . S
O228 Eu211 2.430 . S
O228 C218 1.259 . S
O229 Eu201 2.355 1_655 S
O229 Eu211 2.670 . S
O229 C218 1.270 . S
O230 Eu211 2.394 . S
O230 C219 1.251 . S
O231 Eu201 2.374 1_655 S
O231 C219 1.251 . S
H232 C203 0.931 . S
H233 C204 0.931 . S
H234 C206 0.931 . S
H235 C207 0.931 . S
H236 C213 0.931 . S
H237 C214 0.931 . S
H238 C216 0.931 . S
H239 C217 0.931 . S
C240 Eu241 2.835 . S
C240 C242 1.500 . S
C240 O260 1.257 . S
C240 O261 1.260 . S
Eu241 C240 2.835 . S
Eu241 O260 2.473 . S
Eu241 O261 2.480 . S
Eu241 O262 2.430 . S
Eu241 O263 2.670 1_556 S
Eu241 O264 2.394 . S
Eu241 O269 2.355 1_556 S
Eu241 O271 2.374 1_556 S
C242 C240 1.500 . S
C242 C243 1.377 . S
C242 C247 1.377 . S
C243 C242 1.377 . S
C243 C244 1.395 . S
C243 H272 0.931 . S
C244 C243 1.395 . S
C244 C245 1.383 . S
C244 H273 0.931 . S
C245 C244 1.383 . S
C245 C246 1.394 . S
C246 C245 1.394 . S
C246 C247 1.378 . S
C246 H274 0.931 . S
C247 C242 1.377 . S
C247 C246 1.378 . S
C247 H275 0.931 . S
C248 O262 1.259 . S
C248 O263 1.270 1_556 S
C249 O264 1.251 . S
C249 O265 1.251 . S
C250 Eu251 2.835 . S
C250 C252 1.500 . S
C250 O266 1.257 . S
C250 O267 1.260 . S
Eu251 C250 2.835 . S
Eu251 O263 2.355 . S
Eu251 O265 2.374 1_554 S
Eu251 O266 2.473 . S
Eu251 O267 2.480 . S
Eu251 O268 2.430 . S
Eu251 O269 2.670 . S
Eu251 O270 2.394 . S
C252 C250 1.500 . S
C252 C253 1.377 . S
C252 C257 1.377 . S
C253 C252 1.377 . S
C253 C254 1.395 . S
C253 H276 0.931 . S
C254 C253 1.395 . S
C254 C255 1.383 . S
C254 H277 0.931 . S
C255 C254 1.383 . S
C255 C256 1.394 . S
C256 C255 1.394 . S
C256 C257 1.378 . S
C256 H278 0.931 . S
C257 C252 1.377 . S
C257 C256 1.378 . S
C257 H279 0.931 . S
C258 O268 1.259 . S
C258 O269 1.270 . S
C259 O270 1.251 . S
C259 O271 1.251 . S
O260 C240 1.257 . S
O260 Eu241 2.473 . S
O261 C240 1.260 . S
O261 Eu241 2.480 . S
O262 Eu241 2.430 . S
O262 C248 1.259 . S
O263 Eu241 2.670 1_554 S
O263 C248 1.270 1_554 S
O263 Eu251 2.355 . S
O264 Eu241 2.394 . S
O264 C249 1.251 . S
O265 C249 1.251 . S
O265 Eu251 2.374 1_556 S
O266 C250 1.257 . S
O266 Eu251 2.473 . S
O267 C250 1.260 . S
O267 Eu251 2.480 . S
O268 Eu251 2.430 . S
O268 C258 1.259 . S
O269 Eu241 2.355 1_554 S
O269 Eu251 2.670 . S
O269 C258 1.270 . S
O270 Eu251 2.394 . S
O270 C259 1.251 . S
O271 Eu241 2.374 1_554 S
O271 C259 1.251 . S
H272 C243 0.931 . S
H273 C244 0.931 . S
H274 C246 0.931 . S
H275 C247 0.931 . S
H276 C253 0.931 . S
H277 C254 0.931 . S
H278 C256 0.931 . S
H279 C257 0.931 . S
C280 Eu281 2.835 . S
C280 C282 1.500 . S
C280 O300 1.257 . S
C280 O301 1.260 . S
Eu281 C280 2.835 . S
Eu281 O300 2.473 . S
Eu281 O301 2.480 . S
Eu281 O302 2.430 . S
Eu281 O303 2.670 . S
Eu281 O304 2.394 . S
Eu281 O309 2.355 . S
Eu281 O311 2.374 . S
C282 C280 1.500 . S
C282 C283 1.377 . S
C282 C287 1.377 . S
C283 C282 1.377 . S
C283 C284 1.395 . S
C283 H312 0.931 . S
C284 C283 1.395 . S
C284 C285 1.383 . S
C284 H313 0.931 . S
C285 C284 1.383 . S
C285 C286 1.394 . S
C286 C285 1.394 . S
C286 C287 1.378 . S
C286 H314 0.931 . S
C287 C282 1.377 . S
C287 C286 1.378 . S
C287 H315 0.931 . S
C288 O302 1.259 . S
C288 O303 1.270 . S
C289 O304 1.251 . S
C289 O305 1.251 . S
C290 Eu291 2.835 . S
C290 C292 1.500 . S
C290 O306 1.257 . S
C290 O307 1.260 . S
Eu291 C290 2.835 . S
Eu291 O303 2.355 . S
Eu291 O305 2.374 . S
Eu291 O306 2.473 . S
Eu291 O307 2.480 . S
Eu291 O308 2.430 . S
Eu291 O309 2.670 . S
Eu291 O310 2.394 . S
C292 C290 1.500 . S
C292 C293 1.377 . S
C292 C297 1.377 . S
C293 C292 1.377 . S
C293 C294 1.395 . S
C293 H316 0.931 . S
C294 C293 1.395 . S
C294 C295 1.383 . S
C294 H317 0.931 . S
C295 C294 1.383 . S
C295 C296 1.394 . S
C296 C295 1.394 . S
C296 C297 1.378 . S
C296 H318 0.931 . S
C297 C292 1.377 . S
C297 C296 1.378 . S
C297 H319 0.931 . S
C298 O308 1.259 . S
C298 O309 1.270 . S
C299 O310 1.251 . S
C299 O311 1.251 . S
O300 C280 1.257 . S
O300 Eu281 2.473 . S
O301 C280 1.260 . S
O301 Eu281 2.480 . S
O302 Eu281 2.430 . S
O302 C288 1.259 . S
O303 Eu281 2.670 . S
O303 C288 1.270 . S
O303 Eu291 2.355 . S
O304 Eu281 2.394 . S
O304 C289 1.251 . S
O305 C289 1.251 . S
O305 Eu291 2.374 . S
O306 C290 1.257 . S
O306 Eu291 2.473 . S
O307 C290 1.260 . S
O307 Eu291 2.480 . S
O308 Eu291 2.430 . S
O308 C298 1.259 . S
O309 Eu281 2.355 . S
O309 Eu291 2.670 . S
O309 C298 1.270 . S
O310 Eu291 2.394 . S
O310 C299 1.251 . S
O311 Eu281 2.374 . S
O311 C299 1.251 . S
H312 C283 0.931 . S
H313 C284 0.931 . S
H314 C286 0.931 . S
H315 C287 0.931 . S
H316 C293 0.931 . S
H317 C294 0.931 . S
H318 C296 0.931 . S
H319 C297 0.931 . S
C320 Eu321 2.835 . S
C320 C322 1.500 . S
C320 O340 1.257 . S
C320 O341 1.260 . S
Eu321 C320 2.835 . S
Eu321 O340 2.473 . S
Eu321 O341 2.480 . S
Eu321 O342 2.430 . S
Eu321 O343 2.670 . S
Eu321 O344 2.394 . S
Eu321 O349 2.355 . S
Eu321 O351 2.374 . S
C322 C320 1.500 . S
C322 C323 1.377 . S
C322 C327 1.377 . S
C323 C322 1.377 . S
C323 C324 1.395 . S
C323 H352 0.931 . S
C324 C323 1.395 . S
C324 C325 1.383 . S
C324 H353 0.931 . S
C325 C324 1.383 . S
C325 C326 1.394 . S
C326 C325 1.394 . S
C326 C327 1.378 . S
C326 H354 0.931 . S
C327 C322 1.377 . S
C327 C326 1.378 . S
C327 H355 0.931 . S
C328 O342 1.259 . S
C328 O343 1.270 . S
C329 O344 1.251 . S
C329 O345 1.251 . S
C330 Eu331 2.835 . S
C330 C332 1.500 . S
C330 O346 1.257 . S
C330 O347 1.260 . S
Eu331 C330 2.835 . S
Eu331 O343 2.355 . S
Eu331 O345 2.374 . S
Eu331 O346 2.473 . S
Eu331 O347 2.480 . S
Eu331 O348 2.430 . S
Eu331 O349 2.670 . S
Eu331 O350 2.394 . S
C332 C330 1.500 . S
C332 C333 1.377 . S
C332 C337 1.377 . S
C333 C332 1.377 . S
C333 C334 1.395 . S
C333 H356 0.931 . S
C334 C333 1.395 . S
C334 C335 1.383 . S
C334 H357 0.931 . S
C335 C334 1.383 . S
C335 C336 1.394 . S
C336 C335 1.394 . S
C336 C337 1.378 . S
C336 H358 0.931 . S
C337 C332 1.377 . S
C337 C336 1.378 . S
C337 H359 0.931 . S
C338 O348 1.259 . S
C338 O349 1.270 . S
C339 O350 1.251 . S
C339 O351 1.251 . S
O340 C320 1.257 . S
O340 Eu321 2.473 . S
O341 C320 1.260 . S
O341 Eu321 2.480 . S
O342 Eu321 2.430 . S
O342 C328 1.259 . S
O343 Eu321 2.670 . S
O343 C328 1.270 . S
O343 Eu331 2.355 . S
O344 Eu321 2.394 . S
O344 C329 1.251 . S
O345 C329 1.251 . S
O345 Eu331 2.374 . S
O346 C330 1.257 . S
O346 Eu331 2.473 . S
O347 C330 1.260 . S
O347 Eu331 2.480 . S
O348 Eu331 2.430 . S
O348 C338 1.259 . S
O349 Eu321 2.355 . S
O349 Eu331 2.670 . S
O349 C338 1.270 . S
O350 Eu331 2.394 . S
O350 C339 1.251 . S
O351 Eu321 2.374 . S
O351 C339 1.251 . S
H352 C323 0.931 . S
H353 C324 0.931 . S
H354 C326 0.931 . S
H355 C327 0.931 . S
H356 C333 0.931 . S
H357 C334 0.931 . S
H358 C336 0.931 . S
H359 C337 0.931 . S
C360 Eu361 2.835 . S
C360 C362 1.500 . S
C360 O380 1.257 . S
C360 O381 1.260 . S
Eu361 C360 2.835 . S
Eu361 O380 2.473 . S
Eu361 O381 2.480 . S
Eu361 O382 2.430 . S
Eu361 O383 2.670 1_565 S
Eu361 O384 2.394 . S
Eu361 O389 2.355 1_565 S
Eu361 O391 2.374 1_565 S
C362 C360 1.500 . S
C362 C363 1.377 . S
C362 C367 1.377 . S
C363 C362 1.377 . S
C363 C364 1.395 . S
C363 H392 0.931 . S
C364 C363 1.395 . S
C364 C365 1.383 . S
C364 H393 0.931 . S
C365 C364 1.383 . S
C365 C366 1.394 . S
C366 C365 1.394 . S
C366 C367 1.378 . S
C366 H394 0.931 . S
C367 C362 1.377 . S
C367 C366 1.378 . S
C367 H395 0.931 . S
C368 O382 1.259 . S
C368 O383 1.270 1_565 S
C369 O384 1.251 . S
C369 O385 1.251 1_565 S
C370 Eu371 2.835 . S
C370 C372 1.500 . S
C370 O386 1.257 . S
C370 O387 1.260 . S
Eu371 C370 2.835 . S
Eu371 O383 2.355 . S
Eu371 O385 2.374 . S
Eu371 O386 2.473 . S
Eu371 O387 2.480 . S
Eu371 O388 2.430 . S
Eu371 O389 2.670 . S
Eu371 O390 2.394 . S
C372 C370 1.500 . S
C372 C373 1.377 . S
C372 C377 1.377 . S
C373 C372 1.377 . S
C373 C374 1.395 . S
C373 H396 0.931 . S
C374 C373 1.395 . S
C374 C375 1.383 . S
C374 H397 0.931 . S
C375 C374 1.383 . S
C375 C376 1.394 . S
C376 C375 1.394 . S
C376 C377 1.378 . S
C376 H398 0.931 . S
C377 C372 1.377 . S
C377 C376 1.378 . S
C377 H399 0.931 . S
C378 O388 1.259 . S
C378 O389 1.270 . S
C379 O390 1.251 . S
C379 O391 1.251 . S
O380 C360 1.257 . S
O380 Eu361 2.473 . S
O381 C360 1.260 . S
O381 Eu361 2.480 . S
O382 Eu361 2.430 . S
O382 C368 1.259 . S
O383 Eu361 2.670 1_545 S
O383 C368 1.270 1_545 S
O383 Eu371 2.355 . S
O384 Eu361 2.394 . S
O384 C369 1.251 . S
O385 C369 1.251 1_545 S
O385 Eu371 2.374 . S
O386 C370 1.257 . S
O386 Eu371 2.473 . S
O387 C370 1.260 . S
O387 Eu371 2.480 . S
O388 Eu371 2.430 . S
O388 C378 1.259 . S
O389 Eu361 2.355 1_545 S
O389 Eu371 2.670 . S
O389 C378 1.270 . S
O390 Eu371 2.394 . S
O390 C379 1.251 . S
O391 Eu361 2.374 1_545 S
O391 C379 1.251 . S
H392 C363 0.931 . S
H393 C364 0.931 . S
H394 C366 0.931 . S
H395 C367 0.931 . S
H396 C373 0.931 . S
H397 C374 0.931 . S
H398 C376 0.931 . S
H399 C377 0.931 . S
C400 Eu401 2.835 . S
C400 C402 1.500 . S
C400 O420 1.257 . S
C400 O421 1.260 . S
Eu401 C400 2.835 . S
Eu401 O420 2.473 . S
Eu401 O421 2.480 . S
Eu401 O422 2.430 . S
Eu401 O423 2.670 1_545 S
Eu401 O424 2.394 . S
Eu401 O429 2.355 1_545 S
Eu401 O431 2.374 1_545 S
C402 C400 1.500 . S
C402 C403 1.377 . S
C402 C407 1.377 . S
C403 C402 1.377 . S
C403 C404 1.395 . S
C403 H432 0.931 . S
C404 C403 1.395 . S
C404 C405 1.383 . S
C404 H433 0.931 . S
C405 C404 1.383 . S
C405 C406 1.394 . S
C406 C405 1.394 . S
C406 C407 1.378 . S
C406 H434 0.931 . S
C407 C402 1.377 . S
C407 C406 1.378 . S
C407 H435 0.931 . S
C408 O422 1.259 . S
C408 O423 1.270 1_545 S
C409 O424 1.251 . S
C409 O425 1.251 . S
C410 Eu411 2.835 . S
C410 C412 1.500 . S
C410 O426 1.257 . S
C410 O427 1.260 . S
Eu411 C410 2.835 . S
Eu411 O423 2.355 . S
Eu411 O425 2.374 1_565 S
Eu411 O426 2.473 . S
Eu411 O427 2.480 . S
Eu411 O428 2.430 . S
Eu411 O429 2.670 . S
Eu411 O430 2.394 . S
C412 C410 1.500 . S
C412 C413 1.377 . S
C412 C417 1.377 . S
C413 C412 1.377 . S
C413 C414 1.395 . S
C413 H436 0.931 . S
C414 C413 1.395 . S
C414 C415 1.383 . S
C414 H437 0.931 . S
C415 C414 1.383 . S
C415 C416 1.394 . S
C416 C415 1.394 . S
C416 C417 1.378 . S
C416 H438 0.931 . S
C417 C412 1.377 . S
C417 C416 1.378 . S
C417 H439 0.931 . S
C418 O428 1.259 . S
C418 O429 1.270 . S
C419 O430 1.251 . S
C419 O431 1.251 . S
O420 C400 1.257 . S
O420 Eu401 2.473 . S
O421 C400 1.260 . S
O421 Eu401 2.480 . S
O422 Eu401 2.430 . S
O422 C408 1.259 . S
O423 Eu401 2.670 1_565 S
O423 C408 1.270 1_565 S
O423 Eu411 2.355 . S
O424 Eu401 2.394 . S
O424 C409 1.251 . S
O425 C409 1.251 . S
O425 Eu411 2.374 1_545 S
O426 C410 1.257 . S
O426 Eu411 2.473 . S
O427 C410 1.260 . S
O427 Eu411 2.480 . S
O428 Eu411 2.430 . S
O428 C418 1.259 . S
O429 Eu401 2.355 1_565 S
O429 Eu411 2.670 . S
O429 C418 1.270 . S
O430 Eu411 2.394 . S
O430 C419 1.251 . S
O431 Eu401 2.374 1_565 S
O431 C419 1.251 . S
H432 C403 0.931 . S
H433 C404 0.931 . S
H434 C406 0.931 . S
H435 C407 0.931 . S
H436 C413 0.931 . S
H437 C414 0.931 . S
H438 C416 0.931 . S
H439 C417 0.931 . S
C440 Eu441 2.835 . S
C440 C442 1.500 . S
C440 O460 1.257 . S
C440 O461 1.260 . S
Eu441 C440 2.835 . S
Eu441 O460 2.473 . S
Eu441 O461 2.480 . S
Eu441 O462 2.430 . S
Eu441 O463 2.670 . S
Eu441 O464 2.394 . S
Eu441 O469 2.355 . S
Eu441 O471 2.374 . S
C442 C440 1.500 . S
C442 C443 1.377 . S
C442 C447 1.377 . S
C443 C442 1.377 . S
C443 C444 1.395 . S
C443 H472 0.931 . S
C444 C443 1.395 . S
C444 C445 1.383 . S
C444 H473 0.931 . S
C445 C444 1.383 . S
C445 C446 1.394 . S
C446 C445 1.394 . S
C446 C447 1.378 . S
C446 H474 0.931 . S
C447 C442 1.377 . S
C447 C446 1.378 . S
C447 H475 0.931 . S
C448 O462 1.259 . S
C448 O463 1.270 . S
C449 O464 1.251 . S
C449 O465 1.251 . S
C450 Eu451 2.835 . S
C450 C452 1.500 . S
C450 O466 1.257 . S
C450 O467 1.260 . S
Eu451 C450 2.835 . S
Eu451 O463 2.355 . S
Eu451 O465 2.374 . S
Eu451 O466 2.473 . S
Eu451 O467 2.480 . S
Eu451 O468 2.430 . S
Eu451 O469 2.670 . S
Eu451 O470 2.394 . S
C452 C450 1.500 . S
C452 C453 1.377 . S
C452 C457 1.377 . S
C453 C452 1.377 . S
C453 C454 1.395 . S
C453 H476 0.931 . S
C454 C453 1.395 . S
C454 C455 1.383 . S
C454 H477 0.931 . S
C455 C454 1.383 . S
C455 C456 1.394 . S
C456 C455 1.394 . S
C456 C457 1.378 . S
C456 H478 0.931 . S
C457 C452 1.377 . S
C457 C456 1.378 . S
C457 H479 0.931 . S
C458 O468 1.259 . S
C458 O469 1.270 . S
C459 O470 1.251 . S
C459 O471 1.251 . S
O460 C440 1.257 . S
O460 Eu441 2.473 . S
O461 C440 1.260 . S
O461 Eu441 2.480 . S
O462 Eu441 2.430 . S
O462 C448 1.259 . S
O463 Eu441 2.670 . S
O463 C448 1.270 . S
O463 Eu451 2.355 . S
O464 Eu441 2.394 . S
O464 C449 1.251 . S
O465 C449 1.251 . S
O465 Eu451 2.374 . S
O466 C450 1.257 . S
O466 Eu451 2.473 . S
O467 C450 1.260 . S
O467 Eu451 2.480 . S
O468 Eu451 2.430 . S
O468 C458 1.259 . S
O469 Eu441 2.355 . S
O469 Eu451 2.670 . S
O469 C458 1.270 . S
O470 Eu451 2.394 . S
O470 C459 1.251 . S
O471 Eu441 2.374 . S
O471 C459 1.251 . S
H472 C443 0.931 . S
H473 C444 0.931 . S
H474 C446 0.931 . S
H475 C447 0.931 . S
H476 C453 0.931 . S
H477 C454 0.931 . S
H478 C456 0.931 . S
H479 C457 0.931 . S
H480 C488 0.950 . S
H481 C493 0.950 . S
H482 C490 0.950 . S
H483 C492 0.950 . S
H484 C494 0.950 . S
H485 C496 0.950 . S
H486 C498 0.950 . S
H487 C499 0.950 . S
C488 H480 0.950 . S
C488 C489 1.386 . S
C488 C490 1.391 . S
C489 C488 1.386 . S
C489 C493 1.393 . S
C490 H482 0.950 . S
C490 C488 1.391 . S
C490 C491 1.400 . S
C491 C490 1.400 . S
C491 C492 1.398 . S
C491 C497 1.491 . S
C492 H483 0.950 . S
C492 C491 1.398 . S
C492 C493 1.391 . S
C493 H481 0.950 . S
C493 C489 1.393 . S
C493 C492 1.391 . S
C494 H484 0.950 . S
C494 C495 1.386 . S
C494 C496 1.391 . S
C495 C494 1.386 . S
C495 C499 1.393 . S
C496 H485 0.950 . S
C496 C494 1.391 . S
C496 C497 1.400 . S
C497 C491 1.491 . S
C497 C496 1.400 . S
C497 C498 1.398 . S
C498 H486 0.950 . S
C498 C497 1.398 . S
C498 C499 1.391 . S
C499 H487 0.950 . S
C499 C495 1.393 . S
C499 C498 1.391 . S
H500 C508 0.950 . S
H501 C513 0.950 1_545 S
H502 C510 0.950 . S
H503 C512 0.950 . S
H504 C514 0.950 . S
H505 C516 0.950 . S
H506 C518 0.950 . S
H507 C519 0.950 . S
C508 H500 0.950 . S
C508 C509 1.386 . S
C508 C510 1.391 . S
C509 C508 1.386 . S
C509 C513 1.393 . S
C510 H502 0.950 . S
C510 C508 1.391 . S
C510 C511 1.400 . S
C511 C510 1.400 . S
C511 C512 1.398 . S
C511 C517 1.491 . S
C512 H503 0.950 . S
C512 C511 1.398 . S
C512 C513 1.391 . S
C513 H501 0.950 1_565 S
C513 C509 1.393 . S
C513 C512 1.391 . S
C514 H504 0.950 . S
C514 C515 1.386 . S
C514 C516 1.391 . S
C515 C514 1.386 . S
C515 C519 1.393 . S
C516 H505 0.950 . S
C516 C514 1.391 . S
C516 C517 1.400 . S
C517 C511 1.491 . S
C517 C516 1.400 . S
C517 C518 1.398 . S
C518 H506 0.950 . S
C518 C517 1.398 . S
C518 C519 1.391 . S
C519 H507 0.950 . S
C519 C515 1.393 . S
C519 C518 1.391 . S
H520 C528 0.950 1_556 S
H521 C533 0.950 . S
H522 C530 0.950 . S
H523 C532 0.950 . S
H524 C534 0.950 . S
H525 C536 0.950 . S
H526 C538 0.950 . S
H527 C539 0.950 . S
C528 H520 0.950 1_554 S
C528 C529 1.386 . S
C528 C530 1.391 . S
C529 C528 1.386 . S
C529 C533 1.393 . S
C530 H522 0.950 . S
C530 C528 1.391 . S
C530 C531 1.400 . S
C531 C530 1.400 . S
C531 C532 1.398 . S
C531 C537 1.491 . S
C532 H523 0.950 . S
C532 C531 1.398 . S
C532 C533 1.391 . S
C533 H521 0.950 . S
C533 C529 1.393 . S
C533 C532 1.391 . S
C534 H524 0.950 . S
C534 C535 1.386 . S
C534 C536 1.391 . S
C535 C534 1.386 . S
C535 C539 1.393 . S
C536 H525 0.950 . S
C536 C534 1.391 . S
C536 C537 1.400 . S
C537 C531 1.491 . S
C537 C536 1.400 . S
C537 C538 1.398 . S
C538 H526 0.950 . S
C538 C537 1.398 . S
C538 C539 1.391 . S
C539 H527 0.950 . S
C539 C535 1.393 . S
C539 C538 1.391 . S
H540 C548 0.950 . S
H541 C553 0.950 . S
H542 C550 0.950 . S
H543 C552 0.950 . S
H544 C554 0.950 . S
H545 C556 0.950 . S
H546 C558 0.950 . S
H547 C559 0.950 . S
C548 H540 0.950 . S
C548 C549 1.386 . S
C548 C550 1.391 . S
C549 C548 1.386 . S
C549 C553 1.393 . S
C550 H542 0.950 . S
C550 C548 1.391 . S
C550 C551 1.400 . S
C551 C550 1.400 . S
C551 C552 1.398 . S
C551 C557 1.491 . S
C552 H543 0.950 . S
C552 C551 1.398 . S
C552 C553 1.391 . S
C553 H541 0.950 . S
C553 C549 1.393 . S
C553 C552 1.391 . S
C554 H544 0.950 . S
C554 C555 1.386 . S
C554 C556 1.391 . S
C555 C554 1.386 . S
C555 C559 1.393 . S
C556 H545 0.950 . S
C556 C554 1.391 . S
C556 C557 1.400 . S
C557 C551 1.491 . S
C557 C556 1.400 . S
C557 C558 1.398 . S
C558 H546 0.950 . S
C558 C557 1.398 . S
C558 C559 1.391 . S
C559 H547 0.950 . S
C559 C555 1.393 . S
C559 C558 1.391 . S
H560 C568 0.950 . S
H561 C573 0.950 . S
H562 C570 0.950 . S
H563 C572 0.950 . S
H564 C574 0.950 . S
H565 C576 0.950 . S
H566 C578 0.950 . S
H567 C579 0.950 . S
C568 H560 0.950 . S
C568 C569 1.386 . S
C568 C570 1.391 . S
C569 C568 1.386 . S
C569 C573 1.393 . S
C570 H562 0.950 . S
C570 C568 1.391 . S
C570 C571 1.400 . S
C571 C570 1.400 . S
C571 C572 1.398 . S
C571 C577 1.491 . S
C572 H563 0.950 . S
C572 C571 1.398 . S
C572 C573 1.391 . S
C573 H561 0.950 . S
C573 C569 1.393 . S
C573 C572 1.391 . S
C574 H564 0.950 . S
C574 C575 1.386 . S
C574 C576 1.391 . S
C575 C574 1.386 . S
C575 C579 1.393 . S
C576 H565 0.950 . S
C576 C574 1.391 . S
C576 C577 1.400 . S
C577 C571 1.491 . S
C577 C576 1.400 . S
C577 C578 1.398 . S
C578 H566 0.950 . S
C578 C577 1.398 . S
C578 C579 1.391 . S
C579 H567 0.950 . S
C579 C575 1.393 . S
C579 C578 1.391 . S
H580 C588 0.950 . S
H581 C593 0.950 . S
H582 C590 0.950 . S
H583 C592 0.950 . S
H584 C594 0.950 . S
H585 C596 0.950 . S
H586 C598 0.950 . S
H587 C599 0.950 . S
C588 H580 0.950 . S
C588 C589 1.386 . S
C588 C590 1.391 . S
C589 C588 1.386 . S
C589 C593 1.393 . S
C590 H582 0.950 . S
C590 C588 1.391 . S
C590 C591 1.400 . S
C591 C590 1.400 . S
C591 C592 1.398 . S
C591 C597 1.491 . S
C592 H583 0.950 . S
C592 C591 1.398 . S
C592 C593 1.391 . S
C593 H581 0.950 . S
C593 C589 1.393 . S
C593 C592 1.391 . S
C594 H584 0.950 . S
C594 C595 1.386 . S
C594 C596 1.391 . S
C595 C594 1.386 . S
C595 C599 1.393 . S
C596 H585 0.950 . S
C596 C594 1.391 . S
C596 C597 1.400 . S
C597 C591 1.491 . S
C597 C596 1.400 . S
C597 C598 1.398 . S
C598 H586 0.950 . S
C598 C597 1.398 . S
C598 C599 1.391 . S
C599 H587 0.950 . S
C599 C595 1.393 . S
C599 C598 1.391 . S
H600 C608 0.950 . S
H601 C613 0.950 . S
H602 C610 0.950 . S
H603 C612 0.950 . S
H604 C614 0.929 1_554 S
H605 C616 0.950 . S
H606 C618 0.950 . S
H607 C619 0.950 . S
C608 H600 0.950 . S
C608 C609 1.386 . S
C608 C610 1.391 . S
C609 C608 1.386 . S
C609 C613 1.393 . S
C610 H602 0.950 . S
C610 C608 1.391 . S
C610 C611 1.400 . S
C611 C610 1.400 . S
C611 C612 1.398 . S
C611 C617 1.491 . S
C612 H603 0.950 . S
C612 C611 1.398 . S
C612 C613 1.391 . S
C613 H601 0.950 . S
C613 C609 1.393 . S
C613 C612 1.391 . S
C614 H604 0.929 1_556 S
C614 C615 1.386 . S
C614 C616 1.391 . S
C615 C614 1.386 . S
C615 C619 1.393 . S
C616 H605 0.950 . S
C616 C614 1.391 . S
C616 C617 1.400 . S
C617 C611 1.491 . S
C617 C616 1.400 . S
C617 C618 1.398 . S
C618 H606 0.950 . S
C618 C617 1.398 . S
C618 C619 1.391 . S
C619 H607 0.950 . S
C619 C615 1.393 . S
C619 C618 1.391 . S
H620 C628 0.950 . S
H621 C633 0.950 . S
H622 C630 0.950 . S
H623 C632 0.950 . S
H624 C634 0.950 . S
H625 C636 0.950 . S
H626 C638 0.950 . S
H627 C639 0.950 . S
C628 H620 0.950 . S
C628 C629 1.386 . S
C628 C630 1.391 . S
C629 C628 1.386 . S
C629 C633 1.393 . S
C630 H622 0.950 . S
C630 C628 1.391 . S
C630 C631 1.400 . S
C631 C630 1.400 . S
C631 C632 1.398 . S
C631 C637 1.491 . S
C632 H623 0.950 . S
C632 C631 1.398 . S
C632 C633 1.391 . S
C633 H621 0.950 . S
C633 C629 1.393 . S
C633 C632 1.391 . S
C634 H624 0.950 . S
C634 C635 1.386 . S
C634 C636 1.391 . S
C635 C634 1.386 . S
C635 C639 1.393 . S
C636 H625 0.950 . S
C636 C634 1.391 . S
C636 C637 1.400 . S
C637 C631 1.491 . S
C637 C636 1.400 . S
C637 C638 1.398 . S
C638 H626 0.950 . S
C638 C637 1.398 . S
C638 C639 1.391 . S
C639 H627 0.950 . S
C639 C635 1.393 . S
C639 C638 1.391 . S
H640 C648 0.950 . S
H641 C653 0.950 . S
H642 C650 0.950 . S
H643 C652 0.950 . S
H644 C654 0.950 . S
H645 C656 0.950 . S
H646 C658 0.950 . S
H647 C659 0.950 . S
C648 H640 0.950 . S
C648 C649 1.386 . S
C648 C650 1.391 . S
C649 C648 1.386 . S
C649 C653 1.393 . S
C650 H642 0.950 . S
C650 C648 1.391 . S
C650 C651 1.400 . S
C651 C650 1.400 . S
C651 C652 1.398 . S
C651 C657 1.491 . S
C652 H643 0.950 . S
C652 C651 1.398 . S
C652 C653 1.391 . S
C653 H641 0.950 . S
C653 C649 1.393 . S
C653 C652 1.391 . S
C654 H644 0.950 . S
C654 C655 1.386 . S
C654 C656 1.391 . S
C655 C654 1.386 . S
C655 C659 1.393 . S
C656 H645 0.950 . S
C656 C654 1.391 . S
C656 C657 1.400 . S
C657 C651 1.491 . S
C657 C656 1.400 . S
C657 C658 1.398 . S
C658 H646 0.950 . S
C658 C657 1.398 . S
C658 C659 1.391 . S
C659 H647 0.950 . S
C659 C655 1.393 . S
C659 C658 1.391 . S
H660 C668 0.950 . S
H661 C673 0.950 . S
H662 C670 0.950 . S
H663 C672 0.950 . S
H664 C674 0.950 . S
H665 C676 0.950 . S
H666 C678 0.950 . S
H667 C679 0.950 . S
C668 H660 0.950 . S
C668 C669 1.386 . S
C668 C670 1.391 . S
C669 C668 1.386 . S
C669 C673 1.393 . S
C670 H662 0.950 . S
C670 C668 1.391 . S
C670 C671 1.400 . S
C671 C670 1.400 . S
C671 C672 1.398 . S
C671 C677 1.491 . S
C672 H663 0.950 . S
C672 C671 1.398 . S
C672 C673 1.391 . S
C673 H661 0.950 . S
C673 C669 1.393 . S
C673 C672 1.391 . S
C674 H664 0.950 . S
C674 C675 1.386 . S
C674 C676 1.391 . S
C675 C674 1.386 . S
C675 C679 1.393 . S
C676 H665 0.950 . S
C676 C674 1.391 . S
C676 C677 1.400 . S
C677 C671 1.491 . S
C677 C676 1.400 . S
C677 C678 1.398 . S
C678 H666 0.950 . S
C678 C677 1.398 . S
C678 C679 1.391 . S
C679 H667 0.950 . S
C679 C675 1.393 . S
C679 C678 1.391 . S
H680 C688 0.950 . S
H681 C693 0.950 . S
H682 C690 0.950 . S
H683 C692 0.950 . S
H684 C694 0.950 . S
H685 C696 0.950 . S
H686 C698 0.950 . S
H687 C699 0.950 . S
C688 H680 0.950 . S
C688 C689 1.386 . S
C688 C690 1.391 . S
C689 C688 1.386 . S
C689 C693 1.393 . S
C690 H682 0.950 . S
C690 C688 1.391 . S
C690 C691 1.400 . S
C691 C690 1.400 . S
C691 C692 1.398 . S
C691 C697 1.491 . S
C692 H683 0.950 . S
C692 C691 1.398 . S
C692 C693 1.391 . S
C693 H681 0.950 . S
C693 C689 1.393 . S
C693 C692 1.391 . S
C694 H684 0.950 . S
C694 C695 1.386 . S
C694 C696 1.391 . S
C695 C694 1.386 . S
C695 C699 1.393 . S
C696 H685 0.950 . S
C696 C694 1.391 . S
C696 C697 1.400 . S
C697 C691 1.491 . S
C697 C696 1.400 . S
C697 C698 1.398 . S
C698 H686 0.950 . S
C698 C697 1.398 . S
C698 C699 1.391 . S
C699 H687 0.950 . S
C699 C695 1.393 . S
C699 C698 1.391 . S
H700 C708 0.950 . S
H701 C713 0.950 . S
H702 C710 0.950 . S
H703 C712 0.950 . S
H704 C714 0.950 . S
H705 C716 0.950 . S
H706 C718 0.950 . S
H707 C719 0.950 . S
C708 H700 0.950 . S
C708 C709 1.386 . S
C708 C710 1.391 . S
C709 C708 1.386 . S
C709 C713 1.393 . S
C710 H702 0.950 . S
C710 C708 1.391 . S
C710 C711 1.400 . S
C711 C710 1.400 . S
C711 C712 1.398 . S
C711 C717 1.491 . S
C712 H703 0.950 . S
C712 C711 1.398 . S
C712 C713 1.391 . S
C713 H701 0.950 . S
C713 C709 1.393 . S
C713 C712 1.391 . S
C714 H704 0.950 . S
C714 C715 1.386 . S
C714 C716 1.391 . S
C715 C714 1.386 . S
C715 C719 1.393 . S
C716 H705 0.950 . S
C716 C714 1.391 . S
C716 C717 1.400 . S
C717 C711 1.491 . S
C717 C716 1.400 . S
C717 C718 1.398 . S
C718 H706 0.950 . S
C718 C717 1.398 . S
C718 C719 1.391 . S
C719 H707 0.950 . S
C719 C715 1.393 . S
C719 C718 1.391 . S
H720 C728 0.950 . S
H721 C733 0.950 . S
H722 C730 0.950 . S
H723 C732 0.950 . S
H724 C734 0.950 . S
H725 C736 0.950 . S
H726 C738 0.950 . S
H727 C739 0.950 . S
C728 H720 0.950 . S
C728 C729 1.386 . S
C728 C730 1.391 . S
C729 C728 1.386 . S
C729 C733 1.393 . S
C730 H722 0.950 . S
C730 C728 1.391 . S
C730 C731 1.400 . S
C731 C730 1.400 . S
C731 C732 1.398 . S
C731 C737 1.491 . S
C732 H723 0.950 . S
C732 C731 1.398 . S
C732 C733 1.391 . S
C733 H721 0.950 . S
C733 C729 1.393 . S
C733 C732 1.391 . S
C734 H724 0.950 . S
C734 C735 1.386 . S
C734 C736 1.391 . S
C735 C734 1.386 . S
C735 C739 1.393 . S
C736 H725 0.950 . S
C736 C734 1.391 . S
C736 C737 1.400 . S
C737 C731 1.491 . S
C737 C736 1.400 . S
C737 C738 1.398 . S
C738 H726 0.950 . S
C738 C737 1.398 . S
C738 C739 1.391 . S
C739 H727 0.950 . S
C739 C735 1.393 . S
C739 C738 1.391 . S
H740 C748 0.950 . S
H741 C753 0.950 . S
H742 C750 0.950 . S
H743 C752 0.950 . S
H744 C754 0.950 . S
H745 C756 0.950 . S
H746 C758 0.950 . S
H747 C759 0.950 . S
C748 H740 0.950 . S
C748 C749 1.386 . S
C748 C750 1.391 . S
C749 C748 1.386 . S
C749 C753 1.393 . S
C750 H742 0.950 . S
C750 C748 1.391 . S
C750 C751 1.400 . S
C751 C750 1.400 . S
C751 C752 1.398 . S
C751 C757 1.491 . S
C752 H743 0.950 . S
C752 C751 1.398 . S
C752 C753 1.391 . S
C753 H741 0.950 . S
C753 C749 1.393 . S
C753 C752 1.391 . S
C754 H744 0.950 . S
C754 C755 1.386 . S
C754 C756 1.391 . S
C755 C754 1.386 . S
C755 C759 1.393 . S
C756 H745 0.950 . S
C756 C754 1.391 . S
C756 C757 1.400 . S
C757 C751 1.491 . S
C757 C756 1.400 . S
C757 C758 1.398 . S
C758 H746 0.950 . S
C758 C757 1.398 . S
C758 C759 1.391 . S
C759 H747 0.950 . S
C759 C755 1.393 . S
C759 C758 1.391 . S
H760 C768 0.950 . S
H761 C773 0.950 . S
H762 C770 0.950 . S
H763 C772 0.950 . S
H764 C774 0.950 . S
H765 C776 0.950 . S
H766 C778 0.950 . S
H767 C779 0.950 . S
C768 H760 0.950 . S
C768 C769 1.386 . S
C768 C770 1.391 . S
C769 C768 1.386 . S
C769 C773 1.393 . S
C770 H762 0.950 . S
C770 C768 1.391 . S
C770 C771 1.400 . S
C771 C770 1.400 . S
C771 C772 1.398 . S
C771 C777 1.491 . S
C772 H763 0.950 . S
C772 C771 1.398 . S
C772 C773 1.391 . S
C773 H761 0.950 . S
C773 C769 1.393 . S
C773 C772 1.391 . S
C774 H764 0.950 . S
C774 C775 1.386 . S
C774 C776 1.391 . S
C775 C774 1.386 . S
C775 C779 1.393 . S
C776 H765 0.950 . S
C776 C774 1.391 . S
C776 C777 1.400 . S
C777 C771 1.491 . S
C777 C776 1.400 . S
C777 C778 1.398 . S
C778 H766 0.950 . S
C778 C777 1.398 . S
C778 C779 1.391 . S
C779 H767 0.950 . S
C779 C775 1.393 . S
C779 C778 1.391 . S
H780 C788 0.950 . S
H781 C793 0.950 . S
H782 C790 0.950 . S
H783 C792 0.950 . S
H784 C794 0.950 . S
H785 C796 0.950 . S
H786 C798 0.950 . S
H787 C799 0.950 . S
C788 H780 0.950 . S
C788 C789 1.386 . S
C788 C790 1.391 . S
C789 C788 1.386 . S
C789 C793 1.393 . S
C790 H782 0.950 . S
C790 C788 1.391 . S
C790 C791 1.400 . S
C791 C790 1.400 . S
C791 C792 1.398 . S
C791 C797 1.491 . S
C792 H783 0.950 . S
C792 C791 1.398 . S
C792 C793 1.391 . S
C793 H781 0.950 . S
C793 C789 1.393 . S
C793 C792 1.391 . S
C794 H784 0.950 . S
C794 C795 1.386 . S
C794 C796 1.391 . S
C795 C794 1.386 . S
C795 C799 1.393 . S
C796 H785 0.950 . S
C796 C794 1.391 . S
C796 C797 1.400 1_556 S
C797 C791 1.491 . S
C797 C796 1.400 1_554 S
C797 C798 1.398 . S
C798 H786 0.950 . S
C798 C797 1.398 . S
C798 C799 1.391 1_554 S
C799 H787 0.950 . S
C799 C795 1.393 . S
C799 C798 1.391 1_556 S
H800 C808 0.950 . S
H801 C813 0.950 . S
H802 C810 0.950 . S
H803 C812 0.950 . S
H804 C814 0.950 . S
H805 C816 0.950 . S
H806 C818 0.950 . S
H807 C819 0.950 . S
C808 H800 0.950 . S
C808 C809 1.386 . S
C808 C810 1.391 . S
C809 C808 1.386 . S
C809 C813 1.393 . S
C810 H802 0.950 . S
C810 C808 1.391 . S
C810 C811 1.400 . S
C811 C810 1.400 . S
C811 C812 1.398 . S
C811 C817 1.491 . S
C812 H803 0.950 . S
C812 C811 1.398 . S
C812 C813 1.391 . S
C813 H801 0.950 . S
C813 C809 1.393 . S
C813 C812 1.391 . S
C814 H804 0.950 . S
C814 C815 1.386 . S
C814 C816 1.391 . S
C815 C814 1.386 . S
C815 C819 1.393 . S
C816 H805 0.950 . S
C816 C814 1.391 . S
C816 C817 1.400 . S
C817 C811 1.491 . S
C817 C816 1.400 . S
C817 C818 1.398 . S
C818 H806 0.950 . S
C818 C817 1.398 . S
C818 C819 1.391 . S
C819 H807 0.950 . S
C819 C815 1.393 . S
C819 C818 1.391 . S
H820 C828 0.950 . S
H821 C833 0.950 . S
H822 C830 0.950 . S
H823 C832 0.950 . S
H824 C834 0.950 . S
H825 C836 0.950 . S
H826 C838 0.950 . S
H827 C839 0.950 . S
C828 H820 0.950 . S
C828 C829 1.386 . S
C828 C830 1.391 . S
C829 C828 1.386 . S
C829 C833 1.393 . S
C830 H822 0.950 . S
C830 C828 1.391 . S
C830 C831 1.400 . S
C831 C830 1.400 . S
C831 C832 1.398 . S
C831 C837 1.491 1_554 S
C832 H823 0.950 . S
C832 C831 1.398 . S
C832 C833 1.391 . S
C833 H821 0.950 . S
C833 C829 1.393 . S
C833 C832 1.391 . S
C834 H824 0.950 . S
C834 C835 1.386 . S
C834 C836 1.391 . S
C835 C834 1.386 . S
C835 C839 1.393 . S
C836 H825 0.950 . S
C836 C834 1.391 . S
C836 C837 1.400 . S
C837 C831 1.491 1_556 S
C837 C836 1.400 . S
C837 C838 1.398 . S
C838 H826 0.950 . S
C838 C837 1.398 . S
C838 C839 1.391 . S
C839 H827 0.950 . S
C839 C835 1.393 . S
C839 C838 1.391 . S
H840 C848 0.950 . S
H841 C853 0.950 . S
H842 C850 0.950 . S
H843 C852 0.950 . S
H844 C854 0.950 . S
H845 C856 0.950 . S
H846 C858 0.950 . S
H847 C859 0.950 . S
C848 H840 0.950 . S
C848 C849 1.386 . S
C848 C850 1.391 . S
C849 C848 1.386 . S
C849 C853 1.393 . S
C850 H842 0.950 . S
C850 C848 1.391 . S
C850 C851 1.400 . S
C851 C850 1.400 . S
C851 C852 1.398 . S
C851 C857 1.491 . S
C852 H843 0.950 . S
C852 C851 1.398 . S
C852 C853 1.391 . S
C853 H841 0.950 . S
C853 C849 1.393 . S
C853 C852 1.391 . S
C854 H844 0.950 . S
C854 C855 1.386 . S
C854 C856 1.391 . S
C855 C854 1.386 . S
C855 C859 1.393 . S
C856 H845 0.950 . S
C856 C854 1.391 . S
C856 C857 1.400 . S
C857 C851 1.491 . S
C857 C856 1.400 . S
C857 C858 1.398 . S
C858 H846 0.950 . S
C858 C857 1.398 . S
C858 C859 1.391 . S
C859 H847 0.950 . S
C859 C855 1.393 . S
C859 C858 1.391 . S
H860 C868 0.950 . S
H861 C873 0.950 . S
H862 C870 0.950 . S
H863 C872 0.950 . S
H864 C874 0.950 . S
H865 C876 0.950 . S
H866 C878 0.950 . S
H867 C879 0.950 . S
C868 H860 0.950 . S
C868 C869 1.386 . S
C868 C870 1.391 . S
C869 C868 1.386 . S
C869 C873 1.393 . S
C870 H862 0.950 . S
C870 C868 1.391 . S
C870 C871 1.400 . S
C871 C870 1.400 . S
C871 C872 1.398 . S
C871 C877 1.491 . S
C872 H863 0.950 . S
C872 C871 1.398 . S
C872 C873 1.391 . S
C873 H861 0.950 . S
C873 C869 1.393 . S
C873 C872 1.391 . S
C874 H864 0.950 . S
C874 C875 1.386 . S
C874 C876 1.391 . S
C875 C874 1.386 . S
C875 C879 1.393 . S
C876 H865 0.950 . S
C876 C874 1.391 . S
C876 C877 1.400 . S
C877 C871 1.491 . S
C877 C876 1.400 . S
C877 C878 1.398 . S
C878 H866 0.950 . S
C878 C877 1.398 . S
C878 C879 1.391 . S
C879 H867 0.950 . S
C879 C875 1.393 . S
C879 C878 1.391 . S
H880 C888 0.950 . S
H881 C893 0.950 . S
H882 C890 0.950 . S
H883 C892 0.950 . S
H884 C894 0.950 . S
H885 C896 0.950 . S
H886 C898 0.950 . S
H887 C899 0.950 . S
C888 H880 0.950 . S
C888 C889 1.386 . S
C888 C890 1.391 . S
C889 C888 1.386 . S
C889 C893 1.393 . S
C890 H882 0.950 . S
C890 C888 1.391 . S
C890 C891 1.400 . S
C891 C890 1.400 . S
C891 C892 1.398 . S
C891 C897 1.491 . S
C892 H883 0.950 . S
C892 C891 1.398 . S
C892 C893 1.391 . S
C893 H881 0.950 . S
C893 C889 1.393 . S
C893 C892 1.391 . S
C894 H884 0.950 . S
C894 C895 1.386 . S
C894 C896 1.391 . S
C895 C894 1.386 . S
C895 C899 1.393 . S
C896 H885 0.950 . S
C896 C894 1.391 . S
C896 C897 1.400 . S
C897 C891 1.491 . S
C897 C896 1.400 . S
C897 C898 1.398 . S
C898 H886 0.950 . S
C898 C897 1.398 . S
C898 C899 1.391 . S
C899 H887 0.950 . S
C899 C895 1.393 . S
C899 C898 1.391 . S
H900 C908 0.950 . S
H901 C913 0.950 . S
H902 C910 0.950 . S
H903 C912 0.950 . S
H904 C914 0.950 1_655 S
H905 C916 0.950 . S
H906 C918 0.950 . S
H907 C919 0.950 . S
C908 H900 0.950 . S
C908 C909 1.386 . S
C908 C910 1.391 . S
C909 C908 1.386 . S
C909 C913 1.393 . S
C910 H902 0.950 . S
C910 C908 1.391 . S
C910 C911 1.400 . S
C911 C910 1.400 . S
C911 C912 1.398 . S
C911 C917 1.491 1_545 S
C912 H903 0.950 . S
C912 C911 1.398 . S
C912 C913 1.391 . S
C913 H901 0.950 . S
C913 C909 1.393 . S
C913 C912 1.391 . S
C914 H904 0.950 1_455 S
C914 C915 1.386 . S
C914 C916 1.391 . S
C915 C914 1.386 . S
C915 C919 1.393 . S
C916 H905 0.950 . S
C916 C914 1.391 . S
C916 C917 1.400 . S
C917 C911 1.491 1_565 S
C917 C916 1.400 . S
C917 C918 1.398 . S
C918 H906 0.950 . S
C918 C917 1.398 . S
C918 C919 1.391 . S
C919 H907 0.950 . S
C919 C915 1.393 . S
C919 C918 1.391 . S
H920 C928 0.950 . S
H921 C933 0.950 . S
H922 C930 0.950 . S
H923 C932 0.950 . S
H924 C934 0.950 . S
H925 C936 0.950 . S
H926 C938 0.950 . S
H927 C939 0.950 . S
C928 H920 0.950 . S
C928 C929 1.386 . S
C928 C930 1.391 . S
C929 C928 1.386 . S
C929 C933 1.393 . S
C930 H922 0.950 . S
C930 C928 1.391 . S
C930 C931 1.400 . S
C931 C930 1.400 . S
C931 C932 1.398 . S
C931 C937 1.491 . S
C932 H923 0.950 . S
C932 C931 1.398 . S
C932 C933 1.391 . S
C933 H921 0.950 . S
C933 C929 1.393 . S
C933 C932 1.391 . S
C934 H924 0.950 . S
C934 C935 1.386 . S
C934 C936 1.391 . S
C935 C934 1.386 . S
C935 C939 1.393 . S
C936 H925 0.950 . S
C936 C934 1.391 . S
C936 C937 1.400 . S
C937 C931 1.491 . S
C937 C936 1.400 . S
C937 C938 1.398 . S
C938 H926 0.950 . S
C938 C937 1.398 . S
C938 C939 1.391 . S
C939 H927 0.950 . S
C939 C935 1.393 . S
C939 C938 1.391 . S
H940 C948 0.950 . S
H941 C953 0.950 . S
H942 C950 0.950 . S
H943 C952 0.950 . S
H944 C954 0.950 . S
H945 C956 0.950 . S
H946 C958 0.950 1_545 S
H947 C959 0.950 . S
C948 H940 0.950 . S
C948 C949 1.386 . S
C948 C950 1.391 . S
C949 C948 1.386 . S
C949 C953 1.393 . S
C950 H942 0.950 . S
C950 C948 1.391 . S
C950 C951 1.400 . S
C951 C950 1.400 . S
C951 C952 1.398 . S
C951 C957 1.491 1_545 S
C952 H943 0.950 . S
C952 C951 1.398 . S
C952 C953 1.391 . S
C953 H941 0.950 . S
C953 C949 1.393 . S
C953 C952 1.391 . S
C954 H944 0.950 . S
C954 C955 1.386 . S
C954 C956 1.391 . S
C955 C954 1.386 . S
C955 C959 1.393 . S
C956 H945 0.950 . S
C956 C954 1.391 . S
C956 C957 1.400 . S
C957 C951 1.491 1_565 S
C957 C956 1.400 . S
C957 C958 1.398 . S
C958 H946 0.950 1_565 S
C958 C957 1.398 . S
C958 C959 1.391 . S
C959 H947 0.950 . S
C959 C955 1.393 . S
C959 C958 1.391 . S
H960 C968 0.950 . S
H961 C973 0.950 . S
H962 C970 0.950 . S
H963 C972 0.950 . S
H964 C974 0.950 . S
H965 C976 0.950 . S
H966 C978 0.950 . S
H967 C979 0.950 . S
C968 H960 0.950 . S
C968 C969 1.386 . S
C968 C970 1.391 . S
C969 C968 1.386 . S
C969 C973 1.393 . S
C970 H962 0.950 . S
C970 C968 1.391 . S
C970 C971 1.400 . S
C971 C970 1.400 . S
C971 C972 1.398 . S
C971 C977 1.491 . S
C972 H963 0.950 . S
C972 C971 1.398 . S
C972 C973 1.391 . S
C973 H961 0.950 . S
C973 C969 1.393 . S
C973 C972 1.391 . S
C974 H964 0.950 . S
C974 C975 1.386 . S
C974 C976 1.391 . S
C975 C974 1.386 . S
C975 C979 1.393 . S
C976 H965 0.950 . S
C976 C974 1.391 . S
C976 C977 1.400 . S
C977 C971 1.491 . S
C977 C976 1.400 . S
C977 C978 1.398 . S
C978 H966 0.950 . S
C978 C977 1.398 . S
C978 C979 1.391 . S
C979 H967 0.950 . S
C979 C975 1.393 . S
C979 C978 1.391 . S
H980 C988 0.950 . S
H981 C993 0.950 . S
H982 C990 0.950 . S
H983 C992 0.950 . S
H984 C994 0.950 . S
H985 C996 0.950 . S
H986 C998 0.950 . S
H987 C999 0.950 . S
C988 H980 0.950 . S
C988 C989 1.386 . S
C988 C990 1.391 . S
C989 C988 1.386 . S
C989 C993 1.393 . S
C990 H982 0.950 . S
C990 C988 1.391 . S
C990 C991 1.400 . S
C991 C990 1.400 . S
C991 C992 1.398 . S
C991 C997 1.491 . S
C992 H983 0.950 . S
C992 C991 1.398 . S
C992 C993 1.391 . S
C993 H981 0.950 . S
C993 C989 1.393 . S
C993 C992 1.391 . S
C994 H984 0.950 . S
C994 C995 1.386 . S
C994 C996 1.391 . S
C995 C994 1.386 . S
C995 C999 1.393 . S
C996 H985 0.950 . S
C996 C994 1.391 . S
C996 C997 1.400 . S
C997 C991 1.491 . S
C997 C996 1.400 . S
C997 C998 1.398 . S
C998 H986 0.950 . S
C998 C997 1.398 . S
C998 C999 1.391 . S
C999 H987 0.950 . S
C999 C995 1.393 . S
C999 C998 1.391 . S
H1000 C1008 0.950 . S
H1001 C1013 0.950 . S
H1002 C1010 0.950 . S
H1003 C1012 0.950 . S
H1004 C1014 0.950 . S
H1005 C1016 0.950 . S
H1006 C1018 0.950 . S
H1007 C1019 0.950 . S
C1008 H1000 0.950 . S
C1008 C1009 1.386 . S
C1008 C1010 1.391 . S
C1009 C1008 1.386 . S
C1009 C1013 1.393 . S
C1010 H1002 0.950 . S
C1010 C1008 1.391 . S
C1010 C1011 1.400 . S
C1011 C1010 1.400 . S
C1011 C1012 1.398 . S
C1011 C1017 1.491 . S
C1012 H1003 0.950 . S
C1012 C1011 1.398 . S
C1012 C1013 1.391 . S
C1013 H1001 0.950 . S
C1013 C1009 1.393 . S
C1013 C1012 1.391 . S
C1014 H1004 0.950 . S
C1014 C1015 1.386 . S
C1014 C1016 1.391 . S
C1015 C1014 1.386 . S
C1015 C1019 1.393 . S
C1016 H1005 0.950 . S
C1016 C1014 1.391 . S
C1016 C1017 1.400 . S
C1017 C1011 1.491 . S
C1017 C1016 1.400 . S
C1017 C1018 1.398 . S
C1018 H1006 0.950 . S
C1018 C1017 1.398 . S
C1018 C1019 1.391 . S
C1019 H1007 0.950 . S
C1019 C1015 1.393 . S
C1019 C1018 1.391 . S
H1020 C1028 0.950 . S
H1021 C1033 0.950 . S
H1022 C1030 0.950 . S
H1023 C1032 0.950 . S
H1024 C1034 0.950 . S
H1025 C1036 0.950 . S
H1026 C1038 0.950 . S
H1027 C1039 0.950 . S
C1028 H1020 0.950 . S
C1028 C1029 1.386 . S
C1028 C1030 1.391 . S
C1029 C1028 1.386 . S
C1029 C1033 1.393 . S
C1030 H1022 0.950 . S
C1030 C1028 1.391 . S
C1030 C1031 1.400 . S
C1031 C1030 1.400 . S
C1031 C1032 1.398 . S
C1031 C1037 1.491 . S
C1032 H1023 0.950 . S
C1032 C1031 1.398 . S
C1032 C1033 1.391 . S
C1033 H1021 0.950 . S
C1033 C1029 1.393 . S
C1033 C1032 1.391 . S
C1034 H1024 0.950 . S
C1034 C1035 1.386 . S
C1034 C1036 1.391 . S
C1035 C1034 1.386 . S
C1035 C1039 1.393 . S
C1036 H1025 0.950 . S
C1036 C1034 1.391 . S
C1036 C1037 1.400 . S
C1037 C1031 1.491 . S
C1037 C1036 1.400 . S
C1037 C1038 1.398 . S
C1038 H1026 0.950 . S
C1038 C1037 1.398 . S
C1038 C1039 1.391 . S
C1039 H1027 0.950 . S
C1039 C1035 1.393 . S
C1039 C1038 1.391 . S
H1040 C1048 0.950 . S
H1041 C1053 0.950 . S
H1042 C1050 0.950 . S
H1043 C1052 0.950 . S
H1044 C1054 0.950 . S
H1045 C1056 0.950 . S
H1046 C1058 0.950 . S
H1047 C1059 0.950 . S
C1048 H1040 0.950 . S
C1048 C1049 1.386 . S
C1048 C1050 1.391 . S
C1049 C1048 1.386 . S
C1049 C1053 1.393 . S
C1050 H1042 0.950 . S
C1050 C1048 1.391 . S
C1050 C1051 1.400 . S
C1051 C1050 1.400 . S
C1051 C1052 1.398 . S
C1051 C1057 1.491 . S
C1052 H1043 0.950 . S
C1052 C1051 1.398 . S
C1052 C1053 1.391 . S
C1053 H1041 0.950 . S
C1053 C1049 1.393 . S
C1053 C1052 1.391 . S
C1054 H1044 0.950 . S
C1054 C1055 1.386 . S
C1054 C1056 1.391 . S
C1055 C1054 1.386 . S
C1055 C1059 1.393 . S
C1056 H1045 0.950 . S
C1056 C1054 1.391 . S
C1056 C1057 1.400 . S
C1057 C1051 1.491 . S
C1057 C1056 1.400 . S
C1057 C1058 1.398 . S
C1058 H1046 0.950 . S
C1058 C1057 1.398 . S
C1058 C1059 1.391 . S
C1059 H1047 0.950 . S
C1059 C1055 1.393 . S
C1059 C1058 1.391 . S
H1060 C1068 0.950 . S
H1061 C1073 0.950 . S
H1062 C1070 0.950 . S
H1063 C1072 0.950 . S
H1064 C1074 0.950 . S
H1065 C1076 0.950 . S
H1066 C1078 0.950 . S
H1067 C1079 0.950 . S
C1068 H1060 0.950 . S
C1068 C1069 1.386 . S
C1068 C1070 1.391 . S
C1069 C1068 1.386 . S
C1069 C1073 1.393 . S
C1070 H1062 0.950 . S
C1070 C1068 1.391 . S
C1070 C1071 1.400 . S
C1071 C1070 1.400 . S
C1071 C1072 1.398 . S
C1071 C1077 1.491 . S
C1072 H1063 0.950 . S
C1072 C1071 1.398 . S
C1072 C1073 1.391 . S
C1073 H1061 0.950 . S
C1073 C1069 1.393 . S
C1073 C1072 1.391 . S
C1074 H1064 0.950 . S
C1074 C1075 1.386 . S
C1074 C1076 1.391 . S
C1075 C1074 1.386 . S
C1075 C1079 1.393 . S
C1076 H1065 0.950 . S
C1076 C1074 1.391 . S
C1076 C1077 1.400 . S
C1077 C1071 1.491 . S
C1077 C1076 1.400 . S
C1077 C1078 1.398 . S
C1078 H1066 0.950 . S
C1078 C1077 1.398 . S
C1078 C1079 1.391 . S
C1079 H1067 0.950 . S
C1079 C1075 1.393 . S
C1079 C1078 1.391 . S
H1080 C1088 0.950 . S
H1081 C1093 0.950 . S
H1082 C1090 0.950 . S
H1083 C1092 0.950 . S
H1084 C1094 0.950 . S
H1085 C1096 0.950 . S
H1086 C1098 0.950 1_455 S
H1087 C1099 0.950 . S
C1088 H1080 0.950 . S
C1088 C1089 1.386 . S
C1088 C1090 1.391 . S
C1089 C1088 1.386 . S
C1089 C1093 1.393 . S
C1090 H1082 0.950 . S
C1090 C1088 1.391 . S
C1090 C1091 1.400 . S
C1091 C1090 1.400 . S
C1091 C1092 1.398 . S
C1091 C1097 1.491 . S
C1092 H1083 0.950 . S
C1092 C1091 1.398 . S
C1092 C1093 1.391 . S
C1093 H1081 0.950 . S
C1093 C1089 1.393 . S
C1093 C1092 1.391 . S
C1094 H1084 0.950 . S
C1094 C1095 1.386 . S
C1094 C1096 1.391 . S
C1095 C1094 1.386 . S
C1095 C1099 1.393 . S
C1096 H1085 0.950 . S
C1096 C1094 1.391 . S
C1096 C1097 1.400 1_655 S
C1097 C1091 1.491 . S
C1097 C1096 1.400 1_455 S
C1097 C1098 1.398 1_455 S
C1098 H1086 0.950 1_655 S
C1098 C1097 1.398 1_655 S
C1098 C1099 1.391 . S
C1099 H1087 0.950 . S
C1099 C1095 1.393 . S
C1099 C1098 1.391 . S
H1100 C1108 0.950 . S
H1101 C1113 0.950 . S
H1102 C1110 0.950 . S
H1103 C1112 0.950 . S
H1104 C1114 0.950 . S
H1105 C1116 0.950 . S
H1106 C1118 0.950 . S
H1107 C1119 0.950 . S
C1108 H1100 0.950 . S
C1108 C1109 1.386 . S
C1108 C1110 1.391 . S
C1109 C1108 1.386 . S
C1109 C1113 1.393 . S
C1110 H1102 0.950 . S
C1110 C1108 1.391 . S
C1110 C1111 1.400 . S
C1111 C1110 1.400 . S
C1111 C1112 1.398 . S
C1111 C1117 1.491 . S
C1112 H1103 0.950 . S
C1112 C1111 1.398 . S
C1112 C1113 1.391 . S
C1113 H1101 0.950 . S
C1113 C1109 1.393 . S
C1113 C1112 1.391 . S
C1114 H1104 0.950 . S
C1114 C1115 1.386 . S
C1114 C1116 1.391 . S
C1115 C1114 1.386 . S
C1115 C1119 1.393 . S
C1116 H1105 0.950 . S
C1116 C1114 1.391 . S
C1116 C1117 1.400 . S
C1117 C1111 1.491 . S
C1117 C1116 1.400 . S
C1117 C1118 1.398 . S
C1118 H1106 0.950 . S
C1118 C1117 1.398 . S
C1118 C1119 1.391 . S
C1119 H1107 0.950 . S
C1119 C1115 1.393 . S
C1119 C1118 1.391 . S
H1120 C1128 0.950 . S
H1121 C1133 0.950 . S
H1122 C1130 0.950 . S
H1123 C1132 0.950 . S
H1124 C1134 0.950 . S
H1125 C1136 0.950 . S
H1126 C1138 0.950 . S
H1127 C1139 0.950 . S
C1128 H1120 0.950 . S
C1128 C1129 1.386 . S
C1128 C1130 1.391 . S
C1129 C1128 1.386 . S
C1129 C1133 1.393 . S
C1130 H1122 0.950 . S
C1130 C1128 1.391 . S
C1130 C1131 1.400 . S
C1131 C1130 1.400 . S
C1131 C1132 1.398 . S
C1131 C1137 1.491 . S
C1132 H1123 0.950 . S
C1132 C1131 1.398 . S
C1132 C1133 1.391 . S
C1133 H1121 0.950 . S
C1133 C1129 1.393 . S
C1133 C1132 1.391 . S
C1134 H1124 0.950 . S
C1134 C1135 1.386 . S
C1134 C1136 1.391 . S
C1135 C1134 1.386 . S
C1135 C1139 1.393 . S
C1136 H1125 0.950 . S
C1136 C1134 1.391 . S
C1136 C1137 1.400 . S
C1137 C1131 1.491 . S
C1137 C1136 1.400 . S
C1137 C1138 1.398 . S
C1138 H1126 0.950 . S
C1138 C1137 1.398 . S
C1138 C1139 1.391 . S
C1139 H1127 0.950 . S
C1139 C1135 1.393 . S
C1139 C1138 1.391 . S
H1140 C1148 0.950 . S
H1141 C1153 0.950 . S
H1142 C1150 0.950 . S
H1143 C1152 0.950 . S
H1144 C1154 0.950 . S
H1145 C1156 0.950 . S
H1146 C1158 0.950 . S
H1147 C1159 0.950 . S
C1148 H1140 0.950 . S
C1148 C1149 1.386 . S
C1148 C1150 1.391 . S
C1149 C1148 1.386 . S
C1149 C1153 1.393 . S
C1150 H1142 0.950 . S
C1150 C1148 1.391 . S
C1150 C1151 1.400 . S
C1151 C1150 1.400 . S
C1151 C1152 1.398 . S
C1151 C1157 1.491 . S
C1152 H1143 0.950 . S
C1152 C1151 1.398 . S
C1152 C1153 1.391 . S
C1153 H1141 0.950 . S
C1153 C1149 1.393 . S
C1153 C1152 1.391 . S
C1154 H1144 0.950 . S
C1154 C1155 1.386 . S
C1154 C1156 1.391 . S
C1155 C1154 1.386 . S
C1155 C1159 1.393 . S
C1156 H1145 0.950 . S
C1156 C1154 1.391 . S
C1156 C1157 1.400 . S
C1157 C1151 1.491 . S
C1157 C1156 1.400 . S
C1157 C1158 1.398 . S
C1158 H1146 0.950 . S
C1158 C1157 1.398 . S
C1158 C1159 1.391 . S
C1159 H1147 0.950 . S
C1159 C1155 1.393 . S
C1159 C1158 1.391 . S
H1160 C1168 0.950 . S
H1161 C1173 0.950 1_554 S
H1162 C1170 0.950 . S
H1163 C1172 0.950 . S
H1164 C1174 0.950 . S
H1165 C1176 0.950 . S
H1166 C1178 0.950 . S
H1167 C1179 0.950 . S
C1168 H1160 0.950 . S
C1168 C1169 1.386 . S
C1168 C1170 1.391 . S
C1169 C1168 1.386 . S
C1169 C1173 1.393 . S
C1170 H1162 0.950 . S
C1170 C1168 1.391 . S
C1170 C1171 1.400 . S
C1171 C1170 1.400 . S
C1171 C1172 1.398 . S
C1171 C1177 1.491 . S
C1172 H1163 0.950 . S
C1172 C1171 1.398 . S
C1172 C1173 1.391 . S
C1173 H1161 0.950 1_556 S
C1173 C1169 1.393 . S
C1173 C1172 1.391 . S
C1174 H1164 0.950 . S
C1174 C1175 1.386 . S
C1174 C1176 1.391 . S
C1175 C1174 1.386 . S
C1175 C1179 1.393 . S
C1176 H1165 0.950 . S
C1176 C1174 1.391 . S
C1176 C1177 1.400 . S
C1177 C1171 1.491 . S
C1177 C1176 1.400 . S
C1177 C1178 1.398 . S
C1178 H1166 0.950 . S
C1178 C1177 1.398 . S
C1178 C1179 1.391 . S
C1179 H1167 0.950 . S
C1179 C1175 1.393 . S
C1179 C1178 1.391 . S
H1180 C1188 0.950 . S
H1181 C1193 0.950 . S
H1182 C1190 0.950 . S
H1183 C1192 0.950 . S
H1184 C1194 0.950 . S
H1185 C1196 0.950 . S
H1186 C1198 0.950 . S
H1187 C1199 0.950 . S
C1188 H1180 0.950 . S
C1188 C1189 1.386 . S
C1188 C1190 1.391 . S
C1189 C1188 1.386 . S
C1189 C1193 1.393 . S
C1190 H1182 0.950 . S
C1190 C1188 1.391 . S
C1190 C1191 1.400 . S
C1191 C1190 1.400 . S
C1191 C1192 1.398 . S
C1191 C1197 1.491 . S
C1192 H1183 0.950 . S
C1192 C1191 1.398 . S
C1192 C1193 1.391 . S
C1193 H1181 0.950 . S
C1193 C1189 1.393 . S
C1193 C1192 1.391 . S
C1194 H1184 0.950 . S
C1194 C1195 1.386 . S
C1194 C1196 1.391 1_455 S
C1195 C1194 1.386 . S
C1195 C1199 1.393 . S
C1196 H1185 0.950 . S
C1196 C1194 1.391 1_655 S
C1196 C1197 1.400 . S
C1197 C1191 1.491 . S
C1197 C1196 1.400 . S
C1197 C1198 1.398 1_655 S
C1198 H1186 0.950 . S
C1198 C1197 1.398 1_455 S
C1198 C1199 1.391 . S
C1199 H1187 0.950 . S
C1199 C1195 1.393 . S
C1199 C1198 1.391 . S
C489 C9 1.581 . S
C495 C448 1.675 . S
C509 C368 1.658 . S
C515 C48 1.656 . S
C529 C89 1.366 . S
C535 C329 1.403 . S
C549 C128 1.640 . S
C555 C408 1.634 . S
C569 C168 1.994 . S
C575 C409 1.916 . S
C589 C209 1.303 . S
C595 C449 1.329 . S
C609 C369 1.742 . S
C615 C248 1.819 . S
C629 C288 1.392 . S
C635 C328 1.405 . S
C649 C129 1.824 . S
C655 C169 1.798 . S
C669 C8 1.775 . S
C675 C208 1.782 . S
C689 C49 1.446 . S
C695 C249 1.434 . S
C709 C289 1.666 . S
C715 C88 1.741 . S
C729 C5 2.520 . S
C735 C339 2.594 . S
C749 C55 1.127 . S
C755 C418 1.083 . S
C769 C458 1.580 . S
C775 C85 1.676 . S
C789 C135 1.396 . S
C795 C378 1.305 . S
C809 C175 1.466 . S
C815 C379 1.454 . S
C829 C338 1.657 . S
C835 C205 1.753 . S
C849 C419 1.887 . S
C855 C255 1.896 . S
C869 C459 1.750 . S
C875 C295 1.759 . S
C889 C18 1.473 . S
C895 C125 1.568 . S
C909 C15 2.136 . S
C915 C59 2.117 . S
C929 C45 1.934 . S
C935 C98 1.831 . S
C949 C139 1.851 . S
C955 C95 1.856 . S
C969 C215 1.063 . S
C975 C179 1.044 . S
C989 C218 1.653 . S
C995 C245 1.757 . S
C1009 C259 1.347 . S
C1015 C285 1.334 . S
C1029 C165 1.711 . S
C1035 C299 1.751 . S
C1049 C335 1.244 . S
C1055 C138 1.177 . S
C1069 C219 1.622 . S
C1075 C375 1.634 . S
C1089 C325 1.901 . S
C1095 C258 1.793 . S
C1109 C415 1.592 . S
C1115 C298 1.493 . S
C1129 C178 0.749 . S
C1135 C455 0.781 . S
C1149 C445 1.541 . S
C1155 C58 1.458 . S
C1169 C99 1.363 . S
C1175 C365 1.344 . S
C1189 C405 1.817 . S
C1195 C19 1.846 . S
