# Generated by pormake.
# Topology sxg, (6)-cn, num edge types: 1
# Building blocks:
#     Node 0, Type 0, BuildingBlock: IZENUY_clean_sbu_0, # of connection points: 6
#     Node 1, Type 0, BuildingBlock: IZENUY_clean_sbu_0, # of connection points: 6
#     Node 2, Type 0, BuildingBlock: IZENUY_clean_sbu_0, # of connection points: 6
#     Node 3, Type 0, BuildingBlock: IZENUY_clean_sbu_0, # of connection points: 6
#     Node 4, Type 0, BuildingBlock: IZENUY_clean_sbu_0, # of connection points: 6
#     Node 5, Type 0, BuildingBlock: IZENUY_clean_sbu_0, # of connection points: 6
#     Node 6, Type 0, BuildingBlock: IZENUY_clean_sbu_0, # of connection points: 6
#     Node 7, Type 0, BuildingBlock: IZENUY_clean_sbu_0, # of connection points: 6
#     Node 8, Type 0, BuildingBlock: IZENUY_clean_sbu_0, # of connection points: 6
#     Node 9, Type 0, BuildingBlock: IZENUY_clean_sbu_0, # of connection points: 6
#     Node 10, Type 0, BuildingBlock: IZENUY_clean_sbu_0, # of connection points: 6
#     Node 11, Type 0, BuildingBlock: IZENUY_clean_sbu_0, # of connection points: 6
#     Node 12, Type 0, BuildingBlock: IZENUY_clean_sbu_0, # of connection points: 6
#     Node 13, Type 0, BuildingBlock: IZENUY_clean_sbu_0, # of connection points: 6
#     Node 14, Type 0, BuildingBlock: IZENUY_clean_sbu_0, # of connection points: 6
#     Node 15, Type 0, BuildingBlock: IZENUY_clean_sbu_0, # of connection points: 6
#     Node 16, Type 0, BuildingBlock: IZENUY_clean_sbu_0, # of connection points: 6
#     Node 17, Type 0, BuildingBlock: IZENUY_clean_sbu_0, # of connection points: 6
#     Node 18, Type 0, BuildingBlock: IZENUY_clean_sbu_0, # of connection points: 6
#     Node 19, Type 0, BuildingBlock: IZENUY_clean_sbu_0, # of connection points: 6
#     Node 20, Type 0, BuildingBlock: IZENUY_clean_sbu_0, # of connection points: 6
#     Node 21, Type 0, BuildingBlock: IZENUY_clean_sbu_0, # of connection points: 6
#     Node 22, Type 0, BuildingBlock: IZENUY_clean_sbu_0, # of connection points: 6
#     Node 23, Type 0, BuildingBlock: IZENUY_clean_sbu_0, # of connection points: 6
#     Edge 24, Type (0, 0), BuildingBlock: UVAHIK_clean_linker_0, # of connection points: 2
#     Edge 25, Type (0, 0), BuildingBlock: UVAHIK_clean_linker_0, # of connection points: 2
#     Edge 26, Type (0, 0), BuildingBlock: UVAHIK_clean_linker_0, # of connection points: 2
#     Edge 27, Type (0, 0), BuildingBlock: UVAHIK_clean_linker_0, # of connection points: 2
#     Edge 28, Type (0, 0), BuildingBlock: UVAHIK_clean_linker_0, # of connection points: 2
#     Edge 29, Type (0, 0), BuildingBlock: UVAHIK_clean_linker_0, # of connection points: 2
#     Edge 30, Type (0, 0), BuildingBlock: UVAHIK_clean_linker_0, # of connection points: 2
#     Edge 31, Type (0, 0), BuildingBlock: UVAHIK_clean_linker_0, # of connection points: 2
#     Edge 32, Type (0, 0), BuildingBlock: UVAHIK_clean_linker_0, # of connection points: 2
#     Edge 33, Type (0, 0), BuildingBlock: UVAHIK_clean_linker_0, # of connection points: 2
#     Edge 34, Type (0, 0), BuildingBlock: UVAHIK_clean_linker_0, # of connection points: 2
#     Edge 35, Type (0, 0), BuildingBlock: UVAHIK_clean_linker_0, # of connection points: 2
#     Edge 36, Type (0, 0), BuildingBlock: UVAHIK_clean_linker_0, # of connection points: 2
#     Edge 37, Type (0, 0), BuildingBlock: UVAHIK_clean_linker_0, # of connection points: 2
#     Edge 38, Type (0, 0), BuildingBlock: UVAHIK_clean_linker_0, # of connection points: 2
#     Edge 39, Type (0, 0), BuildingBlock: UVAHIK_clean_linker_0, # of connection points: 2
#     Edge 40, Type (0, 0), BuildingBlock: UVAHIK_clean_linker_0, # of connection points: 2
#     Edge 41, Type (0, 0), BuildingBlock: UVAHIK_clean_linker_0, # of connection points: 2
#     Edge 42, Type (0, 0), BuildingBlock: UVAHIK_clean_linker_0, # of connection points: 2
#     Edge 43, Type (0, 0), BuildingBlock: UVAHIK_clean_linker_0, # of connection points: 2
#     Edge 44, Type (0, 0), BuildingBlock: UVAHIK_clean_linker_0, # of connection points: 2
#     Edge 45, Type (0, 0), BuildingBlock: UVAHIK_clean_linker_0, # of connection points: 2
#     Edge 46, Type (0, 0), BuildingBlock: UVAHIK_clean_linker_0, # of connection points: 2
#     Edge 47, Type (0, 0), BuildingBlock: UVAHIK_clean_linker_0, # of connection points: 2
#     Edge 48, Type (0, 0), BuildingBlock: UVAHIK_clean_linker_0, # of connection points: 2
#     Edge 49, Type (0, 0), BuildingBlock: UVAHIK_clean_linker_0, # of connection points: 2
#     Edge 50, Type (0, 0), BuildingBlock: UVAHIK_clean_linker_0, # of connection points: 2
#     Edge 51, Type (0, 0), BuildingBlock: UVAHIK_clean_linker_0, # of connection points: 2
#     Edge 52, Type (0, 0), BuildingBlock: UVAHIK_clean_linker_0, # of connection points: 2
#     Edge 53, Type (0, 0), BuildingBlock: UVAHIK_clean_linker_0, # of connection points: 2
#     Edge 54, Type (0, 0), BuildingBlock: UVAHIK_clean_linker_0, # of connection points: 2
#     Edge 55, Type (0, 0), BuildingBlock: UVAHIK_clean_linker_0, # of connection points: 2
#     Edge 56, Type (0, 0), BuildingBlock: UVAHIK_clean_linker_0, # of connection points: 2
#     Edge 57, Type (0, 0), BuildingBlock: UVAHIK_clean_linker_0, # of connection points: 2
#     Edge 58, Type (0, 0), BuildingBlock: UVAHIK_clean_linker_0, # of connection points: 2
#     Edge 59, Type (0, 0), BuildingBlock: UVAHIK_clean_linker_0, # of connection points: 2
#     Edge 60, Type (0, 0), BuildingBlock: UVAHIK_clean_linker_0, # of connection points: 2
#     Edge 61, Type (0, 0), BuildingBlock: UVAHIK_clean_linker_0, # of connection points: 2
#     Edge 62, Type (0, 0), BuildingBlock: UVAHIK_clean_linker_0, # of connection points: 2
#     Edge 63, Type (0, 0), BuildingBlock: UVAHIK_clean_linker_0, # of connection points: 2
#     Edge 64, Type (0, 0), BuildingBlock: UVAHIK_clean_linker_0, # of connection points: 2
#     Edge 65, Type (0, 0), BuildingBlock: UVAHIK_clean_linker_0, # of connection points: 2
#     Edge 66, Type (0, 0), BuildingBlock: UVAHIK_clean_linker_0, # of connection points: 2
#     Edge 67, Type (0, 0), BuildingBlock: UVAHIK_clean_linker_0, # of connection points: 2
#     Edge 68, Type (0, 0), BuildingBlock: UVAHIK_clean_linker_0, # of connection points: 2
#     Edge 69, Type (0, 0), BuildingBlock: UVAHIK_clean_linker_0, # of connection points: 2
#     Edge 70, Type (0, 0), BuildingBlock: UVAHIK_clean_linker_0, # of connection points: 2
#     Edge 71, Type (0, 0), BuildingBlock: UVAHIK_clean_linker_0, # of connection points: 2
#     Edge 72, Type (0, 0), BuildingBlock: UVAHIK_clean_linker_0, # of connection points: 2
#     Edge 73, Type (0, 0), BuildingBlock: UVAHIK_clean_linker_0, # of connection points: 2
#     Edge 74, Type (0, 0), BuildingBlock: UVAHIK_clean_linker_0, # of connection points: 2
#     Edge 75, Type (0, 0), BuildingBlock: UVAHIK_clean_linker_0, # of connection points: 2
#     Edge 76, Type (0, 0), BuildingBlock: UVAHIK_clean_linker_0, # of connection points: 2
#     Edge 77, Type (0, 0), BuildingBlock: UVAHIK_clean_linker_0, # of connection points: 2
#     Edge 78, Type (0, 0), BuildingBlock: UVAHIK_clean_linker_0, # of connection points: 2
#     Edge 79, Type (0, 0), BuildingBlock: UVAHIK_clean_linker_0, # of connection points: 2
#     Edge 80, Type (0, 0), BuildingBlock: UVAHIK_clean_linker_0, # of connection points: 2
#     Edge 81, Type (0, 0), BuildingBlock: UVAHIK_clean_linker_0, # of connection points: 2
#     Edge 82, Type (0, 0), BuildingBlock: UVAHIK_clean_linker_0, # of connection points: 2
#     Edge 83, Type (0, 0), BuildingBlock: UVAHIK_clean_linker_0, # of connection points: 2
#     Edge 84, Type (0, 0), BuildingBlock: UVAHIK_clean_linker_0, # of connection points: 2
#     Edge 85, Type (0, 0), BuildingBlock: UVAHIK_clean_linker_0, # of connection points: 2
#     Edge 86, Type (0, 0), BuildingBlock: UVAHIK_clean_linker_0, # of connection points: 2
#     Edge 87, Type (0, 0), BuildingBlock: UVAHIK_clean_linker_0, # of connection points: 2
#     Edge 88, Type (0, 0), BuildingBlock: UVAHIK_clean_linker_0, # of connection points: 2
#     Edge 89, Type (0, 0), BuildingBlock: UVAHIK_clean_linker_0, # of connection points: 2
#     Edge 90, Type (0, 0), BuildingBlock: UVAHIK_clean_linker_0, # of connection points: 2
#     Edge 91, Type (0, 0), BuildingBlock: UVAHIK_clean_linker_0, # of connection points: 2
#     Edge 92, Type (0, 0), BuildingBlock: UVAHIK_clean_linker_0, # of connection points: 2
#     Edge 93, Type (0, 0), BuildingBlock: UVAHIK_clean_linker_0, # of connection points: 2
#     Edge 94, Type (0, 0), BuildingBlock: UVAHIK_clean_linker_0, # of connection points: 2
#     Edge 95, Type (0, 0), BuildingBlock: UVAHIK_clean_linker_0, # of connection points: 2
# Relax obj value: 0.223
# Max RMSD: 0.255
# Mean RMSD: 0.255
data_MOF--net-sxg--node1-IZENUY_clean_sbu_0--edge1-UVAHIK_clean_linker_0
_symmetry_space_group_name_H-M    P1
_symmetry_Int_Tables_number       1
_symmetry_cell_setting            triclinic
loop_
_symmetry_equiv_pos_as_xyz
'x, y, z'
_cell_length_a     57.743543
_cell_length_b     57.733309
_cell_length_c     57.699268
_cell_angle_alpha  90.003858
_cell_angle_beta   89.989018
_cell_angle_gamma 89.993022
loop_
_atom_site_label
_atom_site_type_symbol
_atom_site_fract_x
_atom_site_fract_y
_atom_site_fract_z
_atom_type_partial_charge
Fe0 Fe 0.06323 0.35416 0.18159 0.0
Fe1 Fe 0.05404 0.34489 0.23316 0.0
O2 O 0.05719 0.33443 0.20442 0.0
Fe3 Fe 0.05464 0.30437 0.19862 0.0
O4 O 0.04179 0.30819 0.16978 0.0
O5 O 0.03722 0.34586 0.16608 0.0
O6 O 0.0463 0.37797 0.19423 0.0
C7 C 0.02981 0.37748 0.20873 0.0
C8 C 0.092 0.31614 0.17144 0.0
O9 O 0.02947 0.36258 0.22474 0.0
C10 C 0.08013 0.30603 0.24024 0.0
O11 O 0.08984 0.36373 0.19547 0.0
O12 O 0.07429 0.36907 0.22971 0.0
O13 O 0.08385 0.30331 0.18712 0.0
O14 O 0.08113 0.33396 0.16483 0.0
C15 C 0.01992 0.30975 0.23037 0.0
O16 O 0.07841 0.3276 0.2433 0.0
O17 O 0.06709 0.29534 0.22626 0.0
C18 C 0.09097 0.37175 0.21576 0.0
O19 O 0.03322 0.32276 0.24193 0.0
O20 O 0.02532 0.30308 0.21024 0.0
C21 C 0.03195 0.32542 0.16039 0.0
Fe22 Fe 0.43514 0.64186 0.68248 0.0
Fe23 Fe 0.44753 0.65358 0.73296 0.0
O24 O 0.44078 0.66256 0.7044 0.0
Fe25 Fe 0.43952 0.69239 0.69772 0.0
O26 O 0.46263 0.68959 0.67682 0.0
O27 O 0.44754 0.65956 0.65887 0.0
O28 O 0.4635 0.62939 0.6858 0.0
C29 C 0.47193 0.62172 0.70439 0.0
C30 C 0.40179 0.67368 0.67284 0.0
O31 O 0.46307 0.62705 0.72383 0.0
C32 C 0.4178 0.69239 0.73942 0.0
O33 O 0.42165 0.62056 0.70214 0.0
O34 O 0.4203 0.63856 0.73569 0.0
O35 O 0.41685 0.68945 0.67541 0.0
O36 O 0.40639 0.653 0.67782 0.0
C37 C 0.47738 0.68968 0.72931 0.0
O38 O 0.43318 0.67864 0.74714 0.0
O39 O 0.41639 0.69663 0.71809 0.0
C40 C 0.41265 0.62342 0.72199 0.0
O41 O 0.47522 0.66816 0.73214 0.0
O42 O 0.46165 0.70115 0.71913 0.0
C43 C 0.46193 0.67619 0.6596 0.0
Fe44 Fe 0.55248 0.15586 0.76297 0.0
Fe45 Fe 0.56093 0.1942 0.79864 0.0
O46 O 0.5592 0.16448 0.79161 0.0
Fe47 Fe 0.56454 0.14344 0.81326 0.0
O48 O 0.53596 0.13152 0.80995 0.0
O49 O 0.53674 0.12938 0.77187 0.0
O50 O 0.52493 0.17068 0.76391 0.0
C51 C 0.5229 0.19217 0.76715 0.0
C52 C 0.58689 0.12511 0.77376 0.0
O53 O 0.53872 0.20341 0.77747 0.0
C54 C 0.59873 0.17455 0.82247 0.0
O55 O 0.56693 0.18095 0.749 0.0
O56 O 0.58403 0.19845 0.77815 0.0
O57 O 0.57735 0.12206 0.79332 0.0
O58 O 0.57972 0.14064 0.7602 0.0
C59 C 0.53854 0.17793 0.83677 0.0
O60 O 0.58376 0.19054 0.82072 0.0
O61 O 0.59354 0.15399 0.81759 0.0
C62 C 0.58245 0.19448 0.75678 0.0
O63 O 0.5379 0.19149 0.81967 0.0
O64 O 0.55274 0.16113 0.8372 0.0
C65 C 0.52783 0.1238 0.79123 0.0
Fe66 Fe 0.9469 0.84713 0.26391 0.0
Fe67 Fe 0.94133 0.8089 0.30033 0.0
O68 O 0.94131 0.83859 0.29286 0.0
Fe69 Fe 0.93547 0.85962 0.31444 0.0
O70 O 0.9633 0.87289 0.31022 0.0
O71 O 0.96197 0.87426 0.27209 0.0
O72 O 0.97504 0.83346 0.26409 0.0
C73 C 0.97831 0.81221 0.26774 0.0
C74 C 0.91153 0.87668 0.27519 0.0
O75 O 0.96341 0.8004 0.27876 0.0
C76 C 0.90335 0.82696 0.32536 0.0
O77 O 0.93296 0.82134 0.25066 0.0
O78 O 0.918 0.80316 0.28059 0.0
O79 O 0.9211 0.88016 0.29465 0.0
O80 O 0.91907 0.86128 0.26169 0.0
C81 C 0.96371 0.82672 0.33768 0.0
O82 O 0.91893 0.81165 0.32295 0.0
O83 O 0.90717 0.84768 0.31987 0.0
C84 C 0.91849 0.80708 0.25917 0.0
O85 O 0.9647 0.81308 0.32068 0.0
O86 O 0.94877 0.84286 0.33825 0.0
C87 C 0.97094 0.88046 0.29125 0.0
Fe88 Fe 0.20158 0.05833 0.30589 0.0
Fe89 Fe 0.18564 0.06411 0.35615 0.0
O90 O 0.20788 0.05814 0.33587 0.0
Fe91 Fe 0.23645 0.05235 0.34539 0.0
O92 O 0.23636 0.02412 0.3318 0.0
O93 O 0.22347 0.03632 0.29819 0.0
O94 O 0.181 0.03498 0.30909 0.0
C95 C 0.16369 0.03569 0.3224 0.0
C96 C 0.24284 0.08087 0.30588 0.0
O97 O 0.16257 0.05048 0.33868 0.0
C98 C 0.22444 0.08803 0.37431 0.0
O99 O 0.17883 0.08053 0.3078 0.0
O100 O 0.18057 0.09242 0.34383 0.0
O101 O 0.25063 0.06592 0.31999 0.0
O102 O 0.2216 0.08177 0.30117 0.0
C103 C 0.20812 0.02878 0.37807 0.0
O104 O 0.20476 0.07869 0.37716 0.0
O105 O 0.23843 0.08025 0.35946 0.0
C106 C 0.17599 0.09622 0.32287 0.0
O107 O 0.18939 0.03635 0.36986 0.0
O108 O 0.2274 0.03768 0.37235 0.0
C109 C 0.23376 0.02116 0.31033 0.0
Fe110 Fe 0.26702 0.94623 0.84595 0.0
Fe111 Fe 0.30276 0.94023 0.80726 0.0
O112 O 0.29585 0.9406 0.83713 0.0
Fe113 Fe 0.31769 0.93517 0.85799 0.0
O114 O 0.31322 0.96291 0.87142 0.0
O115 O 0.27521 0.96122 0.87303 0.0
O116 O 0.26731 0.97433 0.83222 0.0
C117 C 0.27027 0.97722 0.81081 0.0
C118 C 0.2786 0.91096 0.87541 0.0
O119 O 0.28077 0.96201 0.79889 0.0
C120 C 0.32885 0.90297 0.82532 0.0
O121 O 0.25352 0.93223 0.82035 0.0
O122 O 0.28314 0.9166 0.80233 0.0
O123 O 0.29827 0.92027 0.87858 0.0
O124 O 0.26494 0.91854 0.86019 0.0
C125 C 0.34 0.96352 0.82433 0.0
O126 O 0.3257 0.91817 0.80979 0.0
O127 O 0.32362 0.90697 0.84607 0.0
C128 C 0.26177 0.91732 0.80641 0.0
O129 O 0.32299 0.96377 0.81066 0.0
O130 O 0.34095 0.9491 0.84096 0.0
C131 C 0.29426 0.97029 0.87921 0.0
Fe132 Fe 0.73815 0.44549 0.65291 0.0
Fe133 Fe 0.70358 0.4444 0.69324 0.0
O134 O 0.70947 0.44209 0.66315 0.0
Fe135 Fe 0.68675 0.43608 0.64336 0.0
O136 O 0.69918 0.45333 0.61967 0.0
O137 O 0.72973 0.46998 0.63512 0.0
O138 O 0.74635 0.46647 0.67518 0.0
C139 C 0.73451 0.47971 0.68806 0.0
C140 C 0.72118 0.40855 0.62572 0.0
O141 O 0.71435 0.47405 0.69447 0.0
C142 C 0.6774 0.40662 0.68105 0.0
O143 O 0.74836 0.42118 0.67027 0.0
O144 O 0.7316 0.43292 0.70246 0.0
O145 O 0.70076 0.40969 0.63337 0.0
O146 O 0.73515 0.42516 0.62872 0.0
C147 C 0.66504 0.46658 0.67249 0.0
O148 O 0.69297 0.41483 0.69399 0.0
O149 O 0.67034 0.4178 0.66355 0.0
C150 C 0.74577 0.41998 0.69194 0.0
O151 O 0.67434 0.45632 0.6895 0.0
O152 O 0.6711 0.46195 0.65199 0.0
C153 C 0.71376 0.46972 0.62021 0.0
Fe154 Fe 0.80188 0.55841 0.19303 0.0
Fe155 Fe 0.81658 0.56347 0.14235 0.0
O156 O 0.79482 0.55789 0.16323 0.0
Fe157 Fe 0.76607 0.55194 0.15441 0.0
O158 O 0.76635 0.52398 0.1685 0.0
O159 O 0.78015 0.53648 0.20162 0.0
O160 O 0.82235 0.53498 0.1895 0.0
C161 C 0.83936 0.53559 0.17581 0.0
C162 C 0.76063 0.58102 0.19389 0.0
O163 O 0.84014 0.55041 0.15957 0.0
C164 C 0.77737 0.58691 0.12446 0.0
O165 O 0.82453 0.58079 0.19019 0.0
O166 O 0.82184 0.59197 0.15392 0.0
O167 O 0.75245 0.56616 0.17984 0.0
O168 O 0.782 0.58181 0.19804 0.0
C169 C 0.79385 0.52747 0.12189 0.0
O170 O 0.79697 0.5775 0.12135 0.0
O171 O 0.76382 0.57952 0.13988 0.0
C172 C 0.82715 0.59611 0.17464 0.0
O173 O 0.81264 0.53539 0.12956 0.0
O174 O 0.77463 0.53662 0.12752 0.0
C175 C 0.76934 0.52131 0.18995 0.0
Fe176 Fe 0.30817 0.19991 0.05694 0.0
Fe177 Fe 0.3589 0.18576 0.06191 0.0
O178 O 0.33784 0.20733 0.05661 0.0
Fe179 Fe 0.34641 0.23628 0.05123 0.0
O180 O 0.33261 0.2362 0.02313 0.0
O181 O 0.29956 0.22166 0.03507 0.0
O182 O 0.31191 0.17973 0.03337 0.0
C183 C 0.32558 0.16274 0.03395 0.0
C184 C 0.30652 0.24096 0.07987 0.0
O185 O 0.342 0.16208 0.04858 0.0
C186 C 0.3761 0.22466 0.08625 0.0
O187 O 0.31124 0.177 0.07902 0.0
O188 O 0.34734 0.18018 0.09042 0.0
O189 O 0.32062 0.24944 0.06523 0.0
O190 O 0.3028 0.21951 0.08056 0.0
C191 C 0.37904 0.20926 0.02625 0.0
O192 O 0.37964 0.20545 0.07619 0.0
O193 O 0.36058 0.23822 0.07908 0.0
C194 C 0.32669 0.17452 0.09444 0.0
O195 O 0.37155 0.19023 0.03378 0.0
O196 O 0.37359 0.2282 0.03609 0.0
C197 C 0.31132 0.23258 0.02003 0.0
Fe198 Fe 0.85328 0.31385 0.93429 0.0
Fe199 Fe 0.84372 0.26248 0.9449 0.0
O200 O 0.8336 0.29124 0.94107 0.0
Fe201 Fe 0.80361 0.29727 0.9437 0.0
O202 O 0.80736 0.3268 0.95466 0.0
O203 O 0.84484 0.33028 0.95974 0.0
O204 O 0.87691 0.30191 0.9519 0.0
C205 C 0.87649 0.28757 0.96853 0.0
C206 C 0.81521 0.32222 0.90491 0.0
O207 O 0.86189 0.27129 0.96899 0.0
C208 C 0.80441 0.2553 0.91949 0.0
O209 O 0.86323 0.29915 0.90829 0.0
O210 O 0.8677 0.26493 0.92423 0.0
O211 O 0.8024 0.30702 0.91393 0.0
O212 O 0.83297 0.32963 0.91547 0.0
C213 C 0.80918 0.26719 0.9796 0.0
O214 O 0.82598 0.25197 0.92088 0.0
O215 O 0.79431 0.26905 0.93316 0.0
C216 C 0.87092 0.27874 0.90752 0.0
O217 O 0.82167 0.25484 0.96642 0.0
O218 O 0.80291 0.28729 0.97359 0.0
C219 C 0.82442 0.3364 0.96447 0.0
Fe220 Fe 0.64291 0.68351 0.43663 0.0
Fe221 Fe 0.65506 0.73435 0.44632 0.0
O222 O 0.66385 0.70541 0.44126 0.0
Fe223 Fe 0.69358 0.69831 0.44067 0.0
O224 O 0.69031 0.67843 0.46465 0.0
O225 O 0.66025 0.66026 0.45004 0.0
O226 O 0.63065 0.68836 0.46486 0.0
C227 C 0.62305 0.70745 0.47214 0.0
C228 C 0.67476 0.67215 0.40381 0.0
O229 O 0.62822 0.72627 0.46195 0.0
C230 C 0.69437 0.73897 0.41696 0.0
O231 O 0.62174 0.70275 0.42232 0.0
O232 O 0.64047 0.73563 0.41869 0.0
O233 O 0.69048 0.67515 0.41887 0.0
O234 O 0.65406 0.67741 0.40811 0.0
C235 C 0.6907 0.73177 0.47697 0.0
O236 O 0.6804 0.74755 0.43164 0.0
O237 O 0.69846 0.71758 0.41671 0.0
C238 C 0.62494 0.72187 0.41197 0.0
O239 O 0.66928 0.73496 0.47424 0.0
O240 O 0.70228 0.72055 0.46202 0.0
C241 C 0.67672 0.66135 0.46457 0.0
Fe242 Fe 0.15322 0.76592 0.55298 0.0
Fe243 Fe 0.1925 0.80111 0.55888 0.0
O244 O 0.16259 0.79459 0.55858 0.0
Fe245 Fe 0.1421 0.81674 0.56401 0.0
O246 O 0.12918 0.81266 0.53596 0.0
O247 O 0.12631 0.77475 0.53791 0.0
O248 O 0.16702 0.76581 0.5249 0.0
C249 C 0.18845 0.76853 0.52188 0.0
C250 C 0.12386 0.77805 0.58809 0.0
O251 O 0.2005 0.77918 0.53688 0.0
C252 C 0.17469 0.82701 0.59647 0.0
O253 O 0.17853 0.75194 0.56701 0.0
O254 O 0.19728 0.78127 0.58235 0.0
O255 O 0.12094 0.7976 0.57849 0.0
O256 O 0.13895 0.76416 0.58071 0.0
C257 C 0.17597 0.83882 0.53597 0.0
O258 O 0.19018 0.82388 0.58119 0.0
O259 O 0.15387 0.82216 0.59238 0.0
C260 C 0.19273 0.75998 0.58177 0.0
O261 O 0.18934 0.82158 0.53544 0.0
O262 O 0.15957 0.83989 0.55058 0.0
C263 C 0.12123 0.79388 0.52831 0.0
Fe264 Fe 0.93589 0.64489 0.81781 0.0
Fe265 Fe 0.94533 0.65337 0.76618 0.0
O266 O 0.94195 0.66428 0.79472 0.0
Fe267 Fe 0.94426 0.69446 0.80002 0.0
O268 O 0.95702 0.69124 0.82901 0.0
O269 O 0.96165 0.65365 0.8334 0.0
O270 O 0.95324 0.62112 0.80571 0.0
C271 C 0.96993 0.62173 0.79144 0.0
C272 C 0.90677 0.68285 0.82712 0.0
O273 O 0.97007 0.63616 0.775 0.0
C274 C 0.91887 0.6918 0.7584 0.0
O275 O 0.90948 0.63486 0.80388 0.0
O276 O 0.9254 0.62897 0.76994 0.0
O277 O 0.915 0.69551 0.81136 0.0
O278 O 0.91765 0.66517 0.83408 0.0
C279 C 0.97903 0.68898 0.76841 0.0
O280 O 0.92078 0.67018 0.75573 0.0
O281 O 0.93182 0.70287 0.77216 0.0
C282 C 0.90857 0.62649 0.78374 0.0
O283 O 0.96588 0.67562 0.75708 0.0
O284 O 0.9736 0.69579 0.78849 0.0
C285 C 0.96675 0.67419 0.83884 0.0
Fe286 Fe 0.55791 0.30792 0.30104 0.0
Fe287 Fe 0.56374 0.35835 0.31572 0.0
O288 O 0.55791 0.33765 0.2939 0.0
Fe289 Fe 0.55234 0.34657 0.26509 0.0
O290 O 0.52422 0.33279 0.26507 0.0
O291 O 0.53616 0.29958 0.27908 0.0
O292 O 0.53431 0.31186 0.32124 0.0
C293 C 0.53538 0.32524 0.33847 0.0
C294 C 0.58081 0.30653 0.25995 0.0
O295 O 0.55054 0.34117 0.33931 0.0
C296 C 0.58761 0.37608 0.27678 0.0
O297 O 0.58002 0.31052 0.32402 0.0
O298 O 0.59215 0.34635 0.32072 0.0
O299 O 0.56638 0.32094 0.2516 0.0
O300 O 0.58145 0.30257 0.28138 0.0
C301 C 0.52782 0.37898 0.29295 0.0
O302 O 0.5779 0.3793 0.29622 0.0
O303 O 0.58016 0.36083 0.26308 0.0
C304 C 0.59581 0.32563 0.32634 0.0
O305 O 0.53578 0.3714 0.31179 0.0
O306 O 0.53715 0.37354 0.27372 0.0
C307 C 0.52126 0.3114 0.26809 0.0
Fe308 Fe 0.44707 0.84229 0.23453 0.0
Fe309 Fe 0.43902 0.80335 0.19941 0.0
O310 O 0.44051 0.83322 0.20598 0.0
Fe311 Fe 0.43511 0.85396 0.18406 0.0
O312 O 0.46349 0.86631 0.18743 0.0
O313 O 0.46252 0.86884 0.22545 0.0
O314 O 0.47476 0.82778 0.2337 0.0
C315 C 0.47698 0.80626 0.23094 0.0
C316 C 0.41235 0.87249 0.22331 0.0
O317 O 0.46126 0.79465 0.22084 0.0
C318 C 0.40131 0.82235 0.17482 0.0
O319 O 0.43289 0.81723 0.24879 0.0
O320 O 0.41588 0.79929 0.21988 0.0
O321 O 0.42179 0.87537 0.20367 0.0
O322 O 0.41969 0.85722 0.23706 0.0
C323 C 0.46156 0.81929 0.16115 0.0
O324 O 0.41627 0.80644 0.17717 0.0
O325 O 0.4063 0.84301 0.1795 0.0
C326 C 0.41741 0.80358 0.24119 0.0
O327 O 0.46203 0.8058 0.17833 0.0
O328 O 0.44746 0.83617 0.1605 0.0
C329 C 0.47145 0.87431 0.20608 0.0
Fe330 Fe 0.06423 0.14007 0.68551 0.0
Fe331 Fe 0.05367 0.15318 0.73601 0.0
O332 O 0.05861 0.16139 0.70686 0.0
Fe333 Fe 0.0582 0.19101 0.6991 0.0
O334 O 0.03465 0.1865 0.67906 0.0
O335 O 0.05007 0.15621 0.66182 0.0
O336 O 0.03669 0.12644 0.69057 0.0
C337 C 0.02975 0.11894 0.70983 0.0
C338 C 0.09582 0.17298 0.67343 0.0
O339 O 0.03916 0.12555 0.72861 0.0
C340 C 0.08139 0.19372 0.73993 0.0
O341 O 0.0794 0.12015 0.70537 0.0
O342 O 0.08185 0.1397 0.73794 0.0
O343 O 0.08028 0.18827 0.67616 0.0
O344 O 0.09223 0.15228 0.67916 0.0
C345 C 0.02161 0.18737 0.73218 0.0
O346 O 0.06709 0.17951 0.74874 0.0
O347 O 0.0818 0.19713 0.71843 0.0
C348 C 0.08933 0.12415 0.72457 0.0
O349 O 0.02528 0.16619 0.73586 0.0
O350 O 0.03623 0.19939 0.72096 0.0
C351 C 0.03527 0.17248 0.66234 0.0
Fe352 Fe 0.81679 0.93483 0.6441 0.0
Fe353 Fe 0.76564 0.94535 0.65424 0.0
O354 O 0.79423 0.94036 0.66414 0.0
Fe355 Fe 0.80033 0.94064 0.69414 0.0
O356 O 0.82052 0.96431 0.69087 0.0
O357 O 0.83955 0.94865 0.66182 0.0
O358 O 0.81265 0.96265 0.63071 0.0
C359 C 0.79388 0.96993 0.62233 0.0
C360 C 0.82646 0.90293 0.67748 0.0
O361 O 0.77478 0.96016 0.62727 0.0
C362 C 0.75954 0.91713 0.69417 0.0
O363 O 0.79815 0.92 0.62273 0.0
O364 O 0.76456 0.91735 0.64035 0.0
O365 O 0.82339 0.91868 0.69248 0.0
O366 O 0.82213 0.9066 0.65643 0.0
C367 C 0.76729 0.97699 0.68906 0.0
O368 O 0.75147 0.93148 0.67956 0.0
O369 O 0.78075 0.91697 0.69904 0.0
C370 C 0.77876 0.91005 0.62548 0.0
O371 O 0.76479 0.97365 0.66764 0.0
O372 O 0.77799 0.96233 0.70145 0.0
C373 C 0.8381 0.96359 0.67793 0.0
Fe374 Fe 0.68194 0.06299 0.1393 0.0
Fe375 Fe 0.73285 0.05286 0.15152 0.0
O376 O 0.70378 0.05758 0.16016 0.0
Fe377 Fe 0.69655 0.05721 0.18993 0.0
O378 O 0.67712 0.03312 0.18588 0.0
O379 O 0.65893 0.04813 0.15589 0.0
O380 O 0.68716 0.03567 0.12529 0.0
C381 C 0.70635 0.02873 0.11764 0.0
C382 C 0.66969 0.09415 0.17257 0.0
O383 O 0.7252 0.03797 0.12421 0.0
C384 C 0.7368 0.08138 0.19151 0.0
O385 O 0.70108 0.07875 0.11915 0.0
O386 O 0.73431 0.08081 0.13767 0.0
O387 O 0.67291 0.0785 0.1876 0.0
O388 O 0.67531 0.09086 0.1518 0.0
C389 C 0.73032 0.02137 0.1863 0.0
O390 O 0.74568 0.06694 0.17744 0.0
O391 O 0.71538 0.08135 0.19539 0.0
C392 C 0.72046 0.08847 0.12266 0.0
O393 O 0.73337 0.02456 0.16494 0.0
O394 O 0.71911 0.03605 0.1982 0.0
C395 C 0.66014 0.03333 0.17217 0.0
Fe396 Fe 0.29542 0.55524 0.30577 0.0
Fe397 Fe 0.31289 0.56273 0.35554 0.0
O398 O 0.28987 0.55719 0.33594 0.0
Fe399 Fe 0.26127 0.55384 0.34648 0.0
O400 O 0.25265 0.53322 0.32403 0.0
O401 O 0.28437 0.52572 0.30424 0.0
O402 O 0.32457 0.54302 0.30899 0.0
C403 C 0.33395 0.53241 0.32573 0.0
C404 C 0.25353 0.58006 0.3079 0.0
O405 O 0.3282 0.53683 0.34637 0.0
C406 C 0.2789 0.59029 0.37398 0.0
O407 O 0.3063 0.58469 0.30528 0.0
O408 O 0.32923 0.58114 0.33542 0.0
O409 O 0.25098 0.57842 0.32955 0.0
O410 O 0.26746 0.56717 0.29704 0.0
C411 C 0.28586 0.52906 0.37863 0.0
O412 O 0.29921 0.5891 0.36605 0.0
O413 O 0.26473 0.57386 0.37088 0.0
C414 C 0.32211 0.59259 0.31813 0.0
O415 O 0.30059 0.54532 0.37915 0.0
O416 O 0.26973 0.52906 0.36387 0.0
C417 C 0.26425 0.52009 0.31082 0.0
Fe418 Fe 0.23594 0.44541 0.8482 0.0
Fe419 Fe 0.18419 0.43644 0.85692 0.0
O420 O 0.20723 0.44276 0.83751 0.0
Fe421 Fe 0.20165 0.44615 0.80748 0.0
O422 O 0.22923 0.43375 0.79829 0.0
O423 O 0.24596 0.42138 0.83033 0.0
O424 O 0.23225 0.4245 0.87184 0.0
C425 C 0.21803 0.40796 0.87401 0.0
C426 C 0.23368 0.48035 0.81366 0.0
O427 O 0.19779 0.40961 0.86605 0.0
C428 C 0.16338 0.4685 0.82876 0.0
O429 O 0.22761 0.46961 0.86648 0.0
O430 O 0.19672 0.45282 0.88113 0.0
O431 O 0.21343 0.47536 0.8071 0.0
O432 O 0.24502 0.46675 0.82658 0.0
C433 C 0.17408 0.40876 0.81796 0.0
O434 O 0.16886 0.46271 0.84911 0.0
O435 O 0.1729 0.45908 0.81138 0.0
C436 C 0.21124 0.46927 0.88099 0.0
O437 O 0.16753 0.419 0.8362 0.0
O438 O 0.18995 0.41713 0.80554 0.0
C439 C 0.24297 0.42024 0.80868 0.0
Fe440 Fe 0.64006 0.81389 0.93561 0.0
Fe441 Fe 0.65207 0.76303 0.94557 0.0
O442 O 0.66093 0.79196 0.94052 0.0
Fe443 Fe 0.69075 0.79889 0.94009 0.0
O444 O 0.68749 0.81891 0.96391 0.0
O445 O 0.65722 0.83702 0.9495 0.0
O446 O 0.627 0.80901 0.96351 0.0
C447 C 0.61908 0.78992 0.97045 0.0
C448 C 0.67242 0.82528 0.90316 0.0
O449 O 0.62502 0.77107 0.96077 0.0
C450 C 0.69173 0.75811 0.91673 0.0
O451 O 0.61927 0.79468 0.92079 0.0
O452 O 0.63786 0.76161 0.91771 0.0
O453 O 0.68804 0.82203 0.91826 0.0
O454 O 0.65169 0.82012 0.90731 0.0
C455 C 0.68727 0.76571 0.97659 0.0
O456 O 0.67767 0.74969 0.93142 0.0
O457 O 0.69566 0.77951 0.91618 0.0
C458 C 0.6226 0.77549 0.91059 0.0
O459 O 0.66586 0.76271 0.97367 0.0
O460 O 0.69912 0.77665 0.96163 0.0
C461 C 0.67394 0.83602 0.96377 0.0
Fe462 Fe 0.14382 0.68412 0.06568 0.0
Fe463 Fe 0.15273 0.73587 0.05645 0.0
O464 O 0.16326 0.70709 0.05918 0.0
Fe465 Fe 0.19326 0.70144 0.05572 0.0
O466 O 0.18944 0.6725 0.0433 0.0
O467 O 0.1518 0.66835 0.03967 0.0
O468 O 0.11979 0.69645 0.04887 0.0
C469 C 0.11992 0.71119 0.03257 0.0
C470 C 0.18272 0.67464 0.09371 0.0
O471 O 0.13439 0.72758 0.03234 0.0
C472 C 0.19231 0.74271 0.08152 0.0
O473 O 0.13441 0.69802 0.09232 0.0
O474 O 0.12906 0.73249 0.07734 0.0
O475 O 0.19524 0.69019 0.0849 0.0
O476 O 0.16449 0.66783 0.08359 0.0
C477 C 0.18686 0.73306 0.02123 0.0
O478 O 0.1707 0.74585 0.08046 0.0
O479 O 0.2025 0.72918 0.06765 0.0
C480 C 0.12655 0.71831 0.09384 0.0
O481 O 0.17434 0.74463 0.03501 0.0
O482 O 0.1935 0.71284 0.02632 0.0
C483 C 0.17214 0.66278 0.03402 0.0
Fe484 Fe 0.30594 0.30094 0.55874 0.0
Fe485 Fe 0.35604 0.31699 0.56433 0.0
O486 O 0.33584 0.29456 0.559 0.0
Fe487 Fe 0.34549 0.26586 0.55414 0.0
O488 O 0.33195 0.26487 0.5259 0.0
O489 O 0.29834 0.27852 0.53723 0.0
O490 O 0.30945 0.32086 0.53484 0.0
C491 C 0.32255 0.33831 0.53541 0.0
C492 C 0.30554 0.26032 0.58254 0.0
O493 O 0.33843 0.33984 0.55055 0.0
C494 C 0.37446 0.27904 0.58924 0.0
O495 O 0.30789 0.32417 0.58056 0.0
O496 O 0.34389 0.32251 0.59262 0.0
O497 O 0.32012 0.25201 0.56827 0.0
O498 O 0.30088 0.28159 0.58257 0.0
C499 C 0.37734 0.29376 0.52911 0.0
O500 O 0.37735 0.29828 0.57905 0.0
O501 O 0.3595 0.26487 0.58211 0.0
C502 C 0.32292 0.32714 0.59631 0.0
O503 O 0.3692 0.31263 0.53643 0.0
O504 O 0.37242 0.27473 0.53906 0.0
C505 C 0.31056 0.26757 0.52261 0.0
Fe506 Fe 0.84673 0.23279 0.44744 0.0
Fe507 Fe 0.80727 0.19786 0.44179 0.0
O508 O 0.83719 0.20431 0.44126 0.0
Fe509 Fe 0.85736 0.18226 0.43435 0.0
O510 O 0.87166 0.18546 0.46184 0.0
O511 O 0.87398 0.22352 0.46146 0.0
O512 O 0.83377 0.2321 0.47593 0.0
C513 C 0.81239 0.22953 0.47938 0.0
C514 C 0.87489 0.22163 0.41087 0.0
O515 O 0.79994 0.21938 0.46437 0.0
C516 C 0.82349 0.17271 0.40307 0.0
O517 O 0.82102 0.2471 0.43459 0.0
O518 O 0.80183 0.21823 0.41881 0.0
O519 O 0.87796 0.20171 0.41962 0.0
O520 O 0.86023 0.2354 0.41933 0.0
C521 C 0.82449 0.15965 0.46322 0.0
O522 O 0.80872 0.17546 0.41909 0.0
O523 O 0.84441 0.1777 0.40632 0.0
C524 C 0.80659 0.23946 0.41985 0.0
O525 O 0.8113 0.17699 0.46475 0.0
O526 O 0.84024 0.15882 0.44786 0.0
C527 C 0.8799 0.20402 0.46976 0.0
C528 C 0.11142 0.39576 0.24535 0.0
C529 C 0.11111 0.38592 0.22307 0.0
C530 C 0.13005 0.40924 0.2526 0.0
C531 C 0.19152 0.42234 0.24245 0.0
H532 H 0.176 0.47758 0.27742 0.0
C533 C 0.25698 0.49246 0.27776 0.0
C534 C 0.25203 0.50017 0.30035 0.0
C535 C 0.24202 0.47684 0.2666 0.0
C536 C 0.18064 0.46214 0.26778 0.0
H537 H 0.13056 0.38216 0.1911 0.0
H538 H 0.16329 0.40607 0.20388 0.0
H539 H 0.14526 0.45448 0.26036 0.0
H540 H 0.22896 0.49597 0.32972 0.0
H541 H 0.20326 0.46877 0.31048 0.0
H542 H 0.22711 0.43027 0.25017 0.0
C543 C 0.14897 0.40318 0.21566 0.0
C544 C 0.16302 0.4489 0.25801 0.0
C545 C 0.13018 0.38963 0.20832 0.0
C546 C 0.23301 0.49065 0.31216 0.0
C547 C 0.21823 0.47515 0.30112 0.0
C548 C 0.20929 0.43575 0.25224 0.0
C549 C 0.14894 0.41335 0.23781 0.0
C550 C 0.16816 0.42852 0.24577 0.0
C551 C 0.22201 0.46879 0.27795 0.0
C552 C 0.20391 0.45544 0.26553 0.0
H553 H 0.09721 0.3931 0.25731 0.0
H554 H 0.1297 0.4164 0.26996 0.0
H555 H 0.196 0.40671 0.2331 0.0
H556 H 0.27152 0.49954 0.26824 0.0
H557 H 0.24537 0.47211 0.24875 0.0
C558 C 0.26344 0.51134 0.81625 0.0
C559 C 0.24618 0.5001 0.80332 0.0
C560 C 0.27813 0.52741 0.80576 0.0
C561 C 0.30571 0.53896 0.75087 0.0
H562 H 0.32372 0.59689 0.77964 0.0
C563 C 0.37873 0.59749 0.71341 0.0
C564 C 0.39298 0.6088 0.72959 0.0
C565 C 0.35893 0.58549 0.72073 0.0
C566 C 0.31911 0.58064 0.77148 0.0
H567 H 0.23025 0.49729 0.76945 0.0
H568 H 0.25643 0.52522 0.75085 0.0
H569 H 0.29145 0.57483 0.79556 0.0
H570 H 0.3981 0.61568 0.76619 0.0
H571 H 0.36435 0.59418 0.77897 0.0
H572 H 0.33403 0.5441 0.72748 0.0
C573 C 0.25834 0.52168 0.76919 0.0
C574 C 0.30047 0.56814 0.78051 0.0
C575 C 0.24328 0.5059 0.77985 0.0
C576 C 0.38739 0.60732 0.75324 0.0
C577 C 0.36784 0.59516 0.76056 0.0
C578 C 0.32459 0.55133 0.74198 0.0
C579 C 0.27616 0.53227 0.78199 0.0
C580 C 0.29384 0.54698 0.77056 0.0
C581 C 0.35309 0.5844 0.74441 0.0
C582 C 0.33184 0.57211 0.75249 0.0
H583 H 0.26606 0.50713 0.83437 0.0
H584 H 0.2918 0.53517 0.81601 0.0
H585 H 0.30111 0.52255 0.74301 0.0
H586 H 0.38246 0.59851 0.69504 0.0
H587 H 0.34792 0.57758 0.70777 0.0
C588 C 0.61555 0.11185 0.74394 0.0
C589 C 0.60638 0.11005 0.76644 0.0
C590 C 0.63465 0.09856 0.7373 0.0
C591 C 0.66784 0.04595 0.7527 0.0
H592 H 0.71427 0.07333 0.71257 0.0
C593 C 0.74913 0.99517 0.72418 0.0
C594 C 0.75359 0.99564 0.70021 0.0
C595 C 0.73335 0.01069 0.73407 0.0
C596 C 0.70142 0.06543 0.72372 0.0
H597 H 0.61021 0.09283 0.79964 0.0
H598 H 0.64369 0.06977 0.78809 0.0
H599 H 0.68199 0.09687 0.7263 0.0
H600 H 0.74596 0.01368 0.66812 0.0
H601 H 0.7186 0.04074 0.68538 0.0
H602 H 0.68722 0.01445 0.74995 0.0
C603 C 0.63588 0.08124 0.77547 0.0
C604 C 0.68286 0.07888 0.73153 0.0
C605 C 0.61669 0.0945 0.7821 0.0
C606 C 0.74287 0.01278 0.68662 0.0
C607 C 0.72725 0.02838 0.69653 0.0
C608 C 0.68647 0.03253 0.74496 0.0
C609 C 0.64517 0.0832 0.75301 0.0
C610 C 0.66564 0.06922 0.74584 0.0
C611 C 0.72187 0.02715 0.72026 0.0
C612 C 0.70329 0.04202 0.73012 0.0
H613 H 0.60804 0.12361 0.7314 0.0
H614 H 0.64104 0.1002 0.71973 0.0
H615 H 0.65479 0.03786 0.76347 0.0
H616 H 0.75707 0.9822 0.73517 0.0
H617 H 0.72979 0.00952 0.75247 0.0
C618 C 0.88118 0.90695 0.28312 0.0
C619 C 0.89167 0.89121 0.26775 0.0
C620 C 0.86184 0.91988 0.27623 0.0
C621 C 0.81496 0.92103 0.23202 0.0
H622 H 0.81004 0.9858 0.24905 0.0
C623 C 0.75514 0.9858 0.18495 0.0
C624 C 0.74408 0.00312 0.19804 0.0
C625 C 0.77077 0.97055 0.1954 0.0
C626 C 0.81095 0.96763 0.24445 0.0
H627 H 0.89011 0.87696 0.23297 0.0
H628 H 0.85687 0.89975 0.22088 0.0
H629 H 0.84246 0.96285 0.2634 0.0
H630 H 0.74005 0.0173 0.23263 0.0
H631 H 0.76736 0.99061 0.25087 0.0
H632 H 0.78374 0.92602 0.21259 0.0
C633 C 0.86323 0.9018 0.23842 0.0
C634 C 0.82956 0.95446 0.25267 0.0
C635 C 0.88247 0.88886 0.24531 0.0
C636 C 0.74824 0.00416 0.22204 0.0
C637 C 0.76405 0.989 0.23246 0.0
C638 C 0.79642 0.93423 0.22373 0.0
C639 C 0.85255 0.91738 0.25381 0.0
C640 C 0.83199 0.93107 0.24629 0.0
C641 C 0.77583 0.97233 0.21917 0.0
C642 C 0.79435 0.95776 0.2296 0.0
H643 H 0.8877 0.90908 0.30058 0.0
H644 H 0.85393 0.93154 0.28862 0.0
H645 H 0.81598 0.90295 0.22716 0.0
H646 H 0.7523 0.98447 0.16644 0.0
H647 H 0.77966 0.95802 0.18462 0.0
C648 C 0.27519 0.24988 0.50447 0.0
C649 C 0.29921 0.25397 0.504 0.0
C650 C 0.26505 0.23431 0.48889 0.0
C651 C 0.27488 0.20257 0.43391 0.0
H652 H 0.23436 0.1564 0.4611 0.0
C653 C 0.25408 0.11697 0.3873 0.0
C654 C 0.23155 0.10787 0.38902 0.0
C655 C 0.26071 0.13612 0.40052 0.0
C656 C 0.24533 0.16934 0.45311 0.0
H657 H 0.33115 0.24585 0.48593 0.0
H658 H 0.31347 0.21886 0.45877 0.0
H659 H 0.24833 0.18848 0.48476 0.0
H660 H 0.19829 0.11195 0.40602 0.0
H661 H 0.20982 0.14554 0.42898 0.0
H662 H 0.2721 0.18337 0.40232 0.0
C663 C 0.30246 0.22765 0.47117 0.0
C664 C 0.25333 0.18776 0.46668 0.0
C665 C 0.31262 0.24306 0.48683 0.0
C666 C 0.21582 0.11839 0.40438 0.0
C667 C 0.22246 0.13762 0.41759 0.0
C668 C 0.26682 0.18422 0.42031 0.0
C669 C 0.27866 0.22267 0.47236 0.0
C670 C 0.26848 0.20439 0.45733 0.0
C671 C 0.24497 0.14678 0.41576 0.0
C672 C 0.25224 0.16716 0.42983 0.0
H673 H 0.26434 0.25798 0.51747 0.0
H674 H 0.24662 0.23106 0.49005 0.0
H675 H 0.28626 0.21528 0.4261 0.0
H676 H 0.26669 0.10932 0.37569 0.0
H677 H 0.27831 0.14239 0.39897 0.0
C678 C 0.28663 0.87822 0.9031 0.0
C679 C 0.27077 0.89164 0.89036 0.0
C680 C 0.27893 0.85939 0.91638 0.0
C681 C 0.22749 0.83796 0.94648 0.0
H682 H 0.25472 0.77677 0.94113 0.0
C683 C 0.18292 0.76125 0.98915 0.0
C684 C 0.19682 0.74546 0.00128 0.0
C685 C 0.19281 0.777 0.97375 0.0
C686 C 0.24709 0.79379 0.94301 0.0
H687 H 0.23442 0.89587 0.8817 0.0
H688 H 0.2211 0.86349 0.90508 0.0
H689 H 0.27123 0.8092 0.9192 0.0
H690 H 0.23179 0.73283 0.00606 0.0
H691 H 0.24936 0.76088 0.97948 0.0
H692 H 0.2037 0.8231 0.97048 0.0
C693 C 0.23944 0.86743 0.90478 0.0
C694 C 0.25655 0.81233 0.93047 0.0
C695 C 0.24711 0.88595 0.89132 0.0
C696 C 0.22069 0.74471 0.99669 0.0
C697 C 0.23072 0.76082 0.98151 0.0
C698 C 0.21821 0.8196 0.95911 0.0
C699 C 0.25522 0.85394 0.91743 0.0
C700 C 0.24658 0.83451 0.93184 0.0
C701 C 0.21696 0.77773 0.97053 0.0
C702 C 0.22758 0.79717 0.95726 0.0
H703 H 0.30498 0.88206 0.90254 0.0
H704 H 0.29143 0.8493 0.92607 0.0
H705 H 0.21972 0.85496 0.94819 0.0
H706 H 0.16443 0.76203 0.99231 0.0
H707 H 0.18157 0.78921 0.96502 0.0
C708 C 0.77714 0.24503 0.49991 0.0
C709 C 0.80139 0.24293 0.49839 0.0
C710 C 0.76707 0.26079 0.51542 0.0
C711 C 0.78081 0.31612 0.54229 0.0
H712 H 0.72833 0.30517 0.58276 0.0
C713 C 0.7526 0.3848 0.60791 0.0
C714 C 0.72887 0.38823 0.61202 0.0
C715 C 0.76029 0.36597 0.59487 0.0
C716 C 0.74279 0.30859 0.57131 0.0
H717 H 0.83393 0.25457 0.51324 0.0
H718 H 0.81638 0.28196 0.54003 0.0
H719 H 0.74371 0.27342 0.55909 0.0
H720 H 0.69456 0.37423 0.60597 0.0
H721 H 0.70797 0.34156 0.58248 0.0
H722 H 0.77977 0.35122 0.55374 0.0
C723 C 0.80519 0.27168 0.52902 0.0
C724 C 0.75164 0.29038 0.55786 0.0
C725 C 0.81522 0.25588 0.51371 0.0
C726 C 0.71297 0.37211 0.60304 0.0
C727 C 0.72068 0.3533 0.5897 0.0
C728 C 0.77187 0.3343 0.55545 0.0
C729 C 0.78108 0.27481 0.52955 0.0
C730 C 0.77097 0.29392 0.54349 0.0
C731 C 0.74446 0.35013 0.58527 0.0
C732 C 0.75298 0.33075 0.57044 0.0
H733 H 0.76596 0.23529 0.48841 0.0
H734 H 0.74843 0.26286 0.51548 0.0
H735 H 0.79538 0.31951 0.53095 0.0
H736 H 0.76538 0.39662 0.6149 0.0
H737 H 0.77875 0.3638 0.59243 0.0
C738 C 0.74717 0.61536 0.11189 0.0
C739 C 0.76956 0.60613 0.10927 0.0
C740 C 0.73965 0.63366 0.09801 0.0
C741 C 0.75988 0.68181 0.06124 0.0
H742 H 0.69729 0.67893 0.0371 0.0
C743 C 0.72257 0.74622 0.99297 0.0
C744 C 0.69897 0.75197 0.99485 0.0
C745 C 0.7325 0.72992 0.00797 0.0
C746 C 0.7147 0.68022 0.04397 0.0
H747 H 0.80172 0.60922 0.09006 0.0
H748 H 0.78843 0.64123 0.06561 0.0
H749 H 0.7121 0.64712 0.06032 0.0
H750 H 0.66778 0.74648 0.01505 0.0
H751 H 0.68515 0.7186 0.04146 0.0
H752 H 0.76238 0.71504 0.04477 0.0
C753 C 0.77679 0.63427 0.07858 0.0
C754 C 0.72322 0.66191 0.05724 0.0
C755 C 0.78433 0.61583 0.09246 0.0
C756 C 0.68593 0.74222 0.01295 0.0
C757 C 0.69586 0.72609 0.02798 0.0
C758 C 0.75131 0.70023 0.04794 0.0
C759 C 0.7543 0.6433 0.08113 0.0
C760 C 0.74583 0.66254 0.06621 0.0
C761 C 0.71904 0.71915 0.02522 0.0
C762 C 0.72852 0.69973 0.03933 0.0
H763 H 0.73535 0.6085 0.12475 0.0
H764 H 0.72237 0.64044 0.1007 0.0
H765 H 0.77732 0.68289 0.06807 0.0
H766 H 0.73308 0.75334 0.97915 0.0
H767 H 0.75038 0.72493 0.00531 0.0
C768 C 0.40664 0.21629 0.11625 0.0
C769 C 0.3907 0.23175 0.10621 0.0
C770 C 0.41962 0.22283 0.13568 0.0
C771 C 0.42065 0.2659 0.18364 0.0
H772 H 0.48564 0.24957 0.18769 0.0
C773 C 0.48524 0.31259 0.24391 0.0
C774 C 0.50293 0.2996 0.25447 0.0
C775 C 0.46998 0.30221 0.22825 0.0
C776 C 0.46742 0.25396 0.18703 0.0
H777 H 0.37617 0.26634 0.10869 0.0
H778 H 0.39904 0.27783 0.14209 0.0
H779 H 0.46262 0.23567 0.15511 0.0
H780 H 0.51776 0.2652 0.25758 0.0
H781 H 0.49102 0.24707 0.23024 0.0
H782 H 0.42563 0.28468 0.21527 0.0
C783 C 0.40121 0.26048 0.1353 0.0
C784 C 0.4542 0.246 0.16832 0.0
C785 C 0.38822 0.25394 0.11596 0.0
C786 C 0.50432 0.27572 0.2498 0.0
C787 C 0.48914 0.26536 0.23396 0.0
C788 C 0.43388 0.27393 0.20228 0.0
C789 C 0.41699 0.24499 0.14552 0.0
C790 C 0.43073 0.25215 0.1662 0.0
C791 C 0.47209 0.2786 0.22265 0.0
C792 C 0.4575 0.26833 0.20403 0.0
H793 H 0.40886 0.199 0.1093 0.0
H794 H 0.43144 0.21038 0.14323 0.0
H795 H 0.4025 0.27057 0.18286 0.0
H796 H 0.48365 0.33101 0.24714 0.0
H797 H 0.45717 0.31295 0.21973 0.0
C798 C 0.88949 0.24732 0.88427 0.0
C799 C 0.88508 0.27102 0.88752 0.0
C800 C 0.9031 0.23972 0.86579 0.0
C801 C 0.92813 0.25746 0.80903 0.0
H802 H 0.9686 0.20523 0.82109 0.0
C803 C 0.00128 0.22299 0.74725 0.0
C804 C 0.00255 0.19872 0.74519 0.0
C805 C 0.98554 0.23323 0.76268 0.0
C806 C 0.95726 0.21972 0.81739 0.0
H807 H 0.89122 0.30536 0.87358 0.0
H808 H 0.91566 0.29212 0.84159 0.0
H809 H 0.94478 0.22062 0.85217 0.0
H810 H 0.98701 0.16636 0.75645 0.0
H811 H 0.95986 0.18419 0.78325 0.0
H812 H 0.94135 0.25666 0.77419 0.0
C813 C 0.90823 0.27936 0.85316 0.0
C814 C 0.9435 0.22852 0.8352 0.0
C815 C 0.89434 0.28697 0.87158 0.0
C816 C 0.98678 0.18507 0.75779 0.0
C817 C 0.97124 0.19527 0.77323 0.0
C818 C 0.94219 0.24876 0.79119 0.0
C819 C 0.91297 0.25562 0.85016 0.0
C820 C 0.92844 0.24725 0.83121 0.0
C821 C 0.97092 0.21937 0.77637 0.0
C822 C 0.95659 0.22955 0.79515 0.0
H823 H 0.88232 0.23452 0.89597 0.0
H824 H 0.90579 0.22127 0.86373 0.0
H825 H 0.91666 0.2718 0.80526 0.0
H826 H 0.01315 0.23401 0.73778 0.0
H827 H 0.98562 0.25188 0.76477 0.0
C828 C 0.49253 0.77127 0.25165 0.0
C829 C 0.49533 0.79435 0.24436 0.0
C830 C 0.50761 0.76164 0.26806 0.0
C831 C 0.54545 0.78104 0.31562 0.0
H832 H 0.56693 0.71743 0.31687 0.0
C833 C 0.61298 0.75051 0.3817 0.0
C834 C 0.60976 0.72888 0.39243 0.0
C835 C 0.59914 0.75725 0.36307 0.0
C836 C 0.56084 0.73517 0.31686 0.0
H837 H 0.51722 0.82474 0.24708 0.0
H838 H 0.54373 0.80783 0.27516 0.0
H839 H 0.54361 0.7311 0.28415 0.0
H840 H 0.58953 0.69722 0.39167 0.0
H841 H 0.56511 0.70917 0.35912 0.0
H842 H 0.56246 0.78522 0.34822 0.0
C843 C 0.52952 0.79737 0.2688 0.0
C844 C 0.54754 0.74301 0.2981 0.0
C845 C 0.51442 0.80701 0.25256 0.0
C846 C 0.5924 0.71405 0.38389 0.0
C847 C 0.57852 0.72082 0.36514 0.0
C848 C 0.55868 0.77324 0.33427 0.0
C849 C 0.52582 0.77488 0.2774 0.0
C850 C 0.53989 0.76613 0.29717 0.0
C851 C 0.58167 0.74257 0.35461 0.0
C852 C 0.56674 0.7503 0.33505 0.0
H853 H 0.47792 0.76109 0.24574 0.0
H854 H 0.50425 0.74428 0.27434 0.0
H855 H 0.53932 0.79877 0.31581 0.0
H856 H 0.6263 0.76232 0.38761 0.0
H857 H 0.60231 0.77394 0.35512 0.0
C858 C 0.108 0.74714 0.61392 0.0
C859 C 0.10879 0.77063 0.60753 0.0
C860 C 0.09452 0.7399 0.63262 0.0
C861 C 0.0681 0.75864 0.68705 0.0
H862 H 0.0297 0.7043 0.67815 0.0
C863 C 0.00234 0.72331 0.75563 0.0
C864 C 0.99874 0.69926 0.75586 0.0
C865 C 0.01727 0.73328 0.73923 0.0
C866 C 0.0406 0.71927 0.68113 0.0
H867 H 0.09624 0.805 0.61606 0.0
H868 H 0.07264 0.79221 0.64908 0.0
H869 H 0.05176 0.71965 0.6458 0.0
H870 H 0.00919 0.6666 0.74073 0.0
H871 H 0.036 0.68368 0.71305 0.0
H872 H 0.05713 0.75797 0.7226 0.0
C873 C 0.0825 0.77949 0.63942 0.0
C874 C 0.05313 0.72815 0.66249 0.0
C875 C 0.09583 0.78676 0.62043 0.0
C876 C 0.01159 0.68522 0.74077 0.0
C877 C 0.02672 0.69507 0.72472 0.0
C878 C 0.05564 0.7496 0.70587 0.0
C879 C 0.08164 0.75594 0.64559 0.0
C880 C 0.06723 0.74774 0.66527 0.0
C881 C 0.02896 0.71927 0.72299 0.0
C882 C 0.04199 0.72957 0.7032 0.0
H883 H 0.1178 0.73425 0.60445 0.0
H884 H 0.0944 0.72168 0.63711 0.0
H885 H 0.07894 0.77372 0.68969 0.0
H886 H 0.99239 0.73451 0.76695 0.0
H887 H 0.01857 0.75197 0.7384 0.0
C888 C 0.8692 0.60891 0.791 0.0
C889 C 0.88844 0.61232 0.77639 0.0
C890 C 0.85032 0.59553 0.78357 0.0
C891 C 0.83588 0.55 0.74103 0.0
H892 H 0.77203 0.56944 0.74888 0.0
C893 C 0.76546 0.50942 0.68662 0.0
C894 C 0.74655 0.49976 0.69848 0.0
C895 C 0.7803 0.52484 0.6977 0.0
C896 C 0.78978 0.56374 0.74681 0.0
H897 H 0.90258 0.60476 0.74234 0.0
H898 H 0.86992 0.5818 0.72951 0.0
H899 H 0.80342 0.59252 0.76609 0.0
H900 H 0.72726 0.50008 0.73071 0.0
H901 H 0.75349 0.5274 0.75027 0.0
H902 H 0.82253 0.52161 0.72145 0.0
C903 C 0.8695 0.58903 0.74684 0.0
C904 C 0.80772 0.57687 0.75667 0.0
C905 C 0.88823 0.60233 0.75419 0.0
C906 C 0.74171 0.5073 0.72116 0.0
C907 C 0.75671 0.52284 0.73235 0.0
C908 C 0.8181 0.53705 0.73116 0.0
C909 C 0.85041 0.58526 0.76146 0.0
C910 C 0.831 0.5704 0.75337 0.0
C911 C 0.77666 0.53098 0.72095 0.0
C912 C 0.79492 0.54406 0.73343 0.0
H913 H 0.86874 0.61651 0.80816 0.0
H914 H 0.83587 0.5929 0.79524 0.0
H915 H 0.85356 0.54418 0.7387 0.0
H916 H 0.76943 0.50421 0.66901 0.0
H917 H 0.79524 0.53128 0.68833 0.0
C918 C 0.61735 0.38821 0.2475 0.0
C919 C 0.60757 0.39069 0.26969 0.0
C920 C 0.63669 0.40121 0.24098 0.0
C921 C 0.66963 0.45426 0.25546 0.0
H922 H 0.71678 0.42561 0.2171 0.0
C923 C 0.75099 0.50459 0.22575 0.0
C924 C 0.75585 0.50298 0.20191 0.0
C925 C 0.73518 0.4894 0.23616 0.0
C926 C 0.70374 0.43389 0.22775 0.0
H927 H 0.61062 0.40887 0.30245 0.0
H928 H 0.64452 0.43147 0.2911 0.0
H929 H 0.68432 0.4025 0.23109 0.0
H930 H 0.7489 0.48329 0.17066 0.0
H931 H 0.72154 0.45683 0.18879 0.0
H932 H 0.68896 0.48572 0.25188 0.0
C933 C 0.63701 0.41964 0.27863 0.0
C934 C 0.68507 0.42066 0.23572 0.0
C935 C 0.61759 0.40663 0.28516 0.0
C936 C 0.74552 0.48506 0.18904 0.0
C937 C 0.72988 0.46981 0.19947 0.0
C938 C 0.68835 0.46747 0.24755 0.0
C939 C 0.64688 0.417 0.25648 0.0
C940 C 0.66756 0.43076 0.24935 0.0
C941 C 0.72407 0.47214 0.22302 0.0
C942 C 0.70544 0.45754 0.23329 0.0
H943 H 0.61011 0.37614 0.23508 0.0
H944 H 0.64352 0.39902 0.22364 0.0
H945 H 0.65637 0.46268 0.26571 0.0
H946 H 0.75859 0.51821 0.23617 0.0
H947 H 0.7313 0.49147 0.25441 0.0
C948 C 0.38367 0.88569 0.25311 0.0
C949 C 0.39282 0.88751 0.23059 0.0
C950 C 0.36462 0.899 0.25981 0.0
C951 C 0.33174 0.95183 0.24486 0.0
H952 H 0.28533 0.92448 0.28505 0.0
C953 C 0.25139 0.00324 0.27482 0.0
C954 C 0.24711 0.00248 0.29882 0.0
C955 C 0.26687 0.98766 0.26457 0.0
C956 C 0.29818 0.93238 0.27388 0.0
H957 H 0.38899 0.90482 0.19744 0.0
H958 H 0.35557 0.92796 0.20912 0.0
H959 H 0.31727 0.90076 0.27081 0.0
H960 H 0.25475 0.98387 0.33058 0.0
H961 H 0.28161 0.9567 0.3127 0.0
H962 H 0.31274 0.9835 0.24816 0.0
C963 C 0.36336 0.91641 0.22168 0.0
C964 C 0.31653 0.91882 0.26577 0.0
C965 C 0.3825 0.90311 0.21497 0.0
C966 C 0.2577 0.985 0.31207 0.0
C967 C 0.27303 0.96934 0.30179 0.0
C968 C 0.31332 0.96536 0.25291 0.0
C969 C 0.35411 0.91442 0.24416 0.0
C970 C 0.33375 0.92847 0.25147 0.0
C971 C 0.27823 0.97085 0.27804 0.0
C972 C 0.29653 0.95588 0.26779 0.0
H973 H 0.39117 0.8739 0.26563 0.0
H974 H 0.35826 0.89733 0.27739 0.0
H975 H 0.34481 0.9599 0.2341 0.0
H976 H 0.24355 0.01649 0.26409 0.0
H977 H 0.27029 0.98905 0.24617 0.0
C978 C 0.2501 0.99373 0.77595 0.0
C979 C 0.25687 0.99581 0.79927 0.0
C980 C 0.23389 0.00909 0.76644 0.0
C981 C 0.1861 0.04681 0.78584 0.0
H982 H 0.18596 0.06878 0.72234 0.0
C983 C 0.11946 0.11342 0.7539 0.0
C984 C 0.10923 0.10973 0.73209 0.0
C985 C 0.13831 0.10011 0.76111 0.0
C986 C 0.18567 0.06258 0.74006 0.0
H987 H 0.25341 0.01671 0.8303 0.0
H988 H 0.22575 0.04377 0.81361 0.0
H989 H 0.21847 0.04549 0.73643 0.0
H990 H 0.11114 0.08926 0.70061 0.0
H991 H 0.14403 0.06581 0.71335 0.0
H992 H 0.1534 0.06373 0.78954 0.0
C993 C 0.23232 0.02987 0.80284 0.0
C994 C 0.20431 0.04928 0.74813 0.0
C995 C 0.24833 0.01446 0.81237 0.0
C996 C 0.11851 0.09249 0.71756 0.0
C997 C 0.13747 0.07917 0.72478 0.0
C998 C 0.16759 0.0601 0.77781 0.0
C999 C 0.22426 0.02691 0.78003 0.0
C1000 C 0.20479 0.04134 0.77118 0.0
C1001 C 0.14749 0.08275 0.74671 0.0
C1002 C 0.16716 0.06825 0.75487 0.0
H1003 H 0.25628 0.97947 0.76543 0.0
H1004 H 0.22803 0.00625 0.74884 0.0
H1005 H 0.18556 0.04049 0.8035 0.0
H1006 H 0.11294 0.12666 0.7655 0.0
H1007 H 0.14584 0.10356 0.77795 0.0
C1008 C 0.78771 0.88034 0.59472 0.0
C1009 C 0.77203 0.89017 0.61058 0.0
C1010 C 0.78132 0.8611 0.58134 0.0
C1011 C 0.73807 0.81337 0.57903 0.0
H1012 H 0.75429 0.81068 0.51389 0.0
C1013 C 0.69008 0.75572 0.51318 0.0
C1014 C 0.7028 0.74515 0.49528 0.0
C1015 C 0.70084 0.77089 0.52868 0.0
C1016 C 0.74994 0.81096 0.53215 0.0
H1017 H 0.73722 0.8875 0.62458 0.0
H1018 H 0.72605 0.8545 0.6011 0.0
H1019 H 0.76868 0.84249 0.53774 0.0
H1020 H 0.73706 0.74159 0.48025 0.0
H1021 H 0.75584 0.76814 0.50739 0.0
H1022 H 0.71882 0.78218 0.57328 0.0
C1023 C 0.74344 0.86127 0.59926 0.0
C1024 C 0.75818 0.82922 0.54583 0.0
C1025 C 0.74981 0.8804 0.61262 0.0
C1026 C 0.72675 0.7494 0.49385 0.0
C1027 C 0.73748 0.76476 0.50927 0.0
C1028 C 0.72977 0.7952 0.56535 0.0
C1029 C 0.75912 0.85127 0.58353 0.0
C1030 C 0.752 0.83088 0.56935 0.0
C1031 C 0.72455 0.77599 0.5266 0.0
C1032 C 0.73528 0.79398 0.54166 0.0
H1033 H 0.80501 0.88733 0.59281 0.0
H1034 H 0.79389 0.85373 0.56953 0.0
H1035 H 0.7334 0.81379 0.5972 0.0
H1036 H 0.67162 0.75281 0.51481 0.0
H1037 H 0.69032 0.77938 0.5417 0.0
C1038 C 0.775 0.25853 0.00489 0.0
C1039 C 0.79867 0.25586 -7e-05 0.0
C1040 C 0.76422 0.24403 0.02112 0.0
C1041 C 0.7749 0.20387 0.06954 0.0
H1042 H 0.72445 0.16752 0.04415 0.0
C1043 C 0.7507 0.11591 0.10834 0.0
C1044 C 0.72739 0.10895 0.10884 0.0
C1045 C 0.75733 0.13596 0.0966 0.0
C1046 C 0.73818 0.17776 0.05176 0.0
H1047 H 0.82993 0.23717 0.00887 0.0
H1048 H 0.81134 0.21246 0.0377 0.0
H1049 H 0.73942 0.2006 0.02247 0.0
H1050 H 0.69272 0.11763 0.09736 0.0
H1051 H 0.70424 0.15302 0.07714 0.0
H1052 H 0.77389 0.18116 0.09875 0.0
C1053 C 0.80104 0.22549 0.02898 0.0
C1054 C 0.74675 0.19673 0.03932 0.0
C1055 C 0.81166 0.23959 0.01247 0.0
C1056 C 0.71086 0.12242 0.0971 0.0
C1057 C 0.71748 0.14271 0.08551 0.0
C1058 C 0.76618 0.18513 0.08211 0.0
C1059 C 0.77709 0.22706 0.03295 0.0
C1060 C 0.76559 0.20957 0.04782 0.0
C1061 C 0.7408 0.14983 0.08528 0.0
C1062 C 0.74817 0.17137 0.07307 0.0
H1063 H 0.76457 0.27079 0.99525 0.0
H1064 H 0.74574 0.2456 0.02394 0.0
H1065 H 0.7893 0.21364 0.07658 0.0
H1066 H 0.76393 0.10585 0.11705 0.0
H1067 H 0.77553 0.14047 0.0963 0.0
C1068 C 0.18632 0.74197 0.48769 0.0
C1069 C 0.19987 0.75501 0.50319 0.0
C1070 C 0.19662 0.72615 0.47261 0.0
C1071 C 0.25013 0.70764 0.44403 0.0
H1072 H 0.22229 0.64666 0.44833 0.0
C1073 C 0.28778 0.62634 0.39707 0.0
C1074 C 0.27161 0.61041 0.3882 0.0
C1075 C 0.28046 0.64496 0.41089 0.0
C1076 C 0.23012 0.66362 0.44659 0.0
H1077 H 0.23511 0.76273 0.51374 0.0
H1078 H 0.25314 0.7351 0.48698 0.0
H1079 H 0.20692 0.67823 0.47149 0.0
H1080 H 0.23501 0.60217 0.3861 0.0
H1081 H 0.22231 0.63466 0.40942 0.0
H1082 H 0.27304 0.69305 0.41865 0.0
C1083 C 0.23449 0.73713 0.48678 0.0
C1084 C 0.22133 0.6817 0.45997 0.0
C1085 C 0.22415 0.75293 0.50209 0.0
C1086 C 0.248 0.61385 0.39297 0.0
C1087 C 0.2407 0.63248 0.4065 0.0
C1088 C 0.25882 0.68951 0.43035 0.0
C1089 C 0.22073 0.72306 0.47246 0.0
C1090 C 0.23101 0.70396 0.45864 0.0
C1091 C 0.25681 0.64812 0.41596 0.0
C1092 C 0.24869 0.66732 0.43124 0.0
H1093 H 0.16761 0.74327 0.48781 0.0
H1094 H 0.18562 0.71581 0.46145 0.0
H1095 H 0.25792 0.72465 0.44271 0.0
H1096 H 0.3061 0.62422 0.39365 0.0
H1097 H 0.29338 0.65656 0.41797 0.0
C1098 C 0.31237 0.25835 0.98515 0.0
C1099 C 0.29946 0.24487 0.00081 0.0
C1100 C 0.30129 0.27235 0.96886 0.0
C1101 C 0.24586 0.30259 0.95926 0.0
H1102 H 0.27402 0.31681 0.89992 0.0
C1103 C 0.20868 0.37078 0.89479 0.0
C1104 C 0.22513 0.38697 0.88695 0.0
C1105 C 0.21572 0.35099 0.90696 0.0
C1106 C 0.26595 0.31299 0.91643 0.0
H1107 H 0.26468 0.23465 0.01071 0.0
H1108 H 0.24531 0.25883 0.98189 0.0
H1109 H 0.28964 0.2854 0.92345 0.0
H1110 H 0.26185 0.39481 0.88537 0.0
H1111 H 0.27403 0.36031 0.90633 0.0
H1112 H 0.22228 0.3304 0.95214 0.0
C1113 C 0.26405 0.25891 0.98259 0.0
C1114 C 0.27492 0.29504 0.92996 0.0
C1115 C 0.27517 0.2449 0.999 0.0
C1116 C 0.24871 0.38279 0.89128 0.0
C1117 C 0.25573 0.36291 0.90312 0.0
C1118 C 0.23674 0.32042 0.94558 0.0
C1119 C 0.27698 0.27318 0.96763 0.0
C1120 C 0.26542 0.29003 0.95185 0.0
C1121 C 0.23934 0.34683 0.91114 0.0
C1122 C 0.24709 0.32618 0.92432 0.0
H1123 H 0.33111 0.25875 0.98597 0.0
H1124 H 0.31187 0.2833 0.95789 0.0
H1125 H 0.23823 0.29943 0.9761 0.0
H1126 H 0.19038 0.37347 0.89169 0.0
H1127 H 0.20273 0.33883 0.91291 0.0
C1128 C 0.51416 0.68933 0.75228 0.0
C1129 C 0.49578 0.70189 0.74241 0.0
C1130 C 0.52953 0.69999 0.76763 0.0
C1131 C 0.53136 0.74755 0.80957 0.0
H1132 H 0.59672 0.7325 0.81255 0.0
C1133 C 0.59198 0.78443 0.88087 0.0
C1134 C 0.60808 0.76885 0.89045 0.0
C1135 C 0.57905 0.77831 0.86126 0.0
C1136 C 0.57846 0.73675 0.81207 0.0
H1137 H 0.47985 0.73586 0.74009 0.0
H1138 H 0.50678 0.75448 0.76691 0.0
H1139 H 0.57357 0.71864 0.78004 0.0
H1140 H 0.62301 0.73451 0.88694 0.0
H1141 H 0.60027 0.72376 0.85321 0.0
H1142 H 0.53609 0.76513 0.84189 0.0
C1143 C 0.50912 0.73631 0.76289 0.0
C1144 C 0.56522 0.72886 0.79339 0.0
C1145 C 0.49383 0.72567 0.74737 0.0
C1146 C 0.61081 0.74698 0.88005 0.0
C1147 C 0.5979 0.74088 0.86053 0.0
C1148 C 0.5446 0.75538 0.8283 0.0
C1149 C 0.52683 0.72345 0.7736 0.0
C1150 C 0.54144 0.73385 0.7921 0.0
C1151 C 0.58195 0.75648 0.85079 0.0
C1152 C 0.56823 0.74973 0.83 0.0
H1153 H 0.51621 0.67101 0.74878 0.0
H1154 H 0.54287 0.68954 0.77568 0.0
H1155 H 0.51302 0.75144 0.80926 0.0
H1156 H 0.58955 0.80147 0.88833 0.0
H1157 H 0.56705 0.79082 0.85409 0.0
C1158 C -0.00035 0.77617 0.25554 0.0
C1159 C 0.9976 0.80045 0.25544 0.0
C1160 C 0.01614 0.76511 0.24157 0.0
C1161 C 0.06873 0.77625 0.20546 0.0
H1162 H 0.04749 0.72285 0.17065 0.0
C1163 C 0.10884 0.74917 0.11854 0.0
C1164 C 0.11333 0.72555 0.11465 0.0
C1165 C 0.09668 0.75634 0.13818 0.0
C1166 C 0.0538 0.73753 0.18049 0.0
H1167 H 0.01208 0.83214 0.24129 0.0
H1168 H 0.04031 0.813 0.21682 0.0
H1169 H 0.02312 0.73895 0.20125 0.0
H1170 H 0.10852 0.69092 0.12844 0.0
H1171 H 0.08676 0.70355 0.16267 0.0
H1172 H 0.09895 0.77538 0.18396 0.0
C1173 C 0.02946 0.80239 0.22784 0.0
C1174 C 0.03987 0.74674 0.19809 0.0
C1175 C 0.01309 0.81341 0.24182 0.0
C1176 C 0.10531 0.70924 0.1309 0.0
C1177 C 0.09282 0.71644 0.15046 0.0
C1178 C 0.08251 0.76718 0.18774 0.0
C1179 C 0.03096 0.77808 0.22719 0.0
C1180 C 0.04694 0.76654 0.21047 0.0
C1181 C 0.08848 0.74009 0.15432 0.0
C1182 C 0.07498 0.74803 0.17475 0.0
H1183 H 0.98807 0.76563 0.26589 0.0
H1184 H 0.01704 0.74637 0.24178 0.0
H1185 H 0.07499 0.79116 0.21496 0.0
H1186 H 0.11486 0.76221 0.10647 0.0
H1187 H 0.09335 0.77466 0.14053 0.0
C1188 C 0.50646 0.22846 0.74966 0.0
C1189 C 0.50439 0.20466 0.75448 0.0
C1190 C 0.49091 0.23935 0.73456 0.0
C1191 C 0.434 0.23261 0.70544 0.0
H1192 H 0.46214 0.26894 0.6564 0.0
C1193 C 0.38675 0.25074 0.61975 0.0
C1194 C 0.38925 0.27258 0.60926 0.0
C1195 C 0.40001 0.24471 0.63906 0.0
C1196 C 0.45391 0.25918 0.67016 0.0
H1197 H 0.48355 0.17401 0.74832 0.0
H1198 H 0.45646 0.193 0.72219 0.0
H1199 H 0.48592 0.25497 0.68842 0.0
H1200 H 0.4077 0.30526 0.611 0.0
H1201 H 0.43082 0.29473 0.64487 0.0
H1202 H 0.40207 0.23648 0.68704 0.0
C1203 C 0.47007 0.20327 0.73001 0.0
C1204 C 0.46755 0.25119 0.68854 0.0
C1205 C 0.48569 0.19235 0.74492 0.0
C1206 C 0.40543 0.28824 0.61855 0.0
C1207 C 0.41872 0.28219 0.63794 0.0
C1208 C 0.42035 0.24065 0.68712 0.0
C1209 C 0.47283 0.22675 0.72419 0.0
C1210 C 0.45784 0.23743 0.70616 0.0
C1211 C 0.41609 0.26037 0.64849 0.0
C1212 C 0.43023 0.25362 0.66899 0.0
H1213 H 0.52069 0.23845 0.75669 0.0
H1214 H 0.49332 0.25754 0.73064 0.0
H1215 H 0.42591 0.22237 0.71893 0.0
H1216 H 0.37449 0.23819 0.61308 0.0
H1217 H 0.39782 0.2276 0.64643 0.0
C1218 C 0.90227 0.21358 0.37786 0.0
C1219 C 0.88923 0.22943 0.39102 0.0
C1220 C 0.91513 0.22112 0.35868 0.0
C1221 C 0.94324 0.273 0.33528 0.0
H1222 H 0.94063 0.24196 0.27572 0.0
C1223 C 0.98672 0.31431 0.25709 0.0
C1224 C -0.00016 0.29987 0.24262 0.0
C1225 C 0.97111 0.30489 0.27293 0.0
C1226 C 0.94172 0.25069 0.29229 0.0
H1227 H 0.87946 0.26561 0.39425 0.0
H1228 H 0.90205 0.27866 0.36116 0.0
H1229 H 0.91858 0.22651 0.30858 0.0
H1230 H 0.00624 0.26438 0.23241 0.0
H1231 H 0.97926 0.24767 0.26065 0.0
H1232 H 0.96662 0.29685 0.31955 0.0
C1233 C 0.90238 0.26045 0.36566 0.0
C1234 C 0.9291 0.24183 0.31109 0.0
C1235 C 0.88937 0.25292 0.3846 0.0
C1236 C 0.99608 0.27586 0.24324 0.0
C1237 C 0.98067 0.26634 0.25947 0.0
C1238 C 0.95593 0.28171 0.31667 0.0
C1239 C 0.91542 0.24467 0.35249 0.0
C1240 C 0.92954 0.2531 0.3327 0.0
C1241 C 0.96866 0.28074 0.27511 0.0
C1242 C 0.95512 0.27091 0.29481 0.0
H1243 H 0.90237 0.19534 0.38224 0.0
H1244 H 0.92513 0.2086 0.34891 0.0
H1245 H 0.94429 0.2818 0.35184 0.0
H1246 H 0.98927 0.33291 0.25681 0.0
H1247 H 0.96161 0.31658 0.28413 0.0
C1248 C 0.15779 0.13448 0.33242 0.0
C1249 C 0.16696 0.11913 0.31588 0.0
C1250 C 0.15017 0.15651 0.32585 0.0
C1251 C 0.133 0.19019 0.27375 0.0
H1252 H 0.14114 0.24325 0.31425 0.0
C1253 C 0.11404 0.28039 0.24056 0.0
C1254 C 0.09695 0.29213 0.25316 0.0
C1255 C 0.12569 0.26168 0.25035 0.0
C1256 C 0.13878 0.22853 0.30284 0.0
H1257 H 0.17592 0.11503 0.27963 0.0
H1258 H 0.16335 0.15355 0.26827 0.0
H1259 H 0.15477 0.20502 0.32668 0.0
H1260 H 0.07943 0.29478 0.28619 0.0
H1261 H 0.10017 0.2619 0.30367 0.0
H1262 H 0.11742 0.2137 0.2498 0.0
C1263 C 0.16126 0.14842 0.28619 0.0
C1264 C 0.14641 0.20662 0.30996 0.0
C1265 C 0.16854 0.12631 0.2927 0.0
C1266 C 0.09291 0.28616 0.27638 0.0
C1267 C 0.10465 0.26734 0.28627 0.0
C1268 C 0.12572 0.21203 0.26656 0.0
C1269 C 0.15186 0.1638 0.30264 0.0
C1270 C 0.14366 0.18717 0.29544 0.0
C1271 C 0.12032 0.2543 0.2729 0.0
C1272 C 0.12861 0.23143 0.28095 0.0
H1273 H 0.15638 0.12943 0.35045 0.0
H1274 H 0.14273 0.16771 0.33893 0.0
H1275 H 0.12997 0.17561 0.26235 0.0
H1276 H 0.11725 0.28472 0.22259 0.0
H1277 H 0.13791 0.2521 0.2398 0.0
C1278 C 0.33547 0.87078 0.79713 0.0
C1279 C 0.3388 0.88021 0.81931 0.0
C1280 C 0.34277 0.84822 0.79225 0.0
C1281 C 0.38405 0.80378 0.80778 0.0
H1282 H 0.33932 0.76113 0.7815 0.0
C1283 C 0.41245 0.7132 0.77731 0.0
C1284 C 0.40433 0.70747 0.7551 0.0
C1285 C 0.40224 0.73142 0.78972 0.0
C1286 C 0.35209 0.77282 0.78871 0.0
H1287 H 0.353 0.8738 0.85353 0.0
H1288 H 0.3665 0.83461 0.84463 0.0
H1289 H 0.32714 0.80003 0.7926 0.0
H1290 H 0.37797 0.71484 0.72934 0.0
H1291 H 0.36066 0.74653 0.75046 0.0
H1292 H 0.40935 0.77724 0.80269 0.0
C1293 C 0.35795 0.84459 0.83123 0.0
C1294 C 0.34506 0.79506 0.79508 0.0
C1295 C 0.35022 0.86695 0.83628 0.0
C1296 C 0.38476 0.71899 0.74636 0.0
C1297 C 0.37467 0.73712 0.75863 0.0
C1298 C 0.39121 0.78165 0.80102 0.0
C1299 C 0.35393 0.83491 0.8093 0.0
C1300 C 0.36108 0.81086 0.80422 0.0
C1301 C 0.38375 0.74414 0.78011 0.0
C1302 C 0.37542 0.76606 0.79087 0.0
H1303 H 0.32653 0.88053 0.78382 0.0
H1304 H 0.33967 0.84114 0.77514 0.0
H1305 H 0.39669 0.81572 0.81482 0.0
H1306 H 0.4275 0.70461 0.78449 0.0
H1307 H 0.40939 0.7361 0.80642 0.0
C1308 C 0.64913 0.37474 0.67259 0.0
C1309 C 0.66739 0.38355 0.68612 0.0
C1310 C 0.6408 0.35231 0.67623 0.0
C1311 C 0.65747 0.29593 0.70149 0.0
H1312 H 0.59131 0.28477 0.704 0.0
C1313 C 0.61682 0.21908 0.749 0.0
C1314 C 0.59576 0.20975 0.7412 0.0
C1315 C 0.62715 0.23751 0.73734 0.0
C1316 C 0.60984 0.28743 0.70282 0.0
H1317 H 0.69112 0.37563 0.71419 0.0
H1318 H 0.67637 0.33662 0.72071 0.0
H1319 H 0.60562 0.32328 0.69431 0.0
H1320 H 0.56977 0.21128 0.71418 0.0
H1321 H 0.58798 0.24361 0.69354 0.0
H1322 H 0.66169 0.26023 0.71055 0.0
C1323 C 0.66869 0.347 0.7071 0.0
C1324 C 0.61804 0.30956 0.69738 0.0
C1325 C 0.67696 0.36946 0.70354 0.0
C1326 C 0.58607 0.21808 0.72049 0.0
C1327 C 0.59636 0.23674 0.70885 0.0
C1328 C 0.64928 0.2738 0.70687 0.0
C1329 C 0.65062 0.33811 0.69338 0.0
C1330 C 0.64194 0.31418 0.6972 0.0
C1331 C 0.61659 0.24715 0.71763 0.0
C1332 C 0.62536 0.26943 0.70815 0.0
H1333 H 0.64143 0.38506 0.65894 0.0
H1334 H 0.62697 0.34591 0.66528 0.0
H1335 H 0.676 0.29883 0.70098 0.0
H1336 H 0.62469 0.21294 0.76491 0.0
H1337 H 0.6426 0.24517 0.74472 0.0
C1338 C 0.84767 0.63258 0.1634 0.0
C1339 C 0.83694 0.61899 0.18055 0.0
C1340 C 0.85548 0.65491 0.16851 0.0
C1341 C 0.84414 0.70375 0.20637 0.0
H1342 H 0.90786 0.72198 0.19554 0.0
C1343 C 0.88594 0.77946 0.254 0.0
C1344 C 0.90472 0.79148 0.24424 0.0
C1345 C 0.87552 0.76123 0.24218 0.0
C1346 C 0.88985 0.71746 0.19815 0.0
H1347 H 0.82593 0.6181 0.21646 0.0
H1348 H 0.83923 0.65739 0.22528 0.0
H1349 H 0.89465 0.68371 0.18332 0.0
H1350 H 0.92613 0.795 0.21361 0.0
H1351 H 0.90743 0.76328 0.19248 0.0
H1352 H 0.83909 0.73736 0.221 0.0
C1353 C 0.84172 0.65061 0.20795 0.0
C1354 C 0.88238 0.69544 0.19132 0.0
C1355 C 0.83432 0.6281 0.20297 0.0
C1356 C 0.91171 0.78602 0.22157 0.0
C1357 C 0.90117 0.76767 0.20962 0.0
C1358 C 0.85147 0.72587 0.21283 0.0
C1359 C 0.85225 0.66423 0.19073 0.0
C1360 C 0.85965 0.6882 0.19598 0.0
C1361 C 0.88343 0.75458 0.22012 0.0
C1362 C 0.87462 0.73277 0.20949 0.0
H1363 H 0.8499 0.626 0.14596 0.0
H1364 H 0.86353 0.66511 0.15496 0.0
H1365 H 0.82639 0.69869 0.20973 0.0
H1366 H 0.88 0.78338 0.27139 0.0
H1367 H 0.86215 0.75152 0.25103 0.0
C1368 C 0.27685 0.08269 0.27936 0.0
C1369 C 0.25848 0.09392 0.29063 0.0
C1370 C 0.28757 0.0931 0.26025 0.0
C1371 C 0.31103 0.12085 0.22186 0.0
H1372 H 0.26645 0.1519 0.18233 0.0
C1373 C 0.33654 0.16556 0.1357 0.0
C1374 C 0.32074 0.16434 0.11719 0.0
C1375 C 0.33054 0.15721 0.15761 0.0
C1376 C 0.2791 0.14308 0.19301 0.0
H1377 H 0.2383 0.12544 0.29251 0.0
H1378 H 0.25782 0.1442 0.26013 0.0
H1379 H 0.2545 0.13796 0.22003 0.0
H1380 H 0.28649 0.15281 0.10701 0.0
H1381 H 0.27623 0.13766 0.14504 0.0
H1382 H 0.33533 0.1251 0.19415 0.0
C1383 C 0.26339 0.12703 0.26523 0.0
C1384 C 0.27236 0.13546 0.21491 0.0
C1385 C 0.2524 0.11646 0.28396 0.0
C1386 C 0.29899 0.15413 0.12093 0.0
C1387 C 0.29307 0.1456 0.1428 0.0
C1388 C 0.31774 0.12835 0.19979 0.0
C1389 C 0.28026 0.11501 0.25239 0.0
C1390 C 0.2882 0.12422 0.22964 0.0
C1391 C 0.30865 0.14731 0.16149 0.0
C1392 C 0.30179 0.13943 0.18505 0.0
H1393 H 0.2816 0.06515 0.28405 0.0
H1394 H 0.30042 0.08328 0.25075 0.0
H1395 H 0.32371 0.11238 0.23278 0.0
H1396 H 0.3534 0.17348 0.13344 0.0
H1397 H 0.34285 0.1591 0.17164 0.0
C1398 C 0.25603 0.88467 0.77899 0.0
C1399 C 0.24658 0.90355 0.7911 0.0
C1400 C 0.24384 0.87425 0.761 0.0
C1401 C 0.19949 0.88899 0.71786 0.0
H1402 H 0.21017 0.82541 0.69888 0.0
C1403 C 0.16389 0.84765 0.63299 0.0
C1404 C 0.18083 0.83669 0.61932 0.0
C1405 C 0.16918 0.85527 0.65535 0.0
C1406 C 0.20706 0.84319 0.70402 0.0
H1407 H 0.21612 0.92511 0.7951 0.0
H1408 H 0.19439 0.90642 0.76381 0.0
H1409 H 0.2219 0.83792 0.73751 0.0
H1410 H 0.21652 0.82509 0.61829 0.0
H1411 H 0.22564 0.8381 0.65762 0.0
H1412 H 0.1845 0.89403 0.68423 0.0
C1413 C 0.21155 0.90009 0.76794 0.0
C1414 C 0.21377 0.8504 0.7261 0.0
C1415 C 0.22386 0.91063 0.78603 0.0
C1416 C 0.2032 0.83367 0.62836 0.0
C1417 C 0.20835 0.84089 0.65089 0.0
C1418 C 0.19242 0.88164 0.69589 0.0
C1419 C 0.22174 0.88228 0.75471 0.0
C1420 C 0.21077 0.87359 0.73305 0.0
C1421 C 0.19134 0.85163 0.6646 0.0
C1422 C 0.19677 0.85887 0.68857 0.0
H1423 H 0.27345 0.87867 0.78261 0.0
H1424 H 0.25245 0.8608 0.75115 0.0
H1425 H 0.19715 0.90702 0.72244 0.0
H1426 H 0.14649 0.85019 0.62647 0.0
H1427 H 0.15579 0.86349 0.66563 0.0
C1428 C 0.77778 0.41529 0.7199 0.0
C1429 C 0.7606 0.40511 0.7061 0.0
C1430 C 0.78725 0.40312 0.73854 0.0
C1431 C 0.76777 0.361 0.78064 0.0
H1432 H 0.83097 0.3631 0.80322 0.0
C1433 C 0.79316 0.31965 0.86771 0.0
C1434 C 0.80954 0.33118 0.88154 0.0
C1435 C 0.78878 0.32692 0.84508 0.0
C1436 C 0.81319 0.36258 0.79727 0.0
H1437 H 0.74027 0.37425 0.70007 0.0
H1438 H 0.75692 0.35274 0.73269 0.0
H1439 H 0.82207 0.3775 0.76438 0.0
H1440 H 0.83406 0.35962 0.88242 0.0
H1441 H 0.82582 0.37289 0.84313 0.0
H1442 H 0.75856 0.34708 0.81363 0.0
C1443 C 0.76322 0.37003 0.72904 0.0
C1444 C 0.80816 0.37066 0.77496 0.0
C1445 C 0.75392 0.38216 0.71025 0.0
C1446 C 0.8213 0.35036 0.87224 0.0
C1447 C 0.81675 0.35782 0.84962 0.0
C1448 C 0.77273 0.35316 0.80296 0.0
C1449 C 0.77931 0.38073 0.7439 0.0
C1450 C 0.78537 0.37006 0.76648 0.0
C1451 C 0.80049 0.34611 0.83571 0.0
C1452 C 0.79547 0.35398 0.81165 0.0
H1453 H 0.7827 0.43321 0.71723 0.0
H1454 H 0.79942 0.4119 0.7498 0.0
H1455 H 0.74994 0.3608 0.7748 0.0
H1456 H 0.78402 0.30462 0.87415 0.0
H1457 H 0.77647 0.3172 0.8348 0.0
C1458 C 0.75468 0.61379 0.22112 0.0
C1459 C 0.74535 0.59478 0.20914 0.0
C1460 C 0.74245 0.62422 0.23908 0.0
C1461 C 0.6983 0.60945 0.28245 0.0
H1462 H 0.70873 0.67319 0.30101 0.0
C1463 C 0.66335 0.65141 0.36749 0.0
C1464 C 0.68053 0.66226 0.38094 0.0
C1465 C 0.66833 0.64363 0.34511 0.0
C1466 C 0.70567 0.65536 0.29599 0.0
H1467 H 0.71507 0.57294 0.20535 0.0
H1468 H 0.69326 0.59164 0.2366 0.0
H1469 H 0.72029 0.66053 0.26238 0.0
H1470 H 0.71634 0.67351 0.38153 0.0
H1471 H 0.72492 0.66027 0.34217 0.0
H1472 H 0.68353 0.60452 0.31622 0.0
C1473 C 0.71035 0.59809 0.23238 0.0
C1474 C 0.7123 0.64807 0.2739 0.0
C1475 C 0.72271 0.58754 0.21432 0.0
C1476 C 0.70284 0.66501 0.37165 0.0
C1477 C 0.70768 0.65765 0.3491 0.0
C1478 C 0.6913 0.61689 0.30443 0.0
C1479 C 0.72043 0.61606 0.24548 0.0
C1480 C 0.70943 0.62482 0.26712 0.0
C1481 C 0.69043 0.64704 0.3356 0.0
C1482 C 0.69558 0.63972 0.3116 0.0
H1483 H 0.77204 0.6199 0.21741 0.0
H1484 H 0.75097 0.63779 0.24883 0.0
H1485 H 0.69605 0.59138 0.278 0.0
H1486 H 0.64598 0.64908 0.37422 0.0
H1487 H 0.65478 0.6355 0.335 0.0
C1488 C 0.28296 0.27725 0.08427 0.0
C1489 C 0.29052 0.25589 0.09313 0.0
C1490 C 0.26392 0.28855 0.09426 0.0
C1491 C 0.22427 0.28767 0.14548 0.0
H1492 H 0.1775 0.30565 0.10073 0.0
C1493 C 0.12758 0.29136 0.1686 0.0
C1494 C 0.1149 0.31076 0.16112 0.0
C1495 C 0.15013 0.28761 0.16067 0.0
C1496 C 0.19048 0.30099 0.11345 0.0
H1497 H 0.28545 0.23056 0.12039 0.0
H1498 H 0.25252 0.25005 0.13769 0.0
H1499 H 0.2164 0.29579 0.08746 0.0
H1500 H 0.11583 0.34104 0.1388 0.0
H1501 H 0.15509 0.3342 0.1247 0.0
H1502 H 0.19804 0.29201 0.17136 0.0
C1503 C 0.26108 0.25826 0.12315 0.0
C1504 C 0.21283 0.29547 0.10588 0.0
C1505 C 0.27993 0.24698 0.11314 0.0
C1506 C 0.12505 0.32588 0.1449 0.0
C1507 C 0.14756 0.322 0.13681 0.0
C1508 C 0.20191 0.29302 0.15301 0.0
C1509 C 0.25231 0.27875 0.11337 0.0
C1510 C 0.22984 0.28822 0.12176 0.0
C1511 C 0.16046 0.30304 0.14491 0.0
C1512 C 0.18464 0.29923 0.13703 0.0
H1513 H 0.29075 0.28446 0.06879 0.0
H1514 H 0.25776 0.30449 0.08652 0.0
H1515 H 0.23706 0.28256 0.15822 0.0
H1516 H 0.12025 0.27922 0.18087 0.0
H1517 H 0.15949 0.27258 0.16687 0.0
C1518 C 0.77116 0.25568 0.89283 0.0
C1519 C 0.78993 0.24342 0.90221 0.0
C1520 C 0.75518 0.2447 0.87866 0.0
C1521 C 0.72686 0.19022 0.8725 0.0
H1522 H 0.69745 0.2215 0.82076 0.0
C1523 C 0.63849 0.16167 0.83401 0.0
C1524 C 0.62261 0.17977 0.83013 0.0
C1525 C 0.66155 0.16646 0.83948 0.0
C1526 C 0.70548 0.21254 0.83516 0.0
H1527 H 0.80722 0.21018 0.90362 0.0
H1528 H 0.77829 0.19036 0.87912 0.0
H1529 H 0.73541 0.23436 0.83417 0.0
H1530 H 0.61852 0.2171 0.82908 0.0
H1531 H 0.65874 0.22546 0.83891 0.0
H1532 H 0.69639 0.16914 0.87423 0.0
C1533 C 0.77642 0.20871 0.88256 0.0
C1534 C 0.72727 0.21974 0.84268 0.0
C1535 C 0.79293 0.21998 0.89644 0.0
C1536 C 0.63026 0.20277 0.83208 0.0
C1537 C 0.65336 0.20755 0.83744 0.0
C1538 C 0.70502 0.18297 0.86494 0.0
C1539 C 0.75724 0.221 0.87382 0.0
C1540 C 0.73773 0.2093 0.86203 0.0
C1541 C 0.66928 0.18944 0.84102 0.0
C1542 C 0.69374 0.19469 0.8468 0.0
H1543 H 0.76835 0.27372 0.89713 0.0
H1544 H 0.74041 0.25456 0.87257 0.0
H1545 H 0.73442 0.18203 0.8876 0.0
H1546 H 0.6332 0.14373 0.83252 0.0
H1547 H 0.67342 0.15217 0.84208 0.0
C1548 C 0.72208 0.74398 0.3844 0.0
C1549 C 0.7096 0.7539 0.4028 0.0
C1550 C 0.73992 0.75613 0.37368 0.0
C1551 C 0.78196 0.80194 0.38709 0.0
H1552 H 0.80171 0.78932 0.32407 0.0
C1553 C 0.86639 0.8378 0.34518 0.0
C1554 C 0.88051 0.82074 0.33499 0.0
C1555 C 0.84408 0.83234 0.35277 0.0
C1556 C 0.79636 0.79298 0.3417 0.0
H1557 H 0.70479 0.78507 0.42316 0.0
H1558 H 0.73581 0.8067 0.40396 0.0
H1559 H 0.76327 0.77719 0.33673 0.0
H1560 H 0.88236 0.78468 0.3247 0.0
H1561 H 0.84312 0.77525 0.33765 0.0
H1562 H 0.81518 0.81787 0.39183 0.0
C1563 C 0.73209 0.78923 0.39824 0.0
C1564 C 0.77438 0.78603 0.34899 0.0
C1565 C 0.71416 0.77696 0.40907 0.0
C1566 C 0.87195 0.7981 0.33268 0.0
C1567 C 0.84947 0.79276 0.33987 0.0
C1568 C 0.80382 0.80923 0.37964 0.0
C1569 C 0.74569 0.77864 0.38093 0.0
C1570 C 0.76717 0.78975 0.372 0.0
C1571 C 0.83531 0.80987 0.34985 0.0
C1572 C 0.81142 0.80421 0.3571 0.0
H1573 H 0.71885 0.72629 0.379 0.0
H1574 H 0.75006 0.74723 0.36065 0.0
H1575 H 0.77718 0.80486 0.405 0.0
H1576 H 0.87254 0.85541 0.34715 0.0
H1577 H 0.83346 0.84581 0.3604 0.0
C1578 C 0.36512 0.662 0.65295 0.0
C1579 C 0.37867 0.6793 0.66349 0.0
C1580 C 0.34265 0.66689 0.64543 0.0
C1581 C 0.29361 0.70439 0.65705 0.0
H1582 H 0.27565 0.69436 0.59308 0.0
C1583 C 0.21957 0.75387 0.6148 0.0
C1584 C 0.20761 0.74456 0.59576 0.0
C1585 C 0.23724 0.74144 0.62548 0.0
C1586 C 0.28008 0.69672 0.61116 0.0
H1587 H 0.37933 0.71518 0.67454 0.0
H1588 H 0.3398 0.72359 0.66175 0.0
H1589 H 0.31375 0.68175 0.60636 0.0
H1590 H 0.20349 0.71416 0.57413 0.0
H1591 H 0.23425 0.69202 0.59324 0.0
H1592 H 0.26011 0.71926 0.66207 0.0
C1593 C 0.34672 0.70633 0.65918 0.0
C1594 C 0.302 0.68966 0.61867 0.0
C1595 C 0.36936 0.70159 0.66629 0.0
C1596 C 0.21247 0.72178 0.58875 0.0
C1597 C 0.23025 0.70923 0.59953 0.0
C1598 C 0.27158 0.71108 0.64968 0.0
C1599 C 0.33316 0.689 0.64879 0.0
C1600 C 0.30917 0.69411 0.64148 0.0
C1601 C 0.24336 0.71926 0.61752 0.0
C1602 C 0.26482 0.70808 0.62643 0.0
H1603 H 0.37186 0.64465 0.65059 0.0
H1604 H 0.3325 0.65327 0.63747 0.0
H1605 H 0.29864 0.70759 0.67486 0.0
H1606 H 0.21609 0.77133 0.62075 0.0
H1607 H 0.24701 0.74993 0.63905 0.0
C1608 C 0.83189 0.87229 0.70749 0.0
C1609 C 0.83515 0.87998 0.68466 0.0
C1610 C 0.83844 0.84992 0.71392 0.0
C1611 C 0.85436 0.79225 0.68934 0.0
H1612 H 0.8786 0.78257 0.75122 0.0
C1613 C 0.90728 0.71265 0.72258 0.0
C1614 C 0.90203 0.70528 0.74513 0.0
C1615 C 0.8954 0.73148 0.71292 0.0
C1616 C 0.87158 0.78496 0.73397 0.0
H1617 H 0.84811 0.87047 0.6507 0.0
H1618 H 0.8606 0.83182 0.66216 0.0
H1619 H 0.86697 0.82118 0.73938 0.0
H1620 H 0.8796 0.71026 0.77469 0.0
H1621 H 0.85875 0.74302 0.75787 0.0
H1622 H 0.86017 0.75587 0.68387 0.0
C1623 C 0.85232 0.84273 0.67498 0.0
C1624 C 0.86484 0.80711 0.72717 0.0
C1625 C 0.84539 0.86499 0.66845 0.0
C1626 C 0.8837 0.71563 0.75718 0.0
C1627 C 0.87194 0.73442 0.74764 0.0
C1628 C 0.8615 0.77006 0.69608 0.0
C1629 C 0.84879 0.83483 0.69777 0.0
C1630 C 0.85603 0.81109 0.70481 0.0
C1631 C 0.87843 0.74319 0.72589 0.0
C1632 C 0.87001 0.76624 0.71852 0.0
H1633 H 0.82364 0.88331 0.72025 0.0
H1634 H 0.83496 0.84435 0.7315 0.0
H1635 H 0.84736 0.79455 0.67209 0.0
H1636 H 0.92174 0.70515 0.71326 0.0
H1637 H 0.90079 0.73802 0.69617 0.0
C1638 C 0.65848 0.12333 0.20257 0.0
C1639 C 0.65888 0.11639 0.17927 0.0
C1640 C 0.6497 0.145 0.20876 0.0
C1641 C 0.63538 0.20296 0.18436 0.0
H1642 H 0.60456 0.21006 0.24363 0.0
C1643 C 0.5852 0.28406 0.22285 0.0
C1644 C 0.59359 0.29022 0.24489 0.0
C1645 C 0.59401 0.26446 0.21148 0.0
C1646 C 0.61311 0.20826 0.227 0.0
H1647 H 0.64999 0.12656 0.14418 0.0
H1648 H 0.63386 0.16402 0.15507 0.0
H1649 H 0.61642 0.17167 0.23087 0.0
H1650 H 0.61927 0.28222 0.27118 0.0
H1651 H 0.63429 0.2481 0.25147 0.0
H1652 H 0.63141 0.23984 0.1806 0.0
C1653 C 0.64088 0.15301 0.16853 0.0
C1654 C 0.62009 0.18632 0.21974 0.0
C1655 C 0.64995 0.13144 0.16231 0.0
C1656 C 0.61224 0.27774 0.25435 0.0
C1657 C 0.62084 0.25821 0.24313 0.0
C1658 C 0.62802 0.22495 0.19152 0.0
C1659 C 0.64078 0.16016 0.19183 0.0
C1660 C 0.63178 0.1834 0.19856 0.0
C1661 C 0.6112 0.2509 0.2221 0.0
C1662 C 0.61726 0.22776 0.21311 0.0
H1663 H 0.66554 0.11228 0.216 0.0
H1664 H 0.65042 0.15005 0.22682 0.0
H1665 H 0.64451 0.20144 0.16804 0.0
H1666 H 0.57077 0.29329 0.2152 0.0
H1667 H 0.58636 0.25903 0.19522 0.0
C1668 C 0.38307 0.77905 0.24926 0.0
C1669 C 0.40408 0.78856 0.25698 0.0
C1670 C 0.37269 0.76088 0.26127 0.0
C1671 C 0.38985 0.71171 0.29687 0.0
H1672 H 0.3237 0.70019 0.29813 0.0
C1673 C 0.35012 0.62454 0.32716 0.0
C1674 C 0.33225 0.61563 0.31319 0.0
C1675 C 0.35849 0.64698 0.32363 0.0
C1676 C 0.34223 0.70314 0.29781 0.0
H1677 H 0.42993 0.78765 0.28417 0.0
H1678 H 0.41163 0.75575 0.30541 0.0
H1679 H 0.33803 0.73872 0.28829 0.0
H1680 H 0.3094 0.62329 0.28433 0.0
H1681 H 0.32414 0.66232 0.27808 0.0
H1682 H 0.39404 0.67597 0.30584 0.0
C1683 C 0.40333 0.76229 0.28991 0.0
C1684 C 0.35043 0.72522 0.29228 0.0
C1685 C 0.41367 0.78069 0.27792 0.0
C1686 C 0.32317 0.62957 0.29541 0.0
C1687 C 0.33146 0.65204 0.29196 0.0
C1688 C 0.38164 0.68964 0.30249 0.0
C1689 C 0.38314 0.75168 0.28125 0.0
C1690 C 0.37435 0.7296 0.29112 0.0
C1691 C 0.34909 0.66105 0.30615 0.0
C1692 C 0.35776 0.68497 0.30242 0.0
H1693 H 0.37528 0.78485 0.23319 0.0
H1694 H 0.35729 0.75304 0.25397 0.0
H1695 H 0.40839 0.71439 0.29583 0.0
H1696 H 0.35744 0.61432 0.3411 0.0
H1697 H 0.37201 0.65349 0.3349 0.0
C1698 C 0.08476 0.21957 0.77474 0.0
C1699 C 0.09437 0.21034 0.75435 0.0
C1700 C 0.09416 0.2397 0.78462 0.0
C1701 C 0.12379 0.29141 0.76434 0.0
H1702 H 0.13528 0.30593 0.82889 0.0
C1703 C 0.17015 0.37509 0.79088 0.0
C1704 C 0.16314 0.38654 0.81119 0.0
C1705 C 0.16122 0.35334 0.78529 0.0
C1706 C 0.13183 0.30223 0.81082 0.0
H1707 H 0.12255 0.21334 0.7297 0.0
H1708 H 0.13903 0.24802 0.74707 0.0
H1709 H 0.12179 0.26712 0.81814 0.0
H1710 H 0.14083 0.38417 0.84138 0.0
H1711 H 0.12474 0.34641 0.83125 0.0
H1712 H 0.13328 0.32632 0.75683 0.0
C1713 C 0.12401 0.24017 0.75513 0.0
C1714 C 0.12422 0.28 0.80471 0.0
C1715 C 0.11467 0.22023 0.74529 0.0
C1716 C 0.1466 0.37586 0.82557 0.0
C1717 C 0.13754 0.3541 0.8199 0.0
C1718 C 0.13115 0.31357 0.77043 0.0
C1719 C 0.11323 0.25072 0.77421 0.0
C1720 C 0.12052 0.2743 0.78134 0.0
C1721 C 0.14485 0.34251 0.79974 0.0
C1722 C 0.13564 0.3192 0.79368 0.0
H1723 H 0.06901 0.21237 0.78196 0.0
H1724 H 0.08557 0.24748 0.79939 0.0
H1725 H 0.1205 0.28768 0.74623 0.0
H1726 H 0.18284 0.38276 0.77938 0.0
H1727 H 0.16755 0.34481 0.76982 0.0
C1728 C 0.70073 0.83248 0.87121 0.0
C1729 C 0.67837 0.83524 0.88037 0.0
C1730 C 0.70572 0.83989 0.8487 0.0
C1731 C 0.68946 0.88069 0.80392 0.0
H1732 H 0.71907 0.83723 0.7621 0.0
C1733 C 0.72139 0.91022 0.71404 0.0
C1734 C 0.74415 0.90319 0.70913 0.0
C1735 C 0.70893 0.89956 0.73198 0.0
C1736 C 0.7109 0.84964 0.77356 0.0
H1737 H 0.64388 0.84848 0.87345 0.0
H1738 H 0.65292 0.86212 0.83432 0.0
H1739 H 0.70731 0.82451 0.80065 0.0
H1740 H 0.77099 0.87833 0.71771 0.0
H1741 H 0.74973 0.86023 0.74887 0.0
H1742 H 0.6942 0.90621 0.7775 0.0
C1743 C 0.66642 0.85396 0.84449 0.0
C1744 C 0.70416 0.84231 0.7956 0.0
C1745 C 0.66129 0.84615 0.86684 0.0
C1746 C 0.75353 0.88427 0.72122 0.0
C1747 C 0.74119 0.87371 0.73903 0.0
C1748 C 0.69655 0.88816 0.78198 0.0
C1749 C 0.68857 0.85055 0.83511 0.0
C1750 C 0.69386 0.85789 0.81114 0.0
C1751 C 0.71903 0.88169 0.74519 0.0
C1752 C 0.7079 0.87286 0.76674 0.0
H1753 H 0.71417 0.82395 0.88115 0.0
H1754 H 0.72301 0.83727 0.84187 0.0
H1755 H 0.68152 0.89301 0.81565 0.0
H1756 H 0.71373 0.92477 0.705 0.0
H1757 H 0.69173 0.90587 0.73602 0.0
C1758 C 0.74121 0.11386 0.21925 0.0
C1759 C 0.75131 0.09509 0.20748 0.0
C1760 C 0.75204 0.12348 0.23852 0.0
C1761 C 0.80384 0.13162 0.27212 0.0
H1762 H 0.7633 0.12312 0.32511 0.0
C1763 C 0.83304 0.15304 0.36564 0.0
C1764 C 0.81644 0.16271 0.38061 0.0
C1765 C 0.82655 0.14442 0.34398 0.0
C1766 C 0.77474 0.12599 0.31052 0.0
H1767 H 0.78169 0.07312 0.20525 0.0
H1768 H 0.80095 0.09042 0.23908 0.0
H1769 H 0.75064 0.11071 0.28689 0.0
H1770 H 0.78013 0.17133 0.38451 0.0
H1771 H 0.76886 0.15705 0.34649 0.0
H1772 H 0.82764 0.14771 0.29555 0.0
C1773 C 0.78452 0.09741 0.23332 0.0
C1774 C 0.76753 0.11871 0.28867 0.0
C1775 C 0.77355 0.0876 0.21398 0.0
C1776 C 0.79324 0.16366 0.37348 0.0
C1777 C 0.7868 0.15537 0.35169 0.0
C1778 C 0.81096 0.13929 0.29401 0.0
C1779 C 0.77328 0.11469 0.24627 0.0
C1780 C 0.78189 0.12166 0.26929 0.0
C1781 C 0.80336 0.14559 0.33666 0.0
C1782 C 0.79637 0.13675 0.31346 0.0
H1783 H 0.72421 0.12022 0.21444 0.0
H1784 H 0.74324 0.13701 0.2481 0.0
H1785 H 0.81514 0.13405 0.25733 0.0
H1786 H 0.85108 0.15202 0.3707 0.0
H1787 H 0.8397 0.13668 0.33308 0.0
C1788 C 0.17442 0.64903 0.12795 0.0
C1789 C 0.18911 0.66477 0.11655 0.0
C1790 C 0.17954 0.64144 0.15041 0.0
C1791 C 0.22784 0.63816 0.1929 0.0
H1792 H 0.17835 0.62879 0.23741 0.0
C1793 C 0.24936 0.61669 0.28655 0.0
C1794 C 0.2394 0.5959 0.29409 0.0
C1795 C 0.24039 0.62819 0.26726 0.0
C1796 C 0.1923 0.6314 0.22514 0.0
H1797 H 0.22102 0.68434 0.1197 0.0
H1798 H 0.22949 0.67184 0.15885 0.0
H1799 H 0.16908 0.64159 0.19805 0.0
H1800 H 0.21175 0.57127 0.28853 0.0
H1801 H 0.19562 0.59163 0.25495 0.0
H1802 H 0.25103 0.62815 0.21995 0.0
C1803 C 0.21421 0.66498 0.15042 0.0
C1804 C 0.18703 0.63853 0.20254 0.0
C1805 C 0.20923 0.67235 0.12794 0.0
C1806 C 0.21928 0.58764 0.28328 0.0
C1807 C 0.21018 0.59922 0.26403 0.0
C1808 C 0.23309 0.63134 0.21547 0.0
C1809 C 0.19939 0.64951 0.16203 0.0
C1810 C 0.20476 0.64192 0.18611 0.0
C1811 C 0.22136 0.61896 0.25517 0.0
C1812 C 0.21541 0.62784 0.23182 0.0
H1813 H 0.15875 0.64284 0.1197 0.0
H1814 H 0.16794 0.6292 0.15863 0.0
H1815 H 0.24192 0.64004 0.18065 0.0
H1816 H 0.26517 0.62305 0.29443 0.0
H1817 H 0.24919 0.6435 0.26092 0.0
C1818 C 0.27864 0.40762 0.78797 0.0
C1819 C 0.25558 0.40352 0.79439 0.0
C1820 C 0.28811 0.39618 0.76874 0.0
C1821 C 0.26736 0.37588 0.71343 0.0
H1822 H 0.32748 0.34732 0.70497 0.0
C1823 C 0.29278 0.33459 0.62649 0.0
C1824 C 0.31591 0.33627 0.61919 0.0
C1825 C 0.28639 0.34164 0.64874 0.0
C1826 C 0.31076 0.35555 0.70697 0.0
H1827 H 0.22482 0.38343 0.78724 0.0
H1828 H 0.24129 0.36331 0.75388 0.0
H1829 H 0.31561 0.36024 0.74361 0.0
H1830 H 0.35045 0.34694 0.62936 0.0
H1831 H 0.33915 0.36019 0.66783 0.0
H1832 H 0.26259 0.37221 0.67697 0.0
C1833 C 0.25206 0.37533 0.76346 0.0
C1834 C 0.30395 0.36278 0.72912 0.0
C1835 C 0.24271 0.38666 0.7826 0.0
C1836 C 0.33247 0.34544 0.6345 0.0
C1837 C 0.32602 0.35281 0.65666 0.0
C1838 C 0.27424 0.36901 0.69133 0.0
C1839 C 0.27445 0.38077 0.7557 0.0
C1840 C 0.28208 0.37279 0.73255 0.0
C1841 C 0.30291 0.35089 0.66413 0.0
C1842 C 0.29594 0.35857 0.68777 0.0
H1843 H 0.28865 0.42094 0.79661 0.0
H1844 H 0.30539 0.40072 0.76303 0.0
H1845 H 0.25059 0.38406 0.71551 0.0
H1846 H 0.2797 0.32722 0.61523 0.0
H1847 H 0.26853 0.33942 0.65398 0.0
C1848 C 0.87095 0.70734 0.82908 0.0
C1849 C 0.88372 0.68822 0.83709 0.0
C1850 C 0.8483 0.71107 0.83672 0.0
C1851 C 0.80769 0.69809 0.88388 0.0
H1852 H 0.76138 0.71609 0.83865 0.0
C1853 C 0.71506 0.72171 0.91232 0.0
C1854 C 0.70762 0.74311 0.90344 0.0
C1855 C 0.7341 0.71036 0.90241 0.0
C1856 C 0.7741 0.71108 0.85151 0.0
H1857 H 0.88281 0.65837 0.85997 0.0
H1858 H 0.84336 0.66513 0.87352 0.0
H1859 H 0.80051 0.7066 0.82585 0.0
H1860 H 0.71288 0.76844 0.87622 0.0
H1861 H 0.74581 0.74881 0.85903 0.0
H1862 H 0.78156 0.7034 0.90964 0.0
C1863 C 0.85091 0.67716 0.86126 0.0
C1864 C 0.79652 0.70572 0.84418 0.0
C1865 C 0.87353 0.67332 0.85349 0.0
C1866 C 0.71831 0.75199 0.88346 0.0
C1867 C 0.73715 0.74064 0.87353 0.0
C1868 C 0.78527 0.70359 0.89124 0.0
C1869 C 0.83794 0.69587 0.85269 0.0
C1870 C 0.81369 0.69968 0.86034 0.0
C1871 C 0.74583 0.72014 0.88337 0.0
C1872 C 0.76835 0.71067 0.87519 0.0
H1873 H 0.87829 0.71928 0.81661 0.0
H1874 H 0.83889 0.72591 0.83015 0.0
H1875 H 0.82058 0.69359 0.89675 0.0
H1876 H 0.7072 0.71453 0.92778 0.0
H1877 H 0.74019 0.69441 0.91019 0.0
C1878 C 0.22379 0.74185 0.11015 0.0
C1879 C 0.20678 0.75476 0.09862 0.0
C1880 C 0.24072 0.75279 0.12328 0.0
C1881 C 0.27386 0.80559 0.12305 0.0
H1882 H 0.30174 0.7778 0.17755 0.0
C1883 C 0.36223 0.83493 0.16091 0.0
C1884 C 0.37763 0.81692 0.1667 0.0
C1885 C 0.33927 0.8301 0.15508 0.0
C1886 C 0.29417 0.78573 0.16232 0.0
H1887 H 0.19335 0.78918 0.09236 0.0
H1888 H 0.22366 0.80877 0.11523 0.0
H1889 H 0.26315 0.76569 0.16531 0.0
H1890 H 0.38099 0.77973 0.17073 0.0
H1891 H 0.34088 0.7713 0.16037 0.0
H1892 H 0.30526 0.82506 0.11964 0.0
C1893 C 0.2236 0.79004 0.11423 0.0
C1894 C 0.27203 0.77894 0.15541 0.0
C1895 C 0.20623 0.77891 0.10133 0.0
C1896 C 0.36962 0.79396 0.16623 0.0
C1897 C 0.34659 0.78917 0.16056 0.0
C1898 C 0.29601 0.81247 0.13003 0.0
C1899 C 0.2413 0.77703 0.12488 0.0
C1900 C 0.26199 0.78817 0.13523 0.0
C1901 C 0.33114 0.80721 0.15511 0.0
C1902 C 0.30667 0.80202 0.14928 0.0
H1903 H 0.22464 0.72325 0.1081 0.0
H1904 H 0.25425 0.74225 0.1309 0.0
H1905 H 0.2667 0.81282 0.10728 0.0
H1906 H 0.36782 0.85284 0.16118 0.0
H1907 H 0.32775 0.84435 0.15103 0.0
C1908 C 0.27805 0.25479 0.61514 0.0
C1909 C 0.29033 0.24516 0.59646 0.0
C1910 C 0.25999 0.24269 0.62556 0.0
C1911 C 0.21708 0.19799 0.61103 0.0
H1912 H 0.19754 0.20951 0.67432 0.0
C1913 C 0.13235 0.16226 0.65276 0.0
C1914 C 0.11849 0.17925 0.66341 0.0
C1915 C 0.15462 0.16767 0.64498 0.0
C1916 C 0.20282 0.20617 0.65661 0.0
H1917 H 0.29455 0.21449 0.57524 0.0
H1918 H 0.26315 0.19289 0.59393 0.0
H1919 H 0.23618 0.22124 0.66193 0.0
H1920 H 0.11702 0.21516 0.67425 0.0
H1921 H 0.15621 0.2245 0.661 0.0
H1922 H 0.18358 0.18271 0.60596 0.0
C1923 C 0.2672 0.21012 0.60012 0.0
C1924 C 0.22492 0.21289 0.64947 0.0
C1925 C 0.28536 0.22235 0.58959 0.0
C1926 C 0.12723 0.2018 0.66591 0.0
C1927 C 0.14968 0.20708 0.65855 0.0
C1928 C 0.19509 0.1909 0.61832 0.0
C1929 C 0.2538 0.22049 0.61772 0.0
C1930 C 0.23208 0.20957 0.62638 0.0
C1931 C 0.16361 0.19002 0.64817 0.0
C1932 C 0.18756 0.19555 0.64098 0.0
H1933 H 0.28158 0.27229 0.62097 0.0
H1934 H 0.25003 0.25144 0.63883 0.0
H1935 H 0.22181 0.19538 0.59306 0.0
H1936 H 0.12605 0.14472 0.65062 0.0
H1937 H 0.16506 0.15424 0.63705 0.0
C1938 C 0.63714 0.33483 0.33551 0.0
C1939 C 0.61843 0.31926 0.33654 0.0
C1940 C 0.65889 0.32852 0.34402 0.0
C1941 C 0.69355 0.27664 0.3583 0.0
H1942 H 0.73356 0.32078 0.38938 0.0
C1943 C 0.78441 0.24937 0.38454 0.0
C1944 C 0.79123 0.25524 0.4071 0.0
C1945 C 0.76564 0.26045 0.37418 0.0
C1946 C 0.72257 0.30823 0.38081 0.0
H1947 H 0.60774 0.28509 0.34785 0.0
H1948 H 0.6455 0.27428 0.36326 0.0
H1949 H 0.69512 0.3328 0.37652 0.0
H1950 H 0.78484 0.27808 0.43615 0.0
H1951 H 0.75146 0.29711 0.41836 0.0
H1952 H 0.72034 0.25179 0.36341 0.0
C1953 C 0.64353 0.29119 0.35537 0.0
C1954 C 0.70061 0.31517 0.37323 0.0
C1955 C 0.62182 0.29742 0.34668 0.0
C1956 C 0.78003 0.2735 0.41858 0.0
C1957 C 0.76088 0.28433 0.40837 0.0
C1958 C 0.71535 0.26968 0.36599 0.0
C1959 C 0.66241 0.30655 0.35389 0.0
C1960 C 0.6858 0.2994 0.36198 0.0
C1961 C 0.75289 0.27723 0.38642 0.0
C1962 C 0.73018 0.28535 0.37733 0.0
H1963 H 0.63516 0.35175 0.32765 0.0
H1964 H 0.67307 0.34067 0.34229 0.0
H1965 H 0.68281 0.26412 0.34937 0.0
H1966 H 0.7929 0.23536 0.37535 0.0
H1967 H 0.76044 0.25506 0.35697 0.0
C1968 C 0.00624 0.29916 0.13732 0.0
C1969 C 0.01537 0.3214 0.14121 0.0
C1970 C 0.99092 0.29514 0.11901 0.0
C1971 C 0.95227 0.32553 0.07728 0.0
H1972 H 0.95638 0.26761 0.04343 0.0
C1973 C 0.9061 0.31082 0.98999 0.0
C1974 C 0.89343 0.29014 0.98765 0.0
C1975 C 0.92091 0.31413 0.00883 0.0
C1976 C 0.95493 0.28377 0.05285 0.0
H1977 H 0.01551 0.35688 0.12887 0.0
H1978 H 0.98937 0.34976 0.09653 0.0
H1979 H 0.98231 0.27465 0.07606 0.0
H1980 H 0.88675 0.25654 0.00312 0.0
H1981 H 0.91304 0.26223 0.03589 0.0
H1982 H 0.92524 0.3348 0.05361 0.0
C1983 C 0.9936 0.33548 0.10794 0.0
C1984 C 0.96971 0.28781 0.07162 0.0
C1985 C 0.00872 0.33956 0.12643 0.0
C1986 C 0.8963 0.27264 0.00437 0.0
C1987 C 0.91137 0.27586 0.02309 0.0
C1988 C 0.93768 0.32158 0.05836 0.0
C1989 C 0.98452 0.31319 0.10395 0.0
C1990 C 0.96861 0.30877 0.08408 0.0
C1991 C 0.9236 0.29676 0.02564 0.0
C1992 C 0.93889 0.30069 0.04593 0.0
H1993 H 0.01081 0.28482 0.14853 0.0
H1994 H 0.98396 0.27786 0.11681 0.0
H1995 H 0.95054 0.34165 0.0867 0.0
H1996 H 0.90422 0.32472 0.97752 0.0
H1997 H 0.9303 0.33031 0.01022 0.0
C1998 C 0.60566 0.68753 0.50616 0.0
C1999 C 0.60643 0.70704 0.49163 0.0
C2000 C 0.58923 0.68588 0.52374 0.0
C2001 C 0.54792 0.71952 0.55925 0.0
H2002 H 0.52149 0.6586 0.56946 0.0
C2003 C 0.47295 0.67022 0.61796 0.0
C2004 C 0.47688 0.68116 0.63935 0.0
C2005 C 0.48724 0.67488 0.59896 0.0
C2006 C 0.52839 0.67582 0.5667 0.0
H2007 H 0.59097 0.74052 0.48461 0.0
H2008 H 0.56172 0.73746 0.51526 0.0
H2009 H 0.54882 0.66438 0.53808 0.0
H2010 H 0.49892 0.70555 0.65757 0.0
H2011 H 0.5242 0.71312 0.62472 0.0
H2012 H 0.52697 0.73104 0.58762 0.0
C2013 C 0.57408 0.72352 0.51311 0.0
C2014 C 0.54438 0.67907 0.54887 0.0
C2015 C 0.59077 0.72527 0.49554 0.0
C2016 C 0.49533 0.69692 0.64129 0.0
C2017 C 0.50974 0.70141 0.62237 0.0
C2018 C 0.53174 0.71631 0.57704 0.0
C2019 C 0.57291 0.7036 0.52717 0.0
C2020 C 0.55468 0.70084 0.54518 0.0
C2021 C 0.50595 0.69039 0.60098 0.0
C2022 C 0.52201 0.69433 0.58118 0.0
H2023 H 0.61776 0.67335 0.50389 0.0
H2024 H 0.58933 0.67062 0.53465 0.0
H2025 H 0.55555 0.7365 0.55694 0.0
H2026 H 0.45877 0.65813 0.61583 0.0
H2027 H 0.48355 0.66635 0.58266 0.0
C2028 C 0.41097 0.22707 0.00225 0.0
C2029 C 0.39567 0.20868 0.00671 0.0
C2030 C 0.42751 0.22526 0.9845 0.0
C2031 C 0.45731 0.18066 0.9487 0.0
H2032 H 0.47363 0.23251 0.90933 0.0
C2033 C 0.52781 0.17184 0.87851 0.0
C2034 C 0.52375 0.18286 0.85719 0.0
C2035 C 0.51367 0.17644 0.89766 0.0
C2036 C 0.46915 0.21779 0.92007 0.0
H2037 H 0.38488 0.17453 0.99525 0.0
H2038 H 0.41295 0.17169 0.96421 0.0
H2039 H 0.44548 0.23791 0.94041 0.0
H2040 H 0.50157 0.20735 0.83927 0.0
H2041 H 0.47654 0.21479 0.87235 0.0
H2042 H 0.48003 0.16025 0.92787 0.0
C2043 C 0.41294 0.18716 0.97482 0.0
C2044 C 0.45322 0.22099 0.9381 0.0
C2045 C 0.39669 0.18887 0.99258 0.0
C2046 C 0.50528 0.19865 0.85549 0.0
C2047 C 0.491 0.20306 0.87455 0.0
C2048 C 0.47304 0.17743 0.93062 0.0
C2049 C 0.42888 0.2051 0.97078 0.0
C2050 C 0.44686 0.20236 0.95245 0.0
C2051 C 0.49494 0.19196 0.89589 0.0
C2052 C 0.47904 0.19587 0.9159 0.0
H2053 H 0.41059 0.24256 0.01284 0.0
H2054 H 0.43956 0.23939 0.98191 0.0
H2055 H 0.45321 0.166 0.95967 0.0
H2056 H 0.542 0.15973 0.88048 0.0
H2057 H 0.51752 0.16785 0.91389 0.0
C2058 C 0.0894 0.77663 0.50385 0.0
C2059 C 0.10462 0.79497 0.50881 0.0
C2060 C 0.07304 0.77876 0.48601 0.0
C2061 C 0.04349 0.82382 0.4507 0.0
H2062 H 0.02858 0.77268 0.40987 0.0
C2063 C 0.97404 0.83286 0.37948 0.0
C2064 C 0.97866 0.82228 0.35805 0.0
C2065 C 0.98803 0.82829 0.39873 0.0
C2066 C 0.03267 0.7872 0.42102 0.0
H2067 H 0.11538 0.82941 0.4982 0.0
H2068 H 0.08756 0.83282 0.46702 0.0
H2069 H 0.05614 0.76689 0.44137 0.0
H2070 H 0.00175 0.79876 0.33997 0.0
H2071 H 0.02653 0.79139 0.37324 0.0
H2072 H 0.02096 0.84444 0.42987 0.0
C2073 C 0.08754 0.81712 0.47729 0.0
C2074 C 0.04825 0.78377 0.43929 0.0
C2075 C 0.10364 0.81509 0.49514 0.0
C2076 C 0.99762 0.80709 0.35627 0.0
C2077 C 0.01173 0.80271 0.37544 0.0
C2078 C 0.02811 0.82728 0.43238 0.0
C2079 C 0.07176 0.79919 0.47271 0.0
C2080 C 0.05409 0.80215 0.45416 0.0
C2081 C 0.00714 0.81324 0.39693 0.0
C2082 C 0.02265 0.8091 0.41714 0.0
H2083 H 0.08977 0.7609 0.51408 0.0
H2084 H 0.06109 0.76463 0.48299 0.0
H2085 H 0.04721 0.83827 0.46207 0.0
H2086 H 0.95946 0.8445 0.38148 0.0
H2087 H 0.98373 0.83645 0.41507 0.0
C2088 C 0.14236 0.00755 0.297 0.0
C2089 C 0.14374 0.0202 0.31781 0.0
C2090 C 0.12365 0.99275 0.29277 0.0
C2091 C 0.0796 0.95857 0.32296 0.0
H2092 H 0.04672 0.95906 0.26434 0.0
C2093 C 0.99415 0.90984 0.31272 0.0
C2094 C 0.98981 0.89782 0.29199 0.0
C2095 C 0.01281 0.92502 0.31451 0.0
C2096 C 0.05591 0.95847 0.28068 0.0
H2097 H 0.12651 0.02717 0.35048 0.0
H2098 H 0.09399 0.00117 0.34317 0.0
H2099 H 0.07974 0.98499 0.27015 0.0
H2100 H 0.00142 0.89271 0.25665 0.0
H2101 H 0.03457 0.91906 0.2599 0.0
H2102 H 0.05626 0.93193 0.33351 0.0
C2103 C 0.10741 0.00274 0.33014 0.0
C2104 C 0.07477 0.97337 0.28402 0.0
C2105 C 0.12597 0.01772 0.33427 0.0
C2106 C 0.00429 0.90181 0.27282 0.0
C2107 C 0.02323 0.91692 0.27469 0.0
C2108 C 0.06096 0.94358 0.31957 0.0
C2109 C 0.10607 0.99006 0.30937 0.0
C2110 C 0.08659 0.97378 0.30533 0.0
C2111 C 0.02791 0.92842 0.29572 0.0
C2112 C 0.04861 0.94357 0.29854 0.0
H2113 H 0.15573 0.00907 0.28392 0.0
H2114 H 0.12316 0.98307 0.27669 0.0
H2115 H 0.08868 0.95815 0.33939 0.0
H2116 H 0.98315 0.90745 0.32775 0.0
H2117 H 0.01542 0.93405 0.33075 0.0
C2118 C 0.49589 0.10048 0.77286 0.0
C2119 C 0.50912 0.10631 0.79246 0.0
C2120 C 0.47797 0.0842 0.77458 0.0
C2121 C 0.45787 0.03523 0.80999 0.0
H2122 H 0.39662 0.05059 0.78722 0.0
C2123 C 0.37735 0.9823 0.8362 0.0
C2124 C 0.35986 0.97904 0.81961 0.0
C2125 C 0.39591 0.99721 0.8317 0.0
C2126 C 0.41369 0.04581 0.79336 0.0
H2127 H 0.51409 0.09938 0.82914 0.0
H2128 H 0.48319 0.07098 0.83196 0.0
H2129 H 0.42871 0.07727 0.78052 0.0
H2130 H 0.34833 0.98867 0.78511 0.0
H2131 H 0.38089 0.01408 0.77706 0.0
H2132 H 0.44309 0.00376 0.8227 0.0
C2133 C 0.48662 0.07894 0.8153 0.0
C2134 C 0.43204 0.06114 0.78951 0.0
C2135 C 0.50423 0.09535 0.81368 0.0
C2136 C 0.36143 0.99089 0.79836 0.0
C2137 C 0.38007 0.00559 0.79378 0.0
C2138 C 0.4396 0.01981 0.81364 0.0
C2139 C 0.47326 0.07322 0.79583 0.0
C2140 C 0.45423 0.05614 0.79809 0.0
C2141 C 0.39752 0.00903 0.81041 0.0
C2142 C 0.41719 0.02503 0.80565 0.0
H2143 H 0.49919 0.10869 0.75631 0.0
H2144 H 0.46792 0.08003 0.75928 0.0
H2145 H 0.47489 0.03082 0.81654 0.0
H2146 H 0.37657 0.97358 0.8528 0.0
H2147 H 0.4088 -0.00027 0.84509 0.0
C2148 C 0.63801 0.48735 0.69948 0.0
C2149 C 0.64544 0.48265 0.67672 0.0
C2150 C 0.61922 0.50208 0.70355 0.0
C2151 C 0.56737 0.5261 0.67497 0.0
H2152 H 0.56888 0.5713 0.72471 0.0
C2153 C 0.50063 0.59926 0.68102 0.0
C2154 C 0.49158 0.60521 0.70287 0.0
C2155 C 0.51907 0.58383 0.67906 0.0
C2156 C 0.56807 0.55855 0.71096 0.0
H2157 H 0.63913 0.49019 0.64043 0.0
H2158 H 0.60647 0.51599 0.64756 0.0
H2159 H 0.60201 0.54565 0.71865 0.0
H2160 H 0.49516 0.59969 0.73988 0.0
H2161 H 0.52753 0.57243 0.7364 0.0
H2162 H 0.53356 0.539 0.66718 0.0
C2163 C 0.61498 0.50798 0.66225 0.0
C2164 C 0.58706 0.54388 0.70745 0.0
C2165 C 0.6338 0.49328 0.65816 0.0
C2166 C 0.50165 0.59542 0.72279 0.0
C2167 C 0.52025 0.57991 0.7208 0.0
C2168 C 0.54843 0.54072 0.67848 0.0
C2169 C 0.60739 0.51245 0.68498 0.0
C2170 C 0.58702 0.52766 0.68924 0.0
C2171 C 0.52906 0.57385 0.69887 0.0
C2172 C 0.54865 0.55732 0.69632 0.0
H2173 H 0.64658 0.47951 0.71421 0.0
H2174 H 0.6137 0.50499 0.72125 0.0
H2175 H 0.56656 0.51347 0.66112 0.0
H2176 H 0.49352 0.60657 0.66527 0.0
H2177 H 0.52571 0.57993 0.66194 0.0
C2178 C 0.992 0.39441 0.22216 0.0
C2179 C 0.01113 0.39501 0.20707 0.0
C2180 C 0.97376 0.41015 0.21953 0.0
C2181 C 0.94653 0.4479 0.17568 0.0
H2182 H 0.91678 0.47662 0.22862 0.0
C2183 C 0.87888 0.52076 0.16537 0.0
C2184 C 0.85931 0.51994 0.17986 0.0
C2185 C 0.89758 0.50582 0.1691 0.0
C2186 C 0.92475 0.46855 0.21367 0.0
H2187 H 0.02623 0.413 0.17768 0.0
H2188 H 0.99463 0.4405 0.17332 0.0
H2189 H 0.94914 0.45009 0.23468 0.0
H2190 H 0.84408 0.50265 0.2096 0.0
H2191 H 0.87658 0.47652 0.21592 0.0
H2192 H 0.92214 0.46624 0.15466 0.0
C2193 C 0.99355 0.42766 0.18696 0.0
C2194 C 0.94329 0.45336 0.21715 0.0
C2195 C 0.01176 0.41197 0.18958 0.0
C2196 C 0.85891 0.50385 0.19816 0.0
C2197 C 0.87761 0.48893 0.20189 0.0
C2198 C 0.928 0.46306 0.17221 0.0
C2199 C 0.97422 0.42679 0.20173 0.0
C2200 C 0.95444 0.4429 0.19818 0.0
C2201 C 0.89715 0.48971 0.18738 0.0
C2202 C 0.9169 0.47361 0.19115 0.0
H2203 H 0.99089 0.38151 0.23574 0.0
H2204 H 0.95901 0.40889 0.23106 0.0
H2205 H 0.95445 0.43981 0.16071 0.0
H2206 H 0.87979 0.53293 0.15113 0.0
H2207 H 0.91248 0.50707 0.15777 0.0
C2208 C 0.33719 0.12456 0.01672 0.0
C2209 C 0.32087 0.14247 0.01895 0.0
C2210 C 0.3326 0.10544 0.00257 0.0
C2211 C 0.29492 0.08606 0.95413 0.0
H2212 H 0.31654 0.02522 0.97258 0.0
C2213 C 0.27512 0.00232 0.90176 0.0
C2214 C 0.29479 0.9888 0.89694 0.0
C2215 C 0.27639 0.02055 0.91775 0.0
C2216 C 0.31042 0.04212 0.96722 0.0
H2217 H 0.28683 0.15423 0.00814 0.0
H2218 H 0.27863 0.12071 0.98399 0.0
H2219 H 0.32262 0.05817 0.99828 0.0
H2220 H 0.33101 0.98344 0.90555 0.0
H2221 H 0.33305 0.01487 0.93347 0.0
H2222 H 0.28266 0.06981 0.92305 0.0
C2223 C 0.29519 0.12161 0.99276 0.0
C2224 C 0.31402 0.06104 0.98186 0.0
C2225 C 0.29985 0.1408 0.00673 0.0
C2226 C 0.31554 0.99354 0.90879 0.0
C2227 C 0.3167 0.01146 0.92493 0.0
C2228 C 0.29113 0.06706 0.93958 0.0
C2229 C 0.3115 0.10368 0.99046 0.0
C2230 C 0.30664 0.08333 0.97536 0.0
C2231 C 0.29723 0.02528 0.92946 0.0
C2232 C 0.29917 0.04498 0.94582 0.0
H2233 H 0.35361 0.1254 0.02575 0.0
H2234 H 0.34576 0.09218 0.00089 0.0
H2235 H 0.28925 0.10299 0.94839 0.0
H2236 H 0.25893 0.99913 0.89283 0.0
H2237 H 0.2611 0.03092 0.921 0.0
C2238 C 0.79747 0.36349 0.9851 0.0
C2239 C 0.82023 0.35618 0.9803 0.0
C2240 C 0.79337 0.38226 -0.00019 0.0
C2241 C 0.8216 0.43422 0.02383 0.0
H2242 H 0.77258 0.43173 0.06977 0.0
C2243 C 0.81664 0.49915 0.09849 0.0
C2244 C 0.79495 0.50821 0.10492 0.0
C2245 C 0.81828 0.48111 0.08257 0.0
C2246 C 0.7861 0.43281 0.0568 0.0
H2247 H 0.85651 0.36273 0.98755 0.0
H2248 H 0.84932 0.39543 0.01334 0.0
H2249 H 0.77858 0.39893 0.04365 0.0
H2250 H 0.75788 0.50507 0.09976 0.0
H2251 H 0.7608 0.47333 0.07164 0.0
H2252 H 0.82928 0.46795 0.03704 0.0
C2253 C 0.83466 0.3868 0.00542 0.0
C2254 C 0.78958 0.41402 0.04187 0.0
C2255 C 0.83878 0.36799 0.99073 0.0
C2256 C 0.77485 0.49856 0.09512 0.0
C2257 C 0.77652 0.48033 0.07912 0.0
C2258 C 0.81812 0.45296 0.03871 0.0
C2259 C 0.81191 0.39421 0.01006 0.0
C2260 C 0.80758 0.41441 0.02542 0.0
C2261 C 0.7983 0.47155 0.07258 0.0
C2262 C 0.80056 0.45235 0.05559 0.0
H2263 H 0.78275 0.35478 0.9774 0.0
H2264 H 0.77566 0.38766 0.00285 0.0
H2265 H 0.83527 0.43529 0.01102 0.0
H2266 H 0.83253 0.50594 0.10579 0.0
H2267 H 0.83529 0.47444 0.0783 0.0
C2268 C 0.6672 0.62171 0.47971 0.0
C2269 C 0.68134 0.64153 0.48024 0.0
C2270 C 0.67173 0.60296 0.49436 0.0
C2271 C 0.7016 0.58731 0.54875 0.0
H2272 H 0.69614 0.52468 0.5251 0.0
C2273 C 0.72745 0.50749 0.60343 0.0
C2274 C 0.71214 0.48855 0.6028 0.0
C2275 C 0.72491 0.52588 0.58785 0.0
C2276 C 0.69756 0.54206 0.53203 0.0
H2277 H 0.71127 0.65718 0.49677 0.0
H2278 H 0.71923 0.62443 0.52214 0.0
H2279 H 0.68898 0.55741 0.49937 0.0
H2280 H 0.68233 0.47403 0.58506 0.0
H2281 H 0.67786 0.50609 0.55812 0.0
H2282 H 0.71 0.57197 0.58145 0.0
C2283 C 0.70452 0.62347 0.51054 0.0
C2284 C 0.69343 0.56081 0.51729 0.0
C2285 C 0.70002 0.6422 0.49587 0.0
C2286 C 0.69451 0.48827 0.58599 0.0
C2287 C 0.692 0.50662 0.57044 0.0
C2288 C 0.70572 0.56855 0.5635 0.0
C2289 C 0.69046 0.60361 0.50992 0.0
C2290 C 0.69527 0.58366 0.5255 0.0
C2291 C 0.70704 0.52574 0.57129 0.0
C2292 C 0.70362 0.54569 0.55535 0.0
H2293 H 0.6526 0.62064 0.46798 0.0
H2294 H 0.66037 0.58805 0.49369 0.0
H2295 H 0.70287 0.60469 0.55571 0.0
H2296 H 0.74121 0.50828 0.61615 0.0
H2297 H 0.73696 0.54023 0.58878 0.0
C2298 C 0.20192 0.86048 0.50869 0.0
C2299 C 0.18076 0.85883 0.52064 0.0
C2300 C 0.20652 0.87939 0.4943 0.0
C2301 C 0.18676 0.93935 0.48151 0.0
H2302 H 0.2194 0.92968 0.42354 0.0
C2303 C 0.186 0.00534 0.40695 0.0
C2304 C 0.20709 0.01028 0.3958 0.0
C2305 C 0.18455 0.98758 0.42325 0.0
C2306 C 0.21054 0.93267 0.43982 0.0
H2307 H 0.14768 0.87559 0.52654 0.0
H2308 H 0.1554 0.90825 0.50098 0.0
H2309 H 0.21297 0.89703 0.44962 0.0
H2310 H 0.24321 0.00037 0.393 0.0
H2311 H 0.24053 0.96889 0.42143 0.0
H2312 H 0.1837 0.97486 0.47123 0.0
C2313 C 0.16874 0.89526 0.50319 0.0
C2314 C 0.20686 0.91399 0.4548 0.0
C2315 C 0.16424 0.87645 0.51776 0.0
C2316 C 0.22675 0.99705 0.40138 0.0
C2317 C 0.2252 0.97899 0.41753 0.0
C2318 C 0.19024 0.95794 0.46642 0.0
C2319 C 0.18998 0.89702 0.49132 0.0
C2320 C 0.19472 0.91705 0.47575 0.0
C2321 C 0.20406 0.97412 0.42862 0.0
C2322 C 0.20196 0.95475 0.44534 0.0
H2323 H 0.2151 0.84726 0.51062 0.0
H2324 H 0.22318 0.88031 0.48574 0.0
H2325 H 0.17782 0.94249 0.4977 0.0
H2326 H 0.17052 0.01521 0.40308 0.0
H2327 H 0.16798 0.98405 0.43132 0.0
C2328 C 0.99172 0.70078 0.86243 0.0
C2329 C 0.98298 0.67844 0.85827 0.0
C2330 C 0.00674 0.70489 0.88099 0.0
C2331 C 0.04535 0.67455 0.92281 0.0
H2332 H 0.04007 0.73189 0.95746 0.0
C2333 C 0.09028 0.68825 0.01081 0.0
C2334 C 0.10287 0.70893 0.01351 0.0
C2335 C 0.07557 0.68518 0.99186 0.0
C2336 C 0.04184 0.71588 0.94782 0.0
H2337 H 0.9832 0.64287 0.8704 0.0
H2338 H 0.00878 0.65012 0.90308 0.0
H2339 H 0.01469 0.72504 0.92433 0.0
H2340 H 0.10944 0.74281 0.99862 0.0
H2341 H 0.08333 0.73753 0.96565 0.0
H2342 H 0.07213 0.66522 0.94673 0.0
C2343 C 0.00451 0.66443 0.89172 0.0
C2344 C 0.02737 0.71196 0.92877 0.0
C2345 C 0.98969 0.66028 0.87303 0.0
C2346 C 0.09996 0.7267 0.99709 0.0
C2347 C 0.08498 0.72372 0.97825 0.0
C2348 C 0.0596 0.67836 0.942 0.0
C2349 C 0.01324 0.68679 0.89597 0.0
C2350 C 0.0289 0.6912 0.91604 0.0
C2351 C 0.07291 0.70279 0.97529 0.0
C2352 C 0.05794 0.69903 0.95474 0.0
H2353 H 0.98706 0.71513 0.85127 0.0
H2354 H 0.01343 0.72224 0.88342 0.0
H2355 H 0.04741 0.65858 0.91318 0.0
H2356 H 0.09219 0.67415 0.02305 0.0
H2357 H 0.06628 0.66897 0.99014 0.0
C2358 C 0.52488 0.33127 0.38024 0.0
C2359 C 0.52035 0.3207 0.35878 0.0
C2360 C 0.51077 0.32677 0.39941 0.0
C2361 C 0.46579 0.28602 0.42165 0.0
H2362 H 0.45136 0.33739 0.46239 0.0
C2363 C 0.40914 0.27624 0.50474 0.0
C2364 C 0.39396 0.29465 0.50958 0.0
C2365 C 0.42545 0.27816 0.48681 0.0
C2366 C 0.45505 0.32286 0.4511 0.0
H2367 H 0.49731 0.29722 0.3406 0.0
H2368 H 0.47232 0.28995 0.37378 0.0
H2369 H 0.4777 0.34326 0.43019 0.0
H2370 H 0.38323 0.329 0.49865 0.0
H2371 H 0.41097 0.33206 0.46736 0.0
H2372 H 0.44223 0.26592 0.44212 0.0
C2373 C 0.48713 0.30124 0.37603 0.0
C2374 C 0.47048 0.32615 0.43279 0.0
C2375 C 0.50137 0.30555 0.35693 0.0
C2376 C 0.39494 0.31464 0.4957 0.0
C2377 C 0.41099 0.31646 0.47779 0.0
C2378 C 0.45018 0.28276 0.43993 0.0
C2379 C 0.4916 0.31181 0.39753 0.0
C2380 C 0.47593 0.30785 0.41767 0.0
C2381 C 0.42673 0.29846 0.47331 0.0
C2382 C 0.44439 0.30124 0.4547 0.0
H2383 H 0.53947 0.34287 0.38231 0.0
H2384 H 0.515 0.33495 0.41576 0.0
H2385 H 0.46985 0.27142 0.41058 0.0
H2386 H 0.40877 0.2606 0.51511 0.0
H2387 H 0.43737 0.26398 0.48388 0.0
C2388 C 0.58961 0.81088 0.99419 0.0
C2389 C 0.60126 0.79014 0.98892 0.0
C2390 C 0.57319 0.81165 0.01189 0.0
C2391 C 0.55685 0.78456 0.06636 0.0
H2392 H 0.49869 0.81679 0.05676 0.0
C2393 C 0.48836 0.79306 0.13913 0.0
C2394 C 0.47646 0.81426 0.14084 0.0
C2395 C 0.50252 0.78834 0.12005 0.0
C2396 C 0.51495 0.80796 0.05985 0.0
H2397 H 0.6048 0.75393 0.9982 0.0
H2398 H 0.57616 0.75542 0.02963 0.0
H2399 H 0.52519 0.81136 0.02434 0.0
H2400 H 0.47038 0.84722 0.1239 0.0
H2401 H 0.49551 0.83929 0.09097 0.0
H2402 H 0.54708 0.78185 0.10202 0.0
C2403 C 0.57976 0.771 0.01981 0.0
C2404 C 0.53006 0.80473 0.04121 0.0
C2405 C 0.59604 0.77012 0.00179 0.0
C2406 C 0.47912 0.83065 0.12304 0.0
C2407 C 0.49345 0.82601 0.10406 0.0
C2408 C 0.54183 0.78799 0.08509 0.0
C2409 C 0.56817 0.7918 0.02499 0.0
C2410 C 0.55129 0.79327 0.04433 0.0
C2411 C 0.50533 0.80478 0.10228 0.0
C2412 C 0.5208 0.80001 0.08214 0.0
H2413 H 0.59316 0.82662 0.98462 0.0
H2414 H 0.56475 0.82799 0.01566 0.0
H2415 H 0.57322 0.77588 0.0693 0.0
H2416 H 0.48662 0.77998 0.15248 0.0
H2417 H 0.5111 0.77168 0.11915 0.0
C2418 C 0.90239 0.22153 0.50273 0.0
C2419 C 0.8975 0.20252 0.48834 0.0
C2420 C 0.91778 0.21917 0.52136 0.0
C2421 C 0.94393 0.17373 0.55869 0.0
H2422 H 0.98625 0.22261 0.5768 0.0
C2423 C 0.01739 0.15944 0.62493 0.0
C2424 C 0.01982 0.17639 0.64223 0.0
C2425 C 0.00264 0.16315 0.60608 0.0
C2426 C 0.97439 0.20888 0.57201 0.0
H2427 H 0.9057 0.16646 0.48154 0.0
H2428 H 0.93287 0.16258 0.51332 0.0
H2429 H 0.96042 0.22847 0.54375 0.0
H2430 H 0.00878 0.21066 0.65317 0.0
H2431 H 0.98321 0.21713 0.62017 0.0
H2432 H 0.95816 0.15403 0.5867 0.0
C2433 C 0.92434 0.17911 0.51084 0.0
C2434 C 0.95955 0.21225 0.55314 0.0
C2435 C 0.90885 0.18139 0.49247 0.0
C2436 C 0.0073 0.19721 0.64017 0.0
C2437 C 0.99276 0.20101 0.6212 0.0
C2438 C 0.95889 0.1703 0.57737 0.0
C2439 C 0.9287 0.1978 0.5258 0.0
C2440 C 0.94422 0.19465 0.54617 0.0
C2441 C 0.9902 0.18399 0.60402 0.0
C2442 C 0.97432 0.18779 0.58418 0.0
H2443 H 0.89381 0.23799 0.50004 0.0
H2444 H 0.92061 0.23389 0.53264 0.0
H2445 H 0.93198 0.15999 0.55421 0.0
H2446 H 0.02675 0.14321 0.62602 0.0
H2447 H 0.00112 0.1498 0.59298 0.0
C2448 C 0.87678 0.98047 0.6676 0.0
C2449 C 0.85812 0.9788 0.68313 0.0
C2450 C 0.89575 0.99465 0.67264 0.0
C2451 C 0.914 0.04405 0.70969 0.0
H2452 H 0.9754 0.02444 0.69084 0.0
C2453 C 0.99755 0.09705 0.72951 0.0
C2454 C 0.01144 0.10099 0.7099 0.0
C2455 C 0.97932 0.08101 0.7286 0.0
C2456 C 0.95835 0.03013 0.69622 0.0
H2457 H 0.84483 0.99076 0.71624 0.0
H2458 H 0.8781 0.01503 0.72524 0.0
H2459 H 0.9425 0.99877 0.68457 0.0
H2460 H 0.01753 0.09073 0.6742 0.0
H2461 H 0.98618 0.06272 0.6728 0.0
H2462 H 0.93007 0.07546 0.72135 0.0
C2463 C 0.87793 0.00573 0.70894 0.0
C2464 C 0.93945 0.0155 0.69249 0.0
C2465 C 0.85887 0.99169 0.70382 0.0
C2466 C 0.00713 0.08817 0.68962 0.0
C2467 C 0.98924 0.07199 0.68884 0.0
C2468 C 0.93298 0.05861 0.71361 0.0
C2469 C 0.89665 0.00738 0.69344 0.0
C2470 C 0.91695 0.02243 0.69877 0.0
C2471 C 0.975 0.06836 0.70821 0.0
C2472 C 0.95528 0.05197 0.70652 0.0
H2473 H 0.87668 0.97095 0.65142 0.0
H2474 H 0.9096 0.99584 0.66005 0.0
H2475 H 0.89693 0.0501 0.71455 0.0
H2476 H 0.00039 0.10675 0.74533 0.0
H2477 H 0.96861 0.07848 0.74381 0.0
C2478 C 0.62278 0.01459 0.16024 0.0
C2479 C 0.64041 0.01759 0.17673 0.0
C2480 C 0.60418 -0.00026 0.16474 0.0
C2481 C 0.5862 0.95106 0.2029 0.0
H2482 H 0.52492 0.96711 0.18062 0.0
C2483 C 0.50356 0.8975 0.22426 0.0
C2484 C 0.49011 0.89182 0.20477 0.0
C2485 C 0.5216 0.91364 0.2224 0.0
C2486 C 0.54196 0.96241 0.18692 0.0
H2487 H 0.65221 0.00748 0.211 0.0
H2488 H 0.61957 0.98218 0.21905 0.0
H2489 H 0.55705 0.99372 0.17418 0.0
H2490 H 0.4848 0.89889 0.16816 0.0
H2491 H 0.5159 0.92706 0.16511 0.0
H2492 H 0.57086 0.91978 0.21579 0.0
C2493 C 0.62031 0.99083 0.20241 0.0
C2494 C 0.56041 0.97757 0.18311 0.0
C2495 C 0.639 0.00547 0.19783 0.0
C2496 C 0.49484 0.90282 0.18353 0.0
C2497 C 0.51256 0.91909 0.18178 0.0
C2498 C 0.56766 0.936 0.20692 0.0
C2499 C 0.60267 0.98773 0.18592 0.0
C2500 C 0.58284 0.97196 0.19077 0.0
C2501 C 0.52619 0.92461 0.20112 0.0
C2502 C 0.54544 0.9414 0.19868 0.0
H2503 H 0.62345 0.02354 0.14375 0.0
H2504 H 0.59114 0.99747 0.15145 0.0
H2505 H 0.60326 0.94599 0.20879 0.0
H2506 H 0.50038 0.88925 0.24081 0.0
H2507 H 0.53185 0.91766 0.23759 0.0
C2508 C 0.49767 0.40434 0.27383 0.0
C2509 C 0.50775 0.39501 0.29396 0.0
C2510 C 0.47814 0.41874 0.2754 0.0
C2511 C 0.42975 0.43282 0.31507 0.0
H2512 H 0.42575 0.49045 0.28085 0.0
C2513 C 0.36422 0.50412 0.33909 0.0
C2514 C 0.35313 0.51599 0.32095 0.0
C2515 C 0.38236 0.48876 0.33444 0.0
C2516 C 0.42646 0.47426 0.29031 0.0
H2517 H 0.50524 0.39381 0.33156 0.0
H2518 H 0.47172 0.41877 0.33417 0.0
H2519 H 0.45865 0.46456 0.27449 0.0
H2520 H 0.35238 0.52081 0.28362 0.0
H2521 H 0.38388 0.49394 0.27558 0.0
H2522 H 0.39777 0.44252 0.33107 0.0
C2523 C 0.47858 0.41478 0.31716 0.0
C2524 C 0.4453 0.45943 0.28663 0.0
C2525 C 0.49799 0.40057 0.31562 0.0
C2526 C 0.36057 0.51205 0.29805 0.0
C2527 C 0.37873 0.49673 0.29342 0.0
C2528 C 0.41097 0.4476 0.31874 0.0
C2529 C 0.46826 0.42389 0.29712 0.0
C2530 C 0.44734 0.43873 0.29928 0.0
C2531 C 0.38985 0.4849 0.31155 0.0
C2532 C 0.40926 0.46867 0.30668 0.0
H2533 H 0.5047 0.40036 0.25689 0.0
H2534 H 0.4705 0.42547 0.25964 0.0
H2535 H 0.43057 0.41677 0.32475 0.0
H2536 H 0.35895 0.50673 0.35692 0.0
H2537 H 0.39075 0.48014 0.34884 0.0
C2538 C 0.14043 0.49466 0.80289 0.0
C2539 C 0.14422 0.48513 0.82498 0.0
C2540 C 0.12201 0.50986 0.79902 0.0
C2541 C 0.07957 0.54745 0.82965 0.0
H2542 H 0.04605 0.54327 0.77153 0.0
C2543 C 0.99173 0.59246 0.81478 0.0
C2544 C 0.9893 0.60513 0.79411 0.0
C2545 C 0.01077 0.57794 0.81815 0.0
C2546 C 0.05538 0.54475 0.78776 0.0
H2547 H 0.1317 0.48426 0.86041 0.0
H2548 H 0.09919 0.51025 0.85355 0.0
H2549 H 0.07904 0.51782 0.77849 0.0
H2550 H 0.00483 0.61218 0.76059 0.0
H2551 H 0.03797 0.58642 0.76639 0.0
H2552 H 0.05545 0.57403 0.83905 0.0
C2553 C 0.11072 0.50638 0.83927 0.0
C2554 C 0.07435 0.53024 0.79174 0.0
C2555 C 0.12931 0.49135 0.8432 0.0
C2556 C 0.00615 0.6026 0.77668 0.0
C2557 C 0.02508 0.58783 0.77997 0.0
C2558 C 0.06045 0.56177 0.82575 0.0
C2559 C 0.10677 0.51576 0.8171 0.0
C2560 C 0.08669 0.53139 0.81276 0.0
C2561 C 0.0277 0.57557 0.80085 0.0
C2562 C 0.04815 0.56054 0.80478 0.0
H2563 H 0.15175 0.49043 0.78852 0.0
H2564 H 0.11984 0.51709 0.78184 0.0
H2565 H 0.08889 0.54917 0.84584 0.0
H2566 H 0.97916 0.59409 0.82862 0.0
H2567 H 0.01223 0.56851 0.83432 0.0
C2568 C 0.7 0.85727 0.99132 0.0
C2569 C 0.67907 0.85613 0.9789 0.0
C2570 C 0.70512 0.87645 0.00518 0.0
C2571 C 0.6881 0.93773 0.01494 0.0
H2572 H 0.71803 0.92904 0.07449 0.0
C2573 C 0.6859 0.0059 0.08721 0.0
C2574 C 0.70629 0.01037 0.09974 0.0
C2575 C 0.685 0.98793 0.07111 0.0
C2576 C 0.70999 0.93176 0.05775 0.0
H2577 H 0.6469 0.87414 0.9717 0.0
H2578 H 0.65554 0.9073 0.9963 0.0
H2579 H 0.71113 0.89565 0.04946 0.0
H2580 H 0.74183 -0.00046 0.10509 0.0
H2581 H 0.74014 0.96765 0.07696 0.0
H2582 H 0.68629 0.97374 0.02365 0.0
C2583 C 0.6683 0.89364 0.99487 0.0
C2584 C 0.70602 0.91264 0.04339 0.0
C2585 C 0.66326 0.87453 0.98088 0.0
C2586 C 0.72592 0.99657 0.09561 0.0
C2587 C 0.72491 0.97828 0.07964 0.0
C2588 C 0.69191 0.95677 0.02938 0.0
C2589 C 0.68936 0.89491 0.00712 0.0
C2590 C 0.69471 0.91535 0.02193 0.0
C2591 C 0.70439 0.97378 0.0673 0.0
C2592 C 0.70259 0.95394 0.05106 0.0
H2593 H 0.71264 0.84345 0.99013 0.0
H2594 H 0.7216 0.87694 0.01411 0.0
H2595 H 0.67987 0.94058 0.99832 0.0
H2596 H 0.67046 0.01622 0.08992 0.0
H2597 H 0.66888 0.98472 0.06207 0.0
C2598 C 0.22608 0.50514 0.9008 0.0
C2599 C 0.20877 0.48824 0.89813 0.0
C2600 C 0.22285 0.52377 0.91601 0.0
C2601 C 0.18582 0.54382 0.96508 0.0
H2602 H 0.20778 0.60457 0.94669 0.0
C2603 C 0.15809 0.62803 0.01186 0.0
C2604 C 0.17609 0.64334 0.01772 0.0
C2605 C 0.16229 0.60915 0.99724 0.0
C2606 C 0.20168 0.58767 0.95211 0.0
H2607 H 0.17444 0.47774 0.90932 0.0
H2608 H 0.16863 0.51031 0.93523 0.0
H2609 H 0.2152 0.57127 0.92175 0.0
H2610 H 0.21246 0.65118 0.01226 0.0
H2611 H 0.21963 0.61842 0.98657 0.0
H2612 H 0.17185 0.56045 0.9952 0.0
C2613 C 0.18497 0.50897 0.92613 0.0
C2614 C 0.20604 0.56854 0.93789 0.0
C2615 C 0.18828 0.49028 0.91114 0.0
C2616 C 0.19822 0.63965 0.00821 0.0
C2617 C 0.20233 0.62097 0.99338 0.0
C2618 C 0.18125 0.563 0.97915 0.0
C2619 C 0.20215 0.52605 0.92871 0.0
C2620 C 0.19813 0.54635 0.94417 0.0
C2621 C 0.18447 0.6054 0.98791 0.0
C2622 C 0.18912 0.58512 0.97281 0.0
H2623 H 0.24208 0.50408 0.89105 0.0
H2624 H 0.23662 0.53637 0.9178 0.0
H2625 H 0.17984 0.52697 0.97074 0.0
H2626 H 0.14084 0.63039 0.01886 0.0
H2627 H 0.14815 0.59753 0.99312 0.0
C2628 C 0.29963 0.35696 0.50354 0.0
C2629 C 0.31794 0.35801 0.51959 0.0
C2630 C 0.29512 0.37557 0.48872 0.0
C2631 C 0.30537 0.43839 0.48199 0.0
H2632 H 0.29011 0.42679 0.41757 0.0
C2633 C 0.30485 0.51059 0.413 0.0
C2634 C 0.28743 0.51019 0.39598 0.0
C2635 C 0.30728 0.49228 0.42862 0.0
C2636 C 0.29402 0.43032 0.43559 0.0
H2637 H 0.34603 0.37943 0.53241 0.0
H2638 H 0.33828 0.41179 0.50641 0.0
H2639 H 0.29723 0.39425 0.44356 0.0
H2640 H 0.25868 0.49024 0.38226 0.0
H2641 H 0.26281 0.45833 0.40972 0.0
H2642 H 0.30233 0.47446 0.47397 0.0
C2643 C 0.32719 0.39669 0.50555 0.0
C2644 C 0.29814 0.41167 0.45048 0.0
C2645 C 0.33171 0.37807 0.52037 0.0
C2646 C 0.27227 0.49114 0.39516 0.0
C2647 C 0.27474 0.47277 0.41079 0.0
C2648 C 0.30126 0.45703 0.4671 0.0
C2649 C 0.30881 0.39567 0.48957 0.0
C2650 C 0.304 0.41549 0.47383 0.0
C2651 C 0.29237 0.47307 0.4276 0.0
C2652 C 0.29569 0.45322 0.44368 0.0
H2653 H 0.28865 0.34179 0.50245 0.0
H2654 H 0.28069 0.37432 0.47681 0.0
H2655 H 0.30943 0.44193 0.49997 0.0
H2656 H 0.31692 0.52492 0.41409 0.0
H2657 H 0.32124 0.49293 0.44113 0.0
C2658 C 0.83033 0.11778 0.47333 0.0
C2659 C 0.82005 0.13929 0.4782 0.0
C2660 C 0.82597 0.09859 0.48746 0.0
C2661 C 0.78596 0.07661 0.53321 0.0
H2662 H 0.83723 0.03545 0.54665 0.0
C2663 C 0.77633 0.99409 0.59044 0.0
C2664 C 0.79491 0.98915 0.60537 0.0
C2665 C 0.77823 0.0118 0.5739 0.0
C2666 C 0.82273 0.04685 0.54324 0.0
H2667 H 0.79723 0.15755 0.50184 0.0
H2668 H 0.7902 0.12436 0.52683 0.0
H2669 H 0.84286 0.06755 0.52013 0.0
H2670 H 0.82964 -0.00041 0.61534 0.0
H2671 H 0.83268 0.03053 0.58718 0.0
H2672 H 0.76616 0.05639 0.55723 0.0
C2673 C 0.80114 0.12207 0.51176 0.0
C2674 C 0.82588 0.06511 0.52771 0.0
C2675 C 0.80532 0.14119 0.49751 0.0
C2676 C 0.81512 0.00265 0.60385 0.0
C2677 C 0.81693 0.02035 0.58756 0.0
C2678 C 0.78285 0.0584 0.54892 0.0
C2679 C 0.81143 0.10052 0.50695 0.0
C2680 C 0.80761 0.08038 0.52264 0.0
C2681 C 0.79869 0.02497 0.57213 0.0
C2682 C 0.80131 0.04348 0.55436 0.0
H2683 H 0.84162 0.11568 0.45848 0.0
H2684 H 0.83392 0.0822 0.48298 0.0
H2685 H 0.77138 0.0878 0.52945 0.0
H2686 H 0.76053 0.984 0.5912 0.0
H2687 H 0.76388 0.01483 0.56222 0.0
loop_
_geom_bond_atom_site_label_1
_geom_bond_atom_site_label_2
_geom_bond_distance
_geom_bond_site_symmetry_2
_ccdc_geom_bond_type
Fe0 O2 1.918 . S
Fe0 O5 1.997 . S
Fe0 O6 2.002 . S
Fe0 O11 1.976 . S
Fe0 O14 1.996 . S
Fe1 O2 1.918 . S
Fe1 O9 1.997 . S
Fe1 O12 1.996 . S
Fe1 O16 1.976 . S
Fe1 O19 2.002 . S
O2 Fe0 1.918 . S
O2 Fe1 1.918 . S
O2 Fe3 1.918 . S
Fe3 O2 1.918 . S
Fe3 O4 2.002 . S
Fe3 O13 1.976 . S
Fe3 O17 1.996 . S
Fe3 O20 1.997 . S
O4 Fe3 2.002 . S
O4 C21 1.295 . S
O5 Fe0 1.997 . S
O5 C21 1.235 . S
O6 Fe0 2.002 . S
O6 C7 1.295 . S
C7 O6 1.295 . S
C7 O9 1.235 . S
C8 O13 1.287 . S
C8 O14 1.255 . S
O9 Fe1 1.997 . S
O9 C7 1.235 . S
C10 O16 1.287 . S
C10 O17 1.255 . S
O11 Fe0 1.976 . S
O11 C18 1.287 . S
O12 Fe1 1.996 . S
O12 C18 1.255 . S
O13 Fe3 1.976 . S
O13 C8 1.287 . S
O14 Fe0 1.996 . S
O14 C8 1.255 . S
C15 O19 1.295 . S
C15 O20 1.235 . S
O16 Fe1 1.976 . S
O16 C10 1.287 . S
O17 Fe3 1.996 . S
O17 C10 1.255 . S
C18 O11 1.287 . S
C18 O12 1.255 . S
O19 Fe1 2.002 . S
O19 C15 1.295 . S
O20 Fe3 1.997 . S
O20 C15 1.235 . S
C21 O4 1.295 . S
C21 O5 1.235 . S
Fe22 O24 1.918 . S
Fe22 O27 1.997 . S
Fe22 O28 2.002 . S
Fe22 O33 1.976 . S
Fe22 O36 1.996 . S
Fe23 O24 1.918 . S
Fe23 O31 1.997 . S
Fe23 O34 1.996 . S
Fe23 O38 1.976 . S
Fe23 O41 2.002 . S
O24 Fe22 1.918 . S
O24 Fe23 1.918 . S
O24 Fe25 1.918 . S
Fe25 O24 1.918 . S
Fe25 O26 2.002 . S
Fe25 O35 1.976 . S
Fe25 O39 1.996 . S
Fe25 O42 1.997 . S
O26 Fe25 2.002 . S
O26 C43 1.295 . S
O27 Fe22 1.997 . S
O27 C43 1.235 . S
O28 Fe22 2.002 . S
O28 C29 1.295 . S
C29 O28 1.295 . S
C29 O31 1.235 . S
C30 O35 1.287 . S
C30 O36 1.255 . S
O31 Fe23 1.997 . S
O31 C29 1.235 . S
C32 O38 1.287 . S
C32 O39 1.255 . S
O33 Fe22 1.976 . S
O33 C40 1.287 . S
O34 Fe23 1.996 . S
O34 C40 1.255 . S
O35 Fe25 1.976 . S
O35 C30 1.287 . S
O36 Fe22 1.996 . S
O36 C30 1.255 . S
C37 O41 1.295 . S
C37 O42 1.235 . S
O38 Fe23 1.976 . S
O38 C32 1.287 . S
O39 Fe25 1.996 . S
O39 C32 1.255 . S
C40 O33 1.287 . S
C40 O34 1.255 . S
O41 Fe23 2.002 . S
O41 C37 1.295 . S
O42 Fe25 1.997 . S
O42 C37 1.235 . S
C43 O26 1.295 . S
C43 O27 1.235 . S
Fe44 O46 1.918 . S
Fe44 O49 1.997 . S
Fe44 O50 2.002 . S
Fe44 O55 1.976 . S
Fe44 O58 1.996 . S
Fe45 O46 1.918 . S
Fe45 O53 1.997 . S
Fe45 O56 1.996 . S
Fe45 O60 1.976 . S
Fe45 O63 2.002 . S
O46 Fe44 1.918 . S
O46 Fe45 1.918 . S
O46 Fe47 1.918 . S
Fe47 O46 1.918 . S
Fe47 O48 2.002 . S
Fe47 O57 1.976 . S
Fe47 O61 1.996 . S
Fe47 O64 1.997 . S
O48 Fe47 2.002 . S
O48 C65 1.295 . S
O49 Fe44 1.997 . S
O49 C65 1.235 . S
O50 Fe44 2.002 . S
O50 C51 1.295 . S
C51 O50 1.295 . S
C51 O53 1.235 . S
C52 O57 1.287 . S
C52 O58 1.255 . S
O53 Fe45 1.997 . S
O53 C51 1.235 . S
C54 O60 1.287 . S
C54 O61 1.255 . S
O55 Fe44 1.976 . S
O55 C62 1.287 . S
O56 Fe45 1.996 . S
O56 C62 1.255 . S
O57 Fe47 1.976 . S
O57 C52 1.287 . S
O58 Fe44 1.996 . S
O58 C52 1.255 . S
C59 O63 1.295 . S
C59 O64 1.235 . S
O60 Fe45 1.976 . S
O60 C54 1.287 . S
O61 Fe47 1.996 . S
O61 C54 1.255 . S
C62 O55 1.287 . S
C62 O56 1.255 . S
O63 Fe45 2.002 . S
O63 C59 1.295 . S
O64 Fe47 1.997 . S
O64 C59 1.235 . S
C65 O48 1.295 . S
C65 O49 1.235 . S
Fe66 O68 1.918 . S
Fe66 O71 1.997 . S
Fe66 O72 2.002 . S
Fe66 O77 1.976 . S
Fe66 O80 1.996 . S
Fe67 O68 1.918 . S
Fe67 O75 1.997 . S
Fe67 O78 1.996 . S
Fe67 O82 1.976 . S
Fe67 O85 2.002 . S
O68 Fe66 1.918 . S
O68 Fe67 1.918 . S
O68 Fe69 1.918 . S
Fe69 O68 1.918 . S
Fe69 O70 2.002 . S
Fe69 O79 1.976 . S
Fe69 O83 1.996 . S
Fe69 O86 1.997 . S
O70 Fe69 2.002 . S
O70 C87 1.295 . S
O71 Fe66 1.997 . S
O71 C87 1.235 . S
O72 Fe66 2.002 . S
O72 C73 1.295 . S
C73 O72 1.295 . S
C73 O75 1.235 . S
C74 O79 1.287 . S
C74 O80 1.255 . S
O75 Fe67 1.997 . S
O75 C73 1.235 . S
C76 O82 1.287 . S
C76 O83 1.255 . S
O77 Fe66 1.976 . S
O77 C84 1.287 . S
O78 Fe67 1.996 . S
O78 C84 1.255 . S
O79 Fe69 1.976 . S
O79 C74 1.287 . S
O80 Fe66 1.996 . S
O80 C74 1.255 . S
C81 O85 1.295 . S
C81 O86 1.235 . S
O82 Fe67 1.976 . S
O82 C76 1.287 . S
O83 Fe69 1.996 . S
O83 C76 1.255 . S
C84 O77 1.287 . S
C84 O78 1.255 . S
O85 Fe67 2.002 . S
O85 C81 1.295 . S
O86 Fe69 1.997 . S
O86 C81 1.235 . S
C87 O70 1.295 . S
C87 O71 1.235 . S
Fe88 O90 1.918 . S
Fe88 O93 1.997 . S
Fe88 O94 2.002 . S
Fe88 O99 1.976 . S
Fe88 O102 1.996 . S
Fe89 O90 1.918 . S
Fe89 O97 1.997 . S
Fe89 O100 1.996 . S
Fe89 O104 1.976 . S
Fe89 O107 2.002 . S
O90 Fe88 1.918 . S
O90 Fe89 1.918 . S
O90 Fe91 1.918 . S
Fe91 O90 1.918 . S
Fe91 O92 2.002 . S
Fe91 O101 1.976 . S
Fe91 O105 1.996 . S
Fe91 O108 1.997 . S
O92 Fe91 2.002 . S
O92 C109 1.295 . S
O93 Fe88 1.997 . S
O93 C109 1.235 . S
O94 Fe88 2.002 . S
O94 C95 1.295 . S
C95 O94 1.295 . S
C95 O97 1.235 . S
C96 O101 1.287 . S
C96 O102 1.255 . S
O97 Fe89 1.997 . S
O97 C95 1.235 . S
C98 O104 1.287 . S
C98 O105 1.255 . S
O99 Fe88 1.976 . S
O99 C106 1.287 . S
O100 Fe89 1.996 . S
O100 C106 1.255 . S
O101 Fe91 1.976 . S
O101 C96 1.287 . S
O102 Fe88 1.996 . S
O102 C96 1.255 . S
C103 O107 1.295 . S
C103 O108 1.235 . S
O104 Fe89 1.976 . S
O104 C98 1.287 . S
O105 Fe91 1.996 . S
O105 C98 1.255 . S
C106 O99 1.287 . S
C106 O100 1.255 . S
O107 Fe89 2.002 . S
O107 C103 1.295 . S
O108 Fe91 1.997 . S
O108 C103 1.235 . S
C109 O92 1.295 . S
C109 O93 1.235 . S
Fe110 O112 1.918 . S
Fe110 O115 1.997 . S
Fe110 O116 2.002 . S
Fe110 O121 1.976 . S
Fe110 O124 1.996 . S
Fe111 O112 1.918 . S
Fe111 O119 1.997 . S
Fe111 O122 1.996 . S
Fe111 O126 1.976 . S
Fe111 O129 2.002 . S
O112 Fe110 1.918 . S
O112 Fe111 1.918 . S
O112 Fe113 1.918 . S
Fe113 O112 1.918 . S
Fe113 O114 2.002 . S
Fe113 O123 1.976 . S
Fe113 O127 1.996 . S
Fe113 O130 1.997 . S
O114 Fe113 2.002 . S
O114 C131 1.295 . S
O115 Fe110 1.997 . S
O115 C131 1.235 . S
O116 Fe110 2.002 . S
O116 C117 1.295 . S
C117 O116 1.295 . S
C117 O119 1.235 . S
C118 O123 1.287 . S
C118 O124 1.255 . S
O119 Fe111 1.997 . S
O119 C117 1.235 . S
C120 O126 1.287 . S
C120 O127 1.255 . S
O121 Fe110 1.976 . S
O121 C128 1.287 . S
O122 Fe111 1.996 . S
O122 C128 1.255 . S
O123 Fe113 1.976 . S
O123 C118 1.287 . S
O124 Fe110 1.996 . S
O124 C118 1.255 . S
C125 O129 1.295 . S
C125 O130 1.235 . S
O126 Fe111 1.976 . S
O126 C120 1.287 . S
O127 Fe113 1.996 . S
O127 C120 1.255 . S
C128 O121 1.287 . S
C128 O122 1.255 . S
O129 Fe111 2.002 . S
O129 C125 1.295 . S
O130 Fe113 1.997 . S
O130 C125 1.235 . S
C131 O114 1.295 . S
C131 O115 1.235 . S
Fe132 O134 1.918 . S
Fe132 O137 1.997 . S
Fe132 O138 2.002 . S
Fe132 O143 1.976 . S
Fe132 O146 1.996 . S
Fe133 O134 1.918 . S
Fe133 O141 1.997 . S
Fe133 O144 1.996 . S
Fe133 O148 1.976 . S
Fe133 O151 2.002 . S
O134 Fe132 1.918 . S
O134 Fe133 1.918 . S
O134 Fe135 1.918 . S
Fe135 O134 1.918 . S
Fe135 O136 2.002 . S
Fe135 O145 1.976 . S
Fe135 O149 1.996 . S
Fe135 O152 1.997 . S
O136 Fe135 2.002 . S
O136 C153 1.295 . S
O137 Fe132 1.997 . S
O137 C153 1.235 . S
O138 Fe132 2.002 . S
O138 C139 1.295 . S
C139 O138 1.295 . S
C139 O141 1.235 . S
C140 O145 1.287 . S
C140 O146 1.255 . S
O141 Fe133 1.997 . S
O141 C139 1.235 . S
C142 O148 1.287 . S
C142 O149 1.255 . S
O143 Fe132 1.976 . S
O143 C150 1.287 . S
O144 Fe133 1.996 . S
O144 C150 1.255 . S
O145 Fe135 1.976 . S
O145 C140 1.287 . S
O146 Fe132 1.996 . S
O146 C140 1.255 . S
C147 O151 1.295 . S
C147 O152 1.235 . S
O148 Fe133 1.976 . S
O148 C142 1.287 . S
O149 Fe135 1.996 . S
O149 C142 1.255 . S
C150 O143 1.287 . S
C150 O144 1.255 . S
O151 Fe133 2.002 . S
O151 C147 1.295 . S
O152 Fe135 1.997 . S
O152 C147 1.235 . S
C153 O136 1.295 . S
C153 O137 1.235 . S
Fe154 O156 1.918 . S
Fe154 O159 1.997 . S
Fe154 O160 2.002 . S
Fe154 O165 1.976 . S
Fe154 O168 1.996 . S
Fe155 O156 1.918 . S
Fe155 O163 1.997 . S
Fe155 O166 1.996 . S
Fe155 O170 1.976 . S
Fe155 O173 2.002 . S
O156 Fe154 1.918 . S
O156 Fe155 1.918 . S
O156 Fe157 1.918 . S
Fe157 O156 1.918 . S
Fe157 O158 2.002 . S
Fe157 O167 1.976 . S
Fe157 O171 1.996 . S
Fe157 O174 1.997 . S
O158 Fe157 2.002 . S
O158 C175 1.295 . S
O159 Fe154 1.997 . S
O159 C175 1.235 . S
O160 Fe154 2.002 . S
O160 C161 1.295 . S
C161 O160 1.295 . S
C161 O163 1.235 . S
C162 O167 1.287 . S
C162 O168 1.255 . S
O163 Fe155 1.997 . S
O163 C161 1.235 . S
C164 O170 1.287 . S
C164 O171 1.255 . S
O165 Fe154 1.976 . S
O165 C172 1.287 . S
O166 Fe155 1.996 . S
O166 C172 1.255 . S
O167 Fe157 1.976 . S
O167 C162 1.287 . S
O168 Fe154 1.996 . S
O168 C162 1.255 . S
C169 O173 1.295 . S
C169 O174 1.235 . S
O170 Fe155 1.976 . S
O170 C164 1.287 . S
O171 Fe157 1.996 . S
O171 C164 1.255 . S
C172 O165 1.287 . S
C172 O166 1.255 . S
O173 Fe155 2.002 . S
O173 C169 1.295 . S
O174 Fe157 1.997 . S
O174 C169 1.235 . S
C175 O158 1.295 . S
C175 O159 1.235 . S
Fe176 O178 1.918 . S
Fe176 O181 1.997 . S
Fe176 O182 2.002 . S
Fe176 O187 1.976 . S
Fe176 O190 1.996 . S
Fe177 O178 1.918 . S
Fe177 O185 1.997 . S
Fe177 O188 1.996 . S
Fe177 O192 1.976 . S
Fe177 O195 2.002 . S
O178 Fe176 1.918 . S
O178 Fe177 1.918 . S
O178 Fe179 1.918 . S
Fe179 O178 1.918 . S
Fe179 O180 2.002 . S
Fe179 O189 1.976 . S
Fe179 O193 1.996 . S
Fe179 O196 1.997 . S
O180 Fe179 2.002 . S
O180 C197 1.295 . S
O181 Fe176 1.997 . S
O181 C197 1.235 . S
O182 Fe176 2.002 . S
O182 C183 1.295 . S
C183 O182 1.295 . S
C183 O185 1.235 . S
C184 O189 1.287 . S
C184 O190 1.255 . S
O185 Fe177 1.997 . S
O185 C183 1.235 . S
C186 O192 1.287 . S
C186 O193 1.255 . S
O187 Fe176 1.976 . S
O187 C194 1.287 . S
O188 Fe177 1.996 . S
O188 C194 1.255 . S
O189 Fe179 1.976 . S
O189 C184 1.287 . S
O190 Fe176 1.996 . S
O190 C184 1.255 . S
C191 O195 1.295 . S
C191 O196 1.235 . S
O192 Fe177 1.976 . S
O192 C186 1.287 . S
O193 Fe179 1.996 . S
O193 C186 1.255 . S
C194 O187 1.287 . S
C194 O188 1.255 . S
O195 Fe177 2.002 . S
O195 C191 1.295 . S
O196 Fe179 1.997 . S
O196 C191 1.235 . S
C197 O180 1.295 . S
C197 O181 1.235 . S
Fe198 O200 1.918 . S
Fe198 O203 1.997 . S
Fe198 O204 2.002 . S
Fe198 O209 1.976 . S
Fe198 O212 1.996 . S
Fe199 O200 1.918 . S
Fe199 O207 1.997 . S
Fe199 O210 1.996 . S
Fe199 O214 1.976 . S
Fe199 O217 2.002 . S
O200 Fe198 1.918 . S
O200 Fe199 1.918 . S
O200 Fe201 1.918 . S
Fe201 O200 1.918 . S
Fe201 O202 2.002 . S
Fe201 O211 1.976 . S
Fe201 O215 1.996 . S
Fe201 O218 1.997 . S
O202 Fe201 2.002 . S
O202 C219 1.295 . S
O203 Fe198 1.997 . S
O203 C219 1.235 . S
O204 Fe198 2.002 . S
O204 C205 1.295 . S
C205 O204 1.295 . S
C205 O207 1.235 . S
C206 O211 1.287 . S
C206 O212 1.255 . S
O207 Fe199 1.997 . S
O207 C205 1.235 . S
C208 O214 1.287 . S
C208 O215 1.255 . S
O209 Fe198 1.976 . S
O209 C216 1.287 . S
O210 Fe199 1.996 . S
O210 C216 1.255 . S
O211 Fe201 1.976 . S
O211 C206 1.287 . S
O212 Fe198 1.996 . S
O212 C206 1.255 . S
C213 O217 1.295 . S
C213 O218 1.235 . S
O214 Fe199 1.976 . S
O214 C208 1.287 . S
O215 Fe201 1.996 . S
O215 C208 1.255 . S
C216 O209 1.287 . S
C216 O210 1.255 . S
O217 Fe199 2.002 . S
O217 C213 1.295 . S
O218 Fe201 1.997 . S
O218 C213 1.235 . S
C219 O202 1.295 . S
C219 O203 1.235 . S
Fe220 O222 1.918 . S
Fe220 O225 1.997 . S
Fe220 O226 2.002 . S
Fe220 O231 1.976 . S
Fe220 O234 1.996 . S
Fe221 O222 1.918 . S
Fe221 O229 1.997 . S
Fe221 O232 1.996 . S
Fe221 O236 1.976 . S
Fe221 O239 2.002 . S
O222 Fe220 1.918 . S
O222 Fe221 1.918 . S
O222 Fe223 1.918 . S
Fe223 O222 1.918 . S
Fe223 O224 2.002 . S
Fe223 O233 1.976 . S
Fe223 O237 1.996 . S
Fe223 O240 1.997 . S
O224 Fe223 2.002 . S
O224 C241 1.295 . S
O225 Fe220 1.997 . S
O225 C241 1.235 . S
O226 Fe220 2.002 . S
O226 C227 1.295 . S
C227 O226 1.295 . S
C227 O229 1.235 . S
C228 O233 1.287 . S
C228 O234 1.255 . S
O229 Fe221 1.997 . S
O229 C227 1.235 . S
C230 O236 1.287 . S
C230 O237 1.255 . S
O231 Fe220 1.976 . S
O231 C238 1.287 . S
O232 Fe221 1.996 . S
O232 C238 1.255 . S
O233 Fe223 1.976 . S
O233 C228 1.287 . S
O234 Fe220 1.996 . S
O234 C228 1.255 . S
C235 O239 1.295 . S
C235 O240 1.235 . S
O236 Fe221 1.976 . S
O236 C230 1.287 . S
O237 Fe223 1.996 . S
O237 C230 1.255 . S
C238 O231 1.287 . S
C238 O232 1.255 . S
O239 Fe221 2.002 . S
O239 C235 1.295 . S
O240 Fe223 1.997 . S
O240 C235 1.235 . S
C241 O224 1.295 . S
C241 O225 1.235 . S
Fe242 O244 1.918 . S
Fe242 O247 1.997 . S
Fe242 O248 2.002 . S
Fe242 O253 1.976 . S
Fe242 O256 1.996 . S
Fe243 O244 1.918 . S
Fe243 O251 1.997 . S
Fe243 O254 1.996 . S
Fe243 O258 1.976 . S
Fe243 O261 2.002 . S
O244 Fe242 1.918 . S
O244 Fe243 1.918 . S
O244 Fe245 1.918 . S
Fe245 O244 1.918 . S
Fe245 O246 2.002 . S
Fe245 O255 1.976 . S
Fe245 O259 1.996 . S
Fe245 O262 1.997 . S
O246 Fe245 2.002 . S
O246 C263 1.295 . S
O247 Fe242 1.997 . S
O247 C263 1.235 . S
O248 Fe242 2.002 . S
O248 C249 1.295 . S
C249 O248 1.295 . S
C249 O251 1.235 . S
C250 O255 1.287 . S
C250 O256 1.255 . S
O251 Fe243 1.997 . S
O251 C249 1.235 . S
C252 O258 1.287 . S
C252 O259 1.255 . S
O253 Fe242 1.976 . S
O253 C260 1.287 . S
O254 Fe243 1.996 . S
O254 C260 1.255 . S
O255 Fe245 1.976 . S
O255 C250 1.287 . S
O256 Fe242 1.996 . S
O256 C250 1.255 . S
C257 O261 1.295 . S
C257 O262 1.235 . S
O258 Fe243 1.976 . S
O258 C252 1.287 . S
O259 Fe245 1.996 . S
O259 C252 1.255 . S
C260 O253 1.287 . S
C260 O254 1.255 . S
O261 Fe243 2.002 . S
O261 C257 1.295 . S
O262 Fe245 1.997 . S
O262 C257 1.235 . S
C263 O246 1.295 . S
C263 O247 1.235 . S
Fe264 O266 1.918 . S
Fe264 O269 1.997 . S
Fe264 O270 2.002 . S
Fe264 O275 1.976 . S
Fe264 O278 1.996 . S
Fe265 O266 1.918 . S
Fe265 O273 1.997 . S
Fe265 O276 1.996 . S
Fe265 O280 1.976 . S
Fe265 O283 2.002 . S
O266 Fe264 1.918 . S
O266 Fe265 1.918 . S
O266 Fe267 1.918 . S
Fe267 O266 1.918 . S
Fe267 O268 2.002 . S
Fe267 O277 1.976 . S
Fe267 O281 1.996 . S
Fe267 O284 1.997 . S
O268 Fe267 2.002 . S
O268 C285 1.295 . S
O269 Fe264 1.997 . S
O269 C285 1.235 . S
O270 Fe264 2.002 . S
O270 C271 1.295 . S
C271 O270 1.295 . S
C271 O273 1.235 . S
C272 O277 1.287 . S
C272 O278 1.255 . S
O273 Fe265 1.997 . S
O273 C271 1.235 . S
C274 O280 1.287 . S
C274 O281 1.255 . S
O275 Fe264 1.976 . S
O275 C282 1.287 . S
O276 Fe265 1.996 . S
O276 C282 1.255 . S
O277 Fe267 1.976 . S
O277 C272 1.287 . S
O278 Fe264 1.996 . S
O278 C272 1.255 . S
C279 O283 1.295 . S
C279 O284 1.235 . S
O280 Fe265 1.976 . S
O280 C274 1.287 . S
O281 Fe267 1.996 . S
O281 C274 1.255 . S
C282 O275 1.287 . S
C282 O276 1.255 . S
O283 Fe265 2.002 . S
O283 C279 1.295 . S
O284 Fe267 1.997 . S
O284 C279 1.235 . S
C285 O268 1.295 . S
C285 O269 1.235 . S
Fe286 O288 1.918 . S
Fe286 O291 1.997 . S
Fe286 O292 2.002 . S
Fe286 O297 1.976 . S
Fe286 O300 1.996 . S
Fe287 O288 1.918 . S
Fe287 O295 1.997 . S
Fe287 O298 1.996 . S
Fe287 O302 1.976 . S
Fe287 O305 2.002 . S
O288 Fe286 1.918 . S
O288 Fe287 1.918 . S
O288 Fe289 1.918 . S
Fe289 O288 1.918 . S
Fe289 O290 2.002 . S
Fe289 O299 1.976 . S
Fe289 O303 1.996 . S
Fe289 O306 1.997 . S
O290 Fe289 2.002 . S
O290 C307 1.295 . S
O291 Fe286 1.997 . S
O291 C307 1.235 . S
O292 Fe286 2.002 . S
O292 C293 1.295 . S
C293 O292 1.295 . S
C293 O295 1.235 . S
C294 O299 1.287 . S
C294 O300 1.255 . S
O295 Fe287 1.997 . S
O295 C293 1.235 . S
C296 O302 1.287 . S
C296 O303 1.255 . S
O297 Fe286 1.976 . S
O297 C304 1.287 . S
O298 Fe287 1.996 . S
O298 C304 1.255 . S
O299 Fe289 1.976 . S
O299 C294 1.287 . S
O300 Fe286 1.996 . S
O300 C294 1.255 . S
C301 O305 1.295 . S
C301 O306 1.235 . S
O302 Fe287 1.976 . S
O302 C296 1.287 . S
O303 Fe289 1.996 . S
O303 C296 1.255 . S
C304 O297 1.287 . S
C304 O298 1.255 . S
O305 Fe287 2.002 . S
O305 C301 1.295 . S
O306 Fe289 1.997 . S
O306 C301 1.235 . S
C307 O290 1.295 . S
C307 O291 1.235 . S
Fe308 O310 1.918 . S
Fe308 O313 1.997 . S
Fe308 O314 2.002 . S
Fe308 O319 1.976 . S
Fe308 O322 1.996 . S
Fe309 O310 1.918 . S
Fe309 O317 1.997 . S
Fe309 O320 1.996 . S
Fe309 O324 1.976 . S
Fe309 O327 2.002 . S
O310 Fe308 1.918 . S
O310 Fe309 1.918 . S
O310 Fe311 1.918 . S
Fe311 O310 1.918 . S
Fe311 O312 2.002 . S
Fe311 O321 1.976 . S
Fe311 O325 1.996 . S
Fe311 O328 1.997 . S
O312 Fe311 2.002 . S
O312 C329 1.295 . S
O313 Fe308 1.997 . S
O313 C329 1.235 . S
O314 Fe308 2.002 . S
O314 C315 1.295 . S
C315 O314 1.295 . S
C315 O317 1.235 . S
C316 O321 1.287 . S
C316 O322 1.255 . S
O317 Fe309 1.997 . S
O317 C315 1.235 . S
C318 O324 1.287 . S
C318 O325 1.255 . S
O319 Fe308 1.976 . S
O319 C326 1.287 . S
O320 Fe309 1.996 . S
O320 C326 1.255 . S
O321 Fe311 1.976 . S
O321 C316 1.287 . S
O322 Fe308 1.996 . S
O322 C316 1.255 . S
C323 O327 1.295 . S
C323 O328 1.235 . S
O324 Fe309 1.976 . S
O324 C318 1.287 . S
O325 Fe311 1.996 . S
O325 C318 1.255 . S
C326 O319 1.287 . S
C326 O320 1.255 . S
O327 Fe309 2.002 . S
O327 C323 1.295 . S
O328 Fe311 1.997 . S
O328 C323 1.235 . S
C329 O312 1.295 . S
C329 O313 1.235 . S
Fe330 O332 1.918 . S
Fe330 O335 1.997 . S
Fe330 O336 2.002 . S
Fe330 O341 1.976 . S
Fe330 O344 1.996 . S
Fe331 O332 1.918 . S
Fe331 O339 1.997 . S
Fe331 O342 1.996 . S
Fe331 O346 1.976 . S
Fe331 O349 2.002 . S
O332 Fe330 1.918 . S
O332 Fe331 1.918 . S
O332 Fe333 1.918 . S
Fe333 O332 1.918 . S
Fe333 O334 2.002 . S
Fe333 O343 1.976 . S
Fe333 O347 1.996 . S
Fe333 O350 1.997 . S
O334 Fe333 2.002 . S
O334 C351 1.295 . S
O335 Fe330 1.997 . S
O335 C351 1.235 . S
O336 Fe330 2.002 . S
O336 C337 1.295 . S
C337 O336 1.295 . S
C337 O339 1.235 . S
C338 O343 1.287 . S
C338 O344 1.255 . S
O339 Fe331 1.997 . S
O339 C337 1.235 . S
C340 O346 1.287 . S
C340 O347 1.255 . S
O341 Fe330 1.976 . S
O341 C348 1.287 . S
O342 Fe331 1.996 . S
O342 C348 1.255 . S
O343 Fe333 1.976 . S
O343 C338 1.287 . S
O344 Fe330 1.996 . S
O344 C338 1.255 . S
C345 O349 1.295 . S
C345 O350 1.235 . S
O346 Fe331 1.976 . S
O346 C340 1.287 . S
O347 Fe333 1.996 . S
O347 C340 1.255 . S
C348 O341 1.287 . S
C348 O342 1.255 . S
O349 Fe331 2.002 . S
O349 C345 1.295 . S
O350 Fe333 1.997 . S
O350 C345 1.235 . S
C351 O334 1.295 . S
C351 O335 1.235 . S
Fe352 O354 1.918 . S
Fe352 O357 1.997 . S
Fe352 O358 2.002 . S
Fe352 O363 1.976 . S
Fe352 O366 1.996 . S
Fe353 O354 1.918 . S
Fe353 O361 1.997 . S
Fe353 O364 1.996 . S
Fe353 O368 1.976 . S
Fe353 O371 2.002 . S
O354 Fe352 1.918 . S
O354 Fe353 1.918 . S
O354 Fe355 1.918 . S
Fe355 O354 1.918 . S
Fe355 O356 2.002 . S
Fe355 O365 1.976 . S
Fe355 O369 1.996 . S
Fe355 O372 1.997 . S
O356 Fe355 2.002 . S
O356 C373 1.295 . S
O357 Fe352 1.997 . S
O357 C373 1.235 . S
O358 Fe352 2.002 . S
O358 C359 1.295 . S
C359 O358 1.295 . S
C359 O361 1.235 . S
C360 O365 1.287 . S
C360 O366 1.255 . S
O361 Fe353 1.997 . S
O361 C359 1.235 . S
C362 O368 1.287 . S
C362 O369 1.255 . S
O363 Fe352 1.976 . S
O363 C370 1.287 . S
O364 Fe353 1.996 . S
O364 C370 1.255 . S
O365 Fe355 1.976 . S
O365 C360 1.287 . S
O366 Fe352 1.996 . S
O366 C360 1.255 . S
C367 O371 1.295 . S
C367 O372 1.235 . S
O368 Fe353 1.976 . S
O368 C362 1.287 . S
O369 Fe355 1.996 . S
O369 C362 1.255 . S
C370 O363 1.287 . S
C370 O364 1.255 . S
O371 Fe353 2.002 . S
O371 C367 1.295 . S
O372 Fe355 1.997 . S
O372 C367 1.235 . S
C373 O356 1.295 . S
C373 O357 1.235 . S
Fe374 O376 1.918 . S
Fe374 O379 1.997 . S
Fe374 O380 2.002 . S
Fe374 O385 1.976 . S
Fe374 O388 1.996 . S
Fe375 O376 1.918 . S
Fe375 O383 1.997 . S
Fe375 O386 1.996 . S
Fe375 O390 1.976 . S
Fe375 O393 2.002 . S
O376 Fe374 1.918 . S
O376 Fe375 1.918 . S
O376 Fe377 1.918 . S
Fe377 O376 1.918 . S
Fe377 O378 2.002 . S
Fe377 O387 1.976 . S
Fe377 O391 1.996 . S
Fe377 O394 1.997 . S
O378 Fe377 2.002 . S
O378 C395 1.295 . S
O379 Fe374 1.997 . S
O379 C395 1.235 . S
O380 Fe374 2.002 . S
O380 C381 1.295 . S
C381 O380 1.295 . S
C381 O383 1.235 . S
C382 O387 1.287 . S
C382 O388 1.255 . S
O383 Fe375 1.997 . S
O383 C381 1.235 . S
C384 O390 1.287 . S
C384 O391 1.255 . S
O385 Fe374 1.976 . S
O385 C392 1.287 . S
O386 Fe375 1.996 . S
O386 C392 1.255 . S
O387 Fe377 1.976 . S
O387 C382 1.287 . S
O388 Fe374 1.996 . S
O388 C382 1.255 . S
C389 O393 1.295 . S
C389 O394 1.235 . S
O390 Fe375 1.976 . S
O390 C384 1.287 . S
O391 Fe377 1.996 . S
O391 C384 1.255 . S
C392 O385 1.287 . S
C392 O386 1.255 . S
O393 Fe375 2.002 . S
O393 C389 1.295 . S
O394 Fe377 1.997 . S
O394 C389 1.235 . S
C395 O378 1.295 . S
C395 O379 1.235 . S
Fe396 O398 1.918 . S
Fe396 O401 1.997 . S
Fe396 O402 2.002 . S
Fe396 O407 1.976 . S
Fe396 O410 1.996 . S
Fe397 O398 1.918 . S
Fe397 O405 1.997 . S
Fe397 O408 1.996 . S
Fe397 O412 1.976 . S
Fe397 O415 2.002 . S
O398 Fe396 1.918 . S
O398 Fe397 1.918 . S
O398 Fe399 1.918 . S
Fe399 O398 1.918 . S
Fe399 O400 2.002 . S
Fe399 O409 1.976 . S
Fe399 O413 1.996 . S
Fe399 O416 1.997 . S
O400 Fe399 2.002 . S
O400 C417 1.295 . S
O401 Fe396 1.997 . S
O401 C417 1.235 . S
O402 Fe396 2.002 . S
O402 C403 1.295 . S
C403 O402 1.295 . S
C403 O405 1.235 . S
C404 O409 1.287 . S
C404 O410 1.255 . S
O405 Fe397 1.997 . S
O405 C403 1.235 . S
C406 O412 1.287 . S
C406 O413 1.255 . S
O407 Fe396 1.976 . S
O407 C414 1.287 . S
O408 Fe397 1.996 . S
O408 C414 1.255 . S
O409 Fe399 1.976 . S
O409 C404 1.287 . S
O410 Fe396 1.996 . S
O410 C404 1.255 . S
C411 O415 1.295 . S
C411 O416 1.235 . S
O412 Fe397 1.976 . S
O412 C406 1.287 . S
O413 Fe399 1.996 . S
O413 C406 1.255 . S
C414 O407 1.287 . S
C414 O408 1.255 . S
O415 Fe397 2.002 . S
O415 C411 1.295 . S
O416 Fe399 1.997 . S
O416 C411 1.235 . S
C417 O400 1.295 . S
C417 O401 1.235 . S
Fe418 O420 1.918 . S
Fe418 O423 1.997 . S
Fe418 O424 2.002 . S
Fe418 O429 1.976 . S
Fe418 O432 1.996 . S
Fe419 O420 1.918 . S
Fe419 O427 1.997 . S
Fe419 O430 1.996 . S
Fe419 O434 1.976 . S
Fe419 O437 2.002 . S
O420 Fe418 1.918 . S
O420 Fe419 1.918 . S
O420 Fe421 1.918 . S
Fe421 O420 1.918 . S
Fe421 O422 2.002 . S
Fe421 O431 1.976 . S
Fe421 O435 1.996 . S
Fe421 O438 1.997 . S
O422 Fe421 2.002 . S
O422 C439 1.295 . S
O423 Fe418 1.997 . S
O423 C439 1.235 . S
O424 Fe418 2.002 . S
O424 C425 1.295 . S
C425 O424 1.295 . S
C425 O427 1.235 . S
C426 O431 1.287 . S
C426 O432 1.255 . S
O427 Fe419 1.997 . S
O427 C425 1.235 . S
C428 O434 1.287 . S
C428 O435 1.255 . S
O429 Fe418 1.976 . S
O429 C436 1.287 . S
O430 Fe419 1.996 . S
O430 C436 1.255 . S
O431 Fe421 1.976 . S
O431 C426 1.287 . S
O432 Fe418 1.996 . S
O432 C426 1.255 . S
C433 O437 1.295 . S
C433 O438 1.235 . S
O434 Fe419 1.976 . S
O434 C428 1.287 . S
O435 Fe421 1.996 . S
O435 C428 1.255 . S
C436 O429 1.287 . S
C436 O430 1.255 . S
O437 Fe419 2.002 . S
O437 C433 1.295 . S
O438 Fe421 1.997 . S
O438 C433 1.235 . S
C439 O422 1.295 . S
C439 O423 1.235 . S
Fe440 O442 1.918 . S
Fe440 O445 1.997 . S
Fe440 O446 2.002 . S
Fe440 O451 1.976 . S
Fe440 O454 1.996 . S
Fe441 O442 1.918 . S
Fe441 O449 1.997 . S
Fe441 O452 1.996 . S
Fe441 O456 1.976 . S
Fe441 O459 2.002 . S
O442 Fe440 1.918 . S
O442 Fe441 1.918 . S
O442 Fe443 1.918 . S
Fe443 O442 1.918 . S
Fe443 O444 2.002 . S
Fe443 O453 1.976 . S
Fe443 O457 1.996 . S
Fe443 O460 1.997 . S
O444 Fe443 2.002 . S
O444 C461 1.295 . S
O445 Fe440 1.997 . S
O445 C461 1.235 . S
O446 Fe440 2.002 . S
O446 C447 1.295 . S
C447 O446 1.295 . S
C447 O449 1.235 . S
C448 O453 1.287 . S
C448 O454 1.255 . S
O449 Fe441 1.997 . S
O449 C447 1.235 . S
C450 O456 1.287 . S
C450 O457 1.255 . S
O451 Fe440 1.976 . S
O451 C458 1.287 . S
O452 Fe441 1.996 . S
O452 C458 1.255 . S
O453 Fe443 1.976 . S
O453 C448 1.287 . S
O454 Fe440 1.996 . S
O454 C448 1.255 . S
C455 O459 1.295 . S
C455 O460 1.235 . S
O456 Fe441 1.976 . S
O456 C450 1.287 . S
O457 Fe443 1.996 . S
O457 C450 1.255 . S
C458 O451 1.287 . S
C458 O452 1.255 . S
O459 Fe441 2.002 . S
O459 C455 1.295 . S
O460 Fe443 1.997 . S
O460 C455 1.235 . S
C461 O444 1.295 . S
C461 O445 1.235 . S
Fe462 O464 1.918 . S
Fe462 O467 1.997 . S
Fe462 O468 2.002 . S
Fe462 O473 1.976 . S
Fe462 O476 1.996 . S
Fe463 O464 1.918 . S
Fe463 O471 1.997 . S
Fe463 O474 1.996 . S
Fe463 O478 1.976 . S
Fe463 O481 2.002 . S
O464 Fe462 1.918 . S
O464 Fe463 1.918 . S
O464 Fe465 1.918 . S
Fe465 O464 1.918 . S
Fe465 O466 2.002 . S
Fe465 O475 1.976 . S
Fe465 O479 1.996 . S
Fe465 O482 1.997 . S
O466 Fe465 2.002 . S
O466 C483 1.295 . S
O467 Fe462 1.997 . S
O467 C483 1.235 . S
O468 Fe462 2.002 . S
O468 C469 1.295 . S
C469 O468 1.295 . S
C469 O471 1.235 . S
C470 O475 1.287 . S
C470 O476 1.255 . S
O471 Fe463 1.997 . S
O471 C469 1.235 . S
C472 O478 1.287 . S
C472 O479 1.255 . S
O473 Fe462 1.976 . S
O473 C480 1.287 . S
O474 Fe463 1.996 . S
O474 C480 1.255 . S
O475 Fe465 1.976 . S
O475 C470 1.287 . S
O476 Fe462 1.996 . S
O476 C470 1.255 . S
C477 O481 1.295 . S
C477 O482 1.235 . S
O478 Fe463 1.976 . S
O478 C472 1.287 . S
O479 Fe465 1.996 . S
O479 C472 1.255 . S
C480 O473 1.287 . S
C480 O474 1.255 . S
O481 Fe463 2.002 . S
O481 C477 1.295 . S
O482 Fe465 1.997 . S
O482 C477 1.235 . S
C483 O466 1.295 . S
C483 O467 1.235 . S
Fe484 O486 1.918 . S
Fe484 O489 1.997 . S
Fe484 O490 2.002 . S
Fe484 O495 1.976 . S
Fe484 O498 1.996 . S
Fe485 O486 1.918 . S
Fe485 O493 1.997 . S
Fe485 O496 1.996 . S
Fe485 O500 1.976 . S
Fe485 O503 2.002 . S
O486 Fe484 1.918 . S
O486 Fe485 1.918 . S
O486 Fe487 1.918 . S
Fe487 O486 1.918 . S
Fe487 O488 2.002 . S
Fe487 O497 1.976 . S
Fe487 O501 1.996 . S
Fe487 O504 1.997 . S
O488 Fe487 2.002 . S
O488 C505 1.295 . S
O489 Fe484 1.997 . S
O489 C505 1.235 . S
O490 Fe484 2.002 . S
O490 C491 1.295 . S
C491 O490 1.295 . S
C491 O493 1.235 . S
C492 O497 1.287 . S
C492 O498 1.255 . S
O493 Fe485 1.997 . S
O493 C491 1.235 . S
C494 O500 1.287 . S
C494 O501 1.255 . S
O495 Fe484 1.976 . S
O495 C502 1.287 . S
O496 Fe485 1.996 . S
O496 C502 1.255 . S
O497 Fe487 1.976 . S
O497 C492 1.287 . S
O498 Fe484 1.996 . S
O498 C492 1.255 . S
C499 O503 1.295 . S
C499 O504 1.235 . S
O500 Fe485 1.976 . S
O500 C494 1.287 . S
O501 Fe487 1.996 . S
O501 C494 1.255 . S
C502 O495 1.287 . S
C502 O496 1.255 . S
O503 Fe485 2.002 . S
O503 C499 1.295 . S
O504 Fe487 1.997 . S
O504 C499 1.235 . S
C505 O488 1.295 . S
C505 O489 1.235 . S
Fe506 O508 1.918 . S
Fe506 O511 1.997 . S
Fe506 O512 2.002 . S
Fe506 O517 1.976 . S
Fe506 O520 1.996 . S
Fe507 O508 1.918 . S
Fe507 O515 1.997 . S
Fe507 O518 1.996 . S
Fe507 O522 1.976 . S
Fe507 O525 2.002 . S
O508 Fe506 1.918 . S
O508 Fe507 1.918 . S
O508 Fe509 1.918 . S
Fe509 O508 1.918 . S
Fe509 O510 2.002 . S
Fe509 O519 1.976 . S
Fe509 O523 1.996 . S
Fe509 O526 1.997 . S
O510 Fe509 2.002 . S
O510 C527 1.295 . S
O511 Fe506 1.997 . S
O511 C527 1.235 . S
O512 Fe506 2.002 . S
O512 C513 1.295 . S
C513 O512 1.295 . S
C513 O515 1.235 . S
C514 O519 1.287 . S
C514 O520 1.255 . S
O515 Fe507 1.997 . S
O515 C513 1.235 . S
C516 O522 1.287 . S
C516 O523 1.255 . S
O517 Fe506 1.976 . S
O517 C524 1.287 . S
O518 Fe507 1.996 . S
O518 C524 1.255 . S
O519 Fe509 1.976 . S
O519 C514 1.287 . S
O520 Fe506 1.996 . S
O520 C514 1.255 . S
C521 O525 1.295 . S
C521 O526 1.235 . S
O522 Fe507 1.976 . S
O522 C516 1.287 . S
O523 Fe509 1.996 . S
O523 C516 1.255 . S
C524 O517 1.287 . S
C524 O518 1.255 . S
O525 Fe507 2.002 . S
O525 C521 1.295 . S
O526 Fe509 1.997 . S
O526 C521 1.235 . S
C527 O510 1.295 . S
C527 O511 1.235 . S
C528 C529 1.349 . S
C528 C530 1.327 . S
C528 H553 0.950 . S
C529 C528 1.349 . S
C529 C545 1.349 . S
C530 C528 1.327 . S
C530 C549 1.429 . S
C530 H554 0.950 . S
C531 C548 1.574 . S
C531 C550 1.368 . S
C531 H555 0.949 . S
H532 C536 0.949 . S
C533 C534 1.349 . S
C533 C535 1.327 . S
C533 H556 0.950 . S
C534 C533 1.349 . S
C534 C546 1.349 . S
C535 C533 1.327 . S
C535 C551 1.429 . S
C535 H557 0.950 . S
C536 H532 0.949 . S
C536 C544 1.574 . S
C536 C552 1.368 . S
H537 C545 0.950 . S
H538 C543 0.950 . S
H539 C544 0.949 . S
H540 C546 0.950 . S
H541 C547 0.950 . S
H542 C548 0.949 . S
C543 H538 0.950 . S
C543 C545 1.327 . S
C543 C549 1.429 . S
C544 C536 1.574 . S
C544 H539 0.949 . S
C544 C550 1.368 . S
C545 C529 1.349 . S
C545 H537 0.950 . S
C545 C543 1.327 . S
C546 C534 1.349 . S
C546 H540 0.950 . S
C546 C547 1.327 . S
C547 H541 0.950 . S
C547 C546 1.327 . S
C547 C551 1.429 . S
C548 C531 1.574 . S
C548 H542 0.949 . S
C548 C552 1.368 . S
C549 C530 1.429 . S
C549 C543 1.429 . S
C549 C550 1.523 . S
C550 C531 1.368 . S
C550 C544 1.368 . S
C550 C549 1.523 . S
C551 C535 1.429 . S
C551 C547 1.429 . S
C551 C552 1.523 . S
C552 C536 1.368 . S
C552 C548 1.368 . S
C552 C551 1.523 . S
H553 C528 0.950 . S
H554 C530 0.950 . S
H555 C531 0.949 . S
H556 C533 0.950 . S
H557 C535 0.950 . S
C558 C559 1.349 . S
C558 C560 1.327 . S
C558 H583 0.950 . S
C559 C558 1.349 . S
C559 C575 1.349 . S
C560 C558 1.327 . S
C560 C579 1.429 . S
C560 H584 0.950 . S
C561 C578 1.574 . S
C561 C580 1.368 . S
C561 H585 0.949 . S
H562 C566 0.949 . S
C563 C564 1.349 . S
C563 C565 1.327 . S
C563 H586 0.950 . S
C564 C563 1.349 . S
C564 C576 1.349 . S
C565 C563 1.327 . S
C565 C581 1.429 . S
C565 H587 0.950 . S
C566 H562 0.949 . S
C566 C574 1.574 . S
C566 C582 1.368 . S
H567 C575 0.950 . S
H568 C573 0.950 . S
H569 C574 0.949 . S
H570 C576 0.950 . S
H571 C577 0.950 . S
H572 C578 0.949 . S
C573 H568 0.950 . S
C573 C575 1.327 . S
C573 C579 1.429 . S
C574 C566 1.574 . S
C574 H569 0.949 . S
C574 C580 1.368 . S
C575 C559 1.349 . S
C575 H567 0.950 . S
C575 C573 1.327 . S
C576 C564 1.349 . S
C576 H570 0.950 . S
C576 C577 1.327 . S
C577 H571 0.950 . S
C577 C576 1.327 . S
C577 C581 1.429 . S
C578 C561 1.574 . S
C578 H572 0.949 . S
C578 C582 1.368 . S
C579 C560 1.429 . S
C579 C573 1.429 . S
C579 C580 1.523 . S
C580 C561 1.368 . S
C580 C574 1.368 . S
C580 C579 1.523 . S
C581 C565 1.429 . S
C581 C577 1.429 . S
C581 C582 1.523 . S
C582 C566 1.368 . S
C582 C578 1.368 . S
C582 C581 1.523 . S
H583 C558 0.950 . S
H584 C560 0.950 . S
H585 C561 0.949 . S
H586 C563 0.950 . S
H587 C565 0.950 . S
C588 C589 1.349 . S
C588 C590 1.327 . S
C588 H613 0.950 . S
C589 C588 1.349 . S
C589 C605 1.349 . S
C590 C588 1.327 . S
C590 C609 1.429 . S
C590 H614 0.950 . S
C591 C608 1.574 . S
C591 C610 1.368 . S
C591 H615 0.949 . S
H592 C596 0.949 . S
C593 C594 1.349 . S
C593 C595 1.327 . S
C593 H616 0.950 1_545 S
C594 C593 1.349 . S
C594 C606 1.349 . S
C595 C593 1.327 . S
C595 C611 1.429 . S
C595 H617 0.950 . S
C596 H592 0.949 . S
C596 C604 1.574 . S
C596 C612 1.368 . S
H597 C605 0.950 . S
H598 C603 0.950 . S
H599 C604 0.949 . S
H600 C606 0.950 . S
H601 C607 0.950 . S
H602 C608 0.949 . S
C603 H598 0.950 . S
C603 C605 1.327 . S
C603 C609 1.429 . S
C604 C596 1.574 . S
C604 H599 0.949 . S
C604 C610 1.368 . S
C605 C589 1.349 . S
C605 H597 0.950 . S
C605 C603 1.327 . S
C606 C594 1.349 . S
C606 H600 0.950 . S
C606 C607 1.327 . S
C607 H601 0.950 . S
C607 C606 1.327 . S
C607 C611 1.429 . S
C608 C591 1.574 . S
C608 H602 0.949 . S
C608 C612 1.368 . S
C609 C590 1.429 . S
C609 C603 1.429 . S
C609 C610 1.523 . S
C610 C591 1.368 . S
C610 C604 1.368 . S
C610 C609 1.523 . S
C611 C595 1.429 . S
C611 C607 1.429 . S
C611 C612 1.523 . S
C612 C596 1.368 . S
C612 C608 1.368 . S
C612 C611 1.523 . S
H613 C588 0.950 . S
H614 C590 0.950 . S
H615 C591 0.949 . S
H616 C593 0.950 1_565 S
H617 C595 0.950 . S
C618 C619 1.349 . S
C618 C620 1.327 . S
C618 H643 0.950 . S
C619 C618 1.349 . S
C619 C635 1.349 . S
C620 C618 1.327 . S
C620 C639 1.429 . S
C620 H644 0.950 . S
C621 C638 1.574 . S
C621 C640 1.368 . S
C621 H645 0.949 . S
H622 C626 0.949 . S
C623 C624 1.349 . S
C623 C625 1.327 . S
C623 H646 0.950 . S
C624 C623 1.349 . S
C624 C636 1.349 . S
C625 C623 1.327 . S
C625 C641 1.429 . S
C625 H647 0.950 . S
C626 H622 0.949 . S
C626 C634 1.574 . S
C626 C642 1.368 . S
H627 C635 0.950 . S
H628 C633 0.950 . S
H629 C634 0.949 . S
H630 C636 0.950 1_545 S
H631 C637 0.950 . S
H632 C638 0.949 . S
C633 H628 0.950 . S
C633 C635 1.327 . S
C633 C639 1.429 . S
C634 C626 1.574 . S
C634 H629 0.949 . S
C634 C640 1.368 . S
C635 C619 1.349 . S
C635 H627 0.950 . S
C635 C633 1.327 . S
C636 C624 1.349 . S
C636 H630 0.950 1_565 S
C636 C637 1.327 . S
C637 H631 0.950 . S
C637 C636 1.327 . S
C637 C641 1.429 . S
C638 C621 1.574 . S
C638 H632 0.949 . S
C638 C642 1.368 . S
C639 C620 1.429 . S
C639 C633 1.429 . S
C639 C640 1.523 . S
C640 C621 1.368 . S
C640 C634 1.368 . S
C640 C639 1.523 . S
C641 C625 1.429 . S
C641 C637 1.429 . S
C641 C642 1.523 . S
C642 C626 1.368 . S
C642 C638 1.368 . S
C642 C641 1.523 . S
H643 C618 0.950 . S
H644 C620 0.950 . S
H645 C621 0.949 . S
H646 C623 0.950 . S
H647 C625 0.950 . S
C648 C649 1.349 . S
C648 C650 1.327 . S
C648 H673 0.950 . S
C649 C648 1.349 . S
C649 C665 1.349 . S
C650 C648 1.327 . S
C650 C669 1.429 . S
C650 H674 0.950 . S
C651 C668 1.574 . S
C651 C670 1.368 . S
C651 H675 0.949 . S
H652 C656 0.949 . S
C653 C654 1.349 . S
C653 C655 1.327 . S
C653 H676 0.950 . S
C654 C653 1.349 . S
C654 C666 1.349 . S
C655 C653 1.327 . S
C655 C671 1.429 . S
C655 H677 0.950 . S
C656 H652 0.949 . S
C656 C664 1.574 . S
C656 C672 1.368 . S
H657 C665 0.950 . S
H658 C663 0.950 . S
H659 C664 0.949 . S
H660 C666 0.950 . S
H661 C667 0.950 . S
H662 C668 0.949 . S
C663 H658 0.950 . S
C663 C665 1.327 . S
C663 C669 1.429 . S
C664 C656 1.574 . S
C664 H659 0.949 . S
C664 C670 1.368 . S
C665 C649 1.349 . S
C665 H657 0.950 . S
C665 C663 1.327 . S
C666 C654 1.349 . S
C666 H660 0.950 . S
C666 C667 1.327 . S
C667 H661 0.950 . S
C667 C666 1.327 . S
C667 C671 1.429 . S
C668 C651 1.574 . S
C668 H662 0.949 . S
C668 C672 1.368 . S
C669 C650 1.429 . S
C669 C663 1.429 . S
C669 C670 1.523 . S
C670 C651 1.368 . S
C670 C664 1.368 . S
C670 C669 1.523 . S
C671 C655 1.429 . S
C671 C667 1.429 . S
C671 C672 1.523 . S
C672 C656 1.368 . S
C672 C668 1.368 . S
C672 C671 1.523 . S
H673 C648 0.950 . S
H674 C650 0.950 . S
H675 C651 0.949 . S
H676 C653 0.950 . S
H677 C655 0.950 . S
C678 C679 1.349 . S
C678 C680 1.327 . S
C678 H703 0.950 . S
C679 C678 1.349 . S
C679 C695 1.349 . S
C680 C678 1.327 . S
C680 C699 1.429 . S
C680 H704 0.950 . S
C681 C698 1.574 . S
C681 C700 1.368 . S
C681 H705 0.949 . S
H682 C686 0.949 . S
C683 C684 1.349 . S
C683 C685 1.327 . S
C683 H706 0.949 1_556 S
C684 C683 1.349 . S
C684 C696 1.349 . S
C685 C683 1.327 . S
C685 C701 1.429 . S
C685 H707 0.950 . S
C686 H682 0.949 . S
C686 C694 1.574 . S
C686 C702 1.368 . S
H687 C695 0.950 . S
H688 C693 0.950 . S
H689 C694 0.949 . S
H690 C696 0.950 . S
H691 C697 0.950 . S
H692 C698 0.949 . S
C693 H688 0.950 . S
C693 C695 1.327 . S
C693 C699 1.429 . S
C694 C686 1.574 . S
C694 H689 0.949 . S
C694 C700 1.368 . S
C695 C679 1.349 . S
C695 H687 0.950 . S
C695 C693 1.327 . S
C696 C684 1.349 . S
C696 H690 0.950 . S
C696 C697 1.327 . S
C697 H691 0.950 . S
C697 C696 1.327 . S
C697 C701 1.429 . S
C698 C681 1.574 . S
C698 H692 0.949 . S
C698 C702 1.368 . S
C699 C680 1.429 . S
C699 C693 1.429 . S
C699 C700 1.523 . S
C700 C681 1.368 . S
C700 C694 1.368 . S
C700 C699 1.523 . S
C701 C685 1.429 . S
C701 C697 1.429 . S
C701 C702 1.523 . S
C702 C686 1.368 . S
C702 C698 1.368 . S
C702 C701 1.523 . S
H703 C678 0.950 . S
H704 C680 0.950 . S
H705 C681 0.949 . S
H706 C683 0.949 1_554 S
H707 C685 0.950 . S
C708 C709 1.349 . S
C708 C710 1.327 . S
C708 H733 0.950 . S
C709 C708 1.349 . S
C709 C725 1.349 . S
C710 C708 1.327 . S
C710 C729 1.429 . S
C710 H734 0.950 . S
C711 C728 1.574 . S
C711 C730 1.368 . S
C711 H735 0.949 . S
H712 C716 0.949 . S
C713 C714 1.349 . S
C713 C715 1.327 . S
C713 H736 0.950 . S
C714 C713 1.349 . S
C714 C726 1.349 . S
C715 C713 1.327 . S
C715 C731 1.429 . S
C715 H737 0.950 . S
C716 H712 0.949 . S
C716 C724 1.574 . S
C716 C732 1.368 . S
H717 C725 0.950 . S
H718 C723 0.950 . S
H719 C724 0.949 . S
H720 C726 0.950 . S
H721 C727 0.950 . S
H722 C728 0.949 . S
C723 H718 0.950 . S
C723 C725 1.327 . S
C723 C729 1.429 . S
C724 C716 1.574 . S
C724 H719 0.949 . S
C724 C730 1.368 . S
C725 C709 1.349 . S
C725 H717 0.950 . S
C725 C723 1.327 . S
C726 C714 1.349 . S
C726 H720 0.950 . S
C726 C727 1.327 . S
C727 H721 0.950 . S
C727 C726 1.327 . S
C727 C731 1.429 . S
C728 C711 1.574 . S
C728 H722 0.949 . S
C728 C732 1.368 . S
C729 C710 1.429 . S
C729 C723 1.429 . S
C729 C730 1.523 . S
C730 C711 1.368 . S
C730 C724 1.368 . S
C730 C729 1.523 . S
C731 C715 1.429 . S
C731 C727 1.429 . S
C731 C732 1.523 . S
C732 C716 1.368 . S
C732 C728 1.368 . S
C732 C731 1.523 . S
H733 C708 0.950 . S
H734 C710 0.950 . S
H735 C711 0.949 . S
H736 C713 0.950 . S
H737 C715 0.950 . S
C738 C739 1.349 . S
C738 C740 1.327 . S
C738 H763 0.950 . S
C739 C738 1.349 . S
C739 C755 1.349 . S
C740 C738 1.327 . S
C740 C759 1.429 . S
C740 H764 0.950 . S
C741 C758 1.574 . S
C741 C760 1.368 . S
C741 H765 0.949 . S
H742 C746 0.949 . S
C743 C744 1.349 . S
C743 C745 1.327 . S
C743 H766 0.950 . S
C744 C743 1.349 . S
C744 C756 1.349 . S
C745 C743 1.327 . S
C745 C761 1.429 . S
C745 H767 0.950 . S
C746 H742 0.949 . S
C746 C754 1.574 . S
C746 C762 1.368 . S
H747 C755 0.950 . S
H748 C753 0.950 . S
H749 C754 0.949 . S
H750 C756 0.950 1_556 S
H751 C757 0.950 . S
H752 C758 0.949 . S
C753 H748 0.950 . S
C753 C755 1.327 . S
C753 C759 1.429 . S
C754 C746 1.574 . S
C754 H749 0.949 . S
C754 C760 1.368 . S
C755 C739 1.349 . S
C755 H747 0.950 . S
C755 C753 1.327 . S
C756 C744 1.349 . S
C756 H750 0.950 1_554 S
C756 C757 1.327 . S
C757 H751 0.950 . S
C757 C756 1.327 . S
C757 C761 1.429 . S
C758 C741 1.574 . S
C758 H752 0.949 . S
C758 C762 1.368 . S
C759 C740 1.429 . S
C759 C753 1.429 . S
C759 C760 1.523 . S
C760 C741 1.368 . S
C760 C754 1.368 . S
C760 C759 1.523 . S
C761 C745 1.429 . S
C761 C757 1.429 . S
C761 C762 1.523 . S
C762 C746 1.368 . S
C762 C758 1.368 . S
C762 C761 1.523 . S
H763 C738 0.950 . S
H764 C740 0.950 . S
H765 C741 0.949 . S
H766 C743 0.950 . S
H767 C745 0.950 . S
C768 C769 1.349 . S
C768 C770 1.327 . S
C768 H793 0.950 . S
C769 C768 1.349 . S
C769 C785 1.349 . S
C770 C768 1.327 . S
C770 C789 1.429 . S
C770 H794 0.950 . S
C771 C788 1.574 . S
C771 C790 1.368 . S
C771 H795 0.949 . S
H772 C776 0.949 . S
C773 C774 1.349 . S
C773 C775 1.327 . S
C773 H796 0.950 . S
C774 C773 1.349 . S
C774 C786 1.349 . S
C775 C773 1.327 . S
C775 C791 1.429 . S
C775 H797 0.950 . S
C776 H772 0.949 . S
C776 C784 1.574 . S
C776 C792 1.368 . S
H777 C785 0.950 . S
H778 C783 0.950 . S
H779 C784 0.949 . S
H780 C786 0.950 . S
H781 C787 0.950 . S
H782 C788 0.949 . S
C783 H778 0.950 . S
C783 C785 1.327 . S
C783 C789 1.429 . S
C784 C776 1.574 . S
C784 H779 0.949 . S
C784 C790 1.368 . S
C785 C769 1.349 . S
C785 H777 0.950 . S
C785 C783 1.327 . S
C786 C774 1.349 . S
C786 H780 0.950 . S
C786 C787 1.327 . S
C787 H781 0.950 . S
C787 C786 1.327 . S
C787 C791 1.429 . S
C788 C771 1.574 . S
C788 H782 0.949 . S
C788 C792 1.368 . S
C789 C770 1.429 . S
C789 C783 1.429 . S
C789 C790 1.523 . S
C790 C771 1.368 . S
C790 C784 1.368 . S
C790 C789 1.523 . S
C791 C775 1.429 . S
C791 C787 1.429 . S
C791 C792 1.523 . S
C792 C776 1.368 . S
C792 C788 1.368 . S
C792 C791 1.523 . S
H793 C768 0.950 . S
H794 C770 0.950 . S
H795 C771 0.949 . S
H796 C773 0.950 . S
H797 C775 0.950 . S
C798 C799 1.349 . S
C798 C800 1.327 . S
C798 H823 0.950 . S
C799 C798 1.349 . S
C799 C815 1.349 . S
C800 C798 1.327 . S
C800 C819 1.429 . S
C800 H824 0.950 . S
C801 C818 1.574 . S
C801 C820 1.368 . S
C801 H825 0.949 . S
H802 C806 0.949 . S
C803 C804 1.349 . S
C803 C805 1.327 . S
C803 H826 0.950 . S
C804 C803 1.349 . S
C804 C816 1.349 . S
C805 C803 1.327 . S
C805 C821 1.429 . S
C805 H827 0.950 . S
C806 H802 0.949 . S
C806 C814 1.574 . S
C806 C822 1.368 . S
H807 C815 0.950 . S
H808 C813 0.950 . S
H809 C814 0.949 . S
H810 C816 0.950 . S
H811 C817 0.950 . S
H812 C818 0.949 . S
C813 H808 0.950 . S
C813 C815 1.327 . S
C813 C819 1.429 . S
C814 C806 1.574 . S
C814 H809 0.949 . S
C814 C820 1.368 . S
C815 C799 1.349 . S
C815 H807 0.950 . S
C815 C813 1.327 . S
C816 C804 1.349 . S
C816 H810 0.950 . S
C816 C817 1.327 . S
C817 H811 0.950 . S
C817 C816 1.327 . S
C817 C821 1.429 . S
C818 C801 1.574 . S
C818 H812 0.949 . S
C818 C822 1.368 . S
C819 C800 1.429 . S
C819 C813 1.429 . S
C819 C820 1.523 . S
C820 C801 1.368 . S
C820 C814 1.368 . S
C820 C819 1.523 . S
C821 C805 1.429 . S
C821 C817 1.429 . S
C821 C822 1.523 . S
C822 C806 1.368 . S
C822 C818 1.368 . S
C822 C821 1.523 . S
H823 C798 0.950 . S
H824 C800 0.950 . S
H825 C801 0.949 . S
H826 C803 0.950 . S
H827 C805 0.950 . S
C828 C829 1.349 . S
C828 C830 1.327 . S
C828 H853 0.950 . S
C829 C828 1.349 . S
C829 C845 1.349 . S
C830 C828 1.327 . S
C830 C849 1.429 . S
C830 H854 0.950 . S
C831 C848 1.574 . S
C831 C850 1.368 . S
C831 H855 0.949 . S
H832 C836 0.949 . S
C833 C834 1.349 . S
C833 C835 1.327 . S
C833 H856 0.950 . S
C834 C833 1.349 . S
C834 C846 1.349 . S
C835 C833 1.327 . S
C835 C851 1.429 . S
C835 H857 0.950 . S
C836 H832 0.949 . S
C836 C844 1.574 . S
C836 C852 1.368 . S
H837 C845 0.950 . S
H838 C843 0.950 . S
H839 C844 0.949 . S
H840 C846 0.950 . S
H841 C847 0.950 . S
H842 C848 0.949 . S
C843 H838 0.950 . S
C843 C845 1.327 . S
C843 C849 1.429 . S
C844 C836 1.574 . S
C844 H839 0.949 . S
C844 C850 1.368 . S
C845 C829 1.349 . S
C845 H837 0.950 . S
C845 C843 1.327 . S
C846 C834 1.349 . S
C846 H840 0.950 . S
C846 C847 1.327 . S
C847 H841 0.950 . S
C847 C846 1.327 . S
C847 C851 1.429 . S
C848 C831 1.574 . S
C848 H842 0.949 . S
C848 C852 1.368 . S
C849 C830 1.429 . S
C849 C843 1.429 . S
C849 C850 1.523 . S
C850 C831 1.368 . S
C850 C844 1.368 . S
C850 C849 1.523 . S
C851 C835 1.429 . S
C851 C847 1.429 . S
C851 C852 1.523 . S
C852 C836 1.368 . S
C852 C848 1.368 . S
C852 C851 1.523 . S
H853 C828 0.950 . S
H854 C830 0.950 . S
H855 C831 0.949 . S
H856 C833 0.950 . S
H857 C835 0.950 . S
C858 C859 1.349 . S
C858 C860 1.327 . S
C858 H883 0.950 . S
C859 C858 1.349 . S
C859 C875 1.349 . S
C860 C858 1.327 . S
C860 C879 1.429 . S
C860 H884 0.950 . S
C861 C878 1.574 . S
C861 C880 1.368 . S
C861 H885 0.949 . S
H862 C866 0.949 . S
C863 C864 1.349 . S
C863 C865 1.327 . S
C863 H886 0.950 . S
C864 C863 1.349 . S
C864 C876 1.349 . S
C865 C863 1.327 . S
C865 C881 1.429 . S
C865 H887 0.950 . S
C866 H862 0.949 . S
C866 C874 1.574 . S
C866 C882 1.368 . S
H867 C875 0.950 . S
H868 C873 0.950 . S
H869 C874 0.949 . S
H870 C876 0.950 . S
H871 C877 0.950 . S
H872 C878 0.949 . S
C873 H868 0.950 . S
C873 C875 1.327 . S
C873 C879 1.429 . S
C874 C866 1.574 . S
C874 H869 0.949 . S
C874 C880 1.368 . S
C875 C859 1.349 . S
C875 H867 0.950 . S
C875 C873 1.327 . S
C876 C864 1.349 . S
C876 H870 0.950 . S
C876 C877 1.327 . S
C877 H871 0.950 . S
C877 C876 1.327 . S
C877 C881 1.429 . S
C878 C861 1.574 . S
C878 H872 0.949 . S
C878 C882 1.368 . S
C879 C860 1.429 . S
C879 C873 1.429 . S
C879 C880 1.523 . S
C880 C861 1.368 . S
C880 C874 1.368 . S
C880 C879 1.523 . S
C881 C865 1.429 . S
C881 C877 1.429 . S
C881 C882 1.523 . S
C882 C866 1.368 . S
C882 C878 1.368 . S
C882 C881 1.523 . S
H883 C858 0.950 . S
H884 C860 0.950 . S
H885 C861 0.949 . S
H886 C863 0.950 . S
H887 C865 0.950 . S
C888 C889 1.349 . S
C888 C890 1.327 . S
C888 H913 0.950 . S
C889 C888 1.349 . S
C889 C905 1.349 . S
C890 C888 1.327 . S
C890 C909 1.429 . S
C890 H914 0.950 . S
C891 C908 1.574 . S
C891 C910 1.368 . S
C891 H915 0.949 . S
H892 C896 0.949 . S
C893 C894 1.349 . S
C893 C895 1.327 . S
C893 H916 0.950 . S
C894 C893 1.349 . S
C894 C906 1.349 . S
C895 C893 1.327 . S
C895 C911 1.429 . S
C895 H917 0.950 . S
C896 H892 0.949 . S
C896 C904 1.574 . S
C896 C912 1.368 . S
H897 C905 0.950 . S
H898 C903 0.950 . S
H899 C904 0.949 . S
H900 C906 0.950 . S
H901 C907 0.950 . S
H902 C908 0.949 . S
C903 H898 0.950 . S
C903 C905 1.327 . S
C903 C909 1.429 . S
C904 C896 1.574 . S
C904 H899 0.949 . S
C904 C910 1.368 . S
C905 C889 1.349 . S
C905 H897 0.950 . S
C905 C903 1.327 . S
C906 C894 1.349 . S
C906 H900 0.950 . S
C906 C907 1.327 . S
C907 H901 0.950 . S
C907 C906 1.327 . S
C907 C911 1.429 . S
C908 C891 1.574 . S
C908 H902 0.949 . S
C908 C912 1.368 . S
C909 C890 1.429 . S
C909 C903 1.429 . S
C909 C910 1.523 . S
C910 C891 1.368 . S
C910 C904 1.368 . S
C910 C909 1.523 . S
C911 C895 1.429 . S
C911 C907 1.429 . S
C911 C912 1.523 . S
C912 C896 1.368 . S
C912 C908 1.368 . S
C912 C911 1.523 . S
H913 C888 0.950 . S
H914 C890 0.950 . S
H915 C891 0.949 . S
H916 C893 0.950 . S
H917 C895 0.950 . S
C918 C919 1.349 . S
C918 C920 1.327 . S
C918 H943 0.950 . S
C919 C918 1.349 . S
C919 C935 1.349 . S
C920 C918 1.327 . S
C920 C939 1.429 . S
C920 H944 0.950 . S
C921 C938 1.574 . S
C921 C940 1.368 . S
C921 H945 0.949 . S
H922 C926 0.949 . S
C923 C924 1.349 . S
C923 C925 1.327 . S
C923 H946 0.950 . S
C924 C923 1.349 . S
C924 C936 1.349 . S
C925 C923 1.327 . S
C925 C941 1.429 . S
C925 H947 0.950 . S
C926 H922 0.949 . S
C926 C934 1.574 . S
C926 C942 1.368 . S
H927 C935 0.950 . S
H928 C933 0.950 . S
H929 C934 0.949 . S
H930 C936 0.950 . S
H931 C937 0.950 . S
H932 C938 0.949 . S
C933 H928 0.950 . S
C933 C935 1.327 . S
C933 C939 1.429 . S
C934 C926 1.574 . S
C934 H929 0.949 . S
C934 C940 1.368 . S
C935 C919 1.349 . S
C935 H927 0.950 . S
C935 C933 1.327 . S
C936 C924 1.349 . S
C936 H930 0.950 . S
C936 C937 1.327 . S
C937 H931 0.950 . S
C937 C936 1.327 . S
C937 C941 1.429 . S
C938 C921 1.574 . S
C938 H932 0.949 . S
C938 C942 1.368 . S
C939 C920 1.429 . S
C939 C933 1.429 . S
C939 C940 1.523 . S
C940 C921 1.368 . S
C940 C934 1.368 . S
C940 C939 1.523 . S
C941 C925 1.429 . S
C941 C937 1.429 . S
C941 C942 1.523 . S
C942 C926 1.368 . S
C942 C938 1.368 . S
C942 C941 1.523 . S
H943 C918 0.950 . S
H944 C920 0.950 . S
H945 C921 0.949 . S
H946 C923 0.950 . S
H947 C925 0.950 . S
C948 C949 1.349 . S
C948 C950 1.327 . S
C948 H973 0.950 . S
C949 C948 1.349 . S
C949 C965 1.349 . S
C950 C948 1.327 . S
C950 C969 1.429 . S
C950 H974 0.950 . S
C951 C968 1.574 . S
C951 C970 1.368 . S
C951 H975 0.949 . S
H952 C956 0.949 . S
C953 C954 1.349 . S
C953 C955 1.327 . S
C953 H976 0.950 1_565 S
C954 C953 1.349 . S
C954 C966 1.349 . S
C955 C953 1.327 . S
C955 C971 1.429 . S
C955 H977 0.950 . S
C956 H952 0.949 . S
C956 C964 1.574 . S
C956 C972 1.368 . S
H957 C965 0.950 . S
H958 C963 0.950 . S
H959 C964 0.949 . S
H960 C966 0.950 . S
H961 C967 0.950 . S
H962 C968 0.949 . S
C963 H958 0.950 . S
C963 C965 1.327 . S
C963 C969 1.429 . S
C964 C956 1.574 . S
C964 H959 0.949 . S
C964 C970 1.368 . S
C965 C949 1.349 . S
C965 H957 0.950 . S
C965 C963 1.327 . S
C966 C954 1.349 . S
C966 H960 0.950 . S
C966 C967 1.327 . S
C967 H961 0.950 . S
C967 C966 1.327 . S
C967 C971 1.429 . S
C968 C951 1.574 . S
C968 H962 0.949 . S
C968 C972 1.368 . S
C969 C950 1.429 . S
C969 C963 1.429 . S
C969 C970 1.523 . S
C970 C951 1.368 . S
C970 C964 1.368 . S
C970 C969 1.523 . S
C971 C955 1.429 . S
C971 C967 1.429 . S
C971 C972 1.523 . S
C972 C956 1.368 . S
C972 C968 1.368 . S
C972 C971 1.523 . S
H973 C948 0.950 . S
H974 C950 0.950 . S
H975 C951 0.949 . S
H976 C953 0.950 1_545 S
H977 C955 0.950 . S
C978 C979 1.349 . S
C978 C980 1.327 . S
C978 H1003 0.950 . S
C979 C978 1.349 . S
C979 C995 1.349 . S
C980 C978 1.327 . S
C980 C999 1.429 . S
C980 H1004 0.950 . S
C981 C998 1.574 . S
C981 C1000 1.368 . S
C981 H1005 0.949 . S
H982 C986 0.949 . S
C983 C984 1.349 . S
C983 C985 1.327 . S
C983 H1006 0.950 . S
C984 C983 1.349 . S
C984 C996 1.349 . S
C985 C983 1.327 . S
C985 C1001 1.429 . S
C985 H1007 0.950 . S
C986 H982 0.949 . S
C986 C994 1.574 . S
C986 C1002 1.368 . S
H987 C995 0.950 1_565 S
H988 C993 0.950 . S
H989 C994 0.949 . S
H990 C996 0.950 . S
H991 C997 0.950 . S
H992 C998 0.949 . S
C993 H988 0.950 . S
C993 C995 1.327 . S
C993 C999 1.429 . S
C994 C986 1.574 . S
C994 H989 0.949 . S
C994 C1000 1.368 . S
C995 C979 1.349 . S
C995 H987 0.950 1_545 S
C995 C993 1.327 . S
C996 C984 1.349 . S
C996 H990 0.950 . S
C996 C997 1.327 . S
C997 H991 0.950 . S
C997 C996 1.327 . S
C997 C1001 1.429 . S
C998 C981 1.574 . S
C998 H992 0.949 . S
C998 C1002 1.368 . S
C999 C980 1.429 . S
C999 C993 1.429 . S
C999 C1000 1.523 . S
C1000 C981 1.368 . S
C1000 C994 1.368 . S
C1000 C999 1.523 . S
C1001 C985 1.429 . S
C1001 C997 1.429 . S
C1001 C1002 1.523 . S
C1002 C986 1.368 . S
C1002 C998 1.368 . S
C1002 C1001 1.523 . S
H1003 C978 0.950 . S
H1004 C980 0.950 . S
H1005 C981 0.949 . S
H1006 C983 0.950 . S
H1007 C985 0.950 . S
C1008 C1009 1.349 . S
C1008 C1010 1.327 . S
C1008 H1033 0.950 . S
C1009 C1008 1.349 . S
C1009 C1025 1.349 . S
C1010 C1008 1.327 . S
C1010 C1029 1.429 . S
C1010 H1034 0.950 . S
C1011 C1028 1.574 . S
C1011 C1030 1.368 . S
C1011 H1035 0.949 . S
H1012 C1016 0.949 . S
C1013 C1014 1.349 . S
C1013 C1015 1.327 . S
C1013 H1036 0.950 . S
C1014 C1013 1.349 . S
C1014 C1026 1.349 . S
C1015 C1013 1.327 . S
C1015 C1031 1.429 . S
C1015 H1037 0.950 . S
C1016 H1012 0.949 . S
C1016 C1024 1.574 . S
C1016 C1032 1.368 . S
H1017 C1025 0.950 . S
H1018 C1023 0.950 . S
H1019 C1024 0.949 . S
H1020 C1026 0.950 . S
H1021 C1027 0.950 . S
H1022 C1028 0.949 . S
C1023 H1018 0.950 . S
C1023 C1025 1.327 . S
C1023 C1029 1.429 . S
C1024 C1016 1.574 . S
C1024 H1019 0.949 . S
C1024 C1030 1.368 . S
C1025 C1009 1.349 . S
C1025 H1017 0.950 . S
C1025 C1023 1.327 . S
C1026 C1014 1.349 . S
C1026 H1020 0.950 . S
C1026 C1027 1.327 . S
C1027 H1021 0.950 . S
C1027 C1026 1.327 . S
C1027 C1031 1.429 . S
C1028 C1011 1.574 . S
C1028 H1022 0.949 . S
C1028 C1032 1.368 . S
C1029 C1010 1.429 . S
C1029 C1023 1.429 . S
C1029 C1030 1.523 . S
C1030 C1011 1.368 . S
C1030 C1024 1.368 . S
C1030 C1029 1.523 . S
C1031 C1015 1.429 . S
C1031 C1027 1.429 . S
C1031 C1032 1.523 . S
C1032 C1016 1.368 . S
C1032 C1028 1.368 . S
C1032 C1031 1.523 . S
H1033 C1008 0.950 . S
H1034 C1010 0.950 . S
H1035 C1011 0.949 . S
H1036 C1013 0.950 . S
H1037 C1015 0.950 . S
C1038 C1039 1.349 . S
C1038 C1040 1.327 . S
C1038 H1063 0.950 1_554 S
C1039 C1038 1.349 . S
C1039 C1055 1.349 . S
C1040 C1038 1.327 . S
C1040 C1059 1.429 . S
C1040 H1064 0.950 . S
C1041 C1058 1.574 . S
C1041 C1060 1.368 . S
C1041 H1065 0.949 . S
H1042 C1046 0.949 . S
C1043 C1044 1.349 . S
C1043 C1045 1.327 . S
C1043 H1066 0.950 . S
C1044 C1043 1.349 . S
C1044 C1056 1.349 . S
C1045 C1043 1.327 . S
C1045 C1061 1.429 . S
C1045 H1067 0.950 . S
C1046 H1042 0.949 . S
C1046 C1054 1.574 . S
C1046 C1062 1.368 . S
H1047 C1055 0.950 . S
H1048 C1053 0.950 . S
H1049 C1054 0.949 . S
H1050 C1056 0.950 . S
H1051 C1057 0.950 . S
H1052 C1058 0.949 . S
C1053 H1048 0.950 . S
C1053 C1055 1.327 . S
C1053 C1059 1.429 . S
C1054 C1046 1.574 . S
C1054 H1049 0.949 . S
C1054 C1060 1.368 . S
C1055 C1039 1.349 . S
C1055 H1047 0.950 . S
C1055 C1053 1.327 . S
C1056 C1044 1.349 . S
C1056 H1050 0.950 . S
C1056 C1057 1.327 . S
C1057 H1051 0.950 . S
C1057 C1056 1.327 . S
C1057 C1061 1.429 . S
C1058 C1041 1.574 . S
C1058 H1052 0.949 . S
C1058 C1062 1.368 . S
C1059 C1040 1.429 . S
C1059 C1053 1.429 . S
C1059 C1060 1.523 . S
C1060 C1041 1.368 . S
C1060 C1054 1.368 . S
C1060 C1059 1.523 . S
C1061 C1045 1.429 . S
C1061 C1057 1.429 . S
C1061 C1062 1.523 . S
C1062 C1046 1.368 . S
C1062 C1058 1.368 . S
C1062 C1061 1.523 . S
H1063 C1038 0.950 1_556 S
H1064 C1040 0.950 . S
H1065 C1041 0.949 . S
H1066 C1043 0.950 . S
H1067 C1045 0.950 . S
C1068 C1069 1.349 . S
C1068 C1070 1.327 . S
C1068 H1093 0.950 . S
C1069 C1068 1.349 . S
C1069 C1085 1.349 . S
C1070 C1068 1.327 . S
C1070 C1089 1.429 . S
C1070 H1094 0.950 . S
C1071 C1088 1.574 . S
C1071 C1090 1.368 . S
C1071 H1095 0.949 . S
H1072 C1076 0.949 . S
C1073 C1074 1.349 . S
C1073 C1075 1.327 . S
C1073 H1096 0.950 . S
C1074 C1073 1.349 . S
C1074 C1086 1.349 . S
C1075 C1073 1.327 . S
C1075 C1091 1.429 . S
C1075 H1097 0.950 . S
C1076 H1072 0.949 . S
C1076 C1084 1.574 . S
C1076 C1092 1.368 . S
H1077 C1085 0.950 . S
H1078 C1083 0.950 . S
H1079 C1084 0.949 . S
H1080 C1086 0.950 . S
H1081 C1087 0.950 . S
H1082 C1088 0.949 . S
C1083 H1078 0.950 . S
C1083 C1085 1.327 . S
C1083 C1089 1.429 . S
C1084 C1076 1.574 . S
C1084 H1079 0.949 . S
C1084 C1090 1.368 . S
C1085 C1069 1.349 . S
C1085 H1077 0.950 . S
C1085 C1083 1.327 . S
C1086 C1074 1.349 . S
C1086 H1080 0.950 . S
C1086 C1087 1.327 . S
C1087 H1081 0.950 . S
C1087 C1086 1.327 . S
C1087 C1091 1.429 . S
C1088 C1071 1.574 . S
C1088 H1082 0.949 . S
C1088 C1092 1.368 . S
C1089 C1070 1.429 . S
C1089 C1083 1.429 . S
C1089 C1090 1.523 . S
C1090 C1071 1.368 . S
C1090 C1084 1.368 . S
C1090 C1089 1.523 . S
C1091 C1075 1.429 . S
C1091 C1087 1.429 . S
C1091 C1092 1.523 . S
C1092 C1076 1.368 . S
C1092 C1088 1.368 . S
C1092 C1091 1.523 . S
H1093 C1068 0.950 . S
H1094 C1070 0.950 . S
H1095 C1071 0.949 . S
H1096 C1073 0.950 . S
H1097 C1075 0.950 . S
C1098 C1099 1.349 . S
C1098 C1100 1.327 . S
C1098 H1123 0.950 . S
C1099 C1098 1.349 . S
C1099 C1115 1.349 . S
C1100 C1098 1.327 . S
C1100 C1119 1.429 . S
C1100 H1124 0.950 . S
C1101 C1118 1.574 . S
C1101 C1120 1.368 . S
C1101 H1125 0.949 . S
H1102 C1106 0.949 . S
C1103 C1104 1.349 . S
C1103 C1105 1.327 . S
C1103 H1126 0.950 . S
C1104 C1103 1.349 . S
C1104 C1116 1.349 . S
C1105 C1103 1.327 . S
C1105 C1121 1.429 . S
C1105 H1127 0.950 . S
C1106 H1102 0.949 . S
C1106 C1114 1.574 . S
C1106 C1122 1.368 . S
H1107 C1115 0.950 1_554 S
H1108 C1113 0.950 . S
H1109 C1114 0.949 . S
H1110 C1116 0.950 . S
H1111 C1117 0.950 . S
H1112 C1118 0.949 . S
C1113 H1108 0.950 . S
C1113 C1115 1.327 . S
C1113 C1119 1.429 . S
C1114 C1106 1.574 . S
C1114 H1109 0.949 . S
C1114 C1120 1.368 . S
C1115 C1099 1.349 . S
C1115 H1107 0.950 1_556 S
C1115 C1113 1.327 . S
C1116 C1104 1.349 . S
C1116 H1110 0.950 . S
C1116 C1117 1.327 . S
C1117 H1111 0.950 . S
C1117 C1116 1.327 . S
C1117 C1121 1.429 . S
C1118 C1101 1.574 . S
C1118 H1112 0.949 . S
C1118 C1122 1.368 . S
C1119 C1100 1.429 . S
C1119 C1113 1.429 . S
C1119 C1120 1.523 . S
C1120 C1101 1.368 . S
C1120 C1114 1.368 . S
C1120 C1119 1.523 . S
C1121 C1105 1.429 . S
C1121 C1117 1.429 . S
C1121 C1122 1.523 . S
C1122 C1106 1.368 . S
C1122 C1118 1.368 . S
C1122 C1121 1.523 . S
H1123 C1098 0.950 . S
H1124 C1100 0.950 . S
H1125 C1101 0.949 . S
H1126 C1103 0.950 . S
H1127 C1105 0.950 . S
C1128 C1129 1.349 . S
C1128 C1130 1.327 . S
C1128 H1153 0.950 . S
C1129 C1128 1.349 . S
C1129 C1145 1.349 . S
C1130 C1128 1.327 . S
C1130 C1149 1.429 . S
C1130 H1154 0.950 . S
C1131 C1148 1.574 . S
C1131 C1150 1.368 . S
C1131 H1155 0.949 . S
H1132 C1136 0.949 . S
C1133 C1134 1.349 . S
C1133 C1135 1.327 . S
C1133 H1156 0.950 . S
C1134 C1133 1.349 . S
C1134 C1146 1.349 . S
C1135 C1133 1.327 . S
C1135 C1151 1.429 . S
C1135 H1157 0.950 . S
C1136 H1132 0.949 . S
C1136 C1144 1.574 . S
C1136 C1152 1.368 . S
H1137 C1145 0.950 . S
H1138 C1143 0.950 . S
H1139 C1144 0.949 . S
H1140 C1146 0.950 . S
H1141 C1147 0.950 . S
H1142 C1148 0.949 . S
C1143 H1138 0.950 . S
C1143 C1145 1.327 . S
C1143 C1149 1.429 . S
C1144 C1136 1.574 . S
C1144 H1139 0.949 . S
C1144 C1150 1.368 . S
C1145 C1129 1.349 . S
C1145 H1137 0.950 . S
C1145 C1143 1.327 . S
C1146 C1134 1.349 . S
C1146 H1140 0.950 . S
C1146 C1147 1.327 . S
C1147 H1141 0.950 . S
C1147 C1146 1.327 . S
C1147 C1151 1.429 . S
C1148 C1131 1.574 . S
C1148 H1142 0.949 . S
C1148 C1152 1.368 . S
C1149 C1130 1.429 . S
C1149 C1143 1.429 . S
C1149 C1150 1.523 . S
C1150 C1131 1.368 . S
C1150 C1144 1.368 . S
C1150 C1149 1.523 . S
C1151 C1135 1.429 . S
C1151 C1147 1.429 . S
C1151 C1152 1.523 . S
C1152 C1136 1.368 . S
C1152 C1148 1.368 . S
C1152 C1151 1.523 . S
H1153 C1128 0.950 . S
H1154 C1130 0.950 . S
H1155 C1131 0.949 . S
H1156 C1133 0.950 . S
H1157 C1135 0.950 . S
C1158 C1159 1.349 . S
C1158 C1160 1.327 . S
C1158 H1183 0.950 1_455 S
C1159 C1158 1.349 . S
C1159 C1175 1.349 . S
C1160 C1158 1.327 . S
C1160 C1179 1.429 . S
C1160 H1184 0.950 . S
C1161 C1178 1.574 . S
C1161 C1180 1.368 . S
C1161 H1185 0.949 . S
H1162 C1166 0.949 . S
C1163 C1164 1.349 . S
C1163 C1165 1.327 . S
C1163 H1186 0.950 . S
C1164 C1163 1.349 . S
C1164 C1176 1.349 . S
C1165 C1163 1.327 . S
C1165 C1181 1.429 . S
C1165 H1187 0.950 . S
C1166 H1162 0.949 . S
C1166 C1174 1.574 . S
C1166 C1182 1.368 . S
H1167 C1175 0.950 . S
H1168 C1173 0.950 . S
H1169 C1174 0.949 . S
H1170 C1176 0.950 . S
H1171 C1177 0.950 . S
H1172 C1178 0.949 . S
C1173 H1168 0.950 . S
C1173 C1175 1.327 . S
C1173 C1179 1.429 . S
C1174 C1166 1.574 . S
C1174 H1169 0.949 . S
C1174 C1180 1.368 . S
C1175 C1159 1.349 . S
C1175 H1167 0.950 . S
C1175 C1173 1.327 . S
C1176 C1164 1.349 . S
C1176 H1170 0.950 . S
C1176 C1177 1.327 . S
C1177 H1171 0.950 . S
C1177 C1176 1.327 . S
C1177 C1181 1.429 . S
C1178 C1161 1.574 . S
C1178 H1172 0.949 . S
C1178 C1182 1.368 . S
C1179 C1160 1.429 . S
C1179 C1173 1.429 . S
C1179 C1180 1.523 . S
C1180 C1161 1.368 . S
C1180 C1174 1.368 . S
C1180 C1179 1.523 . S
C1181 C1165 1.429 . S
C1181 C1177 1.429 . S
C1181 C1182 1.523 . S
C1182 C1166 1.368 . S
C1182 C1178 1.368 . S
C1182 C1181 1.523 . S
H1183 C1158 0.950 1_655 S
H1184 C1160 0.950 . S
H1185 C1161 0.949 . S
H1186 C1163 0.950 . S
H1187 C1165 0.950 . S
C1188 C1189 1.349 . S
C1188 C1190 1.327 . S
C1188 H1213 0.950 . S
C1189 C1188 1.349 . S
C1189 C1205 1.349 . S
C1190 C1188 1.327 . S
C1190 C1209 1.429 . S
C1190 H1214 0.950 . S
C1191 C1208 1.574 . S
C1191 C1210 1.368 . S
C1191 H1215 0.949 . S
H1192 C1196 0.949 . S
C1193 C1194 1.349 . S
C1193 C1195 1.327 . S
C1193 H1216 0.950 . S
C1194 C1193 1.349 . S
C1194 C1206 1.349 . S
C1195 C1193 1.327 . S
C1195 C1211 1.429 . S
C1195 H1217 0.950 . S
C1196 H1192 0.949 . S
C1196 C1204 1.574 . S
C1196 C1212 1.368 . S
H1197 C1205 0.950 . S
H1198 C1203 0.950 . S
H1199 C1204 0.949 . S
H1200 C1206 0.950 . S
H1201 C1207 0.950 . S
H1202 C1208 0.949 . S
C1203 H1198 0.950 . S
C1203 C1205 1.327 . S
C1203 C1209 1.429 . S
C1204 C1196 1.574 . S
C1204 H1199 0.949 . S
C1204 C1210 1.368 . S
C1205 C1189 1.349 . S
C1205 H1197 0.950 . S
C1205 C1203 1.327 . S
C1206 C1194 1.349 . S
C1206 H1200 0.950 . S
C1206 C1207 1.327 . S
C1207 H1201 0.950 . S
C1207 C1206 1.327 . S
C1207 C1211 1.429 . S
C1208 C1191 1.574 . S
C1208 H1202 0.949 . S
C1208 C1212 1.368 . S
C1209 C1190 1.429 . S
C1209 C1203 1.429 . S
C1209 C1210 1.523 . S
C1210 C1191 1.368 . S
C1210 C1204 1.368 . S
C1210 C1209 1.523 . S
C1211 C1195 1.429 . S
C1211 C1207 1.429 . S
C1211 C1212 1.523 . S
C1212 C1196 1.368 . S
C1212 C1208 1.368 . S
C1212 C1211 1.523 . S
H1213 C1188 0.950 . S
H1214 C1190 0.950 . S
H1215 C1191 0.949 . S
H1216 C1193 0.950 . S
H1217 C1195 0.950 . S
C1218 C1219 1.349 . S
C1218 C1220 1.327 . S
C1218 H1243 0.950 . S
C1219 C1218 1.349 . S
C1219 C1235 1.349 . S
C1220 C1218 1.327 . S
C1220 C1239 1.429 . S
C1220 H1244 0.950 . S
C1221 C1238 1.574 . S
C1221 C1240 1.368 . S
C1221 H1245 0.949 . S
H1222 C1226 0.949 . S
C1223 C1224 1.349 . S
C1223 C1225 1.327 . S
C1223 H1246 0.950 . S
C1224 C1223 1.349 . S
C1224 C1236 1.349 . S
C1225 C1223 1.327 . S
C1225 C1241 1.429 . S
C1225 H1247 0.950 . S
C1226 H1222 0.949 . S
C1226 C1234 1.574 . S
C1226 C1242 1.368 . S
H1227 C1235 0.950 . S
H1228 C1233 0.950 . S
H1229 C1234 0.949 . S
H1230 C1236 0.950 . S
H1231 C1237 0.950 . S
H1232 C1238 0.949 . S
C1233 H1228 0.950 . S
C1233 C1235 1.327 . S
C1233 C1239 1.429 . S
C1234 C1226 1.574 . S
C1234 H1229 0.949 . S
C1234 C1240 1.368 . S
C1235 C1219 1.349 . S
C1235 H1227 0.950 . S
C1235 C1233 1.327 . S
C1236 C1224 1.349 . S
C1236 H1230 0.950 . S
C1236 C1237 1.327 . S
C1237 H1231 0.950 . S
C1237 C1236 1.327 . S
C1237 C1241 1.429 . S
C1238 C1221 1.574 . S
C1238 H1232 0.949 . S
C1238 C1242 1.368 . S
C1239 C1220 1.429 . S
C1239 C1233 1.429 . S
C1239 C1240 1.523 . S
C1240 C1221 1.368 . S
C1240 C1234 1.368 . S
C1240 C1239 1.523 . S
C1241 C1225 1.429 . S
C1241 C1237 1.429 . S
C1241 C1242 1.523 . S
C1242 C1226 1.368 . S
C1242 C1238 1.368 . S
C1242 C1241 1.523 . S
H1243 C1218 0.950 . S
H1244 C1220 0.950 . S
H1245 C1221 0.949 . S
H1246 C1223 0.950 . S
H1247 C1225 0.950 . S
C1248 C1249 1.349 . S
C1248 C1250 1.327 . S
C1248 H1273 0.950 . S
C1249 C1248 1.349 . S
C1249 C1265 1.349 . S
C1250 C1248 1.327 . S
C1250 C1269 1.429 . S
C1250 H1274 0.950 . S
C1251 C1268 1.574 . S
C1251 C1270 1.368 . S
C1251 H1275 0.949 . S
H1252 C1256 0.949 . S
C1253 C1254 1.349 . S
C1253 C1255 1.327 . S
C1253 H1276 0.950 . S
C1254 C1253 1.349 . S
C1254 C1266 1.349 . S
C1255 C1253 1.327 . S
C1255 C1271 1.429 . S
C1255 H1277 0.950 . S
C1256 H1252 0.949 . S
C1256 C1264 1.574 . S
C1256 C1272 1.368 . S
H1257 C1265 0.950 . S
H1258 C1263 0.950 . S
H1259 C1264 0.949 . S
H1260 C1266 0.950 . S
H1261 C1267 0.950 . S
H1262 C1268 0.949 . S
C1263 H1258 0.950 . S
C1263 C1265 1.327 . S
C1263 C1269 1.429 . S
C1264 C1256 1.574 . S
C1264 H1259 0.949 . S
C1264 C1270 1.368 . S
C1265 C1249 1.349 . S
C1265 H1257 0.950 . S
C1265 C1263 1.327 . S
C1266 C1254 1.349 . S
C1266 H1260 0.950 . S
C1266 C1267 1.327 . S
C1267 H1261 0.950 . S
C1267 C1266 1.327 . S
C1267 C1271 1.429 . S
C1268 C1251 1.574 . S
C1268 H1262 0.949 . S
C1268 C1272 1.368 . S
C1269 C1250 1.429 . S
C1269 C1263 1.429 . S
C1269 C1270 1.523 . S
C1270 C1251 1.368 . S
C1270 C1264 1.368 . S
C1270 C1269 1.523 . S
C1271 C1255 1.429 . S
C1271 C1267 1.429 . S
C1271 C1272 1.523 . S
C1272 C1256 1.368 . S
C1272 C1268 1.368 . S
C1272 C1271 1.523 . S
H1273 C1248 0.950 . S
H1274 C1250 0.950 . S
H1275 C1251 0.949 . S
H1276 C1253 0.950 . S
H1277 C1255 0.950 . S
C1278 C1279 1.349 . S
C1278 C1280 1.327 . S
C1278 H1303 0.950 . S
C1279 C1278 1.349 . S
C1279 C1295 1.349 . S
C1280 C1278 1.327 . S
C1280 C1299 1.429 . S
C1280 H1304 0.950 . S
C1281 C1298 1.574 . S
C1281 C1300 1.368 . S
C1281 H1305 0.949 . S
H1282 C1286 0.949 . S
C1283 C1284 1.349 . S
C1283 C1285 1.327 . S
C1283 H1306 0.950 . S
C1284 C1283 1.349 . S
C1284 C1296 1.349 . S
C1285 C1283 1.327 . S
C1285 C1301 1.429 . S
C1285 H1307 0.950 . S
C1286 H1282 0.949 . S
C1286 C1294 1.574 . S
C1286 C1302 1.368 . S
H1287 C1295 0.950 . S
H1288 C1293 0.950 . S
H1289 C1294 0.949 . S
H1290 C1296 0.950 . S
H1291 C1297 0.950 . S
H1292 C1298 0.949 . S
C1293 H1288 0.950 . S
C1293 C1295 1.327 . S
C1293 C1299 1.429 . S
C1294 C1286 1.574 . S
C1294 H1289 0.949 . S
C1294 C1300 1.368 . S
C1295 C1279 1.349 . S
C1295 H1287 0.950 . S
C1295 C1293 1.327 . S
C1296 C1284 1.349 . S
C1296 H1290 0.950 . S
C1296 C1297 1.327 . S
C1297 H1291 0.950 . S
C1297 C1296 1.327 . S
C1297 C1301 1.429 . S
C1298 C1281 1.574 . S
C1298 H1292 0.949 . S
C1298 C1302 1.368 . S
C1299 C1280 1.429 . S
C1299 C1293 1.429 . S
C1299 C1300 1.523 . S
C1300 C1281 1.368 . S
C1300 C1294 1.368 . S
C1300 C1299 1.523 . S
C1301 C1285 1.429 . S
C1301 C1297 1.429 . S
C1301 C1302 1.523 . S
C1302 C1286 1.368 . S
C1302 C1298 1.368 . S
C1302 C1301 1.523 . S
H1303 C1278 0.950 . S
H1304 C1280 0.950 . S
H1305 C1281 0.949 . S
H1306 C1283 0.950 . S
H1307 C1285 0.950 . S
C1308 C1309 1.349 . S
C1308 C1310 1.327 . S
C1308 H1333 0.950 . S
C1309 C1308 1.349 . S
C1309 C1325 1.349 . S
C1310 C1308 1.327 . S
C1310 C1329 1.429 . S
C1310 H1334 0.950 . S
C1311 C1328 1.574 . S
C1311 C1330 1.368 . S
C1311 H1335 0.949 . S
H1312 C1316 0.949 . S
C1313 C1314 1.349 . S
C1313 C1315 1.327 . S
C1313 H1336 0.950 . S
C1314 C1313 1.349 . S
C1314 C1326 1.349 . S
C1315 C1313 1.327 . S
C1315 C1331 1.429 . S
C1315 H1337 0.950 . S
C1316 H1312 0.949 . S
C1316 C1324 1.574 . S
C1316 C1332 1.368 . S
H1317 C1325 0.950 . S
H1318 C1323 0.950 . S
H1319 C1324 0.949 . S
H1320 C1326 0.950 . S
H1321 C1327 0.950 . S
H1322 C1328 0.949 . S
C1323 H1318 0.950 . S
C1323 C1325 1.327 . S
C1323 C1329 1.429 . S
C1324 C1316 1.574 . S
C1324 H1319 0.949 . S
C1324 C1330 1.368 . S
C1325 C1309 1.349 . S
C1325 H1317 0.950 . S
C1325 C1323 1.327 . S
C1326 C1314 1.349 . S
C1326 H1320 0.950 . S
C1326 C1327 1.327 . S
C1327 H1321 0.950 . S
C1327 C1326 1.327 . S
C1327 C1331 1.429 . S
C1328 C1311 1.574 . S
C1328 H1322 0.949 . S
C1328 C1332 1.368 . S
C1329 C1310 1.429 . S
C1329 C1323 1.429 . S
C1329 C1330 1.523 . S
C1330 C1311 1.368 . S
C1330 C1324 1.368 . S
C1330 C1329 1.523 . S
C1331 C1315 1.429 . S
C1331 C1327 1.429 . S
C1331 C1332 1.523 . S
C1332 C1316 1.368 . S
C1332 C1328 1.368 . S
C1332 C1331 1.523 . S
H1333 C1308 0.950 . S
H1334 C1310 0.950 . S
H1335 C1311 0.949 . S
H1336 C1313 0.950 . S
H1337 C1315 0.950 . S
C1338 C1339 1.349 . S
C1338 C1340 1.327 . S
C1338 H1363 0.950 . S
C1339 C1338 1.349 . S
C1339 C1355 1.349 . S
C1340 C1338 1.327 . S
C1340 C1359 1.429 . S
C1340 H1364 0.950 . S
C1341 C1358 1.574 . S
C1341 C1360 1.368 . S
C1341 H1365 0.949 . S
H1342 C1346 0.949 . S
C1343 C1344 1.349 . S
C1343 C1345 1.327 . S
C1343 H1366 0.950 . S
C1344 C1343 1.349 . S
C1344 C1356 1.349 . S
C1345 C1343 1.327 . S
C1345 C1361 1.429 . S
C1345 H1367 0.950 . S
C1346 H1342 0.949 . S
C1346 C1354 1.574 . S
C1346 C1362 1.368 . S
H1347 C1355 0.950 . S
H1348 C1353 0.950 . S
H1349 C1354 0.949 . S
H1350 C1356 0.950 . S
H1351 C1357 0.950 . S
H1352 C1358 0.949 . S
C1353 H1348 0.950 . S
C1353 C1355 1.327 . S
C1353 C1359 1.429 . S
C1354 C1346 1.574 . S
C1354 H1349 0.949 . S
C1354 C1360 1.368 . S
C1355 C1339 1.349 . S
C1355 H1347 0.950 . S
C1355 C1353 1.327 . S
C1356 C1344 1.349 . S
C1356 H1350 0.950 . S
C1356 C1357 1.327 . S
C1357 H1351 0.950 . S
C1357 C1356 1.327 . S
C1357 C1361 1.429 . S
C1358 C1341 1.574 . S
C1358 H1352 0.949 . S
C1358 C1362 1.368 . S
C1359 C1340 1.429 . S
C1359 C1353 1.429 . S
C1359 C1360 1.523 . S
C1360 C1341 1.368 . S
C1360 C1354 1.368 . S
C1360 C1359 1.523 . S
C1361 C1345 1.429 . S
C1361 C1357 1.429 . S
C1361 C1362 1.523 . S
C1362 C1346 1.368 . S
C1362 C1358 1.368 . S
C1362 C1361 1.523 . S
H1363 C1338 0.950 . S
H1364 C1340 0.950 . S
H1365 C1341 0.949 . S
H1366 C1343 0.950 . S
H1367 C1345 0.950 . S
C1368 C1369 1.349 . S
C1368 C1370 1.327 . S
C1368 H1393 0.950 . S
C1369 C1368 1.349 . S
C1369 C1385 1.349 . S
C1370 C1368 1.327 . S
C1370 C1389 1.429 . S
C1370 H1394 0.950 . S
C1371 C1388 1.574 . S
C1371 C1390 1.368 . S
C1371 H1395 0.949 . S
H1372 C1376 0.949 . S
C1373 C1374 1.349 . S
C1373 C1375 1.327 . S
C1373 H1396 0.950 . S
C1374 C1373 1.349 . S
C1374 C1386 1.349 . S
C1375 C1373 1.327 . S
C1375 C1391 1.429 . S
C1375 H1397 0.950 . S
C1376 H1372 0.949 . S
C1376 C1384 1.574 . S
C1376 C1392 1.368 . S
H1377 C1385 0.950 . S
H1378 C1383 0.950 . S
H1379 C1384 0.949 . S
H1380 C1386 0.950 . S
H1381 C1387 0.950 . S
H1382 C1388 0.949 . S
C1383 H1378 0.950 . S
C1383 C1385 1.327 . S
C1383 C1389 1.429 . S
C1384 C1376 1.574 . S
C1384 H1379 0.949 . S
C1384 C1390 1.368 . S
C1385 C1369 1.349 . S
C1385 H1377 0.950 . S
C1385 C1383 1.327 . S
C1386 C1374 1.349 . S
C1386 H1380 0.950 . S
C1386 C1387 1.327 . S
C1387 H1381 0.950 . S
C1387 C1386 1.327 . S
C1387 C1391 1.429 . S
C1388 C1371 1.574 . S
C1388 H1382 0.949 . S
C1388 C1392 1.368 . S
C1389 C1370 1.429 . S
C1389 C1383 1.429 . S
C1389 C1390 1.523 . S
C1390 C1371 1.368 . S
C1390 C1384 1.368 . S
C1390 C1389 1.523 . S
C1391 C1375 1.429 . S
C1391 C1387 1.429 . S
C1391 C1392 1.523 . S
C1392 C1376 1.368 . S
C1392 C1388 1.368 . S
C1392 C1391 1.523 . S
H1393 C1368 0.950 . S
H1394 C1370 0.950 . S
H1395 C1371 0.949 . S
H1396 C1373 0.950 . S
H1397 C1375 0.950 . S
C1398 C1399 1.349 . S
C1398 C1400 1.327 . S
C1398 H1423 0.950 . S
C1399 C1398 1.349 . S
C1399 C1415 1.349 . S
C1400 C1398 1.327 . S
C1400 C1419 1.429 . S
C1400 H1424 0.950 . S
C1401 C1418 1.574 . S
C1401 C1420 1.368 . S
C1401 H1425 0.949 . S
H1402 C1406 0.949 . S
C1403 C1404 1.349 . S
C1403 C1405 1.327 . S
C1403 H1426 0.950 . S
C1404 C1403 1.349 . S
C1404 C1416 1.349 . S
C1405 C1403 1.327 . S
C1405 C1421 1.429 . S
C1405 H1427 0.950 . S
C1406 H1402 0.949 . S
C1406 C1414 1.574 . S
C1406 C1422 1.368 . S
H1407 C1415 0.950 . S
H1408 C1413 0.950 . S
H1409 C1414 0.949 . S
H1410 C1416 0.950 . S
H1411 C1417 0.950 . S
H1412 C1418 0.949 . S
C1413 H1408 0.950 . S
C1413 C1415 1.327 . S
C1413 C1419 1.429 . S
C1414 C1406 1.574 . S
C1414 H1409 0.949 . S
C1414 C1420 1.368 . S
C1415 C1399 1.349 . S
C1415 H1407 0.950 . S
C1415 C1413 1.327 . S
C1416 C1404 1.349 . S
C1416 H1410 0.950 . S
C1416 C1417 1.327 . S
C1417 H1411 0.950 . S
C1417 C1416 1.327 . S
C1417 C1421 1.429 . S
C1418 C1401 1.574 . S
C1418 H1412 0.949 . S
C1418 C1422 1.368 . S
C1419 C1400 1.429 . S
C1419 C1413 1.429 . S
C1419 C1420 1.523 . S
C1420 C1401 1.368 . S
C1420 C1414 1.368 . S
C1420 C1419 1.523 . S
C1421 C1405 1.429 . S
C1421 C1417 1.429 . S
C1421 C1422 1.523 . S
C1422 C1406 1.368 . S
C1422 C1418 1.368 . S
C1422 C1421 1.523 . S
H1423 C1398 0.950 . S
H1424 C1400 0.950 . S
H1425 C1401 0.949 . S
H1426 C1403 0.950 . S
H1427 C1405 0.950 . S
C1428 C1429 1.349 . S
C1428 C1430 1.327 . S
C1428 H1453 0.950 . S
C1429 C1428 1.349 . S
C1429 C1445 1.349 . S
C1430 C1428 1.327 . S
C1430 C1449 1.429 . S
C1430 H1454 0.950 . S
C1431 C1448 1.574 . S
C1431 C1450 1.368 . S
C1431 H1455 0.949 . S
H1432 C1436 0.949 . S
C1433 C1434 1.349 . S
C1433 C1435 1.327 . S
C1433 H1456 0.950 . S
C1434 C1433 1.349 . S
C1434 C1446 1.349 . S
C1435 C1433 1.327 . S
C1435 C1451 1.429 . S
C1435 H1457 0.950 . S
C1436 H1432 0.949 . S
C1436 C1444 1.574 . S
C1436 C1452 1.368 . S
H1437 C1445 0.950 . S
H1438 C1443 0.950 . S
H1439 C1444 0.949 . S
H1440 C1446 0.950 . S
H1441 C1447 0.950 . S
H1442 C1448 0.949 . S
C1443 H1438 0.950 . S
C1443 C1445 1.327 . S
C1443 C1449 1.429 . S
C1444 C1436 1.574 . S
C1444 H1439 0.949 . S
C1444 C1450 1.368 . S
C1445 C1429 1.349 . S
C1445 H1437 0.950 . S
C1445 C1443 1.327 . S
C1446 C1434 1.349 . S
C1446 H1440 0.950 . S
C1446 C1447 1.327 . S
C1447 H1441 0.950 . S
C1447 C1446 1.327 . S
C1447 C1451 1.429 . S
C1448 C1431 1.574 . S
C1448 H1442 0.949 . S
C1448 C1452 1.368 . S
C1449 C1430 1.429 . S
C1449 C1443 1.429 . S
C1449 C1450 1.523 . S
C1450 C1431 1.368 . S
C1450 C1444 1.368 . S
C1450 C1449 1.523 . S
C1451 C1435 1.429 . S
C1451 C1447 1.429 . S
C1451 C1452 1.523 . S
C1452 C1436 1.368 . S
C1452 C1448 1.368 . S
C1452 C1451 1.523 . S
H1453 C1428 0.950 . S
H1454 C1430 0.950 . S
H1455 C1431 0.949 . S
H1456 C1433 0.950 . S
H1457 C1435 0.950 . S
C1458 C1459 1.349 . S
C1458 C1460 1.327 . S
C1458 H1483 0.950 . S
C1459 C1458 1.349 . S
C1459 C1475 1.349 . S
C1460 C1458 1.327 . S
C1460 C1479 1.429 . S
C1460 H1484 0.950 . S
C1461 C1478 1.574 . S
C1461 C1480 1.368 . S
C1461 H1485 0.949 . S
H1462 C1466 0.949 . S
C1463 C1464 1.349 . S
C1463 C1465 1.327 . S
C1463 H1486 0.950 . S
C1464 C1463 1.349 . S
C1464 C1476 1.349 . S
C1465 C1463 1.327 . S
C1465 C1481 1.429 . S
C1465 H1487 0.950 . S
C1466 H1462 0.949 . S
C1466 C1474 1.574 . S
C1466 C1482 1.368 . S
H1467 C1475 0.950 . S
H1468 C1473 0.950 . S
H1469 C1474 0.949 . S
H1470 C1476 0.950 . S
H1471 C1477 0.950 . S
H1472 C1478 0.949 . S
C1473 H1468 0.950 . S
C1473 C1475 1.327 . S
C1473 C1479 1.429 . S
C1474 C1466 1.574 . S
C1474 H1469 0.949 . S
C1474 C1480 1.368 . S
C1475 C1459 1.349 . S
C1475 H1467 0.950 . S
C1475 C1473 1.327 . S
C1476 C1464 1.349 . S
C1476 H1470 0.950 . S
C1476 C1477 1.327 . S
C1477 H1471 0.950 . S
C1477 C1476 1.327 . S
C1477 C1481 1.429 . S
C1478 C1461 1.574 . S
C1478 H1472 0.949 . S
C1478 C1482 1.368 . S
C1479 C1460 1.429 . S
C1479 C1473 1.429 . S
C1479 C1480 1.523 . S
C1480 C1461 1.368 . S
C1480 C1474 1.368 . S
C1480 C1479 1.523 . S
C1481 C1465 1.429 . S
C1481 C1477 1.429 . S
C1481 C1482 1.523 . S
C1482 C1466 1.368 . S
C1482 C1478 1.368 . S
C1482 C1481 1.523 . S
H1483 C1458 0.950 . S
H1484 C1460 0.950 . S
H1485 C1461 0.949 . S
H1486 C1463 0.950 . S
H1487 C1465 0.950 . S
C1488 C1489 1.349 . S
C1488 C1490 1.327 . S
C1488 H1513 0.950 . S
C1489 C1488 1.349 . S
C1489 C1505 1.349 . S
C1490 C1488 1.327 . S
C1490 C1509 1.429 . S
C1490 H1514 0.950 . S
C1491 C1508 1.574 . S
C1491 C1510 1.368 . S
C1491 H1515 0.949 . S
H1492 C1496 0.949 . S
C1493 C1494 1.349 . S
C1493 C1495 1.327 . S
C1493 H1516 0.950 . S
C1494 C1493 1.349 . S
C1494 C1506 1.349 . S
C1495 C1493 1.327 . S
C1495 C1511 1.429 . S
C1495 H1517 0.950 . S
C1496 H1492 0.949 . S
C1496 C1504 1.574 . S
C1496 C1512 1.368 . S
H1497 C1505 0.950 . S
H1498 C1503 0.950 . S
H1499 C1504 0.949 . S
H1500 C1506 0.950 . S
H1501 C1507 0.950 . S
H1502 C1508 0.949 . S
C1503 H1498 0.950 . S
C1503 C1505 1.327 . S
C1503 C1509 1.429 . S
C1504 C1496 1.574 . S
C1504 H1499 0.949 . S
C1504 C1510 1.368 . S
C1505 C1489 1.349 . S
C1505 H1497 0.950 . S
C1505 C1503 1.327 . S
C1506 C1494 1.349 . S
C1506 H1500 0.950 . S
C1506 C1507 1.327 . S
C1507 H1501 0.950 . S
C1507 C1506 1.327 . S
C1507 C1511 1.429 . S
C1508 C1491 1.574 . S
C1508 H1502 0.949 . S
C1508 C1512 1.368 . S
C1509 C1490 1.429 . S
C1509 C1503 1.429 . S
C1509 C1510 1.523 . S
C1510 C1491 1.368 . S
C1510 C1504 1.368 . S
C1510 C1509 1.523 . S
C1511 C1495 1.429 . S
C1511 C1507 1.429 . S
C1511 C1512 1.523 . S
C1512 C1496 1.368 . S
C1512 C1508 1.368 . S
C1512 C1511 1.523 . S
H1513 C1488 0.950 . S
H1514 C1490 0.950 . S
H1515 C1491 0.949 . S
H1516 C1493 0.950 . S
H1517 C1495 0.950 . S
C1518 C1519 1.349 . S
C1518 C1520 1.327 . S
C1518 H1543 0.950 . S
C1519 C1518 1.349 . S
C1519 C1535 1.349 . S
C1520 C1518 1.327 . S
C1520 C1539 1.429 . S
C1520 H1544 0.950 . S
C1521 C1538 1.574 . S
C1521 C1540 1.368 . S
C1521 H1545 0.949 . S
H1522 C1526 0.949 . S
C1523 C1524 1.349 . S
C1523 C1525 1.327 . S
C1523 H1546 0.950 . S
C1524 C1523 1.349 . S
C1524 C1536 1.349 . S
C1525 C1523 1.327 . S
C1525 C1541 1.429 . S
C1525 H1547 0.950 . S
C1526 H1522 0.949 . S
C1526 C1534 1.574 . S
C1526 C1542 1.368 . S
H1527 C1535 0.950 . S
H1528 C1533 0.950 . S
H1529 C1534 0.949 . S
H1530 C1536 0.950 . S
H1531 C1537 0.950 . S
H1532 C1538 0.949 . S
C1533 H1528 0.950 . S
C1533 C1535 1.327 . S
C1533 C1539 1.429 . S
C1534 C1526 1.574 . S
C1534 H1529 0.949 . S
C1534 C1540 1.368 . S
C1535 C1519 1.349 . S
C1535 H1527 0.950 . S
C1535 C1533 1.327 . S
C1536 C1524 1.349 . S
C1536 H1530 0.950 . S
C1536 C1537 1.327 . S
C1537 H1531 0.950 . S
C1537 C1536 1.327 . S
C1537 C1541 1.429 . S
C1538 C1521 1.574 . S
C1538 H1532 0.949 . S
C1538 C1542 1.368 . S
C1539 C1520 1.429 . S
C1539 C1533 1.429 . S
C1539 C1540 1.523 . S
C1540 C1521 1.368 . S
C1540 C1534 1.368 . S
C1540 C1539 1.523 . S
C1541 C1525 1.429 . S
C1541 C1537 1.429 . S
C1541 C1542 1.523 . S
C1542 C1526 1.368 . S
C1542 C1538 1.368 . S
C1542 C1541 1.523 . S
H1543 C1518 0.950 . S
H1544 C1520 0.950 . S
H1545 C1521 0.949 . S
H1546 C1523 0.950 . S
H1547 C1525 0.950 . S
C1548 C1549 1.349 . S
C1548 C1550 1.327 . S
C1548 H1573 0.950 . S
C1549 C1548 1.349 . S
C1549 C1565 1.349 . S
C1550 C1548 1.327 . S
C1550 C1569 1.429 . S
C1550 H1574 0.950 . S
C1551 C1568 1.574 . S
C1551 C1570 1.368 . S
C1551 H1575 0.949 . S
H1552 C1556 0.949 . S
C1553 C1554 1.349 . S
C1553 C1555 1.327 . S
C1553 H1576 0.950 . S
C1554 C1553 1.349 . S
C1554 C1566 1.349 . S
C1555 C1553 1.327 . S
C1555 C1571 1.429 . S
C1555 H1577 0.950 . S
C1556 H1552 0.949 . S
C1556 C1564 1.574 . S
C1556 C1572 1.368 . S
H1557 C1565 0.950 . S
H1558 C1563 0.950 . S
H1559 C1564 0.949 . S
H1560 C1566 0.950 . S
H1561 C1567 0.950 . S
H1562 C1568 0.949 . S
C1563 H1558 0.950 . S
C1563 C1565 1.327 . S
C1563 C1569 1.429 . S
C1564 C1556 1.574 . S
C1564 H1559 0.949 . S
C1564 C1570 1.368 . S
C1565 C1549 1.349 . S
C1565 H1557 0.950 . S
C1565 C1563 1.327 . S
C1566 C1554 1.349 . S
C1566 H1560 0.950 . S
C1566 C1567 1.327 . S
C1567 H1561 0.950 . S
C1567 C1566 1.327 . S
C1567 C1571 1.429 . S
C1568 C1551 1.574 . S
C1568 H1562 0.949 . S
C1568 C1572 1.368 . S
C1569 C1550 1.429 . S
C1569 C1563 1.429 . S
C1569 C1570 1.523 . S
C1570 C1551 1.368 . S
C1570 C1564 1.368 . S
C1570 C1569 1.523 . S
C1571 C1555 1.429 . S
C1571 C1567 1.429 . S
C1571 C1572 1.523 . S
C1572 C1556 1.368 . S
C1572 C1568 1.368 . S
C1572 C1571 1.523 . S
H1573 C1548 0.950 . S
H1574 C1550 0.950 . S
H1575 C1551 0.949 . S
H1576 C1553 0.950 . S
H1577 C1555 0.950 . S
C1578 C1579 1.349 . S
C1578 C1580 1.327 . S
C1578 H1603 0.950 . S
C1579 C1578 1.349 . S
C1579 C1595 1.349 . S
C1580 C1578 1.327 . S
C1580 C1599 1.429 . S
C1580 H1604 0.950 . S
C1581 C1598 1.574 . S
C1581 C1600 1.368 . S
C1581 H1605 0.949 . S
H1582 C1586 0.949 . S
C1583 C1584 1.349 . S
C1583 C1585 1.327 . S
C1583 H1606 0.950 . S
C1584 C1583 1.349 . S
C1584 C1596 1.349 . S
C1585 C1583 1.327 . S
C1585 C1601 1.429 . S
C1585 H1607 0.950 . S
C1586 H1582 0.949 . S
C1586 C1594 1.574 . S
C1586 C1602 1.368 . S
H1587 C1595 0.950 . S
H1588 C1593 0.950 . S
H1589 C1594 0.949 . S
H1590 C1596 0.950 . S
H1591 C1597 0.950 . S
H1592 C1598 0.949 . S
C1593 H1588 0.950 . S
C1593 C1595 1.327 . S
C1593 C1599 1.429 . S
C1594 C1586 1.574 . S
C1594 H1589 0.949 . S
C1594 C1600 1.368 . S
C1595 C1579 1.349 . S
C1595 H1587 0.950 . S
C1595 C1593 1.327 . S
C1596 C1584 1.349 . S
C1596 H1590 0.950 . S
C1596 C1597 1.327 . S
C1597 H1591 0.950 . S
C1597 C1596 1.327 . S
C1597 C1601 1.429 . S
C1598 C1581 1.574 . S
C1598 H1592 0.949 . S
C1598 C1602 1.368 . S
C1599 C1580 1.429 . S
C1599 C1593 1.429 . S
C1599 C1600 1.523 . S
C1600 C1581 1.368 . S
C1600 C1594 1.368 . S
C1600 C1599 1.523 . S
C1601 C1585 1.429 . S
C1601 C1597 1.429 . S
C1601 C1602 1.523 . S
C1602 C1586 1.368 . S
C1602 C1598 1.368 . S
C1602 C1601 1.523 . S
H1603 C1578 0.950 . S
H1604 C1580 0.950 . S
H1605 C1581 0.949 . S
H1606 C1583 0.950 . S
H1607 C1585 0.950 . S
C1608 C1609 1.349 . S
C1608 C1610 1.327 . S
C1608 H1633 0.950 . S
C1609 C1608 1.349 . S
C1609 C1625 1.349 . S
C1610 C1608 1.327 . S
C1610 C1629 1.429 . S
C1610 H1634 0.950 . S
C1611 C1628 1.574 . S
C1611 C1630 1.368 . S
C1611 H1635 0.949 . S
H1612 C1616 0.949 . S
C1613 C1614 1.349 . S
C1613 C1615 1.327 . S
C1613 H1636 0.950 . S
C1614 C1613 1.349 . S
C1614 C1626 1.349 . S
C1615 C1613 1.327 . S
C1615 C1631 1.429 . S
C1615 H1637 0.950 . S
C1616 H1612 0.949 . S
C1616 C1624 1.574 . S
C1616 C1632 1.368 . S
H1617 C1625 0.950 . S
H1618 C1623 0.950 . S
H1619 C1624 0.949 . S
H1620 C1626 0.950 . S
H1621 C1627 0.950 . S
H1622 C1628 0.949 . S
C1623 H1618 0.950 . S
C1623 C1625 1.327 . S
C1623 C1629 1.429 . S
C1624 C1616 1.574 . S
C1624 H1619 0.949 . S
C1624 C1630 1.368 . S
C1625 C1609 1.349 . S
C1625 H1617 0.950 . S
C1625 C1623 1.327 . S
C1626 C1614 1.349 . S
C1626 H1620 0.950 . S
C1626 C1627 1.327 . S
C1627 H1621 0.950 . S
C1627 C1626 1.327 . S
C1627 C1631 1.429 . S
C1628 C1611 1.574 . S
C1628 H1622 0.949 . S
C1628 C1632 1.368 . S
C1629 C1610 1.429 . S
C1629 C1623 1.429 . S
C1629 C1630 1.523 . S
C1630 C1611 1.368 . S
C1630 C1624 1.368 . S
C1630 C1629 1.523 . S
C1631 C1615 1.429 . S
C1631 C1627 1.429 . S
C1631 C1632 1.523 . S
C1632 C1616 1.368 . S
C1632 C1628 1.368 . S
C1632 C1631 1.523 . S
H1633 C1608 0.950 . S
H1634 C1610 0.950 . S
H1635 C1611 0.949 . S
H1636 C1613 0.950 . S
H1637 C1615 0.950 . S
C1638 C1639 1.349 . S
C1638 C1640 1.327 . S
C1638 H1663 0.950 . S
C1639 C1638 1.349 . S
C1639 C1655 1.349 . S
C1640 C1638 1.327 . S
C1640 C1659 1.429 . S
C1640 H1664 0.950 . S
C1641 C1658 1.574 . S
C1641 C1660 1.368 . S
C1641 H1665 0.949 . S
H1642 C1646 0.949 . S
C1643 C1644 1.349 . S
C1643 C1645 1.327 . S
C1643 H1666 0.950 . S
C1644 C1643 1.349 . S
C1644 C1656 1.349 . S
C1645 C1643 1.327 . S
C1645 C1661 1.429 . S
C1645 H1667 0.950 . S
C1646 H1642 0.949 . S
C1646 C1654 1.574 . S
C1646 C1662 1.368 . S
H1647 C1655 0.950 . S
H1648 C1653 0.950 . S
H1649 C1654 0.949 . S
H1650 C1656 0.950 . S
H1651 C1657 0.950 . S
H1652 C1658 0.949 . S
C1653 H1648 0.950 . S
C1653 C1655 1.327 . S
C1653 C1659 1.429 . S
C1654 C1646 1.574 . S
C1654 H1649 0.949 . S
C1654 C1660 1.368 . S
C1655 C1639 1.349 . S
C1655 H1647 0.950 . S
C1655 C1653 1.327 . S
C1656 C1644 1.349 . S
C1656 H1650 0.950 . S
C1656 C1657 1.327 . S
C1657 H1651 0.950 . S
C1657 C1656 1.327 . S
C1657 C1661 1.429 . S
C1658 C1641 1.574 . S
C1658 H1652 0.949 . S
C1658 C1662 1.368 . S
C1659 C1640 1.429 . S
C1659 C1653 1.429 . S
C1659 C1660 1.523 . S
C1660 C1641 1.368 . S
C1660 C1654 1.368 . S
C1660 C1659 1.523 . S
C1661 C1645 1.429 . S
C1661 C1657 1.429 . S
C1661 C1662 1.523 . S
C1662 C1646 1.368 . S
C1662 C1658 1.368 . S
C1662 C1661 1.523 . S
H1663 C1638 0.950 . S
H1664 C1640 0.950 . S
H1665 C1641 0.949 . S
H1666 C1643 0.950 . S
H1667 C1645 0.950 . S
C1668 C1669 1.349 . S
C1668 C1670 1.327 . S
C1668 H1693 0.950 . S
C1669 C1668 1.349 . S
C1669 C1685 1.349 . S
C1670 C1668 1.327 . S
C1670 C1689 1.429 . S
C1670 H1694 0.950 . S
C1671 C1688 1.574 . S
C1671 C1690 1.368 . S
C1671 H1695 0.949 . S
H1672 C1676 0.949 . S
C1673 C1674 1.349 . S
C1673 C1675 1.327 . S
C1673 H1696 0.950 . S
C1674 C1673 1.349 . S
C1674 C1686 1.349 . S
C1675 C1673 1.327 . S
C1675 C1691 1.429 . S
C1675 H1697 0.950 . S
C1676 H1672 0.949 . S
C1676 C1684 1.574 . S
C1676 C1692 1.368 . S
H1677 C1685 0.950 . S
H1678 C1683 0.950 . S
H1679 C1684 0.949 . S
H1680 C1686 0.950 . S
H1681 C1687 0.950 . S
H1682 C1688 0.949 . S
C1683 H1678 0.950 . S
C1683 C1685 1.327 . S
C1683 C1689 1.429 . S
C1684 C1676 1.574 . S
C1684 H1679 0.949 . S
C1684 C1690 1.368 . S
C1685 C1669 1.349 . S
C1685 H1677 0.950 . S
C1685 C1683 1.327 . S
C1686 C1674 1.349 . S
C1686 H1680 0.950 . S
C1686 C1687 1.327 . S
C1687 H1681 0.950 . S
C1687 C1686 1.327 . S
C1687 C1691 1.429 . S
C1688 C1671 1.574 . S
C1688 H1682 0.949 . S
C1688 C1692 1.368 . S
C1689 C1670 1.429 . S
C1689 C1683 1.429 . S
C1689 C1690 1.523 . S
C1690 C1671 1.368 . S
C1690 C1684 1.368 . S
C1690 C1689 1.523 . S
C1691 C1675 1.429 . S
C1691 C1687 1.429 . S
C1691 C1692 1.523 . S
C1692 C1676 1.368 . S
C1692 C1688 1.368 . S
C1692 C1691 1.523 . S
H1693 C1668 0.950 . S
H1694 C1670 0.950 . S
H1695 C1671 0.949 . S
H1696 C1673 0.950 . S
H1697 C1675 0.950 . S
C1698 C1699 1.349 . S
C1698 C1700 1.327 . S
C1698 H1723 0.950 . S
C1699 C1698 1.349 . S
C1699 C1715 1.349 . S
C1700 C1698 1.327 . S
C1700 C1719 1.429 . S
C1700 H1724 0.950 . S
C1701 C1718 1.574 . S
C1701 C1720 1.368 . S
C1701 H1725 0.949 . S
H1702 C1706 0.949 . S
C1703 C1704 1.349 . S
C1703 C1705 1.327 . S
C1703 H1726 0.950 . S
C1704 C1703 1.349 . S
C1704 C1716 1.349 . S
C1705 C1703 1.327 . S
C1705 C1721 1.429 . S
C1705 H1727 0.950 . S
C1706 H1702 0.949 . S
C1706 C1714 1.574 . S
C1706 C1722 1.368 . S
H1707 C1715 0.950 . S
H1708 C1713 0.950 . S
H1709 C1714 0.949 . S
H1710 C1716 0.950 . S
H1711 C1717 0.950 . S
H1712 C1718 0.949 . S
C1713 H1708 0.950 . S
C1713 C1715 1.327 . S
C1713 C1719 1.429 . S
C1714 C1706 1.574 . S
C1714 H1709 0.949 . S
C1714 C1720 1.368 . S
C1715 C1699 1.349 . S
C1715 H1707 0.950 . S
C1715 C1713 1.327 . S
C1716 C1704 1.349 . S
C1716 H1710 0.950 . S
C1716 C1717 1.327 . S
C1717 H1711 0.950 . S
C1717 C1716 1.327 . S
C1717 C1721 1.429 . S
C1718 C1701 1.574 . S
C1718 H1712 0.949 . S
C1718 C1722 1.368 . S
C1719 C1700 1.429 . S
C1719 C1713 1.429 . S
C1719 C1720 1.523 . S
C1720 C1701 1.368 . S
C1720 C1714 1.368 . S
C1720 C1719 1.523 . S
C1721 C1705 1.429 . S
C1721 C1717 1.429 . S
C1721 C1722 1.523 . S
C1722 C1706 1.368 . S
C1722 C1718 1.368 . S
C1722 C1721 1.523 . S
H1723 C1698 0.950 . S
H1724 C1700 0.950 . S
H1725 C1701 0.949 . S
H1726 C1703 0.950 . S
H1727 C1705 0.950 . S
C1728 C1729 1.349 . S
C1728 C1730 1.327 . S
C1728 H1753 0.950 . S
C1729 C1728 1.349 . S
C1729 C1745 1.349 . S
C1730 C1728 1.327 . S
C1730 C1749 1.429 . S
C1730 H1754 0.950 . S
C1731 C1748 1.574 . S
C1731 C1750 1.368 . S
C1731 H1755 0.949 . S
H1732 C1736 0.949 . S
C1733 C1734 1.349 . S
C1733 C1735 1.327 . S
C1733 H1756 0.950 . S
C1734 C1733 1.349 . S
C1734 C1746 1.349 . S
C1735 C1733 1.327 . S
C1735 C1751 1.429 . S
C1735 H1757 0.950 . S
C1736 H1732 0.949 . S
C1736 C1744 1.574 . S
C1736 C1752 1.368 . S
H1737 C1745 0.950 . S
H1738 C1743 0.950 . S
H1739 C1744 0.949 . S
H1740 C1746 0.950 . S
H1741 C1747 0.950 . S
H1742 C1748 0.949 . S
C1743 H1738 0.950 . S
C1743 C1745 1.327 . S
C1743 C1749 1.429 . S
C1744 C1736 1.574 . S
C1744 H1739 0.949 . S
C1744 C1750 1.368 . S
C1745 C1729 1.349 . S
C1745 H1737 0.950 . S
C1745 C1743 1.327 . S
C1746 C1734 1.349 . S
C1746 H1740 0.950 . S
C1746 C1747 1.327 . S
C1747 H1741 0.950 . S
C1747 C1746 1.327 . S
C1747 C1751 1.429 . S
C1748 C1731 1.574 . S
C1748 H1742 0.949 . S
C1748 C1752 1.368 . S
C1749 C1730 1.429 . S
C1749 C1743 1.429 . S
C1749 C1750 1.523 . S
C1750 C1731 1.368 . S
C1750 C1744 1.368 . S
C1750 C1749 1.523 . S
C1751 C1735 1.429 . S
C1751 C1747 1.429 . S
C1751 C1752 1.523 . S
C1752 C1736 1.368 . S
C1752 C1748 1.368 . S
C1752 C1751 1.523 . S
H1753 C1728 0.950 . S
H1754 C1730 0.950 . S
H1755 C1731 0.949 . S
H1756 C1733 0.950 . S
H1757 C1735 0.950 . S
C1758 C1759 1.349 . S
C1758 C1760 1.327 . S
C1758 H1783 0.950 . S
C1759 C1758 1.349 . S
C1759 C1775 1.349 . S
C1760 C1758 1.327 . S
C1760 C1779 1.429 . S
C1760 H1784 0.950 . S
C1761 C1778 1.574 . S
C1761 C1780 1.368 . S
C1761 H1785 0.949 . S
H1762 C1766 0.949 . S
C1763 C1764 1.349 . S
C1763 C1765 1.327 . S
C1763 H1786 0.950 . S
C1764 C1763 1.349 . S
C1764 C1776 1.349 . S
C1765 C1763 1.327 . S
C1765 C1781 1.429 . S
C1765 H1787 0.950 . S
C1766 H1762 0.949 . S
C1766 C1774 1.574 . S
C1766 C1782 1.368 . S
H1767 C1775 0.950 . S
H1768 C1773 0.950 . S
H1769 C1774 0.949 . S
H1770 C1776 0.950 . S
H1771 C1777 0.950 . S
H1772 C1778 0.949 . S
C1773 H1768 0.950 . S
C1773 C1775 1.327 . S
C1773 C1779 1.429 . S
C1774 C1766 1.574 . S
C1774 H1769 0.949 . S
C1774 C1780 1.368 . S
C1775 C1759 1.349 . S
C1775 H1767 0.950 . S
C1775 C1773 1.327 . S
C1776 C1764 1.349 . S
C1776 H1770 0.950 . S
C1776 C1777 1.327 . S
C1777 H1771 0.950 . S
C1777 C1776 1.327 . S
C1777 C1781 1.429 . S
C1778 C1761 1.574 . S
C1778 H1772 0.949 . S
C1778 C1782 1.368 . S
C1779 C1760 1.429 . S
C1779 C1773 1.429 . S
C1779 C1780 1.523 . S
C1780 C1761 1.368 . S
C1780 C1774 1.368 . S
C1780 C1779 1.523 . S
C1781 C1765 1.429 . S
C1781 C1777 1.429 . S
C1781 C1782 1.523 . S
C1782 C1766 1.368 . S
C1782 C1778 1.368 . S
C1782 C1781 1.523 . S
H1783 C1758 0.950 . S
H1784 C1760 0.950 . S
H1785 C1761 0.949 . S
H1786 C1763 0.950 . S
H1787 C1765 0.950 . S
C1788 C1789 1.349 . S
C1788 C1790 1.327 . S
C1788 H1813 0.950 . S
C1789 C1788 1.349 . S
C1789 C1805 1.349 . S
C1790 C1788 1.327 . S
C1790 C1809 1.429 . S
C1790 H1814 0.950 . S
C1791 C1808 1.574 . S
C1791 C1810 1.368 . S
C1791 H1815 0.949 . S
H1792 C1796 0.949 . S
C1793 C1794 1.349 . S
C1793 C1795 1.327 . S
C1793 H1816 0.950 . S
C1794 C1793 1.349 . S
C1794 C1806 1.349 . S
C1795 C1793 1.327 . S
C1795 C1811 1.429 . S
C1795 H1817 0.950 . S
C1796 H1792 0.949 . S
C1796 C1804 1.574 . S
C1796 C1812 1.368 . S
H1797 C1805 0.950 . S
H1798 C1803 0.950 . S
H1799 C1804 0.949 . S
H1800 C1806 0.950 . S
H1801 C1807 0.950 . S
H1802 C1808 0.949 . S
C1803 H1798 0.950 . S
C1803 C1805 1.327 . S
C1803 C1809 1.429 . S
C1804 C1796 1.574 . S
C1804 H1799 0.949 . S
C1804 C1810 1.368 . S
C1805 C1789 1.349 . S
C1805 H1797 0.950 . S
C1805 C1803 1.327 . S
C1806 C1794 1.349 . S
C1806 H1800 0.950 . S
C1806 C1807 1.327 . S
C1807 H1801 0.950 . S
C1807 C1806 1.327 . S
C1807 C1811 1.429 . S
C1808 C1791 1.574 . S
C1808 H1802 0.949 . S
C1808 C1812 1.368 . S
C1809 C1790 1.429 . S
C1809 C1803 1.429 . S
C1809 C1810 1.523 . S
C1810 C1791 1.368 . S
C1810 C1804 1.368 . S
C1810 C1809 1.523 . S
C1811 C1795 1.429 . S
C1811 C1807 1.429 . S
C1811 C1812 1.523 . S
C1812 C1796 1.368 . S
C1812 C1808 1.368 . S
C1812 C1811 1.523 . S
H1813 C1788 0.950 . S
H1814 C1790 0.950 . S
H1815 C1791 0.949 . S
H1816 C1793 0.950 . S
H1817 C1795 0.950 . S
C1818 C1819 1.349 . S
C1818 C1820 1.327 . S
C1818 H1843 0.950 . S
C1819 C1818 1.349 . S
C1819 C1835 1.349 . S
C1820 C1818 1.327 . S
C1820 C1839 1.429 . S
C1820 H1844 0.950 . S
C1821 C1838 1.574 . S
C1821 C1840 1.368 . S
C1821 H1845 0.949 . S
H1822 C1826 0.949 . S
C1823 C1824 1.349 . S
C1823 C1825 1.327 . S
C1823 H1846 0.950 . S
C1824 C1823 1.349 . S
C1824 C1836 1.349 . S
C1825 C1823 1.327 . S
C1825 C1841 1.429 . S
C1825 H1847 0.950 . S
C1826 H1822 0.949 . S
C1826 C1834 1.574 . S
C1826 C1842 1.368 . S
H1827 C1835 0.950 . S
H1828 C1833 0.950 . S
H1829 C1834 0.949 . S
H1830 C1836 0.950 . S
H1831 C1837 0.950 . S
H1832 C1838 0.949 . S
C1833 H1828 0.950 . S
C1833 C1835 1.327 . S
C1833 C1839 1.429 . S
C1834 C1826 1.574 . S
C1834 H1829 0.949 . S
C1834 C1840 1.368 . S
C1835 C1819 1.349 . S
C1835 H1827 0.950 . S
C1835 C1833 1.327 . S
C1836 C1824 1.349 . S
C1836 H1830 0.950 . S
C1836 C1837 1.327 . S
C1837 H1831 0.950 . S
C1837 C1836 1.327 . S
C1837 C1841 1.429 . S
C1838 C1821 1.574 . S
C1838 H1832 0.949 . S
C1838 C1842 1.368 . S
C1839 C1820 1.429 . S
C1839 C1833 1.429 . S
C1839 C1840 1.523 . S
C1840 C1821 1.368 . S
C1840 C1834 1.368 . S
C1840 C1839 1.523 . S
C1841 C1825 1.429 . S
C1841 C1837 1.429 . S
C1841 C1842 1.523 . S
C1842 C1826 1.368 . S
C1842 C1838 1.368 . S
C1842 C1841 1.523 . S
H1843 C1818 0.950 . S
H1844 C1820 0.950 . S
H1845 C1821 0.949 . S
H1846 C1823 0.950 . S
H1847 C1825 0.950 . S
C1848 C1849 1.349 . S
C1848 C1850 1.327 . S
C1848 H1873 0.950 . S
C1849 C1848 1.349 . S
C1849 C1865 1.349 . S
C1850 C1848 1.327 . S
C1850 C1869 1.429 . S
C1850 H1874 0.950 . S
C1851 C1868 1.574 . S
C1851 C1870 1.368 . S
C1851 H1875 0.949 . S
H1852 C1856 0.949 . S
C1853 C1854 1.349 . S
C1853 C1855 1.327 . S
C1853 H1876 0.950 . S
C1854 C1853 1.349 . S
C1854 C1866 1.349 . S
C1855 C1853 1.327 . S
C1855 C1871 1.429 . S
C1855 H1877 0.950 . S
C1856 H1852 0.949 . S
C1856 C1864 1.574 . S
C1856 C1872 1.368 . S
H1857 C1865 0.950 . S
H1858 C1863 0.950 . S
H1859 C1864 0.949 . S
H1860 C1866 0.950 . S
H1861 C1867 0.950 . S
H1862 C1868 0.949 . S
C1863 H1858 0.950 . S
C1863 C1865 1.327 . S
C1863 C1869 1.429 . S
C1864 C1856 1.574 . S
C1864 H1859 0.949 . S
C1864 C1870 1.368 . S
C1865 C1849 1.349 . S
C1865 H1857 0.950 . S
C1865 C1863 1.327 . S
C1866 C1854 1.349 . S
C1866 H1860 0.950 . S
C1866 C1867 1.327 . S
C1867 H1861 0.950 . S
C1867 C1866 1.327 . S
C1867 C1871 1.429 . S
C1868 C1851 1.574 . S
C1868 H1862 0.949 . S
C1868 C1872 1.368 . S
C1869 C1850 1.429 . S
C1869 C1863 1.429 . S
C1869 C1870 1.523 . S
C1870 C1851 1.368 . S
C1870 C1864 1.368 . S
C1870 C1869 1.523 . S
C1871 C1855 1.429 . S
C1871 C1867 1.429 . S
C1871 C1872 1.523 . S
C1872 C1856 1.368 . S
C1872 C1868 1.368 . S
C1872 C1871 1.523 . S
H1873 C1848 0.950 . S
H1874 C1850 0.950 . S
H1875 C1851 0.949 . S
H1876 C1853 0.950 . S
H1877 C1855 0.950 . S
C1878 C1879 1.349 . S
C1878 C1880 1.327 . S
C1878 H1903 0.950 . S
C1879 C1878 1.349 . S
C1879 C1895 1.349 . S
C1880 C1878 1.327 . S
C1880 C1899 1.429 . S
C1880 H1904 0.950 . S
C1881 C1898 1.574 . S
C1881 C1900 1.368 . S
C1881 H1905 0.949 . S
H1882 C1886 0.949 . S
C1883 C1884 1.349 . S
C1883 C1885 1.327 . S
C1883 H1906 0.950 . S
C1884 C1883 1.349 . S
C1884 C1896 1.349 . S
C1885 C1883 1.327 . S
C1885 C1901 1.429 . S
C1885 H1907 0.950 . S
C1886 H1882 0.949 . S
C1886 C1894 1.574 . S
C1886 C1902 1.368 . S
H1887 C1895 0.950 . S
H1888 C1893 0.950 . S
H1889 C1894 0.949 . S
H1890 C1896 0.950 . S
H1891 C1897 0.950 . S
H1892 C1898 0.949 . S
C1893 H1888 0.950 . S
C1893 C1895 1.327 . S
C1893 C1899 1.429 . S
C1894 C1886 1.574 . S
C1894 H1889 0.949 . S
C1894 C1900 1.368 . S
C1895 C1879 1.349 . S
C1895 H1887 0.950 . S
C1895 C1893 1.327 . S
C1896 C1884 1.349 . S
C1896 H1890 0.950 . S
C1896 C1897 1.327 . S
C1897 H1891 0.950 . S
C1897 C1896 1.327 . S
C1897 C1901 1.429 . S
C1898 C1881 1.574 . S
C1898 H1892 0.949 . S
C1898 C1902 1.368 . S
C1899 C1880 1.429 . S
C1899 C1893 1.429 . S
C1899 C1900 1.523 . S
C1900 C1881 1.368 . S
C1900 C1894 1.368 . S
C1900 C1899 1.523 . S
C1901 C1885 1.429 . S
C1901 C1897 1.429 . S
C1901 C1902 1.523 . S
C1902 C1886 1.368 . S
C1902 C1898 1.368 . S
C1902 C1901 1.523 . S
H1903 C1878 0.950 . S
H1904 C1880 0.950 . S
H1905 C1881 0.949 . S
H1906 C1883 0.950 . S
H1907 C1885 0.950 . S
C1908 C1909 1.349 . S
C1908 C1910 1.327 . S
C1908 H1933 0.950 . S
C1909 C1908 1.349 . S
C1909 C1925 1.349 . S
C1910 C1908 1.327 . S
C1910 C1929 1.429 . S
C1910 H1934 0.950 . S
C1911 C1928 1.574 . S
C1911 C1930 1.368 . S
C1911 H1935 0.949 . S
H1912 C1916 0.949 . S
C1913 C1914 1.349 . S
C1913 C1915 1.327 . S
C1913 H1936 0.950 . S
C1914 C1913 1.349 . S
C1914 C1926 1.349 . S
C1915 C1913 1.327 . S
C1915 C1931 1.429 . S
C1915 H1937 0.950 . S
C1916 H1912 0.949 . S
C1916 C1924 1.574 . S
C1916 C1932 1.368 . S
H1917 C1925 0.950 . S
H1918 C1923 0.950 . S
H1919 C1924 0.949 . S
H1920 C1926 0.950 . S
H1921 C1927 0.950 . S
H1922 C1928 0.949 . S
C1923 H1918 0.950 . S
C1923 C1925 1.327 . S
C1923 C1929 1.429 . S
C1924 C1916 1.574 . S
C1924 H1919 0.949 . S
C1924 C1930 1.368 . S
C1925 C1909 1.349 . S
C1925 H1917 0.950 . S
C1925 C1923 1.327 . S
C1926 C1914 1.349 . S
C1926 H1920 0.950 . S
C1926 C1927 1.327 . S
C1927 H1921 0.950 . S
C1927 C1926 1.327 . S
C1927 C1931 1.429 . S
C1928 C1911 1.574 . S
C1928 H1922 0.949 . S
C1928 C1932 1.368 . S
C1929 C1910 1.429 . S
C1929 C1923 1.429 . S
C1929 C1930 1.523 . S
C1930 C1911 1.368 . S
C1930 C1924 1.368 . S
C1930 C1929 1.523 . S
C1931 C1915 1.429 . S
C1931 C1927 1.429 . S
C1931 C1932 1.523 . S
C1932 C1916 1.368 . S
C1932 C1928 1.368 . S
C1932 C1931 1.523 . S
H1933 C1908 0.950 . S
H1934 C1910 0.950 . S
H1935 C1911 0.949 . S
H1936 C1913 0.950 . S
H1937 C1915 0.950 . S
C1938 C1939 1.349 . S
C1938 C1940 1.327 . S
C1938 H1963 0.950 . S
C1939 C1938 1.349 . S
C1939 C1955 1.349 . S
C1940 C1938 1.327 . S
C1940 C1959 1.429 . S
C1940 H1964 0.950 . S
C1941 C1958 1.574 . S
C1941 C1960 1.368 . S
C1941 H1965 0.949 . S
H1942 C1946 0.949 . S
C1943 C1944 1.349 . S
C1943 C1945 1.327 . S
C1943 H1966 0.950 . S
C1944 C1943 1.349 . S
C1944 C1956 1.349 . S
C1945 C1943 1.327 . S
C1945 C1961 1.429 . S
C1945 H1967 0.950 . S
C1946 H1942 0.949 . S
C1946 C1954 1.574 . S
C1946 C1962 1.368 . S
H1947 C1955 0.950 . S
H1948 C1953 0.950 . S
H1949 C1954 0.949 . S
H1950 C1956 0.950 . S
H1951 C1957 0.950 . S
H1952 C1958 0.949 . S
C1953 H1948 0.950 . S
C1953 C1955 1.327 . S
C1953 C1959 1.429 . S
C1954 C1946 1.574 . S
C1954 H1949 0.949 . S
C1954 C1960 1.368 . S
C1955 C1939 1.349 . S
C1955 H1947 0.950 . S
C1955 C1953 1.327 . S
C1956 C1944 1.349 . S
C1956 H1950 0.950 . S
C1956 C1957 1.327 . S
C1957 H1951 0.950 . S
C1957 C1956 1.327 . S
C1957 C1961 1.429 . S
C1958 C1941 1.574 . S
C1958 H1952 0.949 . S
C1958 C1962 1.368 . S
C1959 C1940 1.429 . S
C1959 C1953 1.429 . S
C1959 C1960 1.523 . S
C1960 C1941 1.368 . S
C1960 C1954 1.368 . S
C1960 C1959 1.523 . S
C1961 C1945 1.429 . S
C1961 C1957 1.429 . S
C1961 C1962 1.523 . S
C1962 C1946 1.368 . S
C1962 C1958 1.368 . S
C1962 C1961 1.523 . S
H1963 C1938 0.950 . S
H1964 C1940 0.950 . S
H1965 C1941 0.949 . S
H1966 C1943 0.950 . S
H1967 C1945 0.950 . S
C1968 C1969 1.349 1_655 S
C1968 C1970 1.327 . S
C1968 H1993 0.950 . S
C1969 C1968 1.349 1_455 S
C1969 C1985 1.349 . S
C1970 C1968 1.327 . S
C1970 C1989 1.429 . S
C1970 H1994 0.950 . S
C1971 C1988 1.574 . S
C1971 C1990 1.368 . S
C1971 H1995 0.949 . S
H1972 C1976 0.949 . S
C1973 C1974 1.349 . S
C1973 C1975 1.327 1_556 S
C1973 H1996 0.950 . S
C1974 C1973 1.349 . S
C1974 C1986 1.349 1_556 S
C1975 C1973 1.327 1_554 S
C1975 C1991 1.429 . S
C1975 H1997 0.950 . S
C1976 H1972 0.949 . S
C1976 C1984 1.574 . S
C1976 C1992 1.368 . S
H1977 C1985 0.950 . S
H1978 C1983 0.950 . S
H1979 C1984 0.949 . S
H1980 C1986 0.950 . S
H1981 C1987 0.950 . S
H1982 C1988 0.949 . S
C1983 H1978 0.950 . S
C1983 C1985 1.327 1_655 S
C1983 C1989 1.429 . S
C1984 C1976 1.574 . S
C1984 H1979 0.949 . S
C1984 C1990 1.368 . S
C1985 C1969 1.349 . S
C1985 H1977 0.950 . S
C1985 C1983 1.327 1_455 S
C1986 C1974 1.349 1_554 S
C1986 H1980 0.950 . S
C1986 C1987 1.327 . S
C1987 H1981 0.950 . S
C1987 C1986 1.327 . S
C1987 C1991 1.429 . S
C1988 C1971 1.574 . S
C1988 H1982 0.949 . S
C1988 C1992 1.368 . S
C1989 C1970 1.429 . S
C1989 C1983 1.429 . S
C1989 C1990 1.523 . S
C1990 C1971 1.368 . S
C1990 C1984 1.368 . S
C1990 C1989 1.523 . S
C1991 C1975 1.429 . S
C1991 C1987 1.429 . S
C1991 C1992 1.523 . S
C1992 C1976 1.368 . S
C1992 C1988 1.368 . S
C1992 C1991 1.523 . S
H1993 C1968 0.950 . S
H1994 C1970 0.950 . S
H1995 C1971 0.949 . S
H1996 C1973 0.950 . S
H1997 C1975 0.950 . S
C1998 C1999 1.349 . S
C1998 C2000 1.327 . S
C1998 H2023 0.950 . S
C1999 C1998 1.349 . S
C1999 C2015 1.349 . S
C2000 C1998 1.327 . S
C2000 C2019 1.429 . S
C2000 H2024 0.950 . S
C2001 C2018 1.574 . S
C2001 C2020 1.368 . S
C2001 H2025 0.949 . S
H2002 C2006 0.949 . S
C2003 C2004 1.349 . S
C2003 C2005 1.327 . S
C2003 H2026 0.950 . S
C2004 C2003 1.349 . S
C2004 C2016 1.349 . S
C2005 C2003 1.327 . S
C2005 C2021 1.429 . S
C2005 H2027 0.950 . S
C2006 H2002 0.949 . S
C2006 C2014 1.574 . S
C2006 C2022 1.368 . S
H2007 C2015 0.950 . S
H2008 C2013 0.950 . S
H2009 C2014 0.949 . S
H2010 C2016 0.950 . S
H2011 C2017 0.950 . S
H2012 C2018 0.949 . S
C2013 H2008 0.950 . S
C2013 C2015 1.327 . S
C2013 C2019 1.429 . S
C2014 C2006 1.574 . S
C2014 H2009 0.949 . S
C2014 C2020 1.368 . S
C2015 C1999 1.349 . S
C2015 H2007 0.950 . S
C2015 C2013 1.327 . S
C2016 C2004 1.349 . S
C2016 H2010 0.950 . S
C2016 C2017 1.327 . S
C2017 H2011 0.950 . S
C2017 C2016 1.327 . S
C2017 C2021 1.429 . S
C2018 C2001 1.574 . S
C2018 H2012 0.949 . S
C2018 C2022 1.368 . S
C2019 C2000 1.429 . S
C2019 C2013 1.429 . S
C2019 C2020 1.523 . S
C2020 C2001 1.368 . S
C2020 C2014 1.368 . S
C2020 C2019 1.523 . S
C2021 C2005 1.429 . S
C2021 C2017 1.429 . S
C2021 C2022 1.523 . S
C2022 C2006 1.368 . S
C2022 C2018 1.368 . S
C2022 C2021 1.523 . S
H2023 C1998 0.950 . S
H2024 C2000 0.950 . S
H2025 C2001 0.949 . S
H2026 C2003 0.950 . S
H2027 C2005 0.950 . S
C2028 C2029 1.349 . S
C2028 C2030 1.327 1_554 S
C2028 H2053 0.950 . S
C2029 C2028 1.349 . S
C2029 C2045 1.349 1_554 S
C2030 C2028 1.327 1_556 S
C2030 C2049 1.429 . S
C2030 H2054 0.950 . S
C2031 C2048 1.574 . S
C2031 C2050 1.368 . S
C2031 H2055 0.949 . S
H2032 C2036 0.949 . S
C2033 C2034 1.349 . S
C2033 C2035 1.327 . S
C2033 H2056 0.950 . S
C2034 C2033 1.349 . S
C2034 C2046 1.349 . S
C2035 C2033 1.327 . S
C2035 C2051 1.429 . S
C2035 H2057 0.950 . S
C2036 H2032 0.949 . S
C2036 C2044 1.574 . S
C2036 C2052 1.368 . S
H2037 C2045 0.950 . S
H2038 C2043 0.950 . S
H2039 C2044 0.949 . S
H2040 C2046 0.950 . S
H2041 C2047 0.950 . S
H2042 C2048 0.949 . S
C2043 H2038 0.950 . S
C2043 C2045 1.327 . S
C2043 C2049 1.429 . S
C2044 C2036 1.574 . S
C2044 H2039 0.949 . S
C2044 C2050 1.368 . S
C2045 C2029 1.349 1_556 S
C2045 H2037 0.950 . S
C2045 C2043 1.327 . S
C2046 C2034 1.349 . S
C2046 H2040 0.950 . S
C2046 C2047 1.327 . S
C2047 H2041 0.950 . S
C2047 C2046 1.327 . S
C2047 C2051 1.429 . S
C2048 C2031 1.574 . S
C2048 H2042 0.949 . S
C2048 C2052 1.368 . S
C2049 C2030 1.429 . S
C2049 C2043 1.429 . S
C2049 C2050 1.523 . S
C2050 C2031 1.368 . S
C2050 C2044 1.368 . S
C2050 C2049 1.523 . S
C2051 C2035 1.429 . S
C2051 C2047 1.429 . S
C2051 C2052 1.523 . S
C2052 C2036 1.368 . S
C2052 C2048 1.368 . S
C2052 C2051 1.523 . S
H2053 C2028 0.950 . S
H2054 C2030 0.950 . S
H2055 C2031 0.949 . S
H2056 C2033 0.950 . S
H2057 C2035 0.950 . S
C2058 C2059 1.349 . S
C2058 C2060 1.327 . S
C2058 H2083 0.950 . S
C2059 C2058 1.349 . S
C2059 C2075 1.349 . S
C2060 C2058 1.327 . S
C2060 C2079 1.429 . S
C2060 H2084 0.950 . S
C2061 C2078 1.574 . S
C2061 C2080 1.368 . S
C2061 H2085 0.949 . S
H2062 C2066 0.949 . S
C2063 C2064 1.349 1_455 S
C2063 C2065 1.327 . S
C2063 H2086 0.950 . S
C2064 C2063 1.349 1_655 S
C2064 C2076 1.349 . S
C2065 C2063 1.327 . S
C2065 C2081 1.429 . S
C2065 H2087 0.950 . S
C2066 H2062 0.949 . S
C2066 C2074 1.574 . S
C2066 C2082 1.368 . S
H2067 C2075 0.950 . S
H2068 C2073 0.950 . S
H2069 C2074 0.949 . S
H2070 C2076 0.950 . S
H2071 C2077 0.950 . S
H2072 C2078 0.949 . S
C2073 H2068 0.950 . S
C2073 C2075 1.327 . S
C2073 C2079 1.429 . S
C2074 C2066 1.574 . S
C2074 H2069 0.949 . S
C2074 C2080 1.368 . S
C2075 C2059 1.349 . S
C2075 H2067 0.950 . S
C2075 C2073 1.327 . S
C2076 C2064 1.349 . S
C2076 H2070 0.950 . S
C2076 C2077 1.327 1_655 S
C2077 H2071 0.950 . S
C2077 C2076 1.327 1_455 S
C2077 C2081 1.429 . S
C2078 C2061 1.574 . S
C2078 H2072 0.949 . S
C2078 C2082 1.368 . S
C2079 C2060 1.429 . S
C2079 C2073 1.429 . S
C2079 C2080 1.523 . S
C2080 C2061 1.368 . S
C2080 C2074 1.368 . S
C2080 C2079 1.523 . S
C2081 C2065 1.429 . S
C2081 C2077 1.429 . S
C2081 C2082 1.523 . S
C2082 C2066 1.368 . S
C2082 C2078 1.368 . S
C2082 C2081 1.523 . S
H2083 C2058 0.950 . S
H2084 C2060 0.950 . S
H2085 C2061 0.949 . S
H2086 C2063 0.950 . S
H2087 C2065 0.950 . S
C2088 C2089 1.349 1_565 S
C2088 C2090 1.327 . S
C2088 H2113 0.950 . S
C2089 C2088 1.349 1_545 S
C2089 C2105 1.349 . S
C2090 C2088 1.327 . S
C2090 C2109 1.429 . S
C2090 H2114 0.950 . S
C2091 C2108 1.574 . S
C2091 C2110 1.368 . S
C2091 H2115 0.949 . S
H2092 C2096 0.949 . S
C2093 C2094 1.349 . S
C2093 C2095 1.327 1_655 S
C2093 H2116 0.950 . S
C2094 C2093 1.349 . S
C2094 C2106 1.349 1_655 S
C2095 C2093 1.327 1_455 S
C2095 C2111 1.429 . S
C2095 H2117 0.950 . S
C2096 H2092 0.949 . S
C2096 C2104 1.574 . S
C2096 C2112 1.368 . S
H2097 C2105 0.950 . S
H2098 C2103 0.950 . S
H2099 C2104 0.949 . S
H2100 C2106 0.950 . S
H2101 C2107 0.950 . S
H2102 C2108 0.949 . S
C2103 H2098 0.950 . S
C2103 C2105 1.327 1_565 S
C2103 C2109 1.429 . S
C2104 C2096 1.574 . S
C2104 H2099 0.949 . S
C2104 C2110 1.368 . S
C2105 C2089 1.349 . S
C2105 H2097 0.950 . S
C2105 C2103 1.327 1_545 S
C2106 C2094 1.349 1_455 S
C2106 H2100 0.950 . S
C2106 C2107 1.327 . S
C2107 H2101 0.950 . S
C2107 C2106 1.327 . S
C2107 C2111 1.429 . S
C2108 C2091 1.574 . S
C2108 H2102 0.949 . S
C2108 C2112 1.368 . S
C2109 C2090 1.429 . S
C2109 C2103 1.429 . S
C2109 C2110 1.523 . S
C2110 C2091 1.368 . S
C2110 C2104 1.368 . S
C2110 C2109 1.523 . S
C2111 C2095 1.429 . S
C2111 C2107 1.429 . S
C2111 C2112 1.523 . S
C2112 C2096 1.368 . S
C2112 C2108 1.368 . S
C2112 C2111 1.523 . S
H2113 C2088 0.950 . S
H2114 C2090 0.950 . S
H2115 C2091 0.949 . S
H2116 C2093 0.950 . S
H2117 C2095 0.950 . S
C2118 C2119 1.349 . S
C2118 C2120 1.327 . S
C2118 H2143 0.950 . S
C2119 C2118 1.349 . S
C2119 C2135 1.349 . S
C2120 C2118 1.327 . S
C2120 C2139 1.429 . S
C2120 H2144 0.950 . S
C2121 C2138 1.574 . S
C2121 C2140 1.368 . S
C2121 H2145 0.949 . S
H2122 C2126 0.949 . S
C2123 C2124 1.349 . S
C2123 C2125 1.327 1_565 S
C2123 H2146 0.950 . S
C2124 C2123 1.349 . S
C2124 C2136 1.349 1_565 S
C2125 C2123 1.327 1_545 S
C2125 C2141 1.429 . S
C2125 H2147 0.950 . S
C2126 H2122 0.949 . S
C2126 C2134 1.574 . S
C2126 C2142 1.368 . S
H2127 C2135 0.950 . S
H2128 C2133 0.950 . S
H2129 C2134 0.949 . S
H2130 C2136 0.950 . S
H2131 C2137 0.950 . S
H2132 C2138 0.949 . S
C2133 H2128 0.950 . S
C2133 C2135 1.327 . S
C2133 C2139 1.429 . S
C2134 C2126 1.574 . S
C2134 H2129 0.949 . S
C2134 C2140 1.368 . S
C2135 C2119 1.349 . S
C2135 H2127 0.950 . S
C2135 C2133 1.327 . S
C2136 C2124 1.349 1_545 S
C2136 H2130 0.950 . S
C2136 C2137 1.327 . S
C2137 H2131 0.950 . S
C2137 C2136 1.327 . S
C2137 C2141 1.429 . S
C2138 C2121 1.574 . S
C2138 H2132 0.949 . S
C2138 C2142 1.368 . S
C2139 C2120 1.429 . S
C2139 C2133 1.429 . S
C2139 C2140 1.523 . S
C2140 C2121 1.368 . S
C2140 C2134 1.368 . S
C2140 C2139 1.523 . S
C2141 C2125 1.429 . S
C2141 C2137 1.429 . S
C2141 C2142 1.523 . S
C2142 C2126 1.368 . S
C2142 C2138 1.368 . S
C2142 C2141 1.523 . S
H2143 C2118 0.950 . S
H2144 C2120 0.950 . S
H2145 C2121 0.949 . S
H2146 C2123 0.950 . S
H2147 C2125 0.950 . S
C2148 C2149 1.349 . S
C2148 C2150 1.327 . S
C2148 H2173 0.950 . S
C2149 C2148 1.349 . S
C2149 C2165 1.349 . S
C2150 C2148 1.327 . S
C2150 C2169 1.429 . S
C2150 H2174 0.950 . S
C2151 C2168 1.574 . S
C2151 C2170 1.368 . S
C2151 H2175 0.949 . S
H2152 C2156 0.949 . S
C2153 C2154 1.349 . S
C2153 C2155 1.327 . S
C2153 H2176 0.950 . S
C2154 C2153 1.349 . S
C2154 C2166 1.349 . S
C2155 C2153 1.327 . S
C2155 C2171 1.429 . S
C2155 H2177 0.950 . S
C2156 H2152 0.949 . S
C2156 C2164 1.574 . S
C2156 C2172 1.368 . S
H2157 C2165 0.950 . S
H2158 C2163 0.950 . S
H2159 C2164 0.949 . S
H2160 C2166 0.950 . S
H2161 C2167 0.950 . S
H2162 C2168 0.949 . S
C2163 H2158 0.950 . S
C2163 C2165 1.327 . S
C2163 C2169 1.429 . S
C2164 C2156 1.574 . S
C2164 H2159 0.949 . S
C2164 C2170 1.368 . S
C2165 C2149 1.349 . S
C2165 H2157 0.950 . S
C2165 C2163 1.327 . S
C2166 C2154 1.349 . S
C2166 H2160 0.950 . S
C2166 C2167 1.327 . S
C2167 H2161 0.950 . S
C2167 C2166 1.327 . S
C2167 C2171 1.429 . S
C2168 C2151 1.574 . S
C2168 H2162 0.949 . S
C2168 C2172 1.368 . S
C2169 C2150 1.429 . S
C2169 C2163 1.429 . S
C2169 C2170 1.523 . S
C2170 C2151 1.368 . S
C2170 C2164 1.368 . S
C2170 C2169 1.523 . S
C2171 C2155 1.429 . S
C2171 C2167 1.429 . S
C2171 C2172 1.523 . S
C2172 C2156 1.368 . S
C2172 C2168 1.368 . S
C2172 C2171 1.523 . S
H2173 C2148 0.950 . S
H2174 C2150 0.950 . S
H2175 C2151 0.949 . S
H2176 C2153 0.950 . S
H2177 C2155 0.950 . S
C2178 C2179 1.349 . S
C2178 C2180 1.327 1_455 S
C2178 H2203 0.950 . S
C2179 C2178 1.349 . S
C2179 C2195 1.349 1_455 S
C2180 C2178 1.327 1_655 S
C2180 C2199 1.429 . S
C2180 H2204 0.950 . S
C2181 C2198 1.574 . S
C2181 C2200 1.368 . S
C2181 H2205 0.949 . S
H2182 C2186 0.949 . S
C2183 C2184 1.349 . S
C2183 C2185 1.327 . S
C2183 H2206 0.950 . S
C2184 C2183 1.349 . S
C2184 C2196 1.349 . S
C2185 C2183 1.327 . S
C2185 C2201 1.429 . S
C2185 H2207 0.950 . S
C2186 H2182 0.949 . S
C2186 C2194 1.574 . S
C2186 C2202 1.368 . S
H2187 C2195 0.950 . S
H2188 C2193 0.950 . S
H2189 C2194 0.949 . S
H2190 C2196 0.950 . S
H2191 C2197 0.950 . S
H2192 C2198 0.949 . S
C2193 H2188 0.950 . S
C2193 C2195 1.327 . S
C2193 C2199 1.429 . S
C2194 C2186 1.574 . S
C2194 H2189 0.949 . S
C2194 C2200 1.368 . S
C2195 C2179 1.349 1_655 S
C2195 H2187 0.950 . S
C2195 C2193 1.327 . S
C2196 C2184 1.349 . S
C2196 H2190 0.950 . S
C2196 C2197 1.327 . S
C2197 H2191 0.950 . S
C2197 C2196 1.327 . S
C2197 C2201 1.429 . S
C2198 C2181 1.574 . S
C2198 H2192 0.949 . S
C2198 C2202 1.368 . S
C2199 C2180 1.429 . S
C2199 C2193 1.429 . S
C2199 C2200 1.523 . S
C2200 C2181 1.368 . S
C2200 C2194 1.368 . S
C2200 C2199 1.523 . S
C2201 C2185 1.429 . S
C2201 C2197 1.429 . S
C2201 C2202 1.523 . S
C2202 C2186 1.368 . S
C2202 C2198 1.368 . S
C2202 C2201 1.523 . S
H2203 C2178 0.950 . S
H2204 C2180 0.950 . S
H2205 C2181 0.949 . S
H2206 C2183 0.950 . S
H2207 C2185 0.950 . S
C2208 C2209 1.349 . S
C2208 C2210 1.327 1_554 S
C2208 H2233 0.950 . S
C2209 C2208 1.349 . S
C2209 C2225 1.349 1_554 S
C2210 C2208 1.327 1_556 S
C2210 C2229 1.429 . S
C2210 H2234 0.950 1_556 S
C2211 C2228 1.574 . S
C2211 C2230 1.368 . S
C2211 H2235 0.949 . S
H2212 C2216 0.949 . S
C2213 C2214 1.349 1_545 S
C2213 C2215 1.327 . S
C2213 H2236 0.950 . S
C2214 C2213 1.349 1_565 S
C2214 C2226 1.349 . S
C2215 C2213 1.327 . S
C2215 C2231 1.429 . S
C2215 H2237 0.950 . S
C2216 H2212 0.949 . S
C2216 C2224 1.574 . S
C2216 C2232 1.368 . S
H2217 C2225 0.950 . S
H2218 C2223 0.950 . S
H2219 C2224 0.949 . S
H2220 C2226 0.950 . S
H2221 C2227 0.950 . S
H2222 C2228 0.949 . S
C2223 H2218 0.950 . S
C2223 C2225 1.327 . S
C2223 C2229 1.429 . S
C2224 C2216 1.574 . S
C2224 H2219 0.949 . S
C2224 C2230 1.368 . S
C2225 C2209 1.349 1_556 S
C2225 H2217 0.950 . S
C2225 C2223 1.327 . S
C2226 C2214 1.349 . S
C2226 H2220 0.950 . S
C2226 C2227 1.327 1_565 S
C2227 H2221 0.950 . S
C2227 C2226 1.327 1_545 S
C2227 C2231 1.429 . S
C2228 C2211 1.574 . S
C2228 H2222 0.949 . S
C2228 C2232 1.368 . S
C2229 C2210 1.429 . S
C2229 C2223 1.429 . S
C2229 C2230 1.523 . S
C2230 C2211 1.368 . S
C2230 C2224 1.368 . S
C2230 C2229 1.523 . S
C2231 C2215 1.429 . S
C2231 C2227 1.429 . S
C2231 C2232 1.523 . S
C2232 C2216 1.368 . S
C2232 C2228 1.368 . S
C2232 C2231 1.523 . S
H2233 C2208 0.950 . S
H2234 C2210 0.950 1_554 S
H2235 C2211 0.949 . S
H2236 C2213 0.950 . S
H2237 C2215 0.950 . S
C2238 C2239 1.349 . S
C2238 C2240 1.327 1_556 S
C2238 H2263 0.950 . S
C2239 C2238 1.349 . S
C2239 C2255 1.349 1_556 S
C2240 C2238 1.327 1_554 S
C2240 C2259 1.429 . S
C2240 H2264 0.950 . S
C2241 C2258 1.574 . S
C2241 C2260 1.368 . S
C2241 H2265 0.949 . S
H2242 C2246 0.949 . S
C2243 C2244 1.349 . S
C2243 C2245 1.327 . S
C2243 H2266 0.950 . S
C2244 C2243 1.349 . S
C2244 C2256 1.349 . S
C2245 C2243 1.327 . S
C2245 C2261 1.429 . S
C2245 H2267 0.950 . S
C2246 H2242 0.949 . S
C2246 C2254 1.574 . S
C2246 C2262 1.368 . S
H2247 C2255 0.950 . S
H2248 C2253 0.950 . S
H2249 C2254 0.949 . S
H2250 C2256 0.950 . S
H2251 C2257 0.950 . S
H2252 C2258 0.949 . S
C2253 H2248 0.950 . S
C2253 C2255 1.327 . S
C2253 C2259 1.429 . S
C2254 C2246 1.574 . S
C2254 H2249 0.949 . S
C2254 C2260 1.368 . S
C2255 C2239 1.349 1_554 S
C2255 H2247 0.950 . S
C2255 C2253 1.327 . S
C2256 C2244 1.349 . S
C2256 H2250 0.950 . S
C2256 C2257 1.327 . S
C2257 H2251 0.950 . S
C2257 C2256 1.327 . S
C2257 C2261 1.429 . S
C2258 C2241 1.574 . S
C2258 H2252 0.949 . S
C2258 C2262 1.368 . S
C2259 C2240 1.429 . S
C2259 C2253 1.429 . S
C2259 C2260 1.523 . S
C2260 C2241 1.368 . S
C2260 C2254 1.368 . S
C2260 C2259 1.523 . S
C2261 C2245 1.429 . S
C2261 C2257 1.429 . S
C2261 C2262 1.523 . S
C2262 C2246 1.368 . S
C2262 C2258 1.368 . S
C2262 C2261 1.523 . S
H2263 C2238 0.950 . S
H2264 C2240 0.950 . S
H2265 C2241 0.949 . S
H2266 C2243 0.950 . S
H2267 C2245 0.950 . S
C2268 C2269 1.349 . S
C2268 C2270 1.327 . S
C2268 H2293 0.950 . S
C2269 C2268 1.349 . S
C2269 C2285 1.349 . S
C2270 C2268 1.327 . S
C2270 C2289 1.429 . S
C2270 H2294 0.950 . S
C2271 C2288 1.574 . S
C2271 C2290 1.368 . S
C2271 H2295 0.949 . S
H2272 C2276 0.949 . S
C2273 C2274 1.349 . S
C2273 C2275 1.327 . S
C2273 H2296 0.950 . S
C2274 C2273 1.349 . S
C2274 C2286 1.349 . S
C2275 C2273 1.327 . S
C2275 C2291 1.429 . S
C2275 H2297 0.950 . S
C2276 H2272 0.949 . S
C2276 C2284 1.574 . S
C2276 C2292 1.368 . S
H2277 C2285 0.950 . S
H2278 C2283 0.950 . S
H2279 C2284 0.949 . S
H2280 C2286 0.950 . S
H2281 C2287 0.950 . S
H2282 C2288 0.949 . S
C2283 H2278 0.950 . S
C2283 C2285 1.327 . S
C2283 C2289 1.429 . S
C2284 C2276 1.574 . S
C2284 H2279 0.949 . S
C2284 C2290 1.368 . S
C2285 C2269 1.349 . S
C2285 H2277 0.950 . S
C2285 C2283 1.327 . S
C2286 C2274 1.349 . S
C2286 H2280 0.950 . S
C2286 C2287 1.327 . S
C2287 H2281 0.950 . S
C2287 C2286 1.327 . S
C2287 C2291 1.429 . S
C2288 C2271 1.574 . S
C2288 H2282 0.949 . S
C2288 C2292 1.368 . S
C2289 C2270 1.429 . S
C2289 C2283 1.429 . S
C2289 C2290 1.523 . S
C2290 C2271 1.368 . S
C2290 C2284 1.368 . S
C2290 C2289 1.523 . S
C2291 C2275 1.429 . S
C2291 C2287 1.429 . S
C2291 C2292 1.523 . S
C2292 C2276 1.368 . S
C2292 C2288 1.368 . S
C2292 C2291 1.523 . S
H2293 C2268 0.950 . S
H2294 C2270 0.950 . S
H2295 C2271 0.949 . S
H2296 C2273 0.950 . S
H2297 C2275 0.950 . S
C2298 C2299 1.349 . S
C2298 C2300 1.327 . S
C2298 H2323 0.950 . S
C2299 C2298 1.349 . S
C2299 C2315 1.349 . S
C2300 C2298 1.327 . S
C2300 C2319 1.429 . S
C2300 H2324 0.950 . S
C2301 C2318 1.574 . S
C2301 C2320 1.368 . S
C2301 H2325 0.949 . S
H2302 C2306 0.949 . S
C2303 C2304 1.349 . S
C2303 C2305 1.327 1_545 S
C2303 H2326 0.950 . S
C2304 C2303 1.349 . S
C2304 C2316 1.349 1_545 S
C2305 C2303 1.327 1_565 S
C2305 C2321 1.429 . S
C2305 H2327 0.950 . S
C2306 H2302 0.949 . S
C2306 C2314 1.574 . S
C2306 C2322 1.368 . S
H2307 C2315 0.950 . S
H2308 C2313 0.950 . S
H2309 C2314 0.949 . S
H2310 C2316 0.950 . S
H2311 C2317 0.950 . S
H2312 C2318 0.949 . S
C2313 H2308 0.950 . S
C2313 C2315 1.327 . S
C2313 C2319 1.429 . S
C2314 C2306 1.574 . S
C2314 H2309 0.949 . S
C2314 C2320 1.368 . S
C2315 C2299 1.349 . S
C2315 H2307 0.950 . S
C2315 C2313 1.327 . S
C2316 C2304 1.349 1_565 S
C2316 H2310 0.950 . S
C2316 C2317 1.327 . S
C2317 H2311 0.950 . S
C2317 C2316 1.327 . S
C2317 C2321 1.429 . S
C2318 C2301 1.574 . S
C2318 H2312 0.949 . S
C2318 C2322 1.368 . S
C2319 C2300 1.429 . S
C2319 C2313 1.429 . S
C2319 C2320 1.523 . S
C2320 C2301 1.368 . S
C2320 C2314 1.368 . S
C2320 C2319 1.523 . S
C2321 C2305 1.429 . S
C2321 C2317 1.429 . S
C2321 C2322 1.523 . S
C2322 C2306 1.368 . S
C2322 C2318 1.368 . S
C2322 C2321 1.523 . S
H2323 C2298 0.950 . S
H2324 C2300 0.950 . S
H2325 C2301 0.949 . S
H2326 C2303 0.950 . S
H2327 C2305 0.950 . S
C2328 C2329 1.349 . S
C2328 C2330 1.327 1_655 S
C2328 H2353 0.950 . S
C2329 C2328 1.349 . S
C2329 C2345 1.349 1_655 S
C2330 C2328 1.327 1_455 S
C2330 C2349 1.429 . S
C2330 H2354 0.950 . S
C2331 C2348 1.574 . S
C2331 C2350 1.368 . S
C2331 H2355 0.949 . S
H2332 C2336 0.949 . S
C2333 C2334 1.349 1_556 S
C2333 C2335 1.327 . S
C2333 H2356 0.950 . S
C2334 C2333 1.349 1_554 S
C2334 C2346 1.349 . S
C2335 C2333 1.327 . S
C2335 C2351 1.429 . S
C2335 H2357 0.950 . S
C2336 H2332 0.949 . S
C2336 C2344 1.574 . S
C2336 C2352 1.368 . S
H2337 C2345 0.950 . S
H2338 C2343 0.950 . S
H2339 C2344 0.949 . S
H2340 C2346 0.950 . S
H2341 C2347 0.950 . S
H2342 C2348 0.949 . S
C2343 H2338 0.950 . S
C2343 C2345 1.327 . S
C2343 C2349 1.429 . S
C2344 C2336 1.574 . S
C2344 H2339 0.949 . S
C2344 C2350 1.368 . S
C2345 C2329 1.349 1_455 S
C2345 H2337 0.950 . S
C2345 C2343 1.327 . S
C2346 C2334 1.349 . S
C2346 H2340 0.950 . S
C2346 C2347 1.327 1_554 S
C2347 H2341 0.950 . S
C2347 C2346 1.327 1_556 S
C2347 C2351 1.429 . S
C2348 C2331 1.574 . S
C2348 H2342 0.949 . S
C2348 C2352 1.368 . S
C2349 C2330 1.429 . S
C2349 C2343 1.429 . S
C2349 C2350 1.523 . S
C2350 C2331 1.368 . S
C2350 C2344 1.368 . S
C2350 C2349 1.523 . S
C2351 C2335 1.429 . S
C2351 C2347 1.429 . S
C2351 C2352 1.523 . S
C2352 C2336 1.368 . S
C2352 C2348 1.368 . S
C2352 C2351 1.523 . S
H2353 C2328 0.950 . S
H2354 C2330 0.950 . S
H2355 C2331 0.949 . S
H2356 C2333 0.950 . S
H2357 C2335 0.950 . S
C2358 C2359 1.349 . S
C2358 C2360 1.327 . S
C2358 H2383 0.950 . S
C2359 C2358 1.349 . S
C2359 C2375 1.349 . S
C2360 C2358 1.327 . S
C2360 C2379 1.429 . S
C2360 H2384 0.950 . S
C2361 C2378 1.574 . S
C2361 C2380 1.368 . S
C2361 H2385 0.949 . S
H2362 C2366 0.949 . S
C2363 C2364 1.349 . S
C2363 C2365 1.327 . S
C2363 H2386 0.950 . S
C2364 C2363 1.349 . S
C2364 C2376 1.349 . S
C2365 C2363 1.327 . S
C2365 C2381 1.429 . S
C2365 H2387 0.950 . S
C2366 H2362 0.949 . S
C2366 C2374 1.574 . S
C2366 C2382 1.368 . S
H2367 C2375 0.950 . S
H2368 C2373 0.950 . S
H2369 C2374 0.949 . S
H2370 C2376 0.950 . S
H2371 C2377 0.950 . S
H2372 C2378 0.949 . S
C2373 H2368 0.950 . S
C2373 C2375 1.327 . S
C2373 C2379 1.429 . S
C2374 C2366 1.574 . S
C2374 H2369 0.949 . S
C2374 C2380 1.368 . S
C2375 C2359 1.349 . S
C2375 H2367 0.950 . S
C2375 C2373 1.327 . S
C2376 C2364 1.349 . S
C2376 H2370 0.950 . S
C2376 C2377 1.327 . S
C2377 H2371 0.950 . S
C2377 C2376 1.327 . S
C2377 C2381 1.429 . S
C2378 C2361 1.574 . S
C2378 H2372 0.949 . S
C2378 C2382 1.368 . S
C2379 C2360 1.429 . S
C2379 C2373 1.429 . S
C2379 C2380 1.523 . S
C2380 C2361 1.368 . S
C2380 C2374 1.368 . S
C2380 C2379 1.523 . S
C2381 C2365 1.429 . S
C2381 C2377 1.429 . S
C2381 C2382 1.523 . S
C2382 C2366 1.368 . S
C2382 C2378 1.368 . S
C2382 C2381 1.523 . S
H2383 C2358 0.950 . S
H2384 C2360 0.950 . S
H2385 C2361 0.949 . S
H2386 C2363 0.950 . S
H2387 C2365 0.950 . S
C2388 C2389 1.349 . S
C2388 C2390 1.327 1_556 S
C2388 H2413 0.950 . S
C2389 C2388 1.349 . S
C2389 C2405 1.349 1_556 S
C2390 C2388 1.327 1_554 S
C2390 C2409 1.429 . S
C2390 H2414 0.950 . S
C2391 C2408 1.574 . S
C2391 C2410 1.368 . S
C2391 H2415 0.949 . S
H2392 C2396 0.949 . S
C2393 C2394 1.349 . S
C2393 C2395 1.327 . S
C2393 H2416 0.950 . S
C2394 C2393 1.349 . S
C2394 C2406 1.349 . S
C2395 C2393 1.327 . S
C2395 C2411 1.429 . S
C2395 H2417 0.950 . S
C2396 H2392 0.949 . S
C2396 C2404 1.574 . S
C2396 C2412 1.368 . S
H2397 C2405 0.950 . S
H2398 C2403 0.950 . S
H2399 C2404 0.949 . S
H2400 C2406 0.950 . S
H2401 C2407 0.950 . S
H2402 C2408 0.949 . S
C2403 H2398 0.950 . S
C2403 C2405 1.327 . S
C2403 C2409 1.429 . S
C2404 C2396 1.574 . S
C2404 H2399 0.949 . S
C2404 C2410 1.368 . S
C2405 C2389 1.349 1_554 S
C2405 H2397 0.950 . S
C2405 C2403 1.327 . S
C2406 C2394 1.349 . S
C2406 H2400 0.950 . S
C2406 C2407 1.327 . S
C2407 H2401 0.950 . S
C2407 C2406 1.327 . S
C2407 C2411 1.429 . S
C2408 C2391 1.574 . S
C2408 H2402 0.949 . S
C2408 C2412 1.368 . S
C2409 C2390 1.429 . S
C2409 C2403 1.429 . S
C2409 C2410 1.523 . S
C2410 C2391 1.368 . S
C2410 C2404 1.368 . S
C2410 C2409 1.523 . S
C2411 C2395 1.429 . S
C2411 C2407 1.429 . S
C2411 C2412 1.523 . S
C2412 C2396 1.368 . S
C2412 C2408 1.368 . S
C2412 C2411 1.523 . S
H2413 C2388 0.950 . S
H2414 C2390 0.950 . S
H2415 C2391 0.949 . S
H2416 C2393 0.950 . S
H2417 C2395 0.950 . S
C2418 C2419 1.349 . S
C2418 C2420 1.327 . S
C2418 H2443 0.950 . S
C2419 C2418 1.349 . S
C2419 C2435 1.349 . S
C2420 C2418 1.327 . S
C2420 C2439 1.429 . S
C2420 H2444 0.950 . S
C2421 C2438 1.574 . S
C2421 C2440 1.368 . S
C2421 H2445 0.949 . S
H2422 C2426 0.949 . S
C2423 C2424 1.349 . S
C2423 C2425 1.327 1_455 S
C2423 H2446 0.950 . S
C2424 C2423 1.349 . S
C2424 C2436 1.349 1_455 S
C2425 C2423 1.327 1_655 S
C2425 C2441 1.429 . S
C2425 H2447 0.950 . S
C2426 H2422 0.949 . S
C2426 C2434 1.574 . S
C2426 C2442 1.368 . S
H2427 C2435 0.950 . S
H2428 C2433 0.950 . S
H2429 C2434 0.949 . S
H2430 C2436 0.950 . S
H2431 C2437 0.950 . S
H2432 C2438 0.949 . S
C2433 H2428 0.950 . S
C2433 C2435 1.327 . S
C2433 C2439 1.429 . S
C2434 C2426 1.574 . S
C2434 H2429 0.949 . S
C2434 C2440 1.368 . S
C2435 C2419 1.349 . S
C2435 H2427 0.950 . S
C2435 C2433 1.327 . S
C2436 C2424 1.349 1_655 S
C2436 H2430 0.950 . S
C2436 C2437 1.327 . S
C2437 H2431 0.950 . S
C2437 C2436 1.327 . S
C2437 C2441 1.429 . S
C2438 C2421 1.574 . S
C2438 H2432 0.949 . S
C2438 C2442 1.368 . S
C2439 C2420 1.429 . S
C2439 C2433 1.429 . S
C2439 C2440 1.523 . S
C2440 C2421 1.368 . S
C2440 C2434 1.368 . S
C2440 C2439 1.523 . S
C2441 C2425 1.429 . S
C2441 C2437 1.429 . S
C2441 C2442 1.523 . S
C2442 C2426 1.368 . S
C2442 C2438 1.368 . S
C2442 C2441 1.523 . S
H2443 C2418 0.950 . S
H2444 C2420 0.950 . S
H2445 C2421 0.949 . S
H2446 C2423 0.950 . S
H2447 C2425 0.950 . S
C2448 C2449 1.349 1_545 S
C2448 C2450 1.327 . S
C2448 H2473 0.950 . S
C2449 C2448 1.349 1_565 S
C2449 C2465 1.349 . S
C2450 C2448 1.327 . S
C2450 C2469 1.429 . S
C2450 H2474 0.950 . S
C2451 C2468 1.574 . S
C2451 C2470 1.368 . S
C2451 H2475 0.949 . S
H2452 C2456 0.949 . S
C2453 C2454 1.349 . S
C2453 C2455 1.327 1_455 S
C2453 H2476 0.950 . S
C2454 C2453 1.349 . S
C2454 C2466 1.349 1_455 S
C2455 C2453 1.327 1_655 S
C2455 C2471 1.429 . S
C2455 H2477 0.950 . S
C2456 H2452 0.949 . S
C2456 C2464 1.574 . S
C2456 C2472 1.368 . S
H2457 C2465 0.950 . S
H2458 C2463 0.950 . S
H2459 C2464 0.949 . S
H2460 C2466 0.950 . S
H2461 C2467 0.950 . S
H2462 C2468 0.949 . S
C2463 H2458 0.950 . S
C2463 C2465 1.327 1_545 S
C2463 C2469 1.429 . S
C2464 C2456 1.574 . S
C2464 H2459 0.949 . S
C2464 C2470 1.368 . S
C2465 C2449 1.349 . S
C2465 H2457 0.950 . S
C2465 C2463 1.327 1_565 S
C2466 C2454 1.349 1_655 S
C2466 H2460 0.950 . S
C2466 C2467 1.327 . S
C2467 H2461 0.950 . S
C2467 C2466 1.327 . S
C2467 C2471 1.429 . S
C2468 C2451 1.574 . S
C2468 H2462 0.949 . S
C2468 C2472 1.368 . S
C2469 C2450 1.429 . S
C2469 C2463 1.429 . S
C2469 C2470 1.523 . S
C2470 C2451 1.368 . S
C2470 C2464 1.368 . S
C2470 C2469 1.523 . S
C2471 C2455 1.429 . S
C2471 C2467 1.429 . S
C2471 C2472 1.523 . S
C2472 C2456 1.368 . S
C2472 C2468 1.368 . S
C2472 C2471 1.523 . S
H2473 C2448 0.950 . S
H2474 C2450 0.950 . S
H2475 C2451 0.949 . S
H2476 C2453 0.950 . S
H2477 C2455 0.950 . S
C2478 C2479 1.349 1_565 S
C2478 C2480 1.327 . S
C2478 H2503 0.950 . S
C2479 C2478 1.349 1_545 S
C2479 C2495 1.349 . S
C2480 C2478 1.327 . S
C2480 C2499 1.429 . S
C2480 H2504 0.950 . S
C2481 C2498 1.574 . S
C2481 C2500 1.368 . S
C2481 H2505 0.949 . S
H2482 C2486 0.949 . S
C2483 C2484 1.349 . S
C2483 C2485 1.327 . S
C2483 H2506 0.950 . S
C2484 C2483 1.349 . S
C2484 C2496 1.349 . S
C2485 C2483 1.327 . S
C2485 C2501 1.429 . S
C2485 H2507 0.950 . S
C2486 H2482 0.949 . S
C2486 C2494 1.574 . S
C2486 C2502 1.368 . S
H2487 C2495 0.950 . S
H2488 C2493 0.950 . S
H2489 C2494 0.949 . S
H2490 C2496 0.950 . S
H2491 C2497 0.950 . S
H2492 C2498 0.949 . S
C2493 H2488 0.950 . S
C2493 C2495 1.327 1_565 S
C2493 C2499 1.429 . S
C2494 C2486 1.574 . S
C2494 H2489 0.949 . S
C2494 C2500 1.368 . S
C2495 C2479 1.349 . S
C2495 H2487 0.950 . S
C2495 C2493 1.327 1_545 S
C2496 C2484 1.349 . S
C2496 H2490 0.950 . S
C2496 C2497 1.327 . S
C2497 H2491 0.950 . S
C2497 C2496 1.327 . S
C2497 C2501 1.429 . S
C2498 C2481 1.574 . S
C2498 H2492 0.949 . S
C2498 C2502 1.368 . S
C2499 C2480 1.429 . S
C2499 C2493 1.429 . S
C2499 C2500 1.523 . S
C2500 C2481 1.368 . S
C2500 C2494 1.368 . S
C2500 C2499 1.523 . S
C2501 C2485 1.429 . S
C2501 C2497 1.429 . S
C2501 C2502 1.523 . S
C2502 C2486 1.368 . S
C2502 C2498 1.368 . S
C2502 C2501 1.523 . S
H2503 C2478 0.950 . S
H2504 C2480 0.950 . S
H2505 C2481 0.949 . S
H2506 C2483 0.950 . S
H2507 C2485 0.950 . S
C2508 C2509 1.349 . S
C2508 C2510 1.327 . S
C2508 H2533 0.950 . S
C2509 C2508 1.349 . S
C2509 C2525 1.349 . S
C2510 C2508 1.327 . S
C2510 C2529 1.429 . S
C2510 H2534 0.950 . S
C2511 C2528 1.574 . S
C2511 C2530 1.368 . S
C2511 H2535 0.949 . S
H2512 C2516 0.949 . S
C2513 C2514 1.349 . S
C2513 C2515 1.327 . S
C2513 H2536 0.950 . S
C2514 C2513 1.349 . S
C2514 C2526 1.349 . S
C2515 C2513 1.327 . S
C2515 C2531 1.429 . S
C2515 H2537 0.950 . S
C2516 H2512 0.949 . S
C2516 C2524 1.574 . S
C2516 C2532 1.368 . S
H2517 C2525 0.950 . S
H2518 C2523 0.950 . S
H2519 C2524 0.949 . S
H2520 C2526 0.950 . S
H2521 C2527 0.950 . S
H2522 C2528 0.949 . S
C2523 H2518 0.950 . S
C2523 C2525 1.327 . S
C2523 C2529 1.429 . S
C2524 C2516 1.574 . S
C2524 H2519 0.949 . S
C2524 C2530 1.368 . S
C2525 C2509 1.349 . S
C2525 H2517 0.950 . S
C2525 C2523 1.327 . S
C2526 C2514 1.349 . S
C2526 H2520 0.950 . S
C2526 C2527 1.327 . S
C2527 H2521 0.950 . S
C2527 C2526 1.327 . S
C2527 C2531 1.429 . S
C2528 C2511 1.574 . S
C2528 H2522 0.949 . S
C2528 C2532 1.368 . S
C2529 C2510 1.429 . S
C2529 C2523 1.429 . S
C2529 C2530 1.523 . S
C2530 C2511 1.368 . S
C2530 C2524 1.368 . S
C2530 C2529 1.523 . S
C2531 C2515 1.429 . S
C2531 C2527 1.429 . S
C2531 C2532 1.523 . S
C2532 C2516 1.368 . S
C2532 C2528 1.368 . S
C2532 C2531 1.523 . S
H2533 C2508 0.950 . S
H2534 C2510 0.950 . S
H2535 C2511 0.949 . S
H2536 C2513 0.950 . S
H2537 C2515 0.950 . S
C2538 C2539 1.349 . S
C2538 C2540 1.327 . S
C2538 H2563 0.950 . S
C2539 C2538 1.349 . S
C2539 C2555 1.349 . S
C2540 C2538 1.327 . S
C2540 C2559 1.429 . S
C2540 H2564 0.950 . S
C2541 C2558 1.574 . S
C2541 C2560 1.368 . S
C2541 H2565 0.949 . S
H2542 C2546 0.949 . S
C2543 C2544 1.349 1_455 S
C2543 C2545 1.327 . S
C2543 H2566 0.950 . S
C2544 C2543 1.349 1_655 S
C2544 C2556 1.349 . S
C2545 C2543 1.327 . S
C2545 C2561 1.429 . S
C2545 H2567 0.950 . S
C2546 H2542 0.949 . S
C2546 C2554 1.574 . S
C2546 C2562 1.368 . S
H2547 C2555 0.950 . S
H2548 C2553 0.950 . S
H2549 C2554 0.949 . S
H2550 C2556 0.950 . S
H2551 C2557 0.950 . S
H2552 C2558 0.949 . S
C2553 H2548 0.950 . S
C2553 C2555 1.327 . S
C2553 C2559 1.429 . S
C2554 C2546 1.574 . S
C2554 H2549 0.949 . S
C2554 C2560 1.368 . S
C2555 C2539 1.349 . S
C2555 H2547 0.950 . S
C2555 C2553 1.327 . S
C2556 C2544 1.349 . S
C2556 H2550 0.950 . S
C2556 C2557 1.327 1_655 S
C2557 H2551 0.950 . S
C2557 C2556 1.327 1_455 S
C2557 C2561 1.429 . S
C2558 C2541 1.574 . S
C2558 H2552 0.949 . S
C2558 C2562 1.368 . S
C2559 C2540 1.429 . S
C2559 C2553 1.429 . S
C2559 C2560 1.523 . S
C2560 C2541 1.368 . S
C2560 C2554 1.368 . S
C2560 C2559 1.523 . S
C2561 C2545 1.429 . S
C2561 C2557 1.429 . S
C2561 C2562 1.523 . S
C2562 C2546 1.368 . S
C2562 C2558 1.368 . S
C2562 C2561 1.523 . S
H2563 C2538 0.950 . S
H2564 C2540 0.950 . S
H2565 C2541 0.949 . S
H2566 C2543 0.950 . S
H2567 C2545 0.950 . S
C2568 C2569 1.349 1_554 S
C2568 C2570 1.327 . S
C2568 H2593 0.950 . S
C2569 C2568 1.349 1_556 S
C2569 C2585 1.349 . S
C2570 C2568 1.327 . S
C2570 C2589 1.429 . S
C2570 H2594 0.950 . S
C2571 C2588 1.574 . S
C2571 C2590 1.368 . S
C2571 H2595 0.949 . S
H2572 C2576 0.949 . S
C2573 C2574 1.349 . S
C2573 C2575 1.327 1_545 S
C2573 H2596 0.950 . S
C2574 C2573 1.349 . S
C2574 C2586 1.349 1_545 S
C2575 C2573 1.327 1_565 S
C2575 C2591 1.429 . S
C2575 H2597 0.950 . S
C2576 H2572 0.949 . S
C2576 C2584 1.574 . S
C2576 C2592 1.368 . S
H2577 C2585 0.950 . S
H2578 C2583 0.950 1_556 S
H2579 C2584 0.949 . S
H2580 C2586 0.950 . S
H2581 C2587 0.950 . S
H2582 C2588 0.949 . S
C2583 H2578 0.950 1_554 S
C2583 C2585 1.327 1_554 S
C2583 C2589 1.429 . S
C2584 C2576 1.574 . S
C2584 H2579 0.949 . S
C2584 C2590 1.368 . S
C2585 C2569 1.349 . S
C2585 H2577 0.950 . S
C2585 C2583 1.327 1_556 S
C2586 C2574 1.349 1_565 S
C2586 H2580 0.950 . S
C2586 C2587 1.327 . S
C2587 H2581 0.950 . S
C2587 C2586 1.327 . S
C2587 C2591 1.429 . S
C2588 C2571 1.574 . S
C2588 H2582 0.949 . S
C2588 C2592 1.368 . S
C2589 C2570 1.429 . S
C2589 C2583 1.429 . S
C2589 C2590 1.523 . S
C2590 C2571 1.368 . S
C2590 C2584 1.368 . S
C2590 C2589 1.523 . S
C2591 C2575 1.429 . S
C2591 C2587 1.429 . S
C2591 C2592 1.523 . S
C2592 C2576 1.368 . S
C2592 C2588 1.368 . S
C2592 C2591 1.523 . S
H2593 C2568 0.950 . S
H2594 C2570 0.950 . S
H2595 C2571 0.949 . S
H2596 C2573 0.950 . S
H2597 C2575 0.950 . S
C2598 C2599 1.349 . S
C2598 C2600 1.327 . S
C2598 H2623 0.950 . S
C2599 C2598 1.349 . S
C2599 C2615 1.349 . S
C2600 C2598 1.327 . S
C2600 C2619 1.429 . S
C2600 H2624 0.950 . S
C2601 C2618 1.574 . S
C2601 C2620 1.368 . S
C2601 H2625 0.949 . S
H2602 C2606 0.949 . S
C2603 C2604 1.349 . S
C2603 C2605 1.327 1_554 S
C2603 H2626 0.950 . S
C2604 C2603 1.349 . S
C2604 C2616 1.349 1_554 S
C2605 C2603 1.327 1_556 S
C2605 C2621 1.429 . S
C2605 H2627 0.950 1_556 S
C2606 H2602 0.949 . S
C2606 C2614 1.574 . S
C2606 C2622 1.368 . S
H2607 C2615 0.950 . S
H2608 C2613 0.950 . S
H2609 C2614 0.949 . S
H2610 C2616 0.950 . S
H2611 C2617 0.950 . S
H2612 C2618 0.949 . S
C2613 H2608 0.950 . S
C2613 C2615 1.327 . S
C2613 C2619 1.429 . S
C2614 C2606 1.574 . S
C2614 H2609 0.949 . S
C2614 C2620 1.368 . S
C2615 C2599 1.349 . S
C2615 H2607 0.950 . S
C2615 C2613 1.327 . S
C2616 C2604 1.349 1_556 S
C2616 H2610 0.950 . S
C2616 C2617 1.327 . S
C2617 H2611 0.950 . S
C2617 C2616 1.327 . S
C2617 C2621 1.429 . S
C2618 C2601 1.574 . S
C2618 H2612 0.949 . S
C2618 C2622 1.368 . S
C2619 C2600 1.429 . S
C2619 C2613 1.429 . S
C2619 C2620 1.523 . S
C2620 C2601 1.368 . S
C2620 C2614 1.368 . S
C2620 C2619 1.523 . S
C2621 C2605 1.429 . S
C2621 C2617 1.429 . S
C2621 C2622 1.523 . S
C2622 C2606 1.368 . S
C2622 C2618 1.368 . S
C2622 C2621 1.523 . S
H2623 C2598 0.950 . S
H2624 C2600 0.950 . S
H2625 C2601 0.949 . S
H2626 C2603 0.950 . S
H2627 C2605 0.950 1_554 S
C2628 C2629 1.349 . S
C2628 C2630 1.327 . S
C2628 H2653 0.950 . S
C2629 C2628 1.349 . S
C2629 C2645 1.349 . S
C2630 C2628 1.327 . S
C2630 C2649 1.429 . S
C2630 H2654 0.950 . S
C2631 C2648 1.574 . S
C2631 C2650 1.368 . S
C2631 H2655 0.949 . S
H2632 C2636 0.949 . S
C2633 C2634 1.349 . S
C2633 C2635 1.327 . S
C2633 H2656 0.950 . S
C2634 C2633 1.349 . S
C2634 C2646 1.349 . S
C2635 C2633 1.327 . S
C2635 C2651 1.429 . S
C2635 H2657 0.950 . S
C2636 H2632 0.949 . S
C2636 C2644 1.574 . S
C2636 C2652 1.368 . S
H2637 C2645 0.950 . S
H2638 C2643 0.950 . S
H2639 C2644 0.949 . S
H2640 C2646 0.950 . S
H2641 C2647 0.950 . S
H2642 C2648 0.949 . S
C2643 H2638 0.950 . S
C2643 C2645 1.327 . S
C2643 C2649 1.429 . S
C2644 C2636 1.574 . S
C2644 H2639 0.949 . S
C2644 C2650 1.368 . S
C2645 C2629 1.349 . S
C2645 H2637 0.950 . S
C2645 C2643 1.327 . S
C2646 C2634 1.349 . S
C2646 H2640 0.950 . S
C2646 C2647 1.327 . S
C2647 H2641 0.950 . S
C2647 C2646 1.327 . S
C2647 C2651 1.429 . S
C2648 C2631 1.574 . S
C2648 H2642 0.949 . S
C2648 C2652 1.368 . S
C2649 C2630 1.429 . S
C2649 C2643 1.429 . S
C2649 C2650 1.523 . S
C2650 C2631 1.368 . S
C2650 C2644 1.368 . S
C2650 C2649 1.523 . S
C2651 C2635 1.429 . S
C2651 C2647 1.429 . S
C2651 C2652 1.523 . S
C2652 C2636 1.368 . S
C2652 C2648 1.368 . S
C2652 C2651 1.523 . S
H2653 C2628 0.950 . S
H2654 C2630 0.950 . S
H2655 C2631 0.949 . S
H2656 C2633 0.950 . S
H2657 C2635 0.950 . S
C2658 C2659 1.349 . S
C2658 C2660 1.327 . S
C2658 H2683 0.950 . S
C2659 C2658 1.349 . S
C2659 C2675 1.349 . S
C2660 C2658 1.327 . S
C2660 C2679 1.429 . S
C2660 H2684 0.950 . S
C2661 C2678 1.574 . S
C2661 C2680 1.368 . S
C2661 H2685 0.949 . S
H2662 C2666 0.949 . S
C2663 C2664 1.349 . S
C2663 C2665 1.327 1_565 S
C2663 H2686 0.950 . S
C2664 C2663 1.349 . S
C2664 C2676 1.349 1_565 S
C2665 C2663 1.327 1_545 S
C2665 C2681 1.429 . S
C2665 H2687 0.950 . S
C2666 H2662 0.949 . S
C2666 C2674 1.574 . S
C2666 C2682 1.368 . S
H2667 C2675 0.950 . S
H2668 C2673 0.950 . S
H2669 C2674 0.949 . S
H2670 C2676 0.950 . S
H2671 C2677 0.950 . S
H2672 C2678 0.949 . S
C2673 H2668 0.950 . S
C2673 C2675 1.327 . S
C2673 C2679 1.429 . S
C2674 C2666 1.574 . S
C2674 H2669 0.949 . S
C2674 C2680 1.368 . S
C2675 C2659 1.349 . S
C2675 H2667 0.950 . S
C2675 C2673 1.327 . S
C2676 C2664 1.349 1_545 S
C2676 H2670 0.950 . S
C2676 C2677 1.327 . S
C2677 H2671 0.950 . S
C2677 C2676 1.327 . S
C2677 C2681 1.429 . S
C2678 C2661 1.574 . S
C2678 H2672 0.949 . S
C2678 C2682 1.368 . S
C2679 C2660 1.429 . S
C2679 C2673 1.429 . S
C2679 C2680 1.523 . S
C2680 C2661 1.368 . S
C2680 C2674 1.368 . S
C2680 C2679 1.523 . S
C2681 C2665 1.429 . S
C2681 C2677 1.429 . S
C2681 C2682 1.523 . S
C2682 C2666 1.368 . S
C2682 C2678 1.368 . S
C2682 C2681 1.523 . S
H2683 C2658 0.950 . S
H2684 C2660 0.950 . S
H2685 C2661 0.949 . S
H2686 C2663 0.950 . S
H2687 C2665 0.950 . S
C529 C18 1.678 . S
C534 C417 1.629 . S
C559 C426 1.593 . S
C564 C40 1.623 . S
C589 C52 1.678 . S
C594 C367 1.630 1_545 S
C619 C74 1.679 . S
C624 C389 1.630 1_565 S
C649 C505 1.631 . S
C654 C98 1.679 . S
C679 C118 1.687 . S
C684 C477 1.639 1_556 S
C709 C513 1.627 . S
C714 C140 1.676 . S
C739 C164 1.678 . S
C744 C455 1.630 1_554 S
C769 C186 1.694 . S
C774 C307 1.645 . S
C799 C216 1.683 . S
C804 C345 1.635 1_655 S
C829 C315 1.628 . S
C834 C238 1.677 . S
C859 C250 1.687 . S
C864 C279 1.639 1_455 S
C889 C282 1.667 . S
C894 C139 1.619 . S
C919 C296 1.682 . S
C924 C175 1.634 . S
C949 C316 1.682 . S
C954 C109 1.633 1_565 S
C979 C117 1.624 1_545 S
C984 C348 1.672 . S
C1009 C370 1.680 . S
C1014 C235 1.631 . S
C1039 C213 1.629 1_554 S
C1044 C392 1.677 . S
C1069 C249 1.629 . S
C1074 C406 1.678 . S
C1099 C197 1.681 1_556 S
C1104 C425 1.725 . S
C1129 C37 1.626 . S
C1134 C458 1.675 . S
C1159 C73 1.623 1_455 S
C1164 C480 1.671 . S
C1189 C51 1.619 . S
C1194 C494 1.666 . S
C1219 C514 1.677 . S
C1224 C15 1.629 1_655 S
C1249 C106 0.851 . S
C1254 C10 0.844 . S
C1279 C120 0.858 . S
C1284 C32 0.851 . S
C1309 C142 0.852 . S
C1314 C62 0.845 . S
C1339 C172 0.854 . S
C1344 C84 0.846 . S
C1369 C96 0.857 . S
C1374 C194 0.865 . S
C1399 C128 0.844 . S
C1404 C252 0.851 . S
C1429 C150 0.843 . S
C1434 C206 0.851 . S
C1459 C162 0.842 . S
C1464 C228 0.850 . S
C1489 C184 0.847 . S
C1494 C8 0.855 . S
C1519 C208 0.845 . S
C1524 C54 0.853 . S
C1549 C230 0.841 . S
C1554 C76 0.848 . S
C1579 C30 0.862 . S
C1584 C260 0.854 . S
C1609 C360 0.851 . S
C1614 C274 0.844 . S
C1639 C382 0.854 . S
C1644 C294 0.847 . S
C1669 C326 0.849 . S
C1674 C414 0.856 . S
C1699 C340 0.886 . S
C1704 C433 0.901 . S
C1729 C448 0.849 . S
C1734 C362 0.842 . S
C1759 C384 0.845 . S
C1764 C516 0.852 . S
C1789 C470 0.843 . S
C1794 C404 0.836 . S
C1819 C439 0.887 . S
C1824 C502 0.902 . S
C1849 C272 0.845 . S
C1854 C450 0.838 . S
C1879 C472 0.844 . S
C1884 C318 0.852 . S
C1909 C492 0.831 . S
C1914 C338 0.838 . S
C1939 C304 0.859 . S
C1944 C524 0.851 . S
C1969 C21 1.216 . S
C1974 C205 1.213 . S
C1999 C227 1.203 . S
C2004 C43 1.206 . S
C2029 C191 1.212 . S
C2034 C59 1.216 . S
C2059 C263 1.215 . S
C2064 C81 1.218 . S
C2089 C95 1.220 . S
C2094 C87 1.217 . S
C2119 C65 1.218 . S
C2124 C125 1.221 . S
C2149 C147 1.212 . S
C2154 C29 1.209 . S
C2179 C7 1.221 . S
C2184 C161 1.224 . S
C2209 C183 1.210 . S
C2214 C131 1.207 . S
C2239 C219 1.221 . S
C2244 C169 1.218 . S
C2269 C241 1.222 . S
C2274 C153 1.219 . S
C2299 C257 1.223 . S
C2304 C103 1.220 . S
C2329 C285 1.238 . S
C2334 C469 1.235 . S
C2359 C293 1.233 . S
C2364 C499 1.230 . S
C2389 C447 1.223 . S
C2394 C323 1.226 . S
C2419 C527 1.228 . S
C2424 C351 1.232 . S
C2449 C373 1.228 . S
C2454 C337 1.225 . S
C2479 C395 1.222 . S
C2484 C329 1.219 . S
C2509 C301 1.216 . S
C2514 C403 1.219 . S
C2539 C428 1.170 . S
C2544 C271 1.165 . S
C2569 C461 1.221 . S
C2574 C381 1.218 . S
C2599 C436 1.166 . S
C2604 C483 1.176 . S
C2629 C491 1.228 . S
C2634 C411 1.225 . S
C2659 C521 1.217 . S
C2664 C359 1.214 . S
