# Generated by pormake.
# Topology bcu-g, (3)-cn, num edge types: 1
# Building blocks:
#     Node 0, Type 0, BuildingBlock: WUSLED_clean_sbu_0, # of connection points: 3
#     Node 1, Type 0, BuildingBlock: WUSLED_clean_sbu_0, # of connection points: 3
#     Node 2, Type 0, BuildingBlock: WUSLED_clean_sbu_0, # of connection points: 3
#     Node 3, Type 0, BuildingBlock: WUSLED_clean_sbu_0, # of connection points: 3
#     Node 4, Type 0, BuildingBlock: WUSLED_clean_sbu_0, # of connection points: 3
#     Node 5, Type 0, BuildingBlock: WUSLED_clean_sbu_0, # of connection points: 3
#     Node 6, Type 0, BuildingBlock: WUSLED_clean_sbu_0, # of connection points: 3
#     Node 7, Type 0, BuildingBlock: WUSLED_clean_sbu_0, # of connection points: 3
#     Node 8, Type 0, BuildingBlock: WUSLED_clean_sbu_0, # of connection points: 3
#     Node 9, Type 0, BuildingBlock: WUSLED_clean_sbu_0, # of connection points: 3
#     Node 10, Type 0, BuildingBlock: WUSLED_clean_sbu_0, # of connection points: 3
#     Node 11, Type 0, BuildingBlock: WUSLED_clean_sbu_0, # of connection points: 3
#     Node 12, Type 0, BuildingBlock: WUSLED_clean_sbu_0, # of connection points: 3
#     Node 13, Type 0, BuildingBlock: WUSLED_clean_sbu_0, # of connection points: 3
#     Node 14, Type 0, BuildingBlock: WUSLED_clean_sbu_0, # of connection points: 3
#     Node 15, Type 0, BuildingBlock: WUSLED_clean_sbu_0, # of connection points: 3
#     Edge 16, Type (0, 0), None
#     Edge 17, Type (0, 0), None
#     Edge 18, Type (0, 0), None
#     Edge 19, Type (0, 0), None
#     Edge 20, Type (0, 0), None
#     Edge 21, Type (0, 0), None
#     Edge 22, Type (0, 0), None
#     Edge 23, Type (0, 0), None
#     Edge 24, Type (0, 0), None
#     Edge 25, Type (0, 0), None
#     Edge 26, Type (0, 0), None
#     Edge 27, Type (0, 0), None
#     Edge 28, Type (0, 0), None
#     Edge 29, Type (0, 0), None
#     Edge 30, Type (0, 0), None
#     Edge 31, Type (0, 0), None
#     Edge 32, Type (0, 0), None
#     Edge 33, Type (0, 0), None
#     Edge 34, Type (0, 0), None
#     Edge 35, Type (0, 0), None
#     Edge 36, Type (0, 0), None
#     Edge 37, Type (0, 0), None
#     Edge 38, Type (0, 0), None
#     Edge 39, Type (0, 0), None
# Relax obj value: 0.198
# Max RMSD: 0.158
# Mean RMSD: 0.116
data_MOF--net-bcu-g--node1-WUSLED_clean_sbu_0--edge1-none
_symmetry_space_group_name_H-M    P1
_symmetry_Int_Tables_number       1
_symmetry_cell_setting            triclinic
loop_
_symmetry_equiv_pos_as_xyz
'x, y, z'
_cell_length_a     35.65625
_cell_length_b     35.559299
_cell_length_c     41.623148
_cell_angle_alpha  89.763622
_cell_angle_beta   90.229839
_cell_angle_gamma 90.27154
loop_
_atom_site_label
_atom_site_type_symbol
_atom_site_fract_x
_atom_site_fract_y
_atom_site_fract_z
_atom_type_partial_charge
C0 C 0.68164 0.22399 0.0222 0.0
C1 C 0.68294 0.18476 0.01872 0.0
C2 C 0.6382 0.18803 0.97434 0.0
C3 C 0.66145 0.16694 0.99498 0.0
C4 C 0.63802 0.22745 0.97731 0.0
C5 C 0.65936 0.24518 1.00113 0.0
U6 U 0.72277 0.22273 0.10676 0.0
O7 O 0.72052 0.26643 0.14395 0.0
O8 O 0.77483 0.24858 0.12495 0.0
C9 C 0.75723 0.26849 0.14674 0.0
C10 C 0.70141 0.24293 0.04879 0.0
C11 C 0.77281 0.26716 0.17983 0.0
C12 C 0.82588 0.2582 0.21593 0.0
C13 C 0.81109 0.26024 0.18486 0.0
C14 C 0.76492 0.27242 0.23774 0.0
C15 C 0.80286 0.26316 0.24301 0.0
C16 C 0.75009 0.27426 0.20662 0.0
C17 C 0.7147 0.12744 0.15337 0.0
C18 C 0.74061 0.06852 0.17329 0.0
C19 C 0.69629 0.10276 0.20578 0.0
C20 C 0.69408 0.1307 0.18198 0.0
C21 C 0.71906 0.07095 0.20143 0.0
C22 C 0.73827 0.09627 0.14953 0.0
C23 C 0.7091 0.15346 0.12585 0.0
O24 O 0.68108 0.24871 0.07454 0.0
O25 O 0.73528 0.23058 0.05543 0.0
O26 O 0.7392 0.16323 0.10962 0.0
O27 O 0.6852 0.18119 0.12941 0.0
H28 H 0.69981 0.16781 0.03488 0.0
H29 H 0.66242 0.13658 0.99321 0.0
H30 H 0.61996 0.24453 0.96227 0.0
H31 H 0.65746 0.27539 1.00377 0.0
H32 H 0.85525 0.25144 0.2184 0.0
H33 H 0.82967 0.25576 0.16474 0.0
H34 H 0.74636 0.27827 0.25754 0.0
H35 H 0.7207 0.28108 0.20363 0.0
H36 H 0.75796 0.0442 0.16881 0.0
H37 H 0.67963 0.10569 0.22731 0.0
H38 H 0.67551 0.15428 0.1857 0.0
H39 H 0.75408 0.09269 0.12759 0.0
C40 C 0.70959 0.44637 0.11199 0.0
C41 C 0.73154 0.41685 0.12417 0.0
C42 C 0.72466 0.38312 0.07343 0.0
C43 C 0.73886 0.38533 0.10507 0.0
C44 C 0.70086 0.41191 0.06235 0.0
C45 C 0.69336 0.44303 0.08148 0.0
U46 U 0.70632 0.51887 0.18291 0.0
O47 O 0.67362 0.57118 0.18241 0.0
O48 O 0.73512 0.57378 0.18153 0.0
C49 C 0.70365 0.59277 0.18271 0.0
C50 C 0.70721 0.48311 0.12792 0.0
C51 C 0.70325 0.62512 0.20463 0.0
C52 C 0.71597 0.69156 0.21309 0.0
C53 C 0.71671 0.65984 0.19342 0.0
C54 C 0.68829 0.65418 0.2557 0.0
C55 C 0.70164 0.68921 0.24446 0.0
C56 C 0.68913 0.62237 0.23596 0.0
C57 C 0.71078 0.44132 0.24917 0.0
C58 C 0.67985 0.38839 0.27556 0.0
C59 C 0.74744 0.38935 0.27105 0.0
C60 C 0.74551 0.42381 0.25471 0.0
C61 C 0.71469 0.37169 0.28242 0.0
C62 C 0.67793 0.42282 0.25928 0.0
C63 C 0.70903 0.48062 0.23701 0.0
O64 O 0.67601 0.49115 0.14308 0.0
O65 O 0.73763 0.49529 0.14256 0.0
O66 O 0.67747 0.49129 0.22333 0.0
O67 O 0.73901 0.49408 0.22254 0.0
H68 H 0.74429 0.41888 0.14777 0.0
H69 H 0.75672 0.3634 0.11465 0.0
H70 H 0.68983 0.41181 0.03809 0.0
H71 H 0.67657 0.46566 0.07159 0.0
H72 H 0.72707 0.71783 0.20381 0.0
H73 H 0.7278 0.66246 0.1693 0.0
H74 H 0.67672 0.65142 0.27961 0.0
H75 H 0.67856 0.59579 0.24505 0.0
H76 H 0.65405 0.37596 0.28436 0.0
H77 H 0.77467 0.37706 0.27567 0.0
H78 H 0.77131 0.43747 0.2475 0.0
H79 H 0.65074 0.43572 0.25588 0.0
C80 C 0.8502 0.17137 0.17183 0.0
C81 C 0.87215 0.17622 0.19966 0.0
C82 C 0.81863 0.15969 0.23339 0.0
C83 C 0.85649 0.17056 0.23011 0.0
C84 C 0.79711 0.15433 0.2054 0.0
C85 C 0.81269 0.16012 0.17507 0.0
U86 U 0.89399 0.23095 0.10369 0.0
O87 O 0.88107 0.22927 0.05189 0.0
O88 O 0.93697 0.21326 0.06924 0.0
C89 C 0.91523 0.21905 0.04415 0.0
C90 C 0.86573 0.17666 0.13922 0.0
C91 C 0.93281 0.23906 0.01705 0.0
C92 C 0.96437 0.23545 0.96555 0.0
C93 C 0.94468 0.21816 0.99056 0.0
C94 C 0.95936 0.29537 0.9926 0.0
C95 C 0.97261 0.27419 0.96642 0.0
C96 C 0.9397 0.27792 0.01776 0.0
C97 C 0.89295 0.31652 0.16098 0.0
C98 C 0.90925 0.3295 0.21682 0.0
C99 C 0.86446 0.369 0.18901 0.0
C100 C 0.86804 0.34694 0.16149 0.0
C101 C 0.88587 0.36129 0.21675 0.0
C102 C 0.91276 0.30733 0.18924 0.0
C103 C 0.9005 0.29763 0.13 0.0
O104 O 0.90192 0.18342 0.13698 0.0
O105 O 0.8455 0.19716 0.11938 0.0
O106 O 0.92785 0.27293 0.12952 0.0
O107 O 0.87107 0.28731 0.11298 0.0
H108 H 0.90123 0.18491 0.19802 0.0
H109 H 0.87386 0.17572 0.25104 0.0
H110 H 0.76824 0.14525 0.20687 0.0
H111 H 0.7954 0.15574 0.154 0.0
H112 H 0.97461 0.21797 0.94627 0.0
H113 H 0.93971 0.18809 0.98967 0.0
H114 H 0.96479 0.32531 0.99396 0.0
H115 H 0.93065 0.29453 0.03804 0.0
H116 H 0.92566 0.32238 0.23791 0.0
H117 H 0.8465 0.39343 0.1878 0.0
H118 H 0.8525 0.35472 0.14007 0.0
H119 H 0.93195 0.28383 0.18978 0.0
C120 C 0.88683 0.93474 0.08305 0.0
C121 C 0.8573 0.95926 0.0902 0.0
C122 C 0.85941 0.98462 0.03568 0.0
C123 C 0.84376 0.98402 0.06671 0.0
C124 C 0.89107 0.96244 0.02961 0.0
C125 C 0.90457 0.93765 0.05309 0.0
U126 U 0.90139 0.87241 0.16091 0.0
O127 O 0.87615 0.81606 0.1651 0.0
O128 O 0.93735 0.82231 0.16394 0.0
C129 C 0.90873 0.79924 0.16756 0.0
C130 C 0.89442 0.90127 0.10303 0.0
C131 C 0.91163 0.77123 0.19353 0.0
C132 C 0.90198 0.70689 0.21166 0.0
C133 C 0.90085 0.73402 0.1873 0.0
C134 C 0.92519 0.75385 0.24887 0.0
C135 C 0.91404 0.71644 0.24281 0.0
C136 C 0.92388 0.78105 0.22445 0.0
C137 C 0.89593 0.95303 0.22605 0.0
C138 C 0.92656 0.00452 0.25464 0.0
C139 C 0.85907 0.99809 0.25648 0.0
C140 C 0.86106 0.96667 0.23637 0.0
C141 C 0.89193 0.01648 0.26691 0.0
C142 C 0.92855 0.97311 0.23457 0.0
C143 C 0.89895 0.9145 0.21266 0.0
O144 O 0.92702 0.89851 0.11775 0.0
O145 O 0.8662 0.88796 0.11989 0.0
O146 O 0.93031 0.90545 0.19812 0.0
O147 O 0.86896 0.89924 0.19946 0.0
H148 H 0.84316 0.95764 0.11315 0.0
H149 H 0.81977 1.00135 0.07231 0.0
H150 H 0.9037 0.96217 0.00599 0.0
H151 H 0.9272 0.91878 0.04699 0.0
H152 H 0.89255 0.67863 0.20621 0.0
H153 H 0.89105 0.72602 0.1636 0.0
H154 H 0.93503 0.76213 0.27245 0.0
H155 H 0.93219 0.80971 0.22975 0.0
H156 H 0.9525 0.0177 0.26235 0.0
H157 H 0.83192 0.00694 0.26511 0.0
H158 H 0.83542 0.95173 0.23051 0.0
H159 H 0.95595 0.96316 0.22749 0.0
C160 C 0.67937 0.18647 0.48478 0.0
C161 C 0.6799 0.22578 0.4878 0.0
C162 C 0.63583 0.22185 0.53236 0.0
C163 C 0.65837 0.24331 0.51141 0.0
C164 C 0.63647 0.18239 0.52986 0.0
C165 C 0.65787 0.16494 0.50619 0.0
U166 U 0.72044 0.18794 0.40042 0.0
O167 O 0.7172 0.14467 0.3629 0.0
O168 O 0.77197 0.16154 0.3825 0.0
C169 C 0.75388 0.14262 0.36018 0.0
C170 C 0.699 0.16773 0.45827 0.0
C171 C 0.76935 0.14602 0.32741 0.0
C172 C 0.82269 0.14023 0.29159 0.0
C173 C 0.8068 0.13624 0.32205 0.0
C174 C 0.76365 0.16381 0.27112 0.0
C175 C 0.80144 0.15438 0.26572 0.0
C176 C 0.74776 0.15965 0.3016 0.0
C177 C 0.7137 0.2817 0.35219 0.0
C178 C 0.74385 0.337 0.32887 0.0
C179 C 0.68958 0.30963 0.30271 0.0
C180 C 0.68802 0.28165 0.32643 0.0
C181 C 0.71679 0.33835 0.3042 0.0
C182 C 0.7422 0.30914 0.35264 0.0
C183 C 0.708 0.25701 0.38062 0.0
O184 O 0.67857 0.16199 0.43239 0.0
O185 O 0.73294 0.18022 0.45185 0.0
O186 O 0.73806 0.24725 0.397 0.0
O187 O 0.68325 0.22965 0.37793 0.0
H188 H 0.69618 0.24296 0.47137 0.0
H189 H 0.65873 0.27372 0.51282 0.0
H190 H 0.61898 0.16499 0.54516 0.0
H191 H 0.65661 0.13463 0.50392 0.0
H192 H 0.85159 0.13204 0.28835 0.0
H193 H 0.82387 0.12585 0.34166 0.0
H194 H 0.74652 0.1756 0.25209 0.0
H195 H 0.71886 0.1679 0.30504 0.0
H196 H 0.76502 0.35879 0.33101 0.0
H197 H 0.66872 0.30945 0.28373 0.0
H198 H 0.66565 0.26099 0.32527 0.0
H199 H 0.76225 0.31019 0.37225 0.0
C200 C 0.88294 0.47006 0.42907 0.0
C201 C 0.85293 0.4457 0.42211 0.0
C202 C 0.8549 0.42106 0.47689 0.0
C203 C 0.83909 0.42136 0.44581 0.0
C204 C 0.887 0.44306 0.48281 0.0
C205 C 0.90081 0.46739 0.4591 0.0
U206 U 0.89821 0.53193 0.3509 0.0
O207 O 0.93513 0.58165 0.34801 0.0
O208 O 0.87407 0.58854 0.34659 0.0
C209 C 0.90697 0.60501 0.34426 0.0
C210 C 0.89101 0.50323 0.40881 0.0
C211 C 0.91035 0.63298 0.31829 0.0
C212 C 0.90227 0.69748 0.30017 0.0
C213 C 0.90063 0.67037 0.32452 0.0
C214 C 0.92386 0.65013 0.26296 0.0
C215 C 0.91378 0.68773 0.26901 0.0
C216 C 0.92204 0.62296 0.28737 0.0
C217 C 0.89099 0.45157 0.28543 0.0
C218 C 0.92103 0.39925 0.25806 0.0
C219 C 0.85417 0.40825 0.25262 0.0
C220 C 0.85625 0.43934 0.2731 0.0
C221 C 0.88673 0.38878 0.24377 0.0
C222 C 0.92315 0.43034 0.27853 0.0
C223 C 0.89473 0.48995 0.29909 0.0
O224 O 0.92358 0.50561 0.39417 0.0
O225 O 0.86293 0.51667 0.39181 0.0
O226 O 0.92632 0.49867 0.31378 0.0
O227 O 0.86506 0.50537 0.31225 0.0
H228 H 0.83866 0.44714 0.39911 0.0
H229 H 0.81477 0.40415 0.4403 0.0
H230 H 0.89978 0.44359 0.50645 0.0
H231 H 0.92382 0.48615 0.46507 0.0
H232 H 0.89366 0.7259 0.30562 0.0
H233 H 0.89128 0.67854 0.34822 0.0
H234 H 0.93325 0.64168 0.23937 0.0
H235 H 0.92954 0.59415 0.28208 0.0
H236 H 0.94679 0.38521 0.25162 0.0
H237 H 0.82734 0.40056 0.24234 0.0
H238 H 0.83097 0.45519 0.27763 0.0
H239 H 0.95048 0.43916 0.28718 0.0
C240 C 0.84689 0.23887 0.33814 0.0
C241 C 0.87066 0.25225 0.31375 0.0
C242 C 0.81788 0.25683 0.27632 0.0
C243 C 0.85637 0.26124 0.28334 0.0
C244 C 0.79407 0.24462 0.30126 0.0
C245 C 0.80834 0.23599 0.33169 0.0
U246 U 0.89121 0.17725 0.40588 0.0
O247 O 0.87718 0.17712 0.45741 0.0
O248 O 0.93265 0.19641 0.44157 0.0
C249 C 0.91073 0.18883 0.46607 0.0
C250 C 0.86152 0.23142 0.37097 0.0
C251 C 0.92867 0.16895 0.49311 0.0
C252 C 0.96146 0.17276 0.54427 0.0
C253 C 0.94149 0.18998 0.51934 0.0
C254 C 0.95487 0.11266 0.51764 0.0
C255 C 0.96903 0.13395 0.54357 0.0
C256 C 0.93494 0.13004 0.49257 0.0
C257 C 0.89587 0.09096 0.34853 0.0
C258 C 0.91516 0.07574 0.29396 0.0
C259 C 0.86778 0.03789 0.32035 0.0
C260 C 0.87051 0.06065 0.34756 0.0
C261 C 0.89074 0.04452 0.29348 0.0
C262 C 0.91772 0.09873 0.32118 0.0
C263 C 0.90168 0.11122 0.37928 0.0
O264 O 0.89786 0.22624 0.37392 0.0
O265 O 0.8417 0.20871 0.38934 0.0
O266 O 0.92747 0.13778 0.38001 0.0
O267 O 0.8714 0.11976 0.39562 0.0
H268 H 0.90036 0.25619 0.31819 0.0
H269 H 0.87572 0.27198 0.26556 0.0
H270 H 0.76432 0.24068 0.29738 0.0
H271 H 0.78901 0.22695 0.35018 0.0
H272 H 0.97241 0.19032 0.56336 0.0
H273 H 0.93702 0.22009 0.52011 0.0
H274 H 0.95977 0.08267 0.51641 0.0
H275 H 0.92517 0.11331 0.47248 0.0
H276 H 0.93296 0.08189 0.27356 0.0
H277 H 0.84907 0.01382 0.32113 0.0
H278 H 0.85357 0.05374 0.36834 0.0
H279 H 0.93759 0.12185 0.32108 0.0
C280 C 0.70779 0.96694 0.39641 0.0
C281 C 0.73092 0.99579 0.38446 0.0
C282 C 0.72455 0.03004 0.43489 0.0
C283 C 0.73907 0.02725 0.40351 0.0
C284 C 0.69945 1.00208 0.44565 0.0
C285 C 0.69113 0.97101 0.42656 0.0
U286 U 0.70527 0.89358 0.32619 0.0
O287 O 0.73301 0.83849 0.32905 0.0
O288 O 0.67165 0.84152 0.32594 0.0
C289 C 0.7013 0.81971 0.32695 0.0
C290 C 0.70486 0.93 0.38087 0.0
C291 C 0.70124 0.78718 0.30525 0.0
C292 C 0.71025 0.72003 0.29822 0.0
C293 C 0.71026 0.75176 0.31789 0.0
C294 C 0.69212 0.7588 0.2528 0.0
C295 C 0.70115 0.72308 0.26542 0.0
C296 C 0.69222 0.79062 0.27256 0.0
C297 C 0.71363 0.97017 0.2593 0.0
C298 C 0.68346 0.02578 0.23672 0.0
C299 C 0.7505 0.01797 0.23137 0.0
C300 C 0.74833 0.98408 0.24849 0.0
C301 C 0.71791 0.03865 0.22439 0.0
C302 C 0.68131 0.99189 0.25387 0.0
C303 C 0.71082 0.93112 0.2719 0.0
O304 O 0.67407 0.92233 0.36464 0.0
O305 O 0.73549 0.91703 0.36748 0.0
O306 O 0.67858 0.92068 0.28447 0.0
O307 O 0.74002 0.91788 0.28764 0.0
H308 H 0.74402 0.99319 0.36114 0.0
H309 H 0.75792 0.04857 0.39415 0.0
H310 H 0.68808 0.00268 0.46971 0.0
H311 H 0.67342 0.94889 0.43628 0.0
H312 H 0.71794 0.69319 0.30866 0.0
H313 H 0.71742 0.74864 0.34309 0.0
H314 H 0.68458 0.76212 0.22773 0.0
H315 H 0.68515 0.81778 0.26238 0.0
H316 H 0.65773 0.04071 0.23152 0.0
H317 H 0.77758 0.0273 0.22262 0.0
H318 H 0.77363 0.9679 0.25207 0.0
H319 H 0.65402 0.98193 0.26153 0.0
C320 C 0.37362 0.09782 0.82616 0.0
C321 C 0.38181 0.08438 0.79536 0.0
C322 C 0.31561 0.08788 0.78053 0.0
C323 C 0.35305 0.07931 0.77278 0.0
C324 C 0.30764 0.1009 0.81165 0.0
C325 C 0.33639 0.10578 0.83421 0.0
U326 U 0.47654 0.11582 0.84837 0.0
O327 O 0.49772 0.15703 0.88309 0.0
O328 O 0.50852 0.09679 0.89098 0.0
C329 C 0.51379 0.13135 0.90124 0.0
C330 C 0.40355 0.10527 0.84974 0.0
C331 C 0.55058 0.14092 0.91548 0.0
C332 C 0.59037 0.13784 0.96298 0.0
C333 C 0.56039 0.12398 0.94479 0.0
C334 C 0.60302 0.18433 0.92174 0.0
C335 C 0.6112 0.16909 0.95223 0.0
C336 C 0.57291 0.17045 0.90351 0.0
C337 C 0.54753 0.11514 0.77604 0.0
C338 C 0.58749 0.1507 0.73945 0.0
C339 C 0.59681 0.08375 0.74601 0.0
C340 C 0.56777 0.08249 0.76851 0.0
C341 C 0.60584 0.11758 0.73024 0.0
C342 C 0.55863 0.14949 0.76209 0.0
C343 C 0.51101 0.11208 0.79281 0.0
O344 O 0.42789 0.07811 0.8544 0.0
O345 O 0.4193 0.13861 0.84749 0.0
O346 O 0.49603 0.14314 0.80394 0.0
O347 O 0.50544 0.08268 0.81152 0.0
H348 H 0.41046 0.07819 0.78868 0.0
H349 H 0.36017 0.06878 0.74922 0.0
H350 H 0.27934 0.10837 0.81834 0.0
H351 H 0.32962 0.11645 0.85782 0.0
H352 H 0.59559 0.12559 0.98643 0.0
H353 H 0.54338 0.10139 0.95463 0.0
H354 H 0.61904 0.20789 0.91256 0.0
H355 H 0.56603 0.18401 0.8809 0.0
H356 H 0.59433 0.1773 0.72806 0.0
H357 H 0.6104 0.05776 0.73933 0.0
H358 H 0.5597 0.05547 0.77848 0.0
H359 H 0.54356 0.17511 0.76722 0.0
C360 C 0.8055 0.23584 0.83632 0.0
C361 C 0.81462 0.26122 0.81154 0.0
C362 C 0.80666 0.21175 0.77165 0.0
C363 C 0.81518 0.24931 0.77957 0.0
C364 C 0.79754 0.18653 0.79651 0.0
C365 C 0.79714 0.19845 0.82837 0.0
U366 U 0.76303 0.27975 0.91228 0.0
O367 O 0.7672 0.26038 0.96248 0.0
O368 O 0.79167 0.31466 0.94834 0.0
C369 C 0.78343 0.29166 0.97211 0.0
C370 C 0.80705 0.24724 0.87049 0.0
C371 C 0.76677 0.30983 1.00022 0.0
C372 C 0.77548 0.34203 0.05104 0.0
C373 C 0.78976 0.32016 0.02611 0.0
C374 C 0.71431 0.34107 0.0255 0.0
C375 C 0.73781 0.3538 0.05056 0.0
C376 C 0.72882 0.31975 1.00033 0.0
C377 C 0.67472 0.29823 0.86124 0.0
C378 C 0.66344 0.31616 0.80541 0.0
C379 C 0.61938 0.27536 0.83293 0.0
C380 C 0.64127 0.2773 0.86076 0.0
C381 C 0.63014 0.29481 0.80495 0.0
C382 C 0.68571 0.31763 0.83322 0.0
C383 C 0.69658 0.30033 0.89153 0.0
O384 O 0.80794 0.28354 0.87635 0.0
O385 O 0.78525 0.2284 0.89035 0.0
O386 O 0.72582 0.32304 0.89199 0.0
O387 O 0.70277 0.26806 0.90613 0.0
H388 H 0.82191 0.29015 0.81681 0.0
H389 H 0.82313 0.26943 0.7612 0.0
H390 H 0.7905 0.15751 0.79145 0.0
H391 H 0.7906 0.17825 0.84692 0.0
H392 H 0.79464 0.35151 0.06959 0.0
H393 H 0.81921 0.31277 0.02632 0.0
H394 H 0.68498 0.34875 0.02463 0.0
H395 H 0.71073 0.31206 0.98042 0.0
H396 H 0.6724 0.33141 0.78418 0.0
H397 H 0.59349 0.2593 0.83356 0.0
H398 H 0.63181 0.26272 0.88212 0.0
H399 H 0.71131 0.33412 0.83278 0.0
C400 C 0.0556 0.31255 0.89873 0.0
C401 C 0.0262 0.28909 0.88837 0.0
C402 C 0.9981 0.29114 0.94183 0.0
C403 C 0.99761 0.27863 0.9097 0.0
C404 C 0.02614 0.31687 0.95119 0.0
C405 C 0.0545 0.32743 0.92985 0.0
U406 U 0.12507 0.32385 0.82511 0.0
O407 O 0.17756 0.29181 0.82275 0.0
O408 O 0.17957 0.3532 0.82723 0.0
C409 C 0.19873 0.32211 0.82312 0.0
C410 C 0.09087 0.31637 0.88057 0.0
C411 C 0.22834 0.32329 0.79867 0.0
C412 C 0.29283 0.31038 0.78396 0.0
C413 C 0.26452 0.31152 0.80704 0.0
C414 C 0.24917 0.3334 0.74378 0.0
C415 C 0.28551 0.32107 0.75196 0.0
C416 C 0.22079 0.33439 0.76693 0.0
C417 C 0.04937 0.33328 0.75783 0.0
C418 C 0.00885 0.34449 0.71171 0.0
C419 C 0.98187 0.32623 0.76282 0.0
C420 C 0.0178 0.32497 0.77657 0.0
C421 C 0.977 0.3358 0.73014 0.0
C422 C 0.04464 0.34325 0.72546 0.0
C423 C 0.08766 0.33108 0.77089 0.0
O424 O 0.10068 0.28787 0.86248 0.0
O425 O 0.09981 0.34937 0.86834 0.0
O426 O 0.09787 0.29842 0.78289 0.0
O427 O 0.0991 0.35985 0.78813 0.0
H428 H 0.02639 0.27725 0.86443 0.0
H429 H 0.97602 0.25944 0.9014 0.0
H430 H 0.02782 0.32689 0.97568 0.0
H431 H 0.07709 0.34529 0.93845 0.0
H432 H 0.3202 0.30012 0.79106 0.0
H433 H 0.27075 0.30257 0.8314 0.0
H434 H 0.24263 0.34224 0.71949 0.0
H435 H 0.19291 0.34344 0.76003 0.0
H436 H 0.00613 0.35241 0.68666 0.0
H437 H 0.95799 0.31891 0.77761 0.0
H438 H 0.02098 0.31713 0.80161 0.0
H439 H 0.06876 0.34986 0.71068 0.0
C440 C 0.8016 0.03987 0.95771 0.0
C441 C 0.84081 0.04287 0.96009 0.0
C442 C 0.83998 0.00453 0.00893 0.0
C443 C 0.85992 0.02506 0.98547 0.0
C444 C 0.80082 1.00139 0.00598 0.0
C445 C 0.78193 0.01883 0.98067 0.0
U446 U 0.77489 0.09134 0.87643 0.0
O447 O 0.71852 0.09109 0.85453 0.0
O448 O 0.74049 0.14249 0.87664 0.0
C449 C 0.71455 0.12757 0.85816 0.0
C450 C 0.77944 0.06075 0.93377 0.0
C451 C 0.70574 0.14972 0.82902 0.0
C452 C 0.69224 0.21058 0.80512 0.0
C453 C 0.69578 0.18761 0.83221 0.0
C454 C 0.7068 0.15786 0.77094 0.0
C455 C 0.69802 0.1962 0.77416 0.0
C456 C 0.71068 0.13486 0.79808 0.0
C457 C 0.86761 0.08001 0.82393 0.0
C458 C 0.90738 0.06119 0.77945 0.0
C459 C 0.93538 0.08703 0.82768 0.0
C460 C 0.89974 0.0906 0.84136 0.0
C461 C 0.93954 0.07308 0.79625 0.0
C462 C 0.87185 0.06467 0.79314 0.0
C463 C 0.82952 0.09033 0.83433 0.0
O464 O 0.78967 0.09558 0.92753 0.0
O465 O 0.76698 0.04236 0.90849 0.0
O466 O 0.82605 0.11648 0.85634 0.0
O467 O 0.80361 0.06394 0.83586 0.0
H468 H 0.85647 0.05929 0.9427 0.0
H469 H 0.89013 0.02784 0.98705 0.0
H470 H 0.78468 0.98506 0.02311 0.0
H471 H 0.75165 0.01637 0.97933 0.0
H472 H 0.68572 0.2398 0.80849 0.0
H473 H 0.69205 0.19982 0.8558 0.0
H474 H 0.71245 0.14594 0.74757 0.0
H475 H 0.71897 0.10587 0.7948 0.0
H476 H 0.90958 0.04981 0.75544 0.0
H477 H 0.95953 0.09676 0.84121 0.0
H478 H 0.89727 0.10301 0.86498 0.0
H479 H 0.84744 0.05683 0.77904 0.0
C480 C 0.3723 0.30803 0.68102 0.0
C481 C 0.38122 0.32166 0.7117 0.0
C482 C 0.31534 0.31795 0.72713 0.0
C483 C 0.35298 0.32671 0.73452 0.0
C484 C 0.30663 0.30471 0.69615 0.0
C485 C 0.33487 0.29983 0.67335 0.0
U486 U 0.4748 0.29163 0.65814 0.0
O487 O 0.49589 0.25041 0.6237 0.0
O488 O 0.50575 0.31078 0.61515 0.0
C489 C 0.51133 0.2762 0.60521 0.0
C490 C 0.40169 0.30072 0.6572 0.0
C491 C 0.54804 0.26732 0.59092 0.0
C492 C 0.58721 0.27084 0.54332 0.0
C493 C 0.55721 0.28414 0.56144 0.0
C494 C 0.60113 0.22524 0.58497 0.0
C495 C 0.60871 0.24031 0.55433 0.0
C496 C 0.57099 0.23854 0.60312 0.0
C497 C 0.54691 0.29505 0.73013 0.0
C498 C 0.58842 0.26045 0.76612 0.0
C499 C 0.59488 0.328 0.76114 0.0
C500 C 0.56581 0.32845 0.73847 0.0
C501 C 0.60529 0.29421 0.77624 0.0
C502 C 0.5595 0.26087 0.74332 0.0
C503 C 0.51015 0.29698 0.71343 0.0
O504 O 0.42566 0.32826 0.65199 0.0
O505 O 0.41782 0.26772 0.65969 0.0
O506 O 0.49541 0.26541 0.70273 0.0
O507 O 0.50392 0.32596 0.69444 0.0
H508 H 0.41005 0.32803 0.71809 0.0
H509 H 0.36067 0.3374 0.75797 0.0
H510 H 0.27814 0.2971 0.68974 0.0
H511 H 0.32753 0.28902 0.64983 0.0
H512 H 0.59194 0.28294 0.51976 0.0
H513 H 0.53972 0.30615 0.55144 0.0
H514 H 0.61766 0.20224 0.59434 0.0
H515 H 0.56463 0.2251 0.62587 0.0
H516 H 0.59638 0.2339 0.77698 0.0
H517 H 0.6073 0.35446 0.76852 0.0
H518 H 0.55657 0.35532 0.72908 0.0
H519 H 0.54551 0.23469 0.73751 0.0
C520 C 0.79658 0.36812 0.55571 0.0
C521 C 0.83574 0.36494 0.55358 0.0
C522 C 0.83525 0.40171 0.50384 0.0
C523 C 0.855 0.38185 0.52787 0.0
C524 C 0.79611 0.4049 0.50647 0.0
C525 C 0.77709 0.38832 0.53209 0.0
U526 U 0.7707 0.32045 0.63871 0.0
O527 O 0.71526 0.32343 0.66176 0.0
O528 O 0.73434 0.27037 0.64104 0.0
C529 C 0.70975 0.28694 0.65951 0.0
C530 C 0.77428 0.34868 0.58043 0.0
C531 C 0.70169 0.26659 0.68967 0.0
C532 C 0.68307 0.20841 0.71594 0.0
C533 C 0.68544 0.23067 0.68829 0.0
C534 C 0.71174 0.25818 0.74709 0.0
C535 C 0.69697 0.22145 0.74553 0.0
C536 C 0.71403 0.28054 0.71946 0.0
C537 C 0.86587 0.33067 0.68893 0.0
C538 C 0.90803 0.34984 0.73205 0.0
C539 C 0.93308 0.32064 0.68432 0.0
C540 C 0.89684 0.31794 0.67136 0.0
C541 C 0.93898 0.33584 0.71516 0.0
C542 C 0.87192 0.34723 0.71907 0.0
C543 C 0.82698 0.32138 0.67957 0.0
O544 O 0.78338 0.3138 0.58746 0.0
O545 O 0.76339 0.36832 0.60541 0.0
O546 O 0.82152 0.29446 0.65849 0.0
O547 O 0.80219 0.34859 0.67775 0.0
H548 H 0.85127 0.34918 0.57151 0.0
H549 H 0.88518 0.379 0.52655 0.0
H550 H 0.78011 0.42074 0.48891 0.0
H551 H 0.74684 0.39095 0.53325 0.0
H552 H 0.67109 0.18065 0.71401 0.0
H553 H 0.67583 0.21926 0.66557 0.0
H554 H 0.72338 0.26903 0.76928 0.0
H555 H 0.72723 0.30796 0.72118 0.0
H556 H 0.91161 0.36223 0.7556 0.0
H557 H 0.95625 0.30931 0.67076 0.0
H558 H 0.89295 0.30455 0.64825 0.0
H559 H 0.84841 0.35672 0.73329 0.0
C560 C 0.0526 0.09531 0.61089 0.0
C561 C 0.02385 0.11914 0.62131 0.0
C562 C 0.99472 0.11699 0.56806 0.0
C563 C 0.99507 0.12973 0.60012 0.0
C564 C 0.02211 0.09095 0.55864 0.0
C565 C 0.05065 0.08025 0.57984 0.0
U566 U 0.12321 0.08318 0.68406 0.0
O567 O 0.17622 0.11491 0.68619 0.0
O568 O 0.17723 0.05355 0.68145 0.0
C569 C 0.19694 0.08452 0.68553 0.0
C570 C 0.08811 0.09121 0.62887 0.0
C571 C 0.22706 0.08307 0.70972 0.0
C572 C 0.29199 0.0958 0.72393 0.0
C573 C 0.26318 0.09486 0.70109 0.0
C574 C 0.24895 0.07249 0.76435 0.0
C575 C 0.28524 0.08488 0.75593 0.0
C576 C 0.22007 0.0717 0.74145 0.0
C577 C 0.04868 0.0738 0.75193 0.0
C578 C 0.00902 0.06163 0.79822 0.0
C579 C 0.98138 0.08323 0.74821 0.0
C580 C 0.01694 0.08398 0.73397 0.0
C581 C 0.97705 0.07231 0.78062 0.0
C582 C 0.04443 0.06236 0.78398 0.0
C583 C 0.08671 0.0758 0.73849 0.0
O584 O 0.09863 0.11954 0.64704 0.0
O585 O 0.09681 0.05809 0.64086 0.0
O586 O 0.09724 0.10848 0.72659 0.0
O587 O 0.09734 0.04707 0.72103 0.0
H588 H 0.0247 0.13113 0.64519 0.0
H589 H 0.974 0.14919 0.60846 0.0
H590 H 0.02314 0.08074 0.53419 0.0
H591 H 0.07273 0.06211 0.57119 0.0
H592 H 0.3193 0.10611 0.71665 0.0
H593 H 0.26897 0.10401 0.67674 0.0
H594 H 0.24283 0.06347 0.78866 0.0
H595 H 0.19225 0.06262 0.74855 0.0
H596 H 0.00669 0.05262 0.82302 0.0
H597 H 0.95742 0.09208 0.73406 0.0
H598 H 0.01973 0.09297 0.70918 0.0
H599 H 0.06868 0.05431 0.79816 0.0
C600 C 0.80865 0.17456 0.67309 0.0
C601 C 0.82056 0.15051 0.69794 0.0
C602 C 0.80745 0.19882 0.7377 0.0
C603 C 0.81984 0.16245 0.7299 0.0
C604 C 0.79596 0.22286 0.71272 0.0
C605 C 0.79646 0.21082 0.68091 0.0
U606 U 0.76607 0.13161 0.59664 0.0
O607 O 0.7713 0.15099 0.54655 0.0
O608 O 0.79359 0.09598 0.56083 0.0
C609 C 0.78638 0.11928 0.53703 0.0
C610 C 0.81083 0.16288 0.63904 0.0
C611 C 0.7692 0.10174 0.50868 0.0
C612 C 0.77698 0.06913 0.45806 0.0
C613 C 0.79199 0.09044 0.4832 0.0
C614 C 0.71558 0.07258 0.48257 0.0
C615 C 0.73876 0.05889 0.45791 0.0
C616 C 0.73078 0.09339 0.50793 0.0
C617 C 0.67673 0.11529 0.64658 0.0
C618 C 0.66548 0.09837 0.70257 0.0
C619 C 0.62 0.1358 0.67345 0.0
C620 C 0.64244 0.13443 0.64608 0.0
C621 C 0.63109 0.11754 0.70194 0.0
C622 C 0.68828 0.0975 0.67522 0.0
C623 C 0.69872 0.113 0.61655 0.0
O624 O 0.81028 0.12651 0.63344 0.0
O625 O 0.79041 0.18224 0.61848 0.0
O626 O 0.72702 0.0894 0.61624 0.0
O627 O 0.70627 0.14523 0.60233 0.0
H628 H 0.83083 0.12258 0.69271 0.0
H629 H 0.82981 0.14338 0.74837 0.0
H630 H 0.78647 0.25106 0.71763 0.0
H631 H 0.78762 0.2301 0.66232 0.0
H632 H 0.7959 0.05886 0.43985 0.0
H633 H 0.82179 0.09663 0.48349 0.0
H634 H 0.6859 0.06604 0.48295 0.0
H635 H 0.71281 0.1019 0.52751 0.0
H636 H 0.67481 0.08423 0.72426 0.0
H637 H 0.59342 0.15036 0.67204 0.0
H638 H 0.63267 0.14782 0.62423 0.0
H639 H 0.71463 0.08253 0.67643 0.0
loop_
_geom_bond_atom_site_label_1
_geom_bond_atom_site_label_2
_geom_bond_distance
_geom_bond_site_symmetry_2
_ccdc_geom_bond_type
C0 C1 1.264 . S
C0 C5 1.479 . S
C0 C10 1.465 . S
C1 C0 1.264 . S
C1 C3 1.339 . S
C1 H28 0.931 . S
C2 C3 1.395 . S
C2 C4 1.320 . S
C3 C1 1.339 . S
C3 C2 1.395 . S
C3 H29 0.929 . S
C4 C2 1.320 . S
C4 C5 1.405 . S
C4 H30 0.930 . S
C5 C0 1.479 . S
C5 C4 1.405 . S
C5 H31 0.931 . S
U6 O7 2.454 . S
U6 O8 2.458 . S
U6 C9 2.984 . S
U6 C10 2.847 . S
U6 C23 2.882 . S
U6 O24 2.441 . S
U6 O25 2.420 . S
U6 O26 2.455 . S
U6 O27 2.449 . S
O7 U6 2.454 . S
O7 C9 1.353 . S
O8 U6 2.458 . S
O8 C9 1.286 . S
C9 U6 2.984 . S
C9 O7 1.353 . S
C9 O8 1.286 . S
C9 C11 1.363 . S
C10 C0 1.465 . S
C10 U6 2.847 . S
C10 O24 1.249 . S
C10 O25 1.202 . S
C11 C9 1.363 . S
C11 C13 1.408 . S
C11 C16 1.342 . S
C12 C13 1.310 . S
C12 C15 1.461 . S
C12 H32 0.932 . S
C13 C11 1.408 . S
C13 C12 1.310 . S
C13 H33 0.930 . S
C14 C15 1.474 . S
C14 C16 1.285 . S
C14 H34 0.929 . S
C15 C12 1.461 . S
C15 C14 1.474 . S
C16 C11 1.342 . S
C16 C14 1.285 . S
C16 H35 0.930 . S
C17 C20 1.424 . S
C17 C22 1.245 . S
C17 C23 1.428 . S
C18 C21 1.260 . S
C18 C22 1.477 . S
C18 H36 0.932 . S
C19 C20 1.384 . S
C19 C21 1.479 . S
C19 H37 0.929 . S
C20 C17 1.424 . S
C20 C19 1.384 . S
C20 H38 0.928 . S
C21 C18 1.260 . S
C21 C19 1.479 . S
C22 C17 1.245 . S
C22 C18 1.477 . S
C22 H39 0.932 . S
C23 U6 2.882 . S
C23 C17 1.428 . S
C23 O26 1.301 . S
C23 O27 1.282 . S
O24 U6 2.441 . S
O24 C10 1.249 . S
O25 U6 2.420 . S
O25 C10 1.202 . S
O26 U6 2.455 . S
O26 C23 1.301 . S
O27 U6 2.449 . S
O27 C23 1.282 . S
H28 C1 0.931 . S
H29 C3 0.929 . S
H30 C4 0.930 . S
H31 C5 0.931 . S
H32 C12 0.932 . S
H33 C13 0.930 . S
H34 C14 0.929 . S
H35 C16 0.930 . S
H36 C18 0.932 . S
H37 C19 0.929 . S
H38 C20 0.928 . S
H39 C22 0.932 . S
C40 C41 1.264 . S
C40 C45 1.479 . S
C40 C50 1.465 . S
C41 C40 1.264 . S
C41 C43 1.341 1_554 S
C41 H68 0.931 . S
C42 C43 1.393 . S
C42 C44 1.320 . S
C43 C41 1.341 1_556 S
C43 C42 1.393 . S
C43 H69 0.928 . S
C44 C42 1.320 . S
C44 C45 1.405 1_556 S
C44 H70 0.930 . S
C45 C40 1.479 . S
C45 C44 1.405 1_554 S
C45 H71 0.931 . S
U46 O47 2.454 . S
U46 O48 2.458 . S
U46 C49 2.984 . S
U46 C50 2.847 . S
U46 C63 2.882 . S
U46 O64 2.441 . S
U46 O65 2.420 . S
U46 O66 2.455 . S
U46 O67 2.449 . S
O47 U46 2.454 . S
O47 C49 1.353 . S
O48 U46 2.458 . S
O48 C49 1.286 . S
C49 U46 2.984 . S
C49 O47 1.353 . S
C49 O48 1.286 . S
C49 C51 1.363 . S
C50 C40 1.465 . S
C50 U46 2.847 . S
C50 O64 1.249 . S
C50 O65 1.202 . S
C51 C49 1.363 . S
C51 C53 1.408 . S
C51 C56 1.342 . S
C52 C53 1.310 . S
C52 C55 1.461 . S
C52 H72 0.932 . S
C53 C51 1.408 . S
C53 C52 1.310 . S
C53 H73 0.930 . S
C54 C55 1.474 . S
C54 C56 1.285 . S
C54 H74 0.929 . S
C55 C52 1.461 . S
C55 C54 1.474 . S
C56 C51 1.342 . S
C56 C54 1.285 . S
C56 H75 0.930 . S
C57 C60 1.424 . S
C57 C62 1.245 . S
C57 C63 1.428 . S
C58 C61 1.260 . S
C58 C62 1.477 . S
C58 H76 0.932 . S
C59 C60 1.384 . S
C59 C61 1.479 . S
C59 H77 0.929 . S
C60 C57 1.424 . S
C60 C59 1.384 . S
C60 H78 0.928 . S
C61 C58 1.260 . S
C61 C59 1.479 . S
C62 C57 1.245 . S
C62 C58 1.477 . S
C62 H79 0.932 . S
C63 U46 2.882 . S
C63 C57 1.428 . S
C63 O66 1.301 . S
C63 O67 1.282 . S
O64 U46 2.441 . S
O64 C50 1.249 . S
O65 U46 2.420 . S
O65 C50 1.202 . S
O66 U46 2.455 . S
O66 C63 1.301 . S
O67 U46 2.449 . S
O67 C63 1.282 . S
H68 C41 0.931 . S
H69 C43 0.928 . S
H70 C44 0.930 . S
H71 C45 0.931 . S
H72 C52 0.932 . S
H73 C53 0.930 . S
H74 C54 0.929 . S
H75 C56 0.930 . S
H76 C58 0.932 . S
H77 C59 0.929 . S
H78 C60 0.928 . S
H79 C62 0.932 . S
C80 C81 1.264 . S
C80 C85 1.479 . S
C80 C90 1.465 . S
C81 C80 1.264 . S
C81 C83 1.339 . S
C81 H108 0.931 . S
C82 C83 1.395 . S
C82 C84 1.320 . S
C83 C81 1.339 . S
C83 C82 1.395 . S
C83 H109 0.929 . S
C84 C82 1.320 . S
C84 C85 1.405 . S
C84 H110 0.930 . S
C85 C80 1.479 . S
C85 C84 1.405 . S
C85 H111 0.931 . S
U86 O87 2.454 . S
U86 O88 2.458 . S
U86 C89 2.984 . S
U86 C90 2.847 1_455 S
U86 C103 2.882 . S
U86 O104 2.441 1_455 S
U86 O105 2.420 1_455 S
U86 O106 2.455 . S
U86 O107 2.449 . S
O87 U86 2.454 . S
O87 C89 1.353 . S
O88 U86 2.458 . S
O88 C89 1.286 . S
C89 U86 2.984 . S
C89 O87 1.353 . S
C89 O88 1.286 . S
C89 C91 1.363 . S
C90 C80 1.465 . S
C90 U86 2.847 1_655 S
C90 O104 1.249 . S
C90 O105 1.202 . S
C91 C89 1.363 . S
C91 C93 1.408 . S
C91 C96 1.342 . S
C92 C93 1.310 . S
C92 C95 1.461 . S
C92 H112 0.932 . S
C93 C91 1.408 . S
C93 C92 1.310 . S
C93 H113 0.930 . S
C94 C95 1.474 . S
C94 C96 1.285 . S
C94 H114 0.929 . S
C95 C92 1.461 . S
C95 C94 1.474 . S
C96 C91 1.342 . S
C96 C94 1.285 . S
C96 H115 0.930 . S
C97 C100 1.424 . S
C97 C102 1.245 . S
C97 C103 1.428 . S
C98 C101 1.260 . S
C98 C102 1.477 . S
C98 H116 0.932 . S
C99 C100 1.384 . S
C99 C101 1.479 . S
C99 H117 0.929 . S
C100 C97 1.424 . S
C100 C99 1.384 . S
C100 H118 0.928 . S
C101 C98 1.260 . S
C101 C99 1.479 . S
C102 C97 1.245 . S
C102 C98 1.477 . S
C102 H119 0.932 . S
C103 U86 2.882 . S
C103 C97 1.428 . S
C103 O106 1.301 . S
C103 O107 1.282 . S
O104 U86 2.441 1_655 S
O104 C90 1.249 . S
O105 U86 2.420 1_655 S
O105 C90 1.202 . S
O106 U86 2.455 . S
O106 C103 1.301 . S
O107 U86 2.449 . S
O107 C103 1.282 . S
H108 C81 0.931 . S
H109 C83 0.929 . S
H110 C84 0.930 . S
H111 C85 0.931 . S
H112 C92 0.932 . S
H113 C93 0.930 . S
H114 C94 0.929 . S
H115 C96 0.930 . S
H116 C98 0.932 . S
H117 C99 0.929 . S
H118 C100 0.928 . S
H119 C102 0.932 . S
C120 C121 1.264 . S
C120 C125 1.479 . S
C120 C130 1.465 . S
C121 C120 1.264 . S
C121 C123 1.339 . S
C121 H148 0.931 . S
C122 C123 1.395 1_556 S
C122 C124 1.320 . S
C123 C121 1.339 . S
C123 C122 1.395 1_554 S
C123 H149 0.929 1_554 S
C124 C122 1.320 . S
C124 C125 1.405 1_556 S
C124 H150 0.930 . S
C125 C120 1.479 . S
C125 C124 1.405 1_554 S
C125 H151 0.931 . S
U126 O127 2.454 . S
U126 O128 2.458 1_655 S
U126 C129 2.984 . S
U126 C130 2.847 . S
U126 C143 2.882 . S
U126 O144 2.441 . S
U126 O145 2.420 . S
U126 O146 2.455 . S
U126 O147 2.449 . S
O127 U126 2.454 . S
O127 C129 1.353 . S
O128 U126 2.458 1_455 S
O128 C129 1.286 1_455 S
C129 U126 2.984 . S
C129 O127 1.353 . S
C129 O128 1.286 1_655 S
C129 C131 1.363 1_655 S
C130 C120 1.465 . S
C130 U126 2.847 . S
C130 O144 1.249 . S
C130 O145 1.202 . S
C131 C129 1.363 1_455 S
C131 C133 1.408 . S
C131 C136 1.342 . S
C132 C133 1.310 . S
C132 C135 1.461 . S
C132 H152 0.932 . S
C133 C131 1.408 . S
C133 C132 1.310 . S
C133 H153 0.930 1_455 S
C134 C135 1.474 . S
C134 C136 1.285 . S
C134 H154 0.929 . S
C135 C132 1.461 . S
C135 C134 1.474 . S
C136 C131 1.342 . S
C136 C134 1.285 . S
C136 H155 0.930 . S
C137 C140 1.424 1_565 S
C137 C142 1.245 . S
C137 C143 1.428 1_455 S
C138 C141 1.260 . S
C138 C142 1.477 1_545 S
C138 H156 0.932 . S
C139 C140 1.384 . S
C139 C141 1.479 . S
C139 H157 0.929 . S
C140 C137 1.424 1_545 S
C140 C139 1.384 . S
C140 H158 0.925 1_455 S
C141 C138 1.260 . S
C141 C139 1.479 . S
C142 C137 1.245 . S
C142 C138 1.477 1_565 S
C142 H159 0.932 . S
C143 U126 2.882 . S
C143 C137 1.428 1_655 S
C143 O146 1.301 . S
C143 O147 1.282 . S
O144 U126 2.441 . S
O144 C130 1.249 . S
O145 U126 2.420 . S
O145 C130 1.202 . S
O146 U126 2.455 . S
O146 C143 1.301 . S
O147 U126 2.449 . S
O147 C143 1.282 . S
H148 C121 0.931 . S
H149 C123 0.929 1_556 S
H150 C124 0.930 . S
H151 C125 0.931 . S
H152 C132 0.932 . S
H153 C133 0.930 1_655 S
H154 C134 0.929 . S
H155 C136 0.930 . S
H156 C138 0.932 . S
H157 C139 0.929 . S
H158 C140 0.925 1_655 S
H159 C142 0.932 . S
C160 C161 1.264 . S
C160 C165 1.479 . S
C160 C170 1.465 . S
C161 C160 1.264 . S
C161 C163 1.339 . S
C161 H188 0.931 . S
C162 C163 1.395 . S
C162 C164 1.320 . S
C163 C161 1.339 . S
C163 C162 1.395 . S
C163 H189 0.929 . S
C164 C162 1.320 . S
C164 C165 1.405 . S
C164 H190 0.930 . S
C165 C160 1.479 . S
C165 C164 1.405 . S
C165 H191 0.931 . S
U166 O167 2.454 . S
U166 O168 2.458 . S
U166 C169 2.984 . S
U166 C170 2.847 . S
U166 C183 2.882 . S
U166 O184 2.441 . S
U166 O185 2.420 . S
U166 O186 2.455 . S
U166 O187 2.449 . S
O167 U166 2.454 . S
O167 C169 1.353 . S
O168 U166 2.458 . S
O168 C169 1.286 . S
C169 U166 2.984 . S
C169 O167 1.353 . S
C169 O168 1.286 . S
C169 C171 1.363 . S
C170 C160 1.465 . S
C170 U166 2.847 . S
C170 O184 1.249 . S
C170 O185 1.202 . S
C171 C169 1.363 . S
C171 C173 1.408 . S
C171 C176 1.342 . S
C172 C173 1.310 . S
C172 C175 1.461 . S
C172 H192 0.932 . S
C173 C171 1.408 . S
C173 C172 1.310 . S
C173 H193 0.930 . S
C174 C175 1.474 . S
C174 C176 1.285 . S
C174 H194 0.929 . S
C175 C172 1.461 . S
C175 C174 1.474 . S
C176 C171 1.342 . S
C176 C174 1.285 . S
C176 H195 0.930 . S
C177 C180 1.424 . S
C177 C182 1.245 . S
C177 C183 1.428 . S
C178 C181 1.260 . S
C178 C182 1.477 . S
C178 H196 0.932 . S
C179 C180 1.384 . S
C179 C181 1.479 . S
C179 H197 0.929 . S
C180 C177 1.424 . S
C180 C179 1.384 . S
C180 H198 0.928 . S
C181 C178 1.260 . S
C181 C179 1.479 . S
C182 C177 1.245 . S
C182 C178 1.477 . S
C182 H199 0.932 . S
C183 U166 2.882 . S
C183 C177 1.428 . S
C183 O186 1.301 . S
C183 O187 1.282 . S
O184 U166 2.441 . S
O184 C170 1.249 . S
O185 U166 2.420 . S
O185 C170 1.202 . S
O186 U166 2.455 . S
O186 C183 1.301 . S
O187 U166 2.449 . S
O187 C183 1.282 . S
H188 C161 0.931 . S
H189 C163 0.929 . S
H190 C164 0.930 . S
H191 C165 0.931 . S
H192 C172 0.932 . S
H193 C173 0.930 . S
H194 C174 0.929 . S
H195 C176 0.930 . S
H196 C178 0.932 . S
H197 C179 0.929 . S
H198 C180 0.928 . S
H199 C182 0.932 . S
C200 C201 1.264 . S
C200 C205 1.479 . S
C200 C210 1.465 . S
C201 C200 1.264 . S
C201 C203 1.339 . S
C201 H228 0.931 . S
C202 C203 1.395 . S
C202 C204 1.320 . S
C203 C201 1.339 . S
C203 C202 1.395 . S
C203 H229 0.929 . S
C204 C202 1.320 . S
C204 C205 1.405 . S
C204 H230 0.930 . S
C205 C200 1.479 . S
C205 C204 1.405 . S
C205 H231 0.931 . S
U206 O207 2.454 . S
U206 O208 2.458 1_655 S
U206 C209 2.985 . S
U206 C210 2.847 . S
U206 C223 2.882 . S
U206 O224 2.441 . S
U206 O225 2.420 . S
U206 O226 2.455 . S
U206 O227 2.449 . S
O207 U206 2.454 . S
O207 C209 1.354 . S
O208 U206 2.458 1_455 S
O208 C209 1.286 1_455 S
C209 U206 2.985 . S
C209 O207 1.354 . S
C209 O208 1.286 1_655 S
C209 C211 1.363 1_655 S
C210 C200 1.465 . S
C210 U206 2.847 . S
C210 O224 1.249 . S
C210 O225 1.202 . S
C211 C209 1.363 1_455 S
C211 C213 1.408 . S
C211 C216 1.342 . S
C212 C213 1.310 . S
C212 C215 1.461 . S
C212 H232 0.932 . S
C213 C211 1.408 . S
C213 C212 1.310 . S
C213 H233 0.930 1_455 S
C214 C215 1.474 . S
C214 C216 1.285 . S
C214 H234 0.929 . S
C215 C212 1.461 . S
C215 C214 1.474 . S
C216 C211 1.342 . S
C216 C214 1.285 . S
C216 H235 0.930 . S
C217 C220 1.424 . S
C217 C222 1.245 . S
C217 C223 1.428 1_455 S
C218 C221 1.260 . S
C218 C222 1.477 . S
C218 H236 0.932 . S
C219 C220 1.384 . S
C219 C221 1.479 . S
C219 H237 0.929 . S
C220 C217 1.424 . S
C220 C219 1.384 . S
C220 H238 0.923 1_455 S
C221 C218 1.260 . S
C221 C219 1.479 . S
C222 C217 1.245 . S
C222 C218 1.477 . S
C222 H239 0.932 . S
C223 U206 2.882 . S
C223 C217 1.428 1_655 S
C223 O226 1.301 . S
C223 O227 1.282 . S
O224 U206 2.441 . S
O224 C210 1.249 . S
O225 U206 2.420 . S
O225 C210 1.202 . S
O226 U206 2.455 . S
O226 C223 1.301 . S
O227 U206 2.449 . S
O227 C223 1.282 . S
H228 C201 0.931 . S
H229 C203 0.929 . S
H230 C204 0.930 . S
H231 C205 0.931 . S
H232 C212 0.932 . S
H233 C213 0.930 1_655 S
H234 C214 0.929 . S
H235 C216 0.930 . S
H236 C218 0.932 . S
H237 C219 0.929 . S
H238 C220 0.923 1_655 S
H239 C222 0.932 . S
C240 C241 1.264 . S
C240 C245 1.479 . S
C240 C250 1.465 . S
C241 C240 1.264 . S
C241 C243 1.339 . S
C241 H268 0.931 . S
C242 C243 1.395 . S
C242 C244 1.320 . S
C243 C241 1.339 . S
C243 C242 1.395 . S
C243 H269 0.929 . S
C244 C242 1.320 . S
C244 C245 1.405 . S
C244 H270 0.930 . S
C245 C240 1.479 . S
C245 C244 1.405 . S
C245 H271 0.931 . S
U246 O247 2.454 . S
U246 O248 2.458 . S
U246 C249 2.984 . S
U246 C250 2.847 1_455 S
U246 C263 2.882 . S
U246 O264 2.441 1_455 S
U246 O265 2.420 1_455 S
U246 O266 2.455 . S
U246 O267 2.449 . S
O247 U246 2.454 . S
O247 C249 1.353 . S
O248 U246 2.458 . S
O248 C249 1.286 . S
C249 U246 2.984 . S
C249 O247 1.353 . S
C249 O248 1.286 . S
C249 C251 1.363 . S
C250 C240 1.465 . S
C250 U246 2.847 1_655 S
C250 O264 1.249 . S
C250 O265 1.202 . S
C251 C249 1.363 . S
C251 C253 1.408 . S
C251 C256 1.342 . S
C252 C253 1.310 . S
C252 C255 1.461 . S
C252 H272 0.932 . S
C253 C251 1.408 . S
C253 C252 1.310 . S
C253 H273 0.930 . S
C254 C255 1.474 . S
C254 C256 1.285 . S
C254 H274 0.929 . S
C255 C252 1.461 . S
C255 C254 1.474 . S
C256 C251 1.342 . S
C256 C254 1.285 . S
C256 H275 0.930 . S
C257 C260 1.424 . S
C257 C262 1.245 . S
C257 C263 1.428 . S
C258 C261 1.260 . S
C258 C262 1.477 . S
C258 H276 0.932 . S
C259 C260 1.384 . S
C259 C261 1.479 . S
C259 H277 0.929 . S
C260 C257 1.424 . S
C260 C259 1.384 . S
C260 H278 0.928 . S
C261 C258 1.260 . S
C261 C259 1.479 . S
C262 C257 1.245 . S
C262 C258 1.477 . S
C262 H279 0.932 . S
C263 U246 2.882 . S
C263 C257 1.428 . S
C263 O266 1.301 . S
C263 O267 1.282 . S
O264 U246 2.441 1_655 S
O264 C250 1.249 . S
O265 U246 2.420 1_655 S
O265 C250 1.202 . S
O266 U246 2.455 . S
O266 C263 1.301 . S
O267 U246 2.449 . S
O267 C263 1.282 . S
H268 C241 0.931 . S
H269 C243 0.929 . S
H270 C244 0.930 . S
H271 C245 0.931 . S
H272 C252 0.932 . S
H273 C253 0.930 . S
H274 C254 0.929 . S
H275 C256 0.930 . S
H276 C258 0.932 . S
H277 C259 0.929 . S
H278 C260 0.928 . S
H279 C262 0.932 . S
C280 C281 1.264 . S
C280 C285 1.479 . S
C280 C290 1.465 . S
C281 C280 1.264 . S
C281 C283 1.339 . S
C281 H308 0.931 . S
C282 C283 1.395 . S
C282 C284 1.320 . S
C283 C281 1.339 . S
C283 C282 1.395 . S
C283 H309 0.929 . S
C284 C282 1.320 . S
C284 C285 1.405 . S
C284 H310 0.930 . S
C285 C280 1.479 . S
C285 C284 1.405 . S
C285 H311 0.931 . S
U286 O287 2.454 . S
U286 O288 2.458 . S
U286 C289 2.984 . S
U286 C290 2.847 . S
U286 C303 2.882 . S
U286 O304 2.441 . S
U286 O305 2.420 . S
U286 O306 2.455 . S
U286 O307 2.449 . S
O287 U286 2.454 . S
O287 C289 1.353 . S
O288 U286 2.458 . S
O288 C289 1.286 . S
C289 U286 2.984 . S
C289 O287 1.353 . S
C289 O288 1.286 . S
C289 C291 1.363 . S
C290 C280 1.465 . S
C290 U286 2.847 . S
C290 O304 1.249 . S
C290 O305 1.202 . S
C291 C289 1.363 . S
C291 C293 1.408 . S
C291 C296 1.342 . S
C292 C293 1.310 . S
C292 C295 1.461 . S
C292 H312 0.932 . S
C293 C291 1.408 . S
C293 C292 1.310 . S
C293 H313 0.930 . S
C294 C295 1.474 . S
C294 C296 1.285 . S
C294 H314 0.929 . S
C295 C292 1.461 . S
C295 C294 1.474 . S
C296 C291 1.342 . S
C296 C294 1.285 . S
C296 H315 0.930 . S
C297 C300 1.424 1_565 S
C297 C302 1.245 . S
C297 C303 1.428 . S
C298 C301 1.260 . S
C298 C302 1.477 1_545 S
C298 H316 0.932 . S
C299 C300 1.384 . S
C299 C301 1.479 . S
C299 H317 0.929 . S
C300 C297 1.424 1_545 S
C300 C299 1.384 . S
C300 H318 0.928 . S
C301 C298 1.260 . S
C301 C299 1.479 . S
C302 C297 1.245 . S
C302 C298 1.477 1_565 S
C302 H319 0.932 . S
C303 U286 2.882 . S
C303 C297 1.428 . S
C303 O306 1.301 . S
C303 O307 1.282 . S
O304 U286 2.441 . S
O304 C290 1.249 . S
O305 U286 2.420 . S
O305 C290 1.202 . S
O306 U286 2.455 . S
O306 C303 1.301 . S
O307 U286 2.449 . S
O307 C303 1.282 . S
H308 C281 0.931 . S
H309 C283 0.929 . S
H310 C284 0.930 . S
H311 C285 0.931 . S
H312 C292 0.932 . S
H313 C293 0.930 . S
H314 C294 0.929 . S
H315 C296 0.930 . S
H316 C298 0.932 . S
H317 C299 0.929 . S
H318 C300 0.928 . S
H319 C302 0.932 . S
C320 C321 1.264 1_545 S
C320 C325 1.479 . S
C320 C330 1.465 . S
C321 C320 1.264 1_565 S
C321 C323 1.339 . S
C321 H348 0.931 . S
C322 C323 1.395 . S
C322 C324 1.320 . S
C323 C321 1.339 . S
C323 C322 1.395 . S
C323 H349 0.929 . S
C324 C322 1.320 . S
C324 C325 1.405 1_565 S
C324 H350 0.930 . S
C325 C320 1.479 . S
C325 C324 1.405 1_545 S
C325 H351 0.931 . S
U326 O327 2.454 . S
U326 O328 2.458 . S
U326 C329 2.984 . S
U326 C330 2.847 . S
U326 C343 2.882 . S
U326 O344 2.441 . S
U326 O345 2.420 . S
U326 O346 2.455 . S
U326 O347 2.449 . S
O327 U326 2.454 . S
O327 C329 1.353 . S
O328 U326 2.458 . S
O328 C329 1.286 . S
C329 U326 2.984 . S
C329 O327 1.353 . S
C329 O328 1.286 . S
C329 C331 1.363 . S
C330 C320 1.465 . S
C330 U326 2.847 . S
C330 O344 1.249 . S
C330 O345 1.202 . S
C331 C329 1.363 . S
C331 C333 1.408 . S
C331 C336 1.342 . S
C332 C333 1.310 1_554 S
C332 C335 1.461 . S
C332 H352 0.932 . S
C333 C331 1.408 . S
C333 C332 1.310 1_556 S
C333 H353 0.930 . S
C334 C335 1.474 . S
C334 C336 1.285 1_554 S
C334 H354 0.929 . S
C335 C332 1.461 . S
C335 C334 1.474 . S
C336 C331 1.342 . S
C336 C334 1.285 1_556 S
C336 H355 0.930 . S
C337 C340 1.424 . S
C337 C342 1.245 . S
C337 C343 1.428 1_565 S
C338 C341 1.260 . S
C338 C342 1.477 . S
C338 H356 0.932 . S
C339 C340 1.384 . S
C339 C341 1.479 . S
C339 H357 0.929 . S
C340 C337 1.424 . S
C340 C339 1.384 . S
C340 H358 0.928 . S
C341 C338 1.260 . S
C341 C339 1.479 . S
C342 C337 1.245 . S
C342 C338 1.477 . S
C342 H359 0.932 1_565 S
C343 U326 2.882 . S
C343 C337 1.428 1_545 S
C343 O346 1.301 . S
C343 O347 1.282 . S
O344 U326 2.441 . S
O344 C330 1.249 . S
O345 U326 2.420 . S
O345 C330 1.202 . S
O346 U326 2.455 . S
O346 C343 1.301 . S
O347 U326 2.449 . S
O347 C343 1.282 . S
H348 C321 0.931 . S
H349 C323 0.929 . S
H350 C324 0.930 . S
H351 C325 0.931 . S
H352 C332 0.932 . S
H353 C333 0.930 . S
H354 C334 0.929 . S
H355 C336 0.930 . S
H356 C338 0.932 . S
H357 C339 0.929 . S
H358 C340 0.928 . S
H359 C342 0.932 1_545 S
C360 C361 1.264 . S
C360 C365 1.479 . S
C360 C370 1.465 . S
C361 C360 1.264 . S
C361 C363 1.339 . S
C361 H388 0.931 . S
C362 C363 1.395 . S
C362 C364 1.320 . S
C363 C361 1.339 . S
C363 C362 1.395 . S
C363 H389 0.929 . S
C364 C362 1.320 . S
C364 C365 1.405 . S
C364 H390 0.930 . S
C365 C360 1.479 . S
C365 C364 1.405 . S
C365 H391 0.931 . S
U366 O367 2.454 . S
U366 O368 2.458 . S
U366 C369 2.984 . S
U366 C370 2.847 . S
U366 C383 2.882 . S
U366 O384 2.441 . S
U366 O385 2.420 . S
U366 O386 2.455 . S
U366 O387 2.449 . S
O367 U366 2.454 . S
O367 C369 1.353 . S
O368 U366 2.458 . S
O368 C369 1.286 . S
C369 U366 2.984 . S
C369 O367 1.353 . S
C369 O368 1.286 . S
C369 C371 1.363 . S
C370 C360 1.465 . S
C370 U366 2.847 . S
C370 O384 1.249 . S
C370 O385 1.202 . S
C371 C369 1.363 . S
C371 C373 1.408 . S
C371 C376 1.342 . S
C372 C373 1.310 . S
C372 C375 1.461 . S
C372 H392 0.932 . S
C373 C371 1.408 . S
C373 C372 1.310 . S
C373 H393 0.930 . S
C374 C375 1.474 . S
C374 C376 1.285 . S
C374 H394 0.929 . S
C375 C372 1.461 . S
C375 C374 1.474 . S
C376 C371 1.342 . S
C376 C374 1.285 . S
C376 H395 0.930 . S
C377 C380 1.424 . S
C377 C382 1.245 . S
C377 C383 1.428 . S
C378 C381 1.260 . S
C378 C382 1.477 . S
C378 H396 0.932 . S
C379 C380 1.384 . S
C379 C381 1.479 . S
C379 H397 0.929 . S
C380 C377 1.424 . S
C380 C379 1.384 . S
C380 H398 0.928 . S
C381 C378 1.260 . S
C381 C379 1.479 . S
C382 C377 1.245 . S
C382 C378 1.477 . S
C382 H399 0.932 . S
C383 U366 2.882 . S
C383 C377 1.428 . S
C383 O386 1.301 . S
C383 O387 1.282 . S
O384 U366 2.441 . S
O384 C370 1.249 . S
O385 U366 2.420 . S
O385 C370 1.202 . S
O386 U366 2.455 . S
O386 C383 1.301 . S
O387 U366 2.449 . S
O387 C383 1.282 . S
H388 C361 0.931 . S
H389 C363 0.929 . S
H390 C364 0.930 . S
H391 C365 0.931 . S
H392 C372 0.932 . S
H393 C373 0.930 . S
H394 C374 0.929 . S
H395 C376 0.930 . S
H396 C378 0.932 . S
H397 C379 0.929 . S
H398 C380 0.928 . S
H399 C382 0.932 . S
C400 C401 1.264 . S
C400 C405 1.479 . S
C400 C410 1.465 . S
C401 C400 1.264 . S
C401 C403 1.339 . S
C401 H428 0.931 . S
C402 C403 1.395 1_554 S
C402 C404 1.320 . S
C403 C401 1.339 . S
C403 C402 1.395 1_556 S
C403 H429 0.929 1_556 S
C404 C402 1.320 . S
C404 C405 1.405 1_554 S
C404 H430 0.930 . S
C405 C400 1.479 . S
C405 C404 1.405 1_556 S
C405 H431 0.931 . S
U406 O407 2.454 . S
U406 O408 2.458 . S
U406 C409 2.984 . S
U406 C410 2.847 . S
U406 C423 2.882 . S
U406 O424 2.441 . S
U406 O425 2.420 . S
U406 O426 2.455 . S
U406 O427 2.449 . S
O407 U406 2.454 . S
O407 C409 1.353 . S
O408 U406 2.458 . S
O408 C409 1.286 . S
C409 U406 2.984 . S
C409 O407 1.353 . S
C409 O408 1.286 . S
C409 C411 1.363 . S
C410 C400 1.465 . S
C410 U406 2.847 . S
C410 O424 1.249 . S
C410 O425 1.202 . S
C411 C409 1.363 . S
C411 C413 1.408 . S
C411 C416 1.342 . S
C412 C413 1.310 . S
C412 C415 1.461 . S
C412 H432 0.932 . S
C413 C411 1.408 . S
C413 C412 1.310 . S
C413 H433 0.930 . S
C414 C415 1.474 . S
C414 C416 1.285 . S
C414 H434 0.929 . S
C415 C412 1.461 . S
C415 C414 1.474 . S
C416 C411 1.342 . S
C416 C414 1.285 . S
C416 H435 0.930 . S
C417 C420 1.424 1_455 S
C417 C422 1.245 . S
C417 C423 1.428 . S
C418 C421 1.260 . S
C418 C422 1.477 1_655 S
C418 H436 0.932 . S
C419 C420 1.384 . S
C419 C421 1.479 . S
C419 H437 0.929 . S
C420 C417 1.424 1_655 S
C420 C419 1.384 . S
C420 H438 0.928 . S
C421 C418 1.260 . S
C421 C419 1.479 . S
C422 C417 1.245 . S
C422 C418 1.477 1_455 S
C422 H439 0.932 . S
C423 U406 2.882 . S
C423 C417 1.428 . S
C423 O426 1.301 . S
C423 O427 1.282 . S
O424 U406 2.441 . S
O424 C410 1.249 . S
O425 U406 2.420 . S
O425 C410 1.202 . S
O426 U406 2.455 . S
O426 C423 1.301 . S
O427 U406 2.449 . S
O427 C423 1.282 . S
H428 C401 0.931 . S
H429 C403 0.929 1_554 S
H430 C404 0.930 . S
H431 C405 0.931 . S
H432 C412 0.932 . S
H433 C413 0.930 . S
H434 C414 0.929 . S
H435 C416 0.930 . S
H436 C418 0.932 . S
H437 C419 0.929 . S
H438 C420 0.928 . S
H439 C422 0.932 . S
C440 C441 1.264 . S
C440 C445 1.479 . S
C440 C450 1.465 . S
C441 C440 1.264 . S
C441 C443 1.339 . S
C441 H468 0.931 . S
C442 C443 1.395 . S
C442 C444 1.320 . S
C443 C441 1.339 . S
C443 C442 1.395 . S
C443 H469 0.929 . S
C444 C442 1.320 . S
C444 C445 1.405 . S
C444 H470 0.930 . S
C445 C440 1.479 . S
C445 C444 1.405 . S
C445 H471 0.931 . S
U446 O447 2.454 1_565 S
U446 O448 2.458 1_565 S
U446 C449 2.984 1_565 S
U446 C450 2.847 . S
U446 C463 2.882 . S
U446 O464 2.441 . S
U446 O465 2.420 . S
U446 O466 2.455 . S
U446 O467 2.449 . S
O447 U446 2.454 1_545 S
O447 C449 1.353 . S
O448 U446 2.458 1_545 S
O448 C449 1.286 . S
C449 U446 2.984 1_545 S
C449 O447 1.353 . S
C449 O448 1.286 . S
C449 C451 1.363 . S
C450 C440 1.465 . S
C450 U446 2.847 . S
C450 O464 1.249 . S
C450 O465 1.202 . S
C451 C449 1.363 . S
C451 C453 1.408 . S
C451 C456 1.342 . S
C452 C453 1.310 . S
C452 C455 1.461 . S
C452 H472 0.932 . S
C453 C451 1.408 . S
C453 C452 1.310 . S
C453 H473 0.930 . S
C454 C455 1.474 . S
C454 C456 1.285 . S
C454 H474 0.929 . S
C455 C452 1.461 . S
C455 C454 1.474 . S
C456 C451 1.342 . S
C456 C454 1.285 . S
C456 H475 0.930 . S
C457 C460 1.424 . S
C457 C462 1.245 . S
C457 C463 1.428 . S
C458 C461 1.260 . S
C458 C462 1.477 . S
C458 H476 0.932 . S
C459 C460 1.384 . S
C459 C461 1.479 . S
C459 H477 0.929 . S
C460 C457 1.424 . S
C460 C459 1.384 . S
C460 H478 0.928 . S
C461 C458 1.260 . S
C461 C459 1.479 . S
C462 C457 1.245 . S
C462 C458 1.477 . S
C462 H479 0.932 . S
C463 U446 2.882 . S
C463 C457 1.428 . S
C463 O466 1.301 . S
C463 O467 1.282 . S
O464 U446 2.441 . S
O464 C450 1.249 . S
O465 U446 2.420 . S
O465 C450 1.202 . S
O466 U446 2.455 . S
O466 C463 1.301 . S
O467 U446 2.449 . S
O467 C463 1.282 . S
H468 C441 0.931 . S
H469 C443 0.929 . S
H470 C444 0.930 . S
H471 C445 0.931 . S
H472 C452 0.932 . S
H473 C453 0.930 . S
H474 C454 0.929 . S
H475 C456 0.930 . S
H476 C458 0.932 . S
H477 C459 0.929 . S
H478 C460 0.928 . S
H479 C462 0.932 . S
C480 C481 1.264 . S
C480 C485 1.479 . S
C480 C490 1.465 . S
C481 C480 1.264 . S
C481 C483 1.339 . S
C481 H508 0.931 . S
C482 C483 1.395 . S
C482 C484 1.320 . S
C483 C481 1.339 . S
C483 C482 1.395 . S
C483 H509 0.929 . S
C484 C482 1.320 . S
C484 C485 1.405 . S
C484 H510 0.930 . S
C485 C480 1.479 . S
C485 C484 1.405 . S
C485 H511 0.931 . S
U486 O487 2.454 . S
U486 O488 2.458 . S
U486 C489 2.984 . S
U486 C490 2.847 . S
U486 C503 2.882 . S
U486 O504 2.441 . S
U486 O505 2.420 . S
U486 O506 2.455 . S
U486 O507 2.449 . S
O487 U486 2.454 . S
O487 C489 1.353 . S
O488 U486 2.458 . S
O488 C489 1.286 . S
C489 U486 2.984 . S
C489 O487 1.353 . S
C489 O488 1.286 . S
C489 C491 1.363 . S
C490 C480 1.465 . S
C490 U486 2.847 . S
C490 O504 1.249 . S
C490 O505 1.202 . S
C491 C489 1.363 . S
C491 C493 1.408 . S
C491 C496 1.342 . S
C492 C493 1.310 . S
C492 C495 1.461 . S
C492 H512 0.932 . S
C493 C491 1.408 . S
C493 C492 1.310 . S
C493 H513 0.930 . S
C494 C495 1.474 . S
C494 C496 1.285 . S
C494 H514 0.929 . S
C495 C492 1.461 . S
C495 C494 1.474 . S
C496 C491 1.342 . S
C496 C494 1.285 . S
C496 H515 0.930 . S
C497 C500 1.424 . S
C497 C502 1.245 . S
C497 C503 1.428 . S
C498 C501 1.260 . S
C498 C502 1.477 . S
C498 H516 0.932 . S
C499 C500 1.384 . S
C499 C501 1.479 . S
C499 H517 0.929 . S
C500 C497 1.424 . S
C500 C499 1.384 . S
C500 H518 0.928 . S
C501 C498 1.260 . S
C501 C499 1.479 . S
C502 C497 1.245 . S
C502 C498 1.477 . S
C502 H519 0.932 . S
C503 U486 2.882 . S
C503 C497 1.428 . S
C503 O506 1.301 . S
C503 O507 1.282 . S
O504 U486 2.441 . S
O504 C490 1.249 . S
O505 U486 2.420 . S
O505 C490 1.202 . S
O506 U486 2.455 . S
O506 C503 1.301 . S
O507 U486 2.449 . S
O507 C503 1.282 . S
H508 C481 0.931 . S
H509 C483 0.929 . S
H510 C484 0.930 . S
H511 C485 0.931 . S
H512 C492 0.932 . S
H513 C493 0.930 . S
H514 C494 0.929 . S
H515 C496 0.930 . S
H516 C498 0.932 . S
H517 C499 0.929 . S
H518 C500 0.928 . S
H519 C502 0.932 . S
C520 C521 1.264 . S
C520 C525 1.479 . S
C520 C530 1.465 . S
C521 C520 1.264 . S
C521 C523 1.339 . S
C521 H548 0.931 . S
C522 C523 1.395 . S
C522 C524 1.320 . S
C523 C521 1.339 . S
C523 C522 1.395 . S
C523 H549 0.929 . S
C524 C522 1.320 . S
C524 C525 1.405 . S
C524 H550 0.930 . S
C525 C520 1.479 . S
C525 C524 1.405 . S
C525 H551 0.931 . S
U526 O527 2.454 . S
U526 O528 2.458 . S
U526 C529 2.984 . S
U526 C530 2.847 . S
U526 C543 2.882 . S
U526 O544 2.441 . S
U526 O545 2.420 . S
U526 O546 2.455 . S
U526 O547 2.449 . S
O527 U526 2.454 . S
O527 C529 1.353 . S
O528 U526 2.458 . S
O528 C529 1.286 . S
C529 U526 2.984 . S
C529 O527 1.353 . S
C529 O528 1.286 . S
C529 C531 1.363 . S
C530 C520 1.465 . S
C530 U526 2.847 . S
C530 O544 1.249 . S
C530 O545 1.202 . S
C531 C529 1.363 . S
C531 C533 1.408 . S
C531 C536 1.342 . S
C532 C533 1.310 . S
C532 C535 1.461 . S
C532 H552 0.932 . S
C533 C531 1.408 . S
C533 C532 1.310 . S
C533 H553 0.930 . S
C534 C535 1.474 . S
C534 C536 1.285 . S
C534 H554 0.929 . S
C535 C532 1.461 . S
C535 C534 1.474 . S
C536 C531 1.342 . S
C536 C534 1.285 . S
C536 H555 0.930 . S
C537 C540 1.424 . S
C537 C542 1.245 . S
C537 C543 1.428 . S
C538 C541 1.260 . S
C538 C542 1.477 . S
C538 H556 0.932 . S
C539 C540 1.384 . S
C539 C541 1.479 . S
C539 H557 0.929 . S
C540 C537 1.424 . S
C540 C539 1.384 . S
C540 H558 0.928 . S
C541 C538 1.260 . S
C541 C539 1.479 . S
C542 C537 1.245 . S
C542 C538 1.477 . S
C542 H559 0.932 . S
C543 U526 2.882 . S
C543 C537 1.428 . S
C543 O546 1.301 . S
C543 O547 1.282 . S
O544 U526 2.441 . S
O544 C530 1.249 . S
O545 U526 2.420 . S
O545 C530 1.202 . S
O546 U526 2.455 . S
O546 C543 1.301 . S
O547 U526 2.449 . S
O547 C543 1.282 . S
H548 C521 0.931 . S
H549 C523 0.929 . S
H550 C524 0.930 . S
H551 C525 0.931 . S
H552 C532 0.932 . S
H553 C533 0.930 . S
H554 C534 0.929 . S
H555 C536 0.930 . S
H556 C538 0.932 . S
H557 C539 0.929 . S
H558 C540 0.928 . S
H559 C542 0.932 . S
C560 C561 1.264 . S
C560 C565 1.479 . S
C560 C570 1.465 . S
C561 C560 1.264 . S
C561 C563 1.339 . S
C561 H588 0.931 . S
C562 C563 1.395 . S
C562 C564 1.320 . S
C563 C561 1.339 . S
C563 C562 1.395 . S
C563 H589 0.929 . S
C564 C562 1.320 . S
C564 C565 1.405 . S
C564 H590 0.930 . S
C565 C560 1.479 . S
C565 C564 1.405 . S
C565 H591 0.931 . S
U566 O567 2.454 . S
U566 O568 2.458 . S
U566 C569 2.984 . S
U566 C570 2.847 1_565 S
U566 C583 2.882 . S
U566 O584 2.441 1_565 S
U566 O585 2.420 . S
U566 O586 2.455 . S
U566 O587 2.449 . S
O567 U566 2.454 . S
O567 C569 1.353 . S
O568 U566 2.458 . S
O568 C569 1.286 . S
C569 U566 2.984 . S
C569 O567 1.353 . S
C569 O568 1.286 . S
C569 C571 1.363 . S
C570 C560 1.465 . S
C570 U566 2.847 1_545 S
C570 O584 1.249 . S
C570 O585 1.202 1_545 S
C571 C569 1.363 . S
C571 C573 1.408 . S
C571 C576 1.342 . S
C572 C573 1.310 . S
C572 C575 1.461 . S
C572 H592 0.932 . S
C573 C571 1.408 . S
C573 C572 1.310 . S
C573 H593 0.930 . S
C574 C575 1.474 . S
C574 C576 1.285 . S
C574 H594 0.929 . S
C575 C572 1.461 . S
C575 C574 1.474 . S
C576 C571 1.342 . S
C576 C574 1.285 . S
C576 H595 0.930 . S
C577 C580 1.424 1_455 S
C577 C582 1.245 . S
C577 C583 1.428 . S
C578 C581 1.260 . S
C578 C582 1.477 1_655 S
C578 H596 0.932 . S
C579 C580 1.384 . S
C579 C581 1.479 . S
C579 H597 0.929 . S
C580 C577 1.424 1_655 S
C580 C579 1.384 . S
C580 H598 0.928 . S
C581 C578 1.260 . S
C581 C579 1.479 . S
C582 C577 1.245 . S
C582 C578 1.477 1_455 S
C582 H599 0.932 . S
C583 U566 2.882 . S
C583 C577 1.428 . S
C583 O586 1.301 . S
C583 O587 1.282 . S
O584 U566 2.441 1_545 S
O584 C570 1.249 . S
O585 U566 2.420 . S
O585 C570 1.202 1_565 S
O586 U566 2.455 . S
O586 C583 1.301 . S
O587 U566 2.449 . S
O587 C583 1.282 . S
H588 C561 0.931 . S
H589 C563 0.929 . S
H590 C564 0.930 . S
H591 C565 0.931 . S
H592 C572 0.932 . S
H593 C573 0.930 . S
H594 C574 0.929 . S
H595 C576 0.930 . S
H596 C578 0.932 . S
H597 C579 0.929 . S
H598 C580 0.928 . S
H599 C582 0.932 . S
C600 C601 1.264 . S
C600 C605 1.479 . S
C600 C610 1.465 . S
C601 C600 1.264 . S
C601 C603 1.339 . S
C601 H628 0.931 . S
C602 C603 1.395 . S
C602 C604 1.320 . S
C603 C601 1.339 . S
C603 C602 1.395 . S
C603 H629 0.929 . S
C604 C602 1.320 . S
C604 C605 1.405 . S
C604 H630 0.930 . S
C605 C600 1.479 . S
C605 C604 1.405 . S
C605 H631 0.931 . S
U606 O607 2.454 . S
U606 O608 2.458 1_545 S
U606 C609 2.984 1_545 S
U606 C610 2.847 . S
U606 C623 2.882 1_545 S
U606 O624 2.441 . S
U606 O625 2.420 . S
U606 O626 2.455 1_545 S
U606 O627 2.449 . S
O607 U606 2.454 . S
O607 C609 1.353 1_545 S
O608 U606 2.458 1_565 S
O608 C609 1.286 . S
C609 U606 2.984 1_565 S
C609 O607 1.353 1_565 S
C609 O608 1.286 . S
C609 C611 1.363 . S
C610 C600 1.465 . S
C610 U606 2.847 . S
C610 O624 1.249 . S
C610 O625 1.202 . S
C611 C609 1.363 . S
C611 C613 1.408 . S
C611 C616 1.342 . S
C612 C613 1.310 . S
C612 C615 1.461 . S
C612 H632 0.932 . S
C613 C611 1.408 . S
C613 C612 1.310 . S
C613 H633 0.930 . S
C614 C615 1.474 . S
C614 C616 1.285 . S
C614 H634 0.929 . S
C615 C612 1.461 . S
C615 C614 1.474 . S
C616 C611 1.342 . S
C616 C614 1.285 . S
C616 H635 0.930 . S
C617 C620 1.424 . S
C617 C622 1.245 . S
C617 C623 1.428 . S
C618 C621 1.260 . S
C618 C622 1.477 . S
C618 H636 0.932 . S
C619 C620 1.384 . S
C619 C621 1.479 . S
C619 H637 0.929 . S
C620 C617 1.424 . S
C620 C619 1.384 . S
C620 H638 0.928 . S
C621 C618 1.260 . S
C621 C619 1.479 . S
C622 C617 1.245 . S
C622 C618 1.477 . S
C622 H639 0.932 . S
C623 U606 2.882 1_565 S
C623 C617 1.428 . S
C623 O626 1.301 . S
C623 O627 1.282 1_565 S
O624 U606 2.441 . S
O624 C610 1.249 . S
O625 U606 2.420 . S
O625 C610 1.202 . S
O626 U606 2.455 1_565 S
O626 C623 1.301 . S
O627 U606 2.449 . S
O627 C623 1.282 1_545 S
H628 C601 0.931 . S
H629 C603 0.929 . S
H630 C604 0.930 . S
H631 C605 0.931 . S
H632 C612 0.932 . S
H633 C613 0.930 . S
H634 C614 0.929 . S
H635 C616 0.930 . S
H636 C618 0.932 . S
H637 C619 0.929 . S
H638 C620 0.928 . S
H639 C622 0.932 . S
C21 C301 2.790 . S
C61 C181 2.802 . S
C101 C221 3.040 . S
C261 C141 3.018 . S
C621 C341 2.745 . S
C501 C381 2.890 . S
C421 C541 2.902 . S
C461 C581 2.831 . S
C335 C2 5.145 . S
C375 C42 4.930 . S
C95 C402 5.296 . S
C442 C122 5.351 . S
C495 C162 4.910 . S
C522 C202 5.300 . S
C562 C255 5.436 . S
C282 C615 4.972 . S
C242 C15 3.940 . S
C295 C55 3.222 . S
C82 C175 3.887 . S
C135 C215 3.218 . S
C575 C322 3.230 . S
C602 C362 3.817 . S
C415 C482 3.208 . S
C455 C535 3.931 . S
