# Generated by pormake.
# Topology soo, (7)-cn, num edge types: 1
# Building blocks:
#     Node 0, Type 0, BuildingBlock: HICVOG_clean_sbu_0, # of connection points: 7
#     Node 1, Type 0, BuildingBlock: HICVOG_clean_sbu_0, # of connection points: 7
#     Node 2, Type 0, BuildingBlock: HICVOG_clean_sbu_0, # of connection points: 7
#     Node 3, Type 0, BuildingBlock: HICVOG_clean_sbu_0, # of connection points: 7
#     Node 4, Type 0, BuildingBlock: HICVOG_clean_sbu_0, # of connection points: 7
#     Node 5, Type 0, BuildingBlock: HICVOG_clean_sbu_0, # of connection points: 7
#     Node 6, Type 0, BuildingBlock: HICVOG_clean_sbu_0, # of connection points: 7
#     Node 7, Type 0, BuildingBlock: HICVOG_clean_sbu_0, # of connection points: 7
#     Node 8, Type 0, BuildingBlock: HICVOG_clean_sbu_0, # of connection points: 7
#     Node 9, Type 0, BuildingBlock: HICVOG_clean_sbu_0, # of connection points: 7
#     Node 10, Type 0, BuildingBlock: HICVOG_clean_sbu_0, # of connection points: 7
#     Node 11, Type 0, BuildingBlock: HICVOG_clean_sbu_0, # of connection points: 7
#     Node 12, Type 0, BuildingBlock: HICVOG_clean_sbu_0, # of connection points: 7
#     Node 13, Type 0, BuildingBlock: HICVOG_clean_sbu_0, # of connection points: 7
#     Node 14, Type 0, BuildingBlock: HICVOG_clean_sbu_0, # of connection points: 7
#     Node 15, Type 0, BuildingBlock: HICVOG_clean_sbu_0, # of connection points: 7
#     Node 16, Type 0, BuildingBlock: HICVOG_clean_sbu_0, # of connection points: 7
#     Node 17, Type 0, BuildingBlock: HICVOG_clean_sbu_0, # of connection points: 7
#     Node 18, Type 0, BuildingBlock: HICVOG_clean_sbu_0, # of connection points: 7
#     Node 19, Type 0, BuildingBlock: HICVOG_clean_sbu_0, # of connection points: 7
#     Node 20, Type 0, BuildingBlock: HICVOG_clean_sbu_0, # of connection points: 7
#     Node 21, Type 0, BuildingBlock: HICVOG_clean_sbu_0, # of connection points: 7
#     Node 22, Type 0, BuildingBlock: HICVOG_clean_sbu_0, # of connection points: 7
#     Node 23, Type 0, BuildingBlock: HICVOG_clean_sbu_0, # of connection points: 7
#     Node 24, Type 0, BuildingBlock: HICVOG_clean_sbu_0, # of connection points: 7
#     Node 25, Type 0, BuildingBlock: HICVOG_clean_sbu_0, # of connection points: 7
#     Node 26, Type 0, BuildingBlock: HICVOG_clean_sbu_0, # of connection points: 7
#     Node 27, Type 0, BuildingBlock: HICVOG_clean_sbu_0, # of connection points: 7
#     Node 28, Type 0, BuildingBlock: HICVOG_clean_sbu_0, # of connection points: 7
#     Node 29, Type 0, BuildingBlock: HICVOG_clean_sbu_0, # of connection points: 7
#     Node 30, Type 0, BuildingBlock: HICVOG_clean_sbu_0, # of connection points: 7
#     Node 31, Type 0, BuildingBlock: HICVOG_clean_sbu_0, # of connection points: 7
#     Edge 32, Type (0, 0), BuildingBlock: CIFDUS_clean_linker_0, # of connection points: 2
#     Edge 33, Type (0, 0), BuildingBlock: CIFDUS_clean_linker_0, # of connection points: 2
#     Edge 34, Type (0, 0), BuildingBlock: CIFDUS_clean_linker_0, # of connection points: 2
#     Edge 35, Type (0, 0), BuildingBlock: CIFDUS_clean_linker_0, # of connection points: 2
#     Edge 36, Type (0, 0), BuildingBlock: CIFDUS_clean_linker_0, # of connection points: 2
#     Edge 37, Type (0, 0), BuildingBlock: CIFDUS_clean_linker_0, # of connection points: 2
#     Edge 38, Type (0, 0), BuildingBlock: CIFDUS_clean_linker_0, # of connection points: 2
#     Edge 39, Type (0, 0), BuildingBlock: CIFDUS_clean_linker_0, # of connection points: 2
#     Edge 40, Type (0, 0), BuildingBlock: CIFDUS_clean_linker_0, # of connection points: 2
#     Edge 41, Type (0, 0), BuildingBlock: CIFDUS_clean_linker_0, # of connection points: 2
#     Edge 42, Type (0, 0), BuildingBlock: CIFDUS_clean_linker_0, # of connection points: 2
#     Edge 43, Type (0, 0), BuildingBlock: CIFDUS_clean_linker_0, # of connection points: 2
#     Edge 44, Type (0, 0), BuildingBlock: CIFDUS_clean_linker_0, # of connection points: 2
#     Edge 45, Type (0, 0), BuildingBlock: CIFDUS_clean_linker_0, # of connection points: 2
#     Edge 46, Type (0, 0), BuildingBlock: CIFDUS_clean_linker_0, # of connection points: 2
#     Edge 47, Type (0, 0), BuildingBlock: CIFDUS_clean_linker_0, # of connection points: 2
#     Edge 48, Type (0, 0), BuildingBlock: CIFDUS_clean_linker_0, # of connection points: 2
#     Edge 49, Type (0, 0), BuildingBlock: CIFDUS_clean_linker_0, # of connection points: 2
#     Edge 50, Type (0, 0), BuildingBlock: CIFDUS_clean_linker_0, # of connection points: 2
#     Edge 51, Type (0, 0), BuildingBlock: CIFDUS_clean_linker_0, # of connection points: 2
#     Edge 52, Type (0, 0), BuildingBlock: CIFDUS_clean_linker_0, # of connection points: 2
#     Edge 53, Type (0, 0), BuildingBlock: CIFDUS_clean_linker_0, # of connection points: 2
#     Edge 54, Type (0, 0), BuildingBlock: CIFDUS_clean_linker_0, # of connection points: 2
#     Edge 55, Type (0, 0), BuildingBlock: CIFDUS_clean_linker_0, # of connection points: 2
#     Edge 56, Type (0, 0), BuildingBlock: CIFDUS_clean_linker_0, # of connection points: 2
#     Edge 57, Type (0, 0), BuildingBlock: CIFDUS_clean_linker_0, # of connection points: 2
#     Edge 58, Type (0, 0), BuildingBlock: CIFDUS_clean_linker_0, # of connection points: 2
#     Edge 59, Type (0, 0), BuildingBlock: CIFDUS_clean_linker_0, # of connection points: 2
#     Edge 60, Type (0, 0), BuildingBlock: CIFDUS_clean_linker_0, # of connection points: 2
#     Edge 61, Type (0, 0), BuildingBlock: CIFDUS_clean_linker_0, # of connection points: 2
#     Edge 62, Type (0, 0), BuildingBlock: CIFDUS_clean_linker_0, # of connection points: 2
#     Edge 63, Type (0, 0), BuildingBlock: CIFDUS_clean_linker_0, # of connection points: 2
#     Edge 64, Type (0, 0), BuildingBlock: CIFDUS_clean_linker_0, # of connection points: 2
#     Edge 65, Type (0, 0), BuildingBlock: CIFDUS_clean_linker_0, # of connection points: 2
#     Edge 66, Type (0, 0), BuildingBlock: CIFDUS_clean_linker_0, # of connection points: 2
#     Edge 67, Type (0, 0), BuildingBlock: CIFDUS_clean_linker_0, # of connection points: 2
#     Edge 68, Type (0, 0), BuildingBlock: CIFDUS_clean_linker_0, # of connection points: 2
#     Edge 69, Type (0, 0), BuildingBlock: CIFDUS_clean_linker_0, # of connection points: 2
#     Edge 70, Type (0, 0), BuildingBlock: CIFDUS_clean_linker_0, # of connection points: 2
#     Edge 71, Type (0, 0), BuildingBlock: CIFDUS_clean_linker_0, # of connection points: 2
#     Edge 72, Type (0, 0), BuildingBlock: CIFDUS_clean_linker_0, # of connection points: 2
#     Edge 73, Type (0, 0), BuildingBlock: CIFDUS_clean_linker_0, # of connection points: 2
#     Edge 74, Type (0, 0), BuildingBlock: CIFDUS_clean_linker_0, # of connection points: 2
#     Edge 75, Type (0, 0), BuildingBlock: CIFDUS_clean_linker_0, # of connection points: 2
#     Edge 76, Type (0, 0), BuildingBlock: CIFDUS_clean_linker_0, # of connection points: 2
#     Edge 77, Type (0, 0), BuildingBlock: CIFDUS_clean_linker_0, # of connection points: 2
#     Edge 78, Type (0, 0), BuildingBlock: CIFDUS_clean_linker_0, # of connection points: 2
#     Edge 79, Type (0, 0), BuildingBlock: CIFDUS_clean_linker_0, # of connection points: 2
#     Edge 80, Type (0, 0), BuildingBlock: CIFDUS_clean_linker_0, # of connection points: 2
#     Edge 81, Type (0, 0), BuildingBlock: CIFDUS_clean_linker_0, # of connection points: 2
#     Edge 82, Type (0, 0), BuildingBlock: CIFDUS_clean_linker_0, # of connection points: 2
#     Edge 83, Type (0, 0), BuildingBlock: CIFDUS_clean_linker_0, # of connection points: 2
#     Edge 84, Type (0, 0), BuildingBlock: CIFDUS_clean_linker_0, # of connection points: 2
#     Edge 85, Type (0, 0), BuildingBlock: CIFDUS_clean_linker_0, # of connection points: 2
#     Edge 86, Type (0, 0), BuildingBlock: CIFDUS_clean_linker_0, # of connection points: 2
#     Edge 87, Type (0, 0), BuildingBlock: CIFDUS_clean_linker_0, # of connection points: 2
#     Edge 88, Type (0, 0), BuildingBlock: CIFDUS_clean_linker_0, # of connection points: 2
#     Edge 89, Type (0, 0), BuildingBlock: CIFDUS_clean_linker_0, # of connection points: 2
#     Edge 90, Type (0, 0), BuildingBlock: CIFDUS_clean_linker_0, # of connection points: 2
#     Edge 91, Type (0, 0), BuildingBlock: CIFDUS_clean_linker_0, # of connection points: 2
#     Edge 92, Type (0, 0), BuildingBlock: CIFDUS_clean_linker_0, # of connection points: 2
#     Edge 93, Type (0, 0), BuildingBlock: CIFDUS_clean_linker_0, # of connection points: 2
#     Edge 94, Type (0, 0), BuildingBlock: CIFDUS_clean_linker_0, # of connection points: 2
#     Edge 95, Type (0, 0), BuildingBlock: CIFDUS_clean_linker_0, # of connection points: 2
#     Edge 96, Type (0, 0), BuildingBlock: CIFDUS_clean_linker_0, # of connection points: 2
#     Edge 97, Type (0, 0), BuildingBlock: CIFDUS_clean_linker_0, # of connection points: 2
#     Edge 98, Type (0, 0), BuildingBlock: CIFDUS_clean_linker_0, # of connection points: 2
#     Edge 99, Type (0, 0), BuildingBlock: CIFDUS_clean_linker_0, # of connection points: 2
#     Edge 100, Type (0, 0), BuildingBlock: CIFDUS_clean_linker_0, # of connection points: 2
#     Edge 101, Type (0, 0), BuildingBlock: CIFDUS_clean_linker_0, # of connection points: 2
#     Edge 102, Type (0, 0), BuildingBlock: CIFDUS_clean_linker_0, # of connection points: 2
#     Edge 103, Type (0, 0), BuildingBlock: CIFDUS_clean_linker_0, # of connection points: 2
#     Edge 104, Type (0, 0), BuildingBlock: CIFDUS_clean_linker_0, # of connection points: 2
#     Edge 105, Type (0, 0), BuildingBlock: CIFDUS_clean_linker_0, # of connection points: 2
#     Edge 106, Type (0, 0), BuildingBlock: CIFDUS_clean_linker_0, # of connection points: 2
#     Edge 107, Type (0, 0), BuildingBlock: CIFDUS_clean_linker_0, # of connection points: 2
#     Edge 108, Type (0, 0), BuildingBlock: CIFDUS_clean_linker_0, # of connection points: 2
#     Edge 109, Type (0, 0), BuildingBlock: CIFDUS_clean_linker_0, # of connection points: 2
#     Edge 110, Type (0, 0), BuildingBlock: CIFDUS_clean_linker_0, # of connection points: 2
#     Edge 111, Type (0, 0), BuildingBlock: CIFDUS_clean_linker_0, # of connection points: 2
#     Edge 112, Type (0, 0), BuildingBlock: CIFDUS_clean_linker_0, # of connection points: 2
#     Edge 113, Type (0, 0), BuildingBlock: CIFDUS_clean_linker_0, # of connection points: 2
#     Edge 114, Type (0, 0), BuildingBlock: CIFDUS_clean_linker_0, # of connection points: 2
#     Edge 115, Type (0, 0), BuildingBlock: CIFDUS_clean_linker_0, # of connection points: 2
#     Edge 116, Type (0, 0), BuildingBlock: CIFDUS_clean_linker_0, # of connection points: 2
#     Edge 117, Type (0, 0), BuildingBlock: CIFDUS_clean_linker_0, # of connection points: 2
#     Edge 118, Type (0, 0), BuildingBlock: CIFDUS_clean_linker_0, # of connection points: 2
#     Edge 119, Type (0, 0), BuildingBlock: CIFDUS_clean_linker_0, # of connection points: 2
#     Edge 120, Type (0, 0), BuildingBlock: CIFDUS_clean_linker_0, # of connection points: 2
#     Edge 121, Type (0, 0), BuildingBlock: CIFDUS_clean_linker_0, # of connection points: 2
#     Edge 122, Type (0, 0), BuildingBlock: CIFDUS_clean_linker_0, # of connection points: 2
#     Edge 123, Type (0, 0), BuildingBlock: CIFDUS_clean_linker_0, # of connection points: 2
#     Edge 124, Type (0, 0), BuildingBlock: CIFDUS_clean_linker_0, # of connection points: 2
#     Edge 125, Type (0, 0), BuildingBlock: CIFDUS_clean_linker_0, # of connection points: 2
#     Edge 126, Type (0, 0), BuildingBlock: CIFDUS_clean_linker_0, # of connection points: 2
#     Edge 127, Type (0, 0), BuildingBlock: CIFDUS_clean_linker_0, # of connection points: 2
#     Edge 128, Type (0, 0), BuildingBlock: CIFDUS_clean_linker_0, # of connection points: 2
#     Edge 129, Type (0, 0), BuildingBlock: CIFDUS_clean_linker_0, # of connection points: 2
#     Edge 130, Type (0, 0), BuildingBlock: CIFDUS_clean_linker_0, # of connection points: 2
#     Edge 131, Type (0, 0), BuildingBlock: CIFDUS_clean_linker_0, # of connection points: 2
#     Edge 132, Type (0, 0), BuildingBlock: CIFDUS_clean_linker_0, # of connection points: 2
#     Edge 133, Type (0, 0), BuildingBlock: CIFDUS_clean_linker_0, # of connection points: 2
#     Edge 134, Type (0, 0), BuildingBlock: CIFDUS_clean_linker_0, # of connection points: 2
#     Edge 135, Type (0, 0), BuildingBlock: CIFDUS_clean_linker_0, # of connection points: 2
#     Edge 136, Type (0, 0), BuildingBlock: CIFDUS_clean_linker_0, # of connection points: 2
#     Edge 137, Type (0, 0), BuildingBlock: CIFDUS_clean_linker_0, # of connection points: 2
#     Edge 138, Type (0, 0), BuildingBlock: CIFDUS_clean_linker_0, # of connection points: 2
#     Edge 139, Type (0, 0), BuildingBlock: CIFDUS_clean_linker_0, # of connection points: 2
#     Edge 140, Type (0, 0), BuildingBlock: CIFDUS_clean_linker_0, # of connection points: 2
#     Edge 141, Type (0, 0), BuildingBlock: CIFDUS_clean_linker_0, # of connection points: 2
#     Edge 142, Type (0, 0), BuildingBlock: CIFDUS_clean_linker_0, # of connection points: 2
#     Edge 143, Type (0, 0), BuildingBlock: CIFDUS_clean_linker_0, # of connection points: 2
# Relax obj value: 0.166
# Max RMSD: 0.219
# Mean RMSD: 0.219
data_MOF--net-soo--node1-HICVOG_clean_sbu_0--edge1-CIFDUS_clean_linker_0
_symmetry_space_group_name_H-M    P1
_symmetry_Int_Tables_number       1
_symmetry_cell_setting            triclinic
loop_
_symmetry_equiv_pos_as_xyz
'x, y, z'
_cell_length_a     147.67565
_cell_length_b     46.072091
_cell_length_c     16.237286
_cell_angle_alpha  90.001303
_cell_angle_beta   90.01845
_cell_angle_gamma 90.081533
loop_
_atom_site_label
_atom_site_type_symbol
_atom_site_fract_x
_atom_site_fract_y
_atom_site_fract_z
_atom_type_partial_charge
Zn0 Zn 0.07415 0.51349 0.25241 0.0
C1 C 0.06684 0.4477 0.10936 0.0
N2 N 0.07047 0.43264 0.17173 0.0
C3 C 0.07158 0.45243 0.23066 0.0
N4 N 0.06878 0.47889 0.20543 0.0
N5 N 0.06569 0.47613 0.12884 0.0
C6 C 0.06633 0.51923 0.90931 0.0
O7 O 0.07096 0.53779 0.9539 0.0
O8 O 0.07495 0.51025 0.37886 0.0
Zn9 Zn 0.05828 0.50559 0.0709 0.0
N10 N 0.08567 0.51721 0.1936 0.0
C11 C 0.09057 0.52487 0.05568 0.0
C12 C 0.0837 0.52259 0.1134 0.0
C13 C 0.09444 0.51376 0.21893 0.0
N14 N 0.09925 0.52152 0.08023 0.0
C15 C 0.10151 0.51598 0.15998 0.0
O16 O 0.06031 0.54798 0.10675 0.0
C17 C 0.06322 0.56264 0.16809 0.0
O18 O 0.06756 0.55093 0.22712 0.0
H19 H 0.07674 0.52459 0.09455 0.0
H20 H 0.09583 0.50876 0.28277 0.0
C21 C 0.03818 0.50735 0.06079 0.0
C22 C 0.02941 0.50114 0.09182 0.0
C23 C 0.03611 0.47462 0.20148 0.0
C24 C 0.04468 0.48095 0.17118 0.0
N25 N 0.04563 0.49706 0.10145 0.0
N26 N 0.02873 0.48485 0.16149 0.0
H27 H 0.03911 0.52071 0.00668 0.0
C28 C 0.0674 0.51396 0.41575 0.0
O29 O 0.06019 0.51976 0.37127 0.0
O30 O 0.06034 0.50355 0.9445 0.0
H31 H 0.05053 0.47328 0.20422 0.0
H32 H 0.08905 0.52906 0.99162 0.0
H33 H 0.03531 0.46185 0.25693 0.0
Zn34 Zn 0.18627 0.7869 0.24297 0.0
C35 C 0.19838 0.84307 0.08678 0.0
N36 N 0.19606 0.86321 0.1417 0.0
C37 C 0.19265 0.84769 0.20424 0.0
N38 N 0.19284 0.81869 0.18831 0.0
N39 N 0.19657 0.81609 0.11401 0.0
C40 C 0.1955 0.76996 0.89749 0.0
O41 O 0.19023 0.75291 0.94121 0.0
O42 O 0.18599 0.7905 0.37105 0.0
Zn43 Zn 0.20284 0.78318 0.06253 0.0
N44 N 0.1746 0.78539 0.18375 0.0
C45 C 0.16983 0.77847 0.04499 0.0
C46 C 0.17663 0.78012 0.10348 0.0
C47 C 0.16579 0.78882 0.20831 0.0
N48 N 0.16113 0.78179 0.0688 0.0
C49 C 0.15874 0.78685 0.14852 0.0
O50 O 0.19909 0.74346 0.10365 0.0
C51 C 0.19548 0.73161 0.16651 0.0
O52 O 0.19147 0.74641 0.22201 0.0
H53 H 0.18359 0.77727 0.08489 0.0
H54 H 0.16434 0.79325 0.27234 0.0
C55 C 0.22302 0.78032 0.05282 0.0
C56 C 0.23175 0.78428 0.08801 0.0
C57 C 0.22478 0.80248 0.20963 0.0
C58 C 0.21629 0.79822 0.17521 0.0
N59 N 0.2155 0.7876 0.09742 0.0
N60 N 0.23224 0.79544 0.16559 0.0
H61 H 0.22214 0.77115 0.99215 0.0
C62 C 0.19311 0.79932 0.4084 0.0
O63 O 0.2001 0.80749 0.36405 0.0
O64 O 0.20164 0.78447 0.93481 0.0
H65 H 0.21032 0.80316 0.21089 0.0
H66 H 0.17143 0.77445 0.98098 0.0
H67 H 0.22546 0.81107 0.27133 0.0
Zn68 Zn 0.05971 0.79121 0.20446 0.0
C69 C 0.0735 0.84566 0.05357 0.0
N70 N 0.07116 0.86586 0.10841 0.0
C71 C 0.0674 0.85056 0.16982 0.0
N72 N 0.06738 0.82163 0.15371 0.0
N73 N 0.07139 0.81878 0.08083 0.0
C74 C 0.07396 0.77962 0.86528 0.0
O75 O 0.06686 0.76652 0.89693 0.0
O76 O 0.0603 0.79085 0.332 0.0
Zn77 Zn 0.07769 0.78479 0.03944 0.0
N78 N 0.04745 0.79854 0.16097 0.0
C79 C 0.03982 0.81388 0.03923 0.0
C80 C 0.04775 0.80746 0.08117 0.0
C81 C 0.03932 0.7948 0.2001 0.0
N82 N 0.03178 0.81057 0.07797 0.0
C83 C 0.03118 0.80103 0.15712 0.0
O84 O 0.07109 0.7467 0.05664 0.0
C85 C 0.06596 0.73483 0.11001 0.0
O86 O 0.06226 0.74942 0.16767 0.0
H87 H 0.05415 0.80939 0.04976 0.0
H88 H 0.0392 0.78743 0.26335 0.0
C89 C 0.09748 0.78628 0.08839 0.0
C90 C 0.10427 0.7836 0.15038 0.0
C91 C 0.09272 0.77211 0.24751 0.0
C92 C 0.08617 0.77476 0.18678 0.0
N93 N 0.08859 0.78167 0.10853 0.0
N94 N 0.10152 0.77654 0.22793 0.0
H95 H 0.09911 0.79198 0.02566 0.0
C96 C 0.06712 0.79793 0.37611 0.0
O97 O 0.07447 0.80764 0.33972 0.0
O98 O 0.08005 0.78918 0.91432 0.0
H99 H 0.07912 0.77155 0.20199 0.0
H100 H 0.04004 0.82123 0.97597 0.0
H101 H 0.09083 0.76664 0.31001 0.0
Zn102 Zn 0.18201 0.50878 0.05254 0.0
C103 C 0.19182 0.4428 0.182 0.0
N104 N 0.18812 0.42764 0.11999 0.0
C105 C 0.18599 0.44795 0.06486 0.0
N106 N 0.18823 0.4747 0.09218 0.0
N107 N 0.19202 0.47169 0.16589 0.0
C108 C 0.1917 0.49385 0.39069 0.0
O109 O 0.1845 0.48281 0.35493 0.0
O110 O 0.17927 0.50419 0.9288 0.0
Zn111 Zn 0.19931 0.50224 0.21973 0.0
N112 N 0.17141 0.51223 0.12392 0.0
C113 C 0.1675 0.51989 0.26433 0.0
C114 C 0.17397 0.51745 0.20288 0.0
C115 C 0.16247 0.50931 0.10361 0.0
N116 N 0.15865 0.51695 0.24465 0.0
C117 C 0.15579 0.51169 0.16627 0.0
O118 O 0.19683 0.54423 0.18366 0.0
C119 C 0.19349 0.55856 0.12371 0.0
O120 O 0.18874 0.54652 0.06788 0.0
H121 H 0.18106 0.51947 0.21805 0.0
H122 H 0.16073 0.50534 0.04005 0.0
C123 C 0.21937 0.50268 0.22678 0.0
C124 C 0.22802 0.4981 0.19151 0.0
C125 C 0.22093 0.47923 0.07143 0.0
C126 C 0.21247 0.48397 0.10611 0.0
N127 N 0.21179 0.49544 0.18303 0.0
N128 N 0.22846 0.48643 0.11457 0.0
H129 H 0.21862 0.51248 0.2869 0.0
C130 C 0.1854 0.51306 0.87933 0.0
O131 O 0.19265 0.52549 0.91036 0.0
O132 O 0.19836 0.50206 0.34634 0.0
H133 H 0.20645 0.47888 0.07117 0.0
H134 H 0.16949 0.52402 0.3274 0.0
H135 H 0.22153 0.47013 0.01026 0.0
Zn136 Zn 0.93287 0.53753 0.82233 0.0
C137 C 0.94393 0.59951 0.95953 0.0
N138 N 0.9411 0.61692 0.89865 0.0
C139 C 0.93849 0.59799 0.84057 0.0
N140 N 0.93967 0.57021 0.86533 0.0
N141 N 0.94315 0.57115 0.9404 0.0
C142 C 0.94395 0.53569 0.16285 0.0
O143 O 0.93681 0.52401 0.12788 0.0
O144 O 0.93122 0.54105 0.69806 0.0
Zn145 Zn 0.95016 0.53999 0.99211 0.0
N146 N 0.92145 0.53806 0.88262 0.0
C147 C 0.9157 0.53448 0.01902 0.0
C148 C 0.92294 0.5347 0.96452 0.0
C149 C 0.91288 0.54118 0.8523 0.0
N150 N 0.90718 0.5374 0.98937 0.0
C151 C 0.90543 0.54069 0.90752 0.0
O152 O 0.94606 0.4989 0.96381 0.0
C153 C 0.9422 0.48483 0.90585 0.0
O154 O 0.93807 0.49761 0.84718 0.0
H155 H 0.92976 0.53222 0.98693 0.0
H156 H 0.91197 0.54424 0.78686 0.0
C157 C 0.97019 0.53808 0.99101 0.0
C158 C 0.97873 0.54077 0.95141 0.0
C159 C 0.97109 0.55388 0.82772 0.0
C160 C 0.96278 0.55086 0.86681 0.0
N161 N 0.96244 0.5434 0.94763 0.0
N162 N 0.9788 0.54876 0.87061 0.0
H163 H 0.9696 0.53134 0.05444 0.0
C164 C 0.93803 0.5354 0.6526 0.0
O165 O 0.94565 0.52744 0.68767 0.0
O166 O 0.95049 0.54421 0.11765 0.0
H167 H 0.95661 0.55413 0.83269 0.0
H168 H 0.91683 0.5319 0.08445 0.0
H169 H 0.97143 0.55996 0.76344 0.0
Zn170 Zn 0.82563 0.25731 0.82208 0.0
C171 C 0.8118 0.20135 0.96581 0.0
N172 N 0.8135 0.18163 0.9079 0.0
C173 C 0.81733 0.19705 0.84706 0.0
N174 N 0.81803 0.22574 0.8671 0.0
N175 N 0.81432 0.22813 0.94136 0.0
C176 C 0.8142 0.26656 0.16346 0.0
O177 O 0.82131 0.27935 0.13086 0.0
O178 O 0.82688 0.25506 0.69705 0.0
Zn179 Zn 0.80898 0.26251 0.99148 0.0
N180 N 0.83719 0.25412 0.88111 0.0
C181 C 0.84313 0.25284 0.01734 0.0
C182 C 0.83582 0.25448 0.96382 0.0
C183 C 0.84576 0.25268 0.8493 0.0
N184 N 0.85162 0.25153 0.98623 0.0
C185 C 0.8533 0.25156 0.90374 0.0
O186 O 0.81509 0.30106 0.9691 0.0
C187 C 0.81874 0.31379 0.90785 0.0
O188 O 0.82162 0.29959 0.84556 0.0
H189 H 0.82905 0.25631 0.98809 0.0
H190 H 0.84661 0.25238 0.78322 0.0
C191 C 0.78902 0.26694 0.98422 0.0
C192 C 0.78078 0.27013 0.94036 0.0
C193 C 0.78913 0.27056 0.81497 0.0
C194 C 0.79718 0.26786 0.85857 0.0
N195 N 0.79701 0.26603 0.94198 0.0
N196 N 0.78119 0.27171 0.85663 0.0
H197 H 0.78918 0.26502 0.05049 0.0
C198 C 0.81994 0.25076 0.65196 0.0
O199 O 0.81207 0.24625 0.68749 0.0
O200 O 0.8079 0.25766 0.11606 0.0
H201 H 0.80358 0.26727 0.82634 0.0
H202 H 0.84208 0.25296 0.08328 0.0
H203 H 0.78918 0.27194 0.74846 0.0
Zn204 Zn 0.93499 0.25559 0.92662 0.0
C205 C 0.94925 0.20145 0.78128 0.0
N206 N 0.94746 0.18123 0.83763 0.0
C207 C 0.94339 0.19606 0.89826 0.0
N208 N 0.94265 0.22478 0.87986 0.0
N209 N 0.94651 0.22787 0.80658 0.0
C210 C 0.94642 0.26682 0.58467 0.0
O211 O 0.93915 0.27873 0.6167 0.0
O212 O 0.93377 0.25274 0.05166 0.0
Zn213 Zn 0.95125 0.26309 0.75728 0.0
N214 N 0.92345 0.25276 0.86671 0.0
C215 C 0.91768 0.25175 0.72983 0.0
C216 C 0.92492 0.25324 0.78413 0.0
C217 C 0.91484 0.25123 0.89761 0.0
N218 N 0.90916 0.2502 0.76002 0.0
C219 C 0.90738 0.24997 0.84233 0.0
O220 O 0.94417 0.29985 0.77734 0.0
C221 C 0.94129 0.31211 0.84246 0.0
O222 O 0.93921 0.29761 0.90672 0.0
H223 H 0.93172 0.25506 0.76053 0.0
H224 H 0.91388 0.2516 0.96357 0.0
C225 C 0.97109 0.26897 0.77172 0.0
C226 C 0.97908 0.27363 0.81814 0.0
C227 C 0.97009 0.27852 0.9389 0.0
C228 C 0.96228 0.27403 0.89286 0.0
N229 N 0.96289 0.26943 0.81045 0.0
N230 N 0.97825 0.27822 0.90069 0.0
H231 H 0.97131 0.26455 0.70639 0.0
C232 C 0.94077 0.24918 0.09653 0.0
O233 O 0.94867 0.24569 0.06072 0.0
O234 O 0.95275 0.25855 0.63269 0.0
H235 H 0.95574 0.27401 0.9226 0.0
H236 H 0.91882 0.25203 0.66401 0.0
H237 H 0.96969 0.28217 0.00462 0.0
Zn238 Zn 0.82427 0.545 0.93519 0.0
C239 C 0.80772 0.59815 0.80238 0.0
N240 N 0.80974 0.61828 0.858 0.0
C241 C 0.8149 0.60443 0.91333 0.0
N242 N 0.81576 0.57556 0.8943 0.0
N243 N 0.81116 0.5721 0.82417 0.0
C244 C 0.81305 0.5335 0.59674 0.0
O245 O 0.82053 0.52446 0.63223 0.0
O246 O 0.82584 0.54529 0.06094 0.0
Zn247 Zn 0.80689 0.53673 0.76837 0.0
N248 N 0.83555 0.5517 0.87492 0.0
C249 C 0.84119 0.56049 0.73991 0.0
C250 C 0.83399 0.55631 0.7935 0.0
C251 C 0.84418 0.55047 0.90503 0.0
N252 N 0.84975 0.55933 0.76942 0.0
C253 C 0.85158 0.55432 0.85041 0.0
O254 O 0.81345 0.4993 0.79245 0.0
C255 C 0.8179 0.48733 0.85019 0.0
O256 O 0.8212 0.5021 0.90956 0.0
H257 H 0.82716 0.55619 0.77006 0.0
H258 H 0.84521 0.54573 0.96956 0.0
C259 C 0.78693 0.53025 0.76974 0.0
C260 C 0.77866 0.52506 0.81148 0.0
C261 C 0.78684 0.52045 0.93709 0.0
C262 C 0.79492 0.52534 0.8956 0.0
N263 N 0.79485 0.53017 0.81313 0.0
N264 N 0.77896 0.52041 0.89431 0.0
H265 H 0.78712 0.53466 0.70438 0.0
C266 C 0.81904 0.53839 0.10553 0.0
O267 O 0.81135 0.53204 0.06908 0.0
O268 O 0.80631 0.54039 0.64194 0.0
H269 H 0.80127 0.52537 0.92873 0.0
H270 H 0.84 0.56425 0.67503 0.0
H271 H 0.78681 0.51665 0.00284 0.0
Zn272 Zn 0.07263 1.00465 0.69972 0.0
C273 C 0.05904 0.94896 0.55326 0.0
N274 N 0.06131 0.92892 0.60879 0.0
C275 C 0.06512 0.94436 0.66968 0.0
N276 N 0.0652 0.97327 0.65241 0.0
N277 N 0.06119 0.97587 0.5795 0.0
C278 C 0.06009 1.0156 0.35868 0.0
O279 O 0.0671 0.02905 0.39082 0.0
O280 O 0.07349 1.00305 0.82608 0.0
Zn281 Zn 0.05563 1.01039 0.53183 0.0
N282 N 0.08419 1.00151 0.64124 0.0
C283 C 0.0898 0.99952 0.504 0.0
C284 C 0.08263 1.00139 0.55875 0.0
C285 C 0.09282 1.00069 0.67162 0.0
N286 N 0.09835 0.99861 0.53365 0.0
C287 C 0.10022 0.99934 0.61579 0.0
O288 O 0.06211 0.04831 0.55157 0.0
C289 C 0.06597 0.06078 0.61208 0.0
O290 O 0.06882 0.04654 0.67428 0.0
H291 H 0.07582 1.00315 0.5355 0.0
H292 H 0.09385 1.0018 0.73744 0.0
C293 C 0.03574 1.01804 0.55531 0.0
C294 C 0.02812 1.02124 0.60754 0.0
C295 C 0.03782 1.01714 0.72399 0.0
C296 C 0.04526 1.0143 0.67246 0.0
N297 N 0.04413 1.01456 0.58948 0.0
N298 N 0.02949 1.02057 0.69051 0.0
H299 H 0.03512 1.01894 0.48904 0.0
C300 C 0.06665 0.99695 0.87097 0.0
O301 O 0.059 0.98969 0.83518 0.0
O302 O 0.05397 1.00585 0.40686 0.0
H303 H 0.05196 1.01212 0.69827 0.0
H304 H 0.0886 0.99921 0.43827 0.0
H305 H 0.03865 1.01688 0.79019 0.0
Zn306 Zn 0.18499 0.28707 0.70848 0.0
C307 C 0.19876 0.34308 0.56516 0.0
N308 N 0.1968 0.36299 0.62187 0.0
C309 C 0.19288 0.34763 0.6823 0.0
N310 N 0.19241 0.31885 0.66338 0.0
N311 N 0.1963 0.31634 0.59007 0.0
C312 C 0.19649 0.27742 0.36638 0.0
O313 O 0.1894 0.26433 0.39818 0.0
O314 O 0.18369 0.28937 0.83346 0.0
Zn315 Zn 0.2012 0.28166 0.53908 0.0
N316 N 0.1735 0.28936 0.6477 0.0
C317 C 0.16793 0.28985 0.5101 0.0
C318 C 0.17508 0.28858 0.56532 0.0
C319 C 0.16485 0.29115 0.67752 0.0
N320 N 0.15937 0.29163 0.53921 0.0
C321 C 0.15747 0.29228 0.62128 0.0
O322 O 0.19424 0.24468 0.55695 0.0
C323 C 0.19148 0.23163 0.62119 0.0
O324 O 0.18952 0.24531 0.68717 0.0
H325 H 0.18191 0.28682 0.54256 0.0
H326 H 0.16379 0.29117 0.74337 0.0
C327 C 0.22093 0.27428 0.55079 0.0
C328 C 0.22901 0.26966 0.59575 0.0
C329 C 0.22039 0.26814 0.71937 0.0
C330 C 0.21247 0.27243 0.67464 0.0
N331 N 0.21286 0.27545 0.59154 0.0
N332 N 0.22842 0.26685 0.6791 0.0
H333 H 0.22099 0.27733 0.48479 0.0
C334 C 0.19061 0.29413 0.87842 0.0
O335 O 0.19844 0.29911 0.84273 0.0
O336 O 0.20267 0.28669 0.41458 0.0
H337 H 0.20602 0.27347 0.70584 0.0
H338 H 0.16916 0.2893 0.44443 0.0
H339 H 0.22016 0.2658 0.78563 0.0
Zn340 Zn 0.05973 0.28282 0.75809 0.0
C341 C 0.0668 0.34843 0.61066 0.0
N342 N 0.06283 0.36378 0.67079 0.0
C343 C 0.06149 0.34425 0.73009 0.0
N344 N 0.06438 0.31777 0.70699 0.0
N345 N 0.06796 0.32015 0.63237 0.0
C346 C 0.07024 0.29548 0.41869 0.0
O347 O 0.0623 0.29797 0.45431 0.0
O348 O 0.05834 0.28799 0.88242 0.0
Zn349 Zn 0.07578 0.28937 0.58819 0.0
N350 N 0.04804 0.27622 0.7059 0.0
C351 C 0.04079 0.26671 0.57791 0.0
C352 C 0.04861 0.27135 0.62359 0.0
C353 C 0.03985 0.27682 0.74487 0.0
N354 N 0.03265 0.26715 0.61635 0.0
C355 C 0.03185 0.27203 0.69879 0.0
O356 O 0.07151 0.2474 0.60855 0.0
C357 C 0.06952 0.23323 0.6737 0.0
O358 O 0.06678 0.24591 0.73873 0.0
H359 H 0.05514 0.27128 0.59363 0.0
H360 H 0.03965 0.28145 0.81009 0.0
C361 C 0.09586 0.29302 0.61903 0.0
C362 C 0.1033 0.29404 0.67454 0.0
C363 C 0.09293 0.2942 0.78662 0.0
C364 C 0.08572 0.29264 0.7321 0.0
N365 N 0.08723 0.29235 0.64958 0.0
N366 N 0.10148 0.29476 0.75675 0.0
H367 H 0.09683 0.29278 0.5531 0.0
C368 C 0.06473 0.28008 0.93014 0.0
O369 O 0.07201 0.26828 0.89792 0.0
O370 O 0.07725 0.29251 0.46372 0.0
H371 H 0.0789 0.29137 0.75552 0.0
H372 H 0.04116 0.26284 0.51228 0.0
H373 H 0.09176 0.29459 0.85238 0.0
Zn374 Zn 0.19907 1.00055 0.74203 0.0
C375 C 0.18538 0.94727 0.58753 0.0
N376 N 0.1875 0.9268 0.64223 0.0
C377 C 0.1913 0.94171 0.70413 0.0
N378 N 0.19155 0.97063 0.68849 0.0
N379 N 0.18769 0.97396 0.61509 0.0
C380 C 0.18522 1.0141 0.40145 0.0
O381 O 0.19234 0.0272 0.43281 0.0
O382 O 0.19825 1.00033 0.86879 0.0
Zn383 Zn 0.18137 1.00811 0.57513 0.0
N384 N 0.21158 0.99353 0.7046 0.0
C385 C 0.22078 0.97153 0.60166 0.0
C386 C 0.2123 0.97772 0.63416 0.0
C387 C 0.21915 1.00383 0.74352 0.0
N388 N 0.22828 0.98162 0.64025 0.0
C389 C 0.22784 0.99773 0.71046 0.0
O390 O 0.18731 0.04688 0.59868 0.0
C391 C 0.19223 0.05793 0.65499 0.0
O392 O 0.19616 0.04222 0.70888 0.0
H393 H 0.20633 0.97002 0.60274 0.0
H394 H 0.21832 1.01691 0.79821 0.0
C395 C 0.16156 1.00657 0.61103 0.0
C396 C 0.15425 1.00804 0.66757 0.0
C397 C 0.16482 1.01451 0.7766 0.0
C398 C 0.17193 1.0134 0.72075 0.0
N399 N 0.17022 1.00938 0.63935 0.0
N400 N 0.15621 1.01188 0.74884 0.0
H401 H 0.16045 1.00295 0.54604 0.0
C402 C 0.19148 0.99328 0.91327 0.0
O403 O 0.18409 0.98356 0.87758 0.0
O404 O 0.17917 1.00446 0.45051 0.0
H405 H 0.17884 1.01564 0.74198 0.0
H406 H 0.22141 0.95891 0.54578 0.0
H407 H 0.16612 1.01758 0.8416 0.0
Zn408 Zn 0.93488 0.03365 0.26626 0.0
C409 C 0.94352 0.10079 0.39839 0.0
N410 N 0.93962 0.11553 0.33663 0.0
C411 C 0.93778 0.09506 0.28111 0.0
N412 N 0.94037 0.06863 0.30796 0.0
N413 N 0.9441 0.07198 0.38178 0.0
C414 C 0.94454 0.04935 0.60463 0.0
O415 O 0.93697 0.057 0.56831 0.0
O416 O 0.93223 0.03795 0.14238 0.0
Zn417 Zn 0.95178 0.0421 0.43386 0.0
N418 N 0.92423 0.02824 0.33558 0.0
C419 C 0.92 1.01885 0.47456 0.0
C420 C 0.92661 0.02248 0.41474 0.0
C421 C 0.91534 0.03087 0.31373 0.0
N422 N 0.91118 0.02135 0.4532 0.0
C423 C 0.90855 0.02729 0.37462 0.0
O424 O 0.94915 0.99961 0.40273 0.0
C425 C 0.94631 0.98507 0.34099 0.0
O426 O 0.94208 0.99689 0.28153 0.0
H427 H 0.93366 1.02117 0.43161 0.0
H428 H 0.91366 0.03628 0.25077 0.0
C429 C 0.97189 0.04049 0.42742 0.0
C430 C 0.98017 0.04356 0.38441 0.0
C431 C 0.97223 0.0638 0.27115 0.0
C432 C 0.9641 0.06035 0.313 0.0
N433 N 0.96401 0.04879 0.39013 0.0
N434 N 0.98003 0.05516 0.30738 0.0
H435 H 0.97168 0.0307 0.48797 0.0
C436 C 0.93853 0.03016 0.09328 0.0
O437 O 0.94595 1.01902 0.12469 0.0
O438 O 0.95144 0.04333 0.56052 0.0
H439 H 0.95787 0.06626 0.28288 0.0
H440 H 0.92185 1.01429 0.53771 0.0
H441 H 0.97234 0.07283 0.20965 0.0
Zn442 Zn 0.82823 0.75047 0.30236 0.0
C443 C 0.80914 0.69902 0.4124 0.0
N444 N 0.81082 0.68152 0.34874 0.0
C445 C 0.81665 0.6964 0.30217 0.0
N446 N 0.81835 0.72321 0.33412 0.0
N447 N 0.81351 0.72469 0.40354 0.0
C448 C 0.81712 0.75087 0.63533 0.0
O449 O 0.82488 0.74728 0.59727 0.0
O450 O 0.82977 0.75029 0.17485 0.0
Zn451 Zn 0.8094 0.75899 0.46459 0.0
N452 N 0.83932 0.73695 0.35978 0.0
C453 C 0.84489 0.70674 0.46763 0.0
C454 C 0.83775 0.71724 0.42058 0.0
C455 C 0.84793 0.74672 0.34466 0.0
N456 N 0.8534 0.71629 0.45258 0.0
C457 C 0.85527 0.73603 0.39254 0.0
O458 O 0.81537 0.79695 0.43158 0.0
C459 C 0.82119 0.80849 0.38386 0.0
O460 O 0.82606 0.79326 0.33528 0.0
H461 H 0.83099 0.70977 0.43359 0.0
H462 H 0.84895 0.76286 0.29727 0.0
C463 C 0.78923 0.76414 0.47256 0.0
C464 C 0.78075 0.768 0.43319 0.0
C465 C 0.7884 0.77386 0.30535 0.0
C466 C 0.79667 0.76951 0.34411 0.0
N467 N 0.79698 0.76468 0.42658 0.0
N468 N 0.78069 0.77289 0.35045 0.0
H469 H 0.78971 0.76091 0.53835 0.0
C470 C 0.82385 0.7621 0.12798 0.0
O471 O 0.81683 0.77475 0.16224 0.0
O472 O 0.80997 0.75491 0.59226 0.0
H473 H 0.80288 0.76998 0.30873 0.0
H474 H 0.84367 0.69111 0.51612 0.0
H475 H 0.78808 0.77777 0.23972 0.0
Zn476 Zn 0.9369 0.75684 0.47265 0.0
C477 C 0.95243 0.70042 0.34216 0.0
N478 N 0.95137 0.68319 0.4073 0.0
C479 C 0.94662 0.69911 0.46072 0.0
N480 N 0.94494 0.72608 0.43061 0.0
N481 N 0.9488 0.72685 0.35638 0.0
C482 C 0.94824 0.76113 0.13502 0.0
O483 O 0.9407 0.76968 0.17013 0.0
O484 O 0.9356 0.75554 0.59872 0.0
Zn485 Zn 0.95491 0.76008 0.30603 0.0
N486 N 0.92541 0.75342 0.41112 0.0
C487 C 0.92032 0.75155 0.27209 0.0
C488 C 0.92728 0.75288 0.32931 0.0
C489 C 0.91663 0.75294 0.43849 0.0
N490 N 0.91165 0.75109 0.29867 0.0
C491 C 0.90944 0.75181 0.38008 0.0
O492 O 0.95014 0.79982 0.33658 0.0
C493 C 0.9457 0.81225 0.39385 0.0
O494 O 0.94134 0.79786 0.448 0.0
H495 H 0.93421 0.75388 0.30876 0.0
H496 H 0.91531 0.75405 0.50389 0.0
C497 C 0.97525 0.76127 0.31342 0.0
C498 C 0.98339 0.75878 0.35919 0.0
C499 C 0.97477 0.75248 0.48131 0.0
C500 C 0.96682 0.75521 0.4364 0.0
N501 N 0.96713 0.75901 0.35343 0.0
N502 N 0.98283 0.75422 0.44184 0.0
H503 H 0.97539 0.76447 0.24741 0.0
C504 C 0.94265 0.75339 0.64374 0.0
O505 O 0.9506 0.75138 0.60787 0.0
O506 O 0.95517 0.75641 0.18 0.0
H507 H 0.96037 0.75415 0.46752 0.0
H508 H 0.92179 0.7511 0.20683 0.0
H509 H 0.97456 0.74909 0.54721 0.0
Zn510 Zn 0.8097 0.04048 0.30928 0.0
C511 C 0.82327 0.09386 0.46626 0.0
N512 N 0.82156 0.11412 0.40974 0.0
C513 C 0.81781 0.09925 0.34754 0.0
N514 N 0.81717 0.07048 0.3649 0.0
N515 N 0.82075 0.06717 0.43957 0.0
C516 C 0.82308 0.02921 0.64579 0.0
O517 O 0.81529 0.02271 0.61127 0.0
O518 O 0.81061 0.0433 0.18161 0.0
Zn519 Zn 0.82774 0.03327 0.47382 0.0
N520 N 0.7972 0.04815 0.34586 0.0
C521 C 0.78794 0.07281 0.44337 0.0
C522 C 0.79643 0.0659 0.4125 0.0
C523 C 0.78967 0.03656 0.3095 0.0
N524 N 0.78048 0.06146 0.40723 0.0
C525 C 0.78097 0.04335 0.34109 0.0
O526 O 0.82245 0.9939 0.44416 0.0
C527 C 0.81704 0.98255 0.39215 0.0
O528 O 0.81245 0.99802 0.34193 0.0
H529 H 0.80235 0.07466 0.4423 0.0
H530 H 0.79054 0.02198 0.25803 0.0
C531 C 0.84758 0.03538 0.42973 0.0
C532 C 0.85438 0.03694 0.36801 0.0
C533 C 0.84288 0.03846 0.26553 0.0
C534 C 0.8363 0.03653 0.32602 0.0
N535 N 0.83869 0.03536 0.40668 0.0
N536 N 0.8517 0.03859 0.28787 0.0
H537 H 0.84925 0.03365 0.49432 0.0
C538 C 0.81688 0.03242 0.13709 0.0
O539 O 0.82337 1.01754 0.1726 0.0
O540 O 0.82988 0.0344 0.59939 0.0
H541 H 0.82925 0.03579 0.30907 0.0
H542 H 0.78727 0.087 0.49612 0.0
H543 H 0.84103 0.03964 0.20115 0.0
Zn544 Zn 0.5737 0.50566 0.65997 0.0
C545 C 0.56585 0.44328 0.50948 0.0
N546 N 0.56873 0.42619 0.57088 0.0
C547 C 0.56991 0.44495 0.63302 0.0
N548 N 0.56778 0.47236 0.61038 0.0
N549 N 0.56512 0.47135 0.53242 0.0
C550 C 0.56519 0.51346 0.3174 0.0
O551 O 0.57041 0.52998 0.36317 0.0
O552 O 0.57404 0.50201 0.787 0.0
Zn553 Zn 0.55707 0.49986 0.47904 0.0
N554 N 0.58548 0.50742 0.605 0.0
C555 C 0.5912 0.51495 0.46981 0.0
C556 C 0.584 0.5133 0.52422 0.0
C557 C 0.59405 0.5031 0.63432 0.0
N558 N 0.5997 0.51067 0.49829 0.0
C559 C 0.60149 0.50478 0.57889 0.0
O560 O 0.55876 0.54173 0.52088 0.0
C561 C 0.56273 0.55615 0.57768 0.0
O562 O 0.56791 0.54419 0.63043 0.0
H563 H 0.57718 0.51651 0.50244 0.0
H564 H 0.59498 0.49869 0.6991 0.0
C565 C 0.53705 0.50195 0.47659 0.0
C566 C 0.52831 0.49279 0.50205 0.0
C567 C 0.53516 0.45667 0.58585 0.0
C568 C 0.54369 0.46579 0.56081 0.0
N569 N 0.54456 0.48815 0.50656 0.0
N570 N 0.52773 0.4703 0.55618 0.0
H571 H 0.53793 0.52009 0.43514 0.0
C572 C 0.56637 0.50343 0.82307 0.0
O573 O 0.55909 0.50736 0.77781 0.0
O574 O 0.55887 0.49904 0.35224 0.0
H575 H 0.54957 0.45513 0.58568 0.0
H576 H 0.59007 0.51954 0.40528 0.0
H577 H 0.53443 0.43895 0.62906 0.0
Zn578 Zn 0.68337 0.78901 0.72288 0.0
C579 C 0.70205 0.836 0.59965 0.0
N580 N 0.70213 0.85249 0.6674 0.0
C581 C 0.69671 0.83845 0.72011 0.0
N582 N 0.69359 0.81325 0.68725 0.0
N583 N 0.69715 0.81161 0.61217 0.0
C584 C 0.69383 0.78635 0.38733 0.0
O585 O 0.68605 0.79086 0.42426 0.0
O586 O 0.68225 0.79025 0.84903 0.0
Zn587 Zn 0.70073 0.77609 0.55613 0.0
N588 N 0.67244 0.80468 0.66722 0.0
C589 C 0.66693 0.84042 0.57356 0.0
C590 C 0.67398 0.82811 0.61802 0.0
C591 C 0.66392 0.79316 0.67373 0.0
N592 N 0.65851 0.8291 0.58015 0.0
C593 C 0.65665 0.80583 0.62897 0.0
O594 O 0.69389 0.73929 0.58706 0.0
C595 C 0.68849 0.72938 0.64143 0.0
O596 O 0.68473 0.74597 0.69426 0.0
H597 H 0.68065 0.8374 0.61266 0.0
H598 H 0.66289 0.7743 0.71219 0.0
C599 C 0.7208 0.77181 0.55293 0.0
C600 C 0.72921 0.76676 0.59256 0.0
C601 C 0.72127 0.75582 0.71633 0.0
C602 C 0.71307 0.76105 0.67723 0.0
N603 N 0.71295 0.76886 0.59661 0.0
N604 N 0.72908 0.75882 0.6734 0.0
H605 H 0.72041 0.77774 0.48867 0.0
C606 C 0.68922 0.78707 0.89451 0.0
O607 O 0.6971 0.78247 0.85924 0.0
O608 O 0.70076 0.7802 0.43078 0.0
H609 H 0.70678 0.75903 0.71092 0.0
H610 H 0.66814 0.85897 0.53418 0.0
H611 H 0.72145 0.74956 0.78052 0.0
Zn612 Zn 0.55733 0.77996 0.69023 0.0
C613 C 0.56722 0.84605 0.5541 0.0
N614 N 0.56319 0.86101 0.61458 0.0
C615 C 0.56099 0.84075 0.66947 0.0
N616 N 0.56344 0.81406 0.64368 0.0
N617 N 0.56758 0.81711 0.57134 0.0
C618 C 0.56963 0.79182 0.35296 0.0
O619 O 0.56178 0.79638 0.38879 0.0
O620 O 0.55677 0.78241 0.81711 0.0
Zn621 Zn 0.57543 0.78645 0.52493 0.0
N622 N 0.54525 0.78108 0.6429 0.0
C623 C 0.5372 0.78206 0.51605 0.0
C624 C 0.54532 0.78186 0.5593 0.0
C625 C 0.5373 0.7804 0.68564 0.0
N626 N 0.52928 0.78137 0.55817 0.0
C627 C 0.529 0.78058 0.642 0.0
O628 O 0.57136 0.74493 0.54879 0.0
C629 C 0.5668 0.72937 0.59876 0.0
O630 O 0.56199 0.74046 0.65557 0.0
H631 H 0.5517 0.78207 0.52658 0.0
H632 H 0.5375 0.77913 0.7521 0.0
C633 C 0.59564 0.78993 0.56209 0.0
C634 C 0.60269 0.78918 0.62179 0.0
C635 C 0.5916 0.78632 0.72766 0.0
C636 C 0.58476 0.78668 0.66917 0.0
N637 N 0.58681 0.78869 0.58777 0.0
N638 N 0.60033 0.78751 0.70271 0.0
H639 H 0.59711 0.79069 0.49689 0.0
C640 C 0.56309 0.77317 0.86398 0.0
O641 O 0.57016 0.76056 0.83045 0.0
O642 O 0.57661 0.78811 0.39815 0.0
H643 H 0.5778 0.78478 0.68851 0.0
H644 H 0.53718 0.78263 0.44945 0.0
H645 H 0.59 0.78477 0.79253 0.0
Zn646 Zn 0.69866 0.50696 0.71301 0.0
C647 C 0.69141 0.43826 0.57311 0.0
N648 N 0.69542 0.42378 0.63478 0.0
C649 C 0.69704 0.44428 0.69096 0.0
N650 N 0.69433 0.47062 0.6643 0.0
N651 N 0.69058 0.46703 0.59065 0.0
C652 C 0.68831 0.491 0.37337 0.0
O653 O 0.69629 0.48884 0.40851 0.0
O654 O 0.69985 0.50291 0.83774 0.0
Zn655 Zn 0.68293 0.49748 0.54317 0.0
N656 N 0.71056 0.51324 0.66423 0.0
C657 C 0.71847 0.52056 0.53842 0.0
C658 C 0.71043 0.51609 0.58101 0.0
C659 C 0.7185 0.51453 0.70712 0.0
N660 N 0.72637 0.52201 0.58077 0.0
C661 C 0.72673 0.5192 0.66424 0.0
O662 O 0.68752 0.53908 0.5572 0.0
C663 C 0.68928 0.55508 0.61927 0.0
O664 O 0.69161 0.5442 0.68825 0.0
H665 H 0.70409 0.51475 0.54801 0.0
H666 H 0.71834 0.5115 0.77309 0.0
C667 C 0.66295 0.49585 0.57536 0.0
C668 C 0.65553 0.49572 0.63098 0.0
C669 C 0.6659 0.49562 0.74295 0.0
C670 C 0.67311 0.49638 0.68824 0.0
N671 N 0.67158 0.49615 0.60573 0.0
N672 N 0.65734 0.49541 0.71321 0.0
H673 H 0.66194 0.49567 0.50943 0.0
C674 C 0.6935 0.51086 0.88577 0.0
O675 O 0.68618 0.52257 0.85399 0.0
O676 O 0.68133 0.49364 0.41888 0.0
H677 H 0.67993 0.49739 0.71151 0.0
H678 H 0.71845 0.52284 0.47211 0.0
H679 H 0.66708 0.49558 0.80871 0.0
Zn680 Zn 0.43144 0.53438 0.26604 0.0
C681 C 0.44042 0.60011 0.39931 0.0
N682 N 0.43659 0.61508 0.33764 0.0
C683 C 0.43491 0.59488 0.28099 0.0
N684 N 0.43753 0.56839 0.30696 0.0
N685 N 0.44113 0.57141 0.38142 0.0
C686 C 0.4411 0.54796 0.60336 0.0
O687 O 0.43377 0.55784 0.56724 0.0
O688 O 0.42882 0.53883 0.14198 0.0
Zn689 Zn 0.44899 0.54183 0.43284 0.0
N690 N 0.42074 0.53066 0.33599 0.0
C691 C 0.41658 0.52057 0.47452 0.0
C692 C 0.42314 0.52318 0.41391 0.0
C693 C 0.41191 0.53589 0.31601 0.0
N694 N 0.40782 0.52577 0.45516 0.0
C695 C 0.40514 0.53345 0.37787 0.0
O696 O 0.44689 0.4997 0.39466 0.0
C697 C 0.44329 0.48525 0.336 0.0
O698 O 0.4382 0.49704 0.28243 0.0
H699 H 0.43017 0.5196 0.42905 0.0
H700 H 0.4103 0.54178 0.25336 0.0
C701 C 0.46908 0.53958 0.43274 0.0
C702 C 0.47776 0.54767 0.40273 0.0
C703 C 0.47063 0.57917 0.30653 0.0
C704 C 0.46217 0.57099 0.33582 0.0
N705 N 0.46148 0.55159 0.39869 0.0
N706 N 0.47815 0.56739 0.34036 0.0
H707 H 0.46829 0.52366 0.48103 0.0
C708 C 0.43498 0.53009 0.09271 0.0
O709 O 0.44226 0.51795 0.12398 0.0
O710 O 0.44792 0.54103 0.55937 0.0
H711 H 0.45619 0.58007 0.30777 0.0
H712 H 0.41842 0.51465 0.53678 0.0
H713 H 0.47122 0.59466 0.25674 0.0
Zn714 Zn 0.32505 0.25225 0.30974 0.0
C715 C 0.31158 0.19879 0.46483 0.0
N716 N 0.31312 0.17842 0.40835 0.0
C717 C 0.31696 0.19311 0.3463 0.0
N718 N 0.31779 0.22188 0.36384 0.0
N719 N 0.31428 0.22521 0.43873 0.0
C720 C 0.31692 0.27039 0.65634 0.0
O721 O 0.32276 0.2855 0.61291 0.0
O722 O 0.32538 0.24803 0.18242 0.0
Zn723 Zn 0.30965 0.26048 0.49122 0.0
N724 N 0.33672 0.25172 0.36912 0.0
C725 C 0.34187 0.2551 0.50777 0.0
C726 C 0.33491 0.25504 0.45063 0.0
C727 C 0.34546 0.24898 0.34195 0.0
N728 N 0.3505 0.25235 0.48139 0.0
C729 C 0.35268 0.24942 0.40032 0.0
O730 O 0.31495 0.29912 0.45374 0.0
C731 C 0.31771 0.30975 0.38574 0.0
O732 O 0.32044 0.29366 0.32684 0.0
H733 H 0.32803 0.25777 0.47129 0.0
H734 H 0.3467 0.24695 0.27666 0.0
C735 C 0.28943 0.263 0.49539 0.0
C736 C 0.28103 0.26508 0.45342 0.0
C737 C 0.28895 0.26627 0.32588 0.0
C738 C 0.29714 0.26442 0.36736 0.0
N739 N 0.29727 0.2628 0.45088 0.0
N740 N 0.28116 0.2666 0.36962 0.0
H741 H 0.28978 0.26124 0.56168 0.0
C742 C 0.31801 0.2416 0.14529 0.0
O743 O 0.31077 0.23617 0.18971 0.0
O744 O 0.31036 0.25808 0.61869 0.0
H745 H 0.30343 0.26423 0.33322 0.0
H746 H 0.34045 0.25754 0.57276 0.0
H747 H 0.28878 0.26752 0.25937 0.0
Zn748 Zn 0.43476 0.25529 0.45326 0.0
C749 C 0.44803 0.20116 0.29914 0.0
N750 N 0.44627 0.18083 0.35516 0.0
C751 C 0.44246 0.19572 0.41692 0.0
N752 N 0.44186 0.22455 0.39956 0.0
N753 N 0.44547 0.22766 0.32504 0.0
C754 C 0.44297 0.27258 0.10657 0.0
O755 O 0.43722 0.28791 0.15021 0.0
O756 O 0.43449 0.25133 0.58054 0.0
Zn757 Zn 0.45033 0.26219 0.27128 0.0
N758 N 0.42304 0.25463 0.39507 0.0
C759 C 0.4176 0.25799 0.25725 0.0
C760 C 0.42469 0.25806 0.31329 0.0
C761 C 0.41436 0.25151 0.42353 0.0
N762 N 0.40903 0.25498 0.28497 0.0
C763 C 0.40704 0.25184 0.36638 0.0
O764 O 0.4454 0.30075 0.30871 0.0
C765 C 0.44242 0.31211 0.3748 0.0
O766 O 0.43941 0.29671 0.43415 0.0
H767 H 0.43153 0.26088 0.29162 0.0
H768 H 0.41324 0.24863 0.48879 0.0
C769 C 0.47043 0.26383 0.26263 0.0
C770 C 0.47898 0.26547 0.30182 0.0
C771 C 0.47159 0.26667 0.43188 0.0
C772 C 0.46323 0.26505 0.39308 0.0
N773 N 0.46277 0.26368 0.3096 0.0
N774 N 0.47922 0.26686 0.3856 0.0
H775 H 0.46981 0.26321 0.1963 0.0
C776 C 0.44181 0.24431 0.61753 0.0
O777 O 0.44899 0.23825 0.57299 0.0
O778 O 0.44947 0.25993 0.14398 0.0
H779 H 0.45708 0.26504 0.42919 0.0
H780 H 0.4189 0.26052 0.19206 0.0
H781 H 0.47203 0.26781 0.4983 0.0
Zn782 Zn 0.30729 0.53537 0.30208 0.0
C783 C 0.3171 0.59953 0.4449 0.0
N784 N 0.31437 0.61641 0.38253 0.0
C785 C 0.312 0.59702 0.32474 0.0
N786 N 0.31316 0.56946 0.35096 0.0
N787 N 0.3165 0.57096 0.4265 0.0
C788 C 0.3193 0.53903 0.64106 0.0
O789 O 0.31171 0.53077 0.60589 0.0
O790 O 0.30683 0.53907 0.1763 0.0
Zn791 Zn 0.324 0.54022 0.4718 0.0
N792 N 0.29502 0.53575 0.34711 0.0
C793 C 0.28637 0.54164 0.46945 0.0
C794 C 0.29468 0.5408 0.42947 0.0
C795 C 0.2873 0.53101 0.30279 0.0
N796 N 0.27869 0.53711 0.42565 0.0
C797 C 0.27878 0.53172 0.34313 0.0
O798 O 0.319 0.49956 0.45681 0.0
C799 C 0.31566 0.48407 0.39923 0.0
O800 O 0.31232 0.49532 0.33408 0.0
H801 H 0.30085 0.544 0.46403 0.0
H802 H 0.28789 0.52632 0.23786 0.0
C803 C 0.34391 0.5425 0.43062 0.0
C804 C 0.3509 0.54198 0.37069 0.0
C805 C 0.33979 0.53798 0.26548 0.0
C806 C 0.33299 0.53784 0.32445 0.0
N807 N 0.33509 0.54052 0.40552 0.0
N808 N 0.34852 0.53994 0.28989 0.0
H809 H 0.34539 0.54451 0.49557 0.0
C810 C 0.31327 0.53047 0.13006 0.0
O811 O 0.32037 0.5181 0.16366 0.0
O812 O 0.32605 0.54531 0.59539 0.0
H813 H 0.32603 0.53549 0.30587 0.0
H814 H 0.28601 0.54572 0.53498 0.0
H815 H 0.33816 0.5362 0.20072 0.0
Zn816 Zn 0.57744 1.00643 0.17837 0.0
C817 C 0.56621 0.94081 0.05415 0.0
N818 N 0.56999 0.92592 0.11615 0.0
C819 C 0.57238 0.94645 0.16969 0.0
N820 N 0.57022 0.9732 0.14177 0.0
N821 N 0.56617 0.96985 0.06899 0.0
C822 C 0.56632 1.0036 0.84233 0.0
O823 O 0.57387 1.01118 0.87923 0.0
O824 O 0.579 1.00535 0.30472 0.0
Zn825 Zn 0.55884 1.00028 0.01406 0.0
N826 N 0.5889 1.00259 0.11876 0.0
C827 C 0.59449 0.99515 0.98301 0.0
C828 C 0.58732 0.99846 0.03729 0.0
C829 C 0.59754 1.00381 0.14869 0.0
N830 N 0.60306 0.99625 0.01225 0.0
C831 C 0.60493 1.00051 0.09351 0.0
O832 O 0.56218 0.042 0.04672 0.0
C833 C 0.56708 0.05735 0.09479 0.0
O834 O 0.57259 0.04595 0.14571 0.0
H835 H 0.58046 0.99783 0.01492 0.0
H836 H 0.59857 1.00772 0.21364 0.0
C837 C 0.53868 1.00345 0.0144 0.0
C838 C 0.5301 0.99914 0.05192 0.0
C839 C 0.53746 0.97765 0.16695 0.0
C840 C 0.54584 0.98209 0.13009 0.0
N841 N 0.54636 0.9947 0.05451 0.0
N842 N 0.52986 0.98625 0.12735 0.0
H843 H 0.53932 1.01412 0.95541 0.0
C844 C 0.5724 1.0128 0.35097 0.0
O845 O 0.56486 0.02176 0.31633 0.0
O846 O 0.55934 0.99808 0.88607 0.0
H847 H 0.55191 0.97575 0.16237 0.0
H848 H 0.59327 0.9918 0.918 0.0
H849 H 0.537 0.96761 0.22704 0.0
Zn850 Zn 0.68334 0.27392 0.20579 0.0
C851 C 0.69117 0.3427 0.073 0.0
N852 N 0.68711 0.35684 0.13497 0.0
C853 C 0.6856 0.33615 0.19087 0.0
N854 N 0.68847 0.30998 0.16364 0.0
N855 N 0.69215 0.31397 0.08979 0.0
C856 C 0.69264 0.28944 0.86815 0.0
O857 O 0.68486 0.29446 0.90473 0.0
O858 O 0.68098 0.27774 0.32986 0.0
Zn859 Zn 0.70041 0.28581 0.0382 0.0
N860 N 0.67224 0.26784 0.1418 0.0
C861 C 0.66712 0.25291 0.00946 0.0
C862 C 0.67411 0.25808 0.0647 0.0
C863 C 0.66353 0.27322 0.1657 0.0
N864 N 0.65848 0.25821 0.03277 0.0
C865 C 0.65634 0.26838 0.1091 0.0
O866 O 0.69868 0.24347 0.07209 0.0
C867 C 0.6956 0.22705 0.12882 0.0
O868 O 0.69067 0.23692 0.18678 0.0
H869 H 0.68103 0.25457 0.04595 0.0
H870 H 0.66228 0.28104 0.2274 0.0
C871 C 0.72042 0.28688 0.03868 0.0
C872 C 0.72894 0.29475 0.07227 0.0
C873 C 0.72132 0.32037 0.17889 0.0
C874 C 0.713 0.3125 0.14575 0.0
N875 N 0.71265 0.29608 0.07622 0.0
N876 N 0.72903 0.31137 0.14165 0.0
H877 H 0.71989 0.27326 0.98473 0.0
C878 C 0.68739 0.27081 0.37872 0.0
O879 O 0.69495 0.26073 0.3472 0.0
O880 O 0.69973 0.28595 0.91192 0.0
H881 H 0.70687 0.31933 0.17605 0.0
H882 H 0.66854 0.24505 0.94804 0.0
H883 H 0.72167 0.33344 0.23414 0.0
Zn884 Zn 0.55842 0.27935 0.17371 0.0
C885 C 0.56333 0.34036 0.01092 0.0
N886 N 0.55812 0.35515 0.06352 0.0
C887 C 0.5581 0.33901 0.13175 0.0
N888 N 0.56283 0.31427 0.12028 0.0
N889 N 0.56631 0.31514 0.04472 0.0
C890 C 0.56987 0.28751 0.8364 0.0
O891 O 0.56192 0.28494 0.87191 0.0
O892 O 0.55831 0.28258 0.29945 0.0
Zn893 Zn 0.5762 0.28954 0.00823 0.0
N894 N 0.54625 0.27466 0.13071 0.0
C895 C 0.53785 0.26682 0.00783 0.0
C896 C 0.54609 0.2701 0.04812 0.0
C897 C 0.53845 0.27602 0.17538 0.0
N898 N 0.53007 0.26826 0.05183 0.0
C899 C 0.53002 0.27281 0.13475 0.0
O900 O 0.57492 0.24677 0.04246 0.0
C901 C 0.57041 0.23111 0.09273 0.0
O902 O 0.56458 0.24198 0.14145 0.0
H903 H 0.55236 0.26905 0.01395 0.0
H904 H 0.53889 0.27917 0.24119 0.0
C905 C 0.59557 0.29116 0.05489 0.0
C906 C 0.60324 0.30381 0.09354 0.0
C907 C 0.59406 0.34349 0.13551 0.0
C908 C 0.58659 0.33107 0.09712 0.0
N909 N 0.58742 0.30521 0.05731 0.0
N910 N 0.60214 0.3297 0.1327 0.0
H911 H 0.59596 0.27037 0.02434 0.0
C912 C 0.5653 0.28752 0.3433 0.0
O913 O 0.57316 0.29109 0.30667 0.0
O914 O 0.57692 0.2894 0.88161 0.0
H915 H 0.58018 0.34218 0.09944 0.0
H916 H 0.53762 0.26319 0.94204 0.0
H917 H 0.59345 0.36403 0.1673 0.0
Zn918 Zn 0.68678 1.00503 0.07354 0.0
C919 C 0.69286 0.93984 0.22228 0.0
N920 N 0.69015 0.92351 0.15858 0.0
C921 C 0.68939 0.94292 0.0974 0.0
N922 N 0.69164 0.96997 0.12293 0.0
N923 N 0.69391 0.96802 0.20163 0.0
C924 C 0.69416 1.00779 0.41894 0.0
O925 O 0.68907 0.02491 0.37388 0.0
O926 O 0.68634 1.0011 0.9479 0.0
Zn927 Zn 0.70203 0.99524 0.25801 0.0
N928 N 0.67497 1.00986 0.12633 0.0
C929 C 0.66899 1.02045 0.25899 0.0
C930 C 0.67631 1.01667 0.20672 0.0
C931 C 0.66642 1.00644 0.09548 0.0
N932 N 0.66051 1.0172 0.22888 0.0
C933 C 0.65888 1.01029 0.14867 0.0
O934 O 0.70044 0.03764 0.22313 0.0
C935 C 0.69769 0.05343 0.16349 0.0
O936 O 0.69345 0.04273 0.10204 0.0
H937 H 0.68311 1.01883 0.22994 0.0
H938 H 0.66556 1.00034 0.03166 0.0
C939 C 0.72193 0.99728 0.25955 0.0
C940 C 0.73067 0.98826 0.23417 0.0
C941 C 0.72386 0.95238 0.14919 0.0
C942 C 0.71532 0.9613 0.17447 0.0
N943 N 0.71445 0.98353 0.22909 0.0
N944 N 0.73128 0.96599 0.17937 0.0
H945 H 0.72104 1.01527 0.30153 0.0
C946 C 0.69402 1.00148 0.91203 0.0
O947 O 0.70133 1.00485 0.95709 0.0
O948 O 0.70033 0.993 0.38371 0.0
H949 H 0.70944 0.95053 0.1497 0.0
H950 H 0.67001 0.02582 0.32318 0.0
H951 H 0.72459 0.93477 0.10561 0.0
Zn952 Zn 0.43223 0.03547 0.79371 0.0
C953 C 0.44345 0.1013 0.9149 0.0
N954 N 0.4398 0.11605 0.85206 0.0
C955 C 0.43737 0.09531 0.79941 0.0
N956 N 0.43942 0.06866 0.82856 0.0
N957 N 0.44338 0.07225 0.90151 0.0
C958 C 0.44311 0.03796 0.13112 0.0
O959 O 0.43607 0.0263 0.09458 0.0
O960 O 0.43032 0.0364 0.66806 0.0
Zn961 Zn 0.45031 0.04186 0.96025 0.0
N962 N 0.42098 0.03852 0.85721 0.0
C963 C 0.41598 0.04532 0.99522 0.0
C964 C 0.42291 0.04253 0.93817 0.0
C965 C 0.41221 0.03661 0.83073 0.0
N966 N 0.4073 0.04345 0.96943 0.0
C967 C 0.40508 0.03902 0.88899 0.0
O968 O 0.44639 1.00017 0.93434 0.0
C969 C 0.44202 0.9849 0.88206 0.0
O970 O 0.4373 0.99643 0.82516 0.0
H971 H 0.42985 0.04342 0.9582 0.0
H972 H 0.41086 0.03344 0.7659 0.0
C973 C 0.47052 0.03751 0.96027 0.0
C974 C 0.47909 0.04061 0.92144 0.0
C975 C 0.47167 0.05907 0.80242 0.0
C976 C 0.46332 0.05574 0.84048 0.0
N977 N 0.46283 0.0453 0.91869 0.0
N978 N 0.47929 0.05146 0.84344 0.0
H979 H 0.46988 0.02857 0.02152 0.0
C980 C 0.43695 0.02935 0.62168 0.0
O981 O 0.44456 1.02095 0.65608 0.0
O982 O 0.44982 0.0462 0.08728 0.0
H983 H 0.45725 0.06126 0.80714 0.0
H984 H 0.41748 0.04868 0.05974 0.0
H985 H 0.47211 0.06744 0.74031 0.0
Zn986 Zn 0.32439 0.76288 0.78322 0.0
C987 C 0.32127 0.69836 0.94836 0.0
N988 N 0.32586 0.68341 0.89144 0.0
C989 C 0.32635 0.70141 0.82705 0.0
N990 N 0.32262 0.7274 0.84583 0.0
N991 N 0.31925 0.72547 0.92155 0.0
C992 C 0.31983 0.75614 0.13159 0.0
O993 O 0.32695 0.76096 0.08501 0.0
O994 O 0.32417 0.75539 0.65941 0.0
Zn995 Zn 0.31099 0.7539 0.97133 0.0
N996 N 0.33622 0.77961 0.81452 0.0
C997 C 0.34404 0.82269 0.85411 0.0
C998 C 0.33623 0.80881 0.82686 0.0
C999 C 0.34396 0.76377 0.82614 0.0
N1000 N 0.35169 0.80704 0.86595 0.0
C1001 C 0.352 0.77791 0.85229 0.0
O1002 O 0.31298 0.7961 0.93817 0.0
C1003 C 0.31296 0.80857 0.86811 0.0
O1004 O 0.31499 0.79474 0.80264 0.0
H1005 H 0.3302 0.82139 0.81587 0.0
H1006 H 0.3438 0.74057 0.81597 0.0
C1007 C 0.29105 0.75323 0.97443 0.0
C1008 C 0.28242 0.74565 0.94284 0.0
C1009 C 0.28964 0.72014 0.83392 0.0
C1010 C 0.29809 0.72762 0.86541 0.0
N1011 N 0.29868 0.74395 0.93495 0.0
N1012 N 0.28206 0.72929 0.87306 0.0
H1013 H 0.29175 0.76672 0.02854 0.0
C1014 C 0.31697 0.7465 0.62426 0.0
O1015 O 0.30983 0.74088 0.66982 0.0
O1016 O 0.31215 0.75288 0.09727 0.0
H1017 H 0.30414 0.72056 0.83403 0.0
H1018 H 0.34406 0.84586 0.86502 0.0
H1019 H 0.28911 0.7072 0.77854 0.0
Zn1020 Zn 0.43293 0.75516 0.93316 0.0
C1021 C 0.44669 0.70105 0.78085 0.0
N1022 N 0.44501 0.68102 0.83795 0.0
C1023 C 0.44116 0.69614 0.89914 0.0
N1024 N 0.44047 0.72486 0.88053 0.0
N1025 N 0.44411 0.72762 0.80599 0.0
C1026 C 0.44132 0.76969 0.58688 0.0
O1027 O 0.43506 0.78245 0.63155 0.0
O1028 O 0.43336 0.75237 0.0605 0.0
Zn1029 Zn 0.44874 0.76203 0.75077 0.0
N1030 N 0.42085 0.75027 0.88202 0.0
C1031 C 0.41448 0.74159 0.74937 0.0
C1032 C 0.42192 0.74638 0.79957 0.0
C1033 C 0.41235 0.75109 0.91598 0.0
N1034 N 0.40609 0.74206 0.78268 0.0
C1035 C 0.40468 0.74696 0.86431 0.0
O1036 O 0.44287 0.79954 0.78288 0.0
C1037 C 0.43924 0.81177 0.84469 0.0
O1038 O 0.4364 0.79749 0.9069 0.0
H1039 H 0.42856 0.74729 0.7724 0.0
H1040 H 0.41159 0.7549 0.98135 0.0
C1041 C 0.46889 0.76622 0.74836 0.0
C1042 C 0.47726 0.76908 0.79046 0.0
C1043 C 0.46925 0.77135 0.91747 0.0
C1044 C 0.46109 0.76853 0.87583 0.0
N1045 N 0.46102 0.76595 0.79251 0.0
N1046 N 0.47708 0.77155 0.87408 0.0
H1047 H 0.46855 0.76462 0.68205 0.0
C1048 C 0.4408 0.74577 0.09592 0.0
O1049 O 0.44788 0.73982 0.04996 0.0
O1050 O 0.44819 0.75897 0.6236 0.0
H1051 H 0.45478 0.76842 0.90959 0.0
H1052 H 0.41533 0.73809 0.68394 0.0
H1053 H 0.46938 0.77338 0.98383 0.0
Zn1054 Zn 0.30712 0.03855 0.81189 0.0
C1055 C 0.32153 0.09094 0.96423 0.0
N1056 N 0.32001 0.1113 0.90776 0.0
C1057 C 0.31605 0.09674 0.84594 0.0
N1058 N 0.31508 0.06805 0.86373 0.0
N1059 N 0.31867 0.06468 0.93816 0.0
C1060 C 0.32088 0.02637 0.15222 0.0
O1061 O 0.31347 1.01504 0.12099 0.0
O1062 O 0.30829 0.03755 0.68573 0.0
Zn1063 Zn 0.32447 0.03015 0.97917 0.0
N1064 N 0.29467 0.04899 0.84384 0.0
C1065 C 0.28543 0.07545 0.93772 0.0
C1066 C 0.29393 0.06744 0.90892 0.0
C1067 C 0.2871 0.03793 0.80668 0.0
N1068 N 0.27793 0.06452 0.90098 0.0
C1069 C 0.27841 0.04588 0.83605 0.0
O1070 O 0.3174 0.99329 0.96348 0.0
C1071 C 0.31219 0.9816 0.91064 0.0
O1072 O 0.30876 0.99612 0.85133 0.0
H1073 H 0.2999 0.07574 0.93922 0.0
H1074 H 0.28791 0.02273 0.75651 0.0
C1075 C 0.34401 0.03026 0.93139 0.0
C1076 C 0.35088 0.02687 0.87108 0.0
C1077 C 0.33961 1.01362 0.77331 0.0
C1078 C 0.33292 1.01725 0.83241 0.0
N1079 N 0.33519 0.02534 0.91018 0.0
N1080 N 0.34836 1.01853 0.79391 0.0
H1081 H 0.34555 0.03653 0.99394 0.0
C1082 C 0.31518 0.0439 0.64182 0.0
O1083 O 0.3226 0.05311 0.67797 0.0
O1084 O 0.32713 0.03446 0.10296 0.0
H1085 H 0.3259 1.0139 0.81624 0.0
H1086 H 0.28479 0.09011 0.98941 0.0
H1087 H 0.33787 1.00718 0.71122 0.0
H1088 H 0.0622 0.69772 0.23659 0.0
H1089 H 0.06675 0.7 0.97431 0.0
H1090 H 0.0654 0.64716 0.96765 0.0
H1091 H 0.06383 0.59982 0.03757 0.0
H1092 H 0.06065 0.59744 0.30139 0.0
H1093 H 0.06046 0.6505 0.30621 0.0
C1094 C 0.06279 0.68667 0.17786 0.0
C1095 C 0.06456 0.70287 0.10605 0.0
C1096 C 0.06227 0.65613 0.1748 0.0
C1097 C 0.06543 0.68811 0.03061 0.0
C1098 C 0.06464 0.65785 0.02671 0.0
C1099 C 0.06295 0.61096 0.09587 0.0
C1100 C 0.06218 0.5947 0.16896 0.0
C1101 C 0.06318 0.64156 0.09853 0.0
C1102 C 0.06123 0.60945 0.24427 0.0
C1103 C 0.06115 0.63981 0.24708 0.0
H1104 H 0.19428 0.5972 0.25097 0.0
H1105 H 0.19544 0.5915 0.98611 0.0
H1106 H 0.19668 0.64429 0.97628 0.0
H1107 H 0.19681 0.69226 0.04225 0.0
H1108 H 0.19434 0.69859 0.30633 0.0
H1109 H 0.19422 0.64559 0.31724 0.0
C1110 C 0.19491 0.60756 0.19127 0.0
C1111 C 0.19484 0.59044 0.11938 0.0
C1112 C 0.19532 0.63809 0.18591 0.0
C1113 C 0.19548 0.60418 0.04232 0.0
C1114 C 0.19619 0.63438 0.03664 0.0
C1115 C 0.19632 0.68206 0.1023 0.0
C1116 C 0.19563 0.69943 0.17341 0.0
C1117 C 0.19602 0.65158 0.10792 0.0
C1118 C 0.19486 0.68578 0.25058 0.0
C1119 C 0.19481 0.65545 0.25687 0.0
H1120 H 0.94354 0.34911 0.97262 0.0
H1121 H 0.93775 0.34737 0.71229 0.0
H1122 H 0.93734 0.40035 0.70902 0.0
H1123 H 0.93894 0.44734 0.7791 0.0
H1124 H 0.94565 0.44948 0.0377 0.0
H1125 H 0.94545 0.39645 0.04246 0.0
C1126 C 0.94211 0.36037 0.91543 0.0
C1127 C 0.94062 0.34427 0.84293 0.0
C1128 C 0.94212 0.39099 0.91347 0.0
C1129 C 0.93892 0.35921 0.76897 0.0
C1130 C 0.9387 0.38953 0.76701 0.0
C1131 C 0.94034 0.43624 0.83659 0.0
C1132 C 0.94229 0.45251 0.90792 0.0
C1133 C 0.94035 0.40568 0.8387 0.0
C1134 C 0.94417 0.43762 0.98166 0.0
C1135 C 0.94403 0.40723 0.98456 0.0
H1136 H 0.81957 0.44942 0.97992 0.0
H1137 H 0.81841 0.45252 0.71471 0.0
H1138 H 0.81916 0.39962 0.70822 0.0
H1139 H 0.81945 0.3519 0.77779 0.0
H1140 H 0.81948 0.34872 0.04325 0.0
H1141 H 0.81989 0.40166 0.04953 0.0
C1142 C 0.81958 0.43852 0.92073 0.0
C1143 C 0.81897 0.45509 0.84795 0.0
C1144 C 0.81976 0.40783 0.91738 0.0
C1145 C 0.81886 0.44044 0.77181 0.0
C1146 C 0.81928 0.41009 0.76797 0.0
C1147 C 0.81963 0.36279 0.83698 0.0
C1148 C 0.81945 0.34616 0.90988 0.0
C1149 C 0.81963 0.39347 0.84032 0.0
C1150 C 0.81957 0.36082 0.98603 0.0
C1151 C 0.81982 0.39119 0.98976 0.0
H1152 H 0.06814 0.19612 0.54269 0.0
H1153 H 0.07165 0.19774 0.80641 0.0
H1154 H 0.07131 0.14479 0.81056 0.0
H1155 H 0.06937 0.09781 0.74035 0.0
H1156 H 0.06501 0.09625 0.47755 0.0
H1157 H 0.06633 0.14902 0.4722 0.0
C1158 C 0.06893 0.18486 0.6009 0.0
C1159 C 0.06994 0.20097 0.67405 0.0
C1160 C 0.06851 0.15428 0.60322 0.0
C1161 C 0.07084 0.18596 0.74913 0.0
C1162 C 0.07064 0.15562 0.75163 0.0
C1163 C 0.06876 0.10898 0.68182 0.0
C1164 C 0.06708 0.09293 0.60956 0.0
C1165 C 0.06937 0.13952 0.67923 0.0
C1166 C 0.06625 0.10793 0.53436 0.0
C1167 C 0.06702 0.13819 0.53112 0.0
H1168 H 0.18788 0.09814 0.53816 0.0
H1169 H 0.19795 0.09034 0.7867 0.0
H1170 H 0.19808 0.14316 0.80055 0.0
H1171 H 0.19532 0.19203 0.7419 0.0
H1172 H 0.18613 0.1993 0.49066 0.0
H1173 H 0.18558 0.14651 0.47852 0.0
C1174 C 0.19013 0.10795 0.59535 0.0
C1175 C 0.19289 0.09014 0.66122 0.0
C1176 C 0.19028 0.1384 0.60274 0.0
C1177 C 0.19583 0.10339 0.73466 0.0
C1178 C 0.19587 0.13367 0.74288 0.0
C1179 C 0.19311 0.18197 0.68491 0.0
C1180 C 0.19069 0.19955 0.61754 0.0
C1181 C 0.19307 0.15144 0.67747 0.0
C1182 C 0.18801 0.18625 0.54346 0.0
C1183 C 0.18771 0.15604 0.53639 0.0
H1184 H 0.94464 0.94734 0.46923 0.0
H1185 H 0.95 0.95112 0.20851 0.0
H1186 H 0.95062 0.89811 0.20222 0.0
H1187 H 0.94909 0.85057 0.2697 0.0
H1188 H 0.94248 0.84652 0.52825 0.0
H1189 H 0.94283 0.89952 0.53646 0.0
C1190 C 0.94606 0.93649 0.41138 0.0
C1191 C 0.94739 0.9531 0.3396 0.0
C1192 C 0.94608 0.90591 0.40766 0.0
C1193 C 0.94901 0.93879 0.26462 0.0
C1194 C 0.94933 0.90849 0.26097 0.0
C1195 C 0.94775 0.86127 0.32794 0.0
C1196 C 0.94578 0.84451 0.39827 0.0
C1197 C 0.94778 0.8918 0.33189 0.0
C1198 C 0.94397 0.85882 0.47302 0.0
C1199 C 0.9442 0.88916 0.47786 0.0
H1200 H 0.80754 0.84808 0.38481 0.0
H1201 H 0.83663 0.84134 0.38038 0.0
H1202 H 0.83794 0.89442 0.3857 0.0
H1203 H 0.83075 0.94301 0.39341 0.0
H1204 H 0.80168 0.94975 0.38172 0.0
H1205 H 0.80038 0.89666 0.38077 0.0
C1206 C 0.81416 0.85829 0.38497 0.0
C1207 C 0.82199 0.84075 0.38318 0.0
C1208 C 0.81484 0.88888 0.38522 0.0
C1209 C 0.83052 0.85429 0.38184 0.0
C1210 C 0.83126 0.88466 0.3851 0.0
C1211 C 0.82414 0.93279 0.3907 0.0
C1212 C 0.81631 0.95031 0.38872 0.0
C1213 C 0.82347 0.90221 0.38718 0.0
C1214 C 0.8078 0.93679 0.38354 0.0
C1215 C 0.80706 0.90642 0.38313 0.0
H1216 H 0.55299 0.69004 0.59708 0.0
H1217 H 0.58207 0.69705 0.5863 0.0
H1218 H 0.58339 0.64408 0.58166 0.0
H1219 H 0.57627 0.5956 0.58207 0.0
H1220 H 0.5472 0.58832 0.57658 0.0
H1221 H 0.54582 0.64137 0.58581 0.0
C1222 C 0.5596 0.67986 0.59361 0.0
C1223 C 0.56744 0.69733 0.59279 0.0
C1224 C 0.56028 0.64936 0.58802 0.0
C1225 C 0.57596 0.68401 0.58698 0.0
C1226 C 0.57671 0.65374 0.58452 0.0
C1227 C 0.56964 0.60572 0.58287 0.0
C1228 C 0.56183 0.58818 0.57969 0.0
C1229 C 0.56892 0.63619 0.58527 0.0
C1230 C 0.55328 0.60145 0.57919 0.0
C1231 C 0.5525 0.63174 0.58462 0.0
H1232 H 0.68552 0.59606 0.73662 0.0
H1233 H 0.69227 0.58645 0.47967 0.0
H1234 H 0.6924 0.63916 0.46299 0.0
H1235 H 0.6911 0.68827 0.5222 0.0
H1236 H 0.68341 0.69805 0.77699 0.0
H1237 H 0.68305 0.64532 0.79328 0.0
C1238 C 0.687 0.60553 0.67698 0.0
C1239 C 0.68895 0.58724 0.60966 0.0
C1240 C 0.68687 0.636 0.66728 0.0
C1241 C 0.69073 0.59992 0.53253 0.0
C1242 C 0.69083 0.63013 0.52293 0.0
C1243 C 0.68927 0.67888 0.58116 0.0
C1244 C 0.68732 0.69727 0.6483 0.0
C1245 C 0.68896 0.64842 0.58995 0.0
C1246 C 0.6849 0.68458 0.72403 0.0
C1247 C 0.68474 0.65434 0.73359 0.0
H1248 H 0.44457 0.35178 0.25225 0.0
H1249 H 0.44093 0.34499 0.51525 0.0
H1250 H 0.44174 0.39788 0.52769 0.0
H1251 H 0.44305 0.44644 0.46288 0.0
H1252 H 0.44562 0.45258 0.19898 0.0
H1253 H 0.44581 0.39968 0.18802 0.0
C1254 C 0.44398 0.36179 0.31247 0.0
C1255 C 0.4427 0.3443 0.3827 0.0
C1256 C 0.44433 0.3922 0.31903 0.0
C1257 C 0.44187 0.35783 0.46003 0.0
C1258 C 0.44237 0.38812 0.46725 0.0
C1259 C 0.4438 0.43611 0.40327 0.0
C1260 C 0.44443 0.45335 0.33188 0.0
C1261 C 0.44358 0.40556 0.39714 0.0
C1262 C 0.44518 0.43974 0.25477 0.0
C1263 C 0.44525 0.40951 0.24845 0.0
H1264 H 0.31682 0.35172 0.50425 0.0
H1265 H 0.31805 0.34018 0.24079 0.0
H1266 H 0.31716 0.39271 0.22112 0.0
H1267 H 0.31604 0.44232 0.27884 0.0
H1268 H 0.31568 0.45352 0.54264 0.0
H1269 H 0.31618 0.40101 0.56177 0.0
C1270 C 0.31689 0.36065 0.44246 0.0
C1271 C 0.31748 0.34186 0.37417 0.0
C1272 C 0.31651 0.39098 0.43153 0.0
C1273 C 0.31764 0.35401 0.29462 0.0
C1274 C 0.3171 0.38411 0.28324 0.0
C1275 C 0.31602 0.43324 0.34046 0.0
C1276 C 0.31577 0.45193 0.40916 0.0
C1277 C 0.31651 0.40286 0.35122 0.0
C1278 C 0.31589 0.43974 0.4886 0.0
C1279 C 0.31616 0.40965 0.49968 0.0
H1280 H 0.58069 0.09741 0.09775 0.0
H1281 H 0.55164 0.08927 0.08513 0.0
H1282 H 0.55011 0.1422 0.08616 0.0
H1283 H 0.55703 0.19094 0.09212 0.0
H1284 H 0.58608 0.19952 0.08896 0.0
H1285 H 0.58766 0.14646 0.0923 0.0
C1286 C 0.57404 0.10731 0.09519 0.0
C1287 C 0.56627 0.08947 0.09223 0.0
C1288 C 0.57323 0.13784 0.09295 0.0
C1289 C 0.5577 0.10253 0.08748 0.0
C1290 C 0.55683 0.13279 0.08826 0.0
C1291 C 0.56371 0.18113 0.09219 0.0
C1292 C 0.57144 0.19906 0.09136 0.0
C1293 C 0.56454 0.15066 0.09127 0.0
C1294 C 0.58004 0.18614 0.08979 0.0
C1295 C 0.58094 0.15582 0.09188 0.0
H1296 H 0.69857 0.09353 0.03924 0.0
H1297 H 0.69837 0.08579 0.30396 0.0
H1298 H 0.69785 0.13858 0.31737 0.0
H1299 H 0.69657 0.18721 0.25379 0.0
H1300 H 0.69786 0.19504 0.98938 0.0
H1301 H 0.69887 0.14232 0.97613 0.0
C1302 C 0.69851 0.10342 0.09985 0.0
C1303 C 0.69847 0.08561 0.17042 0.0
C1304 C 0.69835 0.13395 0.10727 0.0
C1305 C 0.69846 0.09887 0.24851 0.0
C1306 C 0.6981 0.12913 0.2563 0.0
C1307 C 0.69715 0.17736 0.19335 0.0
C1308 C 0.69708 0.19513 0.1227 0.0
C1309 C 0.69791 0.14691 0.18613 0.0
C1310 C 0.69793 0.18198 0.04486 0.0
C1311 C 0.69847 0.15176 0.03715 0.0
H1312 H 0.44311 0.85035 0.9679 0.0
H1313 H 0.43416 0.8449 0.71561 0.0
H1314 H 0.43414 0.89778 0.70508 0.0
H1315 H 0.43706 0.94551 0.76565 0.0
H1316 H 0.44698 0.9517 0.01502 0.0
H1317 H 0.44634 0.89881 0.02829 0.0
C1318 C 0.44104 0.86086 0.91117 0.0
C1319 C 0.43853 0.84381 0.8429 0.0
C1320 C 0.44134 0.89141 0.90462 0.0
C1321 C 0.43607 0.8576 0.76906 0.0
C1322 C 0.43609 0.88783 0.76291 0.0
C1323 C 0.43909 0.93535 0.82303 0.0
C1324 C 0.44206 0.95268 0.88921 0.0
C1325 C 0.43879 0.90494 0.82994 0.0
C1326 C 0.44472 0.93898 0.9628 0.0
C1327 C 0.44431 0.90869 0.97062 0.0
H1328 H 0.31216 0.84779 0.99429 0.0
H1329 H 0.31027 0.84154 0.72966 0.0
H1330 H 0.30892 0.89425 0.71962 0.0
H1331 H 0.30939 0.94273 0.78529 0.0
H1332 H 0.31217 0.94857 0.04922 0.0
H1333 H 0.31194 0.89575 0.06005 0.0
C1334 C 0.31135 0.85786 0.93439 0.0
C1335 C 0.31135 0.84051 0.8629 0.0
C1336 C 0.31075 0.88833 0.92882 0.0
C1337 C 0.31033 0.85419 0.78587 0.0
C1338 C 0.30956 0.88444 0.77999 0.0
C1339 C 0.30978 0.93242 0.84522 0.0
C1340 C 0.31078 0.94966 0.91633 0.0
C1341 C 0.3099 0.90182 0.85093 0.0
C1342 C 0.31141 0.93587 0.99345 0.0
C1343 C 0.3113 0.90561 0.99974 0.0
H1344 H 0.99521 0.53485 0.87775 0.0
H1345 H 0.98267 0.53336 0.11869 0.0
H1346 H 0.99719 0.52203 0.18066 0.0
H1347 H 0.01339 0.51157 0.16757 0.0
H1348 H 0.02601 0.5134 0.92767 0.0
H1349 H 0.01152 0.52639 0.86527 0.0
C1350 C 0.99557 0.53222 0.94401 0.0
C1351 C 0.98763 0.53456 0.99244 0.0
C1352 C 1.00402 0.52602 0.97997 0.0
C1353 C 0.98844 0.53109 0.07837 0.0
C1354 C 0.99683 0.52481 0.11445 0.0
C1355 C 0.01302 0.51487 0.10152 0.0
C1356 C 0.02086 0.51155 0.05273 0.0
C1357 C 0.00463 0.522 0.06582 0.0
C1358 C 0.02019 0.51621 0.96735 0.0
C1359 C 0.01186 0.52339 0.9314 0.0
H1360 H 0.26596 0.75149 0.86917 0.0
H1361 H 0.27907 0.75916 0.1062 0.0
H1362 H 0.26466 0.77172 0.16924 0.0
H1363 H 0.24836 0.77931 0.15871 0.0
H1364 H 0.23511 0.77203 0.92192 0.0
H1365 H 0.24953 0.75985 0.85839 0.0
C1366 C 0.2657 0.75592 0.93471 0.0
C1367 C 0.27371 0.75465 0.98221 0.0
C1368 C 0.25732 0.76285 0.97113 0.0
C1369 C 0.27316 0.76057 0.06708 0.0
C1370 C 0.26486 0.76749 0.1036 0.0
C1371 C 0.24854 0.7752 0.09299 0.0
C1372 C 0.24047 0.77643 0.0461 0.0
C1373 C 0.2569 0.76858 0.05629 0.0
C1374 C 0.24102 0.77084 0.96093 0.0
C1375 C 0.24934 0.76405 0.92404 0.0
H1376 H 0.02505 0.76023 0.26856 0.0
H1377 H 0.01635 0.83336 0.12266 0.0
H1378 H 1.00075 0.82558 0.16583 0.0
H1379 H 0.98942 0.79816 0.24544 0.0
H1380 H 0.99808 0.72593 0.39442 0.0
H1381 H 0.01371 0.73303 0.34937 0.0
C1382 C 0.01978 0.77477 0.24737 0.0
C1383 C 0.02194 0.79748 0.19276 0.0
C1384 C 0.01073 0.77006 0.27199 0.0
C1385 C 0.01492 0.81566 0.16466 0.0
C1386 C 0.00596 0.81121 0.18909 0.0
C1387 C 0.9947 0.78367 0.26673 0.0
C1388 C 0.99256 0.76131 0.32229 0.0
C1389 C 1.00375 0.78832 0.24215 0.0
C1390 C 0.99955 0.7432 0.35111 0.0
C1391 C 0.00851 0.74734 0.32576 0.0
H1392 H 0.26251 0.51991 0.41464 0.0
H1393 H 0.27474 0.53245 0.17506 0.0
H1394 H 0.2602 0.52357 0.10988 0.0
H1395 H 0.24401 0.51215 0.11964 0.0
H1396 H 0.23171 0.50026 0.35865 0.0
H1397 H 0.24626 0.50984 0.42462 0.0
C1398 C 0.26207 0.52084 0.34805 0.0
C1399 C 0.26991 0.52646 0.30059 0.0
C1400 C 0.25361 0.51616 0.31048 0.0
C1401 C 0.26903 0.52752 0.21422 0.0
C1402 C 0.26063 0.52269 0.17647 0.0
C1403 C 0.24448 0.51166 0.18628 0.0
C1404 C 0.23669 0.50564 0.23378 0.0
C1405 C 0.2529 0.5169 0.22395 0.0
C1406 C 0.23748 0.50534 0.32011 0.0
C1407 C 0.24585 0.51055 0.35801 0.0
H1408 H 0.74527 0.29341 0.14922 0.0
H1409 H 0.7329 0.27684 0.91242 0.0
H1410 H 0.7477 0.26581 0.85461 0.0
H1411 H 0.76422 0.26345 0.86863 0.0
H1412 H 0.77659 0.28332 0.1036 0.0
H1413 H 0.76172 0.29022 0.16382 0.0
C1414 C 0.74574 0.28734 0.08485 0.0
C1415 C 0.73784 0.28591 0.03593 0.0
C1416 C 0.75433 0.28161 0.05121 0.0
C1417 C 0.73872 0.27774 0.95274 0.0
C1418 C 0.74724 0.27164 0.91914 0.0
C1419 C 0.76373 0.26921 0.93321 0.0
C1420 C 0.77168 0.27257 0.98089 0.0
C1421 C 0.7551 0.27387 0.96755 0.0
C1422 C 0.77075 0.27993 0.06469 0.0
C1423 C 0.76218 0.2842 0.09943 0.0
H1424 H 0.995 0.26417 0.89741 0.0
H1425 H 0.98424 0.28414 0.65634 0.0
H1426 H 0.99952 0.28538 0.60047 0.0
H1427 H 0.01593 0.28167 0.61972 0.0
H1428 H 0.02671 0.26174 0.86073 0.0
H1429 H 0.01142 0.26054 0.91671 0.0
C1430 C 0.99595 0.26884 0.83253 0.0
C1431 C 0.98836 0.27365 0.78142 0.0
C1432 C 0.0048 0.26998 0.80074 0.0
C1433 C 0.98983 0.2796 0.69742 0.0
C1434 C 0.99862 0.28064 0.66533 0.0
C1435 C 0.01499 0.27702 0.68461 0.0
C1436 C 0.02258 0.27217 0.73568 0.0
C1437 C 0.00614 0.27592 0.71644 0.0
C1438 C 0.02112 0.26628 0.81971 0.0
C1439 C 0.01233 0.26526 0.85184 0.0
H1440 H 0.74327 0.5115 0.59407 0.0
H1441 H 0.73076 0.53215 0.82758 0.0
H1442 H 0.74563 0.53591 0.8911 0.0
H1443 H 0.76217 0.53388 0.881 0.0
H1444 H 0.77469 0.51338 0.64759 0.0
H1445 H 0.75982 0.50997 0.58363 0.0
C1446 C 0.74374 0.51688 0.65894 0.0
C1447 C 0.73577 0.52106 0.70563 0.0
C1448 C 0.75235 0.51949 0.6952 0.0
C1449 C 0.73664 0.52801 0.78974 0.0
C1450 C 0.74519 0.5305 0.82626 0.0
C1451 C 0.76169 0.52866 0.81602 0.0
C1452 C 0.76966 0.52425 0.7695 0.0
C1453 C 0.75309 0.52629 0.7796 0.0
C1454 C 0.7688 0.5176 0.68522 0.0
C1455 C 0.76025 0.51532 0.64852 0.0
H1456 H 0.98688 0.05158 0.53993 0.0
H1457 H 0.99349 1.01555 0.30248 0.0
H1458 H 0.00885 1.00493 0.34925 0.0
H1459 H 0.02059 1.00738 0.45591 0.0
H1460 H 0.01414 0.0457 0.69168 0.0
H1461 H 0.99863 0.05351 0.64745 0.0
C1462 C 0.99164 0.04092 0.49909 0.0
C1463 C 0.98903 0.03418 0.41811 0.0
C1464 C 1.00056 0.03551 0.52572 0.0
C1465 C 0.99534 1.02094 0.36523 0.0
C1466 C 1.00414 1.01493 0.39181 0.0
C1467 C 0.01587 1.01779 0.49752 0.0
C1468 C 0.01869 0.02615 0.57699 0.0
C1469 C 0.00689 0.02255 0.47155 0.0
C1470 C 0.01227 0.03891 0.63013 0.0
C1471 C 1.00334 0.04348 0.60497 0.0
H1472 H 0.26469 0.2526 0.38614 0.0
H1473 H 0.2769 0.28023 0.61519 0.0
H1474 H 0.26195 0.28374 0.67769 0.0
H1475 H 0.24536 0.28043 0.66648 0.0
H1476 H 0.23329 0.25322 0.43647 0.0
H1477 H 0.24825 0.24902 0.37513 0.0
C1478 C 0.26415 0.25944 0.44985 0.0
C1479 C 0.27204 0.26588 0.49554 0.0
C1480 C 0.25551 0.26198 0.48513 0.0
C1481 C 0.27107 0.2745 0.57827 0.0
C1482 C 0.26247 0.27683 0.61406 0.0
C1483 C 0.24597 0.27355 0.60286 0.0
C1484 C 0.23811 0.26766 0.55619 0.0
C1485 C 0.25464 0.2708 0.56789 0.0
C1486 C 0.23911 0.25874 0.4738 0.0
C1487 C 0.24771 0.25598 0.43869 0.0
H1488 H 0.26204 0.04214 0.91195 0.0
H1489 H 0.27503 0.02524 0.67837 0.0
H1490 H 0.26061 1.00919 0.62118 0.0
H1491 H 0.24431 1.00095 0.63584 0.0
H1492 H 0.23131 1.01751 0.8698 0.0
H1493 H 0.24571 0.03338 0.92701 0.0
C1494 C 0.26176 0.03496 0.84839 0.0
C1495 C 0.26974 0.03473 0.80023 0.0
C1496 C 0.2534 0.02604 0.81532 0.0
C1497 C 0.26915 0.02518 0.71806 0.0
C1498 C 0.26084 1.01623 0.68484 0.0
C1499 C 0.24456 1.00794 0.69956 0.0
C1500 C 0.23656 1.00822 0.74751 0.0
C1501 C 0.25293 1.01667 0.73282 0.0
C1502 C 0.23717 1.01751 0.82997 0.0
C1503 C 0.24548 0.02639 0.86331 0.0
H1504 H 0.7648 0.79208 0.38554 0.0
H1505 H 0.77647 0.73936 0.5784 0.0
H1506 H 0.76164 0.73471 0.64273 0.0
H1507 H 0.74531 0.74418 0.64242 0.0
H1508 H 0.73366 0.79707 0.44963 0.0
H1509 H 0.7485 0.80218 0.38644 0.0
C1510 C 0.76415 0.77958 0.44181 0.0
C1511 C 0.77187 0.76641 0.4771 0.0
C1512 C 0.75554 0.77655 0.47801 0.0
C1513 C 0.77079 0.75039 0.55028 0.0
C1514 C 0.76225 0.74741 0.58682 0.0
C1515 C 0.74596 0.75692 0.58658 0.0
C1516 C 0.73821 0.76979 0.55081 0.0
C1517 C 0.75458 0.76024 0.55093 0.0
C1518 C 0.73932 0.78617 0.47825 0.0
C1519 C 0.74788 0.78942 0.44223 0.0
H1520 H 0.74694 0.98966 0.15623 0.0
H1521 H 0.73388 1.01655 0.38179 0.0
H1522 H 0.74822 0.03574 0.43238 0.0
H1523 H 0.76447 0.04346 0.41517 0.0
H1524 H 0.77758 1.01698 0.18913 0.0
H1525 H 0.76323 0.99844 0.13776 0.0
C1526 C 0.74719 0.99976 0.21652 0.0
C1527 C 0.73923 1.00179 0.26449 0.0
C1528 C 0.75551 1.01047 0.24591 0.0
C1529 C 0.73976 1.01511 0.34231 0.0
C1530 C 0.74802 0.02586 0.37182 0.0
C1531 C 0.76427 0.03376 0.35437 0.0
C1532 C 0.77228 0.03147 0.30715 0.0
C1533 C 0.75593 0.02348 0.32436 0.0
C1534 C 0.77171 1.01867 0.22852 0.0
C1535 C 0.76343 1.00822 0.19845 0.0
H1536 H 0.51201 0.49246 0.57979 0.0
H1537 H 0.52497 0.52318 0.35759 0.0
H1538 H 0.51055 0.54255 0.30952 0.0
H1539 H 0.49424 0.5495 0.32798 0.0
H1540 H 0.48128 0.51899 0.55069 0.0
H1541 H 0.49571 0.50022 0.59938 0.0
C1542 C 0.51173 0.5034 0.52073 0.0
C1543 C 0.51969 0.50643 0.47305 0.0
C1544 C 0.50337 0.51421 0.49273 0.0
C1545 C 0.5191 0.52089 0.3969 0.0
C1546 C 0.5108 0.53177 0.3688 0.0
C1547 C 0.4945 0.53884 0.38745 0.0
C1548 C 0.4865 0.5355 0.43453 0.0
C1549 C 0.50289 0.52839 0.41598 0.0
C1550 C 0.48714 0.52149 0.51141 0.0
C1551 C 0.49546 0.51092 0.53997 0.0
H1552 H 0.4931 0.78939 0.85286 0.0
H1553 H 0.48199 0.74932 0.63407 0.0
H1554 H 0.49694 0.74957 0.57101 0.0
H1555 H 0.51321 0.76031 0.57823 0.0
H1556 H 0.52429 0.79984 0.7977 0.0
H1557 H 0.50931 0.79975 0.86055 0.0
C1558 C 0.49388 0.78061 0.79132 0.0
C1559 C 0.48628 0.76968 0.74851 0.0
C1560 C 0.50255 0.78031 0.75571 0.0
C1561 C 0.48756 0.75853 0.6686 0.0
C1562 C 0.49617 0.75838 0.63251 0.0
C1563 C 0.51238 0.76895 0.63989 0.0
C1564 C 0.51997 0.77974 0.68317 0.0
C1565 C 0.50371 0.76915 0.67557 0.0
C1566 C 0.5187 0.79073 0.76316 0.0
C1567 C 0.51008 0.79098 0.79902 0.0
H1568 H 0.49486 0.28864 0.35334 0.0
H1569 H 0.48298 0.24219 0.14878 0.0
H1570 H 0.49769 0.24075 0.08064 0.0
H1571 H 0.51396 0.25122 0.08088 0.0
H1572 H 0.52577 0.29806 0.28536 0.0
H1573 H 0.51107 0.29994 0.35232 0.0
C1574 C 0.49545 0.27818 0.29375 0.0
C1575 C 0.48774 0.26578 0.2563 0.0
C1576 C 0.50396 0.27705 0.2553 0.0
C1577 C 0.48869 0.25249 0.17877 0.0
C1578 C 0.49714 0.25138 0.13999 0.0
C1579 C 0.51337 0.26195 0.14007 0.0
C1580 C 0.52111 0.27401 0.17808 0.0
C1581 C 0.50483 0.26342 0.17796 0.0
C1582 C 0.5201 0.28779 0.25492 0.0
C1583 C 0.51162 0.2892 0.29315 0.0
H1584 H 0.49515 0.03109 0.84386 0.0
H1585 H 0.48328 0.0321 0.08731 0.0
H1586 H 0.49793 1.01981 0.14669 0.0
H1587 H 0.51413 1.0093 0.13046 0.0
H1588 H 0.52596 1.00845 0.88698 0.0
H1589 H 0.51133 1.021 0.82771 0.0
C1590 C 0.4957 0.02873 0.9101 0.0
C1591 C 0.48794 0.03233 0.96034 0.0
C1592 C 0.5042 0.02204 0.94429 0.0
C1593 C 0.48894 0.02898 0.04607 0.0
C1594 C 0.49739 0.02217 0.08046 0.0
C1595 C 0.51356 1.01181 0.06426 0.0
C1596 C 0.52129 1.00812 0.01383 0.0
C1597 C 0.50506 1.01868 0.03017 0.0
C1598 C 0.5203 1.01167 0.9282 0.0
C1599 C 0.51186 1.01859 0.89393 0.0
H1600 H 0.05784 0.39172 0.54339 0.0
H1601 H 0.08228 0.34182 0.51402 0.0
H1602 H 0.08669 0.37279 0.39667 0.0
H1603 H 0.08311 0.41402 0.3015 0.0
H1604 H 0.05896 0.46427 0.34355 0.0
H1605 H 0.0553 0.43482 0.46288 0.0
C1606 C 0.06417 0.38747 0.51149 0.0
C1607 C 0.06953 0.36362 0.53456 0.0
C1608 C 0.06691 0.40649 0.44964 0.0
C1609 C 0.07776 0.35883 0.49376 0.0
C1610 C 0.08038 0.37709 0.42849 0.0
C1611 C 0.07728 0.4192 0.33936 0.0
C1612 C 0.07154 0.44229 0.31632 0.0
C1613 C 0.07499 0.40109 0.40609 0.0
C1614 C 0.06378 0.44803 0.36319 0.0
C1615 C 0.06153 0.4305 0.42977 0.0
H1616 H 0.17522 0.9041 0.52218 0.0
H1617 H 0.19547 0.96836 0.46373 0.0
H1618 H 0.19912 0.94285 0.33717 0.0
H1619 H 0.19851 0.89864 0.2578 0.0
H1620 H 0.17829 0.83351 0.3082 0.0
H1621 H 0.17306 0.8619 0.42768 0.0
C1622 C 0.18014 0.91306 0.47958 0.0
C1623 C 0.18482 0.93878 0.5005 0.0
C1624 C 0.18263 0.89712 0.40924 0.0
C1625 C 0.19142 0.94967 0.44676 0.0
C1626 C 0.19372 0.93451 0.37573 0.0
C1627 C 0.1929 0.89055 0.29437 0.0
C1628 C 0.18912 0.86313 0.27725 0.0
C1629 C 0.18967 0.90764 0.3588 0.0
C1630 C 0.18173 0.85348 0.32397 0.0
C1631 C 0.1786 0.87014 0.39065 0.0
H1632 H 0.05965 0.89305 0.72456 0.0
H1633 H 0.07993 0.95846 0.76872 0.0
H1634 H 0.0854 0.93092 0.88882 0.0
H1635 H 0.08337 0.88934 0.98618 0.0
H1636 H 0.06336 0.82396 0.93097 0.0
H1637 H 0.05938 0.849 0.80466 0.0
C1638 C 0.06532 0.9014 0.75984 0.0
C1639 C 0.06898 0.92887 0.7414 0.0
C1640 C 0.06873 0.88463 0.82425 0.0
C1641 C 0.0765 0.93871 0.78622 0.0
C1642 C 0.07978 0.92245 0.85311 0.0
C1643 C 0.07843 0.88003 0.94434 0.0
C1644 C 0.07389 0.85419 0.96639 0.0
C1645 C 0.07582 0.89555 0.87351 0.0
C1646 C 0.06727 0.84284 0.91347 0.0
C1647 C 0.0648 0.85769 0.84239 0.0
H1648 H 0.1993 0.39744 0.73885 0.0
H1649 H 0.17789 0.33567 0.78174 0.0
H1650 H 0.17285 0.36421 0.90164 0.0
H1651 H 0.17547 0.40573 0.9983 0.0
H1652 H 0.1964 0.468 0.94221 0.0
H1653 H 0.20013 0.44175 0.81712 0.0
C1654 C 0.19347 0.39008 0.77378 0.0
C1655 C 0.18935 0.36329 0.75509 0.0
C1656 C 0.19028 0.40759 0.83737 0.0
C1657 C 0.18166 0.35477 0.79955 0.0
C1658 C 0.17862 0.37165 0.86618 0.0
C1659 C 0.18056 0.41413 0.95645 0.0
C1660 C 0.18546 0.43937 0.97792 0.0
C1661 C 0.18298 0.39796 0.8863 0.0
C1662 C 0.19224 0.44958 0.92504 0.0
C1663 C 0.19457 0.43403 0.85479 0.0
H1664 H 0.92789 0.63939 0.76895 0.0
H1665 H 0.9501 0.58072 0.72528 0.0
H1666 H 0.95486 0.60919 0.6078 0.0
H1667 H 0.95416 0.65385 0.53246 0.0
H1668 H 0.93053 0.70831 0.54814 0.0
H1669 H 0.92519 0.67989 0.66743 0.0
C1670 C 0.9335 0.63223 0.73107 0.0
C1671 C 0.93853 0.60755 0.75456 0.0
C1672 C 0.93629 0.6491 0.66325 0.0
C1673 C 0.94592 0.5988 0.70664 0.0
C1674 C 0.94881 0.61561 0.6408 0.0
C1675 C 0.94778 0.65969 0.56119 0.0
C1676 C 0.94308 0.68464 0.53546 0.0
C1677 C 0.94428 0.64136 0.62128 0.0
C1678 C 0.93471 0.69101 0.57197 0.0
C1679 C 0.9315 0.67402 0.63791 0.0
H1680 H 0.83413 0.13521 0.53298 0.0
H1681 H 0.81205 0.07701 0.5872 0.0
H1682 H 0.80839 0.10482 0.70971 0.0
H1683 H 0.80988 0.14914 0.78768 0.0
H1684 H 0.83231 0.20714 0.74556 0.0
H1685 H 0.83705 0.17729 0.62713 0.0
C1686 C 0.82878 0.12799 0.57396 0.0
C1687 C 0.82361 0.10322 0.55294 0.0
C1688 C 0.8264 0.1452 0.64241 0.0
C1689 C 0.81648 0.09471 0.60454 0.0
C1690 C 0.81419 0.11129 0.67309 0.0
C1691 C 0.81586 0.15541 0.75307 0.0
C1692 C 0.82044 0.1814 0.77242 0.0
C1693 C 0.81885 0.13712 0.69026 0.0
C1694 C 0.82827 0.1886 0.72797 0.0
C1695 C 0.83112 0.17096 0.66206 0.0
H1696 H 0.95044 0.14726 0.95485 0.0
H1697 H 0.92832 0.20616 0.99791 0.0
H1698 H 0.92364 0.17704 0.11804 0.0
H1699 H 0.92677 0.13592 0.2147 0.0
H1700 H 0.94848 0.07666 0.15873 0.0
H1701 H 0.95186 0.10326 0.03352 0.0
C1702 C 0.94453 0.15385 0.98988 0.0
C1703 C 0.94008 0.18002 0.97113 0.0
C1704 C 0.94157 0.13601 0.05366 0.0
C1705 C 0.93231 0.18757 0.01573 0.0
C1706 C 0.92949 0.17035 0.08249 0.0
C1707 C 0.93197 0.12823 0.17286 0.0
C1708 C 0.93717 0.10369 0.19431 0.0
C1709 C 0.93418 0.14467 0.10264 0.0
C1710 C 0.94409 0.09444 0.14152 0.0
C1711 C 0.94621 0.11023 0.07118 0.0
H1712 H 0.81882 0.7088 0.13887 0.0
H1713 H 0.82452 0.64441 0.32298 0.0
H1714 H 0.82517 0.60706 0.21707 0.0
H1715 H 0.8202 0.59337 0.07531 0.0
H1716 H 0.82038 0.65939 0.88799 0.0
H1717 H 0.82167 0.6965 0.99225 0.0
C1718 C 0.82127 0.68765 0.15576 0.0
C1719 C 0.82176 0.67997 0.23898 0.0
C1720 C 0.82237 0.66645 0.0941 0.0
C1721 C 0.82409 0.65109 0.25909 0.0
C1722 C 0.82438 0.62952 0.1986 0.0
C1723 C 0.82138 0.6152 0.05595 0.0
C1724 C 0.81993 0.62294 0.97353 0.0
C1725 C 0.82302 0.63681 0.11591 0.0
C1726 C 0.82111 0.65243 0.95142 0.0
C1727 C 0.8219 0.67398 0.01106 0.0
H1728 H 0.58134 0.40838 0.71354 0.0
H1729 H 0.5559 0.45359 0.73345 0.0
H1730 H 0.55137 0.42232 0.84662 0.0
H1731 H 0.55387 0.37944 0.9287 0.0
H1732 H 0.58008 0.33858 0.93136 0.0
H1733 H 0.5849 0.36923 0.81574 0.0
C1734 C 0.57499 0.41204 0.74532 0.0
C1735 C 0.56907 0.43388 0.71724 0.0
C1736 C 0.57236 0.39357 0.8102 0.0
C1737 C 0.56073 0.43791 0.75661 0.0
C1738 C 0.55803 0.41947 0.81975 0.0
C1739 C 0.56066 0.37703 0.9041 0.0
C1740 C 0.56641 0.35532 0.93526 0.0
C1741 C 0.56366 0.39672 0.84489 0.0
C1742 C 0.57526 0.35332 0.90428 0.0
C1743 C 0.57811 0.37162 0.84005 0.0
H1744 H 0.67799 0.90802 0.01061 0.0
H1745 H 0.70392 0.95096 0.00221 0.0
H1746 H 0.70865 0.91997 0.88907 0.0
H1747 H 0.70611 0.87755 0.80408 0.0
H1748 H 0.6796 0.83878 0.7918 0.0
H1749 H 0.67452 0.86972 0.90581 0.0
C1750 C 0.68451 0.91131 0.98131 0.0
C1751 C 0.6905 0.93244 0.01269 0.0
C1752 C 0.68726 0.89291 0.91669 0.0
C1753 C 0.69905 0.93589 0.97653 0.0
C1754 C 0.70185 0.91758 0.91337 0.0
C1755 C 0.69921 0.87565 0.82646 0.0
C1756 C 0.69343 0.85427 0.79362 0.0
C1757 C 0.69612 0.89545 0.88518 0.0
C1758 C 0.68442 0.85309 0.82096 0.0
C1759 C 0.68144 0.87157 0.88416 0.0
H1760 H 0.58342 0.90526 0.23393 0.0
H1761 H 0.56217 0.96564 0.29414 0.0
H1762 H 0.55911 0.93964 0.42105 0.0
H1763 H 0.56052 0.89573 0.49983 0.0
H1764 H 0.58199 0.83493 0.45088 0.0
H1765 H 0.58655 0.86386 0.3299 0.0
C1766 C 0.57842 0.91336 0.27709 0.0
C1767 C 0.57329 0.9382 0.25662 0.0
C1768 C 0.57633 0.89708 0.34802 0.0
C1769 C 0.56659 0.94787 0.31096 0.0
C1770 C 0.56462 0.93234 0.38217 0.0
C1771 C 0.56628 0.88868 0.4635 0.0
C1772 C 0.57056 0.86208 0.48107 0.0
C1773 C 0.56916 0.9063 0.39887 0.0
C1774 C 0.57812 0.85392 0.43435 0.0
C1775 C 0.58088 0.87101 0.367 0.0
H1776 H 0.67457 0.37655 0.25945 0.0
H1777 H 0.69676 0.31868 0.31159 0.0
H1778 H 0.70029 0.34575 0.43595 0.0
H1779 H 0.69872 0.38977 0.51568 0.0
H1780 H 0.67617 0.44716 0.47511 0.0
H1781 H 0.67146 0.41763 0.35598 0.0
C1782 C 0.67992 0.36923 0.30026 0.0
C1783 C 0.6852 0.34493 0.27795 0.0
C1784 C 0.68221 0.38596 0.36986 0.0
C1785 C 0.69231 0.33623 0.32952 0.0
C1786 C 0.69451 0.3523 0.39933 0.0
C1787 C 0.69273 0.39594 0.48117 0.0
C1788 C 0.68815 0.42187 0.50041 0.0
C1789 C 0.68977 0.37784 0.41767 0.0
C1790 C 0.68026 0.42885 0.45678 0.0
C1791 C 0.67742 0.41137 0.39058 0.0
H1792 H 0.4479 0.64671 0.95473 0.0
H1793 H 0.42641 0.70769 1.00122 0.0
H1794 H 0.42154 0.6786 0.12057 0.0
H1795 H 0.4243 0.6369 0.21563 0.0
H1796 H 0.44551 0.57595 0.15828 0.0
H1797 H 0.44905 0.60252 0.03317 0.0
C1798 C 0.44209 0.65375 0.99037 0.0
C1799 C 0.43784 0.68032 0.9723 0.0
C1800 C 0.43904 0.63607 0.05418 0.0
C1801 C 0.4302 0.68854 0.01783 0.0
C1802 C 0.42728 0.67143 0.0844 0.0
C1803 C 0.42943 0.62888 0.17359 0.0
C1804 C 0.43444 0.6039 0.19448 0.0
C1805 C 0.43175 0.64528 0.10367 0.0
C1806 C 0.44127 0.59415 0.14141 0.0
C1807 C 0.44347 0.60988 0.07118 0.0
H1808 H 0.33274 0.1316 0.02879 0.0
H1809 H 0.31077 0.07346 0.08772 0.0
H1810 H 0.30765 0.10064 0.21272 0.0
H1811 H 0.30946 0.14473 0.29097 0.0
H1812 H 0.33176 0.20273 0.24329 0.0
H1813 H 0.33613 0.17297 0.12353 0.0
C1814 C 0.32753 0.12429 0.07116 0.0
C1815 C 0.32218 0.09992 0.05072 0.0
C1816 C 0.32548 0.14106 0.14107 0.0
C1817 C 0.31526 0.09113 0.10422 0.0
C1818 C 0.3133 0.10724 0.17438 0.0
C1819 C 0.31534 0.15097 0.2549 0.0
C1820 C 0.31997 0.17694 0.27267 0.0
C1821 C 0.31809 0.13286 0.19098 0.0
C1822 C 0.32769 0.18411 0.22674 0.0
C1823 C 0.33032 0.1666 0.16001 0.0
H1824 H 0.44945 0.14658 0.47163 0.0
H1825 H 0.4277 0.2065 0.51965 0.0
H1826 H 0.42303 0.17697 0.63902 0.0
H1827 H 0.42613 0.13548 0.73411 0.0
H1828 H 0.44776 0.07624 0.67624 0.0
H1829 H 0.45092 0.10255 0.55005 0.0
C1830 C 0.44362 0.15328 0.50758 0.0
C1831 C 0.43924 0.17968 0.49005 0.0
C1832 C 0.4407 0.1354 0.57138 0.0
C1833 C 0.43159 0.18748 0.53595 0.0
C1834 C 0.42878 0.17012 0.60246 0.0
C1835 C 0.43123 0.12766 0.69148 0.0
C1836 C 0.43645 0.1031 0.71239 0.0
C1837 C 0.43339 0.14417 0.62131 0.0
C1838 C 0.44329 0.09379 0.65891 0.0
C1839 C 0.44531 0.10951 0.58822 0.0
H1840 H 0.32926 0.64227 0.47603 0.0
H1841 H 0.30901 0.58782 0.58853 0.0
H1842 H 0.3098 0.61645 0.71461 0.0
H1843 H 0.3153 0.65859 0.78777 0.0
H1844 H 0.33644 0.71215 0.68528 0.0
H1845 H 0.33589 0.6834 0.55692 0.0
C1846 C 0.32526 0.63628 0.52943 0.0
C1847 C 0.31939 0.61215 0.52509 0.0
C1848 C 0.32562 0.65344 0.60106 0.0
C1849 C 0.31395 0.60512 0.59271 0.0
C1850 C 0.31423 0.622 0.66374 0.0
C1851 C 0.31984 0.66402 0.73745 0.0
C1852 C 0.32579 0.68777 0.74499 0.0
C1853 C 0.31989 0.64644 0.66768 0.0
C1854 C 0.33164 0.69446 0.67975 0.0
C1855 C 0.33141 0.67773 0.60727 0.0
H1856 H 0.11476 0.49859 0.05623 0.0
H1857 H 0.11049 0.52714 0.30663 0.0
H1858 H 0.12684 0.52727 0.32961 0.0
H1859 H 0.14225 0.5224 0.27619 0.0
H1860 H 0.14642 0.49429 0.02448 0.0
H1861 H 0.13017 0.49163 0.00473 0.0
C1862 C 0.11737 0.50476 0.11619 0.0
C1863 C 0.11132 0.51286 0.17955 0.0
C1864 C 0.12678 0.50537 0.12846 0.0
C1865 C 0.11489 0.52041 0.25692 0.0
C1866 C 0.12428 0.52079 0.26982 0.0
C1867 C 0.1397 0.51555 0.21669 0.0
C1868 C 0.14578 0.50906 0.15178 0.0
C1869 C 0.13027 0.51379 0.20556 0.0
C1870 C 0.14213 0.50009 0.07572 0.0
C1871 C 0.13275 0.49832 0.06428 0.0
H1872 H 0.11786 0.77907 0.26393 0.0
H1873 H 0.11362 0.79783 0.00536 0.0
H1874 H 0.12984 0.80253 0.9865 0.0
H1875 H 0.14526 0.79944 0.04051 0.0
H1876 H 0.14964 0.77875 0.29712 0.0
H1877 H 0.13329 0.77747 0.31899 0.0
C1878 C 0.12038 0.78427 0.20302 0.0
C1879 C 0.11427 0.78778 0.1363 0.0
C1880 C 0.12981 0.78683 0.19205 0.0
C1881 C 0.11791 0.79471 0.05851 0.0
C1882 C 0.12728 0.79749 0.0474 0.0
C1883 C 0.14271 0.79471 0.10165 0.0
C1884 C 0.14882 0.78919 0.16696 0.0
C1885 C 0.13328 0.79328 0.11346 0.0
C1886 C 0.14524 0.78349 0.24559 0.0
C1887 C 0.13584 0.78245 0.25802 0.0
H1888 H 0.86598 0.54114 0.75385 0.0
H1889 H 0.85917 0.56413 0.00436 0.0
H1890 H 0.87516 0.56237 0.04173 0.0
H1891 H 0.89102 0.55494 0.00342 0.0
H1892 H 0.89777 0.53137 0.75298 0.0
H1893 H 0.88184 0.5337 0.71558 0.0
C1894 C 0.86794 0.54585 0.8168 0.0
C1895 C 0.86127 0.55248 0.87617 0.0
C1896 C 0.87717 0.54513 0.8378 0.0
C1897 C 0.86404 0.55834 0.95739 0.0
C1898 C 0.87323 0.55763 0.97874 0.0
C1899 C 0.88907 0.55026 0.94042 0.0
C1900 C 0.89575 0.54329 0.88126 0.0
C1901 C 0.87984 0.55108 0.9194 0.0
C1902 C 0.89295 0.53745 0.80002 0.0
C1903 C 0.88378 0.53847 0.77854 0.0
H1904 H 0.89261 0.264 0.75073 0.0
H1905 H 0.90002 0.23251 0.99236 0.0
H1906 H 0.88405 0.22968 0.02971 0.0
H1907 H 0.86802 0.23573 0.99406 0.0
H1908 H 0.86069 0.26759 0.75252 0.0
H1909 H 0.87662 0.26964 0.71473 0.0
C1910 C 0.8908 0.25642 0.81175 0.0
C1911 C 0.89766 0.2488 0.86865 0.0
C1912 C 0.88158 0.25446 0.83266 0.0
C1913 C 0.89503 0.23917 0.94737 0.0
C1914 C 0.88585 0.23724 0.96865 0.0
C1915 C 0.86984 0.24313 0.93287 0.0
C1916 C 0.86299 0.25122 0.87634 0.0
C1917 C 0.87907 0.24482 0.91177 0.0
C1918 C 0.86564 0.2606 0.79739 0.0
C1919 C 0.87481 0.2621 0.7758 0.0
H1920 H 0.13995 0.99276 0.76397 0.0
H1921 H 0.14644 1.02006 0.5161 0.0
H1922 H 0.13044 1.01945 0.48068 0.0
H1923 H 0.11466 1.01283 0.52016 0.0
H1924 H 0.10797 0.98556 0.76764 0.0
H1925 H 0.12402 0.98542 0.80312 0.0
C1926 C 0.1379 0.99855 0.70197 0.0
C1927 C 0.14452 1.00611 0.64278 0.0
C1928 C 0.12863 0.99864 0.68211 0.0
C1929 C 0.14165 1.01346 0.56284 0.0
C1930 C 0.13244 1.01344 0.54262 0.0
C1931 C 0.11664 1.00669 0.58206 0.0
C1932 C 0.10996 0.99949 0.64106 0.0
C1933 C 0.12589 1.00624 0.60186 0.0
C1934 C 0.1128 0.99181 0.72089 0.0
C1935 C 0.12204 0.99145 0.74117 0.0
H1936 H 0.11796 0.30962 0.76625 0.0
H1937 H 0.11086 0.27642 0.5255 0.0
H1938 H 0.12684 0.27311 0.4904 0.0
H1939 H 0.1428 0.27812 0.52855 0.0
H1940 H 0.14996 0.311 0.76937 0.0
H1941 H 0.13395 0.31494 0.80413 0.0
C1942 C 0.11984 0.30165 0.70582 0.0
C1943 C 0.11305 0.29357 0.64867 0.0
C1944 C 0.12909 0.29923 0.68631 0.0
C1945 C 0.11577 0.28344 0.57073 0.0
C1946 C 0.12497 0.28121 0.55072 0.0
C1947 C 0.14092 0.28624 0.58884 0.0
C1948 C 0.14772 0.29394 0.64629 0.0
C1949 C 0.13168 0.28886 0.6082 0.0
C1950 C 0.14502 0.30426 0.72406 0.0
C1951 C 0.13581 0.30683 0.74382 0.0
H1952 H 0.86775 0.02459 0.25936 0.0
H1953 H 0.86362 0.04874 0.51407 0.0
H1954 H 0.87994 0.04835 0.53609 0.0
H1955 H 0.89535 0.04147 0.48332 0.0
H1956 H 0.89938 1.0176 0.22848 0.0
H1957 H 0.88306 1.01864 0.20616 0.0
C1958 C 0.87035 0.02992 0.31997 0.0
C1959 C 0.86432 0.03638 0.38501 0.0
C1960 C 0.87975 0.03015 0.33201 0.0
C1961 C 0.86795 0.04305 0.46289 0.0
C1962 C 0.87734 0.04313 0.47546 0.0
C1963 C 0.8927 0.0365 0.42266 0.0
C1964 C 0.89867 0.02969 0.3576 0.0
C1965 C 0.88328 0.0367 0.41045 0.0
C1966 C 0.89504 0.02352 0.27949 0.0
C1967 C 0.88567 0.02379 0.26683 0.0
H1968 H 0.89531 0.76712 0.28206 0.0
H1969 H 0.9011 0.73431 0.52576 0.0
H1970 H 0.8849 0.72901 0.55168 0.0
H1971 H 0.86917 0.73041 0.50206 0.0
H1972 H 0.86355 0.76058 0.2551 0.0
H1973 H 0.8796 0.77024 0.23447 0.0
C1974 C 0.89309 0.75888 0.34126 0.0
C1975 C 0.89956 0.75114 0.40169 0.0
C1976 C 0.88374 0.75529 0.35522 0.0
C1977 C 0.89641 0.74085 0.47811 0.0
C1978 C 0.8871 0.73755 0.49278 0.0
C1979 C 0.8714 0.73923 0.44355 0.0
C1980 C 0.86499 0.74473 0.38045 0.0
C1981 C 0.88072 0.74422 0.43125 0.0
C1982 C 0.86814 0.75642 0.30564 0.0
C1983 C 0.87739 0.76175 0.29339 0.0
H1984 H 0.6408 0.47884 0.71939 0.0
H1985 H 0.64823 0.51653 0.48502 0.0
H1986 H 0.63229 0.52212 0.45043 0.0
H1987 H 0.61636 0.51845 0.48828 0.0
H1988 H 0.6088 0.48089 0.7227 0.0
H1989 H 0.62473 0.47407 0.75599 0.0
C1990 C 0.63898 0.48821 0.66043 0.0
C1991 C 0.64583 0.49698 0.60485 0.0
C1992 C 0.62976 0.49193 0.64134 0.0
C1993 C 0.64323 0.50894 0.52872 0.0
C1994 C 0.63407 0.5125 0.50915 0.0
C1995 C 0.6181 0.50864 0.54684 0.0
C1996 C 0.61121 0.50058 0.60293 0.0
C1997 C 0.62729 0.50434 0.56533 0.0
C1998 C 0.61379 0.48797 0.67836 0.0
C1999 C 0.62296 0.48377 0.69735 0.0
H2000 H 0.6432 0.81545 0.51751 0.0
H2001 H 0.64812 0.77424 0.7525 0.0
H2002 H 0.63206 0.76323 0.76489 0.0
H2003 H 0.61649 0.76875 0.71548 0.0
H2004 H 0.61135 0.81254 0.48491 0.0
H2005 H 0.62763 0.81876 0.4645 0.0
C2006 C 0.64081 0.80388 0.57145 0.0
C2007 C 0.64701 0.79576 0.63387 0.0
C2008 C 0.63148 0.79815 0.57927 0.0
C2009 C 0.64368 0.78051 0.70263 0.0
C2010 C 0.63443 0.77441 0.71023 0.0
C2011 C 0.61888 0.77956 0.66029 0.0
C2012 C 0.61259 0.79022 0.60202 0.0
C2013 C 0.62825 0.78365 0.6498 0.0
C2014 C 0.61593 0.80378 0.53058 0.0
C2015 C 0.62527 0.80759 0.51921 0.0
H2016 H 0.36461 0.5596 0.27147 0.0
H2017 H 0.35956 0.52405 0.51346 0.0
H2018 H 0.37581 0.51934 0.53596 0.0
H2019 H 0.3913 0.52223 0.48403 0.0
H2020 H 0.39633 0.55732 0.24085 0.0
H2021 H 0.3802 0.56445 0.22178 0.0
C2022 C 0.36702 0.55094 0.32954 0.0
C2023 C 0.36077 0.54231 0.39066 0.0
C2024 C 0.37639 0.54765 0.34145 0.0
C2025 C 0.36411 0.5314 0.46561 0.0
C2026 C 0.37344 0.52835 0.47819 0.0
C2027 C 0.38897 0.53158 0.42658 0.0
C2028 C 0.39523 0.53869 0.36372 0.0
C2029 C 0.37962 0.53595 0.41597 0.0
C2030 C 0.39187 0.55089 0.29027 0.0
C2031 C 0.38256 0.55526 0.27932 0.0
H2032 H 0.39296 0.2363 0.26762 0.0
H2033 H 0.39882 0.26383 0.51661 0.0
H2034 H 0.38267 0.26481 0.5469 0.0
H2035 H 0.36697 0.26038 0.50165 0.0
H2036 H 0.361 0.23333 0.2522 0.0
H2037 H 0.37715 0.23053 0.22332 0.0
C2038 C 0.39076 0.24247 0.32886 0.0
C2039 C 0.39725 0.24986 0.38966 0.0
C2040 C 0.38141 0.24358 0.34557 0.0
C2041 C 0.39414 0.25752 0.46859 0.0
C2042 C 0.38484 0.25841 0.48581 0.0
C2043 C 0.3691 0.25371 0.44066 0.0
C2044 C 0.36257 0.24741 0.3792 0.0
C2045 C 0.37843 0.25184 0.42449 0.0
C2046 C 0.36568 0.23889 0.30089 0.0
C2047 C 0.37498 0.23704 0.28434 0.0
H2048 H 0.64443 0.99849 0.24605 0.0
H2049 H 0.65142 1.01627 0.99251 0.0
H2050 H 0.63543 1.01477 0.95523 0.0
H2051 H 0.6195 1.01018 0.99498 0.0
H2052 H 0.61253 0.99238 0.24877 0.0
H2053 H 0.62851 0.99311 0.28537 0.0
C2054 C 0.6425 1.00205 0.18238 0.0
C2055 C 0.64923 1.00732 0.1223 0.0
C2056 C 0.63327 1.00166 0.16151 0.0
C2057 C 0.64652 1.01162 0.04018 0.0
C2058 C 0.63732 1.01108 0.01886 0.0
C2059 C 0.62141 1.00637 0.05852 0.0
C2060 C 0.61467 1.00161 0.11891 0.0
C2061 C 0.63065 1.00636 0.07916 0.0
C2062 C 0.61742 0.9968 0.20078 0.0
C2063 C 0.62661 0.9969 0.2218 0.0
H2064 H 0.61733 0.31649 0.19557 0.0
H2065 H 0.61037 0.26203 0.98793 0.0
H2066 H 0.62589 0.24467 0.98162 0.0
H2067 H 0.64165 0.2474 0.02766 0.0
H2068 H 0.64886 0.30452 0.22867 0.0
H2069 H 0.63303 0.31796 0.24474 0.0
C2070 C 0.61914 0.30071 0.14887 0.0
C2071 C 0.61253 0.2907 0.09253 0.0
C2072 C 0.62819 0.29125 0.14409 0.0
C2073 C 0.61512 0.27002 0.03324 0.0
C2074 C 0.62408 0.26019 0.029 0.0
C2075 C 0.63981 0.26273 0.07549 0.0
C2076 C 0.64659 0.27476 0.12679 0.0
C2077 C 0.63069 0.27103 0.08315 0.0
C2078 C 0.64393 0.29437 0.18871 0.0
C2079 C 0.63483 0.30236 0.19753 0.0
H2080 H 0.3909 0.06045 0.9756 0.0
H2081 H 0.397 1.01052 0.75725 0.0
H2082 H 0.38086 1.0028 0.73399 0.0
H2083 H 0.3651 1.00828 0.7787 0.0
H2084 H 0.35908 0.05827 0.99747 0.0
H2085 H 0.37515 0.06693 0.01835 0.0
C2086 C 0.38875 0.04789 0.92258 0.0
C2087 C 0.39527 0.03627 0.86815 0.0
C2088 C 0.37945 0.04302 0.9104 0.0
C2089 C 0.39224 1.02028 0.7996 0.0
C2090 C 0.38298 1.01554 0.78672 0.0
C2091 C 0.36724 1.02117 0.83111 0.0
C2092 C 0.36074 0.03211 0.88697 0.0
C2093 C 0.37654 0.02654 0.84226 0.0
C2094 C 0.36378 0.04877 0.95424 0.0
C2095 C 0.37303 0.05407 0.96587 0.0
H2096 H 0.36581 0.79247 0.9554 0.0
H2097 H 0.35854 0.73053 0.76693 0.0
H2098 H 0.37407 0.71263 0.76452 0.0
H2099 H 0.39006 0.71896 0.80206 0.0
H2100 H 0.39756 0.78241 0.98544 0.0
H2101 H 0.3816 0.79479 0.00487 0.0
C2102 C 0.36757 0.77473 0.9146 0.0
C2103 C 0.36094 0.76305 0.86113 0.0
C2104 C 0.3766 0.76486 0.91234 0.0
C2105 C 0.36338 0.73985 0.80944 0.0
C2106 C 0.37233 0.72974 0.80746 0.0
C2107 C 0.38821 0.73516 0.84751 0.0
C2108 C 0.39507 0.74984 0.89181 0.0
C2109 C 0.37904 0.74272 0.85668 0.0
C2110 C 0.39249 0.77052 0.95095 0.0
C2111 C 0.38334 0.77787 0.96134 0.0
H2112 H 0.05088 0.38678 0.7918 0.0
H2113 H 0.07243 0.32757 0.85292 0.0
H2114 H 0.07575 0.35489 0.97699 0.0
H2115 H 0.07413 0.39895 0.05504 0.0
H2116 H 0.0527 0.45935 1.00033 0.0
H2117 H 0.04812 0.42949 0.88227 0.0
C2118 C 0.05605 0.37934 0.8344 0.0
C2119 C 0.06114 0.35438 0.8155 0.0
C2120 C 0.05831 0.3964 0.90309 0.0
C2121 C 0.06806 0.34552 0.86885 0.0
C2122 C 0.07015 0.36174 0.93836 0.0
C2123 C 0.0684 0.40571 0.01776 0.0
C2124 C 0.06399 0.43208 0.03439 0.0
C2125 C 0.06557 0.38775 0.95387 0.0
C2126 C 0.05654 0.44015 0.98603 0.0
C2127 C 0.05379 0.42262 0.9199 0.0
H2128 H 0.18587 0.88975 0.75369 0.0
H2129 H 0.20543 0.95632 0.81024 0.0
H2130 H 0.21068 0.92811 0.9289 0.0
H2131 H 0.20855 0.88604 0.02261 0.0
H2132 H 0.18839 0.82161 0.96354 0.0
H2133 H 0.18508 0.84609 0.83458 0.0
C2134 C 0.19136 0.89817 0.79124 0.0
C2135 C 0.19497 0.92587 0.77555 0.0
C2136 C 0.19448 0.88143 0.85658 0.0
C2137 C 0.20216 0.93601 0.82402 0.0
C2138 C 0.20529 0.9195 0.89064 0.0
C2139 C 0.20373 0.87684 0.97937 0.0
C2140 C 0.19902 0.8513 1.00017 0.0
C2141 C 0.20137 0.89237 0.90829 0.0
C2142 C 0.1925 0.8401 0.94611 0.0
C2143 C 0.1904 0.85467 0.87376 0.0
H2144 H 0.04935 0.90483 0.48741 0.0
H2145 H 0.06922 0.97046 0.43119 0.0
H2146 H 0.07291 0.94622 0.30308 0.0
H2147 H 0.07249 0.90267 0.22142 0.0
H2148 H 0.05319 0.83498 0.27409 0.0
H2149 H 0.04763 0.86264 0.39282 0.0
C2150 C 0.05419 0.91434 0.44501 0.0
C2151 C 0.05867 0.94028 0.46649 0.0
C2152 C 0.05678 0.89894 0.37412 0.0
C2153 C 0.06524 0.95174 0.41339 0.0
C2154 C 0.06757 0.9373 0.34141 0.0
C2155 C 0.06699 0.89387 0.25815 0.0
C2156 C 0.06355 0.86603 0.24132 0.0
C2157 C 0.06368 0.91032 0.32344 0.0
C2158 C 0.05634 0.85541 0.2888 0.0
C2159 C 0.05303 0.87161 0.35546 0.0
H2160 H 0.18596 0.39174 0.23388 0.0
H2161 H 0.20586 0.45736 0.28931 0.0
H2162 H 0.21102 0.4289 0.40812 0.0
H2163 H 0.20888 0.38648 0.5011 0.0
H2164 H 0.18825 0.32348 0.44319 0.0
H2165 H 0.1849 0.3484 0.31534 0.0
C2166 C 0.1915 0.3999 0.27123 0.0
C2167 C 0.1953 0.42725 0.25471 0.0
C2168 C 0.19455 0.38307 0.33666 0.0
C2169 C 0.20252 0.43718 0.30328 0.0
C2170 C 0.20558 0.42055 0.37007 0.0
C2171 C 0.20394 0.37769 0.45838 0.0
C2172 C 0.19917 0.35221 0.47897 0.0
C2173 C 0.20154 0.39358 0.38788 0.0
C2174 C 0.19245 0.34174 0.42576 0.0
C2175 C 0.19032 0.35659 0.35402 0.0
H2176 H 0.94157 0.6574 0.30129 0.0
H2177 H 0.9635 0.70928 0.20603 0.0
H2178 H 0.96322 0.68081 0.07729 0.0
H2179 H 0.95641 0.64078 0.99357 0.0
H2180 H 0.93571 0.58681 0.10129 0.0
H2181 H 0.93632 0.6151 0.22807 0.0
C2182 C 0.94635 0.6625 0.25257 0.0
C2183 C 0.95232 0.68608 0.2613 0.0
C2184 C 0.94661 0.64481 0.18332 0.0
C2185 C 0.95853 0.69221 0.19847 0.0
C2186 C 0.9585 0.67548 0.12613 0.0
C2187 C 0.95228 0.63482 0.04616 0.0
C2188 C 0.94624 0.61124 0.04017 0.0
C2189 C 0.95257 0.65163 0.11821 0.0
C2190 C 0.94069 0.60399 0.10675 0.0
C2191 C 0.94089 0.62059 0.17813 0.0
H2192 H 0.80138 0.15841 0.029 0.0
H2193 H 0.8225 0.21952 0.08882 0.0
H2194 H 0.82586 0.19316 0.21459 0.0
H2195 H 0.82449 0.14926 0.29431 0.0
H2196 H 0.8035 0.08701 0.24078 0.0
H2197 H 0.79876 0.1161 0.12168 0.0
C2198 C 0.80645 0.16648 0.07165 0.0
C2199 C 0.81141 0.19171 0.05183 0.0
C2200 C 0.80874 0.14999 0.14146 0.0
C2201 C 0.81822 0.20134 0.10533 0.0
C2202 C 0.82034 0.18569 0.1759 0.0
C2203 C 0.81882 0.14194 0.25713 0.0
C2204 C 0.81463 0.11513 0.27393 0.0
C2205 C 0.8159 0.15944 0.19241 0.0
C2206 C 0.80722 0.10643 0.2259 0.0
C2207 C 0.80437 0.12355 0.15923 0.0
H2208 H 0.93681 0.15038 0.45216 0.0
H2209 H 0.95808 0.08896 0.50246 0.0
H2210 H 0.96285 0.11811 0.62186 0.0
H2211 H 0.96003 0.15987 0.71628 0.0
H2212 H 0.93845 0.21953 0.65963 0.0
H2213 H 0.93528 0.19378 0.53272 0.0
C2214 C 0.94256 0.1433 0.48856 0.0
C2215 C 0.94682 0.11676 0.47112 0.0
C2216 C 0.94545 0.16072 0.55335 0.0
C2217 C 0.95433 0.10829 0.51805 0.0
C2218 C 0.95718 0.12538 0.58483 0.0
C2219 C 0.95491 0.1678 0.67398 0.0
C2220 C 0.94978 0.19249 0.69494 0.0
C2221 C 0.95269 0.15151 0.60362 0.0
C2222 C 0.94288 0.20189 0.64209 0.0
C2223 C 0.94086 0.18654 0.57089 0.0
H2224 H 0.8175 0.65232 0.46713 0.0
H2225 H 0.79657 0.71281 0.53447 0.0
H2226 H 0.79307 0.68328 0.65714 0.0
H2227 H 0.79647 0.64022 0.74574 0.0
H2228 H 0.81808 0.5828 0.67476 0.0
H2229 H 0.82025 0.60951 0.54796 0.0
C2230 C 0.8121 0.65908 0.50821 0.0
C2231 C 0.80732 0.68484 0.49223 0.0
C2232 C 0.80997 0.64158 0.57534 0.0
C2233 C 0.80045 0.69344 0.54647 0.0
C2234 C 0.79837 0.67625 0.61561 0.0
C2235 C 0.80136 0.63296 0.70043 0.0
C2236 C 0.80667 0.60812 0.71684 0.0
C2237 C 0.80307 0.6501 0.63027 0.0
C2238 C 0.81337 0.59999 0.66036 0.0
C2239 C 0.81486 0.61607 0.58933 0.0
H2240 H 0.55462 0.3983 0.48113 0.0
H2241 H 0.57262 0.45893 0.36244 0.0
H2242 H 0.57162 0.43133 0.23424 0.0
H2243 H 0.56703 0.38767 0.16233 0.0
H2244 H 0.54848 0.32711 0.27451 0.0
H2245 H 0.54868 0.35606 0.40217 0.0
C2246 C 0.5581 0.40576 0.42617 0.0
C2247 C 0.56343 0.43109 0.42939 0.0
C2248 C 0.55772 0.38914 0.35383 0.0
C2249 C 0.56814 0.44034 0.35945 0.0
C2250 C 0.56773 0.42417 0.28711 0.0
C2251 C 0.56294 0.38084 0.21447 0.0
C2252 C 0.55796 0.35482 0.21051 0.0
C2253 C 0.56275 0.39822 0.28461 0.0
C2254 C 0.55268 0.34634 0.2779 0.0
C2255 C 0.55266 0.36321 0.3499 0.0
H2256 H 0.70407 0.89461 0.24812 0.0
H2257 H 0.68602 0.95411 0.37012 0.0
H2258 H 0.68743 0.92654 0.4981 0.0
H2259 H 0.69266 0.88371 0.57001 0.0
H2260 H 0.71129 0.82436 0.4546 0.0
H2261 H 0.71047 0.85286 0.32626 0.0
C2262 C 0.70064 0.90175 0.3036 0.0
C2263 C 0.69518 0.92678 0.3015 0.0
C2264 C 0.70133 0.8853 0.37607 0.0
C2265 C 0.69056 0.93566 0.37216 0.0
C2266 C 0.69123 0.91958 0.44446 0.0
C2267 C 0.69664 0.87708 0.51705 0.0
C2268 C 0.70189 0.85165 0.52062 0.0
C2269 C 0.69643 0.89413 0.44631 0.0
C2270 C 0.70698 0.84331 0.45195 0.0
C2271 C 0.70661 0.85986 0.37942 0.0
H2272 H 0.55034 0.88333 0.73086 0.0
H2273 H 0.57093 0.82116 0.79524 0.0
H2274 H 0.57369 0.84623 0.92417 0.0
H2275 H 0.57229 0.88975 0.00436 0.0
H2276 H 0.55219 0.95417 0.94496 0.0
H2277 H 0.54759 0.92547 0.82414 0.0
C2278 C 0.55513 0.87471 0.77518 0.0
C2279 C 0.56008 0.84945 0.75588 0.0
C2280 C 0.55718 0.8907 0.84657 0.0
C2281 C 0.56658 0.83918 0.81145 0.0
C2282 C 0.56839 0.85417 0.88383 0.0
C2283 C 0.56681 0.89762 0.96578 0.0
C2284 C 0.56288 0.92488 0.9812 0.0
C2285 C 0.56403 0.88054 0.89979 0.0
C2286 C 0.55573 0.93431 0.93113 0.0
C2287 C 0.55296 0.91746 0.86349 0.0
H2288 H 0.68448 0.39287 0.02054 0.0
H2289 H 0.70577 0.33176 0.9687 0.0
H2290 H 0.71058 0.3612 0.85078 0.0
H2291 H 0.70781 0.403 0.75715 0.0
H2292 H 0.68614 0.46236 0.81258 0.0
H2293 H 0.68292 0.43649 0.93944 0.0
C2294 C 0.69023 0.38591 0.98403 0.0
C2295 C 0.69449 0.35926 1.00099 0.0
C2296 C 0.69313 0.40352 0.91932 0.0
C2297 C 0.70201 0.35105 0.95386 0.0
C2298 C 0.70489 0.36835 0.88771 0.0
C2299 C 0.70265 0.41087 0.79913 0.0
C2300 C 0.69751 0.4355 0.77774 0.0
C2301 C 0.7004 0.39447 0.86921 0.0
C2302 C 0.69058 0.44478 0.83036 0.0
C2303 C 0.68853 0.42933 0.90154 0.0
H2304 H 0.45722 0.65897 0.71611 0.0
H2305 H 0.43577 0.71908 0.66009 0.0
H2306 H 0.43248 0.69341 0.53334 0.0
H2307 H 0.43388 0.65001 0.45271 0.0
H2308 H 0.4547 0.58729 0.506 0.0
H2309 H 0.45968 0.6166 0.62374 0.0
C2310 C 0.4521 0.66699 0.67397 0.0
C2311 C 0.44708 0.6919 0.69473 0.0
C2312 C 0.44976 0.6506 0.60425 0.0
C2313 C 0.44016 0.70139 0.6423 0.0
C2314 C 0.43806 0.68604 0.57132 0.0
C2315 C 0.43959 0.64267 0.48938 0.0
C2316 C 0.44372 0.61588 0.47241 0.0
C2317 C 0.44255 0.66004 0.55396 0.0
C2318 C 0.45112 0.607 0.52019 0.0
C2319 C 0.45408 0.62413 0.58636 0.0
H2320 H 0.30054 0.15745 0.5264 0.0
H2321 H 0.32204 0.21673 0.58968 0.0
H2322 H 0.32478 0.19048 0.71688 0.0
H2323 H 0.32294 0.14673 0.79557 0.0
H2324 H 0.30199 0.08501 0.73553 0.0
H2325 H 0.29754 0.11497 0.61717 0.0
C2326 C 0.30555 0.16519 0.57015 0.0
C2327 C 0.31078 0.18992 0.55108 0.0
C2328 C 0.30756 0.1485 0.64014 0.0
C2329 C 0.31752 0.19912 0.60586 0.0
C2330 C 0.3193 0.18344 0.67711 0.0
C2331 C 0.31732 0.13973 0.75737 0.0
C2332 C 0.31301 0.11299 0.77257 0.0
C2333 C 0.31464 0.1575 0.69256 0.0
C2334 C 0.30572 0.10461 0.72269 0.0
C2335 C 0.30305 0.12213 0.65623 0.0
H2336 H 0.45903 0.15998 0.2365 0.0
H2337 H 0.43756 0.21951 0.17562 0.0
H2338 H 0.4349 0.19424 0.04683 0.0
H2339 H 0.43674 0.15114 0.96592 0.0
H2340 H 0.45761 0.08896 0.02288 0.0
H2341 H 0.46208 0.11816 0.14325 0.0
C2342 C 0.45405 0.16798 0.19294 0.0
C2343 C 0.44883 0.19254 0.21293 0.0
C2344 C 0.45207 0.15181 0.12192 0.0
C2345 C 0.44209 0.20204 0.1586 0.0
C2346 C 0.44036 0.18695 0.0864 0.0
C2347 C 0.44235 0.14392 0.00396 0.0
C2348 C 0.44659 0.11724 0.98801 0.0
C2349 C 0.44502 0.1612 0.0697 0.0
C2350 C 0.45389 0.10848 0.03719 0.0
C2351 C 0.45657 0.12557 0.10452 0.0
H2352 H 0.3021 0.63975 0.25478 0.0
H2353 H 0.32303 0.57687 0.20715 0.0
H2354 H 0.32785 0.60392 0.08641 0.0
H2355 H 0.32771 0.6489 0.00961 0.0
H2356 H 0.30572 0.7092 0.04049 0.0
H2357 H 0.30007 0.68098 0.1572 0.0
C2358 C 0.30744 0.63142 0.21552 0.0
C2359 C 0.31208 0.606 0.23836 0.0
C2360 C 0.31037 0.64768 0.14737 0.0
C2361 C 0.31913 0.59567 0.18878 0.0
C2362 C 0.32206 0.61161 0.12112 0.0
C2363 C 0.32165 0.65605 0.04143 0.0
C2364 C 0.31756 0.68262 0.02038 0.0
C2365 C 0.318 0.63826 0.10251 0.0
C2366 C 0.30952 0.6906 0.06035 0.0
C2367 C 0.3061 0.67378 0.12522 0.0
H2368 H 0.0552 0.49865 0.78717 0.0
H2369 H 0.0817 0.5352 0.82901 0.0
H2370 H 0.08477 0.53453 0.68134 0.0
H2371 H 0.07964 0.52611 0.53822 0.0
H2372 H 0.05268 0.49332 0.4963 0.0
H2373 H 0.05014 0.48971 0.64448 0.0
C2374 C 0.06167 0.50625 0.76395 0.0
C2375 C 0.06818 0.51705 0.81935 0.0
C2376 C 0.06332 0.50655 0.67828 0.0
C2377 C 0.07652 0.52698 0.78793 0.0
C2378 C 0.0783 0.52657 0.70328 0.0
C2379 C 0.07326 0.51791 0.56172 0.0
C2380 C 0.06637 0.51002 0.50618 0.0
C2381 C 0.07171 0.51679 0.64756 0.0
C2382 C 0.05809 0.49972 0.53764 0.0
C2383 C 0.05662 0.49763 0.62253 0.0
H2384 H 0.18347 0.76715 0.52115 0.0
H2385 H 0.20472 0.83109 0.50255 0.0
H2386 H 0.20729 0.82835 0.6509 0.0
H2387 H 0.20403 0.80616 0.78642 0.0
H2388 H 0.183 0.74129 0.80404 0.0
H2389 H 0.17993 0.74594 0.65725 0.0
C2390 C 0.18859 0.78071 0.54969 0.0
C2391 C 0.19389 0.79925 0.50021 0.0
C2392 C 0.19019 0.77861 0.63545 0.0
C2393 C 0.20056 0.81648 0.53864 0.0
C2394 C 0.20206 0.8149 0.62375 0.0
C2395 C 0.19879 0.79298 0.75818 0.0
C2396 C 0.19383 0.77321 0.80694 0.0
C2397 C 0.19703 0.79569 0.67281 0.0
C2398 C 0.187 0.75659 0.7687 0.0
C2399 C 0.1852 0.75926 0.68434 0.0
H2400 H 0.06079 0.76824 0.7526 0.0
H2401 H 0.0876 0.80483 0.77396 0.0
H2402 H 0.08778 0.81437 0.62538 0.0
H2403 H 0.08038 0.81146 0.48854 0.0
H2404 H 0.05344 0.77549 0.47004 0.0
H2405 H 0.05327 0.76676 0.6182 0.0
C2406 C 0.06671 0.77822 0.72504 0.0
C2407 C 0.07423 0.78546 0.77479 0.0
C2408 C 0.06674 0.78384 0.63977 0.0
C2409 C 0.08176 0.79876 0.73746 0.0
C2410 C 0.08185 0.80428 0.65237 0.0
C2411 C 0.07445 0.8018 0.51686 0.0
C2412 C 0.06694 0.79404 0.46746 0.0
C2413 C 0.07439 0.79679 0.60274 0.0
C2414 C 0.05932 0.78165 0.50586 0.0
C2415 C 0.05922 0.77659 0.59084 0.0
H2416 H 0.17855 0.48028 0.50411 0.0
H2417 H 0.20541 0.51679 0.48289 0.0
H2418 H 0.20572 0.52587 0.63069 0.0
H2419 H 0.19837 0.52451 0.76542 0.0
H2420 H 0.17164 0.4876 0.79 0.0
H2421 H 0.17129 0.47768 0.64164 0.0
C2422 C 0.18449 0.49013 0.5318 0.0
C2423 C 0.19193 0.49794 0.48178 0.0
C2424 C 0.18463 0.49539 0.61751 0.0
C2425 C 0.19957 0.5106 0.51926 0.0
C2426 C 0.19975 0.51586 0.60402 0.0
C2427 C 0.19243 0.51438 0.73862 0.0
C2428 C 0.18499 0.50714 0.7891 0.0
C2429 C 0.19231 0.50857 0.65359 0.0
C2430 C 0.17742 0.49368 0.75281 0.0
C2431 C 0.17724 0.48793 0.66788 0.0
H2432 H 0.92984 0.53376 0.27042 0.0
H2433 H 0.95883 0.54494 0.25982 0.0
H2434 H 0.95951 0.54671 0.41031 0.0
H2435 H 0.95194 0.54266 0.54509 0.0
H2436 H 0.92289 0.53343 0.55564 0.0
H2437 H 0.92215 0.53349 0.40503 0.0
C2438 C 0.93631 0.53663 0.30101 0.0
C2439 C 0.9443 0.53879 0.25385 0.0
C2440 C 0.93664 0.53791 0.38757 0.0
C2441 C 0.95259 0.54307 0.29451 0.0
C2442 C 0.95298 0.54402 0.38062 0.0
C2443 C 0.94544 0.5407 0.51441 0.0
C2444 C 0.93749 0.53761 0.56155 0.0
C2445 C 0.94507 0.54104 0.4278 0.0
C2446 C 0.92911 0.53571 0.52088 0.0
C2447 C 0.92869 0.53566 0.43473 0.0
H2448 H 0.82782 0.27351 0.27476 0.0
H2449 H 0.79995 0.24609 0.25448 0.0
H2450 H 0.79939 0.23761 0.40307 0.0
H2451 H 0.80665 0.23965 0.53949 0.0
H2452 H 0.83461 0.26633 0.55895 0.0
H2453 H 0.8353 0.27318 0.40993 0.0
C2454 C 0.82161 0.26573 0.30274 0.0
C2455 C 0.8139 0.26084 0.25347 0.0
C2456 C 0.82135 0.26071 0.38816 0.0
C2457 C 0.80596 0.25028 0.29084 0.0
C2458 C 0.80564 0.24539 0.37589 0.0
C2459 C 0.81292 0.24683 0.5112 0.0
C2460 C 0.82055 0.2527 0.56074 0.0
C2461 C 0.81327 0.25078 0.42528 0.0
C2462 C 0.82862 0.26174 0.52263 0.0
C2463 C 0.82902 0.26575 0.43731 0.0
H2464 H 0.93272 0.27133 0.47358 0.0
H2465 H 0.96096 0.24846 0.49365 0.0
H2466 H 0.96159 0.23973 0.34509 0.0
H2467 H 0.95425 0.24034 0.20873 0.0
H2468 H 0.92592 0.26242 0.18994 0.0
H2469 H 0.9252 0.26945 0.33884 0.0
C2470 C 0.93903 0.2645 0.44558 0.0
C2471 C 0.94682 0.26098 0.49473 0.0
C2472 C 0.93932 0.25931 0.36026 0.0
C2473 C 0.95488 0.2516 0.45734 0.0
C2474 C 0.95525 0.24657 0.37233 0.0
C2475 C 0.9479 0.24654 0.23715 0.0
C2476 C 0.94017 0.25108 0.18778 0.0
C2477 C 0.94753 0.25061 0.32305 0.0
C2478 C 0.93199 0.25887 0.22608 0.0
C2479 C 0.93157 0.26299 0.31134 0.0
H2480 H 0.8272 0.5351 0.48881 0.0
H2481 H 0.79803 0.53888 0.49919 0.0
H2482 H 0.79735 0.5411 0.34877 0.0
H2483 H 0.80499 0.54021 0.21404 0.0
H2484 H 0.83418 0.5385 0.20336 0.0
H2485 H 0.83489 0.53735 0.35401 0.0
C2486 C 0.82068 0.53642 0.45822 0.0
C2487 C 0.81266 0.53643 0.50546 0.0
C2488 C 0.82035 0.53801 0.37156 0.0
C2489 C 0.8043 0.53869 0.46461 0.0
C2490 C 0.80391 0.53991 0.37848 0.0
C2491 C 0.81152 0.53958 0.24456 0.0
C2492 C 0.81953 0.53905 0.19715 0.0
C2493 C 0.81188 0.53926 0.33128 0.0
C2494 C 0.82791 0.53876 0.23807 0.0
C2495 C 0.82832 0.53807 0.32431 0.0
H2496 H 0.05341 0.98445 0.98315 0.0
H2497 H 0.08084 1.01632 0.96459 0.0
H2498 H 0.08119 0.02468 0.11307 0.0
H2499 H 0.07358 0.0246 0.24741 0.0
H2500 H 0.04625 0.99208 0.26746 0.0
H2501 H 0.04601 0.98235 0.11924 0.0
C2502 C 0.05949 0.9931 0.01152 0.0
C2503 C 0.06708 0.99993 0.96224 0.0
C2504 C 0.05965 0.99793 0.09724 0.0
C2505 C 0.0749 1.01093 1.00056 0.0
C2506 C 0.0751 1.0158 0.08562 0.0
C2507 C 0.06754 1.01547 0.21952 0.0
C2508 C 0.05989 1.00947 0.26866 0.0
C2509 C 0.06748 1.00972 0.13439 0.0
C2510 C 0.0522 0.99717 0.23126 0.0
C2511 C 0.05207 0.99156 0.14642 0.0
H2512 H 0.20391 0.30543 0.9907 0.0
H2513 H 0.17601 0.27812 0.97158 0.0
H2514 H 0.17539 0.27095 0.12046 0.0
H2515 H 0.1829 0.27046 0.25518 0.0
H2516 H 0.21071 0.29849 0.27567 0.0
H2517 H 0.21121 0.30737 0.12712 0.0
C2518 C 0.19767 0.29805 0.01905 0.0
C2519 C 0.19004 0.29209 0.96962 0.0
C2520 C 0.19736 0.29391 0.10492 0.0
C2521 C 0.182 0.28279 0.00779 0.0
C2522 C 0.18164 0.2786 0.09303 0.0
C2523 C 0.18909 0.27845 0.22728 0.0
C2524 C 0.1968 0.28339 0.27652 0.0
C2525 C 0.18931 0.2837 0.14202 0.0
C2526 C 0.2047 0.29425 0.23927 0.0
C2527 C 0.20499 0.29936 0.15428 0.0
H2528 H 0.07848 0.2759 0.04093 0.0
H2529 H 0.05014 0.29762 0.02156 0.0
H2530 H 0.04945 0.30559 0.17042 0.0
H2531 H 0.05677 0.30448 0.30674 0.0
H2532 H 0.08518 0.28347 0.32511 0.0
H2533 H 0.08597 0.27738 0.17586 0.0
C2534 C 0.07213 0.28233 0.06915 0.0
C2535 C 0.06433 0.28574 0.02012 0.0
C2536 C 0.07181 0.28706 0.15466 0.0
C2537 C 0.05623 0.2946 0.05777 0.0
C2538 C 0.05583 0.29918 0.14295 0.0
C2539 C 0.06315 0.29871 0.27815 0.0
C2540 C 0.07089 0.29418 0.32743 0.0
C2541 C 0.06356 0.29519 0.19212 0.0
C2542 C 0.07911 0.28699 0.28898 0.0
C2543 C 0.07957 0.28342 0.20354 0.0
H2544 H 0.19833 0.02464 0.28761 0.0
H2545 H 0.1714 0.9892 0.31232 0.0
H2546 H 0.17103 0.9789 0.16433 0.0
H2547 H 0.1783 0.98075 0.02702 0.0
H2548 H 0.20536 1.01554 0.00497 0.0
H2549 H 0.20572 0.02508 0.15261 0.0
C2550 C 0.19234 1.01477 0.26083 0.0
C2551 C 0.18485 1.00805 0.31129 0.0
C2552 C 0.19221 1.00867 0.1759 0.0
C2553 C 0.17723 0.99487 0.27514 0.0
C2554 C 0.17703 0.9889 0.19042 0.0
C2555 C 0.18429 0.99032 0.05448 0.0
C2556 C 0.19177 0.99752 0.0043 0.0
C2557 C 0.18447 0.99581 0.14003 0.0
C2558 C 0.19948 1.0098 0.0415 0.0
C2559 C 0.1997 1.01534 0.12616 0.0
H2560 H 0.95196 0.0232 0.98089 0.0
H2561 H 0.92416 0.05086 0.00254 0.0
H2562 H 0.92363 0.06014 0.85393 0.0
H2563 H 0.93102 0.05926 0.717 0.0
H2564 H 0.95893 0.0321 0.6983 0.0
H2565 H 0.95944 0.02398 0.84658 0.0
C2566 C 0.94575 0.03117 0.95337 0.0
C2567 C 0.93806 0.03595 0.00306 0.0
C2568 C 0.94552 0.03664 0.86817 0.0
C2569 C 0.93015 0.04672 0.96594 0.0
C2570 C 0.92985 0.05208 0.88088 0.0
C2571 C 0.93723 0.05169 0.74534 0.0
C2572 C 0.94491 0.04616 0.69593 0.0
C2573 C 0.93749 0.04697 0.83122 0.0
C2574 C 0.9529 0.03647 0.73422 0.0
C2575 C 0.9532 0.03175 0.81923 0.0
H2576 H 0.83101 0.74198 0.74534 0.0
H2577 H 0.80259 0.76348 0.73419 0.0
H2578 H 0.80226 0.76917 0.88373 0.0
H2579 H 0.81003 0.76919 0.01797 0.0
H2580 H 0.83831 0.74641 0.03095 0.0
H2581 H 0.83869 0.74023 0.88103 0.0
C2582 C 0.82472 0.7478 0.77548 0.0
C2583 C 0.81684 0.75244 0.72761 0.0
C2584 C 0.82456 0.75103 0.86218 0.0
C2585 C 0.80877 0.75981 0.76862 0.0
C2586 C 0.80858 0.76316 0.85446 0.0
C2587 C 0.81631 0.76302 0.98817 0.0
C2588 C 0.82417 0.75861 0.03624 0.0
C2589 C 0.81644 0.7591 0.90186 0.0
C2590 C 0.83218 0.75016 0.99599 0.0
C2591 C 0.83239 0.74656 0.91004 0.0
H2592 H 0.95627 0.74475 0.75456 0.0
H2593 H 0.92766 0.76306 0.73936 0.0
H2594 H 0.92686 0.76652 0.88946 0.0
H2595 H 0.93437 0.76601 0.02482 0.0
H2596 H 0.96294 0.74701 0.04011 0.0
H2597 H 0.96364 0.74211 0.89033 0.0
C2598 C 0.94984 0.74943 0.78393 0.0
C2599 C 0.94204 0.75389 0.7353 0.0
C2600 C 0.94943 0.75138 0.87044 0.0
C2601 C 0.93377 0.75964 0.7749 0.0
C2602 C 0.93332 0.76167 0.86087 0.0
C2603 C 0.94077 0.76079 0.99555 0.0
C2604 C 0.94862 0.75723 0.04401 0.0
C2605 C 0.94112 0.75789 0.90923 0.0
C2606 C 0.9568 0.75012 0.00465 0.0
C2607 C 0.95721 0.74728 0.91885 0.0
H2608 H 0.8095 0.04142 0.75323 0.0
H2609 H 0.83802 0.02177 0.74397 0.0
H2610 H 0.83865 0.02151 0.89489 0.0
H2611 H 0.83091 0.02473 0.02968 0.0
H2612 H 0.80256 0.04705 0.03826 0.0
H2613 H 0.80206 0.04858 0.8877 0.0
C2614 C 0.81586 0.03711 0.78423 0.0
C2615 C 0.82368 0.03119 0.73722 0.0
C2616 C 0.81619 0.03743 0.87102 0.0
C2617 C 0.8319 0.02628 0.77847 0.0
C2618 C 0.83225 0.02605 0.86485 0.0
C2619 C 0.82462 0.03 0.99866 0.0
C2620 C 0.81675 0.03537 0.04557 0.0
C2621 C 0.82442 0.03123 0.91181 0.0
C2622 C 0.80871 0.04268 0.00407 0.0
C2623 C 0.80842 0.04349 0.91781 0.0
H2624 H 0.57838 0.51868 0.94499 0.0
H2625 H 0.55193 0.48152 0.90564 0.0
H2626 H 0.54936 0.47954 0.05408 0.0
H2627 H 0.55423 0.49088 0.19611 0.0
H2628 H 0.58032 0.53089 0.23489 0.0
H2629 H 0.58337 0.52924 0.0874 0.0
C2630 C 0.5721 0.50987 0.96906 0.0
C2631 C 0.56536 0.50031 0.91401 0.0
C2632 C 0.57054 0.50957 0.05503 0.0
C2633 C 0.55722 0.48922 0.94642 0.0
C2634 C 0.55573 0.48808 0.03151 0.0
C2635 C 0.5606 0.49913 0.17233 0.0
C2636 C 0.56699 0.51119 0.22704 0.0
C2637 C 0.56227 0.49863 0.08658 0.0
C2638 C 0.57521 0.52174 0.19463 0.0
C2639 C 0.57699 0.52076 0.10997 0.0
H2640 H 0.68019 0.79475 0.27577 0.0
H2641 H 0.70902 0.78065 0.29251 0.0
H2642 H 0.71013 0.78022 0.14255 0.0
H2643 H 0.7029 0.78231 0.00643 0.0
H2644 H 0.67408 0.79643 0.9887 0.0
H2645 H 0.67301 0.79842 0.13889 0.0
C2646 C 0.68672 0.79168 0.24672 0.0
C2647 C 0.6945 0.7875 0.29583 0.0
C2648 C 0.68732 0.79133 0.16003 0.0
C2649 C 0.70291 0.7837 0.25667 0.0
C2650 C 0.70356 0.78345 0.17071 0.0
C2651 C 0.69637 0.78584 0.03522 0.0
C2652 C 0.68857 0.78895 0.98592 0.0
C2653 C 0.6958 0.78696 0.12175 0.0
C2654 C 0.68019 0.79375 0.02479 0.0
C2655 C 0.67957 0.79492 0.11084 0.0
H2656 H 0.5562 0.80203 0.2409 0.0
H2657 H 0.58412 0.77524 0.2584 0.0
H2658 H 0.58455 0.76721 0.10957 0.0
H2659 H 0.57685 0.76616 0.97479 0.0
H2660 H 0.54902 0.79389 0.95695 0.0
H2661 H 0.54871 0.80312 0.10524 0.0
C2662 C 0.5624 0.79455 0.21228 0.0
C2663 C 0.57011 0.78907 0.26142 0.0
C2664 C 0.5626 0.78993 0.12641 0.0
C2665 C 0.57809 0.77961 0.22262 0.0
C2666 C 0.57832 0.77491 0.13733 0.0
C2667 C 0.5707 0.77413 0.00324 0.0
C2668 C 0.56292 0.77891 0.95447 0.0
C2669 C 0.57059 0.77966 0.0887 0.0
C2670 C 0.55508 0.78973 0.99267 0.0
C2671 C 0.5549 0.79508 0.07763 0.0
H2672 H 0.67977 0.51355 0.9973 0.0
H2673 H 0.70823 0.49373 0.97579 0.0
H2674 H 0.70902 0.48443 0.12389 0.0
H2675 H 0.70176 0.48374 0.26033 0.0
H2676 H 0.67324 0.50273 0.28111 0.0
H2677 H 0.67234 0.51024 0.13241 0.0
C2678 C 0.68616 0.50728 0.02494 0.0
C2679 C 0.69396 0.50478 0.97552 0.0
C2680 C 0.68655 0.50171 0.11007 0.0
C2681 C 0.70214 0.49607 0.01234 0.0
C2682 C 0.70259 0.49071 0.09709 0.0
C2683 C 0.69533 0.48935 0.23238 0.0
C2684 C 0.68759 0.4929 0.28222 0.0
C2685 C 0.69486 0.49372 0.14669 0.0
C2686 C 0.67931 0.49993 0.24455 0.0
C2687 C 0.67879 0.50433 0.15942 0.0
H2688 H 0.42789 0.56097 0.7166 0.0
H2689 H 0.4549 0.52588 0.69587 0.0
H2690 H 0.45529 0.51733 0.84391 0.0
H2691 H 0.44798 0.51888 0.97885 0.0
H2692 H 0.4211 0.55449 0.00289 0.0
H2693 H 0.42066 0.56373 0.85421 0.0
C2694 C 0.43388 0.55152 0.74444 0.0
C2695 C 0.44135 0.54398 0.6945 0.0
C2696 C 0.43407 0.54662 0.83031 0.0
C2697 C 0.44904 0.53187 0.73217 0.0
C2698 C 0.44927 0.52691 0.81708 0.0
C2699 C 0.44199 0.52859 0.95187 0.0
C2700 C 0.43454 0.53567 0.00231 0.0
C2701 C 0.44181 0.53401 0.86663 0.0
C2702 C 0.4269 0.54856 0.96576 0.0
C2703 C 0.42666 0.55391 0.88064 0.0
H2704 H 0.30709 0.23775 0.76723 0.0
H2705 H 0.33033 0.29435 0.74968 0.0
H2706 H 0.33315 0.28889 0.89658 0.0
H2707 H 0.32879 0.26951 0.03261 0.0
H2708 H 0.30535 0.21404 0.05159 0.0
H2709 H 0.30296 0.21729 0.90302 0.0
C2710 C 0.31276 0.24895 0.79554 0.0
C2711 C 0.31842 0.26666 0.74683 0.0
C2712 C 0.31437 0.24581 0.88098 0.0
C2713 C 0.32579 0.28072 0.78505 0.0
C2714 C 0.32744 0.27757 0.86945 0.0
C2715 C 0.32323 0.25787 0.0041 0.0
C2716 C 0.31726 0.24161 0.05362 0.0
C2717 C 0.32176 0.26032 0.91833 0.0
C2718 C 0.31003 0.22688 0.01534 0.0
C2719 C 0.30864 0.22876 0.93015 0.0
H2720 H 0.43115 0.27258 0.73026 0.0
H2721 H 0.45435 0.21626 0.71113 0.0
H2722 H 0.45673 0.21928 0.85974 0.0
H2723 H 0.45266 0.23974 0.99556 0.0
H2724 H 0.42967 0.29714 0.01341 0.0
H2725 H 0.42685 0.29197 0.86638 0.0
C2726 C 0.43667 0.26072 0.75873 0.0
C2727 C 0.44257 0.24429 0.70917 0.0
C2728 C 0.43813 0.26302 0.84453 0.0
C2729 C 0.44972 0.22925 0.7474 0.0
C2730 C 0.45111 0.23099 0.83262 0.0
C2731 C 0.44705 0.25117 0.96729 0.0
C2732 C 0.44146 0.26902 0.01609 0.0
C2733 C 0.44545 0.24819 0.88183 0.0
C2734 C 0.43416 0.28339 0.97795 0.0
C2735 C 0.4325 0.28041 0.89349 0.0
H2736 H 0.32745 0.5321 0.02307 0.0
H2737 H 0.29835 0.53937 0.03379 0.0
H2738 H 0.29771 0.54389 0.88377 0.0
H2739 H 0.30535 0.54327 0.74913 0.0
H2740 H 0.33449 0.53794 0.73809 0.0
H2741 H 0.33519 0.53546 0.88867 0.0
C2742 C 0.32096 0.53468 0.99255 0.0
C2743 C 0.31294 0.53491 0.03952 0.0
C2744 C 0.32066 0.53762 0.90625 0.0
C2745 C 0.30462 0.53893 0.99916 0.0
C2746 C 0.30425 0.54147 0.91333 0.0
C2747 C 0.31187 0.54167 0.77966 0.0
C2748 C 0.31985 0.54038 0.73231 0.0
C2749 C 0.31222 0.54045 0.86619 0.0
C2750 C 0.32824 0.53888 0.77295 0.0
C2751 C 0.32864 0.53734 0.85907 0.0
H2752 H 0.55832 1.00831 0.45866 0.0
H2753 H 0.58751 1.00951 0.44878 0.0
H2754 H 0.58819 1.00616 0.59924 0.0
H2755 H 0.58048 1.00453 0.73408 0.0
H2756 H 0.55129 1.0012 0.74328 0.0
H2757 H 0.55064 1.00354 0.59286 0.0
C2758 C 0.56484 1.00791 0.48937 0.0
C2759 C 0.57286 1.00961 0.44228 0.0
C2760 C 0.56518 1.00555 0.57593 0.0
C2761 C 0.58124 1.0084 0.48325 0.0
C2762 C 0.58162 1.00651 0.5694 0.0
C2763 C 0.57397 1.00423 0.70329 0.0
C2764 C 0.56594 1.003 0.75045 0.0
C2765 C 0.57364 1.00533 0.61647 0.0
C2766 C 0.55758 1.00224 0.709 0.0
C2767 C 0.5572 1.00365 0.62281 0.0
H2768 H 0.67896 0.29614 0.75534 0.0
H2769 H 0.70744 0.27607 0.77498 0.0
H2770 H 0.70825 0.26872 0.62653 0.0
H2771 H 0.70091 0.26673 0.49155 0.0
H2772 H 0.67254 0.28752 0.46913 0.0
H2773 H 0.67168 0.29586 0.61797 0.0
C2774 C 0.68536 0.29026 0.72717 0.0
C2775 C 0.69312 0.2865 0.77686 0.0
C2776 C 0.6858 0.28605 0.64116 0.0
C2777 C 0.70135 0.27903 0.7388 0.0
C2778 C 0.70182 0.27477 0.65369 0.0
C2779 C 0.69451 0.273 0.519 0.0
C2780 C 0.68677 0.27614 0.46901 0.0
C2781 C 0.69409 0.27796 0.60439 0.0
C2782 C 0.67859 0.28472 0.50597 0.0
C2783 C 0.6781 0.28952 0.59118 0.0
H2784 H 0.57905 0.29323 0.45514 0.0
H2785 H 0.55001 0.28413 0.43798 0.0
H2786 H 0.54888 0.2838 0.588 0.0
H2787 H 0.55612 0.28478 0.72435 0.0
H2788 H 0.58515 0.29387 0.74211 0.0
H2789 H 0.58627 0.29553 0.59197 0.0
C2790 C 0.57246 0.29126 0.48409 0.0
C2791 C 0.56464 0.28849 0.43486 0.0
C2792 C 0.57185 0.29096 0.57076 0.0
C2793 C 0.55617 0.28608 0.47392 0.0
C2794 C 0.55551 0.2859 0.55991 0.0
C2795 C 0.56271 0.28713 0.69556 0.0
C2796 C 0.57055 0.28895 0.74491 0.0
C2797 C 0.56331 0.28806 0.60899 0.0
C2798 C 0.579 0.2922 0.70603 0.0
C2799 C 0.57965 0.29319 0.61999 0.0
H2800 H 0.68174 1.01515 0.79193 0.0
H2801 H 0.70843 0.97967 0.82888 0.0
H2802 H 0.71066 0.97639 0.68014 0.0
H2803 H 0.70539 0.9863 0.53864 0.0
H2804 H 0.67908 0.02475 0.5022 0.0
H2805 H 0.67635 0.0241 0.65031 0.0
C2806 C 0.688 1.00646 0.76729 0.0
C2807 C 0.69492 0.99779 0.8215 0.0
C2808 C 0.68935 1.00538 0.68131 0.0
C2809 C 0.70302 0.98675 0.78856 0.0
C2810 C 0.70431 0.98484 0.70338 0.0
C2811 C 0.69905 0.99437 0.56312 0.0
C2812 C 0.69249 1.00574 0.50914 0.0
C2813 C 0.69758 0.99454 0.649 0.0
C2814 C 0.6843 1.01613 0.54214 0.0
C2815 C 0.68271 1.01573 0.62705 0.0
H2816 H 0.42894 0.03362 0.23826 0.0
H2817 H 0.45789 0.04622 0.23063 0.0
H2818 H 0.45848 0.04496 0.38119 0.0
H2819 H 0.45088 0.03809 0.51501 0.0
H2820 H 0.42186 0.02802 0.52343 0.0
H2821 H 0.42119 0.03055 0.37276 0.0
C2822 C 0.43538 0.0362 0.26947 0.0
C2823 C 0.44338 0.03965 0.22281 0.0
C2824 C 0.43566 0.03575 0.35631 0.0
C2825 C 0.45164 0.04343 0.26463 0.0
C2826 C 0.45198 0.04261 0.35086 0.0
C2827 C 0.4444 0.03641 0.48388 0.0
C2828 C 0.43644 0.03238 0.5305 0.0
C2829 C 0.44406 0.03838 0.3973 0.0
C2830 C 0.42809 0.03095 0.48918 0.0
C2831 C 0.42771 0.03236 0.40296 0.0
H2832 H 0.30736 0.73769 0.24482 0.0
H2833 H 0.33462 0.7708 0.22349 0.0
H2834 H 0.33632 0.76945 0.37289 0.0
H2835 H 0.32993 0.7605 0.51054 0.0
H2836 H 0.30269 0.72731 0.53213 0.0
H2837 H 0.30119 0.72681 0.38246 0.0
C2838 C 0.31367 0.74465 0.27284 0.0
C2839 C 0.32082 0.7546 0.22269 0.0
C2840 C 0.31463 0.74375 0.3592 0.0
C2841 C 0.32898 0.76314 0.26027 0.0
C2842 C 0.32997 0.76239 0.34593 0.0
C2843 C 0.32368 0.75301 0.48258 0.0
C2844 C 0.31641 0.74422 0.53295 0.0
C2845 C 0.32282 0.75295 0.39613 0.0
C2846 C 0.30838 0.73441 0.49525 0.0
C2847 C 0.30751 0.73415 0.40944 0.0
H2848 H 0.45201 0.74143 0.47334 0.0
H2849 H 0.4273 0.79076 0.49578 0.0
H2850 H 0.42466 0.7864 0.34838 0.0
H2851 H 0.4295 0.76993 0.21096 0.0
H2852 H 0.45435 0.72161 0.18703 0.0
H2853 H 0.4567 0.72403 0.3357 0.0
C2854 C 0.44606 0.75128 0.44597 0.0
C2855 C 0.43992 0.7666 0.49619 0.0
C2856 C 0.44456 0.74881 0.36024 0.0
C2857 C 0.4322 0.77895 0.45922 0.0
C2858 C 0.43065 0.77645 0.37454 0.0
C2859 C 0.43539 0.75973 0.23831 0.0
C2860 C 0.44174 0.74572 0.18741 0.0
C2861 C 0.4368 0.76158 0.32419 0.0
C2862 C 0.44936 0.73274 0.2243 0.0
C2863 C 0.45073 0.73411 0.30959 0.0
H2864 H 0.32848 0.05575 0.52839 0.0
H2865 H 0.30112 0.02334 0.54957 0.0
H2866 H 0.30057 1.01515 0.40145 0.0
H2867 H 0.30783 1.01627 0.2663 0.0
H2868 H 0.33506 0.04918 0.24175 0.0
H2869 H 0.33567 0.05805 0.39056 0.0
C2870 C 0.32239 0.04695 0.50063 0.0
C2871 C 0.31486 0.04006 0.5507 0.0
C2872 C 0.3221 0.04226 0.41471 0.0
C2873 C 0.30702 0.0288 0.51315 0.0
C2874 C 0.3067 0.02406 0.4282 0.0
C2875 C 0.31393 0.02531 0.29321 0.0
C2876 C 0.32143 0.03174 0.24261 0.0
C2877 C 0.31421 0.03052 0.3785 0.0
C2878 C 0.32921 0.04377 0.27903 0.0
C2879 C 0.32956 0.0489 0.36421 0.0
loop_
_geom_bond_atom_site_label_1
_geom_bond_atom_site_label_2
_geom_bond_distance
_geom_bond_site_symmetry_2
_ccdc_geom_bond_type
Zn0 N4 2.020 . S
Zn0 O8 2.019 . S
Zn0 N10 2.119 . S
Zn0 O18 1.975 . S
C1 N2 1.334 . S
C1 N5 1.336 . S
N2 C1 1.334 . S
N2 C3 1.334 . S
C3 N2 1.334 . S
C3 N4 1.336 . S
N4 Zn0 2.020 . S
N4 C3 1.336 . S
N4 N5 1.354 . S
N5 C1 1.336 . S
N5 N4 1.354 . S
N5 Zn9 2.020 1_554 S
C6 O7 1.244 . S
C6 O30 1.257 . S
O7 C6 1.244 . S
O8 Zn0 2.019 . S
O8 C28 1.257 . S
Zn9 N5 2.020 1_556 S
Zn9 O16 1.975 1_556 S
Zn9 N25 2.119 1_556 S
Zn9 O30 2.019 . S
N10 Zn0 2.119 . S
N10 C12 1.334 . S
N10 C13 1.328 . S
C11 C12 1.391 . S
C11 N14 1.329 . S
C11 H32 0.930 . S
C12 N10 1.334 . S
C12 C11 1.391 . S
C12 H19 0.930 . S
C13 N10 1.328 . S
C13 C15 1.392 . S
C13 H20 0.930 . S
N14 C11 1.329 . S
N14 C15 1.331 . S
C15 C13 1.392 . S
C15 N14 1.331 . S
O16 Zn9 1.975 1_554 S
O16 C17 1.252 . S
C17 O16 1.252 . S
C17 O18 1.252 . S
O18 Zn0 1.975 . S
O18 C17 1.252 . S
H19 C12 0.930 . S
H20 C13 0.930 . S
C21 C22 1.392 1_556 S
C21 N25 1.328 1_556 S
C21 H27 0.930 . S
C22 C21 1.392 1_554 S
C22 N26 1.331 . S
C23 C24 1.391 . S
C23 N26 1.329 . S
C23 H33 0.930 . S
C24 C23 1.391 . S
C24 N25 1.334 . S
C24 H31 0.930 . S
N25 Zn9 2.119 1_554 S
N25 C21 1.328 1_554 S
N25 C24 1.334 . S
N26 C22 1.331 . S
N26 C23 1.329 . S
H27 C21 0.930 . S
C28 O8 1.257 . S
C28 O29 1.244 . S
O29 C28 1.244 . S
O30 C6 1.257 . S
O30 Zn9 2.019 . S
H31 C24 0.930 . S
H32 C11 0.930 . S
H33 C23 0.930 . S
Zn34 N38 2.020 . S
Zn34 O42 2.019 . S
Zn34 N44 2.119 . S
Zn34 O52 1.975 . S
C35 N36 1.334 . S
C35 N39 1.336 . S
N36 C35 1.334 . S
N36 C37 1.334 . S
C37 N36 1.334 . S
C37 N38 1.336 . S
N38 Zn34 2.020 . S
N38 C37 1.336 . S
N38 N39 1.354 . S
N39 C35 1.336 . S
N39 N38 1.354 . S
N39 Zn43 2.020 1_554 S
C40 O41 1.244 . S
C40 O64 1.257 . S
O41 C40 1.244 . S
O42 Zn34 2.019 . S
O42 C62 1.257 . S
Zn43 N39 2.020 1_556 S
Zn43 O50 1.975 1_556 S
Zn43 N59 2.119 1_556 S
Zn43 O64 2.019 . S
N44 Zn34 2.119 . S
N44 C46 1.334 . S
N44 C47 1.328 . S
C45 C46 1.391 . S
C45 N48 1.329 . S
C45 H66 0.930 . S
C46 N44 1.334 . S
C46 C45 1.391 . S
C46 H53 0.930 . S
C47 N44 1.328 . S
C47 C49 1.392 . S
C47 H54 0.930 . S
N48 C45 1.329 . S
N48 C49 1.331 . S
C49 C47 1.392 . S
C49 N48 1.331 . S
O50 Zn43 1.975 1_554 S
O50 C51 1.252 . S
C51 O50 1.252 . S
C51 O52 1.252 . S
O52 Zn34 1.975 . S
O52 C51 1.252 . S
H53 C46 0.930 . S
H54 C47 0.930 . S
C55 C56 1.392 1_556 S
C55 N59 1.328 1_556 S
C55 H61 0.930 . S
C56 C55 1.392 1_554 S
C56 N60 1.331 . S
C57 C58 1.391 . S
C57 N60 1.329 . S
C57 H67 0.930 . S
C58 C57 1.391 . S
C58 N59 1.334 . S
C58 H65 0.930 . S
N59 Zn43 2.119 1_554 S
N59 C55 1.328 1_554 S
N59 C58 1.334 . S
N60 C56 1.331 . S
N60 C57 1.329 . S
H61 C55 0.930 . S
C62 O42 1.257 . S
C62 O63 1.244 . S
O63 C62 1.244 . S
O64 C40 1.257 . S
O64 Zn43 2.019 . S
H65 C58 0.930 . S
H66 C45 0.930 . S
H67 C57 0.930 . S
Zn68 N72 2.020 . S
Zn68 O76 2.019 . S
Zn68 N78 2.119 . S
Zn68 O86 1.975 . S
C69 N70 1.334 . S
C69 N73 1.336 . S
N70 C69 1.334 . S
N70 C71 1.334 . S
C71 N70 1.334 . S
C71 N72 1.336 . S
N72 Zn68 2.020 . S
N72 C71 1.336 . S
N72 N73 1.354 . S
N73 C69 1.336 . S
N73 N72 1.354 . S
N73 Zn77 2.020 . S
C74 O75 1.244 . S
C74 O98 1.257 . S
O75 C74 1.244 . S
O76 Zn68 2.019 . S
O76 C96 1.257 . S
Zn77 N73 2.020 . S
Zn77 O84 1.975 . S
Zn77 N93 2.119 . S
Zn77 O98 2.019 1_554 S
N78 Zn68 2.119 . S
N78 C80 1.334 . S
N78 C81 1.328 . S
C79 C80 1.391 . S
C79 N82 1.329 . S
C79 H100 0.930 . S
C80 N78 1.334 . S
C80 C79 1.391 . S
C80 H87 0.930 . S
C81 N78 1.328 . S
C81 C83 1.392 . S
C81 H88 0.930 . S
N82 C79 1.329 . S
N82 C83 1.331 . S
C83 C81 1.392 . S
C83 N82 1.331 . S
O84 Zn77 1.975 . S
O84 C85 1.252 . S
C85 O84 1.252 . S
C85 O86 1.252 . S
O86 Zn68 1.975 . S
O86 C85 1.252 . S
H87 C80 0.930 . S
H88 C81 0.930 . S
C89 C90 1.392 . S
C89 N93 1.328 . S
C89 H95 0.930 1_554 S
C90 C89 1.392 . S
C90 N94 1.331 . S
C91 C92 1.391 . S
C91 N94 1.329 . S
C91 H101 0.930 . S
C92 C91 1.391 . S
C92 N93 1.334 . S
C92 H99 0.930 . S
N93 Zn77 2.119 . S
N93 C89 1.328 . S
N93 C92 1.334 . S
N94 C90 1.331 . S
N94 C91 1.329 . S
H95 C89 0.930 1_556 S
C96 O76 1.257 . S
C96 O97 1.244 . S
O97 C96 1.244 . S
O98 C74 1.257 . S
O98 Zn77 2.019 1_556 S
H99 C92 0.930 . S
H100 C79 0.930 . S
H101 C91 0.930 . S
Zn102 N106 2.020 . S
Zn102 O110 2.019 1_554 S
Zn102 N112 2.119 . S
Zn102 O120 1.975 . S
C103 N104 1.334 . S
C103 N107 1.336 . S
N104 C103 1.334 . S
N104 C105 1.334 . S
C105 N104 1.334 . S
C105 N106 1.336 . S
N106 Zn102 2.020 . S
N106 C105 1.336 . S
N106 N107 1.354 . S
N107 C103 1.336 . S
N107 N106 1.354 . S
N107 Zn111 2.020 . S
C108 O109 1.244 . S
C108 O132 1.257 . S
O109 C108 1.244 . S
O110 Zn102 2.019 1_556 S
O110 C130 1.257 . S
Zn111 N107 2.020 . S
Zn111 O118 1.975 . S
Zn111 N127 2.119 . S
Zn111 O132 2.019 . S
N112 Zn102 2.119 . S
N112 C114 1.334 . S
N112 C115 1.328 . S
C113 C114 1.391 . S
C113 N116 1.329 . S
C113 H134 0.930 . S
C114 N112 1.334 . S
C114 C113 1.391 . S
C114 H121 0.930 . S
C115 N112 1.328 . S
C115 C117 1.392 . S
C115 H122 0.930 1_554 S
N116 C113 1.329 . S
N116 C117 1.331 . S
C117 C115 1.392 . S
C117 N116 1.331 . S
O118 Zn111 1.975 . S
O118 C119 1.252 . S
C119 O118 1.252 . S
C119 O120 1.252 . S
O120 Zn102 1.975 . S
O120 C119 1.252 . S
H121 C114 0.930 . S
H122 C115 0.930 1_556 S
C123 C124 1.392 . S
C123 N127 1.328 . S
C123 H129 0.930 . S
C124 C123 1.392 . S
C124 N128 1.331 . S
C125 C126 1.391 . S
C125 N128 1.329 . S
C125 H135 0.930 . S
C126 C125 1.391 . S
C126 N127 1.334 . S
C126 H133 0.930 . S
N127 Zn111 2.119 . S
N127 C123 1.328 . S
N127 C126 1.334 . S
N128 C124 1.331 . S
N128 C125 1.329 . S
H129 C123 0.930 . S
C130 O110 1.257 . S
C130 O131 1.244 . S
O131 C130 1.244 . S
O132 C108 1.257 . S
O132 Zn111 2.019 . S
H133 C126 0.930 . S
H134 C113 0.930 . S
H135 C125 0.930 . S
Zn136 N140 2.020 . S
Zn136 O144 2.019 . S
Zn136 N146 2.119 . S
Zn136 O154 1.975 . S
C137 N138 1.334 . S
C137 N141 1.336 . S
N138 C137 1.334 . S
N138 C139 1.334 . S
C139 N138 1.334 . S
C139 N140 1.336 . S
N140 Zn136 2.020 . S
N140 C139 1.336 . S
N140 N141 1.354 . S
N141 C137 1.336 . S
N141 N140 1.354 . S
N141 Zn145 2.020 1_556 S
C142 O143 1.244 . S
C142 O166 1.257 . S
O143 C142 1.244 . S
O144 Zn136 2.019 . S
O144 C164 1.257 . S
Zn145 N141 2.020 1_554 S
Zn145 O152 1.975 1_554 S
Zn145 N161 2.119 1_554 S
Zn145 O166 2.019 . S
N146 Zn136 2.119 . S
N146 C148 1.334 . S
N146 C149 1.328 . S
C147 C148 1.391 . S
C147 N150 1.329 . S
C147 H168 0.930 . S
C148 N146 1.334 . S
C148 C147 1.391 . S
C148 H155 0.930 . S
C149 N146 1.328 . S
C149 C151 1.392 . S
C149 H156 0.930 . S
N150 C147 1.329 . S
N150 C151 1.331 . S
C151 C149 1.392 . S
C151 N150 1.331 . S
O152 Zn145 1.975 1_556 S
O152 C153 1.252 . S
C153 O152 1.252 . S
C153 O154 1.252 . S
O154 Zn136 1.975 . S
O154 C153 1.252 . S
H155 C148 0.930 . S
H156 C149 0.930 . S
C157 C158 1.392 1_554 S
C157 N161 1.328 1_554 S
C157 H163 0.930 . S
C158 C157 1.392 1_556 S
C158 N162 1.331 . S
C159 C160 1.391 . S
C159 N162 1.329 . S
C159 H169 0.930 . S
C160 C159 1.391 . S
C160 N161 1.334 . S
C160 H167 0.930 . S
N161 Zn145 2.119 1_556 S
N161 C157 1.328 1_556 S
N161 C160 1.334 . S
N162 C158 1.331 . S
N162 C159 1.329 . S
H163 C157 0.930 . S
C164 O144 1.257 . S
C164 O165 1.244 . S
O165 C164 1.244 . S
O166 C142 1.257 . S
O166 Zn145 2.019 . S
H167 C160 0.930 . S
H168 C147 0.930 . S
H169 C159 0.930 . S
Zn170 N174 2.020 . S
Zn170 O178 2.019 . S
Zn170 N180 2.119 . S
Zn170 O188 1.975 . S
C171 N172 1.334 . S
C171 N175 1.336 . S
N172 C171 1.334 . S
N172 C173 1.334 . S
C173 N172 1.334 . S
C173 N174 1.336 . S
N174 Zn170 2.020 . S
N174 C173 1.336 . S
N174 N175 1.354 . S
N175 C171 1.336 . S
N175 N174 1.354 . S
N175 Zn179 2.020 1_556 S
C176 O177 1.244 . S
C176 O200 1.257 . S
O177 C176 1.244 . S
O178 Zn170 2.019 . S
O178 C198 1.257 . S
Zn179 N175 2.020 1_554 S
Zn179 O186 1.975 1_554 S
Zn179 N195 2.119 1_554 S
Zn179 O200 2.019 . S
N180 Zn170 2.119 . S
N180 C182 1.334 . S
N180 C183 1.328 . S
C181 C182 1.391 . S
C181 N184 1.329 . S
C181 H202 0.930 . S
C182 N180 1.334 . S
C182 C181 1.391 . S
C182 H189 0.930 . S
C183 N180 1.328 . S
C183 C185 1.392 . S
C183 H190 0.930 . S
N184 C181 1.329 . S
N184 C185 1.331 . S
C185 C183 1.392 . S
C185 N184 1.331 . S
O186 Zn179 1.975 1_556 S
O186 C187 1.252 . S
C187 O186 1.252 . S
C187 O188 1.252 . S
O188 Zn170 1.975 . S
O188 C187 1.252 . S
H189 C182 0.930 . S
H190 C183 0.930 . S
C191 C192 1.392 1_554 S
C191 N195 1.328 1_554 S
C191 H197 0.930 . S
C192 C191 1.392 1_556 S
C192 N196 1.331 . S
C193 C194 1.391 . S
C193 N196 1.329 . S
C193 H203 0.930 . S
C194 C193 1.391 . S
C194 N195 1.334 . S
C194 H201 0.930 . S
N195 Zn179 2.119 1_556 S
N195 C191 1.328 1_556 S
N195 C194 1.334 . S
N196 C192 1.331 . S
N196 C193 1.329 . S
H197 C191 0.930 . S
C198 O178 1.257 . S
C198 O199 1.244 . S
O199 C198 1.244 . S
O200 C176 1.257 . S
O200 Zn179 2.019 . S
H201 C194 0.930 . S
H202 C181 0.930 . S
H203 C193 0.930 . S
Zn204 N208 2.020 . S
Zn204 O212 2.019 1_556 S
Zn204 N214 2.119 . S
Zn204 O222 1.975 . S
C205 N206 1.334 . S
C205 N209 1.336 . S
N206 C205 1.334 . S
N206 C207 1.334 . S
C207 N206 1.334 . S
C207 N208 1.336 . S
N208 Zn204 2.020 . S
N208 C207 1.336 . S
N208 N209 1.354 . S
N209 C205 1.336 . S
N209 N208 1.354 . S
N209 Zn213 2.020 . S
C210 O211 1.244 . S
C210 O234 1.257 . S
O211 C210 1.244 . S
O212 Zn204 2.019 1_554 S
O212 C232 1.257 . S
Zn213 N209 2.020 . S
Zn213 O220 1.975 . S
Zn213 N229 2.119 . S
Zn213 O234 2.019 . S
N214 Zn204 2.119 . S
N214 C216 1.334 . S
N214 C217 1.328 . S
C215 C216 1.391 . S
C215 N218 1.329 . S
C215 H236 0.930 . S
C216 N214 1.334 . S
C216 C215 1.391 . S
C216 H223 0.930 . S
C217 N214 1.328 . S
C217 C219 1.392 . S
C217 H224 0.930 1_556 S
N218 C215 1.329 . S
N218 C219 1.331 . S
C219 C217 1.392 . S
C219 N218 1.331 . S
O220 Zn213 1.975 . S
O220 C221 1.252 . S
C221 O220 1.252 . S
C221 O222 1.252 . S
O222 Zn204 1.975 . S
O222 C221 1.252 . S
H223 C216 0.930 . S
H224 C217 0.930 1_554 S
C225 C226 1.392 . S
C225 N229 1.328 . S
C225 H231 0.930 . S
C226 C225 1.392 . S
C226 N230 1.331 . S
C227 C228 1.391 . S
C227 N230 1.329 . S
C227 H237 0.930 . S
C228 C227 1.391 . S
C228 N229 1.334 . S
C228 H235 0.930 . S
N229 Zn213 2.119 . S
N229 C225 1.328 . S
N229 C228 1.334 . S
N230 C226 1.331 . S
N230 C227 1.329 . S
H231 C225 0.930 . S
C232 O212 1.257 . S
C232 O233 1.244 . S
O233 C232 1.244 . S
O234 C210 1.257 . S
O234 Zn213 2.019 . S
H235 C228 0.930 . S
H236 C215 0.930 . S
H237 C227 0.930 . S
Zn238 N242 2.020 . S
Zn238 O246 2.019 1_556 S
Zn238 N248 2.119 . S
Zn238 O256 1.975 . S
C239 N240 1.334 . S
C239 N243 1.336 . S
N240 C239 1.334 . S
N240 C241 1.334 . S
C241 N240 1.334 . S
C241 N242 1.336 . S
N242 Zn238 2.020 . S
N242 C241 1.336 . S
N242 N243 1.354 . S
N243 C239 1.336 . S
N243 N242 1.354 . S
N243 Zn247 2.020 . S
C244 O245 1.244 . S
C244 O268 1.257 . S
O245 C244 1.244 . S
O246 Zn238 2.019 1_554 S
O246 C266 1.257 . S
Zn247 N243 2.020 . S
Zn247 O254 1.975 . S
Zn247 N263 2.119 . S
Zn247 O268 2.019 . S
N248 Zn238 2.119 . S
N248 C250 1.334 . S
N248 C251 1.328 . S
C249 C250 1.391 . S
C249 N252 1.329 . S
C249 H270 0.930 . S
C250 N248 1.334 . S
C250 C249 1.391 . S
C250 H257 0.930 . S
C251 N248 1.328 . S
C251 C253 1.392 . S
C251 H258 0.930 1_556 S
N252 C249 1.329 . S
N252 C253 1.331 . S
C253 C251 1.392 . S
C253 N252 1.331 . S
O254 Zn247 1.975 . S
O254 C255 1.252 . S
C255 O254 1.252 . S
C255 O256 1.252 . S
O256 Zn238 1.975 . S
O256 C255 1.252 . S
H257 C250 0.930 . S
H258 C251 0.930 1_554 S
C259 C260 1.392 . S
C259 N263 1.328 . S
C259 H265 0.930 . S
C260 C259 1.392 . S
C260 N264 1.331 . S
C261 C262 1.391 . S
C261 N264 1.329 . S
C261 H271 0.930 . S
C262 C261 1.391 . S
C262 N263 1.334 . S
C262 H269 0.930 . S
N263 Zn247 2.119 . S
N263 C259 1.328 . S
N263 C262 1.334 . S
N264 C260 1.331 . S
N264 C261 1.329 . S
H265 C259 0.930 . S
C266 O246 1.257 . S
C266 O267 1.244 . S
O267 C266 1.244 . S
O268 C244 1.257 . S
O268 Zn247 2.019 . S
H269 C262 0.930 . S
H270 C249 0.930 . S
H271 C261 0.930 . S
Zn272 N276 2.020 . S
Zn272 O280 2.019 1_565 S
Zn272 N282 2.119 . S
Zn272 O290 1.975 1_565 S
C273 N274 1.334 . S
C273 N277 1.336 . S
N274 C273 1.334 . S
N274 C275 1.334 . S
C275 N274 1.334 . S
C275 N276 1.336 . S
N276 Zn272 2.020 . S
N276 C275 1.336 . S
N276 N277 1.354 . S
N277 C273 1.336 . S
N277 N276 1.354 . S
N277 Zn281 2.020 . S
C278 O279 1.244 . S
C278 O302 1.257 1_565 S
O279 C278 1.244 . S
O280 Zn272 2.019 1_545 S
O280 C300 1.257 1_545 S
Zn281 N277 2.020 . S
Zn281 O288 1.975 1_565 S
Zn281 N297 2.119 . S
Zn281 O302 2.019 1_565 S
N282 Zn272 2.119 . S
N282 C284 1.338 . S
N282 C285 1.328 . S
C283 C284 1.385 1_545 S
C283 N286 1.329 . S
C283 H304 0.930 . S
C284 N282 1.338 . S
C284 C283 1.385 1_565 S
C284 H291 0.934 . S
C285 N282 1.328 . S
C285 C287 1.392 1_565 S
C285 H292 0.930 . S
N286 C283 1.329 . S
N286 C287 1.331 . S
C287 C285 1.392 1_545 S
C287 N286 1.331 . S
O288 Zn281 1.975 1_545 S
O288 C289 1.252 . S
C289 O288 1.252 . S
C289 O290 1.252 . S
O290 Zn272 1.975 1_545 S
O290 C289 1.252 . S
H291 C284 0.934 . S
H292 C285 0.930 . S
C293 C294 1.387 1_565 S
C293 N297 1.330 . S
C293 H299 0.934 . S
C294 C293 1.387 1_545 S
C294 N298 1.331 . S
C295 C296 1.397 . S
C295 N298 1.329 . S
C295 H305 0.930 . S
C296 C295 1.397 . S
C296 N297 1.331 1_545 S
C296 H303 0.927 1_545 S
N297 Zn281 2.119 . S
N297 C293 1.330 . S
N297 C296 1.331 1_565 S
N298 C294 1.331 . S
N298 C295 1.329 . S
H299 C293 0.934 . S
C300 O280 1.257 1_565 S
C300 O301 1.244 . S
O301 C300 1.244 . S
O302 C278 1.257 1_545 S
O302 Zn281 2.019 1_545 S
H303 C296 0.927 1_565 S
H304 C283 0.930 . S
H305 C295 0.930 . S
Zn306 N310 2.020 . S
Zn306 O314 2.019 . S
Zn306 N316 2.119 . S
Zn306 O324 1.975 . S
C307 N308 1.334 . S
C307 N311 1.336 . S
N308 C307 1.334 . S
N308 C309 1.334 . S
C309 N308 1.334 . S
C309 N310 1.336 . S
N310 Zn306 2.020 . S
N310 C309 1.336 . S
N310 N311 1.354 . S
N311 C307 1.336 . S
N311 N310 1.354 . S
N311 Zn315 2.020 . S
C312 O313 1.244 . S
C312 O336 1.257 . S
O313 C312 1.244 . S
O314 Zn306 2.019 . S
O314 C334 1.257 . S
Zn315 N311 2.020 . S
Zn315 O322 1.975 . S
Zn315 N331 2.119 . S
Zn315 O336 2.019 . S
N316 Zn306 2.119 . S
N316 C318 1.334 . S
N316 C319 1.328 . S
C317 C318 1.391 . S
C317 N320 1.329 . S
C317 H338 0.930 . S
C318 N316 1.334 . S
C318 C317 1.391 . S
C318 H325 0.930 . S
C319 N316 1.328 . S
C319 C321 1.392 . S
C319 H326 0.930 . S
N320 C317 1.329 . S
N320 C321 1.331 . S
C321 C319 1.392 . S
C321 N320 1.331 . S
O322 Zn315 1.975 . S
O322 C323 1.252 . S
C323 O322 1.252 . S
C323 O324 1.252 . S
O324 Zn306 1.975 . S
O324 C323 1.252 . S
H325 C318 0.930 . S
H326 C319 0.930 . S
C327 C328 1.392 . S
C327 N331 1.328 . S
C327 H333 0.930 . S
C328 C327 1.392 . S
C328 N332 1.331 . S
C329 C330 1.391 . S
C329 N332 1.329 . S
C329 H339 0.930 . S
C330 C329 1.391 . S
C330 N331 1.334 . S
C330 H337 0.930 . S
N331 Zn315 2.119 . S
N331 C327 1.328 . S
N331 C330 1.334 . S
N332 C328 1.331 . S
N332 C329 1.329 . S
H333 C327 0.930 . S
C334 O314 1.257 . S
C334 O335 1.244 . S
O335 C334 1.244 . S
O336 C312 1.257 . S
O336 Zn315 2.019 . S
H337 C330 0.930 . S
H338 C317 0.930 . S
H339 C329 0.930 . S
Zn340 N344 2.020 . S
Zn340 O348 2.019 . S
Zn340 N350 2.119 . S
Zn340 O358 1.975 . S
C341 N342 1.334 . S
C341 N345 1.336 . S
N342 C341 1.334 . S
N342 C343 1.334 . S
C343 N342 1.334 . S
C343 N344 1.336 . S
N344 Zn340 2.020 . S
N344 C343 1.336 . S
N344 N345 1.354 . S
N345 C341 1.336 . S
N345 N344 1.354 . S
N345 Zn349 2.020 . S
C346 O347 1.244 . S
C346 O370 1.257 . S
O347 C346 1.244 . S
O348 Zn340 2.019 . S
O348 C368 1.257 . S
Zn349 N345 2.020 . S
Zn349 O356 1.975 . S
Zn349 N365 2.119 . S
Zn349 O370 2.019 . S
N350 Zn340 2.119 . S
N350 C352 1.334 . S
N350 C353 1.328 . S
C351 C352 1.391 . S
C351 N354 1.329 . S
C351 H372 0.930 . S
C352 N350 1.334 . S
C352 C351 1.391 . S
C352 H359 0.930 . S
C353 N350 1.328 . S
C353 C355 1.392 . S
C353 H360 0.930 . S
N354 C351 1.329 . S
N354 C355 1.331 . S
C355 C353 1.392 . S
C355 N354 1.331 . S
O356 Zn349 1.975 . S
O356 C357 1.252 . S
C357 O356 1.252 . S
C357 O358 1.252 . S
O358 Zn340 1.975 . S
O358 C357 1.252 . S
H359 C352 0.930 . S
H360 C353 0.930 . S
C361 C362 1.392 . S
C361 N365 1.328 . S
C361 H367 0.930 . S
C362 C361 1.392 . S
C362 N366 1.331 . S
C363 C364 1.391 . S
C363 N366 1.329 . S
C363 H373 0.930 . S
C364 C363 1.391 . S
C364 N365 1.334 . S
C364 H371 0.930 . S
N365 Zn349 2.119 . S
N365 C361 1.328 . S
N365 C364 1.334 . S
N366 C362 1.331 . S
N366 C363 1.329 . S
H367 C361 0.930 . S
C368 O348 1.257 . S
C368 O369 1.244 . S
O369 C368 1.244 . S
O370 C346 1.257 . S
O370 Zn349 2.019 . S
H371 C364 0.930 . S
H372 C351 0.930 . S
H373 C363 0.930 . S
Zn374 N378 2.020 . S
Zn374 O382 2.019 1_565 S
Zn374 N384 2.119 . S
Zn374 O392 1.975 1_565 S
C375 N376 1.334 . S
C375 N379 1.336 . S
N376 C375 1.334 . S
N376 C377 1.334 . S
C377 N376 1.334 . S
C377 N378 1.336 . S
N378 Zn374 2.020 . S
N378 C377 1.336 . S
N378 N379 1.354 . S
N379 C375 1.336 . S
N379 N378 1.354 . S
N379 Zn383 2.020 . S
C380 O381 1.244 . S
C380 O404 1.257 1_565 S
O381 C380 1.244 . S
O382 Zn374 2.019 1_545 S
O382 C402 1.257 1_545 S
Zn383 N379 2.020 . S
Zn383 O390 1.975 1_565 S
Zn383 N399 2.119 . S
Zn383 O404 2.019 1_565 S
N384 Zn374 2.119 . S
N384 C386 1.331 1_565 S
N384 C387 1.330 . S
C385 C386 1.397 . S
C385 N388 1.329 . S
C385 H406 0.930 . S
C386 N384 1.331 1_545 S
C386 C385 1.397 . S
C386 H393 0.927 1_545 S
C387 N384 1.330 . S
C387 C389 1.387 1_565 S
C387 H394 0.934 . S
N388 C385 1.329 . S
N388 C389 1.331 . S
C389 C387 1.387 1_545 S
C389 N388 1.331 . S
O390 Zn383 1.975 1_545 S
O390 C391 1.252 . S
C391 O390 1.252 . S
C391 O392 1.252 . S
O392 Zn374 1.975 1_545 S
O392 C391 1.252 . S
H393 C386 0.927 1_565 S
H394 C387 0.934 . S
C395 C396 1.392 1_565 S
C395 N399 1.328 . S
C395 H401 0.930 . S
C396 C395 1.392 1_545 S
C396 N400 1.331 . S
C397 C398 1.385 1_545 S
C397 N400 1.329 . S
C397 H407 0.930 . S
C398 C397 1.385 1_565 S
C398 N399 1.338 . S
C398 H405 0.934 . S
N399 Zn383 2.119 . S
N399 C395 1.328 . S
N399 C398 1.338 . S
N400 C396 1.331 . S
N400 C397 1.329 . S
H401 C395 0.930 . S
C402 O382 1.257 1_565 S
C402 O403 1.244 . S
O403 C402 1.244 . S
O404 C380 1.257 1_545 S
O404 Zn383 2.019 1_545 S
H405 C398 0.934 . S
H406 C385 0.930 . S
H407 C397 0.930 . S
Zn408 N412 2.020 . S
Zn408 O416 2.019 1_545 S
Zn408 N418 2.119 . S
Zn408 O426 1.975 1_545 S
C409 N410 1.334 . S
C409 N413 1.336 . S
N410 C409 1.334 . S
N410 C411 1.334 . S
C411 N410 1.334 . S
C411 N412 1.336 . S
N412 Zn408 2.020 . S
N412 C411 1.336 . S
N412 N413 1.354 . S
N413 C409 1.336 . S
N413 N412 1.354 . S
N413 Zn417 2.020 . S
C414 O415 1.244 . S
C414 O438 1.257 1_545 S
O415 C414 1.244 . S
O416 Zn408 2.019 1_565 S
O416 C436 1.257 1_565 S
Zn417 N413 2.020 . S
Zn417 O424 1.975 1_545 S
Zn417 N433 2.119 . S
Zn417 O438 2.019 1_545 S
N418 Zn408 2.119 . S
N418 C420 1.338 . S
N418 C421 1.328 . S
C419 C420 1.385 1_565 S
C419 N422 1.329 . S
C419 H440 0.930 . S
C420 N418 1.338 . S
C420 C419 1.385 1_545 S
C420 H427 0.934 . S
C421 N418 1.328 . S
C421 C423 1.392 1_545 S
C421 H428 0.930 . S
N422 C419 1.329 . S
N422 C423 1.331 . S
C423 C421 1.392 1_565 S
C423 N422 1.331 . S
O424 Zn417 1.975 1_565 S
O424 C425 1.252 . S
C425 O424 1.252 . S
C425 O426 1.252 . S
O426 Zn408 1.975 1_565 S
O426 C425 1.252 . S
H427 C420 0.934 . S
H428 C421 0.930 . S
C429 C430 1.387 1_545 S
C429 N433 1.330 . S
C429 H435 0.934 . S
C430 C429 1.387 1_565 S
C430 N434 1.331 . S
C431 C432 1.397 . S
C431 N434 1.329 . S
C431 H441 0.930 . S
C432 C431 1.397 . S
C432 N433 1.331 1_565 S
C432 H439 0.927 1_565 S
N433 Zn417 2.119 . S
N433 C429 1.330 . S
N433 C432 1.331 1_545 S
N434 C430 1.331 . S
N434 C431 1.329 . S
H435 C429 0.934 . S
C436 O416 1.257 1_545 S
C436 O437 1.244 . S
O437 C436 1.244 . S
O438 C414 1.257 1_565 S
O438 Zn417 2.019 1_565 S
H439 C432 0.927 1_545 S
H440 C419 0.930 . S
H441 C431 0.930 . S
Zn442 N446 2.020 . S
Zn442 O450 2.019 . S
Zn442 N452 2.119 . S
Zn442 O460 1.975 . S
C443 N444 1.334 . S
C443 N447 1.336 . S
N444 C443 1.334 . S
N444 C445 1.334 . S
C445 N444 1.334 . S
C445 N446 1.336 . S
N446 Zn442 2.020 . S
N446 C445 1.336 . S
N446 N447 1.354 . S
N447 C443 1.336 . S
N447 N446 1.354 . S
N447 Zn451 2.020 . S
C448 O449 1.244 . S
C448 O472 1.257 . S
O449 C448 1.244 . S
O450 Zn442 2.019 . S
O450 C470 1.257 . S
Zn451 N447 2.020 . S
Zn451 O458 1.975 . S
Zn451 N467 2.119 . S
Zn451 O472 2.019 . S
N452 Zn442 2.119 . S
N452 C454 1.334 . S
N452 C455 1.328 . S
C453 C454 1.391 . S
C453 N456 1.329 . S
C453 H474 0.930 . S
C454 N452 1.334 . S
C454 C453 1.391 . S
C454 H461 0.930 . S
C455 N452 1.328 . S
C455 C457 1.392 . S
C455 H462 0.930 . S
N456 C453 1.329 . S
N456 C457 1.331 . S
C457 C455 1.392 . S
C457 N456 1.331 . S
O458 Zn451 1.975 . S
O458 C459 1.252 . S
C459 O458 1.252 . S
C459 O460 1.252 . S
O460 Zn442 1.975 . S
O460 C459 1.252 . S
H461 C454 0.930 . S
H462 C455 0.930 . S
C463 C464 1.392 . S
C463 N467 1.328 . S
C463 H469 0.930 . S
C464 C463 1.392 . S
C464 N468 1.331 . S
C465 C466 1.391 . S
C465 N468 1.329 . S
C465 H475 0.930 . S
C466 C465 1.391 . S
C466 N467 1.334 . S
C466 H473 0.930 . S
N467 Zn451 2.119 . S
N467 C463 1.328 . S
N467 C466 1.334 . S
N468 C464 1.331 . S
N468 C465 1.329 . S
H469 C463 0.930 . S
C470 O450 1.257 . S
C470 O471 1.244 . S
O471 C470 1.244 . S
O472 C448 1.257 . S
O472 Zn451 2.019 . S
H473 C466 0.930 . S
H474 C453 0.930 . S
H475 C465 0.930 . S
Zn476 N480 2.020 . S
Zn476 O484 2.019 . S
Zn476 N486 2.119 . S
Zn476 O494 1.975 . S
C477 N478 1.334 . S
C477 N481 1.336 . S
N478 C477 1.334 . S
N478 C479 1.334 . S
C479 N478 1.334 . S
C479 N480 1.336 . S
N480 Zn476 2.020 . S
N480 C479 1.336 . S
N480 N481 1.354 . S
N481 C477 1.336 . S
N481 N480 1.354 . S
N481 Zn485 2.020 . S
C482 O483 1.244 . S
C482 O506 1.257 . S
O483 C482 1.244 . S
O484 Zn476 2.019 . S
O484 C504 1.257 . S
Zn485 N481 2.020 . S
Zn485 O492 1.975 . S
Zn485 N501 2.119 . S
Zn485 O506 2.019 . S
N486 Zn476 2.119 . S
N486 C488 1.334 . S
N486 C489 1.328 . S
C487 C488 1.391 . S
C487 N490 1.329 . S
C487 H508 0.930 . S
C488 N486 1.334 . S
C488 C487 1.391 . S
C488 H495 0.930 . S
C489 N486 1.328 . S
C489 C491 1.392 . S
C489 H496 0.930 . S
N490 C487 1.329 . S
N490 C491 1.331 . S
C491 C489 1.392 . S
C491 N490 1.331 . S
O492 Zn485 1.975 . S
O492 C493 1.252 . S
C493 O492 1.252 . S
C493 O494 1.252 . S
O494 Zn476 1.975 . S
O494 C493 1.252 . S
H495 C488 0.930 . S
H496 C489 0.930 . S
C497 C498 1.392 . S
C497 N501 1.328 . S
C497 H503 0.930 . S
C498 C497 1.392 . S
C498 N502 1.331 . S
C499 C500 1.391 . S
C499 N502 1.329 . S
C499 H509 0.930 . S
C500 C499 1.391 . S
C500 N501 1.334 . S
C500 H507 0.930 . S
N501 Zn485 2.119 . S
N501 C497 1.328 . S
N501 C500 1.334 . S
N502 C498 1.331 . S
N502 C499 1.329 . S
H503 C497 0.930 . S
C504 O484 1.257 . S
C504 O505 1.244 . S
O505 C504 1.244 . S
O506 C482 1.257 . S
O506 Zn485 2.019 . S
H507 C500 0.930 . S
H508 C487 0.930 . S
H509 C499 0.930 . S
Zn510 N514 2.020 . S
Zn510 O518 2.019 1_545 S
Zn510 N520 2.119 . S
Zn510 O528 1.975 1_545 S
C511 N512 1.334 . S
C511 N515 1.336 . S
N512 C511 1.334 . S
N512 C513 1.334 . S
C513 N512 1.334 . S
C513 N514 1.336 . S
N514 Zn510 2.020 . S
N514 C513 1.336 . S
N514 N515 1.354 . S
N515 C511 1.336 . S
N515 N514 1.354 . S
N515 Zn519 2.020 . S
C516 O517 1.244 . S
C516 O540 1.257 1_545 S
O517 C516 1.244 . S
O518 Zn510 2.019 1_565 S
O518 C538 1.257 1_565 S
Zn519 N515 2.020 . S
Zn519 O526 1.975 1_545 S
Zn519 N535 2.119 . S
Zn519 O540 2.019 1_545 S
N520 Zn510 2.119 . S
N520 C522 1.331 1_545 S
N520 C523 1.330 . S
C521 C522 1.397 . S
C521 N524 1.329 . S
C521 H542 0.930 . S
C522 N520 1.331 1_565 S
C522 C521 1.397 . S
C522 H529 0.927 1_565 S
C523 N520 1.330 . S
C523 C525 1.387 1_545 S
C523 H530 0.934 . S
N524 C521 1.329 . S
N524 C525 1.331 . S
C525 C523 1.387 1_565 S
C525 N524 1.331 . S
O526 Zn519 1.975 1_565 S
O526 C527 1.252 . S
C527 O526 1.252 . S
C527 O528 1.252 . S
O528 Zn510 1.975 1_565 S
O528 C527 1.252 . S
H529 C522 0.927 1_545 S
H530 C523 0.934 . S
C531 C532 1.392 1_545 S
C531 N535 1.328 . S
C531 H537 0.930 . S
C532 C531 1.392 1_565 S
C532 N536 1.331 . S
C533 C534 1.385 1_565 S
C533 N536 1.329 . S
C533 H543 0.930 . S
C534 C533 1.385 1_545 S
C534 N535 1.338 . S
C534 H541 0.934 . S
N535 Zn519 2.119 . S
N535 C531 1.328 . S
N535 C534 1.338 . S
N536 C532 1.331 . S
N536 C533 1.329 . S
H537 C531 0.930 . S
C538 O518 1.257 1_545 S
C538 O539 1.244 . S
O539 C538 1.244 . S
O540 C516 1.257 1_565 S
O540 Zn519 2.019 1_565 S
H541 C534 0.934 . S
H542 C521 0.930 . S
H543 C533 0.930 . S
Zn544 N548 2.020 . S
Zn544 O552 2.019 . S
Zn544 N554 2.119 . S
Zn544 O562 1.975 . S
C545 N546 1.334 . S
C545 N549 1.336 . S
N546 C545 1.334 . S
N546 C547 1.334 . S
C547 N546 1.334 . S
C547 N548 1.336 . S
N548 Zn544 2.020 . S
N548 C547 1.336 . S
N548 N549 1.354 . S
N549 C545 1.336 . S
N549 N548 1.354 . S
N549 Zn553 2.020 . S
C550 O551 1.244 . S
C550 O574 1.257 . S
O551 C550 1.244 . S
O552 Zn544 2.019 . S
O552 C572 1.257 . S
Zn553 N549 2.020 . S
Zn553 O560 1.975 . S
Zn553 N569 2.119 . S
Zn553 O574 2.019 . S
N554 Zn544 2.119 . S
N554 C556 1.334 . S
N554 C557 1.328 . S
C555 C556 1.391 . S
C555 N558 1.329 . S
C555 H576 0.930 . S
C556 N554 1.334 . S
C556 C555 1.391 . S
C556 H563 0.930 . S
C557 N554 1.328 . S
C557 C559 1.392 . S
C557 H564 0.930 . S
N558 C555 1.329 . S
N558 C559 1.331 . S
C559 C557 1.392 . S
C559 N558 1.331 . S
O560 Zn553 1.975 . S
O560 C561 1.252 . S
C561 O560 1.252 . S
C561 O562 1.252 . S
O562 Zn544 1.975 . S
O562 C561 1.252 . S
H563 C556 0.930 . S
H564 C557 0.930 . S
C565 C566 1.392 . S
C565 N569 1.328 . S
C565 H571 0.930 . S
C566 C565 1.392 . S
C566 N570 1.331 . S
C567 C568 1.391 . S
C567 N570 1.329 . S
C567 H577 0.930 . S
C568 C567 1.391 . S
C568 N569 1.334 . S
C568 H575 0.930 . S
N569 Zn553 2.119 . S
N569 C565 1.328 . S
N569 C568 1.334 . S
N570 C566 1.331 . S
N570 C567 1.329 . S
H571 C565 0.930 . S
C572 O552 1.257 . S
C572 O573 1.244 . S
O573 C572 1.244 . S
O574 C550 1.257 . S
O574 Zn553 2.019 . S
H575 C568 0.930 . S
H576 C555 0.930 . S
H577 C567 0.930 . S
Zn578 N582 2.020 . S
Zn578 O586 2.019 . S
Zn578 N588 2.119 . S
Zn578 O596 1.975 . S
C579 N580 1.334 . S
C579 N583 1.336 . S
N580 C579 1.334 . S
N580 C581 1.334 . S
C581 N580 1.334 . S
C581 N582 1.336 . S
N582 Zn578 2.020 . S
N582 C581 1.336 . S
N582 N583 1.354 . S
N583 C579 1.336 . S
N583 N582 1.354 . S
N583 Zn587 2.020 . S
C584 O585 1.244 . S
C584 O608 1.257 . S
O585 C584 1.244 . S
O586 Zn578 2.019 . S
O586 C606 1.257 . S
Zn587 N583 2.020 . S
Zn587 O594 1.975 . S
Zn587 N603 2.119 . S
Zn587 O608 2.019 . S
N588 Zn578 2.119 . S
N588 C590 1.334 . S
N588 C591 1.328 . S
C589 C590 1.391 . S
C589 N592 1.329 . S
C589 H610 0.930 . S
C590 N588 1.334 . S
C590 C589 1.391 . S
C590 H597 0.930 . S
C591 N588 1.328 . S
C591 C593 1.392 . S
C591 H598 0.930 . S
N592 C589 1.329 . S
N592 C593 1.331 . S
C593 C591 1.392 . S
C593 N592 1.331 . S
O594 Zn587 1.975 . S
O594 C595 1.252 . S
C595 O594 1.252 . S
C595 O596 1.252 . S
O596 Zn578 1.975 . S
O596 C595 1.252 . S
H597 C590 0.930 . S
H598 C591 0.930 . S
C599 C600 1.392 . S
C599 N603 1.328 . S
C599 H605 0.930 . S
C600 C599 1.392 . S
C600 N604 1.331 . S
C601 C602 1.391 . S
C601 N604 1.329 . S
C601 H611 0.930 . S
C602 C601 1.391 . S
C602 N603 1.334 . S
C602 H609 0.930 . S
N603 Zn587 2.119 . S
N603 C599 1.328 . S
N603 C602 1.334 . S
N604 C600 1.331 . S
N604 C601 1.329 . S
H605 C599 0.930 . S
C606 O586 1.257 . S
C606 O607 1.244 . S
O607 C606 1.244 . S
O608 C584 1.257 . S
O608 Zn587 2.019 . S
H609 C602 0.930 . S
H610 C589 0.930 . S
H611 C601 0.930 . S
Zn612 N616 2.020 . S
Zn612 O620 2.019 . S
Zn612 N622 2.119 . S
Zn612 O630 1.975 . S
C613 N614 1.334 . S
C613 N617 1.336 . S
N614 C613 1.334 . S
N614 C615 1.334 . S
C615 N614 1.334 . S
C615 N616 1.336 . S
N616 Zn612 2.020 . S
N616 C615 1.336 . S
N616 N617 1.354 . S
N617 C613 1.336 . S
N617 N616 1.354 . S
N617 Zn621 2.020 . S
C618 O619 1.244 . S
C618 O642 1.257 . S
O619 C618 1.244 . S
O620 Zn612 2.019 . S
O620 C640 1.257 . S
Zn621 N617 2.020 . S
Zn621 O628 1.975 . S
Zn621 N637 2.119 . S
Zn621 O642 2.019 . S
N622 Zn612 2.119 . S
N622 C624 1.334 . S
N622 C625 1.328 . S
C623 C624 1.391 . S
C623 N626 1.329 . S
C623 H644 0.930 . S
C624 N622 1.334 . S
C624 C623 1.391 . S
C624 H631 0.930 . S
C625 N622 1.328 . S
C625 C627 1.392 . S
C625 H632 0.930 . S
N626 C623 1.329 . S
N626 C627 1.331 . S
C627 C625 1.392 . S
C627 N626 1.331 . S
O628 Zn621 1.975 . S
O628 C629 1.252 . S
C629 O628 1.252 . S
C629 O630 1.252 . S
O630 Zn612 1.975 . S
O630 C629 1.252 . S
H631 C624 0.930 . S
H632 C625 0.930 . S
C633 C634 1.392 . S
C633 N637 1.328 . S
C633 H639 0.930 . S
C634 C633 1.392 . S
C634 N638 1.331 . S
C635 C636 1.391 . S
C635 N638 1.329 . S
C635 H645 0.930 . S
C636 C635 1.391 . S
C636 N637 1.334 . S
C636 H643 0.930 . S
N637 Zn621 2.119 . S
N637 C633 1.328 . S
N637 C636 1.334 . S
N638 C634 1.331 . S
N638 C635 1.329 . S
H639 C633 0.930 . S
C640 O620 1.257 . S
C640 O641 1.244 . S
O641 C640 1.244 . S
O642 C618 1.257 . S
O642 Zn621 2.019 . S
H643 C636 0.930 . S
H644 C623 0.930 . S
H645 C635 0.930 . S
Zn646 N650 2.020 . S
Zn646 O654 2.019 . S
Zn646 N656 2.119 . S
Zn646 O664 1.975 . S
C647 N648 1.334 . S
C647 N651 1.336 . S
N648 C647 1.334 . S
N648 C649 1.334 . S
C649 N648 1.334 . S
C649 N650 1.336 . S
N650 Zn646 2.020 . S
N650 C649 1.336 . S
N650 N651 1.354 . S
N651 C647 1.336 . S
N651 N650 1.354 . S
N651 Zn655 2.020 . S
C652 O653 1.244 . S
C652 O676 1.257 . S
O653 C652 1.244 . S
O654 Zn646 2.019 . S
O654 C674 1.257 . S
Zn655 N651 2.020 . S
Zn655 O662 1.975 . S
Zn655 N671 2.119 . S
Zn655 O676 2.019 . S
N656 Zn646 2.119 . S
N656 C658 1.334 . S
N656 C659 1.328 . S
C657 C658 1.391 . S
C657 N660 1.329 . S
C657 H678 0.930 . S
C658 N656 1.334 . S
C658 C657 1.391 . S
C658 H665 0.930 . S
C659 N656 1.328 . S
C659 C661 1.392 . S
C659 H666 0.930 . S
N660 C657 1.329 . S
N660 C661 1.331 . S
C661 C659 1.392 . S
C661 N660 1.331 . S
O662 Zn655 1.975 . S
O662 C663 1.252 . S
C663 O662 1.252 . S
C663 O664 1.252 . S
O664 Zn646 1.975 . S
O664 C663 1.252 . S
H665 C658 0.930 . S
H666 C659 0.930 . S
C667 C668 1.392 . S
C667 N671 1.328 . S
C667 H673 0.930 . S
C668 C667 1.392 . S
C668 N672 1.331 . S
C669 C670 1.391 . S
C669 N672 1.329 . S
C669 H679 0.930 . S
C670 C669 1.391 . S
C670 N671 1.334 . S
C670 H677 0.930 . S
N671 Zn655 2.119 . S
N671 C667 1.328 . S
N671 C670 1.334 . S
N672 C668 1.331 . S
N672 C669 1.329 . S
H673 C667 0.930 . S
C674 O654 1.257 . S
C674 O675 1.244 . S
O675 C674 1.244 . S
O676 C652 1.257 . S
O676 Zn655 2.019 . S
H677 C670 0.930 . S
H678 C657 0.930 . S
H679 C669 0.930 . S
Zn680 N684 2.020 . S
Zn680 O688 2.019 . S
Zn680 N690 2.119 . S
Zn680 O698 1.975 . S
C681 N682 1.334 . S
C681 N685 1.336 . S
N682 C681 1.334 . S
N682 C683 1.334 . S
C683 N682 1.334 . S
C683 N684 1.336 . S
N684 Zn680 2.020 . S
N684 C683 1.336 . S
N684 N685 1.354 . S
N685 C681 1.336 . S
N685 N684 1.354 . S
N685 Zn689 2.020 . S
C686 O687 1.244 . S
C686 O710 1.257 . S
O687 C686 1.244 . S
O688 Zn680 2.019 . S
O688 C708 1.257 . S
Zn689 N685 2.020 . S
Zn689 O696 1.975 . S
Zn689 N705 2.119 . S
Zn689 O710 2.019 . S
N690 Zn680 2.119 . S
N690 C692 1.334 . S
N690 C693 1.328 . S
C691 C692 1.391 . S
C691 N694 1.329 . S
C691 H712 0.930 . S
C692 N690 1.334 . S
C692 C691 1.391 . S
C692 H699 0.930 . S
C693 N690 1.328 . S
C693 C695 1.392 . S
C693 H700 0.930 . S
N694 C691 1.329 . S
N694 C695 1.331 . S
C695 C693 1.392 . S
C695 N694 1.331 . S
O696 Zn689 1.975 . S
O696 C697 1.252 . S
C697 O696 1.252 . S
C697 O698 1.252 . S
O698 Zn680 1.975 . S
O698 C697 1.252 . S
H699 C692 0.930 . S
H700 C693 0.930 . S
C701 C702 1.392 . S
C701 N705 1.328 . S
C701 H707 0.930 . S
C702 C701 1.392 . S
C702 N706 1.331 . S
C703 C704 1.391 . S
C703 N706 1.329 . S
C703 H713 0.930 . S
C704 C703 1.391 . S
C704 N705 1.334 . S
C704 H711 0.930 . S
N705 Zn689 2.119 . S
N705 C701 1.328 . S
N705 C704 1.334 . S
N706 C702 1.331 . S
N706 C703 1.329 . S
H707 C701 0.930 . S
C708 O688 1.257 . S
C708 O709 1.244 . S
O709 C708 1.244 . S
O710 C686 1.257 . S
O710 Zn689 2.019 . S
H711 C704 0.930 . S
H712 C691 0.930 . S
H713 C703 0.930 . S
Zn714 N718 2.020 . S
Zn714 O722 2.019 . S
Zn714 N724 2.119 . S
Zn714 O732 1.975 . S
C715 N716 1.334 . S
C715 N719 1.336 . S
N716 C715 1.334 . S
N716 C717 1.334 . S
C717 N716 1.334 . S
C717 N718 1.336 . S
N718 Zn714 2.020 . S
N718 C717 1.336 . S
N718 N719 1.354 . S
N719 C715 1.336 . S
N719 N718 1.354 . S
N719 Zn723 2.020 . S
C720 O721 1.244 . S
C720 O744 1.257 . S
O721 C720 1.244 . S
O722 Zn714 2.019 . S
O722 C742 1.257 . S
Zn723 N719 2.020 . S
Zn723 O730 1.975 . S
Zn723 N739 2.119 . S
Zn723 O744 2.019 . S
N724 Zn714 2.119 . S
N724 C726 1.334 . S
N724 C727 1.328 . S
C725 C726 1.391 . S
C725 N728 1.329 . S
C725 H746 0.930 . S
C726 N724 1.334 . S
C726 C725 1.391 . S
C726 H733 0.930 . S
C727 N724 1.328 . S
C727 C729 1.392 . S
C727 H734 0.930 . S
N728 C725 1.329 . S
N728 C729 1.331 . S
C729 C727 1.392 . S
C729 N728 1.331 . S
O730 Zn723 1.975 . S
O730 C731 1.252 . S
C731 O730 1.252 . S
C731 O732 1.252 . S
O732 Zn714 1.975 . S
O732 C731 1.252 . S
H733 C726 0.930 . S
H734 C727 0.930 . S
C735 C736 1.392 . S
C735 N739 1.328 . S
C735 H741 0.930 . S
C736 C735 1.392 . S
C736 N740 1.331 . S
C737 C738 1.391 . S
C737 N740 1.329 . S
C737 H747 0.930 . S
C738 C737 1.391 . S
C738 N739 1.334 . S
C738 H745 0.930 . S
N739 Zn723 2.119 . S
N739 C735 1.328 . S
N739 C738 1.334 . S
N740 C736 1.331 . S
N740 C737 1.329 . S
H741 C735 0.930 . S
C742 O722 1.257 . S
C742 O743 1.244 . S
O743 C742 1.244 . S
O744 C720 1.257 . S
O744 Zn723 2.019 . S
H745 C738 0.930 . S
H746 C725 0.930 . S
H747 C737 0.930 . S
Zn748 N752 2.020 . S
Zn748 O756 2.019 . S
Zn748 N758 2.119 . S
Zn748 O766 1.975 . S
C749 N750 1.334 . S
C749 N753 1.336 . S
N750 C749 1.334 . S
N750 C751 1.334 . S
C751 N750 1.334 . S
C751 N752 1.336 . S
N752 Zn748 2.020 . S
N752 C751 1.336 . S
N752 N753 1.354 . S
N753 C749 1.336 . S
N753 N752 1.354 . S
N753 Zn757 2.020 . S
C754 O755 1.244 . S
C754 O778 1.257 . S
O755 C754 1.244 . S
O756 Zn748 2.019 . S
O756 C776 1.257 . S
Zn757 N753 2.020 . S
Zn757 O764 1.975 . S
Zn757 N773 2.119 . S
Zn757 O778 2.019 . S
N758 Zn748 2.119 . S
N758 C760 1.334 . S
N758 C761 1.328 . S
C759 C760 1.391 . S
C759 N762 1.329 . S
C759 H780 0.930 . S
C760 N758 1.334 . S
C760 C759 1.391 . S
C760 H767 0.930 . S
C761 N758 1.328 . S
C761 C763 1.392 . S
C761 H768 0.930 . S
N762 C759 1.329 . S
N762 C763 1.331 . S
C763 C761 1.392 . S
C763 N762 1.331 . S
O764 Zn757 1.975 . S
O764 C765 1.252 . S
C765 O764 1.252 . S
C765 O766 1.252 . S
O766 Zn748 1.975 . S
O766 C765 1.252 . S
H767 C760 0.930 . S
H768 C761 0.930 . S
C769 C770 1.392 . S
C769 N773 1.328 . S
C769 H775 0.930 . S
C770 C769 1.392 . S
C770 N774 1.331 . S
C771 C772 1.391 . S
C771 N774 1.329 . S
C771 H781 0.930 . S
C772 C771 1.391 . S
C772 N773 1.334 . S
C772 H779 0.930 . S
N773 Zn757 2.119 . S
N773 C769 1.328 . S
N773 C772 1.334 . S
N774 C770 1.331 . S
N774 C771 1.329 . S
H775 C769 0.930 . S
C776 O756 1.257 . S
C776 O777 1.244 . S
O777 C776 1.244 . S
O778 C754 1.257 . S
O778 Zn757 2.019 . S
H779 C772 0.930 . S
H780 C759 0.930 . S
H781 C771 0.930 . S
Zn782 N786 2.020 . S
Zn782 O790 2.019 . S
Zn782 N792 2.119 . S
Zn782 O800 1.975 . S
C783 N784 1.334 . S
C783 N787 1.336 . S
N784 C783 1.334 . S
N784 C785 1.334 . S
C785 N784 1.334 . S
C785 N786 1.336 . S
N786 Zn782 2.020 . S
N786 C785 1.336 . S
N786 N787 1.354 . S
N787 C783 1.336 . S
N787 N786 1.354 . S
N787 Zn791 2.020 . S
C788 O789 1.244 . S
C788 O812 1.257 . S
O789 C788 1.244 . S
O790 Zn782 2.019 . S
O790 C810 1.257 . S
Zn791 N787 2.020 . S
Zn791 O798 1.975 . S
Zn791 N807 2.119 . S
Zn791 O812 2.019 . S
N792 Zn782 2.119 . S
N792 C794 1.334 . S
N792 C795 1.328 . S
C793 C794 1.391 . S
C793 N796 1.329 . S
C793 H814 0.930 . S
C794 N792 1.334 . S
C794 C793 1.391 . S
C794 H801 0.930 . S
C795 N792 1.328 . S
C795 C797 1.392 . S
C795 H802 0.930 . S
N796 C793 1.329 . S
N796 C797 1.331 . S
C797 C795 1.392 . S
C797 N796 1.331 . S
O798 Zn791 1.975 . S
O798 C799 1.252 . S
C799 O798 1.252 . S
C799 O800 1.252 . S
O800 Zn782 1.975 . S
O800 C799 1.252 . S
H801 C794 0.930 . S
H802 C795 0.930 . S
C803 C804 1.392 . S
C803 N807 1.328 . S
C803 H809 0.930 . S
C804 C803 1.392 . S
C804 N808 1.331 . S
C805 C806 1.391 . S
C805 N808 1.329 . S
C805 H815 0.930 . S
C806 C805 1.391 . S
C806 N807 1.334 . S
C806 H813 0.930 . S
N807 Zn791 2.119 . S
N807 C803 1.328 . S
N807 C806 1.334 . S
N808 C804 1.331 . S
N808 C805 1.329 . S
H809 C803 0.930 . S
C810 O790 1.257 . S
C810 O811 1.244 . S
O811 C810 1.244 . S
O812 C788 1.257 . S
O812 Zn791 2.019 . S
H813 C806 0.930 . S
H814 C793 0.930 . S
H815 C805 0.930 . S
Zn816 N820 2.020 . S
Zn816 O824 2.019 1_565 S
Zn816 N826 2.119 . S
Zn816 O834 1.975 1_565 S
C817 N818 1.334 . S
C817 N821 1.336 . S
N818 C817 1.334 . S
N818 C819 1.334 . S
C819 N818 1.334 . S
C819 N820 1.336 . S
N820 Zn816 2.020 . S
N820 C819 1.336 . S
N820 N821 1.354 . S
N821 C817 1.336 . S
N821 N820 1.354 . S
N821 Zn825 2.020 1_554 S
C822 O823 1.244 . S
C822 O846 1.257 1_565 S
O823 C822 1.244 . S
O824 Zn816 2.019 1_545 S
O824 C844 1.257 1_545 S
Zn825 N821 2.020 1_556 S
Zn825 O832 1.975 1_566 S
Zn825 N841 2.119 1_556 S
Zn825 O846 2.019 1_565 S
N826 Zn816 2.119 . S
N826 C828 1.338 . S
N826 C829 1.328 . S
C827 C828 1.385 1_545 S
C827 N830 1.329 . S
C827 H848 0.930 . S
C828 N826 1.338 . S
C828 C827 1.385 1_565 S
C828 H835 0.934 . S
C829 N826 1.328 . S
C829 C831 1.392 1_565 S
C829 H836 0.930 . S
N830 C827 1.329 . S
N830 C831 1.331 . S
C831 C829 1.392 1_545 S
C831 N830 1.331 . S
O832 Zn825 1.975 1_544 S
O832 C833 1.252 . S
C833 O832 1.252 . S
C833 O834 1.252 . S
O834 Zn816 1.975 1_545 S
O834 C833 1.252 . S
H835 C828 0.934 . S
H836 C829 0.930 . S
C837 C838 1.387 1_566 S
C837 N841 1.330 1_556 S
C837 H843 0.934 . S
C838 C837 1.387 1_544 S
C838 N842 1.331 . S
C839 C840 1.397 . S
C839 N842 1.329 . S
C839 H849 0.930 . S
C840 C839 1.397 . S
C840 N841 1.331 1_545 S
C840 H847 0.927 1_545 S
N841 Zn825 2.119 1_554 S
N841 C837 1.330 1_554 S
N841 C840 1.331 1_565 S
N842 C838 1.331 . S
N842 C839 1.329 . S
H843 C837 0.934 . S
C844 O824 1.257 1_565 S
C844 O845 1.244 . S
O845 C844 1.244 . S
O846 C822 1.257 1_545 S
O846 Zn825 2.019 1_545 S
H847 C840 0.927 1_565 S
H848 C827 0.930 . S
H849 C839 0.930 . S
Zn850 N854 2.020 . S
Zn850 O858 2.019 . S
Zn850 N860 2.119 . S
Zn850 O868 1.975 . S
C851 N852 1.334 . S
C851 N855 1.336 . S
N852 C851 1.334 . S
N852 C853 1.334 . S
C853 N852 1.334 . S
C853 N854 1.336 . S
N854 Zn850 2.020 . S
N854 C853 1.336 . S
N854 N855 1.354 . S
N855 C851 1.336 . S
N855 N854 1.354 . S
N855 Zn859 2.020 1_554 S
C856 O857 1.244 . S
C856 O880 1.257 . S
O857 C856 1.244 . S
O858 Zn850 2.019 . S
O858 C878 1.257 . S
Zn859 N855 2.020 1_556 S
Zn859 O866 1.975 1_556 S
Zn859 N875 2.119 1_556 S
Zn859 O880 2.019 . S
N860 Zn850 2.119 . S
N860 C862 1.334 . S
N860 C863 1.328 . S
C861 C862 1.391 . S
C861 N864 1.329 . S
C861 H882 0.930 . S
C862 N860 1.334 . S
C862 C861 1.391 . S
C862 H869 0.930 . S
C863 N860 1.328 . S
C863 C865 1.392 . S
C863 H870 0.930 . S
N864 C861 1.329 . S
N864 C865 1.331 . S
C865 C863 1.392 . S
C865 N864 1.331 . S
O866 Zn859 1.975 1_554 S
O866 C867 1.252 . S
C867 O866 1.252 . S
C867 O868 1.252 . S
O868 Zn850 1.975 . S
O868 C867 1.252 . S
H869 C862 0.930 . S
H870 C863 0.930 . S
C871 C872 1.392 1_556 S
C871 N875 1.328 1_556 S
C871 H877 0.930 . S
C872 C871 1.392 1_554 S
C872 N876 1.331 . S
C873 C874 1.391 . S
C873 N876 1.329 . S
C873 H883 0.930 . S
C874 C873 1.391 . S
C874 N875 1.334 . S
C874 H881 0.930 . S
N875 Zn859 2.119 1_554 S
N875 C871 1.328 1_554 S
N875 C874 1.334 . S
N876 C872 1.331 . S
N876 C873 1.329 . S
H877 C871 0.930 . S
C878 O858 1.257 . S
C878 O879 1.244 . S
O879 C878 1.244 . S
O880 C856 1.257 . S
O880 Zn859 2.019 . S
H881 C874 0.930 . S
H882 C861 0.930 . S
H883 C873 0.930 . S
Zn884 N888 2.020 . S
Zn884 O892 2.019 . S
Zn884 N894 2.119 . S
Zn884 O902 1.975 . S
C885 N886 1.334 . S
C885 N889 1.336 . S
N886 C885 1.334 . S
N886 C887 1.334 . S
C887 N886 1.334 . S
C887 N888 1.336 . S
N888 Zn884 2.020 . S
N888 C887 1.336 . S
N888 N889 1.354 . S
N889 C885 1.336 . S
N889 N888 1.354 . S
N889 Zn893 2.020 . S
C890 O891 1.244 . S
C890 O914 1.257 . S
O891 C890 1.244 . S
O892 Zn884 2.019 . S
O892 C912 1.257 . S
Zn893 N889 2.020 . S
Zn893 O900 1.975 . S
Zn893 N909 2.119 . S
Zn893 O914 2.019 1_554 S
N894 Zn884 2.119 . S
N894 C896 1.334 . S
N894 C897 1.328 . S
C895 C896 1.391 . S
C895 N898 1.329 . S
C895 H916 0.930 . S
C896 N894 1.334 . S
C896 C895 1.391 . S
C896 H903 0.930 . S
C897 N894 1.328 . S
C897 C899 1.392 . S
C897 H904 0.930 . S
N898 C895 1.329 . S
N898 C899 1.331 . S
C899 C897 1.392 . S
C899 N898 1.331 . S
O900 Zn893 1.975 . S
O900 C901 1.252 . S
C901 O900 1.252 . S
C901 O902 1.252 . S
O902 Zn884 1.975 . S
O902 C901 1.252 . S
H903 C896 0.930 . S
H904 C897 0.930 . S
C905 C906 1.392 . S
C905 N909 1.328 . S
C905 H911 0.930 1_554 S
C906 C905 1.392 . S
C906 N910 1.331 . S
C907 C908 1.391 . S
C907 N910 1.329 . S
C907 H917 0.930 . S
C908 C907 1.391 . S
C908 N909 1.334 . S
C908 H915 0.930 . S
N909 Zn893 2.119 . S
N909 C905 1.328 . S
N909 C908 1.334 . S
N910 C906 1.331 . S
N910 C907 1.329 . S
H911 C905 0.930 1_556 S
C912 O892 1.257 . S
C912 O913 1.244 . S
O913 C912 1.244 . S
O914 C890 1.257 . S
O914 Zn893 2.019 1_556 S
H915 C908 0.930 . S
H916 C895 0.930 . S
H917 C907 0.930 . S
Zn918 N922 2.020 . S
Zn918 O926 2.019 1_564 S
Zn918 N928 2.119 . S
Zn918 O936 1.975 1_565 S
C919 N920 1.334 . S
C919 N923 1.336 . S
N920 C919 1.334 . S
N920 C921 1.334 . S
C921 N920 1.334 . S
C921 N922 1.336 . S
N922 Zn918 2.020 . S
N922 C921 1.336 . S
N922 N923 1.354 . S
N923 C919 1.336 . S
N923 N922 1.354 . S
N923 Zn927 2.020 . S
C924 O925 1.244 . S
C924 O948 1.257 1_565 S
O925 C924 1.244 . S
O926 Zn918 2.019 1_546 S
O926 C946 1.257 1_545 S
Zn927 N923 2.020 . S
Zn927 O934 1.975 1_565 S
Zn927 N943 2.119 . S
Zn927 O948 2.019 1_565 S
N928 Zn918 2.119 . S
N928 C930 1.338 . S
N928 C931 1.328 . S
C929 C930 1.385 1_545 S
C929 N932 1.329 . S
C929 H950 0.930 . S
C930 N928 1.338 . S
C930 C929 1.385 1_565 S
C930 H937 0.934 . S
C931 N928 1.328 . S
C931 C933 1.392 1_565 S
C931 H938 0.930 1_554 S
N932 C929 1.329 . S
N932 C933 1.331 . S
C933 C931 1.392 1_545 S
C933 N932 1.331 . S
O934 Zn927 1.975 1_545 S
O934 C935 1.252 . S
C935 O934 1.252 . S
C935 O936 1.252 . S
O936 Zn918 1.975 1_545 S
O936 C935 1.252 . S
H937 C930 0.934 . S
H938 C931 0.930 1_556 S
C939 C940 1.387 1_565 S
C939 N943 1.330 . S
C939 H945 0.934 . S
C940 C939 1.387 1_545 S
C940 N944 1.331 . S
C941 C942 1.397 . S
C941 N944 1.329 . S
C941 H951 0.930 . S
C942 C941 1.397 . S
C942 N943 1.331 1_545 S
C942 H949 0.927 1_545 S
N943 Zn927 2.119 . S
N943 C939 1.330 . S
N943 C942 1.331 1_565 S
N944 C940 1.331 . S
N944 C941 1.329 . S
H945 C939 0.934 . S
C946 O926 1.257 1_565 S
C946 O947 1.244 . S
O947 C946 1.244 . S
O948 C924 1.257 1_545 S
O948 Zn927 2.019 1_545 S
H949 C942 0.927 1_565 S
H950 C929 0.930 . S
H951 C941 0.930 . S
Zn952 N956 2.020 . S
Zn952 O960 2.019 1_545 S
Zn952 N962 2.119 . S
Zn952 O970 1.975 1_545 S
C953 N954 1.334 . S
C953 N957 1.336 . S
N954 C953 1.334 . S
N954 C955 1.334 . S
C955 N954 1.334 . S
C955 N956 1.336 . S
N956 Zn952 2.020 . S
N956 C955 1.336 . S
N956 N957 1.354 . S
N957 C953 1.336 . S
N957 N956 1.354 . S
N957 Zn961 2.020 1_556 S
C958 O959 1.244 . S
C958 O982 1.257 1_545 S
O959 C958 1.244 . S
O960 Zn952 2.019 1_565 S
O960 C980 1.257 1_565 S
Zn961 N957 2.020 1_554 S
Zn961 O968 1.975 1_544 S
Zn961 N977 2.119 1_554 S
Zn961 O982 2.019 1_545 S
N962 Zn952 2.119 . S
N962 C964 1.338 . S
N962 C965 1.328 . S
C963 C964 1.385 1_565 S
C963 N966 1.329 . S
C963 H984 0.930 . S
C964 N962 1.338 . S
C964 C963 1.385 1_545 S
C964 H971 0.934 . S
C965 N962 1.328 . S
C965 C967 1.392 1_545 S
C965 H972 0.930 . S
N966 C963 1.329 . S
N966 C967 1.331 . S
C967 C965 1.392 1_565 S
C967 N966 1.331 . S
O968 Zn961 1.975 1_566 S
O968 C969 1.252 . S
C969 O968 1.252 . S
C969 O970 1.252 . S
O970 Zn952 1.975 1_565 S
O970 C969 1.252 . S
H971 C964 0.934 . S
H972 C965 0.930 . S
C973 C974 1.387 1_544 S
C973 N977 1.330 1_554 S
C973 H979 0.934 . S
C974 C973 1.387 1_566 S
C974 N978 1.331 . S
C975 C976 1.397 . S
C975 N978 1.329 . S
C975 H985 0.930 . S
C976 C975 1.397 . S
C976 N977 1.331 1_565 S
C976 H983 0.927 1_565 S
N977 Zn961 2.119 1_556 S
N977 C973 1.330 1_556 S
N977 C976 1.331 1_545 S
N978 C974 1.331 . S
N978 C975 1.329 . S
H979 C973 0.934 . S
C980 O960 1.257 1_545 S
C980 O981 1.244 . S
O981 C980 1.244 . S
O982 C958 1.257 1_565 S
O982 Zn961 2.019 1_565 S
H983 C976 0.927 1_545 S
H984 C963 0.930 . S
H985 C975 0.930 . S
Zn986 N990 2.020 . S
Zn986 O994 2.019 . S
Zn986 N996 2.119 . S
Zn986 O1004 1.975 . S
C987 N988 1.334 . S
C987 N991 1.336 . S
N988 C987 1.334 . S
N988 C989 1.334 . S
C989 N988 1.334 . S
C989 N990 1.336 . S
N990 Zn986 2.020 . S
N990 C989 1.336 . S
N990 N991 1.354 . S
N991 C987 1.336 . S
N991 N990 1.354 . S
N991 Zn995 2.020 1_556 S
C992 O993 1.244 . S
C992 O1016 1.257 . S
O993 C992 1.244 . S
O994 Zn986 2.019 . S
O994 C1014 1.257 . S
Zn995 N991 2.020 1_554 S
Zn995 O1002 1.975 1_554 S
Zn995 N1011 2.119 1_554 S
Zn995 O1016 2.019 . S
N996 Zn986 2.119 . S
N996 C998 1.334 . S
N996 C999 1.328 . S
C997 C998 1.391 . S
C997 N1000 1.329 . S
C997 H1018 0.930 . S
C998 N996 1.334 . S
C998 C997 1.391 . S
C998 H1005 0.930 . S
C999 N996 1.328 . S
C999 C1001 1.392 . S
C999 H1006 0.930 . S
N1000 C997 1.329 . S
N1000 C1001 1.331 . S
C1001 C999 1.392 . S
C1001 N1000 1.331 . S
O1002 Zn995 1.975 1_556 S
O1002 C1003 1.252 . S
C1003 O1002 1.252 . S
C1003 O1004 1.252 . S
O1004 Zn986 1.975 . S
O1004 C1003 1.252 . S
H1005 C998 0.930 . S
H1006 C999 0.930 . S
C1007 C1008 1.392 1_554 S
C1007 N1011 1.328 1_554 S
C1007 H1013 0.930 . S
C1008 C1007 1.392 1_556 S
C1008 N1012 1.331 . S
C1009 C1010 1.391 . S
C1009 N1012 1.329 . S
C1009 H1019 0.930 . S
C1010 C1009 1.391 . S
C1010 N1011 1.334 . S
C1010 H1017 0.930 . S
N1011 Zn995 2.119 1_556 S
N1011 C1007 1.328 1_556 S
N1011 C1010 1.334 . S
N1012 C1008 1.331 . S
N1012 C1009 1.329 . S
H1013 C1007 0.930 . S
C1014 O994 1.257 . S
C1014 O1015 1.244 . S
O1015 C1014 1.244 . S
O1016 C992 1.257 . S
O1016 Zn995 2.019 . S
H1017 C1010 0.930 . S
H1018 C997 0.930 . S
H1019 C1009 0.930 . S
Zn1020 N1024 2.020 . S
Zn1020 O1028 2.019 1_556 S
Zn1020 N1030 2.119 . S
Zn1020 O1038 1.975 . S
C1021 N1022 1.334 . S
C1021 N1025 1.336 . S
N1022 C1021 1.334 . S
N1022 C1023 1.334 . S
C1023 N1022 1.334 . S
C1023 N1024 1.336 . S
N1024 Zn1020 2.020 . S
N1024 C1023 1.336 . S
N1024 N1025 1.354 . S
N1025 C1021 1.336 . S
N1025 N1024 1.354 . S
N1025 Zn1029 2.020 . S
C1026 O1027 1.244 . S
C1026 O1050 1.257 . S
O1027 C1026 1.244 . S
O1028 Zn1020 2.019 1_554 S
O1028 C1048 1.257 . S
Zn1029 N1025 2.020 . S
Zn1029 O1036 1.975 . S
Zn1029 N1045 2.119 . S
Zn1029 O1050 2.019 . S
N1030 Zn1020 2.119 . S
N1030 C1032 1.334 . S
N1030 C1033 1.328 . S
C1031 C1032 1.391 . S
C1031 N1034 1.329 . S
C1031 H1052 0.930 . S
C1032 N1030 1.334 . S
C1032 C1031 1.391 . S
C1032 H1039 0.930 . S
C1033 N1030 1.328 . S
C1033 C1035 1.392 . S
C1033 H1040 0.930 1_556 S
N1034 C1031 1.329 . S
N1034 C1035 1.331 . S
C1035 C1033 1.392 . S
C1035 N1034 1.331 . S
O1036 Zn1029 1.975 . S
O1036 C1037 1.252 . S
C1037 O1036 1.252 . S
C1037 O1038 1.252 . S
O1038 Zn1020 1.975 . S
O1038 C1037 1.252 . S
H1039 C1032 0.930 . S
H1040 C1033 0.930 1_554 S
C1041 C1042 1.392 . S
C1041 N1045 1.328 . S
C1041 H1047 0.930 . S
C1042 C1041 1.392 . S
C1042 N1046 1.331 . S
C1043 C1044 1.391 . S
C1043 N1046 1.329 . S
C1043 H1053 0.930 . S
C1044 C1043 1.391 . S
C1044 N1045 1.334 . S
C1044 H1051 0.930 . S
N1045 Zn1029 2.119 . S
N1045 C1041 1.328 . S
N1045 C1044 1.334 . S
N1046 C1042 1.331 . S
N1046 C1043 1.329 . S
H1047 C1041 0.930 . S
C1048 O1028 1.257 . S
C1048 O1049 1.244 . S
O1049 C1048 1.244 . S
O1050 C1026 1.257 . S
O1050 Zn1029 2.019 . S
H1051 C1044 0.930 . S
H1052 C1031 0.930 . S
H1053 C1043 0.930 . S
Zn1054 N1058 2.020 . S
Zn1054 O1062 2.019 1_545 S
Zn1054 N1064 2.119 . S
Zn1054 O1072 1.975 1_545 S
C1055 N1056 1.334 . S
C1055 N1059 1.336 . S
N1056 C1055 1.334 . S
N1056 C1057 1.334 . S
C1057 N1056 1.334 . S
C1057 N1058 1.336 . S
N1058 Zn1054 2.020 . S
N1058 C1057 1.336 . S
N1058 N1059 1.354 . S
N1059 C1055 1.336 . S
N1059 N1058 1.354 . S
N1059 Zn1063 2.020 . S
C1060 O1061 1.244 . S
C1060 O1084 1.257 1_545 S
O1061 C1060 1.244 . S
O1062 Zn1054 2.019 1_565 S
O1062 C1082 1.257 1_565 S
Zn1063 N1059 2.020 . S
Zn1063 O1070 1.975 1_545 S
Zn1063 N1079 2.119 . S
Zn1063 O1084 2.019 1_546 S
N1064 Zn1054 2.119 . S
N1064 C1066 1.331 1_545 S
N1064 C1067 1.330 . S
C1065 C1066 1.397 . S
C1065 N1068 1.329 . S
C1065 H1086 0.930 . S
C1066 N1064 1.331 1_565 S
C1066 C1065 1.397 . S
C1066 H1073 0.927 1_565 S
C1067 N1064 1.330 . S
C1067 C1069 1.387 1_545 S
C1067 H1074 0.934 . S
N1068 C1065 1.329 . S
N1068 C1069 1.331 . S
C1069 C1067 1.387 1_565 S
C1069 N1068 1.331 . S
O1070 Zn1063 1.975 1_565 S
O1070 C1071 1.252 . S
C1071 O1070 1.252 . S
C1071 O1072 1.252 . S
O1072 Zn1054 1.975 1_565 S
O1072 C1071 1.252 . S
H1073 C1066 0.927 1_545 S
H1074 C1067 0.934 . S
C1075 C1076 1.392 1_545 S
C1075 N1079 1.328 . S
C1075 H1081 0.930 1_556 S
C1076 C1075 1.392 1_565 S
C1076 N1080 1.331 . S
C1077 C1078 1.385 1_565 S
C1077 N1080 1.329 . S
C1077 H1087 0.930 . S
C1078 C1077 1.385 1_545 S
C1078 N1079 1.338 . S
C1078 H1085 0.934 . S
N1079 Zn1063 2.119 . S
N1079 C1075 1.328 . S
N1079 C1078 1.338 . S
N1080 C1076 1.331 . S
N1080 C1077 1.329 . S
H1081 C1075 0.930 1_554 S
C1082 O1062 1.257 1_545 S
C1082 O1083 1.244 . S
O1083 C1082 1.244 . S
O1084 C1060 1.257 1_565 S
O1084 Zn1063 2.019 1_564 S
H1085 C1078 0.934 . S
H1086 C1065 0.930 . S
H1087 C1077 0.930 . S
H1088 C1094 0.930 . S
H1089 C1097 0.930 . S
H1090 C1098 0.930 . S
H1091 C1099 0.930 . S
H1092 C1102 0.930 . S
H1093 C1103 0.930 . S
C1094 H1088 0.930 . S
C1094 C1095 1.355 . S
C1094 C1096 1.415 . S
C1095 C1094 1.355 . S
C1095 C1097 1.419 . S
C1096 C1094 1.415 . S
C1096 C1101 1.425 . S
C1096 C1103 1.409 . S
C1097 H1089 0.930 . S
C1097 C1095 1.419 . S
C1097 C1098 1.362 . S
C1098 H1090 0.930 . S
C1098 C1097 1.362 . S
C1098 C1101 1.409 . S
C1099 H1091 0.930 . S
C1099 C1100 1.355 . S
C1099 C1101 1.415 . S
C1100 C1099 1.355 . S
C1100 C1102 1.419 . S
C1101 C1096 1.425 . S
C1101 C1098 1.409 . S
C1101 C1099 1.415 . S
C1102 H1092 0.930 . S
C1102 C1100 1.419 . S
C1102 C1103 1.362 . S
C1103 H1093 0.930 . S
C1103 C1096 1.409 . S
C1103 C1102 1.362 . S
H1104 C1110 0.930 . S
H1105 C1113 0.930 . S
H1106 C1114 0.930 . S
H1107 C1115 0.930 . S
H1108 C1118 0.930 . S
H1109 C1119 0.930 . S
C1110 H1104 0.930 . S
C1110 C1111 1.355 . S
C1110 C1112 1.415 . S
C1111 C1110 1.355 . S
C1111 C1113 1.419 . S
C1112 C1110 1.415 . S
C1112 C1117 1.425 . S
C1112 C1119 1.409 . S
C1113 H1105 0.930 . S
C1113 C1111 1.419 . S
C1113 C1114 1.362 . S
C1114 H1106 0.930 . S
C1114 C1113 1.362 . S
C1114 C1117 1.409 . S
C1115 H1107 0.930 . S
C1115 C1116 1.355 . S
C1115 C1117 1.415 . S
C1116 C1115 1.355 . S
C1116 C1118 1.419 . S
C1117 C1112 1.425 . S
C1117 C1114 1.409 . S
C1117 C1115 1.415 . S
C1118 H1108 0.930 . S
C1118 C1116 1.419 . S
C1118 C1119 1.362 . S
C1119 H1109 0.930 . S
C1119 C1112 1.409 . S
C1119 C1118 1.362 . S
H1120 C1126 0.930 . S
H1121 C1129 0.930 . S
H1122 C1130 0.930 . S
H1123 C1131 0.930 . S
H1124 C1134 0.930 1_554 S
H1125 C1135 0.930 1_554 S
C1126 H1120 0.930 . S
C1126 C1127 1.355 . S
C1126 C1128 1.415 . S
C1127 C1126 1.355 . S
C1127 C1129 1.419 . S
C1128 C1126 1.415 . S
C1128 C1133 1.425 . S
C1128 C1135 1.409 . S
C1129 H1121 0.930 . S
C1129 C1127 1.419 . S
C1129 C1130 1.362 . S
C1130 H1122 0.930 . S
C1130 C1129 1.362 . S
C1130 C1133 1.409 . S
C1131 H1123 0.930 . S
C1131 C1132 1.355 . S
C1131 C1133 1.415 . S
C1132 C1131 1.355 . S
C1132 C1134 1.419 . S
C1133 C1128 1.425 . S
C1133 C1130 1.409 . S
C1133 C1131 1.415 . S
C1134 H1124 0.930 1_556 S
C1134 C1132 1.419 . S
C1134 C1135 1.362 . S
C1135 H1125 0.930 1_556 S
C1135 C1128 1.409 . S
C1135 C1134 1.362 . S
H1136 C1142 0.930 . S
H1137 C1145 0.930 . S
H1138 C1146 0.930 . S
H1139 C1147 0.930 . S
H1140 C1150 0.930 1_554 S
H1141 C1151 0.930 1_554 S
C1142 H1136 0.930 . S
C1142 C1143 1.355 . S
C1142 C1144 1.415 . S
C1143 C1142 1.355 . S
C1143 C1145 1.419 . S
C1144 C1142 1.415 . S
C1144 C1149 1.425 . S
C1144 C1151 1.409 . S
C1145 H1137 0.930 . S
C1145 C1143 1.419 . S
C1145 C1146 1.362 . S
C1146 H1138 0.930 . S
C1146 C1145 1.362 . S
C1146 C1149 1.409 . S
C1147 H1139 0.930 . S
C1147 C1148 1.355 . S
C1147 C1149 1.415 . S
C1148 C1147 1.355 . S
C1148 C1150 1.419 . S
C1149 C1144 1.425 . S
C1149 C1146 1.409 . S
C1149 C1147 1.415 . S
C1150 H1140 0.930 1_556 S
C1150 C1148 1.419 . S
C1150 C1151 1.362 . S
C1151 H1141 0.930 1_556 S
C1151 C1144 1.409 . S
C1151 C1150 1.362 . S
H1152 C1158 0.930 . S
H1153 C1161 0.930 . S
H1154 C1162 0.930 . S
H1155 C1163 0.930 . S
H1156 C1166 0.930 . S
H1157 C1167 0.930 . S
C1158 H1152 0.930 . S
C1158 C1159 1.355 . S
C1158 C1160 1.415 . S
C1159 C1158 1.355 . S
C1159 C1161 1.419 . S
C1160 C1158 1.415 . S
C1160 C1165 1.425 . S
C1160 C1167 1.409 . S
C1161 H1153 0.930 . S
C1161 C1159 1.419 . S
C1161 C1162 1.362 . S
C1162 H1154 0.930 . S
C1162 C1161 1.362 . S
C1162 C1165 1.409 . S
C1163 H1155 0.930 . S
C1163 C1164 1.355 . S
C1163 C1165 1.415 . S
C1164 C1163 1.355 . S
C1164 C1166 1.419 . S
C1165 C1160 1.425 . S
C1165 C1162 1.409 . S
C1165 C1163 1.415 . S
C1166 H1156 0.930 . S
C1166 C1164 1.419 . S
C1166 C1167 1.362 . S
C1167 H1157 0.930 . S
C1167 C1160 1.409 . S
C1167 C1166 1.362 . S
H1168 C1174 0.930 . S
H1169 C1177 0.930 . S
H1170 C1178 0.930 . S
H1171 C1179 0.930 . S
H1172 C1182 0.930 . S
H1173 C1183 0.930 . S
C1174 H1168 0.930 . S
C1174 C1175 1.355 . S
C1174 C1176 1.415 . S
C1175 C1174 1.355 . S
C1175 C1177 1.419 . S
C1176 C1174 1.415 . S
C1176 C1181 1.425 . S
C1176 C1183 1.409 . S
C1177 H1169 0.930 . S
C1177 C1175 1.419 . S
C1177 C1178 1.362 . S
C1178 H1170 0.930 . S
C1178 C1177 1.362 . S
C1178 C1181 1.409 . S
C1179 H1171 0.930 . S
C1179 C1180 1.355 . S
C1179 C1181 1.415 . S
C1180 C1179 1.355 . S
C1180 C1182 1.419 . S
C1181 C1176 1.425 . S
C1181 C1178 1.409 . S
C1181 C1179 1.415 . S
C1182 H1172 0.930 . S
C1182 C1180 1.419 . S
C1182 C1183 1.362 . S
C1183 H1173 0.930 . S
C1183 C1176 1.409 . S
C1183 C1182 1.362 . S
H1184 C1190 0.930 . S
H1185 C1193 0.930 . S
H1186 C1194 0.930 . S
H1187 C1195 0.930 . S
H1188 C1198 0.930 . S
H1189 C1199 0.930 . S
C1190 H1184 0.930 . S
C1190 C1191 1.355 . S
C1190 C1192 1.415 . S
C1191 C1190 1.355 . S
C1191 C1193 1.419 . S
C1192 C1190 1.415 . S
C1192 C1197 1.425 . S
C1192 C1199 1.409 . S
C1193 H1185 0.930 . S
C1193 C1191 1.419 . S
C1193 C1194 1.362 . S
C1194 H1186 0.930 . S
C1194 C1193 1.362 . S
C1194 C1197 1.409 . S
C1195 H1187 0.930 . S
C1195 C1196 1.355 . S
C1195 C1197 1.415 . S
C1196 C1195 1.355 . S
C1196 C1198 1.419 . S
C1197 C1192 1.425 . S
C1197 C1194 1.409 . S
C1197 C1195 1.415 . S
C1198 H1188 0.930 . S
C1198 C1196 1.419 . S
C1198 C1199 1.362 . S
C1199 H1189 0.930 . S
C1199 C1192 1.409 . S
C1199 C1198 1.362 . S
H1200 C1206 0.930 . S
H1201 C1209 0.930 . S
H1202 C1210 0.930 . S
H1203 C1211 0.930 . S
H1204 C1214 0.930 . S
H1205 C1215 0.930 . S
C1206 H1200 0.930 . S
C1206 C1207 1.355 . S
C1206 C1208 1.415 . S
C1207 C1206 1.355 . S
C1207 C1209 1.419 . S
C1208 C1206 1.415 . S
C1208 C1213 1.425 . S
C1208 C1215 1.409 . S
C1209 H1201 0.930 . S
C1209 C1207 1.419 . S
C1209 C1210 1.362 . S
C1210 H1202 0.930 . S
C1210 C1209 1.362 . S
C1210 C1213 1.409 . S
C1211 H1203 0.930 . S
C1211 C1212 1.355 . S
C1211 C1213 1.415 . S
C1212 C1211 1.355 . S
C1212 C1214 1.419 . S
C1213 C1208 1.425 . S
C1213 C1210 1.409 . S
C1213 C1211 1.415 . S
C1214 H1204 0.930 . S
C1214 C1212 1.419 . S
C1214 C1215 1.362 . S
C1215 H1205 0.930 . S
C1215 C1208 1.409 . S
C1215 C1214 1.362 . S
H1216 C1222 0.930 . S
H1217 C1225 0.930 . S
H1218 C1226 0.930 . S
H1219 C1227 0.930 . S
H1220 C1230 0.930 . S
H1221 C1231 0.930 . S
C1222 H1216 0.930 . S
C1222 C1223 1.355 . S
C1222 C1224 1.415 . S
C1223 C1222 1.355 . S
C1223 C1225 1.419 . S
C1224 C1222 1.415 . S
C1224 C1229 1.425 . S
C1224 C1231 1.409 . S
C1225 H1217 0.930 . S
C1225 C1223 1.419 . S
C1225 C1226 1.362 . S
C1226 H1218 0.930 . S
C1226 C1225 1.362 . S
C1226 C1229 1.409 . S
C1227 H1219 0.930 . S
C1227 C1228 1.355 . S
C1227 C1229 1.415 . S
C1228 C1227 1.355 . S
C1228 C1230 1.419 . S
C1229 C1224 1.425 . S
C1229 C1226 1.409 . S
C1229 C1227 1.415 . S
C1230 H1220 0.930 . S
C1230 C1228 1.419 . S
C1230 C1231 1.362 . S
C1231 H1221 0.930 . S
C1231 C1224 1.409 . S
C1231 C1230 1.362 . S
H1232 C1238 0.930 . S
H1233 C1241 0.930 . S
H1234 C1242 0.930 . S
H1235 C1243 0.930 . S
H1236 C1246 0.930 . S
H1237 C1247 0.930 . S
C1238 H1232 0.930 . S
C1238 C1239 1.355 . S
C1238 C1240 1.415 . S
C1239 C1238 1.355 . S
C1239 C1241 1.419 . S
C1240 C1238 1.415 . S
C1240 C1245 1.425 . S
C1240 C1247 1.409 . S
C1241 H1233 0.930 . S
C1241 C1239 1.419 . S
C1241 C1242 1.362 . S
C1242 H1234 0.930 . S
C1242 C1241 1.362 . S
C1242 C1245 1.409 . S
C1243 H1235 0.930 . S
C1243 C1244 1.355 . S
C1243 C1245 1.415 . S
C1244 C1243 1.355 . S
C1244 C1246 1.419 . S
C1245 C1240 1.425 . S
C1245 C1242 1.409 . S
C1245 C1243 1.415 . S
C1246 H1236 0.930 . S
C1246 C1244 1.419 . S
C1246 C1247 1.362 . S
C1247 H1237 0.930 . S
C1247 C1240 1.409 . S
C1247 C1246 1.362 . S
H1248 C1254 0.930 . S
H1249 C1257 0.930 . S
H1250 C1258 0.930 . S
H1251 C1259 0.930 . S
H1252 C1262 0.930 . S
H1253 C1263 0.930 . S
C1254 H1248 0.930 . S
C1254 C1255 1.355 . S
C1254 C1256 1.415 . S
C1255 C1254 1.355 . S
C1255 C1257 1.419 . S
C1256 C1254 1.415 . S
C1256 C1261 1.425 . S
C1256 C1263 1.409 . S
C1257 H1249 0.930 . S
C1257 C1255 1.419 . S
C1257 C1258 1.362 . S
C1258 H1250 0.930 . S
C1258 C1257 1.362 . S
C1258 C1261 1.409 . S
C1259 H1251 0.930 . S
C1259 C1260 1.355 . S
C1259 C1261 1.415 . S
C1260 C1259 1.355 . S
C1260 C1262 1.419 . S
C1261 C1256 1.425 . S
C1261 C1258 1.409 . S
C1261 C1259 1.415 . S
C1262 H1252 0.930 . S
C1262 C1260 1.419 . S
C1262 C1263 1.362 . S
C1263 H1253 0.930 . S
C1263 C1256 1.409 . S
C1263 C1262 1.362 . S
H1264 C1270 0.930 . S
H1265 C1273 0.930 . S
H1266 C1274 0.930 . S
H1267 C1275 0.930 . S
H1268 C1278 0.930 . S
H1269 C1279 0.930 . S
C1270 H1264 0.930 . S
C1270 C1271 1.355 . S
C1270 C1272 1.415 . S
C1271 C1270 1.355 . S
C1271 C1273 1.419 . S
C1272 C1270 1.415 . S
C1272 C1277 1.425 . S
C1272 C1279 1.409 . S
C1273 H1265 0.930 . S
C1273 C1271 1.419 . S
C1273 C1274 1.362 . S
C1274 H1266 0.930 . S
C1274 C1273 1.362 . S
C1274 C1277 1.409 . S
C1275 H1267 0.930 . S
C1275 C1276 1.355 . S
C1275 C1277 1.415 . S
C1276 C1275 1.355 . S
C1276 C1278 1.419 . S
C1277 C1272 1.425 . S
C1277 C1274 1.409 . S
C1277 C1275 1.415 . S
C1278 H1268 0.930 . S
C1278 C1276 1.419 . S
C1278 C1279 1.362 . S
C1279 H1269 0.930 . S
C1279 C1272 1.409 . S
C1279 C1278 1.362 . S
H1280 C1286 0.930 . S
H1281 C1289 0.930 . S
H1282 C1290 0.930 . S
H1283 C1291 0.930 . S
H1284 C1294 0.930 . S
H1285 C1295 0.930 . S
C1286 H1280 0.930 . S
C1286 C1287 1.355 . S
C1286 C1288 1.415 . S
C1287 C1286 1.355 . S
C1287 C1289 1.419 . S
C1288 C1286 1.415 . S
C1288 C1293 1.425 . S
C1288 C1295 1.409 . S
C1289 H1281 0.930 . S
C1289 C1287 1.419 . S
C1289 C1290 1.362 . S
C1290 H1282 0.930 . S
C1290 C1289 1.362 . S
C1290 C1293 1.409 . S
C1291 H1283 0.930 . S
C1291 C1292 1.355 . S
C1291 C1293 1.415 . S
C1292 C1291 1.355 . S
C1292 C1294 1.419 . S
C1293 C1288 1.425 . S
C1293 C1290 1.409 . S
C1293 C1291 1.415 . S
C1294 H1284 0.930 . S
C1294 C1292 1.419 . S
C1294 C1295 1.362 . S
C1295 H1285 0.930 . S
C1295 C1288 1.409 . S
C1295 C1294 1.362 . S
H1296 C1302 0.930 . S
H1297 C1305 0.930 . S
H1298 C1306 0.930 . S
H1299 C1307 0.930 . S
H1300 C1310 0.930 . S
H1301 C1311 0.930 . S
C1302 H1296 0.930 . S
C1302 C1303 1.355 . S
C1302 C1304 1.415 . S
C1303 C1302 1.355 . S
C1303 C1305 1.419 . S
C1304 C1302 1.415 . S
C1304 C1309 1.425 . S
C1304 C1311 1.409 . S
C1305 H1297 0.930 . S
C1305 C1303 1.419 . S
C1305 C1306 1.362 . S
C1306 H1298 0.930 . S
C1306 C1305 1.362 . S
C1306 C1309 1.409 . S
C1307 H1299 0.930 . S
C1307 C1308 1.355 . S
C1307 C1309 1.415 . S
C1308 C1307 1.355 . S
C1308 C1310 1.419 . S
C1309 C1304 1.425 . S
C1309 C1306 1.409 . S
C1309 C1307 1.415 . S
C1310 H1300 0.930 . S
C1310 C1308 1.419 . S
C1310 C1311 1.362 . S
C1311 H1301 0.930 . S
C1311 C1304 1.409 . S
C1311 C1310 1.362 . S
H1312 C1318 0.930 . S
H1313 C1321 0.930 . S
H1314 C1322 0.930 . S
H1315 C1323 0.930 . S
H1316 C1326 0.930 . S
H1317 C1327 0.930 . S
C1318 H1312 0.930 . S
C1318 C1319 1.355 . S
C1318 C1320 1.415 . S
C1319 C1318 1.355 . S
C1319 C1321 1.419 . S
C1320 C1318 1.415 . S
C1320 C1325 1.425 . S
C1320 C1327 1.409 . S
C1321 H1313 0.930 . S
C1321 C1319 1.419 . S
C1321 C1322 1.362 . S
C1322 H1314 0.930 . S
C1322 C1321 1.362 . S
C1322 C1325 1.409 . S
C1323 H1315 0.930 . S
C1323 C1324 1.355 . S
C1323 C1325 1.415 . S
C1324 C1323 1.355 . S
C1324 C1326 1.419 . S
C1325 C1320 1.425 . S
C1325 C1322 1.409 . S
C1325 C1323 1.415 . S
C1326 H1316 0.930 . S
C1326 C1324 1.419 . S
C1326 C1327 1.362 . S
C1327 H1317 0.930 . S
C1327 C1320 1.409 . S
C1327 C1326 1.362 . S
H1328 C1334 0.930 . S
H1329 C1337 0.930 . S
H1330 C1338 0.930 . S
H1331 C1339 0.930 . S
H1332 C1342 0.930 . S
H1333 C1343 0.930 1_554 S
C1334 H1328 0.930 . S
C1334 C1335 1.355 . S
C1334 C1336 1.415 . S
C1335 C1334 1.355 . S
C1335 C1337 1.419 . S
C1336 C1334 1.415 . S
C1336 C1341 1.425 . S
C1336 C1343 1.409 . S
C1337 H1329 0.930 . S
C1337 C1335 1.419 . S
C1337 C1338 1.362 . S
C1338 H1330 0.930 . S
C1338 C1337 1.362 . S
C1338 C1341 1.409 . S
C1339 H1331 0.930 . S
C1339 C1340 1.355 . S
C1339 C1341 1.415 . S
C1340 C1339 1.355 . S
C1340 C1342 1.419 . S
C1341 C1336 1.425 . S
C1341 C1338 1.409 . S
C1341 C1339 1.415 . S
C1342 H1332 0.930 . S
C1342 C1340 1.419 . S
C1342 C1343 1.362 . S
C1343 H1333 0.930 1_556 S
C1343 C1336 1.409 . S
C1343 C1342 1.362 . S
H1344 C1350 0.930 . S
H1345 C1353 0.929 1_556 S
H1346 C1354 0.930 . S
H1347 C1355 0.930 . S
H1348 C1358 0.929 1_554 S
H1349 C1359 0.930 . S
C1350 H1344 0.930 . S
C1350 C1351 1.355 . S
C1350 C1352 1.415 . S
C1351 C1350 1.355 . S
C1351 C1353 1.421 . S
C1352 C1350 1.415 . S
C1352 C1357 1.425 1_654 S
C1352 C1359 1.409 1_655 S
C1353 H1345 0.929 1_554 S
C1353 C1351 1.421 . S
C1353 C1354 1.361 1_554 S
C1354 H1346 0.930 . S
C1354 C1353 1.361 1_556 S
C1354 C1357 1.409 1_655 S
C1355 H1347 0.930 . S
C1355 C1356 1.355 . S
C1355 C1357 1.415 . S
C1356 C1355 1.355 . S
C1356 C1358 1.421 . S
C1357 C1352 1.425 1_456 S
C1357 C1354 1.409 1_455 S
C1357 C1355 1.415 . S
C1358 H1348 0.929 1_556 S
C1358 C1356 1.421 . S
C1358 C1359 1.361 1_556 S
C1359 H1349 0.930 . S
C1359 C1352 1.409 1_455 S
C1359 C1358 1.361 1_554 S
H1360 C1366 0.930 . S
H1361 C1369 0.930 . S
H1362 C1370 0.930 . S
H1363 C1371 0.930 . S
H1364 C1374 0.930 . S
H1365 C1375 0.930 . S
C1366 H1360 0.930 . S
C1366 C1367 1.355 . S
C1366 C1368 1.415 . S
C1367 C1366 1.355 . S
C1367 C1369 1.419 1_554 S
C1368 C1366 1.415 . S
C1368 C1373 1.425 1_554 S
C1368 C1375 1.409 . S
C1369 H1361 0.930 . S
C1369 C1367 1.419 1_556 S
C1369 C1370 1.362 . S
C1370 H1362 0.930 . S
C1370 C1369 1.362 . S
C1370 C1373 1.409 . S
C1371 H1363 0.930 . S
C1371 C1372 1.355 . S
C1371 C1373 1.415 . S
C1372 C1371 1.355 . S
C1372 C1374 1.419 1_556 S
C1373 C1368 1.425 1_556 S
C1373 C1370 1.409 . S
C1373 C1371 1.415 . S
C1374 H1364 0.930 . S
C1374 C1372 1.419 1_554 S
C1374 C1375 1.362 . S
C1375 H1365 0.930 . S
C1375 C1368 1.409 . S
C1375 C1374 1.362 . S
H1376 C1382 0.930 . S
H1377 C1385 0.930 . S
H1378 C1386 0.930 . S
H1379 C1387 0.930 . S
H1380 C1390 0.930 . S
H1381 C1391 0.930 . S
C1382 H1376 0.930 . S
C1382 C1383 1.355 . S
C1382 C1384 1.415 . S
C1383 C1382 1.355 . S
C1383 C1385 1.419 . S
C1384 C1382 1.415 . S
C1384 C1389 1.425 1_455 S
C1384 C1391 1.409 1_455 S
C1385 H1377 0.930 . S
C1385 C1383 1.419 . S
C1385 C1386 1.362 . S
C1386 H1378 0.930 . S
C1386 C1385 1.362 . S
C1386 C1389 1.409 1_455 S
C1387 H1379 0.930 . S
C1387 C1388 1.355 . S
C1387 C1389 1.415 . S
C1388 C1387 1.355 . S
C1388 C1390 1.419 . S
C1389 C1384 1.425 1_655 S
C1389 C1386 1.409 1_655 S
C1389 C1387 1.415 . S
C1390 H1380 0.930 . S
C1390 C1388 1.419 . S
C1390 C1391 1.362 . S
C1391 H1381 0.930 . S
C1391 C1384 1.409 1_655 S
C1391 C1390 1.362 . S
H1392 C1398 0.930 . S
H1393 C1401 0.930 . S
H1394 C1402 0.930 . S
H1395 C1403 0.930 . S
H1396 C1406 0.930 . S
H1397 C1407 0.930 . S
C1398 H1392 0.930 . S
C1398 C1399 1.355 . S
C1398 C1400 1.415 . S
C1399 C1398 1.355 . S
C1399 C1401 1.419 . S
C1400 C1398 1.415 . S
C1400 C1405 1.425 . S
C1400 C1407 1.409 . S
C1401 H1393 0.930 . S
C1401 C1399 1.419 . S
C1401 C1402 1.362 . S
C1402 H1394 0.930 . S
C1402 C1401 1.362 . S
C1402 C1405 1.409 . S
C1403 H1395 0.930 . S
C1403 C1404 1.355 . S
C1403 C1405 1.415 . S
C1404 C1403 1.355 . S
C1404 C1406 1.419 . S
C1405 C1400 1.425 . S
C1405 C1402 1.409 . S
C1405 C1403 1.415 . S
C1406 H1396 0.930 . S
C1406 C1404 1.419 . S
C1406 C1407 1.362 . S
C1407 H1397 0.930 . S
C1407 C1400 1.409 . S
C1407 C1406 1.362 . S
H1408 C1414 0.930 . S
H1409 C1417 0.930 . S
H1410 C1418 0.930 . S
H1411 C1419 0.930 . S
H1412 C1422 0.930 . S
H1413 C1423 0.930 . S
C1414 H1408 0.930 . S
C1414 C1415 1.355 . S
C1414 C1416 1.415 . S
C1415 C1414 1.355 . S
C1415 C1417 1.419 1_556 S
C1416 C1414 1.415 . S
C1416 C1421 1.425 1_556 S
C1416 C1423 1.409 . S
C1417 H1409 0.930 . S
C1417 C1415 1.419 1_554 S
C1417 C1418 1.362 . S
C1418 H1410 0.930 . S
C1418 C1417 1.362 . S
C1418 C1421 1.409 . S
C1419 H1411 0.930 . S
C1419 C1420 1.355 . S
C1419 C1421 1.415 . S
C1420 C1419 1.355 . S
C1420 C1422 1.419 1_554 S
C1421 C1416 1.425 1_554 S
C1421 C1418 1.409 . S
C1421 C1419 1.415 . S
C1422 H1412 0.930 . S
C1422 C1420 1.419 1_556 S
C1422 C1423 1.362 . S
C1423 H1413 0.930 . S
C1423 C1416 1.409 . S
C1423 C1422 1.362 . S
H1424 C1430 0.930 . S
H1425 C1433 0.930 . S
H1426 C1434 0.930 . S
H1427 C1435 0.930 . S
H1428 C1438 0.930 . S
H1429 C1439 0.930 . S
C1430 H1424 0.930 . S
C1430 C1431 1.355 . S
C1430 C1432 1.415 . S
C1431 C1430 1.355 . S
C1431 C1433 1.419 . S
C1432 C1430 1.415 . S
C1432 C1437 1.425 1_655 S
C1432 C1439 1.409 1_655 S
C1433 H1425 0.930 . S
C1433 C1431 1.419 . S
C1433 C1434 1.362 . S
C1434 H1426 0.930 . S
C1434 C1433 1.362 . S
C1434 C1437 1.409 1_655 S
C1435 H1427 0.930 . S
C1435 C1436 1.355 . S
C1435 C1437 1.415 . S
C1436 C1435 1.355 . S
C1436 C1438 1.419 . S
C1437 C1432 1.425 1_455 S
C1437 C1434 1.409 1_455 S
C1437 C1435 1.415 . S
C1438 H1428 0.930 . S
C1438 C1436 1.419 . S
C1438 C1439 1.362 . S
C1439 H1429 0.930 . S
C1439 C1432 1.409 1_455 S
C1439 C1438 1.362 . S
H1440 C1446 0.930 . S
H1441 C1449 0.930 . S
H1442 C1450 0.930 . S
H1443 C1451 0.930 . S
H1444 C1454 0.930 . S
H1445 C1455 0.930 . S
C1446 H1440 0.930 . S
C1446 C1447 1.355 . S
C1446 C1448 1.415 . S
C1447 C1446 1.355 . S
C1447 C1449 1.419 . S
C1448 C1446 1.415 . S
C1448 C1453 1.425 . S
C1448 C1455 1.409 . S
C1449 H1441 0.930 . S
C1449 C1447 1.419 . S
C1449 C1450 1.362 . S
C1450 H1442 0.930 . S
C1450 C1449 1.362 . S
C1450 C1453 1.409 . S
C1451 H1443 0.930 . S
C1451 C1452 1.355 . S
C1451 C1453 1.415 . S
C1452 C1451 1.355 . S
C1452 C1454 1.419 . S
C1453 C1448 1.425 . S
C1453 C1450 1.409 . S
C1453 C1451 1.415 . S
C1454 H1444 0.930 . S
C1454 C1452 1.419 . S
C1454 C1455 1.362 . S
C1455 H1445 0.930 . S
C1455 C1448 1.409 . S
C1455 C1454 1.362 . S
H1456 C1462 0.930 . S
H1457 C1465 0.930 . S
H1458 C1466 0.930 . S
H1459 C1467 0.930 . S
H1460 C1470 0.930 . S
H1461 C1471 0.930 . S
C1462 H1456 0.930 . S
C1462 C1463 1.355 1_545 S
C1462 C1464 1.415 . S
C1463 C1462 1.355 1_565 S
C1463 C1465 1.419 . S
C1464 C1462 1.415 . S
C1464 C1469 1.425 1_645 S
C1464 C1471 1.409 1_655 S
C1465 H1457 0.930 . S
C1465 C1463 1.419 . S
C1465 C1466 1.362 . S
C1466 H1458 0.930 . S
C1466 C1465 1.362 . S
C1466 C1469 1.409 1_655 S
C1467 H1459 0.930 . S
C1467 C1468 1.355 1_565 S
C1467 C1469 1.415 . S
C1468 C1467 1.355 1_545 S
C1468 C1470 1.419 . S
C1469 C1464 1.425 1_465 S
C1469 C1466 1.409 1_455 S
C1469 C1467 1.415 . S
C1470 H1460 0.930 . S
C1470 C1468 1.419 . S
C1470 C1471 1.362 . S
C1471 H1461 0.930 . S
C1471 C1464 1.409 1_455 S
C1471 C1470 1.362 . S
H1472 C1478 0.930 . S
H1473 C1481 0.930 . S
H1474 C1482 0.930 . S
H1475 C1483 0.930 . S
H1476 C1486 0.930 . S
H1477 C1487 0.930 . S
C1478 H1472 0.930 . S
C1478 C1479 1.355 . S
C1478 C1480 1.415 . S
C1479 C1478 1.355 . S
C1479 C1481 1.419 . S
C1480 C1478 1.415 . S
C1480 C1485 1.425 . S
C1480 C1487 1.409 . S
C1481 H1473 0.930 . S
C1481 C1479 1.419 . S
C1481 C1482 1.362 . S
C1482 H1474 0.930 . S
C1482 C1481 1.362 . S
C1482 C1485 1.409 . S
C1483 H1475 0.930 . S
C1483 C1484 1.355 . S
C1483 C1485 1.415 . S
C1484 C1483 1.355 . S
C1484 C1486 1.419 . S
C1485 C1480 1.425 . S
C1485 C1482 1.409 . S
C1485 C1483 1.415 . S
C1486 H1476 0.930 . S
C1486 C1484 1.419 . S
C1486 C1487 1.362 . S
C1487 H1477 0.930 . S
C1487 C1480 1.409 . S
C1487 C1486 1.362 . S
H1488 C1494 0.930 . S
H1489 C1497 0.930 . S
H1490 C1498 0.930 . S
H1491 C1499 0.930 . S
H1492 C1502 0.930 . S
H1493 C1503 0.930 . S
C1494 H1488 0.930 . S
C1494 C1495 1.355 . S
C1494 C1496 1.415 . S
C1495 C1494 1.355 . S
C1495 C1497 1.419 1_565 S
C1496 C1494 1.415 . S
C1496 C1501 1.425 1_565 S
C1496 C1503 1.409 . S
C1497 H1489 0.930 . S
C1497 C1495 1.419 1_545 S
C1497 C1498 1.362 . S
C1498 H1490 0.930 . S
C1498 C1497 1.362 . S
C1498 C1501 1.409 . S
C1499 H1491 0.930 . S
C1499 C1500 1.355 . S
C1499 C1501 1.415 . S
C1500 C1499 1.355 . S
C1500 C1502 1.419 1_545 S
C1501 C1496 1.425 1_545 S
C1501 C1498 1.409 . S
C1501 C1499 1.415 . S
C1502 H1492 0.930 . S
C1502 C1500 1.419 1_565 S
C1502 C1503 1.362 . S
C1503 H1493 0.930 . S
C1503 C1496 1.409 . S
C1503 C1502 1.362 . S
H1504 C1510 0.930 . S
H1505 C1513 0.930 . S
H1506 C1514 0.930 . S
H1507 C1515 0.930 . S
H1508 C1518 0.930 . S
H1509 C1519 0.930 . S
C1510 H1504 0.930 . S
C1510 C1511 1.355 . S
C1510 C1512 1.415 . S
C1511 C1510 1.355 . S
C1511 C1513 1.419 . S
C1512 C1510 1.415 . S
C1512 C1517 1.425 . S
C1512 C1519 1.409 . S
C1513 H1505 0.930 . S
C1513 C1511 1.419 . S
C1513 C1514 1.362 . S
C1514 H1506 0.930 . S
C1514 C1513 1.362 . S
C1514 C1517 1.409 . S
C1515 H1507 0.930 . S
C1515 C1516 1.355 . S
C1515 C1517 1.415 . S
C1516 C1515 1.355 . S
C1516 C1518 1.419 . S
C1517 C1512 1.425 . S
C1517 C1514 1.409 . S
C1517 C1515 1.415 . S
C1518 H1508 0.930 . S
C1518 C1516 1.419 . S
C1518 C1519 1.362 . S
C1519 H1509 0.930 . S
C1519 C1512 1.409 . S
C1519 C1518 1.362 . S
H1520 C1526 0.930 . S
H1521 C1529 0.930 . S
H1522 C1530 0.930 . S
H1523 C1531 0.930 . S
H1524 C1534 0.930 . S
H1525 C1535 0.930 . S
C1526 H1520 0.930 . S
C1526 C1527 1.370 . S
C1526 C1528 1.415 . S
C1527 C1526 1.370 . S
C1527 C1529 1.399 1_545 S
C1528 C1526 1.415 . S
C1528 C1533 1.425 1_545 S
C1528 C1535 1.409 . S
C1529 H1521 0.930 . S
C1529 C1527 1.399 1_565 S
C1529 C1530 1.362 . S
C1530 H1522 0.930 . S
C1530 C1529 1.362 . S
C1530 C1533 1.409 . S
C1531 H1523 0.930 . S
C1531 C1532 1.370 . S
C1531 C1533 1.415 . S
C1532 C1531 1.370 . S
C1532 C1534 1.399 1_565 S
C1533 C1528 1.425 1_565 S
C1533 C1530 1.409 . S
C1533 C1531 1.415 . S
C1534 H1524 0.930 . S
C1534 C1532 1.399 1_545 S
C1534 C1535 1.362 . S
C1535 H1525 0.930 . S
C1535 C1528 1.409 . S
C1535 C1534 1.362 . S
H1536 C1542 0.930 . S
H1537 C1545 0.930 . S
H1538 C1546 0.930 . S
H1539 C1547 0.930 . S
H1540 C1550 0.930 . S
H1541 C1551 0.930 . S
C1542 H1536 0.930 . S
C1542 C1543 1.355 . S
C1542 C1544 1.415 . S
C1543 C1542 1.355 . S
C1543 C1545 1.419 . S
C1544 C1542 1.415 . S
C1544 C1549 1.425 . S
C1544 C1551 1.409 . S
C1545 H1537 0.930 . S
C1545 C1543 1.419 . S
C1545 C1546 1.362 . S
C1546 H1538 0.930 . S
C1546 C1545 1.362 . S
C1546 C1549 1.409 . S
C1547 H1539 0.930 . S
C1547 C1548 1.355 . S
C1547 C1549 1.415 . S
C1548 C1547 1.355 . S
C1548 C1550 1.419 . S
C1549 C1544 1.425 . S
C1549 C1546 1.409 . S
C1549 C1547 1.415 . S
C1550 H1540 0.930 . S
C1550 C1548 1.419 . S
C1550 C1551 1.362 . S
C1551 H1541 0.930 . S
C1551 C1544 1.409 . S
C1551 C1550 1.362 . S
H1552 C1558 0.930 . S
H1553 C1561 0.930 . S
H1554 C1562 0.930 . S
H1555 C1563 0.930 . S
H1556 C1566 0.930 . S
H1557 C1567 0.930 . S
C1558 H1552 0.930 . S
C1558 C1559 1.355 . S
C1558 C1560 1.415 . S
C1559 C1558 1.355 . S
C1559 C1561 1.419 . S
C1560 C1558 1.415 . S
C1560 C1565 1.425 . S
C1560 C1567 1.409 . S
C1561 H1553 0.930 . S
C1561 C1559 1.419 . S
C1561 C1562 1.362 . S
C1562 H1554 0.930 . S
C1562 C1561 1.362 . S
C1562 C1565 1.409 . S
C1563 H1555 0.930 . S
C1563 C1564 1.355 . S
C1563 C1565 1.415 . S
C1564 C1563 1.355 . S
C1564 C1566 1.419 . S
C1565 C1560 1.425 . S
C1565 C1562 1.409 . S
C1565 C1563 1.415 . S
C1566 H1556 0.930 . S
C1566 C1564 1.419 . S
C1566 C1567 1.362 . S
C1567 H1557 0.930 . S
C1567 C1560 1.409 . S
C1567 C1566 1.362 . S
H1568 C1574 0.930 . S
H1569 C1577 0.930 . S
H1570 C1578 0.930 . S
H1571 C1579 0.930 . S
H1572 C1582 0.930 . S
H1573 C1583 0.930 . S
C1574 H1568 0.930 . S
C1574 C1575 1.355 . S
C1574 C1576 1.415 . S
C1575 C1574 1.355 . S
C1575 C1577 1.419 . S
C1576 C1574 1.415 . S
C1576 C1581 1.425 . S
C1576 C1583 1.409 . S
C1577 H1569 0.930 . S
C1577 C1575 1.419 . S
C1577 C1578 1.362 . S
C1578 H1570 0.930 . S
C1578 C1577 1.362 . S
C1578 C1581 1.409 . S
C1579 H1571 0.930 . S
C1579 C1580 1.355 . S
C1579 C1581 1.415 . S
C1580 C1579 1.355 . S
C1580 C1582 1.419 . S
C1581 C1576 1.425 . S
C1581 C1578 1.409 . S
C1581 C1579 1.415 . S
C1582 H1572 0.930 . S
C1582 C1580 1.419 . S
C1582 C1583 1.362 . S
C1583 H1573 0.930 . S
C1583 C1576 1.409 . S
C1583 C1582 1.362 . S
H1584 C1590 0.930 . S
H1585 C1593 0.930 . S
H1586 C1594 0.930 . S
H1587 C1595 0.930 . S
H1588 C1598 0.930 . S
H1589 C1599 0.930 . S
C1590 H1584 0.930 . S
C1590 C1591 1.355 1_556 S
C1590 C1592 1.415 . S
C1591 C1590 1.355 1_554 S
C1591 C1593 1.419 1_565 S
C1592 C1590 1.415 . S
C1592 C1597 1.425 1_566 S
C1592 C1599 1.409 . S
C1593 H1585 0.930 . S
C1593 C1591 1.419 1_545 S
C1593 C1594 1.362 . S
C1594 H1586 0.930 . S
C1594 C1593 1.362 . S
C1594 C1597 1.409 . S
C1595 H1587 0.930 . S
C1595 C1596 1.355 1_554 S
C1595 C1597 1.415 . S
C1596 C1595 1.355 1_556 S
C1596 C1598 1.419 1_545 S
C1597 C1592 1.425 1_544 S
C1597 C1594 1.409 . S
C1597 C1595 1.415 . S
C1598 H1588 0.930 . S
C1598 C1596 1.419 1_565 S
C1598 C1599 1.362 . S
C1599 H1589 0.930 . S
C1599 C1592 1.409 . S
C1599 C1598 1.362 . S
H1600 C1606 0.930 . S
H1601 C1609 0.930 . S
H1602 C1610 0.930 . S
H1603 C1611 0.930 . S
H1604 C1614 0.930 . S
H1605 C1615 0.930 . S
C1606 H1600 0.930 . S
C1606 C1607 1.355 . S
C1606 C1608 1.415 . S
C1607 C1606 1.355 . S
C1607 C1609 1.419 . S
C1608 C1606 1.415 . S
C1608 C1613 1.425 . S
C1608 C1615 1.409 . S
C1609 H1601 0.930 . S
C1609 C1607 1.419 . S
C1609 C1610 1.362 . S
C1610 H1602 0.930 . S
C1610 C1609 1.362 . S
C1610 C1613 1.409 . S
C1611 H1603 0.930 . S
C1611 C1612 1.355 . S
C1611 C1613 1.415 . S
C1612 C1611 1.355 . S
C1612 C1614 1.419 . S
C1613 C1608 1.425 . S
C1613 C1610 1.409 . S
C1613 C1611 1.415 . S
C1614 H1604 0.930 . S
C1614 C1612 1.419 . S
C1614 C1615 1.362 . S
C1615 H1605 0.930 . S
C1615 C1608 1.409 . S
C1615 C1614 1.362 . S
H1616 C1622 0.930 . S
H1617 C1625 0.930 . S
H1618 C1626 0.930 . S
H1619 C1627 0.930 . S
H1620 C1630 0.930 . S
H1621 C1631 0.930 . S
C1622 H1616 0.930 . S
C1622 C1623 1.355 . S
C1622 C1624 1.415 . S
C1623 C1622 1.355 . S
C1623 C1625 1.419 . S
C1624 C1622 1.415 . S
C1624 C1629 1.425 . S
C1624 C1631 1.409 . S
C1625 H1617 0.930 . S
C1625 C1623 1.419 . S
C1625 C1626 1.362 . S
C1626 H1618 0.930 . S
C1626 C1625 1.362 . S
C1626 C1629 1.409 . S
C1627 H1619 0.930 . S
C1627 C1628 1.355 . S
C1627 C1629 1.415 . S
C1628 C1627 1.355 . S
C1628 C1630 1.419 . S
C1629 C1624 1.425 . S
C1629 C1626 1.409 . S
C1629 C1627 1.415 . S
C1630 H1620 0.930 . S
C1630 C1628 1.419 . S
C1630 C1631 1.362 . S
C1631 H1621 0.930 . S
C1631 C1624 1.409 . S
C1631 C1630 1.362 . S
H1632 C1638 0.930 . S
H1633 C1641 0.930 . S
H1634 C1642 0.930 . S
H1635 C1643 0.930 1_554 S
H1636 C1646 0.930 . S
H1637 C1647 0.930 . S
C1638 H1632 0.930 . S
C1638 C1639 1.355 . S
C1638 C1640 1.415 . S
C1639 C1638 1.355 . S
C1639 C1641 1.419 . S
C1640 C1638 1.415 . S
C1640 C1645 1.425 . S
C1640 C1647 1.409 . S
C1641 H1633 0.930 . S
C1641 C1639 1.419 . S
C1641 C1642 1.362 . S
C1642 H1634 0.930 . S
C1642 C1641 1.362 . S
C1642 C1645 1.409 . S
C1643 H1635 0.930 1_556 S
C1643 C1644 1.355 . S
C1643 C1645 1.415 . S
C1644 C1643 1.355 . S
C1644 C1646 1.419 . S
C1645 C1640 1.425 . S
C1645 C1642 1.409 . S
C1645 C1643 1.415 . S
C1646 H1636 0.930 . S
C1646 C1644 1.419 . S
C1646 C1647 1.362 . S
C1647 H1637 0.930 . S
C1647 C1640 1.409 . S
C1647 C1646 1.362 . S
H1648 C1654 0.930 . S
H1649 C1657 0.930 . S
H1650 C1658 0.930 . S
H1651 C1659 0.930 . S
H1652 C1662 0.930 . S
H1653 C1663 0.930 . S
C1654 H1648 0.930 . S
C1654 C1655 1.355 . S
C1654 C1656 1.415 . S
C1655 C1654 1.355 . S
C1655 C1657 1.419 . S
C1656 C1654 1.415 . S
C1656 C1661 1.425 . S
C1656 C1663 1.409 . S
C1657 H1649 0.930 . S
C1657 C1655 1.419 . S
C1657 C1658 1.362 . S
C1658 H1650 0.930 . S
C1658 C1657 1.362 . S
C1658 C1661 1.409 . S
C1659 H1651 0.930 . S
C1659 C1660 1.355 . S
C1659 C1661 1.415 . S
C1660 C1659 1.355 . S
C1660 C1662 1.419 1_556 S
C1661 C1656 1.425 . S
C1661 C1658 1.409 . S
C1661 C1659 1.415 . S
C1662 H1652 0.930 . S
C1662 C1660 1.419 1_554 S
C1662 C1663 1.362 1_554 S
C1663 H1653 0.930 . S
C1663 C1656 1.409 . S
C1663 C1662 1.362 1_556 S
H1664 C1670 0.930 . S
H1665 C1673 0.930 . S
H1666 C1674 0.930 . S
H1667 C1675 0.930 . S
H1668 C1678 0.930 . S
H1669 C1679 0.930 . S
C1670 H1664 0.930 . S
C1670 C1671 1.355 . S
C1670 C1672 1.415 . S
C1671 C1670 1.355 . S
C1671 C1673 1.419 . S
C1672 C1670 1.415 . S
C1672 C1677 1.425 . S
C1672 C1679 1.409 . S
C1673 H1665 0.930 . S
C1673 C1671 1.419 . S
C1673 C1674 1.362 . S
C1674 H1666 0.930 . S
C1674 C1673 1.362 . S
C1674 C1677 1.409 . S
C1675 H1667 0.930 . S
C1675 C1676 1.355 . S
C1675 C1677 1.415 . S
C1676 C1675 1.355 . S
C1676 C1678 1.419 . S
C1677 C1672 1.425 . S
C1677 C1674 1.409 . S
C1677 C1675 1.415 . S
C1678 H1668 0.930 . S
C1678 C1676 1.419 . S
C1678 C1679 1.362 . S
C1679 H1669 0.930 . S
C1679 C1672 1.409 . S
C1679 C1678 1.362 . S
H1680 C1686 0.930 . S
H1681 C1689 0.930 . S
H1682 C1690 0.930 . S
H1683 C1691 0.930 . S
H1684 C1694 0.930 . S
H1685 C1695 0.930 . S
C1686 H1680 0.930 . S
C1686 C1687 1.355 . S
C1686 C1688 1.415 . S
C1687 C1686 1.355 . S
C1687 C1689 1.419 . S
C1688 C1686 1.415 . S
C1688 C1693 1.425 . S
C1688 C1695 1.409 . S
C1689 H1681 0.930 . S
C1689 C1687 1.419 . S
C1689 C1690 1.362 . S
C1690 H1682 0.930 . S
C1690 C1689 1.362 . S
C1690 C1693 1.409 . S
C1691 H1683 0.930 . S
C1691 C1692 1.355 . S
C1691 C1693 1.415 . S
C1692 C1691 1.355 . S
C1692 C1694 1.419 . S
C1693 C1688 1.425 . S
C1693 C1690 1.409 . S
C1693 C1691 1.415 . S
C1694 H1684 0.930 . S
C1694 C1692 1.419 . S
C1694 C1695 1.362 . S
C1695 H1685 0.930 . S
C1695 C1688 1.409 . S
C1695 C1694 1.362 . S
H1696 C1702 0.930 1_556 S
H1697 C1705 0.930 . S
H1698 C1706 0.930 . S
H1699 C1707 0.930 . S
H1700 C1710 0.930 . S
H1701 C1711 0.930 . S
C1702 H1696 0.930 1_554 S
C1702 C1703 1.355 . S
C1702 C1704 1.415 . S
C1703 C1702 1.355 . S
C1703 C1705 1.419 . S
C1704 C1702 1.415 . S
C1704 C1709 1.425 . S
C1704 C1711 1.409 . S
C1705 H1697 0.930 . S
C1705 C1703 1.419 . S
C1705 C1706 1.362 . S
C1706 H1698 0.930 . S
C1706 C1705 1.362 . S
C1706 C1709 1.409 . S
C1707 H1699 0.930 . S
C1707 C1708 1.355 . S
C1707 C1709 1.415 . S
C1708 C1707 1.355 . S
C1708 C1710 1.419 . S
C1709 C1704 1.425 . S
C1709 C1706 1.409 . S
C1709 C1707 1.415 . S
C1710 H1700 0.930 . S
C1710 C1708 1.419 . S
C1710 C1711 1.362 . S
C1711 H1701 0.930 . S
C1711 C1704 1.409 . S
C1711 C1710 1.362 . S
H1712 C1718 0.930 . S
H1713 C1721 0.930 . S
H1714 C1722 0.930 . S
H1715 C1723 0.930 . S
H1716 C1726 0.930 . S
H1717 C1727 0.931 . S
C1718 H1712 0.930 . S
C1718 C1719 1.355 . S
C1718 C1720 1.415 . S
C1719 C1718 1.355 . S
C1719 C1721 1.419 . S
C1720 C1718 1.415 . S
C1720 C1725 1.425 . S
C1720 C1727 1.409 . S
C1721 H1713 0.930 . S
C1721 C1719 1.419 . S
C1721 C1722 1.362 . S
C1722 H1714 0.930 . S
C1722 C1721 1.362 . S
C1722 C1725 1.409 . S
C1723 H1715 0.930 . S
C1723 C1724 1.355 . S
C1723 C1725 1.415 . S
C1724 C1723 1.355 . S
C1724 C1726 1.419 1_554 S
C1725 C1720 1.425 . S
C1725 C1722 1.409 . S
C1725 C1723 1.415 . S
C1726 H1716 0.930 . S
C1726 C1724 1.419 1_556 S
C1726 C1727 1.362 1_556 S
C1727 H1717 0.931 . S
C1727 C1720 1.409 . S
C1727 C1726 1.362 1_554 S
H1728 C1734 0.930 . S
H1729 C1737 0.930 . S
H1730 C1738 0.930 . S
H1731 C1739 0.930 1_554 S
H1732 C1742 0.930 . S
H1733 C1743 0.930 . S
C1734 H1728 0.930 . S
C1734 C1735 1.355 . S
C1734 C1736 1.415 . S
C1735 C1734 1.355 . S
C1735 C1737 1.419 . S
C1736 C1734 1.415 . S
C1736 C1741 1.425 . S
C1736 C1743 1.409 . S
C1737 H1729 0.930 . S
C1737 C1735 1.419 . S
C1737 C1738 1.362 . S
C1738 H1730 0.930 . S
C1738 C1737 1.362 . S
C1738 C1741 1.409 . S
C1739 H1731 0.930 1_556 S
C1739 C1740 1.355 . S
C1739 C1741 1.415 . S
C1740 C1739 1.355 . S
C1740 C1742 1.419 . S
C1741 C1736 1.425 . S
C1741 C1738 1.409 . S
C1741 C1739 1.415 . S
C1742 H1732 0.930 . S
C1742 C1740 1.419 . S
C1742 C1743 1.362 . S
C1743 H1733 0.930 . S
C1743 C1736 1.409 . S
C1743 C1742 1.362 . S
H1744 C1750 0.930 1_554 S
H1745 C1753 0.930 . S
H1746 C1754 0.930 . S
H1747 C1755 0.930 . S
H1748 C1758 0.930 . S
H1749 C1759 0.930 . S
C1750 H1744 0.930 1_556 S
C1750 C1751 1.355 . S
C1750 C1752 1.415 . S
C1751 C1750 1.355 . S
C1751 C1753 1.419 . S
C1752 C1750 1.415 . S
C1752 C1757 1.425 . S
C1752 C1759 1.409 . S
C1753 H1745 0.930 . S
C1753 C1751 1.419 . S
C1753 C1754 1.362 . S
C1754 H1746 0.930 . S
C1754 C1753 1.362 . S
C1754 C1757 1.409 . S
C1755 H1747 0.930 . S
C1755 C1756 1.355 . S
C1755 C1757 1.415 . S
C1756 C1755 1.355 . S
C1756 C1758 1.419 . S
C1757 C1752 1.425 . S
C1757 C1754 1.409 . S
C1757 C1755 1.415 . S
C1758 H1748 0.930 . S
C1758 C1756 1.419 . S
C1758 C1759 1.362 . S
C1759 H1749 0.930 . S
C1759 C1752 1.409 . S
C1759 C1758 1.362 . S
H1760 C1766 0.930 . S
H1761 C1769 0.930 . S
H1762 C1770 0.930 . S
H1763 C1771 0.930 . S
H1764 C1774 0.930 . S
H1765 C1775 0.930 . S
C1766 H1760 0.930 . S
C1766 C1767 1.355 . S
C1766 C1768 1.415 . S
C1767 C1766 1.355 . S
C1767 C1769 1.419 . S
C1768 C1766 1.415 . S
C1768 C1773 1.425 . S
C1768 C1775 1.409 . S
C1769 H1761 0.930 . S
C1769 C1767 1.419 . S
C1769 C1770 1.362 . S
C1770 H1762 0.930 . S
C1770 C1769 1.362 . S
C1770 C1773 1.409 . S
C1771 H1763 0.930 . S
C1771 C1772 1.355 . S
C1771 C1773 1.415 . S
C1772 C1771 1.355 . S
C1772 C1774 1.419 . S
C1773 C1768 1.425 . S
C1773 C1770 1.409 . S
C1773 C1771 1.415 . S
C1774 H1764 0.930 . S
C1774 C1772 1.419 . S
C1774 C1775 1.362 . S
C1775 H1765 0.930 . S
C1775 C1768 1.409 . S
C1775 C1774 1.362 . S
H1776 C1782 0.930 . S
H1777 C1785 0.930 . S
H1778 C1786 0.930 . S
H1779 C1787 0.930 . S
H1780 C1790 0.930 . S
H1781 C1791 0.930 . S
C1782 H1776 0.930 . S
C1782 C1783 1.355 . S
C1782 C1784 1.415 . S
C1783 C1782 1.355 . S
C1783 C1785 1.419 . S
C1784 C1782 1.415 . S
C1784 C1789 1.425 . S
C1784 C1791 1.409 . S
C1785 H1777 0.930 . S
C1785 C1783 1.419 . S
C1785 C1786 1.362 . S
C1786 H1778 0.930 . S
C1786 C1785 1.362 . S
C1786 C1789 1.409 . S
C1787 H1779 0.930 . S
C1787 C1788 1.355 . S
C1787 C1789 1.415 . S
C1788 C1787 1.355 . S
C1788 C1790 1.419 . S
C1789 C1784 1.425 . S
C1789 C1786 1.409 . S
C1789 C1787 1.415 . S
C1790 H1780 0.930 . S
C1790 C1788 1.419 . S
C1790 C1791 1.362 . S
C1791 H1781 0.930 . S
C1791 C1784 1.409 . S
C1791 C1790 1.362 . S
H1792 C1798 0.930 1_556 S
H1793 C1801 0.930 . S
H1794 C1802 0.930 . S
H1795 C1803 0.930 . S
H1796 C1806 0.930 . S
H1797 C1807 0.930 . S
C1798 H1792 0.930 1_554 S
C1798 C1799 1.355 . S
C1798 C1800 1.415 . S
C1799 C1798 1.355 . S
C1799 C1801 1.419 . S
C1800 C1798 1.415 . S
C1800 C1805 1.425 . S
C1800 C1807 1.409 . S
C1801 H1793 0.930 . S
C1801 C1799 1.419 . S
C1801 C1802 1.362 . S
C1802 H1794 0.930 . S
C1802 C1801 1.362 . S
C1802 C1805 1.409 . S
C1803 H1795 0.930 . S
C1803 C1804 1.355 . S
C1803 C1805 1.415 . S
C1804 C1803 1.355 . S
C1804 C1806 1.419 . S
C1805 C1800 1.425 . S
C1805 C1802 1.409 . S
C1805 C1803 1.415 . S
C1806 H1796 0.930 . S
C1806 C1804 1.419 . S
C1806 C1807 1.362 . S
C1807 H1797 0.930 . S
C1807 C1800 1.409 . S
C1807 C1806 1.362 . S
H1808 C1814 0.930 . S
H1809 C1817 0.930 . S
H1810 C1818 0.930 . S
H1811 C1819 0.930 . S
H1812 C1822 0.930 . S
H1813 C1823 0.930 . S
C1814 H1808 0.930 . S
C1814 C1815 1.355 . S
C1814 C1816 1.415 . S
C1815 C1814 1.355 . S
C1815 C1817 1.419 1_554 S
C1816 C1814 1.415 . S
C1816 C1821 1.425 . S
C1816 C1823 1.409 . S
C1817 H1809 0.930 . S
C1817 C1815 1.419 1_556 S
C1817 C1818 1.362 1_556 S
C1818 H1810 0.930 . S
C1818 C1817 1.362 1_554 S
C1818 C1821 1.409 . S
C1819 H1811 0.930 . S
C1819 C1820 1.355 . S
C1819 C1821 1.415 . S
C1820 C1819 1.355 . S
C1820 C1822 1.419 . S
C1821 C1816 1.425 . S
C1821 C1818 1.409 . S
C1821 C1819 1.415 . S
C1822 H1812 0.930 . S
C1822 C1820 1.419 . S
C1822 C1823 1.362 . S
C1823 H1813 0.930 . S
C1823 C1816 1.409 . S
C1823 C1822 1.362 . S
H1824 C1830 0.930 . S
H1825 C1833 0.930 . S
H1826 C1834 0.930 . S
H1827 C1835 0.930 . S
H1828 C1838 0.930 . S
H1829 C1839 0.930 . S
C1830 H1824 0.930 . S
C1830 C1831 1.355 . S
C1830 C1832 1.415 . S
C1831 C1830 1.355 . S
C1831 C1833 1.419 . S
C1832 C1830 1.415 . S
C1832 C1837 1.425 . S
C1832 C1839 1.409 . S
C1833 H1825 0.930 . S
C1833 C1831 1.419 . S
C1833 C1834 1.362 . S
C1834 H1826 0.930 . S
C1834 C1833 1.362 . S
C1834 C1837 1.409 . S
C1835 H1827 0.930 . S
C1835 C1836 1.355 . S
C1835 C1837 1.415 . S
C1836 C1835 1.355 . S
C1836 C1838 1.419 . S
C1837 C1832 1.425 . S
C1837 C1834 1.409 . S
C1837 C1835 1.415 . S
C1838 H1828 0.930 . S
C1838 C1836 1.419 . S
C1838 C1839 1.362 . S
C1839 H1829 0.930 . S
C1839 C1832 1.409 . S
C1839 C1838 1.362 . S
H1840 C1846 0.930 . S
H1841 C1849 0.930 . S
H1842 C1850 0.930 . S
H1843 C1851 0.930 . S
H1844 C1854 0.930 . S
H1845 C1855 0.930 . S
C1846 H1840 0.930 . S
C1846 C1847 1.355 . S
C1846 C1848 1.415 . S
C1847 C1846 1.355 . S
C1847 C1849 1.419 . S
C1848 C1846 1.415 . S
C1848 C1853 1.425 . S
C1848 C1855 1.409 . S
C1849 H1841 0.930 . S
C1849 C1847 1.419 . S
C1849 C1850 1.362 . S
C1850 H1842 0.930 . S
C1850 C1849 1.362 . S
C1850 C1853 1.409 . S
C1851 H1843 0.930 . S
C1851 C1852 1.355 . S
C1851 C1853 1.415 . S
C1852 C1851 1.355 . S
C1852 C1854 1.419 . S
C1853 C1848 1.425 . S
C1853 C1850 1.409 . S
C1853 C1851 1.415 . S
C1854 H1844 0.930 . S
C1854 C1852 1.419 . S
C1854 C1855 1.362 . S
C1855 H1845 0.930 . S
C1855 C1848 1.409 . S
C1855 C1854 1.362 . S
H1856 C1862 0.930 . S
H1857 C1865 0.930 . S
H1858 C1866 0.930 . S
H1859 C1867 0.930 . S
H1860 C1870 0.930 1_556 S
H1861 C1871 0.930 1_556 S
C1862 H1856 0.930 . S
C1862 C1863 1.355 . S
C1862 C1864 1.415 . S
C1863 C1862 1.355 . S
C1863 C1865 1.419 . S
C1864 C1862 1.415 . S
C1864 C1869 1.425 . S
C1864 C1871 1.409 . S
C1865 H1857 0.930 . S
C1865 C1863 1.419 . S
C1865 C1866 1.362 . S
C1866 H1858 0.930 . S
C1866 C1865 1.362 . S
C1866 C1869 1.409 . S
C1867 H1859 0.930 . S
C1867 C1868 1.355 . S
C1867 C1869 1.415 . S
C1868 C1867 1.355 . S
C1868 C1870 1.419 . S
C1869 C1864 1.425 . S
C1869 C1866 1.409 . S
C1869 C1867 1.415 . S
C1870 H1860 0.930 1_554 S
C1870 C1868 1.419 . S
C1870 C1871 1.362 . S
C1871 H1861 0.930 1_554 S
C1871 C1864 1.409 . S
C1871 C1870 1.362 . S
H1872 C1878 0.930 1_556 S
H1873 C1881 0.930 . S
H1874 C1882 0.930 . S
H1875 C1883 0.930 . S
H1876 C1886 0.930 . S
H1877 C1887 0.930 1_556 S
C1878 H1872 0.930 1_554 S
C1878 C1879 1.355 . S
C1878 C1880 1.415 . S
C1879 C1878 1.355 . S
C1879 C1881 1.419 . S
C1880 C1878 1.415 . S
C1880 C1885 1.425 . S
C1880 C1887 1.409 . S
C1881 H1873 0.930 . S
C1881 C1879 1.419 . S
C1881 C1882 1.362 . S
C1882 H1874 0.930 . S
C1882 C1881 1.362 . S
C1882 C1885 1.409 . S
C1883 H1875 0.930 . S
C1883 C1884 1.355 . S
C1883 C1885 1.415 . S
C1884 C1883 1.355 . S
C1884 C1886 1.419 . S
C1885 C1880 1.425 . S
C1885 C1882 1.409 . S
C1885 C1883 1.415 . S
C1886 H1876 0.930 . S
C1886 C1884 1.419 . S
C1886 C1887 1.362 . S
C1887 H1877 0.930 1_554 S
C1887 C1880 1.409 . S
C1887 C1886 1.362 . S
H1888 C1894 0.930 . S
H1889 C1897 0.930 . S
H1890 C1898 0.930 1_554 S
H1891 C1899 0.930 . S
H1892 C1902 0.930 . S
H1893 C1903 0.930 . S
C1894 H1888 0.930 . S
C1894 C1895 1.355 . S
C1894 C1896 1.415 . S
C1895 C1894 1.355 . S
C1895 C1897 1.419 1_556 S
C1896 C1894 1.415 . S
C1896 C1901 1.425 . S
C1896 C1903 1.409 . S
C1897 H1889 0.930 . S
C1897 C1895 1.419 1_554 S
C1897 C1898 1.362 1_554 S
C1898 H1890 0.930 1_556 S
C1898 C1897 1.362 1_556 S
C1898 C1901 1.409 . S
C1899 H1891 0.930 . S
C1899 C1900 1.355 . S
C1899 C1901 1.415 . S
C1900 C1899 1.355 . S
C1900 C1902 1.419 . S
C1901 C1896 1.425 . S
C1901 C1898 1.409 . S
C1901 C1899 1.415 . S
C1902 H1892 0.930 . S
C1902 C1900 1.419 . S
C1902 C1903 1.362 . S
C1903 H1893 0.930 . S
C1903 C1896 1.409 . S
C1903 C1902 1.362 . S
H1904 C1910 0.930 . S
H1905 C1913 0.930 . S
H1906 C1914 0.930 1_554 S
H1907 C1915 0.930 . S
H1908 C1918 0.930 . S
H1909 C1919 0.930 . S
C1910 H1904 0.930 . S
C1910 C1911 1.355 . S
C1910 C1912 1.415 . S
C1911 C1910 1.355 . S
C1911 C1913 1.419 1_556 S
C1912 C1910 1.415 . S
C1912 C1917 1.425 . S
C1912 C1919 1.409 . S
C1913 H1905 0.930 . S
C1913 C1911 1.419 1_554 S
C1913 C1914 1.362 1_554 S
C1914 H1906 0.930 1_556 S
C1914 C1913 1.362 1_556 S
C1914 C1917 1.409 . S
C1915 H1907 0.930 . S
C1915 C1916 1.355 . S
C1915 C1917 1.415 . S
C1916 C1915 1.355 . S
C1916 C1918 1.419 . S
C1917 C1912 1.425 . S
C1917 C1914 1.409 . S
C1917 C1915 1.415 . S
C1918 H1908 0.930 . S
C1918 C1916 1.419 . S
C1918 C1919 1.362 . S
C1919 H1909 0.930 . S
C1919 C1912 1.409 . S
C1919 C1918 1.362 . S
H1920 C1926 0.931 . S
H1921 C1929 0.930 . S
H1922 C1930 0.930 . S
H1923 C1931 0.930 . S
H1924 C1934 0.930 . S
H1925 C1935 0.930 . S
C1926 H1920 0.931 . S
C1926 C1927 1.355 . S
C1926 C1928 1.415 . S
C1927 C1926 1.355 . S
C1927 C1929 1.419 . S
C1928 C1926 1.415 . S
C1928 C1933 1.425 . S
C1928 C1935 1.409 1_545 S
C1929 H1921 0.930 . S
C1929 C1927 1.419 . S
C1929 C1930 1.362 . S
C1930 H1922 0.930 . S
C1930 C1929 1.362 . S
C1930 C1933 1.409 . S
C1931 H1923 0.930 . S
C1931 C1932 1.355 . S
C1931 C1933 1.415 . S
C1932 C1931 1.355 . S
C1932 C1934 1.419 1_545 S
C1933 C1928 1.425 . S
C1933 C1930 1.409 . S
C1933 C1931 1.415 . S
C1934 H1924 0.930 . S
C1934 C1932 1.419 1_565 S
C1934 C1935 1.362 . S
C1935 H1925 0.930 . S
C1935 C1928 1.409 1_565 S
C1935 C1934 1.362 . S
H1936 C1942 0.930 . S
H1937 C1945 0.930 . S
H1938 C1946 0.930 . S
H1939 C1947 0.930 . S
H1940 C1950 0.930 . S
H1941 C1951 0.930 . S
C1942 H1936 0.930 . S
C1942 C1943 1.355 . S
C1942 C1944 1.415 . S
C1943 C1942 1.355 . S
C1943 C1945 1.419 . S
C1944 C1942 1.415 . S
C1944 C1949 1.425 . S
C1944 C1951 1.409 . S
C1945 H1937 0.930 . S
C1945 C1943 1.419 . S
C1945 C1946 1.362 . S
C1946 H1938 0.930 . S
C1946 C1945 1.362 . S
C1946 C1949 1.409 . S
C1947 H1939 0.930 . S
C1947 C1948 1.355 . S
C1947 C1949 1.415 . S
C1948 C1947 1.355 . S
C1948 C1950 1.419 . S
C1949 C1944 1.425 . S
C1949 C1946 1.409 . S
C1949 C1947 1.415 . S
C1950 H1940 0.930 . S
C1950 C1948 1.419 . S
C1950 C1951 1.362 . S
C1951 H1941 0.930 . S
C1951 C1944 1.409 . S
C1951 C1950 1.362 . S
H1952 C1958 0.930 . S
H1953 C1961 0.930 . S
H1954 C1962 0.930 . S
H1955 C1963 0.930 . S
H1956 C1966 0.930 . S
H1957 C1967 0.930 . S
C1958 H1952 0.930 . S
C1958 C1959 1.356 . S
C1958 C1960 1.415 . S
C1959 C1958 1.356 . S
C1959 C1961 1.418 1_565 S
C1960 C1958 1.415 . S
C1960 C1965 1.425 1_565 S
C1960 C1967 1.409 . S
C1961 H1953 0.930 . S
C1961 C1959 1.418 1_545 S
C1961 C1962 1.362 . S
C1962 H1954 0.930 . S
C1962 C1961 1.362 . S
C1962 C1965 1.409 . S
C1963 H1955 0.930 . S
C1963 C1964 1.355 1_545 S
C1963 C1965 1.415 . S
C1964 C1963 1.355 1_565 S
C1964 C1966 1.419 . S
C1965 C1960 1.425 1_545 S
C1965 C1962 1.409 . S
C1965 C1963 1.415 . S
C1966 H1956 0.930 . S
C1966 C1964 1.419 . S
C1966 C1967 1.362 . S
C1967 H1957 0.930 . S
C1967 C1960 1.409 . S
C1967 C1966 1.362 . S
H1968 C1974 0.930 . S
H1969 C1977 0.930 . S
H1970 C1978 0.930 . S
H1971 C1979 0.930 . S
H1972 C1982 0.930 . S
H1973 C1983 0.930 . S
C1974 H1968 0.930 . S
C1974 C1975 1.355 . S
C1974 C1976 1.415 . S
C1975 C1974 1.355 . S
C1975 C1977 1.419 . S
C1976 C1974 1.415 . S
C1976 C1981 1.425 . S
C1976 C1983 1.409 . S
C1977 H1969 0.930 . S
C1977 C1975 1.419 . S
C1977 C1978 1.362 . S
C1978 H1970 0.930 . S
C1978 C1977 1.362 . S
C1978 C1981 1.409 . S
C1979 H1971 0.930 . S
C1979 C1980 1.355 . S
C1979 C1981 1.415 . S
C1980 C1979 1.355 . S
C1980 C1982 1.419 . S
C1981 C1976 1.425 . S
C1981 C1978 1.409 . S
C1981 C1979 1.415 . S
C1982 H1972 0.930 . S
C1982 C1980 1.419 . S
C1982 C1983 1.362 . S
C1983 H1973 0.930 . S
C1983 C1976 1.409 . S
C1983 C1982 1.362 . S
H1984 C1990 0.930 . S
H1985 C1993 0.930 . S
H1986 C1994 0.930 . S
H1987 C1995 0.930 . S
H1988 C1998 0.930 . S
H1989 C1999 0.930 . S
C1990 H1984 0.930 . S
C1990 C1991 1.355 . S
C1990 C1992 1.415 . S
C1991 C1990 1.355 . S
C1991 C1993 1.419 . S
C1992 C1990 1.415 . S
C1992 C1997 1.425 . S
C1992 C1999 1.409 . S
C1993 H1985 0.930 . S
C1993 C1991 1.419 . S
C1993 C1994 1.362 . S
C1994 H1986 0.930 . S
C1994 C1993 1.362 . S
C1994 C1997 1.409 . S
C1995 H1987 0.930 . S
C1995 C1996 1.355 . S
C1995 C1997 1.415 . S
C1996 C1995 1.355 . S
C1996 C1998 1.419 . S
C1997 C1992 1.425 . S
C1997 C1994 1.409 . S
C1997 C1995 1.415 . S
C1998 H1988 0.930 . S
C1998 C1996 1.419 . S
C1998 C1999 1.362 . S
C1999 H1989 0.930 . S
C1999 C1992 1.409 . S
C1999 C1998 1.362 . S
H2000 C2006 0.930 . S
H2001 C2009 0.930 . S
H2002 C2010 0.930 . S
H2003 C2011 0.930 . S
H2004 C2014 0.930 . S
H2005 C2015 0.930 . S
C2006 H2000 0.930 . S
C2006 C2007 1.355 . S
C2006 C2008 1.415 . S
C2007 C2006 1.355 . S
C2007 C2009 1.419 . S
C2008 C2006 1.415 . S
C2008 C2013 1.425 . S
C2008 C2015 1.409 . S
C2009 H2001 0.930 . S
C2009 C2007 1.419 . S
C2009 C2010 1.362 . S
C2010 H2002 0.930 . S
C2010 C2009 1.362 . S
C2010 C2013 1.409 . S
C2011 H2003 0.930 . S
C2011 C2012 1.355 . S
C2011 C2013 1.415 . S
C2012 C2011 1.355 . S
C2012 C2014 1.419 . S
C2013 C2008 1.425 . S
C2013 C2010 1.409 . S
C2013 C2011 1.415 . S
C2014 H2004 0.930 . S
C2014 C2012 1.419 . S
C2014 C2015 1.362 . S
C2015 H2005 0.930 . S
C2015 C2008 1.409 . S
C2015 C2014 1.362 . S
H2016 C2022 0.930 . S
H2017 C2025 0.930 . S
H2018 C2026 0.930 . S
H2019 C2027 0.930 . S
H2020 C2030 0.930 . S
H2021 C2031 0.930 . S
C2022 H2016 0.930 . S
C2022 C2023 1.355 . S
C2022 C2024 1.415 . S
C2023 C2022 1.355 . S
C2023 C2025 1.419 . S
C2024 C2022 1.415 . S
C2024 C2029 1.425 . S
C2024 C2031 1.409 . S
C2025 H2017 0.930 . S
C2025 C2023 1.419 . S
C2025 C2026 1.362 . S
C2026 H2018 0.930 . S
C2026 C2025 1.362 . S
C2026 C2029 1.409 . S
C2027 H2019 0.930 . S
C2027 C2028 1.355 . S
C2027 C2029 1.415 . S
C2028 C2027 1.355 . S
C2028 C2030 1.419 . S
C2029 C2024 1.425 . S
C2029 C2026 1.409 . S
C2029 C2027 1.415 . S
C2030 H2020 0.930 . S
C2030 C2028 1.419 . S
C2030 C2031 1.362 . S
C2031 H2021 0.930 . S
C2031 C2024 1.409 . S
C2031 C2030 1.362 . S
H2032 C2038 0.930 . S
H2033 C2041 0.930 . S
H2034 C2042 0.930 . S
H2035 C2043 0.930 . S
H2036 C2046 0.930 . S
H2037 C2047 0.930 . S
C2038 H2032 0.930 . S
C2038 C2039 1.355 . S
C2038 C2040 1.415 . S
C2039 C2038 1.355 . S
C2039 C2041 1.419 . S
C2040 C2038 1.415 . S
C2040 C2045 1.425 . S
C2040 C2047 1.409 . S
C2041 H2033 0.930 . S
C2041 C2039 1.419 . S
C2041 C2042 1.362 . S
C2042 H2034 0.930 . S
C2042 C2041 1.362 . S
C2042 C2045 1.409 . S
C2043 H2035 0.930 . S
C2043 C2044 1.355 . S
C2043 C2045 1.415 . S
C2044 C2043 1.355 . S
C2044 C2046 1.419 . S
C2045 C2040 1.425 . S
C2045 C2042 1.409 . S
C2045 C2043 1.415 . S
C2046 H2036 0.930 . S
C2046 C2044 1.419 . S
C2046 C2047 1.362 . S
C2047 H2037 0.930 . S
C2047 C2040 1.409 . S
C2047 C2046 1.362 . S
H2048 C2054 0.930 . S
H2049 C2057 0.930 . S
H2050 C2058 0.930 1_556 S
H2051 C2059 0.930 . S
H2052 C2062 0.930 . S
H2053 C2063 0.930 . S
C2054 H2048 0.930 . S
C2054 C2055 1.355 1_565 S
C2054 C2056 1.415 . S
C2055 C2054 1.355 1_545 S
C2055 C2057 1.419 1_554 S
C2056 C2054 1.415 . S
C2056 C2061 1.425 1_565 S
C2056 C2063 1.409 . S
C2057 H2049 0.930 . S
C2057 C2055 1.419 1_556 S
C2057 C2058 1.362 1_556 S
C2058 H2050 0.930 1_554 S
C2058 C2057 1.362 1_554 S
C2058 C2061 1.409 . S
C2059 H2051 0.930 . S
C2059 C2060 1.355 . S
C2059 C2061 1.415 . S
C2060 C2059 1.355 . S
C2060 C2062 1.419 1_545 S
C2061 C2056 1.425 1_545 S
C2061 C2058 1.409 . S
C2061 C2059 1.415 . S
C2062 H2052 0.930 . S
C2062 C2060 1.419 1_565 S
C2062 C2063 1.362 . S
C2063 H2053 0.930 . S
C2063 C2056 1.409 . S
C2063 C2062 1.362 . S
H2064 C2070 0.930 1_556 S
H2065 C2073 0.930 . S
H2066 C2074 0.930 . S
H2067 C2075 0.930 . S
H2068 C2078 0.930 . S
H2069 C2079 0.930 . S
C2070 H2064 0.930 1_554 S
C2070 C2071 1.355 . S
C2070 C2072 1.415 . S
C2071 C2070 1.355 . S
C2071 C2073 1.419 . S
C2072 C2070 1.415 . S
C2072 C2077 1.425 . S
C2072 C2079 1.409 . S
C2073 H2065 0.930 . S
C2073 C2071 1.419 . S
C2073 C2074 1.362 . S
C2074 H2066 0.930 . S
C2074 C2073 1.362 . S
C2074 C2077 1.409 . S
C2075 H2067 0.930 . S
C2075 C2076 1.355 . S
C2075 C2077 1.415 . S
C2076 C2075 1.355 . S
C2076 C2078 1.419 . S
C2077 C2072 1.425 . S
C2077 C2074 1.409 . S
C2077 C2075 1.415 . S
C2078 H2068 0.930 . S
C2078 C2076 1.419 . S
C2078 C2079 1.362 . S
C2079 H2069 0.930 . S
C2079 C2072 1.409 . S
C2079 C2078 1.362 . S
H2080 C2086 0.930 1_545 S
H2081 C2089 0.930 . S
H2082 C2090 0.930 . S
H2083 C2091 0.930 . S
H2084 C2094 0.930 . S
H2085 C2095 0.930 1_554 S
C2086 H2080 0.930 1_565 S
C2086 C2087 1.355 . S
C2086 C2088 1.415 1_565 S
C2087 C2086 1.355 . S
C2087 C2089 1.419 . S
C2088 C2086 1.415 1_545 S
C2088 C2093 1.426 1_545 S
C2088 C2095 1.409 . S
C2089 H2081 0.930 . S
C2089 C2087 1.419 . S
C2089 C2090 1.362 . S
C2090 H2082 0.930 . S
C2090 C2089 1.362 . S
C2090 C2093 1.409 . S
C2091 H2083 0.930 . S
C2091 C2092 1.359 . S
C2091 C2093 1.415 . S
C2092 C2091 1.359 . S
C2092 C2094 1.414 1_566 S
C2093 C2088 1.426 1_565 S
C2093 C2090 1.409 . S
C2093 C2091 1.415 . S
C2094 H2084 0.930 . S
C2094 C2092 1.414 1_544 S
C2094 C2095 1.362 1_554 S
C2095 H2085 0.930 1_556 S
C2095 C2088 1.409 . S
C2095 C2094 1.362 1_556 S
H2096 C2102 0.930 . S
H2097 C2105 0.930 . S
H2098 C2106 0.930 1_554 S
H2099 C2107 0.930 1_554 S
H2100 C2110 0.930 . S
H2101 C2111 0.930 . S
C2102 H2096 0.930 . S
C2102 C2103 1.355 . S
C2102 C2104 1.415 . S
C2103 C2102 1.355 . S
C2103 C2105 1.419 . S
C2104 C2102 1.415 . S
C2104 C2109 1.425 . S
C2104 C2111 1.409 . S
C2105 H2097 0.930 . S
C2105 C2103 1.419 . S
C2105 C2106 1.362 . S
C2106 H2098 0.930 1_556 S
C2106 C2105 1.362 . S
C2106 C2109 1.409 . S
C2107 H2099 0.930 1_556 S
C2107 C2108 1.355 . S
C2107 C2109 1.415 . S
C2108 C2107 1.355 . S
C2108 C2110 1.419 . S
C2109 C2104 1.425 . S
C2109 C2106 1.409 . S
C2109 C2107 1.415 . S
C2110 H2100 0.930 . S
C2110 C2108 1.419 . S
C2110 C2111 1.362 . S
C2111 H2101 0.930 . S
C2111 C2104 1.409 . S
C2111 C2110 1.362 . S
H2112 C2118 0.930 . S
H2113 C2121 0.930 . S
H2114 C2122 0.930 . S
H2115 C2123 0.930 1_554 S
H2116 C2126 0.930 . S
H2117 C2127 0.930 . S
C2118 H2112 0.930 . S
C2118 C2119 1.355 . S
C2118 C2120 1.415 . S
C2119 C2118 1.355 . S
C2119 C2121 1.419 . S
C2120 C2118 1.415 . S
C2120 C2125 1.425 . S
C2120 C2127 1.409 . S
C2121 H2113 0.930 . S
C2121 C2119 1.419 . S
C2121 C2122 1.362 . S
C2122 H2114 0.930 . S
C2122 C2121 1.362 . S
C2122 C2125 1.409 . S
C2123 H2115 0.930 1_556 S
C2123 C2124 1.355 . S
C2123 C2125 1.415 . S
C2124 C2123 1.355 . S
C2124 C2126 1.419 . S
C2125 C2120 1.425 . S
C2125 C2122 1.409 . S
C2125 C2123 1.415 . S
C2126 H2116 0.930 . S
C2126 C2124 1.419 . S
C2126 C2127 1.362 . S
C2127 H2117 0.930 . S
C2127 C2120 1.409 . S
C2127 C2126 1.362 . S
H2128 C2134 0.930 . S
H2129 C2137 0.930 . S
H2130 C2138 0.930 . S
H2131 C2139 0.930 1_554 S
H2132 C2142 0.930 . S
H2133 C2143 0.930 . S
C2134 H2128 0.930 . S
C2134 C2135 1.355 . S
C2134 C2136 1.415 . S
C2135 C2134 1.355 . S
C2135 C2137 1.419 . S
C2136 C2134 1.415 . S
C2136 C2141 1.425 . S
C2136 C2143 1.409 . S
C2137 H2129 0.930 . S
C2137 C2135 1.419 . S
C2137 C2138 1.362 . S
C2138 H2130 0.930 . S
C2138 C2137 1.362 . S
C2138 C2141 1.409 . S
C2139 H2131 0.930 1_556 S
C2139 C2140 1.355 . S
C2139 C2141 1.415 . S
C2140 C2139 1.355 . S
C2140 C2142 1.419 . S
C2141 C2136 1.425 . S
C2141 C2138 1.409 . S
C2141 C2139 1.415 . S
C2142 H2132 0.930 . S
C2142 C2140 1.419 . S
C2142 C2143 1.362 . S
C2143 H2133 0.930 . S
C2143 C2136 1.409 . S
C2143 C2142 1.362 . S
H2144 C2150 0.930 . S
H2145 C2153 0.930 . S
H2146 C2154 0.930 . S
H2147 C2155 0.930 . S
H2148 C2158 0.930 . S
H2149 C2159 0.930 . S
C2150 H2144 0.930 . S
C2150 C2151 1.355 . S
C2150 C2152 1.415 . S
C2151 C2150 1.355 . S
C2151 C2153 1.419 . S
C2152 C2150 1.415 . S
C2152 C2157 1.425 . S
C2152 C2159 1.409 . S
C2153 H2145 0.930 . S
C2153 C2151 1.419 . S
C2153 C2154 1.362 . S
C2154 H2146 0.930 . S
C2154 C2153 1.362 . S
C2154 C2157 1.409 . S
C2155 H2147 0.930 . S
C2155 C2156 1.355 . S
C2155 C2157 1.415 . S
C2156 C2155 1.355 . S
C2156 C2158 1.419 . S
C2157 C2152 1.425 . S
C2157 C2154 1.409 . S
C2157 C2155 1.415 . S
C2158 H2148 0.930 . S
C2158 C2156 1.419 . S
C2158 C2159 1.362 . S
C2159 H2149 0.930 . S
C2159 C2152 1.409 . S
C2159 C2158 1.362 . S
H2160 C2166 0.930 . S
H2161 C2169 0.930 . S
H2162 C2170 0.930 . S
H2163 C2171 0.930 . S
H2164 C2174 0.930 . S
H2165 C2175 0.930 . S
C2166 H2160 0.930 . S
C2166 C2167 1.355 . S
C2166 C2168 1.415 . S
C2167 C2166 1.355 . S
C2167 C2169 1.419 . S
C2168 C2166 1.415 . S
C2168 C2173 1.425 . S
C2168 C2175 1.409 . S
C2169 H2161 0.930 . S
C2169 C2167 1.419 . S
C2169 C2170 1.362 . S
C2170 H2162 0.930 . S
C2170 C2169 1.362 . S
C2170 C2173 1.409 . S
C2171 H2163 0.930 . S
C2171 C2172 1.355 . S
C2171 C2173 1.415 . S
C2172 C2171 1.355 . S
C2172 C2174 1.419 . S
C2173 C2168 1.425 . S
C2173 C2170 1.409 . S
C2173 C2171 1.415 . S
C2174 H2164 0.930 . S
C2174 C2172 1.419 . S
C2174 C2175 1.362 . S
C2175 H2165 0.930 . S
C2175 C2168 1.409 . S
C2175 C2174 1.362 . S
H2176 C2182 0.930 . S
H2177 C2185 0.930 . S
H2178 C2186 0.930 . S
H2179 C2187 0.930 . S
H2180 C2190 0.930 . S
H2181 C2191 0.930 1_556 S
C2182 H2176 0.930 . S
C2182 C2183 1.355 . S
C2182 C2184 1.415 . S
C2183 C2182 1.355 . S
C2183 C2185 1.419 . S
C2184 C2182 1.415 . S
C2184 C2189 1.425 . S
C2184 C2191 1.409 . S
C2185 H2177 0.930 . S
C2185 C2183 1.419 . S
C2185 C2186 1.362 . S
C2186 H2178 0.930 . S
C2186 C2185 1.362 . S
C2186 C2189 1.409 . S
C2187 H2179 0.930 . S
C2187 C2188 1.355 . S
C2187 C2189 1.415 . S
C2188 C2187 1.355 . S
C2188 C2190 1.419 1_554 S
C2189 C2184 1.425 . S
C2189 C2186 1.409 . S
C2189 C2187 1.415 . S
C2190 H2180 0.930 . S
C2190 C2188 1.419 1_556 S
C2190 C2191 1.362 1_556 S
C2191 H2181 0.930 1_554 S
C2191 C2184 1.409 . S
C2191 C2190 1.362 1_554 S
H2192 C2198 0.930 1_556 S
H2193 C2201 0.930 . S
H2194 C2202 0.930 . S
H2195 C2203 0.930 . S
H2196 C2206 0.930 . S
H2197 C2207 0.930 . S
C2198 H2192 0.930 1_554 S
C2198 C2199 1.355 . S
C2198 C2200 1.415 . S
C2199 C2198 1.355 . S
C2199 C2201 1.419 . S
C2200 C2198 1.415 . S
C2200 C2205 1.425 . S
C2200 C2207 1.409 . S
C2201 H2193 0.930 . S
C2201 C2199 1.419 . S
C2201 C2202 1.362 . S
C2202 H2194 0.930 . S
C2202 C2201 1.362 . S
C2202 C2205 1.409 . S
C2203 H2195 0.930 . S
C2203 C2204 1.355 . S
C2203 C2205 1.415 . S
C2204 C2203 1.355 . S
C2204 C2206 1.419 . S
C2205 C2200 1.425 . S
C2205 C2202 1.409 . S
C2205 C2203 1.415 . S
C2206 H2196 0.930 . S
C2206 C2204 1.419 . S
C2206 C2207 1.362 . S
C2207 H2197 0.930 . S
C2207 C2200 1.409 . S
C2207 C2206 1.362 . S
H2208 C2214 0.930 . S
H2209 C2217 0.930 . S
H2210 C2218 0.930 . S
H2211 C2219 0.930 . S
H2212 C2222 0.930 . S
H2213 C2223 0.930 . S
C2214 H2208 0.930 . S
C2214 C2215 1.355 . S
C2214 C2216 1.415 . S
C2215 C2214 1.355 . S
C2215 C2217 1.419 . S
C2216 C2214 1.415 . S
C2216 C2221 1.425 . S
C2216 C2223 1.409 . S
C2217 H2209 0.930 . S
C2217 C2215 1.419 . S
C2217 C2218 1.362 . S
C2218 H2210 0.930 . S
C2218 C2217 1.362 . S
C2218 C2221 1.409 . S
C2219 H2211 0.930 . S
C2219 C2220 1.355 . S
C2219 C2221 1.415 . S
C2220 C2219 1.355 . S
C2220 C2222 1.419 . S
C2221 C2216 1.425 . S
C2221 C2218 1.409 . S
C2221 C2219 1.415 . S
C2222 H2212 0.930 . S
C2222 C2220 1.419 . S
C2222 C2223 1.362 . S
C2223 H2213 0.930 . S
C2223 C2216 1.409 . S
C2223 C2222 1.362 . S
H2224 C2230 0.930 . S
H2225 C2233 0.930 . S
H2226 C2234 0.930 . S
H2227 C2235 0.930 . S
H2228 C2238 0.930 . S
H2229 C2239 0.930 . S
C2230 H2224 0.930 . S
C2230 C2231 1.355 . S
C2230 C2232 1.415 . S
C2231 C2230 1.355 . S
C2231 C2233 1.419 . S
C2232 C2230 1.415 . S
C2232 C2237 1.425 . S
C2232 C2239 1.409 . S
C2233 H2225 0.930 . S
C2233 C2231 1.419 . S
C2233 C2234 1.362 . S
C2234 H2226 0.930 . S
C2234 C2233 1.362 . S
C2234 C2237 1.409 . S
C2235 H2227 0.930 . S
C2235 C2236 1.355 . S
C2235 C2237 1.415 . S
C2236 C2235 1.355 . S
C2236 C2238 1.419 . S
C2237 C2232 1.425 . S
C2237 C2234 1.409 . S
C2237 C2235 1.415 . S
C2238 H2228 0.930 . S
C2238 C2236 1.419 . S
C2238 C2239 1.362 . S
C2239 H2229 0.930 . S
C2239 C2232 1.409 . S
C2239 C2238 1.362 . S
H2240 C2246 0.930 . S
H2241 C2249 0.930 . S
H2242 C2250 0.930 . S
H2243 C2251 0.930 . S
H2244 C2254 0.930 . S
H2245 C2255 0.930 . S
C2246 H2240 0.930 . S
C2246 C2247 1.355 . S
C2246 C2248 1.415 . S
C2247 C2246 1.355 . S
C2247 C2249 1.419 . S
C2248 C2246 1.415 . S
C2248 C2253 1.425 . S
C2248 C2255 1.409 . S
C2249 H2241 0.930 . S
C2249 C2247 1.419 . S
C2249 C2250 1.362 . S
C2250 H2242 0.930 . S
C2250 C2249 1.362 . S
C2250 C2253 1.409 . S
C2251 H2243 0.930 . S
C2251 C2252 1.355 . S
C2251 C2253 1.415 . S
C2252 C2251 1.355 . S
C2252 C2254 1.419 . S
C2253 C2248 1.425 . S
C2253 C2250 1.409 . S
C2253 C2251 1.415 . S
C2254 H2244 0.930 . S
C2254 C2252 1.419 . S
C2254 C2255 1.362 . S
C2255 H2245 0.930 . S
C2255 C2248 1.409 . S
C2255 C2254 1.362 . S
H2256 C2262 0.930 . S
H2257 C2265 0.930 . S
H2258 C2266 0.930 . S
H2259 C2267 0.930 . S
H2260 C2270 0.930 . S
H2261 C2271 0.930 . S
C2262 H2256 0.930 . S
C2262 C2263 1.355 . S
C2262 C2264 1.415 . S
C2263 C2262 1.355 . S
C2263 C2265 1.419 . S
C2264 C2262 1.415 . S
C2264 C2269 1.425 . S
C2264 C2271 1.409 . S
C2265 H2257 0.930 . S
C2265 C2263 1.419 . S
C2265 C2266 1.362 . S
C2266 H2258 0.930 . S
C2266 C2265 1.362 . S
C2266 C2269 1.409 . S
C2267 H2259 0.930 . S
C2267 C2268 1.355 . S
C2267 C2269 1.415 . S
C2268 C2267 1.355 . S
C2268 C2270 1.419 . S
C2269 C2264 1.425 . S
C2269 C2266 1.409 . S
C2269 C2267 1.415 . S
C2270 H2260 0.930 . S
C2270 C2268 1.419 . S
C2270 C2271 1.362 . S
C2271 H2261 0.930 . S
C2271 C2264 1.409 . S
C2271 C2270 1.362 . S
H2272 C2278 0.930 . S
H2273 C2281 0.930 . S
H2274 C2282 0.930 . S
H2275 C2283 0.930 1_554 S
H2276 C2286 0.930 . S
H2277 C2287 0.930 . S
C2278 H2272 0.930 . S
C2278 C2279 1.355 . S
C2278 C2280 1.415 . S
C2279 C2278 1.355 . S
C2279 C2281 1.419 . S
C2280 C2278 1.415 . S
C2280 C2285 1.425 . S
C2280 C2287 1.409 . S
C2281 H2273 0.930 . S
C2281 C2279 1.419 . S
C2281 C2282 1.362 . S
C2282 H2274 0.930 . S
C2282 C2281 1.362 . S
C2282 C2285 1.409 . S
C2283 H2275 0.930 1_556 S
C2283 C2284 1.355 . S
C2283 C2285 1.415 . S
C2284 C2283 1.355 . S
C2284 C2286 1.419 . S
C2285 C2280 1.425 . S
C2285 C2282 1.409 . S
C2285 C2283 1.415 . S
C2286 H2276 0.930 . S
C2286 C2284 1.419 . S
C2286 C2287 1.362 . S
C2287 H2277 0.930 . S
C2287 C2280 1.409 . S
C2287 C2286 1.362 . S
H2288 C2294 0.930 . S
H2289 C2297 0.930 . S
H2290 C2298 0.930 . S
H2291 C2299 0.930 . S
H2292 C2302 0.930 . S
H2293 C2303 0.930 . S
C2294 H2288 0.930 . S
C2294 C2295 1.355 . S
C2294 C2296 1.415 . S
C2295 C2294 1.355 . S
C2295 C2297 1.419 . S
C2296 C2294 1.415 . S
C2296 C2301 1.425 . S
C2296 C2303 1.409 . S
C2297 H2289 0.930 . S
C2297 C2295 1.419 . S
C2297 C2298 1.362 . S
C2298 H2290 0.930 . S
C2298 C2297 1.362 . S
C2298 C2301 1.409 . S
C2299 H2291 0.930 . S
C2299 C2300 1.355 . S
C2299 C2301 1.415 . S
C2300 C2299 1.355 . S
C2300 C2302 1.419 . S
C2301 C2296 1.425 . S
C2301 C2298 1.409 . S
C2301 C2299 1.415 . S
C2302 H2292 0.930 . S
C2302 C2300 1.419 . S
C2302 C2303 1.362 . S
C2303 H2293 0.930 . S
C2303 C2296 1.409 . S
C2303 C2302 1.362 . S
H2304 C2310 0.930 . S
H2305 C2313 0.930 . S
H2306 C2314 0.930 . S
H2307 C2315 0.930 . S
H2308 C2318 0.930 . S
H2309 C2319 0.930 . S
C2310 H2304 0.930 . S
C2310 C2311 1.355 . S
C2310 C2312 1.415 . S
C2311 C2310 1.355 . S
C2311 C2313 1.419 . S
C2312 C2310 1.415 . S
C2312 C2317 1.425 . S
C2312 C2319 1.409 . S
C2313 H2305 0.930 . S
C2313 C2311 1.419 . S
C2313 C2314 1.362 . S
C2314 H2306 0.930 . S
C2314 C2313 1.362 . S
C2314 C2317 1.409 . S
C2315 H2307 0.930 . S
C2315 C2316 1.355 . S
C2315 C2317 1.415 . S
C2316 C2315 1.355 . S
C2316 C2318 1.419 . S
C2317 C2312 1.425 . S
C2317 C2314 1.409 . S
C2317 C2315 1.415 . S
C2318 H2308 0.930 . S
C2318 C2316 1.419 . S
C2318 C2319 1.362 . S
C2319 H2309 0.930 . S
C2319 C2312 1.409 . S
C2319 C2318 1.362 . S
H2320 C2326 0.930 . S
H2321 C2329 0.930 . S
H2322 C2330 0.930 . S
H2323 C2331 0.930 . S
H2324 C2334 0.930 . S
H2325 C2335 0.930 . S
C2326 H2320 0.930 . S
C2326 C2327 1.355 . S
C2326 C2328 1.415 . S
C2327 C2326 1.355 . S
C2327 C2329 1.419 . S
C2328 C2326 1.415 . S
C2328 C2333 1.425 . S
C2328 C2335 1.409 . S
C2329 H2321 0.930 . S
C2329 C2327 1.419 . S
C2329 C2330 1.362 . S
C2330 H2322 0.930 . S
C2330 C2329 1.362 . S
C2330 C2333 1.409 . S
C2331 H2323 0.930 . S
C2331 C2332 1.355 . S
C2331 C2333 1.415 . S
C2332 C2331 1.355 . S
C2332 C2334 1.419 . S
C2333 C2328 1.425 . S
C2333 C2330 1.409 . S
C2333 C2331 1.415 . S
C2334 H2324 0.930 . S
C2334 C2332 1.419 . S
C2334 C2335 1.362 . S
C2335 H2325 0.930 . S
C2335 C2328 1.409 . S
C2335 C2334 1.362 . S
H2336 C2342 0.930 . S
H2337 C2345 0.930 . S
H2338 C2346 0.930 . S
H2339 C2347 0.930 . S
H2340 C2350 0.930 . S
H2341 C2351 0.930 . S
C2342 H2336 0.930 . S
C2342 C2343 1.355 . S
C2342 C2344 1.415 . S
C2343 C2342 1.355 . S
C2343 C2345 1.419 . S
C2344 C2342 1.415 . S
C2344 C2349 1.425 . S
C2344 C2351 1.409 . S
C2345 H2337 0.930 . S
C2345 C2343 1.419 . S
C2345 C2346 1.362 . S
C2346 H2338 0.930 . S
C2346 C2345 1.362 . S
C2346 C2349 1.409 . S
C2347 H2339 0.930 . S
C2347 C2348 1.355 . S
C2347 C2349 1.415 . S
C2348 C2347 1.355 . S
C2348 C2350 1.419 1_554 S
C2349 C2344 1.425 . S
C2349 C2346 1.409 . S
C2349 C2347 1.415 . S
C2350 H2340 0.930 . S
C2350 C2348 1.419 1_556 S
C2350 C2351 1.362 1_556 S
C2351 H2341 0.930 . S
C2351 C2344 1.409 . S
C2351 C2350 1.362 1_554 S
H2352 C2358 0.930 . S
H2353 C2361 0.930 . S
H2354 C2362 0.930 . S
H2355 C2363 0.930 1_556 S
H2356 C2366 0.930 . S
H2357 C2367 0.930 . S
C2358 H2352 0.930 . S
C2358 C2359 1.355 . S
C2358 C2360 1.415 . S
C2359 C2358 1.355 . S
C2359 C2361 1.419 . S
C2360 C2358 1.415 . S
C2360 C2365 1.425 . S
C2360 C2367 1.409 . S
C2361 H2353 0.930 . S
C2361 C2359 1.419 . S
C2361 C2362 1.362 . S
C2362 H2354 0.930 . S
C2362 C2361 1.362 . S
C2362 C2365 1.409 . S
C2363 H2355 0.930 1_554 S
C2363 C2364 1.355 . S
C2363 C2365 1.415 . S
C2364 C2363 1.355 . S
C2364 C2366 1.419 . S
C2365 C2360 1.425 . S
C2365 C2362 1.409 . S
C2365 C2363 1.415 . S
C2366 H2356 0.930 . S
C2366 C2364 1.419 . S
C2366 C2367 1.362 . S
C2367 H2357 0.930 . S
C2367 C2360 1.409 . S
C2367 C2366 1.362 . S
H2368 C2374 0.930 . S
H2369 C2377 0.930 . S
H2370 C2378 0.930 . S
H2371 C2379 0.930 . S
H2372 C2382 0.930 . S
H2373 C2383 0.930 . S
C2374 H2368 0.930 . S
C2374 C2375 1.355 . S
C2374 C2376 1.415 . S
C2375 C2374 1.355 . S
C2375 C2377 1.419 . S
C2376 C2374 1.415 . S
C2376 C2381 1.425 . S
C2376 C2383 1.409 . S
C2377 H2369 0.930 . S
C2377 C2375 1.419 . S
C2377 C2378 1.362 . S
C2378 H2370 0.930 . S
C2378 C2377 1.362 . S
C2378 C2381 1.409 . S
C2379 H2371 0.930 . S
C2379 C2380 1.355 . S
C2379 C2381 1.415 . S
C2380 C2379 1.355 . S
C2380 C2382 1.419 . S
C2381 C2376 1.425 . S
C2381 C2378 1.409 . S
C2381 C2379 1.415 . S
C2382 H2372 0.930 . S
C2382 C2380 1.419 . S
C2382 C2383 1.362 . S
C2383 H2373 0.930 . S
C2383 C2376 1.409 . S
C2383 C2382 1.362 . S
H2384 C2390 0.930 . S
H2385 C2393 0.930 . S
H2386 C2394 0.930 . S
H2387 C2395 0.930 . S
H2388 C2398 0.930 . S
H2389 C2399 0.930 . S
C2390 H2384 0.930 . S
C2390 C2391 1.355 . S
C2390 C2392 1.415 . S
C2391 C2390 1.355 . S
C2391 C2393 1.419 . S
C2392 C2390 1.415 . S
C2392 C2397 1.425 . S
C2392 C2399 1.409 . S
C2393 H2385 0.930 . S
C2393 C2391 1.419 . S
C2393 C2394 1.362 . S
C2394 H2386 0.930 . S
C2394 C2393 1.362 . S
C2394 C2397 1.409 . S
C2395 H2387 0.930 . S
C2395 C2396 1.355 . S
C2395 C2397 1.415 . S
C2396 C2395 1.355 . S
C2396 C2398 1.419 . S
C2397 C2392 1.425 . S
C2397 C2394 1.409 . S
C2397 C2395 1.415 . S
C2398 H2388 0.930 . S
C2398 C2396 1.419 . S
C2398 C2399 1.362 . S
C2399 H2389 0.930 . S
C2399 C2392 1.409 . S
C2399 C2398 1.362 . S
H2400 C2406 0.930 . S
H2401 C2409 0.930 . S
H2402 C2410 0.930 . S
H2403 C2411 0.930 . S
H2404 C2414 0.930 . S
H2405 C2415 0.930 . S
C2406 H2400 0.930 . S
C2406 C2407 1.355 . S
C2406 C2408 1.415 . S
C2407 C2406 1.355 . S
C2407 C2409 1.419 . S
C2408 C2406 1.415 . S
C2408 C2413 1.425 . S
C2408 C2415 1.409 . S
C2409 H2401 0.930 . S
C2409 C2407 1.419 . S
C2409 C2410 1.362 . S
C2410 H2402 0.930 . S
C2410 C2409 1.362 . S
C2410 C2413 1.409 . S
C2411 H2403 0.930 . S
C2411 C2412 1.355 . S
C2411 C2413 1.415 . S
C2412 C2411 1.355 . S
C2412 C2414 1.419 . S
C2413 C2408 1.425 . S
C2413 C2410 1.409 . S
C2413 C2411 1.415 . S
C2414 H2404 0.930 . S
C2414 C2412 1.419 . S
C2414 C2415 1.362 . S
C2415 H2405 0.930 . S
C2415 C2408 1.409 . S
C2415 C2414 1.362 . S
H2416 C2422 0.930 . S
H2417 C2425 0.930 . S
H2418 C2426 0.930 . S
H2419 C2427 0.930 . S
H2420 C2430 0.930 . S
H2421 C2431 0.930 . S
C2422 H2416 0.930 . S
C2422 C2423 1.355 . S
C2422 C2424 1.415 . S
C2423 C2422 1.355 . S
C2423 C2425 1.419 . S
C2424 C2422 1.415 . S
C2424 C2429 1.425 . S
C2424 C2431 1.409 . S
C2425 H2417 0.930 . S
C2425 C2423 1.419 . S
C2425 C2426 1.362 . S
C2426 H2418 0.930 . S
C2426 C2425 1.362 . S
C2426 C2429 1.409 . S
C2427 H2419 0.930 . S
C2427 C2428 1.355 . S
C2427 C2429 1.415 . S
C2428 C2427 1.355 . S
C2428 C2430 1.419 . S
C2429 C2424 1.425 . S
C2429 C2426 1.409 . S
C2429 C2427 1.415 . S
C2430 H2420 0.930 . S
C2430 C2428 1.419 . S
C2430 C2431 1.362 . S
C2431 H2421 0.930 . S
C2431 C2424 1.409 . S
C2431 C2430 1.362 . S
H2432 C2438 0.930 . S
H2433 C2441 0.930 . S
H2434 C2442 0.930 . S
H2435 C2443 0.930 . S
H2436 C2446 0.930 . S
H2437 C2447 0.930 . S
C2438 H2432 0.930 . S
C2438 C2439 1.355 . S
C2438 C2440 1.415 . S
C2439 C2438 1.355 . S
C2439 C2441 1.419 . S
C2440 C2438 1.415 . S
C2440 C2445 1.425 . S
C2440 C2447 1.409 . S
C2441 H2433 0.930 . S
C2441 C2439 1.419 . S
C2441 C2442 1.362 . S
C2442 H2434 0.930 . S
C2442 C2441 1.362 . S
C2442 C2445 1.409 . S
C2443 H2435 0.930 . S
C2443 C2444 1.355 . S
C2443 C2445 1.415 . S
C2444 C2443 1.355 . S
C2444 C2446 1.419 . S
C2445 C2440 1.425 . S
C2445 C2442 1.409 . S
C2445 C2443 1.415 . S
C2446 H2436 0.930 . S
C2446 C2444 1.419 . S
C2446 C2447 1.362 . S
C2447 H2437 0.930 . S
C2447 C2440 1.409 . S
C2447 C2446 1.362 . S
H2448 C2454 0.930 . S
H2449 C2457 0.930 . S
H2450 C2458 0.930 . S
H2451 C2459 0.930 . S
H2452 C2462 0.930 . S
H2453 C2463 0.930 . S
C2454 H2448 0.930 . S
C2454 C2455 1.355 . S
C2454 C2456 1.415 . S
C2455 C2454 1.355 . S
C2455 C2457 1.419 . S
C2456 C2454 1.415 . S
C2456 C2461 1.425 . S
C2456 C2463 1.409 . S
C2457 H2449 0.930 . S
C2457 C2455 1.419 . S
C2457 C2458 1.362 . S
C2458 H2450 0.930 . S
C2458 C2457 1.362 . S
C2458 C2461 1.409 . S
C2459 H2451 0.930 . S
C2459 C2460 1.355 . S
C2459 C2461 1.415 . S
C2460 C2459 1.355 . S
C2460 C2462 1.419 . S
C2461 C2456 1.425 . S
C2461 C2458 1.409 . S
C2461 C2459 1.415 . S
C2462 H2452 0.930 . S
C2462 C2460 1.419 . S
C2462 C2463 1.362 . S
C2463 H2453 0.930 . S
C2463 C2456 1.409 . S
C2463 C2462 1.362 . S
H2464 C2470 0.930 . S
H2465 C2473 0.930 . S
H2466 C2474 0.930 . S
H2467 C2475 0.930 . S
H2468 C2478 0.930 . S
H2469 C2479 0.930 . S
C2470 H2464 0.930 . S
C2470 C2471 1.355 . S
C2470 C2472 1.415 . S
C2471 C2470 1.355 . S
C2471 C2473 1.419 . S
C2472 C2470 1.415 . S
C2472 C2477 1.425 . S
C2472 C2479 1.409 . S
C2473 H2465 0.930 . S
C2473 C2471 1.419 . S
C2473 C2474 1.362 . S
C2474 H2466 0.930 . S
C2474 C2473 1.362 . S
C2474 C2477 1.409 . S
C2475 H2467 0.930 . S
C2475 C2476 1.355 . S
C2475 C2477 1.415 . S
C2476 C2475 1.355 . S
C2476 C2478 1.419 . S
C2477 C2472 1.425 . S
C2477 C2474 1.409 . S
C2477 C2475 1.415 . S
C2478 H2468 0.930 . S
C2478 C2476 1.419 . S
C2478 C2479 1.362 . S
C2479 H2469 0.930 . S
C2479 C2472 1.409 . S
C2479 C2478 1.362 . S
H2480 C2486 0.930 . S
H2481 C2489 0.930 . S
H2482 C2490 0.930 . S
H2483 C2491 0.930 . S
H2484 C2494 0.930 . S
H2485 C2495 0.930 . S
C2486 H2480 0.930 . S
C2486 C2487 1.355 . S
C2486 C2488 1.415 . S
C2487 C2486 1.355 . S
C2487 C2489 1.419 . S
C2488 C2486 1.415 . S
C2488 C2493 1.425 . S
C2488 C2495 1.409 . S
C2489 H2481 0.930 . S
C2489 C2487 1.419 . S
C2489 C2490 1.362 . S
C2490 H2482 0.930 . S
C2490 C2489 1.362 . S
C2490 C2493 1.409 . S
C2491 H2483 0.930 . S
C2491 C2492 1.355 . S
C2491 C2493 1.415 . S
C2492 C2491 1.355 . S
C2492 C2494 1.419 . S
C2493 C2488 1.425 . S
C2493 C2490 1.409 . S
C2493 C2491 1.415 . S
C2494 H2484 0.930 . S
C2494 C2492 1.419 . S
C2494 C2495 1.362 . S
C2495 H2485 0.930 . S
C2495 C2488 1.409 . S
C2495 C2494 1.362 . S
H2496 C2502 0.930 1_556 S
H2497 C2505 0.930 . S
H2498 C2506 0.930 . S
H2499 C2507 0.930 . S
H2500 C2510 0.930 . S
H2501 C2511 0.930 . S
C2502 H2496 0.930 1_554 S
C2502 C2503 1.355 1_564 S
C2502 C2504 1.415 . S
C2503 C2502 1.355 1_546 S
C2503 C2505 1.419 . S
C2504 C2502 1.415 . S
C2504 C2509 1.425 1_565 S
C2504 C2511 1.409 . S
C2505 H2497 0.930 . S
C2505 C2503 1.419 . S
C2505 C2506 1.362 1_556 S
C2506 H2498 0.930 . S
C2506 C2505 1.362 1_554 S
C2506 C2509 1.409 . S
C2507 H2499 0.930 . S
C2507 C2508 1.355 1_545 S
C2507 C2509 1.415 . S
C2508 C2507 1.355 1_565 S
C2508 C2510 1.419 . S
C2509 C2504 1.425 1_545 S
C2509 C2506 1.409 . S
C2509 C2507 1.415 . S
C2510 H2500 0.930 . S
C2510 C2508 1.419 . S
C2510 C2511 1.362 . S
C2511 H2501 0.930 . S
C2511 C2504 1.409 . S
C2511 C2510 1.362 . S
H2512 C2518 0.930 . S
H2513 C2521 0.930 . S
H2514 C2522 0.930 . S
H2515 C2523 0.930 . S
H2516 C2526 0.930 . S
H2517 C2527 0.930 . S
C2518 H2512 0.930 . S
C2518 C2519 1.355 . S
C2518 C2520 1.415 1_556 S
C2519 C2518 1.355 . S
C2519 C2521 1.419 . S
C2520 C2518 1.415 1_554 S
C2520 C2525 1.425 . S
C2520 C2527 1.409 . S
C2521 H2513 0.930 . S
C2521 C2519 1.419 . S
C2521 C2522 1.362 1_556 S
C2522 H2514 0.930 . S
C2522 C2521 1.362 1_554 S
C2522 C2525 1.409 . S
C2523 H2515 0.930 . S
C2523 C2524 1.355 . S
C2523 C2525 1.415 . S
C2524 C2523 1.355 . S
C2524 C2526 1.419 . S
C2525 C2520 1.425 . S
C2525 C2522 1.409 . S
C2525 C2523 1.415 . S
C2526 H2516 0.930 . S
C2526 C2524 1.419 . S
C2526 C2527 1.362 . S
C2527 H2517 0.930 . S
C2527 C2520 1.409 . S
C2527 C2526 1.362 . S
H2528 C2534 0.930 . S
H2529 C2537 0.930 1_556 S
H2530 C2538 0.930 . S
H2531 C2539 0.930 . S
H2532 C2542 0.930 . S
H2533 C2543 0.930 . S
C2534 H2528 0.930 . S
C2534 C2535 1.355 1_554 S
C2534 C2536 1.415 . S
C2535 C2534 1.355 1_556 S
C2535 C2537 1.419 1_556 S
C2536 C2534 1.415 . S
C2536 C2541 1.425 . S
C2536 C2543 1.409 . S
C2537 H2529 0.930 1_554 S
C2537 C2535 1.419 1_554 S
C2537 C2538 1.362 . S
C2538 H2530 0.930 . S
C2538 C2537 1.362 . S
C2538 C2541 1.409 . S
C2539 H2531 0.930 . S
C2539 C2540 1.355 . S
C2539 C2541 1.415 . S
C2540 C2539 1.355 . S
C2540 C2542 1.419 . S
C2541 C2536 1.425 . S
C2541 C2538 1.409 . S
C2541 C2539 1.415 . S
C2542 H2532 0.930 . S
C2542 C2540 1.419 . S
C2542 C2543 1.362 . S
C2543 H2533 0.930 . S
C2543 C2536 1.409 . S
C2543 C2542 1.362 . S
H2544 C2550 0.930 . S
H2545 C2553 0.930 . S
H2546 C2554 0.930 . S
H2547 C2555 0.930 . S
H2548 C2558 0.930 1_556 S
H2549 C2559 0.930 . S
C2550 H2544 0.930 . S
C2550 C2551 1.355 1_545 S
C2550 C2552 1.415 . S
C2551 C2550 1.355 1_565 S
C2551 C2553 1.419 . S
C2552 C2550 1.415 . S
C2552 C2557 1.425 1_545 S
C2552 C2559 1.409 . S
C2553 H2545 0.930 . S
C2553 C2551 1.419 . S
C2553 C2554 1.362 . S
C2554 H2546 0.930 . S
C2554 C2553 1.362 . S
C2554 C2557 1.409 . S
C2555 H2547 0.930 . S
C2555 C2556 1.336 1_564 S
C2555 C2557 1.415 . S
C2556 C2555 1.336 1_546 S
C2556 C2558 1.443 1_556 S
C2557 C2552 1.425 1_565 S
C2557 C2554 1.409 . S
C2557 C2555 1.415 . S
C2558 H2548 0.930 1_554 S
C2558 C2556 1.443 1_554 S
C2558 C2559 1.362 . S
C2559 H2549 0.930 . S
C2559 C2552 1.409 . S
C2559 C2558 1.362 . S
H2560 C2566 0.930 1_554 S
H2561 C2569 0.930 . S
H2562 C2570 0.930 . S
H2563 C2571 0.930 . S
H2564 C2574 0.930 . S
H2565 C2575 0.930 . S
C2566 H2560 0.930 1_556 S
C2566 C2567 1.355 1_566 S
C2566 C2568 1.415 . S
C2567 C2566 1.355 1_544 S
C2567 C2569 1.419 . S
C2568 C2566 1.415 . S
C2568 C2573 1.425 1_565 S
C2568 C2575 1.409 . S
C2569 H2561 0.930 . S
C2569 C2567 1.419 . S
C2569 C2570 1.362 1_554 S
C2570 H2562 0.930 . S
C2570 C2569 1.362 1_556 S
C2570 C2573 1.409 . S
C2571 H2563 0.930 . S
C2571 C2572 1.355 1_545 S
C2571 C2573 1.415 . S
C2572 C2571 1.355 1_565 S
C2572 C2574 1.419 . S
C2573 C2568 1.425 1_545 S
C2573 C2570 1.409 . S
C2573 C2571 1.415 . S
C2574 H2564 0.930 . S
C2574 C2572 1.419 . S
C2574 C2575 1.362 . S
C2575 H2565 0.930 . S
C2575 C2568 1.409 . S
C2575 C2574 1.362 . S
H2576 C2582 0.930 . S
H2577 C2585 0.930 . S
H2578 C2586 0.930 . S
H2579 C2587 0.926 1_554 S
H2580 C2590 0.930 . S
H2581 C2591 0.930 . S
C2582 H2576 0.930 . S
C2582 C2583 1.355 . S
C2582 C2584 1.415 . S
C2583 C2582 1.355 . S
C2583 C2585 1.419 . S
C2584 C2582 1.415 . S
C2584 C2589 1.425 . S
C2584 C2591 1.409 . S
C2585 H2577 0.930 . S
C2585 C2583 1.419 . S
C2585 C2586 1.362 . S
C2586 H2578 0.930 . S
C2586 C2585 1.362 . S
C2586 C2589 1.409 . S
C2587 H2579 0.926 1_556 S
C2587 C2588 1.348 1_556 S
C2587 C2589 1.425 . S
C2588 C2587 1.348 1_554 S
C2588 C2590 1.419 . S
C2589 C2584 1.425 . S
C2589 C2586 1.409 . S
C2589 C2587 1.425 . S
C2590 H2580 0.930 . S
C2590 C2588 1.419 . S
C2590 C2591 1.362 1_554 S
C2591 H2581 0.930 . S
C2591 C2584 1.409 . S
C2591 C2590 1.362 1_556 S
H2592 C2598 0.930 . S
H2593 C2601 0.930 . S
H2594 C2602 0.930 . S
H2595 C2603 0.930 . S
H2596 C2606 0.930 . S
H2597 C2607 0.930 . S
C2598 H2592 0.930 . S
C2598 C2599 1.355 . S
C2598 C2600 1.415 . S
C2599 C2598 1.355 . S
C2599 C2601 1.419 . S
C2600 C2598 1.415 . S
C2600 C2605 1.425 . S
C2600 C2607 1.409 . S
C2601 H2593 0.930 . S
C2601 C2599 1.419 . S
C2601 C2602 1.362 . S
C2602 H2594 0.930 . S
C2602 C2601 1.362 . S
C2602 C2605 1.409 . S
C2603 H2595 0.930 . S
C2603 C2604 1.355 1_556 S
C2603 C2605 1.415 . S
C2604 C2603 1.355 1_554 S
C2604 C2606 1.419 1_554 S
C2605 C2600 1.425 . S
C2605 C2602 1.409 . S
C2605 C2603 1.415 . S
C2606 H2596 0.930 . S
C2606 C2604 1.419 1_556 S
C2606 C2607 1.362 . S
C2607 H2597 0.930 . S
C2607 C2600 1.409 . S
C2607 C2606 1.362 . S
H2608 C2614 0.930 . S
H2609 C2617 0.930 . S
H2610 C2618 0.930 . S
H2611 C2619 0.930 . S
H2612 C2622 0.930 1_554 S
H2613 C2623 0.930 . S
C2614 H2608 0.930 . S
C2614 C2615 1.355 1_545 S
C2614 C2616 1.415 . S
C2615 C2614 1.355 1_565 S
C2615 C2617 1.419 . S
C2616 C2614 1.415 . S
C2616 C2621 1.425 1_545 S
C2616 C2623 1.409 . S
C2617 H2609 0.930 . S
C2617 C2615 1.419 . S
C2617 C2618 1.362 . S
C2618 H2610 0.930 . S
C2618 C2617 1.362 . S
C2618 C2621 1.409 . S
C2619 H2611 0.930 . S
C2619 C2620 1.355 1_566 S
C2619 C2621 1.415 . S
C2620 C2619 1.355 1_544 S
C2620 C2622 1.419 1_554 S
C2621 C2616 1.425 1_565 S
C2621 C2618 1.409 . S
C2621 C2619 1.415 . S
C2622 H2612 0.930 1_556 S
C2622 C2620 1.419 1_556 S
C2622 C2623 1.362 . S
C2623 H2613 0.930 . S
C2623 C2616 1.409 . S
C2623 C2622 1.362 . S
H2624 C2630 0.930 1_556 S
H2625 C2633 0.930 . S
H2626 C2634 0.930 . S
H2627 C2635 0.930 . S
H2628 C2638 0.930 . S
H2629 C2639 0.930 . S
C2630 H2624 0.930 1_554 S
C2630 C2631 1.355 1_554 S
C2630 C2632 1.415 . S
C2631 C2630 1.355 1_556 S
C2631 C2633 1.419 . S
C2632 C2630 1.415 . S
C2632 C2637 1.425 . S
C2632 C2639 1.409 . S
C2633 H2625 0.930 . S
C2633 C2631 1.419 . S
C2633 C2634 1.362 1_556 S
C2634 H2626 0.930 . S
C2634 C2633 1.362 1_554 S
C2634 C2637 1.409 . S
C2635 H2627 0.930 . S
C2635 C2636 1.355 . S
C2635 C2637 1.415 . S
C2636 C2635 1.355 . S
C2636 C2638 1.419 . S
C2637 C2632 1.425 . S
C2637 C2634 1.409 . S
C2637 C2635 1.415 . S
C2638 H2628 0.930 . S
C2638 C2636 1.419 . S
C2638 C2639 1.362 . S
C2639 H2629 0.930 . S
C2639 C2632 1.409 . S
C2639 C2638 1.362 . S
H2640 C2646 0.930 . S
H2641 C2649 0.930 . S
H2642 C2650 0.930 . S
H2643 C2651 0.930 . S
H2644 C2654 0.930 . S
H2645 C2655 0.930 . S
C2646 H2640 0.930 . S
C2646 C2647 1.355 . S
C2646 C2648 1.415 . S
C2647 C2646 1.355 . S
C2647 C2649 1.419 . S
C2648 C2646 1.415 . S
C2648 C2653 1.425 . S
C2648 C2655 1.409 . S
C2649 H2641 0.930 . S
C2649 C2647 1.419 . S
C2649 C2650 1.362 . S
C2650 H2642 0.930 . S
C2650 C2649 1.362 . S
C2650 C2653 1.409 . S
C2651 H2643 0.930 . S
C2651 C2652 1.355 . S
C2651 C2653 1.415 1_556 S
C2652 C2651 1.355 . S
C2652 C2654 1.419 . S
C2653 C2648 1.425 . S
C2653 C2650 1.409 . S
C2653 C2651 1.415 1_554 S
C2654 H2644 0.930 . S
C2654 C2652 1.419 . S
C2654 C2655 1.362 1_556 S
C2655 H2645 0.930 . S
C2655 C2648 1.409 . S
C2655 C2654 1.362 1_554 S
H2656 C2662 0.930 . S
H2657 C2665 0.930 . S
H2658 C2666 0.930 . S
H2659 C2667 0.930 . S
H2660 C2670 0.930 1_556 S
H2661 C2671 0.930 . S
C2662 H2656 0.930 . S
C2662 C2663 1.355 . S
C2662 C2664 1.415 . S
C2663 C2662 1.355 . S
C2663 C2665 1.419 . S
C2664 C2662 1.415 . S
C2664 C2669 1.425 . S
C2664 C2671 1.409 . S
C2665 H2657 0.930 . S
C2665 C2663 1.419 . S
C2665 C2666 1.362 . S
C2666 H2658 0.930 . S
C2666 C2665 1.362 . S
C2666 C2669 1.409 . S
C2667 H2659 0.930 . S
C2667 C2668 1.355 1_554 S
C2667 C2669 1.415 . S
C2668 C2667 1.355 1_556 S
C2668 C2670 1.419 1_556 S
C2669 C2664 1.425 . S
C2669 C2666 1.409 . S
C2669 C2667 1.415 . S
C2670 H2660 0.930 1_554 S
C2670 C2668 1.419 1_554 S
C2670 C2671 1.362 . S
C2671 H2661 0.930 . S
C2671 C2664 1.409 . S
C2671 C2670 1.362 . S
H2672 C2678 0.930 . S
H2673 C2681 0.930 1_556 S
H2674 C2682 0.930 . S
H2675 C2683 0.930 . S
H2676 C2686 0.930 . S
H2677 C2687 0.930 . S
C2678 H2672 0.930 . S
C2678 C2679 1.355 1_554 S
C2678 C2680 1.415 . S
C2679 C2678 1.355 1_556 S
C2679 C2681 1.419 1_556 S
C2680 C2678 1.415 . S
C2680 C2685 1.425 . S
C2680 C2687 1.409 . S
C2681 H2673 0.930 1_554 S
C2681 C2679 1.419 1_554 S
C2681 C2682 1.362 . S
C2682 H2674 0.930 . S
C2682 C2681 1.362 . S
C2682 C2685 1.409 . S
C2683 H2675 0.930 . S
C2683 C2684 1.355 . S
C2683 C2685 1.415 . S
C2684 C2683 1.355 . S
C2684 C2686 1.419 . S
C2685 C2680 1.425 . S
C2685 C2682 1.409 . S
C2685 C2683 1.415 . S
C2686 H2676 0.930 . S
C2686 C2684 1.419 . S
C2686 C2687 1.362 . S
C2687 H2677 0.930 . S
C2687 C2680 1.409 . S
C2687 C2686 1.362 . S
H2688 C2694 0.930 . S
H2689 C2697 0.930 . S
H2690 C2698 0.930 . S
H2691 C2699 0.930 . S
H2692 C2702 0.930 . S
H2693 C2703 0.930 . S
C2694 H2688 0.930 . S
C2694 C2695 1.355 . S
C2694 C2696 1.415 . S
C2695 C2694 1.355 . S
C2695 C2697 1.419 . S
C2696 C2694 1.415 . S
C2696 C2701 1.425 . S
C2696 C2703 1.409 . S
C2697 H2689 0.930 . S
C2697 C2695 1.419 . S
C2697 C2698 1.362 . S
C2698 H2690 0.930 . S
C2698 C2697 1.362 . S
C2698 C2701 1.409 . S
C2699 H2691 0.930 . S
C2699 C2700 1.355 . S
C2699 C2701 1.415 1_554 S
C2700 C2699 1.355 . S
C2700 C2702 1.419 . S
C2701 C2696 1.425 . S
C2701 C2698 1.409 . S
C2701 C2699 1.415 1_556 S
C2702 H2692 0.930 . S
C2702 C2700 1.419 . S
C2702 C2703 1.362 1_554 S
C2703 H2693 0.930 . S
C2703 C2696 1.409 . S
C2703 C2702 1.362 1_556 S
H2704 C2710 0.930 . S
H2705 C2713 0.930 . S
H2706 C2714 0.930 . S
H2707 C2715 0.930 1_554 S
H2708 C2718 0.930 . S
H2709 C2719 0.930 . S
C2710 H2704 0.930 . S
C2710 C2711 1.355 . S
C2710 C2712 1.415 . S
C2711 C2710 1.355 . S
C2711 C2713 1.419 . S
C2712 C2710 1.415 . S
C2712 C2717 1.425 . S
C2712 C2719 1.409 . S
C2713 H2705 0.930 . S
C2713 C2711 1.419 . S
C2713 C2714 1.362 . S
C2714 H2706 0.930 . S
C2714 C2713 1.362 . S
C2714 C2717 1.409 . S
C2715 H2707 0.930 1_556 S
C2715 C2716 1.355 1_556 S
C2715 C2717 1.415 . S
C2716 C2715 1.355 1_554 S
C2716 C2718 1.419 . S
C2717 C2712 1.425 . S
C2717 C2714 1.409 . S
C2717 C2715 1.415 . S
C2718 H2708 0.930 . S
C2718 C2716 1.419 . S
C2718 C2719 1.362 1_554 S
C2719 H2709 0.930 . S
C2719 C2712 1.409 . S
C2719 C2718 1.362 1_556 S
H2720 C2726 0.930 . S
H2721 C2729 0.930 . S
H2722 C2730 0.930 . S
H2723 C2731 0.930 . S
H2724 C2734 0.930 1_554 S
H2725 C2735 0.930 . S
C2726 H2720 0.930 . S
C2726 C2727 1.355 . S
C2726 C2728 1.415 . S
C2727 C2726 1.355 . S
C2727 C2729 1.419 . S
C2728 C2726 1.415 . S
C2728 C2733 1.425 . S
C2728 C2735 1.409 . S
C2729 H2721 0.930 . S
C2729 C2727 1.419 . S
C2729 C2730 1.362 . S
C2730 H2722 0.930 . S
C2730 C2729 1.362 . S
C2730 C2733 1.409 . S
C2731 H2723 0.930 . S
C2731 C2732 1.355 1_556 S
C2731 C2733 1.415 . S
C2732 C2731 1.355 1_554 S
C2732 C2734 1.419 1_554 S
C2733 C2728 1.425 . S
C2733 C2730 1.409 . S
C2733 C2731 1.415 . S
C2734 H2724 0.930 1_556 S
C2734 C2732 1.419 1_556 S
C2734 C2735 1.362 . S
C2735 H2725 0.930 . S
C2735 C2728 1.409 . S
C2735 C2734 1.362 . S
H2736 C2742 0.930 . S
H2737 C2745 0.930 1_554 S
H2738 C2746 0.930 . S
H2739 C2747 0.930 . S
H2740 C2750 0.930 . S
H2741 C2751 0.930 . S
C2742 H2736 0.930 . S
C2742 C2743 1.355 1_556 S
C2742 C2744 1.415 . S
C2743 C2742 1.355 1_554 S
C2743 C2745 1.419 1_554 S
C2744 C2742 1.415 . S
C2744 C2749 1.425 . S
C2744 C2751 1.409 . S
C2745 H2737 0.930 1_556 S
C2745 C2743 1.419 1_556 S
C2745 C2746 1.362 . S
C2746 H2738 0.930 . S
C2746 C2745 1.362 . S
C2746 C2749 1.409 . S
C2747 H2739 0.930 . S
C2747 C2748 1.355 . S
C2747 C2749 1.415 . S
C2748 C2747 1.355 . S
C2748 C2750 1.419 . S
C2749 C2744 1.425 . S
C2749 C2746 1.409 . S
C2749 C2747 1.415 . S
C2750 H2740 0.930 . S
C2750 C2748 1.419 . S
C2750 C2751 1.362 . S
C2751 H2741 0.930 . S
C2751 C2744 1.409 . S
C2751 C2750 1.362 . S
H2752 C2758 0.930 . S
H2753 C2761 0.930 . S
H2754 C2762 0.930 . S
H2755 C2763 0.930 . S
H2756 C2766 0.930 . S
H2757 C2767 0.930 . S
C2758 H2752 0.930 . S
C2758 C2759 1.355 1_565 S
C2758 C2760 1.415 . S
C2759 C2758 1.355 1_545 S
C2759 C2761 1.419 . S
C2760 C2758 1.415 . S
C2760 C2765 1.425 1_565 S
C2760 C2767 1.409 . S
C2761 H2753 0.930 . S
C2761 C2759 1.419 . S
C2761 C2762 1.362 . S
C2762 H2754 0.930 . S
C2762 C2761 1.362 . S
C2762 C2765 1.409 . S
C2763 H2755 0.930 . S
C2763 C2764 1.355 1_545 S
C2763 C2765 1.415 . S
C2764 C2763 1.355 1_565 S
C2764 C2766 1.419 . S
C2765 C2760 1.425 1_545 S
C2765 C2762 1.409 . S
C2765 C2763 1.415 . S
C2766 H2756 0.930 . S
C2766 C2764 1.419 . S
C2766 C2767 1.362 . S
C2767 H2757 0.930 . S
C2767 C2760 1.409 . S
C2767 C2766 1.362 . S
H2768 C2774 0.930 . S
H2769 C2777 0.930 . S
H2770 C2778 0.930 . S
H2771 C2779 0.930 . S
H2772 C2782 0.930 . S
H2773 C2783 0.930 . S
C2774 H2768 0.930 . S
C2774 C2775 1.355 . S
C2774 C2776 1.415 . S
C2775 C2774 1.355 . S
C2775 C2777 1.419 . S
C2776 C2774 1.415 . S
C2776 C2781 1.425 . S
C2776 C2783 1.409 . S
C2777 H2769 0.930 . S
C2777 C2775 1.419 . S
C2777 C2778 1.362 . S
C2778 H2770 0.930 . S
C2778 C2777 1.362 . S
C2778 C2781 1.409 . S
C2779 H2771 0.930 . S
C2779 C2780 1.355 . S
C2779 C2781 1.415 . S
C2780 C2779 1.355 . S
C2780 C2782 1.419 . S
C2781 C2776 1.425 . S
C2781 C2778 1.409 . S
C2781 C2779 1.415 . S
C2782 H2772 0.930 . S
C2782 C2780 1.419 . S
C2782 C2783 1.362 . S
C2783 H2773 0.930 . S
C2783 C2776 1.409 . S
C2783 C2782 1.362 . S
H2784 C2790 0.930 . S
H2785 C2793 0.930 . S
H2786 C2794 0.930 . S
H2787 C2795 0.930 . S
H2788 C2798 0.930 . S
H2789 C2799 0.930 . S
C2790 H2784 0.930 . S
C2790 C2791 1.355 . S
C2790 C2792 1.415 . S
C2791 C2790 1.355 . S
C2791 C2793 1.419 . S
C2792 C2790 1.415 . S
C2792 C2797 1.425 . S
C2792 C2799 1.409 . S
C2793 H2785 0.930 . S
C2793 C2791 1.419 . S
C2793 C2794 1.362 . S
C2794 H2786 0.930 . S
C2794 C2793 1.362 . S
C2794 C2797 1.409 . S
C2795 H2787 0.930 . S
C2795 C2796 1.355 . S
C2795 C2797 1.415 . S
C2796 C2795 1.355 . S
C2796 C2798 1.419 . S
C2797 C2792 1.425 . S
C2797 C2794 1.409 . S
C2797 C2795 1.415 . S
C2798 H2788 0.930 . S
C2798 C2796 1.419 . S
C2798 C2799 1.362 . S
C2799 H2789 0.930 . S
C2799 C2792 1.409 . S
C2799 C2798 1.362 . S
H2800 C2806 0.930 . S
H2801 C2809 0.930 . S
H2802 C2810 0.930 . S
H2803 C2811 0.930 . S
H2804 C2814 0.930 . S
H2805 C2815 0.930 . S
C2806 H2800 0.930 . S
C2806 C2807 1.355 1_545 S
C2806 C2808 1.415 . S
C2807 C2806 1.355 1_565 S
C2807 C2809 1.419 . S
C2808 C2806 1.415 . S
C2808 C2813 1.425 1_545 S
C2808 C2815 1.409 . S
C2809 H2801 0.930 . S
C2809 C2807 1.419 . S
C2809 C2810 1.362 . S
C2810 H2802 0.930 . S
C2810 C2809 1.362 . S
C2810 C2813 1.409 . S
C2811 H2803 0.930 . S
C2811 C2812 1.355 1_565 S
C2811 C2813 1.415 . S
C2812 C2811 1.355 1_545 S
C2812 C2814 1.419 . S
C2813 C2808 1.425 1_565 S
C2813 C2810 1.409 . S
C2813 C2811 1.415 . S
C2814 H2804 0.930 . S
C2814 C2812 1.419 . S
C2814 C2815 1.362 . S
C2815 H2805 0.930 . S
C2815 C2808 1.409 . S
C2815 C2814 1.362 . S
H2816 C2822 0.930 . S
H2817 C2825 0.930 . S
H2818 C2826 0.930 . S
H2819 C2827 0.930 . S
H2820 C2830 0.930 . S
H2821 C2831 0.930 . S
C2822 H2816 0.930 . S
C2822 C2823 1.355 1_565 S
C2822 C2824 1.415 . S
C2823 C2822 1.355 1_545 S
C2823 C2825 1.419 . S
C2824 C2822 1.415 . S
C2824 C2829 1.425 1_565 S
C2824 C2831 1.409 . S
C2825 H2817 0.930 . S
C2825 C2823 1.419 . S
C2825 C2826 1.362 . S
C2826 H2818 0.930 . S
C2826 C2825 1.362 . S
C2826 C2829 1.409 . S
C2827 H2819 0.930 . S
C2827 C2828 1.355 1_545 S
C2827 C2829 1.415 . S
C2828 C2827 1.355 1_565 S
C2828 C2830 1.419 . S
C2829 C2824 1.425 1_545 S
C2829 C2826 1.409 . S
C2829 C2827 1.415 . S
C2830 H2820 0.930 . S
C2830 C2828 1.419 . S
C2830 C2831 1.362 . S
C2831 H2821 0.930 . S
C2831 C2824 1.409 . S
C2831 C2830 1.362 . S
H2832 C2838 0.930 . S
H2833 C2841 0.930 . S
H2834 C2842 0.930 . S
H2835 C2843 0.930 . S
H2836 C2846 0.930 . S
H2837 C2847 0.930 . S
C2838 H2832 0.930 . S
C2838 C2839 1.355 . S
C2838 C2840 1.415 . S
C2839 C2838 1.355 . S
C2839 C2841 1.419 . S
C2840 C2838 1.415 . S
C2840 C2845 1.425 . S
C2840 C2847 1.409 . S
C2841 H2833 0.930 . S
C2841 C2839 1.419 . S
C2841 C2842 1.362 . S
C2842 H2834 0.930 . S
C2842 C2841 1.362 . S
C2842 C2845 1.409 . S
C2843 H2835 0.930 . S
C2843 C2844 1.355 . S
C2843 C2845 1.415 . S
C2844 C2843 1.355 . S
C2844 C2846 1.419 . S
C2845 C2840 1.425 . S
C2845 C2842 1.409 . S
C2845 C2843 1.415 . S
C2846 H2836 0.930 . S
C2846 C2844 1.419 . S
C2846 C2847 1.362 . S
C2847 H2837 0.930 . S
C2847 C2840 1.409 . S
C2847 C2846 1.362 . S
H2848 C2854 0.930 . S
H2849 C2857 0.930 . S
H2850 C2858 0.930 . S
H2851 C2859 0.930 . S
H2852 C2862 0.930 . S
H2853 C2863 0.930 . S
C2854 H2848 0.930 . S
C2854 C2855 1.355 . S
C2854 C2856 1.415 . S
C2855 C2854 1.355 . S
C2855 C2857 1.419 . S
C2856 C2854 1.415 . S
C2856 C2861 1.425 . S
C2856 C2863 1.409 . S
C2857 H2849 0.930 . S
C2857 C2855 1.419 . S
C2857 C2858 1.362 . S
C2858 H2850 0.930 . S
C2858 C2857 1.362 . S
C2858 C2861 1.409 . S
C2859 H2851 0.930 . S
C2859 C2860 1.355 . S
C2859 C2861 1.415 . S
C2860 C2859 1.355 . S
C2860 C2862 1.419 . S
C2861 C2856 1.425 . S
C2861 C2858 1.409 . S
C2861 C2859 1.415 . S
C2862 H2852 0.930 . S
C2862 C2860 1.419 . S
C2862 C2863 1.362 . S
C2863 H2853 0.930 . S
C2863 C2856 1.409 . S
C2863 C2862 1.362 . S
H2864 C2870 0.930 . S
H2865 C2873 0.930 . S
H2866 C2874 0.930 . S
H2867 C2875 0.930 . S
H2868 C2878 0.930 . S
H2869 C2879 0.930 . S
C2870 H2864 0.930 . S
C2870 C2871 1.355 1_565 S
C2870 C2872 1.415 . S
C2871 C2870 1.355 1_545 S
C2871 C2873 1.419 . S
C2872 C2870 1.415 . S
C2872 C2877 1.425 1_565 S
C2872 C2879 1.409 . S
C2873 H2865 0.930 . S
C2873 C2871 1.419 . S
C2873 C2874 1.362 . S
C2874 H2866 0.930 . S
C2874 C2873 1.362 . S
C2874 C2877 1.409 . S
C2875 H2867 0.930 . S
C2875 C2876 1.355 1_545 S
C2875 C2877 1.415 . S
C2876 C2875 1.355 1_565 S
C2876 C2878 1.419 . S
C2877 C2872 1.425 1_545 S
C2877 C2874 1.409 . S
C2877 C2875 1.415 . S
C2878 H2868 0.930 . S
C2878 C2876 1.419 . S
C2878 C2879 1.362 . S
C2879 H2869 0.930 . S
C2879 C2872 1.409 . S
C2879 C2878 1.362 . S
C1095 C85 1.701 . S
C1100 C17 1.700 . S
C1111 C119 1.696 . S
C1116 C51 1.696 . S
C1127 C221 1.708 . S
C1132 C153 1.707 . S
C1143 C255 1.708 . S
C1148 C187 1.706 . S
C1159 C357 1.702 . S
C1164 C289 1.703 . S
C1175 C391 1.710 . S
C1180 C323 1.710 . S
C1191 C425 1.696 . S
C1196 C493 1.696 . S
C1207 C459 1.701 . S
C1212 C527 1.700 . S
C1223 C629 1.705 . S
C1228 C561 1.704 . S
C1239 C663 1.706 . S
C1244 C595 1.704 . S
C1255 C765 1.697 . S
C1260 C697 1.696 . S
C1271 C731 1.696 . S
C1276 C799 1.695 . S
C1287 C833 1.698 . S
C1292 C901 1.700 . S
C1303 C935 1.707 . S
C1308 C867 1.705 . S
C1319 C1037 1.703 . S
C1324 C969 1.704 . S
C1335 C1003 1.696 . S
C1340 C1071 1.697 . S
C1351 C158 1.582 1_554 S
C1356 C22 1.582 1_556 S
C1367 C1008 1.574 1_554 S
C1372 C56 1.574 1_556 S
C1383 C83 1.531 . S
C1388 C498 1.531 . S
C1399 C797 1.628 . S
C1404 C124 1.628 . S
C1415 C872 1.530 1_556 S
C1420 C192 1.530 1_554 S
C1431 C226 1.569 . S
C1436 C355 1.569 . S
C1447 C661 1.611 . S
C1452 C260 1.611 . S
C1463 C430 1.529 . S
C1468 C294 1.529 . S
C1479 C736 1.609 . S
C1484 C328 1.609 . S
C1495 C1069 1.628 . S
C1500 C389 1.628 . S
C1511 C464 1.618 . S
C1516 C600 1.618 . S
C1527 C940 1.606 . S
C1532 C525 1.606 . S
C1543 C566 1.535 . S
C1548 C702 1.535 . S
C1559 C1042 1.628 . S
C1564 C627 1.628 . S
C1575 C770 1.551 . S
C1580 C899 1.551 . S
C1591 C974 1.628 1_554 S
C1596 C838 1.628 1_556 S
C1607 C341 2.008 . S
C1612 C3 1.974 . S
C1623 C375 1.976 . S
C1628 C37 1.998 . S
C1639 C275 2.024 . S
C1644 C69 2.017 1_556 S
C1655 C309 2.004 . S
C1660 C105 1.974 1_556 S
C1671 C139 1.974 . S
C1676 C479 2.013 . S
C1687 C511 1.975 . S
C1692 C173 2.016 . S
C1703 C207 2.031 1_554 S
C1708 C411 1.992 . S
C1719 C445 1.980 . S
C1724 C241 1.991 1_554 S
C1735 C547 1.997 . S
C1740 C885 2.032 1_556 S
C1751 C921 1.993 1_556 S
C1756 C581 2.031 . S
C1767 C819 1.982 . S
C1772 C613 1.988 . S
C1783 C853 1.975 . S
C1788 C647 2.000 . S
C1799 C1023 2.027 1_554 S
C1804 C683 2.013 . S
C1815 C1055 1.975 1_554 S
C1820 C717 2.017 . S
C1831 C751 2.031 . S
C1836 C955 1.995 . S
C1847 C783 1.977 . S
C1852 C989 2.020 . S
C1863 C15 1.936 . S
C1868 C117 1.935 . S
C1879 C90 1.848 . S
C1884 C49 1.846 . S
C1895 C253 1.938 . S
C1900 C151 1.938 . S
C1911 C219 1.938 . S
C1916 C185 1.937 . S
C1927 C396 1.843 . S
C1932 C287 1.841 . S
C1943 C362 1.938 . S
C1948 C321 1.938 . S
C1959 C532 1.852 . S
C1964 C423 1.854 . S
C1975 C491 1.838 . S
C1980 C457 1.838 . S
C1991 C668 1.936 . S
C1996 C559 1.937 . S
C2007 C593 1.837 . S
C2012 C634 1.837 . S
C2023 C804 1.927 . S
C2028 C695 1.925 . S
C2039 C763 1.838 . S
C2044 C729 1.838 . S
C2055 C933 1.937 . S
C2060 C831 1.938 . S
C2071 C906 1.851 . S
C2076 C865 1.849 . S
C2087 C967 1.933 . S
C2092 C1076 1.932 . S
C2103 C1001 1.839 . S
C2108 C1035 1.840 . S
C2119 C343 1.510 . S
C2124 C1 1.549 1_556 S
C2135 C377 1.546 . S
C2140 C35 1.524 1_556 S
C2151 C273 1.480 . S
C2156 C71 1.540 . S
C2167 C103 1.514 . S
C2172 C307 1.463 . S
C2183 C477 1.473 . S
C2188 C137 1.477 1_554 S
C2199 C171 1.544 1_554 S
C2204 C513 1.526 . S
C2215 C409 1.519 . S
C2220 C205 1.464 . S
C2231 C443 1.509 . S
C2236 C239 1.462 . S
C2247 C545 1.468 . S
C2252 C887 1.527 . S
C2263 C919 1.484 . S
C2268 C579 1.468 . S
C2279 C615 1.511 . S
C2284 C817 1.549 1_556 S
C2295 C851 1.545 1_556 S
C2300 C649 1.489 . S
C2311 C1021 1.465 . S
C2316 C681 1.490 . S
C2327 C715 1.501 . S
C2332 C1057 1.548 . S
C2343 C749 1.462 . S
C2348 C953 1.509 1_554 S
C2359 C785 1.532 . S
C2364 C987 1.541 1_554 S
C2375 C6 1.441 . S
C2380 C28 1.440 . S
C2391 C62 1.438 . S
C2396 C40 1.443 . S
C2407 C74 1.456 . S
C2412 C96 1.455 . S
C2423 C108 1.457 . S
C2428 C130 1.442 . S
C2439 C142 1.452 . S
C2444 C164 1.458 . S
C2455 C176 1.443 . S
C2460 C198 1.456 . S
C2471 C210 1.443 . S
C2476 C232 1.456 . S
C2487 C244 1.440 . S
C2492 C266 1.452 . S
C2503 C300 1.451 1_545 S
C2508 C278 1.440 . S
C2519 C334 1.455 . S
C2524 C312 1.455 . S
C2535 C368 1.451 . S
C2540 C346 1.458 . S
C2551 C380 1.449 . S
C2556 C402 1.455 1_545 S
C2567 C436 1.436 . S
C2572 C414 1.452 1_565 S
C2583 C448 1.441 . S
C2588 C470 1.454 . S
C2599 C504 1.455 . S
C2604 C482 1.456 . S
C2615 C516 1.458 1_565 S
C2620 C538 1.446 . S
C2631 C572 1.437 . S
C2636 C550 1.444 . S
C2647 C584 1.455 . S
C2652 C606 1.455 . S
C2663 C618 1.458 . S
C2668 C640 1.446 . S
C2679 C674 1.457 . S
C2684 C652 1.442 . S
C2695 C686 1.444 . S
C2700 C708 1.457 . S
C2711 C720 1.445 . S
C2716 C742 1.436 . S
C2727 C776 1.438 . S
C2732 C754 1.442 . S
C2743 C810 1.458 . S
C2748 C788 1.449 . S
C2759 C844 1.451 1_545 S
C2764 C822 1.440 . S
C2775 C856 1.456 . S
C2780 C878 1.454 . S
C2791 C912 1.458 . S
C2796 C890 1.450 . S
C2807 C946 1.436 . S
C2812 C924 1.449 1_545 S
C2823 C958 1.448 . S
C2828 C980 1.459 1_565 S
C2839 C992 1.452 . S
C2844 C1014 1.436 . S
C2855 C1026 1.455 . S
C2860 C1048 1.438 . S
C2871 C1082 1.446 . S
C2876 C1060 1.458 1_565 S
