# Generated by pormake.
# Topology usf, (4)-cn, num edge types: 1
# Building blocks:
#     Node 0, Type 0, BuildingBlock: NAWXER_clean_sbu_0, # of connection points: 4
#     Node 1, Type 0, BuildingBlock: NAWXER_clean_sbu_0, # of connection points: 4
#     Node 2, Type 0, BuildingBlock: NAWXER_clean_sbu_0, # of connection points: 4
#     Node 3, Type 0, BuildingBlock: NAWXER_clean_sbu_0, # of connection points: 4
#     Node 4, Type 0, BuildingBlock: NAWXER_clean_sbu_0, # of connection points: 4
#     Node 5, Type 0, BuildingBlock: NAWXER_clean_sbu_0, # of connection points: 4
#     Node 6, Type 0, BuildingBlock: NAWXER_clean_sbu_0, # of connection points: 4
#     Node 7, Type 0, BuildingBlock: NAWXER_clean_sbu_0, # of connection points: 4
#     Node 8, Type 0, BuildingBlock: NAWXER_clean_sbu_0, # of connection points: 4
#     Node 9, Type 0, BuildingBlock: NAWXER_clean_sbu_0, # of connection points: 4
#     Node 10, Type 0, BuildingBlock: NAWXER_clean_sbu_0, # of connection points: 4
#     Node 11, Type 0, BuildingBlock: NAWXER_clean_sbu_0, # of connection points: 4
#     Node 12, Type 0, BuildingBlock: NAWXER_clean_sbu_0, # of connection points: 4
#     Node 13, Type 0, BuildingBlock: NAWXER_clean_sbu_0, # of connection points: 4
#     Node 14, Type 0, BuildingBlock: NAWXER_clean_sbu_0, # of connection points: 4
#     Node 15, Type 0, BuildingBlock: NAWXER_clean_sbu_0, # of connection points: 4
#     Node 16, Type 0, BuildingBlock: NAWXER_clean_sbu_0, # of connection points: 4
#     Node 17, Type 0, BuildingBlock: NAWXER_clean_sbu_0, # of connection points: 4
#     Edge 18, Type (0, 0), BuildingBlock: EZIPEK_clean_linker_0, # of connection points: 2
#     Edge 19, Type (0, 0), BuildingBlock: EZIPEK_clean_linker_0, # of connection points: 2
#     Edge 20, Type (0, 0), BuildingBlock: EZIPEK_clean_linker_0, # of connection points: 2
#     Edge 21, Type (0, 0), BuildingBlock: EZIPEK_clean_linker_0, # of connection points: 2
#     Edge 22, Type (0, 0), BuildingBlock: EZIPEK_clean_linker_0, # of connection points: 2
#     Edge 23, Type (0, 0), BuildingBlock: EZIPEK_clean_linker_0, # of connection points: 2
#     Edge 24, Type (0, 0), BuildingBlock: EZIPEK_clean_linker_0, # of connection points: 2
#     Edge 25, Type (0, 0), BuildingBlock: EZIPEK_clean_linker_0, # of connection points: 2
#     Edge 26, Type (0, 0), BuildingBlock: EZIPEK_clean_linker_0, # of connection points: 2
#     Edge 27, Type (0, 0), BuildingBlock: EZIPEK_clean_linker_0, # of connection points: 2
#     Edge 28, Type (0, 0), BuildingBlock: EZIPEK_clean_linker_0, # of connection points: 2
#     Edge 29, Type (0, 0), BuildingBlock: EZIPEK_clean_linker_0, # of connection points: 2
#     Edge 30, Type (0, 0), BuildingBlock: EZIPEK_clean_linker_0, # of connection points: 2
#     Edge 31, Type (0, 0), BuildingBlock: EZIPEK_clean_linker_0, # of connection points: 2
#     Edge 32, Type (0, 0), BuildingBlock: EZIPEK_clean_linker_0, # of connection points: 2
#     Edge 33, Type (0, 0), BuildingBlock: EZIPEK_clean_linker_0, # of connection points: 2
#     Edge 34, Type (0, 0), BuildingBlock: EZIPEK_clean_linker_0, # of connection points: 2
#     Edge 35, Type (0, 0), BuildingBlock: EZIPEK_clean_linker_0, # of connection points: 2
#     Edge 36, Type (0, 0), BuildingBlock: EZIPEK_clean_linker_0, # of connection points: 2
#     Edge 37, Type (0, 0), BuildingBlock: EZIPEK_clean_linker_0, # of connection points: 2
#     Edge 38, Type (0, 0), BuildingBlock: EZIPEK_clean_linker_0, # of connection points: 2
#     Edge 39, Type (0, 0), BuildingBlock: EZIPEK_clean_linker_0, # of connection points: 2
#     Edge 40, Type (0, 0), BuildingBlock: EZIPEK_clean_linker_0, # of connection points: 2
#     Edge 41, Type (0, 0), BuildingBlock: EZIPEK_clean_linker_0, # of connection points: 2
#     Edge 42, Type (0, 0), BuildingBlock: EZIPEK_clean_linker_0, # of connection points: 2
#     Edge 43, Type (0, 0), BuildingBlock: EZIPEK_clean_linker_0, # of connection points: 2
#     Edge 44, Type (0, 0), BuildingBlock: EZIPEK_clean_linker_0, # of connection points: 2
#     Edge 45, Type (0, 0), BuildingBlock: EZIPEK_clean_linker_0, # of connection points: 2
#     Edge 46, Type (0, 0), BuildingBlock: EZIPEK_clean_linker_0, # of connection points: 2
#     Edge 47, Type (0, 0), BuildingBlock: EZIPEK_clean_linker_0, # of connection points: 2
#     Edge 48, Type (0, 0), BuildingBlock: EZIPEK_clean_linker_0, # of connection points: 2
#     Edge 49, Type (0, 0), BuildingBlock: EZIPEK_clean_linker_0, # of connection points: 2
#     Edge 50, Type (0, 0), BuildingBlock: EZIPEK_clean_linker_0, # of connection points: 2
#     Edge 51, Type (0, 0), BuildingBlock: EZIPEK_clean_linker_0, # of connection points: 2
#     Edge 52, Type (0, 0), BuildingBlock: EZIPEK_clean_linker_0, # of connection points: 2
#     Edge 53, Type (0, 0), BuildingBlock: EZIPEK_clean_linker_0, # of connection points: 2
# Relax obj value: 0.054
# Max RMSD: 0.096
# Mean RMSD: 0.096
data_MOF--net-usf--node1-NAWXER_clean_sbu_0--edge1-EZIPEK_clean_linker_0
_symmetry_space_group_name_H-M    P1
_symmetry_Int_Tables_number       1
_symmetry_cell_setting            triclinic
loop_
_symmetry_equiv_pos_as_xyz
'x, y, z'
_cell_length_a     34.239108
_cell_length_b     34.809952
_cell_length_c     20.816794
_cell_angle_alpha  89.824801
_cell_angle_beta   90.507096
_cell_angle_gamma 120.31316
loop_
_atom_site_label
_atom_site_type_symbol
_atom_site_fract_x
_atom_site_fract_y
_atom_site_fract_z
_atom_type_partial_charge
C0 C 0.06238 0.61054 0.89575 0.0
C1 C 0.06644 0.58005 0.12464 0.0
O2 O 0.09309 0.63707 0.93469 0.0
Zn3 Zn 0.06886 0.59966 0.01116 0.0
O4 O 1.02876 0.5747 0.91686 0.0
Zn5 Zn 1.00314 0.53851 1.00168 0.0
O6 O 0.94964 0.54381 0.01946 0.0
O7 O 1.01341 0.60754 0.0333 0.0
O8 O 1.03167 0.55098 0.09391 0.0
O9 O 0.09788 0.6137 0.09569 0.0
O10 O 0.07193 0.54224 0.98399 0.0
O11 O 1.0027 0.48378 0.97807 0.0
C12 C 0.97035 0.58477 0.03569 0.0
C13 C 0.04539 0.50082 0.97246 0.0
C14 C 0.63142 0.5602 0.08335 0.0
C15 C 0.59789 0.53044 0.85028 0.0
O16 O 0.59639 0.56039 0.06223 0.0
Zn17 Zn 0.5607 0.55325 0.97615 0.0
O18 O 0.65814 0.55773 0.04342 0.0
Zn19 Zn 0.62249 0.55014 0.96412 0.0
O20 O 0.63134 0.61393 0.94617 0.0
O21 O 0.56696 0.6123 0.96311 0.0
O22 O 0.63291 0.5338 0.87807 0.0
O23 O 0.57033 0.53732 0.88224 0.0
O24 O 0.50535 0.49735 0.99864 0.0
O25 O 0.56476 0.48971 0.9888 0.0
C26 C 0.60847 0.63373 0.9469 0.0
C27 C 0.52266 0.4723 1.00034 0.0
C28 C 0.45232 0.94902 0.13329 0.0
C29 C 0.49343 0.96841 0.90734 0.0
O30 O 0.47219 0.92723 0.11842 0.0
Zn31 Zn 0.50083 0.91624 0.03126 0.0
O32 O 0.44682 0.97171 0.09022 0.0
Zn33 Zn 0.47846 0.96187 0.02257 0.0
O34 O 0.4301 0.89418 0.99601 0.0
O35 O 0.46147 0.85304 0.0134 0.0
O36 O 0.48166 0.99075 0.94197 0.0
O37 O 0.50336 0.94112 0.93406 0.0
O38 O 0.56309 0.93618 0.05457 0.0
O39 O 0.548 0.99065 0.05752 0.0
C40 C 0.42834 0.85664 0.99298 0.0
C41 C 0.57569 0.97642 0.06736 0.0
C42 C 0.46261 0.96346 0.6321 0.0
C43 C 0.42483 0.95763 0.40376 0.0
O44 O 0.48846 0.99982 0.60231 0.0
Zn45 Zn 0.49497 0.02619 0.50731 0.0
O46 O 0.43041 0.93097 0.60205 0.0
Zn47 Zn 0.43936 0.9599 0.51951 0.0
O48 O 0.50053 0.96438 0.48797 0.0
O49 O 0.55378 0.0351 0.47946 0.0
O50 O 0.40232 0.92828 0.44586 0.0
O51 O 0.45795 0.99526 0.42161 0.0
O52 O 0.48335 0.07521 0.5203 0.0
O53 O 0.42234 1.01008 0.53812 0.0
C54 C 0.54086 0.99394 0.47315 0.0
C55 C 0.44207 0.05263 0.53691 0.0
C56 C 0.05742 0.58864 0.62226 0.0
C57 C 0.0411 0.54968 0.39571 0.0
O58 O 1.02512 0.58236 0.58488 0.0
Zn59 Zn 0.04463 0.56423 0.5108 0.0
O60 O 0.08946 0.58346 0.60077 0.0
Zn61 Zn 0.10988 0.56861 0.51185 0.0
O62 O 0.16344 0.62629 0.48941 0.0
O63 O 0.0991 0.6266 0.48432 0.0
O64 O 0.07758 0.55498 0.4211 0.0
O65 O 1.01024 0.54844 0.43085 0.0
O66 O 0.04354 0.50539 0.54174 0.0
O67 O 0.11137 0.51402 0.53112 0.0
C68 C 0.1418 0.64648 0.47702 0.0
C69 C 0.0702 0.48973 0.5474 0.0
C70 C 0.58623 0.5191 0.35049 0.0
C71 C 0.55151 0.50341 0.57905 0.0
O72 O 0.57027 0.47847 0.36856 0.0
Zn73 Zn 0.54401 0.44151 0.45852 0.0
O74 O 0.58643 0.54654 0.3905 0.0
Zn75 Zn 0.55985 0.50764 0.46331 0.0
O76 O 0.61386 0.49488 0.49059 0.0
O77 O 0.58785 0.42285 0.48048 0.0
O78 O 0.55941 0.53594 0.5427 0.0
O79 O 0.54242 0.46609 0.55422 0.0
O80 O 0.4815 0.39561 0.44194 0.0
O81 O 0.4878 0.46159 0.44255 0.0
C82 C 0.61938 0.46136 0.49744 0.0
C83 C 0.46302 0.41909 0.43641 0.0
C84 C 0.72336 0.89405 0.41896 0.0
C85 C 0.68929 0.90753 0.19253 0.0
O86 O 0.75146 0.92112 0.37833 0.0
Zn87 Zn 0.7094 0.90155 0.30597 0.0
O88 O 0.68323 0.86516 0.40079 0.0
Zn89 Zn 0.64209 0.84693 0.31584 0.0
O90 O 0.63212 0.7873 0.29377 0.0
O91 O 0.70347 0.83976 0.28526 0.0
O92 O 0.65506 0.87934 0.22462 0.0
O93 O 0.72739 0.92769 0.22131 0.0
O94 O 0.66018 0.91848 0.3403 0.0
O95 O 0.59419 0.85597 0.34803 0.0
C96 C 0.67287 0.79888 0.28089 0.0
C97 C 0.6181 0.89803 0.35531 0.0
C98 C 0.28337 0.96545 0.28748 0.0
C99 C 0.19085 0.80672 0.34415 0.0
O100 O 0.30471 0.94407 0.2869 0.0
Zn101 Zn 0.29107 0.87813 0.30166 0.0
O102 O 0.24135 0.94511 0.30056 0.0
Zn103 Zn 0.23185 0.88513 0.3123 0.0
O104 O 0.26676 0.89114 0.39918 0.0
O105 O 0.32437 0.88149 0.38058 0.0
O106 O 0.17478 0.8327 0.33932 0.0
O107 O 0.23168 0.82019 0.32876 0.0
O108 O 0.3019 0.86115 0.21687 0.0
O109 O 0.24057 0.86699 0.21819 0.0
C110 C 0.29954 0.88703 0.42038 0.0
C111 C 0.26802 0.85906 0.18758 0.0
C112 C 0.15878 0.32182 0.48704 0.0
C113 C 0.18546 0.34478 0.26236 0.0
O114 O 0.16633 0.29259 0.46229 0.0
Zn115 Zn 0.18194 0.27798 0.37022 0.0
O116 O 0.16393 0.35489 0.45433 0.0
Zn117 Zn 0.17996 0.33872 0.37625 0.0
O118 O 0.11719 0.28022 0.35462 0.0
O119 O 0.12438 0.22137 0.35046 0.0
O120 O 0.18425 0.37222 0.30126 0.0
O121 O 0.18668 0.31065 0.2824 0.0
O122 O 0.24304 0.28524 0.38076 0.0
O123 O 0.24725 0.35017 0.39069 0.0
C124 C 0.09887 0.23826 0.34634 0.0
C125 C 0.2668 0.32702 0.39069 0.0
C126 C 0.23875 0.34422 0.86026 0.0
C127 C 0.14474 0.41527 0.89206 0.0
O128 O 0.19621 0.31853 0.86602 0.0
Zn129 Zn 0.1358 0.31899 0.87868 0.0
O130 O 0.25413 0.38615 0.86079 0.0
Zn131 Zn 0.19622 0.38564 0.87229 0.0
O132 O 0.17959 0.35929 0.96353 0.0
O133 O 0.11962 0.2913 0.96309 0.0
O134 O 0.18729 0.43668 0.88204 0.0
O135 O 0.12294 0.37263 0.89057 0.0
O136 O 0.10774 0.28995 0.7971 0.0
O137 O 0.1648 0.35823 0.78484 0.0
C138 C 0.15125 0.32439 0.99336 0.0
C139 C 0.13419 0.32165 0.76023 0.0
C140 C 0.81351 0.97553 0.80988 0.0
C141 C 0.71101 0.81658 0.85709 0.0
O142 O 0.82512 0.94825 0.8306 0.0
Zn143 Zn 0.76414 0.89604 0.83227 0.0
O144 O 0.77163 0.9625 0.80065 0.0
Zn145 Zn 0.70722 0.9023 0.80711 0.0
O146 O 0.67657 0.91779 0.87084 0.0
O147 O 0.73312 0.91111 0.91001 0.0
O148 O 0.69 0.83637 0.83802 0.0
O149 O 0.75404 0.8378 0.85884 0.0
O150 O 0.74833 0.88919 0.73129 0.0
O151 O 0.68772 0.89557 0.71844 0.0
C152 C 0.7 0.91782 0.91858 0.0
C153 C 0.71886 0.89054 0.69448 0.0
C154 C 0.22029 0.82873 0.91665 0.0
C155 C 0.25371 0.84586 0.6874 0.0
O156 O 0.20889 0.79107 0.8906 0.0
Zn157 Zn 0.20733 0.76707 0.7927 0.0
O158 O 0.22891 0.86178 0.88102 0.0
Zn159 Zn 0.22727 0.83399 0.7998 0.0
O160 O 0.15501 0.7919 0.7754 0.0
O161 O 0.14506 0.72452 0.77388 0.0
O162 O 0.25636 0.87384 0.72858 0.0
O163 O 0.23507 0.80473 0.70411 0.0
O164 O 0.24698 0.74326 0.80965 0.0
O165 O 0.27801 0.81584 0.82392 0.0
C166 C 0.12872 0.74972 0.76751 0.0
C167 C 0.2803 0.78029 0.82797 0.0
C168 C 0.39262 0.2313 0.78226 0.0
C169 C 0.3793 0.2649 0.55559 0.0
O170 O 0.42484 0.26233 0.75031 0.0
Zn171 Zn 0.39172 0.25063 0.66868 0.0
O172 O 0.35541 0.20422 0.75439 0.0
Zn173 Zn 0.32269 0.19406 0.66483 0.0
O174 O 0.31478 0.13639 0.63805 0.0
O175 O 0.38655 0.19 0.63692 0.0
O176 O 0.34536 0.23004 0.57855 0.0
O177 O 0.41306 0.28865 0.59216 0.0
O178 O 0.34273 0.26472 0.70241 0.0
O179 O 0.27451 0.20588 0.69323 0.0
C180 C 0.35622 0.14932 0.62708 0.0
C181 C 0.30026 0.2461 0.71149 0.0
C182 C 0.88816 0.24056 0.81527 0.0
C183 C 0.86292 0.21229 0.58728 0.0
O184 O 0.85671 0.23936 0.78095 0.0
Zn185 Zn 0.87748 0.23013 0.7007 0.0
O186 O 0.9216 0.24016 0.78865 0.0
Zn187 Zn 0.9408 0.23409 0.69219 0.0
O188 O 0.99339 0.29171 0.67159 0.0
O189 O 0.93191 0.29537 0.67768 0.0
O190 O 0.90162 0.21834 0.60493 0.0
O191 O 0.83724 0.21534 0.62797 0.0
O192 O 0.87768 0.16873 0.71936 0.0
O193 O 0.94727 0.18198 0.70417 0.0
C194 C 0.97446 0.31491 0.66752 0.0
C195 C 0.90638 0.15532 0.71967 0.0
C196 C 0.9347 0.65139 0.71039 0.0
C197 C 0.77648 0.53889 0.65669 0.0
O198 O 0.90997 0.66911 0.70351 0.0
Zn199 Zn 0.83872 0.64454 0.69034 0.0
O200 O 0.91603 0.60935 0.70716 0.0
Zn201 Zn 0.85263 0.5924 0.69129 0.0
O202 O 0.8511 0.61833 0.59738 0.0
O203 O 0.83535 0.67207 0.61074 0.0
O204 O 0.80837 0.53115 0.66955 0.0
O205 O 0.78228 0.57787 0.66631 0.0
O206 O 0.82117 0.66036 0.77019 0.0
O207 O 0.82526 0.59984 0.78057 0.0
C208 C 0.84112 0.64633 0.57364 0.0
C209 C 0.81564 0.62792 0.80475 0.0
C210 C 0.78968 0.62139 0.30607 0.0
C211 C 0.76617 0.61844 0.07226 0.0
O212 O 0.81473 0.65844 0.27764 0.0
Zn213 Zn 0.82376 0.68667 0.18442 0.0
O214 O 0.7598 0.58808 0.27434 0.0
Zn215 Zn 0.77143 0.61786 0.19078 0.0
O216 O 0.83776 0.62987 0.16997 0.0
O217 O 0.88587 0.70245 0.16598 0.0
O218 O 0.74227 0.58663 0.11064 0.0
O219 O 0.79533 0.65649 0.09468 0.0
O220 O 0.80592 0.73111 0.19455 0.0
O221 O 0.74742 0.66317 0.20501 0.0
C222 C 0.8776 0.66256 0.15994 0.0
C223 C 0.7641 0.70541 0.20572 0.0
C224 C 0.45352 0.30939 0.14495 0.0
C225 C 0.37772 0.15108 0.21146 0.0
O226 O 0.47414 0.28921 0.16303 0.0
Zn227 Zn 0.42003 0.23072 0.18016 0.0
O228 O 0.41041 0.28817 0.14614 0.0
Zn229 Zn 0.35437 0.22598 0.16895 0.0
O230 O 0.33165 0.24387 0.24297 0.0
O231 O 0.39561 0.24555 0.26324 0.0
O232 O 0.35081 0.16567 0.19898 0.0
O233 O 0.42029 0.17679 0.20597 0.0
O234 O 0.39364 0.21661 0.0857 0.0
O235 O 0.32703 0.21253 0.08298 0.0
C236 C 0.36321 0.25075 0.28242 0.0
C237 C 0.35946 0.212 0.05398 0.0
C238 C 0.86049 0.20015 0.08663 0.0
C239 C 0.8296 0.18655 0.31476 0.0
O240 O 0.85853 0.16537 0.11096 0.0
Zn241 Zn 0.84006 0.13059 0.20105 0.0
O242 O 0.85281 0.22532 0.12182 0.0
Zn243 Zn 0.84027 0.19123 0.19951 0.0
O244 O 0.90458 0.1945 0.2211 0.0
O245 O 0.89422 0.127 0.21936 0.0
O246 O 0.83052 0.21536 0.27627 0.0
O247 O 0.8318 0.15327 0.29314 0.0
O248 O 0.78257 0.07764 0.18068 0.0
O249 O 0.77491 0.13632 0.17707 0.0
C250 C 0.92109 0.16868 0.22657 0.0
C251 C 0.75792 0.09448 0.16901 0.0
C252 C 0.0435 0.59334 0.29834 0.0
C253 C 0.04091 0.55446 0.32518 0.0
C254 C 0.06526 0.53894 0.22289 0.0
C255 C 0.06481 0.57591 0.19509 0.0
N256 N 0.04514 0.63333 0.2022 0.0
N257 N 0.04168 0.48629 0.31108 0.0
C258 C 0.05153 0.6017 0.2316 0.0
C259 C 0.04954 0.52607 0.28669 0.0
N260 N 0.04124 0.62391 0.33693 0.0
N261 N 0.08143 0.51666 0.18831 0.0
H262 H 1.02924 0.47575 0.35731 0.0
H263 H 0.04337 0.46208 0.28405 0.0
H264 H 0.09348 0.52569 0.14156 0.0
H265 H 0.08657 0.49187 0.2074 0.0
H266 H 0.04867 0.65527 0.32102 0.0
H267 H 0.0356 0.6199 0.38616 0.0
H268 H 1.02964 0.64888 0.22449 0.0
H269 H 0.05246 0.64203 0.15402 0.0
C270 C 0.6288 0.51558 0.25264 0.0
C271 C 0.60543 0.53434 0.28408 0.0
C272 C 0.62385 0.58488 0.19197 0.0
C273 C 0.63559 0.55824 0.15484 0.0
N274 N 0.64593 0.49437 0.15093 0.0
N275 N 0.57449 0.5835 0.27471 0.0
C276 C 0.63776 0.5228 0.18551 0.0
C277 C 0.60184 0.56868 0.25183 0.0
N278 N 0.64424 0.4924 0.28694 0.0
N279 N 0.63247 0.62513 0.16882 0.0
H280 H 0.55303 0.56921 0.31364 0.0
H281 H 0.56855 0.60606 0.24968 0.0
H282 H 0.64916 0.63777 0.12534 0.0
H283 H 0.62779 0.64758 0.19601 0.0
H284 H 0.66474 0.48141 0.26708 0.0
H285 H 0.64164 0.48938 0.33667 0.0
H286 H 0.64214 0.46501 0.17022 0.0
H287 H 0.65366 0.49835 0.10229 0.0
C288 C 0.43913 0.98638 0.22946 0.0
C289 C 0.43651 0.94801 0.20058 0.0
C290 C 0.41748 0.91091 0.30555 0.0
C291 C 0.41805 0.9485 0.33335 0.0
N292 N 0.41227 1.01374 0.31533 0.0
N293 N 0.40495 0.86845 0.20827 0.0
C294 C 0.42266 0.98321 0.29277 0.0
C295 C 0.4198 0.90852 0.23766 0.0
N296 N 0.46065 0.02686 0.1997 0.0
N297 N 0.41779 0.87876 0.34297 0.0
H298 H 0.40311 0.8649 0.15849 0.0
H299 H 0.3891 0.83836 0.23313 0.0
H300 H 0.41691 0.87861 0.39286 0.0
H301 H 0.42279 0.85389 0.32402 0.0
H302 H 0.46617 0.056 0.22196 0.0
H303 H 0.47814 0.03287 0.15681 0.0
H304 H 0.41175 0.03787 0.28612 0.0
H305 H 0.39909 1.01132 0.3612 0.0
C306 C 0.10182 0.62769 0.72172 0.0
C307 C 0.05907 0.60184 0.6907 0.0
C308 C 1.02309 0.60168 0.79125 0.0
C309 C 0.06464 0.61716 0.82499 0.0
N310 N 0.14375 0.63777 0.8198 0.0
N311 N 0.97763 0.55561 0.7036 0.0
C312 C 0.10429 0.62842 0.78975 0.0
C313 C 1.01909 0.58679 0.72714 0.0
N314 N 0.13997 0.65271 0.68663 0.0
N315 N 0.98699 0.5999 0.8212 0.0
H316 H 0.97273 0.53927 0.65997 0.0
H317 H 0.94851 0.54146 0.7315 0.0
H318 H 0.98953 0.61199 0.86749 0.0
H319 H 0.95657 0.59105 0.79784 0.0
H320 H 0.17143 0.67401 0.70757 0.0
H321 H 0.13881 0.65688 0.63726 0.0
H322 H 0.17169 0.6416 0.79461 0.0
H323 H 0.14777 0.63794 0.86935 0.0
C324 C 0.53082 0.48401 0.69514 0.0
C325 C 0.56318 0.5108 0.64859 0.0
C326 C 0.61945 0.54948 0.73414 0.0
C327 C 0.5883 0.5206 0.78043 0.0
N328 N 0.51692 0.4547 0.8036 0.0
N329 N 0.64199 0.56105 0.6232 0.0
C330 C 0.5447 0.4861 0.7604 0.0
C331 C 0.60856 0.5412 0.66785 0.0
N332 N 0.4865 0.45773 0.67732 0.0
N333 N 0.65844 0.58658 0.7532 0.0
H334 H 0.63624 0.55675 0.57391 0.0
H335 H 0.67623 0.57858 0.63554 0.0
H336 H 0.66701 0.59457 0.80126 0.0
H337 H 0.67973 0.61161 0.72163 0.0
H338 H 0.46037 0.44069 0.70988 0.0
H339 H 0.47526 0.45624 0.63017 0.0
H340 H 0.4867 0.42625 0.79083 0.0
H341 H 0.52614 0.45495 0.85149 0.0
C342 C 0.44112 0.94949 0.81234 0.0
C343 C 0.48583 0.9662 0.8366 0.0
C344 C 0.51279 0.97142 0.72628 0.0
C345 C 0.46949 0.96098 0.70227 0.0
N346 N 0.39402 0.94691 0.72341 0.0
N347 N 0.56523 0.99653 0.8168 0.0
C348 C 0.43398 0.95162 0.74549 0.0
C349 C 0.52199 0.97798 0.79356 0.0
N350 N 0.40499 0.92973 0.85272 0.0
N351 N 0.54451 0.97337 0.68491 0.0
H352 H 0.57298 1.00149 0.86574 0.0
H353 H 0.59363 1.01017 0.78755 0.0
H354 H 0.53821 0.96709 0.63583 0.0
H355 H 0.57519 0.97672 0.69984 0.0
H356 H 0.37162 0.9119 0.83635 0.0
H357 H 0.40829 0.92713 0.90201 0.0
H358 H 0.36916 0.94524 0.75373 0.0
H359 H 0.38714 0.94886 0.67504 0.0
C360 C 0.71652 0.85425 0.58914 0.0
C361 C 0.72537 0.89277 0.62398 0.0
C362 C 0.74346 0.93592 0.524 0.0
C363 C 0.73379 0.89707 0.48883 0.0
N364 N 0.72277 0.82314 0.48797 0.0
N365 N 0.75794 0.97247 0.62759 0.0
C366 C 0.72411 0.85745 0.52168 0.0
C367 C 0.74234 0.93433 0.59228 0.0
N368 N 0.69914 0.81431 0.62015 0.0
N369 N 0.75058 0.97344 0.49249 0.0
H370 H 0.7565 0.97266 0.67756 0.0
H371 H 0.77589 1.00427 0.60801 0.0
H372 H 0.75204 0.97671 0.44276 0.0
H373 H 0.75173 1.00055 0.51538 0.0
H374 H 0.68734 0.78404 0.59664 0.0
H375 H 0.69359 0.81097 0.66957 0.0
H376 H 0.71965 0.79464 0.50926 0.0
H377 H 0.72915 0.82514 0.43876 0.0
C378 C 0.27286 0.89721 0.59009 0.0
C379 C 0.2731 0.86075 0.62116 0.0
C380 C 0.30084 0.84564 0.52099 0.0
C381 C 0.30267 0.88347 0.49166 0.0
N382 N 0.30707 0.95389 0.50788 0.0
N383 N 0.30519 0.81267 0.62106 0.0
C384 C 0.29476 0.91236 0.52996 0.0
C385 C 0.29269 0.8388 0.58822 0.0
N386 N 0.24869 0.91524 0.61431 0.0
N387 N 0.30414 0.81465 0.48514 0.0
H388 H 0.30344 0.80973 0.67085 0.0
H389 H 0.3228 0.79891 0.59975 0.0
H390 H 0.3105 0.81773 0.4361 0.0
H391 H 0.29718 0.78403 0.50386 0.0
H392 H 0.24511 0.93953 0.59001 0.0
H393 H 0.22735 0.90222 0.6536 0.0
H394 H 0.30527 0.97768 0.53602 0.0
H395 H 0.32387 0.9658 0.46431 0.0
C396 C 0.18597 0.34939 0.59618 0.0
C397 C 0.15018 0.31994 0.55595 0.0
C398 C 0.10075 0.28778 0.64934 0.0
C399 C 0.13789 0.31594 0.68986 0.0
N400 N 0.21954 0.35276 0.69789 0.0
N401 N 0.07802 0.25214 0.54477 0.0
C402 C 0.18167 0.34122 0.66226 0.0
C403 C 0.10883 0.28613 0.58259 0.0
N404 N 0.22529 0.38344 0.57186 0.0
N405 N 0.05814 0.26333 0.67338 0.0
H406 H 0.08372 0.24932 0.49644 0.0
H407 H 0.04927 0.2244 0.56265 0.0
H408 H 0.05021 0.26477 0.72108 0.0
H409 H 1.02978 0.24429 0.64462 0.0
H410 H 0.25032 0.40787 0.6012 0.0
H411 H 0.23182 0.38917 0.52291 0.0
H412 H 0.25208 0.36861 0.67892 0.0
H413 H 0.21713 0.33888 0.74271 0.0
C414 C 0.65155 0.8787 0.08175 0.0
C415 C 0.68495 0.91413 0.12142 0.0
C416 C 0.71934 0.9583 0.02303 0.0
C417 C 0.68814 0.92194 0.98545 0.0
N418 N 0.61495 0.85616 0.97723 0.0
N419 N 0.74726 0.99006 0.12801 0.0
C420 C 0.65086 0.88533 0.01439 0.0
C421 C 0.71733 0.95491 0.09135 0.0
N422 N 0.62338 0.83694 0.10558 0.0
N423 N 0.74924 0.99691 0.9926 0.0
H424 H 0.7417 0.99329 0.17621 0.0
H425 H 0.77751 1.01609 0.11072 0.0
H426 H 0.74957 1.00004 0.94267 0.0
H427 H 0.77122 0.02667 0.0157 0.0
H428 H 0.60291 0.80962 0.07656 0.0
H429 H 0.62294 0.8265 0.15228 0.0
H430 H 0.58417 0.832 0.99625 0.0
H431 H 0.6139 0.85926 0.92756 0.0
C432 C 0.27842 0.86713 0.0048 0.0
C433 C 0.23308 0.8356 0.98625 0.0
C434 C 0.21657 0.81149 0.09862 0.0
C435 C 0.25911 0.84785 0.11797 0.0
N436 N 0.32932 0.91345 0.08944 0.0
N437 N 0.15769 0.77963 0.01681 0.0
C438 C 0.28986 0.87641 0.07106 0.0
C439 C 0.20182 0.80805 0.03355 0.0
N440 N 0.31137 0.88664 0.95946 0.0
N441 N 0.191 0.77935 0.14231 0.0
H442 H 0.14564 0.77661 0.96983 0.0
H443 H 0.13231 0.76194 0.05017 0.0
H444 H 0.20219 0.78016 0.18932 0.0
H445 H 0.16156 0.74985 0.13035 0.0
H446 H 0.3456 0.90567 0.97115 0.0
H447 H 0.30537 0.88019 0.91049 0.0
H448 H 0.35017 0.9384 0.05748 0.0
H449 H 0.33961 0.92118 0.13723 0.0
C450 C 0.20151 0.33883 0.08747 0.0
C451 C 0.15733 0.32524 0.06334 0.0
C452 C 0.13269 0.33012 0.17112 0.0
C453 C 0.17762 0.34648 0.19377 0.0
N454 N 0.25628 0.374 0.17374 0.0
N455 N 0.08312 0.31578 0.07963 0.0
C456 C 0.21251 0.35321 0.15184 0.0
C457 C 0.12335 0.32278 0.10442 0.0
N458 N 0.23272 0.33708 0.04901 0.0
N459 N 0.0986 0.32001 0.21355 0.0
H460 H 0.07457 0.30999 0.03107 0.0
H461 H 0.05954 0.3193 0.10635 0.0
H462 H 0.1041 0.32713 0.26249 0.0
H463 H 0.06454 0.30227 0.20064 0.0
H464 H 0.26351 0.34156 0.06565 0.0
H465 H 0.22637 0.32757 1.00109 0.0
H466 H 0.28412 0.38392 0.14416 0.0
H467 H 0.2651 0.38516 0.22105 0.0
C468 C 0.37457 0.25635 0.95297 0.0
C469 C 0.36404 0.21558 0.98319 0.0
C470 C 0.38556 0.19177 0.88521 0.0
C471 C 0.39198 0.23059 0.85335 0.0
N472 N 0.38556 0.29668 0.85381 0.0
N473 N 0.35514 0.14258 0.97745 0.0
C474 C 0.38485 0.26217 0.88646 0.0
C475 C 0.36842 0.18275 0.94903 0.0
N476 N 0.37692 0.29057 0.98827 0.0
N477 N 0.39644 0.16389 0.85422 0.0
H478 H 0.34199 0.13501 0.02381 0.0
H479 H 0.35362 0.11555 0.95382 0.0
H480 H 0.40946 0.17018 0.80774 0.0
H481 H 0.39627 0.13683 0.87585 0.0
H482 H 0.39068 0.32289 0.97079 0.0
H483 H 0.36821 0.28778 0.03655 0.0
H484 H 0.37377 0.3165 0.87312 0.0
H485 H 0.39518 0.30398 0.80599 0.0
C486 C 0.84669 0.18853 0.90475 0.0
C487 C 0.88119 0.23139 0.88485 0.0
C488 C 0.90442 0.25292 0.9971 0.0
C489 C 0.86979 0.20992 0.01705 0.0
N490 N 0.81437 0.13355 0.98851 0.0
N491 N 0.94615 0.3028 0.90901 0.0
C492 C 0.84286 0.17679 0.97061 0.0
C493 C 0.91107 0.26317 0.93023 0.0
N494 N 0.81698 0.15874 0.86064 0.0
N495 N 0.9314 0.28364 0.04224 0.0
H496 H 0.95044 0.31205 0.86072 0.0
H497 H 0.97215 0.32602 0.93817 0.0
H498 H 0.93141 0.27584 0.09064 0.0
H499 H 0.95357 0.31707 0.03254 0.0
H500 H 0.78671 0.1304 0.87294 0.0
H501 H 0.82074 0.16305 0.81115 0.0
H502 H 0.79996 0.10707 0.95624 0.0
H503 H 0.80679 0.12253 0.03556 0.0
C504 C 0.79394 0.59231 0.98163 0.0
C505 C 0.76816 0.61147 1.00222 0.0
C506 C 0.76762 0.6362 0.89157 0.0
C507 C 0.79896 0.62258 0.87289 0.0
N508 N 0.85164 0.59958 0.90876 0.0
N509 N 0.7347 0.65634 0.97907 0.0
C510 C 0.81441 0.60336 0.92004 0.0
C511 C 0.75634 0.63488 0.95775 0.0
N512 N 0.80075 0.56514 0.02193 0.0
N513 N 0.74724 0.64895 0.84641 0.0
H514 H 0.72299 0.65318 0.02602 0.0
H515 H 0.7306 0.6791 0.9515 0.0
H516 H 0.7503 0.64621 0.79722 0.0
H517 H 0.72286 0.65735 0.85722 0.0
H518 H 0.81561 0.54691 0.00714 0.0
H519 H 0.78762 0.55726 0.06816 0.0
H520 H 0.86605 0.58861 0.94314 0.0
H521 H 0.87231 0.61335 0.86891 0.0
C522 C 0.40956 0.29248 0.37791 0.0
C523 C 0.36571 0.26614 0.35029 0.0
C524 C 0.33448 0.26058 0.45747 0.0
C525 C 0.37765 0.27453 0.48577 0.0
N526 N 0.45713 0.2995 0.46811 0.0
N527 N 0.28468 0.22245 0.36793 0.0
C528 C 0.41576 0.29006 0.44497 0.0
C529 C 0.32743 0.24998 0.39085 0.0
N530 N 0.4454 0.31946 0.3398 0.0
N531 N 0.3002 0.25747 0.49434 0.0
H532 H 0.27698 0.21308 0.3201 0.0
H533 H 0.25681 0.20604 0.39798 0.0
H534 H 0.3052 0.26796 0.54216 0.0
H535 H 0.26884 0.24997 0.47551 0.0
H536 H 0.47794 0.34042 0.3576 0.0
H537 H 0.4413 0.3245 0.29137 0.0
H538 H 0.48401 0.30617 0.43803 0.0
H539 H 0.46408 0.29688 0.51603 0.0
C540 C 0.80274 0.16329 0.42763 0.0
C541 C 0.83461 0.19522 0.38464 0.0
C542 C 0.87961 0.24124 0.47535 0.0
C543 C 0.851 0.20691 0.51816 0.0
N544 N 0.78793 0.133 0.53571 0.0
N545 N 0.90809 0.26062 0.36755 0.0
C546 C 0.81295 0.16737 0.49463 0.0
C547 C 0.87417 0.23333 0.40838 0.0
N548 N 0.76251 0.12957 0.4044 0.0
N549 N 0.91152 0.28193 0.49866 0.0
H550 H 0.90651 0.25609 0.31799 0.0
H551 H 0.93982 0.28554 0.38336 0.0
H552 H 0.91649 0.28911 0.54754 0.0
H553 H 0.92991 0.30971 0.46964 0.0
H554 H 0.73603 0.10761 0.43363 0.0
H555 H 0.75409 0.12593 0.3556 0.0
H556 H 0.76289 0.10154 0.52051 0.0
H557 H 0.79452 0.13485 0.58497 0.0
C558 C 0.85709 0.64129 0.45789 0.0
C559 C 0.82712 0.64076 0.50488 0.0
C560 C 0.76766 0.61855 0.42188 0.0
C561 C 0.79783 0.6188 0.37565 0.0
N562 N 0.86415 0.61463 0.35383 0.0
N563 N 0.74967 0.61623 0.53444 0.0
C564 C 0.84048 0.62546 0.39504 0.0
C565 C 0.78114 0.62588 0.48779 0.0
N566 N 0.90175 0.65798 0.47283 0.0
N567 N 0.72646 0.61204 0.40277 0.0
H568 H 0.75737 0.62061 0.5833 0.0
H569 H 0.71505 0.60009 0.52504 0.0
H570 H 0.71449 0.60382 0.35565 0.0
H571 H 0.70521 0.61702 0.43273 0.0
H572 H 0.92599 0.66302 0.43874 0.0
H573 H 0.91532 0.67067 0.51816 0.0
H574 H 0.89351 0.6145 0.36706 0.0
H575 H 0.85116 0.60065 0.30879 0.0
C576 C 0.0721 0.44661 0.99184 0.0
C577 C 0.06584 0.4747 0.94887 0.0
C578 C 0.11079 0.46342 0.86717 0.0
C579 C 0.1201 0.43833 0.91208 0.0
N580 N 0.11679 0.41291 0.02082 0.0
N581 N 0.08131 0.51289 0.84722 0.0
C582 C 0.10243 0.43154 0.97534 0.0
C583 C 0.08583 0.48396 0.88692 0.0
N584 N 0.04917 0.43448 0.04859 0.0
N585 N 0.12452 0.46635 0.80506 0.0
H586 H 0.06014 0.52546 0.85758 0.0
H587 H 0.09984 0.526 0.80541 0.0
H588 H 0.14369 0.4526 0.78944 0.0
H589 H 0.11461 0.47993 0.76822 0.0
H590 H 0.04836 0.41026 0.07894 0.0
H591 H 1.02775 0.44598 0.06295 0.0
H592 H 0.10908 0.41121 0.06938 0.0
H593 H 0.1403 0.4031 0.0112 0.0
C594 C 0.66676 0.76102 0.94391 0.0
C595 C 0.68458 0.76978 0.88057 0.0
C596 C 0.64525 0.6895 0.85852 0.0
C597 C 0.63069 0.68058 0.92342 0.0
N598 N 0.63102 0.70719 0.0301 0.0
N599 N 0.69575 0.74287 0.78001 0.0
C600 C 0.64212 0.7162 0.9667 0.0
C601 C 0.67527 0.73411 0.83861 0.0
N602 N 0.67331 0.79565 0.98221 0.0
N603 N 0.62881 0.65526 0.81522 0.0
H604 H 0.71696 0.77512 0.76324 0.0
H605 H 0.6946 0.71841 0.75007 0.0
H606 H 0.60588 0.6224 0.82768 0.0
H607 H 0.63435 0.65972 0.76598 0.0
H608 H 0.65727 0.79159 0.02595 0.0
H609 H 0.69311 0.82887 0.96864 0.0
H610 H 0.64215 0.73139 0.06582 0.0
H611 H 0.61257 0.67489 0.04804 0.0
C612 C 0.36141 0.80225 0.84369 0.0
C613 C 0.3171 0.78236 0.86847 0.0
C614 C 0.34713 0.79814 0.97866 0.0
C615 C 0.39149 0.82133 0.95374 0.0
N616 N 0.4421 0.8367 0.86512 0.0
N617 N 0.26673 0.74995 0.95801 0.0
C618 C 0.39897 0.81995 0.88695 0.0
C619 C 0.30971 0.77613 0.93566 0.0
N620 N 0.36723 0.80584 0.7787 0.0
N621 N 0.34099 0.79928 0.04322 0.0
H622 H 0.23882 0.7332 0.92746 0.0
H623 H 0.25899 0.74166 0.00613 0.0
H624 H 0.36808 0.81253 0.07564 0.0
H625 H 0.30973 0.78856 0.06439 0.0
H626 H 0.3983 0.8249 0.75638 0.0
H627 H 0.33995 0.78981 0.74688 0.0
H628 H 0.45005 0.83453 0.81766 0.0
H629 H 0.47018 0.84998 0.89574 0.0
C630 C 0.40165 0.0698 0.62289 0.0
C631 C 0.41693 0.07497 0.55835 0.0
C632 C 0.38704 0.12487 0.53668 0.0
C633 C 0.37085 0.11882 0.60076 0.0
N634 N 0.35518 0.07966 0.70129 0.0
N635 N 0.41634 0.09984 0.45045 0.0
C636 C 0.37547 0.08908 0.64252 0.0
C637 C 0.40737 0.10037 0.51423 0.0
N638 N 0.41453 0.04873 0.6665 0.0
N639 N 0.38372 0.15477 0.49763 0.0
H640 H 0.43107 0.08222 0.43242 0.0
H641 H 0.40611 0.11387 0.41465 0.0
H642 H 0.36618 0.17082 0.51063 0.0
H643 H 0.40002 0.16528 0.45366 0.0
H644 H 0.40868 0.04778 0.71561 0.0
H645 H 0.43469 0.03528 0.65464 0.0
H646 H 0.35308 0.05479 0.73145 0.0
H647 H 0.33704 0.09427 0.71786 0.0
C648 C 0.97851 0.37862 0.60226 0.0
C649 C 1.00026 0.36238 0.64365 0.0
C650 C 0.07311 0.43128 0.62076 0.0
C651 C 0.05082 0.44333 0.57335 0.0
N652 N 0.98602 0.4171 0.5029 0.0
N653 N 0.06946 0.37554 0.69536 0.0
C654 C 1.00485 0.41309 0.5588 0.0
C655 C 0.04818 0.38913 0.65293 0.0
N656 N 0.93332 0.36395 0.60627 0.0
N657 N 0.11711 0.46045 0.63737 0.0
H658 H 0.05203 0.35084 0.72951 0.0
H659 H 0.1043 0.3886 0.69699 0.0
H660 H 0.13632 0.49193 0.61762 0.0
H661 H 0.13492 0.45455 0.67286 0.0
H662 H 0.91768 0.37724 0.57806 0.0
H663 H 0.91308 0.34494 0.64399 0.0
H664 H 0.95321 0.39368 0.48841 0.0
H665 H 1.00506 0.4405 0.46784 0.0
C666 C 0.6925 0.48753 0.64576 0.0
C667 C 0.73613 0.50705 0.61827 0.0
C668 C 0.70188 0.48608 0.51012 0.0
C669 C 0.65842 0.46764 0.5376 0.0
N670 N 0.61124 0.44058 0.63114 0.0
N671 N 0.78281 0.51812 0.52572 0.0
C672 C 0.65346 0.46483 0.60545 0.0
C673 C 0.74089 0.5037 0.55088 0.0
N674 N 0.68851 0.49238 0.71011 0.0
N675 N 0.70572 0.48818 0.44479 0.0
H676 H 0.81228 0.53209 0.55343 0.0
H677 H 0.7884 0.51351 0.47806 0.0
H678 H 0.67756 0.47182 0.41459 0.0
H679 H 0.73609 0.50678 0.42055 0.0
H680 H 0.65813 0.48418 0.73222 0.0
H681 H 0.71637 0.50681 0.74124 0.0
H682 H 0.60515 0.43439 0.68004 0.0
H683 H 0.58222 0.42307 0.60281 0.0
C684 C 0.91856 0.65799 0.06367 0.0
C685 C 0.91027 0.65197 0.13056 0.0
C686 C 0.93733 0.59892 0.13336 0.0
C687 C 0.94692 0.60582 0.06672 0.0
N688 N 0.96055 0.6531 0.97467 0.0
N689 N 0.92612 0.62942 0.23147 0.0
C690 C 0.94191 0.63888 0.03375 0.0
C691 C 0.92394 0.6261 0.16616 0.0
N692 N 0.90275 0.68042 0.02806 0.0
N693 N 0.9413 0.56675 0.16551 0.0
H694 H 0.91984 0.65211 0.25518 0.0
H695 H 0.93935 0.61432 0.26069 0.0
H696 H 0.95228 0.54698 0.14372 0.0
H697 H 0.93076 0.55767 0.21272 0.0
H698 H 0.90346 0.6814 0.97803 0.0
H699 H 0.88637 0.69583 0.04807 0.0
H700 H 0.96191 0.6803 0.95162 0.0
H701 H 0.97879 0.64069 0.95208 0.0
C702 C 0.51356 0.36904 0.07308 0.0
C703 C 0.47591 0.35474 0.11429 0.0
C704 C 0.45968 0.4098 0.06415 0.0
C705 C 0.49865 0.42553 0.02607 0.0
N706 N 0.54728 0.40463 0.97246 0.0
N707 N 0.42141 0.37101 0.16055 0.0
C708 C 0.52111 0.40054 0.02409 0.0
C709 C 0.45135 0.37791 0.1129 0.0
N710 N 0.54393 0.35502 0.0824 0.0
N711 N 0.42863 0.42233 0.05034 0.0
H712 H 0.41804 0.35188 0.20102 0.0
H713 H 0.40408 0.38833 0.1636 0.0
H714 H 0.43081 0.44061 0.00943 0.0
H715 H 0.39734 0.40882 0.0727 0.0
H716 H 0.57389 0.36771 0.05665 0.0
H717 H 0.54331 0.33633 0.12177 0.0
H718 H 0.561 0.38425 0.96506 0.0
H719 H 0.54978 0.42397 0.93266 0.0
C720 C 0.67968 0.02723 0.17939 0.0
C721 C 0.71024 0.06598 0.1447 0.0
C722 C 0.65228 0.04604 0.05952 0.0
C723 C 0.62215 1.00695 0.09378 0.0
N724 N 0.60945 0.95669 0.18166 0.0
N725 N 0.72194 0.11707 0.05758 0.0
C726 C 0.63656 0.99653 0.15229 0.0
C727 C 0.69547 0.07683 0.08655 0.0
N728 N 0.69043 0.02157 0.24084 0.0
N729 N 0.64098 0.05205 0.99857 0.0
H730 H 0.75441 0.1403 0.07274 0.0
H731 H 0.71053 0.12938 0.02084 0.0
H732 H 0.61023 0.03003 0.97647 0.0
H733 H 0.66346 0.07635 0.9672 0.0
H734 H 0.66776 0.99705 0.27182 0.0
H735 H 0.72077 0.04409 0.2635 0.0
H736 H 0.62127 0.94373 0.21693 0.0
H737 H 0.57595 0.9351 0.16816 0.0
C738 C 0.55574 0.96193 0.37639 0.0
C739 C 0.5685 0.97831 0.43997 0.0
C740 C 0.61501 0.94313 0.44777 0.0
C741 C 0.59906 0.92366 0.38589 0.0
N742 N 0.54725 0.90742 0.29716 0.0
N743 N 0.60961 0.98534 0.53724 0.0
C744 C 0.56743 0.93104 0.35182 0.0
C745 C 0.59842 0.96952 0.47578 0.0
N746 N 0.53329 0.97697 0.3389 0.0
N747 N 0.64494 0.93511 0.48043 0.0
H748 H 0.60006 1.00693 0.5568 0.0
H749 H 0.62734 0.97682 0.56949 0.0
H750 H 0.65405 0.91242 0.46447 0.0
H751 H 0.66117 0.95091 0.52294 0.0
H752 H 0.52653 0.96959 0.29019 0.0
H753 H 0.52585 1.00089 0.35499 0.0
H754 H 0.52009 0.90755 0.27442 0.0
H755 H 0.55523 0.88485 0.27711 0.0
C756 C 0.15521 0.68838 0.37559 0.0
C757 C 0.16204 0.68955 0.44299 0.0
C758 C 0.17604 0.7659 0.4472 0.0
C759 C 0.16829 0.76428 0.37979 0.0
N760 N 0.14254 0.72278 0.28195 0.0
N761 N 0.18619 0.73022 0.54178 0.0
C762 C 0.15554 0.72499 0.34466 0.0
C763 C 0.17433 0.72862 0.47861 0.0
N764 N 0.14958 0.65246 0.34133 0.0
N765 N 0.18495 0.80325 0.48065 0.0
H766 H 0.18861 0.70435 0.56311 0.0
H767 H 0.19714 0.75775 0.57154 0.0
H768 H 0.18532 0.83041 0.45876 0.0
H769 H 0.18905 0.80665 0.53022 0.0
H770 H 0.14802 0.65055 0.29144 0.0
H771 H 0.1504 0.62581 0.36298 0.0
H772 H 0.13088 0.69474 0.25303 0.0
H773 H 0.13971 0.74848 0.26064 0.0
C774 C 0.33476 0.36141 0.46605 0.0
C775 C 0.31705 0.34966 0.40259 0.0
C776 C 0.39515 0.38972 0.3613 0.0
C777 C 0.41278 0.39688 0.42484 0.0
N778 N 0.39906 0.38456 0.53819 0.0
N779 N 0.33069 0.34883 0.28956 0.0
C780 C 0.38243 0.38138 0.47736 0.0
C781 C 0.3474 0.36275 0.35016 0.0
N782 N 0.30607 0.35429 0.51566 0.0
N783 N 0.42394 0.41019 0.31148 0.0
H784 H 0.29614 0.33001 0.27932 0.0
H785 H 0.35114 0.35309 0.25038 0.0
H786 H 0.45903 0.4286 0.31719 0.0
H787 H 0.41258 0.41298 0.26621 0.0
H788 H 0.31739 0.36841 0.56083 0.0
H789 H 0.27096 0.3374 0.51026 0.0
H790 H 0.37859 0.36965 0.57778 0.0
H791 H 0.43355 0.39929 0.54838 0.0
C792 C 0.72629 0.74872 0.17554 0.0
C793 C 0.73479 0.72408 0.22213 0.0
C794 C 0.68883 0.73673 0.30029 0.0
C795 C 0.6865 0.76707 0.25706 0.0
N796 N 0.70474 0.80392 0.15403 0.0
N797 N 0.72773 0.69733 0.33085 0.0
C798 C 0.70541 0.77331 0.19457 0.0
C799 C 0.71635 0.71812 0.28479 0.0
N800 N 0.73729 0.74779 0.11279 0.0
N801 N 0.66563 0.72652 0.35674 0.0
H802 H 0.74879 0.68444 0.32193 0.0
H803 H 0.71963 0.69614 0.37917 0.0
H804 H 0.64652 0.74075 0.37049 0.0
H805 H 0.66214 0.70128 0.38734 0.0
H806 H 0.72818 0.7616 0.07525 0.0
H807 H 0.75219 0.7297 0.09728 0.0
H808 H 0.72312 0.81443 0.11163 0.0
H809 H 0.68767 0.82076 0.16458 0.0
C810 C 0.33825 0.09211 0.29559 0.0
C811 C 0.35806 0.1043 0.23366 0.0
C812 C 0.32599 0.02543 0.20603 0.0
C813 C 0.30795 1.01329 0.26896 0.0
N814 N 0.30404 0.03491 0.37747 0.0
N815 N 0.37733 0.08363 0.13361 0.0
C816 C 0.316 0.0466 0.31486 0.0
C817 C 0.3542 0.07123 0.19021 0.0
N818 N 0.34021 0.12407 0.33573 0.0
N819 N 0.31417 0.99316 0.16032 0.0
H820 H 0.39687 0.11675 0.11935 0.0
H821 H 0.38012 0.06152 0.10309 0.0
H822 H 0.29261 0.9594 0.16946 0.0
H823 H 0.32225 0.99982 0.11195 0.0
H824 H 0.3217 0.11693 0.37792 0.0
H825 H 0.35878 0.15799 0.32532 0.0
H826 H 0.31352 0.05784 0.41479 0.0
H827 H 0.28748 1.00197 0.39316 0.0
C828 C 1.02536 0.23648 0.32862 0.0
C829 C 0.0497 0.21343 0.32466 0.0
C830 C 0.99091 0.16094 0.24874 0.0
C831 C 0.96934 0.18694 0.25005 0.0
N832 N 0.98434 0.26223 0.26598 0.0
N833 N 0.04559 0.14414 0.29714 0.0
C834 C 0.99162 0.22836 0.28266 0.0
C835 C 1.0298 0.17287 0.28903 0.0
N836 N 0.03328 0.26553 0.37766 0.0
N837 N 0.97701 0.12759 0.20444 0.0
H838 H 0.06972 0.14887 0.33172 0.0
H839 H 1.03046 0.11256 0.27668 0.0
H840 H 0.95286 0.12188 0.16918 0.0
H841 H 0.99338 0.10971 0.19651 0.0
H842 H 1.01371 0.2804 0.38443 0.0
H843 H 0.05488 0.26991 0.41594 0.0
H844 H 1.00205 0.29364 0.28729 0.0
H845 H 0.96802 0.26219 0.22351 0.0
C846 C 0.26262 0.25238 0.81171 0.0
C847 C 0.28455 0.27072 0.75256 0.0
C848 C 0.29755 0.34367 0.78833 0.0
C849 C 0.26526 0.323 0.83755 0.0
N850 N 0.22022 0.25655 0.90067 0.0
N851 N 0.32002 0.33447 0.68254 0.0
C852 C 0.24895 0.27702 0.85075 0.0
C853 C 0.30136 0.31666 0.74051 0.0
N854 N 0.25742 0.21288 0.83306 0.0
N855 N 0.32531 0.38876 0.78775 0.0
H856 H 0.32106 0.31525 0.64498 0.0
H857 H 0.3299 0.3671 0.66998 0.0
H858 H 0.32685 0.40884 0.82582 0.0
H859 H 0.35148 0.40511 0.75498 0.0
H860 H 0.24662 0.20072 0.87923 0.0
H861 H 0.26833 0.19434 0.80765 0.0
H862 H 0.2019 0.22211 0.90645 0.0
H863 H 0.21372 0.27396 0.93531 0.0
C864 C 0.87979 0.0743 0.70081 0.0
C865 C 0.89192 0.10996 0.74422 0.0
C866 C 0.86035 0.05723 0.8341 0.0
C867 C 0.84747 0.02155 0.79051 0.0
N868 N 0.85372 0.99568 0.68616 0.0
N869 N 0.90398 0.13696 0.85317 0.0
C870 C 0.86031 0.03007 0.72503 0.0
C871 C 0.88548 0.10185 0.81133 0.0
N872 N 0.88482 0.08251 0.63627 0.0
N873 N 0.84715 0.04828 0.89675 0.0
H874 H 0.92322 0.16987 0.83787 0.0
H875 H 0.90374 0.1336 0.90288 0.0
H876 H 0.83095 1.01605 0.91538 0.0
H877 H 0.8504 0.07225 0.92954 0.0
H878 H 0.87167 0.05765 0.6014 0.0
H879 H 0.90014 0.1146 0.61726 0.0
H880 H 0.86565 0.99984 0.63936 0.0
H881 H 0.83932 0.96301 0.70263 0.0
C882 C 0.06387 0.70915 0.68887 0.0
C883 C 0.07956 0.72955 0.75011 0.0
C884 C 1.00084 0.70408 0.78134 0.0
C885 C 0.98475 0.67979 0.72282 0.0
N886 N 1.00038 0.65951 0.61977 0.0
N887 N 0.063 0.74254 0.85731 0.0
C888 C 1.01622 0.68241 0.67628 0.0
C889 C 0.04806 0.72642 0.79674 0.0
N890 N 0.09486 0.71639 0.64237 0.0
N891 N 0.971 0.70605 0.82243 0.0
H892 H 0.09718 0.75979 0.87015 0.0
H893 H 0.04155 0.73624 0.89602 0.0
H894 H 0.93601 0.68748 0.81622 0.0
H895 H 0.9811 0.72864 0.86032 0.0
H896 H 0.08676 0.70539 0.59514 0.0
H897 H 0.12966 0.7363 0.64992 0.0
H898 H 1.02062 0.65679 0.58531 0.0
H899 H 0.96612 0.64182 0.60749 0.0
loop_
_geom_bond_atom_site_label_1
_geom_bond_atom_site_label_2
_geom_bond_distance
_geom_bond_site_symmetry_2
_ccdc_geom_bond_type
C0 O2 1.247 1_655 S
C0 O4 1.258 . S
C1 O8 1.247 1_455 S
C1 O9 1.258 . S
O2 C0 1.247 1_455 S
O2 Zn3 2.027 1_556 S
Zn3 O2 2.027 1_554 S
Zn3 O7 2.024 1_455 S
Zn3 O9 2.036 . S
Zn3 O10 2.028 1_554 S
O4 C0 1.258 . S
O4 Zn5 2.018 1_556 S
Zn5 O4 2.018 1_554 S
Zn5 O6 2.031 . S
Zn5 O8 2.045 . S
Zn5 O11 2.014 1_654 S
O6 Zn5 2.031 . S
O6 C12 1.247 . S
O7 Zn3 2.024 1_655 S
O7 C12 1.268 . S
O8 C1 1.247 1_655 S
O8 Zn5 2.045 . S
O9 C1 1.258 . S
O9 Zn3 2.036 . S
O10 Zn3 2.028 1_556 S
O10 C13 1.247 . S
O11 Zn5 2.014 1_456 S
O11 C13 1.274 . S
C12 O6 1.247 . S
C12 O7 1.268 . S
C13 O10 1.247 . S
C13 O11 1.274 . S
C14 O16 1.247 . S
C14 O18 1.258 . S
C15 O22 1.247 . S
C15 O23 1.258 . S
O16 C14 1.247 . S
O16 Zn17 2.044 . S
Zn17 O16 2.044 . S
Zn17 O21 2.032 1_554 S
Zn17 O23 2.019 1_554 S
Zn17 O24 2.031 . S
O18 C14 1.258 . S
O18 Zn19 2.035 . S
Zn19 O18 2.035 . S
Zn19 O20 2.028 1_554 S
Zn19 O22 2.028 1_554 S
Zn19 O25 2.035 . S
O20 Zn19 2.028 1_556 S
O20 C26 1.247 . S
O21 Zn17 2.032 1_556 S
O21 C26 1.258 . S
O22 C15 1.247 . S
O22 Zn19 2.028 1_556 S
O23 C15 1.258 . S
O23 Zn17 2.019 1_556 S
O24 Zn17 2.031 . S
O24 C27 1.247 . S
O25 Zn19 2.035 . S
O25 C27 1.258 . S
C26 O20 1.247 . S
C26 O21 1.258 . S
C27 O24 1.247 . S
C27 O25 1.258 . S
C28 O30 1.247 . S
C28 O32 1.258 1_565 S
C29 O36 1.247 . S
C29 O37 1.258 1_545 S
O30 C28 1.247 . S
O30 Zn31 2.045 . S
Zn31 O30 2.045 . S
Zn31 O35 2.032 1_554 S
Zn31 O37 2.018 1_554 S
Zn31 O38 2.031 1_565 S
O32 C28 1.258 1_545 S
O32 Zn33 2.035 . S
Zn33 O32 2.035 . S
Zn33 O34 2.030 1_554 S
Zn33 O36 2.028 1_554 S
Zn33 O39 2.035 . S
O34 Zn33 2.030 1_556 S
O34 C40 1.237 1_545 S
O35 Zn31 2.032 1_556 S
O35 C40 1.258 . S
O36 C29 1.247 . S
O36 Zn33 2.028 1_556 S
O37 C29 1.258 1_565 S
O37 Zn31 2.018 1_556 S
O38 Zn31 2.031 1_545 S
O38 C41 1.247 . S
O39 Zn33 2.035 . S
O39 C41 1.258 . S
C40 O34 1.237 1_565 S
C40 O35 1.258 . S
C41 O38 1.247 . S
C41 O39 1.258 . S
C42 O44 1.247 1_565 S
C42 O46 1.258 . S
C43 O50 1.247 1_545 S
C43 O51 1.258 . S
O44 C42 1.247 1_545 S
O44 Zn45 2.028 . S
Zn45 O44 2.028 . S
Zn45 O49 2.051 . S
Zn45 O51 2.035 . S
Zn45 O52 2.028 . S
O46 C42 1.258 . S
O46 Zn47 2.035 . S
Zn47 O46 2.035 . S
Zn47 O48 2.028 . S
Zn47 O50 2.028 . S
Zn47 O53 2.035 1_565 S
O48 Zn47 2.028 . S
O48 C54 1.247 . S
O49 Zn45 2.051 . S
O49 C54 1.244 1_545 S
O50 C43 1.247 1_565 S
O50 Zn47 2.028 . S
O51 C43 1.258 . S
O51 Zn45 2.035 . S
O52 Zn45 2.028 . S
O52 C55 1.247 . S
O53 Zn47 2.035 1_545 S
O53 C55 1.258 . S
C54 O48 1.247 . S
C54 O49 1.244 1_565 S
C55 O52 1.247 . S
C55 O53 1.258 . S
C56 O58 1.247 1_455 S
C56 O60 1.258 . S
C57 O64 1.247 1_655 S
C57 O65 1.258 . S
O58 C56 1.247 1_655 S
O58 Zn59 2.028 . S
Zn59 O58 2.028 . S
Zn59 O63 2.032 1_655 S
Zn59 O65 2.035 . S
Zn59 O66 2.028 . S
O60 C56 1.258 . S
O60 Zn61 2.035 . S
Zn61 O60 2.035 . S
Zn61 O62 2.028 . S
Zn61 O64 2.028 . S
Zn61 O67 2.033 1_455 S
O62 Zn61 2.028 . S
O62 C68 1.247 . S
O63 Zn59 2.032 1_455 S
O63 C68 1.275 . S
O64 C57 1.247 1_455 S
O64 Zn61 2.028 . S
O65 C57 1.258 . S
O65 Zn59 2.035 . S
O66 Zn59 2.028 . S
O66 C69 1.247 . S
O67 Zn61 2.033 1_655 S
O67 C69 1.269 . S
C68 O62 1.247 . S
C68 O63 1.275 . S
C69 O66 1.247 . S
C69 O67 1.269 . S
C70 O72 1.247 . S
C70 O74 1.258 . S
C71 O78 1.247 . S
C71 O79 1.258 . S
O72 C70 1.247 . S
O72 Zn73 2.028 . S
Zn73 O72 2.028 . S
Zn73 O77 2.035 . S
Zn73 O79 2.035 . S
Zn73 O80 2.028 . S
O74 C70 1.258 . S
O74 Zn75 2.035 . S
Zn75 O74 2.035 . S
Zn75 O76 2.028 . S
Zn75 O78 2.028 . S
Zn75 O81 2.035 . S
O76 Zn75 2.028 . S
O76 C82 1.247 . S
O77 Zn73 2.035 . S
O77 C82 1.258 . S
O78 C71 1.247 . S
O78 Zn75 2.028 . S
O79 C71 1.258 . S
O79 Zn73 2.035 . S
O80 Zn73 2.028 . S
O80 C83 1.247 . S
O81 Zn75 2.035 . S
O81 C83 1.258 . S
C82 O76 1.247 . S
C82 O77 1.258 . S
C83 O80 1.247 . S
C83 O81 1.258 . S
C84 O86 1.247 . S
C84 O88 1.258 . S
C85 O92 1.247 . S
C85 O93 1.258 . S
O86 C84 1.247 . S
O86 Zn87 2.028 . S
Zn87 O86 2.028 . S
Zn87 O91 2.035 . S
Zn87 O93 2.035 . S
Zn87 O94 2.028 . S
O88 C84 1.258 . S
O88 Zn89 2.035 . S
Zn89 O88 2.035 . S
Zn89 O90 2.028 . S
Zn89 O92 2.028 . S
Zn89 O95 2.035 . S
O90 Zn89 2.028 . S
O90 C96 1.247 . S
O91 Zn87 2.035 . S
O91 C96 1.258 . S
O92 C85 1.247 . S
O92 Zn89 2.028 . S
O93 C85 1.258 . S
O93 Zn87 2.035 . S
O94 Zn87 2.028 . S
O94 C97 1.247 . S
O95 Zn89 2.035 . S
O95 C97 1.258 . S
C96 O90 1.247 . S
C96 O91 1.258 . S
C97 O94 1.247 . S
C97 O95 1.258 . S
C98 O100 1.247 . S
C98 O102 1.258 . S
C99 O106 1.247 . S
C99 O107 1.258 . S
O100 C98 1.247 . S
O100 Zn101 2.028 . S
Zn101 O100 2.028 . S
Zn101 O105 2.035 . S
Zn101 O107 2.035 . S
Zn101 O108 2.028 . S
O102 C98 1.258 . S
O102 Zn103 2.035 . S
Zn103 O102 2.035 . S
Zn103 O104 2.028 . S
Zn103 O106 2.028 . S
Zn103 O109 2.035 . S
O104 Zn103 2.028 . S
O104 C110 1.247 . S
O105 Zn101 2.035 . S
O105 C110 1.258 . S
O106 C99 1.247 . S
O106 Zn103 2.028 . S
O107 C99 1.258 . S
O107 Zn101 2.035 . S
O108 Zn101 2.028 . S
O108 C111 1.247 . S
O109 Zn103 2.035 . S
O109 C111 1.258 . S
C110 O104 1.247 . S
C110 O105 1.258 . S
C111 O108 1.247 . S
C111 O109 1.258 . S
C112 O114 1.247 . S
C112 O116 1.258 . S
C113 O120 1.247 . S
C113 O121 1.258 . S
O114 C112 1.247 . S
O114 Zn115 2.028 . S
Zn115 O114 2.028 . S
Zn115 O119 2.035 . S
Zn115 O121 2.035 . S
Zn115 O122 2.028 . S
O116 C112 1.258 . S
O116 Zn117 2.035 . S
Zn117 O116 2.035 . S
Zn117 O118 2.028 . S
Zn117 O120 2.028 . S
Zn117 O123 2.035 . S
O118 Zn117 2.028 . S
O118 C124 1.247 . S
O119 Zn115 2.035 . S
O119 C124 1.258 . S
O120 C113 1.247 . S
O120 Zn117 2.028 . S
O121 C113 1.258 . S
O121 Zn115 2.035 . S
O122 Zn115 2.028 . S
O122 C125 1.247 . S
O123 Zn117 2.035 . S
O123 C125 1.258 . S
C124 O118 1.247 . S
C124 O119 1.258 . S
C125 O122 1.247 . S
C125 O123 1.258 . S
C126 O128 1.247 . S
C126 O130 1.258 . S
C127 O134 1.247 . S
C127 O135 1.258 . S
O128 C126 1.247 . S
O128 Zn129 2.028 . S
Zn129 O128 2.028 . S
Zn129 O133 2.035 . S
Zn129 O135 2.035 . S
Zn129 O136 2.028 . S
O130 C126 1.258 . S
O130 Zn131 2.035 . S
Zn131 O130 2.035 . S
Zn131 O132 2.028 . S
Zn131 O134 2.028 . S
Zn131 O137 2.035 . S
O132 Zn131 2.028 . S
O132 C138 1.247 . S
O133 Zn129 2.035 . S
O133 C138 1.258 . S
O134 C127 1.247 . S
O134 Zn131 2.028 . S
O135 C127 1.258 . S
O135 Zn129 2.035 . S
O136 Zn129 2.028 . S
O136 C139 1.247 . S
O137 Zn131 2.035 . S
O137 C139 1.258 . S
C138 O132 1.247 . S
C138 O133 1.258 . S
C139 O136 1.247 . S
C139 O137 1.258 . S
C140 O142 1.247 . S
C140 O144 1.258 . S
C141 O148 1.247 . S
C141 O149 1.258 . S
O142 C140 1.247 . S
O142 Zn143 2.028 . S
Zn143 O142 2.028 . S
Zn143 O147 2.035 . S
Zn143 O149 2.035 . S
Zn143 O150 2.028 . S
O144 C140 1.258 . S
O144 Zn145 2.035 . S
Zn145 O144 2.035 . S
Zn145 O146 2.028 . S
Zn145 O148 2.028 . S
Zn145 O151 2.035 . S
O146 Zn145 2.028 . S
O146 C152 1.247 . S
O147 Zn143 2.035 . S
O147 C152 1.258 . S
O148 C141 1.247 . S
O148 Zn145 2.028 . S
O149 C141 1.258 . S
O149 Zn143 2.035 . S
O150 Zn143 2.028 . S
O150 C153 1.247 . S
O151 Zn145 2.035 . S
O151 C153 1.258 . S
C152 O146 1.247 . S
C152 O147 1.258 . S
C153 O150 1.247 . S
C153 O151 1.258 . S
C154 O156 1.247 . S
C154 O158 1.258 . S
C155 O162 1.247 . S
C155 O163 1.258 . S
O156 C154 1.247 . S
O156 Zn157 2.028 . S
Zn157 O156 2.028 . S
Zn157 O161 2.035 . S
Zn157 O163 2.035 . S
Zn157 O164 2.028 . S
O158 C154 1.258 . S
O158 Zn159 2.035 . S
Zn159 O158 2.035 . S
Zn159 O160 2.028 . S
Zn159 O162 2.028 . S
Zn159 O165 2.035 . S
O160 Zn159 2.028 . S
O160 C166 1.247 . S
O161 Zn157 2.035 . S
O161 C166 1.258 . S
O162 C155 1.247 . S
O162 Zn159 2.028 . S
O163 C155 1.258 . S
O163 Zn157 2.035 . S
O164 Zn157 2.028 . S
O164 C167 1.247 . S
O165 Zn159 2.035 . S
O165 C167 1.258 . S
C166 O160 1.247 . S
C166 O161 1.258 . S
C167 O164 1.247 . S
C167 O165 1.258 . S
C168 O170 1.247 . S
C168 O172 1.258 . S
C169 O176 1.247 . S
C169 O177 1.258 . S
O170 C168 1.247 . S
O170 Zn171 2.028 . S
Zn171 O170 2.028 . S
Zn171 O175 2.035 . S
Zn171 O177 2.035 . S
Zn171 O178 2.028 . S
O172 C168 1.258 . S
O172 Zn173 2.035 . S
Zn173 O172 2.035 . S
Zn173 O174 2.028 . S
Zn173 O176 2.028 . S
Zn173 O179 2.035 . S
O174 Zn173 2.028 . S
O174 C180 1.247 . S
O175 Zn171 2.035 . S
O175 C180 1.258 . S
O176 C169 1.247 . S
O176 Zn173 2.028 . S
O177 C169 1.258 . S
O177 Zn171 2.035 . S
O178 Zn171 2.028 . S
O178 C181 1.247 . S
O179 Zn173 2.035 . S
O179 C181 1.258 . S
C180 O174 1.247 . S
C180 O175 1.258 . S
C181 O178 1.247 . S
C181 O179 1.258 . S
C182 O184 1.247 . S
C182 O186 1.258 . S
C183 O190 1.247 . S
C183 O191 1.258 . S
O184 C182 1.247 . S
O184 Zn185 2.028 . S
Zn185 O184 2.028 . S
Zn185 O189 2.035 . S
Zn185 O191 2.035 . S
Zn185 O192 2.028 . S
O186 C182 1.258 . S
O186 Zn187 2.035 . S
Zn187 O186 2.035 . S
Zn187 O188 2.028 . S
Zn187 O190 2.028 . S
Zn187 O193 2.035 . S
O188 Zn187 2.028 . S
O188 C194 1.247 . S
O189 Zn185 2.035 . S
O189 C194 1.258 . S
O190 C183 1.247 . S
O190 Zn187 2.028 . S
O191 C183 1.258 . S
O191 Zn185 2.035 . S
O192 Zn185 2.028 . S
O192 C195 1.247 . S
O193 Zn187 2.035 . S
O193 C195 1.258 . S
C194 O188 1.247 . S
C194 O189 1.258 . S
C195 O192 1.247 . S
C195 O193 1.258 . S
C196 O198 1.247 . S
C196 O200 1.258 . S
C197 O204 1.247 . S
C197 O205 1.258 . S
O198 C196 1.247 . S
O198 Zn199 2.028 . S
Zn199 O198 2.028 . S
Zn199 O203 2.035 . S
Zn199 O205 2.035 . S
Zn199 O206 2.028 . S
O200 C196 1.258 . S
O200 Zn201 2.035 . S
Zn201 O200 2.035 . S
Zn201 O202 2.028 . S
Zn201 O204 2.028 . S
Zn201 O207 2.035 . S
O202 Zn201 2.028 . S
O202 C208 1.247 . S
O203 Zn199 2.035 . S
O203 C208 1.258 . S
O204 C197 1.247 . S
O204 Zn201 2.028 . S
O205 C197 1.258 . S
O205 Zn199 2.035 . S
O206 Zn199 2.028 . S
O206 C209 1.247 . S
O207 Zn201 2.035 . S
O207 C209 1.258 . S
C208 O202 1.247 . S
C208 O203 1.258 . S
C209 O206 1.247 . S
C209 O207 1.258 . S
C210 O212 1.247 . S
C210 O214 1.258 . S
C211 O218 1.247 . S
C211 O219 1.258 . S
O212 C210 1.247 . S
O212 Zn213 2.028 . S
Zn213 O212 2.028 . S
Zn213 O217 2.035 . S
Zn213 O219 2.035 . S
Zn213 O220 2.028 . S
O214 C210 1.258 . S
O214 Zn215 2.035 . S
Zn215 O214 2.035 . S
Zn215 O216 2.028 . S
Zn215 O218 2.028 . S
Zn215 O221 2.035 . S
O216 Zn215 2.028 . S
O216 C222 1.247 . S
O217 Zn213 2.035 . S
O217 C222 1.258 . S
O218 C211 1.247 . S
O218 Zn215 2.028 . S
O219 C211 1.258 . S
O219 Zn213 2.035 . S
O220 Zn213 2.028 . S
O220 C223 1.247 . S
O221 Zn215 2.035 . S
O221 C223 1.258 . S
C222 O216 1.247 . S
C222 O217 1.258 . S
C223 O220 1.247 . S
C223 O221 1.258 . S
C224 O226 1.247 . S
C224 O228 1.258 . S
C225 O232 1.247 . S
C225 O233 1.258 . S
O226 C224 1.247 . S
O226 Zn227 2.028 . S
Zn227 O226 2.028 . S
Zn227 O231 2.035 . S
Zn227 O233 2.035 . S
Zn227 O234 2.028 . S
O228 C224 1.258 . S
O228 Zn229 2.035 . S
Zn229 O228 2.035 . S
Zn229 O230 2.028 . S
Zn229 O232 2.028 . S
Zn229 O235 2.035 . S
O230 Zn229 2.028 . S
O230 C236 1.247 . S
O231 Zn227 2.035 . S
O231 C236 1.258 . S
O232 C225 1.247 . S
O232 Zn229 2.028 . S
O233 C225 1.258 . S
O233 Zn227 2.035 . S
O234 Zn227 2.028 . S
O234 C237 1.247 . S
O235 Zn229 2.035 . S
O235 C237 1.258 . S
C236 O230 1.247 . S
C236 O231 1.258 . S
C237 O234 1.247 . S
C237 O235 1.258 . S
C238 O240 1.247 . S
C238 O242 1.258 . S
C239 O246 1.247 . S
C239 O247 1.258 . S
O240 C238 1.247 . S
O240 Zn241 2.028 . S
Zn241 O240 2.028 . S
Zn241 O245 2.035 . S
Zn241 O247 2.035 . S
Zn241 O248 2.028 . S
O242 C238 1.258 . S
O242 Zn243 2.035 . S
Zn243 O242 2.035 . S
Zn243 O244 2.028 . S
Zn243 O246 2.028 . S
Zn243 O249 2.035 . S
O244 Zn243 2.028 . S
O244 C250 1.247 . S
O245 Zn241 2.035 . S
O245 C250 1.258 . S
O246 C239 1.247 . S
O246 Zn243 2.028 . S
O247 C239 1.258 . S
O247 Zn241 2.035 . S
O248 Zn241 2.028 . S
O248 C251 1.247 . S
O249 Zn243 2.035 . S
O249 C251 1.258 . S
C250 O244 1.247 . S
C250 O245 1.258 . S
C251 O248 1.247 . S
C251 O249 1.258 . S
C252 C253 1.363 . S
C252 C258 1.379 . S
C252 N260 1.356 . S
C253 C252 1.363 . S
C253 C259 1.363 1_655 S
C254 C255 1.363 . S
C254 C259 1.379 . S
C254 N261 1.356 . S
C255 C254 1.363 . S
C255 C258 1.363 1_455 S
N256 C258 1.356 . S
N256 H268 0.984 . S
N256 H269 0.985 1_655 S
N257 C259 1.356 . S
N257 H262 0.978 1_455 S
N257 H263 0.985 . S
C258 C252 1.379 . S
C258 C255 1.363 1_655 S
C258 N256 1.356 . S
C259 C253 1.363 1_455 S
C259 C254 1.379 . S
C259 N257 1.356 . S
N260 C252 1.356 . S
N260 H266 0.984 . S
N260 H267 0.984 . S
N261 C254 1.356 . S
N261 H264 0.984 . S
N261 H265 0.985 . S
H262 N257 0.978 1_655 S
H263 N257 0.985 . S
H264 N261 0.984 . S
H265 N261 0.985 . S
H266 N260 0.984 . S
H267 N260 0.984 . S
H268 N256 0.984 . S
H269 N256 0.985 1_455 S
C270 C271 1.363 . S
C270 C276 1.379 . S
C270 N278 1.356 . S
C271 C270 1.363 . S
C271 C277 1.363 . S
C272 C273 1.363 . S
C272 C277 1.379 . S
C272 N279 1.356 . S
C273 C272 1.363 . S
C273 C276 1.363 . S
N274 C276 1.356 . S
N274 H286 0.984 . S
N274 H287 0.985 . S
N275 C277 1.356 . S
N275 H280 0.984 . S
N275 H281 0.985 . S
C276 C270 1.379 . S
C276 C273 1.363 . S
C276 N274 1.356 . S
C277 C271 1.363 . S
C277 C272 1.379 . S
C277 N275 1.356 . S
N278 C270 1.356 . S
N278 H284 0.984 . S
N278 H285 0.984 . S
N279 C272 1.356 . S
N279 H282 0.984 . S
N279 H283 0.985 . S
H280 N275 0.984 . S
H281 N275 0.985 . S
H282 N279 0.984 . S
H283 N279 0.985 . S
H284 N278 0.984 . S
H285 N278 0.984 . S
H286 N274 0.984 . S
H287 N274 0.985 . S
C288 C289 1.363 1_545 S
C288 C294 1.379 . S
C288 N296 1.356 . S
C289 C288 1.363 1_565 S
C289 C295 1.363 . S
C290 C291 1.363 1_565 S
C290 C295 1.379 . S
C290 N297 1.356 . S
C291 C290 1.363 1_545 S
C291 C294 1.363 . S
N292 C294 1.356 . S
N292 H304 0.984 . S
N292 H305 0.985 . S
N293 C295 1.356 . S
N293 H298 0.984 . S
N293 H299 0.985 . S
C294 C288 1.379 . S
C294 C291 1.363 . S
C294 N292 1.356 . S
C295 C289 1.363 . S
C295 C290 1.379 . S
C295 N293 1.356 . S
N296 C288 1.356 . S
N296 H302 0.984 . S
N296 H303 0.984 . S
N297 C290 1.356 . S
N297 H300 0.984 . S
N297 H301 0.985 . S
H298 N293 0.984 . S
H299 N293 0.985 . S
H300 N297 0.984 . S
H301 N297 0.985 . S
H302 N296 0.984 . S
H303 N296 0.984 . S
H304 N292 0.984 . S
H305 N292 0.985 . S
C306 C307 1.363 . S
C306 C312 1.379 . S
C306 N314 1.356 . S
C307 C306 1.363 . S
C307 C313 1.363 1_455 S
C308 C309 1.363 . S
C308 C313 1.379 . S
C308 N315 1.356 . S
C309 C308 1.363 . S
C309 C312 1.363 1_655 S
N310 C312 1.356 . S
N310 H322 0.984 . S
N310 H323 0.985 . S
N311 C313 1.356 . S
N311 H316 0.984 . S
N311 H317 0.985 . S
C312 C306 1.379 . S
C312 C309 1.363 1_455 S
C312 N310 1.356 . S
C313 C307 1.363 1_655 S
C313 C308 1.379 . S
C313 N311 1.356 . S
N314 C306 1.356 . S
N314 H320 0.984 . S
N314 H321 0.984 . S
N315 C308 1.356 . S
N315 H318 0.984 . S
N315 H319 0.985 . S
H316 N311 0.984 . S
H317 N311 0.985 . S
H318 N315 0.984 . S
H319 N315 0.985 . S
H320 N314 0.984 . S
H321 N314 0.984 . S
H322 N310 0.984 . S
H323 N310 0.985 . S
C324 C325 1.363 . S
C324 C330 1.379 . S
C324 N332 1.356 . S
C325 C324 1.363 . S
C325 C331 1.363 . S
C326 C327 1.363 . S
C326 C331 1.379 . S
C326 N333 1.356 . S
C327 C326 1.363 . S
C327 C330 1.363 . S
N328 C330 1.356 . S
N328 H340 0.984 . S
N328 H341 0.985 . S
N329 C331 1.356 . S
N329 H334 0.984 . S
N329 H335 0.985 . S
C330 C324 1.379 . S
C330 C327 1.363 . S
C330 N328 1.356 . S
C331 C325 1.363 . S
C331 C326 1.379 . S
C331 N329 1.356 . S
N332 C324 1.356 . S
N332 H338 0.984 . S
N332 H339 0.984 . S
N333 C326 1.356 . S
N333 H336 0.984 . S
N333 H337 0.985 . S
H334 N329 0.984 . S
H335 N329 0.985 . S
H336 N333 0.984 . S
H337 N333 0.985 . S
H338 N332 0.984 . S
H339 N332 0.984 . S
H340 N328 0.984 . S
H341 N328 0.985 . S
C342 C343 1.363 . S
C342 C348 1.379 . S
C342 N350 1.356 . S
C343 C342 1.363 . S
C343 C349 1.363 1_545 S
C344 C345 1.363 . S
C344 C349 1.379 . S
C344 N351 1.356 . S
C345 C344 1.363 . S
C345 C348 1.363 1_565 S
N346 C348 1.356 . S
N346 H358 0.984 . S
N346 H359 0.985 . S
N347 C349 1.356 . S
N347 H352 0.984 . S
N347 H353 0.985 . S
C348 C342 1.379 . S
C348 C345 1.363 1_545 S
C348 N346 1.356 . S
C349 C343 1.363 1_565 S
C349 C344 1.379 . S
C349 N347 1.356 . S
N350 C342 1.356 . S
N350 H356 0.984 . S
N350 H357 0.984 . S
N351 C344 1.356 . S
N351 H354 0.984 . S
N351 H355 0.985 . S
H352 N347 0.984 . S
H353 N347 0.985 . S
H354 N351 0.984 . S
H355 N351 0.985 . S
H356 N350 0.984 . S
H357 N350 0.984 . S
H358 N346 0.984 . S
H359 N346 0.985 . S
C360 C361 1.363 . S
C360 C366 1.379 . S
C360 N368 1.356 . S
C361 C360 1.363 . S
C361 C367 1.363 . S
C362 C363 1.363 . S
C362 C367 1.379 . S
C362 N369 1.356 . S
C363 C362 1.363 . S
C363 C366 1.363 . S
N364 C366 1.356 . S
N364 H376 0.984 . S
N364 H377 0.985 . S
N365 C367 1.356 . S
N365 H370 0.984 . S
N365 H371 0.985 . S
C366 C360 1.379 . S
C366 C363 1.363 . S
C366 N364 1.356 . S
C367 C361 1.363 . S
C367 C362 1.379 . S
C367 N365 1.356 . S
N368 C360 1.356 . S
N368 H374 0.984 . S
N368 H375 0.984 . S
N369 C362 1.356 . S
N369 H372 0.984 . S
N369 H373 0.985 . S
H370 N365 0.984 . S
H371 N365 0.985 . S
H372 N369 0.984 . S
H373 N369 0.985 . S
H374 N368 0.984 . S
H375 N368 0.984 . S
H376 N364 0.984 . S
H377 N364 0.985 . S
C378 C379 1.363 . S
C378 C384 1.379 . S
C378 N386 1.356 . S
C379 C378 1.363 . S
C379 C385 1.363 . S
C380 C381 1.363 . S
C380 C385 1.379 . S
C380 N387 1.356 . S
C381 C380 1.363 . S
C381 C384 1.363 . S
N382 C384 1.356 . S
N382 H394 0.984 . S
N382 H395 0.985 . S
N383 C385 1.356 . S
N383 H388 0.984 . S
N383 H389 0.985 . S
C384 C378 1.379 . S
C384 C381 1.363 . S
C384 N382 1.356 . S
C385 C379 1.363 . S
C385 C380 1.379 . S
C385 N383 1.356 . S
N386 C378 1.356 . S
N386 H392 0.984 . S
N386 H393 0.984 . S
N387 C380 1.356 . S
N387 H390 0.984 . S
N387 H391 0.985 . S
H388 N383 0.984 . S
H389 N383 0.985 . S
H390 N387 0.984 . S
H391 N387 0.985 . S
H392 N386 0.984 . S
H393 N386 0.984 . S
H394 N382 0.984 . S
H395 N382 0.985 . S
C396 C397 1.363 . S
C396 C402 1.379 . S
C396 N404 1.356 . S
C397 C396 1.363 . S
C397 C403 1.363 . S
C398 C399 1.363 . S
C398 C403 1.379 . S
C398 N405 1.356 . S
C399 C398 1.363 . S
C399 C402 1.363 . S
N400 C402 1.356 . S
N400 H412 0.984 . S
N400 H413 0.985 . S
N401 C403 1.356 . S
N401 H406 0.984 . S
N401 H407 0.985 . S
C402 C396 1.379 . S
C402 C399 1.363 . S
C402 N400 1.356 . S
C403 C397 1.363 . S
C403 C398 1.379 . S
C403 N401 1.356 . S
N404 C396 1.356 . S
N404 H410 0.984 . S
N404 H411 0.984 . S
N405 C398 1.356 . S
N405 H408 0.984 . S
N405 H409 0.985 . S
H406 N401 0.984 . S
H407 N401 0.985 . S
H408 N405 0.984 . S
H409 N405 0.985 . S
H410 N404 0.984 . S
H411 N404 0.984 . S
H412 N400 0.984 . S
H413 N400 0.985 . S
C414 C415 1.363 . S
C414 C420 1.379 . S
C414 N422 1.356 . S
C415 C414 1.363 . S
C415 C421 1.363 . S
C416 C417 1.363 . S
C416 C421 1.379 . S
C416 N423 1.356 . S
C417 C416 1.363 . S
C417 C420 1.363 . S
N418 C420 1.356 . S
N418 H430 0.984 . S
N418 H431 0.985 1_554 S
N419 C421 1.356 . S
N419 H424 0.984 . S
N419 H425 0.985 . S
C420 C414 1.379 . S
C420 C417 1.363 . S
C420 N418 1.356 . S
C421 C415 1.363 . S
C421 C416 1.379 . S
C421 N419 1.356 . S
N422 C414 1.356 . S
N422 H428 0.984 . S
N422 H429 0.984 . S
N423 C416 1.356 . S
N423 H426 0.984 1_554 S
N423 H427 0.985 . S
H424 N419 0.984 . S
H425 N419 0.985 . S
H426 N423 0.984 1_556 S
H427 N423 0.985 . S
H428 N422 0.984 . S
H429 N422 0.984 . S
H430 N418 0.984 . S
H431 N418 0.985 1_556 S
C432 C433 1.363 . S
C432 C438 1.379 . S
C432 N440 1.356 . S
C433 C432 1.363 . S
C433 C439 1.363 . S
C434 C435 1.363 . S
C434 C439 1.379 . S
C434 N441 1.356 . S
C435 C434 1.363 . S
C435 C438 1.363 . S
N436 C438 1.356 . S
N436 H448 0.984 . S
N436 H449 0.985 . S
N437 C439 1.356 . S
N437 H442 0.984 1_554 S
N437 H443 0.985 . S
C438 C432 1.379 . S
C438 C435 1.363 . S
C438 N436 1.356 . S
C439 C433 1.363 . S
C439 C434 1.379 . S
C439 N437 1.356 . S
N440 C432 1.356 . S
N440 H446 0.984 . S
N440 H447 0.984 1_554 S
N441 C434 1.356 . S
N441 H444 0.984 . S
N441 H445 0.985 . S
H442 N437 0.984 1_556 S
H443 N437 0.985 . S
H444 N441 0.984 . S
H445 N441 0.985 . S
H446 N440 0.984 . S
H447 N440 0.984 1_556 S
H448 N436 0.984 . S
H449 N436 0.985 . S
C450 C451 1.363 . S
C450 C456 1.379 . S
C450 N458 1.356 1_554 S
C451 C450 1.363 . S
C451 C457 1.363 . S
C452 C453 1.363 . S
C452 C457 1.379 . S
C452 N459 1.356 . S
C453 C452 1.363 . S
C453 C456 1.363 . S
N454 C456 1.356 . S
N454 H466 0.984 . S
N454 H467 0.985 . S
N455 C457 1.356 . S
N455 H460 0.984 1_554 S
N455 H461 0.985 . S
C456 C450 1.379 . S
C456 C453 1.363 . S
C456 N454 1.356 . S
C457 C451 1.363 . S
C457 C452 1.379 . S
C457 N455 1.356 . S
N458 C450 1.356 1_556 S
N458 H464 0.984 1_556 S
N458 H465 0.984 . S
N459 C452 1.356 . S
N459 H462 0.984 . S
N459 H463 0.985 . S
H460 N455 0.984 1_556 S
H461 N455 0.985 . S
H462 N459 0.984 . S
H463 N459 0.985 . S
H464 N458 0.984 1_554 S
H465 N458 0.984 . S
H466 N454 0.984 . S
H467 N454 0.985 . S
C468 C469 1.363 . S
C468 C474 1.379 . S
C468 N476 1.356 . S
C469 C468 1.363 . S
C469 C475 1.363 . S
C470 C471 1.363 . S
C470 C475 1.379 . S
C470 N477 1.356 . S
C471 C470 1.363 . S
C471 C474 1.363 . S
N472 C474 1.356 . S
N472 H484 0.984 . S
N472 H485 0.985 . S
N473 C475 1.356 . S
N473 H478 0.984 1_556 S
N473 H479 0.985 . S
C474 C468 1.379 . S
C474 C471 1.363 . S
C474 N472 1.356 . S
C475 C469 1.363 . S
C475 C470 1.379 . S
C475 N473 1.356 . S
N476 C468 1.356 . S
N476 H482 0.984 . S
N476 H483 0.984 1_556 S
N477 C470 1.356 . S
N477 H480 0.984 . S
N477 H481 0.985 . S
H478 N473 0.984 1_554 S
H479 N473 0.985 . S
H480 N477 0.984 . S
H481 N477 0.985 . S
H482 N476 0.984 . S
H483 N476 0.984 1_554 S
H484 N472 0.984 . S
H485 N472 0.985 . S
C486 C487 1.363 . S
C486 C492 1.379 . S
C486 N494 1.356 . S
C487 C486 1.363 . S
C487 C493 1.363 . S
C488 C489 1.363 . S
C488 C493 1.379 . S
C488 N495 1.356 . S
C489 C488 1.363 . S
C489 C492 1.363 . S
N490 C492 1.370 . S
N490 H502 0.988 . S
N490 H503 0.967 1_556 S
N491 C493 1.356 . S
N491 H496 0.984 . S
N491 H497 0.985 . S
C492 C486 1.379 . S
C492 C489 1.363 . S
C492 N490 1.370 . S
C493 C487 1.363 . S
C493 C488 1.379 . S
C493 N491 1.356 . S
N494 C486 1.356 . S
N494 H500 0.984 . S
N494 H501 0.984 . S
N495 C488 1.356 . S
N495 H498 0.984 1_556 S
N495 H499 0.985 . S
H496 N491 0.984 . S
H497 N491 0.985 . S
H498 N495 0.984 1_554 S
H499 N495 0.985 . S
H500 N494 0.984 . S
H501 N494 0.984 . S
H502 N490 0.988 . S
H503 N490 0.967 1_554 S
C504 C505 1.363 . S
C504 C510 1.379 . S
C504 N512 1.356 1_556 S
C505 C504 1.363 . S
C505 C511 1.363 . S
C506 C507 1.363 . S
C506 C511 1.379 . S
C506 N513 1.356 . S
C507 C506 1.363 . S
C507 C510 1.363 . S
N508 C510 1.356 . S
N508 H520 0.984 . S
N508 H521 0.985 . S
N509 C511 1.356 . S
N509 H514 0.984 1_556 S
N509 H515 0.985 . S
C510 C504 1.379 . S
C510 C507 1.363 . S
C510 N508 1.356 . S
C511 C505 1.363 . S
C511 C506 1.379 . S
C511 N509 1.356 . S
N512 C504 1.356 1_554 S
N512 H518 0.984 1_554 S
N512 H519 0.984 . S
N513 C506 1.356 . S
N513 H516 0.984 . S
N513 H517 0.985 . S
H514 N509 0.984 1_554 S
H515 N509 0.985 . S
H516 N513 0.984 . S
H517 N513 0.985 . S
H518 N512 0.984 1_556 S
H519 N512 0.984 . S
H520 N508 0.984 . S
H521 N508 0.985 . S
C522 C523 1.363 . S
C522 C528 1.379 . S
C522 N530 1.356 . S
C523 C522 1.363 . S
C523 C529 1.363 . S
C524 C525 1.363 . S
C524 C529 1.379 . S
C524 N531 1.356 . S
C525 C524 1.363 . S
C525 C528 1.363 . S
N526 C528 1.356 . S
N526 H538 0.984 . S
N526 H539 0.985 . S
N527 C529 1.356 . S
N527 H532 0.984 . S
N527 H533 0.985 . S
C528 C522 1.379 . S
C528 C525 1.363 . S
C528 N526 1.356 . S
C529 C523 1.363 . S
C529 C524 1.379 . S
C529 N527 1.356 . S
N530 C522 1.356 . S
N530 H536 0.984 . S
N530 H537 0.984 . S
N531 C524 1.356 . S
N531 H534 0.984 . S
N531 H535 0.985 . S
H532 N527 0.984 . S
H533 N527 0.985 . S
H534 N531 0.984 . S
H535 N531 0.985 . S
H536 N530 0.984 . S
H537 N530 0.984 . S
H538 N526 0.984 . S
H539 N526 0.985 . S
C540 C541 1.363 . S
C540 C546 1.379 . S
C540 N548 1.356 . S
C541 C540 1.363 . S
C541 C547 1.363 . S
C542 C543 1.363 . S
C542 C547 1.379 . S
C542 N549 1.356 . S
C543 C542 1.363 . S
C543 C546 1.363 . S
N544 C546 1.356 . S
N544 H556 0.984 . S
N544 H557 0.985 . S
N545 C547 1.356 . S
N545 H550 0.984 . S
N545 H551 0.985 . S
C546 C540 1.379 . S
C546 C543 1.363 . S
C546 N544 1.356 . S
C547 C541 1.363 . S
C547 C542 1.379 . S
C547 N545 1.356 . S
N548 C540 1.356 . S
N548 H554 0.984 . S
N548 H555 0.984 . S
N549 C542 1.356 . S
N549 H552 0.984 . S
N549 H553 0.985 . S
H550 N545 0.984 . S
H551 N545 0.985 . S
H552 N549 0.984 . S
H553 N549 0.985 . S
H554 N548 0.984 . S
H555 N548 0.984 . S
H556 N544 0.984 . S
H557 N544 0.985 . S
C558 C559 1.363 . S
C558 C564 1.379 . S
C558 N566 1.356 . S
C559 C558 1.363 . S
C559 C565 1.363 . S
C560 C561 1.363 . S
C560 C565 1.379 . S
C560 N567 1.356 . S
C561 C560 1.363 . S
C561 C564 1.363 . S
N562 C564 1.356 . S
N562 H574 0.984 . S
N562 H575 0.985 . S
N563 C565 1.356 . S
N563 H568 0.984 . S
N563 H569 0.985 . S
C564 C558 1.379 . S
C564 C561 1.363 . S
C564 N562 1.356 . S
C565 C559 1.363 . S
C565 C560 1.379 . S
C565 N563 1.356 . S
N566 C558 1.356 . S
N566 H572 0.984 . S
N566 H573 0.984 . S
N567 C560 1.356 . S
N567 H570 0.984 . S
N567 H571 0.985 . S
H568 N563 0.984 . S
H569 N563 0.985 . S
H570 N567 0.984 . S
H571 N567 0.985 . S
H572 N566 0.984 . S
H573 N566 0.984 . S
H574 N562 0.984 . S
H575 N562 0.985 . S
C576 C577 1.363 . S
C576 C582 1.379 . S
C576 N584 1.356 1_556 S
C577 C576 1.363 . S
C577 C583 1.363 . S
C578 C579 1.363 . S
C578 C583 1.379 . S
C578 N585 1.356 . S
C579 C578 1.363 . S
C579 C582 1.363 . S
N580 C582 1.356 . S
N580 H592 0.984 1_556 S
N580 H593 0.985 . S
N581 C583 1.356 . S
N581 H586 0.984 . S
N581 H587 0.985 . S
C582 C576 1.379 . S
C582 C579 1.363 . S
C582 N580 1.356 . S
C583 C577 1.363 . S
C583 C578 1.379 . S
C583 N581 1.356 . S
N584 C576 1.356 1_554 S
N584 H590 0.984 . S
N584 H591 0.984 . S
N585 C578 1.356 . S
N585 H588 0.984 . S
N585 H589 0.985 . S
H586 N581 0.984 . S
H587 N581 0.985 . S
H588 N585 0.984 . S
H589 N585 0.985 . S
H590 N584 0.984 . S
H591 N584 0.984 . S
H592 N580 0.984 1_554 S
H593 N580 0.985 . S
C594 C595 1.363 . S
C594 C600 1.379 . S
C594 N602 1.356 . S
C595 C594 1.363 . S
C595 C601 1.363 . S
C596 C597 1.363 . S
C596 C601 1.379 . S
C596 N603 1.356 . S
C597 C596 1.363 . S
C597 C600 1.363 . S
N598 C600 1.356 1_554 S
N598 H610 0.984 . S
N598 H611 0.985 . S
N599 C601 1.356 . S
N599 H604 0.984 . S
N599 H605 0.985 . S
C600 C594 1.379 . S
C600 C597 1.363 . S
C600 N598 1.356 1_556 S
C601 C595 1.363 . S
C601 C596 1.379 . S
C601 N599 1.356 . S
N602 C594 1.356 . S
N602 H608 0.984 . S
N602 H609 0.984 . S
N603 C596 1.356 . S
N603 H606 0.984 . S
N603 H607 0.985 . S
H604 N599 0.984 . S
H605 N599 0.985 . S
H606 N603 0.984 . S
H607 N603 0.985 . S
H608 N602 0.984 . S
H609 N602 0.984 . S
H610 N598 0.984 . S
H611 N598 0.985 . S
C612 C613 1.363 . S
C612 C618 1.379 . S
C612 N620 1.356 . S
C613 C612 1.363 . S
C613 C619 1.363 . S
C614 C615 1.363 . S
C614 C619 1.379 . S
C614 N621 1.356 1_556 S
C615 C614 1.363 . S
C615 C618 1.363 . S
N616 C618 1.356 . S
N616 H628 0.984 . S
N616 H629 0.985 . S
N617 C619 1.356 . S
N617 H622 0.984 . S
N617 H623 0.985 1_556 S
C618 C612 1.379 . S
C618 C615 1.363 . S
C618 N616 1.356 . S
C619 C613 1.363 . S
C619 C614 1.379 . S
C619 N617 1.356 . S
N620 C612 1.356 . S
N620 H626 0.984 . S
N620 H627 0.984 . S
N621 C614 1.356 1_554 S
N621 H624 0.984 . S
N621 H625 0.985 . S
H622 N617 0.984 . S
H623 N617 0.985 1_554 S
H624 N621 0.984 . S
H625 N621 0.985 . S
H626 N620 0.984 . S
H627 N620 0.984 . S
H628 N616 0.984 . S
H629 N616 0.985 . S
C630 C631 1.363 . S
C630 C636 1.379 . S
C630 N638 1.356 . S
C631 C630 1.363 . S
C631 C637 1.363 . S
C632 C633 1.363 . S
C632 C637 1.379 . S
C632 N639 1.356 . S
C633 C632 1.363 . S
C633 C636 1.363 . S
N634 C636 1.356 . S
N634 H646 0.984 . S
N634 H647 0.985 . S
N635 C637 1.356 . S
N635 H640 0.984 . S
N635 H641 0.985 . S
C636 C630 1.379 . S
C636 C633 1.363 . S
C636 N634 1.356 . S
C637 C631 1.363 . S
C637 C632 1.379 . S
C637 N635 1.356 . S
N638 C630 1.356 . S
N638 H644 0.984 . S
N638 H645 0.984 . S
N639 C632 1.356 . S
N639 H642 0.984 . S
N639 H643 0.985 . S
H640 N635 0.984 . S
H641 N635 0.985 . S
H642 N639 0.984 . S
H643 N639 0.985 . S
H644 N638 0.984 . S
H645 N638 0.984 . S
H646 N634 0.984 . S
H647 N634 0.985 . S
C648 C649 1.363 . S
C648 C654 1.379 . S
C648 N656 1.356 . S
C649 C648 1.363 . S
C649 C655 1.363 . S
C650 C651 1.363 . S
C650 C655 1.379 . S
C650 N657 1.340 1_655 S
C651 C650 1.363 . S
C651 C654 1.363 . S
N652 C654 1.356 . S
N652 H664 0.984 . S
N652 H665 0.985 . S
N653 C655 1.356 . S
N653 H658 0.984 . S
N653 H659 0.985 . S
C654 C648 1.379 . S
C654 C651 1.363 . S
C654 N652 1.356 . S
C655 C649 1.363 . S
C655 C650 1.379 . S
C655 N653 1.356 . S
N656 C648 1.356 . S
N656 H662 0.984 . S
N656 H663 0.984 . S
N657 C650 1.340 1_455 S
N657 H660 0.977 . S
N657 H661 1.009 . S
H658 N653 0.984 . S
H659 N653 0.985 . S
H660 N657 0.977 . S
H661 N657 1.009 . S
H662 N656 0.984 . S
H663 N656 0.984 . S
H664 N652 0.984 . S
H665 N652 0.985 . S
C666 C667 1.363 . S
C666 C672 1.379 . S
C666 N674 1.356 . S
C667 C666 1.363 . S
C667 C673 1.363 . S
C668 C669 1.363 . S
C668 C673 1.379 . S
C668 N675 1.356 . S
C669 C668 1.363 . S
C669 C672 1.363 . S
N670 C672 1.356 . S
N670 H682 0.984 . S
N670 H683 0.985 . S
N671 C673 1.356 . S
N671 H676 0.984 . S
N671 H677 0.985 . S
C672 C666 1.379 . S
C672 C669 1.363 . S
C672 N670 1.356 . S
C673 C667 1.363 . S
C673 C668 1.379 . S
C673 N671 1.356 . S
N674 C666 1.356 . S
N674 H680 0.984 . S
N674 H681 0.984 . S
N675 C668 1.356 . S
N675 H678 0.984 . S
N675 H679 0.985 . S
H676 N671 0.984 . S
H677 N671 0.985 . S
H678 N675 0.984 . S
H679 N675 0.985 . S
H680 N674 0.984 . S
H681 N674 0.984 . S
H682 N670 0.984 . S
H683 N670 0.985 . S
C684 C685 1.363 . S
C684 C690 1.379 . S
C684 N692 1.356 . S
C685 C684 1.363 . S
C685 C691 1.363 . S
C686 C687 1.363 . S
C686 C691 1.379 . S
C686 N693 1.356 . S
C687 C686 1.363 . S
C687 C690 1.363 . S
N688 C690 1.356 1_556 S
N688 H700 0.984 . S
N688 H701 0.985 . S
N689 C691 1.356 . S
N689 H694 0.984 . S
N689 H695 0.985 . S
C690 C684 1.379 . S
C690 C687 1.363 . S
C690 N688 1.356 1_554 S
C691 C685 1.363 . S
C691 C686 1.379 . S
C691 N689 1.356 . S
N692 C684 1.356 . S
N692 H698 0.984 1_554 S
N692 H699 0.984 . S
N693 C686 1.356 . S
N693 H696 0.984 . S
N693 H697 0.985 . S
H694 N689 0.984 . S
H695 N689 0.985 . S
H696 N693 0.984 . S
H697 N693 0.985 . S
H698 N692 0.984 1_556 S
H699 N692 0.984 . S
H700 N688 0.984 . S
H701 N688 0.985 . S
C702 C703 1.363 . S
C702 C708 1.379 . S
C702 N710 1.356 . S
C703 C702 1.363 . S
C703 C709 1.363 . S
C704 C705 1.363 . S
C704 C709 1.379 . S
C704 N711 1.356 . S
C705 C704 1.363 . S
C705 C708 1.363 . S
N706 C708 1.356 . S
N706 H718 0.984 . S
N706 H719 0.985 . S
N707 C709 1.356 . S
N707 H712 0.984 . S
N707 H713 0.985 . S
C708 C702 1.379 . S
C708 C705 1.363 . S
C708 N706 1.356 . S
C709 C703 1.363 . S
C709 C704 1.379 . S
C709 N707 1.356 . S
N710 C702 1.356 . S
N710 H716 0.984 . S
N710 H717 0.984 . S
N711 C704 1.356 . S
N711 H714 0.984 . S
N711 H715 0.985 . S
H712 N707 0.984 . S
H713 N707 0.985 . S
H714 N711 0.984 . S
H715 N711 0.985 . S
H716 N710 0.984 . S
H717 N710 0.984 . S
H718 N706 0.984 . S
H719 N706 0.985 . S
C720 C721 1.363 . S
C720 C726 1.379 . S
C720 N728 1.356 . S
C721 C720 1.363 . S
C721 C727 1.363 . S
C722 C723 1.363 . S
C722 C727 1.379 . S
C722 N729 1.356 . S
C723 C722 1.363 . S
C723 C726 1.363 . S
N724 C726 1.367 . S
N724 H736 0.969 1_545 S
N724 H737 0.990 1_545 S
N725 C727 1.356 . S
N725 H730 0.984 . S
N725 H731 0.985 . S
C726 C720 1.379 . S
C726 C723 1.363 . S
C726 N724 1.367 . S
C727 C721 1.363 . S
C727 C722 1.379 . S
C727 N725 1.356 . S
N728 C720 1.356 . S
N728 H734 0.984 . S
N728 H735 0.984 . S
N729 C722 1.356 . S
N729 H732 0.987 . S
N729 H733 0.985 . S
H730 N725 0.984 . S
H731 N725 0.985 . S
H732 N729 0.987 . S
H733 N729 0.985 . S
H734 N728 0.984 . S
H735 N728 0.984 . S
H736 N724 0.969 1_565 S
H737 N724 0.990 1_565 S
C738 C739 1.363 . S
C738 C744 1.379 . S
C738 N746 1.356 . S
C739 C738 1.363 . S
C739 C745 1.363 . S
C740 C741 1.363 . S
C740 C745 1.379 . S
C740 N747 1.356 . S
C741 C740 1.363 . S
C741 C744 1.363 . S
N742 C744 1.356 . S
N742 H754 0.984 . S
N742 H755 0.985 . S
N743 C745 1.356 . S
N743 H748 0.984 . S
N743 H749 0.985 . S
C744 C738 1.379 . S
C744 C741 1.363 . S
C744 N742 1.356 . S
C745 C739 1.363 . S
C745 C740 1.379 . S
C745 N743 1.356 . S
N746 C738 1.356 . S
N746 H752 0.984 . S
N746 H753 0.984 . S
N747 C740 1.356 . S
N747 H750 0.984 . S
N747 H751 0.985 . S
H748 N743 0.984 . S
H749 N743 0.985 . S
H750 N747 0.984 . S
H751 N747 0.985 . S
H752 N746 0.984 . S
H753 N746 0.984 . S
H754 N742 0.984 . S
H755 N742 0.985 . S
C756 C757 1.363 . S
C756 C762 1.379 . S
C756 N764 1.356 . S
C757 C756 1.363 . S
C757 C763 1.363 . S
C758 C759 1.363 . S
C758 C763 1.379 . S
C758 N765 1.356 . S
C759 C758 1.363 . S
C759 C762 1.363 . S
N760 C762 1.356 . S
N760 H772 0.984 . S
N760 H773 0.985 . S
N761 C763 1.356 . S
N761 H766 0.984 . S
N761 H767 0.985 . S
C762 C756 1.379 . S
C762 C759 1.363 . S
C762 N760 1.356 . S
C763 C757 1.363 . S
C763 C758 1.379 . S
C763 N761 1.356 . S
N764 C756 1.356 . S
N764 H770 0.984 . S
N764 H771 0.984 . S
N765 C758 1.356 . S
N765 H768 0.984 . S
N765 H769 0.985 . S
H766 N761 0.984 . S
H767 N761 0.985 . S
H768 N765 0.984 . S
H769 N765 0.985 . S
H770 N764 0.984 . S
H771 N764 0.984 . S
H772 N760 0.984 . S
H773 N760 0.985 . S
C774 C775 1.363 . S
C774 C780 1.379 . S
C774 N782 1.356 . S
C775 C774 1.363 . S
C775 C781 1.363 . S
C776 C777 1.363 . S
C776 C781 1.379 . S
C776 N783 1.356 . S
C777 C776 1.363 . S
C777 C780 1.363 . S
N778 C780 1.356 . S
N778 H790 0.984 . S
N778 H791 0.985 . S
N779 C781 1.356 . S
N779 H784 0.984 . S
N779 H785 0.985 . S
C780 C774 1.379 . S
C780 C777 1.363 . S
C780 N778 1.356 . S
C781 C775 1.363 . S
C781 C776 1.379 . S
C781 N779 1.356 . S
N782 C774 1.356 . S
N782 H788 0.984 . S
N782 H789 0.984 . S
N783 C776 1.356 . S
N783 H786 0.984 . S
N783 H787 0.985 . S
H784 N779 0.984 . S
H785 N779 0.985 . S
H786 N783 0.984 . S
H787 N783 0.985 . S
H788 N782 0.984 . S
H789 N782 0.984 . S
H790 N778 0.984 . S
H791 N778 0.985 . S
C792 C793 1.363 . S
C792 C798 1.379 . S
C792 N800 1.356 . S
C793 C792 1.363 . S
C793 C799 1.363 . S
C794 C795 1.363 . S
C794 C799 1.379 . S
C794 N801 1.356 . S
C795 C794 1.363 . S
C795 C798 1.363 . S
N796 C798 1.356 . S
N796 H808 0.984 . S
N796 H809 0.985 . S
N797 C799 1.356 . S
N797 H802 0.984 . S
N797 H803 0.985 . S
C798 C792 1.379 . S
C798 C795 1.363 . S
C798 N796 1.356 . S
C799 C793 1.363 . S
C799 C794 1.379 . S
C799 N797 1.356 . S
N800 C792 1.356 . S
N800 H806 0.984 . S
N800 H807 0.984 . S
N801 C794 1.356 . S
N801 H804 0.984 . S
N801 H805 0.985 . S
H802 N797 0.984 . S
H803 N797 0.985 . S
H804 N801 0.984 . S
H805 N801 0.985 . S
H806 N800 0.984 . S
H807 N800 0.984 . S
H808 N796 0.984 . S
H809 N796 0.985 . S
C810 C811 1.363 . S
C810 C816 1.379 1_545 S
C810 N818 1.356 . S
C811 C810 1.363 . S
C811 C817 1.363 . S
C812 C813 1.363 . S
C812 C817 1.379 1_565 S
C812 N819 1.356 . S
C813 C812 1.363 . S
C813 C816 1.363 . S
N814 C816 1.356 . S
N814 H826 0.984 . S
N814 H827 0.985 . S
N815 C817 1.356 . S
N815 H820 0.984 . S
N815 H821 0.985 . S
C816 C810 1.379 1_565 S
C816 C813 1.363 . S
C816 N814 1.356 . S
C817 C811 1.363 . S
C817 C812 1.379 1_545 S
C817 N815 1.356 . S
N818 C810 1.356 . S
N818 H824 0.984 . S
N818 H825 0.984 . S
N819 C812 1.356 . S
N819 H822 0.984 . S
N819 H823 0.985 . S
H820 N815 0.984 . S
H821 N815 0.985 . S
H822 N819 0.984 . S
H823 N819 0.985 . S
H824 N818 0.984 . S
H825 N818 0.984 . S
H826 N814 0.984 . S
H827 N814 0.985 . S
C828 C829 1.363 . S
C828 C834 1.379 1_455 S
C828 N836 1.356 . S
C829 C828 1.363 . S
C829 C835 1.363 . S
C830 C831 1.363 . S
C830 C835 1.379 1_655 S
C830 N837 1.356 . S
C831 C830 1.363 . S
C831 C834 1.363 . S
N832 C834 1.356 . S
N832 H844 0.984 . S
N832 H845 0.985 . S
N833 C835 1.356 . S
N833 H838 0.984 . S
N833 H839 0.985 . S
C834 C828 1.379 1_655 S
C834 C831 1.363 . S
C834 N832 1.356 . S
C835 C829 1.363 . S
C835 C830 1.379 1_455 S
C835 N833 1.356 . S
N836 C828 1.356 . S
N836 H842 0.984 . S
N836 H843 0.984 . S
N837 C830 1.356 . S
N837 H840 0.984 . S
N837 H841 0.985 . S
H838 N833 0.984 . S
H839 N833 0.985 . S
H840 N837 0.984 . S
H841 N837 0.985 . S
H842 N836 0.984 . S
H843 N836 0.984 . S
H844 N832 0.984 . S
H845 N832 0.985 . S
C846 C847 1.363 . S
C846 C852 1.379 . S
C846 N854 1.356 . S
C847 C846 1.363 . S
C847 C853 1.363 . S
C848 C849 1.363 . S
C848 C853 1.379 . S
C848 N855 1.356 . S
C849 C848 1.363 . S
C849 C852 1.363 . S
N850 C852 1.356 . S
N850 H862 0.984 . S
N850 H863 0.985 . S
N851 C853 1.356 . S
N851 H856 0.984 . S
N851 H857 0.985 . S
C852 C846 1.379 . S
C852 C849 1.363 . S
C852 N850 1.356 . S
C853 C847 1.363 . S
C853 C848 1.379 . S
C853 N851 1.356 . S
N854 C846 1.356 . S
N854 H860 0.984 . S
N854 H861 0.984 . S
N855 C848 1.356 . S
N855 H858 0.984 . S
N855 H859 0.985 . S
H856 N851 0.984 . S
H857 N851 0.985 . S
H858 N855 0.984 . S
H859 N855 0.985 . S
H860 N854 0.984 . S
H861 N854 0.984 . S
H862 N850 0.984 . S
H863 N850 0.985 . S
C864 C865 1.363 . S
C864 C870 1.379 1_545 S
C864 N872 1.356 . S
C865 C864 1.363 . S
C865 C871 1.363 . S
C866 C867 1.363 . S
C866 C871 1.379 1_565 S
C866 N873 1.356 . S
C867 C866 1.363 . S
C867 C870 1.363 . S
N868 C870 1.356 . S
N868 H880 0.984 . S
N868 H881 0.985 . S
N869 C871 1.356 . S
N869 H874 0.984 . S
N869 H875 0.985 . S
C870 C864 1.379 1_565 S
C870 C867 1.363 . S
C870 N868 1.356 . S
C871 C865 1.363 . S
C871 C866 1.379 1_545 S
C871 N869 1.356 . S
N872 C864 1.356 . S
N872 H878 0.984 . S
N872 H879 0.984 . S
N873 C866 1.356 . S
N873 H876 0.984 . S
N873 H877 0.994 . S
H874 N869 0.984 . S
H875 N869 0.985 . S
H876 N873 0.984 . S
H877 N873 0.994 . S
H878 N872 0.984 . S
H879 N872 0.984 . S
H880 N868 0.984 . S
H881 N868 0.985 . S
C882 C883 1.363 . S
C882 C888 1.379 1_455 S
C882 N890 1.356 . S
C883 C882 1.363 . S
C883 C889 1.363 . S
C884 C885 1.363 . S
C884 C889 1.379 1_655 S
C884 N891 1.356 . S
C885 C884 1.363 . S
C885 C888 1.363 . S
N886 C888 1.356 . S
N886 H898 0.984 . S
N886 H899 0.985 . S
N887 C889 1.356 . S
N887 H892 0.984 . S
N887 H893 0.985 . S
C888 C882 1.379 1_655 S
C888 C885 1.363 . S
C888 N886 1.356 . S
C889 C883 1.363 . S
C889 C884 1.379 1_455 S
C889 N887 1.356 . S
N890 C882 1.356 . S
N890 H896 0.984 . S
N890 H897 0.984 . S
N891 C884 1.356 . S
N891 H894 0.984 . S
N891 H895 0.985 . S
H892 N887 0.984 . S
H893 N887 0.985 . S
H894 N891 0.984 . S
H895 N891 0.985 . S
H896 N890 0.984 . S
H897 N890 0.984 . S
H898 N886 0.984 . S
H899 N886 0.985 . S
C253 C57 1.304 . S
C255 C1 1.304 . S
C271 C70 1.305 . S
C273 C14 1.305 . S
C289 C28 1.305 . S
C291 C43 1.304 . S
C307 C56 1.304 . S
C309 C0 1.304 . S
C325 C71 1.305 . S
C327 C15 1.305 . S
C343 C29 1.305 . S
C345 C42 1.304 . S
C361 C153 1.304 . S
C363 C84 1.305 . S
C379 C155 1.304 . S
C381 C110 1.305 . S
C397 C112 1.305 . S
C399 C139 1.305 . S
C415 C85 1.305 . S
C417 C152 1.304 1_554 S
C433 C154 1.304 1_554 S
C435 C111 1.305 . S
C451 C138 1.304 1_554 S
C453 C113 1.305 . S
C469 C237 1.304 1_556 S
C471 C168 1.305 . S
C487 C182 1.305 . S
C489 C238 1.305 1_556 S
C505 C211 1.304 1_556 S
C507 C209 1.304 . S
C523 C236 1.304 . S
C525 C169 1.305 . S
C541 C239 1.305 . S
C543 C183 1.305 . S
C559 C208 1.304 . S
C561 C210 1.304 . S
C577 C13 1.534 . S
C579 C127 1.531 . S
C595 C141 1.534 . S
C597 C26 1.534 . S
C613 C167 1.534 . S
C615 C40 1.534 . S
C631 C55 1.534 . S
C633 C180 1.534 . S
C649 C194 1.534 . S
C651 C69 1.534 . S
C667 C197 1.534 . S
C669 C82 1.534 . S
C685 C222 1.534 . S
C687 C12 1.537 . S
C703 C224 1.534 . S
C705 C27 1.534 . S
C721 C251 1.534 . S
C723 C41 1.534 . S
C739 C54 1.534 . S
C741 C97 1.534 . S
C757 C68 1.534 . S
C759 C99 1.534 . S
C775 C125 1.534 . S
C777 C83 1.534 . S
C793 C223 1.534 . S
C795 C96 1.534 . S
C811 C225 1.534 . S
C813 C98 1.534 . S
C829 C124 1.534 . S
C831 C250 1.534 . S
C847 C181 1.534 . S
C849 C126 1.534 . S
C865 C195 1.534 . S
C867 C140 1.534 . S
C883 C166 1.534 . S
C885 C196 1.534 . S
