# Generated by pormake.
# Topology wlp, (5)-cn, num edge types: 1
# Building blocks:
#     Node 0, Type 0, BuildingBlock: XOMCOT_clean_sbu_0, # of connection points: 5
#     Node 1, Type 0, BuildingBlock: XOMCOT_clean_sbu_0, # of connection points: 5
#     Node 2, Type 0, BuildingBlock: XOMCOT_clean_sbu_0, # of connection points: 5
#     Node 3, Type 0, BuildingBlock: XOMCOT_clean_sbu_0, # of connection points: 5
#     Node 4, Type 0, BuildingBlock: XOMCOT_clean_sbu_0, # of connection points: 5
#     Node 5, Type 0, BuildingBlock: XOMCOT_clean_sbu_0, # of connection points: 5
#     Node 6, Type 0, BuildingBlock: XOMCOT_clean_sbu_0, # of connection points: 5
#     Node 7, Type 0, BuildingBlock: XOMCOT_clean_sbu_0, # of connection points: 5
#     Node 8, Type 0, BuildingBlock: XOMCOT_clean_sbu_0, # of connection points: 5
#     Node 9, Type 0, BuildingBlock: XOMCOT_clean_sbu_0, # of connection points: 5
#     Node 10, Type 0, BuildingBlock: XOMCOT_clean_sbu_0, # of connection points: 5
#     Node 11, Type 0, BuildingBlock: XOMCOT_clean_sbu_0, # of connection points: 5
#     Node 12, Type 0, BuildingBlock: XOMCOT_clean_sbu_0, # of connection points: 5
#     Node 13, Type 0, BuildingBlock: XOMCOT_clean_sbu_0, # of connection points: 5
#     Node 14, Type 0, BuildingBlock: XOMCOT_clean_sbu_0, # of connection points: 5
#     Node 15, Type 0, BuildingBlock: XOMCOT_clean_sbu_0, # of connection points: 5
#     Node 16, Type 0, BuildingBlock: XOMCOT_clean_sbu_0, # of connection points: 5
#     Node 17, Type 0, BuildingBlock: XOMCOT_clean_sbu_0, # of connection points: 5
#     Node 18, Type 0, BuildingBlock: XOMCOT_clean_sbu_0, # of connection points: 5
#     Node 19, Type 0, BuildingBlock: XOMCOT_clean_sbu_0, # of connection points: 5
#     Node 20, Type 0, BuildingBlock: XOMCOT_clean_sbu_0, # of connection points: 5
#     Node 21, Type 0, BuildingBlock: XOMCOT_clean_sbu_0, # of connection points: 5
#     Node 22, Type 0, BuildingBlock: XOMCOT_clean_sbu_0, # of connection points: 5
#     Node 23, Type 0, BuildingBlock: XOMCOT_clean_sbu_0, # of connection points: 5
#     Node 24, Type 0, BuildingBlock: XOMCOT_clean_sbu_0, # of connection points: 5
#     Node 25, Type 0, BuildingBlock: XOMCOT_clean_sbu_0, # of connection points: 5
#     Node 26, Type 0, BuildingBlock: XOMCOT_clean_sbu_0, # of connection points: 5
#     Node 27, Type 0, BuildingBlock: XOMCOT_clean_sbu_0, # of connection points: 5
#     Node 28, Type 0, BuildingBlock: XOMCOT_clean_sbu_0, # of connection points: 5
#     Node 29, Type 0, BuildingBlock: XOMCOT_clean_sbu_0, # of connection points: 5
#     Node 30, Type 0, BuildingBlock: XOMCOT_clean_sbu_0, # of connection points: 5
#     Node 31, Type 0, BuildingBlock: XOMCOT_clean_sbu_0, # of connection points: 5
#     Node 32, Type 0, BuildingBlock: XOMCOT_clean_sbu_0, # of connection points: 5
#     Node 33, Type 0, BuildingBlock: XOMCOT_clean_sbu_0, # of connection points: 5
#     Node 34, Type 0, BuildingBlock: XOMCOT_clean_sbu_0, # of connection points: 5
#     Node 35, Type 0, BuildingBlock: XOMCOT_clean_sbu_0, # of connection points: 5
#     Edge 36, Type (0, 0), BuildingBlock: ZUJKAS_clean_linker_0, # of connection points: 2
#     Edge 37, Type (0, 0), BuildingBlock: ZUJKAS_clean_linker_0, # of connection points: 2
#     Edge 38, Type (0, 0), BuildingBlock: ZUJKAS_clean_linker_0, # of connection points: 2
#     Edge 39, Type (0, 0), BuildingBlock: ZUJKAS_clean_linker_0, # of connection points: 2
#     Edge 40, Type (0, 0), BuildingBlock: ZUJKAS_clean_linker_0, # of connection points: 2
#     Edge 41, Type (0, 0), BuildingBlock: ZUJKAS_clean_linker_0, # of connection points: 2
#     Edge 42, Type (0, 0), BuildingBlock: ZUJKAS_clean_linker_0, # of connection points: 2
#     Edge 43, Type (0, 0), BuildingBlock: ZUJKAS_clean_linker_0, # of connection points: 2
#     Edge 44, Type (0, 0), BuildingBlock: ZUJKAS_clean_linker_0, # of connection points: 2
#     Edge 45, Type (0, 0), BuildingBlock: ZUJKAS_clean_linker_0, # of connection points: 2
#     Edge 46, Type (0, 0), BuildingBlock: ZUJKAS_clean_linker_0, # of connection points: 2
#     Edge 47, Type (0, 0), BuildingBlock: ZUJKAS_clean_linker_0, # of connection points: 2
#     Edge 48, Type (0, 0), BuildingBlock: ZUJKAS_clean_linker_0, # of connection points: 2
#     Edge 49, Type (0, 0), BuildingBlock: ZUJKAS_clean_linker_0, # of connection points: 2
#     Edge 50, Type (0, 0), BuildingBlock: ZUJKAS_clean_linker_0, # of connection points: 2
#     Edge 51, Type (0, 0), BuildingBlock: ZUJKAS_clean_linker_0, # of connection points: 2
#     Edge 52, Type (0, 0), BuildingBlock: ZUJKAS_clean_linker_0, # of connection points: 2
#     Edge 53, Type (0, 0), BuildingBlock: ZUJKAS_clean_linker_0, # of connection points: 2
#     Edge 54, Type (0, 0), BuildingBlock: ZUJKAS_clean_linker_0, # of connection points: 2
#     Edge 55, Type (0, 0), BuildingBlock: ZUJKAS_clean_linker_0, # of connection points: 2
#     Edge 56, Type (0, 0), BuildingBlock: ZUJKAS_clean_linker_0, # of connection points: 2
#     Edge 57, Type (0, 0), BuildingBlock: ZUJKAS_clean_linker_0, # of connection points: 2
#     Edge 58, Type (0, 0), BuildingBlock: ZUJKAS_clean_linker_0, # of connection points: 2
#     Edge 59, Type (0, 0), BuildingBlock: ZUJKAS_clean_linker_0, # of connection points: 2
#     Edge 60, Type (0, 0), BuildingBlock: ZUJKAS_clean_linker_0, # of connection points: 2
#     Edge 61, Type (0, 0), BuildingBlock: ZUJKAS_clean_linker_0, # of connection points: 2
#     Edge 62, Type (0, 0), BuildingBlock: ZUJKAS_clean_linker_0, # of connection points: 2
#     Edge 63, Type (0, 0), BuildingBlock: ZUJKAS_clean_linker_0, # of connection points: 2
#     Edge 64, Type (0, 0), BuildingBlock: ZUJKAS_clean_linker_0, # of connection points: 2
#     Edge 65, Type (0, 0), BuildingBlock: ZUJKAS_clean_linker_0, # of connection points: 2
#     Edge 66, Type (0, 0), BuildingBlock: ZUJKAS_clean_linker_0, # of connection points: 2
#     Edge 67, Type (0, 0), BuildingBlock: ZUJKAS_clean_linker_0, # of connection points: 2
#     Edge 68, Type (0, 0), BuildingBlock: ZUJKAS_clean_linker_0, # of connection points: 2
#     Edge 69, Type (0, 0), BuildingBlock: ZUJKAS_clean_linker_0, # of connection points: 2
#     Edge 70, Type (0, 0), BuildingBlock: ZUJKAS_clean_linker_0, # of connection points: 2
#     Edge 71, Type (0, 0), BuildingBlock: ZUJKAS_clean_linker_0, # of connection points: 2
#     Edge 72, Type (0, 0), BuildingBlock: ZUJKAS_clean_linker_0, # of connection points: 2
#     Edge 73, Type (0, 0), BuildingBlock: ZUJKAS_clean_linker_0, # of connection points: 2
#     Edge 74, Type (0, 0), BuildingBlock: ZUJKAS_clean_linker_0, # of connection points: 2
#     Edge 75, Type (0, 0), BuildingBlock: ZUJKAS_clean_linker_0, # of connection points: 2
#     Edge 76, Type (0, 0), BuildingBlock: ZUJKAS_clean_linker_0, # of connection points: 2
#     Edge 77, Type (0, 0), BuildingBlock: ZUJKAS_clean_linker_0, # of connection points: 2
#     Edge 78, Type (0, 0), BuildingBlock: ZUJKAS_clean_linker_0, # of connection points: 2
#     Edge 79, Type (0, 0), BuildingBlock: ZUJKAS_clean_linker_0, # of connection points: 2
#     Edge 80, Type (0, 0), BuildingBlock: ZUJKAS_clean_linker_0, # of connection points: 2
#     Edge 81, Type (0, 0), BuildingBlock: ZUJKAS_clean_linker_0, # of connection points: 2
#     Edge 82, Type (0, 0), BuildingBlock: ZUJKAS_clean_linker_0, # of connection points: 2
#     Edge 83, Type (0, 0), BuildingBlock: ZUJKAS_clean_linker_0, # of connection points: 2
#     Edge 84, Type (0, 0), BuildingBlock: ZUJKAS_clean_linker_0, # of connection points: 2
#     Edge 85, Type (0, 0), BuildingBlock: ZUJKAS_clean_linker_0, # of connection points: 2
#     Edge 86, Type (0, 0), BuildingBlock: ZUJKAS_clean_linker_0, # of connection points: 2
#     Edge 87, Type (0, 0), BuildingBlock: ZUJKAS_clean_linker_0, # of connection points: 2
#     Edge 88, Type (0, 0), BuildingBlock: ZUJKAS_clean_linker_0, # of connection points: 2
#     Edge 89, Type (0, 0), BuildingBlock: ZUJKAS_clean_linker_0, # of connection points: 2
#     Edge 90, Type (0, 0), BuildingBlock: ZUJKAS_clean_linker_0, # of connection points: 2
#     Edge 91, Type (0, 0), BuildingBlock: ZUJKAS_clean_linker_0, # of connection points: 2
#     Edge 92, Type (0, 0), BuildingBlock: ZUJKAS_clean_linker_0, # of connection points: 2
#     Edge 93, Type (0, 0), BuildingBlock: ZUJKAS_clean_linker_0, # of connection points: 2
#     Edge 94, Type (0, 0), BuildingBlock: ZUJKAS_clean_linker_0, # of connection points: 2
#     Edge 95, Type (0, 0), BuildingBlock: ZUJKAS_clean_linker_0, # of connection points: 2
#     Edge 96, Type (0, 0), BuildingBlock: ZUJKAS_clean_linker_0, # of connection points: 2
#     Edge 97, Type (0, 0), BuildingBlock: ZUJKAS_clean_linker_0, # of connection points: 2
#     Edge 98, Type (0, 0), BuildingBlock: ZUJKAS_clean_linker_0, # of connection points: 2
#     Edge 99, Type (0, 0), BuildingBlock: ZUJKAS_clean_linker_0, # of connection points: 2
#     Edge 100, Type (0, 0), BuildingBlock: ZUJKAS_clean_linker_0, # of connection points: 2
#     Edge 101, Type (0, 0), BuildingBlock: ZUJKAS_clean_linker_0, # of connection points: 2
#     Edge 102, Type (0, 0), BuildingBlock: ZUJKAS_clean_linker_0, # of connection points: 2
#     Edge 103, Type (0, 0), BuildingBlock: ZUJKAS_clean_linker_0, # of connection points: 2
#     Edge 104, Type (0, 0), BuildingBlock: ZUJKAS_clean_linker_0, # of connection points: 2
#     Edge 105, Type (0, 0), BuildingBlock: ZUJKAS_clean_linker_0, # of connection points: 2
#     Edge 106, Type (0, 0), BuildingBlock: ZUJKAS_clean_linker_0, # of connection points: 2
#     Edge 107, Type (0, 0), BuildingBlock: ZUJKAS_clean_linker_0, # of connection points: 2
#     Edge 108, Type (0, 0), BuildingBlock: ZUJKAS_clean_linker_0, # of connection points: 2
#     Edge 109, Type (0, 0), BuildingBlock: ZUJKAS_clean_linker_0, # of connection points: 2
#     Edge 110, Type (0, 0), BuildingBlock: ZUJKAS_clean_linker_0, # of connection points: 2
#     Edge 111, Type (0, 0), BuildingBlock: ZUJKAS_clean_linker_0, # of connection points: 2
#     Edge 112, Type (0, 0), BuildingBlock: ZUJKAS_clean_linker_0, # of connection points: 2
#     Edge 113, Type (0, 0), BuildingBlock: ZUJKAS_clean_linker_0, # of connection points: 2
#     Edge 114, Type (0, 0), BuildingBlock: ZUJKAS_clean_linker_0, # of connection points: 2
#     Edge 115, Type (0, 0), BuildingBlock: ZUJKAS_clean_linker_0, # of connection points: 2
#     Edge 116, Type (0, 0), BuildingBlock: ZUJKAS_clean_linker_0, # of connection points: 2
#     Edge 117, Type (0, 0), BuildingBlock: ZUJKAS_clean_linker_0, # of connection points: 2
#     Edge 118, Type (0, 0), BuildingBlock: ZUJKAS_clean_linker_0, # of connection points: 2
#     Edge 119, Type (0, 0), BuildingBlock: ZUJKAS_clean_linker_0, # of connection points: 2
#     Edge 120, Type (0, 0), BuildingBlock: ZUJKAS_clean_linker_0, # of connection points: 2
#     Edge 121, Type (0, 0), BuildingBlock: ZUJKAS_clean_linker_0, # of connection points: 2
#     Edge 122, Type (0, 0), BuildingBlock: ZUJKAS_clean_linker_0, # of connection points: 2
#     Edge 123, Type (0, 0), BuildingBlock: ZUJKAS_clean_linker_0, # of connection points: 2
#     Edge 124, Type (0, 0), BuildingBlock: ZUJKAS_clean_linker_0, # of connection points: 2
#     Edge 125, Type (0, 0), BuildingBlock: ZUJKAS_clean_linker_0, # of connection points: 2
# Relax obj value: 0.190
# Max RMSD: 0.211
# Mean RMSD: 0.211
data_MOF--net-wlp--node1-XOMCOT_clean_sbu_0--edge1-ZUJKAS_clean_linker_0
_symmetry_space_group_name_H-M    P1
_symmetry_Int_Tables_number       1
_symmetry_cell_setting            triclinic
loop_
_symmetry_equiv_pos_as_xyz
'x, y, z'
_cell_length_a     144.31701
_cell_length_b     144.37258
_cell_length_c     25.496972
_cell_angle_alpha  90.012792
_cell_angle_beta   90.000772
_cell_angle_gamma 119.99973
loop_
_atom_site_label
_atom_site_type_symbol
_atom_site_fract_x
_atom_site_fract_y
_atom_site_fract_z
_atom_type_partial_charge
Co0 Co 0.24869 0.18101 0.03916 0.0
C1 C 0.24415 0.16215 0.97038 0.0
C2 C 0.2478 0.17637 0.92745 0.0
C3 C 0.24592 0.16843 0.89224 0.0
N4 N 0.24676 0.17251 0.97654 0.0
N5 N 0.24364 0.15949 0.91905 0.0
H6 H 0.24277 0.15669 0.00235 0.0
H7 H 0.24983 0.18446 0.91785 0.0
C8 C 0.23787 0.19407 0.00931 0.0
O9 O 0.24183 0.20046 0.04984 0.0
N10 N 0.25056 0.18943 0.10188 0.0
C11 C 0.25991 0.19614 0.12559 0.0
C12 C 0.25788 0.20066 0.16835 0.0
C13 C 0.24293 0.18944 0.13259 0.0
N14 N 0.2472 0.19658 0.17231 0.0
C15 C 0.26964 0.18944 0.99894 0.0
C16 C 0.2753 0.21074 0.99502 0.0
C17 C 0.28318 0.20795 0.98598 0.0
C18 C 0.28014 0.19709 0.98666 0.0
C19 C 0.26481 0.20278 0.00683 0.0
N20 N 0.26216 0.1923 0.01026 0.0
H21 H 0.26759 0.18116 1.00154 0.0
H22 H 0.25912 0.20523 0.01619 0.0
H23 H 0.2677 0.19775 0.11242 0.0
H24 H 0.23446 0.18487 0.12376 0.0
O25 O 0.2546 0.17374 0.07726 0.0
O26 O 0.23733 0.16852 0.075 0.0
O27 O 0.23992 0.18651 1.00163 0.0
C28 C 0.24499 0.16708 0.09317 0.0
H29 H 0.24606 0.16917 0.84996 0.0
H30 H 0.26384 0.20661 0.19411 0.0
H31 H 0.27727 0.21903 0.99446 0.0
H32 H 0.28594 0.19452 0.98055 0.0
Co33 Co 0.82444 0.06742 0.04514 0.0
C34 C 0.84219 0.08312 0.976 0.0
C35 C 0.82864 0.07157 0.9322 0.0
C36 C 0.83648 0.07809 0.89749 0.0
N37 N 0.83214 0.07471 0.98161 0.0
N38 N 0.84503 0.08534 0.92496 0.0
H39 H 0.84741 0.08752 0.00823 0.0
H40 H 0.82105 0.06475 0.92159 0.0
C41 C 0.80888 0.04493 0.00816 0.0
O42 O 0.80156 0.04455 0.04017 0.0
N43 N 0.81689 0.06008 0.10892 0.0
C44 C 0.81296 0.0638 0.1461 0.0
C45 C 0.80857 0.05638 0.18559 0.0
C46 C 0.81525 0.05061 0.12777 0.0
N47 N 0.80985 0.04797 0.17386 0.0
C48 C 0.81279 0.07857 0.05124 0.0
C49 C 0.79626 0.06622 0.98348 0.0
C50 C 0.79568 0.074 0.01391 0.0
C51 C 0.80429 0.08045 0.04652 0.0
C52 C 0.80498 0.06453 0.98973 0.0
N53 N 0.81282 0.07022 0.02604 0.0
H54 H 0.81914 0.08374 0.07726 0.0
H55 H 0.80523 0.05861 0.96524 0.0
H56 H 0.81341 0.07148 0.1458 0.0
H57 H 0.81772 0.04564 0.10727 0.0
O58 O 0.83276 0.08006 0.08604 0.0
O59 O 0.83727 0.06771 0.07277 0.0
O60 O 0.81808 0.05339 0.00524 0.0
C61 C 0.83928 0.07659 0.09585 0.0
H62 H 0.83607 0.07727 0.85523 0.0
H63 H 0.80483 0.05725 0.22055 0.0
H64 H 0.78993 0.06133 0.95618 0.0
H65 H 0.80443 0.08691 0.06886 0.0
Co66 Co 0.93613 0.75762 0.04597 0.0
C67 C 0.92241 0.76195 0.97185 0.0
C68 C 0.93272 0.75737 0.93321 0.0
C69 C 0.92697 0.75915 0.89577 0.0
N70 N 0.92989 0.75908 0.98103 0.0
N71 N 0.92045 0.762 0.91988 0.0
H72 H 0.91839 0.76384 0.00217 0.0
H73 H 0.93862 0.75499 0.92599 0.0
C74 C 0.95997 0.76708 0.01822 0.0
O75 O 0.96195 0.76324 0.0607 0.0
N76 N 0.94241 0.75628 0.11091 0.0
C77 C 0.93961 0.74726 0.13813 0.0
C78 C 0.94592 0.74984 0.18229 0.0
C79 C 0.94999 0.76427 0.14032 0.0
N80 N 0.95254 0.76054 0.1834 0.0
C81 C 0.92273 0.73629 0.01292 0.0
C82 C 0.93759 0.72957 0.01187 0.0
C83 C 0.92674 0.72196 0.00439 0.0
C84 C 0.91933 0.72555 0.00392 0.0
C85 C 0.94067 0.74033 0.02075 0.0
N86 N 0.93322 0.74353 0.02258 0.0
H87 H 0.9168 0.73877 0.01402 0.0
H88 H 0.94894 0.74584 0.02863 0.0
H89 H 0.93347 0.73932 0.12656 0.0
H90 H 0.9538 0.77261 0.12922 0.0
O91 O 0.92297 0.75285 0.08319 0.0
O92 O 0.93569 0.76982 0.07641 0.0
O93 O 0.95053 0.76537 0.00853 0.0
C94 C 0.92638 0.76276 0.09534 0.0
H95 H 0.92768 0.75855 0.85381 0.0
H96 H 0.94588 0.74419 0.21031 0.0
H97 H 0.94363 0.72722 0.01198 0.0
H98 H 0.91085 0.72003 0.99908 0.0
Co99 Co 0.17738 0.24151 0.5979 0.0
C100 C 0.16078 0.24099 0.67426 0.0
C101 C 0.16362 0.22783 0.68082 0.0
C102 C 0.15586 0.2263 0.71609 0.0
N103 N 0.16716 0.23727 0.65585 0.0
N104 N 0.15406 0.23455 0.71218 0.0
H105 H 0.16064 0.2479 0.65936 0.0
H106 H 0.16621 0.22213 0.67254 0.0
C107 C 0.18771 0.23607 0.68325 0.0
O108 O 0.18614 0.24277 0.71155 0.0
N109 N 0.18706 0.24468 0.53962 0.0
C110 C 0.19189 0.25351 0.5095 0.0
C111 C 0.19781 0.25196 0.47149 0.0
C112 C 0.18992 0.23786 0.5193 0.0
N113 N 0.19651 0.24209 0.47768 0.0
C114 C 0.18391 0.26253 0.63704 0.0
C115 C 0.20556 0.26959 0.64228 0.0
C116 C 0.20204 0.27692 0.65111 0.0
C117 C 0.19104 0.2732 0.6494 0.0
C118 C 0.19811 0.25889 0.63105 0.0
N119 N 0.18738 0.25543 0.62859 0.0
H120 H 0.17571 0.26026 0.6303 0.0
H121 H 0.20103 0.25352 0.62139 0.0
H122 H 0.19112 0.26053 0.51468 0.0
H123 H 0.18724 0.22995 0.53495 0.0
O124 O 0.1693 0.24617 0.55752 0.0
O125 O 0.1663 0.22954 0.5578 0.0
O126 O 0.18465 0.23439 0.63526 0.0
C127 C 0.16381 0.23649 0.53975 0.0
H128 H 0.15149 0.21939 0.74114 0.0
H129 H 0.20252 0.25758 0.44107 0.0
H130 H 0.21402 0.27217 0.64247 0.0
H131 H 0.188 0.27867 0.65403 0.0
Co132 Co 0.76239 0.93483 0.60714 0.0
C133 C 0.76369 0.91879 0.67859 0.0
C134 C 0.77609 0.93494 0.69122 0.0
C135 C 0.77827 0.92842 0.72127 0.0
N136 N 0.76675 0.92905 0.66542 0.0
N137 N 0.77052 0.91825 0.71322 0.0
H138 H 0.75723 0.91182 0.66008 0.0
H139 H 0.78147 0.94341 0.68592 0.0
C140 C 0.76777 0.95092 0.69038 0.0
O141 O 0.76115 0.94268 0.71911 0.0
N142 N 0.75901 0.94097 0.54804 0.0
C143 C 0.75053 0.93624 0.51558 0.0
C144 C 0.75207 0.9432 0.47498 0.0
C145 C 0.76558 0.95064 0.52693 0.0
N146 N 0.76155 0.95224 0.48228 0.0
C147 C 0.74163 0.92072 0.6502 0.0
C148 C 0.73432 0.93514 0.6474 0.0
C149 C 0.727 0.92432 0.65703 0.0
C150 C 0.73087 0.91717 0.6602 0.0
C151 C 0.74508 0.93838 0.63781 0.0
N152 N 0.74861 0.93117 0.63849 0.0
H153 H 0.74408 0.91484 0.64795 0.0
H154 H 0.75041 0.94659 0.62641 0.0
H155 H 0.74384 0.92822 0.52041 0.0
H156 H 0.7734 0.95619 0.54272 0.0
O157 O 0.75744 0.92183 0.569 0.0
O158 O 0.7741 0.93533 0.56604 0.0
O159 O 0.76964 0.94941 0.64286 0.0
C160 C 0.767 0.92574 0.55019 0.0
H161 H 0.78527 0.93096 0.74574 0.0
H162 H 0.74669 0.94167 0.44239 0.0
H163 H 0.73167 0.94092 0.64385 0.0
H164 H 0.72552 0.90875 0.66785 0.0
Co165 Co 0.06933 0.8229 0.61123 0.0
C166 C 0.08081 0.84123 0.68585 0.0
C167 C 0.08038 0.82716 0.7157 0.0
C168 C 0.08536 0.83518 0.75204 0.0
N169 N 0.07736 0.83083 0.67392 0.0
N170 N 0.08564 0.84399 0.7332 0.0
H171 H 0.07971 0.84669 0.66111 0.0
H172 H 0.07909 0.81919 0.72064 0.0
C173 C 0.05287 0.81189 0.69544 0.0
O174 O 0.05956 0.80949 0.71792 0.0
N175 N 0.06138 0.81531 0.54941 0.0
C176 C 0.06474 0.81118 0.51156 0.0
C177 C 0.05687 0.80657 0.47403 0.0
C178 C 0.05156 0.81325 0.53433 0.0
N179 N 0.04857 0.80788 0.4882 0.0
C180 C 0.08177 0.81307 0.62853 0.0
C181 C 0.06547 0.79199 0.62471 0.0
C182 C 0.07614 0.79429 0.62464 0.0
C183 C 0.08429 0.80497 0.62783 0.0
C184 C 0.06326 0.80043 0.62521 0.0
N185 N 0.07139 0.81084 0.6274 0.0
H186 H 0.08825 0.82126 0.62851 0.0
H187 H 0.05507 0.79863 0.62112 0.0
H188 H 0.07236 0.81143 0.51151 0.0
H189 H 0.04679 0.81578 0.55631 0.0
O190 O 0.08197 0.83047 0.56943 0.0
O191 O 0.07032 0.83595 0.58241 0.0
O192 O 0.05537 0.81699 0.65189 0.0
C193 C 0.07916 0.83754 0.5602 0.0
H194 H 0.08867 0.83464 0.78926 0.0
H195 H 0.0572 0.80242 0.43937 0.0
H196 H 0.05896 0.78382 0.62153 0.0
H197 H 0.09263 0.80708 0.62818 0.0
Co198 Co 0.76023 0.82355 0.10729 0.0
C199 C 0.76207 0.84198 0.17401 0.0
C200 C 0.77563 0.83971 0.17632 0.0
C201 C 0.77817 0.84884 0.20337 0.0
N202 N 0.76545 0.83513 0.15872 0.0
N203 N 0.76969 0.85031 0.20188 0.0
H204 H 0.75467 0.84148 0.16209 0.0
H205 H 0.78114 0.8369 0.16756 0.0
C206 C 0.76716 0.81577 0.19752 0.0
O207 O 0.76128 0.81857 0.22528 0.0
N208 N 0.75615 0.81257 0.05463 0.0
C209 C 0.74738 0.80807 0.02396 0.0
C210 C 0.74856 0.80171 0.98715 0.0
C211 C 0.76252 0.80896 0.03626 0.0
N212 N 0.75809 0.80229 0.99509 0.0
C213 C 0.73972 0.8179 0.15076 0.0
C214 C 0.73281 0.7964 0.16333 0.0
C215 C 0.72542 0.79993 0.16877 0.0
C216 C 0.72907 0.81087 0.1641 0.0
C217 C 0.7435 0.80375 0.15137 0.0
N218 N 0.74684 0.81437 0.14427 0.0
H219 H 0.74191 0.82596 0.14095 0.0
H220 H 0.74888 0.80074 0.14368 0.0
H221 H 0.74076 0.80956 0.02714 0.0
H222 H 0.77048 0.81161 0.05111 0.0
O223 O 0.75496 0.83068 0.06384 0.0
O224 O 0.77154 0.83359 0.06034 0.0
O225 O 0.76782 0.81712 0.14768 0.0
C226 C 0.76434 0.83574 0.04239 0.0
H227 H 0.78579 0.85416 0.22164 0.0
H228 H 0.74292 0.79714 0.95648 0.0
H229 H 0.73026 0.78796 0.16599 0.0
H230 H 0.72354 0.81387 0.16645 0.0
Co231 Co 0.17559 0.93591 0.1024 0.0
C232 C 0.15882 0.91979 0.17692 0.0
C233 C 0.16178 0.9358 0.18508 0.0
C234 C 0.1534 0.92933 0.217 0.0
N235 N 0.16549 0.92999 0.16072 0.0
N236 N 0.1515 0.91927 0.21187 0.0
H237 H 0.15865 0.9128 0.16088 0.0
H238 H 0.16455 0.94416 0.1779 0.0
C239 C 0.1862 0.95177 0.18707 0.0
O240 O 0.18481 0.94358 0.21552 0.0
N241 N 0.18517 0.94226 0.04355 0.0
C242 C 0.18913 0.93769 0.01145 0.0
C243 C 0.19525 0.94502 0.97346 0.0
C244 C 0.1888 0.95221 0.02463 0.0
N245 N 0.19503 0.95416 0.98175 0.0
C246 C 0.18238 0.92162 0.1425 0.0
C247 C 0.20402 0.93638 0.14439 0.0
C248 C 0.20066 0.92561 0.1544 0.0
C249 C 0.18967 0.91824 0.15443 0.0
C250 C 0.19644 0.93946 0.13353 0.0
N251 N 0.18572 0.93212 0.13267 0.0
H252 H 0.17415 0.91562 0.13741 0.0
H253 H 0.19925 0.9477 0.12303 0.0
H254 H 0.1876 0.92957 0.01515 0.0
H255 H 0.1869 0.95788 0.04213 0.0
O256 O 0.16743 0.9231 0.06248 0.0
O257 O 0.1644 0.9367 0.06281 0.0
O258 O 0.18286 0.95032 0.13953 0.0
C259 C 0.16187 0.92723 0.04506 0.0
H260 H 0.14885 0.93181 0.24115 0.0
H261 H 0.19934 0.9436 0.94157 0.0
H262 H 0.21245 0.94232 0.14341 0.0
H263 H 0.18674 0.90979 0.16022 0.0
Co264 Co 0.06662 0.24055 0.10368 0.0
C265 C 0.08143 0.23826 0.17845 0.0
C266 C 0.0655 0.23149 0.20891 0.0
C267 C 0.07144 0.22927 0.24325 0.0
N268 N 0.07169 0.23711 0.16786 0.0
N269 N 0.08142 0.23344 0.22401 0.0
H270 H 0.08825 0.24208 0.15246 0.0
H271 H 0.05711 0.22885 0.21375 0.0
C272 C 0.04493 0.23624 0.13848 0.0
O273 O 0.04715 0.24551 0.11837 0.0
N274 N 0.06124 0.24339 0.03858 0.0
C275 C 0.06688 0.25004 0.99886 0.0
C276 C 0.06008 0.24865 0.95799 0.0
C277 C 0.05118 0.2376 0.0193 0.0
N278 N 0.05017 0.24084 0.97098 0.0
C279 C 0.07638 0.26324 0.10691 0.0
C280 C 0.06792 0.26515 0.20068 0.0
C281 C 0.07393 0.27428 0.1698 0.0
C282 C 0.0784 0.27326 0.12319 0.0
C283 C 0.06595 0.25515 0.18226 0.0
N284 N 0.06964 0.25422 0.13416 0.0
H285 H 0.08043 0.26284 0.07247 0.0
H286 H 0.06122 0.24817 0.20615 0.0
H287 H 0.07546 0.25509 0.99743 0.0
H288 H 0.04474 0.23092 0.03953 0.0
O289 O 0.08029 0.24551 0.07149 0.0
O290 O 0.0669 0.22879 0.06726 0.0
O291 O 0.05155 0.23285 0.13331 0.0
C292 C 0.07667 0.23589 0.05393 0.0
H293 H 0.06857 0.22478 0.27937 0.0
H294 H 0.06238 0.25274 0.92061 0.0
H295 H 0.06464 0.26572 0.23795 0.0
H296 H 0.08358 0.28021 0.0997 0.0
Co297 Co 0.82939 0.76209 0.55161 0.0
C298 C 0.84646 0.76496 0.47501 0.0
C299 C 0.83565 0.76961 0.4429 0.0
C300 C 0.84346 0.77175 0.40653 0.0
N301 N 0.83749 0.76539 0.48625 0.0
N302 N 0.85031 0.76892 0.4267 0.0
H303 H 0.85032 0.76216 0.50192 0.0
H304 H 0.82916 0.7712 0.43746 0.0
C305 C 0.81106 0.76541 0.52164 0.0
O306 O 0.80448 0.75643 0.54566 0.0
N307 N 0.82144 0.7593 0.61719 0.0
C308 C 0.81921 0.75174 0.65397 0.0
C309 C 0.81405 0.75334 0.69545 0.0
C310 C 0.81799 0.76564 0.63822 0.0
N311 N 0.8132 0.76205 0.68518 0.0
C312 C 0.81907 0.7393 0.54715 0.0
C313 C 0.80567 0.73594 0.46316 0.0
C314 C 0.80494 0.72708 0.48956 0.0
C315 C 0.81194 0.72889 0.53122 0.0
C316 C 0.81314 0.74631 0.4799 0.0
N317 N 0.81924 0.74789 0.5238 0.0
H318 H 0.82454 0.74035 0.5782 0.0
H319 H 0.81392 0.75298 0.45744 0.0
H320 H 0.82143 0.74564 0.65242 0.0
H321 H 0.81915 0.77291 0.61998 0.0
O322 O 0.83903 0.75834 0.58447 0.0
O323 O 0.84121 0.77463 0.58508 0.0
O324 O 0.82114 0.76885 0.5218 0.0
C325 C 0.84463 0.7682 0.59956 0.0
H326 H 0.84405 0.77516 0.368 0.0
H327 H 0.8111 0.74845 0.73034 0.0
H328 H 0.80065 0.73486 0.42952 0.0
H329 H 0.81181 0.72229 0.55203 0.0
Co330 Co 0.24245 0.06791 0.55058 0.0
C331 C 0.24238 0.08314 0.46782 0.0
C332 C 0.22859 0.06745 0.46748 0.0
C333 C 0.22719 0.07341 0.42997 0.0
N334 N 0.23824 0.07335 0.49043 0.0
N335 N 0.23585 0.08327 0.42996 0.0
H336 H 0.24974 0.09012 0.47933 0.0
H337 H 0.22272 0.05938 0.47857 0.0
C338 C 0.23736 0.05176 0.46756 0.0
O339 O 0.24412 0.05986 0.43856 0.0
N340 N 0.2457 0.06197 0.61094 0.0
C341 C 0.25423 0.06668 0.64305 0.0
C342 C 0.25298 0.05952 0.68208 0.0
C343 C 0.23937 0.05212 0.63083 0.0
N344 N 0.2436 0.05035 0.67437 0.0
C345 C 0.26376 0.08249 0.51518 0.0
C346 C 0.27072 0.06784 0.50956 0.0
C347 C 0.27815 0.0787 0.50193 0.0
C348 C 0.27449 0.08603 0.50423 0.0
C349 C 0.25999 0.06462 0.52 0.0
N350 N 0.25654 0.07189 0.52188 0.0
H351 H 0.26151 0.08844 0.52233 0.0
H352 H 0.25457 0.05631 0.52923 0.0
H353 H 0.26083 0.07477 0.63861 0.0
H354 H 0.23181 0.04638 0.61347 0.0
O355 O 0.24667 0.0809 0.58824 0.0
O356 O 0.23023 0.06695 0.58875 0.0
O357 O 0.23557 0.05334 0.51506 0.0
C358 C 0.23689 0.07667 0.60464 0.0
H359 H 0.22012 0.07081 0.40601 0.0
H360 H 0.25846 0.06105 0.7142 0.0
H361 H 0.27321 0.0619 0.50898 0.0
H362 H 0.27999 0.09455 0.50097 0.0
Co363 Co 0.93604 0.1744 0.55012 0.0
C364 C 0.92143 0.15806 0.46788 0.0
C365 C 0.93451 0.15631 0.49541 0.0
C366 C 0.92909 0.14862 0.45838 0.0
N367 N 0.92982 0.16231 0.50171 0.0
N368 N 0.9209 0.14972 0.44079 0.0
H369 H 0.91604 0.16107 0.46133 0.0
H370 H 0.94161 0.15759 0.51594 0.0
C371 C 0.95037 0.18108 0.45818 0.0
O372 O 0.94157 0.17749 0.43038 0.0
N373 N 0.94287 0.18602 0.59946 0.0
C374 C 0.93873 0.19115 0.62621 0.0
C375 C 0.94628 0.19793 0.662 0.0
C376 C 0.95273 0.18962 0.61924 0.0
N377 N 0.95506 0.19689 0.65773 0.0
C378 C 0.92025 0.17889 0.51094 0.0
C379 C 0.93404 0.20004 0.48537 0.0
C380 C 0.92301 0.19634 0.48773 0.0
C381 C 0.9161 0.18549 0.4985 0.0
C382 C 0.93788 0.19309 0.49755 0.0
N383 N 0.93101 0.18266 0.51101 0.0
H384 H 0.91476 0.17091 0.52464 0.0
H385 H 0.94643 0.19638 0.50073 0.0
H386 H 0.9307 0.18979 0.6213 0.0
H387 H 0.95797 0.18674 0.6063 0.0
O388 O 0.92394 0.16732 0.59582 0.0
O389 O 0.93808 0.16523 0.6002 0.0
O390 O 0.94985 0.1807 0.50836 0.0
C391 C 0.92869 0.16283 0.6186 0.0
H392 H 0.931 0.14263 0.44561 0.0
H393 H 0.9452 0.20289 0.69038 0.0
H394 H 0.93969 0.2084 0.47808 0.0
H395 H 0.90752 0.18223 0.50031 0.0
Co396 Co 0.91143 0.5102 0.3765 0.0
C397 C 0.90919 0.4925 0.30646 0.0
C398 C 0.90585 0.50355 0.26635 0.0
C399 C 0.90381 0.49532 0.23274 0.0
N400 N 0.9092 0.50182 0.3129 0.0
N401 N 0.90583 0.48834 0.25798 0.0
H402 H 0.91116 0.48856 0.33697 0.0
H403 H 0.90462 0.51015 0.2572 0.0
C404 C 0.90547 0.52652 0.34295 0.0
O405 O 0.91391 0.53379 0.3684 0.0
N406 N 0.91322 0.51837 0.44042 0.0
C407 C 0.92125 0.52215 0.47583 0.0
C408 C 0.91893 0.52698 0.51615 0.0
C409 C 0.90592 0.52057 0.46131 0.0
N410 N 0.90931 0.52605 0.50687 0.0
C411 C 0.93421 0.52249 0.37367 0.0
C412 C 0.93664 0.53607 0.29212 0.0
C413 C 0.94559 0.53805 0.32203 0.0
C414 C 0.94433 0.53091 0.36188 0.0
C415 C 0.92652 0.52753 0.3059 0.0
N416 N 0.92529 0.52134 0.34904 0.0
H417 H 0.93368 0.51701 0.40359 0.0
H418 H 0.91976 0.52611 0.28223 0.0
H419 H 0.92822 0.52127 0.47421 0.0
H420 H 0.89822 0.5181 0.44363 0.0
O421 O 0.91661 0.50212 0.4132 0.0
O422 O 0.89958 0.49775 0.41086 0.0
O423 O 0.90325 0.51675 0.34311 0.0
C424 C 0.90692 0.49581 0.42882 0.0
H425 H 0.90093 0.49449 0.19283 0.0
H426 H 0.92403 0.53096 0.54947 0.0
H427 H 0.93742 0.5412 0.25942 0.0
H428 H 0.95116 0.53183 0.38399 0.0
Co429 Co 0.49309 0.40382 0.37785 0.0
C430 C 0.51154 0.41674 0.30476 0.0
C431 C 0.4967 0.40657 0.2652 0.0
C432 C 0.50458 0.41146 0.22815 0.0
N433 N 0.50102 0.40978 0.31333 0.0
N434 N 0.51388 0.41781 0.25298 0.0
H435 H 0.51743 0.42071 0.33526 0.0
H436 H 0.48837 0.4009 0.25755 0.0
C437 C 0.47839 0.38002 0.34857 0.0
O438 O 0.47229 0.3779 0.39012 0.0
N439 N 0.48521 0.39772 0.44219 0.0
C440 C 0.47922 0.40083 0.46926 0.0
C441 C 0.47492 0.39425 0.51219 0.0
C442 C 0.48499 0.38973 0.47062 0.0
N443 N 0.47844 0.38716 0.51262 0.0
C444 C 0.48563 0.41737 0.34105 0.0
C445 C 0.46391 0.40305 0.34551 0.0
C446 C 0.46743 0.41392 0.33717 0.0
C447 C 0.47845 0.42102 0.33291 0.0
C448 C 0.47141 0.3997 0.35315 0.0
N449 N 0.48214 0.40691 0.35282 0.0
H450 H 0.4941 0.4231 0.34031 0.0
H451 H 0.4685 0.39148 0.36296 0.0
H452 H 0.47787 0.40729 0.45807 0.0
H453 H 0.48918 0.38559 0.45924 0.0
O454 O 0.50152 0.417 0.41492 0.0
O455 O 0.50554 0.4041 0.40991 0.0
O456 O 0.48634 0.3894 0.34073 0.0
C457 C 0.50786 0.41346 0.42841 0.0
H458 H 0.50355 0.41046 0.18607 0.0
H459 H 0.46925 0.39438 0.53953 0.0
H460 H 0.45547 0.39727 0.34924 0.0
H461 H 0.48155 0.42944 0.32517 0.0
Co462 Co 0.60249 0.09576 0.38345 0.0
C463 C 0.58677 0.09715 0.30798 0.0
C464 C 0.60145 0.1118 0.32097 0.0
C465 C 0.5952 0.1139 0.28839 0.0
N466 N 0.59629 0.1013 0.33322 0.0
N467 N 0.58595 0.10472 0.2803 0.0
H468 H 0.58043 0.08896 0.31036 0.0
H469 H 0.6093 0.1176 0.33534 0.0
C470 C 0.61685 0.1027 0.29125 0.0
O471 O 0.60803 0.09748 0.26354 0.0
N472 N 0.60917 0.09116 0.43457 0.0
C473 C 0.60465 0.08226 0.46428 0.0
C474 C 0.61208 0.08303 0.50076 0.0
C475 C 0.61919 0.0972 0.45306 0.0
N476 N 0.6212 0.09244 0.49351 0.0
C477 C 0.5866 0.07512 0.3476 0.0
C478 C 0.60039 0.06778 0.32166 0.0
C479 C 0.58937 0.06043 0.3241 0.0
C480 C 0.58246 0.06435 0.33534 0.0
C481 C 0.60422 0.07858 0.33366 0.0
N482 N 0.59735 0.08216 0.34681 0.0
H483 H 0.58112 0.07751 0.36221 0.0
H484 H 0.61277 0.08384 0.33662 0.0
H485 H 0.59644 0.07586 0.46086 0.0
H486 H 0.62469 0.10518 0.43901 0.0
O487 O 0.59042 0.09124 0.42908 0.0
O488 O 0.60468 0.10742 0.4307 0.0
O489 O 0.61632 0.10283 0.34141 0.0
C490 C 0.59529 0.10068 0.44991 0.0
H491 H 0.59735 0.12161 0.27169 0.0
H492 H 0.6108 0.07722 0.53086 0.0
H493 H 0.60606 0.06509 0.31423 0.0
H494 H 0.57389 0.05903 0.33755 0.0
Co495 Co 0.84315 0.57344 0.93356 0.0
C496 C 0.82617 0.57266 0.00783 0.0
C497 C 0.82504 0.55757 0.99132 0.0
C498 C 0.81667 0.55576 0.02309 0.0
N499 N 0.83111 0.56814 0.98179 0.0
N500 N 0.81733 0.56522 0.03339 0.0
H501 H 0.8287 0.58105 0.0075 0.0
H502 H 0.82662 0.55152 0.97573 0.0
C503 C 0.84904 0.56473 0.02464 0.0
O504 O 0.84549 0.56986 0.05344 0.0
N505 N 0.85469 0.57783 0.88417 0.0
C506 C 0.8605 0.58734 0.86019 0.0
C507 C 0.86709 0.58643 0.82388 0.0
C508 C 0.85771 0.57128 0.86224 0.0
N509 N 0.8653 0.5763 0.82517 0.0
C510 C 0.84909 0.59418 0.9733 0.0
C511 C 0.86943 0.59956 0.00577 0.0
C512 C 0.86662 0.60757 0.0044 0.0
C513 C 0.85618 0.60465 0.989 0.0
C514 C 0.86207 0.58914 0.98958 0.0
N515 N 0.85199 0.58651 0.97357 0.0
H516 H 0.84155 0.59254 0.95672 0.0
H517 H 0.86481 0.58345 0.98623 0.0
H518 H 0.85981 0.59435 0.86765 0.0
H519 H 0.85403 0.56287 0.87172 0.0
O520 O 0.83655 0.57907 0.8882 0.0
O521 O 0.83352 0.56248 0.88379 0.0
O522 O 0.84885 0.56527 0.9745 0.0
C523 C 0.83158 0.5698 0.86571 0.0
H524 H 0.81061 0.54806 0.03784 0.0
H525 H 0.87267 0.59271 0.79818 0.0
H526 H 0.87741 0.60141 0.01704 0.0
H527 H 0.85369 0.61056 0.98532 0.0
Co528 Co 0.43172 0.2723 0.93333 0.0
C529 C 0.4332 0.25595 1.00166 0.0
C530 C 0.44619 0.27194 0.01123 0.0
C531 C 0.44846 0.26528 0.03946 0.0
N532 N 0.43646 0.26625 0.9886 0.0
N533 N 0.44034 0.25521 0.03331 0.0
H534 H 0.42633 0.24906 0.98507 0.0
H535 H 0.4517 0.28035 0.00492 0.0
C536 C 0.43823 0.28816 0.01864 0.0
O537 O 0.43196 0.27985 0.04783 0.0
N538 N 0.428 0.27877 0.87713 0.0
C539 C 0.41907 0.27457 0.8476 0.0
C540 C 0.42026 0.28206 0.81048 0.0
C541 C 0.43448 0.2886 0.8576 0.0
N542 N 0.42996 0.29088 0.817 0.0
C543 C 0.41118 0.2583 0.97857 0.0
C544 C 0.40436 0.2731 0.98226 0.0
C545 C 0.39686 0.26225 0.98983 0.0
C546 C 0.4005 0.25489 0.98995 0.0
C547 C 0.41503 0.27619 0.97122 0.0
N548 N 0.41831 0.26878 0.96842 0.0
H549 H 0.4134 0.25229 0.97355 0.0
H550 H 0.42046 0.28444 0.96094 0.0
H551 H 0.41223 0.26664 0.8526 0.0
H552 H 0.44249 0.29384 0.87207 0.0
O553 O 0.4262 0.25937 0.8939 0.0
O554 O 0.44294 0.27263 0.88859 0.0
O555 O 0.43949 0.28677 0.97001 0.0
C556 C 0.43559 0.2631 0.87325 0.0
H557 H 0.45572 0.26763 0.06147 0.0
H558 H 0.41441 0.28108 0.78121 0.0
H559 H 0.40189 0.27904 0.98106 0.0
H560 H 0.39501 0.24644 0.99589 0.0
Co561 Co 0.73373 0.1584 0.9383 0.0
C562 C 0.74856 0.17548 0.01318 0.0
C563 C 0.73391 0.16394 0.04974 0.0
C564 C 0.73968 0.17192 0.08519 0.0
N565 N 0.73939 0.16611 0.00419 0.0
N566 N 0.74884 0.17921 0.06218 0.0
H567 H 0.75469 0.17977 0.98406 0.0
H568 H 0.72602 0.15724 0.05685 0.0
C569 C 0.71127 0.14186 0.96877 0.0
O570 O 0.71257 0.13471 0.94292 0.0
N571 N 0.7278 0.15094 0.87212 0.0
C572 C 0.73264 0.14841 0.83389 0.0
C573 C 0.72568 0.14389 0.79245 0.0
C574 C 0.71814 0.14838 0.85187 0.0
N575 N 0.71653 0.1438 0.80408 0.0
C576 C 0.74369 0.14564 0.93787 0.0
C577 C 0.73254 0.13184 0.01866 0.0
C578 C 0.73953 0.12992 0.98839 0.0
C579 C 0.74541 0.13721 0.94891 0.0
C580 C 0.73105 0.14049 0.00608 0.0
N581 N 0.73605 0.14685 0.96352 0.0
H582 H 0.74865 0.1512 0.90828 0.0
H583 H 0.72572 0.14184 0.03019 0.0
H584 H 0.74077 0.15002 0.83438 0.0
H585 H 0.71245 0.15003 0.87122 0.0
O586 O 0.74735 0.16672 0.90523 0.0
O587 O 0.73488 0.17131 0.90604 0.0
O588 O 0.71874 0.15167 0.9692 0.0
C589 C 0.74433 0.17335 0.8902 0.0
H590 H 0.73722 0.17242 0.12471 0.0
H591 H 0.72722 0.14087 0.75663 0.0
H592 H 0.72813 0.12661 0.05097 0.0
H593 H 0.7514 0.13647 0.92665 0.0
Co594 Co 0.42818 0.16032 0.42823 0.0
C595 C 0.42969 0.17844 0.4964 0.0
C596 C 0.44315 0.17603 0.50049 0.0
C597 C 0.44555 0.18503 0.5285 0.0
N598 N 0.43312 0.17164 0.48101 0.0
N599 N 0.43713 0.18658 0.52593 0.0
H600 H 0.4224 0.17807 0.48357 0.0
H601 H 0.44867 0.17321 0.49242 0.0
C602 C 0.4345 0.15174 0.51773 0.0
O603 O 0.42839 0.15419 0.54587 0.0
N604 N 0.42441 0.14956 0.3747 0.0
C605 C 0.41534 0.1442 0.34655 0.0
C606 C 0.41676 0.13793 0.31006 0.0
C607 C 0.43121 0.14663 0.35481 0.0
N608 N 0.42678 0.13953 0.31522 0.0
C609 C 0.40751 0.15479 0.46761 0.0
C610 C 0.40018 0.13326 0.48256 0.0
C611 C 0.39285 0.13695 0.485 0.0
C612 C 0.39676 0.14794 0.47934 0.0
C613 C 0.41097 0.14046 0.47117 0.0
N614 N 0.41453 0.1511 0.46321 0.0
H615 H 0.40989 0.16288 0.45742 0.0
H616 H 0.41627 0.1373 0.4648 0.0
H617 H 0.4083 0.14495 0.35155 0.0
H618 H 0.4393 0.14975 0.36891 0.0
O619 O 0.42326 0.16768 0.38439 0.0
O620 O 0.43982 0.17048 0.38327 0.0
O621 O 0.43552 0.15369 0.46846 0.0
C622 C 0.43276 0.17274 0.36434 0.0
H623 H 0.45304 0.19021 0.54823 0.0
H624 H 0.41098 0.13284 0.28098 0.0
H625 H 0.3975 0.12482 0.48583 0.0
H626 H 0.39144 0.15119 0.48109 0.0
Co627 Co 0.84485 0.26838 0.43359 0.0
C628 C 0.82894 0.25409 0.51779 0.0
C629 C 0.83157 0.27003 0.51307 0.0
C630 C 0.82394 0.26464 0.55032 0.0
N631 N 0.83506 0.26364 0.49339 0.0
N632 N 0.82227 0.25463 0.55371 0.0
H633 H 0.82897 0.24682 0.50868 0.0
H634 H 0.83408 0.27804 0.49953 0.0
C635 C 0.85613 0.28521 0.51322 0.0
O636 O 0.85471 0.27735 0.54429 0.0
N637 N 0.85418 0.27374 0.37328 0.0
C638 C 0.85786 0.26868 0.34269 0.0
C639 C 0.86397 0.27558 0.30309 0.0
C640 C 0.85796 0.28351 0.35189 0.0
N641 N 0.86401 0.28491 0.3089 0.0
C642 C 0.85119 0.25399 0.4758 0.0
C643 C 0.87296 0.26823 0.47573 0.0
C644 C 0.86933 0.25739 0.48567 0.0
C645 C 0.85826 0.2503 0.48674 0.0
C646 C 0.86558 0.27162 0.46538 0.0
N647 N 0.85479 0.26453 0.46553 0.0
H648 H 0.84288 0.24814 0.47109 0.0
H649 H 0.86859 0.27984 0.45398 0.0
H650 H 0.85618 0.26057 0.34857 0.0
H651 H 0.85631 0.28947 0.36785 0.0
O652 O 0.83617 0.25511 0.39834 0.0
O653 O 0.83369 0.26901 0.39261 0.0
O654 O 0.85264 0.28324 0.46596 0.0
C655 C 0.83073 0.25919 0.37878 0.0
H656 H 0.81958 0.26775 0.57155 0.0
H657 H 0.86789 0.27375 0.27196 0.0
H658 H 0.88143 0.27399 0.47403 0.0
H659 H 0.85507 0.2418 0.49223 0.0
Co660 Co 0.73599 0.57963 0.44036 0.0
C661 C 0.74981 0.57529 0.513 0.0
C662 C 0.739 0.57895 0.55347 0.0
C663 C 0.74458 0.57669 0.59005 0.0
N664 N 0.74223 0.57806 0.50507 0.0
N665 N 0.75136 0.57436 0.56464 0.0
H666 H 0.75397 0.57375 0.48204 0.0
H667 H 0.73292 0.58105 0.56165 0.0
C668 C 0.71195 0.56897 0.46646 0.0
O669 O 0.70974 0.57278 0.42462 0.0
N670 N 0.72972 0.58097 0.37549 0.0
C671 C 0.73211 0.58998 0.34913 0.0
C672 C 0.72553 0.58729 0.30589 0.0
C673 C 0.72226 0.5729 0.34607 0.0
N674 N 0.71922 0.57654 0.30444 0.0
C675 C 0.74825 0.60077 0.4788 0.0
C676 C 0.73272 0.60659 0.47388 0.0
C677 C 0.74333 0.61447 0.4843 0.0
C678 C 0.75107 0.61136 0.48834 0.0
C679 C 0.73021 0.596 0.46525 0.0
N680 N 0.73801 0.59327 0.46594 0.0
H681 H 0.75446 0.59866 0.47936 0.0
H682 H 0.72216 0.59029 0.45466 0.0
H683 H 0.73806 0.59797 0.36096 0.0
H684 H 0.71852 0.56458 0.35747 0.0
O685 O 0.74938 0.58529 0.40435 0.0
O686 O 0.73722 0.56805 0.40821 0.0
O687 O 0.72152 0.57109 0.47617 0.0
C688 C 0.74645 0.57556 0.39059 0.0
H689 H 0.74377 0.57685 0.6322 0.0
H690 H 0.72524 0.59285 0.2784 0.0
H691 H 0.72648 0.60864 0.47075 0.0
H692 H 0.75938 0.61718 0.4958 0.0
Co693 Co 0.49097 0.09191 0.87106 0.0
C694 C 0.50979 0.09682 0.80159 0.0
C695 C 0.49579 0.09396 0.75893 0.0
C696 C 0.50378 0.09605 0.72361 0.0
N697 N 0.4995 0.09442 0.80792 0.0
N698 N 0.5126 0.09783 0.7503 0.0
H699 H 0.51509 0.09762 0.83342 0.0
H700 H 0.48775 0.09215 0.74943 0.0
C701 C 0.47745 0.10245 0.84577 0.0
O702 O 0.47127 0.09828 0.88682 0.0
N703 N 0.48253 0.08938 0.93443 0.0
C704 C 0.4759 0.07981 0.95633 0.0
C705 C 0.4712 0.08137 0.99981 0.0
C706 C 0.48233 0.09667 0.96703 0.0
N707 N 0.47509 0.09197 0.00604 0.0
C708 C 0.48277 0.07114 0.82859 0.0
C709 C 0.46145 0.06547 0.82425 0.0
C710 C 0.46426 0.0576 0.81524 0.0
C711 C 0.47513 0.06065 0.81592 0.0
C712 C 0.46938 0.0759 0.83676 0.0
N713 N 0.47986 0.07854 0.8406 0.0
H714 H 0.49106 0.07321 0.8312 0.0
H715 H 0.46689 0.08154 0.84643 0.0
H716 H 0.4744 0.07218 0.94127 0.0
H717 H 0.48676 0.1052 0.95976 0.0
O718 O 0.49861 0.08612 0.90691 0.0
O719 O 0.50327 0.10326 0.90762 0.0
O720 O 0.48507 0.10057 0.83618 0.0
C721 C 0.50508 0.09572 0.92375 0.0
H722 H 0.50316 0.09634 0.68142 0.0
H723 H 0.46518 0.07513 0.02423 0.0
H724 H 0.45316 0.06351 0.82343 0.0
H725 H 0.47771 0.05487 0.80969 0.0
Co726 Co 0.91043 0.39946 0.88541 0.0
C727 C 0.90954 0.41455 0.80267 0.0
C728 C 0.89474 0.40034 0.82034 0.0
C729 C 0.89277 0.40596 0.78326 0.0
N730 N 0.90522 0.40558 0.83276 0.0
N731 N 0.90204 0.41488 0.77178 0.0
H732 H 0.91786 0.42063 0.80225 0.0
H733 H 0.88884 0.39282 0.8374 0.0
C734 C 0.90466 0.38511 0.7939 0.0
O735 O 0.91078 0.39382 0.76687 0.0
N736 N 0.91458 0.39269 0.93846 0.0
C737 C 0.92337 0.39707 0.96892 0.0
C738 C 0.92246 0.38949 0.00477 0.0
C739 C 0.90844 0.38262 0.95619 0.0
N740 N 0.91303 0.3804 0.99684 0.0
C741 C 0.93124 0.41535 0.85129 0.0
C742 C 0.93899 0.40162 0.83218 0.0
C743 C 0.94622 0.41267 0.83323 0.0
C744 C 0.94211 0.41954 0.84111 0.0
C745 C 0.9281 0.39774 0.84197 0.0
N746 N 0.92431 0.40458 0.85163 0.0
H747 H 0.9286 0.42082 0.86312 0.0
H748 H 0.92289 0.3892 0.84592 0.0
H749 H 0.92984 0.40526 0.96614 0.0
H750 H 0.90067 0.37711 0.93991 0.0
O751 O 0.91471 0.41151 0.93082 0.0
O752 O 0.89846 0.39726 0.93006 0.0
O753 O 0.90354 0.3857 0.84339 0.0
C754 C 0.90514 0.40658 0.95009 0.0
H755 H 0.88502 0.40373 0.76675 0.0
H756 H 0.92816 0.39074 0.03539 0.0
H757 H 0.94179 0.39597 0.82748 0.0
H758 H 0.94733 0.42814 0.84212 0.0
Co759 Co 0.60538 0.51063 0.88041 0.0
C760 C 0.59162 0.49296 0.8048 0.0
C761 C 0.60346 0.50733 0.76705 0.0
C762 C 0.59798 0.49978 0.72916 0.0
N763 N 0.59957 0.50308 0.81462 0.0
N764 N 0.59056 0.49075 0.7528 0.0
H765 H 0.58681 0.48725 0.83465 0.0
H766 H 0.60987 0.51542 0.76028 0.0
C767 C 0.62958 0.5244 0.85726 0.0
O768 O 0.63157 0.53018 0.89985 0.0
N769 N 0.61116 0.51806 0.94626 0.0
C770 C 0.60817 0.52426 0.97228 0.0
C771 C 0.61442 0.52826 0.01643 0.0
C772 C 0.61866 0.51778 0.97678 0.0
N773 N 0.62117 0.52434 0.01876 0.0
C774 C 0.59312 0.51952 0.84187 0.0
C775 C 0.60863 0.54085 0.84815 0.0
C776 C 0.59802 0.53817 0.83791 0.0
C777 C 0.59029 0.52732 0.83312 0.0
C778 C 0.61113 0.53277 0.85635 0.0
N779 N 0.60334 0.52224 0.85503 0.0
H780 H 0.58692 0.5112 0.84068 0.0
H781 H 0.61917 0.5351 0.86714 0.0
H782 H 0.60202 0.52596 0.95956 0.0
H783 H 0.62279 0.51354 0.966 0.0
O784 O 0.59183 0.50263 0.91474 0.0
O785 O 0.60416 0.49776 0.91197 0.0
O786 O 0.62008 0.5169 0.84652 0.0
C787 C 0.59483 0.49589 0.92889 0.0
H788 H 0.59927 0.50089 0.68725 0.0
H789 H 0.61418 0.53384 0.04393 0.0
H790 H 0.61488 0.54913 0.85161 0.0
H791 H 0.58198 0.52482 0.82574 0.0
Co792 Co 0.57777 0.845 0.70527 0.0
C793 C 0.57732 0.82867 0.62918 0.0
C794 C 0.56486 0.83233 0.6165 0.0
C795 C 0.56334 0.82437 0.58249 0.0
N796 N 0.57389 0.83546 0.64458 0.0
N797 N 0.57117 0.82205 0.5903 0.0
H798 H 0.58375 0.8281 0.64765 0.0
H799 H 0.55922 0.83508 0.62253 0.0
C800 C 0.57209 0.85625 0.62579 0.0
O801 O 0.5792 0.85564 0.59608 0.0
N802 N 0.58073 0.85397 0.76643 0.0
C803 C 0.58909 0.85756 0.79963 0.0
C804 C 0.58772 0.86334 0.83897 0.0
C805 C 0.5744 0.85754 0.78589 0.0
N806 N 0.57849 0.86334 0.83009 0.0
C807 C 0.59864 0.85266 0.66129 0.0
C808 C 0.6053 0.87421 0.66791 0.0
C809 C 0.61278 0.87112 0.65418 0.0
C810 C 0.60925 0.86018 0.6499 0.0
C811 C 0.59471 0.8664 0.67868 0.0
N812 N 0.59146 0.85573 0.67547 0.0
H813 H 0.59649 0.8444 0.66234 0.0
H814 H 0.58922 0.86894 0.69199 0.0
H815 H 0.59569 0.85606 0.79554 0.0
H816 H 0.56682 0.85573 0.76866 0.0
O817 O 0.58309 0.83699 0.74094 0.0
O818 O 0.56621 0.83314 0.74413 0.0
O819 O 0.57008 0.85212 0.67187 0.0
C820 C 0.57352 0.83082 0.75858 0.0
H821 H 0.5566 0.82014 0.55631 0.0
H822 H 0.59314 0.86732 0.87129 0.0
H823 H 0.60767 0.88257 0.67191 0.0
H824 H 0.61478 0.85738 0.6412 0.0
Co825 Co 0.15993 0.73185 0.70778 0.0
C826 C 0.17785 0.74843 0.63854 0.0
C827 C 0.17821 0.73397 0.65207 0.0
C828 C 0.1871 0.74074 0.62375 0.0
N829 N 0.17225 0.73862 0.66099 0.0
N830 N 0.18693 0.74986 0.61535 0.0
H831 H 0.17574 0.7546 0.64073 0.0
H832 H 0.17631 0.72617 0.66649 0.0
C833 C 0.15475 0.71691 0.61905 0.0
O834 O 0.15815 0.72543 0.58932 0.0
N835 N 0.14818 0.7247 0.7561 0.0
C836 C 0.14263 0.72864 0.7808 0.0
C837 C 0.13596 0.72119 0.81718 0.0
C838 C 0.14488 0.71503 0.7775 0.0
N839 N 0.13741 0.71265 0.81494 0.0
C840 C 0.15359 0.74579 0.66035 0.0
C841 C 0.13329 0.72998 0.63173 0.0
C842 C 0.13585 0.7407 0.62864 0.0
C843 C 0.14626 0.74865 0.64187 0.0
C844 C 0.14091 0.72746 0.65002 0.0
N845 N 0.15095 0.73532 0.66431 0.0
H846 H 0.16103 0.75203 0.67604 0.0
H847 H 0.13839 0.71915 0.65664 0.0
H848 H 0.14362 0.73648 0.77403 0.0
H849 H 0.14831 0.71008 0.76771 0.0
O850 O 0.1659 0.74435 0.75117 0.0
O851 O 0.16945 0.73118 0.76039 0.0
O852 O 0.15483 0.71782 0.66908 0.0
C853 C 0.17093 0.74042 0.77646 0.0
H854 H 0.19326 0.7391 0.61058 0.0
H855 H 0.1306 0.72207 0.84374 0.0
H856 H 0.12531 0.72357 0.6225 0.0
H857 H 0.1485 0.75702 0.64197 0.0
Co858 Co 0.26914 0.42728 0.70987 0.0
C859 C 0.25378 0.4285 0.63343 0.0
C860 C 0.27012 0.44048 0.62115 0.0
C861 C 0.2639 0.44263 0.58861 0.0
N862 N 0.26391 0.43143 0.6485 0.0
N863 N 0.25362 0.43515 0.59641 0.0
H864 H 0.24663 0.42232 0.65211 0.0
H865 H 0.27859 0.44577 0.62711 0.0
C866 C 0.2861 0.43219 0.63109 0.0
O867 O 0.27841 0.42502 0.60142 0.0
N868 N 0.27474 0.42404 0.77169 0.0
C869 C 0.26971 0.41565 0.80439 0.0
C870 C 0.27666 0.41681 0.84441 0.0
C871 C 0.28457 0.43022 0.79227 0.0
N872 N 0.28601 0.426 0.83675 0.0
C873 C 0.25517 0.40642 0.66625 0.0
C874 C 0.26937 0.39891 0.67496 0.0
C875 C 0.25878 0.39177 0.66027 0.0
C876 C 0.25171 0.39571 0.65487 0.0
C877 C 0.27255 0.40962 0.6852 0.0
N878 N 0.26547 0.41329 0.68105 0.0
H879 H 0.24932 0.40893 0.66639 0.0
H880 H 0.28062 0.41487 0.69882 0.0
H881 H 0.26156 0.4092 0.79963 0.0
H882 H 0.29053 0.43765 0.77471 0.0
O883 O 0.25589 0.42287 0.74555 0.0
O884 O 0.26977 0.43938 0.7473 0.0
O885 O 0.28394 0.43429 0.67685 0.0
C886 C 0.25999 0.43264 0.76214 0.0
H887 H 0.26671 0.44946 0.56271 0.0
H888 H 0.27484 0.41139 0.87709 0.0
H889 H 0.27508 0.39619 0.67983 0.0
H890 H 0.24338 0.39041 0.64504 0.0
Co891 Co 0.51073 0.90995 0.25673 0.0
C892 C 0.4933 0.90863 0.32849 0.0
C893 C 0.49696 0.89611 0.33932 0.0
C894 C 0.4883 0.89388 0.36978 0.0
N895 N 0.50041 0.90552 0.31423 0.0
N896 N 0.48595 0.9017 0.36295 0.0
H897 H 0.49283 0.9152 0.31114 0.0
H898 H 0.50007 0.89076 0.33335 0.0
C899 C 0.52141 0.90508 0.34266 0.0
O900 O 0.51981 0.91181 0.37055 0.0
N901 N 0.52054 0.91341 0.19875 0.0
C902 C 0.52418 0.92177 0.1656 0.0
C903 C 0.53037 0.92062 0.12774 0.0
C904 C 0.5245 0.9073 0.18076 0.0
N905 N 0.53057 0.91153 0.13746 0.0
C906 C 0.51669 0.93083 0.2961 0.0
C907 C 0.53847 0.93851 0.29979 0.0
C908 C 0.5347 0.94564 0.3084 0.0
C909 C 0.52362 0.9416 0.30746 0.0
C910 C 0.53122 0.92773 0.28905 0.0
N911 N 0.52043 0.92397 0.28728 0.0
H912 H 0.50838 0.92827 0.29051 0.0
H913 H 0.53435 0.92252 0.27943 0.0
H914 H 0.52234 0.92816 0.16842 0.0
H915 H 0.52267 0.89973 0.19807 0.0
O916 O 0.50241 0.91426 0.21594 0.0
O917 O 0.49987 0.89782 0.21645 0.0
O918 O 0.51821 0.90314 0.29491 0.0
C919 C 0.49709 0.90455 0.1984 0.0
H920 H 0.48383 0.88683 0.39384 0.0
H921 H 0.53442 0.92607 0.0956 0.0
H922 H 0.54697 0.94128 0.29977 0.0
H923 H 0.52033 0.94685 0.31206 0.0
Co924 Co 0.0924 0.60064 0.2662 0.0
C925 C 0.09277 0.58505 0.34256 0.0
C926 C 0.09672 0.59991 0.37938 0.0
C927 C 0.09788 0.59353 0.41564 0.0
N928 N 0.09343 0.59462 0.33328 0.0
N929 N 0.09549 0.58423 0.39239 0.0
H930 H 0.09064 0.57888 0.31336 0.0
H931 H 0.09864 0.60805 0.38637 0.0
C932 C 0.09759 0.62261 0.30173 0.0
O933 O 0.08906 0.62135 0.27687 0.0
N934 N 0.09189 0.60683 0.19843 0.0
C935 C 0.08661 0.60149 0.15466 0.0
C936 C 0.0892 0.60858 0.11388 0.0
C937 C 0.09809 0.61707 0.18214 0.0
N938 N 0.09638 0.61839 0.13129 0.0
C939 C 0.07005 0.59228 0.2526 0.0
C940 C 0.06589 0.60025 0.34236 0.0
C941 C 0.05767 0.59474 0.30582 0.0
C942 C 0.05982 0.59057 0.26111 0.0
C943 C 0.07618 0.60195 0.33172 0.0
N944 N 0.07829 0.5984 0.28583 0.0
H945 H 0.07122 0.58845 0.21932 0.0
H946 H 0.08242 0.60633 0.35994 0.0
H947 H 0.08157 0.59294 0.15109 0.0
H948 H 0.10416 0.62339 0.20579 0.0
O949 O 0.08746 0.58707 0.23302 0.0
O950 O 0.10453 0.59959 0.23946 0.0
O951 O 0.10026 0.6154 0.29894 0.0
C952 C 0.09736 0.59014 0.22248 0.0
H953 H 0.10085 0.59582 0.45526 0.0
H954 H 0.08611 0.60663 0.07429 0.0
H955 H 0.06443 0.60334 0.3782 0.0
H956 H 0.05354 0.58581 0.23323 0.0
Co957 Co 0.40045 0.49531 0.26157 0.0
C958 C 0.41563 0.5111 0.34419 0.0
C959 C 0.40237 0.513 0.32153 0.0
C960 C 0.4082 0.52061 0.35824 0.0
N961 N 0.4069 0.50693 0.31251 0.0
N962 N 0.41652 0.51944 0.37283 0.0
H963 H 0.42114 0.50815 0.34738 0.0
H964 H 0.39519 0.5119 0.30245 0.0
C965 C 0.38563 0.48818 0.35135 0.0
O966 O 0.39421 0.49079 0.37965 0.0
N967 N 0.39349 0.48415 0.20983 0.0
C968 C 0.39758 0.47905 0.18255 0.0
C969 C 0.39001 0.47234 0.14676 0.0
C970 C 0.38361 0.48059 0.1903 0.0
N971 N 0.38122 0.47334 0.15155 0.0
C972 C 0.41502 0.48912 0.3024 0.0
C973 C 0.39986 0.46825 0.32615 0.0
C974 C 0.41072 0.47129 0.32871 0.0
C975 C 0.41833 0.48194 0.31768 0.0
C976 C 0.39688 0.47572 0.31105 0.0
N977 N 0.40443 0.48607 0.29971 0.0
H978 H 0.42103 0.49691 0.2889 0.0
H979 H 0.38849 0.47295 0.305 0.0
H980 H 0.40557 0.48029 0.18755 0.0
H981 H 0.37835 0.48339 0.20401 0.0
O982 O 0.41293 0.50221 0.21809 0.0
O983 O 0.39941 0.50528 0.21301 0.0
O984 O 0.38645 0.48945 0.30148 0.0
C985 C 0.40875 0.5073 0.19563 0.0
H986 H 0.40651 0.52669 0.37238 0.0
H987 H 0.39108 0.46739 0.11833 0.0
H988 H 0.39369 0.46007 0.33367 0.0
H989 H 0.42679 0.48457 0.31722 0.0
Co990 Co 0.09525 0.49221 0.76086 0.0
C991 C 0.09633 0.5091 0.8373 0.0
C992 C 0.11093 0.50886 0.82599 0.0
C993 C 0.11304 0.51727 0.85812 0.0
N994 N 0.10045 0.50359 0.81308 0.0
N995 N 0.10391 0.51747 0.86516 0.0
H996 H 0.08823 0.50749 0.83334 0.0
H997 H 0.11676 0.50685 0.81167 0.0
C998 C 0.10285 0.4845 0.84891 0.0
O999 O 0.09708 0.4872 0.87822 0.0
N1000 N 0.09119 0.48138 0.70766 0.0
C1001 C 0.08188 0.47571 0.68172 0.0
C1002 C 0.08316 0.46947 0.6445 0.0
C1003 C 0.09799 0.47866 0.68585 0.0
N1004 N 0.09334 0.47142 0.64708 0.0
C1005 C 0.07457 0.48609 0.80262 0.0
C1006 C 0.06842 0.46498 0.82249 0.0
C1007 C 0.06076 0.46822 0.82651 0.0
C1008 C 0.06405 0.479 0.81756 0.0
C1009 C 0.07896 0.4724 0.80815 0.0
N1010 N 0.08196 0.48286 0.79838 0.0
H1011 H 0.07644 0.49394 0.78998 0.0
H1012 H 0.08447 0.46953 0.80123 0.0
H1013 H 0.07475 0.47623 0.68871 0.0
H1014 H 0.10624 0.48204 0.69802 0.0
O1015 O 0.08978 0.49937 0.71875 0.0
O1016 O 0.10638 0.50245 0.71358 0.0
O1017 O 0.1032 0.48595 0.79921 0.0
C1018 C 0.0991 0.50459 0.69688 0.0
H1019 H 0.12074 0.52286 0.87483 0.0
H1020 H 0.07719 0.46418 0.61669 0.0
H1021 H 0.06619 0.45669 0.82832 0.0
H1022 H 0.05834 0.48179 0.8182 0.0
Co1023 Co 0.51391 0.6018 0.76996 0.0
C1024 C 0.49564 0.58655 0.83836 0.0
C1025 C 0.50743 0.60024 0.88057 0.0
C1026 C 0.49934 0.59393 0.91451 0.0
N1027 N 0.50521 0.59565 0.83265 0.0
N1028 N 0.4919 0.58533 0.8881 0.0
H1029 H 0.49144 0.58094 0.80707 0.0
H1030 H 0.51434 0.60781 0.8906 0.0
C1031 C 0.5306 0.62384 0.80497 0.0
O1032 O 0.53783 0.62256 0.77981 0.0
N1033 N 0.52247 0.60817 0.70709 0.0
C1034 C 0.52643 0.60386 0.67314 0.0
C1035 C 0.53152 0.61097 0.63293 0.0
C1036 C 0.52488 0.61769 0.68564 0.0
N1037 N 0.53065 0.61975 0.64093 0.0
C1038 C 0.52467 0.58977 0.77581 0.0
C1039 C 0.53826 0.60023 0.85847 0.0
C1040 C 0.53882 0.59187 0.8336 0.0
C1041 C 0.5318 0.58655 0.79233 0.0
C1042 C 0.53081 0.60311 0.84108 0.0
N1043 N 0.52447 0.59827 0.79817 0.0
H1044 H 0.51929 0.58524 0.74462 0.0
H1045 H 0.53019 0.60915 0.86286 0.0
H1046 H 0.52548 0.59599 0.67576 0.0
H1047 H 0.52255 0.62306 0.70304 0.0
O1048 O 0.50546 0.58878 0.73177 0.0
O1049 O 0.50189 0.60198 0.73501 0.0
O1050 O 0.52079 0.6164 0.80465 0.0
C1051 C 0.49953 0.59263 0.71639 0.0
H1052 H 0.49881 0.59573 0.95525 0.0
H1053 H 0.53536 0.60961 0.59975 0.0
H1054 H 0.54337 0.60434 0.89164 0.0
H1055 H 0.53187 0.57996 0.7723 0.0
Co1056 Co 0.40057 0.90946 0.76525 0.0
C1057 C 0.41416 0.90387 0.83351 0.0
C1058 C 0.40297 0.9066 0.87668 0.0
C1059 C 0.40835 0.90372 0.91143 0.0
N1060 N 0.40651 0.90662 0.82769 0.0
N1061 N 0.41536 0.90199 0.88438 0.0
H1062 H 0.41864 0.90307 0.80159 0.0
H1063 H 0.39686 0.90855 0.88657 0.0
C1064 C 0.3766 0.89943 0.79263 0.0
O1065 O 0.37458 0.90377 0.75231 0.0
N1066 N 0.39463 0.91221 0.70268 0.0
C1067 C 0.39767 0.9218 0.68073 0.0
C1068 C 0.39125 0.92032 0.63799 0.0
C1069 C 0.38691 0.90498 0.67082 0.0
N1070 N 0.38435 0.90975 0.63225 0.0
C1071 C 0.41355 0.92997 0.80908 0.0
C1072 C 0.39858 0.93656 0.81057 0.0
C1073 C 0.40939 0.94414 0.81849 0.0
C1074 C 0.41683 0.94062 0.82 0.0
C1075 C 0.39562 0.92593 0.79978 0.0
N1076 N 0.40316 0.92286 0.79675 0.0
H1077 H 0.41952 0.92754 0.8075 0.0
H1078 H 0.38744 0.92052 0.78986 0.0
H1079 H 0.40397 0.92939 0.69532 0.0
H1080 H 0.38268 0.89646 0.67836 0.0
O1081 O 0.41394 0.91519 0.72894 0.0
O1082 O 0.40132 0.89811 0.72713 0.0
O1083 O 0.38602 0.90093 0.80057 0.0
C1084 C 0.41068 0.90565 0.7109 0.0
H1085 H 0.40729 0.90309 0.95357 0.0
H1086 H 0.39149 0.92659 0.61373 0.0
H1087 H 0.39257 0.93896 0.809 0.0
H1088 H 0.42524 0.94616 0.82718 0.0
Co1089 Co 0.15729 0.4226 0.20408 0.0
C1090 C 0.1755 0.4268 0.13166 0.0
C1091 C 0.16074 0.42224 0.09166 0.0
C1092 C 0.16838 0.42391 0.05496 0.0
N1093 N 0.16514 0.42399 0.13984 0.0
N1094 N 0.17766 0.42676 0.07997 0.0
H1095 H 0.18132 0.42869 0.1625 0.0
H1096 H 0.15249 0.41988 0.0837 0.0
C1097 C 0.14322 0.43232 0.17454 0.0
O1098 O 0.13728 0.42859 0.2167 0.0
N1099 N 0.14951 0.42125 0.26843 0.0
C1100 C 0.14332 0.4122 0.29553 0.0
C1101 C 0.13925 0.41467 0.33873 0.0
C1102 C 0.14965 0.42917 0.29728 0.0
N1103 N 0.14312 0.42533 0.33946 0.0
C1104 C 0.14912 0.4012 0.17272 0.0
C1105 C 0.12757 0.39467 0.17651 0.0
C1106 C 0.13073 0.38694 0.17429 0.0
C1107 C 0.14163 0.39034 0.1699 0.0
C1108 C 0.13538 0.40552 0.17953 0.0
N1109 N 0.14602 0.40861 0.18036 0.0
H1110 H 0.15751 0.40361 0.17224 0.0
H1111 H 0.13277 0.4112 0.18536 0.0
H1112 H 0.14171 0.40431 0.28434 0.0
H1113 H 0.15409 0.43751 0.28611 0.0
O1114 O 0.16537 0.41759 0.24208 0.0
O1115 O 0.16994 0.43464 0.23549 0.0
O1116 O 0.15092 0.43051 0.16582 0.0
C1117 C 0.17192 0.42743 0.25497 0.0
H1118 H 0.1672 0.42323 0.0129 0.0
H1119 H 0.13352 0.40896 0.36612 0.0
H1120 H 0.1192 0.39232 0.17969 0.0
H1121 H 0.14437 0.38461 0.16691 0.0
Co1122 Co 0.57641 0.7334 0.21071 0.0
C1123 C 0.57509 0.74872 0.13075 0.0
C1124 C 0.56022 0.73513 0.15392 0.0
C1125 C 0.55806 0.74092 0.11866 0.0
N1126 N 0.57088 0.73985 0.16161 0.0
N1127 N 0.56737 0.74945 0.10379 0.0
H1128 H 0.58349 0.75443 0.12685 0.0
H1129 H 0.55435 0.72783 0.17282 0.0
C1130 C 0.56805 0.71864 0.1205 0.0
O1131 O 0.57328 0.72727 0.09157 0.0
N1132 N 0.58082 0.72637 0.26103 0.0
C1133 C 0.59003 0.73035 0.28812 0.0
C1134 C 0.58894 0.72288 0.32519 0.0
C1135 C 0.57428 0.71667 0.28192 0.0
N1136 N 0.57898 0.7143 0.32145 0.0
C1137 C 0.59688 0.74823 0.16827 0.0
C1138 C 0.60309 0.73337 0.14653 0.0
C1139 C 0.61077 0.74428 0.14491 0.0
C1140 C 0.60746 0.75174 0.15414 0.0
C1141 C 0.59247 0.73019 0.15939 0.0
N1142 N 0.58948 0.73758 0.17092 0.0
H1143 H 0.59493 0.75412 0.18176 0.0
H1144 H 0.58692 0.72176 0.16473 0.0
H1145 H 0.59688 0.73825 0.28266 0.0
H1146 H 0.56611 0.71162 0.26908 0.0
O1147 O 0.58209 0.74575 0.25496 0.0
O1148 O 0.56552 0.73213 0.26076 0.0
O1149 O 0.56834 0.71943 0.17059 0.0
C1150 C 0.57292 0.74141 0.27839 0.0
H1151 H 0.55018 0.73907 0.10552 0.0
H1152 H 0.59488 0.72394 0.35411 0.0
H1153 H 0.60539 0.72737 0.14053 0.0
H1154 H 0.61321 0.76023 0.15494 0.0
Co1155 Co 0.26922 0.84427 0.20816 0.0
C1156 C 0.25329 0.82777 0.13195 0.0
C1157 C 0.26935 0.83095 0.12315 0.0
C1158 C 0.26301 0.82294 0.08918 0.0
N1159 N 0.26345 0.8344 0.14875 0.0
N1160 N 0.2529 0.82093 0.09441 0.0
H1161 H 0.24625 0.82745 0.14844 0.0
H1162 H 0.27767 0.83359 0.13082 0.0
C1163 C 0.28563 0.85498 0.12607 0.0
O1164 O 0.27762 0.85381 0.09677 0.0
N1165 N 0.2755 0.85353 0.26806 0.0
C1166 C 0.27152 0.85834 0.29854 0.0
C1167 C 0.27893 0.86401 0.3373 0.0
C1168 C 0.28508 0.85614 0.2889 0.0
N1169 N 0.28742 0.86256 0.33117 0.0
C1170 C 0.25544 0.85142 0.16577 0.0
C1171 C 0.27021 0.87304 0.16775 0.0
C1172 C 0.25952 0.86974 0.15589 0.0
C1173 C 0.25216 0.85877 0.15379 0.0
C1174 C 0.27322 0.86538 0.17846 0.0
N1175 N 0.26584 0.85467 0.17772 0.0
H1176 H 0.24939 0.84317 0.16927 0.0
H1177 H 0.28137 0.8681 0.19027 0.0
H1178 H 0.26382 0.85776 0.29297 0.0
H1179 H 0.29027 0.85344 0.273 0.0
O1180 O 0.25612 0.83619 0.24567 0.0
O1181 O 0.26949 0.8328 0.24765 0.0
O1182 O 0.28385 0.85146 0.1733 0.0
C1183 C 0.25989 0.83032 0.26328 0.0
H1184 H 0.26556 0.8185 0.0647 0.0
H1185 H 0.27805 0.86868 0.36804 0.0
H1186 H 0.27613 0.88146 0.17036 0.0
H1187 H 0.24376 0.85588 0.14649 0.0
H1188 H 0.22098 0.06949 0.67987 0.0
H1189 H 0.2179 0.08065 0.74316 0.0
H1190 H 0.24312 0.10907 0.67051 0.0
H1191 H 0.2463 0.09813 0.60849 0.0
H1192 H 0.23641 0.09831 0.81183 0.0
H1193 H 0.21559 0.11281 0.68153 0.0
H1194 H 0.21522 0.10024 0.67105 0.0
H1195 H 0.2268 0.1126 0.65212 0.0
C1196 C 0.22572 0.07812 0.67712 0.0
C1197 C 0.23388 0.08295 0.63936 0.0
C1198 C 0.22401 0.08447 0.71335 0.0
C1199 C 0.23027 0.09568 0.71128 0.0
C1200 C 0.23816 0.10044 0.67258 0.0
H1201 H 0.25097 0.15643 0.82699 0.0
H1202 H 0.24586 0.13949 0.78402 0.0
C1203 C 0.23997 0.09417 0.63722 0.0
C1204 C 0.22915 0.10269 0.75026 0.0
H1205 H 0.22468 0.12374 0.75601 0.0
C1206 C 0.23356 0.10369 0.80045 0.0
C1207 C 0.22548 0.1097 0.73506 0.0
C1208 C 0.22041 0.10877 0.68214 0.0
C1209 C 0.23515 0.11207 0.8343 0.0
C1210 C 0.23213 0.11954 0.81753 0.0
C1211 C 0.22704 0.11805 0.76877 0.0
C1212 C 0.23539 0.12967 0.84633 0.0
C1213 C 0.24073 0.11335 0.88605 0.0
C1214 C 0.2313 0.12982 0.8962 0.0
C1215 C 0.23423 0.1396 0.92107 0.0
C1216 C 0.2412 0.14936 0.8962 0.0
C1217 C 0.24543 0.1491 0.84685 0.0
C1218 C 0.24254 0.1394 0.82226 0.0
H1219 H 0.24373 0.10765 0.89036 0.0
H1220 H 0.24756 0.12163 0.89015 0.0
H1221 H 0.23506 0.11194 0.91855 0.0
H1222 H 0.22568 0.12241 0.91531 0.0
H1223 H 0.23078 0.13952 0.95886 0.0
H1224 H 0.93256 0.14731 0.65946 0.0
H1225 H 0.9216 0.13366 0.72534 0.0
H1226 H 0.90152 0.14777 0.74072 0.0
H1227 H 0.91237 0.16131 0.67657 0.0
H1228 H 0.90579 0.14159 0.8364 0.0
H1229 H 0.89162 0.10897 0.68786 0.0
H1230 H 0.9058 0.11681 0.69905 0.0
H1231 H 0.89886 0.1229 0.66951 0.0
C1232 C 0.92591 0.14756 0.67767 0.0
C1233 C 0.92325 0.1553 0.66241 0.0
C1234 C 0.91962 0.13973 0.71496 0.0
C1235 C 0.91064 0.1396 0.73743 0.0
C1236 C 0.90838 0.14768 0.72398 0.0
H1237 H 0.84841 0.09514 0.83091 0.0
H1238 H 0.86554 0.1078 0.79155 0.0
C1239 C 0.91458 0.1554 0.68696 0.0
C1240 C 0.903 0.13082 0.77221 0.0
H1241 H 0.88268 0.10485 0.76838 0.0
C1242 C 0.90087 0.13348 0.82209 0.0
C1243 C 0.89652 0.12028 0.75319 0.0
C1244 C 0.89821 0.11701 0.6994 0.0
C1245 C 0.8921 0.12608 0.85214 0.0
C1246 C 0.88537 0.11568 0.83211 0.0
C1247 C 0.88786 0.11284 0.78361 0.0
C1248 C 0.87506 0.10803 0.85764 0.0
C1249 C 0.88971 0.12968 0.90343 0.0
C1250 C 0.87467 0.10397 0.90818 0.0
C1251 C 0.86481 0.09671 0.93098 0.0
C1252 C 0.85518 0.0933 0.90337 0.0
C1253 C 0.85565 0.09747 0.85298 0.0
C1254 C 0.86545 0.10472 0.83042 0.0
H1255 H 0.89457 0.13848 0.90874 0.0
H1256 H 0.88111 0.12727 0.90585 0.0
H1257 H 0.89153 0.12581 0.93634 0.0
H1258 H 0.88198 0.10628 0.92965 0.0
H1259 H 0.86475 0.09354 0.96953 0.0
H1260 H 0.85692 0.759 0.60195 0.0
H1261 H 0.87116 0.76229 0.66348 0.0
H1262 H 0.86816 0.78773 0.735 0.0
H1263 H 0.85376 0.78448 0.67249 0.0
H1264 H 0.89147 0.78288 0.68704 0.0
H1265 H 0.86323 0.76484 0.85501 0.0
H1266 H 0.85858 0.76191 0.78804 0.0
H1267 H 0.86274 0.77487 0.8149 0.0
C1268 C 0.85936 0.7654 0.63028 0.0
C1269 C 0.85421 0.77147 0.63254 0.0
C1270 C 0.86751 0.76727 0.66541 0.0
C1271 C 0.87064 0.77517 0.70409 0.0
C1272 C 0.8658 0.78154 0.70556 0.0
H1273 H 0.91333 0.7752 0.95511 0.0
H1274 H 0.90177 0.78037 0.90744 0.0
C1275 C 0.85765 0.77974 0.6697 0.0
C1276 C 0.87867 0.77621 0.74348 0.0
H1277 H 0.88056 0.76745 0.86544 0.0
C1278 C 0.88916 0.77975 0.7265 0.0
C1279 C 0.87565 0.77214 0.79494 0.0
C1280 C 0.86444 0.76818 0.81472 0.0
C1281 C 0.89655 0.7788 0.75863 0.0
C1282 C 0.89329 0.77396 0.80861 0.0
C1283 C 0.88303 0.7711 0.82702 0.0
C1284 C 0.89997 0.7707 0.83915 0.0
C1285 C 0.90769 0.78266 0.73802 0.0
C1286 C 0.90247 0.7633 0.8174 0.0
C1287 C 0.90896 0.76031 0.84446 0.0
C1288 C 0.91311 0.76461 0.89419 0.0
C1289 C 0.91027 0.77173 0.91695 0.0
C1290 C 0.90372 0.77474 0.88966 0.0
H1291 H 0.90997 0.78906 0.70827 0.0
H1292 H 0.91368 0.78575 0.7702 0.0
H1293 H 0.90796 0.7759 0.71887 0.0
H1294 H 0.89941 0.75984 0.77918 0.0
H1295 H 0.91071 0.75459 0.82627 0.0
H1296 H 0.09823 0.24642 0.05062 0.0
H1297 H 0.10968 0.24524 0.98396 0.0
H1298 H 0.08199 0.21969 0.9078 0.0
H1299 H 0.07039 0.22071 0.97583 0.0
H1300 H 0.09914 0.21623 0.9094 0.0
H1301 H 0.11242 0.25702 0.83691 0.0
H1302 H 0.11465 0.25704 0.90609 0.0
H1303 H 0.10119 0.25008 0.88081 0.0
C1304 C 0.09456 0.24046 0.02003 0.0
C1305 C 0.08341 0.2337 0.01816 0.0
C1306 C 0.10111 0.23987 0.98163 0.0
C1307 C 0.09667 0.23264 0.93985 0.0
C1308 C 0.08557 0.22544 0.93931 0.0
H1309 H 0.14032 0.24091 0.67702 0.0
H1310 H 0.12521 0.24003 0.72642 0.0
C1311 C 0.07896 0.22597 0.97831 0.0
C1312 C 0.10377 0.23274 0.8973 0.0
H1313 H 0.12375 0.24972 0.81476 0.0
C1314 C 0.1044 0.2235 0.88809 0.0
C1315 C 0.11046 0.24215 0.86838 0.0
C1316 C 0.10957 0.25209 0.87311 0.0
C1317 C 0.11203 0.22362 0.8534 0.0
C1318 C 0.11939 0.23331 0.82825 0.0
C1319 C 0.11827 0.24235 0.83474 0.0
C1320 C 0.12873 0.23439 0.79828 0.0
C1321 C 0.11219 0.21336 0.84455 0.0
C1322 C 0.13597 0.23198 0.82282 0.0
C1323 C 0.14449 0.23247 0.79483 0.0
C1324 C 0.14612 0.23554 0.74185 0.0
C1325 C 0.13926 0.23856 0.71788 0.0
C1326 C 0.1306 0.23797 0.74594 0.0
H1327 H 0.10414 0.20627 0.85088 0.0
H1328 H 0.1149 0.21298 0.80428 0.0
H1329 H 0.11775 0.21289 0.87304 0.0
H1330 H 0.13495 0.2296 0.86364 0.0
H1331 H 0.14978 0.23027 0.81441 0.0
H1332 H 0.78356 0.85238 0.00616 0.0
H1333 H 0.78583 0.86629 0.94266 0.0
H1334 H 0.75167 0.85027 0.92018 0.0
H1335 H 0.74935 0.83658 0.98284 0.0
H1336 H 0.77762 0.86456 0.83151 0.0
H1337 H 0.76053 0.88098 0.97444 0.0
H1338 H 0.76574 0.87242 0.99372 0.0
H1339 H 0.75266 0.86677 0.96486 0.0
C1340 C 0.77659 0.85179 0.987 0.0
C1341 C 0.76628 0.84349 0.99998 0.0
C1342 C 0.77788 0.85972 0.95091 0.0
C1343 C 0.76888 0.85938 0.92754 0.0
C1344 C 0.75869 0.85078 0.93845 0.0
H1345 H 0.75295 0.89952 0.73971 0.0
H1346 H 0.75268 0.88457 0.78728 0.0
C1347 C 0.75739 0.84296 0.97434 0.0
C1348 C 0.76986 0.86817 0.89374 0.0
H1349 H 0.76216 0.88698 0.88646 0.0
C1350 C 0.77436 0.86956 0.84358 0.0
C1351 C 0.76552 0.87461 0.90959 0.0
C1352 C 0.76092 0.87372 0.96375 0.0
C1353 C 0.77436 0.87704 0.80822 0.0
C1354 C 0.76984 0.88335 0.82384 0.0
C1355 C 0.76549 0.88205 0.87431 0.0
C1356 C 0.76992 0.8917 0.78956 0.0
C1357 C 0.77892 0.87794 0.75402 0.0
C1358 C 0.77966 0.90058 0.77458 0.0
C1359 C 0.77981 0.90906 0.7476 0.0
C1360 C 0.77022 0.9089 0.73523 0.0
C1361 C 0.76044 0.89982 0.74843 0.0
C1362 C 0.7603 0.89132 0.77576 0.0
H1363 H 0.77937 0.87072 0.74344 0.0
H1364 H 0.77403 0.87916 0.72412 0.0
H1365 H 0.78714 0.88494 0.75273 0.0
H1366 H 0.78717 0.90113 0.78547 0.0
H1367 H 0.78747 0.91587 0.73733 0.0
H1368 H 0.14331 0.92793 0.02739 0.0
H1369 H 0.12813 0.91556 0.97146 0.0
H1370 H 0.14612 0.90074 0.91998 0.0
H1371 H 0.16101 0.91276 0.97575 0.0
H1372 H 0.12584 0.90952 0.85896 0.0
H1373 H 0.1192 0.87647 0.99206 0.0
H1374 H 0.12737 0.89036 0.01009 0.0
H1375 H 0.13277 0.884 0.96946 0.0
C1376 C 0.14404 0.92213 0.0034 0.0
C1377 C 0.15326 0.92119 0.00648 0.0
C1378 C 0.13539 0.91508 0.97157 0.0
C1379 C 0.13594 0.9071 0.94238 0.0
C1380 C 0.14544 0.90669 0.94292 0.0
H1381 H 0.10119 0.8628 0.69479 0.0
H1382 H 0.11214 0.87917 0.74567 0.0
C1383 C 0.15395 0.91358 0.97486 0.0
C1384 C 0.12649 0.89859 0.91419 0.0
H1385 H 0.11122 0.87144 0.90724 0.0
C1386 C 0.12248 0.90119 0.86984 0.0
C1387 C 0.122 0.88774 0.92895 0.0
C1388 C 0.12547 0.88446 0.97805 0.0
C1389 C 0.11444 0.89315 0.83841 0.0
C1390 C 0.1105 0.88224 0.85111 0.0
C1391 C 0.11422 0.87975 0.89692 0.0
C1392 C 0.10287 0.87318 0.81718 0.0
C1393 C 0.11025 0.89645 0.79212 0.0
C1394 C 0.09398 0.86431 0.83991 0.0
C1395 C 0.08797 0.85491 0.81126 0.0
C1396 C 0.09055 0.85422 0.75892 0.0
C1397 C 0.09897 0.86325 0.73489 0.0
C1398 C 0.10518 0.87262 0.76397 0.0
H1399 H 0.11101 0.90441 0.79873 0.0
H1400 H 0.11506 0.89709 0.75689 0.0
H1401 H 0.10173 0.89054 0.78402 0.0
H1402 H 0.092 0.86449 0.88074 0.0
H1403 H 0.08153 0.848 0.83046 0.0
H1404 H 0.78473 0.93197 0.48643 0.0
H1405 H 0.78675 0.9211 0.4173 0.0
H1406 H 0.75593 0.8944 0.45802 0.0
H1407 H 0.75389 0.90496 0.5262 0.0
H1408 H 0.78468 0.89926 0.42854 0.0
H1409 H 0.75422 0.89957 0.29705 0.0
H1410 H 0.761 0.9095 0.34755 0.0
H1411 H 0.75011 0.89649 0.36432 0.0
C1412 C 0.77846 0.92376 0.48076 0.0
C1413 C 0.76912 0.91937 0.51145 0.0
C1414 C 0.77959 0.91759 0.44125 0.0
C1415 C 0.77136 0.90703 0.43192 0.0
C1416 C 0.76226 0.90259 0.46379 0.0
H1417 H 0.75315 0.85017 0.25282 0.0
H1418 H 0.75399 0.86499 0.30449 0.0
C1419 C 0.76114 0.90867 0.50297 0.0
C1420 C 0.77207 0.90037 0.38962 0.0
H1421 H 0.75878 0.88601 0.28087 0.0
C1422 C 0.77919 0.89651 0.39559 0.0
C1423 C 0.76478 0.89672 0.34714 0.0
C1424 C 0.75714 0.90084 0.3382 0.0
C1425 C 0.77888 0.8887 0.36155 0.0
C1426 C 0.77138 0.88483 0.31979 0.0
C1427 C 0.76449 0.88895 0.31293 0.0
C1428 C 0.77042 0.87629 0.28385 0.0
C1429 C 0.78623 0.88429 0.37218 0.0
C1430 C 0.77917 0.87788 0.25334 0.0
C1431 C 0.77869 0.86947 0.2242 0.0
C1432 C 0.76941 0.85932 0.22443 0.0
C1433 C 0.76037 0.85792 0.25193 0.0
C1434 C 0.76088 0.86635 0.28157 0.0
H1435 H 0.78955 0.88615 0.41259 0.0
H1436 H 0.78197 0.87548 0.36668 0.0
H1437 H 0.79303 0.88791 0.34429 0.0
H1438 H 0.78649 0.88555 0.25326 0.0
H1439 H 0.78571 0.87081 0.2025 0.0
H1440 H 0.15228 0.90217 0.24999 0.0
H1441 H 0.13876 0.88793 0.30595 0.0
H1442 H 0.1183 0.90158 0.28965 0.0
H1443 H 0.13166 0.91565 0.23364 0.0
H1444 H 0.13156 0.8926 0.40262 0.0
H1445 H 0.09775 0.86929 0.26573 0.0
H1446 H 0.11129 0.87791 0.2433 0.0
H1447 H 0.10326 0.88354 0.26403 0.0
C1448 C 0.14478 0.90194 0.25737 0.0
C1449 C 0.14305 0.91004 0.23781 0.0
C1450 C 0.1371 0.89386 0.2895 0.0
C1451 C 0.1275 0.89367 0.30172 0.0
C1452 C 0.12558 0.90148 0.28025 0.0
H1453 H 0.07492 0.85274 0.51831 0.0
H1454 H 0.08638 0.86727 0.45715 0.0
C1455 C 0.13326 0.90957 0.24861 0.0
C1456 C 0.11993 0.88593 0.34054 0.0
H1457 H 0.09435 0.86524 0.35625 0.0
C1458 C 0.12344 0.8866 0.39243 0.0
C1459 C 0.10927 0.87825 0.32739 0.0
C1460 C 0.10515 0.87711 0.27202 0.0
C1461 C 0.1166 0.87974 0.4315 0.0
C1462 C 0.10603 0.87185 0.41813 0.0
C1463 C 0.10243 0.87133 0.36647 0.0
C1464 C 0.09906 0.86338 0.45589 0.0
C1465 C 0.12077 0.88101 0.48688 0.0
C1466 C 0.10235 0.8564 0.47493 0.0
C1467 C 0.09591 0.84821 0.50942 0.0
C1468 C 0.08593 0.84673 0.52564 0.0
C1469 C 0.08259 0.85374 0.50677 0.0
C1470 C 0.0891 0.86199 0.47177 0.0
H1471 H 0.1275 0.88924 0.49404 0.0
H1472 H 0.11436 0.87921 0.51598 0.0
H1473 H 0.12378 0.87538 0.49338 0.0
H1474 H 0.10989 0.85718 0.46248 0.0
H1475 H 0.09876 0.84297 0.52296 0.0
H1476 H 0.16205 0.25061 0.47724 0.0
H1477 H 0.14778 0.24731 0.41606 0.0
H1478 H 0.13216 0.21358 0.45037 0.0
H1479 H 0.14665 0.21684 0.51227 0.0
H1480 H 0.13933 0.23219 0.32447 0.0
H1481 H 0.11023 0.22449 0.48563 0.0
H1482 H 0.12449 0.23152 0.49706 0.0
H1483 H 0.11752 0.21736 0.48589 0.0
C1484 C 0.15563 0.24245 0.4717 0.0
C1485 C 0.15541 0.23398 0.49995 0.0
C1486 C 0.1475 0.24059 0.43644 0.0
C1487 C 0.13891 0.23024 0.42891 0.0
C1488 C 0.13874 0.22165 0.45589 0.0
H1489 H 0.07925 0.21618 0.27588 0.0
H1490 H 0.09323 0.21438 0.3205 0.0
C1491 C 0.14701 0.22351 0.49104 0.0
C1492 C 0.12994 0.22875 0.39485 0.0
H1493 H 0.10498 0.2258 0.40034 0.0
C1494 C 0.13174 0.23063 0.34079 0.0
C1495 C 0.1201 0.22678 0.41639 0.0
C1496 C 0.11789 0.22496 0.47443 0.0
C1497 C 0.12399 0.23072 0.30771 0.0
C1498 C 0.1143 0.2292 0.32959 0.0
C1499 C 0.11241 0.22701 0.3835 0.0
C1500 C 0.10607 0.23002 0.29795 0.0
C1501 C 0.12625 0.23242 0.24969 0.0
C1502 C 0.10861 0.23938 0.26977 0.0
C1503 C 0.1006 0.2404 0.24377 0.0
C1504 C 0.08988 0.23215 0.24646 0.0
C1505 C 0.08741 0.22273 0.2738 0.0
C1506 C 0.0954 0.22168 0.29916 0.0
H1507 H 0.13212 0.23 0.23734 0.0
H1508 H 0.11883 0.22783 0.22627 0.0
H1509 H 0.12974 0.24104 0.24053 0.0
H1510 H 0.11673 0.24605 0.26927 0.0
H1511 H 0.1027 0.24777 0.22341 0.0
H1512 H 0.90556 0.74986 0.12073 0.0
H1513 H 0.89456 0.75349 0.18006 0.0
H1514 H 0.92095 0.78529 0.20734 0.0
H1515 H 0.93219 0.78169 0.14725 0.0
H1516 H 0.90922 0.77233 0.30203 0.0
H1517 H 0.88261 0.77405 0.15003 0.0
H1518 H 0.88454 0.76272 0.14437 0.0
H1519 H 0.8957 0.77597 0.13508 0.0
C1520 C 0.90907 0.75767 0.13899 0.0
C1521 C 0.91976 0.76551 0.12916 0.0
C1522 C 0.90273 0.75973 0.17286 0.0
C1523 C 0.90691 0.76966 0.1978 0.0
C1524 C 0.91758 0.77757 0.18826 0.0
H1525 H 0.8631 0.78474 0.36022 0.0
H1526 H 0.87802 0.78609 0.30919 0.0
C1527 C 0.92396 0.77553 0.1538 0.0
C1528 C 0.89998 0.77153 0.23413 0.0
H1529 H 0.87633 0.77149 0.23822 0.0
C1530 C 0.9021 0.77231 0.28819 0.0
C1531 C 0.89074 0.77154 0.2159 0.0
C1532 C 0.88828 0.77112 0.15814 0.0
C1533 C 0.89498 0.7727 0.32467 0.0
C1534 C 0.88545 0.77217 0.30651 0.0
C1535 C 0.88358 0.7718 0.25227 0.0
C1536 C 0.87723 0.77194 0.34254 0.0
C1537 C 0.89771 0.77368 0.38223 0.0
C1538 C 0.87189 0.76361 0.37907 0.0
C1539 C 0.8633 0.76283 0.4085 0.0
C1540 C 0.85984 0.77026 0.40127 0.0
C1541 C 0.86545 0.77877 0.36599 0.0
C1542 C 0.87402 0.77959 0.33697 0.0
H1543 H 0.90643 0.77701 0.38851 0.0
H1544 H 0.8952 0.77886 0.40262 0.0
H1545 H 0.89345 0.76563 0.40047 0.0
H1546 H 0.87407 0.75748 0.38334 0.0
H1547 H 0.85908 0.75615 0.43507 0.0
H1548 H 0.2285 0.08183 0.33136 0.0
H1549 H 0.22972 0.09627 0.27683 0.0
H1550 H 0.24771 0.11908 0.39809 0.0
H1551 H 0.24631 0.10451 0.45376 0.0
H1552 H 0.23023 0.12107 0.3525 0.0
H1553 H 0.25699 0.11916 0.2018 0.0
H1554 H 0.24531 0.10653 0.21614 0.0
H1555 H 0.25528 0.11325 0.266 0.0
C1556 C 0.2327 0.08991 0.34659 0.0
C1557 C 0.2373 0.09202 0.39697 0.0
C1558 C 0.23345 0.09816 0.31519 0.0
C1559 C 0.23886 0.10874 0.33324 0.0
C1560 C 0.24352 0.11095 0.38342 0.0
H1561 H 0.26022 0.16493 0.14435 0.0
H1562 H 0.25798 0.15085 0.204 0.0
C1563 C 0.2428 0.10265 0.41496 0.0
C1564 C 0.23956 0.11742 0.29937 0.0
H1565 H 0.24908 0.12968 0.18137 0.0
C1566 C 0.23439 0.12302 0.31518 0.0
C1567 C 0.245 0.11993 0.25078 0.0
C1568 C 0.25105 0.11448 0.23272 0.0
C1569 C 0.23446 0.13102 0.28336 0.0
C1570 C 0.23973 0.13337 0.23426 0.0
C1571 C 0.24494 0.1278 0.21875 0.0
C1572 C 0.2407 0.14211 0.19982 0.0
C1573 C 0.22911 0.13704 0.30297 0.0
C1574 C 0.23169 0.14194 0.17754 0.0
C1575 C 0.23294 0.1501 0.14317 0.0
C1576 C 0.24323 0.15846 0.13031 0.0
C1577 C 0.25217 0.15859 0.15306 0.0
C1578 C 0.25092 0.15053 0.18733 0.0
H1579 H 0.22745 0.13588 0.34574 0.0
H1580 H 0.23415 0.14573 0.29492 0.0
H1581 H 0.22138 0.1341 0.28222 0.0
H1582 H 0.22373 0.13541 0.18593 0.0
H1583 H 0.22592 0.14978 0.12611 0.0
H1584 H 0.85891 0.07759 0.10069 0.0
H1585 H 0.87399 0.08927 0.15895 0.0
H1586 H 0.85461 0.10077 0.23098 0.0
H1587 H 0.83977 0.08936 0.17361 0.0
H1588 H 0.88298 0.11326 0.16695 0.0
H1589 H 0.86749 0.09177 0.35544 0.0
H1590 H 0.86311 0.08526 0.29244 0.0
H1591 H 0.8579 0.09338 0.31747 0.0
C1592 C 0.85788 0.08251 0.12953 0.0
C1593 C 0.84821 0.08261 0.13262 0.0
C1594 C 0.86647 0.08918 0.16252 0.0
C1595 C 0.86534 0.09579 0.19948 0.0
C1596 C 0.8556 0.09565 0.20318 0.0
H1597 H 0.89997 0.14414 0.43349 0.0
H1598 H 0.88678 0.13132 0.37126 0.0
C1599 C 0.84715 0.08916 0.17012 0.0
C1600 C 0.87436 0.10338 0.23278 0.0
H1601 H 0.88145 0.10997 0.36091 0.0
C1602 C 0.88279 0.11248 0.20931 0.0
C1603 C 0.87395 0.10238 0.28798 0.0
C1604 C 0.86518 0.09263 0.31496 0.0
C1605 C 0.89062 0.12084 0.23984 0.0
C1606 C 0.89008 0.11995 0.29521 0.0
C1607 C 0.88179 0.1107 0.31851 0.0
C1608 C 0.89816 0.12838 0.32983 0.0
C1609 C 0.89914 0.13073 0.21264 0.0
C1610 C 0.90891 0.13105 0.32677 0.0
C1611 C 0.9164 0.13838 0.36187 0.0
C1612 C 0.91331 0.14313 0.40124 0.0
C1613 C 0.9026 0.14068 0.40338 0.0
C1614 C 0.89506 0.13331 0.36812 0.0
H1615 H 0.89674 0.13144 0.1721 0.0
H1616 H 0.90094 0.13807 0.23479 0.0
H1617 H 0.90659 0.1303 0.21011 0.0
H1618 H 0.91146 0.12724 0.29816 0.0
H1619 H 0.92462 0.1402 0.3587 0.0
H1620 H 0.88775 0.40939 0.96016 0.0
H1621 H 0.88617 0.42161 0.02239 0.0
H1622 H 0.91517 0.42724 0.0992 0.0
H1623 H 0.91694 0.41544 0.03638 0.0
H1624 H 0.88578 0.42392 0.13287 0.0
H1625 H 0.92292 0.4568 0.04585 0.0
H1626 H 0.91572 0.44368 0.01663 0.0
H1627 H 0.92461 0.44614 0.07103 0.0
C1628 C 0.89359 0.41304 0.99128 0.0
C1629 C 0.9025 0.41157 0.99353 0.0
C1630 C 0.89273 0.42004 0.02659 0.0
C1631 C 0.90072 0.42555 0.06455 0.0
C1632 C 0.90907 0.4233 0.06942 0.0
H1633 H 0.91745 0.47871 0.2788 0.0
H1634 H 0.9155 0.4625 0.23678 0.0
C1635 C 0.91003 0.4165 0.03381 0.0
C1636 C 0.90095 0.43431 0.09618 0.0
H1637 H 0.9165 0.46099 0.12263 0.0
C1638 C 0.89246 0.43203 0.13055 0.0
C1639 C 0.90966 0.44492 0.09284 0.0
C1640 C 0.91869 0.44808 0.05423 0.0
C1641 C 0.8926 0.44006 0.16247 0.0
C1642 C 0.90141 0.4506 0.15971 0.0
C1643 C 0.90984 0.45287 0.12523 0.0
C1644 C 0.90182 0.4596 0.18976 0.0
C1645 C 0.88339 0.43722 0.19936 0.0
C1646 C 0.89477 0.46329 0.17737 0.0
C1647 C 0.89593 0.47255 0.20087 0.0
C1648 C 0.90417 0.47832 0.23733 0.0
C1649 C 0.91101 0.4744 0.2511 0.0
C1650 C 0.90991 0.46517 0.22709 0.0
H1651 H 0.87845 0.42844 0.20543 0.0
H1652 H 0.88635 0.44117 0.23799 0.0
H1653 H 0.87818 0.4401 0.18265 0.0
H1654 H 0.88858 0.45921 0.14815 0.0
H1655 H 0.89045 0.47529 0.18998 0.0
H1656 H 0.52883 0.4381 0.27791 0.0
H1657 H 0.54462 0.45009 0.22516 0.0
H1658 H 0.53772 0.42406 0.11958 0.0
H1659 H 0.52182 0.41224 0.17113 0.0
H1660 H 0.56311 0.45062 0.18865 0.0
H1661 H 0.53564 0.44537 0.02421 0.0
H1662 H 0.53087 0.44058 0.08948 0.0
H1663 H 0.53464 0.43312 0.04657 0.0
C1664 C 0.53084 0.43494 0.24396 0.0
C1665 C 0.52405 0.42434 0.2279 0.0
C1666 C 0.53983 0.44177 0.21387 0.0
C1667 C 0.54219 0.43803 0.16768 0.0
C1668 C 0.53589 0.42719 0.15421 0.0
H1669 H 0.59783 0.47952 0.96494 0.0
H1670 H 0.58581 0.46469 0.02307 0.0
C1671 C 0.52683 0.42045 0.18368 0.0
C1672 C 0.55057 0.44562 0.13117 0.0
H1673 H 0.55407 0.45597 0.00764 0.0
C1674 C 0.56117 0.45176 0.14896 0.0
C1675 C 0.54799 0.44716 0.07952 0.0
C1676 C 0.53666 0.44129 0.05885 0.0
C1677 C 0.56922 0.45953 0.11665 0.0
C1678 C 0.5666 0.46104 0.06507 0.0
C1679 C 0.55607 0.45471 0.04703 0.0
C1680 C 0.57422 0.46997 0.03107 0.0
C1681 C 0.58033 0.46636 0.13858 0.0
C1682 C 0.57162 0.4777 0.01569 0.0
C1683 C 0.57833 0.486 0.98236 0.0
C1684 C 0.58786 0.48681 0.96349 0.0
C1685 C 0.59054 0.47909 0.97889 0.0
C1686 C 0.58373 0.47068 0.01236 0.0
H1687 H 0.58058 0.46543 0.18173 0.0
H1688 H 0.58581 0.46401 0.12007 0.0
H1689 H 0.58338 0.47493 0.12957 0.0
H1690 H 0.56434 0.47732 0.02958 0.0
H1691 H 0.57601 0.49181 0.97157 0.0
H1692 H 0.51113 0.08144 0.9521 0.0
H1693 H 0.52503 0.08388 0.01377 0.0
H1694 H 0.53319 0.11667 0.03794 0.0
H1695 H 0.51906 0.11424 0.97599 0.0
H1696 H 0.54709 0.09847 0.01011 0.0
H1697 H 0.52801 0.10401 0.18784 0.0
H1698 H 0.52079 0.0987 0.12723 0.0
H1699 H 0.53 0.11278 0.13363 0.0
C1700 C 0.51586 0.0892 0.9704 0.0
C1701 C 0.51395 0.09765 0.95939 0.0
C1702 C 0.52383 0.09057 0.00563 0.0
C1703 C 0.53005 0.10039 0.03092 0.0
C1704 C 0.52834 0.10896 0.01941 0.0
H1705 H 0.58027 0.11969 0.26273 0.0
H1706 H 0.56664 0.1185 0.20222 0.0
C1707 C 0.52034 0.10759 0.98383 0.0
C1708 C 0.53828 0.1015 0.06915 0.0
H1709 H 0.54467 0.10493 0.19938 0.0
C1710 C 0.54659 0.09991 0.05149 0.0
C1711 C 0.53756 0.10334 0.12309 0.0
C1712 C 0.52858 0.10473 0.14442 0.0
C1713 C 0.55425 0.10015 0.08627 0.0
C1714 C 0.55344 0.10183 0.14036 0.0
C1715 C 0.54521 0.10356 0.15795 0.0
C1716 C 0.5613 0.10219 0.17899 0.0
C1717 C 0.56324 0.09881 0.06467 0.0
C1718 C 0.56264 0.0933 0.18712 0.0
C1719 C 0.57052 0.09398 0.2216 0.0
C1720 C 0.57716 0.10356 0.2485 0.0
C1721 C 0.57546 0.11228 0.24176 0.0
C1722 C 0.56761 0.11159 0.20746 0.0
H1723 H 0.56419 0.10023 0.02168 0.0
H1724 H 0.57094 0.10437 0.08413 0.0
H1725 H 0.56147 0.09051 0.0721 0.0
H1726 H 0.55769 0.08589 0.1663 0.0
H1727 H 0.57164 0.08714 0.22594 0.0
H1728 H 0.76713 0.58942 0.36613 0.0
H1729 H 0.77861 0.58685 0.30503 0.0
H1730 H 0.75339 0.55449 0.27636 0.0
H1731 H 0.74169 0.55705 0.33784 0.0
H1732 H 0.78529 0.57134 0.30618 0.0
H1733 H 0.76164 0.56859 0.12846 0.0
H1734 H 0.75998 0.57373 0.19016 0.0
H1735 H 0.75443 0.5596 0.18133 0.0
C1736 C 0.76399 0.58173 0.34704 0.0
C1737 C 0.75347 0.57345 0.35649 0.0
C1738 C 0.77059 0.58027 0.31219 0.0
C1739 C 0.7668 0.57055 0.2857 0.0
C1740 C 0.75639 0.56212 0.29594 0.0
H1741 H 0.79626 0.55122 0.04707 0.0
H1742 H 0.78415 0.55274 0.10846 0.0
C1743 C 0.74976 0.56356 0.33124 0.0
C1744 C 0.77384 0.56943 0.24699 0.0
H1745 H 0.77702 0.56708 0.11589 0.0
C1746 C 0.78349 0.57037 0.26457 0.0
C1747 C 0.77146 0.56824 0.19278 0.0
C1748 C 0.76136 0.56755 0.17172 0.0
C1749 C 0.7908 0.57005 0.22938 0.0
C1750 C 0.7885 0.56901 0.17504 0.0
C1751 C 0.7788 0.56797 0.15753 0.0
C1752 C 0.79585 0.56851 0.13594 0.0
C1753 C 0.80082 0.57062 0.25083 0.0
C1754 C 0.80639 0.577 0.12986 0.0
C1755 C 0.8134 0.57612 0.09491 0.0
C1756 C 0.80995 0.56672 0.06546 0.0
C1757 C 0.79925 0.55846 0.07005 0.0
C1758 C 0.79228 0.55934 0.10487 0.0
H1759 H 0.8001 0.56872 0.29339 0.0
H1760 H 0.80267 0.565 0.22975 0.0
H1761 H 0.80766 0.57884 0.24547 0.0
H1762 H 0.80923 0.58426 0.15265 0.0
H1763 H 0.82158 0.58261 0.09223 0.0
H1764 H 0.45229 0.18894 0.3286 0.0
H1765 H 0.45513 0.20293 0.26436 0.0
H1766 H 0.42104 0.18797 0.24129 0.0
H1767 H 0.41815 0.17419 0.3045 0.0
H1768 H 0.44585 0.20052 0.15046 0.0
H1769 H 0.43226 0.21967 0.29708 0.0
H1770 H 0.43735 0.21096 0.31546 0.0
H1771 H 0.42394 0.20541 0.29096 0.0
C1772 C 0.44545 0.1886 0.30917 0.0
C1773 C 0.43501 0.18058 0.32206 0.0
C1774 C 0.44707 0.19656 0.27264 0.0
C1775 C 0.43826 0.19651 0.24879 0.0
C1776 C 0.42792 0.1882 0.25977 0.0
H1777 H 0.42271 0.2371 0.06535 0.0
H1778 H 0.42239 0.22215 0.11302 0.0
C1779 C 0.4263 0.18035 0.29605 0.0
C1780 C 0.43956 0.20536 0.21468 0.0
H1781 H 0.4333 0.22521 0.20868 0.0
C1782 C 0.44326 0.20603 0.16319 0.0
C1783 C 0.43606 0.21243 0.23149 0.0
C1784 C 0.43225 0.21218 0.28689 0.0
C1785 C 0.44324 0.21345 0.12744 0.0
C1786 C 0.43953 0.22038 0.14405 0.0
C1787 C 0.43602 0.2198 0.19587 0.0
C1788 C 0.43952 0.22858 0.10916 0.0
C1789 C 0.44689 0.21359 0.07186 0.0
C1790 C 0.44921 0.23703 0.09058 0.0
C1791 C 0.44939 0.24551 0.06351 0.0
C1792 C 0.43989 0.24577 0.05474 0.0
C1793 C 0.43013 0.23707 0.07131 0.0
C1794 C 0.42995 0.22858 0.09868 0.0
H1795 H 0.44682 0.20607 0.06179 0.0
H1796 H 0.44174 0.21479 0.04352 0.0
H1797 H 0.4552 0.22032 0.06728 0.0
H1798 H 0.45669 0.23728 0.09887 0.0
H1799 H 0.45702 0.25202 0.05055 0.0
H1800 H 0.77037 0.18932 0.04874 0.0
H1801 H 0.7838 0.20515 0.09694 0.0
H1802 H 0.75855 0.20761 0.17438 0.0
H1803 H 0.74521 0.19179 0.12725 0.0
H1804 H 0.78826 0.22663 0.11004 0.0
H1805 H 0.77461 0.20351 0.29578 0.0
H1806 H 0.77056 0.19726 0.23227 0.0
H1807 H 0.76427 0.2042 0.25988 0.0
C1808 C 0.76773 0.19335 0.07554 0.0
C1809 C 0.75677 0.1892 0.08512 0.0
C1810 C 0.77538 0.20238 0.10301 0.0
C1811 C 0.77217 0.20742 0.1401 0.0
C1812 C 0.76122 0.2037 0.14695 0.0
H1813 H 0.81729 0.26466 0.32626 0.0
H1814 H 0.80257 0.25315 0.26602 0.0
C1815 C 0.75361 0.19465 0.12007 0.0
C1816 C 0.78016 0.21601 0.17459 0.0
H1817 H 0.78795 0.2216 0.30263 0.0
C1818 C 0.78817 0.22558 0.15219 0.0
C1819 C 0.78005 0.21459 0.22959 0.0
C1820 C 0.77198 0.20431 0.2559 0.0
C1821 C 0.79617 0.2337 0.18337 0.0
C1822 C 0.79607 0.23223 0.23825 0.0
C1823 C 0.78792 0.22276 0.2606 0.0
C1824 C 0.80507 0.23961 0.27259 0.0
C1825 C 0.80493 0.2436 0.15739 0.0
C1826 C 0.81124 0.23578 0.29641 0.0
C1827 C 0.81948 0.24222 0.3306 0.0
C1828 C 0.82182 0.2527 0.34213 0.0
C1829 C 0.81568 0.25662 0.31816 0.0
C1830 C 0.80733 0.25009 0.28356 0.0
H1831 H 0.80455 0.24298 0.11392 0.0
H1832 H 0.8042 0.25062 0.169 0.0
H1833 H 0.81289 0.24509 0.17061 0.0
H1834 H 0.80964 0.22773 0.2886 0.0
H1835 H 0.82403 0.2389 0.34812 0.0
H1836 H 0.4205 0.18602 0.57771 0.0
H1837 H 0.42112 0.20056 0.63099 0.0
H1838 H 0.45363 0.22156 0.58124 0.0
H1839 H 0.45302 0.20711 0.52841 0.0
H1840 H 0.43784 0.21091 0.71373 0.0
H1841 H 0.43839 0.23985 0.5678 0.0
H1842 H 0.43279 0.2258 0.55323 0.0
H1843 H 0.44702 0.23443 0.55545 0.0
C1844 C 0.42764 0.19383 0.57715 0.0
C1845 C 0.43671 0.19545 0.54924 0.0
C1846 C 0.42802 0.2021 0.6077 0.0
C1847 C 0.43741 0.21215 0.60984 0.0
C1848 C 0.44627 0.21392 0.57974 0.0
H1849 H 0.45321 0.26845 0.80975 0.0
H1850 H 0.45508 0.25671 0.74519 0.0
C1851 C 0.44593 0.20565 0.54982 0.0
C1852 C 0.43838 0.22041 0.64755 0.0
H1853 H 0.44098 0.24523 0.65673 0.0
C1854 C 0.43852 0.21841 0.70127 0.0
C1855 C 0.43951 0.23029 0.63112 0.0
C1856 C 0.43937 0.23277 0.57379 0.0
C1857 C 0.43959 0.22594 0.73911 0.0
C1858 C 0.44031 0.23565 0.72289 0.0
C1859 C 0.44048 0.23781 0.66907 0.0
C1860 C 0.43954 0.24297 0.76134 0.0
C1861 C 0.4399 0.22341 0.79629 0.0
C1862 C 0.43019 0.23918 0.79107 0.0
C1863 C 0.42912 0.24577 0.82739 0.0
C1864 C 0.43736 0.2564 0.83493 0.0
C1865 C 0.44676 0.26029 0.80502 0.0
C1866 C 0.44782 0.25361 0.76812 0.0
H1867 H 0.44268 0.21755 0.8015 0.0
H1868 H 0.44523 0.23074 0.81899 0.0
H1869 H 0.43171 0.21983 0.81292 0.0
H1870 H 0.42363 0.23107 0.7859 0.0
H1871 H 0.42174 0.24246 0.84956 0.0
H1872 H 0.76339 0.17735 0.85153 0.0
H1873 H 0.77554 0.1917 0.79447 0.0
H1874 H 0.75414 0.20442 0.79208 0.0
H1875 H 0.74158 0.1897 0.84978 0.0
H1876 H 0.763 0.20348 0.69039 0.0
H1877 H 0.79451 0.22284 0.84164 0.0
H1878 H 0.78977 0.2088 0.83527 0.0
H1879 H 0.78081 0.21323 0.85771 0.0
C1880 C 0.76119 0.18318 0.83935 0.0
C1881 C 0.75152 0.18242 0.85582 0.0
C1882 C 0.76821 0.19142 0.80663 0.0
C1883 C 0.76586 0.19923 0.78973 0.0
C1884 C 0.75613 0.19848 0.80508 0.0
H1885 H 0.81572 0.25753 0.64821 0.0
H1886 H 0.80147 0.24418 0.70268 0.0
C1887 C 0.749 0.19012 0.83811 0.0
C1888 C 0.77375 0.20808 0.75618 0.0
H1889 H 0.80008 0.22749 0.75257 0.0
C1890 C 0.77107 0.20884 0.70405 0.0
C1891 C 0.78427 0.2151 0.77414 0.0
C1892 C 0.7875 0.21504 0.8304 0.0
C1893 C 0.77875 0.21624 0.66897 0.0
C1894 C 0.78942 0.22287 0.6863 0.0
C1895 C 0.79197 0.2223 0.73891 0.0
C1896 C 0.798 0.23086 0.65162 0.0
C1897 C 0.77534 0.21694 0.61389 0.0
C1898 C 0.801 0.22783 0.60496 0.0
C1899 C 0.80917 0.23554 0.57314 0.0
C1900 C 0.81448 0.2464 0.58763 0.0
C1901 C 0.81165 0.24929 0.6352 0.0
C1902 C 0.80352 0.24164 0.66664 0.0
H1903 H 0.76653 0.21347 0.61102 0.0
H1904 H 0.77931 0.22537 0.60024 0.0
H1905 H 0.77766 0.21239 0.58707 0.0
H1906 H 0.79705 0.21951 0.59318 0.0
H1907 H 0.81114 0.23306 0.53679 0.0
H1908 H 0.81357 0.55099 0.83682 0.0
H1909 H 0.79929 0.54928 0.77757 0.0
H1910 H 0.81797 0.5829 0.74118 0.0
H1911 H 0.83201 0.58465 0.80023 0.0
H1912 H 0.79764 0.57659 0.78045 0.0
H1913 H 0.79592 0.55051 0.6156 0.0
H1914 H 0.7959 0.54579 0.68097 0.0
H1915 H 0.80755 0.55752 0.6572 0.0
C1916 C 0.81471 0.55792 0.81498 0.0
C1917 C 0.82385 0.56796 0.82333 0.0
C1918 C 0.80657 0.55694 0.78117 0.0
C1919 C 0.80757 0.56598 0.75493 0.0
C1920 C 0.817 0.57583 0.76106 0.0
H1921 H 0.77055 0.5782 0.5266 0.0
H1922 H 0.78366 0.5749 0.57173 0.0
C1923 C 0.82502 0.57682 0.79488 0.0
C1924 C 0.79849 0.56566 0.72589 0.0
H1925 H 0.78302 0.55608 0.61574 0.0
C1926 C 0.79441 0.57206 0.74456 0.0
C1927 C 0.79435 0.55981 0.6789 0.0
C1928 C 0.79867 0.55306 0.65652 0.0
C1929 C 0.78642 0.5729 0.71734 0.0
C1930 C 0.7822 0.567 0.67051 0.0
C1931 C 0.78622 0.56054 0.65181 0.0
C1932 C 0.77379 0.56774 0.64029 0.0
C1933 C 0.78279 0.58036 0.73822 0.0
C1934 C 0.76379 0.56452 0.66314 0.0
C1935 C 0.75635 0.56645 0.63765 0.0
C1936 C 0.75869 0.57155 0.58849 0.0
C1937 C 0.76849 0.57425 0.56435 0.0
C1938 C 0.77599 0.57237 0.5901 0.0
H1939 H 0.78856 0.58615 0.76701 0.0
H1940 H 0.78174 0.5849 0.70587 0.0
H1941 H 0.77498 0.57561 0.75832 0.0
H1942 H 0.76185 0.56075 0.70139 0.0
H1943 H 0.74878 0.56403 0.65676 0.0
H1944 H 0.53237 0.10884 0.79514 0.0
H1945 H 0.54953 0.11319 0.75472 0.0
H1946 H 0.53296 0.0964 0.61445 0.0
H1947 H 0.51593 0.09202 0.65426 0.0
H1948 H 0.55679 0.10015 0.71747 0.0
H1949 H 0.55568 0.12482 0.55494 0.0
H1950 H 0.54693 0.1213 0.6111 0.0
H1951 H 0.54361 0.11209 0.55722 0.0
C1952 C 0.53239 0.10605 0.75575 0.0
C1953 C 0.52275 0.10019 0.72776 0.0
C1954 C 0.54221 0.1086 0.73258 0.0
C1955 C 0.54257 0.10538 0.68096 0.0
C1956 C 0.53294 0.09931 0.6536 0.0
H1957 H 0.57925 0.08653 0.51151 0.0
H1958 H 0.5687 0.08991 0.57463 0.0
C1959 C 0.52318 0.09678 0.67656 0.0
C1960 C 0.55288 0.10783 0.65591 0.0
H1961 H 0.5668 0.11683 0.54114 0.0
C1962 C 0.5591 0.104 0.67942 0.0
C1963 C 0.5561 0.1131 0.60682 0.0
C1964 C 0.55029 0.11817 0.58136 0.0
C1965 C 0.56792 0.10451 0.65324 0.0
C1966 C 0.57047 0.10879 0.60185 0.0
C1967 C 0.56479 0.11342 0.58022 0.0
C1968 C 0.57784 0.10714 0.56733 0.0
C1969 C 0.57422 0.10014 0.6803 0.0
C1970 C 0.5865 0.11571 0.5414 0.0
C1971 C 0.59262 0.11378 0.50466 0.0
C1972 C 0.59 0.10324 0.49276 0.0
C1973 C 0.58148 0.09475 0.51968 0.0
C1974 C 0.57548 0.09668 0.55631 0.0
H1975 H 0.57406 0.10097 0.72356 0.0
H1976 H 0.57055 0.09148 0.67133 0.0
H1977 H 0.58268 0.10426 0.66698 0.0
H1978 H 0.58839 0.12386 0.54884 0.0
H1979 H 0.59908 0.12046 0.48421 0.0
H1980 H 0.91653 0.43623 0.77422 0.0
H1981 H 0.917 0.44999 0.71548 0.0
H1982 H 0.89049 0.42559 0.6277 0.0
H1983 H 0.89014 0.41189 0.68482 0.0
H1984 H 0.91802 0.45047 0.59522 0.0
H1985 H 0.88114 0.4478 0.67892 0.0
H1986 H 0.88919 0.44357 0.71477 0.0
H1987 H 0.88061 0.4354 0.66282 0.0
C1988 C 0.91092 0.4338 0.74195 0.0
C1989 C 0.9032 0.42297 0.73477 0.0
C1990 C 0.91114 0.44166 0.70869 0.0
C1991 C 0.90362 0.43879 0.66803 0.0
C1992 C 0.89621 0.42798 0.65955 0.0
H1993 H 0.88941 0.47545 0.43813 0.0
H1994 H 0.88807 0.46111 0.49608 0.0
C1995 C 0.89602 0.42016 0.69239 0.0
C1996 C 0.90343 0.44703 0.63409 0.0
H1997 H 0.88859 0.45881 0.6044 0.0
C1998 C 0.91163 0.45235 0.59734 0.0
C1999 C 0.89495 0.44928 0.63636 0.0
C2000 C 0.88598 0.44379 0.67549 0.0
C2001 C 0.91158 0.45986 0.56254 0.0
C2002 C 0.90326 0.46236 0.56567 0.0
C2003 C 0.89496 0.45692 0.60204 0.0
C2004 C 0.90342 0.47103 0.53347 0.0
C2005 C 0.92037 0.46491 0.52207 0.0
C2006 C 0.91223 0.4814 0.53691 0.0
C2007 C 0.91303 0.48944 0.50386 0.0
C2008 C 0.90494 0.48739 0.46734 0.0
C2009 C 0.89575 0.47721 0.466 0.0
C2010 C 0.89501 0.46904 0.49887 0.0
H2011 H 0.92389 0.45977 0.51357 0.0
H2012 H 0.91737 0.46643 0.4848 0.0
H2013 H 0.92686 0.47265 0.53732 0.0
H2014 H 0.91863 0.48323 0.56448 0.0
H2015 H 0.92013 0.49728 0.50634 0.0
H2016 H 0.51349 0.43286 0.46974 0.0
H2017 H 0.5285 0.44398 0.52668 0.0
H2018 H 0.53841 0.42034 0.52374 0.0
H2019 H 0.52313 0.40893 0.46631 0.0
H2020 H 0.53878 0.42927 0.6269 0.0
H2021 H 0.55983 0.46076 0.47726 0.0
H2022 H 0.5461 0.45723 0.4854 0.0
H2023 H 0.54927 0.44746 0.46076 0.0
C2024 C 0.51884 0.42997 0.4809 0.0
C2025 C 0.51715 0.42001 0.46302 0.0
C2026 C 0.52745 0.43638 0.51348 0.0
C2027 C 0.53467 0.43308 0.52884 0.0
C2028 C 0.53295 0.42306 0.51204 0.0
H2029 H 0.59439 0.48224 0.66717 0.0
H2030 H 0.58137 0.46691 0.61605 0.0
C2031 C 0.52426 0.41658 0.47915 0.0
C2032 C 0.54398 0.4403 0.5621 0.0
H2033 H 0.5651 0.46581 0.56634 0.0
C2034 C 0.54465 0.43721 0.61355 0.0
C2035 C 0.5517 0.45061 0.54447 0.0
C2036 C 0.55178 0.45419 0.48878 0.0
C2037 C 0.55259 0.44434 0.64851 0.0
C2038 C 0.5599 0.45489 0.63178 0.0
C2039 C 0.55946 0.45778 0.57959 0.0
C2040 C 0.568 0.46321 0.66732 0.0
C2041 C 0.55305 0.44048 0.70287 0.0
C2042 C 0.56493 0.46617 0.71396 0.0
C2043 C 0.57244 0.47491 0.74364 0.0
C2044 C 0.58309 0.48097 0.72659 0.0
C2045 C 0.58621 0.47779 0.68089 0.0
C2046 C 0.57877 0.46901 0.65173 0.0
H2047 H 0.54946 0.43165 0.70386 0.0
H2048 H 0.56141 0.44423 0.71738 0.0
H2049 H 0.54841 0.44262 0.73009 0.0
H2050 H 0.55664 0.46203 0.72627 0.0
H2051 H 0.56981 0.47725 0.77838 0.0
H2052 H 0.57831 0.80929 0.63078 0.0
H2053 H 0.57849 0.79425 0.58598 0.0
H2054 H 0.56569 0.80063 0.44661 0.0
H2055 H 0.56567 0.81563 0.49045 0.0
H2056 H 0.55995 0.77546 0.53473 0.0
H2057 H 0.59318 0.80043 0.39816 0.0
H2058 H 0.59084 0.80568 0.4579 0.0
H2059 H 0.58276 0.80379 0.4009 0.0
C2060 C 0.57569 0.80755 0.5904 0.0
C2061 C 0.57198 0.81364 0.56408 0.0
C2062 C 0.57569 0.79891 0.56507 0.0
C2063 C 0.57212 0.79636 0.51298 0.0
C2064 C 0.56852 0.80249 0.4867 0.0
H2065 H 0.5547 0.74166 0.30867 0.0
H2066 H 0.55385 0.75408 0.37223 0.0
C2067 C 0.56847 0.81104 0.51189 0.0
C2068 C 0.57218 0.78738 0.48519 0.0
H2069 H 0.58295 0.78191 0.37878 0.0
C2070 C 0.56504 0.77683 0.50093 0.0
C2071 C 0.57884 0.78922 0.44122 0.0
C2072 C 0.58691 0.80039 0.42367 0.0
C2073 C 0.56425 0.76804 0.47298 0.0
C2074 C 0.57069 0.76991 0.42803 0.0
C2075 C 0.57795 0.78048 0.41305 0.0
C2076 C 0.57042 0.76114 0.39635 0.0
C2077 C 0.55662 0.75687 0.49192 0.0
C2078 C 0.57991 0.76086 0.38951 0.0
C2079 C 0.58042 0.75394 0.35311 0.0
C2080 C 0.57143 0.74707 0.32288 0.0
C2081 C 0.5617 0.74681 0.33187 0.0
C2082 C 0.56122 0.75389 0.3682 0.0
H2083 H 0.55413 0.75682 0.53319 0.0
H2084 H 0.54935 0.7533 0.46698 0.0
H2085 H 0.56031 0.75173 0.48892 0.0
H2086 H 0.58708 0.76635 0.41083 0.0
H2087 H 0.588 0.75424 0.34725 0.0
H2088 H 0.2081 0.7567 0.61233 0.0
H2089 H 0.22159 0.77094 0.55776 0.0
H2090 H 0.1978 0.77821 0.50072 0.0
H2091 H 0.18419 0.76386 0.55555 0.0
H2092 H 0.22114 0.77181 0.4497 0.0
H2093 H 0.22286 0.80772 0.53832 0.0
H2094 H 0.21678 0.79494 0.57124 0.0
H2095 H 0.2096 0.79744 0.52082 0.0
C2096 C 0.20573 0.76135 0.58837 0.0
C2097 C 0.19505 0.75909 0.58786 0.0
C2098 C 0.21347 0.76952 0.55734 0.0
C2099 C 0.21073 0.77567 0.52531 0.0
C2100 C 0.20014 0.77367 0.52581 0.0
H2101 H 0.23878 0.82184 0.28251 0.0
H2102 H 0.22785 0.80846 0.34721 0.0
C2103 C 0.19237 0.76549 0.55711 0.0
C2104 C 0.21884 0.7837 0.48917 0.0
H2105 H 0.23148 0.81011 0.45569 0.0
C2106 C 0.22349 0.78021 0.45128 0.0
C2107 C 0.22193 0.79465 0.49156 0.0
C2108 C 0.21762 0.79896 0.53297 0.0
C2109 C 0.23084 0.78731 0.41435 0.0
C2110 C 0.23372 0.79821 0.41588 0.0
C2111 C 0.22927 0.80174 0.45462 0.0
C2112 C 0.24056 0.80593 0.37502 0.0
C2113 C 0.23514 0.78304 0.3727 0.0
C2114 C 0.25138 0.80888 0.36851 0.0
C2115 C 0.25773 0.81658 0.33096 0.0
C2116 C 0.25334 0.82148 0.29991 0.0
C2117 C 0.24246 0.8183 0.30602 0.0
C2118 C 0.23617 0.81065 0.34309 0.0
H2119 H 0.23069 0.77416 0.37133 0.0
H2120 H 0.23471 0.78614 0.33347 0.0
H2121 H 0.24367 0.78575 0.3811 0.0
H2122 H 0.25495 0.80541 0.39321 0.0
H2123 H 0.2661 0.81892 0.32731 0.0
H2124 H 0.25175 0.45228 0.57063 0.0
H2125 H 0.23742 0.45231 0.51988 0.0
H2126 H 0.22065 0.41782 0.5152 0.0
H2127 H 0.23501 0.41779 0.56686 0.0
H2128 H 0.23182 0.44499 0.42142 0.0
H2129 H 0.1967 0.42352 0.55189 0.0
H2130 H 0.21024 0.42867 0.57476 0.0
H2131 H 0.20346 0.41614 0.5401 0.0
C2132 C 0.24496 0.4447 0.55922 0.0
C2133 C 0.24452 0.43502 0.57232 0.0
C2134 C 0.23676 0.44472 0.53033 0.0
C2135 C 0.22792 0.43508 0.51391 0.0
C2136 C 0.22728 0.42537 0.52832 0.0
H2137 H 0.17744 0.41342 0.29378 0.0
H2138 H 0.19123 0.41663 0.35756 0.0
C2139 C 0.23548 0.42534 0.55771 0.0
C2140 C 0.21984 0.43527 0.47839 0.0
H2141 H 0.19303 0.42538 0.462 0.0
C2142 C 0.22335 0.44083 0.43063 0.0
C2143 C 0.2088 0.42989 0.49052 0.0
C2144 C 0.20458 0.42431 0.54234 0.0
C2145 C 0.21609 0.44077 0.39376 0.0
C2146 C 0.20503 0.43506 0.40512 0.0
C2147 C 0.20153 0.42976 0.45346 0.0
C2148 C 0.19689 0.43354 0.36536 0.0
C2149 C 0.22022 0.44639 0.34195 0.0
C2150 C 0.19553 0.44204 0.34811 0.0
C2151 C 0.18757 0.44023 0.31121 0.0
C2152 C 0.18088 0.42989 0.29126 0.0
C2153 C 0.18242 0.42149 0.30829 0.0
C2154 C 0.19029 0.42329 0.34496 0.0
H2155 H 0.22888 0.44928 0.33657 0.0
H2156 H 0.21572 0.44094 0.30902 0.0
H2157 H 0.21897 0.45337 0.33985 0.0
H2158 H 0.20051 0.45001 0.36376 0.0
H2159 H 0.18653 0.44684 0.29903 0.0
H2160 H 0.46628 0.88486 0.38031 0.0
H2161 H 0.45192 0.88472 0.43158 0.0
H2162 H 0.47104 0.9189 0.45174 0.0
H2163 H 0.48543 0.91905 0.39948 0.0
H2164 H 0.45346 0.89028 0.53325 0.0
H2165 H 0.44214 0.91542 0.41614 0.0
H2166 H 0.45014 0.91012 0.38961 0.0
H2167 H 0.4562 0.92192 0.43005 0.0
C2168 C 0.46736 0.89236 0.39508 0.0
C2169 C 0.47699 0.90197 0.38626 0.0
C2170 C 0.45914 0.89228 0.42431 0.0
C2171 C 0.46035 0.90179 0.44541 0.0
C2172 C 0.46982 0.91148 0.43503 0.0
H2173 H 0.43048 0.92033 0.67746 0.0
H2174 H 0.44153 0.91828 0.61179 0.0
C2175 C 0.47804 0.91157 0.40526 0.0
C2176 C 0.45209 0.90138 0.48175 0.0
H2177 H 0.43583 0.91182 0.50473 0.0
C2178 C 0.4495 0.89489 0.52666 0.0
C2179 C 0.4469 0.90735 0.47308 0.0
C2180 C 0.44889 0.91401 0.42435 0.0
C2181 C 0.44218 0.89453 0.56405 0.0
C2182 C 0.43723 0.90075 0.55609 0.0
C2183 C 0.43963 0.90704 0.51066 0.0
C2184 C 0.43031 0.9016 0.59659 0.0
C2185 C 0.44011 0.88787 0.61284 0.0
C2186 C 0.4203 0.89284 0.61022 0.0
C2187 C 0.41389 0.89398 0.64819 0.0
C2188 C 0.41741 0.9039 0.67288 0.0
C2189 C 0.42749 0.91257 0.65929 0.0
C2190 C 0.43383 0.91144 0.62156 0.0
H2191 H 0.44581 0.88486 0.6169 0.0
H2192 H 0.44069 0.89259 0.64832 0.0
H2193 H 0.43188 0.88088 0.61126 0.0
H2194 H 0.4174 0.88519 0.59099 0.0
H2195 H 0.40614 0.88718 0.65761 0.0
H2196 H 0.08412 0.50794 0.65147 0.0
H2197 H 0.08653 0.52135 0.58752 0.0
H2198 H 0.12044 0.53283 0.58324 0.0
H2199 H 0.11808 0.51927 0.64902 0.0
H2200 H 0.11576 0.54911 0.59369 0.0
H2201 H 0.09183 0.52276 0.43147 0.0
H2202 H 0.08434 0.5187 0.49137 0.0
H2203 H 0.09644 0.51804 0.48551 0.0
C2204 C 0.09212 0.51322 0.6368 0.0
C2205 C 0.10093 0.51252 0.6554 0.0
C2206 C 0.09345 0.52085 0.59967 0.0
C2207 C 0.10361 0.52795 0.57958 0.0
C2208 C 0.11249 0.52732 0.59776 0.0
H2209 H 0.10153 0.57144 0.34251 0.0
H2210 H 0.10525 0.55824 0.38314 0.0
C2211 C 0.11115 0.51959 0.63523 0.0
C2212 C 0.10478 0.53646 0.54279 0.0
H2213 H 0.09293 0.54015 0.43509 0.0
C2214 C 0.11097 0.54718 0.55833 0.0
C2215 C 0.0987 0.534 0.49603 0.0
C2216 C 0.09255 0.52275 0.47486 0.0
C2217 C 0.11057 0.55539 0.53066 0.0
C2218 C 0.1036 0.55278 0.48708 0.0
C2219 C 0.09809 0.54217 0.46914 0.0
C2220 C 0.10137 0.56076 0.46194 0.0
C2221 C 0.1175 0.56677 0.54907 0.0
C2222 C 0.09762 0.56632 0.49232 0.0
C2223 C 0.0955 0.57384 0.46925 0.0
C2224 C 0.09691 0.57586 0.41508 0.0
C2225 C 0.10029 0.57001 0.38427 0.0
C2226 C 0.1025 0.56253 0.40752 0.0
H2227 H 0.12483 0.56786 0.56893 0.0
H2228 H 0.11991 0.57252 0.51597 0.0
H2229 H 0.11297 0.56872 0.57793 0.0
H2230 H 0.09629 0.56483 0.53402 0.0
H2231 H 0.09272 0.57807 0.49383 0.0
H2232 H 0.49958 0.57952 0.64192 0.0
H2233 H 0.48508 0.56767 0.5839 0.0
H2234 H 0.4652 0.57941 0.64784 0.0
H2235 H 0.48002 0.59168 0.70547 0.0
H2236 H 0.46619 0.55155 0.61323 0.0
H2237 H 0.46002 0.58004 0.49243 0.0
H2238 H 0.47165 0.5843 0.53346 0.0
H2239 H 0.4591 0.58144 0.5619 0.0
C2240 C 0.49217 0.5797 0.6432 0.0
C2241 C 0.4909 0.5865 0.67821 0.0
C2242 C 0.48387 0.5729 0.61002 0.0
C2243 C 0.47404 0.57263 0.61125 0.0
C2244 C 0.47278 0.5796 0.64544 0.0
H2245 H 0.41415 0.52991 0.4552 0.0
H2246 H 0.42808 0.54257 0.51374 0.0
C2247 C 0.48122 0.58659 0.6784 0.0
C2248 C 0.46507 0.56458 0.57861 0.0
H2249 H 0.44778 0.56158 0.47984 0.0
C2250 C 0.46218 0.55376 0.584 0.0
C2251 C 0.45983 0.56745 0.54047 0.0
C2252 C 0.46285 0.57894 0.53122 0.0
C2253 C 0.45427 0.54578 0.5523 0.0
C2254 C 0.4491 0.54866 0.51403 0.0
C2255 C 0.45182 0.55942 0.50912 0.0
C2256 C 0.44067 0.54059 0.4794 0.0
C2257 C 0.45139 0.53429 0.56029 0.0
C2258 C 0.44311 0.53516 0.4409 0.0
C2259 C 0.43513 0.52793 0.4068 0.0
C2260 C 0.42461 0.52606 0.41059 0.0
C2261 C 0.4222 0.53131 0.45032 0.0
C2262 C 0.43014 0.53853 0.48406 0.0
H2263 H 0.45464 0.53314 0.59769 0.0
H2264 H 0.44257 0.52896 0.56013 0.0
H2265 H 0.45473 0.5318 0.52757 0.0
H2266 H 0.45122 0.53671 0.43645 0.0
H2267 H 0.43728 0.5241 0.37645 0.0
H2268 H 0.11859 0.53837 0.87521 0.0
H2269 H 0.11814 0.55113 0.93655 0.0
H2270 H 0.08651 0.52721 0.98611 0.0
H2271 H 0.08702 0.51428 0.92497 0.0
H2272 H 0.10372 0.5589 0.94821 0.0
H2273 H 0.10443 0.53628 0.12302 0.0
H2274 H 0.10752 0.53371 0.05789 0.0
H2275 H 0.09386 0.52872 0.07702 0.0
C2276 C 0.11152 0.53583 0.89907 0.0
C2277 C 0.10289 0.52528 0.89593 0.0
C2278 C 0.11126 0.54315 0.9339 0.0
C2279 C 0.10239 0.54006 0.96657 0.0
C2280 C 0.09351 0.52969 0.96182 0.0
H2281 H 0.08464 0.5689 0.20796 0.0
H2282 H 0.08713 0.55738 0.14698 0.0
C2283 C 0.09375 0.52235 0.9266 0.0
C2284 C 0.10265 0.54764 0.00657 0.0
H2285 H 0.10253 0.5514 0.13872 0.0
C2286 C 0.1035 0.5573 0.98989 0.0
C2287 C 0.10251 0.54557 0.06086 0.0
C2288 C 0.10213 0.53556 0.08101 0.0
C2289 C 0.10381 0.56479 0.02612 0.0
C2290 C 0.1035 0.56264 0.08045 0.0
C2291 C 0.10285 0.55306 0.09706 0.0
C2292 C 0.10272 0.56968 0.12046 0.0
C2293 C 0.10407 0.57474 0.00594 0.0
C2294 C 0.11084 0.58039 0.12718 0.0
C2295 C 0.10944 0.58707 0.16241 0.0
C2296 C 0.0999 0.58309 0.19113 0.0
C2297 C 0.09206 0.57224 0.18602 0.0
C2298 C 0.09346 0.56562 0.15121 0.0
H2299 H 0.10221 0.57419 0.96338 0.0
H2300 H 0.09827 0.57624 0.02758 0.0
H2301 H 0.11218 0.58172 0.01211 0.0
H2302 H 0.11815 0.58362 0.10446 0.0
H2303 H 0.1156 0.59539 0.16561 0.0
H2304 H 0.40451 0.52201 0.14789 0.0
H2305 H 0.41542 0.53515 0.07998 0.0
H2306 H 0.4372 0.52288 0.08028 0.0
H2307 H 0.42647 0.50987 0.1465 0.0
H2308 H 0.43646 0.55104 0.08785 0.0
H2309 H 0.43273 0.52432 0.92487 0.0
H2310 H 0.42365 0.51979 0.98 0.0
H2311 H 0.43632 0.5202 0.98409 0.0
C2312 C 0.41154 0.52205 0.13274 0.0
C2313 C 0.41462 0.5149 0.15259 0.0
C2314 C 0.41776 0.52954 0.09403 0.0
C2315 C 0.42702 0.52986 0.07417 0.0
C2316 C 0.42996 0.52262 0.09372 0.0
H2317 H 0.48822 0.57801 0.98766 0.0
H2318 H 0.47117 0.56502 0.02634 0.0
C2319 C 0.42384 0.51523 0.13218 0.0
C2320 C 0.43428 0.53824 0.03663 0.0
H2321 H 0.4493 0.54156 0.92712 0.0
C2322 C 0.43908 0.54899 0.05202 0.0
C2323 C 0.4376 0.53564 0.98927 0.0
C2324 C 0.4322 0.52436 0.96834 0.0
C2325 C 0.44769 0.55707 0.02373 0.0
C2326 C 0.45174 0.5543 0.97952 0.0
C2327 C 0.44635 0.54369 0.96159 0.0
C2328 C 0.46208 0.56206 0.95466 0.0
C2329 C 0.45254 0.56848 0.0424 0.0
C2330 C 0.46279 0.56437 0.90074 0.0
C2331 C 0.47263 0.5718 0.87827 0.0
C2332 C 0.48191 0.57701 0.90939 0.0
C2333 C 0.48119 0.57435 0.96286 0.0
C2334 C 0.47142 0.56695 0.98512 0.0
H2335 H 0.44654 0.56978 0.06343 0.0
H2336 H 0.45913 0.57024 0.07026 0.0
H2337 H 0.45584 0.57421 0.00923 0.0
H2338 H 0.45571 0.56059 0.8763 0.0
H2339 H 0.47291 0.57369 0.83702 0.0
H2340 H 0.49286 0.9183 0.14619 0.0
H2341 H 0.47799 0.91428 0.08798 0.0
H2342 H 0.46652 0.88054 0.10409 0.0
H2343 H 0.48163 0.88453 0.16327 0.0
H2344 H 0.46664 0.88976 0.99308 0.0
H2345 H 0.44647 0.89982 0.14987 0.0
H2346 H 0.46043 0.9094 0.14164 0.0
H2347 H 0.45646 0.8961 0.16361 0.0
C2348 C 0.48724 0.90999 0.13739 0.0
C2349 C 0.48837 0.90171 0.15994 0.0
C2350 C 0.47875 0.90773 0.1039 0.0
C2351 C 0.47111 0.89714 0.09217 0.0
C2352 C 0.47235 0.88879 0.11284 0.0
H2353 H 0.41129 0.88834 0.96458 0.0
H2354 H 0.42414 0.88499 0.01098 0.0
C2355 C 0.48095 0.89106 0.14661 0.0
C2356 C 0.46163 0.89506 0.06063 0.0
H2357 H 0.44061 0.8996 0.06244 0.0
C2358 C 0.46081 0.89171 0.00832 0.0
C2359 C 0.45401 0.89755 0.08073 0.0
C2360 C 0.45429 0.90084 0.13718 0.0
C2361 C 0.45279 0.89122 0.97492 0.0
C2362 C 0.44557 0.89436 0.99424 0.0
C2363 C 0.44615 0.89726 0.04728 0.0
C2364 C 0.4375 0.89507 0.96053 0.0
C2365 C 0.45218 0.88739 0.91934 0.0
C2366 C 0.44062 0.90166 0.91579 0.0
C2367 C 0.43321 0.9035 0.8888 0.0
C2368 C 0.42262 0.89895 0.90679 0.0
C2369 C 0.41944 0.89205 0.95027 0.0
C2370 C 0.42677 0.8901 0.9767 0.0
H2371 H 0.45568 0.88209 0.9159 0.0
H2372 H 0.44379 0.88299 0.9051 0.0
H2373 H 0.45683 0.89439 0.89341 0.0
H2374 H 0.44889 0.90581 0.90317 0.0
H2375 H 0.43589 0.90893 0.85575 0.0
H2376 H 0.18015 0.41873 0.98876 0.0
H2377 H 0.19683 0.42363 0.94343 0.0
H2378 H 0.21469 0.44521 0.06915 0.0
H2379 H 0.19787 0.44033 0.11507 0.0
H2380 H 0.21215 0.44432 0.90943 0.0
H2381 H 0.22963 0.42736 0.04831 0.0
H2382 H 0.21564 0.42351 0.05008 0.0
H2383 H 0.22555 0.43635 0.0745 0.0
C2384 C 0.1876 0.42455 0.00687 0.0
C2385 C 0.18765 0.4292 0.05541 0.0
C2386 C 0.19715 0.42731 0.98093 0.0
C2387 C 0.20702 0.43477 0.00284 0.0
C2388 C 0.20717 0.43933 0.05178 0.0
H2389 H 0.26691 0.44887 0.83526 0.0
H2390 H 0.2556 0.45202 0.89724 0.0
C2391 C 0.19756 0.43653 0.078 0.0
C2392 C 0.21698 0.43781 0.9729 0.0
H2393 H 0.23861 0.43415 0.96844 0.0
C2394 C 0.21805 0.44229 0.92279 0.0
C2395 C 0.22472 0.43523 0.99045 0.0
C2396 C 0.22387 0.43029 0.04362 0.0
C2397 C 0.22629 0.44368 0.88872 0.0
C2398 C 0.23361 0.44046 0.90496 0.0
C2399 C 0.23299 0.43665 0.95626 0.0
C2400 C 0.24066 0.43926 0.86659 0.0
C2401 C 0.22682 0.44812 0.83457 0.0
C2402 C 0.23599 0.4311 0.82905 0.0
C2403 C 0.24235 0.42926 0.79441 0.0
C2404 C 0.25356 0.43557 0.79618 0.0
C2405 C 0.25829 0.44395 0.83282 0.0
C2406 C 0.25186 0.44572 0.86829 0.0
H2407 H 0.2226 0.45277 0.83276 0.0
H2408 H 0.23526 0.45333 0.82208 0.0
H2409 H 0.22293 0.4414 0.80626 0.0
H2410 H 0.22737 0.42599 0.82734 0.0
H2411 H 0.23847 0.42275 0.76653 0.0
H2412 H 0.58221 0.77068 0.10341 0.0
H2413 H 0.58257 0.78436 0.04449 0.0
H2414 H 0.55493 0.75997 0.96278 0.0
H2415 H 0.55475 0.74638 0.01997 0.0
H2416 H 0.56997 0.77379 0.89559 0.0
H2417 H 0.56194 0.79606 0.04957 0.0
H2418 H 0.57347 0.79471 0.06188 0.0
H2419 H 0.56038 0.78301 0.06086 0.0
C2420 C 0.57631 0.76826 0.07245 0.0
C2421 C 0.56837 0.75747 0.06679 0.0
C2422 C 0.57643 0.77608 0.03928 0.0
C2423 C 0.56861 0.77322 0.99998 0.0
C2424 C 0.56096 0.76241 0.99316 0.0
H2425 H 0.55526 0.81712 0.81486 0.0
H2426 H 0.55293 0.80249 0.87351 0.0
C2427 C 0.56084 0.75464 0.0261 0.0
C2428 C 0.56837 0.78136 0.96508 0.0
H2429 H 0.56601 0.80379 0.96425 0.0
C2430 C 0.56906 0.78032 0.91067 0.0
C2431 C 0.56695 0.78976 0.9846 0.0
C2432 C 0.56554 0.79093 0.04238 0.0
C2433 C 0.56868 0.78759 0.87544 0.0
C2434 C 0.56774 0.79625 0.89505 0.0
C2435 C 0.56674 0.79715 0.94931 0.0
C2436 C 0.56883 0.80496 0.86003 0.0
C2437 C 0.56931 0.78595 0.81737 0.0
C2438 C 0.57851 0.81121 0.83369 0.0
C2439 C 0.57983 0.81944 0.80063 0.0
C2440 C 0.57151 0.82174 0.79311 0.0
C2441 C 0.56177 0.81551 0.81963 0.0
C2442 C 0.56046 0.8072 0.85319 0.0
H2443 H 0.56681 0.77749 0.80818 0.0
H2444 H 0.56422 0.78827 0.79473 0.0
H2445 H 0.57771 0.791 0.80409 0.0
H2446 H 0.58512 0.80975 0.839 0.0
H2447 H 0.58746 0.82406 0.78103 0.0
H2448 H 0.16946 0.75497 0.83678 0.0
H2449 H 0.18255 0.76744 0.89917 0.0
H2450 H 0.20186 0.75265 0.87692 0.0
H2451 H 0.18856 0.73991 0.81431 0.0
H2452 H 0.20064 0.7594 0.98605 0.0
H2453 H 0.21137 0.79123 0.837 0.0
H2454 H 0.19736 0.78371 0.85254 0.0
H2455 H 0.20371 0.77718 0.82119 0.0
C2456 C 0.17641 0.75424 0.8457 0.0
C2457 C 0.17808 0.74656 0.82022 0.0
C2458 C 0.18388 0.76138 0.88137 0.0
C2459 C 0.19326 0.76109 0.89187 0.0
C2460 C 0.19467 0.75301 0.8691 0.0
H2461 H 0.2528 0.81386 0.99662 0.0
H2462 H 0.238 0.79897 0.95139 0.0
C2463 C 0.18709 0.74574 0.83348 0.0
C2464 C 0.20189 0.76984 0.92288 0.0
H2465 H 0.21896 0.79683 0.92132 0.0
C2466 C 0.20469 0.76759 0.972 0.0
C2467 C 0.20719 0.7805 0.90416 0.0
C2468 C 0.20485 0.78333 0.85065 0.0
C2469 C 0.21261 0.77577 0.00318 0.0
C2470 C 0.21772 0.78646 0.98488 0.0
C2471 C 0.21494 0.78866 0.93559 0.0
C2472 C 0.22659 0.79543 0.01398 0.0
C2473 C 0.21562 0.77289 0.05478 0.0
C2474 C 0.22507 0.79854 0.06405 0.0
C2475 C 0.23361 0.8071 0.09035 0.0
C2476 C 0.24378 0.81264 0.06687 0.0
C2477 C 0.24513 0.80964 0.01623 0.0
C2478 C 0.23666 0.80115 0.99018 0.0
H2479 H 0.2126 0.76416 0.05797 0.0
H2480 H 0.22444 0.77724 0.05994 0.0
H2481 H 0.21211 0.77523 0.08731 0.0
H2482 H 0.21729 0.79438 0.08271 0.0
H2483 H 0.23232 0.8092 0.12934 0.0
H2484 H 0.21551 0.25177 0.42626 0.0
H2485 H 0.22343 0.24307 0.37517 0.0
H2486 H 0.19594 0.21226 0.4077 0.0
H2487 H 0.18794 0.22088 0.45845 0.0
H2488 H 0.22725 0.22565 0.4166 0.0
H2489 H 0.20037 0.21389 0.24266 0.0
H2490 H 0.20233 0.22464 0.28597 0.0
H2491 H 0.19422 0.211 0.30651 0.0
C2492 C 0.2111 0.24316 0.42207 0.0
C2493 C 0.20109 0.23703 0.44649 0.0
C2494 C 0.21566 0.2382 0.39312 0.0
C2495 C 0.21024 0.22703 0.3874 0.0
C2496 C 0.20022 0.22089 0.41132 0.0
H2497 H 0.22658 0.18546 0.20628 0.0
H2498 H 0.2173 0.19221 0.26145 0.0
C2499 C 0.1957 0.22583 0.44066 0.0
C2500 C 0.2152 0.22179 0.35763 0.0
H2501 H 0.21329 0.20845 0.24383 0.0
C2502 C 0.22421 0.22188 0.37883 0.0
C2503 C 0.21112 0.21677 0.30875 0.0
C2504 C 0.20151 0.21657 0.28419 0.0
C2505 C 0.22928 0.21709 0.35238 0.0
C2506 C 0.22541 0.21234 0.3026 0.0
C2507 C 0.21626 0.21209 0.28188 0.0
C2508 C 0.23105 0.20807 0.27037 0.0
C2509 C 0.23862 0.21702 0.37851 0.0
C2510 C 0.2418 0.21474 0.25649 0.0
C2511 C 0.24711 0.21089 0.22532 0.0
C2512 C 0.24176 0.2003 0.20657 0.0
C2513 C 0.23093 0.19364 0.22 0.0
C2514 C 0.22563 0.19749 0.25159 0.0
H2515 H 0.23831 0.21764 0.42183 0.0
H2516 H 0.23885 0.20963 0.3689 0.0
H2517 H 0.24618 0.22401 0.3647 0.0
H2518 H 0.24607 0.22301 0.26898 0.0
H2519 H 0.25534 0.21635 0.21469 0.0
H2520 H 0.81552 0.03256 0.1652 0.0
H2521 H 0.80753 0.01542 0.21139 0.0
H2522 H 0.7868 0.02369 0.29574 0.0
H2523 H 0.79428 0.04048 0.2486 0.0
H2524 H 0.80654 0.01069 0.31565 0.0
H2525 H 0.76556 0.99466 0.23801 0.0
H2526 H 0.77694 0.00631 0.21053 0.0
H2527 H 0.77042 0.00747 0.26833 0.0
C2528 C 0.80919 0.03072 0.19311 0.0
C2529 C 0.80557 0.03801 0.20266 0.0
C2530 C 0.80466 0.02092 0.21975 0.0
C2531 C 0.79641 0.01817 0.25628 0.0
C2532 C 0.79297 0.0255 0.26682 0.0
H2533 H 0.77511 0.97274 0.51083 0.0
H2534 H 0.78392 0.98834 0.45338 0.0
C2535 C 0.79742 0.03524 0.24015 0.0
C2536 C 0.79145 0.00775 0.28438 0.0
H2537 H 0.76729 0.98598 0.31454 0.0
C2538 C 0.79797 0.00522 0.31498 0.0
C2539 C 0.78029 1.0005 0.28275 0.0
C2540 C 0.77291 0.00231 0.24768 0.0
C2541 C 0.79359 0.99588 0.34565 0.0
C2542 C 0.78235 0.98901 0.34675 0.0
C2543 C 0.77588 0.99132 0.31444 0.0
C2544 C 0.77709 0.97948 0.38167 0.0
C2545 C 0.80108 0.99346 0.37623 0.0
C2546 C 0.77 0.96933 0.36091 0.0
C2547 C 0.76483 0.96041 0.39387 0.0
C2548 C 0.76666 0.96146 0.44829 0.0
C2549 C 0.77368 0.97164 0.46902 0.0
C2550 C 0.77877 0.98056 0.43613 0.0
H2551 H 0.80918 0.99736 0.35833 0.0
H2552 H 0.80191 0.99661 0.4167 0.0
H2553 H 0.79799 0.98472 0.37852 0.0
H2554 H 0.76852 0.96829 0.31908 0.0
H2555 H 0.75954 0.95267 0.37662 0.0
H2556 H 0.97085 0.77938 0.16498 0.0
H2557 H 0.98653 0.78824 0.22201 0.0
H2558 H 0.9703 0.7639 0.33938 0.0
H2559 H 0.95449 0.75506 0.28306 0.0
H2560 H 0.98921 0.79594 0.33057 0.0
H2561 H 0.99798 0.76287 0.30275 0.0
H2562 H 0.98897 0.76467 0.26046 0.0
H2563 H 0.98467 0.75895 0.32453 0.0
C2564 C 0.97049 0.776 0.2033 0.0
C2565 C 0.96139 0.76642 0.2191 0.0
C2566 C 0.97951 0.78107 0.2358 0.0
C2567 C 0.97963 0.77664 0.28459 0.0
C2568 C 0.97043 0.76735 0.30149 0.0
H2569 H 0.02932 0.80383 0.52744 0.0
H2570 H 0.0124 0.79676 0.47947 0.0
C2571 C 0.9614 0.7623 0.26913 0.0
C2572 C 0.98958 0.78143 0.31653 0.0
H2573 H 0.00915 0.77668 0.36096 0.0
C2574 C 0.99357 0.79173 0.33744 0.0
C2575 C 0.99529 0.77596 0.3249 0.0
C2576 C 0.9916 0.76503 0.30172 0.0
C2577 C 0.00311 0.79668 0.36682 0.0
C2578 C 0.00875 0.79115 0.3756 0.0
C2579 C 0.00477 0.78087 0.3545 0.0
C2580 C 0.01906 0.79602 0.40461 0.0
C2581 C 0.00722 0.80787 0.3872 0.0
C2582 C 0.02841 0.79792 0.37858 0.0
C2583 C 0.03808 0.80199 0.40575 0.0
C2584 C 0.03864 0.80417 0.45987 0.0
C2585 C 0.02925 0.80238 0.48577 0.0
C2586 C 0.01956 0.79833 0.4584 0.0
H2587 H 0.00308 0.81178 0.36874 0.0
H2588 H 0.00589 0.80756 0.43018 0.0
H2589 H 0.01595 0.81288 0.38001 0.0
H2590 H 0.02822 0.79622 0.33708 0.0
H2591 H 0.04513 0.80343 0.38413 0.0
H2592 H 0.80298 0.77231 0.65053 0.0
H2593 H 0.79354 0.77914 0.7037 0.0
H2594 H 0.80179 0.76825 0.84405 0.0
H2595 H 0.8113 0.76143 0.79116 0.0
H2596 H 0.77581 0.76558 0.78316 0.0
H2597 H 0.81151 0.80139 0.86512 0.0
H2598 H 0.81198 0.79522 0.80426 0.0
H2599 H 0.8115 0.78891 0.86556 0.0
C2600 C 0.8029 0.77148 0.69275 0.0
C2601 C 0.80793 0.76636 0.71665 0.0
C2602 C 0.79744 0.77532 0.723 0.0
C2603 C 0.79702 0.77424 0.77774 0.0
C2604 C 0.80208 0.76921 0.80183 0.0
H2605 H 0.77192 0.79606 0.02866 0.0
H2606 H 0.78091 0.78879 0.97549 0.0
C2607 C 0.80746 0.76527 0.77157 0.0
C2608 C 0.79111 0.77819 0.80964 0.0
H2609 H 0.79463 0.79772 0.89624 0.0
C2610 C 0.7799 0.77262 0.80783 0.0
C2611 C 0.79649 0.78732 0.84193 0.0
C2612 C 0.80854 0.79364 0.84442 0.0
C2613 C 0.77388 0.77585 0.83826 0.0
C2614 C 0.77925 0.78509 0.87022 0.0
C2615 C 0.7905 0.79065 0.87182 0.0
C2616 C 0.77341 0.78912 0.90255 0.0
C2617 C 0.76183 0.76915 0.83694 0.0
C2618 C 0.76619 0.79177 0.87941 0.0
C2619 C 0.76097 0.79584 0.9099 0.0
C2620 C 0.763 0.79755 0.96401 0.0
C2621 C 0.77025 0.79492 0.98704 0.0
C2622 C 0.77538 0.79074 0.95667 0.0
H2623 H 0.75915 0.76084 0.82384 0.0
H2624 H 0.75832 0.76882 0.8761 0.0
H2625 H 0.75865 0.77271 0.80874 0.0
H2626 H 0.76475 0.79089 0.83755 0.0
H2627 H 0.75559 0.79797 0.89083 0.0
H2628 H 0.18969 0.96976 0.97631 0.0
H2629 H 0.19842 0.98613 0.92433 0.0
H2630 H 0.22071 0.97713 0.86407 0.0
H2631 H 0.21217 0.9608 0.91667 0.0
H2632 H 0.22032 0.00283 0.92624 0.0
H2633 H 0.20804 0.98321 0.73109 0.0
H2634 H 0.20172 0.97639 0.79131 0.0
H2635 H 0.21457 0.97824 0.77329 0.0
C2636 C 0.1965 0.97125 0.95249 0.0
C2637 C 0.20018 0.96387 0.95084 0.0
C2638 C 0.20145 0.98062 0.92253 0.0
C2639 C 0.21013 0.98279 0.88988 0.0
C2640 C 0.2139 0.97552 0.8883 0.0
H2641 H 0.254 0.04382 0.74067 0.0
H2642 H 0.2461 0.02756 0.794 0.0
C2643 C 0.20897 0.96616 0.9184 0.0
C2644 C 0.21528 0.99272 0.85791 0.0
H2645 H 0.21989 0.00191 0.7317 0.0
C2646 C 0.22025 0.00264 0.8837 0.0
C2647 C 0.21507 0.99244 0.80243 0.0
C2648 C 0.2095 0.98202 0.77269 0.0
C2649 C 0.22509 0.0123 0.85549 0.0
C2650 C 0.22504 0.01203 0.80002 0.0
C2651 C 0.21999 0.0021 0.77423 0.0
C2652 C 0.22989 0.02195 0.76798 0.0
C2653 C 0.23003 0.02273 0.88522 0.0
C2654 C 0.22342 0.02413 0.73506 0.0
C2655 C 0.2279 0.03344 0.70468 0.0
C2656 C 0.23898 0.04076 0.70615 0.0
C2657 C 0.24544 0.03849 0.73903 0.0
C2658 C 0.24094 0.02918 0.76955 0.0
H2659 H 0.22738 0.02157 0.92681 0.0
H2660 H 0.23887 0.02642 0.88467 0.0
H2661 H 0.22797 0.02842 0.86655 0.0
H2662 H 0.21487 0.01866 0.73327 0.0
H2663 H 0.22262 0.03493 0.68058 0.0
H2664 H 0.96318 0.21557 0.71215 0.0
H2665 H 0.97947 0.22389 0.76578 0.0
H2666 H 0.98488 0.19781 0.72979 0.0
H2667 H 0.96864 0.18938 0.67715 0.0
H2668 H 0.98487 0.21528 0.85423 0.0
H2669 H 0.01332 0.22473 0.68937 0.0
H2670 H 0.99962 0.22147 0.67962 0.0
H2671 H 0.00273 0.21104 0.69132 0.0
C2672 C 0.9678 0.21157 0.71583 0.0
C2673 C 0.96461 0.20184 0.68969 0.0
C2674 C 0.97713 0.21636 0.74634 0.0
C2675 C 0.98347 0.21155 0.75099 0.0
C2676 C 0.98023 0.20178 0.72574 0.0
H2677 H 0.03226 0.22117 0.97694 0.0
H2678 H 0.01598 0.21453 0.92469 0.0
C2679 C 0.97093 0.19698 0.69542 0.0
C2680 C 0.99341 0.21661 0.78284 0.0
H2681 H 0.02037 0.22645 0.77549 0.0
C2682 C 0.99264 0.21779 0.83704 0.0
C2683 C 0.00356 0.21998 0.76019 0.0
C2684 C 0.00492 0.21935 0.70186 0.0
C2685 C 1.00174 0.22199 0.86945 0.0
C2686 C 0.01182 0.22496 0.84707 0.0
C2687 C 0.01262 0.22406 0.79265 0.0
C2688 C 0.02166 0.22904 0.87936 0.0
C2689 C 1.00048 0.22327 0.9273 0.0
C2690 C 0.03036 0.23932 0.87049 0.0
C2691 C 0.0397 0.24316 0.90037 0.0
C2692 C 0.04057 0.23677 0.93957 0.0
C2693 C 0.03185 0.22641 0.9479 0.0
C2694 C 0.02251 0.22259 0.91801 0.0
H2695 H 0.99293 0.22325 0.9359 0.0
H2696 H 1.0003 0.2165 0.94888 0.0
H2697 H 0.00731 0.23082 0.94243 0.0
H2698 H 0.02989 0.24442 0.84072 0.0
H2699 H 0.04617 0.25121 0.89321 0.0
H2700 H 0.8946 0.5313 0.47379 0.0
H2701 H 0.88671 0.53993 0.52534 0.0
H2702 H 0.90444 0.53985 0.66117 0.0
H2703 H 0.91219 0.53105 0.61052 0.0
H2704 H 0.87468 0.53304 0.62347 0.0
H2705 H 0.91265 0.5718 0.64043 0.0
H2706 H 0.91065 0.56184 0.59197 0.0
H2707 H 0.91351 0.56023 0.65883 0.0
C2708 C 0.89671 0.53297 0.5148 0.0
C2709 C 0.90411 0.53053 0.53781 0.0
C2710 C 0.89224 0.53796 0.54409 0.0
C2711 C 0.89514 0.54068 0.59676 0.0
C2712 C 0.90227 0.53801 0.62026 0.0
H2713 H 0.86682 0.55864 0.84562 0.0
H2714 H 0.87373 0.55007 0.78759 0.0
C2715 C 0.90671 0.53298 0.59114 0.0
C2716 C 0.89076 0.54636 0.62732 0.0
H2717 H 0.89809 0.56968 0.69271 0.0
C2718 C 0.87977 0.54107 0.63841 0.0
C2719 C 0.89742 0.55688 0.64615 0.0
C2720 C 0.9092 0.56309 0.63346 0.0
C2721 C 0.87531 0.54591 0.66925 0.0
C2722 C 0.88204 0.55628 0.68974 0.0
C2723 C 0.89297 0.5617 0.67731 0.0
C2724 C 0.8779 0.56156 0.72489 0.0
C2725 C 0.86342 0.53993 0.67956 0.0
C2726 C 0.87821 0.57103 0.70941 0.0
C2727 C 0.8742 0.57595 0.74245 0.0
C2728 C 0.86988 0.57153 0.79182 0.0
C2729 C 0.86985 0.56216 0.80755 0.0
C2730 C 0.87382 0.55724 0.77443 0.0
H2731 H 0.85907 0.5333 0.65117 0.0
H2732 H 0.86192 0.53645 0.71957 0.0
H2733 H 0.8601 0.5454 0.67749 0.0
H2734 H 0.88139 0.57453 0.67139 0.0
H2735 H 0.87428 0.58309 0.72875 0.0
H2736 H 0.42541 0.29342 0.71629 0.0
H2737 H 0.434 0.3099 0.66443 0.0
H2738 H 0.45392 0.32694 0.79651 0.0
H2739 H 0.44532 0.3106 0.84874 0.0
H2740 H 0.43548 0.32991 0.68456 0.0
H2741 H 0.47555 0.33339 0.67687 0.0
H2742 H 0.46362 0.32119 0.6956 0.0
H2743 H 0.47017 0.33196 0.74181 0.0
C2744 C 0.43155 0.30068 0.73447 0.0
C2745 C 0.43473 0.30063 0.78661 0.0
C2746 C 0.43649 0.31008 0.70468 0.0
C2747 C 0.44473 0.31959 0.72634 0.0
C2748 C 0.44776 0.31964 0.77863 0.0
H2749 H 0.47022 0.38453 0.61089 0.0
H2750 H 0.46213 0.36812 0.66314 0.0
C2751 C 0.44283 0.31026 0.80842 0.0
C2752 C 0.45009 0.32952 0.69457 0.0
H2753 H 0.47437 0.34827 0.64566 0.0
C2754 C 0.44397 0.33392 0.67591 0.0
C2755 C 0.46115 0.33466 0.68288 0.0
C2756 C 0.46801 0.33003 0.69987 0.0
C2757 C 0.44867 0.34344 0.64667 0.0
C2758 C 0.45979 0.34876 0.63639 0.0
C2759 C 0.46587 0.34425 0.65416 0.0
C2760 C 0.46521 0.35888 0.60615 0.0
C2761 C 0.44166 0.34765 0.62633 0.0
C2762 C 0.46995 0.35924 0.55762 0.0
C2763 C 0.47457 0.3686 0.52763 0.0
C2764 C 0.47461 0.37784 0.54574 0.0
C2765 C 0.47018 0.37754 0.59533 0.0
C2766 C 0.46554 0.36816 0.62525 0.0
H2767 H 0.43305 0.34143 0.62702 0.0
H2768 H 0.44273 0.3544 0.65139 0.0
H2769 H 0.44391 0.35066 0.58557 0.0
H2770 H 0.4698 0.35217 0.54226 0.0
H2771 H 0.47776 0.36844 0.48947 0.0
H2772 H 0.64143 0.10584 0.46098 0.0
H2773 H 0.6576 0.11434 0.51504 0.0
H2774 H 0.63882 0.09823 0.65176 0.0
H2775 H 0.62267 0.08956 0.5976 0.0
H2776 H 0.66243 0.12794 0.5953 0.0
H2777 H 0.66271 0.09174 0.66549 0.0
H2778 H 0.65414 0.0913 0.61287 0.0
H2779 H 0.65046 0.09155 0.68009 0.0
C2780 C 0.64077 0.10407 0.50251 0.0
C2781 C 0.63079 0.097 0.52499 0.0
C2782 C 0.65001 0.10892 0.53337 0.0
C2783 C 0.64947 0.10682 0.5874 0.0
C2784 C 0.6395 0.09976 0.60997 0.0
H2785 H 0.69616 0.13449 0.83994 0.0
H2786 H 0.67973 0.12584 0.78744 0.0
C2787 C 0.63026 0.09482 0.57899 0.0
C2788 C 0.65928 0.11237 0.62024 0.0
H2789 H 0.67492 0.10819 0.70681 0.0
C2790 C 0.66518 0.12361 0.61944 0.0
C2791 C 0.66289 0.10673 0.65181 0.0
C2792 C 0.65729 0.09467 0.65232 0.0
C2793 C 0.6745 0.12934 0.64963 0.0
C2794 C 0.67802 0.12369 0.6814 0.0
C2795 C 0.67213 0.11248 0.68254 0.0
C2796 C 0.68794 0.12929 0.7129 0.0
C2797 C 0.68049 0.14139 0.6479 0.0
C2798 C 0.69797 0.13408 0.68824 0.0
C2799 C 0.70735 0.13899 0.71808 0.0
C2800 C 0.70688 0.13924 0.77313 0.0
C2801 C 0.6968 0.13456 0.79762 0.0
C2802 C 0.68741 0.12956 0.76775 0.0
H2803 H 0.67583 0.14459 0.62796 0.0
H2804 H 0.68249 0.14473 0.68823 0.0
H2805 H 0.68812 0.14422 0.62633 0.0
H2806 H 0.69852 0.13389 0.64592 0.0
H2807 H 0.71499 0.14259 0.6981 0.0
H2808 H 0.41731 0.12033 0.26549 0.0
H2809 H 0.42616 0.1126 0.21423 0.0
H2810 H 0.4567 0.14086 0.24196 0.0
H2811 H 0.44794 0.14857 0.29335 0.0
H2812 H 0.43818 0.11969 0.12516 0.0
H2813 H 0.46289 0.11763 0.28638 0.0
H2814 H 0.45203 0.12017 0.29803 0.0
H2815 H 0.46483 0.13079 0.27638 0.0
C2816 C 0.4259 0.1249 0.26056 0.0
C2817 C 0.43191 0.13502 0.28406 0.0
C2818 C 0.43096 0.12046 0.23142 0.0
C2819 C 0.44214 0.12605 0.22514 0.0
C2820 C 0.44812 0.13625 0.24753 0.0
H2821 H 0.48552 0.11236 0.0434 0.0
H2822 H 0.47784 0.12107 0.09666 0.0
C2823 C 0.44308 0.14066 0.2769 0.0
C2824 C 0.44749 0.12132 0.19411 0.0
H2825 H 0.46663 0.11396 0.20049 0.0
C2826 C 0.44437 0.11841 0.14175 0.0
C2827 C 0.45561 0.11967 0.21566 0.0
C2828 C 0.45898 0.12213 0.27233 0.0
C2829 C 0.44917 0.11398 0.11032 0.0
C2830 C 0.45725 0.11232 0.1319 0.0
C2831 C 0.46047 0.11531 0.18402 0.0
C2832 C 0.46209 0.10704 0.10146 0.0
C2833 C 0.44563 0.11117 0.05405 0.0
C2834 C 0.45585 0.09624 0.0875 0.0
C2835 C 0.4602 0.09127 0.0574 0.0
C2836 C 0.47092 0.09697 0.04046 0.0
C2837 C 0.47723 0.10776 0.05542 0.0
C2838 C 0.47287 0.11273 0.08596 0.0
H2839 H 0.44112 0.11508 0.04013 0.0
H2840 H 0.45262 0.11356 0.02792 0.0
H2841 H 0.44033 0.10239 0.05064 0.0
H2842 H 0.44754 0.09168 0.09949 0.0
H2843 H 0.45503 0.08301 0.04612 0.0
H2844 H 0.92371 0.37351 0.05924 0.0
H2845 H 0.91603 0.35707 0.11109 0.0
H2846 H 0.88455 0.34842 0.055 0.0
H2847 H 0.89206 0.36487 0.00399 0.0
H2848 H 0.89994 0.35029 0.19086 0.0
H2849 H 0.88714 0.32157 0.02498 0.0
H2850 H 0.89676 0.33562 0.01742 0.0
H2851 H 0.88272 0.33118 0.02089 0.0
C2852 C 0.91515 0.36817 0.058 0.0
C2853 C 0.90855 0.37058 0.02696 0.0
C2854 C 0.91078 0.35873 0.08753 0.0
C2855 C 0.89974 0.35144 0.08632 0.0
C2856 C 0.89312 0.35381 0.05567 0.0
H2857 H 0.85925 0.30089 0.30023 0.0
H2858 H 0.86847 0.31703 0.24715 0.0
C2859 C 0.89746 0.36326 0.02634 0.0
C2860 C 0.89507 0.34151 0.11829 0.0
H2861 H 0.88079 0.31423 0.10972 0.0
C2862 C 0.89581 0.34241 0.17315 0.0
C2863 C 0.88977 0.33123 0.09509 0.0
C2864 C 0.8891 0.32979 0.03635 0.0
C2865 C 0.89113 0.3333 0.20545 0.0
C2866 C 0.88551 0.32303 0.18228 0.0
C2867 C 0.88503 0.32212 0.12741 0.0
C2868 C 0.87993 0.31315 0.21447 0.0
C2869 C 0.89228 0.33473 0.26416 0.0
C2870 C 0.88317 0.30546 0.21298 0.0
C2871 C 0.87795 0.29619 0.24373 0.0
C2872 C 0.86931 0.29438 0.27631 0.0
C2873 C 0.86599 0.30205 0.27676 0.0
C2874 C 0.87124 0.31131 0.24623 0.0
H2875 H 0.89889 0.3428 0.27515 0.0
H2876 H 0.88473 0.33376 0.28078 0.0
H2877 H 0.89377 0.32861 0.28231 0.0
H2878 H 0.88983 0.3067 0.18854 0.0
H2879 H 0.88081 0.29056 0.2425 0.0
H2880 H 0.63198 0.54351 0.06824 0.0
H2881 H 0.64845 0.55039 0.1184 0.0
H2882 H 0.64826 0.52071 0.09557 0.0
H2883 H 0.63164 0.5137 0.04493 0.0
H2884 H 0.65326 0.54329 0.20863 0.0
H2885 H 0.67786 0.54272 0.04208 0.0
H2886 H 0.66466 0.54092 0.03298 0.0
H2887 H 0.66624 0.5301 0.05727 0.0
C2888 C 0.63529 0.53833 0.07443 0.0
C2889 C 0.63044 0.52802 0.05232 0.0
C2890 C 0.64479 0.54233 0.10293 0.0
C2891 C 0.64971 0.53615 0.11002 0.0
C2892 C 0.64474 0.52572 0.08955 0.0
H2893 H 0.71016 0.55559 0.27718 0.0
H2894 H 0.69319 0.54487 0.23016 0.0
C2895 C 0.63522 0.52171 0.06076 0.0
C2896 C 0.66006 0.54079 0.13859 0.0
H2897 H 0.68661 0.54897 0.1234 0.0
C2898 C 0.66053 0.54446 0.19007 0.0
C2899 C 0.66956 0.54232 0.11435 0.0
C2900 C 0.66964 0.5389 0.0585 0.0
C2901 C 0.67024 0.54977 0.21758 0.0
C2902 C 0.67976 0.55155 0.19287 0.0
C2903 C 0.67928 0.54759 0.14212 0.0
C2904 C 0.69033 0.55806 0.21829 0.0
C2905 C 0.67029 0.55357 0.27279 0.0
C2906 C 0.69444 0.56905 0.22592 0.0
C2907 C 0.7041 0.57518 0.25249 0.0
C2908 C 0.70986 0.57043 0.27216 0.0
C2909 C 0.70587 0.55946 0.26299 0.0
C2910 C 0.69621 0.55334 0.23602 0.0
H2911 H 0.66215 0.54954 0.29026 0.0
H2912 H 0.67567 0.55211 0.29829 0.0
H2913 H 0.67332 0.56231 0.27226 0.0
H2914 H 0.69006 0.57286 0.21211 0.0
H2915 H 0.70683 0.58355 0.2593 0.0
H2916 H 0.58045 0.86686 0.93509 0.0
H2917 H 0.57227 0.87504 0.98798 0.0
H2918 H 0.55815 0.87968 0.84855 0.0
H2919 H 0.56614 0.87135 0.79578 0.0
H2920 H 0.57454 0.89467 0.98634 0.0
H2921 H 0.53233 0.86491 0.94164 0.0
H2922 H 0.54326 0.86276 0.92494 0.0
H2923 H 0.54008 0.87091 0.8837 0.0
C2924 C 0.57561 0.86964 0.91573 0.0
C2925 C 0.57386 0.86836 0.86128 0.0
C2926 C 0.57091 0.87429 0.94601 0.0
C2927 C 0.56439 0.87778 0.92249 0.0
C2928 C 0.56286 0.87675 0.86793 0.0
H2929 H 0.53445 0.91354 0.03277 0.0
H2930 H 0.54298 0.90552 0.98114 0.0
C2931 C 0.56747 0.87201 0.83773 0.0
C2932 C 0.55937 0.88268 0.95485 0.0
H2933 H 0.5354 0.88086 0.98478 0.0
C2934 C 0.56598 0.89159 0.98622 0.0
C2935 C 0.54817 0.87866 0.95497 0.0
C2936 C 0.54053 0.86872 0.92494 0.0
C2937 C 0.56172 0.89669 0.01676 0.0
C2938 C 0.55058 0.89279 0.01591 0.0
C2939 C 0.54396 0.88387 0.98491 0.0
C2940 C 0.54565 0.89782 0.04744 0.0
C2941 C 0.56912 0.9063 0.04932 0.0
C2942 C 0.54432 0.8961 0.10173 0.0
C2943 C 0.53941 0.90063 0.13126 0.0
C2944 C 0.5358 0.90701 0.10709 0.0
C2945 C 0.53724 0.90877 0.05266 0.0
C2946 C 0.54206 0.90416 0.02308 0.0
H2947 H 0.57768 0.90909 0.04115 0.0
H2948 H 0.56756 0.91297 0.0417 0.0
H2949 H 0.56757 0.90423 0.09155 0.0
H2950 H 0.54701 0.8912 0.12116 0.0
H2951 H 0.53851 0.8992 0.17312 0.0
H2952 H 0.10294 0.63833 0.16832 0.0
H2953 H 0.10971 0.65479 0.11673 0.0
H2954 H 0.10739 0.6372 0.9759 0.0
H2955 H 0.10053 0.62076 0.02705 0.0
H2956 H 0.12725 0.66559 0.05378 0.0
H2957 H 0.09035 0.65141 0.93582 0.0
H2958 H 0.09085 0.64446 0.99361 0.0
H2959 H 0.09575 0.64262 0.93182 0.0
C2960 C 0.10396 0.638 0.12642 0.0
C2961 C 0.10109 0.62822 0.10167 0.0
C2962 C 0.10778 0.6474 0.09696 0.0
C2963 C 0.10881 0.64718 0.04226 0.0
C2964 C 0.10635 0.6375 0.01781 0.0
H2965 H 0.13334 0.69278 0.78939 0.0
H2966 H 0.12627 0.67714 0.84699 0.0
C2967 C 0.10246 0.62811 0.04712 0.0
C2968 C 0.11249 0.65706 0.01065 0.0
H2969 H 0.10578 0.66733 0.90607 0.0
C2970 C 0.12251 0.66601 0.02182 0.0
C2971 C 0.10627 0.65762 0.9691 0.0
C2972 C 0.09516 0.64855 0.95716 0.0
C2973 C 0.12662 0.67537 0.99146 0.0
C2974 C 0.12053 0.67579 0.94911 0.0
C2975 C 0.11045 0.66693 0.93843 0.0
C2976 C 0.12461 0.68527 0.91444 0.0
C2977 C 0.13758 0.68464 0.00384 0.0
C2978 C 0.12583 0.69496 0.93312 0.0
C2979 C 0.12983 0.70391 0.90022 0.0
C2980 C 0.13273 0.70332 0.84815 0.0
C2981 C 0.13132 0.69353 0.82946 0.0
C2982 C 0.12724 0.68458 0.86221 0.0
H2983 H 0.14198 0.68241 0.03224 0.0
H2984 H 0.14242 0.68769 0.96747 0.0
H2985 H 0.13676 0.69125 0.02104 0.0
H2986 H 0.12373 0.69561 0.9732 0.0
H2987 H 0.1309 0.71135 0.9159 0.0
H2988 H 0.29165 0.41542 0.90677 0.0
H2989 H 0.30769 0.423 0.96157 0.0
H2990 H 0.31818 0.45415 0.89526 0.0
H2991 H 0.30211 0.44675 0.84115 0.0
H2992 H 0.33421 0.44776 0.8986 0.0
H2993 H 0.31403 0.44306 0.0906 0.0
H2994 H 0.30868 0.43128 0.05024 0.0
H2995 H 0.30768 0.44259 0.02885 0.0
C2996 C 0.29727 0.42391 0.90416 0.0
C2997 C 0.2955 0.43044 0.86933 0.0
C2998 C 0.30647 0.42822 0.93552 0.0
C2999 C 0.31408 0.43915 0.93279 0.0
C3000 C 0.31241 0.44569 0.89794 0.0
H3001 H 0.36655 0.47977 0.1377 0.0
H3002 H 0.35031 0.47108 0.08489 0.0
C3003 C 0.30321 0.4414 0.86676 0.0
C3004 C 0.32387 0.4438 0.96577 0.0
H3005 H 0.33262 0.44933 0.09259 0.0
C3006 C 0.33387 0.44808 0.94102 0.0
C3007 C 0.3234 0.44429 0.02105 0.0
C3008 C 0.31289 0.44015 0.04947 0.0
C3009 C 0.34342 0.45279 0.97014 0.0
C3010 C 0.34295 0.45317 0.02546 0.0
C3011 C 0.33295 0.44895 0.05019 0.0
C3012 C 0.35277 0.45825 0.05823 0.0
C3013 C 0.35397 0.45754 0.94151 0.0
C3014 C 0.35949 0.45385 0.06133 0.0
C3015 C 0.36878 0.45875 0.09205 0.0
C3016 C 0.37154 0.46817 0.12035 0.0
C3017 C 0.36469 0.47248 0.11728 0.0
C3018 C 0.3554 0.46755 0.08679 0.0
H3019 H 0.35306 0.45848 0.89889 0.0
H3020 H 0.35977 0.46547 0.95816 0.0
H3021 H 0.35739 0.4522 0.94623 0.0
H3022 H 0.35752 0.44658 0.04022 0.0
H3023 H 0.37371 0.45507 0.09396 0.0
H3024 H 0.11428 0.48109 0.6201 0.0
H3025 H 0.12309 0.47366 0.56721 0.0
H3026 H 0.09293 0.44452 0.54684 0.0
H3027 H 0.08402 0.45197 0.59976 0.0
H3028 H 0.12489 0.4561 0.58509 0.0
H3029 H 0.10374 0.45168 0.39705 0.0
H3030 H 0.10307 0.45937 0.45125 0.0
H3031 H 0.09493 0.44503 0.45116 0.0
C3032 C 0.10951 0.47308 0.60457 0.0
C3033 C 0.09844 0.46711 0.61432 0.0
C3034 C 0.11456 0.46886 0.57411 0.0
C3035 C 0.10867 0.45858 0.55253 0.0
C3036 C 0.09761 0.45257 0.5621 0.0
H3037 H 0.13483 0.41972 0.43755 0.0
H3038 H 0.12689 0.42812 0.48995 0.0
C3039 C 0.09252 0.45682 0.59242 0.0
C3040 C 0.11423 0.45409 0.52142 0.0
H3041 H 0.11473 0.44377 0.4016 0.0
C3042 C 0.12269 0.45343 0.5449 0.0
C3043 C 0.11147 0.45077 0.46873 0.0
C3044 C 0.10288 0.45183 0.4403 0.0
C3045 C 0.12836 0.4494 0.51745 0.0
C3046 C 0.12534 0.44572 0.46539 0.0
C3047 C 0.11699 0.44652 0.44164 0.0
C3048 C 0.13069 0.44094 0.43484 0.0
C3049 C 0.13764 0.44931 0.54421 0.0
C3050 C 0.13538 0.44526 0.38609 0.0
C3051 C 0.13981 0.44038 0.35563 0.0
C3052 C 0.13959 0.43102 0.37317 0.0
C3053 C 0.13508 0.42686 0.42259 0.0
C3054 C 0.13063 0.43172 0.45292 0.0
H3055 H 0.14086 0.45518 0.57693 0.0
H3056 H 0.13489 0.44125 0.56086 0.0
H3057 H 0.14422 0.45116 0.51609 0.0
H3058 H 0.13548 0.45233 0.37121 0.0
H3059 H 0.14304 0.44374 0.31754 0.0
H3060 H 0.52519 0.63536 0.63993 0.0
H3061 H 0.53324 0.65164 0.58678 0.0
H3062 H 0.55451 0.64239 0.51611 0.0
H3063 H 0.54679 0.62629 0.56965 0.0
H3064 H 0.55603 0.66832 0.58102 0.0
H3065 H 0.53929 0.64811 0.39049 0.0
H3066 H 0.53379 0.64182 0.45285 0.0
H3067 H 0.54587 0.64263 0.42887 0.0
C3068 C 0.53162 0.63677 0.61343 0.0
C3069 C 0.53524 0.62936 0.60913 0.0
C3070 C 0.53618 0.64609 0.58289 0.0
C3071 C 0.54438 0.64815 0.54708 0.0
C3072 C 0.54807 0.64086 0.54288 0.0
H3073 H 0.58903 0.7065 0.38249 0.0
H3074 H 0.58065 0.69071 0.43909 0.0
C3075 C 0.54357 0.63159 0.57353 0.0
C3076 C 0.54918 0.65796 0.51428 0.0
H3077 H 0.55227 0.66656 0.38727 0.0
C3078 C 0.55519 0.66796 0.53869 0.0
C3079 C 0.548 0.65745 0.45911 0.0
C3080 C 0.54132 0.64695 0.4311 0.0
C3081 C 0.56023 0.67746 0.50919 0.0
C3082 C 0.55927 0.67692 0.4539 0.0
C3083 C 0.55308 0.66694 0.42963 0.0
C3084 C 0.56443 0.68665 0.42048 0.0
C3085 C 0.56644 0.68801 0.53738 0.0
C3086 C 0.55811 0.68954 0.39072 0.0
C3087 C 0.56286 0.69859 0.35855 0.0
C3088 C 0.57408 0.70493 0.35488 0.0
C3089 C 0.5804 0.70195 0.38468 0.0
C3090 C 0.57561 0.6929 0.41711 0.0
H3091 H 0.56454 0.68726 0.57994 0.0
H3092 H 0.57513 0.69099 0.53298 0.0
H3093 H 0.56473 0.69407 0.52018 0.0
H3094 H 0.54946 0.68483 0.39274 0.0
H3095 H 0.55767 0.70065 0.33716 0.0
H3096 H 0.29686 0.88132 0.38475 0.0
H3097 H 0.31357 0.88897 0.43497 0.0
H3098 H 0.31635 0.86124 0.39992 0.0
H3099 H 0.29977 0.85364 0.34933 0.0
H3100 H 0.31914 0.88179 0.52094 0.0
H3101 H 0.34536 0.88497 0.35473 0.0
H3102 H 0.33181 0.88218 0.34537 0.0
H3103 H 0.33438 0.87167 0.36443 0.0
C3104 C 0.30101 0.87684 0.38793 0.0
C3105 C 0.29703 0.86692 0.36253 0.0
C3106 C 0.31058 0.88124 0.41648 0.0
C3107 C 0.31636 0.8758 0.42029 0.0
C3108 C 0.31223 0.86575 0.39624 0.0
H3109 H 0.37415 0.88939 0.59463 0.0
H3110 H 0.35754 0.88078 0.54298 0.0
C3111 C 0.30273 0.8614 0.3674 0.0
C3112 C 0.32659 0.88055 0.45017 0.0
H3113 H 0.35315 0.88836 0.43976 0.0
C3114 C 0.32657 0.88326 0.50308 0.0
C3115 C 0.33632 0.88246 0.42693 0.0
C3116 C 0.33703 0.88027 0.36963 0.0
C3117 C 0.33596 0.88773 0.53339 0.0
C3118 C 0.34565 0.88961 0.51016 0.0
C3119 C 0.34569 0.88684 0.45748 0.0
C3120 C 0.35589 0.89485 0.53959 0.0
C3121 C 0.33547 0.89035 0.59024 0.0
C3122 C 0.36055 0.90565 0.5538 0.0
C3123 C 0.37001 0.91058 0.58295 0.0
C3124 C 0.37504 0.90481 0.59868 0.0
C3125 C 0.37045 0.89403 0.58349 0.0
C3126 C 0.36099 0.88911 0.55389 0.0
H3127 H 0.32711 0.88646 0.60499 0.0
H3128 H 0.34012 0.88781 0.61507 0.0
H3129 H 0.33906 0.89913 0.59461 0.0
H3130 H 0.35678 0.91024 0.54277 0.0
H3131 H 0.3732 0.91883 0.59448 0.0
H3132 H 0.19171 0.22082 0.64053 0.0
H3133 H 0.19895 0.21076 0.68611 0.0
H3134 H 0.20166 0.22803 0.8286 0.0
H3135 H 0.19449 0.23797 0.78416 0.0
H3136 H 0.21905 0.21879 0.74245 0.0
H3137 H 0.18407 0.19631 0.87246 0.0
H3138 H 0.18345 0.20284 0.81321 0.0
H3139 H 0.18885 0.21042 0.87253 0.0
C3140 C 0.19385 0.22245 0.68157 0.0
C3141 C 0.19242 0.23014 0.70876 0.0
C3142 C 0.19798 0.21671 0.7075 0.0
C3143 C 0.20063 0.21851 0.761 0.0
C3144 C 0.19944 0.22634 0.78764 0.0
H3145 H 0.23047 0.20808 0.01771 0.0
H3146 H 0.22091 0.21237 0.95206 0.0
C3147 C 0.19537 0.23206 0.76195 0.0
C3148 C 0.20483 0.21245 0.78983 0.0
H3149 H 0.20064 0.19778 0.90137 0.0
C3150 C 0.21494 0.21398 0.7765 0.0
C3151 C 0.19942 0.20615 0.83411 0.0
C3152 C 0.1883 0.20373 0.84868 0.0
C3153 C 0.2201 0.21 0.80851 0.0
C3154 C 0.21495 0.20427 0.85459 0.0
C3155 C 0.2046 0.20223 0.86619 0.0
C3156 C 0.22055 0.20127 0.89402 0.0
C3157 C 0.23127 0.21246 0.79464 0.0
C3158 C 0.2234 0.19348 0.88343 0.0
C3159 C 0.22886 0.19095 0.92114 0.0
C3160 C 0.23159 0.19622 0.96999 0.0
C3161 C 0.22856 0.2039 0.98053 0.0
C3162 C 0.22307 0.20636 0.94304 0.0
H3163 H 0.23464 0.2181 0.76113 0.0
H3164 H 0.23667 0.21596 0.82895 0.0
H3165 H 0.23112 0.20494 0.78392 0.0
H3166 H 0.2214 0.18936 0.84605 0.0
H3167 H 0.23106 0.18498 0.91175 0.0
H3168 H 0.79127 0.02494 0.01118 0.0
H3169 H 0.78648 0.01011 0.95048 0.0
H3170 H 0.81526 0.02951 0.86183 0.0
H3171 H 0.82017 0.04444 0.92256 0.0
H3172 H 0.79488 0.01763 0.80117 0.0
H3173 H 0.80222 0.99229 0.93937 0.0
H3174 H 0.79432 0.99767 0.96553 0.0
H3175 H 0.80805 0.00656 0.94809 0.0
C3176 C 0.79661 0.02607 0.9789 0.0
C3177 C 0.80612 0.03587 0.97189 0.0
C3178 C 0.79387 0.01757 0.94433 0.0
C3179 C 0.80056 0.0187 0.90194 0.0
C3180 C 0.81002 0.02848 0.89443 0.0
H3181 H 0.78529 0.96958 0.65521 0.0
H3182 H 0.79456 0.98685 0.70158 0.0
C3183 C 0.81282 0.03698 0.9293 0.0
C3184 C 0.79753 0.00961 0.86555 0.0
H3185 H 0.79223 0.98379 0.86247 0.0
C3186 C 0.79443 0.01027 0.81411 0.0
C3187 C 0.79703 1.00006 0.88261 0.0
C3188 C 0.80067 0.99908 0.93676 0.0
C3189 C 0.79023 0.00137 0.78023 0.0
C3190 C 0.78931 0.99167 0.79815 0.0
C3191 C 0.7929 0.99122 0.84879 0.0
C3192 C 0.78366 0.98156 0.7676 0.0
C3193 C 0.7863 0.00226 0.72667 0.0
C3194 C 0.77452 0.97288 0.78926 0.0
C3195 C 0.76933 0.96308 0.76334 0.0
C3196 C 0.77313 0.96167 0.71491 0.0
C3197 C 0.78216 0.97043 0.69237 0.0
C3198 C 0.78743 0.9803 0.71873 0.0
H3199 H 0.78583 0.00967 0.72245 0.0
H3200 H 0.79189 0.00237 0.69643 0.0
H3201 H 0.77828 0.99525 0.71878 0.0
H3202 H 0.77143 0.97366 0.82674 0.0
H3203 H 0.76235 0.95656 0.78173 0.0
H3204 H 0.04683 0.80349 0.79313 0.0
H3205 H 0.02988 0.79768 0.83731 0.0
H3206 H 0.01815 0.80669 0.70251 0.0
H3207 H 0.03529 0.81259 0.65722 0.0
H3208 H 0.02 0.81068 0.85869 0.0
H3209 H 0.99481 0.77472 0.73584 0.0
H3210 H 0.0092 0.78085 0.73777 0.0
H3211 H 0.00316 0.78734 0.70369 0.0
C3212 C 0.04068 0.80424 0.77249 0.0
C3213 C 0.04244 0.80849 0.72143 0.0
C3214 C 0.03098 0.80093 0.79802 0.0
C3215 C 0.02273 0.80168 0.77317 0.0
C3216 C 0.02439 0.80595 0.72221 0.0
H3217 H 0.95878 0.77432 0.91987 0.0
H3218 H 0.97341 0.78381 0.85679 0.0
C3219 C 0.03419 0.80935 0.69651 0.0
C3220 C 0.01252 0.79802 0.80182 0.0
H3221 H 0.98695 0.77703 0.81172 0.0
C3222 C 0.01271 0.80341 0.84797 0.0
C3223 C 0.00301 0.78858 0.78764 0.0
C3224 C 0.00244 0.78245 0.73869 0.0
C3225 C 0.0038 0.7994 0.88142 0.0
C3226 C 0.99451 0.78959 0.869 0.0
C3227 C 0.99409 0.78451 0.82135 0.0
C3228 C 0.9856 0.78406 0.90716 0.0
C3229 C 0.0045 0.80559 0.93036 0.0
C3230 C 0.98755 0.78093 0.95612 0.0
C3231 C 0.97925 0.77551 0.99208 0.0
C3232 C 0.96875 0.77304 0.9799 0.0
C3233 C 0.96678 0.77614 0.93068 0.0
C3234 C 0.97512 0.78155 0.89452 0.0
H3235 H 0.01045 0.81423 0.92585 0.0
H3236 H 0.99662 0.80474 0.94033 0.0
H3237 H 0.0071 0.80248 0.96365 0.0
H3238 H 0.99552 0.78257 0.96634 0.0
H3239 H 0.98109 0.77323 0.02943 0.0
H3240 H 0.8219 0.78563 0.48061 0.0
H3241 H 0.81485 0.79431 0.42364 0.0
H3242 H 0.78366 0.76596 0.42857 0.0
H3243 H 0.79054 0.75742 0.48712 0.0
H3244 H 0.80643 0.7896 0.32832 0.0
H3245 H 0.7759 0.78805 0.46514 0.0
H3246 H 0.78598 0.78491 0.48558 0.0
H3247 H 0.77409 0.77503 0.4524 0.0
C3248 C 0.81351 0.78129 0.47007 0.0
C3249 C 0.80675 0.77088 0.48899 0.0
C3250 C 0.8095 0.78625 0.43728 0.0
C3251 C 0.79867 0.78088 0.42241 0.0
C3252 C 0.79196 0.77041 0.44063 0.0
H3253 H 0.77258 0.80109 0.16227 0.0
H3254 H 0.7806 0.79253 0.21409 0.0
C3255 C 0.79592 0.76551 0.47404 0.0
C3256 C 0.79445 0.78616 0.38733 0.0
H3257 H 0.77483 0.79271 0.37692 0.0
C3258 C 0.79955 0.79034 0.33905 0.0
C3259 C 0.78555 0.78725 0.40148 0.0
C3260 C 0.78013 0.78367 0.4542 0.0
C3261 C 0.796 0.79553 0.30458 0.0
C3262 C 0.78687 0.79628 0.31801 0.0
C3263 C 0.78178 0.79208 0.36626 0.0
C3264 C 0.7827 0.80184 0.28437 0.0
C3265 C 0.80225 0.80041 0.25496 0.0
C3266 C 0.78109 0.80983 0.30648 0.0
C3267 C 0.77629 0.81448 0.2775 0.0
C3268 C 0.77312 0.81139 0.22535 0.0
C3269 C 0.77506 0.80369 0.20226 0.0
C3270 C 0.77969 0.79884 0.2318 0.0
H3271 H 0.81056 0.80188 0.25795 0.0
H3272 H 0.79829 0.79482 0.22182 0.0
H3273 H 0.80259 0.80809 0.24573 0.0
H3274 H 0.78338 0.81234 0.34674 0.0
H3275 H 0.77497 0.82046 0.29621 0.0
H3276 H 0.21713 0.03522 0.48835 0.0
H3277 H 0.2074 0.01823 0.44053 0.0
H3278 H 0.23541 0.02707 0.34585 0.0
H3279 H 0.24487 0.04418 0.39146 0.0
H3280 H 0.21894 0.01959 0.28549 0.0
H3281 H 0.20859 0.99148 0.45222 0.0
H3282 H 0.2034 1.00039 0.45973 0.0
H3283 H 0.21765 0.00564 0.45915 0.0
C3284 C 0.22121 0.03343 0.45778 0.0
C3285 C 0.23175 0.04099 0.44365 0.0
C3286 C 0.21567 0.02371 0.43056 0.0
C3287 C 0.22069 0.02125 0.38983 0.0
C3288 C 0.23131 0.02874 0.37684 0.0
H3289 H 0.20138 0.95905 0.26258 0.0
H3290 H 0.20941 0.97615 0.30844 0.0
C3291 C 0.23674 0.03852 0.40312 0.0
C3292 C 0.2149 0.01113 0.35912 0.0
H3293 H 0.20091 0.98391 0.37001 0.0
C3294 C 0.21502 0.01178 0.30404 0.0
C3295 C 0.20982 1.00092 0.3831 0.0
C3296 C 0.20993 0.99953 0.44174 0.0
C3297 C 0.21047 0.00257 0.27237 0.0
C3298 C 0.20522 0.99236 0.29636 0.0
C3299 C 0.20488 0.99172 0.35146 0.0
C3300 C 0.20061 0.98222 0.2656 0.0
C3301 C 0.21178 0.00394 0.21365 0.0
C3302 C 0.19305 0.97991 0.22544 0.0
C3303 C 0.18865 0.97019 0.19804 0.0
C3304 C 0.19148 0.96249 0.21148 0.0
C3305 C 0.19902 0.96482 0.25151 0.0
C3306 C 0.20359 0.97459 0.27792 0.0
H3307 H 0.21855 0.01193 0.20285 0.0
H3308 H 0.21317 0.99773 0.19574 0.0
H3309 H 0.20439 0.00324 0.19644 0.0
H3310 H 0.19038 0.98551 0.216 0.0
H3311 H 0.18273 0.96852 0.16784 0.0
H3312 H 0.95384 0.17662 0.35942 0.0
H3313 H 0.97039 0.18537 0.30898 0.0
H3314 H 0.9868 0.20556 0.44157 0.0
H3315 H 0.97022 0.19645 0.49318 0.0
H3316 H 0.98087 0.20523 0.27916 0.0
H3317 H 0.00828 0.19723 0.39788 0.0
H3318 H 0.99405 0.19047 0.40955 0.0
H3319 H 0.00256 0.20378 0.43435 0.0
C3320 C 0.96101 0.18282 0.37815 0.0
C3321 C 0.96074 0.18586 0.43025 0.0
C3322 C 0.97047 0.18784 0.34921 0.0
C3323 C 0.9799 0.1961 0.37137 0.0
C3324 C 0.97972 0.19905 0.42384 0.0
H3325 H 0.03166 0.24309 0.17604 0.0
H3326 H 0.01613 0.23347 0.23302 0.0
C3327 C 0.97023 0.19388 0.45327 0.0
C3328 C 0.98961 0.202 0.33794 0.0
H3329 H 0.01617 0.20985 0.32845 0.0
C3330 C 0.98857 0.20619 0.28996 0.0
C3331 C 0.99966 0.20317 0.35152 0.0
C3332 C 1.00121 0.19833 0.40087 0.0
C3333 C 0.99723 0.21149 0.25533 0.0
C3334 C 0.00737 0.21301 0.26974 0.0
C3335 C 0.00843 0.20878 0.31757 0.0
C3336 C 0.01695 0.21891 0.23557 0.0
C3337 C 0.99531 0.21514 0.20303 0.0
C3338 C 0.02283 0.21408 0.21916 0.0
C3339 C 0.03184 0.21963 0.18706 0.0
C3340 C 0.03513 0.23013 0.17058 0.0
C3341 C 0.02925 0.23496 0.18724 0.0
C3342 C 0.02033 0.22945 0.21976 0.0
H3343 H 0.98675 0.21052 0.19149 0.0
H3344 H 0.99756 0.22368 0.20582 0.0
H3345 H 1.00017 0.21431 0.17157 0.0
H3346 H 0.02041 0.20597 0.23099 0.0
H3347 H 0.03623 0.2157 0.1752 0.0
H3348 H 0.88566 0.514 0.29896 0.0
H3349 H 0.87586 0.51971 0.2414 0.0
H3350 H 0.90194 0.55227 0.25019 0.0
H3351 H 0.9115 0.5467 0.30942 0.0
H3352 H 0.88421 0.55221 0.25996 0.0
H3353 H 0.87977 0.52666 0.0892 0.0
H3354 H 0.87395 0.51893 0.14735 0.0
H3355 H 0.88817 0.52802 0.14442 0.0
C3356 C 0.88928 0.52237 0.28863 0.0
C3357 C 0.89935 0.52989 0.30889 0.0
C3358 C 0.88372 0.52562 0.25519 0.0
C3359 C 0.88824 0.53641 0.24028 0.0
C3360 C 0.89827 0.5439 0.2608 0.0
H3361 H 0.86491 0.56109 0.98878 0.0
H3362 H 0.87448 0.55398 0.03959 0.0
C3363 C 0.90373 0.5407 0.29485 0.0
C3364 C 0.88238 0.54004 0.20525 0.0
H3365 H 0.86944 0.53543 0.08741 0.0
C3366 C 0.88105 0.54856 0.22212 0.0
C3367 C 0.87839 0.53545 0.15528 0.0
C3368 C 0.88024 0.52684 0.13272 0.0
C3369 C 0.87575 0.5525 0.1911 0.0
C3370 C 0.87123 0.54753 0.14248 0.0
C3371 C 0.87274 0.53914 0.12499 0.0
C3372 C 0.8649 0.55092 0.10973 0.0
C3373 C 0.87529 0.56215 0.21044 0.0
C3374 C 0.85609 0.55118 0.13136 0.0
C3375 C 0.85077 0.55537 0.10285 0.0
C3376 C 0.85394 0.55914 0.05145 0.0
C3377 C 0.8623 0.55824 0.02834 0.0
C3378 C 0.86777 0.5542 0.05738 0.0
H3379 H 0.88191 0.56698 0.2382 0.0
H3380 H 0.87574 0.56738 0.17745 0.0
H3381 H 0.86764 0.55945 0.23166 0.0
H3382 H 0.85346 0.54835 0.17091 0.0
H3383 H 0.84424 0.5558 0.12141 0.0
H3384 H 0.48824 0.38153 0.254 0.0
H3385 H 0.48276 0.36772 0.18616 0.0
H3386 H 0.45668 0.34561 0.28413 0.0
H3387 H 0.46199 0.3593 0.35169 0.0
H3388 H 0.4804 0.34708 0.19024 0.0
H3389 H 0.44179 0.34487 0.14608 0.0
H3390 H 0.45232 0.35581 0.18242 0.0
H3391 H 0.44347 0.34338 0.21472 0.0
C3392 C 0.48134 0.37373 0.26115 0.0
C3393 C 0.4755 0.37157 0.30823 0.0
C3394 C 0.47822 0.36585 0.22229 0.0
C3395 C 0.46918 0.35571 0.22963 0.0
C3396 C 0.46353 0.35346 0.27709 0.0
H3397 H 0.43527 0.29316 0.11751 0.0
H3398 H 0.44375 0.31056 0.1598 0.0
C3399 C 0.46662 0.3613 0.31586 0.0
C3400 C 0.46562 0.34736 0.18827 0.0
H3401 H 0.44359 0.32997 0.11771 0.0
C3402 C 0.47243 0.34347 0.17349 0.0
C3403 C 0.45526 0.34273 0.16603 0.0
C3404 C 0.44783 0.34698 0.17768 0.0
C3405 C 0.46887 0.3346 0.13981 0.0
C3406 C 0.45829 0.32958 0.1203 0.0
C3407 C 0.4517 0.33383 0.13284 0.0
C3408 C 0.45343 0.31913 0.09286 0.0
C3409 C 0.4762 0.33025 0.12762 0.0
C3410 C 0.45605 0.31817 0.04079 0.0
C3411 C 0.45114 0.30812 0.01601 0.0
C3412 C 0.4436 0.29893 0.04318 0.0
C3413 C 0.44106 0.30002 0.09529 0.0
C3414 C 0.44589 0.30999 0.11967 0.0
H3415 H 0.48402 0.33474 0.14803 0.0
H3416 H 0.47233 0.3217 0.1393 0.0
H3417 H 0.47766 0.33067 0.08472 0.0
H3418 H 0.46181 0.32518 0.01933 0.0
H3419 H 0.45324 0.30756 0.97583 0.0
H3420 H 0.70348 0.15401 0.01228 0.0
H3421 H 0.68797 0.14799 0.07024 0.0
H3422 H 0.68243 0.11574 0.06259 0.0
H3423 H 0.69753 0.12162 0.00285 0.0
H3424 H 0.66449 0.11506 0.054 0.0
H3425 H 0.68534 0.14149 0.2225 0.0
H3426 H 0.68684 0.14898 0.16397 0.0
H3427 H 0.69246 0.14032 0.16714 0.0
C3428 C 0.69892 0.14564 0.0229 0.0
C3429 C 0.70173 0.1383 0.00279 0.0
C3430 C 0.69013 0.14221 0.0566 0.0
C3431 C 0.68412 0.13143 0.07202 0.0
C3432 C 0.68691 0.12411 0.05161 0.0
H3433 H 0.63661 0.10691 0.32675 0.0
H3434 H 0.65319 0.11396 0.27513 0.0
C3435 C 0.69556 0.12748 0.01724 0.0
C3436 C 0.67466 0.12761 0.10753 0.0
H3437 H 0.6662 0.13222 0.22501 0.0
C3438 C 0.66492 0.11879 0.09153 0.0
C3439 C 0.67519 0.1323 0.15714 0.0
C3440 C 0.68555 0.14121 0.17898 0.0
C3441 C 0.65572 0.11466 0.12299 0.0
C3442 C 0.65607 0.11975 0.17113 0.0
C3443 C 0.66586 0.12842 0.1878 0.0
C3444 C 0.64632 0.11621 0.20405 0.0
C3445 C 0.64577 0.10472 0.1046 0.0
C3446 C 0.63707 0.11549 0.18207 0.0
C3447 C 0.62761 0.11131 0.21105 0.0
C3448 C 0.62724 0.10803 0.26328 0.0
C3449 C 0.63666 0.10936 0.28654 0.0
C3450 C 0.64612 0.11337 0.25704 0.0
H3451 H 0.64777 0.09991 0.07773 0.0
H3452 H 0.64112 0.09958 0.1381 0.0
H3453 H 0.64063 0.10706 0.0826 0.0
H3454 H 0.63709 0.11799 0.14201 0.0
H3455 H 0.62053 0.11057 0.19231 0.0
H3456 H 0.43247 0.14523 0.61927 0.0
H3457 H 0.44144 0.1369 0.66321 0.0
H3458 H 0.45809 0.13844 0.52024 0.0
H3459 H 0.44908 0.14683 0.47532 0.0
H3460 H 0.44083 0.11686 0.62623 0.0
H3461 H 0.48164 0.15265 0.64148 0.0
H3462 H 0.46988 0.15392 0.63369 0.0
H3463 H 0.47468 0.14959 0.57957 0.0
C3464 C 0.43806 0.14385 0.59696 0.0
C3465 C 0.44007 0.14672 0.54373 0.0
C3466 C 0.44317 0.13908 0.62223 0.0
C3467 C 0.45047 0.13714 0.59506 0.0
C3468 C 0.45255 0.13998 0.54193 0.0
H3469 H 0.48635 0.10993 0.74851 0.0
H3470 H 0.48043 0.11814 0.68204 0.0
C3471 C 0.44737 0.14473 0.51636 0.0
C3472 C 0.45559 0.13188 0.6229 0.0
H3473 H 0.47862 0.13705 0.68546 0.0
C3474 C 0.44913 0.12122 0.63858 0.0
C3475 C 0.46643 0.13759 0.63857 0.0
C3476 C 0.47362 0.14909 0.62278 0.0
C3477 C 0.45313 0.1162 0.67114 0.0
C3478 C 0.46379 0.12209 0.68944 0.0
C3479 C 0.47043 0.13259 0.67162 0.0
C3480 C 0.46786 0.1177 0.73013 0.0
C3481 C 0.44582 0.10467 0.6864 0.0
C3482 C 0.46298 0.11505 0.77962 0.0
C3483 C 0.46631 0.11037 0.81751 0.0
C3484 C 0.47466 0.10829 0.80686 0.0
C3485 C 0.47985 0.11136 0.75791 0.0
C3486 C 0.47649 0.11605 0.71987 0.0
H3487 H 0.43926 0.10046 0.65746 0.0
H3488 H 0.45032 0.10031 0.68981 0.0
H3489 H 0.44213 0.10437 0.72499 0.0
H3490 H 0.45647 0.11648 0.78874 0.0
H3491 H 0.4622 0.10823 0.8549 0.0
H3492 H 0.88563 0.36715 0.81773 0.0
H3493 H 0.87664 0.35038 0.76792 0.0
H3494 H 0.9032 0.36277 0.65982 0.0
H3495 H 0.91184 0.37968 0.70751 0.0
H3496 H 0.88589 0.3533 0.60688 0.0
H3497 H 0.88196 0.32612 0.76938 0.0
H3498 H 0.87525 0.33345 0.78328 0.0
H3499 H 0.88959 0.34045 0.77598 0.0
C3500 C 0.88955 0.36623 0.78352 0.0
C3501 C 0.89943 0.37469 0.76653 0.0
C3502 C 0.88444 0.35662 0.75521 0.0
C3503 C 0.88931 0.35518 0.71047 0.0
C3504 C 0.89925 0.36364 0.69402 0.0
H3505 H 0.87306 0.29387 0.57889 0.0
H3506 H 0.88112 0.31123 0.62248 0.0
C3507 C 0.9042 0.3733 0.72144 0.0
C3508 C 0.88406 0.34501 0.67984 0.0
H3509 H 0.87296 0.31794 0.69028 0.0
C3510 C 0.88312 0.34557 0.62515 0.0
C3511 C 0.88052 0.3349 0.70336 0.0
C3512 C 0.88198 0.33369 0.76111 0.0
C3513 C 0.87891 0.33638 0.59339 0.0
C3514 C 0.87507 0.32625 0.61712 0.0
C3515 C 0.87585 0.32568 0.6719 0.0
C3516 C 0.87067 0.31613 0.58625 0.0
C3517 C 0.87904 0.33775 0.53465 0.0
C3518 C 0.86224 0.31312 0.55022 0.0
C3519 C 0.85785 0.30328 0.52388 0.0
C3520 C 0.86158 0.29617 0.53451 0.0
C3521 C 0.87004 0.29922 0.57006 0.0
C3522 C 0.87461 0.30912 0.59519 0.0
H3523 H 0.88515 0.34597 0.52253 0.0
H3524 H 0.88072 0.33197 0.51402 0.0
H3525 H 0.87112 0.3364 0.52164 0.0
H3526 H 0.85882 0.3182 0.54359 0.0
H3527 H 0.8512 0.30101 0.49727 0.0
H3528 H 0.65042 0.54035 0.86535 0.0
H3529 H 0.66433 0.54648 0.79834 0.0
H3530 H 0.64248 0.52166 0.69383 0.0
H3531 H 0.62846 0.51538 0.76084 0.0
H3532 H 0.66432 0.52509 0.69717 0.0
H3533 H 0.66269 0.56231 0.66487 0.0
H3534 H 0.66447 0.5597 0.73195 0.0
H3535 H 0.65223 0.55082 0.69846 0.0
C3536 C 0.64856 0.53612 0.82832 0.0
C3537 C 0.63826 0.52744 0.81831 0.0
C3538 C 0.65653 0.53966 0.79003 0.0
C3539 C 0.65437 0.53462 0.74095 0.0
C3540 C 0.64427 0.52568 0.73146 0.0
H3541 H 0.69073 0.56265 0.45751 0.0
H3542 H 0.67667 0.55344 0.52267 0.0
C3543 C 0.63627 0.52212 0.76977 0.0
C3544 C 0.66254 0.53902 0.6989 0.0
H3545 H 0.67659 0.5611 0.62211 0.0
C3546 C 0.667 0.53294 0.68057 0.0
C3547 C 0.6659 0.54921 0.67698 0.0
C3548 C 0.66103 0.55588 0.69362 0.0
C3549 C 0.67493 0.53691 0.64143 0.0
C3550 C 0.67851 0.54724 0.62062 0.0
C3551 C 0.67389 0.55321 0.6384 0.0
C3552 C 0.68696 0.55203 0.57991 0.0
C3553 C 0.67931 0.52997 0.62217 0.0
C3554 C 0.69743 0.55427 0.59038 0.0
C3555 C 0.70553 0.55955 0.55312 0.0
C3556 C 0.70331 0.56276 0.50485 0.0
C3557 C 0.69276 0.56033 0.49427 0.0
C3558 C 0.68469 0.55505 0.53146 0.0
H3559 H 0.67395 0.52143 0.63242 0.0
H3560 H 0.68045 0.53066 0.57898 0.0
H3561 H 0.68721 0.53265 0.6407 0.0
H3562 H 0.6994 0.55218 0.62791 0.0
H3563 H 0.71357 0.56132 0.56265 0.0
H3564 H 0.57983 0.87277 0.55783 0.0
H3565 H 0.57012 0.88018 0.5126 0.0
H3566 H 0.54123 0.85805 0.59451 0.0
H3567 H 0.55116 0.85094 0.64203 0.0
H3568 H 0.55462 0.87087 0.44572 0.0
H3569 H 0.54001 0.8848 0.61226 0.0
H3570 H 0.54977 0.88062 0.62066 0.0
H3571 H 0.53578 0.87083 0.61526 0.0
C3572 C 0.57145 0.86961 0.56689 0.0
C3573 C 0.56625 0.86132 0.60356 0.0
C3574 C 0.56588 0.87381 0.54081 0.0
C3575 C 0.55493 0.86974 0.55011 0.0
C3576 C 0.54972 0.86152 0.5874 0.0
H3577 H 0.51876 0.88528 0.32025 0.0
H3578 H 0.52601 0.87571 0.36953 0.0
C3579 C 0.55538 0.85744 0.61447 0.0
C3580 C 0.54905 0.87387 0.51869 0.0
H3581 H 0.53375 0.88575 0.52784 0.0
C3582 C 0.55006 0.87413 0.46375 0.0
C3583 C 0.54313 0.87817 0.54204 0.0
C3584 C 0.54217 0.8787 0.60078 0.0
C3585 C 0.54561 0.87883 0.43171 0.0
C3586 C 0.53959 0.88303 0.45501 0.0
C3587 C 0.53832 0.8825 0.50985 0.0
C3588 C 0.53514 0.88868 0.42399 0.0
C3589 C 0.54785 0.87966 0.37356 0.0
C3590 C 0.53763 0.89904 0.43862 0.0
C3591 C 0.53331 0.90438 0.41137 0.0
C3592 C 0.52648 0.89955 0.36832 0.0
C3593 C 0.52412 0.88925 0.35282 0.0
C3594 C 0.52829 0.8838 0.38089 0.0
H3595 H 0.55495 0.87886 0.36442 0.0
H3596 H 0.54088 0.87311 0.35299 0.0
H3597 H 0.54925 0.88741 0.35765 0.0
H3598 H 0.54291 0.90302 0.47146 0.0
H3599 H 0.5353 0.91232 0.42416 0.0
H3600 H 0.13854 0.69758 0.65434 0.0
H3601 H 0.12919 0.68087 0.60402 0.0
H3602 H 0.15123 0.69581 0.47563 0.0
H3603 H 0.16024 0.71254 0.52469 0.0
H3604 H 0.13173 0.68663 0.44091 0.0
H3605 H 0.13548 0.6576 0.56825 0.0
H3606 H 0.12943 0.66423 0.60113 0.0
H3607 H 0.14311 0.67183 0.57942 0.0
C3608 C 0.1415 0.69719 0.6158 0.0
C3609 C 0.15009 0.70634 0.59331 0.0
C3610 C 0.13618 0.68763 0.5871 0.0
C3611 C 0.13954 0.68702 0.53603 0.0
C3612 C 0.14844 0.69606 0.51478 0.0
H3613 H 0.11733 0.6296 0.3456 0.0
H3614 H 0.12746 0.64523 0.40197 0.0
C3615 C 0.1536 0.70562 0.54291 0.0
C3616 C 0.13337 0.67736 0.50265 0.0
H3617 H 0.12331 0.65034 0.49649 0.0
C3618 C 0.12995 0.67871 0.45307 0.0
C3619 C 0.13111 0.66702 0.5181 0.0
C3620 C 0.13506 0.66507 0.5694 0.0
C3621 C 0.12437 0.67008 0.41863 0.0
C3622 C 0.12175 0.65967 0.4348 0.0
C3623 C 0.12521 0.6583 0.48425 0.0
C3624 C 0.11555 0.65015 0.4007 0.0
C3625 C 0.1216 0.67229 0.36469 0.0
C3626 C 0.10543 0.64763 0.38152 0.0
C3627 C 0.0997 0.63882 0.34858 0.0
C3628 C 0.10388 0.63219 0.33497 0.0
C3629 C 0.11391 0.63458 0.35507 0.0
C3630 C 0.1197 0.64349 0.38749 0.0
H3631 H 0.12695 0.68075 0.3529 0.0
H3632 H 0.12218 0.66703 0.33468 0.0
H3633 H 0.11328 0.67081 0.36493 0.0
H3634 H 0.1019 0.65245 0.3923 0.0
H3635 H 0.09192 0.63711 0.33454 0.0
H3636 H 0.36746 0.48872 0.32429 0.0
H3637 H 0.35053 0.48089 0.37342 0.0
H3638 H 0.3631 0.46746 0.48477 0.0
H3639 H 0.38006 0.47571 0.43786 0.0
H3640 H 0.33583 0.46176 0.39552 0.0
H3641 H 0.35288 0.48116 0.5849 0.0
H3642 H 0.3607 0.48496 0.52553 0.0
H3643 H 0.35917 0.47379 0.56407 0.0
C3644 C 0.36658 0.48413 0.35943 0.0
C3645 C 0.37511 0.48297 0.37778 0.0
C3646 C 0.35693 0.47968 0.38755 0.0
C3647 C 0.35563 0.47386 0.43399 0.0
C3648 C 0.36402 0.47229 0.4506 0.0
H3649 H 0.29568 0.42534 0.56238 0.0
H3650 H 0.31256 0.43604 0.51599 0.0
C3651 C 0.37369 0.47694 0.42337 0.0
C3652 C 0.34543 0.46905 0.46426 0.0
H3653 H 0.3355 0.46515 0.58903 0.0
C3654 C 0.33576 0.46263 0.43775 0.0
C3655 C 0.3452 0.47039 0.51929 0.0
C3656 C 0.35505 0.47806 0.54989 0.0
C3657 C 0.32599 0.45714 0.46485 0.0
C3658 C 0.32593 0.45766 0.52041 0.0
C3659 C 0.33552 0.4645 0.54665 0.0
C3660 C 0.31608 0.45105 0.55193 0.0
C3661 C 0.31585 0.45094 0.4333 0.0
C3662 C 0.31277 0.45573 0.59069 0.0
C3663 C 0.30328 0.44951 0.61881 0.0
C3664 C 0.29688 0.43854 0.60808 0.0
C3665 C 0.3004 0.43381 0.57092 0.0
C3666 C 0.30999 0.43995 0.54385 0.0
H3667 H 0.31672 0.45446 0.3936 0.0
H3668 H 0.31415 0.44261 0.42806 0.0
H3669 H 0.30891 0.45077 0.45303 0.0
H3670 H 0.31738 0.46425 0.59822 0.0
H3671 H 0.30071 0.45336 0.64712 0.0
H3672 H 0.12802 0.43823 0.1824 0.0
H3673 H 0.12263 0.44674 0.11607 0.0
H3674 H 0.14637 0.44779 0.00979 0.0
H3675 H 0.15195 0.43931 0.07648 0.0
H3676 H 0.14551 0.46698 0.01277 0.0
H3677 H 0.10516 0.4318 0.98485 0.0
H3678 H 0.10806 0.43563 0.05244 0.0
H3679 H 0.11579 0.43095 0.01774 0.0
C3680 C 0.13213 0.44025 0.14499 0.0
C3681 C 0.14037 0.43798 0.1347 0.0
C3682 C 0.12898 0.44508 0.10696 0.0
C3683 C 0.13393 0.44769 0.05757 0.0
C3684 C 0.14237 0.44575 0.0475 0.0
H3685 H 0.1158 0.47774 0.8032 0.0
H3686 H 0.12435 0.46871 0.84681 0.0
C3687 C 0.14555 0.4409 0.08568 0.0
C3688 C 0.13022 0.4525 0.01705 0.0
H3689 H 0.10762 0.44866 0.95458 0.0
C3690 C 0.13729 0.4629 0.99914 0.0
C3691 C 0.11951 0.44713 0.99893 0.0
C3692 C 0.11172 0.43572 0.01404 0.0
C3693 C 0.13372 0.46832 0.96625 0.0
C3694 C 0.12287 0.46317 0.95091 0.0
C3695 C 0.11595 0.45259 0.96662 0.0
C3696 C 0.11822 0.46898 0.92385 0.0
C3697 C 0.14139 0.4797 0.95026 0.0
C3698 C 0.11199 0.47209 0.95278 0.0
C3699 C 0.10716 0.47724 0.92829 0.0
C3700 C 0.10839 0.47933 0.87407 0.0
C3701 C 0.11471 0.47626 0.84501 0.0
C3702 C 0.11961 0.47112 0.8698 0.0
H3703 H 0.14955 0.48266 0.96626 0.0
H3704 H 0.14188 0.48026 0.90682 0.0
H3705 H 0.13837 0.485 0.96418 0.0
H3706 H 0.11081 0.47049 0.99449 0.0
H3707 H 0.10236 0.47947 0.95203 0.0
H3708 H 0.56427 0.69921 0.15809 0.0
H3709 H 0.5574 0.68247 0.1081 0.0
H3710 H 0.55234 0.69763 0.97403 0.0
H3711 H 0.55955 0.71436 0.02279 0.0
H3712 H 0.53903 0.6689 0.05872 0.0
H3713 H 0.57133 0.68773 0.91141 0.0
H3714 H 0.57145 0.69438 0.97145 0.0
H3715 H 0.56381 0.6945 0.91582 0.0
C3716 C 0.56159 0.6989 0.1181 0.0
C3717 C 0.56258 0.70812 0.09403 0.0
C3718 C 0.55769 0.68936 0.08954 0.0
C3719 C 0.55465 0.68887 0.03672 0.0
C3720 C 0.55499 0.69789 0.01403 0.0
H3721 H 0.51819 0.63141 0.84708 0.0
H3722 H 0.52391 0.64691 0.9046 0.0
C3723 C 0.55904 0.70744 0.04209 0.0
C3724 C 0.5514 0.6791 0.00459 0.0
H3725 H 0.55659 0.67066 0.88884 0.0
C3726 C 0.54291 0.66926 0.02175 0.0
C3727 C 0.55662 0.6795 0.95684 0.0
C3728 C 0.56638 0.68957 0.93808 0.0
C3729 C 0.53931 0.65988 0.99183 0.0
C3730 C 0.54412 0.66042 0.94256 0.0
C3731 C 0.55277 0.67023 0.92614 0.0
C3732 C 0.54052 0.65093 0.90766 0.0
C3733 C 0.53056 0.64946 0.014 0.0
C3734 C 0.54798 0.64825 0.88824 0.0
C3735 C 0.54479 0.63958 0.85418 0.0
C3736 C 0.53402 0.63332 0.8391 0.0
C3737 C 0.52654 0.63603 0.85828 0.0
C3738 C 0.52978 0.64482 0.89169 0.0
H3739 H 0.53023 0.64977 0.05747 0.0
H3740 H 0.52272 0.64792 0.99856 0.0
H3741 H 0.53169 0.64266 0.00285 0.0
H3742 H 0.55632 0.65284 0.89968 0.0
H3743 H 0.55074 0.63768 0.8404 0.0
H3744 H 0.29185 0.865 0.03195 0.0
H3745 H 0.30921 0.87236 0.98962 0.0
H3746 H 0.32146 0.86352 0.12306 0.0
H3747 H 0.30389 0.85599 0.16626 0.0
H3748 H 0.32971 0.88889 0.0298 0.0
H3749 H 0.32806 0.85005 0.99162 0.0
H3750 H 0.31616 0.85072 0.00602 0.0
H3751 H 0.32556 0.85292 0.05718 0.0
C3752 C 0.2982 0.86459 0.05258 0.0
C3753 C 0.29645 0.85984 0.10245 0.0
C3754 C 0.30814 0.86884 0.02826 0.0
C3755 C 0.31658 0.8684 0.05294 0.0
C3756 C 0.31499 0.86382 0.10311 0.0
H3757 H 0.37791 0.8906 0.88615 0.0
H3758 H 0.36435 0.88307 0.95564 0.0
C3759 C 0.30498 0.85958 0.12781 0.0
C3760 C 0.32695 0.87281 0.02507 0.0
H3761 H 0.34201 0.86539 0.95185 0.0
C3762 C 0.33251 0.88378 0.01353 0.0
C3763 C 0.3306 0.86614 0.00405 0.0
C3764 C 0.32481 0.85429 0.01495 0.0
C3765 C 0.34135 0.88818 0.97964 0.0
C3766 C 0.34459 0.8814 0.95596 0.0
C3767 C 0.33944 0.87054 0.96986 0.0
C3768 C 0.35264 0.88531 0.91325 0.0
C3769 C 0.34697 0.90002 0.96825 0.0
C3770 C 0.3504 0.88875 0.86593 0.0
C3771 C 0.35808 0.89301 0.82625 0.0
C3772 C 0.36817 0.89392 0.83297 0.0
C3773 C 0.37025 0.89008 0.87975 0.0
C3774 C 0.36252 0.88578 0.91952 0.0
H3775 H 0.34558 0.90449 0.99984 0.0
H3776 H 0.35572 0.90333 0.96366 0.0
H3777 H 0.34382 0.90137 0.93108 0.0
H3778 H 0.34274 0.88827 0.85996 0.0
H3779 H 0.35614 0.89579 0.79071 0.0
H3780 H 0.29449 0.22657 0.04145 0.0
H3781 H 0.31383 0.23889 0.04018 0.0
H3782 H 0.31727 0.21994 0.91919 0.0
H3783 H 0.29795 0.20784 0.9189 0.0
H3784 H 0.32878 0.23342 0.06502 0.0
H3785 H 0.33628 0.24981 0.86377 0.0
H3786 H 0.32306 0.24299 0.8923 0.0
H3787 H 0.32869 0.23548 0.86374 0.0
C3788 C 0.29932 0.22521 0.01343 0.0
C3789 C 0.29466 0.21622 0.98024 0.0
C3790 C 0.31039 0.23221 0.01306 0.0
C3791 C 0.317 0.23041 0.97923 0.0
C3792 C 0.31233 0.22164 0.94489 0.0
H3793 H 0.38097 0.24511 0.93861 0.0
H3794 H 0.36183 0.23877 0.93928 0.0
C3795 C 0.30128 0.21465 0.94519 0.0
C3796 C 0.32884 0.23704 0.98302 0.0
H3797 H 0.35144 0.25079 0.90906 0.0
C3798 C 0.33374 0.23741 0.0312 0.0
C3799 C 0.33531 0.24226 0.9389 0.0
C3800 C 0.33056 0.24271 0.88692 0.0
C3801 C 0.34492 0.24232 0.03566 0.0
C3802 C 0.35134 0.24706 0.99089 0.0
C3803 C 0.34647 0.2471 0.94329 0.0
C3804 C 0.36303 0.25114 0.99138 0.0
C3805 C 0.34976 0.24193 0.08746 0.0
C3806 C 0.37007 0.26025 0.02041 0.0
C3807 C 0.38108 0.26389 0.02038 0.0
C3808 C 0.38519 0.25842 0.99153 0.0
C3809 C 0.37807 0.24936 0.96227 0.0
C3810 C 0.36713 0.24578 0.96214 0.0
H3811 H 0.3436 0.23667 0.11634 0.0
H3812 H 0.3555 0.239 0.08179 0.0
H3813 H 0.35425 0.25011 0.1042 0.0
H3814 H 0.36706 0.26456 0.04281 0.0
H3815 H 0.38637 0.2709 0.04317 0.0
H3816 H 0.78496 0.07561 0.09752 0.0
H3817 H 0.77184 0.08158 0.09792 0.0
H3818 H 0.77225 0.08233 0.92883 0.0
H3819 H 0.78548 0.07634 0.92822 0.0
H3820 H 0.77752 0.10166 0.05224 0.0
H3821 H 0.73991 0.06879 0.9676 0.0
H3822 H 0.75012 0.06658 0.99605 0.0
H3823 H 0.75197 0.0723 0.93175 0.0
C3824 C 0.7821 0.07685 0.06037 0.0
C3825 C 0.78632 0.07563 0.01281 0.0
C3826 C 0.77458 0.08022 0.06069 0.0
C3827 C 0.77105 0.08237 0.01348 0.0
C3828 C 0.77475 0.08056 0.96571 0.0
H3829 H 0.74065 0.11689 0.91478 0.0
H3830 H 0.74694 0.10419 0.92656 0.0
C3831 C 0.78231 0.07715 0.96535 0.0
C3832 C 0.76468 0.08784 0.01481 0.0
H3833 H 0.74089 0.08563 0.97851 0.0
C3834 C 0.76946 0.09812 0.03669 0.0
C3835 C 0.75422 0.0832 0.9942 0.0
C3836 C 0.74868 0.07207 0.97138 0.0
C3837 C 0.7642 0.10408 0.03695 0.0
C3838 C 0.75372 0.09948 0.01613 0.0
C3839 C 0.74887 0.08909 0.99502 0.0
C3840 C 0.74821 0.10579 0.01102 0.0
C3841 C 0.77017 0.11543 0.05717 0.0
C3842 C 0.74633 0.11055 0.05484 0.0
C3843 C 0.74286 0.11797 0.04813 0.0
C3844 C 0.74115 0.12066 0.99749 0.0
C3845 C 0.74214 0.11516 0.95423 0.0
C3846 C 0.74566 0.10784 0.96091 0.0
H3847 H 0.7789 0.11849 0.06041 0.0
H3848 H 0.76892 0.12087 0.03109 0.0
H3849 H 0.76715 0.11572 0.0968 0.0
H3850 H 0.74799 0.10887 0.09403 0.0
H3851 H 0.74211 0.12203 0.0822 0.0
H3852 H 0.86371 0.62305 0.05154 0.0
H3853 H 0.87606 0.6423 0.05266 0.0
H3854 H 0.9004 0.63753 0.98074 0.0
H3855 H 0.88789 0.61832 0.97641 0.0
H3856 H 0.89512 0.65526 0.09532 0.0
H3857 H 0.89893 0.65791 0.87847 0.0
H3858 H 0.88926 0.64589 0.91159 0.0
H3859 H 0.90303 0.64922 0.90756 0.0
C3860 C 0.87167 0.62607 0.03573 0.0
C3861 C 0.8747 0.61908 0.01309 0.0
C3862 C 0.87877 0.6371 0.03678 0.0
C3863 C 0.88909 0.64142 0.01554 0.0
C3864 C 0.89239 0.63443 0.99603 0.0
H3865 H 0.93415 0.71039 0.05774 0.0
H3866 H 0.92645 0.69097 0.05894 0.0
C3867 C 0.88525 0.62339 0.99441 0.0
C3868 C 0.89616 0.65324 0.01232 0.0
H3869 H 0.9093 0.67387 0.92579 0.0
C3870 C 0.89827 0.65933 0.0583 0.0
C3871 C 0.90016 0.65857 0.96385 0.0
C3872 C 0.89766 0.65259 0.91247 0.0
C3873 C 0.90409 0.67057 0.05712 0.0
C3874 C 0.9082 0.6759 0.00874 0.0
C3875 C 0.90625 0.6698 0.96292 0.0
C3876 C 0.91374 0.68777 0.00408 0.0
C3877 C 0.90533 0.67662 0.10739 0.0
C3878 C 0.90959 0.6925 0.97043 0.0
C3879 C 0.91415 0.70361 0.96859 0.0
C3880 C 0.92293 0.71028 1.00068 0.0
C3881 C 0.92742 0.70554 0.03237 0.0
C3882 C 0.92291 0.6944 0.03377 0.0
H3883 H 0.89948 0.67146 0.13767 0.0
H3884 H 0.91348 0.67955 0.1234 0.0
H3885 H 0.90426 0.68362 0.10041 0.0
H3886 H 0.9026 0.68758 0.94662 0.0
H3887 H 0.91062 0.70696 0.94278 0.0
H3888 H 0.26219 0.37894 0.7268 0.0
H3889 H 0.25404 0.35948 0.7236 0.0
H3890 H 0.23815 0.35875 0.57903 0.0
H3891 H 0.24607 0.37821 0.58292 0.0
H3892 H 0.22449 0.34457 0.64447 0.0
H3893 H 0.2602 0.3398 0.63977 0.0
H3894 H 0.26039 0.34762 0.69485 0.0
H3895 H 0.261 0.35254 0.6293 0.0
C3896 C 0.25714 0.37465 0.69374 0.0
C3897 C 0.2548 0.38011 0.65499 0.0
C3898 C 0.2525 0.36351 0.69185 0.0
C3899 C 0.24559 0.35761 0.65063 0.0
C3900 C 0.24347 0.3631 0.61119 0.0
H3901 H 0.21957 0.28948 0.5907 0.0
H3902 H 0.23049 0.30904 0.59165 0.0
C3903 C 0.24799 0.37422 0.61342 0.0
C3904 C 0.23991 0.3457 0.65075 0.0
H3905 H 0.24356 0.32411 0.66054 0.0
C3906 C 0.22869 0.34011 0.6476 0.0
C3907 C 0.24535 0.33983 0.65422 0.0
C3908 C 0.2574 0.34526 0.65416 0.0
C3909 C 0.22276 0.32889 0.64858 0.0
C3910 C 0.22817 0.32303 0.65469 0.0
C3911 C 0.2394 0.32859 0.65681 0.0
C3912 C 0.22227 0.31113 0.6576 0.0
C3913 C 0.21078 0.32344 0.64188 0.0
C3914 C 0.21428 0.30576 0.69561 0.0
C3915 C 0.20798 0.2946 0.69483 0.0
C3916 C 0.20969 0.28857 0.65673 0.0
C3917 C 0.21812 0.29391 0.62076 0.0
C3918 C 0.22433 0.30509 0.62114 0.0
H3919 H 0.20833 0.32876 0.62229 0.0
H3920 H 0.20771 0.316 0.61846 0.0
H3921 H 0.20691 0.32134 0.68104 0.0
H3922 H 0.21275 0.31021 0.72516 0.0
H3923 H 0.20163 0.29069 0.72341 0.0
H3924 H 0.71125 0.90641 0.60987 0.0
H3925 H 0.69203 0.89954 0.61133 0.0
H3926 H 0.69681 0.92615 0.70753 0.0
H3927 H 0.71622 0.93314 0.70629 0.0
H3928 H 0.6788 0.8934 0.69794 0.0
H3929 H 0.67741 0.92614 0.58962 0.0
H3930 H 0.6891 0.92463 0.5898 0.0
H3931 H 0.68607 0.93016 0.64591 0.0
C3932 C 0.70824 0.91078 0.6318 0.0
C3933 C 0.71528 0.92027 0.65849 0.0
C3934 C 0.69724 0.90688 0.63224 0.0
C3935 C 0.69298 0.91237 0.65912 0.0
C3936 C 0.69994 0.92188 0.68573 0.0
H3937 H 0.62485 0.88864 0.71622 0.0
H3938 H 0.64439 0.89987 0.71721 0.0
C3939 C 0.71101 0.92584 0.68517 0.0
C3940 C 0.6812 0.9078 0.66042 0.0
H3941 H 0.66092 0.9119 0.61999 0.0
C3942 C 0.67491 0.89748 0.68115 0.0
C3943 C 0.67613 0.91314 0.63849 0.0
C3944 C 0.68249 0.92409 0.61428 0.0
C3945 C 0.66371 0.89229 0.67981 0.0
C3946 C 0.65865 0.89752 0.65692 0.0
C3947 C 0.66488 0.90794 0.63743 0.0
C3948 C 0.64688 0.89195 0.65129 0.0
C3949 C 0.6573 0.88116 0.70219 0.0
C3950 C 0.64186 0.88404 0.61281 0.0
C3951 C 0.63072 0.87767 0.61185 0.0
C3952 C 0.6244 0.87906 0.64954 0.0
C3953 C 0.62946 0.88741 0.68628 0.0
C3954 C 0.64062 0.89381 0.68711 0.0
H3955 H 0.66235 0.87882 0.72518 0.0
H3956 H 0.65081 0.88058 0.72782 0.0
H3957 H 0.6535 0.87534 0.66966 0.0
H3958 H 0.64659 0.88254 0.58474 0.0
H3959 H 0.62707 0.87141 0.58259 0.0
H3960 H 0.0695 0.77596 0.6824 0.0
H3961 H 0.07711 0.764 0.67953 0.0
H3962 H 0.09713 0.782 0.54954 0.0
H3963 H 0.08962 0.79387 0.55218 0.0
H3964 H 0.08124 0.75226 0.5806 0.0
H3965 H 0.11652 0.78437 0.68561 0.0
H3966 H 0.10343 0.78308 0.68903 0.0
H3967 H 0.11147 0.78848 0.63126 0.0
C3968 C 0.07533 0.77716 0.65248 0.0
C3969 C 0.07909 0.78589 0.61795 0.0
C3970 C 0.07966 0.77036 0.65089 0.0
C3971 C 0.08773 0.77221 0.61456 0.0
C3972 C 0.09095 0.78049 0.57796 0.0
H3973 H 0.13756 0.75719 0.56845 0.0
H3974 H 0.12484 0.76368 0.56287 0.0
C3975 C 0.08668 0.78727 0.57965 0.0
C3976 C 0.09372 0.76638 0.61783 0.0
H3977 H 0.11823 0.77011 0.65135 0.0
C3978 C 0.08928 0.75606 0.59656 0.0
C3979 C 0.1042 0.77143 0.63852 0.0
C3980 C 0.10921 0.78243 0.66279 0.0
C3981 C 0.09526 0.75079 0.59395 0.0
C3982 C 0.10586 0.75597 0.61359 0.0
C3983 C 0.11015 0.76618 0.63592 0.0
C3984 C 0.11279 0.7511 0.6112 0.0
C3985 C 0.09035 0.7399 0.56866 0.0
C3986 C 0.11016 0.74176 0.63942 0.0
C3987 C 0.11743 0.73803 0.6427 0.0
C3988 C 0.1275 0.74364 0.61814 0.0
C3989 C 0.12991 0.75274 0.58815 0.0
C3990 C 0.12264 0.75644 0.58482 0.0
H3991 H 0.08318 0.73812 0.54496 0.0
H3992 H 0.09624 0.73929 0.54305 0.0
H3993 H 0.08784 0.73372 0.59968 0.0
H3994 H 0.10271 0.73763 0.66098 0.0
H3995 H 0.11539 0.73111 0.66688 0.0
H3996 H 0.62222 0.73793 0.20468 0.0
H3997 H 0.64171 0.74618 0.20951 0.0
H3998 H 0.64498 0.76711 0.08129 0.0
H3999 H 0.62549 0.75921 0.07824 0.0
H4000 H 0.65738 0.74863 0.1491 0.0
H4001 H 0.66281 0.78874 0.18826 0.0
H4002 H 0.64979 0.7769 0.18649 0.0
H4003 H 0.65636 0.78354 0.1265 0.0
C4004 C 0.62711 0.74419 0.17702 0.0
C4005 C 0.62237 0.74798 0.14123 0.0
C4006 C 0.63825 0.74893 0.17992 0.0
C4007 C 0.64487 0.7575 0.14679 0.0
C4008 C 0.64009 0.76079 0.10857 0.0
H4009 H 0.71335 0.7832 0.10389 0.0
H4010 H 0.69384 0.77231 0.10101 0.0
C4011 C 0.62896 0.7562 0.10639 0.0
C4012 C 0.65673 0.7632 0.15352 0.0
H4013 H 0.67859 0.78801 0.17038 0.0
C4014 C 0.66201 0.75724 0.15403 0.0
C4015 C 0.6628 0.77441 0.16137 0.0
C4016 C 0.65763 0.78125 0.16624 0.0
C4017 C 0.67316 0.76218 0.16112 0.0
C4018 C 0.67928 0.77347 0.16595 0.0
C4019 C 0.67397 0.77938 0.16625 0.0
C4020 C 0.6912 0.77939 0.17025 0.0
C4021 C 0.67816 0.75519 0.16467 0.0
C4022 C 0.69632 0.78718 0.20951 0.0
C4023 C 0.70748 0.7936 0.21034 0.0
C4024 C 0.71376 0.79225 0.17245 0.0
C4025 C 0.7087 0.78424 0.13427 0.0
C4026 C 0.69753 0.77797 0.13276 0.0
H4027 H 0.67231 0.74705 0.17887 0.0
H4028 H 0.68083 0.75433 0.12507 0.0
H4029 H 0.68517 0.75867 0.19139 0.0
H4030 H 0.69166 0.78848 0.23886 0.0
H4031 H 0.71119 0.79977 0.24 0.0
H4032 H 0.26372 0.88638 0.22135 0.0
H4033 H 0.25506 0.89728 0.22174 0.0
H4034 H 0.238 0.88161 0.08033 0.0
H4035 H 0.24641 0.87049 0.08067 0.0
H4036 H 0.2538 0.91133 0.15648 0.0
H4037 H 0.21369 0.87541 0.17807 0.0
H4038 H 0.22586 0.87485 0.18363 0.0
H4039 H 0.22049 0.87497 0.12005 0.0
C4040 C 0.25826 0.8854 0.18985 0.0
C4041 C 0.25567 0.87752 0.15121 0.0
C4042 C 0.25329 0.8916 0.19023 0.0
C4043 C 0.24566 0.89008 0.15186 0.0
C4044 C 0.2436 0.8827 0.11128 0.0
H4045 H 0.21789 0.93049 0.09203 0.0
H4046 H 0.22941 0.92257 0.09413 0.0
C4047 C 0.24846 0.87641 0.11127 0.0
C4048 C 0.23953 0.89583 0.15556 0.0
H4049 H 0.21413 0.89179 0.16121 0.0
C4050 C 0.24512 0.90706 0.15771 0.0
C4051 C 0.22821 0.89027 0.15842 0.0
C4052 C 0.22171 0.87822 0.1605 0.0
C4053 C 0.2397 0.91287 0.1615 0.0
C4054 C 0.22836 0.90732 0.16178 0.0
C4055 C 0.22281 0.89608 0.16057 0.0
C4056 C 0.22202 0.91288 0.16305 0.0
C4057 C 0.2462 0.92489 0.16626 0.0
C4058 C 0.21389 0.91001 0.20057 0.0
C4059 C 0.20717 0.91439 0.19885 0.0
C4060 C 0.20849 0.92183 0.15981 0.0
C4061 C 0.21681 0.92494 0.12319 0.0
C4062 C 0.22344 0.92043 0.12447 0.0
H4063 H 0.25428 0.92751 0.1826 0.0
H4064 H 0.24729 0.9285 0.12673 0.0
H4065 H 0.24215 0.92803 0.19167 0.0
H4066 H 0.2126 0.90419 0.23068 0.0
H4067 H 0.20083 0.91186 0.22762 0.0
H4068 H 0.06967 0.28759 0.1133 0.0
H4069 H 0.077 0.30676 0.12769 0.0
H4070 H 0.09071 0.30456 0.27414 0.0
H4071 H 0.08335 0.28527 0.25982 0.0
H4072 H 0.077 0.32054 0.21758 0.0
H4073 H 0.11614 0.32368 0.16946 0.0
H4074 H 0.10353 0.31185 0.15494 0.0
H4075 H 0.10839 0.3146 0.22112 0.0
C4076 C 0.07398 0.29115 0.14933 0.0
C4077 C 0.07602 0.28502 0.18536 0.0
C4078 C 0.07813 0.30208 0.15753 0.0
C4079 C 0.08447 0.30706 0.20165 0.0
C4080 C 0.08585 0.30082 0.23976 0.0
H4081 H 0.13216 0.37362 0.2442 0.0
H4082 H 0.12007 0.35446 0.25542 0.0
C4083 C 0.08161 0.28983 0.23174 0.0
C4084 C 0.0908 0.31888 0.20354 0.0
H4085 H 0.11609 0.33966 0.1839 0.0
C4086 C 0.08557 0.32477 0.21074 0.0
C4087 C 0.10194 0.32431 0.19392 0.0
C4088 C 0.10788 0.31834 0.18403 0.0
C4089 C 0.09125 0.33602 0.20923 0.0
C4090 C 0.10238 0.34145 0.19891 0.0
C4091 C 0.10757 0.33551 0.19195 0.0
C4092 C 0.10895 0.35329 0.19529 0.0
C4093 C 0.08531 0.34197 0.21945 0.0
C4094 C 0.10667 0.35907 0.15807 0.0
C4095 C 0.11357 0.3701 0.15188 0.0
C4096 C 0.12295 0.37543 0.18202 0.0
C4097 C 0.12507 0.36966 0.21984 0.0
C4098 C 0.11814 0.35873 0.22646 0.0
H4099 H 0.07777 0.33696 0.24144 0.0
H4100 H 0.09032 0.34943 0.24195 0.0
H4101 H 0.08318 0.34415 0.18142 0.0
H4102 H 0.09976 0.35501 0.1327 0.0
H4103 H 0.11178 0.37438 0.1224 0.0
H4104 H 0.75708 0.62966 0.55336 0.0
H4105 H 0.76455 0.64902 0.54786 0.0
H4106 H 0.7447 0.64481 0.41334 0.0
H4107 H 0.73732 0.62542 0.41808 0.0
H4108 H 0.76641 0.65931 0.39698 0.0
H4109 H 0.75241 0.66872 0.58091 0.0
H4110 H 0.75841 0.66057 0.59127 0.0
H4111 H 0.74624 0.65537 0.5539 0.0
C4112 C 0.75419 0.63284 0.5231 0.0
C4113 C 0.74661 0.62601 0.48616 0.0
C4114 C 0.7584 0.6439 0.52025 0.0
C4115 C 0.7551 0.64835 0.4805 0.0
C4116 C 0.74729 0.64153 0.44456 0.0
H4117 H 0.78337 0.71843 0.47618 0.0
H4118 H 0.76997 0.69938 0.4659 0.0
C4119 C 0.74303 0.63045 0.44756 0.0
C4120 C 0.7606 0.66013 0.47369 0.0
H4121 H 0.76763 0.68337 0.53912 0.0
C4122 C 0.76653 0.66457 0.42767 0.0
C4123 C 0.76066 0.66699 0.51343 0.0
C4124 C 0.754 0.66268 0.56246 0.0
C4125 C 0.77301 0.67569 0.42168 0.0
C4126 C 0.77362 0.68252 0.46294 0.0
C4127 C 0.76721 0.67811 0.50764 0.0
C4128 C 0.7816 0.69411 0.46277 0.0
C4129 C 0.77932 0.68002 0.37173 0.0
C4130 C 0.79255 0.69744 0.46374 0.0
C4131 C 0.80016 0.70824 0.46976 0.0
C4132 C 0.79697 0.71594 0.4749 0.0
C4133 C 0.78603 0.71267 0.47174 0.0
C4134 C 0.77839 0.70181 0.46621 0.0
H4135 H 0.77566 0.67428 0.33875 0.0
H4136 H 0.77992 0.68774 0.36058 0.0
H4137 H 0.78754 0.68143 0.37776 0.0
H4138 H 0.7952 0.69162 0.46197 0.0
H4139 H 0.80854 0.71054 0.47201 0.0
H4140 H 0.29035 0.07215 0.55586 0.0
H4141 H 0.30989 0.08036 0.55486 0.0
H4142 H 0.31191 0.10247 0.43573 0.0
H4143 H 0.29243 0.09429 0.43614 0.0
H4144 H 0.32538 0.08449 0.47199 0.0
H4145 H 0.32977 0.12162 0.56008 0.0
H4146 H 0.31722 0.10916 0.55957 0.0
H4147 H 0.32172 0.11737 0.50174 0.0
C4148 C 0.29493 0.07861 0.52862 0.0
C4149 C 0.28982 0.08264 0.49642 0.0
C4150 C 0.3061 0.08332 0.52832 0.0
C4151 C 0.31235 0.09215 0.49597 0.0
C4152 C 0.30724 0.0958 0.46178 0.0
H4153 H 0.37721 0.1378 0.42896 0.0
H4154 H 0.35792 0.12612 0.43516 0.0
C4155 C 0.29611 0.09112 0.46207 0.0
C4156 C 0.32421 0.09795 0.49961 0.0
H4157 H 0.34561 0.12251 0.52722 0.0
C4158 C 0.32983 0.09276 0.48455 0.0
C4159 C 0.32998 0.10872 0.51656 0.0
C4160 C 0.32438 0.11453 0.53591 0.0
C4161 C 0.3411 0.09825 0.48356 0.0
C4162 C 0.34684 0.10914 0.49869 0.0
C4163 C 0.3412 0.11418 0.5154 0.0
C4164 C 0.35867 0.11574 0.49403 0.0
C4165 C 0.34678 0.09252 0.46437 0.0
C4166 C 0.36555 0.11377 0.52504 0.0
C4167 C 0.37669 0.12054 0.5219 0.0
C4168 C 0.38109 0.12943 0.48805 0.0
C4169 C 0.37412 0.1312 0.45646 0.0
C4170 C 0.36307 0.12447 0.45961 0.0
H4171 H 0.34119 0.08473 0.44577 0.0
H4172 H 0.3531 0.09754 0.43562 0.0
H4173 H 0.35071 0.091 0.49803 0.0
H4174 H 0.36232 0.10715 0.55243 0.0
H4175 H 0.38183 0.11897 0.54681 0.0
H4176 H 0.8683 0.24203 0.55239 0.0
H4177 H 0.87914 0.23336 0.55008 0.0
H4178 H 0.8981 0.2543 0.42467 0.0
H4179 H 0.88724 0.26298 0.42642 0.0
H4180 H 0.88069 0.22273 0.4607 0.0
H4181 H 0.92084 0.25493 0.52505 0.0
H4182 H 0.90878 0.25546 0.53732 0.0
H4183 H 0.91468 0.25837 0.47312 0.0
C4184 C 0.87485 0.24488 0.5247 0.0
C4185 C 0.87688 0.25319 0.48953 0.0
C4186 C 0.88106 0.23993 0.52352 0.0
C4187 C 0.88948 0.24322 0.48743 0.0
C4188 C 0.89178 0.25176 0.45351 0.0
H4189 H 0.92884 0.21343 0.42073 0.0
H4190 H 0.92122 0.22534 0.41664 0.0
C4191 C 0.88557 0.25673 0.45465 0.0
C4192 C 0.89517 0.23706 0.48258 0.0
H4193 H 0.91946 0.23862 0.49767 0.0
C4194 C 0.88917 0.22622 0.46872 0.0
C4195 C 0.90627 0.24166 0.49231 0.0
C4196 C 0.91305 0.25322 0.50816 0.0
C4197 C 0.89391 0.2198 0.46513 0.0
C4198 C 0.90492 0.22428 0.47664 0.0
C4199 C 0.91102 0.23521 0.48893 0.0
C4200 C 0.90996 0.2175 0.47984 0.0
C4201 C 0.88706 0.20824 0.44912 0.0
C4202 C 0.90633 0.20934 0.51743 0.0
C4203 C 0.91064 0.20259 0.51988 0.0
C4204 C 0.91871 0.20382 0.48479 0.0
C4205 C 0.9226 0.21223 0.44813 0.0
C4206 C 0.91826 0.21903 0.44571 0.0
H4207 H 0.87981 0.20688 0.4274 0.0
H4208 H 0.89163 0.20561 0.42417 0.0
H4209 H 0.8844 0.20316 0.48479 0.0
H4210 H 0.90013 0.20818 0.54499 0.0
H4211 H 0.90768 0.19644 0.54976 0.0
H4212 H 0.04444 0.58517 0.38949 0.0
H4213 H 0.02505 0.57832 0.39226 0.0
H4214 H 0.02674 0.59267 0.2417 0.0
H4215 H 0.04605 0.59948 0.23869 0.0
H4216 H 0.01172 0.59341 0.32475 0.0
H4217 H 0.00704 0.55353 0.27997 0.0
H4218 H 0.01554 0.56076 0.33443 0.0
H4219 H 0.01944 0.56585 0.26912 0.0
C4220 C 0.04071 0.58713 0.35789 0.0
C4221 C 0.04668 0.59278 0.31378 0.0
C4222 C 0.02966 0.58318 0.35934 0.0
C4223 C 0.0245 0.58493 0.31692 0.0
C4224 C 0.03059 0.59126 0.27475 0.0
H4225 H 0.95761 0.54331 0.23249 0.0
H4226 H 0.97686 0.55631 0.22534 0.0
C4227 C 0.04159 0.59512 0.27307 0.0
C4228 C 0.01269 0.57915 0.31335 0.0
H4229 H 0.99126 0.55429 0.29214 0.0
C4230 C 0.00722 0.58486 0.31768 0.0
C4231 C 0.00691 0.56805 0.3029 0.0
C4232 C 0.01248 0.56164 0.29591 0.0
C4233 C 0.99601 0.57965 0.31327 0.0
C4234 C 0.9902 0.56849 0.30435 0.0
C4235 C 0.99574 0.56286 0.29875 0.0
C4236 C 0.97835 0.56226 0.30466 0.0
C4237 C 0.99047 0.58612 0.31799 0.0
C4238 C 0.97281 0.56151 0.35107 0.0
C4239 C 0.96191 0.55411 0.35515 0.0
C4240 C 0.95635 0.54735 0.31289 0.0
C4241 C 0.96172 0.54854 0.26531 0.0
C4242 C 0.97269 0.5559 0.26136 0.0
H4243 H 0.99603 0.59473 0.30989 0.0
H4244 H 0.98357 0.58313 0.29065 0.0
H4245 H 0.9874 0.58542 0.35857 0.0
H4246 H 0.97704 0.56616 0.38524 0.0
H4247 H 0.95793 0.55328 0.39232 0.0
H4248 H 0.40197 0.45114 0.28716 0.0
H4249 H 0.40891 0.43879 0.29294 0.0
H4250 H 0.43455 0.46115 0.39242 0.0
H4251 H 0.4275 0.47341 0.38796 0.0
H4252 H 0.4289 0.44329 0.2585 0.0
H4253 H 0.42429 0.43294 0.4695 0.0
H4254 H 0.41729 0.43888 0.4382 0.0
H4255 H 0.431 0.4471 0.45832 0.0
C4256 C 0.40891 0.4533 0.31148 0.0
C4257 C 0.41416 0.46325 0.33728 0.0
C4258 C 0.41291 0.44626 0.31439 0.0
C4259 C 0.42218 0.44898 0.34356 0.0
C4260 C 0.42727 0.45878 0.37049 0.0
H4261 H 0.47 0.43195 0.38488 0.0
H4262 H 0.45788 0.43911 0.3845 0.0
C4263 C 0.42329 0.46583 0.3675 0.0
C4264 C 0.42707 0.44205 0.34244 0.0
H4265 H 0.43666 0.42964 0.42139 0.0
C4266 C 0.43044 0.44014 0.29398 0.0
C4267 C 0.42905 0.43793 0.38875 0.0
C4268 C 0.42512 0.43922 0.44158 0.0
C4269 C 0.43625 0.43473 0.29091 0.0
C4270 C 0.43861 0.43099 0.3375 0.0
C4271 C 0.43487 0.43254 0.38572 0.0
C4272 C 0.44572 0.42631 0.33763 0.0
C4273 C 0.44029 0.43353 0.2382 0.0
C4274 C 0.44287 0.41666 0.31172 0.0
C4275 C 0.44987 0.41256 0.31145 0.0
C4276 C 0.45983 0.41806 0.33704 0.0
C4277 C 0.46252 0.42762 0.36369 0.0
C4278 C 0.45555 0.43169 0.36399 0.0
H4279 H 0.43945 0.43854 0.2076 0.0
H4280 H 0.44884 0.43576 0.24074 0.0
H4281 H 0.43565 0.42505 0.22555 0.0
H4282 H 0.43525 0.4123 0.29177 0.0
H4283 H 0.44755 0.40517 0.29068 0.0
H4284 H 0.57383 0.04478 0.38457 0.0
H4285 H 0.56628 0.02551 0.37807 0.0
H4286 H 0.58775 0.02991 0.25071 0.0
H4287 H 0.59533 0.04939 0.25639 0.0
H4288 H 0.55629 0.01288 0.28704 0.0
H4289 H 0.59113 0.00937 0.35409 0.0
H4290 H 0.59006 0.02111 0.36693 0.0
H4291 H 0.59348 0.01881 0.30249 0.0
C4292 C 0.57691 0.0417 0.35471 0.0
C4293 C 0.58509 0.04867 0.3204 0.0
C4294 C 0.57263 0.03066 0.3514 0.0
C4295 C 0.57648 0.02627 0.31414 0.0
C4296 C 0.58476 0.03315 0.28025 0.0
H4297 H 0.55297 0.95827 0.25209 0.0
H4298 H 0.56375 0.97785 0.25255 0.0
C4299 C 0.58907 0.04427 0.28347 0.0
C4300 C 0.57137 0.01445 0.30991 0.0
H4301 H 0.5754 0.99336 0.33182 0.0
C4302 C 0.56048 0.00861 0.29659 0.0
C4303 C 0.57687 0.00892 0.32208 0.0
C4304 C 0.58852 0.01482 0.33756 0.0
C4305 C 0.55491 0.99739 0.29576 0.0
C4306 C 0.56029 0.99182 0.30977 0.0
C4307 C 0.57127 0.99765 0.32155 0.0
C4308 C 0.55452 0.97996 0.31335 0.0
C4309 C 0.54328 0.9916 0.27964 0.0
C4310 C 0.54601 0.97464 0.34877 0.0
C4311 C 0.53986 0.96348 0.34873 0.0
C4312 C 0.54214 0.95738 0.3135 0.0
C4313 C 0.55104 0.96271 0.28002 0.0
C4314 C 0.55719 0.9739 0.28001 0.0
H4315 H 0.54121 0.99684 0.25658 0.0
H4316 H 0.54132 0.98439 0.25592 0.0
H4317 H 0.53819 0.98899 0.3153 0.0
H4318 H 0.54397 0.97915 0.3757 0.0
H4319 H 0.53318 0.95962 0.37561 0.0
H4320 H 0.40082 0.95463 0.87235 0.0
H4321 H 0.40707 0.97393 0.8711 0.0
H4322 H 0.43243 0.97898 0.76491 0.0
H4323 H 0.42625 0.95988 0.76557 0.0
H4324 H 0.42882 0.9911 0.89815 0.0
H4325 H 0.41732 0.99397 0.6939 0.0
H4326 H 0.41138 0.98152 0.72991 0.0
H4327 H 0.42436 0.9867 0.70046 0.0
C4328 C 0.40769 0.95988 0.84863 0.0
C4329 C 0.4131 0.95576 0.81942 0.0
C4330 C 0.41125 0.97086 0.84797 0.0
C4331 C 0.42011 0.97782 0.81733 0.0
C4332 C 0.42549 0.97372 0.78821 0.0
H4333 H 0.46438 0.04255 0.75005 0.0
H4334 H 0.45213 0.02324 0.75159 0.0
C4335 C 0.42202 0.96281 0.78917 0.0
C4336 C 0.42419 0.98948 0.81704 0.0
H4337 H 0.43028 0.01035 0.73437 0.0
C4338 C 0.42897 0.99533 0.86273 0.0
C4339 C 0.42438 0.99492 0.77063 0.0
C4340 C 0.419 0.98896 0.721 0.0
C4341 C 0.43453 0.00656 0.86243 0.0
C4342 C 0.43508 0.01204 0.81539 0.0
C4343 C 0.42987 0.00614 0.77032 0.0
C4344 C 0.44175 0.02383 0.81113 0.0
C4345 C 0.44028 0.01245 0.91163 0.0
C4346 C 0.43977 0.0306 0.84278 0.0
C4347 C 0.44683 0.04164 0.84243 0.0
C4348 C 0.45596 0.04612 0.81002 0.0
C4349 C 0.45755 0.03935 0.77614 0.0
C4350 C 0.45051 0.02832 0.77672 0.0
H4351 H 0.44095 0.00707 0.94065 0.0
H4352 H 0.44845 0.01907 0.90233 0.0
H4353 H 0.43578 0.01595 0.93027 0.0
H4354 H 0.43294 0.02732 0.86886 0.0
H4355 H 0.44539 0.0466 0.86929 0.0
H4356 H 0.96164 0.42909 0.89126 0.0
H4357 H 0.98092 0.43638 0.88902 0.0
H4358 H 0.97701 0.41306 0.77245 0.0
H4359 H 0.95761 0.40594 0.77272 0.0
H4360 H 0.99263 0.42676 0.91205 0.0
H4361 H 0.9995 0.44084 0.70519 0.0
H4362 H 0.98705 0.43682 0.7388 0.0
H4363 H 0.98997 0.4269 0.71408 0.0
C4364 C 0.96485 0.42561 0.86423 0.0
C4365 C 0.95803 0.41703 0.8314 0.0
C4366 C 0.9759 0.42973 0.8635 0.0
C4367 C 0.98046 0.42538 0.83008 0.0
C4368 C 0.97371 0.41669 0.79784 0.0
H4369 H 0.04884 0.44874 0.77901 0.0
H4370 H 0.02937 0.43699 0.78238 0.0
C4371 C 0.9626 0.41256 0.7984 0.0
C4372 C 0.99227 0.43 0.82983 0.0
H4373 H 0.01456 0.44347 0.75327 0.0
C4374 C 0.99741 0.43035 0.87723 0.0
C4375 C 0.99853 0.43467 0.78438 0.0
C4376 C 0.99352 0.4349 0.73277 0.0
C4377 C 0.00862 0.43539 0.88061 0.0
C4378 C 0.01487 0.44032 0.83556 0.0
C4379 C 0.00974 0.43967 0.78777 0.0
C4380 C 0.02674 0.44679 0.83777 0.0
C4381 C 0.01368 0.43544 0.93246 0.0
C4382 C 0.03174 0.45614 0.86823 0.0
C4383 C 0.04284 0.46285 0.86646 0.0
C4384 C 0.0492 0.46036 0.83412 0.0
C4385 C 0.0442 0.4508 0.80494 0.0
C4386 C 0.03307 0.44413 0.80649 0.0
H4387 H 0.00796 0.42888 0.95845 0.0
H4388 H 0.02087 0.43463 0.92674 0.0
H4389 H 0.01619 0.44314 0.95274 0.0
H4390 H 0.02701 0.45846 0.89201 0.0
H4391 H 0.04645 0.47014 0.88943 0.0
H4392 H 0.6048 0.55551 0.9027 0.0
H4393 H 0.5977 0.56773 0.90869 0.0
H4394 H 0.57645 0.55151 0.77931 0.0
H4395 H 0.58372 0.53947 0.77195 0.0
H4396 H 0.5859 0.57405 0.7762 0.0
H4397 H 0.56769 0.55719 0.97049 0.0
H4398 H 0.58187 0.56244 0.96521 0.0
H4399 H 0.57285 0.55081 0.92806 0.0
C4400 C 0.59879 0.55469 0.87468 0.0
C4401 C 0.59476 0.54645 0.83705 0.0
C4402 C 0.59467 0.56161 0.87859 0.0
C4403 C 0.58641 0.56039 0.84511 0.0
C4404 C 0.58277 0.55254 0.80579 0.0
H4405 H 0.53472 0.57169 0.85394 0.0
H4406 H 0.5477 0.56565 0.86326 0.0
C4407 C 0.58689 0.54563 0.80182 0.0
C4408 C 0.58111 0.56684 0.85249 0.0
H4409 H 0.56442 0.57029 0.93497 0.0
C4410 C 0.58132 0.57336 0.81117 0.0
C4411 C 0.57507 0.56584 0.89806 0.0
C4412 C 0.57425 0.55864 0.94293 0.0
C4413 C 0.5754 0.57867 0.81352 0.0
C4414 C 0.56922 0.57751 0.85871 0.0
C4415 C 0.56927 0.57125 0.90068 0.0
C4416 C 0.56157 0.58153 0.86016 0.0
C4417 C 0.57535 0.58499 0.76652 0.0
C4418 C 0.56505 0.59252 0.85743 0.0
C4419 C 0.55761 0.596 0.85217 0.0
C4420 C 0.54661 0.58854 0.84939 0.0
C4421 C 0.54316 0.57761 0.85543 0.0
C4422 C 0.55056 0.57415 0.86088 0.0
H4423 H 0.57922 0.58371 0.73176 0.0
H4424 H 0.56703 0.58279 0.75595 0.0
H4425 H 0.57977 0.59365 0.77622 0.0
H4426 H 0.57352 0.59835 0.85762 0.0
H4427 H 0.56047 0.60447 0.84745 0.0
loop_
_geom_bond_atom_site_label_1
_geom_bond_atom_site_label_2
_geom_bond_distance
_geom_bond_site_symmetry_2
_ccdc_geom_bond_type
Co0 N4 2.148 1_554 S
Co0 N10 2.128 . S
Co0 N20 2.194 1_554 S
Co0 O25 2.351 . S
Co0 O26 2.155 . S
Co0 O27 2.096 1_554 S
C1 N4 1.301 . S
C1 N5 1.328 . S
C1 H6 0.930 . S
C2 C3 1.333 . S
C2 N4 1.317 . S
C2 H7 0.930 . S
C3 C2 1.333 . S
C3 N5 1.350 . S
C3 H29 0.931 . S
N4 Co0 2.148 1_556 S
N4 C1 1.301 . S
N4 C2 1.317 . S
N5 C1 1.328 . S
N5 C3 1.350 . S
H6 C1 0.930 . S
H7 C2 0.930 . S
C8 O9 1.224 . S
C8 O27 1.247 . S
O9 C8 1.224 . S
N10 Co0 2.128 . S
N10 C11 1.355 . S
N10 C13 1.311 . S
C11 N10 1.355 . S
C11 C12 1.363 . S
C11 H23 0.929 . S
C12 C11 1.363 . S
C12 N14 1.375 . S
C12 H30 0.931 . S
C13 N10 1.311 . S
C13 N14 1.347 . S
C13 H24 0.929 . S
N14 C12 1.375 . S
N14 C13 1.347 . S
C15 C18 1.365 . S
C15 N20 1.328 1_554 S
C15 H21 0.929 . S
C16 C17 1.362 . S
C16 C19 1.378 . S
C16 H31 0.929 . S
C17 C16 1.362 . S
C17 C18 1.366 1_556 S
C18 C15 1.365 . S
C18 C17 1.366 1_554 S
C18 H32 0.930 . S
C19 C16 1.378 . S
C19 N20 1.315 . S
C19 H22 0.930 . S
N20 Co0 2.194 1_556 S
N20 C15 1.328 1_556 S
N20 C19 1.315 . S
H21 C15 0.929 . S
H22 C19 0.930 . S
H23 C11 0.929 . S
H24 C13 0.929 . S
O25 Co0 2.351 . S
O25 C28 1.244 . S
O26 Co0 2.155 . S
O26 C28 1.240 . S
O27 Co0 2.096 1_556 S
O27 C8 1.247 . S
C28 O25 1.244 . S
C28 O26 1.240 . S
H29 C3 0.931 . S
H30 C12 0.931 . S
H31 C16 0.929 . S
H32 C18 0.930 . S
Co33 N37 2.148 1_554 S
Co33 N43 2.128 . S
Co33 N53 2.194 1_554 S
Co33 O58 2.351 . S
Co33 O59 2.155 . S
Co33 O60 2.096 1_554 S
C34 N37 1.301 . S
C34 N38 1.328 . S
C34 H39 0.930 . S
C35 C36 1.333 . S
C35 N37 1.317 . S
C35 H40 0.930 . S
C36 C35 1.333 . S
C36 N38 1.350 . S
C36 H62 0.931 . S
N37 Co33 2.148 1_556 S
N37 C34 1.301 . S
N37 C35 1.317 . S
N38 C34 1.328 . S
N38 C36 1.350 . S
H39 C34 0.930 . S
H40 C35 0.930 . S
C41 O42 1.224 . S
C41 O60 1.247 . S
O42 C41 1.224 . S
N43 Co33 2.128 . S
N43 C44 1.355 . S
N43 C46 1.311 . S
C44 N43 1.355 . S
C44 C45 1.363 . S
C44 H56 0.929 . S
C45 C44 1.363 . S
C45 N47 1.375 . S
C45 H63 0.931 . S
C46 N43 1.311 . S
C46 N47 1.347 . S
C46 H57 0.929 . S
N47 C45 1.375 . S
N47 C46 1.347 . S
C48 C51 1.365 . S
C48 N53 1.328 1_554 S
C48 H54 0.929 . S
C49 C50 1.362 . S
C49 C52 1.378 . S
C49 H64 0.929 . S
C50 C49 1.362 . S
C50 C51 1.366 1_556 S
C51 C48 1.365 . S
C51 C50 1.366 1_554 S
C51 H65 0.930 . S
C52 C49 1.378 . S
C52 N53 1.315 . S
C52 H55 0.930 . S
N53 Co33 2.194 1_556 S
N53 C48 1.328 1_556 S
N53 C52 1.315 . S
H54 C48 0.929 . S
H55 C52 0.930 . S
H56 C44 0.929 . S
H57 C46 0.929 . S
O58 Co33 2.351 . S
O58 C61 1.244 . S
O59 Co33 2.155 . S
O59 C61 1.240 . S
O60 Co33 2.096 1_556 S
O60 C41 1.247 . S
C61 O58 1.244 . S
C61 O59 1.240 . S
H62 C36 0.931 . S
H63 C45 0.931 . S
H64 C49 0.929 . S
H65 C51 0.930 . S
Co66 N70 2.148 1_554 S
Co66 N76 2.128 . S
Co66 N86 2.194 1_554 S
Co66 O91 2.351 . S
Co66 O92 2.155 . S
Co66 O93 2.096 1_554 S
C67 N70 1.301 . S
C67 N71 1.328 . S
C67 H72 0.930 . S
C68 C69 1.333 . S
C68 N70 1.317 . S
C68 H73 0.930 . S
C69 C68 1.333 . S
C69 N71 1.350 . S
C69 H95 0.931 . S
N70 Co66 2.148 1_556 S
N70 C67 1.301 . S
N70 C68 1.317 . S
N71 C67 1.328 . S
N71 C69 1.350 . S
H72 C67 0.930 . S
H73 C68 0.930 . S
C74 O75 1.224 . S
C74 O93 1.247 . S
O75 C74 1.224 . S
N76 Co66 2.128 . S
N76 C77 1.355 . S
N76 C79 1.311 . S
C77 N76 1.355 . S
C77 C78 1.363 . S
C77 H89 0.929 . S
C78 C77 1.363 . S
C78 N80 1.375 . S
C78 H96 0.931 . S
C79 N76 1.311 . S
C79 N80 1.347 . S
C79 H90 0.929 . S
N80 C78 1.375 . S
N80 C79 1.347 . S
C81 C84 1.365 . S
C81 N86 1.328 1_554 S
C81 H87 0.929 . S
C82 C83 1.362 . S
C82 C85 1.378 . S
C82 H97 0.929 . S
C83 C82 1.362 . S
C83 C84 1.366 1_556 S
C84 C81 1.365 . S
C84 C83 1.366 1_554 S
C84 H98 0.930 . S
C85 C82 1.378 . S
C85 N86 1.315 . S
C85 H88 0.930 . S
N86 Co66 2.194 1_556 S
N86 C81 1.328 1_556 S
N86 C85 1.315 . S
H87 C81 0.929 . S
H88 C85 0.930 . S
H89 C77 0.929 . S
H90 C79 0.929 . S
O91 Co66 2.351 . S
O91 C94 1.244 . S
O92 Co66 2.155 . S
O92 C94 1.240 . S
O93 Co66 2.096 1_556 S
O93 C74 1.247 . S
C94 O91 1.244 . S
C94 O92 1.240 . S
H95 C69 0.931 . S
H96 C78 0.931 . S
H97 C82 0.929 . S
H98 C84 0.930 . S
Co99 N103 2.148 . S
Co99 N109 2.128 . S
Co99 N119 2.194 . S
Co99 O124 2.351 . S
Co99 O125 2.155 . S
Co99 O126 2.096 . S
C100 N103 1.301 . S
C100 N104 1.328 . S
C100 H105 0.930 . S
C101 C102 1.333 . S
C101 N103 1.317 . S
C101 H106 0.930 . S
C102 C101 1.333 . S
C102 N104 1.350 . S
C102 H128 0.931 . S
N103 Co99 2.148 . S
N103 C100 1.301 . S
N103 C101 1.317 . S
N104 C100 1.328 . S
N104 C102 1.350 . S
H105 C100 0.930 . S
H106 C101 0.930 . S
C107 O108 1.224 . S
C107 O126 1.247 . S
O108 C107 1.224 . S
N109 Co99 2.128 . S
N109 C110 1.355 . S
N109 C112 1.311 . S
C110 N109 1.355 . S
C110 C111 1.363 . S
C110 H122 0.929 . S
C111 C110 1.363 . S
C111 N113 1.375 . S
C111 H129 0.931 . S
C112 N109 1.311 . S
C112 N113 1.347 . S
C112 H123 0.929 . S
N113 C111 1.375 . S
N113 C112 1.347 . S
C114 C117 1.365 . S
C114 N119 1.328 . S
C114 H120 0.929 . S
C115 C116 1.362 . S
C115 C118 1.378 . S
C115 H130 0.929 . S
C116 C115 1.362 . S
C116 C117 1.366 . S
C117 C114 1.365 . S
C117 C116 1.366 . S
C117 H131 0.930 . S
C118 C115 1.378 . S
C118 N119 1.315 . S
C118 H121 0.930 . S
N119 Co99 2.194 . S
N119 C114 1.328 . S
N119 C118 1.315 . S
H120 C114 0.929 . S
H121 C118 0.930 . S
H122 C110 0.929 . S
H123 C112 0.929 . S
O124 Co99 2.351 . S
O124 C127 1.244 . S
O125 Co99 2.155 . S
O125 C127 1.240 . S
O126 Co99 2.096 . S
O126 C107 1.247 . S
C127 O124 1.244 . S
C127 O125 1.240 . S
H128 C102 0.931 . S
H129 C111 0.931 . S
H130 C115 0.929 . S
H131 C117 0.930 . S
Co132 N136 2.148 . S
Co132 N142 2.128 . S
Co132 N152 2.194 . S
Co132 O157 2.351 . S
Co132 O158 2.155 . S
Co132 O159 2.096 . S
C133 N136 1.301 . S
C133 N137 1.328 . S
C133 H138 0.930 . S
C134 C135 1.333 . S
C134 N136 1.317 . S
C134 H139 0.930 . S
C135 C134 1.333 . S
C135 N137 1.350 . S
C135 H161 0.931 . S
N136 Co132 2.148 . S
N136 C133 1.301 . S
N136 C134 1.317 . S
N137 C133 1.328 . S
N137 C135 1.350 . S
H138 C133 0.930 . S
H139 C134 0.930 . S
C140 O141 1.224 . S
C140 O159 1.247 . S
O141 C140 1.224 . S
N142 Co132 2.128 . S
N142 C143 1.355 . S
N142 C145 1.311 . S
C143 N142 1.355 . S
C143 C144 1.363 . S
C143 H155 0.929 . S
C144 C143 1.363 . S
C144 N146 1.375 . S
C144 H162 0.931 . S
C145 N142 1.311 . S
C145 N146 1.347 . S
C145 H156 0.929 . S
N146 C144 1.375 . S
N146 C145 1.347 . S
C147 C150 1.365 . S
C147 N152 1.328 . S
C147 H153 0.929 . S
C148 C149 1.362 . S
C148 C151 1.378 . S
C148 H163 0.929 . S
C149 C148 1.362 . S
C149 C150 1.366 . S
C150 C147 1.365 . S
C150 C149 1.366 . S
C150 H164 0.930 . S
C151 C148 1.378 . S
C151 N152 1.315 . S
C151 H154 0.930 . S
N152 Co132 2.194 . S
N152 C147 1.328 . S
N152 C151 1.315 . S
H153 C147 0.929 . S
H154 C151 0.930 . S
H155 C143 0.929 . S
H156 C145 0.929 . S
O157 Co132 2.351 . S
O157 C160 1.244 . S
O158 Co132 2.155 . S
O158 C160 1.240 . S
O159 Co132 2.096 . S
O159 C140 1.247 . S
C160 O157 1.244 . S
C160 O158 1.240 . S
H161 C135 0.931 . S
H162 C144 0.931 . S
H163 C148 0.929 . S
H164 C150 0.930 . S
Co165 N169 2.148 . S
Co165 N175 2.128 . S
Co165 N185 2.194 . S
Co165 O190 2.351 . S
Co165 O191 2.155 . S
Co165 O192 2.096 . S
C166 N169 1.301 . S
C166 N170 1.328 . S
C166 H171 0.930 . S
C167 C168 1.333 . S
C167 N169 1.317 . S
C167 H172 0.930 . S
C168 C167 1.333 . S
C168 N170 1.350 . S
C168 H194 0.931 . S
N169 Co165 2.148 . S
N169 C166 1.301 . S
N169 C167 1.317 . S
N170 C166 1.328 . S
N170 C168 1.350 . S
H171 C166 0.930 . S
H172 C167 0.930 . S
C173 O174 1.224 . S
C173 O192 1.247 . S
O174 C173 1.224 . S
N175 Co165 2.128 . S
N175 C176 1.355 . S
N175 C178 1.311 . S
C176 N175 1.355 . S
C176 C177 1.363 . S
C176 H188 0.929 . S
C177 C176 1.363 . S
C177 N179 1.375 . S
C177 H195 0.931 . S
C178 N175 1.311 . S
C178 N179 1.347 . S
C178 H189 0.929 . S
N179 C177 1.375 . S
N179 C178 1.347 . S
C180 C183 1.365 . S
C180 N185 1.328 . S
C180 H186 0.929 . S
C181 C182 1.362 . S
C181 C184 1.378 . S
C181 H196 0.929 . S
C182 C181 1.362 . S
C182 C183 1.366 . S
C183 C180 1.365 . S
C183 C182 1.366 . S
C183 H197 0.930 . S
C184 C181 1.378 . S
C184 N185 1.315 . S
C184 H187 0.930 . S
N185 Co165 2.194 . S
N185 C180 1.328 . S
N185 C184 1.315 . S
H186 C180 0.929 . S
H187 C184 0.930 . S
H188 C176 0.929 . S
H189 C178 0.929 . S
O190 Co165 2.351 . S
O190 C193 1.244 . S
O191 Co165 2.155 . S
O191 C193 1.240 . S
O192 Co165 2.096 . S
O192 C173 1.247 . S
C193 O190 1.244 . S
C193 O191 1.240 . S
H194 C168 0.931 . S
H195 C177 0.931 . S
H196 C181 0.929 . S
H197 C183 0.930 . S
Co198 N202 2.148 . S
Co198 N208 2.128 . S
Co198 N218 2.194 . S
Co198 O223 2.351 . S
Co198 O224 2.155 . S
Co198 O225 2.096 . S
C199 N202 1.301 . S
C199 N203 1.328 . S
C199 H204 0.930 . S
C200 C201 1.333 . S
C200 N202 1.317 . S
C200 H205 0.930 . S
C201 C200 1.333 . S
C201 N203 1.350 . S
C201 H227 0.931 . S
N202 Co198 2.148 . S
N202 C199 1.301 . S
N202 C200 1.317 . S
N203 C199 1.328 . S
N203 C201 1.350 . S
H204 C199 0.930 . S
H205 C200 0.930 . S
C206 O207 1.224 . S
C206 O225 1.247 . S
O207 C206 1.224 . S
N208 Co198 2.128 . S
N208 C209 1.355 . S
N208 C211 1.311 . S
C209 N208 1.355 . S
C209 C210 1.363 . S
C209 H221 0.929 . S
C210 C209 1.363 . S
C210 N212 1.375 . S
C210 H228 0.931 1_554 S
C211 N208 1.311 . S
C211 N212 1.347 . S
C211 H222 0.929 . S
N212 C210 1.375 . S
N212 C211 1.347 . S
C213 C216 1.365 . S
C213 N218 1.328 . S
C213 H219 0.929 . S
C214 C215 1.362 . S
C214 C217 1.378 . S
C214 H229 0.929 . S
C215 C214 1.362 . S
C215 C216 1.366 . S
C216 C213 1.365 . S
C216 C215 1.366 . S
C216 H230 0.930 . S
C217 C214 1.378 . S
C217 N218 1.315 . S
C217 H220 0.930 . S
N218 Co198 2.194 . S
N218 C213 1.328 . S
N218 C217 1.315 . S
H219 C213 0.929 . S
H220 C217 0.930 . S
H221 C209 0.929 . S
H222 C211 0.929 . S
O223 Co198 2.351 . S
O223 C226 1.244 . S
O224 Co198 2.155 . S
O224 C226 1.240 . S
O225 Co198 2.096 . S
O225 C206 1.247 . S
C226 O223 1.244 . S
C226 O224 1.240 . S
H227 C201 0.931 . S
H228 C210 0.931 1_556 S
H229 C214 0.929 . S
H230 C216 0.930 . S
Co231 N235 2.148 . S
Co231 N241 2.128 . S
Co231 N251 2.194 . S
Co231 O256 2.351 . S
Co231 O257 2.155 . S
Co231 O258 2.096 . S
C232 N235 1.301 . S
C232 N236 1.328 . S
C232 H237 0.930 . S
C233 C234 1.333 . S
C233 N235 1.317 . S
C233 H238 0.930 . S
C234 C233 1.333 . S
C234 N236 1.350 . S
C234 H260 0.931 . S
N235 Co231 2.148 . S
N235 C232 1.301 . S
N235 C233 1.317 . S
N236 C232 1.328 . S
N236 C234 1.350 . S
H237 C232 0.930 . S
H238 C233 0.930 . S
C239 O240 1.224 . S
C239 O258 1.247 . S
O240 C239 1.224 . S
N241 Co231 2.128 . S
N241 C242 1.355 . S
N241 C244 1.311 . S
C242 N241 1.355 . S
C242 C243 1.363 . S
C242 H254 0.929 . S
C243 C242 1.363 . S
C243 N245 1.375 . S
C243 H261 0.931 1_554 S
C244 N241 1.311 . S
C244 N245 1.347 . S
C244 H255 0.929 . S
N245 C243 1.375 . S
N245 C244 1.347 . S
C246 C249 1.365 . S
C246 N251 1.328 . S
C246 H252 0.929 . S
C247 C248 1.362 . S
C247 C250 1.378 . S
C247 H262 0.929 . S
C248 C247 1.362 . S
C248 C249 1.366 . S
C249 C246 1.365 . S
C249 C248 1.366 . S
C249 H263 0.930 . S
C250 C247 1.378 . S
C250 N251 1.315 . S
C250 H253 0.930 . S
N251 Co231 2.194 . S
N251 C246 1.328 . S
N251 C250 1.315 . S
H252 C246 0.929 . S
H253 C250 0.930 . S
H254 C242 0.929 . S
H255 C244 0.929 . S
O256 Co231 2.351 . S
O256 C259 1.244 . S
O257 Co231 2.155 . S
O257 C259 1.240 . S
O258 Co231 2.096 . S
O258 C239 1.247 . S
C259 O256 1.244 . S
C259 O257 1.240 . S
H260 C234 0.931 . S
H261 C243 0.931 1_556 S
H262 C247 0.929 . S
H263 C249 0.930 . S
Co264 N268 2.148 . S
Co264 N274 2.128 . S
Co264 N284 2.194 . S
Co264 O289 2.351 . S
Co264 O290 2.155 . S
Co264 O291 2.096 . S
C265 N268 1.301 . S
C265 N269 1.328 . S
C265 H270 0.930 . S
C266 C267 1.333 . S
C266 N268 1.317 . S
C266 H271 0.930 . S
C267 C266 1.333 . S
C267 N269 1.350 . S
C267 H293 0.931 . S
N268 Co264 2.148 . S
N268 C265 1.301 . S
N268 C266 1.317 . S
N269 C265 1.328 . S
N269 C267 1.350 . S
H270 C265 0.930 . S
H271 C266 0.930 . S
C272 O273 1.224 . S
C272 O291 1.247 . S
O273 C272 1.224 . S
N274 Co264 2.128 . S
N274 C275 1.355 . S
N274 C277 1.311 . S
C275 N274 1.355 . S
C275 C276 1.363 . S
C275 H287 0.929 . S
C276 C275 1.363 . S
C276 N278 1.375 . S
C276 H294 0.931 1_554 S
C277 N274 1.311 . S
C277 N278 1.347 . S
C277 H288 0.929 . S
N278 C276 1.375 . S
N278 C277 1.347 . S
C279 C282 1.365 . S
C279 N284 1.328 . S
C279 H285 0.929 . S
C280 C281 1.362 . S
C280 C283 1.378 . S
C280 H295 0.929 . S
C281 C280 1.362 . S
C281 C282 1.366 . S
C282 C279 1.365 . S
C282 C281 1.366 . S
C282 H296 0.930 . S
C283 C280 1.378 . S
C283 N284 1.315 . S
C283 H286 0.930 . S
N284 Co264 2.194 . S
N284 C279 1.328 . S
N284 C283 1.315 . S
H285 C279 0.929 . S
H286 C283 0.930 . S
H287 C275 0.929 . S
H288 C277 0.929 . S
O289 Co264 2.351 . S
O289 C292 1.244 . S
O290 Co264 2.155 . S
O290 C292 1.240 . S
O291 Co264 2.096 . S
O291 C272 1.247 . S
C292 O289 1.244 . S
C292 O290 1.240 . S
H293 C267 0.931 . S
H294 C276 0.931 1_556 S
H295 C280 0.929 . S
H296 C282 0.930 . S
Co297 N301 2.148 . S
Co297 N307 2.128 . S
Co297 N317 2.194 . S
Co297 O322 2.351 . S
Co297 O323 2.155 . S
Co297 O324 2.096 . S
C298 N301 1.301 . S
C298 N302 1.328 . S
C298 H303 0.930 . S
C299 C300 1.333 . S
C299 N301 1.317 . S
C299 H304 0.930 . S
C300 C299 1.333 . S
C300 N302 1.350 . S
C300 H326 0.931 . S
N301 Co297 2.148 . S
N301 C298 1.301 . S
N301 C299 1.317 . S
N302 C298 1.328 . S
N302 C300 1.350 . S
H303 C298 0.930 . S
H304 C299 0.930 . S
C305 O306 1.224 . S
C305 O324 1.247 . S
O306 C305 1.224 . S
N307 Co297 2.128 . S
N307 C308 1.355 . S
N307 C310 1.311 . S
C308 N307 1.355 . S
C308 C309 1.363 . S
C308 H320 0.929 . S
C309 C308 1.363 . S
C309 N311 1.375 . S
C309 H327 0.931 . S
C310 N307 1.311 . S
C310 N311 1.347 . S
C310 H321 0.929 . S
N311 C309 1.375 . S
N311 C310 1.347 . S
C312 C315 1.365 . S
C312 N317 1.328 . S
C312 H318 0.929 . S
C313 C314 1.362 . S
C313 C316 1.378 . S
C313 H328 0.929 . S
C314 C313 1.362 . S
C314 C315 1.366 . S
C315 C312 1.365 . S
C315 C314 1.366 . S
C315 H329 0.930 . S
C316 C313 1.378 . S
C316 N317 1.315 . S
C316 H319 0.930 . S
N317 Co297 2.194 . S
N317 C312 1.328 . S
N317 C316 1.315 . S
H318 C312 0.929 . S
H319 C316 0.930 . S
H320 C308 0.929 . S
H321 C310 0.929 . S
O322 Co297 2.351 . S
O322 C325 1.244 . S
O323 Co297 2.155 . S
O323 C325 1.240 . S
O324 Co297 2.096 . S
O324 C305 1.247 . S
C325 O322 1.244 . S
C325 O323 1.240 . S
H326 C300 0.931 . S
H327 C309 0.931 . S
H328 C313 0.929 . S
H329 C315 0.930 . S
Co330 N334 2.148 . S
Co330 N340 2.128 . S
Co330 N350 2.194 . S
Co330 O355 2.351 . S
Co330 O356 2.155 . S
Co330 O357 2.096 . S
C331 N334 1.301 . S
C331 N335 1.328 . S
C331 H336 0.930 . S
C332 C333 1.333 . S
C332 N334 1.317 . S
C332 H337 0.930 . S
C333 C332 1.333 . S
C333 N335 1.350 . S
C333 H359 0.931 . S
N334 Co330 2.148 . S
N334 C331 1.301 . S
N334 C332 1.317 . S
N335 C331 1.328 . S
N335 C333 1.350 . S
H336 C331 0.930 . S
H337 C332 0.930 . S
C338 O339 1.224 . S
C338 O357 1.247 . S
O339 C338 1.224 . S
N340 Co330 2.128 . S
N340 C341 1.355 . S
N340 C343 1.311 . S
C341 N340 1.355 . S
C341 C342 1.363 . S
C341 H353 0.929 . S
C342 C341 1.363 . S
C342 N344 1.375 . S
C342 H360 0.931 . S
C343 N340 1.311 . S
C343 N344 1.347 . S
C343 H354 0.929 . S
N344 C342 1.375 . S
N344 C343 1.347 . S
C345 C348 1.365 . S
C345 N350 1.328 . S
C345 H351 0.929 . S
C346 C347 1.362 . S
C346 C349 1.378 . S
C346 H361 0.929 . S
C347 C346 1.362 . S
C347 C348 1.366 . S
C348 C345 1.365 . S
C348 C347 1.366 . S
C348 H362 0.930 . S
C349 C346 1.378 . S
C349 N350 1.315 . S
C349 H352 0.930 . S
N350 Co330 2.194 . S
N350 C345 1.328 . S
N350 C349 1.315 . S
H351 C345 0.929 . S
H352 C349 0.930 . S
H353 C341 0.929 . S
H354 C343 0.929 . S
O355 Co330 2.351 . S
O355 C358 1.244 . S
O356 Co330 2.155 . S
O356 C358 1.240 . S
O357 Co330 2.096 . S
O357 C338 1.247 . S
C358 O355 1.244 . S
C358 O356 1.240 . S
H359 C333 0.931 . S
H360 C342 0.931 . S
H361 C346 0.929 . S
H362 C348 0.930 . S
Co363 N367 2.148 . S
Co363 N373 2.128 . S
Co363 N383 2.194 . S
Co363 O388 2.351 . S
Co363 O389 2.155 . S
Co363 O390 2.096 . S
C364 N367 1.301 . S
C364 N368 1.328 . S
C364 H369 0.930 . S
C365 C366 1.333 . S
C365 N367 1.317 . S
C365 H370 0.930 . S
C366 C365 1.333 . S
C366 N368 1.350 . S
C366 H392 0.931 . S
N367 Co363 2.148 . S
N367 C364 1.301 . S
N367 C365 1.317 . S
N368 C364 1.328 . S
N368 C366 1.350 . S
H369 C364 0.930 . S
H370 C365 0.930 . S
C371 O372 1.224 . S
C371 O390 1.247 . S
O372 C371 1.224 . S
N373 Co363 2.128 . S
N373 C374 1.355 . S
N373 C376 1.311 . S
C374 N373 1.355 . S
C374 C375 1.363 . S
C374 H386 0.929 . S
C375 C374 1.363 . S
C375 N377 1.375 . S
C375 H393 0.931 . S
C376 N373 1.311 . S
C376 N377 1.347 . S
C376 H387 0.929 . S
N377 C375 1.375 . S
N377 C376 1.347 . S
C378 C381 1.365 . S
C378 N383 1.328 . S
C378 H384 0.929 . S
C379 C380 1.362 . S
C379 C382 1.378 . S
C379 H394 0.929 . S
C380 C379 1.362 . S
C380 C381 1.366 . S
C381 C378 1.365 . S
C381 C380 1.366 . S
C381 H395 0.930 . S
C382 C379 1.378 . S
C382 N383 1.315 . S
C382 H385 0.930 . S
N383 Co363 2.194 . S
N383 C378 1.328 . S
N383 C382 1.315 . S
H384 C378 0.929 . S
H385 C382 0.930 . S
H386 C374 0.929 . S
H387 C376 0.929 . S
O388 Co363 2.351 . S
O388 C391 1.244 . S
O389 Co363 2.155 . S
O389 C391 1.240 . S
O390 Co363 2.096 . S
O390 C371 1.247 . S
C391 O388 1.244 . S
C391 O389 1.240 . S
H392 C366 0.931 . S
H393 C375 0.931 . S
H394 C379 0.929 . S
H395 C381 0.930 . S
Co396 N400 2.148 . S
Co396 N406 2.128 . S
Co396 N416 2.194 . S
Co396 O421 2.351 . S
Co396 O422 2.155 . S
Co396 O423 2.096 . S
C397 N400 1.301 . S
C397 N401 1.328 . S
C397 H402 0.930 . S
C398 C399 1.333 . S
C398 N400 1.317 . S
C398 H403 0.930 . S
C399 C398 1.333 . S
C399 N401 1.350 . S
C399 H425 0.931 . S
N400 Co396 2.148 . S
N400 C397 1.301 . S
N400 C398 1.317 . S
N401 C397 1.328 . S
N401 C399 1.350 . S
H402 C397 0.930 . S
H403 C398 0.930 . S
C404 O405 1.224 . S
C404 O423 1.247 . S
O405 C404 1.224 . S
N406 Co396 2.128 . S
N406 C407 1.355 . S
N406 C409 1.311 . S
C407 N406 1.355 . S
C407 C408 1.363 . S
C407 H419 0.929 . S
C408 C407 1.363 . S
C408 N410 1.375 . S
C408 H426 0.931 . S
C409 N406 1.311 . S
C409 N410 1.347 . S
C409 H420 0.929 . S
N410 C408 1.375 . S
N410 C409 1.347 . S
C411 C414 1.365 . S
C411 N416 1.328 . S
C411 H417 0.929 . S
C412 C413 1.362 . S
C412 C415 1.378 . S
C412 H427 0.929 . S
C413 C412 1.362 . S
C413 C414 1.366 . S
C414 C411 1.365 . S
C414 C413 1.366 . S
C414 H428 0.930 . S
C415 C412 1.378 . S
C415 N416 1.315 . S
C415 H418 0.930 . S
N416 Co396 2.194 . S
N416 C411 1.328 . S
N416 C415 1.315 . S
H417 C411 0.929 . S
H418 C415 0.930 . S
H419 C407 0.929 . S
H420 C409 0.929 . S
O421 Co396 2.351 . S
O421 C424 1.244 . S
O422 Co396 2.155 . S
O422 C424 1.240 . S
O423 Co396 2.096 . S
O423 C404 1.247 . S
C424 O421 1.244 . S
C424 O422 1.240 . S
H425 C399 0.931 . S
H426 C408 0.931 . S
H427 C412 0.929 . S
H428 C414 0.930 . S
Co429 N433 2.148 . S
Co429 N439 2.128 . S
Co429 N449 2.194 . S
Co429 O454 2.351 . S
Co429 O455 2.155 . S
Co429 O456 2.096 . S
C430 N433 1.301 . S
C430 N434 1.328 . S
C430 H435 0.930 . S
C431 C432 1.333 . S
C431 N433 1.317 . S
C431 H436 0.930 . S
C432 C431 1.333 . S
C432 N434 1.350 . S
C432 H458 0.931 . S
N433 Co429 2.148 . S
N433 C430 1.301 . S
N433 C431 1.317 . S
N434 C430 1.328 . S
N434 C432 1.350 . S
H435 C430 0.930 . S
H436 C431 0.930 . S
C437 O438 1.224 . S
C437 O456 1.247 . S
O438 C437 1.224 . S
N439 Co429 2.128 . S
N439 C440 1.355 . S
N439 C442 1.311 . S
C440 N439 1.355 . S
C440 C441 1.363 . S
C440 H452 0.929 . S
C441 C440 1.363 . S
C441 N443 1.375 . S
C441 H459 0.931 . S
C442 N439 1.311 . S
C442 N443 1.347 . S
C442 H453 0.929 . S
N443 C441 1.375 . S
N443 C442 1.347 . S
C444 C447 1.365 . S
C444 N449 1.328 . S
C444 H450 0.929 . S
C445 C446 1.362 . S
C445 C448 1.378 . S
C445 H460 0.929 . S
C446 C445 1.362 . S
C446 C447 1.366 . S
C447 C444 1.365 . S
C447 C446 1.366 . S
C447 H461 0.930 . S
C448 C445 1.378 . S
C448 N449 1.315 . S
C448 H451 0.930 . S
N449 Co429 2.194 . S
N449 C444 1.328 . S
N449 C448 1.315 . S
H450 C444 0.929 . S
H451 C448 0.930 . S
H452 C440 0.929 . S
H453 C442 0.929 . S
O454 Co429 2.351 . S
O454 C457 1.244 . S
O455 Co429 2.155 . S
O455 C457 1.240 . S
O456 Co429 2.096 . S
O456 C437 1.247 . S
C457 O454 1.244 . S
C457 O455 1.240 . S
H458 C432 0.931 . S
H459 C441 0.931 . S
H460 C445 0.929 . S
H461 C447 0.930 . S
Co462 N466 2.148 . S
Co462 N472 2.128 . S
Co462 N482 2.194 . S
Co462 O487 2.351 . S
Co462 O488 2.155 . S
Co462 O489 2.096 . S
C463 N466 1.301 . S
C463 N467 1.328 . S
C463 H468 0.930 . S
C464 C465 1.333 . S
C464 N466 1.317 . S
C464 H469 0.930 . S
C465 C464 1.333 . S
C465 N467 1.350 . S
C465 H491 0.931 . S
N466 Co462 2.148 . S
N466 C463 1.301 . S
N466 C464 1.317 . S
N467 C463 1.328 . S
N467 C465 1.350 . S
H468 C463 0.930 . S
H469 C464 0.930 . S
C470 O471 1.224 . S
C470 O489 1.247 . S
O471 C470 1.224 . S
N472 Co462 2.128 . S
N472 C473 1.355 . S
N472 C475 1.311 . S
C473 N472 1.355 . S
C473 C474 1.363 . S
C473 H485 0.929 . S
C474 C473 1.363 . S
C474 N476 1.375 . S
C474 H492 0.931 . S
C475 N472 1.311 . S
C475 N476 1.347 . S
C475 H486 0.929 . S
N476 C474 1.375 . S
N476 C475 1.347 . S
C477 C480 1.365 . S
C477 N482 1.328 . S
C477 H483 0.929 . S
C478 C479 1.362 . S
C478 C481 1.378 . S
C478 H493 0.929 . S
C479 C478 1.362 . S
C479 C480 1.366 . S
C480 C477 1.365 . S
C480 C479 1.366 . S
C480 H494 0.930 . S
C481 C478 1.378 . S
C481 N482 1.315 . S
C481 H484 0.930 . S
N482 Co462 2.194 . S
N482 C477 1.328 . S
N482 C481 1.315 . S
H483 C477 0.929 . S
H484 C481 0.930 . S
H485 C473 0.929 . S
H486 C475 0.929 . S
O487 Co462 2.351 . S
O487 C490 1.244 . S
O488 Co462 2.155 . S
O488 C490 1.240 . S
O489 Co462 2.096 . S
O489 C470 1.247 . S
C490 O487 1.244 . S
C490 O488 1.240 . S
H491 C465 0.931 . S
H492 C474 0.931 . S
H493 C478 0.929 . S
H494 C480 0.930 . S
Co495 N499 2.148 1_556 S
Co495 N505 2.128 . S
Co495 N515 2.194 . S
Co495 O520 2.351 . S
Co495 O521 2.155 . S
Co495 O522 2.103 . S
C496 N499 1.301 . S
C496 N500 1.328 . S
C496 H501 0.930 . S
C497 C498 1.333 . S
C497 N499 1.317 . S
C497 H502 0.930 . S
C498 C497 1.333 . S
C498 N500 1.350 . S
C498 H524 0.931 . S
N499 Co495 2.148 1_554 S
N499 C496 1.301 . S
N499 C497 1.317 . S
N500 C496 1.328 . S
N500 C498 1.350 . S
H501 C496 0.930 . S
H502 C497 0.930 . S
C503 O504 1.224 . S
C503 O522 1.235 1_554 S
O504 C503 1.224 . S
N505 Co495 2.128 . S
N505 C506 1.355 . S
N505 C508 1.311 . S
C506 N505 1.355 . S
C506 C507 1.363 . S
C506 H518 0.929 . S
C507 C506 1.363 . S
C507 N509 1.375 . S
C507 H525 0.931 . S
C508 N505 1.311 . S
C508 N509 1.347 . S
C508 H519 0.929 . S
N509 C507 1.375 . S
N509 C508 1.347 . S
C510 C513 1.365 . S
C510 N515 1.328 . S
C510 H516 0.929 . S
C511 C512 1.362 1_554 S
C511 C514 1.378 . S
C511 H526 0.929 . S
C512 C511 1.362 1_556 S
C512 C513 1.366 . S
C513 C510 1.365 . S
C513 C512 1.366 . S
C513 H527 0.930 . S
C514 C511 1.378 . S
C514 N515 1.315 1_554 S
C514 H517 0.930 . S
N515 Co495 2.194 . S
N515 C510 1.328 . S
N515 C514 1.315 1_556 S
H516 C510 0.929 . S
H517 C514 0.930 . S
H518 C506 0.929 . S
H519 C508 0.929 . S
O520 Co495 2.351 . S
O520 C523 1.244 . S
O521 Co495 2.155 . S
O521 C523 1.240 . S
O522 Co495 2.103 . S
O522 C503 1.235 1_556 S
C523 O520 1.244 . S
C523 O521 1.240 . S
H524 C498 0.931 . S
H525 C507 0.931 . S
H526 C511 0.929 . S
H527 C513 0.930 . S
Co528 N532 2.148 1_556 S
Co528 N538 2.128 . S
Co528 N548 2.194 . S
Co528 O553 2.351 . S
Co528 O554 2.155 . S
Co528 O555 2.103 . S
C529 N532 1.301 . S
C529 N533 1.328 . S
C529 H534 0.930 . S
C530 C531 1.333 . S
C530 N532 1.317 . S
C530 H535 0.930 . S
C531 C530 1.333 . S
C531 N533 1.350 . S
C531 H557 0.931 . S
N532 Co528 2.148 1_554 S
N532 C529 1.301 . S
N532 C530 1.317 . S
N533 C529 1.328 . S
N533 C531 1.350 . S
H534 C529 0.930 . S
H535 C530 0.930 . S
C536 O537 1.224 . S
C536 O555 1.235 1_554 S
O537 C536 1.224 . S
N538 Co528 2.128 . S
N538 C539 1.355 . S
N538 C541 1.311 . S
C539 N538 1.355 . S
C539 C540 1.363 . S
C539 H551 0.929 . S
C540 C539 1.363 . S
C540 N542 1.375 . S
C540 H558 0.931 . S
C541 N538 1.311 . S
C541 N542 1.347 . S
C541 H552 0.929 . S
N542 C540 1.375 . S
N542 C541 1.347 . S
C543 C546 1.365 . S
C543 N548 1.328 . S
C543 H549 0.929 . S
C544 C545 1.362 1_554 S
C544 C547 1.378 . S
C544 H559 0.929 . S
C545 C544 1.362 1_556 S
C545 C546 1.366 . S
C546 C543 1.365 . S
C546 C545 1.366 . S
C546 H560 0.930 . S
C547 C544 1.378 . S
C547 N548 1.315 1_554 S
C547 H550 0.930 . S
N548 Co528 2.194 . S
N548 C543 1.328 . S
N548 C547 1.315 1_556 S
H549 C543 0.929 . S
H550 C547 0.930 . S
H551 C539 0.929 . S
H552 C541 0.929 . S
O553 Co528 2.351 . S
O553 C556 1.244 . S
O554 Co528 2.155 . S
O554 C556 1.240 . S
O555 Co528 2.103 . S
O555 C536 1.235 1_556 S
C556 O553 1.244 . S
C556 O554 1.240 . S
H557 C531 0.931 . S
H558 C540 0.931 . S
H559 C544 0.929 . S
H560 C546 0.930 . S
Co561 N565 2.148 1_556 S
Co561 N571 2.128 . S
Co561 N581 2.194 . S
Co561 O586 2.351 . S
Co561 O587 2.155 . S
Co561 O588 2.103 . S
C562 N565 1.301 . S
C562 N566 1.328 . S
C562 H567 0.930 . S
C563 C564 1.333 . S
C563 N565 1.317 . S
C563 H568 0.930 . S
C564 C563 1.333 . S
C564 N566 1.350 . S
C564 H590 0.931 . S
N565 Co561 2.148 1_554 S
N565 C562 1.301 . S
N565 C563 1.317 . S
N566 C562 1.328 . S
N566 C564 1.350 . S
H567 C562 0.930 . S
H568 C563 0.930 . S
C569 O570 1.224 . S
C569 O588 1.235 1_554 S
O570 C569 1.224 . S
N571 Co561 2.128 . S
N571 C572 1.355 . S
N571 C574 1.311 . S
C572 N571 1.355 . S
C572 C573 1.363 . S
C572 H584 0.929 . S
C573 C572 1.363 . S
C573 N575 1.375 . S
C573 H591 0.931 . S
C574 N571 1.311 . S
C574 N575 1.347 . S
C574 H585 0.929 . S
N575 C573 1.375 . S
N575 C574 1.347 . S
C576 C579 1.365 . S
C576 N581 1.328 . S
C576 H582 0.929 . S
C577 C578 1.362 1_554 S
C577 C580 1.378 . S
C577 H592 0.929 . S
C578 C577 1.362 1_556 S
C578 C579 1.366 . S
C579 C576 1.365 . S
C579 C578 1.366 . S
C579 H593 0.930 . S
C580 C577 1.378 . S
C580 N581 1.315 1_554 S
C580 H583 0.930 . S
N581 Co561 2.194 . S
N581 C576 1.328 . S
N581 C580 1.315 1_556 S
H582 C576 0.929 . S
H583 C580 0.930 . S
H584 C572 0.929 . S
H585 C574 0.929 . S
O586 Co561 2.351 . S
O586 C589 1.244 . S
O587 Co561 2.155 . S
O587 C589 1.240 . S
O588 Co561 2.103 . S
O588 C569 1.235 1_556 S
C589 O586 1.244 . S
C589 O587 1.240 . S
H590 C564 0.931 . S
H591 C573 0.931 . S
H592 C577 0.929 . S
H593 C579 0.930 . S
Co594 N598 2.148 . S
Co594 N604 2.128 . S
Co594 N614 2.194 . S
Co594 O619 2.351 . S
Co594 O620 2.155 . S
Co594 O621 2.096 . S
C595 N598 1.301 . S
C595 N599 1.328 . S
C595 H600 0.930 . S
C596 C597 1.333 . S
C596 N598 1.317 . S
C596 H601 0.930 . S
C597 C596 1.333 . S
C597 N599 1.350 . S
C597 H623 0.931 . S
N598 Co594 2.148 . S
N598 C595 1.301 . S
N598 C596 1.317 . S
N599 C595 1.328 . S
N599 C597 1.350 . S
H600 C595 0.930 . S
H601 C596 0.930 . S
C602 O603 1.224 . S
C602 O621 1.247 . S
O603 C602 1.224 . S
N604 Co594 2.128 . S
N604 C605 1.355 . S
N604 C607 1.311 . S
C605 N604 1.355 . S
C605 C606 1.363 . S
C605 H617 0.929 . S
C606 C605 1.363 . S
C606 N608 1.375 . S
C606 H624 0.931 . S
C607 N604 1.311 . S
C607 N608 1.347 . S
C607 H618 0.929 . S
N608 C606 1.375 . S
N608 C607 1.347 . S
C609 C612 1.365 . S
C609 N614 1.328 . S
C609 H615 0.929 . S
C610 C611 1.362 . S
C610 C613 1.378 . S
C610 H625 0.929 . S
C611 C610 1.362 . S
C611 C612 1.366 . S
C612 C609 1.365 . S
C612 C611 1.366 . S
C612 H626 0.930 . S
C613 C610 1.378 . S
C613 N614 1.315 . S
C613 H616 0.930 . S
N614 Co594 2.194 . S
N614 C609 1.328 . S
N614 C613 1.315 . S
H615 C609 0.929 . S
H616 C613 0.930 . S
H617 C605 0.929 . S
H618 C607 0.929 . S
O619 Co594 2.351 . S
O619 C622 1.244 . S
O620 Co594 2.155 . S
O620 C622 1.240 . S
O621 Co594 2.096 . S
O621 C602 1.247 . S
C622 O619 1.244 . S
C622 O620 1.240 . S
H623 C597 0.931 . S
H624 C606 0.931 . S
H625 C610 0.929 . S
H626 C612 0.930 . S
Co627 N631 2.148 . S
Co627 N637 2.128 . S
Co627 N647 2.194 . S
Co627 O652 2.351 . S
Co627 O653 2.155 . S
Co627 O654 2.096 . S
C628 N631 1.301 . S
C628 N632 1.328 . S
C628 H633 0.930 . S
C629 C630 1.333 . S
C629 N631 1.317 . S
C629 H634 0.930 . S
C630 C629 1.333 . S
C630 N632 1.350 . S
C630 H656 0.931 . S
N631 Co627 2.148 . S
N631 C628 1.301 . S
N631 C629 1.317 . S
N632 C628 1.328 . S
N632 C630 1.350 . S
H633 C628 0.930 . S
H634 C629 0.930 . S
C635 O636 1.224 . S
C635 O654 1.247 . S
O636 C635 1.224 . S
N637 Co627 2.128 . S
N637 C638 1.355 . S
N637 C640 1.311 . S
C638 N637 1.355 . S
C638 C639 1.363 . S
C638 H650 0.929 . S
C639 C638 1.363 . S
C639 N641 1.375 . S
C639 H657 0.931 . S
C640 N637 1.311 . S
C640 N641 1.347 . S
C640 H651 0.929 . S
N641 C639 1.375 . S
N641 C640 1.347 . S
C642 C645 1.365 . S
C642 N647 1.328 . S
C642 H648 0.929 . S
C643 C644 1.362 . S
C643 C646 1.378 . S
C643 H658 0.929 . S
C644 C643 1.362 . S
C644 C645 1.366 . S
C645 C642 1.365 . S
C645 C644 1.366 . S
C645 H659 0.930 . S
C646 C643 1.378 . S
C646 N647 1.315 . S
C646 H649 0.930 . S
N647 Co627 2.194 . S
N647 C642 1.328 . S
N647 C646 1.315 . S
H648 C642 0.929 . S
H649 C646 0.930 . S
H650 C638 0.929 . S
H651 C640 0.929 . S
O652 Co627 2.351 . S
O652 C655 1.244 . S
O653 Co627 2.155 . S
O653 C655 1.240 . S
O654 Co627 2.096 . S
O654 C635 1.247 . S
C655 O652 1.244 . S
C655 O653 1.240 . S
H656 C630 0.931 . S
H657 C639 0.931 . S
H658 C643 0.929 . S
H659 C645 0.930 . S
Co660 N664 2.148 . S
Co660 N670 2.128 . S
Co660 N680 2.194 . S
Co660 O685 2.351 . S
Co660 O686 2.155 . S
Co660 O687 2.096 . S
C661 N664 1.301 . S
C661 N665 1.328 . S
C661 H666 0.930 . S
C662 C663 1.333 . S
C662 N664 1.317 . S
C662 H667 0.930 . S
C663 C662 1.333 . S
C663 N665 1.350 . S
C663 H689 0.931 . S
N664 Co660 2.148 . S
N664 C661 1.301 . S
N664 C662 1.317 . S
N665 C661 1.328 . S
N665 C663 1.350 . S
H666 C661 0.930 . S
H667 C662 0.930 . S
C668 O669 1.224 . S
C668 O687 1.247 . S
O669 C668 1.224 . S
N670 Co660 2.128 . S
N670 C671 1.355 . S
N670 C673 1.311 . S
C671 N670 1.355 . S
C671 C672 1.363 . S
C671 H683 0.929 . S
C672 C671 1.363 . S
C672 N674 1.375 . S
C672 H690 0.931 . S
C673 N670 1.311 . S
C673 N674 1.347 . S
C673 H684 0.929 . S
N674 C672 1.375 . S
N674 C673 1.347 . S
C675 C678 1.365 . S
C675 N680 1.328 . S
C675 H681 0.929 . S
C676 C677 1.362 . S
C676 C679 1.378 . S
C676 H691 0.929 . S
C677 C676 1.362 . S
C677 C678 1.366 . S
C678 C675 1.365 . S
C678 C677 1.366 . S
C678 H692 0.930 . S
C679 C676 1.378 . S
C679 N680 1.315 . S
C679 H682 0.930 . S
N680 Co660 2.194 . S
N680 C675 1.328 . S
N680 C679 1.315 . S
H681 C675 0.929 . S
H682 C679 0.930 . S
H683 C671 0.929 . S
H684 C673 0.929 . S
O685 Co660 2.351 . S
O685 C688 1.244 . S
O686 Co660 2.155 . S
O686 C688 1.240 . S
O687 Co660 2.096 . S
O687 C668 1.247 . S
C688 O685 1.244 . S
C688 O686 1.240 . S
H689 C663 0.931 . S
H690 C672 0.931 . S
H691 C676 0.929 . S
H692 C678 0.930 . S
Co693 N697 2.148 . S
Co693 N703 2.128 . S
Co693 N713 2.194 . S
Co693 O718 2.351 . S
Co693 O719 2.155 . S
Co693 O720 2.096 . S
C694 N697 1.301 . S
C694 N698 1.328 . S
C694 H699 0.930 . S
C695 C696 1.333 . S
C695 N697 1.317 . S
C695 H700 0.930 . S
C696 C695 1.333 . S
C696 N698 1.350 . S
C696 H722 0.931 . S
N697 Co693 2.148 . S
N697 C694 1.301 . S
N697 C695 1.317 . S
N698 C694 1.328 . S
N698 C696 1.350 . S
H699 C694 0.930 . S
H700 C695 0.930 . S
C701 O702 1.224 . S
C701 O720 1.247 . S
O702 C701 1.224 . S
N703 Co693 2.128 . S
N703 C704 1.355 . S
N703 C706 1.311 . S
C704 N703 1.355 . S
C704 C705 1.363 . S
C704 H716 0.929 . S
C705 C704 1.363 . S
C705 N707 1.375 . S
C705 H723 0.941 . S
C706 N703 1.311 . S
C706 N707 1.347 . S
C706 H717 0.929 . S
N707 C705 1.375 . S
N707 C706 1.347 . S
C708 C711 1.365 . S
C708 N713 1.328 . S
C708 H714 0.929 . S
C709 C710 1.362 . S
C709 C712 1.378 . S
C709 H724 0.929 . S
C710 C709 1.362 . S
C710 C711 1.366 . S
C711 C708 1.365 . S
C711 C710 1.366 . S
C711 H725 0.930 . S
C712 C709 1.378 . S
C712 N713 1.315 . S
C712 H715 0.930 . S
N713 Co693 2.194 . S
N713 C708 1.328 . S
N713 C712 1.315 . S
H714 C708 0.929 . S
H715 C712 0.930 . S
H716 C704 0.929 . S
H717 C706 0.929 . S
O718 Co693 2.351 . S
O718 C721 1.244 . S
O719 Co693 2.155 . S
O719 C721 1.240 . S
O720 Co693 2.096 . S
O720 C701 1.247 . S
C721 O718 1.244 . S
C721 O719 1.240 . S
H722 C696 0.931 . S
H723 C705 0.941 . S
H724 C709 0.929 . S
H725 C711 0.930 . S
Co726 N730 2.148 . S
Co726 N736 2.128 . S
Co726 N746 2.194 . S
Co726 O751 2.351 . S
Co726 O752 2.155 . S
Co726 O753 2.096 . S
C727 N730 1.301 . S
C727 N731 1.328 . S
C727 H732 0.930 . S
C728 C729 1.333 . S
C728 N730 1.317 . S
C728 H733 0.930 . S
C729 C728 1.333 . S
C729 N731 1.350 . S
C729 H755 0.931 . S
N730 Co726 2.148 . S
N730 C727 1.301 . S
N730 C728 1.317 . S
N731 C727 1.328 . S
N731 C729 1.350 . S
H732 C727 0.930 . S
H733 C728 0.930 . S
C734 O735 1.224 . S
C734 O753 1.247 . S
O735 C734 1.224 . S
N736 Co726 2.128 . S
N736 C737 1.355 . S
N736 C739 1.311 . S
C737 N736 1.355 . S
C737 C738 1.363 . S
C737 H749 0.929 . S
C738 C737 1.363 . S
C738 N740 1.375 . S
C738 H756 0.941 . S
C739 N736 1.311 . S
C739 N740 1.347 . S
C739 H750 0.929 . S
N740 C738 1.375 . S
N740 C739 1.347 . S
C741 C744 1.365 . S
C741 N746 1.328 . S
C741 H747 0.929 . S
C742 C743 1.362 . S
C742 C745 1.378 . S
C742 H757 0.929 . S
C743 C742 1.362 . S
C743 C744 1.366 . S
C744 C741 1.365 . S
C744 C743 1.366 . S
C744 H758 0.930 . S
C745 C742 1.378 . S
C745 N746 1.315 . S
C745 H748 0.930 . S
N746 Co726 2.194 . S
N746 C741 1.328 . S
N746 C745 1.315 . S
H747 C741 0.929 . S
H748 C745 0.930 . S
H749 C737 0.929 . S
H750 C739 0.929 . S
O751 Co726 2.351 . S
O751 C754 1.244 . S
O752 Co726 2.155 . S
O752 C754 1.240 . S
O753 Co726 2.096 . S
O753 C734 1.247 . S
C754 O751 1.244 . S
C754 O752 1.240 . S
H755 C729 0.931 . S
H756 C738 0.941 . S
H757 C742 0.929 . S
H758 C744 0.930 . S
Co759 N763 2.148 . S
Co759 N769 2.128 . S
Co759 N779 2.194 . S
Co759 O784 2.351 . S
Co759 O785 2.155 . S
Co759 O786 2.096 . S
C760 N763 1.301 . S
C760 N764 1.328 . S
C760 H765 0.930 . S
C761 C762 1.333 . S
C761 N763 1.317 . S
C761 H766 0.930 . S
C762 C761 1.333 . S
C762 N764 1.350 . S
C762 H788 0.931 . S
N763 Co759 2.148 . S
N763 C760 1.301 . S
N763 C761 1.317 . S
N764 C760 1.328 . S
N764 C762 1.350 . S
H765 C760 0.930 . S
H766 C761 0.930 . S
C767 O768 1.224 . S
C767 O786 1.247 . S
O768 C767 1.224 . S
N769 Co759 2.128 . S
N769 C770 1.355 . S
N769 C772 1.311 . S
C770 N769 1.355 . S
C770 C771 1.363 . S
C770 H782 0.929 . S
C771 C770 1.363 . S
C771 N773 1.375 . S
C771 H789 0.940 . S
C772 N769 1.311 . S
C772 N773 1.347 . S
C772 H783 0.929 . S
N773 C771 1.375 . S
N773 C772 1.347 . S
C774 C777 1.365 . S
C774 N779 1.328 . S
C774 H780 0.929 . S
C775 C776 1.362 . S
C775 C778 1.378 . S
C775 H790 0.929 . S
C776 C775 1.362 . S
C776 C777 1.366 . S
C777 C774 1.365 . S
C777 C776 1.366 . S
C777 H791 0.930 . S
C778 C775 1.378 . S
C778 N779 1.315 . S
C778 H781 0.930 . S
N779 Co759 2.194 . S
N779 C774 1.328 . S
N779 C778 1.315 . S
H780 C774 0.929 . S
H781 C778 0.930 . S
H782 C770 0.929 . S
H783 C772 0.929 . S
O784 Co759 2.351 . S
O784 C787 1.244 . S
O785 Co759 2.155 . S
O785 C787 1.240 . S
O786 Co759 2.096 . S
O786 C767 1.247 . S
C787 O784 1.244 . S
C787 O785 1.240 . S
H788 C762 0.931 . S
H789 C771 0.940 . S
H790 C775 0.929 . S
H791 C777 0.930 . S
Co792 N796 2.148 . S
Co792 N802 2.128 . S
Co792 N812 2.194 . S
Co792 O817 2.351 . S
Co792 O818 2.155 . S
Co792 O819 2.096 . S
C793 N796 1.301 . S
C793 N797 1.328 . S
C793 H798 0.930 . S
C794 C795 1.333 . S
C794 N796 1.317 . S
C794 H799 0.930 . S
C795 C794 1.333 . S
C795 N797 1.350 . S
C795 H821 0.931 . S
N796 Co792 2.148 . S
N796 C793 1.301 . S
N796 C794 1.317 . S
N797 C793 1.328 . S
N797 C795 1.350 . S
H798 C793 0.930 . S
H799 C794 0.930 . S
C800 O801 1.224 . S
C800 O819 1.247 . S
O801 C800 1.224 . S
N802 Co792 2.128 . S
N802 C803 1.355 . S
N802 C805 1.311 . S
C803 N802 1.355 . S
C803 C804 1.363 . S
C803 H815 0.929 . S
C804 C803 1.363 . S
C804 N806 1.375 . S
C804 H822 0.931 . S
C805 N802 1.311 . S
C805 N806 1.347 . S
C805 H816 0.929 . S
N806 C804 1.375 . S
N806 C805 1.347 . S
C807 C810 1.365 . S
C807 N812 1.328 . S
C807 H813 0.929 . S
C808 C809 1.362 . S
C808 C811 1.378 . S
C808 H823 0.929 . S
C809 C808 1.362 . S
C809 C810 1.366 . S
C810 C807 1.365 . S
C810 C809 1.366 . S
C810 H824 0.930 . S
C811 C808 1.378 . S
C811 N812 1.315 . S
C811 H814 0.930 . S
N812 Co792 2.194 . S
N812 C807 1.328 . S
N812 C811 1.315 . S
H813 C807 0.929 . S
H814 C811 0.930 . S
H815 C803 0.929 . S
H816 C805 0.929 . S
O817 Co792 2.351 . S
O817 C820 1.244 . S
O818 Co792 2.155 . S
O818 C820 1.240 . S
O819 Co792 2.096 . S
O819 C800 1.247 . S
C820 O817 1.244 . S
C820 O818 1.240 . S
H821 C795 0.931 . S
H822 C804 0.931 . S
H823 C808 0.929 . S
H824 C810 0.930 . S
Co825 N829 2.148 . S
Co825 N835 2.128 . S
Co825 N845 2.194 . S
Co825 O850 2.351 . S
Co825 O851 2.155 . S
Co825 O852 2.096 . S
C826 N829 1.301 . S
C826 N830 1.328 . S
C826 H831 0.930 . S
C827 C828 1.333 . S
C827 N829 1.317 . S
C827 H832 0.930 . S
C828 C827 1.333 . S
C828 N830 1.350 . S
C828 H854 0.931 . S
N829 Co825 2.148 . S
N829 C826 1.301 . S
N829 C827 1.317 . S
N830 C826 1.328 . S
N830 C828 1.350 . S
H831 C826 0.930 . S
H832 C827 0.930 . S
C833 O834 1.224 . S
C833 O852 1.247 . S
O834 C833 1.224 . S
N835 Co825 2.128 . S
N835 C836 1.355 . S
N835 C838 1.311 . S
C836 N835 1.355 . S
C836 C837 1.363 . S
C836 H848 0.929 . S
C837 C836 1.363 . S
C837 N839 1.375 . S
C837 H855 0.931 . S
C838 N835 1.311 . S
C838 N839 1.347 . S
C838 H849 0.929 . S
N839 C837 1.375 . S
N839 C838 1.347 . S
C840 C843 1.365 . S
C840 N845 1.328 . S
C840 H846 0.929 . S
C841 C842 1.362 . S
C841 C844 1.378 . S
C841 H856 0.929 . S
C842 C841 1.362 . S
C842 C843 1.366 . S
C843 C840 1.365 . S
C843 C842 1.366 . S
C843 H857 0.930 . S
C844 C841 1.378 . S
C844 N845 1.315 . S
C844 H847 0.930 . S
N845 Co825 2.194 . S
N845 C840 1.328 . S
N845 C844 1.315 . S
H846 C840 0.929 . S
H847 C844 0.930 . S
H848 C836 0.929 . S
H849 C838 0.929 . S
O850 Co825 2.351 . S
O850 C853 1.244 . S
O851 Co825 2.155 . S
O851 C853 1.240 . S
O852 Co825 2.096 . S
O852 C833 1.247 . S
C853 O850 1.244 . S
C853 O851 1.240 . S
H854 C828 0.931 . S
H855 C837 0.931 . S
H856 C841 0.929 . S
H857 C843 0.930 . S
Co858 N862 2.148 . S
Co858 N868 2.128 . S
Co858 N878 2.194 . S
Co858 O883 2.351 . S
Co858 O884 2.155 . S
Co858 O885 2.096 . S
C859 N862 1.301 . S
C859 N863 1.328 . S
C859 H864 0.930 . S
C860 C861 1.333 . S
C860 N862 1.317 . S
C860 H865 0.930 . S
C861 C860 1.333 . S
C861 N863 1.350 . S
C861 H887 0.931 . S
N862 Co858 2.148 . S
N862 C859 1.301 . S
N862 C860 1.317 . S
N863 C859 1.328 . S
N863 C861 1.350 . S
H864 C859 0.930 . S
H865 C860 0.930 . S
C866 O867 1.224 . S
C866 O885 1.247 . S
O867 C866 1.224 . S
N868 Co858 2.128 . S
N868 C869 1.355 . S
N868 C871 1.311 . S
C869 N868 1.355 . S
C869 C870 1.363 . S
C869 H881 0.929 . S
C870 C869 1.363 . S
C870 N872 1.375 . S
C870 H888 0.931 . S
C871 N868 1.311 . S
C871 N872 1.347 . S
C871 H882 0.929 . S
N872 C870 1.375 . S
N872 C871 1.347 . S
C873 C876 1.365 . S
C873 N878 1.328 . S
C873 H879 0.929 . S
C874 C875 1.362 . S
C874 C877 1.378 . S
C874 H889 0.929 . S
C875 C874 1.362 . S
C875 C876 1.366 . S
C876 C873 1.365 . S
C876 C875 1.366 . S
C876 H890 0.930 . S
C877 C874 1.378 . S
C877 N878 1.315 . S
C877 H880 0.930 . S
N878 Co858 2.194 . S
N878 C873 1.328 . S
N878 C877 1.315 . S
H879 C873 0.929 . S
H880 C877 0.930 . S
H881 C869 0.929 . S
H882 C871 0.929 . S
O883 Co858 2.351 . S
O883 C886 1.244 . S
O884 Co858 2.155 . S
O884 C886 1.240 . S
O885 Co858 2.096 . S
O885 C866 1.247 . S
C886 O883 1.244 . S
C886 O884 1.240 . S
H887 C861 0.931 . S
H888 C870 0.931 . S
H889 C874 0.929 . S
H890 C876 0.930 . S
Co891 N895 2.148 . S
Co891 N901 2.128 . S
Co891 N911 2.194 . S
Co891 O916 2.351 . S
Co891 O917 2.155 . S
Co891 O918 2.096 . S
C892 N895 1.301 . S
C892 N896 1.328 . S
C892 H897 0.930 . S
C893 C894 1.333 . S
C893 N895 1.317 . S
C893 H898 0.930 . S
C894 C893 1.333 . S
C894 N896 1.350 . S
C894 H920 0.931 . S
N895 Co891 2.148 . S
N895 C892 1.301 . S
N895 C893 1.317 . S
N896 C892 1.328 . S
N896 C894 1.350 . S
H897 C892 0.930 . S
H898 C893 0.930 . S
C899 O900 1.224 . S
C899 O918 1.247 . S
O900 C899 1.224 . S
N901 Co891 2.128 . S
N901 C902 1.355 . S
N901 C904 1.311 . S
C902 N901 1.355 . S
C902 C903 1.363 . S
C902 H914 0.929 . S
C903 C902 1.363 . S
C903 N905 1.375 . S
C903 H921 0.931 . S
C904 N901 1.311 . S
C904 N905 1.347 . S
C904 H915 0.929 . S
N905 C903 1.375 . S
N905 C904 1.347 . S
C906 C909 1.365 . S
C906 N911 1.328 . S
C906 H912 0.929 . S
C907 C908 1.362 . S
C907 C910 1.378 . S
C907 H922 0.929 . S
C908 C907 1.362 . S
C908 C909 1.366 . S
C909 C906 1.365 . S
C909 C908 1.366 . S
C909 H923 0.930 . S
C910 C907 1.378 . S
C910 N911 1.315 . S
C910 H913 0.930 . S
N911 Co891 2.194 . S
N911 C906 1.328 . S
N911 C910 1.315 . S
H912 C906 0.929 . S
H913 C910 0.930 . S
H914 C902 0.929 . S
H915 C904 0.929 . S
O916 Co891 2.351 . S
O916 C919 1.244 . S
O917 Co891 2.155 . S
O917 C919 1.240 . S
O918 Co891 2.096 . S
O918 C899 1.247 . S
C919 O916 1.244 . S
C919 O917 1.240 . S
H920 C894 0.931 . S
H921 C903 0.931 . S
H922 C907 0.929 . S
H923 C909 0.930 . S
Co924 N928 2.148 . S
Co924 N934 2.128 . S
Co924 N944 2.194 . S
Co924 O949 2.351 . S
Co924 O950 2.155 . S
Co924 O951 2.096 . S
C925 N928 1.301 . S
C925 N929 1.328 . S
C925 H930 0.930 . S
C926 C927 1.333 . S
C926 N928 1.317 . S
C926 H931 0.930 . S
C927 C926 1.333 . S
C927 N929 1.350 . S
C927 H953 0.931 . S
N928 Co924 2.148 . S
N928 C925 1.301 . S
N928 C926 1.317 . S
N929 C925 1.328 . S
N929 C927 1.350 . S
H930 C925 0.930 . S
H931 C926 0.930 . S
C932 O933 1.224 . S
C932 O951 1.247 . S
O933 C932 1.224 . S
N934 Co924 2.128 . S
N934 C935 1.355 . S
N934 C937 1.311 . S
C935 N934 1.355 . S
C935 C936 1.363 . S
C935 H947 0.929 . S
C936 C935 1.363 . S
C936 N938 1.375 . S
C936 H954 0.931 . S
C937 N934 1.311 . S
C937 N938 1.347 . S
C937 H948 0.929 . S
N938 C936 1.375 . S
N938 C937 1.347 . S
C939 C942 1.365 . S
C939 N944 1.328 . S
C939 H945 0.929 . S
C940 C941 1.362 . S
C940 C943 1.378 . S
C940 H955 0.929 . S
C941 C940 1.362 . S
C941 C942 1.366 . S
C942 C939 1.365 . S
C942 C941 1.366 . S
C942 H956 0.930 . S
C943 C940 1.378 . S
C943 N944 1.315 . S
C943 H946 0.930 . S
N944 Co924 2.194 . S
N944 C939 1.328 . S
N944 C943 1.315 . S
H945 C939 0.929 . S
H946 C943 0.930 . S
H947 C935 0.929 . S
H948 C937 0.929 . S
O949 Co924 2.351 . S
O949 C952 1.244 . S
O950 Co924 2.155 . S
O950 C952 1.240 . S
O951 Co924 2.096 . S
O951 C932 1.247 . S
C952 O949 1.244 . S
C952 O950 1.240 . S
H953 C927 0.931 . S
H954 C936 0.931 . S
H955 C940 0.929 . S
H956 C942 0.930 . S
Co957 N961 2.148 . S
Co957 N967 2.128 . S
Co957 N977 2.194 . S
Co957 O982 2.351 . S
Co957 O983 2.155 . S
Co957 O984 2.096 . S
C958 N961 1.301 . S
C958 N962 1.328 . S
C958 H963 0.930 . S
C959 C960 1.333 . S
C959 N961 1.317 . S
C959 H964 0.930 . S
C960 C959 1.333 . S
C960 N962 1.350 . S
C960 H986 0.931 . S
N961 Co957 2.148 . S
N961 C958 1.301 . S
N961 C959 1.317 . S
N962 C958 1.328 . S
N962 C960 1.350 . S
H963 C958 0.930 . S
H964 C959 0.930 . S
C965 O966 1.224 . S
C965 O984 1.247 . S
O966 C965 1.224 . S
N967 Co957 2.128 . S
N967 C968 1.355 . S
N967 C970 1.311 . S
C968 N967 1.355 . S
C968 C969 1.363 . S
C968 H980 0.929 . S
C969 C968 1.363 . S
C969 N971 1.375 . S
C969 H987 0.931 . S
C970 N967 1.311 . S
C970 N971 1.347 . S
C970 H981 0.929 . S
N971 C969 1.375 . S
N971 C970 1.347 . S
C972 C975 1.365 . S
C972 N977 1.328 . S
C972 H978 0.929 . S
C973 C974 1.362 . S
C973 C976 1.378 . S
C973 H988 0.929 . S
C974 C973 1.362 . S
C974 C975 1.366 . S
C975 C972 1.365 . S
C975 C974 1.366 . S
C975 H989 0.930 . S
C976 C973 1.378 . S
C976 N977 1.315 . S
C976 H979 0.930 . S
N977 Co957 2.194 . S
N977 C972 1.328 . S
N977 C976 1.315 . S
H978 C972 0.929 . S
H979 C976 0.930 . S
H980 C968 0.929 . S
H981 C970 0.929 . S
O982 Co957 2.351 . S
O982 C985 1.244 . S
O983 Co957 2.155 . S
O983 C985 1.240 . S
O984 Co957 2.096 . S
O984 C965 1.247 . S
C985 O982 1.244 . S
C985 O983 1.240 . S
H986 C960 0.931 . S
H987 C969 0.931 . S
H988 C973 0.929 . S
H989 C975 0.930 . S
Co990 N994 2.148 . S
Co990 N1000 2.128 . S
Co990 N1010 2.194 . S
Co990 O1015 2.351 . S
Co990 O1016 2.155 . S
Co990 O1017 2.096 . S
C991 N994 1.301 . S
C991 N995 1.328 . S
C991 H996 0.930 . S
C992 C993 1.333 . S
C992 N994 1.317 . S
C992 H997 0.930 . S
C993 C992 1.333 . S
C993 N995 1.350 . S
C993 H1019 0.931 . S
N994 Co990 2.148 . S
N994 C991 1.301 . S
N994 C992 1.317 . S
N995 C991 1.328 . S
N995 C993 1.350 . S
H996 C991 0.930 . S
H997 C992 0.930 . S
C998 O999 1.224 . S
C998 O1017 1.247 . S
O999 C998 1.224 . S
N1000 Co990 2.128 . S
N1000 C1001 1.355 . S
N1000 C1003 1.311 . S
C1001 N1000 1.355 . S
C1001 C1002 1.363 . S
C1001 H1013 0.929 . S
C1002 C1001 1.363 . S
C1002 N1004 1.375 . S
C1002 H1020 0.931 . S
C1003 N1000 1.311 . S
C1003 N1004 1.347 . S
C1003 H1014 0.929 . S
N1004 C1002 1.375 . S
N1004 C1003 1.347 . S
C1005 C1008 1.365 . S
C1005 N1010 1.328 . S
C1005 H1011 0.929 . S
C1006 C1007 1.362 . S
C1006 C1009 1.378 . S
C1006 H1021 0.929 . S
C1007 C1006 1.362 . S
C1007 C1008 1.366 . S
C1008 C1005 1.365 . S
C1008 C1007 1.366 . S
C1008 H1022 0.930 . S
C1009 C1006 1.378 . S
C1009 N1010 1.315 . S
C1009 H1012 0.930 . S
N1010 Co990 2.194 . S
N1010 C1005 1.328 . S
N1010 C1009 1.315 . S
H1011 C1005 0.929 . S
H1012 C1009 0.930 . S
H1013 C1001 0.929 . S
H1014 C1003 0.929 . S
O1015 Co990 2.351 . S
O1015 C1018 1.244 . S
O1016 Co990 2.155 . S
O1016 C1018 1.240 . S
O1017 Co990 2.096 . S
O1017 C998 1.247 . S
C1018 O1015 1.244 . S
C1018 O1016 1.240 . S
H1019 C993 0.931 . S
H1020 C1002 0.931 . S
H1021 C1006 0.929 . S
H1022 C1008 0.930 . S
Co1023 N1027 2.148 . S
Co1023 N1033 2.128 . S
Co1023 N1043 2.194 . S
Co1023 O1048 2.351 . S
Co1023 O1049 2.155 . S
Co1023 O1050 2.096 . S
C1024 N1027 1.301 . S
C1024 N1028 1.328 . S
C1024 H1029 0.930 . S
C1025 C1026 1.333 . S
C1025 N1027 1.317 . S
C1025 H1030 0.930 . S
C1026 C1025 1.333 . S
C1026 N1028 1.350 . S
C1026 H1052 0.931 . S
N1027 Co1023 2.148 . S
N1027 C1024 1.301 . S
N1027 C1025 1.317 . S
N1028 C1024 1.328 . S
N1028 C1026 1.350 . S
H1029 C1024 0.930 . S
H1030 C1025 0.930 . S
C1031 O1032 1.224 . S
C1031 O1050 1.247 . S
O1032 C1031 1.224 . S
N1033 Co1023 2.128 . S
N1033 C1034 1.355 . S
N1033 C1036 1.311 . S
C1034 N1033 1.355 . S
C1034 C1035 1.363 . S
C1034 H1046 0.929 . S
C1035 C1034 1.363 . S
C1035 N1037 1.375 . S
C1035 H1053 0.931 . S
C1036 N1033 1.311 . S
C1036 N1037 1.347 . S
C1036 H1047 0.929 . S
N1037 C1035 1.375 . S
N1037 C1036 1.347 . S
C1038 C1041 1.365 . S
C1038 N1043 1.328 . S
C1038 H1044 0.929 . S
C1039 C1040 1.362 . S
C1039 C1042 1.378 . S
C1039 H1054 0.929 . S
C1040 C1039 1.362 . S
C1040 C1041 1.366 . S
C1041 C1038 1.365 . S
C1041 C1040 1.366 . S
C1041 H1055 0.930 . S
C1042 C1039 1.378 . S
C1042 N1043 1.315 . S
C1042 H1045 0.930 . S
N1043 Co1023 2.194 . S
N1043 C1038 1.328 . S
N1043 C1042 1.315 . S
H1044 C1038 0.929 . S
H1045 C1042 0.930 . S
H1046 C1034 0.929 . S
H1047 C1036 0.929 . S
O1048 Co1023 2.351 . S
O1048 C1051 1.244 . S
O1049 Co1023 2.155 . S
O1049 C1051 1.240 . S
O1050 Co1023 2.096 . S
O1050 C1031 1.247 . S
C1051 O1048 1.244 . S
C1051 O1049 1.240 . S
H1052 C1026 0.931 . S
H1053 C1035 0.931 . S
H1054 C1039 0.929 . S
H1055 C1041 0.930 . S
Co1056 N1060 2.148 . S
Co1056 N1066 2.128 . S
Co1056 N1076 2.194 . S
Co1056 O1081 2.351 . S
Co1056 O1082 2.155 . S
Co1056 O1083 2.096 . S
C1057 N1060 1.301 . S
C1057 N1061 1.328 . S
C1057 H1062 0.930 . S
C1058 C1059 1.333 . S
C1058 N1060 1.317 . S
C1058 H1063 0.930 . S
C1059 C1058 1.333 . S
C1059 N1061 1.350 . S
C1059 H1085 0.931 . S
N1060 Co1056 2.148 . S
N1060 C1057 1.301 . S
N1060 C1058 1.317 . S
N1061 C1057 1.328 . S
N1061 C1059 1.350 . S
H1062 C1057 0.930 . S
H1063 C1058 0.930 . S
C1064 O1065 1.224 . S
C1064 O1083 1.247 . S
O1065 C1064 1.224 . S
N1066 Co1056 2.128 . S
N1066 C1067 1.355 . S
N1066 C1069 1.311 . S
C1067 N1066 1.355 . S
C1067 C1068 1.363 . S
C1067 H1079 0.929 . S
C1068 C1067 1.363 . S
C1068 N1070 1.375 . S
C1068 H1086 0.931 . S
C1069 N1066 1.311 . S
C1069 N1070 1.347 . S
C1069 H1080 0.929 . S
N1070 C1068 1.375 . S
N1070 C1069 1.347 . S
C1071 C1074 1.365 . S
C1071 N1076 1.328 . S
C1071 H1077 0.929 . S
C1072 C1073 1.362 . S
C1072 C1075 1.378 . S
C1072 H1087 0.929 . S
C1073 C1072 1.362 . S
C1073 C1074 1.366 . S
C1074 C1071 1.365 . S
C1074 C1073 1.366 . S
C1074 H1088 0.930 . S
C1075 C1072 1.378 . S
C1075 N1076 1.315 . S
C1075 H1078 0.930 . S
N1076 Co1056 2.194 . S
N1076 C1071 1.328 . S
N1076 C1075 1.315 . S
H1077 C1071 0.929 . S
H1078 C1075 0.930 . S
H1079 C1067 0.929 . S
H1080 C1069 0.929 . S
O1081 Co1056 2.351 . S
O1081 C1084 1.244 . S
O1082 Co1056 2.155 . S
O1082 C1084 1.240 . S
O1083 Co1056 2.096 . S
O1083 C1064 1.247 . S
C1084 O1081 1.244 . S
C1084 O1082 1.240 . S
H1085 C1059 0.931 . S
H1086 C1068 0.931 . S
H1087 C1072 0.929 . S
H1088 C1074 0.930 . S
Co1089 N1093 2.148 . S
Co1089 N1099 2.128 . S
Co1089 N1109 2.194 . S
Co1089 O1114 2.351 . S
Co1089 O1115 2.155 . S
Co1089 O1116 2.096 . S
C1090 N1093 1.301 . S
C1090 N1094 1.328 . S
C1090 H1095 0.930 . S
C1091 C1092 1.333 . S
C1091 N1093 1.317 . S
C1091 H1096 0.930 . S
C1092 C1091 1.333 . S
C1092 N1094 1.350 . S
C1092 H1118 0.931 1_554 S
N1093 Co1089 2.148 . S
N1093 C1090 1.301 . S
N1093 C1091 1.317 . S
N1094 C1090 1.328 . S
N1094 C1092 1.350 . S
H1095 C1090 0.930 . S
H1096 C1091 0.930 . S
C1097 O1098 1.224 . S
C1097 O1116 1.247 . S
O1098 C1097 1.224 . S
N1099 Co1089 2.128 . S
N1099 C1100 1.355 . S
N1099 C1102 1.311 . S
C1100 N1099 1.355 . S
C1100 C1101 1.363 . S
C1100 H1112 0.929 . S
C1101 C1100 1.363 . S
C1101 N1103 1.375 . S
C1101 H1119 0.931 . S
C1102 N1099 1.311 . S
C1102 N1103 1.347 . S
C1102 H1113 0.929 . S
N1103 C1101 1.375 . S
N1103 C1102 1.347 . S
C1104 C1107 1.365 . S
C1104 N1109 1.328 . S
C1104 H1110 0.929 . S
C1105 C1106 1.362 . S
C1105 C1108 1.378 . S
C1105 H1120 0.929 . S
C1106 C1105 1.362 . S
C1106 C1107 1.366 . S
C1107 C1104 1.365 . S
C1107 C1106 1.366 . S
C1107 H1121 0.930 . S
C1108 C1105 1.378 . S
C1108 N1109 1.315 . S
C1108 H1111 0.930 . S
N1109 Co1089 2.194 . S
N1109 C1104 1.328 . S
N1109 C1108 1.315 . S
H1110 C1104 0.929 . S
H1111 C1108 0.930 . S
H1112 C1100 0.929 . S
H1113 C1102 0.929 . S
O1114 Co1089 2.351 . S
O1114 C1117 1.244 . S
O1115 Co1089 2.155 . S
O1115 C1117 1.240 . S
O1116 Co1089 2.096 . S
O1116 C1097 1.247 . S
C1117 O1114 1.244 . S
C1117 O1115 1.240 . S
H1118 C1092 0.931 1_556 S
H1119 C1101 0.931 . S
H1120 C1105 0.929 . S
H1121 C1107 0.930 . S
Co1122 N1126 2.148 . S
Co1122 N1132 2.128 . S
Co1122 N1142 2.194 . S
Co1122 O1147 2.351 . S
Co1122 O1148 2.155 . S
Co1122 O1149 2.096 . S
C1123 N1126 1.301 . S
C1123 N1127 1.328 . S
C1123 H1128 0.930 . S
C1124 C1125 1.333 . S
C1124 N1126 1.317 . S
C1124 H1129 0.930 . S
C1125 C1124 1.333 . S
C1125 N1127 1.350 . S
C1125 H1151 0.931 1_554 S
N1126 Co1122 2.148 . S
N1126 C1123 1.301 . S
N1126 C1124 1.317 . S
N1127 C1123 1.328 . S
N1127 C1125 1.350 . S
H1128 C1123 0.930 . S
H1129 C1124 0.930 . S
C1130 O1131 1.224 . S
C1130 O1149 1.247 . S
O1131 C1130 1.224 . S
N1132 Co1122 2.128 . S
N1132 C1133 1.355 . S
N1132 C1135 1.311 . S
C1133 N1132 1.355 . S
C1133 C1134 1.363 . S
C1133 H1145 0.929 . S
C1134 C1133 1.363 . S
C1134 N1136 1.375 . S
C1134 H1152 0.931 . S
C1135 N1132 1.311 . S
C1135 N1136 1.347 . S
C1135 H1146 0.929 . S
N1136 C1134 1.375 . S
N1136 C1135 1.347 . S
C1137 C1140 1.365 . S
C1137 N1142 1.328 . S
C1137 H1143 0.929 . S
C1138 C1139 1.362 . S
C1138 C1141 1.378 . S
C1138 H1153 0.929 . S
C1139 C1138 1.362 . S
C1139 C1140 1.366 . S
C1140 C1137 1.365 . S
C1140 C1139 1.366 . S
C1140 H1154 0.930 . S
C1141 C1138 1.378 . S
C1141 N1142 1.315 . S
C1141 H1144 0.930 . S
N1142 Co1122 2.194 . S
N1142 C1137 1.328 . S
N1142 C1141 1.315 . S
H1143 C1137 0.929 . S
H1144 C1141 0.930 . S
H1145 C1133 0.929 . S
H1146 C1135 0.929 . S
O1147 Co1122 2.351 . S
O1147 C1150 1.244 . S
O1148 Co1122 2.155 . S
O1148 C1150 1.240 . S
O1149 Co1122 2.096 . S
O1149 C1130 1.247 . S
C1150 O1147 1.244 . S
C1150 O1148 1.240 . S
H1151 C1125 0.931 1_556 S
H1152 C1134 0.931 . S
H1153 C1138 0.929 . S
H1154 C1140 0.930 . S
Co1155 N1159 2.148 . S
Co1155 N1165 2.128 . S
Co1155 N1175 2.194 . S
Co1155 O1180 2.351 . S
Co1155 O1181 2.155 . S
Co1155 O1182 2.096 . S
C1156 N1159 1.301 . S
C1156 N1160 1.328 . S
C1156 H1161 0.930 . S
C1157 C1158 1.333 . S
C1157 N1159 1.317 . S
C1157 H1162 0.930 . S
C1158 C1157 1.333 . S
C1158 N1160 1.350 . S
C1158 H1184 0.931 1_554 S
N1159 Co1155 2.148 . S
N1159 C1156 1.301 . S
N1159 C1157 1.317 . S
N1160 C1156 1.328 . S
N1160 C1158 1.350 . S
H1161 C1156 0.930 . S
H1162 C1157 0.930 . S
C1163 O1164 1.224 . S
C1163 O1182 1.247 . S
O1164 C1163 1.224 . S
N1165 Co1155 2.128 . S
N1165 C1166 1.355 . S
N1165 C1168 1.311 . S
C1166 N1165 1.355 . S
C1166 C1167 1.363 . S
C1166 H1178 0.929 . S
C1167 C1166 1.363 . S
C1167 N1169 1.375 . S
C1167 H1185 0.931 . S
C1168 N1165 1.311 . S
C1168 N1169 1.347 . S
C1168 H1179 0.929 . S
N1169 C1167 1.375 . S
N1169 C1168 1.347 . S
C1170 C1173 1.365 . S
C1170 N1175 1.328 . S
C1170 H1176 0.929 . S
C1171 C1172 1.362 . S
C1171 C1174 1.378 . S
C1171 H1186 0.929 . S
C1172 C1171 1.362 . S
C1172 C1173 1.366 . S
C1173 C1170 1.365 . S
C1173 C1172 1.366 . S
C1173 H1187 0.930 . S
C1174 C1171 1.378 . S
C1174 N1175 1.315 . S
C1174 H1177 0.930 . S
N1175 Co1155 2.194 . S
N1175 C1170 1.328 . S
N1175 C1174 1.315 . S
H1176 C1170 0.929 . S
H1177 C1174 0.930 . S
H1178 C1166 0.929 . S
H1179 C1168 0.929 . S
O1180 Co1155 2.351 . S
O1180 C1183 1.244 . S
O1181 Co1155 2.155 . S
O1181 C1183 1.240 . S
O1182 Co1155 2.096 . S
O1182 C1163 1.247 . S
C1183 O1180 1.244 . S
C1183 O1181 1.240 . S
H1184 C1158 0.931 1_556 S
H1185 C1167 0.931 . S
H1186 C1171 0.929 . S
H1187 C1173 0.930 . S
H1188 C1196 0.929 . S
H1189 C1198 0.930 . S
H1190 C1200 0.930 . S
H1191 C1203 0.929 . S
H1192 C1206 0.930 . S
H1193 C1208 0.960 . S
H1194 C1208 0.960 . S
H1195 C1208 0.960 . S
C1196 H1188 0.929 . S
C1196 C1197 1.377 . S
C1196 C1198 1.384 . S
C1197 C1196 1.377 . S
C1197 C1203 1.390 . S
C1198 H1189 0.930 . S
C1198 C1196 1.384 . S
C1198 C1199 1.372 . S
C1199 C1198 1.372 . S
C1199 C1200 1.400 . S
C1199 C1204 1.490 . S
C1200 H1190 0.930 . S
C1200 C1199 1.400 . S
C1200 C1203 1.386 . S
H1201 C1217 0.930 . S
H1202 C1218 0.931 . S
C1203 H1191 0.929 . S
C1203 C1197 1.390 . S
C1203 C1200 1.386 . S
C1204 C1199 1.490 . S
C1204 C1206 1.395 . S
C1204 C1207 1.403 . S
H1205 C1211 0.930 . S
C1206 H1192 0.930 . S
C1206 C1204 1.395 . S
C1206 C1209 1.403 . S
C1207 C1204 1.403 . S
C1207 C1208 1.524 . S
C1207 C1211 1.400 . S
C1208 H1193 0.960 . S
C1208 H1194 0.960 . S
C1208 H1195 0.960 . S
C1208 C1207 1.524 . S
C1209 C1206 1.403 . S
C1209 C1210 1.392 . S
C1209 C1213 1.495 . S
C1210 C1209 1.392 . S
C1210 C1211 1.385 . S
C1210 C1212 1.478 . S
C1211 H1205 0.930 . S
C1211 C1207 1.400 . S
C1211 C1210 1.385 . S
C1212 C1210 1.478 . S
C1212 C1214 1.381 . S
C1212 C1218 1.383 . S
C1213 C1209 1.495 . S
C1213 H1219 0.959 . S
C1213 H1220 0.961 . S
C1213 H1221 0.960 . S
C1214 C1212 1.381 . S
C1214 C1215 1.394 . S
C1214 H1222 0.930 . S
C1215 C1214 1.394 . S
C1215 C1216 1.383 . S
C1215 H1223 0.929 . S
C1216 C1215 1.383 . S
C1216 C1217 1.377 . S
C1217 H1201 0.930 . S
C1217 C1216 1.377 . S
C1217 C1218 1.379 . S
C1218 H1202 0.931 . S
C1218 C1212 1.383 . S
C1218 C1217 1.379 . S
H1219 C1213 0.959 . S
H1220 C1213 0.961 . S
H1221 C1213 0.960 . S
H1222 C1214 0.930 . S
H1223 C1215 0.929 . S
H1224 C1232 0.929 . S
H1225 C1234 0.930 . S
H1226 C1236 0.930 . S
H1227 C1239 0.929 . S
H1228 C1242 0.930 . S
H1229 C1244 0.960 . S
H1230 C1244 0.960 . S
H1231 C1244 0.960 . S
C1232 H1224 0.929 . S
C1232 C1233 1.377 . S
C1232 C1234 1.384 . S
C1233 C1232 1.377 . S
C1233 C1239 1.390 . S
C1234 H1225 0.930 . S
C1234 C1232 1.384 . S
C1234 C1235 1.372 . S
C1235 C1234 1.372 . S
C1235 C1236 1.400 . S
C1235 C1240 1.490 . S
C1236 H1226 0.930 . S
C1236 C1235 1.400 . S
C1236 C1239 1.386 . S
H1237 C1253 0.930 . S
H1238 C1254 0.931 . S
C1239 H1227 0.929 . S
C1239 C1233 1.390 . S
C1239 C1236 1.386 . S
C1240 C1235 1.490 . S
C1240 C1242 1.395 . S
C1240 C1243 1.403 . S
H1241 C1247 0.930 . S
C1242 H1228 0.930 . S
C1242 C1240 1.395 . S
C1242 C1245 1.403 . S
C1243 C1240 1.403 . S
C1243 C1244 1.524 . S
C1243 C1247 1.400 . S
C1244 H1229 0.960 . S
C1244 H1230 0.960 . S
C1244 H1231 0.960 . S
C1244 C1243 1.524 . S
C1245 C1242 1.403 . S
C1245 C1246 1.392 . S
C1245 C1249 1.495 . S
C1246 C1245 1.392 . S
C1246 C1247 1.385 . S
C1246 C1248 1.478 . S
C1247 H1241 0.930 . S
C1247 C1243 1.400 . S
C1247 C1246 1.385 . S
C1248 C1246 1.478 . S
C1248 C1250 1.381 . S
C1248 C1254 1.383 . S
C1249 C1245 1.495 . S
C1249 H1255 0.959 . S
C1249 H1256 0.961 . S
C1249 H1257 0.960 . S
C1250 C1248 1.381 . S
C1250 C1251 1.394 . S
C1250 H1258 0.930 . S
C1251 C1250 1.394 . S
C1251 C1252 1.383 . S
C1251 H1259 0.929 . S
C1252 C1251 1.383 . S
C1252 C1253 1.377 . S
C1253 H1237 0.930 . S
C1253 C1252 1.377 . S
C1253 C1254 1.379 . S
C1254 H1238 0.931 . S
C1254 C1248 1.383 . S
C1254 C1253 1.379 . S
H1255 C1249 0.959 . S
H1256 C1249 0.961 . S
H1257 C1249 0.960 . S
H1258 C1250 0.930 . S
H1259 C1251 0.929 . S
H1260 C1268 0.929 . S
H1261 C1270 0.930 . S
H1262 C1272 0.930 . S
H1263 C1275 0.929 . S
H1264 C1278 0.930 . S
H1265 C1280 0.960 . S
H1266 C1280 0.960 . S
H1267 C1280 0.960 . S
C1268 H1260 0.929 . S
C1268 C1269 1.377 . S
C1268 C1270 1.384 . S
C1269 C1268 1.377 . S
C1269 C1275 1.390 . S
C1270 H1261 0.930 . S
C1270 C1268 1.384 . S
C1270 C1271 1.372 . S
C1271 C1270 1.372 . S
C1271 C1272 1.400 . S
C1271 C1276 1.490 . S
C1272 H1262 0.930 . S
C1272 C1271 1.400 . S
C1272 C1275 1.386 . S
H1273 C1289 0.930 . S
H1274 C1290 0.931 . S
C1275 H1263 0.929 . S
C1275 C1269 1.390 . S
C1275 C1272 1.386 . S
C1276 C1271 1.490 . S
C1276 C1278 1.395 . S
C1276 C1279 1.403 . S
H1277 C1283 0.930 . S
C1278 H1264 0.930 . S
C1278 C1276 1.395 . S
C1278 C1281 1.403 . S
C1279 C1276 1.403 . S
C1279 C1280 1.524 . S
C1279 C1283 1.400 . S
C1280 H1265 0.960 . S
C1280 H1266 0.960 . S
C1280 H1267 0.960 . S
C1280 C1279 1.524 . S
C1281 C1278 1.403 . S
C1281 C1282 1.392 . S
C1281 C1285 1.495 . S
C1282 C1281 1.392 . S
C1282 C1283 1.385 . S
C1282 C1284 1.478 . S
C1283 H1277 0.930 . S
C1283 C1279 1.400 . S
C1283 C1282 1.385 . S
C1284 C1282 1.478 . S
C1284 C1286 1.381 . S
C1284 C1290 1.383 . S
C1285 C1281 1.495 . S
C1285 H1291 0.959 . S
C1285 H1292 0.961 . S
C1285 H1293 0.960 . S
C1286 C1284 1.381 . S
C1286 C1287 1.394 . S
C1286 H1294 0.930 . S
C1287 C1286 1.394 . S
C1287 C1288 1.383 . S
C1287 H1295 0.929 . S
C1288 C1287 1.383 . S
C1288 C1289 1.377 . S
C1289 H1273 0.930 . S
C1289 C1288 1.377 . S
C1289 C1290 1.379 . S
C1290 H1274 0.931 . S
C1290 C1284 1.383 . S
C1290 C1289 1.379 . S
H1291 C1285 0.959 . S
H1292 C1285 0.961 . S
H1293 C1285 0.960 . S
H1294 C1286 0.930 . S
H1295 C1287 0.929 . S
H1296 C1304 0.929 . S
H1297 C1306 0.930 . S
H1298 C1308 0.930 . S
H1299 C1311 0.925 1_556 S
H1300 C1314 0.930 1_554 S
H1301 C1316 0.960 . S
H1302 C1316 0.960 . S
H1303 C1316 0.960 . S
C1304 H1296 0.929 . S
C1304 C1305 1.377 . S
C1304 C1306 1.384 . S
C1305 C1304 1.377 . S
C1305 C1311 1.402 . S
C1306 H1297 0.930 . S
C1306 C1304 1.384 . S
C1306 C1307 1.372 1_554 S
C1307 C1306 1.372 1_556 S
C1307 C1308 1.400 . S
C1307 C1312 1.490 . S
C1308 H1298 0.930 . S
C1308 C1307 1.400 . S
C1308 C1311 1.378 1_556 S
H1309 C1325 0.930 . S
H1310 C1326 0.931 . S
C1311 H1299 0.925 1_554 S
C1311 C1305 1.402 . S
C1311 C1308 1.378 1_554 S
C1312 C1307 1.490 . S
C1312 C1314 1.395 . S
C1312 C1315 1.403 . S
H1313 C1319 0.930 . S
C1314 H1300 0.930 1_556 S
C1314 C1312 1.395 . S
C1314 C1317 1.403 . S
C1315 C1312 1.403 . S
C1315 C1316 1.524 . S
C1315 C1319 1.400 . S
C1316 H1301 0.960 . S
C1316 H1302 0.960 . S
C1316 H1303 0.960 . S
C1316 C1315 1.524 . S
C1317 C1314 1.403 . S
C1317 C1318 1.392 . S
C1317 C1321 1.495 . S
C1318 C1317 1.392 . S
C1318 C1319 1.385 . S
C1318 C1320 1.478 . S
C1319 H1313 0.930 . S
C1319 C1315 1.400 . S
C1319 C1318 1.385 . S
C1320 C1318 1.478 . S
C1320 C1322 1.381 . S
C1320 C1326 1.383 . S
C1321 C1317 1.495 . S
C1321 H1327 0.959 . S
C1321 H1328 0.961 . S
C1321 H1329 0.960 . S
C1322 C1320 1.381 . S
C1322 C1323 1.394 . S
C1322 H1330 0.930 . S
C1323 C1322 1.394 . S
C1323 C1324 1.383 . S
C1323 H1331 0.929 . S
C1324 C1323 1.383 . S
C1324 C1325 1.377 . S
C1325 H1309 0.930 . S
C1325 C1324 1.377 . S
C1325 C1326 1.379 . S
C1326 H1310 0.931 . S
C1326 C1320 1.383 . S
C1326 C1325 1.379 . S
H1327 C1321 0.959 . S
H1328 C1321 0.961 . S
H1329 C1321 0.960 . S
H1330 C1322 0.930 . S
H1331 C1323 0.929 . S
H1332 C1340 0.929 . S
H1333 C1342 0.933 . S
H1334 C1344 0.930 . S
H1335 C1347 0.929 . S
H1336 C1350 0.930 . S
H1337 C1352 0.960 . S
H1338 C1352 0.960 . S
H1339 C1352 0.960 . S
C1340 H1332 0.929 . S
C1340 C1341 1.377 . S
C1340 C1342 1.384 . S
C1341 C1340 1.377 . S
C1341 C1347 1.390 . S
C1342 H1333 0.933 . S
C1342 C1340 1.384 . S
C1342 C1343 1.372 1_554 S
C1343 C1342 1.372 1_556 S
C1343 C1344 1.400 . S
C1343 C1348 1.490 . S
C1344 H1334 0.930 . S
C1344 C1343 1.400 . S
C1344 C1347 1.386 1_556 S
H1345 C1361 0.930 . S
H1346 C1362 0.931 . S
C1347 H1335 0.929 . S
C1347 C1341 1.390 . S
C1347 C1344 1.386 1_554 S
C1348 C1343 1.490 . S
C1348 C1350 1.395 . S
C1348 C1351 1.403 . S
H1349 C1355 0.930 . S
C1350 H1336 0.930 . S
C1350 C1348 1.395 . S
C1350 C1353 1.403 . S
C1351 C1348 1.403 . S
C1351 C1352 1.524 1_556 S
C1351 C1355 1.400 . S
C1352 H1337 0.960 . S
C1352 H1338 0.960 . S
C1352 H1339 0.960 . S
C1352 C1351 1.524 1_554 S
C1353 C1350 1.403 . S
C1353 C1354 1.392 . S
C1353 C1357 1.495 . S
C1354 C1353 1.392 . S
C1354 C1355 1.385 . S
C1354 C1356 1.478 . S
C1355 H1349 0.930 . S
C1355 C1351 1.400 . S
C1355 C1354 1.385 . S
C1356 C1354 1.478 . S
C1356 C1358 1.381 . S
C1356 C1362 1.383 . S
C1357 C1353 1.495 . S
C1357 H1363 0.959 . S
C1357 H1364 0.961 . S
C1357 H1365 0.960 . S
C1358 C1356 1.381 . S
C1358 C1359 1.394 . S
C1358 H1366 0.930 . S
C1359 C1358 1.394 . S
C1359 C1360 1.383 . S
C1359 H1367 0.929 . S
C1360 C1359 1.383 . S
C1360 C1361 1.377 . S
C1361 H1345 0.930 . S
C1361 C1360 1.377 . S
C1361 C1362 1.379 . S
C1362 H1346 0.931 . S
C1362 C1356 1.383 . S
C1362 C1361 1.379 . S
H1363 C1357 0.959 . S
H1364 C1357 0.961 . S
H1365 C1357 0.960 . S
H1366 C1358 0.930 . S
H1367 C1359 0.929 . S
H1368 C1376 0.929 . S
H1369 C1378 0.930 . S
H1370 C1380 0.930 . S
H1371 C1383 0.929 . S
H1372 C1386 0.930 . S
H1373 C1388 0.960 . S
H1374 C1388 0.960 1_554 S
H1375 C1388 0.960 . S
C1376 H1368 0.929 . S
C1376 C1377 1.377 . S
C1376 C1378 1.384 . S
C1377 C1376 1.377 . S
C1377 C1383 1.390 . S
C1378 H1369 0.930 . S
C1378 C1376 1.384 . S
C1378 C1379 1.372 1_554 S
C1379 C1378 1.372 1_556 S
C1379 C1380 1.400 . S
C1379 C1384 1.490 . S
C1380 H1370 0.930 . S
C1380 C1379 1.400 . S
C1380 C1383 1.386 1_556 S
H1381 C1397 0.930 . S
H1382 C1398 0.931 . S
C1383 H1371 0.929 . S
C1383 C1377 1.390 . S
C1383 C1380 1.386 1_554 S
C1384 C1379 1.490 . S
C1384 C1386 1.395 . S
C1384 C1387 1.403 . S
H1385 C1391 0.930 . S
C1386 H1372 0.930 . S
C1386 C1384 1.395 . S
C1386 C1389 1.403 . S
C1387 C1384 1.403 . S
C1387 C1388 1.524 . S
C1387 C1391 1.400 . S
C1388 H1373 0.960 . S
C1388 H1374 0.960 1_556 S
C1388 H1375 0.960 . S
C1388 C1387 1.524 . S
C1389 C1386 1.403 . S
C1389 C1390 1.392 . S
C1389 C1393 1.495 . S
C1390 C1389 1.392 . S
C1390 C1391 1.385 . S
C1390 C1392 1.478 . S
C1391 H1385 0.930 . S
C1391 C1387 1.400 . S
C1391 C1390 1.385 . S
C1392 C1390 1.478 . S
C1392 C1394 1.381 . S
C1392 C1398 1.383 . S
C1393 C1389 1.495 . S
C1393 H1399 0.959 . S
C1393 H1400 0.961 . S
C1393 H1401 0.960 . S
C1394 C1392 1.381 . S
C1394 C1395 1.394 . S
C1394 H1402 0.930 . S
C1395 C1394 1.394 . S
C1395 C1396 1.383 . S
C1395 H1403 0.929 . S
C1396 C1395 1.383 . S
C1396 C1397 1.377 . S
C1397 H1381 0.930 . S
C1397 C1396 1.377 . S
C1397 C1398 1.379 . S
C1398 H1382 0.931 . S
C1398 C1392 1.383 . S
C1398 C1397 1.379 . S
H1399 C1393 0.959 . S
H1400 C1393 0.961 . S
H1401 C1393 0.960 . S
H1402 C1394 0.930 . S
H1403 C1395 0.929 . S
H1404 C1412 0.929 . S
H1405 C1414 0.930 . S
H1406 C1416 0.930 . S
H1407 C1419 0.929 . S
H1408 C1422 0.930 . S
H1409 C1424 0.960 . S
H1410 C1424 0.960 . S
H1411 C1424 0.960 . S
C1412 H1404 0.929 . S
C1412 C1413 1.377 . S
C1412 C1414 1.384 . S
C1413 C1412 1.377 . S
C1413 C1419 1.390 . S
C1414 H1405 0.930 . S
C1414 C1412 1.384 . S
C1414 C1415 1.372 . S
C1415 C1414 1.372 . S
C1415 C1416 1.400 . S
C1415 C1420 1.490 . S
C1416 H1406 0.930 . S
C1416 C1415 1.400 . S
C1416 C1419 1.386 . S
H1417 C1433 0.930 . S
H1418 C1434 0.931 . S
C1419 H1407 0.929 . S
C1419 C1413 1.390 . S
C1419 C1416 1.386 . S
C1420 C1415 1.490 . S
C1420 C1422 1.395 . S
C1420 C1423 1.403 . S
H1421 C1427 0.930 . S
C1422 H1408 0.930 . S
C1422 C1420 1.395 . S
C1422 C1425 1.403 . S
C1423 C1420 1.403 . S
C1423 C1424 1.524 . S
C1423 C1427 1.400 . S
C1424 H1409 0.960 . S
C1424 H1410 0.960 . S
C1424 H1411 0.960 . S
C1424 C1423 1.524 . S
C1425 C1422 1.403 . S
C1425 C1426 1.392 . S
C1425 C1429 1.495 . S
C1426 C1425 1.392 . S
C1426 C1427 1.385 . S
C1426 C1428 1.478 . S
C1427 H1421 0.930 . S
C1427 C1423 1.400 . S
C1427 C1426 1.385 . S
C1428 C1426 1.478 . S
C1428 C1430 1.381 . S
C1428 C1434 1.383 . S
C1429 C1425 1.495 . S
C1429 H1435 0.959 . S
C1429 H1436 0.961 . S
C1429 H1437 0.960 . S
C1430 C1428 1.381 . S
C1430 C1431 1.394 . S
C1430 H1438 0.930 . S
C1431 C1430 1.394 . S
C1431 C1432 1.383 . S
C1431 H1439 0.929 . S
C1432 C1431 1.383 . S
C1432 C1433 1.377 . S
C1433 H1417 0.930 . S
C1433 C1432 1.377 . S
C1433 C1434 1.379 . S
C1434 H1418 0.931 . S
C1434 C1428 1.383 . S
C1434 C1433 1.379 . S
H1435 C1429 0.959 . S
H1436 C1429 0.961 . S
H1437 C1429 0.960 . S
H1438 C1430 0.930 . S
H1439 C1431 0.929 . S
H1440 C1448 0.929 . S
H1441 C1450 0.930 . S
H1442 C1452 0.930 . S
H1443 C1455 0.929 . S
H1444 C1458 0.930 . S
H1445 C1460 0.960 . S
H1446 C1460 0.960 . S
H1447 C1460 0.960 . S
C1448 H1440 0.929 . S
C1448 C1449 1.377 . S
C1448 C1450 1.384 . S
C1449 C1448 1.377 . S
C1449 C1455 1.390 . S
C1450 H1441 0.930 . S
C1450 C1448 1.384 . S
C1450 C1451 1.372 . S
C1451 C1450 1.372 . S
C1451 C1452 1.400 . S
C1451 C1456 1.490 . S
C1452 H1442 0.930 . S
C1452 C1451 1.400 . S
C1452 C1455 1.386 . S
H1453 C1469 0.930 . S
H1454 C1470 0.931 . S
C1455 H1443 0.929 . S
C1455 C1449 1.390 . S
C1455 C1452 1.386 . S
C1456 C1451 1.490 . S
C1456 C1458 1.395 . S
C1456 C1459 1.403 . S
H1457 C1463 0.930 . S
C1458 H1444 0.930 . S
C1458 C1456 1.395 . S
C1458 C1461 1.403 . S
C1459 C1456 1.403 . S
C1459 C1460 1.524 . S
C1459 C1463 1.400 . S
C1460 H1445 0.960 . S
C1460 H1446 0.960 . S
C1460 H1447 0.960 . S
C1460 C1459 1.524 . S
C1461 C1458 1.403 . S
C1461 C1462 1.392 . S
C1461 C1465 1.495 . S
C1462 C1461 1.392 . S
C1462 C1463 1.385 . S
C1462 C1464 1.478 . S
C1463 H1457 0.930 . S
C1463 C1459 1.400 . S
C1463 C1462 1.385 . S
C1464 C1462 1.478 . S
C1464 C1466 1.381 . S
C1464 C1470 1.383 . S
C1465 C1461 1.495 . S
C1465 H1471 0.959 . S
C1465 H1472 0.961 . S
C1465 H1473 0.960 . S
C1466 C1464 1.381 . S
C1466 C1467 1.394 . S
C1466 H1474 0.930 . S
C1467 C1466 1.394 . S
C1467 C1468 1.383 . S
C1467 H1475 0.929 . S
C1468 C1467 1.383 . S
C1468 C1469 1.377 . S
C1469 H1453 0.930 . S
C1469 C1468 1.377 . S
C1469 C1470 1.379 . S
C1470 H1454 0.931 . S
C1470 C1464 1.383 . S
C1470 C1469 1.379 . S
H1471 C1465 0.959 . S
H1472 C1465 0.961 . S
H1473 C1465 0.960 . S
H1474 C1466 0.930 . S
H1475 C1467 0.929 . S
H1476 C1484 0.929 . S
H1477 C1486 0.930 . S
H1478 C1488 0.930 . S
H1479 C1491 0.929 . S
H1480 C1494 0.930 . S
H1481 C1496 0.960 . S
H1482 C1496 0.960 . S
H1483 C1496 0.960 . S
C1484 H1476 0.929 . S
C1484 C1485 1.377 . S
C1484 C1486 1.384 . S
C1485 C1484 1.377 . S
C1485 C1491 1.390 . S
C1486 H1477 0.930 . S
C1486 C1484 1.384 . S
C1486 C1487 1.372 . S
C1487 C1486 1.372 . S
C1487 C1488 1.400 . S
C1487 C1492 1.490 . S
C1488 H1478 0.930 . S
C1488 C1487 1.400 . S
C1488 C1491 1.386 . S
H1489 C1505 0.930 . S
H1490 C1506 0.931 . S
C1491 H1479 0.929 . S
C1491 C1485 1.390 . S
C1491 C1488 1.386 . S
C1492 C1487 1.490 . S
C1492 C1494 1.395 . S
C1492 C1495 1.403 . S
H1493 C1499 0.930 . S
C1494 H1480 0.930 . S
C1494 C1492 1.395 . S
C1494 C1497 1.403 . S
C1495 C1492 1.403 . S
C1495 C1496 1.524 . S
C1495 C1499 1.400 . S
C1496 H1481 0.960 . S
C1496 H1482 0.960 . S
C1496 H1483 0.960 . S
C1496 C1495 1.524 . S
C1497 C1494 1.403 . S
C1497 C1498 1.392 . S
C1497 C1501 1.495 . S
C1498 C1497 1.392 . S
C1498 C1499 1.385 . S
C1498 C1500 1.478 . S
C1499 H1493 0.930 . S
C1499 C1495 1.400 . S
C1499 C1498 1.385 . S
C1500 C1498 1.478 . S
C1500 C1502 1.381 . S
C1500 C1506 1.383 . S
C1501 C1497 1.495 . S
C1501 H1507 0.959 . S
C1501 H1508 0.961 . S
C1501 H1509 0.960 . S
C1502 C1500 1.381 . S
C1502 C1503 1.394 . S
C1502 H1510 0.930 . S
C1503 C1502 1.394 . S
C1503 C1504 1.383 . S
C1503 H1511 0.929 . S
C1504 C1503 1.383 . S
C1504 C1505 1.377 . S
C1505 H1489 0.930 . S
C1505 C1504 1.377 . S
C1505 C1506 1.379 . S
C1506 H1490 0.931 . S
C1506 C1500 1.383 . S
C1506 C1505 1.379 . S
H1507 C1501 0.959 . S
H1508 C1501 0.961 . S
H1509 C1501 0.960 . S
H1510 C1502 0.930 . S
H1511 C1503 0.929 . S
H1512 C1520 0.929 . S
H1513 C1522 0.930 . S
H1514 C1524 0.930 . S
H1515 C1527 0.929 . S
H1516 C1530 0.930 . S
H1517 C1532 0.960 . S
H1518 C1532 0.960 . S
H1519 C1532 0.960 . S
C1520 H1512 0.929 . S
C1520 C1521 1.377 . S
C1520 C1522 1.384 . S
C1521 C1520 1.377 . S
C1521 C1527 1.390 . S
C1522 H1513 0.930 . S
C1522 C1520 1.384 . S
C1522 C1523 1.372 . S
C1523 C1522 1.372 . S
C1523 C1524 1.400 . S
C1523 C1528 1.490 . S
C1524 H1514 0.930 . S
C1524 C1523 1.400 . S
C1524 C1527 1.386 . S
H1525 C1541 0.930 . S
H1526 C1542 0.931 . S
C1527 H1515 0.929 . S
C1527 C1521 1.390 . S
C1527 C1524 1.386 . S
C1528 C1523 1.490 . S
C1528 C1530 1.395 . S
C1528 C1531 1.403 . S
H1529 C1535 0.930 . S
C1530 H1516 0.930 . S
C1530 C1528 1.395 . S
C1530 C1533 1.403 . S
C1531 C1528 1.403 . S
C1531 C1532 1.524 . S
C1531 C1535 1.400 . S
C1532 H1517 0.960 . S
C1532 H1518 0.960 . S
C1532 H1519 0.960 . S
C1532 C1531 1.524 . S
C1533 C1530 1.403 . S
C1533 C1534 1.392 . S
C1533 C1537 1.495 . S
C1534 C1533 1.392 . S
C1534 C1535 1.385 . S
C1534 C1536 1.478 . S
C1535 H1529 0.930 . S
C1535 C1531 1.400 . S
C1535 C1534 1.385 . S
C1536 C1534 1.478 . S
C1536 C1538 1.381 . S
C1536 C1542 1.383 . S
C1537 C1533 1.495 . S
C1537 H1543 0.959 . S
C1537 H1544 0.961 . S
C1537 H1545 0.960 . S
C1538 C1536 1.381 . S
C1538 C1539 1.394 . S
C1538 H1546 0.930 . S
C1539 C1538 1.394 . S
C1539 C1540 1.383 . S
C1539 H1547 0.929 . S
C1540 C1539 1.383 . S
C1540 C1541 1.377 . S
C1541 H1525 0.930 . S
C1541 C1540 1.377 . S
C1541 C1542 1.379 . S
C1542 H1526 0.931 . S
C1542 C1536 1.383 . S
C1542 C1541 1.379 . S
H1543 C1537 0.959 . S
H1544 C1537 0.961 . S
H1545 C1537 0.960 . S
H1546 C1538 0.930 . S
H1547 C1539 0.929 . S
H1548 C1556 0.929 . S
H1549 C1558 0.930 . S
H1550 C1560 0.930 . S
H1551 C1563 0.929 . S
H1552 C1566 0.930 . S
H1553 C1568 0.960 . S
H1554 C1568 0.960 . S
H1555 C1568 0.960 . S
C1556 H1548 0.929 . S
C1556 C1557 1.377 . S
C1556 C1558 1.384 . S
C1557 C1556 1.377 . S
C1557 C1563 1.390 . S
C1558 H1549 0.930 . S
C1558 C1556 1.384 . S
C1558 C1559 1.372 . S
C1559 C1558 1.372 . S
C1559 C1560 1.400 . S
C1559 C1564 1.490 . S
C1560 H1550 0.930 . S
C1560 C1559 1.400 . S
C1560 C1563 1.386 . S
H1561 C1577 0.930 . S
H1562 C1578 0.931 . S
C1563 H1551 0.929 . S
C1563 C1557 1.390 . S
C1563 C1560 1.386 . S
C1564 C1559 1.490 . S
C1564 C1566 1.395 . S
C1564 C1567 1.403 . S
H1565 C1571 0.930 . S
C1566 H1552 0.930 . S
C1566 C1564 1.395 . S
C1566 C1569 1.403 . S
C1567 C1564 1.403 . S
C1567 C1568 1.524 . S
C1567 C1571 1.400 . S
C1568 H1553 0.960 . S
C1568 H1554 0.960 . S
C1568 H1555 0.960 . S
C1568 C1567 1.524 . S
C1569 C1566 1.403 . S
C1569 C1570 1.392 . S
C1569 C1573 1.495 . S
C1570 C1569 1.392 . S
C1570 C1571 1.385 . S
C1570 C1572 1.478 . S
C1571 H1565 0.930 . S
C1571 C1567 1.400 . S
C1571 C1570 1.385 . S
C1572 C1570 1.478 . S
C1572 C1574 1.381 . S
C1572 C1578 1.383 . S
C1573 C1569 1.495 . S
C1573 H1579 0.959 . S
C1573 H1580 0.961 . S
C1573 H1581 0.960 . S
C1574 C1572 1.381 . S
C1574 C1575 1.394 . S
C1574 H1582 0.930 . S
C1575 C1574 1.394 . S
C1575 C1576 1.383 . S
C1575 H1583 0.929 . S
C1576 C1575 1.383 . S
C1576 C1577 1.377 . S
C1577 H1561 0.930 . S
C1577 C1576 1.377 . S
C1577 C1578 1.379 . S
C1578 H1562 0.931 . S
C1578 C1572 1.383 . S
C1578 C1577 1.379 . S
H1579 C1573 0.959 . S
H1580 C1573 0.961 . S
H1581 C1573 0.960 . S
H1582 C1574 0.930 . S
H1583 C1575 0.929 . S
H1584 C1592 0.929 . S
H1585 C1594 0.930 . S
H1586 C1596 0.930 . S
H1587 C1599 0.929 . S
H1588 C1602 0.930 . S
H1589 C1604 0.960 . S
H1590 C1604 0.960 . S
H1591 C1604 0.960 . S
C1592 H1584 0.929 . S
C1592 C1593 1.377 . S
C1592 C1594 1.384 . S
C1593 C1592 1.377 . S
C1593 C1599 1.390 . S
C1594 H1585 0.930 . S
C1594 C1592 1.384 . S
C1594 C1595 1.372 . S
C1595 C1594 1.372 . S
C1595 C1596 1.400 . S
C1595 C1600 1.490 . S
C1596 H1586 0.930 . S
C1596 C1595 1.400 . S
C1596 C1599 1.386 . S
H1597 C1613 0.930 . S
H1598 C1614 0.931 . S
C1599 H1587 0.929 . S
C1599 C1593 1.390 . S
C1599 C1596 1.386 . S
C1600 C1595 1.490 . S
C1600 C1602 1.395 . S
C1600 C1603 1.403 . S
H1601 C1607 0.930 . S
C1602 H1588 0.930 . S
C1602 C1600 1.395 . S
C1602 C1605 1.403 . S
C1603 C1600 1.403 . S
C1603 C1604 1.524 . S
C1603 C1607 1.400 . S
C1604 H1589 0.960 . S
C1604 H1590 0.960 . S
C1604 H1591 0.960 . S
C1604 C1603 1.524 . S
C1605 C1602 1.403 . S
C1605 C1606 1.392 . S
C1605 C1609 1.495 . S
C1606 C1605 1.392 . S
C1606 C1607 1.385 . S
C1606 C1608 1.478 . S
C1607 H1601 0.930 . S
C1607 C1603 1.400 . S
C1607 C1606 1.385 . S
C1608 C1606 1.478 . S
C1608 C1610 1.381 . S
C1608 C1614 1.383 . S
C1609 C1605 1.495 . S
C1609 H1615 0.959 . S
C1609 H1616 0.961 . S
C1609 H1617 0.960 . S
C1610 C1608 1.381 . S
C1610 C1611 1.394 . S
C1610 H1618 0.930 . S
C1611 C1610 1.394 . S
C1611 C1612 1.383 . S
C1611 H1619 0.929 . S
C1612 C1611 1.383 . S
C1612 C1613 1.377 . S
C1613 H1597 0.930 . S
C1613 C1612 1.377 . S
C1613 C1614 1.379 . S
C1614 H1598 0.931 . S
C1614 C1608 1.383 . S
C1614 C1613 1.379 . S
H1615 C1609 0.959 . S
H1616 C1609 0.961 . S
H1617 C1609 0.960 . S
H1618 C1610 0.930 . S
H1619 C1611 0.929 . S
H1620 C1628 0.929 . S
H1621 C1630 0.930 . S
H1622 C1632 0.930 1_554 S
H1623 C1635 0.929 . S
H1624 C1638 0.930 . S
H1625 C1640 0.960 1_554 S
H1626 C1640 0.960 . S
H1627 C1640 0.960 1_554 S
C1628 H1620 0.929 . S
C1628 C1629 1.377 . S
C1628 C1630 1.384 . S
C1629 C1628 1.377 . S
C1629 C1635 1.390 . S
C1630 H1621 0.930 . S
C1630 C1628 1.384 . S
C1630 C1631 1.372 . S
C1631 C1630 1.372 . S
C1631 C1632 1.400 . S
C1631 C1636 1.490 1_556 S
C1632 H1622 0.930 1_556 S
C1632 C1631 1.400 . S
C1632 C1635 1.386 . S
H1633 C1649 0.930 . S
H1634 C1650 0.931 . S
C1635 H1623 0.929 . S
C1635 C1629 1.390 . S
C1635 C1632 1.386 . S
C1636 C1631 1.490 1_554 S
C1636 C1638 1.395 . S
C1636 C1639 1.403 . S
H1637 C1643 0.930 . S
C1638 H1624 0.930 . S
C1638 C1636 1.395 . S
C1638 C1641 1.403 . S
C1639 C1636 1.403 . S
C1639 C1640 1.524 1_554 S
C1639 C1643 1.400 . S
C1640 H1625 0.960 1_556 S
C1640 H1626 0.960 . S
C1640 H1627 0.960 1_556 S
C1640 C1639 1.524 1_556 S
C1641 C1638 1.403 . S
C1641 C1642 1.392 . S
C1641 C1645 1.495 . S
C1642 C1641 1.392 . S
C1642 C1643 1.385 . S
C1642 C1644 1.478 . S
C1643 H1637 0.930 . S
C1643 C1639 1.400 . S
C1643 C1642 1.385 . S
C1644 C1642 1.478 . S
C1644 C1646 1.381 . S
C1644 C1650 1.383 . S
C1645 C1641 1.495 . S
C1645 H1651 0.959 . S
C1645 H1652 0.961 . S
C1645 H1653 0.960 . S
C1646 C1644 1.381 . S
C1646 C1647 1.394 . S
C1646 H1654 0.930 . S
C1647 C1646 1.394 . S
C1647 C1648 1.383 . S
C1647 H1655 0.929 . S
C1648 C1647 1.383 . S
C1648 C1649 1.377 . S
C1649 H1633 0.930 . S
C1649 C1648 1.377 . S
C1649 C1650 1.379 . S
C1650 H1634 0.931 . S
C1650 C1644 1.383 . S
C1650 C1649 1.379 . S
H1651 C1645 0.959 . S
H1652 C1645 0.961 . S
H1653 C1645 0.960 . S
H1654 C1646 0.930 . S
H1655 C1647 0.929 . S
H1656 C1664 0.929 . S
H1657 C1666 0.930 . S
H1658 C1668 0.930 . S
H1659 C1671 0.929 . S
H1660 C1674 0.930 . S
H1661 C1676 0.960 1_556 S
H1662 C1676 0.960 . S
H1663 C1676 0.960 . S
C1664 H1656 0.929 . S
C1664 C1665 1.377 . S
C1664 C1666 1.384 . S
C1665 C1664 1.377 . S
C1665 C1671 1.390 . S
C1666 H1657 0.930 . S
C1666 C1664 1.384 . S
C1666 C1667 1.372 . S
C1667 C1666 1.372 . S
C1667 C1668 1.400 . S
C1667 C1672 1.490 . S
C1668 H1658 0.930 . S
C1668 C1667 1.400 . S
C1668 C1671 1.386 . S
H1669 C1685 0.930 . S
H1670 C1686 0.931 . S
C1671 H1659 0.929 . S
C1671 C1665 1.390 . S
C1671 C1668 1.386 . S
C1672 C1667 1.490 . S
C1672 C1674 1.395 . S
C1672 C1675 1.403 . S
H1673 C1679 0.930 1_556 S
C1674 H1660 0.930 . S
C1674 C1672 1.395 . S
C1674 C1677 1.403 . S
C1675 C1672 1.403 . S
C1675 C1676 1.524 . S
C1675 C1679 1.400 . S
C1676 H1661 0.960 1_554 S
C1676 H1662 0.960 . S
C1676 H1663 0.960 . S
C1676 C1675 1.524 . S
C1677 C1674 1.403 . S
C1677 C1678 1.392 . S
C1677 C1681 1.495 . S
C1678 C1677 1.392 . S
C1678 C1679 1.385 . S
C1678 C1680 1.478 1_554 S
C1679 H1673 0.930 1_554 S
C1679 C1675 1.400 . S
C1679 C1678 1.385 . S
C1680 C1678 1.478 1_556 S
C1680 C1682 1.381 . S
C1680 C1686 1.383 . S
C1681 C1677 1.495 . S
C1681 H1687 0.959 . S
C1681 H1688 0.961 . S
C1681 H1689 0.960 . S
C1682 C1680 1.381 . S
C1682 C1683 1.394 . S
C1682 H1690 0.930 . S
C1683 C1682 1.394 . S
C1683 C1684 1.383 . S
C1683 H1691 0.929 . S
C1684 C1683 1.383 . S
C1684 C1685 1.377 . S
C1685 H1669 0.930 . S
C1685 C1684 1.377 . S
C1685 C1686 1.379 . S
C1686 H1670 0.931 . S
C1686 C1680 1.383 . S
C1686 C1685 1.379 . S
H1687 C1681 0.959 . S
H1688 C1681 0.961 . S
H1689 C1681 0.960 . S
H1690 C1682 0.930 . S
H1691 C1683 0.929 . S
H1692 C1700 0.929 . S
H1693 C1702 0.930 . S
H1694 C1704 0.935 . S
H1695 C1707 0.929 . S
H1696 C1710 0.930 1_556 S
H1697 C1712 0.960 . S
H1698 C1712 0.960 . S
H1699 C1712 0.960 . S
C1700 H1692 0.929 . S
C1700 C1701 1.377 . S
C1700 C1702 1.384 . S
C1701 C1700 1.377 . S
C1701 C1707 1.390 . S
C1702 H1693 0.930 . S
C1702 C1700 1.384 . S
C1702 C1703 1.372 . S
C1703 C1702 1.372 . S
C1703 C1704 1.400 . S
C1703 C1708 1.490 1_556 S
C1704 H1694 0.935 . S
C1704 C1703 1.400 . S
C1704 C1707 1.386 . S
H1705 C1721 0.930 . S
H1706 C1722 0.931 . S
C1707 H1695 0.929 . S
C1707 C1701 1.390 . S
C1707 C1704 1.386 . S
C1708 C1703 1.490 1_554 S
C1708 C1710 1.395 . S
C1708 C1711 1.403 . S
H1709 C1715 0.930 . S
C1710 H1696 0.930 1_554 S
C1710 C1708 1.395 . S
C1710 C1713 1.403 . S
C1711 C1708 1.403 . S
C1711 C1712 1.524 . S
C1711 C1715 1.400 . S
C1712 H1697 0.960 . S
C1712 H1698 0.960 . S
C1712 H1699 0.960 . S
C1712 C1711 1.524 . S
C1713 C1710 1.403 . S
C1713 C1714 1.392 . S
C1713 C1717 1.495 . S
C1714 C1713 1.392 . S
C1714 C1715 1.385 . S
C1714 C1716 1.478 . S
C1715 H1709 0.930 . S
C1715 C1711 1.400 . S
C1715 C1714 1.385 . S
C1716 C1714 1.478 . S
C1716 C1718 1.381 . S
C1716 C1722 1.383 . S
C1717 C1713 1.495 . S
C1717 H1723 0.959 1_554 S
C1717 H1724 0.961 . S
C1717 H1725 0.960 . S
C1718 C1716 1.381 . S
C1718 C1719 1.394 . S
C1718 H1726 0.930 . S
C1719 C1718 1.394 . S
C1719 C1720 1.383 . S
C1719 H1727 0.929 . S
C1720 C1719 1.383 . S
C1720 C1721 1.377 . S
C1721 H1705 0.930 . S
C1721 C1720 1.377 . S
C1721 C1722 1.379 . S
C1722 H1706 0.931 . S
C1722 C1716 1.383 . S
C1722 C1721 1.379 . S
H1723 C1717 0.959 1_556 S
H1724 C1717 0.961 . S
H1725 C1717 0.960 . S
H1726 C1718 0.930 . S
H1727 C1719 0.929 . S
H1728 C1736 0.929 . S
H1729 C1738 0.930 . S
H1730 C1740 0.930 . S
H1731 C1743 0.929 . S
H1732 C1746 0.930 . S
H1733 C1748 0.960 . S
H1734 C1748 0.960 . S
H1735 C1748 0.960 . S
C1736 H1728 0.929 . S
C1736 C1737 1.377 . S
C1736 C1738 1.384 . S
C1737 C1736 1.377 . S
C1737 C1743 1.390 . S
C1738 H1729 0.930 . S
C1738 C1736 1.384 . S
C1738 C1739 1.372 . S
C1739 C1738 1.372 . S
C1739 C1740 1.400 . S
C1739 C1744 1.490 . S
C1740 H1730 0.930 . S
C1740 C1739 1.400 . S
C1740 C1743 1.386 . S
H1741 C1757 0.930 . S
H1742 C1758 0.931 . S
C1743 H1731 0.929 . S
C1743 C1737 1.390 . S
C1743 C1740 1.386 . S
C1744 C1739 1.490 . S
C1744 C1746 1.395 . S
C1744 C1747 1.403 . S
H1745 C1751 0.930 . S
C1746 H1732 0.930 . S
C1746 C1744 1.395 . S
C1746 C1749 1.403 . S
C1747 C1744 1.403 . S
C1747 C1748 1.524 . S
C1747 C1751 1.400 . S
C1748 H1733 0.960 . S
C1748 H1734 0.960 . S
C1748 H1735 0.960 . S
C1748 C1747 1.524 . S
C1749 C1746 1.403 . S
C1749 C1750 1.392 . S
C1749 C1753 1.495 . S
C1750 C1749 1.392 . S
C1750 C1751 1.385 . S
C1750 C1752 1.478 . S
C1751 H1745 0.930 . S
C1751 C1747 1.400 . S
C1751 C1750 1.385 . S
C1752 C1750 1.478 . S
C1752 C1754 1.381 . S
C1752 C1758 1.383 . S
C1753 C1749 1.495 . S
C1753 H1759 0.959 . S
C1753 H1760 0.961 . S
C1753 H1761 0.960 . S
C1754 C1752 1.381 . S
C1754 C1755 1.394 . S
C1754 H1762 0.930 . S
C1755 C1754 1.394 . S
C1755 C1756 1.383 . S
C1755 H1763 0.929 . S
C1756 C1755 1.383 . S
C1756 C1757 1.377 . S
C1757 H1741 0.930 . S
C1757 C1756 1.377 . S
C1757 C1758 1.379 . S
C1758 H1742 0.931 . S
C1758 C1752 1.383 . S
C1758 C1757 1.379 . S
H1759 C1753 0.959 . S
H1760 C1753 0.961 . S
H1761 C1753 0.960 . S
H1762 C1754 0.930 . S
H1763 C1755 0.929 . S
H1764 C1772 0.929 . S
H1765 C1774 0.930 . S
H1766 C1776 0.930 . S
H1767 C1779 0.929 . S
H1768 C1782 0.930 . S
H1769 C1784 0.960 . S
H1770 C1784 0.960 . S
H1771 C1784 0.960 . S
C1772 H1764 0.929 . S
C1772 C1773 1.377 . S
C1772 C1774 1.384 . S
C1773 C1772 1.377 . S
C1773 C1779 1.390 . S
C1774 H1765 0.930 . S
C1774 C1772 1.384 . S
C1774 C1775 1.372 . S
C1775 C1774 1.372 . S
C1775 C1776 1.400 . S
C1775 C1780 1.490 . S
C1776 H1766 0.930 . S
C1776 C1775 1.400 . S
C1776 C1779 1.386 . S
H1777 C1793 0.930 . S
H1778 C1794 0.931 . S
C1779 H1767 0.929 . S
C1779 C1773 1.390 . S
C1779 C1776 1.386 . S
C1780 C1775 1.490 . S
C1780 C1782 1.395 . S
C1780 C1783 1.403 . S
H1781 C1787 0.930 . S
C1782 H1768 0.930 . S
C1782 C1780 1.395 . S
C1782 C1785 1.403 . S
C1783 C1780 1.403 . S
C1783 C1784 1.524 . S
C1783 C1787 1.400 . S
C1784 H1769 0.960 . S
C1784 H1770 0.960 . S
C1784 H1771 0.960 . S
C1784 C1783 1.524 . S
C1785 C1782 1.403 . S
C1785 C1786 1.392 . S
C1785 C1789 1.495 . S
C1786 C1785 1.392 . S
C1786 C1787 1.385 . S
C1786 C1788 1.478 . S
C1787 H1781 0.930 . S
C1787 C1783 1.400 . S
C1787 C1786 1.385 . S
C1788 C1786 1.478 . S
C1788 C1790 1.381 . S
C1788 C1794 1.383 . S
C1789 C1785 1.495 . S
C1789 H1795 0.959 . S
C1789 H1796 0.961 . S
C1789 H1797 0.960 . S
C1790 C1788 1.381 . S
C1790 C1791 1.394 . S
C1790 H1798 0.930 . S
C1791 C1790 1.394 . S
C1791 C1792 1.383 . S
C1791 H1799 0.929 . S
C1792 C1791 1.383 . S
C1792 C1793 1.377 . S
C1793 H1777 0.930 . S
C1793 C1792 1.377 . S
C1793 C1794 1.379 . S
C1794 H1778 0.931 . S
C1794 C1788 1.383 . S
C1794 C1793 1.379 . S
H1795 C1789 0.959 . S
H1796 C1789 0.961 . S
H1797 C1789 0.960 . S
H1798 C1790 0.930 . S
H1799 C1791 0.929 . S
H1800 C1808 0.929 . S
H1801 C1810 0.930 . S
H1802 C1812 0.930 . S
H1803 C1815 0.929 . S
H1804 C1818 0.930 . S
H1805 C1820 0.960 . S
H1806 C1820 0.960 . S
H1807 C1820 0.960 . S
C1808 H1800 0.929 . S
C1808 C1809 1.377 . S
C1808 C1810 1.384 . S
C1809 C1808 1.377 . S
C1809 C1815 1.390 . S
C1810 H1801 0.930 . S
C1810 C1808 1.384 . S
C1810 C1811 1.372 . S
C1811 C1810 1.372 . S
C1811 C1812 1.400 . S
C1811 C1816 1.490 . S
C1812 H1802 0.930 . S
C1812 C1811 1.400 . S
C1812 C1815 1.386 . S
H1813 C1829 0.930 . S
H1814 C1830 0.931 . S
C1815 H1803 0.929 . S
C1815 C1809 1.390 . S
C1815 C1812 1.386 . S
C1816 C1811 1.490 . S
C1816 C1818 1.395 . S
C1816 C1819 1.403 . S
H1817 C1823 0.930 . S
C1818 H1804 0.930 . S
C1818 C1816 1.395 . S
C1818 C1821 1.403 . S
C1819 C1816 1.403 . S
C1819 C1820 1.524 . S
C1819 C1823 1.400 . S
C1820 H1805 0.960 . S
C1820 H1806 0.960 . S
C1820 H1807 0.960 . S
C1820 C1819 1.524 . S
C1821 C1818 1.403 . S
C1821 C1822 1.392 . S
C1821 C1825 1.495 . S
C1822 C1821 1.392 . S
C1822 C1823 1.385 . S
C1822 C1824 1.478 . S
C1823 H1817 0.930 . S
C1823 C1819 1.400 . S
C1823 C1822 1.385 . S
C1824 C1822 1.478 . S
C1824 C1826 1.381 . S
C1824 C1830 1.383 . S
C1825 C1821 1.495 . S
C1825 H1831 0.959 . S
C1825 H1832 0.961 . S
C1825 H1833 0.960 . S
C1826 C1824 1.381 . S
C1826 C1827 1.394 . S
C1826 H1834 0.930 . S
C1827 C1826 1.394 . S
C1827 C1828 1.383 . S
C1827 H1835 0.929 . S
C1828 C1827 1.383 . S
C1828 C1829 1.377 . S
C1829 H1813 0.930 . S
C1829 C1828 1.377 . S
C1829 C1830 1.379 . S
C1830 H1814 0.931 . S
C1830 C1824 1.383 . S
C1830 C1829 1.379 . S
H1831 C1825 0.959 . S
H1832 C1825 0.961 . S
H1833 C1825 0.960 . S
H1834 C1826 0.930 . S
H1835 C1827 0.929 . S
H1836 C1844 0.929 . S
H1837 C1846 0.930 . S
H1838 C1848 0.930 . S
H1839 C1851 0.929 . S
H1840 C1854 0.930 . S
H1841 C1856 0.960 . S
H1842 C1856 0.960 . S
H1843 C1856 0.960 . S
C1844 H1836 0.929 . S
C1844 C1845 1.377 . S
C1844 C1846 1.384 . S
C1845 C1844 1.377 . S
C1845 C1851 1.390 . S
C1846 H1837 0.930 . S
C1846 C1844 1.384 . S
C1846 C1847 1.372 . S
C1847 C1846 1.372 . S
C1847 C1848 1.400 . S
C1847 C1852 1.490 . S
C1848 H1838 0.930 . S
C1848 C1847 1.400 . S
C1848 C1851 1.386 . S
H1849 C1865 0.930 . S
H1850 C1866 0.931 . S
C1851 H1839 0.929 . S
C1851 C1845 1.390 . S
C1851 C1848 1.386 . S
C1852 C1847 1.490 . S
C1852 C1854 1.395 . S
C1852 C1855 1.403 . S
H1853 C1859 0.930 . S
C1854 H1840 0.930 . S
C1854 C1852 1.395 . S
C1854 C1857 1.403 . S
C1855 C1852 1.403 . S
C1855 C1856 1.524 . S
C1855 C1859 1.400 . S
C1856 H1841 0.960 . S
C1856 H1842 0.960 . S
C1856 H1843 0.960 . S
C1856 C1855 1.524 . S
C1857 C1854 1.403 . S
C1857 C1858 1.392 . S
C1857 C1861 1.495 . S
C1858 C1857 1.392 . S
C1858 C1859 1.385 . S
C1858 C1860 1.478 . S
C1859 H1853 0.930 . S
C1859 C1855 1.400 . S
C1859 C1858 1.385 . S
C1860 C1858 1.478 . S
C1860 C1862 1.381 . S
C1860 C1866 1.383 . S
C1861 C1857 1.495 . S
C1861 H1867 0.959 . S
C1861 H1868 0.961 . S
C1861 H1869 0.960 . S
C1862 C1860 1.381 . S
C1862 C1863 1.394 . S
C1862 H1870 0.930 . S
C1863 C1862 1.394 . S
C1863 C1864 1.383 . S
C1863 H1871 0.929 . S
C1864 C1863 1.383 . S
C1864 C1865 1.377 . S
C1865 H1849 0.930 . S
C1865 C1864 1.377 . S
C1865 C1866 1.379 . S
C1866 H1850 0.931 . S
C1866 C1860 1.383 . S
C1866 C1865 1.379 . S
H1867 C1861 0.959 . S
H1868 C1861 0.961 . S
H1869 C1861 0.960 . S
H1870 C1862 0.930 . S
H1871 C1863 0.929 . S
H1872 C1880 0.929 . S
H1873 C1882 0.930 . S
H1874 C1884 0.930 . S
H1875 C1887 0.929 . S
H1876 C1890 0.930 . S
H1877 C1892 0.960 . S
H1878 C1892 0.960 . S
H1879 C1892 0.960 . S
C1880 H1872 0.929 . S
C1880 C1881 1.377 . S
C1880 C1882 1.384 . S
C1881 C1880 1.377 . S
C1881 C1887 1.390 . S
C1882 H1873 0.930 . S
C1882 C1880 1.384 . S
C1882 C1883 1.372 . S
C1883 C1882 1.372 . S
C1883 C1884 1.400 . S
C1883 C1888 1.490 . S
C1884 H1874 0.930 . S
C1884 C1883 1.400 . S
C1884 C1887 1.386 . S
H1885 C1901 0.930 . S
H1886 C1902 0.931 . S
C1887 H1875 0.929 . S
C1887 C1881 1.390 . S
C1887 C1884 1.386 . S
C1888 C1883 1.490 . S
C1888 C1890 1.395 . S
C1888 C1891 1.403 . S
H1889 C1895 0.930 . S
C1890 H1876 0.930 . S
C1890 C1888 1.395 . S
C1890 C1893 1.403 . S
C1891 C1888 1.403 . S
C1891 C1892 1.524 . S
C1891 C1895 1.400 . S
C1892 H1877 0.960 . S
C1892 H1878 0.960 . S
C1892 H1879 0.960 . S
C1892 C1891 1.524 . S
C1893 C1890 1.403 . S
C1893 C1894 1.392 . S
C1893 C1897 1.495 . S
C1894 C1893 1.392 . S
C1894 C1895 1.385 . S
C1894 C1896 1.478 . S
C1895 H1889 0.930 . S
C1895 C1891 1.400 . S
C1895 C1894 1.385 . S
C1896 C1894 1.478 . S
C1896 C1898 1.381 . S
C1896 C1902 1.383 . S
C1897 C1893 1.495 . S
C1897 H1903 0.959 . S
C1897 H1904 0.961 . S
C1897 H1905 0.960 . S
C1898 C1896 1.381 . S
C1898 C1899 1.394 . S
C1898 H1906 0.930 . S
C1899 C1898 1.394 . S
C1899 C1900 1.383 . S
C1899 H1907 0.929 . S
C1900 C1899 1.383 . S
C1900 C1901 1.377 . S
C1901 H1885 0.930 . S
C1901 C1900 1.377 . S
C1901 C1902 1.379 . S
C1902 H1886 0.931 . S
C1902 C1896 1.383 . S
C1902 C1901 1.379 . S
H1903 C1897 0.959 . S
H1904 C1897 0.961 . S
H1905 C1897 0.960 . S
H1906 C1898 0.930 . S
H1907 C1899 0.929 . S
H1908 C1916 0.929 . S
H1909 C1918 0.930 . S
H1910 C1920 0.930 . S
H1911 C1923 0.929 . S
H1912 C1926 0.930 . S
H1913 C1928 0.960 . S
H1914 C1928 0.960 . S
H1915 C1928 0.960 . S
C1916 H1908 0.929 . S
C1916 C1917 1.377 . S
C1916 C1918 1.384 . S
C1917 C1916 1.377 . S
C1917 C1923 1.390 . S
C1918 H1909 0.930 . S
C1918 C1916 1.384 . S
C1918 C1919 1.372 . S
C1919 C1918 1.372 . S
C1919 C1920 1.400 . S
C1919 C1924 1.490 . S
C1920 H1910 0.930 . S
C1920 C1919 1.400 . S
C1920 C1923 1.386 . S
H1921 C1937 0.930 . S
H1922 C1938 0.931 . S
C1923 H1911 0.929 . S
C1923 C1917 1.390 . S
C1923 C1920 1.386 . S
C1924 C1919 1.490 . S
C1924 C1926 1.395 . S
C1924 C1927 1.403 . S
H1925 C1931 0.930 . S
C1926 H1912 0.930 . S
C1926 C1924 1.395 . S
C1926 C1929 1.403 . S
C1927 C1924 1.403 . S
C1927 C1928 1.524 . S
C1927 C1931 1.400 . S
C1928 H1913 0.960 . S
C1928 H1914 0.960 . S
C1928 H1915 0.960 . S
C1928 C1927 1.524 . S
C1929 C1926 1.403 . S
C1929 C1930 1.392 . S
C1929 C1933 1.495 . S
C1930 C1929 1.392 . S
C1930 C1931 1.385 . S
C1930 C1932 1.478 . S
C1931 H1925 0.930 . S
C1931 C1927 1.400 . S
C1931 C1930 1.385 . S
C1932 C1930 1.478 . S
C1932 C1934 1.381 . S
C1932 C1938 1.383 . S
C1933 C1929 1.495 . S
C1933 H1939 0.959 . S
C1933 H1940 0.961 . S
C1933 H1941 0.960 . S
C1934 C1932 1.381 . S
C1934 C1935 1.394 . S
C1934 H1942 0.930 . S
C1935 C1934 1.394 . S
C1935 C1936 1.383 . S
C1935 H1943 0.929 . S
C1936 C1935 1.383 . S
C1936 C1937 1.377 . S
C1937 H1921 0.930 . S
C1937 C1936 1.377 . S
C1937 C1938 1.379 . S
C1938 H1922 0.931 . S
C1938 C1932 1.383 . S
C1938 C1937 1.379 . S
H1939 C1933 0.959 . S
H1940 C1933 0.961 . S
H1941 C1933 0.960 . S
H1942 C1934 0.930 . S
H1943 C1935 0.929 . S
H1944 C1952 0.929 . S
H1945 C1954 0.930 . S
H1946 C1956 0.930 . S
H1947 C1959 0.929 . S
H1948 C1962 0.930 . S
H1949 C1964 0.960 . S
H1950 C1964 0.960 . S
H1951 C1964 0.960 . S
C1952 H1944 0.929 . S
C1952 C1953 1.377 . S
C1952 C1954 1.384 . S
C1953 C1952 1.377 . S
C1953 C1959 1.390 . S
C1954 H1945 0.930 . S
C1954 C1952 1.384 . S
C1954 C1955 1.372 . S
C1955 C1954 1.372 . S
C1955 C1956 1.400 . S
C1955 C1960 1.490 . S
C1956 H1946 0.930 . S
C1956 C1955 1.400 . S
C1956 C1959 1.386 . S
H1957 C1973 0.930 . S
H1958 C1974 0.931 . S
C1959 H1947 0.929 . S
C1959 C1953 1.390 . S
C1959 C1956 1.386 . S
C1960 C1955 1.490 . S
C1960 C1962 1.395 . S
C1960 C1963 1.403 . S
H1961 C1967 0.930 . S
C1962 H1948 0.930 . S
C1962 C1960 1.395 . S
C1962 C1965 1.403 . S
C1963 C1960 1.403 . S
C1963 C1964 1.524 . S
C1963 C1967 1.400 . S
C1964 H1949 0.960 . S
C1964 H1950 0.960 . S
C1964 H1951 0.960 . S
C1964 C1963 1.524 . S
C1965 C1962 1.403 . S
C1965 C1966 1.392 . S
C1965 C1969 1.495 . S
C1966 C1965 1.392 . S
C1966 C1967 1.385 . S
C1966 C1968 1.478 . S
C1967 H1961 0.930 . S
C1967 C1963 1.400 . S
C1967 C1966 1.385 . S
C1968 C1966 1.478 . S
C1968 C1970 1.381 . S
C1968 C1974 1.383 . S
C1969 C1965 1.495 . S
C1969 H1975 0.959 . S
C1969 H1976 0.961 . S
C1969 H1977 0.960 . S
C1970 C1968 1.381 . S
C1970 C1971 1.394 . S
C1970 H1978 0.930 . S
C1971 C1970 1.394 . S
C1971 C1972 1.383 . S
C1971 H1979 0.929 . S
C1972 C1971 1.383 . S
C1972 C1973 1.377 . S
C1973 H1957 0.930 . S
C1973 C1972 1.377 . S
C1973 C1974 1.379 . S
C1974 H1958 0.931 . S
C1974 C1968 1.383 . S
C1974 C1973 1.379 . S
H1975 C1969 0.959 . S
H1976 C1969 0.961 . S
H1977 C1969 0.960 . S
H1978 C1970 0.930 . S
H1979 C1971 0.929 . S
H1980 C1988 0.929 . S
H1981 C1990 0.930 . S
H1982 C1992 0.930 . S
H1983 C1995 0.929 . S
H1984 C1998 0.930 . S
H1985 C2000 0.960 . S
H1986 C2000 0.960 . S
H1987 C2000 0.960 . S
C1988 H1980 0.929 . S
C1988 C1989 1.377 . S
C1988 C1990 1.384 . S
C1989 C1988 1.377 . S
C1989 C1995 1.390 . S
C1990 H1981 0.930 . S
C1990 C1988 1.384 . S
C1990 C1991 1.372 . S
C1991 C1990 1.372 . S
C1991 C1992 1.400 . S
C1991 C1996 1.490 . S
C1992 H1982 0.930 . S
C1992 C1991 1.400 . S
C1992 C1995 1.386 . S
H1993 C2009 0.930 . S
H1994 C2010 0.931 . S
C1995 H1983 0.929 . S
C1995 C1989 1.390 . S
C1995 C1992 1.386 . S
C1996 C1991 1.490 . S
C1996 C1998 1.395 . S
C1996 C1999 1.403 . S
H1997 C2003 0.930 . S
C1998 H1984 0.930 . S
C1998 C1996 1.395 . S
C1998 C2001 1.403 . S
C1999 C1996 1.403 . S
C1999 C2000 1.524 . S
C1999 C2003 1.400 . S
C2000 H1985 0.960 . S
C2000 H1986 0.960 . S
C2000 H1987 0.960 . S
C2000 C1999 1.524 . S
C2001 C1998 1.403 . S
C2001 C2002 1.392 . S
C2001 C2005 1.495 . S
C2002 C2001 1.392 . S
C2002 C2003 1.385 . S
C2002 C2004 1.478 . S
C2003 H1997 0.930 . S
C2003 C1999 1.400 . S
C2003 C2002 1.385 . S
C2004 C2002 1.478 . S
C2004 C2006 1.381 . S
C2004 C2010 1.383 . S
C2005 C2001 1.495 . S
C2005 H2011 0.959 . S
C2005 H2012 0.961 . S
C2005 H2013 0.960 . S
C2006 C2004 1.381 . S
C2006 C2007 1.394 . S
C2006 H2014 0.930 . S
C2007 C2006 1.394 . S
C2007 C2008 1.383 . S
C2007 H2015 0.929 . S
C2008 C2007 1.383 . S
C2008 C2009 1.377 . S
C2009 H1993 0.930 . S
C2009 C2008 1.377 . S
C2009 C2010 1.379 . S
C2010 H1994 0.931 . S
C2010 C2004 1.383 . S
C2010 C2009 1.379 . S
H2011 C2005 0.959 . S
H2012 C2005 0.961 . S
H2013 C2005 0.960 . S
H2014 C2006 0.930 . S
H2015 C2007 0.929 . S
H2016 C2024 0.929 . S
H2017 C2026 0.930 . S
H2018 C2028 0.930 . S
H2019 C2031 0.929 . S
H2020 C2034 0.930 . S
H2021 C2036 0.960 . S
H2022 C2036 0.960 . S
H2023 C2036 0.960 . S
C2024 H2016 0.929 . S
C2024 C2025 1.377 . S
C2024 C2026 1.384 . S
C2025 C2024 1.377 . S
C2025 C2031 1.390 . S
C2026 H2017 0.930 . S
C2026 C2024 1.384 . S
C2026 C2027 1.372 . S
C2027 C2026 1.372 . S
C2027 C2028 1.400 . S
C2027 C2032 1.490 . S
C2028 H2018 0.930 . S
C2028 C2027 1.400 . S
C2028 C2031 1.386 . S
H2029 C2045 0.930 . S
H2030 C2046 0.931 . S
C2031 H2019 0.929 . S
C2031 C2025 1.390 . S
C2031 C2028 1.386 . S
C2032 C2027 1.490 . S
C2032 C2034 1.395 . S
C2032 C2035 1.403 . S
H2033 C2039 0.930 . S
C2034 H2020 0.930 . S
C2034 C2032 1.395 . S
C2034 C2037 1.403 . S
C2035 C2032 1.403 . S
C2035 C2036 1.524 . S
C2035 C2039 1.400 . S
C2036 H2021 0.960 . S
C2036 H2022 0.960 . S
C2036 H2023 0.960 . S
C2036 C2035 1.524 . S
C2037 C2034 1.403 . S
C2037 C2038 1.392 . S
C2037 C2041 1.495 . S
C2038 C2037 1.392 . S
C2038 C2039 1.385 . S
C2038 C2040 1.478 . S
C2039 H2033 0.930 . S
C2039 C2035 1.400 . S
C2039 C2038 1.385 . S
C2040 C2038 1.478 . S
C2040 C2042 1.381 . S
C2040 C2046 1.383 . S
C2041 C2037 1.495 . S
C2041 H2047 0.959 . S
C2041 H2048 0.961 . S
C2041 H2049 0.960 . S
C2042 C2040 1.381 . S
C2042 C2043 1.394 . S
C2042 H2050 0.930 . S
C2043 C2042 1.394 . S
C2043 C2044 1.383 . S
C2043 H2051 0.929 . S
C2044 C2043 1.383 . S
C2044 C2045 1.377 . S
C2045 H2029 0.930 . S
C2045 C2044 1.377 . S
C2045 C2046 1.379 . S
C2046 H2030 0.931 . S
C2046 C2040 1.383 . S
C2046 C2045 1.379 . S
H2047 C2041 0.959 . S
H2048 C2041 0.961 . S
H2049 C2041 0.960 . S
H2050 C2042 0.930 . S
H2051 C2043 0.929 . S
H2052 C2060 0.929 . S
H2053 C2062 0.930 . S
H2054 C2064 0.930 . S
H2055 C2067 0.929 . S
H2056 C2070 0.930 . S
H2057 C2072 0.960 . S
H2058 C2072 0.960 . S
H2059 C2072 0.960 . S
C2060 H2052 0.929 . S
C2060 C2061 1.377 . S
C2060 C2062 1.384 . S
C2061 C2060 1.377 . S
C2061 C2067 1.390 . S
C2062 H2053 0.930 . S
C2062 C2060 1.384 . S
C2062 C2063 1.372 . S
C2063 C2062 1.372 . S
C2063 C2064 1.400 . S
C2063 C2068 1.490 . S
C2064 H2054 0.930 . S
C2064 C2063 1.400 . S
C2064 C2067 1.386 . S
H2065 C2081 0.930 . S
H2066 C2082 0.931 . S
C2067 H2055 0.929 . S
C2067 C2061 1.390 . S
C2067 C2064 1.386 . S
C2068 C2063 1.490 . S
C2068 C2070 1.395 . S
C2068 C2071 1.403 . S
H2069 C2075 0.930 . S
C2070 H2056 0.930 . S
C2070 C2068 1.395 . S
C2070 C2073 1.403 . S
C2071 C2068 1.403 . S
C2071 C2072 1.524 . S
C2071 C2075 1.400 . S
C2072 H2057 0.960 . S
C2072 H2058 0.960 . S
C2072 H2059 0.960 . S
C2072 C2071 1.524 . S
C2073 C2070 1.403 . S
C2073 C2074 1.392 . S
C2073 C2077 1.495 . S
C2074 C2073 1.392 . S
C2074 C2075 1.385 . S
C2074 C2076 1.478 . S
C2075 H2069 0.930 . S
C2075 C2071 1.400 . S
C2075 C2074 1.385 . S
C2076 C2074 1.478 . S
C2076 C2078 1.381 . S
C2076 C2082 1.383 . S
C2077 C2073 1.495 . S
C2077 H2083 0.959 . S
C2077 H2084 0.961 . S
C2077 H2085 0.960 . S
C2078 C2076 1.381 . S
C2078 C2079 1.394 . S
C2078 H2086 0.930 . S
C2079 C2078 1.394 . S
C2079 C2080 1.383 . S
C2079 H2087 0.929 . S
C2080 C2079 1.383 . S
C2080 C2081 1.377 . S
C2081 H2065 0.930 . S
C2081 C2080 1.377 . S
C2081 C2082 1.379 . S
C2082 H2066 0.931 . S
C2082 C2076 1.383 . S
C2082 C2081 1.379 . S
H2083 C2077 0.959 . S
H2084 C2077 0.961 . S
H2085 C2077 0.960 . S
H2086 C2078 0.930 . S
H2087 C2079 0.929 . S
H2088 C2096 0.929 . S
H2089 C2098 0.930 . S
H2090 C2100 0.930 . S
H2091 C2103 0.929 . S
H2092 C2106 0.930 . S
H2093 C2108 0.960 . S
H2094 C2108 0.960 . S
H2095 C2108 0.960 . S
C2096 H2088 0.929 . S
C2096 C2097 1.377 . S
C2096 C2098 1.384 . S
C2097 C2096 1.377 . S
C2097 C2103 1.390 . S
C2098 H2089 0.930 . S
C2098 C2096 1.384 . S
C2098 C2099 1.372 . S
C2099 C2098 1.372 . S
C2099 C2100 1.400 . S
C2099 C2104 1.490 . S
C2100 H2090 0.930 . S
C2100 C2099 1.400 . S
C2100 C2103 1.386 . S
H2101 C2117 0.930 . S
H2102 C2118 0.931 . S
C2103 H2091 0.929 . S
C2103 C2097 1.390 . S
C2103 C2100 1.386 . S
C2104 C2099 1.490 . S
C2104 C2106 1.395 . S
C2104 C2107 1.403 . S
H2105 C2111 0.930 . S
C2106 H2092 0.930 . S
C2106 C2104 1.395 . S
C2106 C2109 1.403 . S
C2107 C2104 1.403 . S
C2107 C2108 1.524 . S
C2107 C2111 1.400 . S
C2108 H2093 0.960 . S
C2108 H2094 0.960 . S
C2108 H2095 0.960 . S
C2108 C2107 1.524 . S
C2109 C2106 1.403 . S
C2109 C2110 1.392 . S
C2109 C2113 1.495 . S
C2110 C2109 1.392 . S
C2110 C2111 1.385 . S
C2110 C2112 1.478 . S
C2111 H2105 0.930 . S
C2111 C2107 1.400 . S
C2111 C2110 1.385 . S
C2112 C2110 1.478 . S
C2112 C2114 1.381 . S
C2112 C2118 1.383 . S
C2113 C2109 1.495 . S
C2113 H2119 0.959 . S
C2113 H2120 0.961 . S
C2113 H2121 0.960 . S
C2114 C2112 1.381 . S
C2114 C2115 1.394 . S
C2114 H2122 0.930 . S
C2115 C2114 1.394 . S
C2115 C2116 1.383 . S
C2115 H2123 0.929 . S
C2116 C2115 1.383 . S
C2116 C2117 1.377 . S
C2117 H2101 0.930 . S
C2117 C2116 1.377 . S
C2117 C2118 1.379 . S
C2118 H2102 0.931 . S
C2118 C2112 1.383 . S
C2118 C2117 1.379 . S
H2119 C2113 0.959 . S
H2120 C2113 0.961 . S
H2121 C2113 0.960 . S
H2122 C2114 0.930 . S
H2123 C2115 0.929 . S
H2124 C2132 0.929 . S
H2125 C2134 0.930 . S
H2126 C2136 0.930 . S
H2127 C2139 0.929 . S
H2128 C2142 0.930 . S
H2129 C2144 0.960 . S
H2130 C2144 0.960 . S
H2131 C2144 0.960 . S
C2132 H2124 0.929 . S
C2132 C2133 1.377 . S
C2132 C2134 1.384 . S
C2133 C2132 1.377 . S
C2133 C2139 1.390 . S
C2134 H2125 0.930 . S
C2134 C2132 1.384 . S
C2134 C2135 1.372 . S
C2135 C2134 1.372 . S
C2135 C2136 1.400 . S
C2135 C2140 1.490 . S
C2136 H2126 0.930 . S
C2136 C2135 1.400 . S
C2136 C2139 1.386 . S
H2137 C2153 0.930 . S
H2138 C2154 0.931 . S
C2139 H2127 0.929 . S
C2139 C2133 1.390 . S
C2139 C2136 1.386 . S
C2140 C2135 1.490 . S
C2140 C2142 1.395 . S
C2140 C2143 1.403 . S
H2141 C2147 0.930 . S
C2142 H2128 0.930 . S
C2142 C2140 1.395 . S
C2142 C2145 1.403 . S
C2143 C2140 1.403 . S
C2143 C2144 1.524 . S
C2143 C2147 1.400 . S
C2144 H2129 0.960 . S
C2144 H2130 0.960 . S
C2144 H2131 0.960 . S
C2144 C2143 1.524 . S
C2145 C2142 1.403 . S
C2145 C2146 1.392 . S
C2145 C2149 1.495 . S
C2146 C2145 1.392 . S
C2146 C2147 1.385 . S
C2146 C2148 1.478 . S
C2147 H2141 0.930 . S
C2147 C2143 1.400 . S
C2147 C2146 1.385 . S
C2148 C2146 1.478 . S
C2148 C2150 1.381 . S
C2148 C2154 1.383 . S
C2149 C2145 1.495 . S
C2149 H2155 0.959 . S
C2149 H2156 0.961 . S
C2149 H2157 0.960 . S
C2150 C2148 1.381 . S
C2150 C2151 1.394 . S
C2150 H2158 0.930 . S
C2151 C2150 1.394 . S
C2151 C2152 1.383 . S
C2151 H2159 0.929 . S
C2152 C2151 1.383 . S
C2152 C2153 1.377 . S
C2153 H2137 0.930 . S
C2153 C2152 1.377 . S
C2153 C2154 1.379 . S
C2154 H2138 0.931 . S
C2154 C2148 1.383 . S
C2154 C2153 1.379 . S
H2155 C2149 0.959 . S
H2156 C2149 0.961 . S
H2157 C2149 0.960 . S
H2158 C2150 0.930 . S
H2159 C2151 0.929 . S
H2160 C2168 0.929 . S
H2161 C2170 0.930 . S
H2162 C2172 0.930 . S
H2163 C2175 0.929 . S
H2164 C2178 0.930 . S
H2165 C2180 0.960 . S
H2166 C2180 0.960 . S
H2167 C2180 0.960 . S
C2168 H2160 0.929 . S
C2168 C2169 1.377 . S
C2168 C2170 1.384 . S
C2169 C2168 1.377 . S
C2169 C2175 1.390 . S
C2170 H2161 0.930 . S
C2170 C2168 1.384 . S
C2170 C2171 1.372 . S
C2171 C2170 1.372 . S
C2171 C2172 1.400 . S
C2171 C2176 1.490 . S
C2172 H2162 0.930 . S
C2172 C2171 1.400 . S
C2172 C2175 1.386 . S
H2173 C2189 0.930 . S
H2174 C2190 0.931 . S
C2175 H2163 0.929 . S
C2175 C2169 1.390 . S
C2175 C2172 1.386 . S
C2176 C2171 1.490 . S
C2176 C2178 1.395 . S
C2176 C2179 1.403 . S
H2177 C2183 0.930 . S
C2178 H2164 0.930 . S
C2178 C2176 1.395 . S
C2178 C2181 1.403 . S
C2179 C2176 1.403 . S
C2179 C2180 1.524 . S
C2179 C2183 1.400 . S
C2180 H2165 0.960 . S
C2180 H2166 0.960 . S
C2180 H2167 0.960 . S
C2180 C2179 1.524 . S
C2181 C2178 1.403 . S
C2181 C2182 1.392 . S
C2181 C2185 1.495 . S
C2182 C2181 1.392 . S
C2182 C2183 1.385 . S
C2182 C2184 1.478 . S
C2183 H2177 0.930 . S
C2183 C2179 1.400 . S
C2183 C2182 1.385 . S
C2184 C2182 1.478 . S
C2184 C2186 1.381 . S
C2184 C2190 1.383 . S
C2185 C2181 1.495 . S
C2185 H2191 0.959 . S
C2185 H2192 0.961 . S
C2185 H2193 0.960 . S
C2186 C2184 1.381 . S
C2186 C2187 1.394 . S
C2186 H2194 0.930 . S
C2187 C2186 1.394 . S
C2187 C2188 1.383 . S
C2187 H2195 0.929 . S
C2188 C2187 1.383 . S
C2188 C2189 1.377 . S
C2189 H2173 0.930 . S
C2189 C2188 1.377 . S
C2189 C2190 1.379 . S
C2190 H2174 0.931 . S
C2190 C2184 1.383 . S
C2190 C2189 1.379 . S
H2191 C2185 0.959 . S
H2192 C2185 0.961 . S
H2193 C2185 0.960 . S
H2194 C2186 0.930 . S
H2195 C2187 0.929 . S
H2196 C2204 0.929 . S
H2197 C2206 0.930 . S
H2198 C2208 0.930 . S
H2199 C2211 0.929 . S
H2200 C2214 0.930 . S
H2201 C2216 0.960 . S
H2202 C2216 0.960 . S
H2203 C2216 0.960 . S
C2204 H2196 0.929 . S
C2204 C2205 1.377 . S
C2204 C2206 1.384 . S
C2205 C2204 1.377 . S
C2205 C2211 1.390 . S
C2206 H2197 0.930 . S
C2206 C2204 1.384 . S
C2206 C2207 1.372 . S
C2207 C2206 1.372 . S
C2207 C2208 1.400 . S
C2207 C2212 1.490 . S
C2208 H2198 0.930 . S
C2208 C2207 1.400 . S
C2208 C2211 1.386 . S
H2209 C2225 0.930 . S
H2210 C2226 0.931 . S
C2211 H2199 0.929 . S
C2211 C2205 1.390 . S
C2211 C2208 1.386 . S
C2212 C2207 1.490 . S
C2212 C2214 1.395 . S
C2212 C2215 1.403 . S
H2213 C2219 0.930 . S
C2214 H2200 0.930 . S
C2214 C2212 1.395 . S
C2214 C2217 1.403 . S
C2215 C2212 1.403 . S
C2215 C2216 1.524 . S
C2215 C2219 1.400 . S
C2216 H2201 0.960 . S
C2216 H2202 0.960 . S
C2216 H2203 0.960 . S
C2216 C2215 1.524 . S
C2217 C2214 1.403 . S
C2217 C2218 1.392 . S
C2217 C2221 1.495 . S
C2218 C2217 1.392 . S
C2218 C2219 1.385 . S
C2218 C2220 1.478 . S
C2219 H2213 0.930 . S
C2219 C2215 1.400 . S
C2219 C2218 1.385 . S
C2220 C2218 1.478 . S
C2220 C2222 1.381 . S
C2220 C2226 1.383 . S
C2221 C2217 1.495 . S
C2221 H2227 0.959 . S
C2221 H2228 0.961 . S
C2221 H2229 0.960 . S
C2222 C2220 1.381 . S
C2222 C2223 1.394 . S
C2222 H2230 0.930 . S
C2223 C2222 1.394 . S
C2223 C2224 1.383 . S
C2223 H2231 0.929 . S
C2224 C2223 1.383 . S
C2224 C2225 1.377 . S
C2225 H2209 0.930 . S
C2225 C2224 1.377 . S
C2225 C2226 1.379 . S
C2226 H2210 0.931 . S
C2226 C2220 1.383 . S
C2226 C2225 1.379 . S
H2227 C2221 0.959 . S
H2228 C2221 0.961 . S
H2229 C2221 0.960 . S
H2230 C2222 0.930 . S
H2231 C2223 0.929 . S
H2232 C2240 0.929 . S
H2233 C2242 0.930 . S
H2234 C2244 0.930 . S
H2235 C2247 0.929 . S
H2236 C2250 0.930 . S
H2237 C2252 0.960 . S
H2238 C2252 0.960 . S
H2239 C2252 0.960 . S
C2240 H2232 0.929 . S
C2240 C2241 1.377 . S
C2240 C2242 1.384 . S
C2241 C2240 1.377 . S
C2241 C2247 1.390 . S
C2242 H2233 0.930 . S
C2242 C2240 1.384 . S
C2242 C2243 1.372 . S
C2243 C2242 1.372 . S
C2243 C2244 1.400 . S
C2243 C2248 1.490 . S
C2244 H2234 0.930 . S
C2244 C2243 1.400 . S
C2244 C2247 1.386 . S
H2245 C2261 0.930 . S
H2246 C2262 0.931 . S
C2247 H2235 0.929 . S
C2247 C2241 1.390 . S
C2247 C2244 1.386 . S
C2248 C2243 1.490 . S
C2248 C2250 1.395 . S
C2248 C2251 1.403 . S
H2249 C2255 0.930 . S
C2250 H2236 0.930 . S
C2250 C2248 1.395 . S
C2250 C2253 1.403 . S
C2251 C2248 1.403 . S
C2251 C2252 1.524 . S
C2251 C2255 1.400 . S
C2252 H2237 0.960 . S
C2252 H2238 0.960 . S
C2252 H2239 0.960 . S
C2252 C2251 1.524 . S
C2253 C2250 1.403 . S
C2253 C2254 1.392 . S
C2253 C2257 1.495 . S
C2254 C2253 1.392 . S
C2254 C2255 1.385 . S
C2254 C2256 1.478 . S
C2255 H2249 0.930 . S
C2255 C2251 1.400 . S
C2255 C2254 1.385 . S
C2256 C2254 1.478 . S
C2256 C2258 1.381 . S
C2256 C2262 1.383 . S
C2257 C2253 1.495 . S
C2257 H2263 0.959 . S
C2257 H2264 0.961 . S
C2257 H2265 0.960 . S
C2258 C2256 1.381 . S
C2258 C2259 1.394 . S
C2258 H2266 0.930 . S
C2259 C2258 1.394 . S
C2259 C2260 1.383 . S
C2259 H2267 0.929 . S
C2260 C2259 1.383 . S
C2260 C2261 1.377 . S
C2261 H2245 0.930 . S
C2261 C2260 1.377 . S
C2261 C2262 1.379 . S
C2262 H2246 0.931 . S
C2262 C2256 1.383 . S
C2262 C2261 1.379 . S
H2263 C2257 0.959 . S
H2264 C2257 0.961 . S
H2265 C2257 0.960 . S
H2266 C2258 0.930 . S
H2267 C2259 0.929 . S
H2268 C2276 0.929 . S
H2269 C2278 0.930 . S
H2270 C2280 0.930 . S
H2271 C2283 0.929 . S
H2272 C2286 0.930 . S
H2273 C2288 0.960 . S
H2274 C2288 0.960 . S
H2275 C2288 0.960 . S
C2276 H2268 0.929 . S
C2276 C2277 1.377 . S
C2276 C2278 1.384 . S
C2277 C2276 1.377 . S
C2277 C2283 1.390 1_556 S
C2278 H2269 0.930 . S
C2278 C2276 1.384 . S
C2278 C2279 1.372 1_556 S
C2279 C2278 1.372 1_554 S
C2279 C2280 1.400 . S
C2279 C2284 1.490 . S
C2280 H2270 0.930 . S
C2280 C2279 1.400 . S
C2280 C2283 1.386 . S
H2281 C2297 0.930 . S
H2282 C2298 0.931 . S
C2283 H2271 0.929 . S
C2283 C2277 1.390 1_554 S
C2283 C2280 1.386 . S
C2284 C2279 1.490 . S
C2284 C2286 1.395 . S
C2284 C2287 1.403 . S
H2285 C2291 0.930 . S
C2286 H2272 0.930 . S
C2286 C2284 1.395 . S
C2286 C2289 1.403 . S
C2287 C2284 1.403 . S
C2287 C2288 1.524 . S
C2287 C2291 1.400 . S
C2288 H2273 0.960 . S
C2288 H2274 0.960 . S
C2288 H2275 0.960 . S
C2288 C2287 1.524 . S
C2289 C2286 1.403 . S
C2289 C2290 1.392 . S
C2289 C2293 1.495 . S
C2290 C2289 1.392 . S
C2290 C2291 1.385 . S
C2290 C2292 1.478 . S
C2291 H2285 0.930 . S
C2291 C2287 1.400 . S
C2291 C2290 1.385 . S
C2292 C2290 1.478 . S
C2292 C2294 1.381 . S
C2292 C2298 1.383 . S
C2293 C2289 1.495 . S
C2293 H2299 0.959 . S
C2293 H2300 0.961 . S
C2293 H2301 0.960 . S
C2294 C2292 1.381 . S
C2294 C2295 1.394 . S
C2294 H2302 0.930 . S
C2295 C2294 1.394 . S
C2295 C2296 1.383 . S
C2295 H2303 0.929 . S
C2296 C2295 1.383 . S
C2296 C2297 1.377 . S
C2297 H2281 0.930 . S
C2297 C2296 1.377 . S
C2297 C2298 1.379 . S
C2298 H2282 0.931 . S
C2298 C2292 1.383 . S
C2298 C2297 1.379 . S
H2299 C2293 0.959 . S
H2300 C2293 0.961 . S
H2301 C2293 0.960 . S
H2302 C2294 0.930 . S
H2303 C2295 0.929 . S
H2304 C2312 0.929 . S
H2305 C2314 0.930 . S
H2306 C2316 0.930 . S
H2307 C2319 0.929 . S
H2308 C2322 0.930 . S
H2309 C2324 0.960 . S
H2310 C2324 0.960 . S
H2311 C2324 0.960 . S
C2312 H2304 0.929 . S
C2312 C2313 1.377 . S
C2312 C2314 1.384 . S
C2313 C2312 1.377 . S
C2313 C2319 1.390 . S
C2314 H2305 0.930 . S
C2314 C2312 1.384 . S
C2314 C2315 1.372 . S
C2315 C2314 1.372 . S
C2315 C2316 1.400 . S
C2315 C2320 1.490 . S
C2316 H2306 0.930 . S
C2316 C2315 1.400 . S
C2316 C2319 1.386 . S
H2317 C2333 0.930 1_554 S
H2318 C2334 0.931 . S
C2319 H2307 0.929 . S
C2319 C2313 1.390 . S
C2319 C2316 1.386 . S
C2320 C2315 1.490 . S
C2320 C2322 1.395 . S
C2320 C2323 1.403 . S
H2321 C2327 0.930 . S
C2322 H2308 0.930 . S
C2322 C2320 1.395 . S
C2322 C2325 1.403 . S
C2323 C2320 1.403 . S
C2323 C2324 1.524 . S
C2323 C2327 1.400 . S
C2324 H2309 0.960 . S
C2324 H2310 0.960 . S
C2324 H2311 0.960 . S
C2324 C2323 1.524 . S
C2325 C2322 1.403 . S
C2325 C2326 1.392 . S
C2325 C2329 1.495 . S
C2326 C2325 1.392 . S
C2326 C2327 1.385 . S
C2326 C2328 1.478 . S
C2327 H2321 0.930 . S
C2327 C2323 1.400 . S
C2327 C2326 1.385 . S
C2328 C2326 1.478 . S
C2328 C2330 1.381 1_554 S
C2328 C2334 1.383 . S
C2329 C2325 1.495 . S
C2329 H2335 0.959 . S
C2329 H2336 0.961 . S
C2329 H2337 0.960 . S
C2330 C2328 1.381 1_556 S
C2330 C2331 1.394 . S
C2330 H2338 0.930 . S
C2331 C2330 1.394 . S
C2331 C2332 1.383 . S
C2331 H2339 0.929 . S
C2332 C2331 1.383 . S
C2332 C2333 1.377 . S
C2333 H2317 0.930 1_556 S
C2333 C2332 1.377 . S
C2333 C2334 1.379 1_556 S
C2334 H2318 0.931 . S
C2334 C2328 1.383 . S
C2334 C2333 1.379 1_554 S
H2335 C2329 0.959 . S
H2336 C2329 0.961 . S
H2337 C2329 0.960 . S
H2338 C2330 0.930 . S
H2339 C2331 0.929 . S
H2340 C2348 0.929 . S
H2341 C2350 0.930 . S
H2342 C2352 0.930 . S
H2343 C2355 0.929 . S
H2344 C2358 0.930 . S
H2345 C2360 0.960 . S
H2346 C2360 0.960 . S
H2347 C2360 0.960 . S
C2348 H2340 0.929 . S
C2348 C2349 1.377 . S
C2348 C2350 1.384 . S
C2349 C2348 1.377 . S
C2349 C2355 1.390 . S
C2350 H2341 0.930 . S
C2350 C2348 1.384 . S
C2350 C2351 1.372 . S
C2351 C2350 1.372 . S
C2351 C2352 1.400 . S
C2351 C2356 1.490 . S
C2352 H2342 0.930 . S
C2352 C2351 1.400 . S
C2352 C2355 1.386 . S
H2353 C2369 0.930 . S
H2354 C2370 0.931 . S
C2355 H2343 0.929 . S
C2355 C2349 1.390 . S
C2355 C2352 1.386 . S
C2356 C2351 1.490 . S
C2356 C2358 1.395 . S
C2356 C2359 1.403 . S
H2357 C2363 0.930 . S
C2358 H2344 0.930 . S
C2358 C2356 1.395 . S
C2358 C2361 1.403 . S
C2359 C2356 1.403 . S
C2359 C2360 1.524 . S
C2359 C2363 1.400 . S
C2360 H2345 0.960 . S
C2360 H2346 0.960 . S
C2360 H2347 0.960 . S
C2360 C2359 1.524 . S
C2361 C2358 1.403 . S
C2361 C2362 1.392 . S
C2361 C2365 1.495 1_554 S
C2362 C2361 1.392 . S
C2362 C2363 1.385 . S
C2362 C2364 1.478 . S
C2363 H2357 0.930 . S
C2363 C2359 1.400 . S
C2363 C2362 1.385 . S
C2364 C2362 1.478 . S
C2364 C2366 1.381 1_554 S
C2364 C2370 1.383 . S
C2365 C2361 1.495 1_556 S
C2365 H2371 0.959 . S
C2365 H2372 0.961 . S
C2365 H2373 0.960 . S
C2366 C2364 1.381 1_556 S
C2366 C2367 1.394 . S
C2366 H2374 0.930 . S
C2367 C2366 1.394 . S
C2367 C2368 1.383 . S
C2367 H2375 0.929 . S
C2368 C2367 1.383 . S
C2368 C2369 1.377 . S
C2369 H2353 0.930 . S
C2369 C2368 1.377 . S
C2369 C2370 1.379 1_556 S
C2370 H2354 0.931 . S
C2370 C2364 1.383 . S
C2370 C2369 1.379 1_554 S
H2371 C2365 0.959 . S
H2372 C2365 0.961 . S
H2373 C2365 0.960 . S
H2374 C2366 0.930 . S
H2375 C2367 0.929 . S
H2376 C2384 0.929 . S
H2377 C2386 0.930 . S
H2378 C2388 0.930 . S
H2379 C2391 0.929 . S
H2380 C2394 0.930 . S
H2381 C2396 0.960 1_554 S
H2382 C2396 0.960 1_554 S
H2383 C2396 0.960 1_554 S
C2384 H2376 0.929 . S
C2384 C2385 1.377 1_556 S
C2384 C2386 1.384 . S
C2385 C2384 1.377 1_554 S
C2385 C2391 1.390 . S
C2386 H2377 0.930 . S
C2386 C2384 1.384 . S
C2386 C2387 1.372 . S
C2387 C2386 1.372 . S
C2387 C2388 1.400 . S
C2387 C2392 1.490 . S
C2388 H2378 0.930 . S
C2388 C2387 1.400 . S
C2388 C2391 1.386 1_556 S
H2389 C2405 0.930 . S
H2390 C2406 0.931 . S
C2391 H2379 0.929 . S
C2391 C2385 1.390 . S
C2391 C2388 1.386 1_554 S
C2392 C2387 1.490 . S
C2392 C2394 1.395 . S
C2392 C2395 1.403 . S
H2393 C2399 0.930 . S
C2394 H2380 0.930 . S
C2394 C2392 1.395 . S
C2394 C2397 1.403 . S
C2395 C2392 1.403 . S
C2395 C2396 1.524 . S
C2395 C2399 1.400 . S
C2396 H2381 0.960 1_556 S
C2396 H2382 0.960 1_556 S
C2396 H2383 0.960 1_556 S
C2396 C2395 1.524 . S
C2397 C2394 1.403 . S
C2397 C2398 1.392 . S
C2397 C2401 1.495 . S
C2398 C2397 1.392 . S
C2398 C2399 1.385 . S
C2398 C2400 1.478 . S
C2399 H2393 0.930 . S
C2399 C2395 1.400 . S
C2399 C2398 1.385 . S
C2400 C2398 1.478 . S
C2400 C2402 1.381 . S
C2400 C2406 1.383 . S
C2401 C2397 1.495 . S
C2401 H2407 0.959 . S
C2401 H2408 0.961 . S
C2401 H2409 0.960 . S
C2402 C2400 1.381 . S
C2402 C2403 1.394 . S
C2402 H2410 0.930 . S
C2403 C2402 1.394 . S
C2403 C2404 1.383 . S
C2403 H2411 0.929 . S
C2404 C2403 1.383 . S
C2404 C2405 1.377 . S
C2405 H2389 0.930 . S
C2405 C2404 1.377 . S
C2405 C2406 1.379 . S
C2406 H2390 0.931 . S
C2406 C2400 1.383 . S
C2406 C2405 1.379 . S
H2407 C2401 0.959 . S
H2408 C2401 0.961 . S
H2409 C2401 0.960 . S
H2410 C2402 0.930 . S
H2411 C2403 0.929 . S
H2412 C2420 0.929 . S
H2413 C2422 0.930 . S
H2414 C2424 0.930 . S
H2415 C2427 0.929 . S
H2416 C2430 0.930 . S
H2417 C2432 0.960 . S
H2418 C2432 0.960 1_554 S
H2419 C2432 0.960 . S
C2420 H2412 0.929 . S
C2420 C2421 1.377 . S
C2420 C2422 1.384 1_554 S
C2421 C2420 1.377 . S
C2421 C2427 1.390 1_554 S
C2422 H2413 0.930 . S
C2422 C2420 1.384 1_556 S
C2422 C2423 1.372 . S
C2423 C2422 1.372 . S
C2423 C2424 1.400 . S
C2423 C2428 1.490 . S
C2424 H2414 0.930 . S
C2424 C2423 1.400 . S
C2424 C2427 1.386 . S
H2425 C2441 0.930 . S
H2426 C2442 0.931 . S
C2427 H2415 0.929 . S
C2427 C2421 1.390 1_556 S
C2427 C2424 1.386 . S
C2428 C2423 1.490 . S
C2428 C2430 1.395 . S
C2428 C2431 1.403 . S
H2429 C2435 0.930 . S
C2430 H2416 0.930 . S
C2430 C2428 1.395 . S
C2430 C2433 1.403 . S
C2431 C2428 1.403 . S
C2431 C2432 1.524 . S
C2431 C2435 1.400 . S
C2432 H2417 0.960 . S
C2432 H2418 0.960 1_556 S
C2432 H2419 0.960 . S
C2432 C2431 1.524 . S
C2433 C2430 1.403 . S
C2433 C2434 1.392 . S
C2433 C2437 1.495 . S
C2434 C2433 1.392 . S
C2434 C2435 1.385 . S
C2434 C2436 1.478 . S
C2435 H2429 0.930 . S
C2435 C2431 1.400 . S
C2435 C2434 1.385 . S
C2436 C2434 1.478 . S
C2436 C2438 1.381 . S
C2436 C2442 1.383 . S
C2437 C2433 1.495 . S
C2437 H2443 0.959 . S
C2437 H2444 0.961 . S
C2437 H2445 0.960 . S
C2438 C2436 1.381 . S
C2438 C2439 1.394 . S
C2438 H2446 0.930 . S
C2439 C2438 1.394 . S
C2439 C2440 1.383 . S
C2439 H2447 0.929 . S
C2440 C2439 1.383 . S
C2440 C2441 1.377 . S
C2441 H2425 0.930 . S
C2441 C2440 1.377 . S
C2441 C2442 1.379 . S
C2442 H2426 0.931 . S
C2442 C2436 1.383 . S
C2442 C2441 1.379 . S
H2443 C2437 0.959 . S
H2444 C2437 0.961 . S
H2445 C2437 0.960 . S
H2446 C2438 0.930 . S
H2447 C2439 0.929 . S
H2448 C2456 0.929 . S
H2449 C2458 0.930 . S
H2450 C2460 0.930 . S
H2451 C2463 0.929 . S
H2452 C2466 0.930 . S
H2453 C2468 0.960 . S
H2454 C2468 0.960 . S
H2455 C2468 0.960 . S
C2456 H2448 0.929 . S
C2456 C2457 1.377 . S
C2456 C2458 1.384 . S
C2457 C2456 1.377 . S
C2457 C2463 1.390 . S
C2458 H2449 0.930 . S
C2458 C2456 1.384 . S
C2458 C2459 1.372 . S
C2459 C2458 1.372 . S
C2459 C2460 1.400 . S
C2459 C2464 1.490 . S
C2460 H2450 0.930 . S
C2460 C2459 1.400 . S
C2460 C2463 1.386 . S
H2461 C2477 0.930 . S
H2462 C2478 0.931 . S
C2463 H2451 0.929 . S
C2463 C2457 1.390 . S
C2463 C2460 1.386 . S
C2464 C2459 1.490 . S
C2464 C2466 1.395 . S
C2464 C2467 1.403 . S
H2465 C2471 0.930 . S
C2466 H2452 0.930 . S
C2466 C2464 1.395 . S
C2466 C2469 1.403 . S
C2467 C2464 1.403 . S
C2467 C2468 1.524 . S
C2467 C2471 1.400 . S
C2468 H2453 0.960 . S
C2468 H2454 0.960 . S
C2468 H2455 0.960 . S
C2468 C2467 1.524 . S
C2469 C2466 1.403 . S
C2469 C2470 1.392 . S
C2469 C2473 1.495 . S
C2470 C2469 1.392 . S
C2470 C2471 1.385 . S
C2470 C2472 1.478 . S
C2471 H2465 0.930 . S
C2471 C2467 1.400 . S
C2471 C2470 1.385 . S
C2472 C2470 1.478 . S
C2472 C2474 1.381 1_556 S
C2472 C2478 1.383 . S
C2473 C2469 1.495 . S
C2473 H2479 0.959 . S
C2473 H2480 0.961 . S
C2473 H2481 0.960 1_556 S
C2474 C2472 1.381 1_554 S
C2474 C2475 1.394 . S
C2474 H2482 0.930 . S
C2475 C2474 1.394 . S
C2475 C2476 1.383 . S
C2475 H2483 0.929 . S
C2476 C2475 1.383 . S
C2476 C2477 1.377 1_554 S
C2477 H2461 0.930 . S
C2477 C2476 1.377 1_556 S
C2477 C2478 1.379 . S
C2478 H2462 0.931 . S
C2478 C2472 1.383 . S
C2478 C2477 1.379 . S
H2479 C2473 0.959 . S
H2480 C2473 0.961 . S
H2481 C2473 0.960 1_554 S
H2482 C2474 0.930 . S
H2483 C2475 0.929 . S
H2484 C2492 0.929 . S
H2485 C2494 0.930 . S
H2486 C2496 0.930 . S
H2487 C2499 0.929 . S
H2488 C2502 0.930 . S
H2489 C2504 0.960 . S
H2490 C2504 0.960 . S
H2491 C2504 0.960 . S
C2492 H2484 0.929 . S
C2492 C2493 1.377 . S
C2492 C2494 1.384 . S
C2493 C2492 1.377 . S
C2493 C2499 1.390 . S
C2494 H2485 0.930 . S
C2494 C2492 1.384 . S
C2494 C2495 1.372 . S
C2495 C2494 1.372 . S
C2495 C2496 1.400 . S
C2495 C2500 1.490 . S
C2496 H2486 0.930 . S
C2496 C2495 1.400 . S
C2496 C2499 1.386 . S
H2497 C2513 0.930 . S
H2498 C2514 0.931 . S
C2499 H2487 0.929 . S
C2499 C2493 1.390 . S
C2499 C2496 1.386 . S
C2500 C2495 1.490 . S
C2500 C2502 1.395 . S
C2500 C2503 1.403 . S
H2501 C2507 0.930 . S
C2502 H2488 0.930 . S
C2502 C2500 1.395 . S
C2502 C2505 1.403 . S
C2503 C2500 1.403 . S
C2503 C2504 1.524 . S
C2503 C2507 1.400 . S
C2504 H2489 0.960 . S
C2504 H2490 0.960 . S
C2504 H2491 0.960 . S
C2504 C2503 1.524 . S
C2505 C2502 1.403 . S
C2505 C2506 1.392 . S
C2505 C2509 1.495 . S
C2506 C2505 1.392 . S
C2506 C2507 1.385 . S
C2506 C2508 1.478 . S
C2507 H2501 0.930 . S
C2507 C2503 1.400 . S
C2507 C2506 1.385 . S
C2508 C2506 1.478 . S
C2508 C2510 1.381 . S
C2508 C2514 1.383 . S
C2509 C2505 1.495 . S
C2509 H2515 0.959 . S
C2509 H2516 0.961 . S
C2509 H2517 0.960 . S
C2510 C2508 1.381 . S
C2510 C2511 1.394 . S
C2510 H2518 0.930 . S
C2511 C2510 1.394 . S
C2511 C2512 1.383 . S
C2511 H2519 0.929 . S
C2512 C2511 1.383 . S
C2512 C2513 1.377 . S
C2513 H2497 0.930 . S
C2513 C2512 1.377 . S
C2513 C2514 1.379 . S
C2514 H2498 0.931 . S
C2514 C2508 1.383 . S
C2514 C2513 1.379 . S
H2515 C2509 0.959 . S
H2516 C2509 0.961 . S
H2517 C2509 0.960 . S
H2518 C2510 0.930 . S
H2519 C2511 0.929 . S
H2520 C2528 0.929 . S
H2521 C2530 0.930 . S
H2522 C2532 0.930 . S
H2523 C2535 0.929 . S
H2524 C2538 0.930 . S
H2525 C2540 0.960 1_565 S
H2526 C2540 0.954 1_565 S
H2527 C2540 0.960 . S
C2528 H2520 0.929 . S
C2528 C2529 1.377 . S
C2528 C2530 1.384 . S
C2529 C2528 1.377 . S
C2529 C2535 1.390 . S
C2530 H2521 0.930 . S
C2530 C2528 1.384 . S
C2530 C2531 1.372 . S
C2531 C2530 1.372 . S
C2531 C2532 1.400 . S
C2531 C2536 1.490 . S
C2532 H2522 0.930 . S
C2532 C2531 1.400 . S
C2532 C2535 1.386 . S
H2533 C2549 0.930 . S
H2534 C2550 0.931 . S
C2535 H2523 0.929 . S
C2535 C2529 1.390 . S
C2535 C2532 1.386 . S
C2536 C2531 1.490 . S
C2536 C2538 1.395 . S
C2536 C2539 1.403 . S
H2537 C2543 0.930 . S
C2538 H2524 0.930 . S
C2538 C2536 1.395 . S
C2538 C2541 1.403 1_545 S
C2539 C2536 1.403 . S
C2539 C2540 1.524 . S
C2539 C2543 1.400 1_545 S
C2540 H2525 0.960 1_545 S
C2540 H2526 0.954 1_545 S
C2540 H2527 0.960 . S
C2540 C2539 1.524 . S
C2541 C2538 1.403 1_565 S
C2541 C2542 1.392 . S
C2541 C2545 1.495 . S
C2542 C2541 1.392 . S
C2542 C2543 1.385 . S
C2542 C2544 1.478 . S
C2543 H2537 0.930 . S
C2543 C2539 1.400 1_565 S
C2543 C2542 1.385 . S
C2544 C2542 1.478 . S
C2544 C2546 1.381 . S
C2544 C2550 1.383 . S
C2545 C2541 1.495 . S
C2545 H2551 0.959 1_565 S
C2545 H2552 0.992 . S
C2545 H2553 0.960 . S
C2546 C2544 1.381 . S
C2546 C2547 1.394 . S
C2546 H2554 0.930 . S
C2547 C2546 1.394 . S
C2547 C2548 1.383 . S
C2547 H2555 0.929 . S
C2548 C2547 1.383 . S
C2548 C2549 1.377 . S
C2549 H2533 0.930 . S
C2549 C2548 1.377 . S
C2549 C2550 1.379 . S
C2550 H2534 0.931 . S
C2550 C2544 1.383 . S
C2550 C2549 1.379 . S
H2551 C2545 0.959 1_545 S
H2552 C2545 0.992 . S
H2553 C2545 0.960 . S
H2554 C2546 0.930 . S
H2555 C2547 0.929 . S
H2556 C2564 0.929 . S
H2557 C2566 0.930 . S
H2558 C2568 0.930 . S
H2559 C2571 0.929 . S
H2560 C2574 0.930 . S
H2561 C2576 0.960 . S
H2562 C2576 0.960 . S
H2563 C2576 0.960 . S
C2564 H2556 0.929 . S
C2564 C2565 1.377 . S
C2564 C2566 1.384 . S
C2565 C2564 1.377 . S
C2565 C2571 1.390 . S
C2566 H2557 0.930 . S
C2566 C2564 1.384 . S
C2566 C2567 1.372 . S
C2567 C2566 1.372 . S
C2567 C2568 1.400 . S
C2567 C2572 1.490 . S
C2568 H2558 0.930 . S
C2568 C2567 1.400 . S
C2568 C2571 1.386 . S
H2569 C2585 0.930 . S
H2570 C2586 0.931 . S
C2571 H2559 0.929 . S
C2571 C2565 1.390 . S
C2571 C2568 1.386 . S
C2572 C2567 1.490 . S
C2572 C2574 1.395 1_655 S
C2572 C2575 1.403 . S
H2573 C2579 0.955 . S
C2574 H2560 0.930 . S
C2574 C2572 1.395 1_455 S
C2574 C2577 1.403 . S
C2575 C2572 1.403 . S
C2575 C2576 1.524 . S
C2575 C2579 1.401 . S
C2576 H2561 0.960 . S
C2576 H2562 0.960 . S
C2576 H2563 0.960 . S
C2576 C2575 1.524 . S
C2577 C2574 1.403 . S
C2577 C2578 1.392 . S
C2577 C2581 1.495 . S
C2578 C2577 1.392 . S
C2578 C2579 1.385 1_455 S
C2578 C2580 1.478 . S
C2579 H2573 0.955 . S
C2579 C2575 1.401 . S
C2579 C2578 1.385 1_655 S
C2580 C2578 1.478 . S
C2580 C2582 1.381 . S
C2580 C2586 1.383 . S
C2581 C2577 1.495 . S
C2581 H2587 0.959 . S
C2581 H2588 0.961 . S
C2581 H2589 0.960 . S
C2582 C2580 1.381 . S
C2582 C2583 1.394 . S
C2582 H2590 0.930 . S
C2583 C2582 1.394 . S
C2583 C2584 1.383 . S
C2583 H2591 0.929 . S
C2584 C2583 1.383 . S
C2584 C2585 1.377 . S
C2585 H2569 0.930 . S
C2585 C2584 1.377 . S
C2585 C2586 1.379 . S
C2586 H2570 0.931 . S
C2586 C2580 1.383 . S
C2586 C2585 1.379 . S
H2587 C2581 0.959 . S
H2588 C2581 0.961 . S
H2589 C2581 0.960 . S
H2590 C2582 0.930 . S
H2591 C2583 0.929 . S
H2592 C2600 0.929 . S
H2593 C2602 0.930 . S
H2594 C2604 0.930 . S
H2595 C2607 0.929 . S
H2596 C2610 0.930 . S
H2597 C2612 0.960 . S
H2598 C2612 0.960 . S
H2599 C2612 0.960 . S
C2600 H2592 0.929 . S
C2600 C2601 1.377 . S
C2600 C2602 1.384 . S
C2601 C2600 1.377 . S
C2601 C2607 1.390 . S
C2602 H2593 0.930 . S
C2602 C2600 1.384 . S
C2602 C2603 1.372 . S
C2603 C2602 1.372 . S
C2603 C2604 1.400 . S
C2603 C2608 1.490 . S
C2604 H2594 0.930 . S
C2604 C2603 1.400 . S
C2604 C2607 1.386 . S
H2605 C2621 0.930 1_554 S
H2606 C2622 0.931 . S
C2607 H2595 0.929 . S
C2607 C2601 1.390 . S
C2607 C2604 1.386 . S
C2608 C2603 1.490 . S
C2608 C2610 1.395 . S
C2608 C2611 1.403 . S
H2609 C2615 0.930 . S
C2610 H2596 0.930 . S
C2610 C2608 1.395 . S
C2610 C2613 1.403 . S
C2611 C2608 1.403 . S
C2611 C2612 1.524 . S
C2611 C2615 1.400 . S
C2612 H2597 0.960 . S
C2612 H2598 0.960 . S
C2612 H2599 0.960 . S
C2612 C2611 1.524 . S
C2613 C2610 1.403 . S
C2613 C2614 1.392 . S
C2613 C2617 1.495 . S
C2614 C2613 1.392 . S
C2614 C2615 1.385 . S
C2614 C2616 1.478 . S
C2615 H2609 0.930 . S
C2615 C2611 1.400 . S
C2615 C2614 1.385 . S
C2616 C2614 1.478 . S
C2616 C2618 1.381 . S
C2616 C2622 1.383 . S
C2617 C2613 1.495 . S
C2617 H2623 0.959 . S
C2617 H2624 0.961 . S
C2617 H2625 0.960 . S
C2618 C2616 1.381 . S
C2618 C2619 1.394 . S
C2618 H2626 0.930 . S
C2619 C2618 1.394 . S
C2619 C2620 1.383 . S
C2619 H2627 0.929 . S
C2620 C2619 1.383 . S
C2620 C2621 1.377 . S
C2621 H2605 0.930 1_556 S
C2621 C2620 1.377 . S
C2621 C2622 1.379 . S
C2622 H2606 0.931 . S
C2622 C2616 1.383 . S
C2622 C2621 1.379 . S
H2623 C2617 0.959 . S
H2624 C2617 0.961 . S
H2625 C2617 0.960 . S
H2626 C2618 0.930 . S
H2627 C2619 0.929 . S
H2628 C2636 0.929 1_554 S
H2629 C2638 0.930 . S
H2630 C2640 0.930 . S
H2631 C2643 0.929 . S
H2632 C2646 0.930 . S
H2633 C2648 0.960 . S
H2634 C2648 0.960 . S
H2635 C2648 0.960 . S
C2636 H2628 0.929 1_556 S
C2636 C2637 1.377 . S
C2636 C2638 1.384 . S
C2637 C2636 1.377 . S
C2637 C2643 1.390 . S
C2638 H2629 0.930 . S
C2638 C2636 1.384 . S
C2638 C2639 1.372 . S
C2639 C2638 1.372 . S
C2639 C2640 1.400 . S
C2639 C2644 1.490 . S
C2640 H2630 0.930 . S
C2640 C2639 1.400 . S
C2640 C2643 1.386 . S
H2641 C2657 0.930 . S
H2642 C2658 0.931 . S
C2643 H2631 0.929 . S
C2643 C2637 1.390 . S
C2643 C2640 1.386 . S
C2644 C2639 1.490 . S
C2644 C2646 1.395 1_565 S
C2644 C2647 1.403 . S
H2645 C2651 0.930 . S
C2646 H2632 0.930 . S
C2646 C2644 1.395 1_545 S
C2646 C2649 1.403 . S
C2647 C2644 1.403 . S
C2647 C2648 1.524 . S
C2647 C2651 1.400 . S
C2648 H2633 0.960 . S
C2648 H2634 0.960 . S
C2648 H2635 0.960 . S
C2648 C2647 1.524 . S
C2649 C2646 1.403 . S
C2649 C2650 1.392 . S
C2649 C2653 1.495 . S
C2650 C2649 1.392 . S
C2650 C2651 1.385 1_545 S
C2650 C2652 1.478 . S
C2651 H2645 0.930 . S
C2651 C2647 1.400 . S
C2651 C2650 1.385 1_565 S
C2652 C2650 1.478 . S
C2652 C2654 1.381 . S
C2652 C2658 1.383 . S
C2653 C2649 1.495 . S
C2653 H2659 0.959 . S
C2653 H2660 0.961 . S
C2653 H2661 0.960 . S
C2654 C2652 1.381 . S
C2654 C2655 1.394 . S
C2654 H2662 0.930 . S
C2655 C2654 1.394 . S
C2655 C2656 1.383 . S
C2655 H2663 0.929 . S
C2656 C2655 1.383 . S
C2656 C2657 1.377 . S
C2657 H2641 0.930 . S
C2657 C2656 1.377 . S
C2657 C2658 1.379 . S
C2658 H2642 0.931 . S
C2658 C2652 1.383 . S
C2658 C2657 1.379 . S
H2659 C2653 0.959 . S
H2660 C2653 0.961 . S
H2661 C2653 0.960 . S
H2662 C2654 0.930 . S
H2663 C2655 0.929 . S
H2664 C2672 0.929 . S
H2665 C2674 0.930 . S
H2666 C2676 0.930 . S
H2667 C2679 0.929 . S
H2668 C2682 0.930 . S
H2669 C2684 0.960 . S
H2670 C2684 0.960 . S
H2671 C2684 0.960 . S
C2672 H2664 0.929 . S
C2672 C2673 1.377 . S
C2672 C2674 1.384 . S
C2673 C2672 1.377 . S
C2673 C2679 1.390 . S
C2674 H2665 0.930 . S
C2674 C2672 1.384 . S
C2674 C2675 1.372 . S
C2675 C2674 1.372 . S
C2675 C2676 1.400 . S
C2675 C2680 1.490 . S
C2676 H2666 0.930 . S
C2676 C2675 1.400 . S
C2676 C2679 1.386 . S
H2677 C2693 0.930 . S
H2678 C2694 0.931 . S
C2679 H2667 0.929 . S
C2679 C2673 1.390 . S
C2679 C2676 1.386 . S
C2680 C2675 1.490 . S
C2680 C2682 1.395 . S
C2680 C2683 1.403 1_655 S
H2681 C2687 0.930 . S
C2682 H2668 0.930 . S
C2682 C2680 1.395 . S
C2682 C2685 1.403 . S
C2683 C2680 1.403 1_455 S
C2683 C2684 1.524 . S
C2683 C2687 1.400 . S
C2684 H2669 0.960 . S
C2684 H2670 0.960 . S
C2684 H2671 0.960 . S
C2684 C2683 1.524 . S
C2685 C2682 1.403 . S
C2685 C2686 1.392 1_655 S
C2685 C2689 1.495 . S
C2686 C2685 1.392 1_455 S
C2686 C2687 1.385 . S
C2686 C2688 1.478 . S
C2687 H2681 0.930 . S
C2687 C2683 1.400 . S
C2687 C2686 1.385 . S
C2688 C2686 1.478 . S
C2688 C2690 1.381 . S
C2688 C2694 1.383 . S
C2689 C2685 1.495 . S
C2689 H2695 0.959 . S
C2689 H2696 0.961 . S
C2689 H2697 0.960 . S
C2690 C2688 1.381 . S
C2690 C2691 1.394 . S
C2690 H2698 0.930 . S
C2691 C2690 1.394 . S
C2691 C2692 1.383 . S
C2691 H2699 0.929 . S
C2692 C2691 1.383 . S
C2692 C2693 1.377 . S
C2693 H2677 0.930 . S
C2693 C2692 1.377 . S
C2693 C2694 1.379 . S
C2694 H2678 0.931 . S
C2694 C2688 1.383 . S
C2694 C2693 1.379 . S
H2695 C2689 0.959 . S
H2696 C2689 0.961 . S
H2697 C2689 0.960 . S
H2698 C2690 0.930 . S
H2699 C2691 0.929 . S
H2700 C2708 0.929 . S
H2701 C2710 0.930 . S
H2702 C2712 0.930 . S
H2703 C2715 0.929 . S
H2704 C2718 0.930 . S
H2705 C2720 0.960 . S
H2706 C2720 0.960 . S
H2707 C2720 0.960 . S
C2708 H2700 0.929 . S
C2708 C2709 1.377 . S
C2708 C2710 1.384 . S
C2709 C2708 1.377 . S
C2709 C2715 1.390 . S
C2710 H2701 0.930 . S
C2710 C2708 1.384 . S
C2710 C2711 1.372 . S
C2711 C2710 1.372 . S
C2711 C2712 1.400 . S
C2711 C2716 1.490 . S
C2712 H2702 0.930 . S
C2712 C2711 1.400 . S
C2712 C2715 1.386 . S
H2713 C2729 0.930 . S
H2714 C2730 0.931 . S
C2715 H2703 0.929 . S
C2715 C2709 1.390 . S
C2715 C2712 1.386 . S
C2716 C2711 1.490 . S
C2716 C2718 1.395 . S
C2716 C2719 1.403 . S
H2717 C2723 0.930 . S
C2718 H2704 0.930 . S
C2718 C2716 1.395 . S
C2718 C2721 1.403 . S
C2719 C2716 1.403 . S
C2719 C2720 1.524 . S
C2719 C2723 1.400 . S
C2720 H2705 0.960 . S
C2720 H2706 0.960 . S
C2720 H2707 0.960 . S
C2720 C2719 1.524 . S
C2721 C2718 1.403 . S
C2721 C2722 1.392 . S
C2721 C2725 1.495 . S
C2722 C2721 1.392 . S
C2722 C2723 1.385 . S
C2722 C2724 1.478 . S
C2723 H2717 0.930 . S
C2723 C2719 1.400 . S
C2723 C2722 1.385 . S
C2724 C2722 1.478 . S
C2724 C2726 1.381 . S
C2724 C2730 1.383 . S
C2725 C2721 1.495 . S
C2725 H2731 0.959 . S
C2725 H2732 0.961 . S
C2725 H2733 0.960 . S
C2726 C2724 1.381 . S
C2726 C2727 1.394 . S
C2726 H2734 0.930 . S
C2727 C2726 1.394 . S
C2727 C2728 1.383 . S
C2727 H2735 0.929 . S
C2728 C2727 1.383 . S
C2728 C2729 1.377 . S
C2729 H2713 0.930 . S
C2729 C2728 1.377 . S
C2729 C2730 1.379 . S
C2730 H2714 0.931 . S
C2730 C2724 1.383 . S
C2730 C2729 1.379 . S
H2731 C2725 0.959 . S
H2732 C2725 0.961 . S
H2733 C2725 0.960 . S
H2734 C2726 0.930 . S
H2735 C2727 0.929 . S
H2736 C2744 0.929 . S
H2737 C2746 0.930 . S
H2738 C2748 0.930 . S
H2739 C2751 0.929 . S
H2740 C2754 0.930 . S
H2741 C2756 0.960 . S
H2742 C2756 0.960 . S
H2743 C2756 0.960 . S
C2744 H2736 0.929 . S
C2744 C2745 1.377 . S
C2744 C2746 1.384 . S
C2745 C2744 1.377 . S
C2745 C2751 1.390 . S
C2746 H2737 0.930 . S
C2746 C2744 1.384 . S
C2746 C2747 1.372 . S
C2747 C2746 1.372 . S
C2747 C2748 1.400 . S
C2747 C2752 1.490 . S
C2748 H2738 0.930 . S
C2748 C2747 1.400 . S
C2748 C2751 1.386 . S
H2749 C2765 0.930 . S
H2750 C2766 0.931 . S
C2751 H2739 0.929 . S
C2751 C2745 1.390 . S
C2751 C2748 1.386 . S
C2752 C2747 1.490 . S
C2752 C2754 1.395 . S
C2752 C2755 1.403 . S
H2753 C2759 0.930 . S
C2754 H2740 0.930 . S
C2754 C2752 1.395 . S
C2754 C2757 1.403 . S
C2755 C2752 1.403 . S
C2755 C2756 1.524 . S
C2755 C2759 1.400 . S
C2756 H2741 0.960 . S
C2756 H2742 0.960 . S
C2756 H2743 0.960 . S
C2756 C2755 1.524 . S
C2757 C2754 1.403 . S
C2757 C2758 1.392 . S
C2757 C2761 1.495 . S
C2758 C2757 1.392 . S
C2758 C2759 1.385 . S
C2758 C2760 1.478 . S
C2759 H2753 0.930 . S
C2759 C2755 1.400 . S
C2759 C2758 1.385 . S
C2760 C2758 1.478 . S
C2760 C2762 1.381 . S
C2760 C2766 1.383 . S
C2761 C2757 1.495 . S
C2761 H2767 0.959 . S
C2761 H2768 0.961 . S
C2761 H2769 0.960 . S
C2762 C2760 1.381 . S
C2762 C2763 1.394 . S
C2762 H2770 0.930 . S
C2763 C2762 1.394 . S
C2763 C2764 1.383 . S
C2763 H2771 0.929 . S
C2764 C2763 1.383 . S
C2764 C2765 1.377 . S
C2765 H2749 0.930 . S
C2765 C2764 1.377 . S
C2765 C2766 1.379 . S
C2766 H2750 0.931 . S
C2766 C2760 1.383 . S
C2766 C2765 1.379 . S
H2767 C2761 0.959 . S
H2768 C2761 0.961 . S
H2769 C2761 0.960 . S
H2770 C2762 0.930 . S
H2771 C2763 0.929 . S
H2772 C2780 0.929 . S
H2773 C2782 0.930 . S
H2774 C2784 0.930 . S
H2775 C2787 0.929 . S
H2776 C2790 0.930 . S
H2777 C2792 0.960 . S
H2778 C2792 0.960 . S
H2779 C2792 0.960 . S
C2780 H2772 0.929 . S
C2780 C2781 1.377 . S
C2780 C2782 1.384 . S
C2781 C2780 1.377 . S
C2781 C2787 1.390 . S
C2782 H2773 0.930 . S
C2782 C2780 1.384 . S
C2782 C2783 1.372 . S
C2783 C2782 1.372 . S
C2783 C2784 1.400 . S
C2783 C2788 1.490 . S
C2784 H2774 0.930 . S
C2784 C2783 1.400 . S
C2784 C2787 1.386 . S
H2785 C2801 0.930 . S
H2786 C2802 0.931 . S
C2787 H2775 0.929 . S
C2787 C2781 1.390 . S
C2787 C2784 1.386 . S
C2788 C2783 1.490 . S
C2788 C2790 1.395 . S
C2788 C2791 1.403 . S
H2789 C2795 0.930 . S
C2790 H2776 0.930 . S
C2790 C2788 1.395 . S
C2790 C2793 1.403 . S
C2791 C2788 1.403 . S
C2791 C2792 1.524 . S
C2791 C2795 1.400 . S
C2792 H2777 0.960 . S
C2792 H2778 0.960 . S
C2792 H2779 0.960 . S
C2792 C2791 1.524 . S
C2793 C2790 1.403 . S
C2793 C2794 1.392 . S
C2793 C2797 1.495 . S
C2794 C2793 1.392 . S
C2794 C2795 1.385 . S
C2794 C2796 1.478 . S
C2795 H2789 0.930 . S
C2795 C2791 1.400 . S
C2795 C2794 1.385 . S
C2796 C2794 1.478 . S
C2796 C2798 1.381 . S
C2796 C2802 1.383 . S
C2797 C2793 1.495 . S
C2797 H2803 0.959 . S
C2797 H2804 0.961 . S
C2797 H2805 0.960 . S
C2798 C2796 1.381 . S
C2798 C2799 1.394 . S
C2798 H2806 0.930 . S
C2799 C2798 1.394 . S
C2799 C2800 1.383 . S
C2799 H2807 0.929 . S
C2800 C2799 1.383 . S
C2800 C2801 1.377 . S
C2801 H2785 0.930 . S
C2801 C2800 1.377 . S
C2801 C2802 1.379 . S
C2802 H2786 0.931 . S
C2802 C2796 1.383 . S
C2802 C2801 1.379 . S
H2803 C2797 0.959 . S
H2804 C2797 0.961 . S
H2805 C2797 0.960 . S
H2806 C2798 0.930 . S
H2807 C2799 0.929 . S
H2808 C2816 0.929 . S
H2809 C2818 0.930 . S
H2810 C2820 0.930 . S
H2811 C2823 0.929 . S
H2812 C2826 0.930 . S
H2813 C2828 0.960 . S
H2814 C2828 0.960 . S
H2815 C2828 0.960 . S
C2816 H2808 0.929 . S
C2816 C2817 1.377 . S
C2816 C2818 1.384 . S
C2817 C2816 1.377 . S
C2817 C2823 1.390 . S
C2818 H2809 0.930 . S
C2818 C2816 1.384 . S
C2818 C2819 1.372 . S
C2819 C2818 1.372 . S
C2819 C2820 1.400 . S
C2819 C2824 1.490 . S
C2820 H2810 0.930 . S
C2820 C2819 1.400 . S
C2820 C2823 1.386 . S
H2821 C2837 0.930 1_556 S
H2822 C2838 0.931 . S
C2823 H2811 0.929 . S
C2823 C2817 1.390 . S
C2823 C2820 1.386 . S
C2824 C2819 1.490 . S
C2824 C2826 1.395 . S
C2824 C2827 1.403 . S
H2825 C2831 0.930 . S
C2826 H2812 0.930 . S
C2826 C2824 1.395 . S
C2826 C2829 1.403 . S
C2827 C2824 1.403 . S
C2827 C2828 1.524 . S
C2827 C2831 1.400 . S
C2828 H2813 0.960 . S
C2828 H2814 0.960 . S
C2828 H2815 0.960 . S
C2828 C2827 1.524 . S
C2829 C2826 1.403 . S
C2829 C2830 1.392 . S
C2829 C2833 1.495 . S
C2830 C2829 1.392 . S
C2830 C2831 1.385 . S
C2830 C2832 1.478 . S
C2831 H2825 0.930 . S
C2831 C2827 1.400 . S
C2831 C2830 1.385 . S
C2832 C2830 1.478 . S
C2832 C2834 1.381 . S
C2832 C2838 1.383 . S
C2833 C2829 1.495 . S
C2833 H2839 0.959 . S
C2833 H2840 0.961 . S
C2833 H2841 0.960 . S
C2834 C2832 1.381 . S
C2834 C2835 1.394 . S
C2834 H2842 0.930 . S
C2835 C2834 1.394 . S
C2835 C2836 1.383 1_554 S
C2835 H2843 0.929 1_554 S
C2836 C2835 1.383 1_556 S
C2836 C2837 1.377 1_556 S
C2837 H2821 0.930 1_554 S
C2837 C2836 1.377 1_554 S
C2837 C2838 1.379 . S
C2838 H2822 0.931 . S
C2838 C2832 1.383 . S
C2838 C2837 1.379 . S
H2839 C2833 0.959 . S
H2840 C2833 0.961 . S
H2841 C2833 0.960 . S
H2842 C2834 0.930 . S
H2843 C2835 0.929 1_556 S
H2844 C2852 0.929 . S
H2845 C2854 0.930 . S
H2846 C2856 0.930 . S
H2847 C2859 0.929 1_556 S
H2848 C2862 0.930 . S
H2849 C2864 0.960 . S
H2850 C2864 0.960 . S
H2851 C2864 0.960 . S
C2852 H2844 0.929 . S
C2852 C2853 1.377 1_554 S
C2852 C2854 1.384 . S
C2853 C2852 1.377 1_556 S
C2853 C2859 1.390 1_556 S
C2854 H2845 0.930 . S
C2854 C2852 1.384 . S
C2854 C2855 1.372 . S
C2855 C2854 1.372 . S
C2855 C2856 1.400 . S
C2855 C2860 1.490 . S
C2856 H2846 0.930 . S
C2856 C2855 1.400 . S
C2856 C2859 1.386 . S
H2857 C2873 0.930 . S
H2858 C2874 0.931 . S
C2859 H2847 0.929 1_554 S
C2859 C2853 1.390 1_554 S
C2859 C2856 1.386 . S
C2860 C2855 1.490 . S
C2860 C2862 1.395 . S
C2860 C2863 1.403 . S
H2861 C2867 0.930 . S
C2862 H2848 0.930 . S
C2862 C2860 1.395 . S
C2862 C2865 1.403 . S
C2863 C2860 1.403 . S
C2863 C2864 1.524 . S
C2863 C2867 1.400 . S
C2864 H2849 0.960 . S
C2864 H2850 0.960 . S
C2864 H2851 0.960 . S
C2864 C2863 1.524 . S
C2865 C2862 1.403 . S
C2865 C2866 1.392 . S
C2865 C2869 1.495 . S
C2866 C2865 1.392 . S
C2866 C2867 1.385 . S
C2866 C2868 1.478 . S
C2867 H2861 0.930 . S
C2867 C2863 1.400 . S
C2867 C2866 1.385 . S
C2868 C2866 1.478 . S
C2868 C2870 1.381 . S
C2868 C2874 1.383 . S
C2869 C2865 1.495 . S
C2869 H2875 0.959 . S
C2869 H2876 0.961 . S
C2869 H2877 0.960 . S
C2870 C2868 1.381 . S
C2870 C2871 1.394 . S
C2870 H2878 0.930 . S
C2871 C2870 1.394 . S
C2871 C2872 1.383 . S
C2871 H2879 0.929 . S
C2872 C2871 1.383 . S
C2872 C2873 1.377 . S
C2873 H2857 0.930 . S
C2873 C2872 1.377 . S
C2873 C2874 1.379 . S
C2874 H2858 0.931 . S
C2874 C2868 1.383 . S
C2874 C2873 1.379 . S
H2875 C2869 0.959 . S
H2876 C2869 0.961 . S
H2877 C2869 0.960 . S
H2878 C2870 0.930 . S
H2879 C2871 0.929 . S
H2880 C2888 0.929 . S
H2881 C2890 0.930 . S
H2882 C2892 0.930 . S
H2883 C2895 0.929 . S
H2884 C2898 0.930 . S
H2885 C2900 0.960 . S
H2886 C2900 0.960 . S
H2887 C2900 0.960 . S
C2888 H2880 0.929 . S
C2888 C2889 1.377 . S
C2888 C2890 1.384 1_556 S
C2889 C2888 1.377 . S
C2889 C2895 1.390 1_556 S
C2890 H2881 0.930 . S
C2890 C2888 1.384 1_554 S
C2890 C2891 1.372 . S
C2891 C2890 1.372 . S
C2891 C2892 1.400 . S
C2891 C2896 1.490 . S
C2892 H2882 0.930 . S
C2892 C2891 1.400 . S
C2892 C2895 1.386 . S
H2893 C2909 0.930 . S
H2894 C2910 0.931 . S
C2895 H2883 0.929 . S
C2895 C2889 1.390 1_554 S
C2895 C2892 1.386 . S
C2896 C2891 1.490 . S
C2896 C2898 1.395 . S
C2896 C2899 1.403 . S
H2897 C2903 0.930 . S
C2898 H2884 0.930 . S
C2898 C2896 1.395 . S
C2898 C2901 1.403 . S
C2899 C2896 1.403 . S
C2899 C2900 1.524 . S
C2899 C2903 1.400 . S
C2900 H2885 0.960 . S
C2900 H2886 0.960 . S
C2900 H2887 0.960 . S
C2900 C2899 1.524 . S
C2901 C2898 1.403 . S
C2901 C2902 1.392 . S
C2901 C2905 1.495 . S
C2902 C2901 1.392 . S
C2902 C2903 1.385 . S
C2902 C2904 1.478 . S
C2903 H2897 0.930 . S
C2903 C2899 1.400 . S
C2903 C2902 1.385 . S
C2904 C2902 1.478 . S
C2904 C2906 1.381 . S
C2904 C2910 1.383 . S
C2905 C2901 1.495 . S
C2905 H2911 0.959 . S
C2905 H2912 0.961 . S
C2905 H2913 0.960 . S
C2906 C2904 1.381 . S
C2906 C2907 1.394 . S
C2906 H2914 0.930 . S
C2907 C2906 1.394 . S
C2907 C2908 1.383 . S
C2907 H2915 0.929 . S
C2908 C2907 1.383 . S
C2908 C2909 1.377 . S
C2909 H2893 0.930 . S
C2909 C2908 1.377 . S
C2909 C2910 1.379 . S
C2910 H2894 0.931 . S
C2910 C2904 1.383 . S
C2910 C2909 1.379 . S
H2911 C2905 0.959 . S
H2912 C2905 0.961 . S
H2913 C2905 0.960 . S
H2914 C2906 0.930 . S
H2915 C2907 0.929 . S
H2916 C2924 0.929 . S
H2917 C2926 0.930 . S
H2918 C2928 0.930 . S
H2919 C2931 0.929 . S
H2920 C2934 0.929 1_554 S
H2921 C2936 0.960 . S
H2922 C2936 0.960 . S
H2923 C2936 0.960 . S
C2924 H2916 0.929 . S
C2924 C2925 1.377 . S
C2924 C2926 1.384 . S
C2925 C2924 1.377 . S
C2925 C2931 1.390 . S
C2926 H2917 0.930 . S
C2926 C2924 1.384 . S
C2926 C2927 1.372 . S
C2927 C2926 1.372 . S
C2927 C2928 1.400 . S
C2927 C2932 1.490 . S
C2928 H2918 0.930 . S
C2928 C2927 1.400 . S
C2928 C2931 1.386 . S
H2929 C2945 0.930 . S
H2930 C2946 0.931 . S
C2931 H2919 0.929 . S
C2931 C2925 1.390 . S
C2931 C2928 1.386 . S
C2932 C2927 1.490 . S
C2932 C2934 1.395 . S
C2932 C2935 1.403 . S
H2933 C2939 0.930 . S
C2934 H2920 0.929 1_556 S
C2934 C2932 1.395 . S
C2934 C2937 1.403 1_556 S
C2935 C2932 1.403 . S
C2935 C2936 1.524 . S
C2935 C2939 1.400 . S
C2936 H2921 0.960 . S
C2936 H2922 0.960 . S
C2936 H2923 0.960 . S
C2936 C2935 1.524 . S
C2937 C2934 1.403 1_554 S
C2937 C2938 1.392 . S
C2937 C2941 1.495 . S
C2938 C2937 1.392 . S
C2938 C2939 1.385 1_554 S
C2938 C2940 1.478 . S
C2939 H2933 0.930 . S
C2939 C2935 1.400 . S
C2939 C2938 1.385 1_556 S
C2940 C2938 1.478 . S
C2940 C2942 1.381 . S
C2940 C2946 1.383 . S
C2941 C2937 1.495 . S
C2941 H2947 0.959 . S
C2941 H2948 0.961 . S
C2941 H2949 0.960 . S
C2942 C2940 1.381 . S
C2942 C2943 1.394 . S
C2942 H2950 0.930 . S
C2943 C2942 1.394 . S
C2943 C2944 1.383 . S
C2943 H2951 0.929 . S
C2944 C2943 1.383 . S
C2944 C2945 1.377 . S
C2945 H2929 0.930 . S
C2945 C2944 1.377 . S
C2945 C2946 1.379 . S
C2946 H2930 0.931 . S
C2946 C2940 1.383 . S
C2946 C2945 1.379 . S
H2947 C2941 0.959 . S
H2948 C2941 0.961 . S
H2949 C2941 0.960 . S
H2950 C2942 0.930 . S
H2951 C2943 0.929 . S
H2952 C2960 0.929 . S
H2953 C2962 0.930 . S
H2954 C2964 0.930 . S
H2955 C2967 0.929 . S
H2956 C2970 0.930 . S
H2957 C2972 0.960 . S
H2958 C2972 0.960 1_554 S
H2959 C2972 0.960 . S
C2960 H2952 0.929 . S
C2960 C2961 1.377 . S
C2960 C2962 1.384 . S
C2961 C2960 1.377 . S
C2961 C2967 1.390 . S
C2962 H2953 0.930 . S
C2962 C2960 1.384 . S
C2962 C2963 1.372 . S
C2963 C2962 1.372 . S
C2963 C2964 1.400 . S
C2963 C2968 1.490 . S
C2964 H2954 0.930 . S
C2964 C2963 1.400 . S
C2964 C2967 1.386 . S
H2965 C2981 0.930 . S
H2966 C2982 0.931 . S
C2967 H2955 0.929 . S
C2967 C2961 1.390 . S
C2967 C2964 1.386 . S
C2968 C2963 1.490 . S
C2968 C2970 1.395 . S
C2968 C2971 1.403 1_554 S
H2969 C2975 0.930 . S
C2970 H2956 0.930 . S
C2970 C2968 1.395 . S
C2970 C2973 1.403 1_554 S
C2971 C2968 1.403 1_556 S
C2971 C2972 1.524 . S
C2971 C2975 1.400 . S
C2972 H2957 0.960 . S
C2972 H2958 0.960 1_556 S
C2972 H2959 0.960 . S
C2972 C2971 1.524 . S
C2973 C2970 1.403 1_556 S
C2973 C2974 1.392 . S
C2973 C2977 1.495 . S
C2974 C2973 1.392 . S
C2974 C2975 1.385 . S
C2974 C2976 1.478 . S
C2975 H2969 0.930 . S
C2975 C2971 1.400 . S
C2975 C2974 1.385 . S
C2976 C2974 1.478 . S
C2976 C2978 1.381 . S
C2976 C2982 1.383 . S
C2977 C2973 1.495 . S
C2977 H2983 0.959 1_556 S
C2977 H2984 0.961 . S
C2977 H2985 0.960 . S
C2978 C2976 1.381 . S
C2978 C2979 1.394 . S
C2978 H2986 0.930 . S
C2979 C2978 1.394 . S
C2979 C2980 1.383 . S
C2979 H2987 0.929 . S
C2980 C2979 1.383 . S
C2980 C2981 1.377 . S
C2981 H2965 0.930 . S
C2981 C2980 1.377 . S
C2981 C2982 1.379 . S
C2982 H2966 0.931 . S
C2982 C2976 1.383 . S
C2982 C2981 1.379 . S
H2983 C2977 0.959 1_554 S
H2984 C2977 0.961 . S
H2985 C2977 0.960 . S
H2986 C2978 0.930 . S
H2987 C2979 0.929 . S
H2988 C2996 0.929 . S
H2989 C2998 0.930 . S
H2990 C3000 0.930 . S
H2991 C3003 0.929 . S
H2992 C3006 0.930 . S
H2993 C3008 0.960 . S
H2994 C3008 0.960 . S
H2995 C3008 0.960 . S
C2996 H2988 0.929 . S
C2996 C2997 1.377 . S
C2996 C2998 1.384 . S
C2997 C2996 1.377 . S
C2997 C3003 1.390 . S
C2998 H2989 0.930 . S
C2998 C2996 1.384 . S
C2998 C2999 1.372 . S
C2999 C2998 1.372 . S
C2999 C3000 1.400 . S
C2999 C3004 1.490 . S
C3000 H2990 0.930 . S
C3000 C2999 1.400 . S
C3000 C3003 1.386 . S
H3001 C3017 0.930 . S
H3002 C3018 0.931 . S
C3003 H2991 0.929 . S
C3003 C2997 1.390 . S
C3003 C3000 1.386 . S
C3004 C2999 1.490 . S
C3004 C3006 1.395 . S
C3004 C3007 1.424 . S
H3005 C3011 0.930 . S
C3006 H2992 0.930 . S
C3006 C3004 1.395 . S
C3006 C3009 1.403 . S
C3007 C3004 1.424 . S
C3007 C3008 1.517 1_556 S
C3007 C3011 1.385 1_556 S
C3008 H2993 0.960 . S
C3008 H2994 0.960 . S
C3008 H2995 0.960 . S
C3008 C3007 1.517 1_554 S
C3009 C3006 1.403 . S
C3009 C3010 1.392 1_556 S
C3009 C3013 1.495 . S
C3010 C3009 1.392 1_554 S
C3010 C3011 1.385 . S
C3010 C3012 1.478 . S
C3011 H3005 0.930 . S
C3011 C3007 1.385 1_554 S
C3011 C3010 1.385 . S
C3012 C3010 1.478 . S
C3012 C3014 1.381 . S
C3012 C3018 1.383 . S
C3013 C3009 1.495 . S
C3013 H3019 0.959 . S
C3013 H3020 0.961 . S
C3013 H3021 0.960 . S
C3014 C3012 1.381 . S
C3014 C3015 1.394 . S
C3014 H3022 0.930 . S
C3015 C3014 1.394 . S
C3015 C3016 1.383 . S
C3015 H3023 0.929 . S
C3016 C3015 1.383 . S
C3016 C3017 1.377 . S
C3017 H3001 0.930 . S
C3017 C3016 1.377 . S
C3017 C3018 1.379 . S
C3018 H3002 0.931 . S
C3018 C3012 1.383 . S
C3018 C3017 1.379 . S
H3019 C3013 0.959 . S
H3020 C3013 0.961 . S
H3021 C3013 0.960 . S
H3022 C3014 0.930 . S
H3023 C3015 0.929 . S
H3024 C3032 0.929 . S
H3025 C3034 0.930 . S
H3026 C3036 0.930 . S
H3027 C3039 0.929 . S
H3028 C3042 0.930 . S
H3029 C3044 0.960 . S
H3030 C3044 0.960 . S
H3031 C3044 0.960 . S
C3032 H3024 0.929 . S
C3032 C3033 1.377 . S
C3032 C3034 1.384 . S
C3033 C3032 1.377 . S
C3033 C3039 1.390 . S
C3034 H3025 0.930 . S
C3034 C3032 1.384 . S
C3034 C3035 1.372 . S
C3035 C3034 1.372 . S
C3035 C3036 1.400 . S
C3035 C3040 1.490 . S
C3036 H3026 0.930 . S
C3036 C3035 1.400 . S
C3036 C3039 1.386 . S
H3037 C3053 0.930 . S
H3038 C3054 0.931 . S
C3039 H3027 0.929 . S
C3039 C3033 1.390 . S
C3039 C3036 1.386 . S
C3040 C3035 1.490 . S
C3040 C3042 1.395 . S
C3040 C3043 1.403 . S
H3041 C3047 0.930 . S
C3042 H3028 0.930 . S
C3042 C3040 1.395 . S
C3042 C3045 1.403 . S
C3043 C3040 1.403 . S
C3043 C3044 1.524 . S
C3043 C3047 1.400 . S
C3044 H3029 0.960 . S
C3044 H3030 0.960 . S
C3044 H3031 0.960 . S
C3044 C3043 1.524 . S
C3045 C3042 1.403 . S
C3045 C3046 1.392 . S
C3045 C3049 1.495 . S
C3046 C3045 1.392 . S
C3046 C3047 1.385 . S
C3046 C3048 1.478 . S
C3047 H3041 0.930 . S
C3047 C3043 1.400 . S
C3047 C3046 1.385 . S
C3048 C3046 1.478 . S
C3048 C3050 1.381 . S
C3048 C3054 1.383 . S
C3049 C3045 1.495 . S
C3049 H3055 0.959 . S
C3049 H3056 0.961 . S
C3049 H3057 0.960 . S
C3050 C3048 1.381 . S
C3050 C3051 1.394 . S
C3050 H3058 0.930 . S
C3051 C3050 1.394 . S
C3051 C3052 1.383 . S
C3051 H3059 0.929 . S
C3052 C3051 1.383 . S
C3052 C3053 1.377 . S
C3053 H3037 0.930 . S
C3053 C3052 1.377 . S
C3053 C3054 1.379 . S
C3054 H3038 0.931 . S
C3054 C3048 1.383 . S
C3054 C3053 1.379 . S
H3055 C3049 0.959 . S
H3056 C3049 0.961 . S
H3057 C3049 0.960 . S
H3058 C3050 0.930 . S
H3059 C3051 0.929 . S
H3060 C3068 0.929 . S
H3061 C3070 0.930 . S
H3062 C3072 0.930 . S
H3063 C3075 0.929 . S
H3064 C3078 0.930 . S
H3065 C3080 0.960 . S
H3066 C3080 0.960 . S
H3067 C3080 0.960 . S
C3068 H3060 0.929 . S
C3068 C3069 1.377 . S
C3068 C3070 1.384 . S
C3069 C3068 1.377 . S
C3069 C3075 1.390 . S
C3070 H3061 0.930 . S
C3070 C3068 1.384 . S
C3070 C3071 1.372 . S
C3071 C3070 1.372 . S
C3071 C3072 1.400 . S
C3071 C3076 1.490 . S
C3072 H3062 0.930 . S
C3072 C3071 1.400 . S
C3072 C3075 1.386 . S
H3073 C3089 0.930 . S
H3074 C3090 0.931 . S
C3075 H3063 0.929 . S
C3075 C3069 1.390 . S
C3075 C3072 1.386 . S
C3076 C3071 1.490 . S
C3076 C3078 1.395 . S
C3076 C3079 1.403 . S
H3077 C3083 0.930 . S
C3078 H3064 0.930 . S
C3078 C3076 1.395 . S
C3078 C3081 1.403 . S
C3079 C3076 1.403 . S
C3079 C3080 1.524 . S
C3079 C3083 1.400 . S
C3080 H3065 0.960 . S
C3080 H3066 0.960 . S
C3080 H3067 0.960 . S
C3080 C3079 1.524 . S
C3081 C3078 1.403 . S
C3081 C3082 1.392 . S
C3081 C3085 1.495 . S
C3082 C3081 1.392 . S
C3082 C3083 1.385 . S
C3082 C3084 1.478 . S
C3083 H3077 0.930 . S
C3083 C3079 1.400 . S
C3083 C3082 1.385 . S
C3084 C3082 1.478 . S
C3084 C3086 1.381 . S
C3084 C3090 1.383 . S
C3085 C3081 1.495 . S
C3085 H3091 0.959 . S
C3085 H3092 0.961 . S
C3085 H3093 0.960 . S
C3086 C3084 1.381 . S
C3086 C3087 1.394 . S
C3086 H3094 0.930 . S
C3087 C3086 1.394 . S
C3087 C3088 1.383 . S
C3087 H3095 0.929 . S
C3088 C3087 1.383 . S
C3088 C3089 1.377 . S
C3089 H3073 0.930 . S
C3089 C3088 1.377 . S
C3089 C3090 1.379 . S
C3090 H3074 0.931 . S
C3090 C3084 1.383 . S
C3090 C3089 1.379 . S
H3091 C3085 0.959 . S
H3092 C3085 0.961 . S
H3093 C3085 0.960 . S
H3094 C3086 0.930 . S
H3095 C3087 0.929 . S
H3096 C3104 0.929 . S
H3097 C3106 0.930 . S
H3098 C3108 0.930 . S
H3099 C3111 0.929 . S
H3100 C3114 0.930 . S
H3101 C3116 0.960 . S
H3102 C3116 0.960 . S
H3103 C3116 0.960 . S
C3104 H3096 0.929 . S
C3104 C3105 1.377 . S
C3104 C3106 1.384 . S
C3105 C3104 1.377 . S
C3105 C3111 1.390 . S
C3106 H3097 0.930 . S
C3106 C3104 1.384 . S
C3106 C3107 1.372 . S
C3107 C3106 1.372 . S
C3107 C3108 1.400 . S
C3107 C3112 1.490 . S
C3108 H3098 0.930 . S
C3108 C3107 1.400 . S
C3108 C3111 1.386 . S
H3109 C3125 0.930 . S
H3110 C3126 0.931 . S
C3111 H3099 0.929 . S
C3111 C3105 1.390 . S
C3111 C3108 1.386 . S
C3112 C3107 1.490 . S
C3112 C3114 1.395 . S
C3112 C3115 1.403 . S
H3113 C3119 0.930 . S
C3114 H3100 0.930 . S
C3114 C3112 1.395 . S
C3114 C3117 1.403 . S
C3115 C3112 1.403 . S
C3115 C3116 1.524 . S
C3115 C3119 1.400 . S
C3116 H3101 0.960 . S
C3116 H3102 0.960 . S
C3116 H3103 0.960 . S
C3116 C3115 1.524 . S
C3117 C3114 1.403 . S
C3117 C3118 1.392 . S
C3117 C3121 1.495 . S
C3118 C3117 1.392 . S
C3118 C3119 1.385 . S
C3118 C3120 1.478 . S
C3119 H3113 0.930 . S
C3119 C3115 1.400 . S
C3119 C3118 1.385 . S
C3120 C3118 1.478 . S
C3120 C3122 1.381 . S
C3120 C3126 1.383 . S
C3121 C3117 1.495 . S
C3121 H3127 0.959 . S
C3121 H3128 0.961 . S
C3121 H3129 0.960 . S
C3122 C3120 1.381 . S
C3122 C3123 1.394 . S
C3122 H3130 0.930 . S
C3123 C3122 1.394 . S
C3123 C3124 1.383 . S
C3123 H3131 0.929 . S
C3124 C3123 1.383 . S
C3124 C3125 1.377 . S
C3125 H3109 0.930 . S
C3125 C3124 1.377 . S
C3125 C3126 1.379 . S
C3126 H3110 0.931 . S
C3126 C3120 1.383 . S
C3126 C3125 1.379 . S
H3127 C3121 0.959 . S
H3128 C3121 0.961 . S
H3129 C3121 0.960 . S
H3130 C3122 0.930 . S
H3131 C3123 0.929 . S
H3132 C3140 0.929 . S
H3133 C3142 0.930 . S
H3134 C3144 0.930 . S
H3135 C3147 0.929 . S
H3136 C3150 0.930 . S
H3137 C3152 0.960 . S
H3138 C3152 0.960 . S
H3139 C3152 0.960 . S
C3140 H3132 0.929 . S
C3140 C3141 1.377 . S
C3140 C3142 1.384 . S
C3141 C3140 1.377 . S
C3141 C3147 1.390 . S
C3142 H3133 0.930 . S
C3142 C3140 1.384 . S
C3142 C3143 1.372 . S
C3143 C3142 1.372 . S
C3143 C3144 1.400 . S
C3143 C3148 1.490 . S
C3144 H3134 0.930 . S
C3144 C3143 1.400 . S
C3144 C3147 1.386 . S
H3145 C3161 0.930 . S
H3146 C3162 0.931 . S
C3147 H3135 0.929 . S
C3147 C3141 1.390 . S
C3147 C3144 1.386 . S
C3148 C3143 1.490 . S
C3148 C3150 1.395 . S
C3148 C3151 1.403 . S
H3149 C3155 0.930 . S
C3150 H3136 0.930 . S
C3150 C3148 1.395 . S
C3150 C3153 1.403 . S
C3151 C3148 1.403 . S
C3151 C3152 1.524 . S
C3151 C3155 1.400 . S
C3152 H3137 0.960 . S
C3152 H3138 0.960 . S
C3152 H3139 0.960 . S
C3152 C3151 1.524 . S
C3153 C3150 1.403 . S
C3153 C3154 1.392 . S
C3153 C3157 1.495 . S
C3154 C3153 1.392 . S
C3154 C3155 1.385 . S
C3154 C3156 1.478 . S
C3155 H3149 0.930 . S
C3155 C3151 1.400 . S
C3155 C3154 1.385 . S
C3156 C3154 1.478 . S
C3156 C3158 1.381 . S
C3156 C3162 1.383 . S
C3157 C3153 1.495 . S
C3157 H3163 0.959 . S
C3157 H3164 0.961 . S
C3157 H3165 0.960 . S
C3158 C3156 1.381 . S
C3158 C3159 1.394 . S
C3158 H3166 0.930 . S
C3159 C3158 1.394 . S
C3159 C3160 1.383 . S
C3159 H3167 0.929 . S
C3160 C3159 1.383 . S
C3160 C3161 1.377 . S
C3161 H3145 0.930 . S
C3161 C3160 1.377 . S
C3161 C3162 1.379 . S
C3162 H3146 0.931 . S
C3162 C3156 1.383 . S
C3162 C3161 1.379 . S
H3163 C3157 0.959 . S
H3164 C3157 0.961 . S
H3165 C3157 0.960 . S
H3166 C3158 0.930 . S
H3167 C3159 0.929 . S
H3168 C3176 0.929 . S
H3169 C3178 0.930 . S
H3170 C3180 0.930 . S
H3171 C3183 0.929 . S
H3172 C3186 0.930 . S
H3173 C3188 0.960 . S
H3174 C3188 0.960 1_545 S
H3175 C3188 0.960 1_545 S
C3176 H3168 0.929 . S
C3176 C3177 1.377 . S
C3176 C3178 1.384 . S
C3177 C3176 1.377 . S
C3177 C3183 1.390 . S
C3178 H3169 0.930 . S
C3178 C3176 1.384 . S
C3178 C3179 1.372 . S
C3179 C3178 1.372 . S
C3179 C3180 1.400 . S
C3179 C3184 1.490 . S
C3180 H3170 0.930 . S
C3180 C3179 1.400 . S
C3180 C3183 1.386 . S
H3181 C3197 0.930 . S
H3182 C3198 0.931 . S
C3183 H3171 0.929 . S
C3183 C3177 1.390 . S
C3183 C3180 1.386 . S
C3184 C3179 1.490 . S
C3184 C3186 1.395 . S
C3184 C3187 1.374 1_545 S
H3185 C3191 0.930 . S
C3186 H3172 0.930 . S
C3186 C3184 1.395 . S
C3186 C3189 1.403 . S
C3187 C3184 1.374 1_565 S
C3187 C3188 1.528 . S
C3187 C3191 1.426 . S
C3188 H3173 0.960 . S
C3188 H3174 0.960 1_565 S
C3188 H3175 0.960 1_565 S
C3188 C3187 1.528 . S
C3189 C3186 1.403 . S
C3189 C3190 1.392 1_545 S
C3189 C3193 1.495 . S
C3190 C3189 1.392 1_565 S
C3190 C3191 1.385 . S
C3190 C3192 1.478 . S
C3191 H3185 0.930 . S
C3191 C3187 1.426 . S
C3191 C3190 1.385 . S
C3192 C3190 1.478 . S
C3192 C3194 1.381 . S
C3192 C3198 1.383 . S
C3193 C3189 1.495 . S
C3193 H3199 0.959 . S
C3193 H3200 0.943 1_545 S
C3193 H3201 0.963 1_545 S
C3194 C3192 1.381 . S
C3194 C3195 1.394 . S
C3194 H3202 0.930 . S
C3195 C3194 1.394 . S
C3195 C3196 1.383 . S
C3195 H3203 0.929 . S
C3196 C3195 1.383 . S
C3196 C3197 1.377 . S
C3197 H3181 0.930 . S
C3197 C3196 1.377 . S
C3197 C3198 1.379 . S
C3198 H3182 0.931 . S
C3198 C3192 1.383 . S
C3198 C3197 1.379 . S
H3199 C3193 0.959 . S
H3200 C3193 0.943 1_565 S
H3201 C3193 0.963 1_565 S
H3202 C3194 0.930 . S
H3203 C3195 0.929 . S
H3204 C3212 0.929 . S
H3205 C3214 0.930 . S
H3206 C3216 0.930 . S
H3207 C3219 0.929 . S
H3208 C3222 0.930 . S
H3209 C3224 0.960 . S
H3210 C3224 0.960 . S
H3211 C3224 0.960 . S
C3212 H3204 0.929 . S
C3212 C3213 1.377 . S
C3212 C3214 1.384 . S
C3213 C3212 1.377 . S
C3213 C3219 1.390 . S
C3214 H3205 0.930 . S
C3214 C3212 1.384 . S
C3214 C3215 1.372 . S
C3215 C3214 1.372 . S
C3215 C3216 1.400 . S
C3215 C3220 1.490 . S
C3216 H3206 0.930 . S
C3216 C3215 1.400 . S
C3216 C3219 1.386 . S
H3217 C3233 0.930 . S
H3218 C3234 0.931 . S
C3219 H3207 0.929 . S
C3219 C3213 1.390 . S
C3219 C3216 1.386 . S
C3220 C3215 1.490 . S
C3220 C3222 1.395 . S
C3220 C3223 1.403 . S
H3221 C3227 0.930 . S
C3222 H3208 0.930 . S
C3222 C3220 1.395 . S
C3222 C3225 1.403 1_455 S
C3223 C3220 1.403 . S
C3223 C3224 1.524 . S
C3223 C3227 1.400 1_455 S
C3224 H3209 0.960 . S
C3224 H3210 0.960 . S
C3224 H3211 0.960 . S
C3224 C3223 1.524 . S
C3225 C3222 1.403 1_655 S
C3225 C3226 1.392 . S
C3225 C3229 1.495 . S
C3226 C3225 1.392 . S
C3226 C3227 1.385 . S
C3226 C3228 1.478 . S
C3227 H3221 0.930 . S
C3227 C3223 1.400 1_655 S
C3227 C3226 1.385 . S
C3228 C3226 1.478 . S
C3228 C3230 1.381 . S
C3228 C3234 1.383 . S
C3229 C3225 1.495 . S
C3229 H3235 0.959 . S
C3229 H3236 0.961 . S
C3229 H3237 0.960 . S
C3230 C3228 1.381 . S
C3230 C3231 1.394 . S
C3230 H3238 0.930 . S
C3231 C3230 1.394 . S
C3231 C3232 1.383 . S
C3231 H3239 0.929 . S
C3232 C3231 1.383 . S
C3232 C3233 1.377 . S
C3233 H3217 0.930 . S
C3233 C3232 1.377 . S
C3233 C3234 1.379 . S
C3234 H3218 0.931 . S
C3234 C3228 1.383 . S
C3234 C3233 1.379 . S
H3235 C3229 0.959 . S
H3236 C3229 0.961 . S
H3237 C3229 0.960 . S
H3238 C3230 0.930 . S
H3239 C3231 0.929 . S
H3240 C3248 0.929 . S
H3241 C3250 0.930 . S
H3242 C3252 0.930 . S
H3243 C3255 0.929 . S
H3244 C3258 0.930 . S
H3245 C3260 0.960 . S
H3246 C3260 0.960 . S
H3247 C3260 0.960 . S
C3248 H3240 0.929 . S
C3248 C3249 1.377 . S
C3248 C3250 1.384 . S
C3249 C3248 1.377 . S
C3249 C3255 1.390 . S
C3250 H3241 0.930 . S
C3250 C3248 1.384 . S
C3250 C3251 1.372 . S
C3251 C3250 1.372 . S
C3251 C3252 1.400 . S
C3251 C3256 1.490 . S
C3252 H3242 0.930 . S
C3252 C3251 1.400 . S
C3252 C3255 1.386 . S
H3253 C3269 0.930 . S
H3254 C3270 0.931 . S
C3255 H3243 0.929 . S
C3255 C3249 1.390 . S
C3255 C3252 1.386 . S
C3256 C3251 1.490 . S
C3256 C3258 1.395 . S
C3256 C3259 1.403 . S
H3257 C3263 0.930 . S
C3258 H3244 0.930 . S
C3258 C3256 1.395 . S
C3258 C3261 1.403 . S
C3259 C3256 1.403 . S
C3259 C3260 1.524 . S
C3259 C3263 1.400 . S
C3260 H3245 0.960 . S
C3260 H3246 0.960 . S
C3260 H3247 0.960 . S
C3260 C3259 1.524 . S
C3261 C3258 1.403 . S
C3261 C3262 1.392 . S
C3261 C3265 1.495 . S
C3262 C3261 1.392 . S
C3262 C3263 1.385 . S
C3262 C3264 1.478 . S
C3263 H3257 0.930 . S
C3263 C3259 1.400 . S
C3263 C3262 1.385 . S
C3264 C3262 1.478 . S
C3264 C3266 1.381 . S
C3264 C3270 1.383 . S
C3265 C3261 1.495 . S
C3265 H3271 0.959 . S
C3265 H3272 0.961 . S
C3265 H3273 0.960 . S
C3266 C3264 1.381 . S
C3266 C3267 1.394 . S
C3266 H3274 0.930 . S
C3267 C3266 1.394 . S
C3267 C3268 1.383 . S
C3267 H3275 0.929 . S
C3268 C3267 1.383 . S
C3268 C3269 1.377 . S
C3269 H3253 0.930 . S
C3269 C3268 1.377 . S
C3269 C3270 1.379 . S
C3270 H3254 0.931 . S
C3270 C3264 1.383 . S
C3270 C3269 1.379 . S
H3271 C3265 0.959 . S
H3272 C3265 0.961 . S
H3273 C3265 0.960 . S
H3274 C3266 0.930 . S
H3275 C3267 0.929 . S
H3276 C3284 0.929 . S
H3277 C3286 0.930 . S
H3278 C3288 0.930 . S
H3279 C3291 0.929 . S
H3280 C3294 0.930 . S
H3281 C3296 1.061 . S
H3282 C3296 0.885 1_545 S
H3283 C3296 0.945 1_545 S
C3284 H3276 0.929 . S
C3284 C3285 1.377 . S
C3284 C3286 1.384 . S
C3285 C3284 1.377 . S
C3285 C3291 1.390 . S
C3286 H3277 0.930 . S
C3286 C3284 1.384 . S
C3286 C3287 1.372 . S
C3287 C3286 1.372 . S
C3287 C3288 1.400 . S
C3287 C3292 1.490 . S
C3288 H3278 0.930 . S
C3288 C3287 1.400 . S
C3288 C3291 1.386 . S
H3289 C3305 0.930 . S
H3290 C3306 0.931 . S
C3291 H3279 0.929 . S
C3291 C3285 1.390 . S
C3291 C3288 1.386 . S
C3292 C3287 1.490 . S
C3292 C3294 1.395 . S
C3292 C3295 1.406 . S
H3293 C3299 0.930 . S
C3294 H3280 0.930 . S
C3294 C3292 1.395 . S
C3294 C3297 1.447 . S
C3295 C3292 1.406 . S
C3295 C3296 1.497 1_545 S
C3295 C3299 1.397 1_545 S
C3296 H3281 1.061 . S
C3296 H3282 0.885 1_565 S
C3296 H3283 0.945 1_565 S
C3296 C3295 1.497 1_565 S
C3297 C3294 1.447 . S
C3297 C3298 1.334 1_545 S
C3297 C3301 1.513 . S
C3298 C3297 1.334 1_565 S
C3298 C3299 1.385 . S
C3298 C3300 1.478 . S
C3299 H3293 0.930 . S
C3299 C3295 1.397 1_565 S
C3299 C3298 1.385 . S
C3300 C3298 1.478 . S
C3300 C3302 1.381 . S
C3300 C3306 1.383 . S
C3301 C3297 1.513 . S
C3301 H3307 0.959 . S
C3301 H3308 0.942 1_545 S
C3301 H3309 0.960 1_545 S
C3302 C3300 1.381 . S
C3302 C3303 1.394 . S
C3302 H3310 0.930 . S
C3303 C3302 1.394 . S
C3303 C3304 1.383 . S
C3303 H3311 0.929 . S
C3304 C3303 1.383 . S
C3304 C3305 1.377 . S
C3305 H3289 0.930 . S
C3305 C3304 1.377 . S
C3305 C3306 1.379 . S
C3306 H3290 0.931 . S
C3306 C3300 1.383 . S
C3306 C3305 1.379 . S
H3307 C3301 0.959 . S
H3308 C3301 0.942 1_565 S
H3309 C3301 0.960 1_565 S
H3310 C3302 0.930 . S
H3311 C3303 0.929 . S
H3312 C3320 0.929 . S
H3313 C3322 0.930 . S
H3314 C3324 0.930 . S
H3315 C3327 0.929 . S
H3316 C3330 0.930 . S
H3317 C3332 0.960 . S
H3318 C3332 0.960 1_655 S
H3319 C3332 0.960 1_655 S
C3320 H3312 0.929 . S
C3320 C3321 1.377 . S
C3320 C3322 1.384 . S
C3321 C3320 1.377 . S
C3321 C3327 1.390 . S
C3322 H3313 0.930 . S
C3322 C3320 1.384 . S
C3322 C3323 1.372 . S
C3323 C3322 1.372 . S
C3323 C3324 1.400 . S
C3323 C3328 1.490 . S
C3324 H3314 0.930 . S
C3324 C3323 1.400 . S
C3324 C3327 1.386 . S
H3325 C3341 0.930 . S
H3326 C3342 0.931 . S
C3327 H3315 0.929 . S
C3327 C3321 1.390 . S
C3327 C3324 1.386 . S
C3328 C3323 1.490 . S
C3328 C3330 1.395 . S
C3328 C3331 1.374 1_655 S
H3329 C3335 0.930 . S
C3330 H3316 0.930 . S
C3330 C3328 1.395 . S
C3330 C3333 1.403 . S
C3331 C3328 1.374 1_455 S
C3331 C3332 1.529 . S
C3331 C3335 1.426 . S
C3332 H3317 0.960 . S
C3332 H3318 0.960 1_455 S
C3332 H3319 0.960 1_455 S
C3332 C3331 1.529 . S
C3333 C3330 1.403 . S
C3333 C3334 1.392 1_655 S
C3333 C3337 1.495 . S
C3334 C3333 1.392 1_455 S
C3334 C3335 1.385 . S
C3334 C3336 1.478 . S
C3335 H3329 0.930 . S
C3335 C3331 1.426 . S
C3335 C3334 1.385 . S
C3336 C3334 1.478 . S
C3336 C3338 1.381 . S
C3336 C3342 1.383 . S
C3337 C3333 1.495 . S
C3337 H3343 0.959 . S
C3337 H3344 0.963 1_655 S
C3337 H3345 0.896 1_655 S
C3338 C3336 1.381 . S
C3338 C3339 1.394 . S
C3338 H3346 0.930 . S
C3339 C3338 1.394 . S
C3339 C3340 1.383 . S
C3339 H3347 0.929 . S
C3340 C3339 1.383 . S
C3340 C3341 1.377 . S
C3341 H3325 0.930 . S
C3341 C3340 1.377 . S
C3341 C3342 1.379 . S
C3342 H3326 0.931 . S
C3342 C3336 1.383 . S
C3342 C3341 1.379 . S
H3343 C3337 0.959 . S
H3344 C3337 0.963 1_455 S
H3345 C3337 0.896 1_455 S
H3346 C3338 0.930 . S
H3347 C3339 0.929 . S
H3348 C3356 0.929 . S
H3349 C3358 0.930 . S
H3350 C3360 0.930 . S
H3351 C3363 0.929 . S
H3352 C3366 0.930 . S
H3353 C3368 0.960 . S
H3354 C3368 0.960 . S
H3355 C3368 0.960 . S
C3356 H3348 0.929 . S
C3356 C3357 1.377 . S
C3356 C3358 1.384 . S
C3357 C3356 1.377 . S
C3357 C3363 1.390 . S
C3358 H3349 0.930 . S
C3358 C3356 1.384 . S
C3358 C3359 1.372 . S
C3359 C3358 1.372 . S
C3359 C3360 1.400 . S
C3359 C3364 1.490 . S
C3360 H3350 0.930 . S
C3360 C3359 1.400 . S
C3360 C3363 1.386 . S
H3361 C3377 0.930 . S
H3362 C3378 0.931 . S
C3363 H3351 0.929 . S
C3363 C3357 1.390 . S
C3363 C3360 1.386 . S
C3364 C3359 1.490 . S
C3364 C3366 1.395 . S
C3364 C3367 1.403 . S
H3365 C3371 0.930 . S
C3366 H3352 0.930 . S
C3366 C3364 1.395 . S
C3366 C3369 1.403 . S
C3367 C3364 1.403 . S
C3367 C3368 1.524 . S
C3367 C3371 1.400 . S
C3368 H3353 0.960 . S
C3368 H3354 0.960 . S
C3368 H3355 0.960 . S
C3368 C3367 1.524 . S
C3369 C3366 1.403 . S
C3369 C3370 1.392 . S
C3369 C3373 1.495 . S
C3370 C3369 1.392 . S
C3370 C3371 1.385 . S
C3370 C3372 1.478 . S
C3371 H3365 0.930 . S
C3371 C3367 1.400 . S
C3371 C3370 1.385 . S
C3372 C3370 1.478 . S
C3372 C3374 1.381 . S
C3372 C3378 1.383 . S
C3373 C3369 1.495 . S
C3373 H3379 0.959 . S
C3373 H3380 0.961 . S
C3373 H3381 0.960 . S
C3374 C3372 1.381 . S
C3374 C3375 1.394 . S
C3374 H3382 0.930 . S
C3375 C3374 1.394 . S
C3375 C3376 1.383 . S
C3375 H3383 0.929 . S
C3376 C3375 1.383 . S
C3376 C3377 1.377 . S
C3377 H3361 0.930 . S
C3377 C3376 1.377 . S
C3377 C3378 1.379 . S
C3378 H3362 0.931 . S
C3378 C3372 1.383 . S
C3378 C3377 1.379 . S
H3379 C3373 0.959 . S
H3380 C3373 0.961 . S
H3381 C3373 0.960 . S
H3382 C3374 0.930 . S
H3383 C3375 0.929 . S
H3384 C3392 0.929 . S
H3385 C3394 0.930 . S
H3386 C3396 0.930 . S
H3387 C3399 0.929 . S
H3388 C3402 0.930 . S
H3389 C3404 0.960 . S
H3390 C3404 0.960 . S
H3391 C3404 0.960 . S
C3392 H3384 0.929 . S
C3392 C3393 1.377 . S
C3392 C3394 1.384 . S
C3393 C3392 1.377 . S
C3393 C3399 1.390 . S
C3394 H3385 0.930 . S
C3394 C3392 1.384 . S
C3394 C3395 1.372 . S
C3395 C3394 1.372 . S
C3395 C3396 1.400 . S
C3395 C3400 1.490 . S
C3396 H3386 0.930 . S
C3396 C3395 1.400 . S
C3396 C3399 1.386 . S
H3397 C3413 0.930 . S
H3398 C3414 0.931 . S
C3399 H3387 0.929 . S
C3399 C3393 1.390 . S
C3399 C3396 1.386 . S
C3400 C3395 1.490 . S
C3400 C3402 1.395 . S
C3400 C3403 1.403 . S
H3401 C3407 0.930 . S
C3402 H3388 0.930 . S
C3402 C3400 1.395 . S
C3402 C3405 1.403 . S
C3403 C3400 1.403 . S
C3403 C3404 1.524 . S
C3403 C3407 1.400 . S
C3404 H3389 0.960 . S
C3404 H3390 0.960 . S
C3404 H3391 0.960 . S
C3404 C3403 1.524 . S
C3405 C3402 1.403 . S
C3405 C3406 1.392 . S
C3405 C3409 1.495 . S
C3406 C3405 1.392 . S
C3406 C3407 1.385 . S
C3406 C3408 1.478 . S
C3407 H3401 0.930 . S
C3407 C3403 1.400 . S
C3407 C3406 1.385 . S
C3408 C3406 1.478 . S
C3408 C3410 1.381 . S
C3408 C3414 1.383 . S
C3409 C3405 1.495 . S
C3409 H3415 0.959 . S
C3409 H3416 0.961 . S
C3409 H3417 0.960 . S
C3410 C3408 1.381 . S
C3410 C3411 1.394 . S
C3410 H3418 0.930 . S
C3411 C3410 1.394 . S
C3411 C3412 1.383 . S
C3411 H3419 0.929 1_554 S
C3412 C3411 1.383 . S
C3412 C3413 1.377 . S
C3413 H3397 0.930 . S
C3413 C3412 1.377 . S
C3413 C3414 1.379 . S
C3414 H3398 0.931 . S
C3414 C3408 1.383 . S
C3414 C3413 1.379 . S
H3415 C3409 0.959 . S
H3416 C3409 0.961 . S
H3417 C3409 0.960 . S
H3418 C3410 0.930 . S
H3419 C3411 0.929 1_556 S
H3420 C3428 0.929 . S
H3421 C3430 0.930 . S
H3422 C3432 0.930 . S
H3423 C3435 0.929 . S
H3424 C3438 0.930 . S
H3425 C3440 0.960 . S
H3426 C3440 0.960 . S
H3427 C3440 0.960 . S
C3428 H3420 0.929 . S
C3428 C3429 1.377 . S
C3428 C3430 1.384 . S
C3429 C3428 1.377 . S
C3429 C3435 1.390 . S
C3430 H3421 0.930 . S
C3430 C3428 1.384 . S
C3430 C3431 1.372 . S
C3431 C3430 1.372 . S
C3431 C3432 1.400 . S
C3431 C3436 1.490 . S
C3432 H3422 0.930 . S
C3432 C3431 1.400 . S
C3432 C3435 1.386 . S
H3433 C3449 0.930 . S
H3434 C3450 0.931 . S
C3435 H3423 0.929 . S
C3435 C3429 1.390 . S
C3435 C3432 1.386 . S
C3436 C3431 1.490 . S
C3436 C3438 1.395 . S
C3436 C3439 1.403 . S
H3437 C3443 0.930 . S
C3438 H3424 0.930 . S
C3438 C3436 1.395 . S
C3438 C3441 1.403 . S
C3439 C3436 1.403 . S
C3439 C3440 1.524 . S
C3439 C3443 1.400 . S
C3440 H3425 0.960 . S
C3440 H3426 0.960 . S
C3440 H3427 0.960 . S
C3440 C3439 1.524 . S
C3441 C3438 1.403 . S
C3441 C3442 1.392 . S
C3441 C3445 1.495 . S
C3442 C3441 1.392 . S
C3442 C3443 1.385 . S
C3442 C3444 1.478 . S
C3443 H3437 0.930 . S
C3443 C3439 1.400 . S
C3443 C3442 1.385 . S
C3444 C3442 1.478 . S
C3444 C3446 1.381 . S
C3444 C3450 1.383 . S
C3445 C3441 1.495 . S
C3445 H3451 0.959 . S
C3445 H3452 0.961 . S
C3445 H3453 0.960 . S
C3446 C3444 1.381 . S
C3446 C3447 1.394 . S
C3446 H3454 0.930 . S
C3447 C3446 1.394 . S
C3447 C3448 1.383 . S
C3447 H3455 0.929 . S
C3448 C3447 1.383 . S
C3448 C3449 1.377 . S
C3449 H3433 0.930 . S
C3449 C3448 1.377 . S
C3449 C3450 1.379 . S
C3450 H3434 0.931 . S
C3450 C3444 1.383 . S
C3450 C3449 1.379 . S
H3451 C3445 0.959 . S
H3452 C3445 0.961 . S
H3453 C3445 0.960 . S
H3454 C3446 0.930 . S
H3455 C3447 0.929 . S
H3456 C3464 0.929 . S
H3457 C3466 0.930 . S
H3458 C3468 0.930 . S
H3459 C3471 0.929 . S
H3460 C3474 0.930 . S
H3461 C3476 0.960 . S
H3462 C3476 0.960 . S
H3463 C3476 0.960 . S
C3464 H3456 0.929 . S
C3464 C3465 1.377 . S
C3464 C3466 1.384 . S
C3465 C3464 1.377 . S
C3465 C3471 1.390 . S
C3466 H3457 0.930 . S
C3466 C3464 1.384 . S
C3466 C3467 1.372 . S
C3467 C3466 1.372 . S
C3467 C3468 1.400 . S
C3467 C3472 1.490 . S
C3468 H3458 0.930 . S
C3468 C3467 1.400 . S
C3468 C3471 1.386 . S
H3469 C3485 0.930 . S
H3470 C3486 0.931 . S
C3471 H3459 0.929 . S
C3471 C3465 1.390 . S
C3471 C3468 1.386 . S
C3472 C3467 1.490 . S
C3472 C3474 1.395 . S
C3472 C3475 1.403 . S
H3473 C3479 0.930 . S
C3474 H3460 0.930 . S
C3474 C3472 1.395 . S
C3474 C3477 1.403 . S
C3475 C3472 1.403 . S
C3475 C3476 1.524 . S
C3475 C3479 1.400 . S
C3476 H3461 0.960 . S
C3476 H3462 0.960 . S
C3476 H3463 0.960 . S
C3476 C3475 1.524 . S
C3477 C3474 1.403 . S
C3477 C3478 1.392 . S
C3477 C3481 1.495 . S
C3478 C3477 1.392 . S
C3478 C3479 1.385 . S
C3478 C3480 1.478 . S
C3479 H3473 0.930 . S
C3479 C3475 1.400 . S
C3479 C3478 1.385 . S
C3480 C3478 1.478 . S
C3480 C3482 1.381 . S
C3480 C3486 1.383 . S
C3481 C3477 1.495 . S
C3481 H3487 0.959 . S
C3481 H3488 0.961 . S
C3481 H3489 0.960 . S
C3482 C3480 1.381 . S
C3482 C3483 1.394 . S
C3482 H3490 0.930 . S
C3483 C3482 1.394 . S
C3483 C3484 1.383 . S
C3483 H3491 0.929 . S
C3484 C3483 1.383 . S
C3484 C3485 1.377 . S
C3485 H3469 0.930 . S
C3485 C3484 1.377 . S
C3485 C3486 1.379 . S
C3486 H3470 0.931 . S
C3486 C3480 1.383 . S
C3486 C3485 1.379 . S
H3487 C3481 0.959 . S
H3488 C3481 0.961 . S
H3489 C3481 0.960 . S
H3490 C3482 0.930 . S
H3491 C3483 0.929 . S
H3492 C3500 0.929 . S
H3493 C3502 0.930 . S
H3494 C3504 0.930 . S
H3495 C3507 0.929 . S
H3496 C3510 0.930 . S
H3497 C3512 0.960 . S
H3498 C3512 0.960 . S
H3499 C3512 0.960 . S
C3500 H3492 0.929 . S
C3500 C3501 1.377 . S
C3500 C3502 1.384 . S
C3501 C3500 1.377 . S
C3501 C3507 1.390 . S
C3502 H3493 0.930 . S
C3502 C3500 1.384 . S
C3502 C3503 1.372 . S
C3503 C3502 1.372 . S
C3503 C3504 1.400 . S
C3503 C3508 1.490 . S
C3504 H3494 0.930 . S
C3504 C3503 1.400 . S
C3504 C3507 1.386 . S
H3505 C3521 0.930 . S
H3506 C3522 0.931 . S
C3507 H3495 0.929 . S
C3507 C3501 1.390 . S
C3507 C3504 1.386 . S
C3508 C3503 1.490 . S
C3508 C3510 1.395 . S
C3508 C3511 1.403 . S
H3509 C3515 0.930 . S
C3510 H3496 0.930 . S
C3510 C3508 1.395 . S
C3510 C3513 1.403 . S
C3511 C3508 1.403 . S
C3511 C3512 1.524 . S
C3511 C3515 1.400 . S
C3512 H3497 0.960 . S
C3512 H3498 0.960 . S
C3512 H3499 0.960 . S
C3512 C3511 1.524 . S
C3513 C3510 1.403 . S
C3513 C3514 1.392 . S
C3513 C3517 1.495 . S
C3514 C3513 1.392 . S
C3514 C3515 1.385 . S
C3514 C3516 1.478 . S
C3515 H3509 0.930 . S
C3515 C3511 1.400 . S
C3515 C3514 1.385 . S
C3516 C3514 1.478 . S
C3516 C3518 1.381 . S
C3516 C3522 1.383 . S
C3517 C3513 1.495 . S
C3517 H3523 0.959 . S
C3517 H3524 0.961 . S
C3517 H3525 0.960 . S
C3518 C3516 1.381 . S
C3518 C3519 1.394 . S
C3518 H3526 0.930 . S
C3519 C3518 1.394 . S
C3519 C3520 1.383 . S
C3519 H3527 0.929 . S
C3520 C3519 1.383 . S
C3520 C3521 1.377 . S
C3521 H3505 0.930 . S
C3521 C3520 1.377 . S
C3521 C3522 1.379 . S
C3522 H3506 0.931 . S
C3522 C3516 1.383 . S
C3522 C3521 1.379 . S
H3523 C3517 0.959 . S
H3524 C3517 0.961 . S
H3525 C3517 0.960 . S
H3526 C3518 0.930 . S
H3527 C3519 0.929 . S
H3528 C3536 0.929 . S
H3529 C3538 0.930 . S
H3530 C3540 0.930 . S
H3531 C3543 0.929 . S
H3532 C3546 0.930 . S
H3533 C3548 0.960 . S
H3534 C3548 0.960 . S
H3535 C3548 0.960 . S
C3536 H3528 0.929 . S
C3536 C3537 1.377 . S
C3536 C3538 1.384 . S
C3537 C3536 1.377 . S
C3537 C3543 1.390 . S
C3538 H3529 0.930 . S
C3538 C3536 1.384 . S
C3538 C3539 1.372 . S
C3539 C3538 1.372 . S
C3539 C3540 1.400 . S
C3539 C3544 1.490 . S
C3540 H3530 0.930 . S
C3540 C3539 1.400 . S
C3540 C3543 1.386 . S
H3541 C3557 0.930 . S
H3542 C3558 0.931 . S
C3543 H3531 0.929 . S
C3543 C3537 1.390 . S
C3543 C3540 1.386 . S
C3544 C3539 1.490 . S
C3544 C3546 1.395 . S
C3544 C3547 1.403 . S
H3545 C3551 0.930 . S
C3546 H3532 0.930 . S
C3546 C3544 1.395 . S
C3546 C3549 1.403 . S
C3547 C3544 1.403 . S
C3547 C3548 1.524 . S
C3547 C3551 1.400 . S
C3548 H3533 0.960 . S
C3548 H3534 0.960 . S
C3548 H3535 0.960 . S
C3548 C3547 1.524 . S
C3549 C3546 1.403 . S
C3549 C3550 1.392 . S
C3549 C3553 1.495 . S
C3550 C3549 1.392 . S
C3550 C3551 1.385 . S
C3550 C3552 1.478 . S
C3551 H3545 0.930 . S
C3551 C3547 1.400 . S
C3551 C3550 1.385 . S
C3552 C3550 1.478 . S
C3552 C3554 1.381 . S
C3552 C3558 1.383 . S
C3553 C3549 1.495 . S
C3553 H3559 0.959 . S
C3553 H3560 0.961 . S
C3553 H3561 0.960 . S
C3554 C3552 1.381 . S
C3554 C3555 1.394 . S
C3554 H3562 0.930 . S
C3555 C3554 1.394 . S
C3555 C3556 1.383 . S
C3555 H3563 0.929 . S
C3556 C3555 1.383 . S
C3556 C3557 1.377 . S
C3557 H3541 0.930 . S
C3557 C3556 1.377 . S
C3557 C3558 1.379 . S
C3558 H3542 0.931 . S
C3558 C3552 1.383 . S
C3558 C3557 1.379 . S
H3559 C3553 0.959 . S
H3560 C3553 0.961 . S
H3561 C3553 0.960 . S
H3562 C3554 0.930 . S
H3563 C3555 0.929 . S
H3564 C3572 0.929 . S
H3565 C3574 0.930 . S
H3566 C3576 0.930 . S
H3567 C3579 0.929 . S
H3568 C3582 0.930 . S
H3569 C3584 0.960 . S
H3570 C3584 0.960 . S
H3571 C3584 0.960 . S
C3572 H3564 0.929 . S
C3572 C3573 1.377 . S
C3572 C3574 1.384 . S
C3573 C3572 1.377 . S
C3573 C3579 1.390 . S
C3574 H3565 0.930 . S
C3574 C3572 1.384 . S
C3574 C3575 1.372 . S
C3575 C3574 1.372 . S
C3575 C3576 1.400 . S
C3575 C3580 1.490 . S
C3576 H3566 0.930 . S
C3576 C3575 1.400 . S
C3576 C3579 1.386 . S
H3577 C3593 0.930 . S
H3578 C3594 0.931 . S
C3579 H3567 0.929 . S
C3579 C3573 1.390 . S
C3579 C3576 1.386 . S
C3580 C3575 1.490 . S
C3580 C3582 1.395 . S
C3580 C3583 1.403 . S
H3581 C3587 0.930 . S
C3582 H3568 0.930 . S
C3582 C3580 1.395 . S
C3582 C3585 1.403 . S
C3583 C3580 1.403 . S
C3583 C3584 1.524 . S
C3583 C3587 1.400 . S
C3584 H3569 0.960 . S
C3584 H3570 0.960 . S
C3584 H3571 0.960 . S
C3584 C3583 1.524 . S
C3585 C3582 1.403 . S
C3585 C3586 1.392 . S
C3585 C3589 1.495 . S
C3586 C3585 1.392 . S
C3586 C3587 1.385 . S
C3586 C3588 1.478 . S
C3587 H3581 0.930 . S
C3587 C3583 1.400 . S
C3587 C3586 1.385 . S
C3588 C3586 1.478 . S
C3588 C3590 1.381 . S
C3588 C3594 1.383 . S
C3589 C3585 1.495 . S
C3589 H3595 0.959 . S
C3589 H3596 0.961 . S
C3589 H3597 0.960 . S
C3590 C3588 1.381 . S
C3590 C3591 1.394 . S
C3590 H3598 0.930 . S
C3591 C3590 1.394 . S
C3591 C3592 1.383 . S
C3591 H3599 0.929 . S
C3592 C3591 1.383 . S
C3592 C3593 1.377 . S
C3593 H3577 0.930 . S
C3593 C3592 1.377 . S
C3593 C3594 1.379 . S
C3594 H3578 0.931 . S
C3594 C3588 1.383 . S
C3594 C3593 1.379 . S
H3595 C3589 0.959 . S
H3596 C3589 0.961 . S
H3597 C3589 0.960 . S
H3598 C3590 0.930 . S
H3599 C3591 0.929 . S
H3600 C3608 0.929 . S
H3601 C3610 0.930 . S
H3602 C3612 0.930 . S
H3603 C3615 0.929 . S
H3604 C3618 0.930 . S
H3605 C3620 0.960 . S
H3606 C3620 0.960 . S
H3607 C3620 0.960 . S
C3608 H3600 0.929 . S
C3608 C3609 1.377 . S
C3608 C3610 1.384 . S
C3609 C3608 1.377 . S
C3609 C3615 1.390 . S
C3610 H3601 0.930 . S
C3610 C3608 1.384 . S
C3610 C3611 1.372 . S
C3611 C3610 1.372 . S
C3611 C3612 1.400 . S
C3611 C3616 1.490 . S
C3612 H3602 0.930 . S
C3612 C3611 1.400 . S
C3612 C3615 1.386 . S
H3613 C3629 0.930 . S
H3614 C3630 0.931 . S
C3615 H3603 0.929 . S
C3615 C3609 1.390 . S
C3615 C3612 1.386 . S
C3616 C3611 1.490 . S
C3616 C3618 1.395 . S
C3616 C3619 1.403 . S
H3617 C3623 0.930 . S
C3618 H3604 0.930 . S
C3618 C3616 1.395 . S
C3618 C3621 1.403 . S
C3619 C3616 1.403 . S
C3619 C3620 1.524 . S
C3619 C3623 1.400 . S
C3620 H3605 0.960 . S
C3620 H3606 0.960 . S
C3620 H3607 0.960 . S
C3620 C3619 1.524 . S
C3621 C3618 1.403 . S
C3621 C3622 1.392 . S
C3621 C3625 1.495 . S
C3622 C3621 1.392 . S
C3622 C3623 1.385 . S
C3622 C3624 1.478 . S
C3623 H3617 0.930 . S
C3623 C3619 1.400 . S
C3623 C3622 1.385 . S
C3624 C3622 1.478 . S
C3624 C3626 1.381 . S
C3624 C3630 1.383 . S
C3625 C3621 1.495 . S
C3625 H3631 0.959 . S
C3625 H3632 0.961 . S
C3625 H3633 0.960 . S
C3626 C3624 1.381 . S
C3626 C3627 1.394 . S
C3626 H3634 0.930 . S
C3627 C3626 1.394 . S
C3627 C3628 1.383 . S
C3627 H3635 0.929 . S
C3628 C3627 1.383 . S
C3628 C3629 1.377 . S
C3629 H3613 0.930 . S
C3629 C3628 1.377 . S
C3629 C3630 1.379 . S
C3630 H3614 0.931 . S
C3630 C3624 1.383 . S
C3630 C3629 1.379 . S
H3631 C3625 0.959 . S
H3632 C3625 0.961 . S
H3633 C3625 0.960 . S
H3634 C3626 0.930 . S
H3635 C3627 0.929 . S
H3636 C3644 0.929 . S
H3637 C3646 0.930 . S
H3638 C3648 0.930 . S
H3639 C3651 0.929 . S
H3640 C3654 0.930 . S
H3641 C3656 0.960 . S
H3642 C3656 0.960 . S
H3643 C3656 0.960 . S
C3644 H3636 0.929 . S
C3644 C3645 1.377 . S
C3644 C3646 1.384 . S
C3645 C3644 1.377 . S
C3645 C3651 1.390 . S
C3646 H3637 0.930 . S
C3646 C3644 1.384 . S
C3646 C3647 1.372 . S
C3647 C3646 1.372 . S
C3647 C3648 1.400 . S
C3647 C3652 1.490 . S
C3648 H3638 0.930 . S
C3648 C3647 1.400 . S
C3648 C3651 1.386 . S
H3649 C3665 0.930 . S
H3650 C3666 0.931 . S
C3651 H3639 0.929 . S
C3651 C3645 1.390 . S
C3651 C3648 1.386 . S
C3652 C3647 1.490 . S
C3652 C3654 1.395 . S
C3652 C3655 1.403 . S
H3653 C3659 0.930 . S
C3654 H3640 0.930 . S
C3654 C3652 1.395 . S
C3654 C3657 1.403 . S
C3655 C3652 1.403 . S
C3655 C3656 1.524 . S
C3655 C3659 1.400 . S
C3656 H3641 0.960 . S
C3656 H3642 0.960 . S
C3656 H3643 0.960 . S
C3656 C3655 1.524 . S
C3657 C3654 1.403 . S
C3657 C3658 1.392 . S
C3657 C3661 1.495 . S
C3658 C3657 1.392 . S
C3658 C3659 1.385 . S
C3658 C3660 1.478 . S
C3659 H3653 0.930 . S
C3659 C3655 1.400 . S
C3659 C3658 1.385 . S
C3660 C3658 1.478 . S
C3660 C3662 1.381 . S
C3660 C3666 1.383 . S
C3661 C3657 1.495 . S
C3661 H3667 0.959 . S
C3661 H3668 0.961 . S
C3661 H3669 0.960 . S
C3662 C3660 1.381 . S
C3662 C3663 1.394 . S
C3662 H3670 0.930 . S
C3663 C3662 1.394 . S
C3663 C3664 1.383 . S
C3663 H3671 0.929 . S
C3664 C3663 1.383 . S
C3664 C3665 1.377 . S
C3665 H3649 0.930 . S
C3665 C3664 1.377 . S
C3665 C3666 1.379 . S
C3666 H3650 0.931 . S
C3666 C3660 1.383 . S
C3666 C3665 1.379 . S
H3667 C3661 0.959 . S
H3668 C3661 0.961 . S
H3669 C3661 0.960 . S
H3670 C3662 0.930 . S
H3671 C3663 0.929 . S
H3672 C3680 0.929 . S
H3673 C3682 0.930 . S
H3674 C3684 0.930 . S
H3675 C3687 0.929 . S
H3676 C3690 0.930 . S
H3677 C3692 0.960 . S
H3678 C3692 0.960 . S
H3679 C3692 0.960 . S
C3680 H3672 0.929 . S
C3680 C3681 1.377 . S
C3680 C3682 1.384 . S
C3681 C3680 1.377 . S
C3681 C3687 1.390 . S
C3682 H3673 0.930 . S
C3682 C3680 1.384 . S
C3682 C3683 1.372 . S
C3683 C3682 1.372 . S
C3683 C3684 1.400 . S
C3683 C3688 1.490 . S
C3684 H3674 0.930 . S
C3684 C3683 1.400 . S
C3684 C3687 1.386 . S
H3685 C3701 0.930 . S
H3686 C3702 0.931 . S
C3687 H3675 0.929 . S
C3687 C3681 1.390 . S
C3687 C3684 1.386 . S
C3688 C3683 1.490 . S
C3688 C3690 1.395 1_554 S
C3688 C3691 1.403 . S
H3689 C3695 0.930 . S
C3690 H3676 0.930 . S
C3690 C3688 1.395 1_556 S
C3690 C3693 1.403 . S
C3691 C3688 1.403 . S
C3691 C3692 1.524 . S
C3691 C3695 1.400 1_554 S
C3692 H3677 0.960 . S
C3692 H3678 0.960 . S
C3692 H3679 0.960 . S
C3692 C3691 1.524 . S
C3693 C3690 1.403 . S
C3693 C3694 1.392 . S
C3693 C3697 1.495 . S
C3694 C3693 1.392 . S
C3694 C3695 1.385 . S
C3694 C3696 1.478 . S
C3695 H3689 0.930 . S
C3695 C3691 1.400 1_556 S
C3695 C3694 1.385 . S
C3696 C3694 1.478 . S
C3696 C3698 1.381 . S
C3696 C3702 1.383 . S
C3697 C3693 1.495 . S
C3697 H3703 0.959 . S
C3697 H3704 0.961 . S
C3697 H3705 0.960 . S
C3698 C3696 1.381 . S
C3698 C3699 1.394 . S
C3698 H3706 0.930 . S
C3699 C3698 1.394 . S
C3699 C3700 1.383 . S
C3699 H3707 0.929 . S
C3700 C3699 1.383 . S
C3700 C3701 1.377 . S
C3701 H3685 0.930 . S
C3701 C3700 1.377 . S
C3701 C3702 1.379 . S
C3702 H3686 0.931 . S
C3702 C3696 1.383 . S
C3702 C3701 1.379 . S
H3703 C3697 0.959 . S
H3704 C3697 0.961 . S
H3705 C3697 0.960 . S
H3706 C3698 0.930 . S
H3707 C3699 0.929 . S
H3708 C3716 0.929 . S
H3709 C3718 0.930 . S
H3710 C3720 0.930 . S
H3711 C3723 0.929 . S
H3712 C3726 0.930 . S
H3713 C3728 0.960 . S
H3714 C3728 0.960 . S
H3715 C3728 0.960 . S
C3716 H3708 0.929 . S
C3716 C3717 1.377 . S
C3716 C3718 1.384 . S
C3717 C3716 1.377 . S
C3717 C3723 1.390 . S
C3718 H3709 0.930 . S
C3718 C3716 1.384 . S
C3718 C3719 1.372 . S
C3719 C3718 1.372 . S
C3719 C3720 1.400 . S
C3719 C3724 1.490 . S
C3720 H3710 0.930 . S
C3720 C3719 1.400 . S
C3720 C3723 1.386 . S
H3721 C3737 0.930 . S
H3722 C3738 0.931 . S
C3723 H3711 0.929 . S
C3723 C3717 1.390 . S
C3723 C3720 1.386 . S
C3724 C3719 1.490 . S
C3724 C3726 1.395 . S
C3724 C3727 1.403 1_554 S
H3725 C3731 0.930 . S
C3726 H3712 0.930 . S
C3726 C3724 1.395 . S
C3726 C3729 1.403 . S
C3727 C3724 1.403 1_556 S
C3727 C3728 1.524 . S
C3727 C3731 1.400 . S
C3728 H3713 0.960 . S
C3728 H3714 0.960 . S
C3728 H3715 0.960 . S
C3728 C3727 1.524 . S
C3729 C3726 1.403 . S
C3729 C3730 1.392 1_554 S
C3729 C3733 1.495 . S
C3730 C3729 1.392 1_556 S
C3730 C3731 1.385 . S
C3730 C3732 1.478 . S
C3731 H3725 0.930 . S
C3731 C3727 1.400 . S
C3731 C3730 1.385 . S
C3732 C3730 1.478 . S
C3732 C3734 1.381 . S
C3732 C3738 1.383 . S
C3733 C3729 1.495 . S
C3733 H3739 0.959 . S
C3733 H3740 0.961 . S
C3733 H3741 0.960 . S
C3734 C3732 1.381 . S
C3734 C3735 1.394 . S
C3734 H3742 0.930 . S
C3735 C3734 1.394 . S
C3735 C3736 1.383 . S
C3735 H3743 0.929 . S
C3736 C3735 1.383 . S
C3736 C3737 1.377 . S
C3737 H3721 0.930 . S
C3737 C3736 1.377 . S
C3737 C3738 1.379 . S
C3738 H3722 0.931 . S
C3738 C3732 1.383 . S
C3738 C3737 1.379 . S
H3739 C3733 0.959 . S
H3740 C3733 0.961 . S
H3741 C3733 0.960 . S
H3742 C3734 0.930 . S
H3743 C3735 0.929 . S
H3744 C3752 0.929 . S
H3745 C3754 0.930 1_556 S
H3746 C3756 0.930 . S
H3747 C3759 0.929 . S
H3748 C3762 0.930 . S
H3749 C3764 0.960 . S
H3750 C3764 0.960 . S
H3751 C3764 0.960 . S
C3752 H3744 0.929 . S
C3752 C3753 1.377 . S
C3752 C3754 1.384 . S
C3753 C3752 1.377 . S
C3753 C3759 1.390 . S
C3754 H3745 0.930 1_554 S
C3754 C3752 1.384 . S
C3754 C3755 1.372 . S
C3755 C3754 1.372 . S
C3755 C3756 1.400 . S
C3755 C3760 1.490 . S
C3756 H3746 0.930 . S
C3756 C3755 1.400 . S
C3756 C3759 1.386 . S
H3757 C3773 0.930 . S
H3758 C3774 0.931 . S
C3759 H3747 0.929 . S
C3759 C3753 1.390 . S
C3759 C3756 1.386 . S
C3760 C3755 1.490 . S
C3760 C3762 1.395 1_554 S
C3760 C3763 1.403 . S
H3761 C3767 0.931 1_554 S
C3762 H3748 0.930 . S
C3762 C3760 1.395 1_556 S
C3762 C3765 1.403 . S
C3763 C3760 1.403 . S
C3763 C3764 1.524 . S
C3763 C3767 1.401 1_554 S
C3764 H3749 0.960 . S
C3764 H3750 0.960 . S
C3764 H3751 0.960 . S
C3764 C3763 1.524 . S
C3765 C3762 1.403 . S
C3765 C3766 1.392 . S
C3765 C3769 1.495 . S
C3766 C3765 1.392 . S
C3766 C3767 1.383 . S
C3766 C3768 1.478 . S
C3767 H3761 0.931 1_556 S
C3767 C3763 1.401 1_556 S
C3767 C3766 1.383 . S
C3768 C3766 1.478 . S
C3768 C3770 1.381 . S
C3768 C3774 1.383 . S
C3769 C3765 1.495 . S
C3769 H3775 0.959 . S
C3769 H3776 0.961 . S
C3769 H3777 0.960 . S
C3770 C3768 1.381 . S
C3770 C3771 1.394 . S
C3770 H3778 0.930 . S
C3771 C3770 1.394 . S
C3771 C3772 1.383 . S
C3771 H3779 0.929 . S
C3772 C3771 1.383 . S
C3772 C3773 1.377 . S
C3773 H3757 0.930 . S
C3773 C3772 1.377 . S
C3773 C3774 1.379 . S
C3774 H3758 0.931 . S
C3774 C3768 1.383 . S
C3774 C3773 1.379 . S
H3775 C3769 0.959 . S
H3776 C3769 0.961 . S
H3777 C3769 0.960 . S
H3778 C3770 0.930 . S
H3779 C3771 0.929 . S
H3780 C3788 0.929 . S
H3781 C3790 0.930 . S
H3782 C3792 0.930 . S
H3783 C3795 0.929 . S
H3784 C3798 0.930 . S
H3785 C3800 0.960 . S
H3786 C3800 0.960 . S
H3787 C3800 0.960 . S
C3788 H3780 0.929 . S
C3788 C3789 1.377 1_554 S
C3788 C3790 1.384 . S
C3789 C3788 1.377 1_556 S
C3789 C3795 1.390 . S
C3790 H3781 0.930 . S
C3790 C3788 1.384 . S
C3790 C3791 1.372 1_554 S
C3791 C3790 1.372 1_556 S
C3791 C3792 1.400 . S
C3791 C3796 1.490 . S
C3792 H3782 0.930 . S
C3792 C3791 1.400 . S
C3792 C3795 1.386 . S
H3793 C3809 0.930 . S
H3794 C3810 0.931 . S
C3795 H3783 0.929 . S
C3795 C3789 1.390 . S
C3795 C3792 1.386 . S
C3796 C3791 1.490 . S
C3796 C3798 1.395 1_556 S
C3796 C3799 1.403 . S
H3797 C3803 0.930 . S
C3798 H3784 0.930 . S
C3798 C3796 1.395 1_554 S
C3798 C3801 1.403 . S
C3799 C3796 1.403 . S
C3799 C3800 1.524 . S
C3799 C3803 1.400 . S
C3800 H3785 0.960 . S
C3800 H3786 0.960 . S
C3800 H3787 0.960 . S
C3800 C3799 1.524 . S
C3801 C3798 1.403 . S
C3801 C3802 1.392 1_554 S
C3801 C3805 1.495 . S
C3802 C3801 1.392 1_556 S
C3802 C3803 1.385 . S
C3802 C3804 1.478 . S
C3803 H3797 0.930 . S
C3803 C3799 1.400 . S
C3803 C3802 1.385 . S
C3804 C3802 1.478 . S
C3804 C3806 1.381 1_556 S
C3804 C3810 1.383 . S
C3805 C3801 1.495 . S
C3805 H3811 0.959 . S
C3805 H3812 0.961 . S
C3805 H3813 0.960 . S
C3806 C3804 1.381 1_554 S
C3806 C3807 1.394 . S
C3806 H3814 0.930 . S
C3807 C3806 1.394 . S
C3807 C3808 1.383 1_554 S
C3807 H3815 0.929 . S
C3808 C3807 1.383 1_556 S
C3808 C3809 1.377 . S
C3809 H3793 0.930 . S
C3809 C3808 1.377 . S
C3809 C3810 1.379 . S
C3810 H3794 0.931 . S
C3810 C3804 1.383 . S
C3810 C3809 1.379 . S
H3811 C3805 0.959 . S
H3812 C3805 0.961 . S
H3813 C3805 0.960 . S
H3814 C3806 0.930 . S
H3815 C3807 0.929 . S
H3816 C3824 0.929 . S
H3817 C3826 0.930 . S
H3818 C3828 0.930 . S
H3819 C3831 0.929 . S
H3820 C3834 0.930 . S
H3821 C3836 0.960 . S
H3822 C3836 0.960 . S
H3823 C3836 0.960 . S
C3824 H3816 0.929 . S
C3824 C3825 1.377 1_554 S
C3824 C3826 1.384 . S
C3825 C3824 1.377 1_556 S
C3825 C3831 1.390 . S
C3826 H3817 0.930 . S
C3826 C3824 1.384 . S
C3826 C3827 1.372 1_554 S
C3827 C3826 1.372 1_556 S
C3827 C3828 1.400 . S
C3827 C3832 1.490 . S
C3828 H3818 0.930 . S
C3828 C3827 1.400 . S
C3828 C3831 1.386 . S
H3829 C3845 0.930 . S
H3830 C3846 0.931 . S
C3831 H3819 0.929 . S
C3831 C3825 1.390 . S
C3831 C3828 1.386 . S
C3832 C3827 1.490 . S
C3832 C3834 1.395 1_556 S
C3832 C3835 1.403 . S
H3833 C3839 0.930 . S
C3834 H3820 0.930 . S
C3834 C3832 1.395 1_554 S
C3834 C3837 1.403 . S
C3835 C3832 1.403 . S
C3835 C3836 1.524 . S
C3835 C3839 1.400 . S
C3836 H3821 0.960 . S
C3836 H3822 0.960 . S
C3836 H3823 0.960 . S
C3836 C3835 1.524 . S
C3837 C3834 1.403 . S
C3837 C3838 1.392 1_554 S
C3837 C3841 1.495 . S
C3838 C3837 1.392 1_556 S
C3838 C3839 1.385 . S
C3838 C3840 1.478 . S
C3839 H3833 0.930 . S
C3839 C3835 1.400 . S
C3839 C3838 1.385 . S
C3840 C3838 1.478 . S
C3840 C3842 1.381 1_556 S
C3840 C3846 1.383 . S
C3841 C3837 1.495 . S
C3841 H3847 0.959 . S
C3841 H3848 0.961 . S
C3841 H3849 0.960 . S
C3842 C3840 1.381 1_554 S
C3842 C3843 1.394 . S
C3842 H3850 0.930 . S
C3843 C3842 1.394 . S
C3843 C3844 1.383 1_554 S
C3843 H3851 0.929 . S
C3844 C3843 1.383 1_556 S
C3844 C3845 1.377 . S
C3845 H3829 0.930 . S
C3845 C3844 1.377 . S
C3845 C3846 1.379 . S
C3846 H3830 0.931 . S
C3846 C3840 1.383 . S
C3846 C3845 1.379 . S
H3847 C3841 0.959 . S
H3848 C3841 0.961 . S
H3849 C3841 0.960 . S
H3850 C3842 0.930 . S
H3851 C3843 0.929 . S
H3852 C3860 0.929 . S
H3853 C3862 0.933 . S
H3854 C3864 0.930 . S
H3855 C3867 0.929 . S
H3856 C3870 0.930 . S
H3857 C3872 0.960 . S
H3858 C3872 0.960 . S
H3859 C3872 0.960 . S
C3860 H3852 0.929 . S
C3860 C3861 1.377 . S
C3860 C3862 1.384 . S
C3861 C3860 1.377 . S
C3861 C3867 1.390 . S
C3862 H3853 0.933 . S
C3862 C3860 1.384 . S
C3862 C3863 1.372 . S
C3863 C3862 1.372 . S
C3863 C3864 1.400 . S
C3863 C3868 1.490 . S
C3864 H3854 0.930 . S
C3864 C3863 1.400 . S
C3864 C3867 1.386 . S
H3865 C3881 0.930 . S
H3866 C3882 0.931 . S
C3867 H3855 0.929 . S
C3867 C3861 1.390 . S
C3867 C3864 1.386 . S
C3868 C3863 1.490 . S
C3868 C3870 1.395 1_556 S
C3868 C3871 1.403 . S
H3869 C3875 0.930 . S
C3870 H3856 0.930 . S
C3870 C3868 1.395 1_554 S
C3870 C3873 1.403 . S
C3871 C3868 1.403 . S
C3871 C3872 1.524 . S
C3871 C3875 1.400 . S
C3872 H3857 0.960 . S
C3872 H3858 0.960 . S
C3872 H3859 0.960 . S
C3872 C3871 1.524 . S
C3873 C3870 1.403 . S
C3873 C3874 1.392 1_554 S
C3873 C3877 1.495 . S
C3874 C3873 1.392 1_556 S
C3874 C3875 1.385 . S
C3874 C3876 1.478 . S
C3875 H3869 0.930 . S
C3875 C3871 1.400 . S
C3875 C3874 1.385 . S
C3876 C3874 1.478 . S
C3876 C3878 1.381 . S
C3876 C3882 1.383 . S
C3877 C3873 1.495 . S
C3877 H3883 0.959 . S
C3877 H3884 0.961 . S
C3877 H3885 0.960 . S
C3878 C3876 1.381 . S
C3878 C3879 1.394 . S
C3878 H3886 0.930 1_556 S
C3879 C3878 1.394 . S
C3879 C3880 1.383 . S
C3879 H3887 0.929 . S
C3880 C3879 1.383 . S
C3880 C3881 1.377 . S
C3881 H3865 0.930 . S
C3881 C3880 1.377 . S
C3881 C3882 1.379 . S
C3882 H3866 0.931 . S
C3882 C3876 1.383 . S
C3882 C3881 1.379 . S
H3883 C3877 0.959 . S
H3884 C3877 0.961 . S
H3885 C3877 0.960 . S
H3886 C3878 0.930 1_554 S
H3887 C3879 0.929 . S
H3888 C3896 0.929 . S
H3889 C3898 0.930 . S
H3890 C3900 0.930 . S
H3891 C3903 0.929 . S
H3892 C3906 0.930 . S
H3893 C3908 0.960 . S
H3894 C3908 0.960 . S
H3895 C3908 0.960 . S
C3896 H3888 0.929 . S
C3896 C3897 1.377 . S
C3896 C3898 1.384 . S
C3897 C3896 1.377 . S
C3897 C3903 1.390 . S
C3898 H3889 0.930 . S
C3898 C3896 1.384 . S
C3898 C3899 1.372 . S
C3899 C3898 1.372 . S
C3899 C3900 1.400 . S
C3899 C3904 1.490 . S
C3900 H3890 0.930 . S
C3900 C3899 1.400 . S
C3900 C3903 1.386 . S
H3901 C3917 0.930 . S
H3902 C3918 0.931 . S
C3903 H3891 0.929 . S
C3903 C3897 1.390 . S
C3903 C3900 1.386 . S
C3904 C3899 1.490 . S
C3904 C3906 1.395 . S
C3904 C3907 1.403 . S
H3905 C3911 0.930 . S
C3906 H3892 0.930 . S
C3906 C3904 1.395 . S
C3906 C3909 1.403 . S
C3907 C3904 1.403 . S
C3907 C3908 1.524 . S
C3907 C3911 1.400 . S
C3908 H3893 0.960 . S
C3908 H3894 0.960 . S
C3908 H3895 0.960 . S
C3908 C3907 1.524 . S
C3909 C3906 1.403 . S
C3909 C3910 1.392 . S
C3909 C3913 1.495 . S
C3910 C3909 1.392 . S
C3910 C3911 1.385 . S
C3910 C3912 1.478 . S
C3911 H3905 0.930 . S
C3911 C3907 1.400 . S
C3911 C3910 1.385 . S
C3912 C3910 1.478 . S
C3912 C3914 1.381 . S
C3912 C3918 1.383 . S
C3913 C3909 1.495 . S
C3913 H3919 0.959 . S
C3913 H3920 0.961 . S
C3913 H3921 0.960 . S
C3914 C3912 1.381 . S
C3914 C3915 1.394 . S
C3914 H3922 0.930 . S
C3915 C3914 1.394 . S
C3915 C3916 1.383 . S
C3915 H3923 0.929 . S
C3916 C3915 1.383 . S
C3916 C3917 1.377 . S
C3917 H3901 0.930 . S
C3917 C3916 1.377 . S
C3917 C3918 1.379 . S
C3918 H3902 0.931 . S
C3918 C3912 1.383 . S
C3918 C3917 1.379 . S
H3919 C3913 0.959 . S
H3920 C3913 0.961 . S
H3921 C3913 0.960 . S
H3922 C3914 0.930 . S
H3923 C3915 0.929 . S
H3924 C3932 0.929 . S
H3925 C3934 0.930 . S
H3926 C3936 0.930 . S
H3927 C3939 0.929 . S
H3928 C3942 0.930 . S
H3929 C3944 0.960 . S
H3930 C3944 0.960 . S
H3931 C3944 0.960 . S
C3932 H3924 0.929 . S
C3932 C3933 1.377 . S
C3932 C3934 1.384 . S
C3933 C3932 1.377 . S
C3933 C3939 1.390 . S
C3934 H3925 0.930 . S
C3934 C3932 1.384 . S
C3934 C3935 1.372 . S
C3935 C3934 1.372 . S
C3935 C3936 1.400 . S
C3935 C3940 1.490 . S
C3936 H3926 0.930 . S
C3936 C3935 1.400 . S
C3936 C3939 1.386 . S
H3937 C3953 0.930 . S
H3938 C3954 0.931 . S
C3939 H3927 0.929 . S
C3939 C3933 1.390 . S
C3939 C3936 1.386 . S
C3940 C3935 1.490 . S
C3940 C3942 1.395 . S
C3940 C3943 1.403 . S
H3941 C3947 0.930 . S
C3942 H3928 0.930 . S
C3942 C3940 1.395 . S
C3942 C3945 1.403 . S
C3943 C3940 1.403 . S
C3943 C3944 1.524 . S
C3943 C3947 1.400 . S
C3944 H3929 0.960 . S
C3944 H3930 0.960 . S
C3944 H3931 0.960 . S
C3944 C3943 1.524 . S
C3945 C3942 1.403 . S
C3945 C3946 1.392 . S
C3945 C3949 1.495 . S
C3946 C3945 1.392 . S
C3946 C3947 1.385 . S
C3946 C3948 1.478 . S
C3947 H3941 0.930 . S
C3947 C3943 1.400 . S
C3947 C3946 1.385 . S
C3948 C3946 1.478 . S
C3948 C3950 1.381 . S
C3948 C3954 1.383 . S
C3949 C3945 1.495 . S
C3949 H3955 0.959 . S
C3949 H3956 0.961 . S
C3949 H3957 0.960 . S
C3950 C3948 1.381 . S
C3950 C3951 1.394 . S
C3950 H3958 0.930 . S
C3951 C3950 1.394 . S
C3951 C3952 1.383 . S
C3951 H3959 0.929 . S
C3952 C3951 1.383 . S
C3952 C3953 1.377 . S
C3953 H3937 0.930 . S
C3953 C3952 1.377 . S
C3953 C3954 1.379 . S
C3954 H3938 0.931 . S
C3954 C3948 1.383 . S
C3954 C3953 1.379 . S
H3955 C3949 0.959 . S
H3956 C3949 0.961 . S
H3957 C3949 0.960 . S
H3958 C3950 0.930 . S
H3959 C3951 0.929 . S
H3960 C3968 0.929 . S
H3961 C3970 0.930 . S
H3962 C3972 0.930 . S
H3963 C3975 0.929 . S
H3964 C3978 0.930 . S
H3965 C3980 0.960 . S
H3966 C3980 0.960 . S
H3967 C3980 0.960 . S
C3968 H3960 0.929 . S
C3968 C3969 1.377 . S
C3968 C3970 1.384 . S
C3969 C3968 1.377 . S
C3969 C3975 1.390 . S
C3970 H3961 0.930 . S
C3970 C3968 1.384 . S
C3970 C3971 1.372 . S
C3971 C3970 1.372 . S
C3971 C3972 1.400 . S
C3971 C3976 1.490 . S
C3972 H3962 0.930 . S
C3972 C3971 1.400 . S
C3972 C3975 1.386 . S
H3973 C3989 0.930 . S
H3974 C3990 0.931 . S
C3975 H3963 0.929 . S
C3975 C3969 1.390 . S
C3975 C3972 1.386 . S
C3976 C3971 1.490 . S
C3976 C3978 1.395 . S
C3976 C3979 1.403 . S
H3977 C3983 0.930 . S
C3978 H3964 0.930 . S
C3978 C3976 1.395 . S
C3978 C3981 1.403 . S
C3979 C3976 1.403 . S
C3979 C3980 1.524 . S
C3979 C3983 1.400 . S
C3980 H3965 0.960 . S
C3980 H3966 0.960 . S
C3980 H3967 0.960 . S
C3980 C3979 1.524 . S
C3981 C3978 1.403 . S
C3981 C3982 1.392 . S
C3981 C3985 1.495 . S
C3982 C3981 1.392 . S
C3982 C3983 1.385 . S
C3982 C3984 1.478 . S
C3983 H3977 0.930 . S
C3983 C3979 1.400 . S
C3983 C3982 1.385 . S
C3984 C3982 1.478 . S
C3984 C3986 1.381 . S
C3984 C3990 1.383 . S
C3985 C3981 1.495 . S
C3985 H3991 0.959 . S
C3985 H3992 0.961 . S
C3985 H3993 0.960 . S
C3986 C3984 1.381 . S
C3986 C3987 1.394 . S
C3986 H3994 0.930 . S
C3987 C3986 1.394 . S
C3987 C3988 1.383 . S
C3987 H3995 0.929 . S
C3988 C3987 1.383 . S
C3988 C3989 1.377 . S
C3989 H3973 0.930 . S
C3989 C3988 1.377 . S
C3989 C3990 1.379 . S
C3990 H3974 0.931 . S
C3990 C3984 1.383 . S
C3990 C3989 1.379 . S
H3991 C3985 0.959 . S
H3992 C3985 0.961 . S
H3993 C3985 0.960 . S
H3994 C3986 0.930 . S
H3995 C3987 0.929 . S
H3996 C4004 0.929 . S
H3997 C4006 0.930 . S
H3998 C4008 0.930 . S
H3999 C4011 0.929 . S
H4000 C4014 0.930 . S
H4001 C4016 0.960 . S
H4002 C4016 0.960 . S
H4003 C4016 0.960 . S
C4004 H3996 0.929 . S
C4004 C4005 1.377 . S
C4004 C4006 1.384 . S
C4005 C4004 1.377 . S
C4005 C4011 1.390 . S
C4006 H3997 0.930 . S
C4006 C4004 1.384 . S
C4006 C4007 1.372 . S
C4007 C4006 1.372 . S
C4007 C4008 1.400 . S
C4007 C4012 1.490 . S
C4008 H3998 0.930 . S
C4008 C4007 1.400 . S
C4008 C4011 1.386 . S
H4009 C4025 0.930 . S
H4010 C4026 0.931 . S
C4011 H3999 0.929 . S
C4011 C4005 1.390 . S
C4011 C4008 1.386 . S
C4012 C4007 1.490 . S
C4012 C4014 1.395 . S
C4012 C4015 1.403 . S
H4013 C4019 0.930 . S
C4014 H4000 0.930 . S
C4014 C4012 1.395 . S
C4014 C4017 1.403 . S
C4015 C4012 1.403 . S
C4015 C4016 1.524 . S
C4015 C4019 1.400 . S
C4016 H4001 0.960 . S
C4016 H4002 0.960 . S
C4016 H4003 0.960 . S
C4016 C4015 1.524 . S
C4017 C4014 1.403 . S
C4017 C4018 1.392 . S
C4017 C4021 1.495 . S
C4018 C4017 1.392 . S
C4018 C4019 1.385 . S
C4018 C4020 1.478 . S
C4019 H4013 0.930 . S
C4019 C4015 1.400 . S
C4019 C4018 1.385 . S
C4020 C4018 1.478 . S
C4020 C4022 1.381 . S
C4020 C4026 1.383 . S
C4021 C4017 1.495 . S
C4021 H4027 0.959 . S
C4021 H4028 0.961 . S
C4021 H4029 0.960 . S
C4022 C4020 1.381 . S
C4022 C4023 1.394 . S
C4022 H4030 0.930 . S
C4023 C4022 1.394 . S
C4023 C4024 1.383 . S
C4023 H4031 0.929 . S
C4024 C4023 1.383 . S
C4024 C4025 1.377 . S
C4025 H4009 0.930 . S
C4025 C4024 1.377 . S
C4025 C4026 1.379 . S
C4026 H4010 0.931 . S
C4026 C4020 1.383 . S
C4026 C4025 1.379 . S
H4027 C4021 0.959 . S
H4028 C4021 0.961 . S
H4029 C4021 0.960 . S
H4030 C4022 0.930 . S
H4031 C4023 0.929 . S
H4032 C4040 0.929 . S
H4033 C4042 0.930 . S
H4034 C4044 0.930 . S
H4035 C4047 0.929 . S
H4036 C4050 0.930 . S
H4037 C4052 0.960 . S
H4038 C4052 0.960 . S
H4039 C4052 0.960 . S
C4040 H4032 0.929 . S
C4040 C4041 1.377 . S
C4040 C4042 1.384 . S
C4041 C4040 1.377 . S
C4041 C4047 1.390 . S
C4042 H4033 0.930 . S
C4042 C4040 1.384 . S
C4042 C4043 1.372 . S
C4043 C4042 1.372 . S
C4043 C4044 1.400 . S
C4043 C4048 1.490 . S
C4044 H4034 0.930 . S
C4044 C4043 1.400 . S
C4044 C4047 1.386 . S
H4045 C4061 0.930 . S
H4046 C4062 0.931 . S
C4047 H4035 0.929 . S
C4047 C4041 1.390 . S
C4047 C4044 1.386 . S
C4048 C4043 1.490 . S
C4048 C4050 1.395 . S
C4048 C4051 1.403 . S
H4049 C4055 0.930 . S
C4050 H4036 0.930 . S
C4050 C4048 1.395 . S
C4050 C4053 1.403 . S
C4051 C4048 1.403 . S
C4051 C4052 1.524 . S
C4051 C4055 1.400 . S
C4052 H4037 0.960 . S
C4052 H4038 0.960 . S
C4052 H4039 0.960 . S
C4052 C4051 1.524 . S
C4053 C4050 1.403 . S
C4053 C4054 1.392 . S
C4053 C4057 1.495 . S
C4054 C4053 1.392 . S
C4054 C4055 1.385 . S
C4054 C4056 1.478 . S
C4055 H4049 0.930 . S
C4055 C4051 1.400 . S
C4055 C4054 1.385 . S
C4056 C4054 1.478 . S
C4056 C4058 1.381 . S
C4056 C4062 1.383 . S
C4057 C4053 1.495 . S
C4057 H4063 0.959 . S
C4057 H4064 0.961 . S
C4057 H4065 0.960 . S
C4058 C4056 1.381 . S
C4058 C4059 1.394 . S
C4058 H4066 0.930 . S
C4059 C4058 1.394 . S
C4059 C4060 1.383 . S
C4059 H4067 0.929 . S
C4060 C4059 1.383 . S
C4060 C4061 1.377 . S
C4061 H4045 0.930 . S
C4061 C4060 1.377 . S
C4061 C4062 1.379 . S
C4062 H4046 0.931 . S
C4062 C4056 1.383 . S
C4062 C4061 1.379 . S
H4063 C4057 0.959 . S
H4064 C4057 0.961 . S
H4065 C4057 0.960 . S
H4066 C4058 0.930 . S
H4067 C4059 0.929 . S
H4068 C4076 0.929 . S
H4069 C4078 0.930 . S
H4070 C4080 0.930 . S
H4071 C4083 0.929 . S
H4072 C4086 0.930 . S
H4073 C4088 0.960 . S
H4074 C4088 0.960 . S
H4075 C4088 0.960 . S
C4076 H4068 0.929 . S
C4076 C4077 1.377 . S
C4076 C4078 1.384 . S
C4077 C4076 1.377 . S
C4077 C4083 1.390 . S
C4078 H4069 0.930 . S
C4078 C4076 1.384 . S
C4078 C4079 1.372 . S
C4079 C4078 1.372 . S
C4079 C4080 1.400 . S
C4079 C4084 1.490 . S
C4080 H4070 0.930 . S
C4080 C4079 1.400 . S
C4080 C4083 1.386 . S
H4081 C4097 0.930 . S
H4082 C4098 0.931 . S
C4083 H4071 0.929 . S
C4083 C4077 1.390 . S
C4083 C4080 1.386 . S
C4084 C4079 1.490 . S
C4084 C4086 1.395 . S
C4084 C4087 1.403 . S
H4085 C4091 0.930 . S
C4086 H4072 0.930 . S
C4086 C4084 1.395 . S
C4086 C4089 1.403 . S
C4087 C4084 1.403 . S
C4087 C4088 1.524 . S
C4087 C4091 1.400 . S
C4088 H4073 0.960 . S
C4088 H4074 0.960 . S
C4088 H4075 0.960 . S
C4088 C4087 1.524 . S
C4089 C4086 1.403 . S
C4089 C4090 1.392 . S
C4089 C4093 1.495 . S
C4090 C4089 1.392 . S
C4090 C4091 1.385 . S
C4090 C4092 1.478 . S
C4091 H4085 0.930 . S
C4091 C4087 1.400 . S
C4091 C4090 1.385 . S
C4092 C4090 1.478 . S
C4092 C4094 1.381 . S
C4092 C4098 1.383 . S
C4093 C4089 1.495 . S
C4093 H4099 0.959 . S
C4093 H4100 0.961 . S
C4093 H4101 0.960 . S
C4094 C4092 1.381 . S
C4094 C4095 1.394 . S
C4094 H4102 0.930 . S
C4095 C4094 1.394 . S
C4095 C4096 1.383 . S
C4095 H4103 0.929 . S
C4096 C4095 1.383 . S
C4096 C4097 1.377 . S
C4097 H4081 0.930 . S
C4097 C4096 1.377 . S
C4097 C4098 1.379 . S
C4098 H4082 0.931 . S
C4098 C4092 1.383 . S
C4098 C4097 1.379 . S
H4099 C4093 0.959 . S
H4100 C4093 0.961 . S
H4101 C4093 0.960 . S
H4102 C4094 0.930 . S
H4103 C4095 0.929 . S
H4104 C4112 0.929 . S
H4105 C4114 0.930 . S
H4106 C4116 0.930 . S
H4107 C4119 0.929 . S
H4108 C4122 0.930 . S
H4109 C4124 0.960 . S
H4110 C4124 0.960 . S
H4111 C4124 0.960 . S
C4112 H4104 0.929 . S
C4112 C4113 1.377 . S
C4112 C4114 1.384 . S
C4113 C4112 1.377 . S
C4113 C4119 1.390 . S
C4114 H4105 0.930 . S
C4114 C4112 1.384 . S
C4114 C4115 1.372 . S
C4115 C4114 1.372 . S
C4115 C4116 1.400 . S
C4115 C4120 1.490 . S
C4116 H4106 0.930 . S
C4116 C4115 1.400 . S
C4116 C4119 1.386 . S
H4117 C4133 0.930 . S
H4118 C4134 0.931 . S
C4119 H4107 0.929 . S
C4119 C4113 1.390 . S
C4119 C4116 1.386 . S
C4120 C4115 1.490 . S
C4120 C4122 1.395 . S
C4120 C4123 1.403 . S
H4121 C4127 0.930 . S
C4122 H4108 0.930 . S
C4122 C4120 1.395 . S
C4122 C4125 1.403 . S
C4123 C4120 1.403 . S
C4123 C4124 1.524 . S
C4123 C4127 1.400 . S
C4124 H4109 0.960 . S
C4124 H4110 0.960 . S
C4124 H4111 0.960 . S
C4124 C4123 1.524 . S
C4125 C4122 1.403 . S
C4125 C4126 1.392 . S
C4125 C4129 1.495 . S
C4126 C4125 1.392 . S
C4126 C4127 1.385 . S
C4126 C4128 1.478 . S
C4127 H4121 0.930 . S
C4127 C4123 1.400 . S
C4127 C4126 1.385 . S
C4128 C4126 1.478 . S
C4128 C4130 1.381 . S
C4128 C4134 1.383 . S
C4129 C4125 1.495 . S
C4129 H4135 0.959 . S
C4129 H4136 0.961 . S
C4129 H4137 0.960 . S
C4130 C4128 1.381 . S
C4130 C4131 1.394 . S
C4130 H4138 0.930 . S
C4131 C4130 1.394 . S
C4131 C4132 1.383 . S
C4131 H4139 0.929 . S
C4132 C4131 1.383 . S
C4132 C4133 1.377 . S
C4133 H4117 0.930 . S
C4133 C4132 1.377 . S
C4133 C4134 1.379 . S
C4134 H4118 0.931 . S
C4134 C4128 1.383 . S
C4134 C4133 1.379 . S
H4135 C4129 0.959 . S
H4136 C4129 0.961 . S
H4137 C4129 0.960 . S
H4138 C4130 0.930 . S
H4139 C4131 0.929 . S
H4140 C4148 0.929 . S
H4141 C4150 0.930 . S
H4142 C4152 0.930 . S
H4143 C4155 0.929 . S
H4144 C4158 0.930 . S
H4145 C4160 0.960 . S
H4146 C4160 0.960 . S
H4147 C4160 0.960 . S
C4148 H4140 0.929 . S
C4148 C4149 1.377 . S
C4148 C4150 1.384 . S
C4149 C4148 1.377 . S
C4149 C4155 1.390 . S
C4150 H4141 0.930 . S
C4150 C4148 1.384 . S
C4150 C4151 1.372 . S
C4151 C4150 1.372 . S
C4151 C4152 1.400 . S
C4151 C4156 1.490 . S
C4152 H4142 0.930 . S
C4152 C4151 1.400 . S
C4152 C4155 1.386 . S
H4153 C4169 0.930 . S
H4154 C4170 0.931 . S
C4155 H4143 0.929 . S
C4155 C4149 1.390 . S
C4155 C4152 1.386 . S
C4156 C4151 1.490 . S
C4156 C4158 1.395 . S
C4156 C4159 1.403 . S
H4157 C4163 0.930 . S
C4158 H4144 0.930 . S
C4158 C4156 1.395 . S
C4158 C4161 1.403 . S
C4159 C4156 1.403 . S
C4159 C4160 1.524 . S
C4159 C4163 1.400 . S
C4160 H4145 0.960 . S
C4160 H4146 0.960 . S
C4160 H4147 0.960 . S
C4160 C4159 1.524 . S
C4161 C4158 1.403 . S
C4161 C4162 1.392 . S
C4161 C4165 1.495 . S
C4162 C4161 1.392 . S
C4162 C4163 1.385 . S
C4162 C4164 1.478 . S
C4163 H4157 0.930 . S
C4163 C4159 1.400 . S
C4163 C4162 1.385 . S
C4164 C4162 1.478 . S
C4164 C4166 1.381 . S
C4164 C4170 1.383 . S
C4165 C4161 1.495 . S
C4165 H4171 0.959 . S
C4165 H4172 0.961 . S
C4165 H4173 0.960 . S
C4166 C4164 1.381 . S
C4166 C4167 1.394 . S
C4166 H4174 0.930 . S
C4167 C4166 1.394 . S
C4167 C4168 1.383 . S
C4167 H4175 0.929 . S
C4168 C4167 1.383 . S
C4168 C4169 1.377 . S
C4169 H4153 0.930 . S
C4169 C4168 1.377 . S
C4169 C4170 1.379 . S
C4170 H4154 0.931 . S
C4170 C4164 1.383 . S
C4170 C4169 1.379 . S
H4171 C4165 0.959 . S
H4172 C4165 0.961 . S
H4173 C4165 0.960 . S
H4174 C4166 0.930 . S
H4175 C4167 0.929 . S
H4176 C4184 0.929 . S
H4177 C4186 0.930 . S
H4178 C4188 0.930 . S
H4179 C4191 0.929 . S
H4180 C4194 0.930 . S
H4181 C4196 0.960 . S
H4182 C4196 0.960 . S
H4183 C4196 0.960 . S
C4184 H4176 0.929 . S
C4184 C4185 1.377 . S
C4184 C4186 1.384 . S
C4185 C4184 1.377 . S
C4185 C4191 1.390 . S
C4186 H4177 0.930 . S
C4186 C4184 1.384 . S
C4186 C4187 1.372 . S
C4187 C4186 1.372 . S
C4187 C4188 1.400 . S
C4187 C4192 1.490 . S
C4188 H4178 0.930 . S
C4188 C4187 1.400 . S
C4188 C4191 1.386 . S
H4189 C4205 0.930 . S
H4190 C4206 0.931 . S
C4191 H4179 0.929 . S
C4191 C4185 1.390 . S
C4191 C4188 1.386 . S
C4192 C4187 1.490 . S
C4192 C4194 1.395 . S
C4192 C4195 1.403 . S
H4193 C4199 0.930 . S
C4194 H4180 0.930 . S
C4194 C4192 1.395 . S
C4194 C4197 1.403 . S
C4195 C4192 1.403 . S
C4195 C4196 1.524 . S
C4195 C4199 1.400 . S
C4196 H4181 0.960 . S
C4196 H4182 0.960 . S
C4196 H4183 0.960 . S
C4196 C4195 1.524 . S
C4197 C4194 1.403 . S
C4197 C4198 1.392 . S
C4197 C4201 1.495 . S
C4198 C4197 1.392 . S
C4198 C4199 1.385 . S
C4198 C4200 1.478 . S
C4199 H4193 0.930 . S
C4199 C4195 1.400 . S
C4199 C4198 1.385 . S
C4200 C4198 1.478 . S
C4200 C4202 1.381 . S
C4200 C4206 1.383 . S
C4201 C4197 1.495 . S
C4201 H4207 0.959 . S
C4201 H4208 0.961 . S
C4201 H4209 0.960 . S
C4202 C4200 1.381 . S
C4202 C4203 1.394 . S
C4202 H4210 0.930 . S
C4203 C4202 1.394 . S
C4203 C4204 1.383 . S
C4203 H4211 0.929 . S
C4204 C4203 1.383 . S
C4204 C4205 1.377 . S
C4205 H4189 0.930 . S
C4205 C4204 1.377 . S
C4205 C4206 1.379 . S
C4206 H4190 0.931 . S
C4206 C4200 1.383 . S
C4206 C4205 1.379 . S
H4207 C4201 0.959 . S
H4208 C4201 0.961 . S
H4209 C4201 0.960 . S
H4210 C4202 0.930 . S
H4211 C4203 0.929 . S
H4212 C4220 0.929 . S
H4213 C4222 0.930 . S
H4214 C4224 0.930 . S
H4215 C4227 0.929 . S
H4216 C4230 0.930 . S
H4217 C4232 0.960 . S
H4218 C4232 0.960 . S
H4219 C4232 0.960 . S
C4220 H4212 0.929 . S
C4220 C4221 1.377 . S
C4220 C4222 1.384 . S
C4221 C4220 1.377 . S
C4221 C4227 1.390 . S
C4222 H4213 0.930 . S
C4222 C4220 1.384 . S
C4222 C4223 1.372 . S
C4223 C4222 1.372 . S
C4223 C4224 1.400 . S
C4223 C4228 1.490 . S
C4224 H4214 0.930 . S
C4224 C4223 1.400 . S
C4224 C4227 1.386 . S
H4225 C4241 0.930 . S
H4226 C4242 0.931 . S
C4227 H4215 0.929 . S
C4227 C4221 1.390 . S
C4227 C4224 1.386 . S
C4228 C4223 1.490 . S
C4228 C4230 1.395 . S
C4228 C4231 1.403 . S
H4229 C4235 0.930 . S
C4230 H4216 0.930 . S
C4230 C4228 1.395 . S
C4230 C4233 1.403 1_455 S
C4231 C4228 1.403 . S
C4231 C4232 1.524 . S
C4231 C4235 1.400 1_455 S
C4232 H4217 0.960 . S
C4232 H4218 0.960 . S
C4232 H4219 0.960 . S
C4232 C4231 1.524 . S
C4233 C4230 1.403 1_655 S
C4233 C4234 1.392 . S
C4233 C4237 1.495 . S
C4234 C4233 1.392 . S
C4234 C4235 1.385 . S
C4234 C4236 1.478 . S
C4235 H4229 0.930 . S
C4235 C4231 1.400 1_655 S
C4235 C4234 1.385 . S
C4236 C4234 1.478 . S
C4236 C4238 1.381 . S
C4236 C4242 1.383 . S
C4237 C4233 1.495 . S
C4237 H4243 0.959 . S
C4237 H4244 0.961 . S
C4237 H4245 0.960 . S
C4238 C4236 1.381 . S
C4238 C4239 1.394 . S
C4238 H4246 0.930 . S
C4239 C4238 1.394 . S
C4239 C4240 1.383 . S
C4239 H4247 0.929 . S
C4240 C4239 1.383 . S
C4240 C4241 1.377 . S
C4241 H4225 0.930 . S
C4241 C4240 1.377 . S
C4241 C4242 1.379 . S
C4242 H4226 0.931 . S
C4242 C4236 1.383 . S
C4242 C4241 1.379 . S
H4243 C4237 0.959 . S
H4244 C4237 0.961 . S
H4245 C4237 0.960 . S
H4246 C4238 0.930 . S
H4247 C4239 0.929 . S
H4248 C4256 0.929 . S
H4249 C4258 0.930 . S
H4250 C4260 0.930 . S
H4251 C4263 0.929 . S
H4252 C4266 0.930 . S
H4253 C4268 0.960 . S
H4254 C4268 0.960 . S
H4255 C4268 0.960 . S
C4256 H4248 0.929 . S
C4256 C4257 1.377 . S
C4256 C4258 1.384 . S
C4257 C4256 1.377 . S
C4257 C4263 1.390 . S
C4258 H4249 0.930 . S
C4258 C4256 1.384 . S
C4258 C4259 1.372 . S
C4259 C4258 1.372 . S
C4259 C4260 1.400 . S
C4259 C4264 1.490 . S
C4260 H4250 0.930 . S
C4260 C4259 1.400 . S
C4260 C4263 1.386 . S
H4261 C4277 0.930 . S
H4262 C4278 0.931 . S
C4263 H4251 0.929 . S
C4263 C4257 1.390 . S
C4263 C4260 1.386 . S
C4264 C4259 1.490 . S
C4264 C4266 1.395 . S
C4264 C4267 1.403 . S
H4265 C4271 0.930 . S
C4266 H4252 0.930 . S
C4266 C4264 1.395 . S
C4266 C4269 1.403 . S
C4267 C4264 1.403 . S
C4267 C4268 1.524 . S
C4267 C4271 1.400 . S
C4268 H4253 0.960 . S
C4268 H4254 0.960 . S
C4268 H4255 0.960 . S
C4268 C4267 1.524 . S
C4269 C4266 1.403 . S
C4269 C4270 1.392 . S
C4269 C4273 1.495 . S
C4270 C4269 1.392 . S
C4270 C4271 1.385 . S
C4270 C4272 1.478 . S
C4271 H4265 0.930 . S
C4271 C4267 1.400 . S
C4271 C4270 1.385 . S
C4272 C4270 1.478 . S
C4272 C4274 1.381 . S
C4272 C4278 1.383 . S
C4273 C4269 1.495 . S
C4273 H4279 0.959 . S
C4273 H4280 0.961 . S
C4273 H4281 0.960 . S
C4274 C4272 1.381 . S
C4274 C4275 1.394 . S
C4274 H4282 0.930 . S
C4275 C4274 1.394 . S
C4275 C4276 1.383 . S
C4275 H4283 0.929 . S
C4276 C4275 1.383 . S
C4276 C4277 1.377 . S
C4277 H4261 0.930 . S
C4277 C4276 1.377 . S
C4277 C4278 1.379 . S
C4278 H4262 0.931 . S
C4278 C4272 1.383 . S
C4278 C4277 1.379 . S
H4279 C4273 0.959 . S
H4280 C4273 0.961 . S
H4281 C4273 0.960 . S
H4282 C4274 0.930 . S
H4283 C4275 0.929 . S
H4284 C4292 0.929 . S
H4285 C4294 0.930 . S
H4286 C4296 0.930 . S
H4287 C4299 0.929 . S
H4288 C4302 0.930 . S
H4289 C4304 0.960 . S
H4290 C4304 0.960 . S
H4291 C4304 0.960 . S
C4292 H4284 0.929 . S
C4292 C4293 1.377 . S
C4292 C4294 1.384 . S
C4293 C4292 1.377 . S
C4293 C4299 1.390 . S
C4294 H4285 0.930 . S
C4294 C4292 1.384 . S
C4294 C4295 1.372 . S
C4295 C4294 1.372 . S
C4295 C4296 1.400 . S
C4295 C4300 1.490 . S
C4296 H4286 0.930 . S
C4296 C4295 1.400 . S
C4296 C4299 1.386 . S
H4297 C4313 0.930 . S
H4298 C4314 0.931 . S
C4299 H4287 0.929 . S
C4299 C4293 1.390 . S
C4299 C4296 1.386 . S
C4300 C4295 1.490 . S
C4300 C4302 1.395 . S
C4300 C4303 1.403 . S
H4301 C4307 0.930 . S
C4302 H4288 0.930 . S
C4302 C4300 1.395 . S
C4302 C4305 1.403 1_545 S
C4303 C4300 1.403 . S
C4303 C4304 1.524 . S
C4303 C4307 1.400 1_545 S
C4304 H4289 0.960 . S
C4304 H4290 0.960 . S
C4304 H4291 0.960 . S
C4304 C4303 1.524 . S
C4305 C4302 1.403 1_565 S
C4305 C4306 1.392 . S
C4305 C4309 1.495 . S
C4306 C4305 1.392 . S
C4306 C4307 1.385 . S
C4306 C4308 1.478 . S
C4307 H4301 0.930 . S
C4307 C4303 1.400 1_565 S
C4307 C4306 1.385 . S
C4308 C4306 1.478 . S
C4308 C4310 1.381 . S
C4308 C4314 1.383 . S
C4309 C4305 1.495 . S
C4309 H4315 0.959 . S
C4309 H4316 0.961 . S
C4309 H4317 0.960 . S
C4310 C4308 1.381 . S
C4310 C4311 1.394 . S
C4310 H4318 0.930 . S
C4311 C4310 1.394 . S
C4311 C4312 1.383 . S
C4311 H4319 0.929 . S
C4312 C4311 1.383 . S
C4312 C4313 1.377 . S
C4313 H4297 0.930 . S
C4313 C4312 1.377 . S
C4313 C4314 1.379 . S
C4314 H4298 0.931 . S
C4314 C4308 1.383 . S
C4314 C4313 1.379 . S
H4315 C4309 0.959 . S
H4316 C4309 0.961 . S
H4317 C4309 0.960 . S
H4318 C4310 0.930 . S
H4319 C4311 0.929 . S
H4320 C4328 0.929 . S
H4321 C4330 0.930 . S
H4322 C4332 0.930 . S
H4323 C4335 0.929 . S
H4324 C4338 0.930 . S
H4325 C4340 0.960 . S
H4326 C4340 0.960 . S
H4327 C4340 0.960 . S
C4328 H4320 0.929 . S
C4328 C4329 1.377 . S
C4328 C4330 1.384 . S
C4329 C4328 1.377 . S
C4329 C4335 1.390 . S
C4330 H4321 0.930 . S
C4330 C4328 1.384 . S
C4330 C4331 1.372 . S
C4331 C4330 1.372 . S
C4331 C4332 1.400 . S
C4331 C4336 1.490 . S
C4332 H4322 0.930 . S
C4332 C4331 1.400 . S
C4332 C4335 1.386 . S
H4333 C4349 0.930 . S
H4334 C4350 0.931 . S
C4335 H4323 0.929 . S
C4335 C4329 1.390 . S
C4335 C4332 1.386 . S
C4336 C4331 1.490 . S
C4336 C4338 1.395 . S
C4336 C4339 1.403 . S
H4337 C4343 0.930 . S
C4338 H4324 0.930 . S
C4338 C4336 1.395 . S
C4338 C4341 1.403 1_565 S
C4339 C4336 1.403 . S
C4339 C4340 1.524 . S
C4339 C4343 1.400 1_565 S
C4340 H4325 0.960 . S
C4340 H4326 0.960 . S
C4340 H4327 0.960 . S
C4340 C4339 1.524 . S
C4341 C4338 1.403 1_545 S
C4341 C4342 1.392 . S
C4341 C4345 1.495 . S
C4342 C4341 1.392 . S
C4342 C4343 1.385 . S
C4342 C4344 1.478 . S
C4343 H4337 0.930 . S
C4343 C4339 1.400 1_545 S
C4343 C4342 1.385 . S
C4344 C4342 1.478 . S
C4344 C4346 1.381 . S
C4344 C4350 1.383 . S
C4345 C4341 1.495 . S
C4345 H4351 0.959 . S
C4345 H4352 0.961 . S
C4345 H4353 0.960 . S
C4346 C4344 1.381 . S
C4346 C4347 1.394 . S
C4346 H4354 0.930 . S
C4347 C4346 1.394 . S
C4347 C4348 1.383 . S
C4347 H4355 0.929 . S
C4348 C4347 1.383 . S
C4348 C4349 1.377 . S
C4349 H4333 0.930 . S
C4349 C4348 1.377 . S
C4349 C4350 1.379 . S
C4350 H4334 0.931 . S
C4350 C4344 1.383 . S
C4350 C4349 1.379 . S
H4351 C4345 0.959 . S
H4352 C4345 0.961 . S
H4353 C4345 0.960 . S
H4354 C4346 0.930 . S
H4355 C4347 0.929 . S
H4356 C4364 0.929 . S
H4357 C4366 0.930 . S
H4358 C4368 0.930 . S
H4359 C4371 0.929 . S
H4360 C4374 0.930 . S
H4361 C4376 0.960 . S
H4362 C4376 0.960 . S
H4363 C4376 0.960 . S
C4364 H4356 0.929 . S
C4364 C4365 1.377 . S
C4364 C4366 1.384 . S
C4365 C4364 1.377 . S
C4365 C4371 1.390 . S
C4366 H4357 0.930 . S
C4366 C4364 1.384 . S
C4366 C4367 1.372 . S
C4367 C4366 1.372 . S
C4367 C4368 1.400 . S
C4367 C4372 1.490 . S
C4368 H4358 0.930 . S
C4368 C4367 1.400 . S
C4368 C4371 1.386 . S
H4369 C4385 0.930 . S
H4370 C4386 0.931 . S
C4371 H4359 0.929 . S
C4371 C4365 1.390 . S
C4371 C4368 1.386 . S
C4372 C4367 1.490 . S
C4372 C4374 1.395 . S
C4372 C4375 1.403 . S
H4373 C4379 0.930 . S
C4374 H4360 0.930 . S
C4374 C4372 1.395 . S
C4374 C4377 1.403 1_655 S
C4375 C4372 1.403 . S
C4375 C4376 1.524 . S
C4375 C4379 1.400 1_655 S
C4376 H4361 0.960 . S
C4376 H4362 0.960 . S
C4376 H4363 0.960 . S
C4376 C4375 1.524 . S
C4377 C4374 1.403 1_455 S
C4377 C4378 1.392 . S
C4377 C4381 1.495 . S
C4378 C4377 1.392 . S
C4378 C4379 1.385 . S
C4378 C4380 1.478 . S
C4379 H4373 0.930 . S
C4379 C4375 1.400 1_455 S
C4379 C4378 1.385 . S
C4380 C4378 1.478 . S
C4380 C4382 1.381 . S
C4380 C4386 1.383 . S
C4381 C4377 1.495 . S
C4381 H4387 0.959 . S
C4381 H4388 0.961 . S
C4381 H4389 0.960 . S
C4382 C4380 1.381 . S
C4382 C4383 1.394 . S
C4382 H4390 0.930 . S
C4383 C4382 1.394 . S
C4383 C4384 1.383 . S
C4383 H4391 0.929 . S
C4384 C4383 1.383 . S
C4384 C4385 1.377 . S
C4385 H4369 0.930 . S
C4385 C4384 1.377 . S
C4385 C4386 1.379 . S
C4386 H4370 0.931 . S
C4386 C4380 1.383 . S
C4386 C4385 1.379 . S
H4387 C4381 0.959 . S
H4388 C4381 0.961 . S
H4389 C4381 0.960 . S
H4390 C4382 0.930 . S
H4391 C4383 0.929 . S
H4392 C4400 0.929 . S
H4393 C4402 0.930 . S
H4394 C4404 0.930 . S
H4395 C4407 0.929 . S
H4396 C4410 0.930 . S
H4397 C4412 0.960 . S
H4398 C4412 0.960 . S
H4399 C4412 0.960 . S
C4400 H4392 0.929 . S
C4400 C4401 1.377 . S
C4400 C4402 1.384 . S
C4401 C4400 1.377 . S
C4401 C4407 1.390 . S
C4402 H4393 0.930 . S
C4402 C4400 1.384 . S
C4402 C4403 1.372 . S
C4403 C4402 1.372 . S
C4403 C4404 1.400 . S
C4403 C4408 1.490 . S
C4404 H4394 0.930 . S
C4404 C4403 1.400 . S
C4404 C4407 1.386 . S
H4405 C4421 0.930 . S
H4406 C4422 0.931 . S
C4407 H4395 0.929 . S
C4407 C4401 1.390 . S
C4407 C4404 1.386 . S
C4408 C4403 1.490 . S
C4408 C4410 1.395 . S
C4408 C4411 1.403 . S
H4409 C4415 0.930 . S
C4410 H4396 0.930 . S
C4410 C4408 1.395 . S
C4410 C4413 1.403 . S
C4411 C4408 1.403 . S
C4411 C4412 1.524 . S
C4411 C4415 1.400 . S
C4412 H4397 0.960 . S
C4412 H4398 0.960 . S
C4412 H4399 0.960 . S
C4412 C4411 1.524 . S
C4413 C4410 1.403 . S
C4413 C4414 1.392 . S
C4413 C4417 1.495 . S
C4414 C4413 1.392 . S
C4414 C4415 1.385 . S
C4414 C4416 1.478 . S
C4415 H4409 0.930 . S
C4415 C4411 1.400 . S
C4415 C4414 1.385 . S
C4416 C4414 1.478 . S
C4416 C4418 1.381 . S
C4416 C4422 1.383 . S
C4417 C4413 1.495 . S
C4417 H4423 0.959 . S
C4417 H4424 0.961 . S
C4417 H4425 0.960 . S
C4418 C4416 1.381 . S
C4418 C4419 1.394 . S
C4418 H4426 0.930 . S
C4419 C4418 1.394 . S
C4419 C4420 1.383 . S
C4419 H4427 0.929 . S
C4420 C4419 1.383 . S
C4420 C4421 1.377 . S
C4421 H4405 0.930 . S
C4421 C4420 1.377 . S
C4421 C4422 1.379 . S
C4422 H4406 0.931 . S
C4422 C4416 1.383 . S
C4422 C4421 1.379 . S
H4423 C4417 0.959 . S
H4424 C4417 0.961 . S
H4425 C4417 0.960 . S
H4426 C4418 0.930 . S
H4427 C4419 0.929 . S
C1197 C358 1.321 . S
C1216 N5 1.321 . S
C1233 C391 1.321 . S
C1252 N38 1.319 . S
C1269 C325 1.311 . S
C1288 N71 1.279 . S
C1305 C292 1.312 . S
C1324 N104 1.276 . S
C1341 C226 1.319 . S
C1360 N137 1.296 . S
C1377 C259 1.317 . S
C1396 N170 1.283 . S
C1413 C160 1.314 . S
C1432 N203 1.273 . S
C1449 N236 1.307 . S
C1468 C193 1.306 . S
C1485 C127 1.312 . S
C1504 N269 1.312 . S
C1521 C94 1.312 . S
C1540 N302 1.309 . S
C1557 N335 1.301 . S
C1576 C28 1.333 . S
C1593 C61 1.321 . S
C1612 N368 1.298 . S
C1629 C754 1.316 . S
C1648 N401 1.281 . S
C1665 N434 1.305 . S
C1684 C787 1.303 . S
C1701 C721 1.312 . S
C1720 N467 1.295 . S
C1737 C688 1.313 . S
C1756 N500 1.303 . S
C1773 C622 1.319 . S
C1792 N533 1.298 . S
C1809 N566 1.304 . S
C1828 C655 1.301 . S
C1845 N599 1.307 . S
C1864 C556 1.332 . S
C1881 C589 1.311 . S
C1900 N632 1.297 . S
C1917 C523 1.319 . S
C1936 N665 1.285 . S
C1953 N698 1.298 . S
C1972 C490 1.319 . S
C1989 N731 1.303 . S
C2008 C424 1.291 . S
C2025 C457 1.313 . S
C2044 N764 1.315 . S
C2061 N797 1.308 . S
C2080 C1150 1.324 . S
C2097 N830 1.306 . S
C2116 C1183 1.336 . S
C2133 N863 1.300 . S
C2152 C1117 1.318 . S
C2169 N896 1.301 . S
C2188 C1084 1.325 . S
C2205 C1018 1.312 . S
C2224 N929 1.272 . S
C2241 C1051 1.315 . S
C2260 N962 1.315 . S
C2277 N995 1.299 . S
C2296 C952 1.295 . S
C2313 C985 1.315 . S
C2332 N1028 1.272 . S
C2349 C919 1.311 . S
C2368 N1061 1.300 . S
C2385 N1094 1.308 . S
C2404 C886 1.319 . S
C2421 N1127 1.307 . S
C2440 C820 1.301 . S
C2457 C853 1.311 . S
C2476 N1160 1.288 . S
C2493 N113 1.616 . S
C2512 N14 1.597 . S
C2529 N47 1.622 . S
C2548 N146 1.617 . S
C2565 N80 1.620 . S
C2584 N179 1.596 . S
C2601 N311 1.619 . S
C2620 N212 1.604 1_556 S
C2637 N245 1.615 1_556 S
C2656 N344 1.595 . S
C2673 N377 1.622 . S
C2692 N278 1.635 1_556 S
C2709 N410 1.623 . S
C2728 N509 1.611 . S
C2745 N542 1.615 . S
C2764 N443 1.630 . S
C2781 N476 1.620 . S
C2800 N575 1.596 . S
C2817 N608 1.622 . S
C2836 N707 1.636 . S
C2853 N740 1.622 . S
C2872 N641 1.636 . S
C2889 N773 1.623 . S
C2908 N674 1.630 . S
C2925 N806 1.617 . S
C2944 N905 1.635 . S
C2961 N938 1.622 . S
C2980 N839 1.600 . S
C2997 N872 1.618 . S
C3016 N971 1.594 . S
C3033 N1004 1.614 . S
C3052 N1103 1.600 . S
C3069 N1037 1.616 . S
C3088 N1136 1.595 . S
C3105 N1169 1.623 . S
C3124 N1070 1.635 . S
C3141 C107 0.790 . S
C3160 C8 0.796 . S
C3177 C41 0.782 . S
C3196 C140 0.792 . S
C3213 C173 0.783 . S
C3232 C74 0.814 . S
C3249 C305 0.786 . S
C3268 C206 0.813 . S
C3285 C338 0.791 . S
C3304 C239 0.801 . S
C3321 C371 0.792 . S
C3340 C272 0.788 . S
C3357 C404 0.792 . S
C3376 C503 0.773 . S
C3393 C437 0.781 . S
C3412 C536 0.810 . S
C3429 C569 0.792 . S
C3448 C470 0.779 . S
C3465 C602 0.792 . S
C3484 C701 0.771 . S
C3501 C734 0.790 . S
C3520 C635 0.801 . S
C3537 C767 0.781 . S
C3556 C668 0.806 . S
C3573 C800 0.782 . S
C3592 C899 0.783 . S
C3609 C833 0.786 . S
C3628 C932 0.766 . S
C3645 C965 0.790 . S
C3664 C866 0.791 . S
C3681 C1097 0.787 . S
C3700 C998 0.810 . S
C3717 C1130 0.780 . S
C3736 C1031 0.788 . S
C3753 C1163 0.792 . S
C3772 C1064 0.774 . S
C3789 C17 1.462 . S
C3808 C545 1.454 . S
C3825 C50 1.462 . S
C3844 C578 1.445 . S
C3861 C512 1.457 . S
C3880 C83 1.453 . S
C3897 C875 1.461 . S
C3916 C116 1.443 . S
C3933 C149 1.460 . S
C3952 C809 1.443 . S
C3969 C182 1.459 . S
C3988 C842 1.468 . S
C4005 C1139 1.457 . S
C4024 C215 1.469 . S
C4041 C1172 1.457 . S
C4060 C248 1.469 . S
C4077 C281 1.459 . S
C4096 C1106 1.469 . S
C4113 C677 1.457 . S
C4132 C314 1.454 . S
C4149 C347 1.459 . S
C4168 C611 1.469 . S
C4185 C644 1.461 . S
C4204 C380 1.443 . S
C4221 C941 1.457 . S
C4240 C413 1.470 . S
C4257 C974 1.462 . S
C4276 C446 1.450 . S
C4293 C479 1.459 . S
C4312 C908 1.446 . S
C4329 C1073 1.462 . S
C4348 C710 1.450 . S
C4365 C743 1.457 . S
C4384 C1007 1.461 . S
C4401 C776 1.461 . S
C4420 C1040 1.463 . S
