# Generated by pormake.
# Topology ume, (4)-cn, num edge types: 1
# Building blocks:
#     Node 0, Type 0, BuildingBlock: KUFVIS_clean_sbu_0, # of connection points: 4
#     Node 1, Type 0, BuildingBlock: KUFVIS_clean_sbu_0, # of connection points: 4
#     Node 2, Type 0, BuildingBlock: KUFVIS_clean_sbu_0, # of connection points: 4
#     Node 3, Type 0, BuildingBlock: KUFVIS_clean_sbu_0, # of connection points: 4
#     Node 4, Type 0, BuildingBlock: KUFVIS_clean_sbu_0, # of connection points: 4
#     Node 5, Type 0, BuildingBlock: KUFVIS_clean_sbu_0, # of connection points: 4
#     Node 6, Type 0, BuildingBlock: KUFVIS_clean_sbu_0, # of connection points: 4
#     Node 7, Type 0, BuildingBlock: KUFVIS_clean_sbu_0, # of connection points: 4
#     Node 8, Type 0, BuildingBlock: KUFVIS_clean_sbu_0, # of connection points: 4
#     Node 9, Type 0, BuildingBlock: KUFVIS_clean_sbu_0, # of connection points: 4
#     Node 10, Type 0, BuildingBlock: KUFVIS_clean_sbu_0, # of connection points: 4
#     Node 11, Type 0, BuildingBlock: KUFVIS_clean_sbu_0, # of connection points: 4
#     Node 12, Type 0, BuildingBlock: KUFVIS_clean_sbu_0, # of connection points: 4
#     Node 13, Type 0, BuildingBlock: KUFVIS_clean_sbu_0, # of connection points: 4
#     Node 14, Type 0, BuildingBlock: KUFVIS_clean_sbu_0, # of connection points: 4
#     Node 15, Type 0, BuildingBlock: KUFVIS_clean_sbu_0, # of connection points: 4
#     Edge 16, Type (0, 0), BuildingBlock: CIFDUS_clean_linker_0, # of connection points: 2
#     Edge 17, Type (0, 0), BuildingBlock: CIFDUS_clean_linker_0, # of connection points: 2
#     Edge 18, Type (0, 0), BuildingBlock: CIFDUS_clean_linker_0, # of connection points: 2
#     Edge 19, Type (0, 0), BuildingBlock: CIFDUS_clean_linker_0, # of connection points: 2
#     Edge 20, Type (0, 0), BuildingBlock: CIFDUS_clean_linker_0, # of connection points: 2
#     Edge 21, Type (0, 0), BuildingBlock: CIFDUS_clean_linker_0, # of connection points: 2
#     Edge 22, Type (0, 0), BuildingBlock: CIFDUS_clean_linker_0, # of connection points: 2
#     Edge 23, Type (0, 0), BuildingBlock: CIFDUS_clean_linker_0, # of connection points: 2
#     Edge 24, Type (0, 0), BuildingBlock: CIFDUS_clean_linker_0, # of connection points: 2
#     Edge 25, Type (0, 0), BuildingBlock: CIFDUS_clean_linker_0, # of connection points: 2
#     Edge 26, Type (0, 0), BuildingBlock: CIFDUS_clean_linker_0, # of connection points: 2
#     Edge 27, Type (0, 0), BuildingBlock: CIFDUS_clean_linker_0, # of connection points: 2
#     Edge 28, Type (0, 0), BuildingBlock: CIFDUS_clean_linker_0, # of connection points: 2
#     Edge 29, Type (0, 0), BuildingBlock: CIFDUS_clean_linker_0, # of connection points: 2
#     Edge 30, Type (0, 0), BuildingBlock: CIFDUS_clean_linker_0, # of connection points: 2
#     Edge 31, Type (0, 0), BuildingBlock: CIFDUS_clean_linker_0, # of connection points: 2
#     Edge 32, Type (0, 0), BuildingBlock: CIFDUS_clean_linker_0, # of connection points: 2
#     Edge 33, Type (0, 0), BuildingBlock: CIFDUS_clean_linker_0, # of connection points: 2
#     Edge 34, Type (0, 0), BuildingBlock: CIFDUS_clean_linker_0, # of connection points: 2
#     Edge 35, Type (0, 0), BuildingBlock: CIFDUS_clean_linker_0, # of connection points: 2
#     Edge 36, Type (0, 0), BuildingBlock: CIFDUS_clean_linker_0, # of connection points: 2
#     Edge 37, Type (0, 0), BuildingBlock: CIFDUS_clean_linker_0, # of connection points: 2
#     Edge 38, Type (0, 0), BuildingBlock: CIFDUS_clean_linker_0, # of connection points: 2
#     Edge 39, Type (0, 0), BuildingBlock: CIFDUS_clean_linker_0, # of connection points: 2
#     Edge 40, Type (0, 0), BuildingBlock: CIFDUS_clean_linker_0, # of connection points: 2
#     Edge 41, Type (0, 0), BuildingBlock: CIFDUS_clean_linker_0, # of connection points: 2
#     Edge 42, Type (0, 0), BuildingBlock: CIFDUS_clean_linker_0, # of connection points: 2
#     Edge 43, Type (0, 0), BuildingBlock: CIFDUS_clean_linker_0, # of connection points: 2
#     Edge 44, Type (0, 0), BuildingBlock: CIFDUS_clean_linker_0, # of connection points: 2
#     Edge 45, Type (0, 0), BuildingBlock: CIFDUS_clean_linker_0, # of connection points: 2
#     Edge 46, Type (0, 0), BuildingBlock: CIFDUS_clean_linker_0, # of connection points: 2
#     Edge 47, Type (0, 0), BuildingBlock: CIFDUS_clean_linker_0, # of connection points: 2
# Relax obj value: 0.107
# Max RMSD: 0.165
# Mean RMSD: 0.165
data_MOF--net-ume--node1-KUFVIS_clean_sbu_0--edge1-CIFDUS_clean_linker_0
_symmetry_space_group_name_H-M    P1
_symmetry_Int_Tables_number       1
_symmetry_cell_setting            triclinic
loop_
_symmetry_equiv_pos_as_xyz
'x, y, z'
_cell_length_a     22.948179
_cell_length_b     22.928733
_cell_length_c     100.63408
_cell_angle_alpha  90.095613
_cell_angle_beta   90.012501
_cell_angle_gamma 89.991405
loop_
_atom_site_label
_atom_site_type_symbol
_atom_site_fract_x
_atom_site_fract_y
_atom_site_fract_z
_atom_type_partial_charge
Mn0 Mn 0.26183 0.12001 0.31595 0.0
Mn1 Mn 0.2648 0.0212 0.34085 0.0
C2 C 0.3512 0.08117 0.3223 0.0
C3 C 0.24866 0.13702 0.29317 0.0
C4 C 0.25173 0.15253 0.34512 0.0
O5 O 0.17684 0.0967 0.31807 0.0
O6 O 0.18693 0.02245 0.33242 0.0
C7 C 0.24837 0.91215 0.32546 0.0
N8 N 0.27844 0.94363 0.33466 0.0
C9 C 0.33641 0.86029 0.34065 0.0
C10 C 0.30564 0.8267 0.33134 0.0
C11 C 0.26181 0.85291 0.32362 0.0
C12 C 0.32157 0.91923 0.3419 0.0
H13 H 0.21434 0.93213 0.31962 0.0
C14 C 0.15662 0.05332 0.32446 0.0
O15 O 0.2408 0.17844 0.30183 0.0
O16 O 0.26301 0.08638 0.2978 0.0
N17 N 0.3368 0.0128 0.35019 0.0
C18 C 0.36415 0.05198 0.35821 0.0
C19 C 0.40939 0.03325 0.36654 0.0
C20 C 0.42609 0.97433 0.36653 0.0
C21 C 0.39792 0.93482 0.35807 0.0
C22 C 0.35242 0.95591 0.35017 0.0
H23 H 0.3504 0.09671 0.35854 0.0
O24 O 0.34756 0.12897 0.31549 0.0
O25 O 0.30165 0.05546 0.32493 0.0
O26 O 0.25832 0.16926 0.33312 0.0
O27 O 0.25098 0.09907 0.34866 0.0
C28 C 0.41248 0.87518 0.35732 0.0
C29 C 0.38188 0.83796 0.34857 0.0
H30 H 0.31571 0.78095 0.32993 0.0
H31 H 0.23814 0.82738 0.31635 0.0
H32 H 0.43039 0.06395 0.37316 0.0
H33 H 0.45988 0.95974 0.37323 0.0
H34 H 0.4475 0.85763 0.36332 0.0
H35 H 0.39415 0.79243 0.3479 0.0
Mn36 Mn 0.85712 0.75221 0.56849 0.0
Mn37 Mn 0.96714 0.73972 0.59068 0.0
C38 C 0.91351 0.83322 0.57336 0.0
C39 C 0.82459 0.74418 0.54657 0.0
C40 C 0.83809 0.73767 0.59794 0.0
O41 O 0.8709 0.66475 0.56988 0.0
O42 O 0.95623 0.66513 0.5812 0.0
C43 C 0.07091 0.7184 0.57383 0.0
N44 N 0.04365 0.74951 0.58353 0.0
C45 C 0.13017 0.8061 0.58768 0.0
C46 C 0.15939 0.77401 0.57785 0.0
C47 C 0.12951 0.7302 0.57085 0.0
C48 C 0.07194 0.79194 0.59031 0.0
H49 H 0.04788 0.68537 0.56834 0.0
C50 C 0.91699 0.63996 0.57419 0.0
O51 O 0.78842 0.7417 0.55647 0.0
O52 O 0.87939 0.75006 0.54938 0.0
N53 N 0.98231 0.81024 0.60026 0.0
C54 C 0.94615 0.84112 0.60836 0.0
C55 C 0.9682 0.88854 0.61561 0.0
C56 C 0.02719 0.90397 0.61439 0.0
C57 C 0.06349 0.87197 0.60588 0.0
C58 C 0.03923 0.82449 0.59909 0.0
H59 H 0.90101 0.82935 0.60938 0.0
O60 O 0.86176 0.83881 0.5683 0.0
O61 O 0.93083 0.78014 0.57556 0.0
O62 O 0.81693 0.75311 0.58679 0.0
O63 O 0.89215 0.72838 0.59986 0.0
C64 C 0.12256 0.88578 0.60374 0.0
C65 C 0.15587 0.8529 0.59463 0.0
H66 H 0.20441 0.78337 0.57543 0.0
H67 H 0.15153 0.70574 0.56313 0.0
H68 H 0.93982 0.91282 0.62218 0.0
H69 H 0.04414 0.9405 0.62001 0.0
H70 H 0.14251 0.92226 0.60886 0.0
H71 H 0.20087 0.86477 0.59283 0.0
Mn72 Mn 0.2342 0.37929 0.81637 0.0
Mn73 Mn 0.24758 0.49778 0.83631 0.0
C74 C 0.15484 0.44002 0.81948 0.0
C75 C 0.2418 0.33476 0.79557 0.0
C76 C 0.24014 0.37289 0.8464 0.0
O77 O 0.32225 0.38979 0.81828 0.0
O78 O 0.32329 0.47839 0.82822 0.0
C79 C 0.27752 0.59039 0.81699 0.0
N80 N 0.2438 0.57053 0.82713 0.0
C81 C 0.19287 0.66212 0.82856 0.0
C82 C 0.22786 0.68393 0.81828 0.0
C83 C 0.27011 0.64775 0.81241 0.0
C84 C 0.20272 0.60483 0.83279 0.0
H85 H 0.30948 0.56251 0.8124 0.0
C86 C 0.34825 0.4359 0.82226 0.0
O87 O 0.24264 0.3045 0.80645 0.0
O88 O 0.2395 0.39108 0.79675 0.0
N89 N 0.17671 0.52194 0.84467 0.0
C90 C 0.14197 0.49189 0.85321 0.0
C91 C 0.09482 0.52023 0.85929 0.0
C92 C 0.08375 0.57923 0.85654 0.0
C93 C 0.1202 0.60939 0.84774 0.0
C94 C 0.16701 0.57896 0.84209 0.0
H95 H 0.15032 0.4468 0.85542 0.0
O96 O 0.14816 0.38688 0.81531 0.0
O97 O 0.20815 0.45693 0.82159 0.0
O98 O 0.22747 0.34822 0.83544 0.0
O99 O 0.252 0.427 0.84744 0.0
C100 C 0.11096 0.6679 0.84403 0.0
C101 C 0.14725 0.69425 0.83444 0.0
H102 H 0.22189 0.72795 0.81464 0.0
H103 H 0.29676 0.664 0.80436 0.0
H104 H 0.06754 0.49661 0.86616 0.0
H105 H 0.04694 0.60077 0.86116 0.0
H106 H 0.07517 0.69257 0.84824 0.0
H107 H 0.13875 0.73875 0.83141 0.0
Mn108 Mn 0.6016 0.73718 0.06677 0.0
Mn109 Mn 0.47972 0.6964 0.08322 0.0
C110 C 0.59099 0.64241 0.07369 0.0
C111 C 0.64566 0.74868 0.04592 0.0
C112 C 0.58235 0.75495 0.09673 0.0
O113 O 0.54724 0.80567 0.06378 0.0
O114 O 0.46906 0.77376 0.07499 0.0
C115 C 0.41024 0.68149 0.05865 0.0
N116 N 0.43101 0.65945 0.07029 0.0
C117 C 0.38398 0.56728 0.06631 0.0
C118 C 0.36182 0.58908 0.05432 0.0
C119 C 0.37527 0.64635 0.05045 0.0
C120 C 0.41976 0.60388 0.07391 0.0
H121 H 0.42048 0.72547 0.05563 0.0
C122 C 0.49532 0.81194 0.06801 0.0
O123 O 0.66577 0.77648 0.05624 0.0
O124 O 0.59981 0.71716 0.04769 0.0
N125 N 0.47981 0.62257 0.09207 0.0
C126 C 0.49854 0.6109 0.10465 0.0
C127 C 0.48508 0.55702 0.11053 0.0
C128 C 0.45078 0.51635 0.1036 0.0
C129 C 0.42949 0.5304 0.09095 0.0
C130 C 0.44416 0.58493 0.08564 0.0
H131 H 0.523 0.64274 0.11024 0.0
O132 O 0.64192 0.66191 0.07041 0.0
O133 O 0.54757 0.67817 0.07227 0.0
O134 O 0.61429 0.76249 0.08637 0.0
O135 O 0.53155 0.73165 0.09664 0.0
C136 C 0.39328 0.49292 0.08352 0.0
C137 C 0.37137 0.51096 0.0711 0.0
H138 H 0.33429 0.56233 0.04804 0.0
H139 H 0.35849 0.66346 0.04119 0.0
H140 H 0.50065 0.5471 0.12042 0.0
H141 H 0.44054 0.4748 0.10815 0.0
H142 H 0.38201 0.45012 0.08728 0.0
H143 H 0.34387 0.48164 0.06544 0.0
Mn144 Mn 0.24458 0.37901 0.9515 0.0
Mn145 Mn 0.23621 0.49745 0.93156 0.0
C146 C 0.32564 0.43775 0.94883 0.0
C147 C 0.23311 0.33546 0.97231 0.0
C148 C 0.24104 0.37227 0.92148 0.0
O149 O 0.15716 0.39171 0.94907 0.0
O150 O 0.15925 0.48048 0.93928 0.0
C151 C 0.20741 0.59129 0.95075 0.0
N152 N 0.24144 0.57018 0.94077 0.0
C153 C 0.29539 0.66006 0.93959 0.0
C154 C 0.26011 0.68318 0.94968 0.0
C155 C 0.2162 0.64849 0.95535 0.0
C156 C 0.28414 0.60302 0.93532 0.0
H157 H 0.17421 0.5645 0.95519 0.0
C158 C 0.13267 0.43847 0.94502 0.0
O159 O 0.2326 0.30492 0.96144 0.0
O160 O 0.23745 0.39161 0.97106 0.0
N161 N 0.30861 0.51911 0.92359 0.0
C162 C 0.3437 0.48745 0.91542 0.0
C163 C 0.39273 0.51383 0.90971 0.0
C164 C 0.40513 0.57268 0.91239 0.0
C165 C 0.36841 0.60446 0.92086 0.0
C166 C 0.31991 0.57582 0.92621 0.0
H167 H 0.33438 0.44247 0.91328 0.0
O168 O 0.33087 0.38456 0.95305 0.0
O169 O 0.27296 0.45565 0.94643 0.0
O170 O 0.25242 0.34737 0.93247 0.0
O171 O 0.2306 0.42666 0.92042 0.0
C172 C 0.37911 0.66276 0.92459 0.0
C173 C 0.34261 0.69055 0.93394 0.0
H174 H 0.26712 0.72707 0.95335 0.0
H175 H 0.18933 0.66573 0.96327 0.0
H176 H 0.42055 0.48868 0.90322 0.0
H177 H 0.44327 0.59282 0.90805 0.0
H178 H 0.41623 0.68607 0.9206 0.0
H179 H 0.35223 0.73483 0.937 0.0
Mn180 Mn 0.63249 0.76099 0.2026 0.0
Mn181 Mn 0.49481 0.75216 0.19089 0.0
C182 C 0.58059 0.84531 0.19841 0.0
C183 C 0.69081 0.76139 0.22157 0.0
C184 C 0.60268 0.73754 0.17355 0.0
O185 O 0.61236 0.67533 0.20523 0.0
O186 O 0.51784 0.67885 0.19956 0.0
C187 C 0.43872 0.74637 0.21735 0.0
N188 N 0.4437 0.772 0.2052 0.0
C189 C 0.37001 0.8427 0.21066 0.0
C190 C 0.36374 0.81679 0.22319 0.0
C191 C 0.39847 0.76857 0.22657 0.0
C192 C 0.41173 0.81941 0.202 0.0
H193 H 0.46548 0.70945 0.22001 0.0
C194 C 0.5621 0.65222 0.20423 0.0
O195 O 0.71309 0.74886 0.21002 0.0
O196 O 0.6357 0.77242 0.22204 0.0
N197 N 0.46359 0.81917 0.18212 0.0
C198 C 0.46928 0.8336 0.16904 0.0
C199 C 0.43378 0.87735 0.1636 0.0
C200 C 0.39172 0.90492 0.17156 0.0
C201 C 0.38513 0.88799 0.18485 0.0
C202 C 0.42098 0.84326 0.18963 0.0
H203 H 0.49995 0.81122 0.16272 0.0
O204 O 0.63656 0.8472 0.19997 0.0
O205 O 0.55659 0.79465 0.19993 0.0
O206 O 0.64136 0.74778 0.18245 0.0
O207 O 0.54768 0.73488 0.17579 0.0
C208 C 0.34306 0.91242 0.1934 0.0
C209 C 0.33604 0.89028 0.20637 0.0
H210 H 0.33231 0.83343 0.23028 0.0
H211 H 0.39408 0.74846 0.23624 0.0
H212 H 0.43852 0.88948 0.15327 0.0
H213 H 0.36449 0.93874 0.16734 0.0
H214 H 0.31544 0.94777 0.19005 0.0
H215 H 0.30344 0.90927 0.21285 0.0
Mn216 Mn 0.20645 0.11983 0.44492 0.0
Mn217 Mn 0.21219 0.02401 0.41931 0.0
C218 C 0.12187 0.07504 0.4377 0.0
C219 C 0.20714 0.1363 0.46791 0.0
C220 C 0.22203 0.15578 0.41604 0.0
O221 O 0.29213 0.09747 0.44424 0.0
O222 O 0.2885 0.02783 0.42838 0.0
C223 C 0.23274 0.91261 0.43347 0.0
N224 N 0.20114 0.94486 0.42469 0.0
C225 C 0.13992 0.8627 0.41945 0.0
C226 C 0.17246 0.8284 0.42827 0.0
C227 C 0.21886 0.85356 0.43536 0.0
C228 C 0.1562 0.92113 0.41786 0.0
H229 H 0.26785 0.93194 0.43908 0.0
C230 C 0.31524 0.05633 0.43747 0.0
O231 O 0.21913 0.17819 0.45966 0.0
O232 O 0.1988 0.08514 0.46283 0.0
N233 N 0.14012 0.01505 0.40995 0.0
C234 C 0.10973 0.05534 0.40285 0.0
C235 C 0.06048 0.038 0.39558 0.0
C236 C 0.04287 0.97939 0.39572 0.0
C237 C 0.07425 0.93877 0.40327 0.0
C238 C 0.12362 0.95847 0.41012 0.0
H239 H 0.12327 0.10016 0.40263 0.0
O240 O 0.12027 0.12466 0.44391 0.0
O241 O 0.17354 0.05395 0.43538 0.0
O242 O 0.21386 0.17089 0.4281 0.0
O243 O 0.22372 0.1029 0.41215 0.0
C244 C 0.05816 0.87969 0.40438 0.0
C245 C 0.09087 0.84172 0.4125 0.0
H246 H 0.16154 0.78298 0.42986 0.0
H247 H 0.24369 0.82755 0.44232 0.0
H248 H 0.03632 0.0697 0.38983 0.0
H249 H 0.00517 0.96612 0.39001 0.0
H250 H 0.02014 0.86324 0.39921 0.0
H251 H 0.07733 0.79668 0.41351 0.0
Mn252 Mn 0.88312 0.72623 0.69857 0.0
Mn253 Mn 0.97987 0.73347 0.67314 0.0
C254 C 0.92762 0.64217 0.69085 0.0
C255 C 0.86451 0.72443 0.72149 0.0
C256 C 0.84897 0.74861 0.66981 0.0
O257 O 0.9076 0.81157 0.69856 0.0
O258 O 0.97821 0.80831 0.68287 0.0
C259 C 0.09234 0.74836 0.68723 0.0
N260 N 0.05873 0.71909 0.67828 0.0
C261 C 0.1387 0.65633 0.6723 0.0
C262 C 0.17445 0.6866 0.68127 0.0
C263 C 0.15106 0.73258 0.68881 0.0
C264 C 0.08075 0.67459 0.67099 0.0
H265 H 0.07424 0.78285 0.69324 0.0
C266 C 0.94971 0.83446 0.69207 0.0
O267 O 0.82388 0.73842 0.71308 0.0
O268 O 0.91593 0.71514 0.71664 0.0
N269 N 0.98598 0.66235 0.66327 0.0
C270 C 0.94395 0.63316 0.6564 0.0
C271 C 0.95895 0.58325 0.64906 0.0
C272 C 0.017 0.56387 0.64888 0.0
C273 C 0.05941 0.59422 0.65615 0.0
C274 C 0.04197 0.64406 0.66315 0.0
H275 H 0.8994 0.64788 0.65652 0.0
O276 O 0.8776 0.63972 0.69686 0.0
O277 O 0.9487 0.69401 0.68893 0.0
O278 O 0.83303 0.73829 0.68172 0.0
O279 O 0.90187 0.74906 0.66606 0.0
C280 C 0.11801 0.57624 0.65696 0.0
C281 C 0.15765 0.6073 0.66502 0.0
H282 H 0.21955 0.67407 0.68265 0.0
H283 H 0.17813 0.75553 0.69591 0.0
H284 H 0.92587 0.55984 0.64355 0.0
H285 H 0.02843 0.52541 0.6432 0.0
H286 H 0.13276 0.53787 0.65164 0.0
H287 H 0.20225 0.59223 0.66582 0.0
Mn288 Mn 0.76454 0.64609 0.81909 0.0
Mn289 Mn 0.76265 0.54442 0.84357 0.0
C290 C 0.85052 0.60203 0.82577 0.0
C291 C 0.76273 0.67083 0.7965 0.0
C292 C 0.74656 0.6742 0.84848 0.0
O293 O 0.68016 0.61894 0.81915 0.0
O294 O 0.68597 0.54809 0.83469 0.0
C295 C 0.74407 0.43521 0.82834 0.0
N296 N 0.77546 0.46676 0.83731 0.0
C297 C 0.83793 0.38485 0.84188 0.0
C298 C 0.80587 0.35132 0.83279 0.0
C299 C 0.75893 0.37671 0.82595 0.0
C300 C 0.82079 0.44277 0.84394 0.0
H301 H 0.70829 0.45465 0.82298 0.0
C302 C 0.65843 0.57643 0.82571 0.0
O303 O 0.74848 0.7085 0.80559 0.0
O304 O 0.77506 0.61856 0.80048 0.0
N305 N 0.83525 0.53569 0.85267 0.0
C306 C 0.86533 0.57568 0.85997 0.0
C307 C 0.91514 0.55815 0.86701 0.0
C308 C 0.93342 0.49974 0.86646 0.0
C309 C 0.90249 0.45963 0.85865 0.0
C310 C 0.85272 0.47946 0.85201 0.0
H311 H 0.85113 0.62042 0.86049 0.0
O312 O 0.851 0.65363 0.82046 0.0
O313 O 0.79944 0.57921 0.82777 0.0
O314 O 0.7522 0.69209 0.83656 0.0
O315 O 0.74897 0.62078 0.85179 0.0
C316 C 0.91945 0.40096 0.85708 0.0
C317 C 0.88728 0.36363 0.84867 0.0
H318 H 0.81747 0.30632 0.83083 0.0
H319 H 0.73434 0.35127 0.81882 0.0
H320 H 0.93908 0.58945 0.87294 0.0
H321 H 0.97118 0.48612 0.87208 0.0
H322 H 0.95778 0.38439 0.8621 0.0
H323 H 0.90149 0.31896 0.84731 0.0
Mn324 Mn 0.38294 0.26204 0.06406 0.0
Mn325 Mn 0.52041 0.23371 0.07437 0.0
C326 C 0.44839 0.33788 0.06648 0.0
C327 C 0.31988 0.26666 0.04592 0.0
C328 C 0.41562 0.24273 0.09302 0.0
O329 O 0.38833 0.17363 0.0626 0.0
O330 O 0.48451 0.16396 0.06626 0.0
C331 C 0.56878 0.21773 0.04731 0.0
N332 N 0.57088 0.24428 0.05941 0.0
C333 C 0.65069 0.30509 0.05242 0.0
C334 C 0.65018 0.27737 0.04 0.0
C335 C 0.60877 0.23374 0.03741 0.0
C336 C 0.60917 0.2878 0.06183 0.0
H337 H 0.53627 0.18526 0.04516 0.0
C338 C 0.43514 0.14393 0.06263 0.0
O339 O 0.29959 0.26149 0.05793 0.0
O340 O 0.37584 0.2678 0.04451 0.0
N341 N 0.56372 0.29578 0.08241 0.0
C342 C 0.56547 0.31016 0.09556 0.0
C343 C 0.60656 0.35088 0.10013 0.0
C344 C 0.64747 0.37433 0.09125 0.0
C345 C 0.64812 0.35522 0.07802 0.0
C346 C 0.60629 0.3141 0.07411 0.0
H347 H 0.53651 0.28985 0.10259 0.0
O348 O 0.39319 0.34816 0.06527 0.0
O349 O 0.46404 0.28379 0.06551 0.0
O350 O 0.37746 0.25745 0.08437 0.0
O351 O 0.46827 0.22777 0.09021 0.0
C352 C 0.69006 0.3736 0.06872 0.0
C353 C 0.69094 0.349 0.05586 0.0
H354 H 0.68118 0.28941 0.03237 0.0
H355 H 0.60753 0.21265 0.02778 0.0
H356 H 0.60717 0.36357 0.11049 0.0
H357 H 0.67919 0.40569 0.0948 0.0
H358 H 0.72238 0.40597 0.0714 0.0
H359 H 0.72352 0.36328 0.0488 0.0
Mn360 Mn 0.73265 0.84829 0.31859 0.0
Mn361 Mn 0.73029 0.96356 0.33961 0.0
C362 C 0.64406 0.89359 0.32294 0.0
C363 C 0.74778 0.81168 0.29717 0.0
C364 C 0.7387 0.83691 0.34859 0.0
O365 O 0.81836 0.87034 0.32049 0.0
O366 O 0.8085 0.95466 0.33169 0.0
C367 C 0.75008 0.06 0.32057 0.0
N368 N 0.71885 0.03605 0.33067 0.0
C369 C 0.6628 0.12387 0.33347 0.0
C370 C 0.69488 0.14987 0.3232 0.0
C371 C 0.7383 0.11757 0.31663 0.0
C372 C 0.67603 0.06618 0.33682 0.0
H373 H 0.78371 0.03533 0.31559 0.0
C374 C 0.83891 0.91759 0.32525 0.0
O375 O 0.75292 0.77867 0.30758 0.0
O376 O 0.73533 0.86615 0.29922 0.0
N377 N 0.6579 0.97981 0.34819 0.0
C378 C 0.62861 0.94696 0.35724 0.0
C379 C 0.58273 0.97193 0.36447 0.0
C380 C 0.56755 0.03056 0.36236 0.0
C381 C 0.59805 0.06352 0.35295 0.0
C382 C 0.64382 0.03639 0.34615 0.0
H383 H 0.64111 0.90258 0.35916 0.0
O384 O 0.64665 0.84174 0.31781 0.0
O385 O 0.6941 0.9196 0.32484 0.0
O386 O 0.73185 0.81256 0.3373 0.0
O387 O 0.74181 0.89203 0.35023 0.0
C388 C 0.58529 0.12235 0.35013 0.0
C389 C 0.61757 0.1525 0.34037 0.0
H390 H 0.6861 0.19434 0.32018 0.0
H391 H 0.76291 0.13715 0.30862 0.0
H392 H 0.56028 0.94631 0.37188 0.0
H393 H 0.53304 0.05013 0.36816 0.0
H394 H 0.5502 0.14455 0.35526 0.0
H395 H 0.60658 0.19731 0.33808 0.0
Mn396 Mn 0.12492 0.22228 0.56608 0.0
Mn397 Mn 0.0198 0.22458 0.58981 0.0
C398 C 0.07917 0.13668 0.57243 0.0
C399 C 0.15198 0.22592 0.54368 0.0
C400 C 0.14883 0.24064 0.59556 0.0
O401 O 0.09923 0.30727 0.56636 0.0
O402 O 0.02417 0.30064 0.58085 0.0
C403 C 0.91304 0.24058 0.57363 0.0
N404 N 0.94337 0.21043 0.583 0.0
C405 C 0.86144 0.14759 0.58723 0.0
C406 C 0.82901 0.17863 0.57778 0.0
C407 C 0.85506 0.22507 0.57089 0.0
C408 C 0.91887 0.16537 0.58962 0.0
H409 H 0.93318 0.27569 0.56819 0.0
C410 C 0.055 0.32858 0.57238 0.0
O411 O 0.18895 0.23862 0.55301 0.0
O412 O 0.09925 0.21365 0.54732 0.0
N413 N 0.01062 0.15228 0.599 0.0
C414 C 0.04993 0.12287 0.60659 0.0
C415 C 0.03211 0.07296 0.61354 0.0
C416 C 0.97407 0.05393 0.61261 0.0
C417 C 0.93459 0.08444 0.60459 0.0
C418 C 0.95471 0.13426 0.59802 0.0
H419 H 0.09438 0.13762 0.60738 0.0
O420 O 0.13087 0.13525 0.56718 0.0
O421 O 0.05698 0.18801 0.57433 0.0
O422 O 0.16863 0.23277 0.58386 0.0
O423 O 0.09489 0.23963 0.59846 0.0
C424 C 0.87634 0.06686 0.60269 0.0
C425 C 0.83979 0.09841 0.59401 0.0
H426 H 0.78446 0.16646 0.57554 0.0
H427 H 0.83057 0.24871 0.56345 0.0
H428 H 0.06293 0.04953 0.61967 0.0
H429 H 0.96025 0.01584 0.61808 0.0
H430 H 0.85956 0.02849 0.60765 0.0
H431 H 0.7955 0.08368 0.59238 0.0
Mn432 Mn 0.7374 0.86068 0.45212 0.0
Mn433 Mn 0.73007 0.96889 0.42929 0.0
C434 C 0.81839 0.91765 0.4481 0.0
C435 C 0.7247 0.82949 0.474 0.0
C436 C 0.73711 0.83964 0.42238 0.0
O437 O 0.65006 0.87145 0.44911 0.0
O438 O 0.65234 0.95417 0.43689 0.0
C439 C 0.69755 0.06987 0.44613 0.0
N440 N 0.73329 0.04519 0.43692 0.0
C441 C 0.78669 0.13479 0.43429 0.0
C442 C 0.74983 0.16142 0.44361 0.0
C443 C 0.70529 0.1287 0.44961 0.0
C444 C 0.77652 0.07618 0.43113 0.0
H445 H 0.66363 0.04473 0.4508 0.0
C446 C 0.62558 0.91527 0.44363 0.0
O447 O 0.72559 0.79255 0.4642 0.0
O448 O 0.72878 0.88433 0.47106 0.0
N449 N 0.80301 0.98841 0.42124 0.0
C450 C 0.8392 0.95428 0.41386 0.0
C451 C 0.88867 0.97897 0.40794 0.0
C452 C 0.90013 0.03875 0.40951 0.0
C453 C 0.86218 0.07315 0.41712 0.0
C454 C 0.81347 0.04604 0.42278 0.0
H455 H 0.83053 0.9086 0.41256 0.0
O456 O 0.82353 0.86716 0.45377 0.0
O457 O 0.76585 0.93425 0.44515 0.0
O458 O 0.74648 0.81976 0.43401 0.0
O459 O 0.72712 0.89329 0.41992 0.0
C460 C 0.87195 0.13274 0.41974 0.0
C461 C 0.83424 0.16354 0.42833 0.0
H462 H 0.75596 0.20665 0.4464 0.0
H463 H 0.67706 0.14875 0.45692 0.0
H464 H 0.91769 0.95183 0.40216 0.0
H465 H 0.93857 0.05763 0.40501 0.0
H466 H 0.90925 0.15489 0.4155 0.0
H467 H 0.84306 0.20894 0.43054 0.0
Mn468 Mn 0.14963 0.25845 0.69836 0.0
Mn469 Mn 0.03387 0.24441 0.67768 0.0
C470 C 0.09295 0.3389 0.69345 0.0
C471 C 0.18896 0.25739 0.71975 0.0
C472 C 0.16044 0.24035 0.66865 0.0
O473 O 0.13429 0.1709 0.69811 0.0
O474 O 0.04821 0.17013 0.68703 0.0
C475 C 0.93584 0.22342 0.69622 0.0
N476 N 0.95979 0.25422 0.68604 0.0
C477 C 0.87196 0.31031 0.68324 0.0
C478 C 0.84604 0.27851 0.69356 0.0
C479 C 0.87825 0.2351 0.70012 0.0
C480 C 0.92921 0.29616 0.67966 0.0
H481 H 0.96067 0.19058 0.70134 0.0
C482 C 0.08806 0.14559 0.69397 0.0
O483 O 0.2217 0.25066 0.70935 0.0
O484 O 0.13331 0.26188 0.71779 0.0
N485 N 0.01547 0.31451 0.66829 0.0
C486 C 0.04957 0.34641 0.65995 0.0
C487 C 0.02573 0.39479 0.65338 0.0
C488 C 0.96704 0.40977 0.65541 0.0
C489 C 0.93288 0.37649 0.66411 0.0
C490 C 0.95896 0.32851 0.67032 0.0
H491 H 0.09459 0.33509 0.65836 0.0
O492 O 0.14613 0.34506 0.6976 0.0
O493 O 0.07439 0.28573 0.69209 0.0
O494 O 0.1848 0.2545 0.67956 0.0
O495 O 0.10576 0.23316 0.66735 0.0
C496 C 0.87454 0.39013 0.66719 0.0
C497 C 0.84406 0.35699 0.67673 0.0
H498 H 0.80188 0.28786 0.69671 0.0
H499 H 0.85881 0.21087 0.7082 0.0
H500 H 0.05255 0.42037 0.64674 0.0
H501 H 0.94881 0.44726 0.65038 0.0
H502 H 0.85318 0.42691 0.66252 0.0
H503 H 0.79973 0.36884 0.67926 0.0
Mn504 Mn 0.71534 0.64528 0.94883 0.0
Mn505 Mn 0.71695 0.5481 0.92339 0.0
C506 C 0.62924 0.6006 0.9423 0.0
C507 C 0.72247 0.66242 0.97182 0.0
C508 C 0.73124 0.67928 0.9199 0.0
O509 O 0.80042 0.62139 0.94755 0.0
O510 O 0.79347 0.54898 0.93236 0.0
C511 C 0.73432 0.43509 0.93709 0.0
N512 N 0.70319 0.46922 0.9286 0.0
C513 C 0.63995 0.38925 0.92287 0.0
C514 C 0.6716 0.35315 0.93149 0.0
C515 C 0.71881 0.37626 0.93867 0.0
C516 C 0.65759 0.44744 0.92166 0.0
H517 H 0.77037 0.45276 0.94268 0.0
C518 C 0.82168 0.57831 0.94109 0.0
O519 O 0.73167 0.70404 0.96332 0.0
O520 O 0.7108 0.61151 0.96693 0.0
N521 N 0.64443 0.54241 0.91413 0.0
C522 C 0.61559 0.58417 0.90713 0.0
C523 C 0.56657 0.56872 0.89958 0.0
C524 C 0.54758 0.51053 0.89935 0.0
C525 C 0.57704 0.46852 0.90691 0.0
C526 C 0.62629 0.48634 0.91404 0.0
H527 H 0.63033 0.62871 0.90719 0.0
O528 O 0.62859 0.65042 0.94845 0.0
O529 O 0.68052 0.57958 0.93959 0.0
O530 O 0.7228 0.69563 0.93187 0.0
O531 O 0.73173 0.62616 0.91624 0.0
C532 C 0.55943 0.40975 0.90767 0.0
C533 C 0.59072 0.3702 0.9157 0.0
H534 H 0.65959 0.30784 0.9328 0.0
H535 H 0.74314 0.34878 0.94542 0.0
H536 H 0.54381 0.60147 0.89384 0.0
H537 H 0.51051 0.4986 0.89329 0.0
H538 H 0.52142 0.39471 0.90228 0.0
H539 H 0.57612 0.32539 0.91641 0.0
Mn540 Mn 0.36706 0.22887 0.20008 0.0
Mn541 Mn 0.50336 0.22914 0.18738 0.0
C542 C 0.40966 0.14217 0.19412 0.0
C543 C 0.31225 0.23009 0.21962 0.0
C544 C 0.39512 0.25556 0.17102 0.0
O545 O 0.39552 0.31139 0.20354 0.0
O546 O 0.4887 0.30207 0.1972 0.0
C547 C 0.56317 0.22276 0.2134 0.0
N548 N 0.55416 0.20085 0.20098 0.0
C549 C 0.62025 0.12136 0.20503 0.0
C550 C 0.63054 0.14328 0.21783 0.0
C551 C 0.60172 0.1941 0.22205 0.0
C552 C 0.58065 0.15128 0.19694 0.0
H553 H 0.54086 0.26162 0.21672 0.0
C554 C 0.44723 0.3309 0.20249 0.0
O555 O 0.28954 0.24804 0.2085 0.0
O556 O 0.36575 0.21281 0.21934 0.0
N557 N 0.52683 0.1618 0.17747 0.0
C558 C 0.51715 0.1504 0.16435 0.0
C559 C 0.54604 0.10352 0.15821 0.0
C560 C 0.58574 0.06972 0.16553 0.0
C561 C 0.59693 0.08378 0.17885 0.0
C562 C 0.56746 0.13156 0.18436 0.0
H563 H 0.48779 0.17699 0.15857 0.0
O564 O 0.35415 0.14432 0.19641 0.0
O565 O 0.4388 0.18975 0.19621 0.0
O566 O 0.35692 0.24633 0.1801 0.0
O567 O 0.45044 0.25522 0.17298 0.0
C568 C 0.63689 0.05288 0.1868 0.0
C569 C 0.64797 0.07123 0.19995 0.0
H570 H 0.66054 0.12151 0.2245 0.0
H571 H 0.60924 0.21117 0.23193 0.0
H572 H 0.53787 0.09359 0.14786 0.0
H573 H 0.60766 0.03337 0.16079 0.0
H574 H 0.65949 0.01509 0.18289 0.0
H575 H 0.67869 0.04707 0.20599 0.0
H576 H 0.88493 0.0241 0.32122 0.0
H577 H 0.93164 0.84276 0.32519 0.0
H578 H 0.03522 0.86908 0.32488 0.0
H579 H 0.11131 0.94456 0.32509 0.0
H580 H 0.06424 0.12525 0.31982 0.0
H581 H 0.96109 0.09822 0.31894 0.0
C582 C 0.91778 0.99026 0.32187 0.0
C583 C 0.90095 0.93167 0.32338 0.0
C584 C 0.97675 0.00568 0.32153 0.0
C585 C 0.94378 0.88812 0.32403 0.0
C586 C 0.00282 0.90321 0.32392 0.0
C587 C 0.07849 0.97796 0.32365 0.0
C588 C 0.09506 0.0369 0.32268 0.0
C589 C 0.01965 0.96197 0.32293 0.0
C590 C 0.05233 0.07967 0.3206 0.0
C591 C 0.9935 0.06424 0.32015 0.0
H592 H 0.01465 0.59556 0.56378 0.0
H593 H 0.84311 0.54847 0.57745 0.0
H594 H 0.87034 0.44504 0.57683 0.0
H595 H 0.94683 0.3718 0.57554 0.0
H596 H 0.11963 0.41877 0.5623 0.0
H597 H 0.08807 0.52019 0.55972 0.0
C598 C 0.98317 0.56256 0.56648 0.0
C599 C 0.92757 0.5789 0.57093 0.0
C600 C -0.00037 0.50406 0.56637 0.0
C601 C 0.88619 0.53624 0.57403 0.0
C602 C 0.90196 0.4775 0.57379 0.0
C603 C 0.97761 0.40388 0.57193 0.0
C604 C 0.03584 0.38821 0.56936 0.0
C605 C 0.95923 0.4614 0.57049 0.0
C606 C 0.07479 0.4301 0.56447 0.0
C607 C 0.05678 0.48787 0.563 0.0
H608 H 0.61142 0.47193 0.83216 0.0
H609 H 0.57404 0.63206 0.81119 0.0
H610 H 0.47628 0.59617 0.80604 0.0
H611 H 0.39964 0.52353 0.80936 0.0
H612 H 0.43572 0.36563 0.83097 0.0
H613 H 0.53798 0.39511 0.83341 0.0
C614 C 0.5822 0.4991 0.8264 0.0
C615 C 0.59967 0.55516 0.82227 0.0
C616 C 0.52661 0.47806 0.82339 0.0
C617 C 0.5614 0.58914 0.81463 0.0
C618 C 0.50571 0.56854 0.81163 0.0
C619 C 0.43026 0.49519 0.81438 0.0
C620 C 0.41076 0.44294 0.82009 0.0
C621 C 0.48768 0.51361 0.81618 0.0
C622 C 0.45043 0.40577 0.8264 0.0
C623 C 0.50838 0.42312 0.82797 0.0
H624 H 0.37518 0.05559 0.07389 0.0
H625 H 0.49583 0.09575 0.04244 0.0
H626 H 0.52074 0.99303 0.0401 0.0
H627 H 0.52092 0.89513 0.04972 0.0
H628 H 0.40141 0.85452 0.08152 0.0
H629 H 0.3627 0.95331 0.08084 0.0
C630 C 0.40519 0.0413 0.06622 0.0
C631 C 0.43438 0.08273 0.05849 0.0
C632 C 0.42044 0.98217 0.06517 0.0
C633 C 0.47363 0.06437 0.04864 0.0
C634 C 0.48804 0.00568 0.04732 0.0
C635 C 0.48579 0.90764 0.05635 0.0
C636 C 0.46522 0.86803 0.06586 0.0
C637 C 0.46397 0.96468 0.05601 0.0
C638 C 0.41868 0.88442 0.07419 0.0
C639 C 0.39649 0.94102 0.07385 0.0
H640 H 0.08178 0.52963 0.9567 0.0
H641 H 0.0447 0.36711 0.93692 0.0
H642 H 0.94231 0.39614 0.9344 0.0
H643 H 0.86856 0.47298 0.93524 0.0
H644 H 0.90701 0.63701 0.95459 0.0
H645 H 0.00537 0.60261 0.9596 0.0
C646 C 0.05097 0.50026 0.95205 0.0
C647 C 0.07015 0.44679 0.94687 0.0
C648 C 0.99345 0.51816 0.95027 0.0
C649 C 0.03023 0.4083 0.94106 0.0
C650 C 0.97219 0.42531 0.93945 0.0
C651 C 0.89819 0.5013 0.94061 0.0
C652 C 0.88082 0.55794 0.94435 0.0
C653 C 0.95411 0.48108 0.94356 0.0
C654 C 0.91958 0.59354 0.95148 0.0
C655 C 0.9756 0.57382 0.95439 0.0
H656 H 0.55389 0.38043 0.20526 0.0
H657 H 0.36997 0.41687 0.20937 0.0
H658 H 0.39153 0.52018 0.21256 0.0
H659 H 0.46071 0.60056 0.21082 0.0
H660 H 0.64394 0.56522 0.20534 0.0
H661 H 0.62452 0.46034 0.20632 0.0
C662 C 0.51843 0.4108 0.20698 0.0
C663 C 0.46023 0.3912 0.20673 0.0
C664 C 0.53101 0.47014 0.2085 0.0
C665 C 0.41504 0.43089 0.20934 0.0
C666 C 0.42733 0.48997 0.21112 0.0
C667 C 0.49661 0.56995 0.21001 0.0
C668 C 0.55351 0.5904 0.20769 0.0
C669 C 0.48488 0.51018 0.21019 0.0
C670 C 0.59973 0.55043 0.20702 0.0
C671 C 0.58855 0.49056 0.20748 0.0
H672 H 0.36424 0.95253 0.43118 0.0
H673 H 0.39859 0.11427 0.45187 0.0
H674 H 0.49622 0.07947 0.45756 0.0
H675 H 0.57323 0.00609 0.45519 0.0
H676 H 0.53911 0.84552 0.43434 0.0
H677 H 0.4377 0.87563 0.43075 0.0
C678 C 0.39275 0.98029 0.437 0.0
C679 C 0.37442 0.03636 0.44094 0.0
C680 C 0.44802 0.95965 0.44041 0.0
C681 C 0.41189 0.07124 0.4486 0.0
C682 C 0.46748 0.05126 0.45191 0.0
C683 C 0.54313 0.97738 0.45009 0.0
C684 C 0.56289 0.92397 0.44497 0.0
C685 C 0.48609 -0.0041 0.44772 0.0
C686 C 0.52404 0.88647 0.43849 0.0
C687 C 0.46662 0.90413 0.43627 0.0
H688 H 0.99347 0.0982 0.70516 0.0
H689 H 0.16139 0.05577 0.68862 0.0
H690 H 0.13356 0.95267 0.68741 0.0
H691 H 0.05667 0.87956 0.68791 0.0
H692 H 0.88787 0.92148 0.70434 0.0
H693 H 0.92054 0.02152 0.70854 0.0
C694 C 0.02423 0.0661 0.70154 0.0
C695 C 0.07893 0.0839 0.69682 0.0
C696 C 0.00728 0.0078 0.70057 0.0
C697 C 0.11919 0.04241 0.69236 0.0
C698 C 0.10296 0.98389 0.69151 0.0
C699 C 0.02706 0.91013 0.69257 0.0
C700 C 0.96955 0.89349 0.69561 0.0
C701 C 0.04628 0.96679 0.69506 0.0
C702 C 0.93211 0.93356 0.70179 0.0
C703 C 0.9508 0.99054 0.70421 0.0
H704 H 0.61498 0.00779 0.31957 0.0
H705 H 0.54159 0.83888 0.32738 0.0
H706 H 0.44382 0.88034 0.32644 0.0
H707 H 0.37978 0.96584 0.32289 0.0
H708 H 0.45469 0.13748 0.32282 0.0
H709 H 0.55173 0.09502 0.32106 0.0
C710 C 0.57825 0.98105 0.32233 0.0
C711 C 0.58626 0.92126 0.32447 0.0
C712 C 0.52244 0.00593 0.32318 0.0
C713 C 0.53695 0.8856 0.32618 0.0
C714 C 0.48092 0.90923 0.32575 0.0
C715 C 0.41708 0.99392 0.32398 0.0
C716 C 0.40946 0.05454 0.32402 0.0
C717 C 0.47316 0.96952 0.32447 0.0
C718 C 0.45907 0.09049 0.32331 0.0
C719 C 0.51477 0.06636 0.32239 0.0
H720 H 0.88354 0.94669 0.57427 0.0
H721 H 0.0299 0.8342 0.56819 0.0
H722 H 0.09746 0.9161 0.57074 0.0
H723 H 0.11239 0.0227 0.57436 0.0
H724 H 0.96526 0.13205 0.56609 0.0
H725 H 0.89868 0.05013 0.56886 0.0
C726 C 0.93031 0.94005 0.57375 0.0
C727 C 0.9532 0.88349 0.57342 0.0
C728 C 0.96753 0.98802 0.57264 0.0
C729 C 0.0129 0.87617 0.571 0.0
C730 C 0.05104 0.9234 0.57179 0.0
C731 C 0.06567 0.02847 0.57341 0.0
C732 C 0.04205 0.08458 0.57223 0.0
C733 C 0.02863 0.97984 0.57292 0.0
C734 C 0.98269 0.09064 0.56924 0.0
C735 C 0.94498 0.04353 0.57035 0.0
H736 H 0.04406 0.40909 0.82414 0.0
H737 H 0.14933 0.55498 0.81265 0.0
H738 H 0.06717 0.62184 0.81635 0.0
H739 H 0.96418 0.63663 0.82364 0.0
H740 H 0.85436 0.48617 0.82119 0.0
H741 H 0.93801 0.42135 0.82259 0.0
C742 C 0.04918 0.45567 0.82264 0.0
C743 C 0.1043 0.47908 0.82007 0.0
C744 C 0.00037 0.49197 0.82284 0.0
C745 C 0.10901 0.53804 0.81659 0.0
C746 C 0.06168 0.57569 0.81828 0.0
C747 C 0.95878 0.58964 0.82369 0.0
C748 C 0.90293 0.56513 0.82489 0.0
C749 C 0.00726 0.55309 0.82186 0.0
C750 C 0.89653 0.50489 0.82304 0.0
C751 C 0.94456 0.46812 0.82312 0.0
H752 H 0.56021 0.57606 0.05332 0.0
H753 H 0.60611 0.56968 0.09474 0.0
H754 H 0.56734 0.47015 0.0963 0.0
H755 H 0.50084 0.3961 0.08642 0.0
H756 H 0.47824 0.3917 0.04401 0.0
H757 H 0.52478 0.4874 0.04213 0.0
C758 C 0.56274 0.55202 0.06259 0.0
C759 C 0.58159 0.58002 0.07416 0.0
C760 C 0.54364 0.49441 0.06317 0.0
C761 C 0.58857 0.54876 0.08595 0.0
C762 C 0.56693 0.49209 0.08678 0.0
C763 C 0.51057 0.41366 0.07671 0.0
C764 C 0.48885 0.38627 0.06533 0.0
C765 C 0.54146 0.46587 0.07559 0.0
C766 C 0.49633 0.41197 0.05283 0.0
C767 C 0.52269 0.46641 0.05176 0.0
H768 H 0.43603 0.40656 0.94346 0.0
H769 H 0.33214 0.55138 0.9565 0.0
H770 H 0.41451 0.61812 0.95319 0.0
H771 H 0.51612 0.63395 0.94538 0.0
H772 H 0.62637 0.48351 0.9453 0.0
H773 H 0.54259 0.41879 0.94391 0.0
C774 C 0.43135 0.45289 0.94541 0.0
C775 C 0.37665 0.47613 0.94849 0.0
C776 C 0.48018 0.48924 0.94506 0.0
C777 C 0.37236 0.53462 0.95243 0.0
C778 C 0.41968 0.57227 0.95086 0.0
C779 C 0.52158 0.58703 0.94479 0.0
C780 C 0.57726 0.56297 0.94289 0.0
C781 C 0.47349 0.55015 0.94668 0.0
C782 C 0.58398 0.50243 0.94395 0.0
C783 C 0.53593 0.46559 0.94395 0.0
H784 H 0.54381 0.91492 0.17848 0.0
H785 H 0.5484 0.89699 0.22103 0.0
H786 H 0.49873 0.99093 0.22361 0.0
H787 H 0.45384 0.07756 0.2135 0.0
H788 H 0.42251 0.08021 0.17137 0.0
H789 H 0.48119 0.99153 0.16858 0.0
C790 C 0.53171 0.93067 0.18825 0.0
C791 C 0.54743 0.89903 0.19954 0.0
C792 C 0.49865 0.98152 0.18962 0.0
C793 C 0.53503 0.92077 0.21225 0.0
C794 C 0.50678 0.97409 0.21371 0.0
C795 C 0.45964 0.05801 0.20376 0.0
C796 C 0.43797 0.08616 0.1925 0.0
C797 C 0.48825 0.00465 0.20245 0.0
C798 C 0.44195 0.05984 0.18 0.0
C799 C 0.47473 0.00913 0.17847 0.0
H800 H 0.9268 0.88346 0.4419 0.0
H801 H 0.82646 0.0333 0.45354 0.0
H802 H 0.9094 0.09753 0.44883 0.0
H803 H 0.00981 0.10977 0.44044 0.0
H804 H 0.11813 0.95766 0.44048 0.0
H805 H 0.03325 0.89422 0.44042 0.0
C806 C 0.92311 0.93029 0.44324 0.0
C807 C 0.86943 0.9551 0.4466 0.0
C808 C 0.97213 0.96579 0.44179 0.0
C809 C 0.86616 0.0147 0.44958 0.0
C810 C 0.91367 0.05105 0.44713 0.0
C811 C 0.01463 0.06272 0.44016 0.0
C812 C 0.06979 0.03768 0.43816 0.0
C813 C 0.96647 0.02705 0.44279 0.0
C814 C 0.07583 0.97712 0.43939 0.0
C815 C 0.02725 0.9411 0.44016 0.0
H816 H 0.12298 0.45077 0.68915 0.0
H817 H 0.97921 0.34321 0.70084 0.0
H818 H 0.91131 0.42462 0.69785 0.0
H819 H 0.89488 0.52816 0.69162 0.0
H820 H 0.04414 0.63932 0.6945 0.0
H821 H 0.10972 0.5567 0.69177 0.0
C822 C 0.07661 0.44506 0.6908 0.0
C823 C 0.0539 0.38945 0.69315 0.0
C824 C 0.03984 0.49358 0.6912 0.0
C825 C -0.00463 0.38386 0.69692 0.0
C826 C 0.95714 0.4308 0.69568 0.0
C827 C 0.94175 0.53414 0.69135 0.0
C828 C 0.96545 0.59044 0.69073 0.0
C829 C 0.97893 0.48586 0.69244 0.0
C830 C 0.02575 0.59728 0.69227 0.0
C831 C 0.06304 0.54972 0.69141 0.0
H832 H 0.16127 0.19491 0.35966 0.0
H833 H 0.34793 0.20077 0.35584 0.0
H834 H 0.35775 0.21739 0.37971 0.0
H835 H 0.31271 0.19851 0.40171 0.0
H836 H 0.1261 0.20515 0.40549 0.0
H837 H 0.11627 0.21789 0.38152 0.0
C838 C 0.20381 0.20368 0.36392 0.0
C839 C 0.25393 0.19483 0.35615 0.0
C840 C 0.20904 0.21425 0.37767 0.0
C841 C 0.30879 0.20654 0.36173 0.0
C842 C 0.31448 0.2154 0.37542 0.0
C843 C 0.27018 0.20683 0.3974 0.0
C844 C 0.22008 0.19899 0.40523 0.0
C845 C 0.26496 0.21479 0.38358 0.0
C846 C 0.16525 0.2102 0.39959 0.0
C847 C 0.15955 0.21661 0.38582 0.0
H848 H 0.7986 0.8241 0.61383 0.0
H849 H 0.8003 0.63761 0.60903 0.0
H850 H 0.78257 0.6248 0.63278 0.0
H851 H 0.79647 0.66611 0.65507 0.0
H852 H 0.81267 0.85181 0.65985 0.0
H853 H 0.79135 0.8662 0.63629 0.0
C854 C 0.79227 0.78085 0.61794 0.0
C855 C 0.80081 0.73182 0.60977 0.0
C856 C 0.78636 0.77394 0.63177 0.0
C857 C 0.79322 0.6759 0.61515 0.0
C858 C 0.78397 0.66862 0.62877 0.0
C859 C 0.79225 0.70977 0.65104 0.0
C860 C 0.80625 0.75782 0.65911 0.0
C861 C 0.78471 0.7172 0.63727 0.0
C862 C 0.8013 0.81425 0.65383 0.0
C863 C 0.79027 0.82235 0.64029 0.0
H864 H 0.32311 0.34122 0.86413 0.0
H865 H 0.13804 0.33871 0.85711 0.0
H866 H 0.11997 0.32739 0.88092 0.0
H867 H 0.15754 0.34223 0.90375 0.0
H868 H 0.34249 0.33568 0.91076 0.0
H869 H 0.36037 0.32481 0.88693 0.0
C870 C 0.27904 0.33519 0.86778 0.0
C871 C 0.23189 0.34153 0.859 0.0
C872 C 0.26909 0.32802 0.88147 0.0
C873 C 0.17491 0.33388 0.86375 0.0
C874 C 0.16457 0.32806 0.87738 0.0
C875 C 0.20148 0.33538 0.90008 0.0
C876 C 0.24874 0.34056 0.90888 0.0
C877 C 0.2113 0.3285 0.88637 0.0
C878 C 0.30555 0.33185 0.90411 0.0
C879 C 0.31579 0.32629 0.89047 0.0
H880 H 0.62556 0.67559 0.11338 0.0
H881 H 0.58809 0.85886 0.10987 0.0
H882 H 0.60096 0.87116 0.13394 0.0
H883 H 0.60675 0.82608 0.15619 0.0
H884 H 0.63447 0.641 0.15968 0.0
H885 H 0.64213 0.63249 0.13543 0.0
C886 C 0.62211 0.71848 0.1179 0.0
C887 C 0.6066 0.76647 0.10998 0.0
C888 C 0.627 0.7244 0.13174 0.0
C889 C 0.60111 0.82172 0.11581 0.0
C890 C 0.60776 0.82847 0.12957 0.0
C891 C 0.61613 0.78428 0.15159 0.0
C892 C 0.62058 0.73419 0.15956 0.0
C893 C 0.61839 0.77968 0.13767 0.0
C894 C 0.63169 0.68 0.15364 0.0
C895 C 0.63563 0.6752 0.13981 0.0
H896 H 0.82547 0.7199 0.86538 0.0
H897 H 0.64188 0.71362 0.85684 0.0
H898 H 0.6195 0.73586 0.88006 0.0
H899 H 0.65244 0.7272 0.90324 0.0
H900 H 0.83589 0.71918 0.9118 0.0
H901 H 0.85855 0.73526 0.88838 0.0
C902 C 0.78071 0.7264 0.86851 0.0
C903 C 0.73533 0.7151 0.85948 0.0
C904 C 0.76834 0.73571 0.88204 0.0
C905 C 0.67745 0.72295 0.86361 0.0
C906 C 0.6647 0.73471 0.87695 0.0
C907 C 0.69729 0.73196 0.90003 0.0
C908 C 0.74246 0.72139 0.90917 0.0
C909 C 0.70974 0.73693 0.88638 0.0
C910 C 0.80043 0.72774 0.90496 0.0
C911 C 0.81334 0.73569 0.8915 0.0
H912 H 0.42384 0.33284 0.15178 0.0
H913 H 0.32927 0.17373 0.15882 0.0
H914 H 0.32369 0.15533 0.13487 0.0
H915 H 0.35761 0.17874 0.11197 0.0
H916 H 0.44539 0.342 0.10514 0.0
H917 H 0.44156 0.36494 0.12881 0.0
C918 C 0.40024 0.2953 0.14801 0.0
C919 C 0.3766 0.25498 0.15698 0.0
C920 C 0.3972 0.28511 0.13425 0.0
C921 C 0.34674 0.206 0.15205 0.0
C922 C 0.34431 0.19502 0.13836 0.0
C923 C 0.37495 0.21957 0.11571 0.0
C924 C 0.4037 0.25775 0.107 0.0
C925 C 0.37117 0.23328 0.12937 0.0
C926 C 0.42493 0.31117 0.11182 0.0
C927 C 0.42243 0.32449 0.12533 0.0
H928 H 0.82336 0.80716 0.36618 0.0
H929 H 0.63916 0.79381 0.35867 0.0
H930 H 0.62062 0.7801 0.38236 0.0
H931 H 0.65598 0.79894 0.4052 0.0
H932 H 0.84052 0.80257 0.41278 0.0
H933 H 0.86037 0.79102 0.38906 0.0
C934 C 0.77961 0.79799 0.36968 0.0
C935 C 0.73253 0.80242 0.36082 0.0
C936 C 0.76939 0.78938 0.38333 0.0
C937 C 0.67596 0.79064 0.36538 0.0
C938 C 0.66528 0.78345 0.37895 0.0
C939 C 0.70043 0.79366 0.40172 0.0
C940 C 0.74678 0.80277 0.4106 0.0
C941 C 0.71141 0.78653 0.38807 0.0
C942 C 0.80421 0.79595 0.40606 0.0
C943 C 0.81558 0.79013 0.39247 0.0
H944 H 0.19618 0.32402 0.65169 0.0
H945 H 0.19534 0.1384 0.65793 0.0
H946 H 0.21037 0.12176 0.63418 0.0
H947 H 0.19601 0.15972 0.6116 0.0
H948 H 0.18281 0.34482 0.6054 0.0
H949 H 0.20295 0.3626 0.62892 0.0
C950 C 0.20216 0.28014 0.64788 0.0
C951 C 0.19489 0.23244 0.65646 0.0
C952 C 0.20724 0.27103 0.6341 0.0
C953 C 0.20165 0.17567 0.65147 0.0
C954 C 0.20938 0.1662 0.63787 0.0
C955 C 0.20052 0.20392 0.61533 0.0
C956 C 0.18814 0.25093 0.60686 0.0
C957 C 0.20832 0.21343 0.62902 0.0
C958 C 0.19313 0.30808 0.61174 0.0
C959 C 0.20362 0.31814 0.62524 0.0
H960 H 0.24109 0.24076 0.27953 0.0
H961 H 0.24999 0.05414 0.27399 0.0
H962 H 0.2607 0.06712 0.25016 0.0
H963 H 0.28141 0.1309 0.23133 0.0
H964 H 0.27571 0.3172 0.23623 0.0
H965 H 0.24882 0.30529 0.25973 0.0
C966 C 0.24425 0.20302 0.27306 0.0
C967 C 0.24569 0.14658 0.2786 0.0
C968 C 0.25109 0.21077 0.25923 0.0
C969 C 0.24959 0.09811 0.27006 0.0
C970 C 0.25568 0.1054 0.2564 0.0
C971 C 0.27218 0.16879 0.23747 0.0
C972 C 0.27955 0.22471 0.23212 0.0
C973 C 0.25838 0.16143 0.25093 0.0
C974 C 0.26893 0.27372 0.24013 0.0
C975 C 0.25438 0.26682 0.25359 0.0
H976 H 0.79242 0.74512 0.48445 0.0
H977 H 0.66376 0.87414 0.49482 0.0
H978 H 0.67759 0.85269 0.51847 0.0
H979 H 0.73391 0.80445 0.53623 0.0
H980 H 0.87275 0.68664 0.52573 0.0
H981 H 0.8475 0.69576 0.50217 0.0
C982 C 0.76655 0.76744 0.49191 0.0
C983 C 0.72653 0.81044 0.48798 0.0
C984 C 0.77719 0.75718 0.50547 0.0
C985 C 0.69441 0.84048 0.49768 0.0
C986 C 0.70254 0.82841 0.51118 0.0
C987 C 0.75773 0.77999 0.52876 0.0
C988 C 0.80464 0.74446 0.53263 0.0
C989 C 0.74485 0.78788 0.51521 0.0
C990 C 0.83631 0.71403 0.52291 0.0
C991 C 0.82196 0.71936 0.50947 0.0
H992 H 0.15235 0.21357 0.74334 0.0
H993 H 0.28028 0.32725 0.72578 0.0
H994 H 0.3105 0.36052 0.74787 0.0
H995 H 0.2935 0.36397 0.77216 0.0
H996 H 0.17271 0.2428 0.78978 0.0
H997 H 0.14706 0.20518 0.76779 0.0
C998 C 0.18764 0.2447 0.74442 0.0
C999 C 0.21391 0.26827 0.73303 0.0
C1000 C 0.2057 0.26254 0.75715 0.0
C1001 C 0.25978 0.30831 0.73446 0.0
C1002 C 0.27674 0.32766 0.74707 0.0
C1003 C 0.2624 0.32863 0.77114 0.0
C1004 C 0.23463 0.30642 0.7825 0.0
C1005 C 0.24902 0.30611 0.75848 0.0
C1006 C 0.19476 0.26032 0.78115 0.0
C1007 C 0.17983 0.23906 0.76858 0.0
H1008 H 0.72248 0.76617 0.98589 0.0
H1009 H 0.71832 0.579 0.99071 0.0
H1010 H 0.70104 0.59031 0.01435 0.0
H1011 H 0.67604 0.65196 0.0332 0.0
H1012 H 0.679 0.83884 0.02942 0.0
H1013 H 0.70864 0.82937 1.00596 0.0
C1014 C 0.71879 0.728 0.99218 0.0
C1015 C 0.72088 0.67176 0.98644 0.0
C1016 C 0.70834 0.73475 1.00595 0.0
C1017 C 0.71619 0.62277 0.99476 0.0
C1018 C 0.70628 0.6291 0.00833 0.0
C1019 C 0.68445 0.69066 0.02729 0.0
C1020 C 0.67544 0.74593 0.03293 0.0
C1021 C 0.70064 0.68468 0.01394 0.0
C1022 C 0.68632 0.79584 0.02527 0.0
C1023 C 0.70268 0.79029 0.01185 0.0
H1024 H 0.3185 0.20455 0.02324 0.0
H1025 H 0.24148 0.35382 0.04239 0.0
H1026 H 0.20201 0.387 0.02104 0.0
H1027 H 0.20246 0.38027 0.99646 0.0
H1028 H 0.27544 0.22762 0.97766 0.0
H1029 H 0.3026 0.18837 0.99932 0.0
C1030 C 0.29136 0.24325 0.02275 0.0
C1031 C 0.28262 0.27677 0.03426 0.0
C1032 C 0.26886 0.26177 0.01049 0.0
C1033 C 0.24792 0.32705 0.03362 0.0
C1034 C 0.22601 0.34632 0.0214 0.0
C1035 C 0.22313 0.33784 0.99715 0.0
C1036 C 0.2377 0.30728 0.98548 0.0
C1037 C 0.23811 0.31513 0.00969 0.0
C1038 C 0.26384 0.25205 0.9865 0.0
C1039 C 0.27972 0.22969 0.99888 0.0
H1040 H 0.78066 0.86689 0.2745 0.0
H1041 H 0.71809 0.70217 0.28937 0.0
H1042 H 0.70323 0.66729 0.26665 0.0
H1043 H 0.69402 0.68976 0.24274 0.0
H1044 H 0.7597 0.85272 0.22778 0.0
H1045 H 0.78869 0.88192 0.25026 0.0
C1046 C 0.76491 0.82295 0.27272 0.0
C1047 C 0.74962 0.78743 0.28356 0.0
C1048 C 0.75712 0.80296 0.25962 0.0
C1049 C 0.73001 0.73034 0.28118 0.0
C1050 C 0.72126 0.71046 0.26819 0.0
C1051 C 0.71695 0.73052 0.24439 0.0
C1052 C 0.72557 0.76883 0.2337 0.0
C1053 C 0.73286 0.74709 0.25735 0.0
C1054 C 0.75394 0.82216 0.23588 0.0
C1055 C 0.76969 0.83916 0.24875 0.0
H1056 H 0.24919 0.22256 0.48458 0.0
H1057 H 0.13552 0.07259 0.48323 0.0
H1058 H 0.10701 0.08899 0.50616 0.0
H1059 H 0.11274 0.1456 0.52658 0.0
H1060 H 0.23233 0.28973 0.52953 0.0
H1061 H 0.26014 0.27627 0.5061 0.0
C1062 C 0.21847 0.19348 0.48937 0.0
C1063 C 0.19452 0.14646 0.48217 0.0
C1064 C 0.20305 0.20229 0.50283 0.0
C1065 C 0.15503 0.10883 0.48853 0.0
C1066 C 0.13834 0.1183 0.50165 0.0
C1067 C 0.14469 0.1743 0.52207 0.0
C1068 C 0.16978 0.21914 0.52964 0.0
C1069 C 0.16177 0.16492 0.50886 0.0
C1070 C 0.21219 0.25511 0.52381 0.0
C1071 C 0.22805 0.24736 0.51044 0.0
H1072 H 0.77628 0.76689 0.73742 0.0
H1073 H 0.92555 0.65225 0.73736 0.0
H1074 H 0.9051 0.62373 0.76013 0.0
H1075 H 0.84516 0.63006 0.78007 0.0
H1076 H 0.70154 0.75077 0.78167 0.0
H1077 H 0.71904 0.77813 0.75838 0.0
C1078 C 0.80434 0.73595 0.74245 0.0
C1079 C 0.85235 0.71173 0.73566 0.0
C1080 C 0.79312 0.72053 0.7558 0.0
C1081 C 0.8886 0.67195 0.74234 0.0
C1082 C 0.87679 0.65528 0.75537 0.0
C1083 C 0.81741 0.66209 0.77529 0.0
C1084 C 0.77155 0.68767 0.78246 0.0
C1085 C 0.82913 0.67899 0.76217 0.0
C1086 C 0.73687 0.73021 0.77628 0.0
C1087 C 0.74695 0.74584 0.76298 0.0
loop_
_geom_bond_atom_site_label_1
_geom_bond_atom_site_label_2
_geom_bond_distance
_geom_bond_site_symmetry_2
_ccdc_geom_bond_type
Mn0 O5 2.095 . S
Mn0 O15 2.162 . S
Mn0 O16 2.297 . S
Mn0 O24 2.385 . S
Mn0 O25 2.209 . S
Mn0 O26 2.094 . S
Mn1 O6 2.121 . S
Mn1 N8 2.257 1_545 S
Mn1 N17 2.282 . S
Mn1 O25 2.215 . S
Mn1 O27 2.117 . S
C2 O24 1.234 . S
C2 O25 1.283 . S
C3 O15 1.281 . S
C3 O16 1.236 . S
C4 O26 1.240 . S
C4 O27 1.264 . S
O5 Mn0 2.095 . S
O5 C14 1.250 . S
O6 Mn1 2.121 . S
O6 C14 1.258 . S
C7 N8 1.326 . S
C7 C11 1.460 . S
C7 H13 0.929 . S
N8 Mn1 2.257 1_565 S
N8 C7 1.326 . S
N8 C12 1.362 . S
C9 C10 1.258 . S
C9 C12 1.431 . S
C9 C29 1.449 . S
C10 C9 1.258 . S
C10 C11 1.477 . S
C10 H30 0.931 . S
C11 C7 1.460 . S
C11 C10 1.477 . S
C11 H31 0.930 . S
C12 N8 1.362 . S
C12 C9 1.431 . S
C12 C22 1.476 . S
H13 C7 0.929 . S
C14 O5 1.250 . S
C14 O6 1.258 . S
O15 Mn0 2.162 . S
O15 C3 1.281 . S
O16 Mn0 2.297 . S
O16 C3 1.236 . S
N17 Mn1 2.282 . S
N17 C18 1.328 . S
N17 C22 1.318 1_545 S
C18 N17 1.328 . S
C18 C19 1.457 . S
C18 H23 0.929 . S
C19 C18 1.457 . S
C19 C20 1.291 1_545 S
C19 H32 0.931 . S
C20 C19 1.291 1_565 S
C20 C21 1.373 . S
C20 H33 0.929 . S
C21 C20 1.373 . S
C21 C22 1.396 . S
C21 C28 1.403 . S
C22 C12 1.476 . S
C22 N17 1.318 1_565 S
C22 C21 1.396 . S
H23 C18 0.929 . S
O24 Mn0 2.385 . S
O24 C2 1.234 . S
O25 Mn0 2.209 . S
O25 Mn1 2.215 . S
O25 C2 1.283 . S
O26 Mn0 2.094 . S
O26 C4 1.240 . S
O27 Mn1 2.117 . S
O27 C4 1.264 . S
C28 C21 1.403 . S
C28 C29 1.399 . S
C28 H34 0.929 . S
C29 C9 1.449 . S
C29 C28 1.399 . S
C29 H35 0.930 . S
H30 C10 0.931 . S
H31 C11 0.930 . S
H32 C19 0.931 . S
H33 C20 0.929 . S
H34 C28 0.929 . S
H35 C29 0.930 . S
Mn36 O41 2.095 . S
Mn36 O51 2.162 . S
Mn36 O52 2.297 . S
Mn36 O60 2.385 . S
Mn36 O61 2.209 . S
Mn36 O62 2.094 . S
Mn37 O42 2.121 . S
Mn37 N44 2.257 1_655 S
Mn37 N53 2.282 . S
Mn37 O61 2.215 . S
Mn37 O63 2.117 . S
C38 O60 1.234 . S
C38 O61 1.283 . S
C39 O51 1.281 . S
C39 O52 1.236 . S
C40 O62 1.240 . S
C40 O63 1.264 . S
O41 Mn36 2.095 . S
O41 C50 1.250 . S
O42 Mn37 2.121 . S
O42 C50 1.258 . S
C43 N44 1.326 . S
C43 C47 1.460 . S
C43 H49 0.929 . S
N44 Mn37 2.257 1_455 S
N44 C43 1.326 . S
N44 C48 1.362 . S
C45 C46 1.258 . S
C45 C48 1.431 . S
C45 C65 1.449 . S
C46 C45 1.258 . S
C46 C47 1.477 . S
C46 H66 0.931 . S
C47 C43 1.460 . S
C47 C46 1.477 . S
C47 H67 0.930 . S
C48 N44 1.362 . S
C48 C45 1.431 . S
C48 C58 1.476 . S
H49 C43 0.929 . S
C50 O41 1.250 . S
C50 O42 1.258 . S
O51 Mn36 2.162 . S
O51 C39 1.281 . S
O52 Mn36 2.297 . S
O52 C39 1.236 . S
N53 Mn37 2.282 . S
N53 C54 1.328 . S
N53 C58 1.318 1_655 S
C54 N53 1.328 . S
C54 C55 1.457 . S
C54 H59 0.929 . S
C55 C54 1.457 . S
C55 C56 1.291 1_655 S
C55 H68 0.931 . S
C56 C55 1.291 1_455 S
C56 C57 1.373 . S
C56 H69 0.929 . S
C57 C56 1.373 . S
C57 C58 1.396 . S
C57 C64 1.403 . S
C58 C48 1.476 . S
C58 N53 1.318 1_455 S
C58 C57 1.396 . S
H59 C54 0.929 . S
O60 Mn36 2.385 . S
O60 C38 1.234 . S
O61 Mn36 2.209 . S
O61 Mn37 2.215 . S
O61 C38 1.283 . S
O62 Mn36 2.094 . S
O62 C40 1.240 . S
O63 Mn37 2.117 . S
O63 C40 1.264 . S
C64 C57 1.403 . S
C64 C65 1.399 . S
C64 H70 0.929 . S
C65 C45 1.449 . S
C65 C64 1.399 . S
C65 H71 0.930 . S
H66 C46 0.931 . S
H67 C47 0.930 . S
H68 C55 0.931 . S
H69 C56 0.929 . S
H70 C64 0.929 . S
H71 C65 0.930 . S
Mn72 O77 2.095 . S
Mn72 O87 2.162 . S
Mn72 O88 2.297 . S
Mn72 O96 2.385 . S
Mn72 O97 2.209 . S
Mn72 O98 2.094 . S
Mn73 O78 2.121 . S
Mn73 N80 2.257 . S
Mn73 N89 2.282 . S
Mn73 O97 2.215 . S
Mn73 O99 2.117 . S
C74 O96 1.234 . S
C74 O97 1.283 . S
C75 O87 1.281 . S
C75 O88 1.236 . S
C76 O98 1.240 . S
C76 O99 1.264 . S
O77 Mn72 2.095 . S
O77 C86 1.250 . S
O78 Mn73 2.121 . S
O78 C86 1.258 . S
C79 N80 1.326 . S
C79 C83 1.460 . S
C79 H85 0.929 . S
N80 Mn73 2.257 . S
N80 C79 1.326 . S
N80 C84 1.362 . S
C81 C82 1.258 . S
C81 C84 1.431 . S
C81 C101 1.449 . S
C82 C81 1.258 . S
C82 C83 1.477 . S
C82 H102 0.931 . S
C83 C79 1.460 . S
C83 C82 1.477 . S
C83 H103 0.930 . S
C84 N80 1.362 . S
C84 C81 1.431 . S
C84 C94 1.476 . S
H85 C79 0.929 . S
C86 O77 1.250 . S
C86 O78 1.258 . S
O87 Mn72 2.162 . S
O87 C75 1.281 . S
O88 Mn72 2.297 . S
O88 C75 1.236 . S
N89 Mn73 2.282 . S
N89 C90 1.328 . S
N89 C94 1.318 . S
C90 N89 1.328 . S
C90 C91 1.457 . S
C90 H95 0.929 . S
C91 C90 1.457 . S
C91 C92 1.291 . S
C91 H104 0.931 . S
C92 C91 1.291 . S
C92 C93 1.373 . S
C92 H105 0.929 . S
C93 C92 1.373 . S
C93 C94 1.396 . S
C93 C100 1.403 . S
C94 C84 1.476 . S
C94 N89 1.318 . S
C94 C93 1.396 . S
H95 C90 0.929 . S
O96 Mn72 2.385 . S
O96 C74 1.234 . S
O97 Mn72 2.209 . S
O97 Mn73 2.215 . S
O97 C74 1.283 . S
O98 Mn72 2.094 . S
O98 C76 1.240 . S
O99 Mn73 2.117 . S
O99 C76 1.264 . S
C100 C93 1.403 . S
C100 C101 1.399 . S
C100 H106 0.929 . S
C101 C81 1.449 . S
C101 C100 1.399 . S
C101 H107 0.930 . S
H102 C82 0.931 . S
H103 C83 0.930 . S
H104 C91 0.931 . S
H105 C92 0.929 . S
H106 C100 0.929 . S
H107 C101 0.930 . S
Mn108 O113 2.095 . S
Mn108 O123 2.162 . S
Mn108 O124 2.297 . S
Mn108 O132 2.385 . S
Mn108 O133 2.209 . S
Mn108 O134 2.094 . S
Mn109 O114 2.121 . S
Mn109 N116 2.257 . S
Mn109 N125 2.282 . S
Mn109 O133 2.215 . S
Mn109 O135 2.117 . S
C110 O132 1.234 . S
C110 O133 1.283 . S
C111 O123 1.281 . S
C111 O124 1.236 . S
C112 O134 1.240 . S
C112 O135 1.264 . S
O113 Mn108 2.095 . S
O113 C122 1.250 . S
O114 Mn109 2.121 . S
O114 C122 1.258 . S
C115 N116 1.326 . S
C115 C119 1.460 . S
C115 H121 0.929 . S
N116 Mn109 2.257 . S
N116 C115 1.326 . S
N116 C120 1.362 . S
C117 C118 1.258 . S
C117 C120 1.431 . S
C117 C137 1.449 . S
C118 C117 1.258 . S
C118 C119 1.477 . S
C118 H138 0.931 . S
C119 C115 1.460 . S
C119 C118 1.477 . S
C119 H139 0.930 . S
C120 N116 1.362 . S
C120 C117 1.431 . S
C120 C130 1.476 . S
H121 C115 0.929 . S
C122 O113 1.250 . S
C122 O114 1.258 . S
O123 Mn108 2.162 . S
O123 C111 1.281 . S
O124 Mn108 2.297 . S
O124 C111 1.236 . S
N125 Mn109 2.282 . S
N125 C126 1.328 . S
N125 C130 1.318 . S
C126 N125 1.328 . S
C126 C127 1.457 . S
C126 H131 0.929 . S
C127 C126 1.457 . S
C127 C128 1.291 . S
C127 H140 0.931 . S
C128 C127 1.291 . S
C128 C129 1.373 . S
C128 H141 0.929 . S
C129 C128 1.373 . S
C129 C130 1.396 . S
C129 C136 1.403 . S
C130 C120 1.476 . S
C130 N125 1.318 . S
C130 C129 1.396 . S
H131 C126 0.929 . S
O132 Mn108 2.385 . S
O132 C110 1.234 . S
O133 Mn108 2.209 . S
O133 Mn109 2.215 . S
O133 C110 1.283 . S
O134 Mn108 2.094 . S
O134 C112 1.240 . S
O135 Mn109 2.117 . S
O135 C112 1.264 . S
C136 C129 1.403 . S
C136 C137 1.399 . S
C136 H142 0.929 . S
C137 C117 1.449 . S
C137 C136 1.399 . S
C137 H143 0.930 . S
H138 C118 0.931 . S
H139 C119 0.930 . S
H140 C127 0.931 . S
H141 C128 0.929 . S
H142 C136 0.929 . S
H143 C137 0.930 . S
Mn144 O149 2.095 . S
Mn144 O159 2.162 . S
Mn144 O160 2.297 . S
Mn144 O168 2.385 . S
Mn144 O169 2.209 . S
Mn144 O170 2.094 . S
Mn145 O150 2.121 . S
Mn145 N152 2.257 . S
Mn145 N161 2.282 . S
Mn145 O169 2.215 . S
Mn145 O171 2.117 . S
C146 O168 1.234 . S
C146 O169 1.283 . S
C147 O159 1.281 . S
C147 O160 1.236 . S
C148 O170 1.240 . S
C148 O171 1.264 . S
O149 Mn144 2.095 . S
O149 C158 1.250 . S
O150 Mn145 2.121 . S
O150 C158 1.258 . S
C151 N152 1.326 . S
C151 C155 1.460 . S
C151 H157 0.929 . S
N152 Mn145 2.257 . S
N152 C151 1.326 . S
N152 C156 1.362 . S
C153 C154 1.258 . S
C153 C156 1.431 . S
C153 C173 1.449 . S
C154 C153 1.258 . S
C154 C155 1.477 . S
C154 H174 0.931 . S
C155 C151 1.460 . S
C155 C154 1.477 . S
C155 H175 0.930 . S
C156 N152 1.362 . S
C156 C153 1.431 . S
C156 C166 1.476 . S
H157 C151 0.929 . S
C158 O149 1.250 . S
C158 O150 1.258 . S
O159 Mn144 2.162 . S
O159 C147 1.281 . S
O160 Mn144 2.297 . S
O160 C147 1.236 . S
N161 Mn145 2.282 . S
N161 C162 1.328 . S
N161 C166 1.318 . S
C162 N161 1.328 . S
C162 C163 1.457 . S
C162 H167 0.929 . S
C163 C162 1.457 . S
C163 C164 1.291 . S
C163 H176 0.931 . S
C164 C163 1.291 . S
C164 C165 1.373 . S
C164 H177 0.929 . S
C165 C164 1.373 . S
C165 C166 1.396 . S
C165 C172 1.403 . S
C166 C156 1.476 . S
C166 N161 1.318 . S
C166 C165 1.396 . S
H167 C162 0.929 . S
O168 Mn144 2.385 . S
O168 C146 1.234 . S
O169 Mn144 2.209 . S
O169 Mn145 2.215 . S
O169 C146 1.283 . S
O170 Mn144 2.094 . S
O170 C148 1.240 . S
O171 Mn145 2.117 . S
O171 C148 1.264 . S
C172 C165 1.403 . S
C172 C173 1.399 . S
C172 H178 0.929 . S
C173 C153 1.449 . S
C173 C172 1.399 . S
C173 H179 0.930 . S
H174 C154 0.931 . S
H175 C155 0.930 . S
H176 C163 0.931 . S
H177 C164 0.929 . S
H178 C172 0.929 . S
H179 C173 0.930 . S
Mn180 O185 2.095 . S
Mn180 O195 2.162 . S
Mn180 O196 2.297 . S
Mn180 O204 2.385 . S
Mn180 O205 2.209 . S
Mn180 O206 2.094 . S
Mn181 O186 2.121 . S
Mn181 N188 2.257 . S
Mn181 N197 2.282 . S
Mn181 O205 2.215 . S
Mn181 O207 2.117 . S
C182 O204 1.234 . S
C182 O205 1.283 . S
C183 O195 1.281 . S
C183 O196 1.236 . S
C184 O206 1.240 . S
C184 O207 1.264 . S
O185 Mn180 2.095 . S
O185 C194 1.250 . S
O186 Mn181 2.121 . S
O186 C194 1.258 . S
C187 N188 1.326 . S
C187 C191 1.460 . S
C187 H193 0.929 . S
N188 Mn181 2.257 . S
N188 C187 1.326 . S
N188 C192 1.362 . S
C189 C190 1.258 . S
C189 C192 1.431 . S
C189 C209 1.449 . S
C190 C189 1.258 . S
C190 C191 1.477 . S
C190 H210 0.931 . S
C191 C187 1.460 . S
C191 C190 1.477 . S
C191 H211 0.930 . S
C192 N188 1.362 . S
C192 C189 1.431 . S
C192 C202 1.476 . S
H193 C187 0.929 . S
C194 O185 1.250 . S
C194 O186 1.258 . S
O195 Mn180 2.162 . S
O195 C183 1.281 . S
O196 Mn180 2.297 . S
O196 C183 1.236 . S
N197 Mn181 2.282 . S
N197 C198 1.328 . S
N197 C202 1.318 . S
C198 N197 1.328 . S
C198 C199 1.457 . S
C198 H203 0.929 . S
C199 C198 1.457 . S
C199 C200 1.291 . S
C199 H212 0.931 . S
C200 C199 1.291 . S
C200 C201 1.373 . S
C200 H213 0.929 . S
C201 C200 1.373 . S
C201 C202 1.396 . S
C201 C208 1.403 . S
C202 C192 1.476 . S
C202 N197 1.318 . S
C202 C201 1.396 . S
H203 C198 0.929 . S
O204 Mn180 2.385 . S
O204 C182 1.234 . S
O205 Mn180 2.209 . S
O205 Mn181 2.215 . S
O205 C182 1.283 . S
O206 Mn180 2.094 . S
O206 C184 1.240 . S
O207 Mn181 2.117 . S
O207 C184 1.264 . S
C208 C201 1.403 . S
C208 C209 1.399 . S
C208 H214 0.929 . S
C209 C189 1.449 . S
C209 C208 1.399 . S
C209 H215 0.930 . S
H210 C190 0.931 . S
H211 C191 0.930 . S
H212 C199 0.931 . S
H213 C200 0.929 . S
H214 C208 0.929 . S
H215 C209 0.930 . S
Mn216 O221 2.095 . S
Mn216 O231 2.162 . S
Mn216 O232 2.297 . S
Mn216 O240 2.385 . S
Mn216 O241 2.209 . S
Mn216 O242 2.094 . S
Mn217 O222 2.121 . S
Mn217 N224 2.257 1_545 S
Mn217 N233 2.282 . S
Mn217 O241 2.215 . S
Mn217 O243 2.117 . S
C218 O240 1.234 . S
C218 O241 1.283 . S
C219 O231 1.281 . S
C219 O232 1.236 . S
C220 O242 1.240 . S
C220 O243 1.264 . S
O221 Mn216 2.095 . S
O221 C230 1.250 . S
O222 Mn217 2.121 . S
O222 C230 1.258 . S
C223 N224 1.326 . S
C223 C227 1.460 . S
C223 H229 0.929 . S
N224 Mn217 2.257 1_565 S
N224 C223 1.326 . S
N224 C228 1.362 . S
C225 C226 1.258 . S
C225 C228 1.431 . S
C225 C245 1.449 . S
C226 C225 1.258 . S
C226 C227 1.477 . S
C226 H246 0.931 . S
C227 C223 1.460 . S
C227 C226 1.477 . S
C227 H247 0.930 . S
C228 N224 1.362 . S
C228 C225 1.431 . S
C228 C238 1.476 . S
H229 C223 0.929 . S
C230 O221 1.250 . S
C230 O222 1.258 . S
O231 Mn216 2.162 . S
O231 C219 1.281 . S
O232 Mn216 2.297 . S
O232 C219 1.236 . S
N233 Mn217 2.282 . S
N233 C234 1.328 . S
N233 C238 1.318 1_545 S
C234 N233 1.328 . S
C234 C235 1.457 . S
C234 H239 0.929 . S
C235 C234 1.457 . S
C235 C236 1.291 1_545 S
C235 H248 0.931 . S
C236 C235 1.291 1_565 S
C236 C237 1.373 . S
C236 H249 0.929 . S
C237 C236 1.373 . S
C237 C238 1.396 . S
C237 C244 1.403 . S
C238 C228 1.476 . S
C238 N233 1.318 1_565 S
C238 C237 1.396 . S
H239 C234 0.929 . S
O240 Mn216 2.385 . S
O240 C218 1.234 . S
O241 Mn216 2.209 . S
O241 Mn217 2.215 . S
O241 C218 1.283 . S
O242 Mn216 2.094 . S
O242 C220 1.240 . S
O243 Mn217 2.117 . S
O243 C220 1.264 . S
C244 C237 1.403 . S
C244 C245 1.399 . S
C244 H250 0.929 . S
C245 C225 1.449 . S
C245 C244 1.399 . S
C245 H251 0.930 . S
H246 C226 0.931 . S
H247 C227 0.930 . S
H248 C235 0.931 . S
H249 C236 0.929 . S
H250 C244 0.929 . S
H251 C245 0.930 . S
Mn252 O257 2.095 . S
Mn252 O267 2.162 . S
Mn252 O268 2.297 . S
Mn252 O276 2.385 . S
Mn252 O277 2.209 . S
Mn252 O278 2.094 . S
Mn253 O258 2.121 . S
Mn253 N260 2.257 1_655 S
Mn253 N269 2.282 . S
Mn253 O277 2.215 . S
Mn253 O279 2.117 . S
C254 O276 1.234 . S
C254 O277 1.283 . S
C255 O267 1.281 . S
C255 O268 1.236 . S
C256 O278 1.240 . S
C256 O279 1.264 . S
O257 Mn252 2.095 . S
O257 C266 1.250 . S
O258 Mn253 2.121 . S
O258 C266 1.258 . S
C259 N260 1.326 . S
C259 C263 1.460 . S
C259 H265 0.929 . S
N260 Mn253 2.257 1_455 S
N260 C259 1.326 . S
N260 C264 1.362 . S
C261 C262 1.258 . S
C261 C264 1.431 . S
C261 C281 1.449 . S
C262 C261 1.258 . S
C262 C263 1.477 . S
C262 H282 0.931 . S
C263 C259 1.460 . S
C263 C262 1.477 . S
C263 H283 0.930 . S
C264 N260 1.362 . S
C264 C261 1.431 . S
C264 C274 1.476 . S
H265 C259 0.929 . S
C266 O257 1.250 . S
C266 O258 1.258 . S
O267 Mn252 2.162 . S
O267 C255 1.281 . S
O268 Mn252 2.297 . S
O268 C255 1.236 . S
N269 Mn253 2.282 . S
N269 C270 1.328 . S
N269 C274 1.318 1_655 S
C270 N269 1.328 . S
C270 C271 1.457 . S
C270 H275 0.929 . S
C271 C270 1.457 . S
C271 C272 1.291 1_655 S
C271 H284 0.931 . S
C272 C271 1.291 1_455 S
C272 C273 1.373 . S
C272 H285 0.929 . S
C273 C272 1.373 . S
C273 C274 1.396 . S
C273 C280 1.403 . S
C274 C264 1.476 . S
C274 N269 1.318 1_455 S
C274 C273 1.396 . S
H275 C270 0.929 . S
O276 Mn252 2.385 . S
O276 C254 1.234 . S
O277 Mn252 2.209 . S
O277 Mn253 2.215 . S
O277 C254 1.283 . S
O278 Mn252 2.094 . S
O278 C256 1.240 . S
O279 Mn253 2.117 . S
O279 C256 1.264 . S
C280 C273 1.403 . S
C280 C281 1.399 . S
C280 H286 0.929 . S
C281 C261 1.449 . S
C281 C280 1.399 . S
C281 H287 0.930 . S
H282 C262 0.931 . S
H283 C263 0.930 . S
H284 C271 0.931 . S
H285 C272 0.929 . S
H286 C280 0.929 . S
H287 C281 0.930 . S
Mn288 O293 2.095 . S
Mn288 O303 2.162 . S
Mn288 O304 2.297 . S
Mn288 O312 2.385 . S
Mn288 O313 2.209 . S
Mn288 O314 2.094 . S
Mn289 O294 2.121 . S
Mn289 N296 2.257 . S
Mn289 N305 2.282 . S
Mn289 O313 2.215 . S
Mn289 O315 2.117 . S
C290 O312 1.234 . S
C290 O313 1.283 . S
C291 O303 1.281 . S
C291 O304 1.236 . S
C292 O314 1.240 . S
C292 O315 1.264 . S
O293 Mn288 2.095 . S
O293 C302 1.250 . S
O294 Mn289 2.121 . S
O294 C302 1.258 . S
C295 N296 1.326 . S
C295 C299 1.460 . S
C295 H301 0.929 . S
N296 Mn289 2.257 . S
N296 C295 1.326 . S
N296 C300 1.362 . S
C297 C298 1.258 . S
C297 C300 1.431 . S
C297 C317 1.449 . S
C298 C297 1.258 . S
C298 C299 1.477 . S
C298 H318 0.931 . S
C299 C295 1.460 . S
C299 C298 1.477 . S
C299 H319 0.930 . S
C300 N296 1.362 . S
C300 C297 1.431 . S
C300 C310 1.476 . S
H301 C295 0.929 . S
C302 O293 1.250 . S
C302 O294 1.258 . S
O303 Mn288 2.162 . S
O303 C291 1.281 . S
O304 Mn288 2.297 . S
O304 C291 1.236 . S
N305 Mn289 2.282 . S
N305 C306 1.328 . S
N305 C310 1.318 . S
C306 N305 1.328 . S
C306 C307 1.457 . S
C306 H311 0.929 . S
C307 C306 1.457 . S
C307 C308 1.291 . S
C307 H320 0.931 . S
C308 C307 1.291 . S
C308 C309 1.373 . S
C308 H321 0.929 . S
C309 C308 1.373 . S
C309 C310 1.396 . S
C309 C316 1.403 . S
C310 C300 1.476 . S
C310 N305 1.318 . S
C310 C309 1.396 . S
H311 C306 0.929 . S
O312 Mn288 2.385 . S
O312 C290 1.234 . S
O313 Mn288 2.209 . S
O313 Mn289 2.215 . S
O313 C290 1.283 . S
O314 Mn288 2.094 . S
O314 C292 1.240 . S
O315 Mn289 2.117 . S
O315 C292 1.264 . S
C316 C309 1.403 . S
C316 C317 1.399 . S
C316 H322 0.929 . S
C317 C297 1.449 . S
C317 C316 1.399 . S
C317 H323 0.930 . S
H318 C298 0.931 . S
H319 C299 0.930 . S
H320 C307 0.931 . S
H321 C308 0.929 . S
H322 C316 0.929 . S
H323 C317 0.930 . S
Mn324 O329 2.095 . S
Mn324 O339 2.162 . S
Mn324 O340 2.297 . S
Mn324 O348 2.385 . S
Mn324 O349 2.209 . S
Mn324 O350 2.094 . S
Mn325 O330 2.121 . S
Mn325 N332 2.257 . S
Mn325 N341 2.282 . S
Mn325 O349 2.215 . S
Mn325 O351 2.117 . S
C326 O348 1.234 . S
C326 O349 1.283 . S
C327 O339 1.281 . S
C327 O340 1.236 . S
C328 O350 1.240 . S
C328 O351 1.264 . S
O329 Mn324 2.095 . S
O329 C338 1.250 . S
O330 Mn325 2.121 . S
O330 C338 1.258 . S
C331 N332 1.326 . S
C331 C335 1.460 . S
C331 H337 0.929 . S
N332 Mn325 2.257 . S
N332 C331 1.326 . S
N332 C336 1.362 . S
C333 C334 1.258 . S
C333 C336 1.431 . S
C333 C353 1.449 . S
C334 C333 1.258 . S
C334 C335 1.477 . S
C334 H354 0.931 . S
C335 C331 1.460 . S
C335 C334 1.477 . S
C335 H355 0.930 . S
C336 N332 1.362 . S
C336 C333 1.431 . S
C336 C346 1.476 . S
H337 C331 0.929 . S
C338 O329 1.250 . S
C338 O330 1.258 . S
O339 Mn324 2.162 . S
O339 C327 1.281 . S
O340 Mn324 2.297 . S
O340 C327 1.236 . S
N341 Mn325 2.282 . S
N341 C342 1.328 . S
N341 C346 1.318 . S
C342 N341 1.328 . S
C342 C343 1.457 . S
C342 H347 0.929 . S
C343 C342 1.457 . S
C343 C344 1.291 . S
C343 H356 0.931 . S
C344 C343 1.291 . S
C344 C345 1.373 . S
C344 H357 0.929 . S
C345 C344 1.373 . S
C345 C346 1.396 . S
C345 C352 1.403 . S
C346 C336 1.476 . S
C346 N341 1.318 . S
C346 C345 1.396 . S
H347 C342 0.929 . S
O348 Mn324 2.385 . S
O348 C326 1.234 . S
O349 Mn324 2.209 . S
O349 Mn325 2.215 . S
O349 C326 1.283 . S
O350 Mn324 2.094 . S
O350 C328 1.240 . S
O351 Mn325 2.117 . S
O351 C328 1.264 . S
C352 C345 1.403 . S
C352 C353 1.399 . S
C352 H358 0.929 . S
C353 C333 1.449 . S
C353 C352 1.399 . S
C353 H359 0.930 . S
H354 C334 0.931 . S
H355 C335 0.930 . S
H356 C343 0.931 . S
H357 C344 0.929 . S
H358 C352 0.929 . S
H359 C353 0.930 . S
Mn360 O365 2.095 . S
Mn360 O375 2.162 . S
Mn360 O376 2.297 . S
Mn360 O384 2.385 . S
Mn360 O385 2.209 . S
Mn360 O386 2.094 . S
Mn361 O366 2.121 . S
Mn361 N368 2.257 1_565 S
Mn361 N377 2.282 . S
Mn361 O385 2.215 . S
Mn361 O387 2.117 . S
C362 O384 1.234 . S
C362 O385 1.283 . S
C363 O375 1.281 . S
C363 O376 1.236 . S
C364 O386 1.240 . S
C364 O387 1.264 . S
O365 Mn360 2.095 . S
O365 C374 1.250 . S
O366 Mn361 2.121 . S
O366 C374 1.258 . S
C367 N368 1.326 . S
C367 C371 1.460 . S
C367 H373 0.929 . S
N368 Mn361 2.257 1_545 S
N368 C367 1.326 . S
N368 C372 1.362 . S
C369 C370 1.258 . S
C369 C372 1.431 . S
C369 C389 1.449 . S
C370 C369 1.258 . S
C370 C371 1.477 . S
C370 H390 0.931 . S
C371 C367 1.460 . S
C371 C370 1.477 . S
C371 H391 0.930 . S
C372 N368 1.362 . S
C372 C369 1.431 . S
C372 C382 1.476 . S
H373 C367 0.929 . S
C374 O365 1.250 . S
C374 O366 1.258 . S
O375 Mn360 2.162 . S
O375 C363 1.281 . S
O376 Mn360 2.297 . S
O376 C363 1.236 . S
N377 Mn361 2.282 . S
N377 C378 1.328 . S
N377 C382 1.318 1_565 S
C378 N377 1.328 . S
C378 C379 1.457 . S
C378 H383 0.929 . S
C379 C378 1.457 . S
C379 C380 1.291 1_565 S
C379 H392 0.931 . S
C380 C379 1.291 1_545 S
C380 C381 1.373 . S
C380 H393 0.929 . S
C381 C380 1.373 . S
C381 C382 1.396 . S
C381 C388 1.403 . S
C382 C372 1.476 . S
C382 N377 1.318 1_545 S
C382 C381 1.396 . S
H383 C378 0.929 . S
O384 Mn360 2.385 . S
O384 C362 1.234 . S
O385 Mn360 2.209 . S
O385 Mn361 2.215 . S
O385 C362 1.283 . S
O386 Mn360 2.094 . S
O386 C364 1.240 . S
O387 Mn361 2.117 . S
O387 C364 1.264 . S
C388 C381 1.403 . S
C388 C389 1.399 . S
C388 H394 0.929 . S
C389 C369 1.449 . S
C389 C388 1.399 . S
C389 H395 0.930 . S
H390 C370 0.931 . S
H391 C371 0.930 . S
H392 C379 0.931 . S
H393 C380 0.929 . S
H394 C388 0.929 . S
H395 C389 0.930 . S
Mn396 O401 2.095 . S
Mn396 O411 2.162 . S
Mn396 O412 2.297 . S
Mn396 O420 2.385 . S
Mn396 O421 2.209 . S
Mn396 O422 2.094 . S
Mn397 O402 2.121 . S
Mn397 N404 2.257 1_455 S
Mn397 N413 2.282 . S
Mn397 O421 2.215 . S
Mn397 O423 2.117 . S
C398 O420 1.234 . S
C398 O421 1.283 . S
C399 O411 1.281 . S
C399 O412 1.236 . S
C400 O422 1.240 . S
C400 O423 1.264 . S
O401 Mn396 2.095 . S
O401 C410 1.250 . S
O402 Mn397 2.121 . S
O402 C410 1.258 . S
C403 N404 1.326 . S
C403 C407 1.460 . S
C403 H409 0.929 . S
N404 Mn397 2.257 1_655 S
N404 C403 1.326 . S
N404 C408 1.362 . S
C405 C406 1.258 . S
C405 C408 1.431 . S
C405 C425 1.449 . S
C406 C405 1.258 . S
C406 C407 1.477 . S
C406 H426 0.931 . S
C407 C403 1.460 . S
C407 C406 1.477 . S
C407 H427 0.930 . S
C408 N404 1.362 . S
C408 C405 1.431 . S
C408 C418 1.476 . S
H409 C403 0.929 . S
C410 O401 1.250 . S
C410 O402 1.258 . S
O411 Mn396 2.162 . S
O411 C399 1.281 . S
O412 Mn396 2.297 . S
O412 C399 1.236 . S
N413 Mn397 2.282 . S
N413 C414 1.328 . S
N413 C418 1.318 1_455 S
C414 N413 1.328 . S
C414 C415 1.457 . S
C414 H419 0.929 . S
C415 C414 1.457 . S
C415 C416 1.291 1_455 S
C415 H428 0.931 . S
C416 C415 1.291 1_655 S
C416 C417 1.373 . S
C416 H429 0.929 . S
C417 C416 1.373 . S
C417 C418 1.396 . S
C417 C424 1.403 . S
C418 C408 1.476 . S
C418 N413 1.318 1_655 S
C418 C417 1.396 . S
H419 C414 0.929 . S
O420 Mn396 2.385 . S
O420 C398 1.234 . S
O421 Mn396 2.209 . S
O421 Mn397 2.215 . S
O421 C398 1.283 . S
O422 Mn396 2.094 . S
O422 C400 1.240 . S
O423 Mn397 2.117 . S
O423 C400 1.264 . S
C424 C417 1.403 . S
C424 C425 1.399 . S
C424 H430 0.929 . S
C425 C405 1.449 . S
C425 C424 1.399 . S
C425 H431 0.930 . S
H426 C406 0.931 . S
H427 C407 0.930 . S
H428 C415 0.931 . S
H429 C416 0.929 . S
H430 C424 0.929 . S
H431 C425 0.930 . S
Mn432 O437 2.095 . S
Mn432 O447 2.162 . S
Mn432 O448 2.297 . S
Mn432 O456 2.385 . S
Mn432 O457 2.209 . S
Mn432 O458 2.094 . S
Mn433 O438 2.121 . S
Mn433 N440 2.257 1_565 S
Mn433 N449 2.282 . S
Mn433 O457 2.215 . S
Mn433 O459 2.117 . S
C434 O456 1.234 . S
C434 O457 1.283 . S
C435 O447 1.281 . S
C435 O448 1.236 . S
C436 O458 1.240 . S
C436 O459 1.264 . S
O437 Mn432 2.095 . S
O437 C446 1.250 . S
O438 Mn433 2.121 . S
O438 C446 1.258 . S
C439 N440 1.326 . S
C439 C443 1.460 . S
C439 H445 0.929 . S
N440 Mn433 2.257 1_545 S
N440 C439 1.326 . S
N440 C444 1.362 . S
C441 C442 1.258 . S
C441 C444 1.431 . S
C441 C461 1.449 . S
C442 C441 1.258 . S
C442 C443 1.477 . S
C442 H462 0.931 . S
C443 C439 1.460 . S
C443 C442 1.477 . S
C443 H463 0.930 . S
C444 N440 1.362 . S
C444 C441 1.431 . S
C444 C454 1.476 . S
H445 C439 0.929 . S
C446 O437 1.250 . S
C446 O438 1.258 . S
O447 Mn432 2.162 . S
O447 C435 1.281 . S
O448 Mn432 2.297 . S
O448 C435 1.236 . S
N449 Mn433 2.282 . S
N449 C450 1.328 . S
N449 C454 1.318 1_565 S
C450 N449 1.328 . S
C450 C451 1.457 . S
C450 H455 0.929 . S
C451 C450 1.457 . S
C451 C452 1.291 1_565 S
C451 H464 0.931 . S
C452 C451 1.291 1_545 S
C452 C453 1.373 . S
C452 H465 0.929 . S
C453 C452 1.373 . S
C453 C454 1.396 . S
C453 C460 1.403 . S
C454 C444 1.476 . S
C454 N449 1.318 1_545 S
C454 C453 1.396 . S
H455 C450 0.929 . S
O456 Mn432 2.385 . S
O456 C434 1.234 . S
O457 Mn432 2.209 . S
O457 Mn433 2.215 . S
O457 C434 1.283 . S
O458 Mn432 2.094 . S
O458 C436 1.240 . S
O459 Mn433 2.117 . S
O459 C436 1.264 . S
C460 C453 1.403 . S
C460 C461 1.399 . S
C460 H466 0.929 . S
C461 C441 1.449 . S
C461 C460 1.399 . S
C461 H467 0.930 . S
H462 C442 0.931 . S
H463 C443 0.930 . S
H464 C451 0.931 . S
H465 C452 0.929 . S
H466 C460 0.929 . S
H467 C461 0.930 . S
Mn468 O473 2.095 . S
Mn468 O483 2.162 . S
Mn468 O484 2.297 . S
Mn468 O492 2.385 . S
Mn468 O493 2.209 . S
Mn468 O494 2.094 . S
Mn469 O474 2.121 . S
Mn469 N476 2.257 1_455 S
Mn469 N485 2.282 . S
Mn469 O493 2.215 . S
Mn469 O495 2.117 . S
C470 O492 1.234 . S
C470 O493 1.283 . S
C471 O483 1.281 . S
C471 O484 1.236 . S
C472 O494 1.240 . S
C472 O495 1.264 . S
O473 Mn468 2.095 . S
O473 C482 1.250 . S
O474 Mn469 2.121 . S
O474 C482 1.258 . S
C475 N476 1.326 . S
C475 C479 1.460 . S
C475 H481 0.929 . S
N476 Mn469 2.257 1_655 S
N476 C475 1.326 . S
N476 C480 1.362 . S
C477 C478 1.258 . S
C477 C480 1.431 . S
C477 C497 1.449 . S
C478 C477 1.258 . S
C478 C479 1.477 . S
C478 H498 0.931 . S
C479 C475 1.460 . S
C479 C478 1.477 . S
C479 H499 0.930 . S
C480 N476 1.362 . S
C480 C477 1.431 . S
C480 C490 1.476 . S
H481 C475 0.929 . S
C482 O473 1.250 . S
C482 O474 1.258 . S
O483 Mn468 2.162 . S
O483 C471 1.281 . S
O484 Mn468 2.297 . S
O484 C471 1.236 . S
N485 Mn469 2.282 . S
N485 C486 1.328 . S
N485 C490 1.318 1_455 S
C486 N485 1.328 . S
C486 C487 1.457 . S
C486 H491 0.929 . S
C487 C486 1.457 . S
C487 C488 1.291 1_455 S
C487 H500 0.931 . S
C488 C487 1.291 1_655 S
C488 C489 1.373 . S
C488 H501 0.929 . S
C489 C488 1.373 . S
C489 C490 1.396 . S
C489 C496 1.403 . S
C490 C480 1.476 . S
C490 N485 1.318 1_655 S
C490 C489 1.396 . S
H491 C486 0.929 . S
O492 Mn468 2.385 . S
O492 C470 1.234 . S
O493 Mn468 2.209 . S
O493 Mn469 2.215 . S
O493 C470 1.283 . S
O494 Mn468 2.094 . S
O494 C472 1.240 . S
O495 Mn469 2.117 . S
O495 C472 1.264 . S
C496 C489 1.403 . S
C496 C497 1.399 . S
C496 H502 0.929 . S
C497 C477 1.449 . S
C497 C496 1.399 . S
C497 H503 0.930 . S
H498 C478 0.931 . S
H499 C479 0.930 . S
H500 C487 0.931 . S
H501 C488 0.929 . S
H502 C496 0.929 . S
H503 C497 0.930 . S
Mn504 O509 2.095 . S
Mn504 O519 2.162 . S
Mn504 O520 2.297 . S
Mn504 O528 2.385 . S
Mn504 O529 2.209 . S
Mn504 O530 2.094 . S
Mn505 O510 2.121 . S
Mn505 N512 2.257 . S
Mn505 N521 2.282 . S
Mn505 O529 2.215 . S
Mn505 O531 2.117 . S
C506 O528 1.234 . S
C506 O529 1.283 . S
C507 O519 1.281 . S
C507 O520 1.236 . S
C508 O530 1.240 . S
C508 O531 1.264 . S
O509 Mn504 2.095 . S
O509 C518 1.250 . S
O510 Mn505 2.121 . S
O510 C518 1.258 . S
C511 N512 1.326 . S
C511 C515 1.460 . S
C511 H517 0.929 . S
N512 Mn505 2.257 . S
N512 C511 1.326 . S
N512 C516 1.362 . S
C513 C514 1.258 . S
C513 C516 1.431 . S
C513 C533 1.449 . S
C514 C513 1.258 . S
C514 C515 1.477 . S
C514 H534 0.931 . S
C515 C511 1.460 . S
C515 C514 1.477 . S
C515 H535 0.930 . S
C516 N512 1.362 . S
C516 C513 1.431 . S
C516 C526 1.476 . S
H517 C511 0.929 . S
C518 O509 1.250 . S
C518 O510 1.258 . S
O519 Mn504 2.162 . S
O519 C507 1.281 . S
O520 Mn504 2.297 . S
O520 C507 1.236 . S
N521 Mn505 2.282 . S
N521 C522 1.328 . S
N521 C526 1.318 . S
C522 N521 1.328 . S
C522 C523 1.457 . S
C522 H527 0.929 . S
C523 C522 1.457 . S
C523 C524 1.291 . S
C523 H536 0.931 . S
C524 C523 1.291 . S
C524 C525 1.373 . S
C524 H537 0.929 . S
C525 C524 1.373 . S
C525 C526 1.396 . S
C525 C532 1.403 . S
C526 C516 1.476 . S
C526 N521 1.318 . S
C526 C525 1.396 . S
H527 C522 0.929 . S
O528 Mn504 2.385 . S
O528 C506 1.234 . S
O529 Mn504 2.209 . S
O529 Mn505 2.215 . S
O529 C506 1.283 . S
O530 Mn504 2.094 . S
O530 C508 1.240 . S
O531 Mn505 2.117 . S
O531 C508 1.264 . S
C532 C525 1.403 . S
C532 C533 1.399 . S
C532 H538 0.929 . S
C533 C513 1.449 . S
C533 C532 1.399 . S
C533 H539 0.930 . S
H534 C514 0.931 . S
H535 C515 0.930 . S
H536 C523 0.931 . S
H537 C524 0.929 . S
H538 C532 0.929 . S
H539 C533 0.930 . S
Mn540 O545 2.095 . S
Mn540 O555 2.162 . S
Mn540 O556 2.297 . S
Mn540 O564 2.385 . S
Mn540 O565 2.209 . S
Mn540 O566 2.094 . S
Mn541 O546 2.121 . S
Mn541 N548 2.257 . S
Mn541 N557 2.282 . S
Mn541 O565 2.215 . S
Mn541 O567 2.117 . S
C542 O564 1.234 . S
C542 O565 1.283 . S
C543 O555 1.281 . S
C543 O556 1.236 . S
C544 O566 1.240 . S
C544 O567 1.264 . S
O545 Mn540 2.095 . S
O545 C554 1.250 . S
O546 Mn541 2.121 . S
O546 C554 1.258 . S
C547 N548 1.326 . S
C547 C551 1.460 . S
C547 H553 0.929 . S
N548 Mn541 2.257 . S
N548 C547 1.326 . S
N548 C552 1.362 . S
C549 C550 1.258 . S
C549 C552 1.431 . S
C549 C569 1.449 . S
C550 C549 1.258 . S
C550 C551 1.477 . S
C550 H570 0.931 . S
C551 C547 1.460 . S
C551 C550 1.477 . S
C551 H571 0.930 . S
C552 N548 1.362 . S
C552 C549 1.431 . S
C552 C562 1.476 . S
H553 C547 0.929 . S
C554 O545 1.250 . S
C554 O546 1.258 . S
O555 Mn540 2.162 . S
O555 C543 1.281 . S
O556 Mn540 2.297 . S
O556 C543 1.236 . S
N557 Mn541 2.282 . S
N557 C558 1.328 . S
N557 C562 1.318 . S
C558 N557 1.328 . S
C558 C559 1.457 . S
C558 H563 0.929 . S
C559 C558 1.457 . S
C559 C560 1.291 . S
C559 H572 0.931 . S
C560 C559 1.291 . S
C560 C561 1.373 . S
C560 H573 0.929 . S
C561 C560 1.373 . S
C561 C562 1.396 . S
C561 C568 1.403 . S
C562 C552 1.476 . S
C562 N557 1.318 . S
C562 C561 1.396 . S
H563 C558 0.929 . S
O564 Mn540 2.385 . S
O564 C542 1.234 . S
O565 Mn540 2.209 . S
O565 Mn541 2.215 . S
O565 C542 1.283 . S
O566 Mn540 2.094 . S
O566 C544 1.240 . S
O567 Mn541 2.117 . S
O567 C544 1.264 . S
C568 C561 1.403 . S
C568 C569 1.399 . S
C568 H574 0.929 . S
C569 C549 1.449 . S
C569 C568 1.399 . S
C569 H575 0.930 . S
H570 C550 0.931 . S
H571 C551 0.930 . S
H572 C559 0.931 . S
H573 C560 0.929 . S
H574 C568 0.929 . S
H575 C569 0.930 . S
H576 C582 0.930 . S
H577 C585 0.930 . S
H578 C586 0.930 . S
H579 C587 0.930 . S
H580 C590 0.930 . S
H581 C591 0.930 . S
C582 H576 0.930 . S
C582 C583 1.355 . S
C582 C584 1.415 . S
C583 C582 1.355 . S
C583 C585 1.419 . S
C584 C582 1.415 . S
C584 C589 1.425 1_665 S
C584 C591 1.409 1_655 S
C585 H577 0.930 . S
C585 C583 1.419 . S
C585 C586 1.362 1_565 S
C586 H578 0.930 . S
C586 C585 1.362 1_545 S
C586 C589 1.409 1_655 S
C587 H579 0.930 . S
C587 C588 1.355 . S
C587 C589 1.415 . S
C588 C587 1.355 . S
C588 C590 1.419 . S
C589 C584 1.425 1_445 S
C589 C586 1.409 1_455 S
C589 C587 1.415 . S
C590 H580 0.930 . S
C590 C588 1.419 . S
C590 C591 1.362 1_545 S
C591 H581 0.930 . S
C591 C584 1.409 1_455 S
C591 C590 1.362 1_565 S
H592 C598 0.930 . S
H593 C601 0.930 . S
H594 C602 0.930 . S
H595 C603 0.930 . S
H596 C606 0.930 . S
H597 C607 0.930 . S
C598 H592 0.930 . S
C598 C599 1.355 . S
C598 C600 1.415 1_655 S
C599 C598 1.355 . S
C599 C601 1.419 . S
C600 C598 1.415 1_455 S
C600 C605 1.425 1_455 S
C600 C607 1.409 . S
C601 H593 0.930 . S
C601 C599 1.419 . S
C601 C602 1.362 . S
C602 H594 0.930 . S
C602 C601 1.362 . S
C602 C605 1.409 . S
C603 H595 0.930 . S
C603 C604 1.355 . S
C603 C605 1.415 1_455 S
C604 C603 1.355 . S
C604 C606 1.419 . S
C605 C600 1.425 1_655 S
C605 C602 1.409 . S
C605 C603 1.415 1_655 S
C606 H596 0.930 . S
C606 C604 1.419 . S
C606 C607 1.362 . S
C607 H597 0.930 . S
C607 C600 1.409 . S
C607 C606 1.362 . S
H608 C614 0.930 . S
H609 C617 0.930 . S
H610 C618 0.930 . S
H611 C619 0.930 . S
H612 C622 0.930 . S
H613 C623 0.930 . S
C614 H608 0.930 . S
C614 C615 1.355 . S
C614 C616 1.415 . S
C615 C614 1.355 . S
C615 C617 1.419 . S
C616 C614 1.415 . S
C616 C621 1.425 . S
C616 C623 1.409 . S
C617 H609 0.930 . S
C617 C615 1.419 . S
C617 C618 1.362 . S
C618 H610 0.930 . S
C618 C617 1.362 . S
C618 C621 1.409 . S
C619 H611 0.930 . S
C619 C620 1.355 . S
C619 C621 1.415 . S
C620 C619 1.355 . S
C620 C622 1.419 . S
C621 C616 1.425 . S
C621 C618 1.409 . S
C621 C619 1.415 . S
C622 H612 0.930 . S
C622 C620 1.419 . S
C622 C623 1.362 . S
C623 H613 0.930 . S
C623 C616 1.409 . S
C623 C622 1.362 . S
H624 C630 0.930 . S
H625 C633 0.930 . S
H626 C634 0.930 . S
H627 C635 0.930 . S
H628 C638 0.930 . S
H629 C639 0.930 . S
C630 H624 0.930 . S
C630 C631 1.355 . S
C630 C632 1.415 1_545 S
C631 C630 1.355 . S
C631 C633 1.419 . S
C632 C630 1.415 1_565 S
C632 C637 1.425 1_565 S
C632 C639 1.409 . S
C633 H625 0.930 . S
C633 C631 1.419 . S
C633 C634 1.362 . S
C634 H626 0.930 . S
C634 C633 1.362 . S
C634 C637 1.409 . S
C635 H627 0.930 . S
C635 C636 1.355 . S
C635 C637 1.415 1_565 S
C636 C635 1.355 . S
C636 C638 1.419 . S
C637 C632 1.425 1_545 S
C637 C634 1.409 . S
C637 C635 1.415 1_545 S
C638 H628 0.930 . S
C638 C636 1.419 . S
C638 C639 1.362 . S
C639 H629 0.930 . S
C639 C632 1.409 . S
C639 C638 1.362 . S
H640 C646 0.930 . S
H641 C649 0.930 . S
H642 C650 0.930 . S
H643 C651 0.930 . S
H644 C654 0.930 . S
H645 C655 0.930 . S
C646 H640 0.930 . S
C646 C647 1.355 . S
C646 C648 1.415 . S
C647 C646 1.355 . S
C647 C649 1.419 . S
C648 C646 1.415 . S
C648 C653 1.425 1_455 S
C648 C655 1.409 . S
C649 H641 0.930 . S
C649 C647 1.419 . S
C649 C650 1.362 1_455 S
C650 H642 0.930 . S
C650 C649 1.362 1_655 S
C650 C653 1.409 . S
C651 H643 0.930 . S
C651 C652 1.355 . S
C651 C653 1.415 . S
C652 C651 1.355 . S
C652 C654 1.419 . S
C653 C648 1.425 1_655 S
C653 C650 1.409 . S
C653 C651 1.415 . S
C654 H644 0.930 . S
C654 C652 1.419 . S
C654 C655 1.362 1_655 S
C655 H645 0.930 . S
C655 C648 1.409 . S
C655 C654 1.362 1_455 S
H656 C662 0.930 . S
H657 C665 0.930 . S
H658 C666 0.930 . S
H659 C667 0.930 . S
H660 C670 0.930 . S
H661 C671 0.930 . S
C662 H656 0.930 . S
C662 C663 1.355 . S
C662 C664 1.415 . S
C663 C662 1.355 . S
C663 C665 1.419 . S
C664 C662 1.415 . S
C664 C669 1.425 . S
C664 C671 1.409 . S
C665 H657 0.930 . S
C665 C663 1.419 . S
C665 C666 1.362 . S
C666 H658 0.930 . S
C666 C665 1.362 . S
C666 C669 1.409 . S
C667 H659 0.930 . S
C667 C668 1.355 . S
C667 C669 1.415 . S
C668 C667 1.355 . S
C668 C670 1.419 . S
C669 C664 1.425 . S
C669 C666 1.409 . S
C669 C667 1.415 . S
C670 H660 0.930 . S
C670 C668 1.419 . S
C670 C671 1.362 . S
C671 H661 0.930 . S
C671 C664 1.409 . S
C671 C670 1.362 . S
H672 C678 0.930 . S
H673 C681 0.930 . S
H674 C682 0.930 . S
H675 C683 0.930 . S
H676 C686 0.930 . S
H677 C687 0.930 . S
C678 H672 0.930 . S
C678 C679 1.355 . S
C678 C680 1.415 . S
C679 C678 1.355 . S
C679 C681 1.419 1_545 S
C680 C678 1.415 . S
C680 C685 1.425 1_545 S
C680 C687 1.409 . S
C681 H673 0.930 . S
C681 C679 1.419 1_565 S
C681 C682 1.362 . S
C682 H674 0.930 . S
C682 C681 1.362 . S
C682 C685 1.409 . S
C683 H675 0.930 . S
C683 C684 1.355 . S
C683 C685 1.415 . S
C684 C683 1.355 . S
C684 C686 1.419 1_565 S
C685 C680 1.425 1_565 S
C685 C682 1.409 . S
C685 C683 1.415 . S
C686 H676 0.930 . S
C686 C684 1.419 1_545 S
C686 C687 1.362 . S
C687 H677 0.930 . S
C687 C680 1.409 . S
C687 C686 1.362 . S
H688 C694 0.930 1_655 S
H689 C697 0.930 . S
H690 C698 0.930 . S
H691 C699 0.930 1_455 S
H692 C702 0.930 . S
H693 C703 0.930 . S
C694 H688 0.930 1_455 S
C694 C695 1.355 . S
C694 C696 1.415 1_455 S
C695 C694 1.355 . S
C695 C697 1.419 . S
C696 C694 1.415 1_655 S
C696 C701 1.425 1_645 S
C696 C703 1.409 . S
C697 H689 0.930 . S
C697 C695 1.419 . S
C697 C698 1.362 1_545 S
C698 H690 0.930 . S
C698 C697 1.362 1_565 S
C698 C701 1.409 . S
C699 H691 0.930 1_655 S
C699 C700 1.355 . S
C699 C701 1.415 1_655 S
C700 C699 1.355 . S
C700 C702 1.419 . S
C701 C696 1.425 1_465 S
C701 C698 1.409 . S
C701 C699 1.415 1_455 S
C702 H692 0.930 . S
C702 C700 1.419 . S
C702 C703 1.362 1_565 S
C703 H693 0.930 . S
C703 C696 1.409 . S
C703 C702 1.362 1_545 S
H704 C710 0.930 1_545 S
H705 C713 0.930 . S
H706 C714 0.930 . S
H707 C715 0.930 1_565 S
H708 C718 0.930 . S
H709 C719 0.930 . S
C710 H704 0.930 1_565 S
C710 C711 1.355 . S
C710 C712 1.415 1_565 S
C711 C710 1.355 . S
C711 C713 1.419 . S
C712 C710 1.415 1_545 S
C712 C717 1.425 1_545 S
C712 C719 1.409 . S
C713 H705 0.930 . S
C713 C711 1.419 . S
C713 C714 1.362 . S
C714 H706 0.930 . S
C714 C713 1.362 . S
C714 C717 1.409 . S
C715 H707 0.930 1_545 S
C715 C716 1.355 . S
C715 C717 1.415 1_545 S
C716 C715 1.355 . S
C716 C718 1.419 . S
C717 C712 1.425 1_565 S
C717 C714 1.409 . S
C717 C715 1.415 1_565 S
C718 H708 0.930 . S
C718 C716 1.419 . S
C718 C719 1.362 . S
C719 H709 0.930 . S
C719 C712 1.409 . S
C719 C718 1.362 . S
H720 C726 0.930 . S
H721 C729 0.930 . S
H722 C730 0.930 . S
H723 C731 0.930 . S
H724 C734 0.930 . S
H725 C735 0.930 . S
C726 H720 0.930 . S
C726 C727 1.355 . S
C726 C728 1.415 1_565 S
C727 C726 1.355 . S
C727 C729 1.419 1_655 S
C728 C726 1.415 1_545 S
C728 C733 1.425 1_645 S
C728 C735 1.409 . S
C729 H721 0.930 . S
C729 C727 1.419 1_455 S
C729 C730 1.362 . S
C730 H722 0.930 . S
C730 C729 1.362 . S
C730 C733 1.409 . S
C731 H723 0.930 . S
C731 C732 1.355 . S
C731 C733 1.415 1_545 S
C732 C731 1.355 . S
C732 C734 1.419 1_455 S
C733 C728 1.425 1_465 S
C733 C730 1.409 . S
C733 C731 1.415 1_565 S
C734 H724 0.930 . S
C734 C732 1.419 1_655 S
C734 C735 1.362 . S
C735 H725 0.930 . S
C735 C728 1.409 . S
C735 C734 1.362 . S
H736 C742 0.930 . S
H737 C745 0.930 . S
H738 C746 0.930 . S
H739 C747 0.930 . S
H740 C750 0.930 . S
H741 C751 0.930 . S
C742 H736 0.930 . S
C742 C743 1.355 . S
C742 C744 1.415 1_455 S
C743 C742 1.355 . S
C743 C745 1.419 . S
C744 C742 1.415 1_655 S
C744 C749 1.425 1_655 S
C744 C751 1.409 . S
C745 H737 0.930 . S
C745 C743 1.419 . S
C745 C746 1.362 . S
C746 H738 0.930 . S
C746 C745 1.362 . S
C746 C749 1.409 . S
C747 H739 0.930 . S
C747 C748 1.355 . S
C747 C749 1.415 1_655 S
C748 C747 1.355 . S
C748 C750 1.419 . S
C749 C744 1.425 1_455 S
C749 C746 1.409 . S
C749 C747 1.415 1_455 S
C750 H740 0.930 . S
C750 C748 1.419 . S
C750 C751 1.362 . S
C751 H741 0.930 . S
C751 C744 1.409 . S
C751 C750 1.362 . S
H752 C758 0.930 . S
H753 C761 0.930 . S
H754 C762 0.930 . S
H755 C763 0.930 . S
H756 C766 0.930 . S
H757 C767 0.930 . S
C758 H752 0.930 . S
C758 C759 1.355 . S
C758 C760 1.415 . S
C759 C758 1.355 . S
C759 C761 1.419 . S
C760 C758 1.415 . S
C760 C765 1.425 . S
C760 C767 1.409 . S
C761 H753 0.930 . S
C761 C759 1.419 . S
C761 C762 1.362 . S
C762 H754 0.930 . S
C762 C761 1.362 . S
C762 C765 1.409 . S
C763 H755 0.930 . S
C763 C764 1.355 . S
C763 C765 1.415 . S
C764 C763 1.355 . S
C764 C766 1.419 . S
C765 C760 1.425 . S
C765 C762 1.409 . S
C765 C763 1.415 . S
C766 H756 0.930 . S
C766 C764 1.419 . S
C766 C767 1.362 . S
C767 H757 0.930 . S
C767 C760 1.409 . S
C767 C766 1.362 . S
H768 C774 0.930 . S
H769 C777 0.930 . S
H770 C778 0.930 . S
H771 C779 0.930 . S
H772 C782 0.930 . S
H773 C783 0.930 . S
C774 H768 0.930 . S
C774 C775 1.355 . S
C774 C776 1.415 . S
C775 C774 1.355 . S
C775 C777 1.419 . S
C776 C774 1.415 . S
C776 C781 1.425 . S
C776 C783 1.409 . S
C777 H769 0.930 . S
C777 C775 1.419 . S
C777 C778 1.362 . S
C778 H770 0.930 . S
C778 C777 1.362 . S
C778 C781 1.409 . S
C779 H771 0.930 . S
C779 C780 1.355 . S
C779 C781 1.415 . S
C780 C779 1.355 . S
C780 C782 1.419 . S
C781 C776 1.425 . S
C781 C778 1.409 . S
C781 C779 1.415 . S
C782 H772 0.930 . S
C782 C780 1.419 . S
C782 C783 1.362 . S
C783 H773 0.930 . S
C783 C776 1.409 . S
C783 C782 1.362 . S
H784 C790 0.930 . S
H785 C793 0.930 . S
H786 C794 0.930 1_545 S
H787 C795 0.930 . S
H788 C798 0.930 . S
H789 C799 0.930 1_565 S
C790 H784 0.930 . S
C790 C791 1.355 . S
C790 C792 1.415 . S
C791 C790 1.355 . S
C791 C793 1.419 . S
C792 C790 1.415 . S
C792 C797 1.425 1_565 S
C792 C799 1.409 1_565 S
C793 H785 0.930 . S
C793 C791 1.419 . S
C793 C794 1.362 . S
C794 H786 0.930 1_565 S
C794 C793 1.362 . S
C794 C797 1.409 1_565 S
C795 H787 0.930 . S
C795 C796 1.355 . S
C795 C797 1.415 . S
C796 C795 1.355 . S
C796 C798 1.419 . S
C797 C792 1.425 1_545 S
C797 C794 1.409 1_545 S
C797 C795 1.415 . S
C798 H788 0.930 . S
C798 C796 1.419 . S
C798 C799 1.362 . S
C799 H789 0.930 1_545 S
C799 C792 1.409 1_545 S
C799 C798 1.362 . S
H800 C806 0.930 . S
H801 C809 0.930 . S
H802 C810 0.930 . S
H803 C811 0.930 . S
H804 C814 0.930 . S
H805 C815 0.930 . S
C806 H800 0.930 . S
C806 C807 1.355 . S
C806 C808 1.415 1_655 S
C807 C806 1.355 . S
C807 C809 1.419 1_565 S
C808 C806 1.415 1_455 S
C808 C813 1.425 1_465 S
C808 C815 1.409 . S
C809 H801 0.930 . S
C809 C807 1.419 1_545 S
C809 C810 1.362 . S
C810 H802 0.930 . S
C810 C809 1.362 . S
C810 C813 1.409 . S
C811 H803 0.930 . S
C811 C812 1.355 . S
C811 C813 1.415 1_455 S
C812 C811 1.355 . S
C812 C814 1.419 1_545 S
C813 C808 1.425 1_645 S
C813 C810 1.409 . S
C813 C811 1.415 1_655 S
C814 H804 0.930 . S
C814 C812 1.419 1_565 S
C814 C815 1.362 . S
C815 H805 0.930 . S
C815 C808 1.409 . S
C815 C814 1.362 . S
H816 C822 0.930 . S
H817 C825 0.930 . S
H818 C826 0.930 . S
H819 C827 0.930 . S
H820 C830 0.930 . S
H821 C831 0.930 . S
C822 H816 0.930 . S
C822 C823 1.355 . S
C822 C824 1.415 . S
C823 C822 1.355 . S
C823 C825 1.419 1_455 S
C824 C822 1.415 . S
C824 C829 1.425 1_455 S
C824 C831 1.409 . S
C825 H817 0.930 . S
C825 C823 1.419 1_655 S
C825 C826 1.362 . S
C826 H818 0.930 . S
C826 C825 1.362 . S
C826 C829 1.409 . S
C827 H819 0.930 . S
C827 C828 1.355 . S
C827 C829 1.415 . S
C828 C827 1.355 . S
C828 C830 1.419 1_655 S
C829 C824 1.425 1_655 S
C829 C826 1.409 . S
C829 C827 1.415 . S
C830 H820 0.930 . S
C830 C828 1.419 1_455 S
C830 C831 1.362 . S
C831 H821 0.930 . S
C831 C824 1.409 . S
C831 C830 1.362 . S
H832 C838 0.930 . S
H833 C841 0.930 . S
H834 C842 0.930 . S
H835 C843 0.930 . S
H836 C846 0.930 . S
H837 C847 0.930 . S
C838 H832 0.930 . S
C838 C839 1.355 . S
C838 C840 1.415 . S
C839 C838 1.355 . S
C839 C841 1.419 . S
C840 C838 1.415 . S
C840 C845 1.425 . S
C840 C847 1.409 . S
C841 H833 0.930 . S
C841 C839 1.419 . S
C841 C842 1.362 . S
C842 H834 0.930 . S
C842 C841 1.362 . S
C842 C845 1.409 . S
C843 H835 0.930 . S
C843 C844 1.355 . S
C843 C845 1.415 . S
C844 C843 1.355 . S
C844 C846 1.419 . S
C845 C840 1.425 . S
C845 C842 1.409 . S
C845 C843 1.415 . S
C846 H836 0.930 . S
C846 C844 1.419 . S
C846 C847 1.362 . S
C847 H837 0.930 . S
C847 C840 1.409 . S
C847 C846 1.362 . S
H848 C854 0.930 . S
H849 C857 0.930 . S
H850 C858 0.930 . S
H851 C859 0.930 . S
H852 C862 0.930 . S
H853 C863 0.930 . S
C854 H848 0.930 . S
C854 C855 1.355 . S
C854 C856 1.415 . S
C855 C854 1.355 . S
C855 C857 1.419 . S
C856 C854 1.415 . S
C856 C861 1.425 . S
C856 C863 1.409 . S
C857 H849 0.930 . S
C857 C855 1.419 . S
C857 C858 1.362 . S
C858 H850 0.930 . S
C858 C857 1.362 . S
C858 C861 1.409 . S
C859 H851 0.930 . S
C859 C860 1.355 . S
C859 C861 1.415 . S
C860 C859 1.355 . S
C860 C862 1.419 . S
C861 C856 1.425 . S
C861 C858 1.409 . S
C861 C859 1.415 . S
C862 H852 0.930 . S
C862 C860 1.419 . S
C862 C863 1.362 . S
C863 H853 0.930 . S
C863 C856 1.409 . S
C863 C862 1.362 . S
H864 C870 0.930 . S
H865 C873 0.930 . S
H866 C874 0.930 . S
H867 C875 0.930 . S
H868 C878 0.930 . S
H869 C879 0.930 . S
C870 H864 0.930 . S
C870 C871 1.355 . S
C870 C872 1.415 . S
C871 C870 1.355 . S
C871 C873 1.419 . S
C872 C870 1.415 . S
C872 C877 1.425 . S
C872 C879 1.409 . S
C873 H865 0.930 . S
C873 C871 1.419 . S
C873 C874 1.362 . S
C874 H866 0.930 . S
C874 C873 1.362 . S
C874 C877 1.409 . S
C875 H867 0.930 . S
C875 C876 1.355 . S
C875 C877 1.415 . S
C876 C875 1.355 . S
C876 C878 1.419 . S
C877 C872 1.425 . S
C877 C874 1.409 . S
C877 C875 1.415 . S
C878 H868 0.930 . S
C878 C876 1.419 . S
C878 C879 1.362 . S
C879 H869 0.930 . S
C879 C872 1.409 . S
C879 C878 1.362 . S
H880 C886 0.930 . S
H881 C889 0.930 . S
H882 C890 0.930 . S
H883 C891 0.930 . S
H884 C894 0.930 . S
H885 C895 0.930 . S
C886 H880 0.930 . S
C886 C887 1.355 . S
C886 C888 1.415 . S
C887 C886 1.355 . S
C887 C889 1.419 . S
C888 C886 1.415 . S
C888 C893 1.425 . S
C888 C895 1.409 . S
C889 H881 0.930 . S
C889 C887 1.419 . S
C889 C890 1.362 . S
C890 H882 0.930 . S
C890 C889 1.362 . S
C890 C893 1.409 . S
C891 H883 0.930 . S
C891 C892 1.355 . S
C891 C893 1.415 . S
C892 C891 1.355 . S
C892 C894 1.419 . S
C893 C888 1.425 . S
C893 C890 1.409 . S
C893 C891 1.415 . S
C894 H884 0.930 . S
C894 C892 1.419 . S
C894 C895 1.362 . S
C895 H885 0.930 . S
C895 C888 1.409 . S
C895 C894 1.362 . S
H896 C902 0.930 . S
H897 C905 0.930 . S
H898 C906 0.930 . S
H899 C907 0.930 . S
H900 C910 0.930 . S
H901 C911 0.930 . S
C902 H896 0.930 . S
C902 C903 1.355 . S
C902 C904 1.415 . S
C903 C902 1.355 . S
C903 C905 1.419 . S
C904 C902 1.415 . S
C904 C909 1.425 . S
C904 C911 1.409 . S
C905 H897 0.930 . S
C905 C903 1.419 . S
C905 C906 1.362 . S
C906 H898 0.930 . S
C906 C905 1.362 . S
C906 C909 1.409 . S
C907 H899 0.930 . S
C907 C908 1.355 . S
C907 C909 1.415 . S
C908 C907 1.355 . S
C908 C910 1.419 . S
C909 C904 1.425 . S
C909 C906 1.409 . S
C909 C907 1.415 . S
C910 H900 0.930 . S
C910 C908 1.419 . S
C910 C911 1.362 . S
C911 H901 0.930 . S
C911 C904 1.409 . S
C911 C910 1.362 . S
H912 C918 0.930 . S
H913 C921 0.930 . S
H914 C922 0.930 . S
H915 C923 0.930 . S
H916 C926 0.930 . S
H917 C927 0.930 . S
C918 H912 0.930 . S
C918 C919 1.355 . S
C918 C920 1.415 . S
C919 C918 1.355 . S
C919 C921 1.419 . S
C920 C918 1.415 . S
C920 C925 1.425 . S
C920 C927 1.409 . S
C921 H913 0.930 . S
C921 C919 1.419 . S
C921 C922 1.362 . S
C922 H914 0.930 . S
C922 C921 1.362 . S
C922 C925 1.409 . S
C923 H915 0.930 . S
C923 C924 1.355 . S
C923 C925 1.415 . S
C924 C923 1.355 . S
C924 C926 1.419 . S
C925 C920 1.425 . S
C925 C922 1.409 . S
C925 C923 1.415 . S
C926 H916 0.930 . S
C926 C924 1.419 . S
C926 C927 1.362 . S
C927 H917 0.930 . S
C927 C920 1.409 . S
C927 C926 1.362 . S
H928 C934 0.930 . S
H929 C937 0.930 . S
H930 C938 0.930 . S
H931 C939 0.930 . S
H932 C942 0.930 . S
H933 C943 0.930 . S
C934 H928 0.930 . S
C934 C935 1.355 . S
C934 C936 1.415 . S
C935 C934 1.355 . S
C935 C937 1.419 . S
C936 C934 1.415 . S
C936 C941 1.425 . S
C936 C943 1.409 . S
C937 H929 0.930 . S
C937 C935 1.419 . S
C937 C938 1.362 . S
C938 H930 0.930 . S
C938 C937 1.362 . S
C938 C941 1.409 . S
C939 H931 0.930 . S
C939 C940 1.355 . S
C939 C941 1.415 . S
C940 C939 1.355 . S
C940 C942 1.419 . S
C941 C936 1.425 . S
C941 C938 1.409 . S
C941 C939 1.415 . S
C942 H932 0.930 . S
C942 C940 1.419 . S
C942 C943 1.362 . S
C943 H933 0.930 . S
C943 C936 1.409 . S
C943 C942 1.362 . S
H944 C950 0.930 . S
H945 C953 0.930 . S
H946 C954 0.930 . S
H947 C955 0.930 . S
H948 C958 0.930 . S
H949 C959 0.930 . S
C950 H944 0.930 . S
C950 C951 1.355 . S
C950 C952 1.415 . S
C951 C950 1.355 . S
C951 C953 1.419 . S
C952 C950 1.415 . S
C952 C957 1.425 . S
C952 C959 1.409 . S
C953 H945 0.930 . S
C953 C951 1.419 . S
C953 C954 1.362 . S
C954 H946 0.930 . S
C954 C953 1.362 . S
C954 C957 1.409 . S
C955 H947 0.930 . S
C955 C956 1.355 . S
C955 C957 1.415 . S
C956 C955 1.355 . S
C956 C958 1.419 . S
C957 C952 1.425 . S
C957 C954 1.409 . S
C957 C955 1.415 . S
C958 H948 0.930 . S
C958 C956 1.419 . S
C958 C959 1.362 . S
C959 H949 0.930 . S
C959 C952 1.409 . S
C959 C958 1.362 . S
H960 C966 0.930 . S
H961 C969 0.930 . S
H962 C970 0.930 . S
H963 C971 0.930 . S
H964 C974 0.930 . S
H965 C975 0.930 . S
C966 H960 0.930 . S
C966 C967 1.355 . S
C966 C968 1.415 . S
C967 C966 1.355 . S
C967 C969 1.419 . S
C968 C966 1.415 . S
C968 C973 1.425 . S
C968 C975 1.409 . S
C969 H961 0.930 . S
C969 C967 1.419 . S
C969 C970 1.362 . S
C970 H962 0.930 . S
C970 C969 1.362 . S
C970 C973 1.409 . S
C971 H963 0.930 . S
C971 C972 1.355 . S
C971 C973 1.415 . S
C972 C971 1.355 . S
C972 C974 1.419 . S
C973 C968 1.425 . S
C973 C970 1.409 . S
C973 C971 1.415 . S
C974 H964 0.930 . S
C974 C972 1.419 . S
C974 C975 1.362 . S
C975 H965 0.930 . S
C975 C968 1.409 . S
C975 C974 1.362 . S
H976 C982 0.930 . S
H977 C985 0.930 . S
H978 C986 0.930 . S
H979 C987 0.930 . S
H980 C990 0.930 . S
H981 C991 0.930 . S
C982 H976 0.930 . S
C982 C983 1.355 . S
C982 C984 1.415 . S
C983 C982 1.355 . S
C983 C985 1.419 . S
C984 C982 1.415 . S
C984 C989 1.425 . S
C984 C991 1.409 . S
C985 H977 0.930 . S
C985 C983 1.419 . S
C985 C986 1.362 . S
C986 H978 0.930 . S
C986 C985 1.362 . S
C986 C989 1.409 . S
C987 H979 0.930 . S
C987 C988 1.355 . S
C987 C989 1.415 . S
C988 C987 1.355 . S
C988 C990 1.419 . S
C989 C984 1.425 . S
C989 C986 1.409 . S
C989 C987 1.415 . S
C990 H980 0.930 . S
C990 C988 1.419 . S
C990 C991 1.362 . S
C991 H981 0.930 . S
C991 C984 1.409 . S
C991 C990 1.362 . S
H992 C998 0.930 . S
H993 C1001 0.930 . S
H994 C1002 0.930 . S
H995 C1003 0.930 . S
H996 C1006 0.930 . S
H997 C1007 0.930 . S
C998 H992 0.930 . S
C998 C999 1.355 . S
C998 C1000 1.415 . S
C999 C998 1.355 . S
C999 C1001 1.419 . S
C1000 C998 1.415 . S
C1000 C1005 1.425 . S
C1000 C1007 1.409 . S
C1001 H993 0.930 . S
C1001 C999 1.419 . S
C1001 C1002 1.362 . S
C1002 H994 0.930 . S
C1002 C1001 1.362 . S
C1002 C1005 1.409 . S
C1003 H995 0.930 . S
C1003 C1004 1.355 . S
C1003 C1005 1.415 . S
C1004 C1003 1.355 . S
C1004 C1006 1.419 . S
C1005 C1000 1.425 . S
C1005 C1002 1.409 . S
C1005 C1003 1.415 . S
C1006 H996 0.930 . S
C1006 C1004 1.419 . S
C1006 C1007 1.362 . S
C1007 H997 0.930 . S
C1007 C1000 1.409 . S
C1007 C1006 1.362 . S
H1008 C1014 0.930 . S
H1009 C1017 0.930 . S
H1010 C1018 0.930 . S
H1011 C1019 0.930 . S
H1012 C1022 0.930 . S
H1013 C1023 0.930 . S
C1014 H1008 0.930 . S
C1014 C1015 1.355 . S
C1014 C1016 1.415 . S
C1015 C1014 1.355 . S
C1015 C1017 1.419 . S
C1016 C1014 1.415 . S
C1016 C1021 1.425 1_556 S
C1016 C1023 1.409 1_556 S
C1017 H1009 0.930 . S
C1017 C1015 1.419 . S
C1017 C1018 1.362 . S
C1018 H1010 0.930 . S
C1018 C1017 1.362 . S
C1018 C1021 1.409 1_556 S
C1019 H1011 0.930 . S
C1019 C1020 1.355 . S
C1019 C1021 1.415 . S
C1020 C1019 1.355 . S
C1020 C1022 1.419 . S
C1021 C1016 1.425 1_554 S
C1021 C1018 1.409 1_554 S
C1021 C1019 1.415 . S
C1022 H1012 0.930 . S
C1022 C1020 1.419 . S
C1022 C1023 1.362 . S
C1023 H1013 0.930 . S
C1023 C1016 1.409 1_554 S
C1023 C1022 1.362 . S
H1024 C1030 0.930 . S
H1025 C1033 0.930 . S
H1026 C1034 0.930 . S
H1027 C1035 0.930 . S
H1028 C1038 0.930 . S
H1029 C1039 0.930 . S
C1030 H1024 0.930 . S
C1030 C1031 1.355 . S
C1030 C1032 1.415 . S
C1031 C1030 1.355 . S
C1031 C1033 1.419 . S
C1032 C1030 1.415 . S
C1032 C1037 1.425 1_554 S
C1032 C1039 1.409 1_554 S
C1033 H1025 0.930 . S
C1033 C1031 1.419 . S
C1033 C1034 1.362 . S
C1034 H1026 0.930 . S
C1034 C1033 1.362 . S
C1034 C1037 1.409 1_554 S
C1035 H1027 0.930 . S
C1035 C1036 1.355 . S
C1035 C1037 1.415 . S
C1036 C1035 1.355 . S
C1036 C1038 1.419 . S
C1037 C1032 1.425 1_556 S
C1037 C1034 1.409 1_556 S
C1037 C1035 1.415 . S
C1038 H1028 0.930 . S
C1038 C1036 1.419 . S
C1038 C1039 1.362 . S
C1039 H1029 0.930 . S
C1039 C1032 1.409 1_556 S
C1039 C1038 1.362 . S
H1040 C1046 0.930 . S
H1041 C1049 0.930 . S
H1042 C1050 0.930 . S
H1043 C1051 0.930 . S
H1044 C1054 0.930 . S
H1045 C1055 0.930 . S
C1046 H1040 0.930 . S
C1046 C1047 1.355 . S
C1046 C1048 1.415 . S
C1047 C1046 1.355 . S
C1047 C1049 1.419 . S
C1048 C1046 1.415 . S
C1048 C1053 1.425 . S
C1048 C1055 1.409 . S
C1049 H1041 0.930 . S
C1049 C1047 1.419 . S
C1049 C1050 1.362 . S
C1050 H1042 0.930 . S
C1050 C1049 1.362 . S
C1050 C1053 1.409 . S
C1051 H1043 0.930 . S
C1051 C1052 1.355 . S
C1051 C1053 1.415 . S
C1052 C1051 1.355 . S
C1052 C1054 1.419 . S
C1053 C1048 1.425 . S
C1053 C1050 1.409 . S
C1053 C1051 1.415 . S
C1054 H1044 0.930 . S
C1054 C1052 1.419 . S
C1054 C1055 1.362 . S
C1055 H1045 0.930 . S
C1055 C1048 1.409 . S
C1055 C1054 1.362 . S
H1056 C1062 0.930 . S
H1057 C1065 0.930 . S
H1058 C1066 0.930 . S
H1059 C1067 0.930 . S
H1060 C1070 0.930 . S
H1061 C1071 0.930 . S
C1062 H1056 0.930 . S
C1062 C1063 1.355 . S
C1062 C1064 1.415 . S
C1063 C1062 1.355 . S
C1063 C1065 1.419 . S
C1064 C1062 1.415 . S
C1064 C1069 1.425 . S
C1064 C1071 1.409 . S
C1065 H1057 0.930 . S
C1065 C1063 1.419 . S
C1065 C1066 1.362 . S
C1066 H1058 0.930 . S
C1066 C1065 1.362 . S
C1066 C1069 1.409 . S
C1067 H1059 0.930 . S
C1067 C1068 1.355 . S
C1067 C1069 1.415 . S
C1068 C1067 1.355 . S
C1068 C1070 1.419 . S
C1069 C1064 1.425 . S
C1069 C1066 1.409 . S
C1069 C1067 1.415 . S
C1070 H1060 0.930 . S
C1070 C1068 1.419 . S
C1070 C1071 1.362 . S
C1071 H1061 0.930 . S
C1071 C1064 1.409 . S
C1071 C1070 1.362 . S
H1072 C1078 0.930 . S
H1073 C1081 0.930 . S
H1074 C1082 0.930 . S
H1075 C1083 0.930 . S
H1076 C1086 0.930 . S
H1077 C1087 0.930 . S
C1078 H1072 0.930 . S
C1078 C1079 1.355 . S
C1078 C1080 1.415 . S
C1079 C1078 1.355 . S
C1079 C1081 1.419 . S
C1080 C1078 1.415 . S
C1080 C1085 1.425 . S
C1080 C1087 1.409 . S
C1081 H1073 0.930 . S
C1081 C1079 1.419 . S
C1081 C1082 1.362 . S
C1082 H1074 0.930 . S
C1082 C1081 1.362 . S
C1082 C1085 1.409 . S
C1083 H1075 0.930 . S
C1083 C1084 1.355 . S
C1083 C1085 1.415 . S
C1084 C1083 1.355 . S
C1084 C1086 1.419 . S
C1085 C1080 1.425 . S
C1085 C1082 1.409 . S
C1085 C1083 1.415 . S
C1086 H1076 0.930 . S
C1086 C1084 1.419 . S
C1086 C1087 1.362 . S
C1087 H1077 0.930 . S
C1087 C1080 1.409 . S
C1087 C1086 1.362 . S
C583 C374 1.399 . S
C588 C14 1.468 . S
C599 C50 1.437 . S
C604 C410 1.470 . S
C615 C302 1.475 . S
C620 C86 1.413 . S
C631 C338 1.406 . S
C636 C122 1.420 . S
C647 C158 1.442 . S
C652 C518 1.468 . S
C663 C554 1.438 . S
C668 C194 1.395 . S
C679 C230 1.407 . S
C684 C446 1.418 . S
C695 C482 1.443 . S
C700 C266 1.467 . S
C711 C362 1.502 . S
C716 C2 1.505 . S
C727 C38 1.531 . S
C732 C398 1.528 . S
C743 C74 1.531 . S
C748 C290 1.527 . S
C759 C110 1.520 . S
C764 C326 1.525 . S
C775 C146 1.529 . S
C780 C506 1.525 . S
C791 C182 1.509 . S
C796 C542 1.505 . S
C807 C434 1.532 . S
C812 C218 1.529 . S
C823 C470 1.532 . S
C828 C254 1.533 . S
C839 C4 1.316 . S
C844 C220 1.269 . S
C855 C40 1.289 . S
C860 C256 1.321 . S
C871 C76 1.265 . S
C876 C148 1.321 . S
C887 C112 1.311 . S
C892 C184 1.300 . S
C903 C292 1.338 . S
C908 C508 1.263 . S
C919 C544 1.282 . S
C924 C328 1.302 . S
C935 C364 1.319 . S
C940 C436 1.267 . S
C951 C472 1.308 . S
C956 C400 1.303 . S
C967 C3 1.333 . S
C972 C543 1.302 . S
C983 C435 1.309 . S
C988 C39 1.298 . S
C999 C471 1.338 . S
C1004 C75 1.361 . S
C1015 C507 1.308 . S
C1020 C111 1.342 . S
C1031 C327 1.353 . S
C1036 C147 1.360 . S
C1047 C363 1.346 . S
C1052 C183 1.362 . S
C1063 C219 1.297 . S
C1068 C399 1.315 . S
C1079 C255 1.346 . S
C1084 C291 1.362 . S
