# Generated by pormake.
# Topology neb, (4)-cn, num edge types: 1
# Building blocks:
#     Node 0, Type 0, BuildingBlock: ICAMEG_clean_sbu_1, # of connection points: 4
#     Node 1, Type 0, BuildingBlock: ICAMEG_clean_sbu_1, # of connection points: 4
#     Node 2, Type 0, BuildingBlock: ICAMEG_clean_sbu_1, # of connection points: 4
#     Node 3, Type 0, BuildingBlock: ICAMEG_clean_sbu_1, # of connection points: 4
#     Node 4, Type 0, BuildingBlock: ICAMEG_clean_sbu_1, # of connection points: 4
#     Node 5, Type 0, BuildingBlock: ICAMEG_clean_sbu_1, # of connection points: 4
#     Node 6, Type 0, BuildingBlock: ICAMEG_clean_sbu_1, # of connection points: 4
#     Node 7, Type 0, BuildingBlock: ICAMEG_clean_sbu_1, # of connection points: 4
#     Node 8, Type 0, BuildingBlock: ICAMEG_clean_sbu_1, # of connection points: 4
#     Node 9, Type 0, BuildingBlock: ICAMEG_clean_sbu_1, # of connection points: 4
#     Node 10, Type 0, BuildingBlock: ICAMEG_clean_sbu_1, # of connection points: 4
#     Node 11, Type 0, BuildingBlock: ICAMEG_clean_sbu_1, # of connection points: 4
#     Node 12, Type 0, BuildingBlock: ICAMEG_clean_sbu_1, # of connection points: 4
#     Node 13, Type 0, BuildingBlock: ICAMEG_clean_sbu_1, # of connection points: 4
#     Node 14, Type 0, BuildingBlock: ICAMEG_clean_sbu_1, # of connection points: 4
#     Node 15, Type 0, BuildingBlock: ICAMEG_clean_sbu_1, # of connection points: 4
#     Edge 16, Type (0, 0), None
#     Edge 17, Type (0, 0), None
#     Edge 18, Type (0, 0), None
#     Edge 19, Type (0, 0), None
#     Edge 20, Type (0, 0), None
#     Edge 21, Type (0, 0), None
#     Edge 22, Type (0, 0), None
#     Edge 23, Type (0, 0), None
#     Edge 24, Type (0, 0), None
#     Edge 25, Type (0, 0), None
#     Edge 26, Type (0, 0), None
#     Edge 27, Type (0, 0), None
#     Edge 28, Type (0, 0), None
#     Edge 29, Type (0, 0), None
#     Edge 30, Type (0, 0), None
#     Edge 31, Type (0, 0), None
#     Edge 32, Type (0, 0), None
#     Edge 33, Type (0, 0), None
#     Edge 34, Type (0, 0), None
#     Edge 35, Type (0, 0), None
#     Edge 36, Type (0, 0), None
#     Edge 37, Type (0, 0), None
#     Edge 38, Type (0, 0), None
#     Edge 39, Type (0, 0), None
#     Edge 40, Type (0, 0), None
#     Edge 41, Type (0, 0), None
#     Edge 42, Type (0, 0), None
#     Edge 43, Type (0, 0), None
#     Edge 44, Type (0, 0), None
#     Edge 45, Type (0, 0), None
#     Edge 46, Type (0, 0), None
#     Edge 47, Type (0, 0), None
# Relax obj value: 0.004
# Max RMSD: 0.050
# Mean RMSD: 0.050
data_MOF--net-neb--node1-ICAMEG_clean_sbu_1--edge1-none
_symmetry_space_group_name_H-M    P1
_symmetry_Int_Tables_number       1
_symmetry_cell_setting            triclinic
loop_
_symmetry_equiv_pos_as_xyz
'x, y, z'
_cell_length_a     21.419301
_cell_length_b     11.599156
_cell_length_c     43.554849
_cell_angle_alpha  90.000966
_cell_angle_beta   108.03509
_cell_angle_gamma 89.990404
loop_
_atom_site_label
_atom_site_type_symbol
_atom_site_fract_x
_atom_site_fract_y
_atom_site_fract_z
_atom_type_partial_charge
Co0 Co 0.15578 0.07068 0.39233 0.0
Co1 Co 0.0281 0.18679 0.41485 0.0
O2 O 0.07575 0.05207 0.40448 0.0
C3 C 0.08071 0.86836 0.3497 0.0
O4 O 0.05514 0.84633 0.37282 0.0
C5 C -0.05078 0.04007 0.45076 0.0
O6 O 0.89666 0.038 0.42561 0.0
O7 O 0.11055 0.23807 0.44998 0.0
O8 O 0.19083 0.18527 0.42979 0.0
H9 H 0.00766 0.60813 0.42914 0.0
H10 H 0.19528 0.81694 0.38647 0.0
O11 O 0.12188 0.95366 0.35349 0.0
H12 H 0.26951 0.89689 0.50268 0.0
H13 H 0.36555 0.97686 0.36835 0.0
H14 H 0.22804 0.28246 0.39071 0.0
H15 H 0.19864 0.03197 0.46586 0.0
H16 H 0.25489 0.9331 0.36899 0.0
O17 O 0.00299 0.08901 0.4495 0.0
H18 H 0.06433 0.42799 0.42448 0.0
H19 H 0.89512 0.23704 0.42449 0.0
H20 H 0.33685 0.33145 0.38704 0.0
H21 H 0.26185 0.67541 0.42326 0.0
H22 H 0.40594 0.17909 0.37464 0.0
H23 H 0.30393 0.7169 0.48181 0.0
O24 O 0.11491 0.19716 0.3602 0.0
H25 H 0.90527 0.88661 0.34081 0.0
H26 H 0.92383 0.30391 0.36144 0.0
H27 H 0.85446 0.23329 0.30851 0.0
H28 H 0.85155 0.02348 0.2968 0.0
H29 H -0.02971 0.95903 0.39306 0.0
H30 H 0.84359 0.41344 0.43561 0.0
H31 H 0.89946 0.59928 0.43787 0.0
O32 O 0.04786 0.29134 0.38113 0.0
C33 C 0.17135 0.23643 0.45136 0.0
C34 C -0.01583 0.52587 0.4292 0.0
C35 C 0.89165 0.41554 0.43282 0.0
N36 N -0.01622 0.31995 0.42472 0.0
C37 C 0.01531 0.42353 0.42636 0.0
C38 C 0.92217 0.31554 0.42748 0.0
C39 C 0.9228 0.521 0.43339 0.0
C40 C 0.21157 0.83875 0.41155 0.0
N41 N 0.1977 0.94369 0.42256 0.0
C42 C 0.25014 0.75643 0.43248 0.0
C43 C 0.27367 0.77937 0.46533 0.0
C44 C 0.25498 0.88079 0.47695 0.0
C45 C 0.21546 0.95997 0.45536 0.0
C46 C 0.3351 0.04504 0.37292 0.0
C47 C 0.25783 0.21421 0.38575 0.0
C48 C 0.27275 0.01912 0.37436 0.0
N49 N 0.23593 0.10225 0.38221 0.0
C50 C 0.3193 0.24361 0.38345 0.0
C51 C 0.35801 0.15841 0.37659 0.0
C52 C 0.07661 0.28188 0.35973 0.0
C53 C 0.90772 0.97816 0.34492 0.0
C54 C 0.91799 0.21221 0.35735 0.0
C55 C 0.88025 0.17296 0.32699 0.0
C56 C 0.87716 0.05523 0.32053 0.0
N57 N -0.04836 0.13592 0.38049 0.0
C58 C 0.94452 0.02012 0.37481 0.0
Co59 Co -0.01174 0.07126 0.78937 0.0
Co60 Co 0.11599 0.18718 0.76687 0.0
O61 O 0.06832 0.05253 0.77725 0.0
C62 C 0.06322 0.86887 0.83203 0.0
O63 O 0.08884 0.84681 0.80893 0.0
C64 C 0.1948 0.04018 0.73095 0.0
O65 O 0.24737 0.0381 0.75609 0.0
O66 O 0.03356 0.23855 0.73173 0.0
O67 O -0.04672 0.18583 0.7519 0.0
H68 H 0.13655 0.6085 0.75259 0.0
H69 H -0.05134 0.8176 0.79522 0.0
O70 O 0.02207 0.95422 0.82823 0.0
H71 H 0.87476 0.89752 0.679 0.0
H72 H 0.77827 0.97793 0.81319 0.0
H73 H 0.91608 0.28318 0.79096 0.0
H74 H 0.94562 0.03249 0.71586 0.0
H75 H 0.88896 0.93389 0.81263 0.0
O76 O 0.14106 0.08928 0.73222 0.0
H77 H 0.07984 0.42846 0.75726 0.0
H78 H 0.24894 0.2372 0.75719 0.0
H79 H 0.80721 0.3324 0.79452 0.0
H80 H 0.88215 0.6761 0.7584 0.0
H81 H 0.73797 0.1802 0.80685 0.0
H82 H 0.84023 0.71761 0.69984 0.0
O83 O 0.02912 0.19771 0.8215 0.0
H84 H 0.23863 0.88697 0.84096 0.0
H85 H 0.22021 0.30423 0.82029 0.0
H86 H 0.28944 0.23363 0.87325 0.0
H87 H 0.29225 0.02386 0.88499 0.0
H88 H 0.17379 0.95937 0.78868 0.0
H89 H 0.30053 0.41355 0.74608 0.0
H90 H 0.24475 0.59947 0.74384 0.0
O91 O 0.09623 0.2918 0.80059 0.0
C92 C -0.02724 0.23696 0.73034 0.0
C93 C 0.16002 0.5262 0.75253 0.0
C94 C 0.25248 0.41571 0.74887 0.0
N95 N 0.16035 0.32027 0.757 0.0
C96 C 0.12886 0.42391 0.75537 0.0
C97 C 0.22194 0.31576 0.75422 0.0
C98 C 0.22138 0.52123 0.74832 0.0
C99 C 0.93244 0.83939 0.77013 0.0
N100 N 0.94637 0.9443 0.75914 0.0
C101 C 0.89391 0.75709 0.74919 0.0
C102 C 0.87046 0.78005 0.71633 0.0
C103 C 0.88922 0.88143 0.70474 0.0
C104 C 0.92872 0.96056 0.72634 0.0
C105 C 0.80879 0.04605 0.80865 0.0
C106 C 0.88622 0.21499 0.79589 0.0
C107 C 0.87116 0.01996 0.80725 0.0
N108 N 0.90807 0.103 0.79945 0.0
C109 C 0.82472 0.24453 0.79813 0.0
C110 C 0.78592 0.15943 0.80495 0.0
C111 C 0.06745 0.28238 0.82198 0.0
C112 C 0.23623 0.9785 0.83684 0.0
C113 C 0.22604 0.21254 0.82439 0.0
C114 C 0.26369 0.1733 0.85477 0.0
C115 C 0.26673 0.05558 0.86124 0.0
N116 N 0.19243 0.13625 0.80124 0.0
C117 C 0.19953 0.02045 0.80693 0.0
Co118 Co 0.73818 0.95535 0.53939 0.0
Co119 Co 0.86586 0.83924 0.51686 0.0
O120 O 0.81821 0.97396 0.52723 0.0
C121 C 0.81325 0.15767 0.58201 0.0
O122 O 0.83882 0.1797 0.55889 0.0
C123 C 0.94475 0.98596 0.48096 0.0
O124 O -0.0027 0.98803 0.5061 0.0
O125 O 0.78341 0.78796 0.48173 0.0
O126 O 0.70314 0.84076 0.50192 0.0
H127 H 0.88631 0.4179 0.50257 0.0
H128 H 0.69869 0.20909 0.54524 0.0
O129 O 0.77209 0.07237 0.57822 0.0
H130 H 0.62445 0.12914 0.42903 0.0
H131 H 0.52842 0.04917 0.56337 0.0
H132 H 0.66593 0.74357 0.541 0.0
H133 H 0.69532 0.99407 0.46586 0.0
H134 H 0.63908 0.09293 0.56273 0.0
O135 O 0.89097 0.93702 0.48221 0.0
H136 H 0.82963 0.59804 0.50723 0.0
H137 H -0.00116 0.78899 0.50722 0.0
H138 H 0.55712 0.69458 0.54467 0.0
H139 H 0.63212 0.35062 0.50845 0.0
H140 H 0.48803 0.84695 0.55707 0.0
H141 H 0.59004 0.30913 0.4499 0.0
O142 O 0.77905 0.82887 0.57151 0.0
H143 H -0.0113 0.13942 0.59091 0.0
H144 H -0.02986 0.72212 0.57027 0.0
H145 H 0.03951 0.79275 0.6232 0.0
H146 H 0.04242 1.00255 0.63491 0.0
H147 H 0.92368 0.067 0.53865 0.0
H148 H 0.05037 0.61259 0.4961 0.0
H149 H -0.00549 0.42675 0.49384 0.0
O150 O 0.84611 0.73469 0.55058 0.0
C151 C 0.72261 0.7896 0.48035 0.0
C152 C 0.90979 0.50016 0.50251 0.0
C153 C 0.00231 0.61049 0.49889 0.0
N154 N 0.91019 0.70608 0.50699 0.0
C155 C 0.87866 0.6025 0.50535 0.0
C156 C -0.02821 0.71049 0.50423 0.0
C157 C -0.02883 0.50503 0.49832 0.0
C158 C 0.6824 0.18728 0.52016 0.0
N159 N 0.69626 0.08234 0.50915 0.0
C160 C 0.64383 0.2696 0.49923 0.0
C161 C 0.62029 0.24666 0.46638 0.0
C162 C 0.63899 0.14524 0.45477 0.0
C163 C 0.67851 0.06606 0.47636 0.0
C164 C 0.55886 0.98099 0.55879 0.0
C165 C 0.63613 0.81183 0.54596 0.0
C166 C 0.62122 1.00691 0.55735 0.0
N167 N 0.65803 0.92378 0.5495 0.0
C168 C 0.57466 0.78242 0.54827 0.0
C169 C 0.53595 0.86762 0.55513 0.0
C170 C 0.81736 0.74415 0.57198 0.0
C171 C -0.01375 0.04787 0.58679 0.0
C172 C -0.02402 0.81382 0.57436 0.0
C173 C 0.01372 0.85307 0.60473 0.0
C174 C 0.0168 0.9708 0.61118 0.0
N175 N 0.94232 0.89012 0.55123 0.0
C176 C -0.05056 1.00592 0.5569 0.0
Co177 Co 0.90571 0.95477 0.14234 0.0
Co178 Co 0.77798 0.83885 0.16485 0.0
O179 O 0.82565 0.9735 0.15446 0.0
C180 C 0.83074 0.15717 0.09968 0.0
O181 O 0.80513 0.17923 0.12278 0.0
C182 C 0.69917 0.98585 0.20076 0.0
O183 O 0.64659 0.98793 0.17563 0.0
O184 O 0.8604 0.78748 0.19998 0.0
O185 O 0.94069 0.8402 0.17981 0.0
H186 H 0.75741 0.41754 0.17912 0.0
H187 H 0.94531 0.20843 0.1365 0.0
O188 O 0.8719 0.07181 0.10349 0.0
H189 H 0.0192 0.12851 0.25271 0.0
H190 H 0.11569 0.0481 0.11852 0.0
H191 H -0.02212 0.74285 0.14075 0.0
H192 H -0.05166 0.99355 0.21585 0.0
H193 H 0.00501 0.09215 0.11908 0.0
O194 O 0.75291 0.93675 0.19949 0.0
H195 H 0.81413 0.59758 0.17446 0.0
H196 H 0.64502 0.78884 0.17452 0.0
H197 H 0.08675 0.69363 0.13719 0.0
H198 H 0.01181 0.34993 0.17331 0.0
H199 H 0.156 0.84583 0.12487 0.0
H200 H 0.05374 0.30842 0.23187 0.0
O201 O 0.86485 0.82832 0.11021 0.0
H202 H 0.65533 0.13907 0.09075 0.0
H203 H 0.67375 0.7218 0.11143 0.0
H204 H 0.60453 0.79241 0.05846 0.0
H205 H 0.60171 1.00217 0.04672 0.0
H206 H 0.72018 0.06666 0.14304 0.0
H207 H 0.59343 0.61249 0.18563 0.0
H208 H 0.64922 0.42656 0.18787 0.0
O209 O 0.79774 0.73423 0.13112 0.0
C210 C 0.9212 0.78907 0.20137 0.0
C211 C 0.73395 0.49983 0.17918 0.0
C212 C 0.64148 0.61032 0.18284 0.0
N213 N 0.73362 0.70576 0.17471 0.0
C214 C 0.76511 0.60212 0.17634 0.0
C215 C 0.67203 0.71027 0.17749 0.0
C216 C 0.67259 0.5048 0.18339 0.0
C217 C -0.03848 0.18664 0.16158 0.0
N218 N -0.0524 0.08173 0.17257 0.0
C219 C 5e-05 0.26894 0.18252 0.0
C220 C 0.0235 0.24598 0.21538 0.0
C221 C 0.00474 0.1446 0.22697 0.0
C222 C -0.03475 0.06547 0.20537 0.0
C223 C 0.08517 0.97999 0.12306 0.0
C224 C 0.00774 0.81104 0.13582 0.0
C225 C 0.0228 1.00608 0.12446 0.0
N226 N -0.01411 0.92304 0.13227 0.0
C227 C 0.06925 0.7815 0.13358 0.0
C228 C 0.10804 0.8666 0.12676 0.0
C229 C 0.82652 0.74365 0.10973 0.0
C230 C 0.65773 0.04753 0.09487 0.0
C231 C 0.66792 0.81349 0.10733 0.0
C232 C 0.63027 0.85273 0.07694 0.0
C233 C 0.62724 0.97045 0.07047 0.0
N234 N 0.70153 0.88978 0.13047 0.0
C235 C 0.69443 1.00558 0.12478 0.0
Co236 Co 0.15574 0.57121 0.89235 0.0
Co237 Co 0.028 0.68719 0.91486 0.0
O238 O 0.07568 0.55253 0.90447 0.0
C239 C 0.08078 0.36885 0.8497 0.0
O240 O 0.05516 0.34679 0.8728 0.0
C241 C -0.05081 0.54016 0.95076 0.0
O242 O 0.89663 0.53807 0.92562 0.0
O243 O 0.11042 0.73853 0.94999 0.0
O244 O 0.19071 0.6858 0.92981 0.0
H245 H 0.00734 0.10851 0.92912 0.0
H246 H 0.19532 0.31751 0.88651 0.0
O247 O 0.12192 0.45419 0.8535 0.0
H248 H 0.26928 0.39745 0.00272 0.0
H249 H 0.36567 0.47768 0.86849 0.0
H250 H 0.22794 0.78308 0.89076 0.0
H251 H 0.19844 0.53248 -0.03413 0.0
H252 H 0.25499 0.43375 0.86908 0.0
O253 O 0.00292 0.58928 0.9495 0.0
H254 H 0.0641 0.92848 0.92446 0.0
H255 H 0.89505 0.73719 0.92455 0.0
H256 H 0.33679 0.83219 0.88717 0.0
H257 H 0.26182 0.17597 0.92333 0.0
H258 H 0.40599 0.67992 0.87482 0.0
H259 H 0.30378 0.21748 -0.01812 0.0
O260 O 0.11487 0.69768 0.86022 0.0
H261 H 0.90538 0.38709 0.84073 0.0
H262 H 0.92378 0.80432 0.86144 0.0
H263 H 0.85455 0.7338 0.80847 0.0
H264 H 0.85175 0.52406 0.79672 0.0
H265 H -0.02978 0.4594 0.89302 0.0
H266 H 0.84341 0.91352 0.93564 0.0
H267 H 0.89914 0.09947 0.93786 0.0
O268 O 0.04777 0.79181 0.88114 0.0
C269 C 0.17122 0.73694 0.95138 0.0
C270 C -0.01611 0.02621 0.92918 0.0
C271 C 0.89146 0.9157 0.93285 0.0
N272 N -0.01638 0.82028 0.92472 0.0
C273 C 0.01508 0.92393 0.92634 0.0
C274 C 0.92204 0.81576 0.92751 0.0
C275 C 0.92253 0.02123 0.93339 0.0
C276 C 0.21155 0.33931 0.91159 0.0
N277 N 0.19764 0.44424 0.92259 0.0
C278 C 0.25008 0.25699 0.93254 0.0
C279 C 0.27354 0.27994 0.96539 0.0
C280 C 0.25481 0.38135 -0.02301 0.0
C281 C 0.21532 0.46052 0.95538 0.0
C282 C 0.33516 0.54582 0.87304 0.0
C283 C 0.25778 0.71486 0.88582 0.0
C284 C 0.2728 0.5198 0.87445 0.0
N285 N 0.23592 0.60289 0.88227 0.0
C286 C 0.31928 0.74434 0.88357 0.0
C287 C 0.35804 0.6592 0.87673 0.0
C288 C 0.07654 0.78238 0.85974 0.0
C289 C 0.90777 0.47862 0.84486 0.0
C290 C 0.91795 0.71263 0.85734 0.0
C291 C 0.8803 0.67344 0.82695 0.0
C292 C 0.87727 0.55574 0.82047 0.0
N293 N -0.04844 0.63631 0.88047 0.0
C294 C 0.94447 0.52052 0.87478 0.0
Co295 Co -0.01181 0.57072 0.28939 0.0
Co296 Co 0.11587 0.68677 0.26687 0.0
O297 O 0.06823 0.55207 0.27724 0.0
C298 C 0.06326 0.36836 0.33202 0.0
O299 O 0.08885 0.34633 0.30891 0.0
C300 C 0.19475 0.54007 0.23095 0.0
O301 O 0.24731 0.53798 0.25609 0.0
O302 O 0.03341 0.73807 0.23174 0.0
O303 O -0.04686 0.6853 0.25193 0.0
H304 H 0.13623 0.1081 0.25256 0.0
H305 H -0.05131 0.31701 0.29525 0.0
O306 O 0.02209 0.45369 0.32824 0.0
H307 H 0.87451 0.39694 0.17904 0.0
H308 H 0.77837 0.47709 0.31333 0.0
H309 H 0.91596 0.78255 0.29101 0.0
H310 H 0.94539 0.53197 0.21587 0.0
H311 H 0.88904 0.43322 0.31272 0.0
O312 O 0.14097 0.589 0.23221 0.0
H313 H 0.07959 0.92796 0.25723 0.0
H314 H 0.24885 0.73702 0.25724 0.0
H315 H 0.80713 0.83164 0.29465 0.0
H316 H 0.88212 0.17552 0.25846 0.0
H317 H 0.738 0.67934 0.30702 0.0
H318 H 0.84006 0.21701 0.19991 0.0
O319 O 0.02905 0.69719 0.32152 0.0
H320 H 0.23872 0.38652 0.3409 0.0
H321 H 0.22015 0.80384 0.32028 0.0
H322 H 0.28951 0.73315 0.37321 0.0
H323 H 0.29243 0.52334 0.38491 0.0
H324 H 0.1737 0.45899 0.28865 0.0
H325 H 0.30034 0.91343 0.24611 0.0
H326 H 0.24443 0.09925 0.24384 0.0
O327 O 0.09611 0.79133 0.30059 0.0
C328 C -0.02739 0.73644 0.23036 0.0
C329 C 0.15973 0.02584 0.25251 0.0
C330 C 0.25228 0.91551 0.2489 0.0
N331 N 0.16017 0.81992 0.257 0.0
C332 C 0.12861 0.9235 0.25535 0.0
C333 C 0.22178 0.81552 0.25424 0.0
C334 C 0.2211 0.02097 0.24832 0.0
C335 C 0.93241 0.33882 0.27017 0.0
N336 N 0.94629 0.44374 0.25917 0.0
C337 C 0.89384 0.25651 0.24925 0.0
C338 C 0.87032 0.27946 0.21639 0.0
C339 C 0.88903 0.38085 0.20478 0.0
C340 C 0.92855 0.46 0.22637 0.0
C341 C 0.80884 0.54524 0.30877 0.0
C342 C 0.88615 0.71433 0.29597 0.0
C343 C 0.8712 0.51926 0.30734 0.0
N344 N 0.90804 0.60235 0.2995 0.0
C345 C 0.82466 0.74379 0.29825 0.0
C346 C 0.78593 0.65862 0.30509 0.0
C347 C 0.06736 0.78189 0.32199 0.0
C348 C 0.23627 0.47807 0.33678 0.0
C349 C 0.22598 0.71213 0.32437 0.0
C350 C 0.26372 0.67285 0.35473 0.0
C351 C 0.26681 0.55512 0.36118 0.0
N352 N 0.19233 0.63586 0.30123 0.0
C353 C 0.19946 0.52006 0.3069 0.0
Co354 Co 0.73823 0.45482 0.03936 0.0
Co355 Co 0.86597 0.33884 0.01686 0.0
O356 O 0.81828 0.47351 0.02724 0.0
C357 C 0.81319 0.65719 0.08201 0.0
O358 O 0.8388 0.67924 0.05891 0.0
C359 C 0.94478 0.48587 -0.01904 0.0
O360 O -0.00266 0.48797 0.00609 0.0
O361 O 0.78355 0.2875 -0.01828 0.0
O362 O 0.70326 0.34023 0.0019 0.0
H363 H 0.88663 0.91752 0.0026 0.0
H364 H 0.69864 0.70852 0.0452 0.0
O365 O 0.77204 0.57184 0.07821 0.0
H366 H 0.62468 0.62858 0.92899 0.0
H367 H 0.5283 0.54835 0.06323 0.0
H368 H 0.66603 0.24295 0.04095 0.0
H369 H 0.69552 0.49355 0.96584 0.0
H370 H 0.63898 0.59228 0.06264 0.0
O371 O 0.89105 0.43675 -0.01779 0.0
H372 H 0.82987 0.09755 0.00725 0.0
H373 H -0.00109 0.28885 0.00717 0.0
H374 H 0.55718 0.19384 0.04454 0.0
H375 H 0.63214 0.85006 0.00838 0.0
H376 H 0.48798 0.34611 0.05689 0.0
H377 H 0.59019 0.80855 0.94983 0.0
O378 O 0.7791 0.32835 0.07149 0.0
H379 H -0.01142 0.63894 0.09098 0.0
H380 H -0.02982 0.22171 0.07027 0.0
H381 H 0.03942 0.29223 0.12324 0.0
H382 H 0.04221 0.50198 0.135 0.0
H383 H 0.92375 0.56663 0.03869 0.0
H384 H 0.05055 0.11251 -0.00393 0.0
H385 H -0.00517 0.92656 -0.00615 0.0
O386 O 0.8462 0.23422 0.05058 0.0
C387 C 0.72275 0.28909 -0.01967 0.0
C388 C 0.91008 0.99982 0.00253 0.0
C389 C 0.0025 0.11033 -0.00113 0.0
N390 N 0.91034 0.20575 0.00699 0.0
C391 C 0.87889 0.10211 0.00537 0.0
C392 C -0.02807 0.21028 0.00421 0.0
C393 C -0.02856 1.0048 -0.00168 0.0
C394 C 0.68242 0.68672 0.02012 0.0
N395 N 0.69632 0.58179 0.00912 0.0
C396 C 0.64389 0.76905 -0.00082 0.0
C397 C 0.62042 0.74609 -0.03368 0.0
C398 C 0.63916 0.64468 0.95472 0.0
C399 C 0.67865 0.56552 -0.02367 0.0
C400 C 0.5588 0.48021 0.05867 0.0
C401 C 0.63619 0.31117 0.04589 0.0
C402 C 0.62116 0.50623 0.05726 0.0
N403 N 0.65805 0.42315 0.04944 0.0
C404 C 0.57469 0.28169 0.04815 0.0
C405 C 0.53592 0.36683 0.05499 0.0
C406 C 0.81742 0.24365 0.07197 0.0
C407 C -0.01381 0.54741 0.08685 0.0
C408 C -0.02398 0.3134 0.07437 0.0
C409 C 0.01367 0.35259 0.10476 0.0
C410 C 0.0167 0.47029 0.11124 0.0
N411 N 0.9424 0.38973 0.05124 0.0
C412 C -0.05051 0.50551 0.05694 0.0
Co413 Co 0.90577 0.45531 0.64232 0.0
Co414 Co 0.7781 0.33926 0.66485 0.0
O415 O 0.82574 0.47396 0.65447 0.0
C416 C 0.83071 0.65767 0.59969 0.0
O417 O 0.80512 0.6797 0.6228 0.0
C418 C 0.69922 0.48596 0.70076 0.0
O419 O 0.64665 0.48805 0.67562 0.0
O420 O 0.86056 0.28796 0.69997 0.0
O421 O 0.94083 0.34074 0.67978 0.0
H422 H 0.75774 0.91793 0.67916 0.0
H423 H 0.94528 0.70902 0.63646 0.0
O424 O 0.87187 0.57234 0.60348 0.0
H425 H 0.01946 0.62909 0.75267 0.0
H426 H 0.1156 0.54894 0.61838 0.0
H427 H -0.02199 0.24348 0.6407 0.0
H428 H -0.05143 0.49407 0.71584 0.0
H429 H 0.00492 0.59281 0.61899 0.0
O430 O 0.753 0.43704 0.6995 0.0
H431 H 0.81438 0.09807 0.67449 0.0
H432 H 0.64512 0.28901 0.67448 0.0
H433 H 0.08683 0.19439 0.63706 0.0
H434 H 0.01185 0.85052 0.67325 0.0
H435 H 0.15597 0.34669 0.62469 0.0
H436 H 0.0539 0.80902 0.7318 0.0
O437 O 0.86491 0.32884 0.61019 0.0
H438 H 0.65525 0.63951 0.59082 0.0
H439 H 0.67382 0.22219 0.61144 0.0
H440 H 0.60446 0.29288 0.5585 0.0
H441 H 0.60154 0.5027 0.5468 0.0
H442 H 0.72027 0.56704 0.64307 0.0
H443 H 0.59362 0.11261 0.6856 0.0
H444 H 0.64954 0.92678 0.68788 0.0
O445 O 0.79786 0.2347 0.63112 0.0
C446 C 0.92136 0.28959 0.70136 0.0
C447 C 0.73424 1.00019 0.67921 0.0
C448 C 0.64169 0.11052 0.68282 0.0
N449 N 0.7338 0.20611 0.67472 0.0
C450 C 0.76535 0.10253 0.67637 0.0
C451 C 0.67219 0.21052 0.67747 0.0
C452 C 0.67286 1.00506 0.68339 0.0
C453 C -0.03844 0.68722 0.66154 0.0
N454 N -0.05232 0.5823 0.67255 0.0
C455 C 0.00012 0.76952 0.68247 0.0
C456 C 0.02365 0.74657 0.71532 0.0
C457 C 0.00493 0.64518 0.72693 0.0
C458 C -0.03459 0.56603 0.70534 0.0
C459 C 0.08513 0.48079 0.62294 0.0
C460 C 0.00782 0.31171 0.63575 0.0
C461 C 0.02277 0.50677 0.62437 0.0
N462 N -0.01407 0.42368 0.63221 0.0
C463 C 0.0693 0.28224 0.63347 0.0
C464 C 0.10803 0.36741 0.62662 0.0
C465 C 0.82661 0.24414 0.60972 0.0
C466 C 0.6577 0.54796 0.59493 0.0
C467 C 0.66798 0.3139 0.60734 0.0
C468 C 0.63024 0.35318 0.57698 0.0
C469 C 0.62715 0.47092 0.57053 0.0
N470 N 0.70163 0.39017 0.63048 0.0
C471 C 0.69451 0.50598 0.62481 0.0
Co472 Co 0.65578 0.07067 0.89233 0.0
Co473 Co 0.5281 0.18679 0.91485 0.0
O474 O 0.57575 0.05207 0.90448 0.0
C475 C 0.5807 0.86836 0.8497 0.0
O476 O 0.55513 0.84633 0.87282 0.0
C477 C 0.44921 0.04008 0.95076 0.0
O478 O 0.39666 0.03802 0.92561 0.0
O479 O 0.61055 0.23806 0.94998 0.0
O480 O 0.69082 0.18526 0.92979 0.0
H481 H 0.50766 0.60813 0.92914 0.0
H482 H 0.69526 0.81692 0.88647 0.0
O483 O 0.62187 0.95366 0.85349 0.0
H484 H 0.76953 0.89687 0.00268 0.0
H485 H 0.86553 0.97682 0.86834 0.0
H486 H 0.72804 0.28245 0.89071 0.0
H487 H 0.69866 0.03196 -0.03414 0.0
H488 H 0.75487 0.93308 0.86898 0.0
O489 O 0.50299 0.08901 0.9495 0.0
H490 H 0.56433 0.42798 0.92448 0.0
H491 H 0.39512 0.23705 0.92449 0.0
H492 H 0.83685 0.33141 0.88704 0.0
H493 H 0.76183 0.67538 0.92326 0.0
H494 H 0.90593 0.17904 0.87464 0.0
H495 H 0.80392 0.71687 -0.01819 0.0
O496 O 0.61491 0.19716 0.8602 0.0
H497 H 0.40526 0.88659 0.84081 0.0
H498 H 0.42382 0.3039 0.86144 0.0
H499 H 0.35446 0.23326 0.80851 0.0
H500 H 0.35155 0.02345 0.7968 0.0
H501 H 0.47028 0.95902 0.89307 0.0
H502 H 0.34359 0.41346 0.93561 0.0
H503 H 0.39947 0.59929 0.93787 0.0
O504 O 0.54785 0.29134 0.88113 0.0
C505 C 0.67135 0.23643 0.95136 0.0
C506 C 0.48418 0.52587 0.9292 0.0
C507 C 0.39165 0.41555 0.93282 0.0
N508 N 0.48378 0.31995 0.92472 0.0
C509 C 0.51531 0.42353 0.92636 0.0
C510 C 0.42217 0.31555 0.92748 0.0
C511 C 0.42281 0.52101 0.93339 0.0
C512 C 0.71155 0.83873 0.91155 0.0
N513 N 0.69769 0.94367 0.92256 0.0
C514 C 0.75012 0.7564 0.93247 0.0
C515 C 0.77367 0.77935 0.96533 0.0
C516 C 0.75498 0.88077 -0.02306 0.0
C517 C 0.71547 0.95996 0.95535 0.0
C518 C 0.83509 0.045 0.87292 0.0
C519 C 0.75783 0.21418 0.88575 0.0
C520 C 0.77274 0.0191 0.87436 0.0
N521 N 0.73593 0.10223 0.88221 0.0
C522 C 0.8193 0.24358 0.88345 0.0
C523 C 0.85801 0.15837 0.87659 0.0
C524 C 0.57661 0.28188 0.85973 0.0
C525 C 0.40771 0.97814 0.84493 0.0
C526 C 0.41799 0.2122 0.85735 0.0
C527 C 0.38025 0.17294 0.82698 0.0
C528 C 0.37716 0.05521 0.82053 0.0
N529 N 0.45164 0.13591 0.88049 0.0
C530 C 0.44452 0.02011 0.87481 0.0
Co531 Co 0.48823 0.07124 0.28937 0.0
Co532 Co 0.61597 0.18716 0.26687 0.0
O533 O 0.5683 0.05251 0.27725 0.0
C534 C 0.56321 0.86885 0.33203 0.0
O535 O 0.58882 0.8468 0.30893 0.0
C536 C 0.69478 0.04016 0.23096 0.0
O537 O 0.74735 0.03807 0.25609 0.0
O538 O 0.53355 0.23853 0.23173 0.0
O539 O 0.45326 0.18581 0.2519 0.0
H540 H 0.63654 0.60847 0.25259 0.0
H541 H 0.44865 0.81757 0.29522 0.0
O542 O 0.52205 0.95421 0.32823 0.0
H543 H 0.37473 0.89747 0.179 0.0
H544 H 0.27825 0.97787 0.31319 0.0
H545 H 0.41605 0.28315 0.29096 0.0
H546 H 0.44557 0.03247 0.21586 0.0
H547 H 0.38894 0.93385 0.31263 0.0
O548 O 0.64104 0.08926 0.23222 0.0
H549 H 0.57982 0.42844 0.25726 0.0
H550 H 0.74893 0.23717 0.25719 0.0
H551 H 0.30718 0.33235 0.29452 0.0
H552 H 0.38216 0.67605 0.2584 0.0
H553 H 0.23794 0.18014 0.30685 0.0
H554 H 0.34022 0.71755 0.19985 0.0
O555 O 0.52909 0.1977 0.3215 0.0
H556 H 0.73864 0.88695 0.34096 0.0
H557 H 0.7202 0.30422 0.32029 0.0
H558 H 0.78944 0.23361 0.37325 0.0
H559 H 0.79226 0.02384 0.38499 0.0
H560 H 0.67377 0.95935 0.28868 0.0
H561 H 0.80052 0.41352 0.24609 0.0
H562 H 0.74473 0.59945 0.24385 0.0
O563 O 0.59621 0.29178 0.30059 0.0
C564 C 0.47275 0.23694 0.23034 0.0
C565 C 0.66001 0.52618 0.25253 0.0
C566 C 0.75247 0.41569 0.24888 0.0
N567 N 0.66033 0.32025 0.257 0.0
C568 C 0.62884 0.42389 0.25537 0.0
C569 C 0.72192 0.31573 0.25422 0.0
C570 C 0.72137 0.52121 0.24832 0.0
C571 C 0.43243 0.83936 0.27014 0.0
N572 N 0.44634 0.94427 0.25914 0.0
C573 C 0.39391 0.75705 0.24919 0.0
C574 C 0.37045 0.78 0.21634 0.0
C575 C 0.3892 0.88138 0.20474 0.0
C576 C 0.42868 0.96053 0.22634 0.0
C577 C 0.30877 0.04599 0.30865 0.0
C578 C 0.38619 0.21496 0.29589 0.0
C579 C 0.37114 0.01991 0.30725 0.0
N580 N 0.40805 0.10296 0.29944 0.0
C581 C 0.32468 0.24449 0.29813 0.0
C582 C 0.28589 0.15938 0.30495 0.0
C583 C 0.56742 0.28237 0.32198 0.0
C584 C 0.73623 0.97849 0.33684 0.0
C585 C 0.72603 0.21252 0.32439 0.0
C586 C 0.76369 0.17328 0.35477 0.0
C587 C 0.76673 0.05557 0.36124 0.0
N588 N 0.69241 0.13623 0.30124 0.0
C589 C 0.69952 0.02043 0.30693 0.0
Co590 Co 0.23819 0.95536 0.03939 0.0
Co591 Co 0.36587 0.83924 0.01686 0.0
O592 O 0.31822 0.97397 0.02723 0.0
C593 C 0.31326 0.15767 0.08201 0.0
O594 O 0.33884 0.1797 0.0589 0.0
C595 C 0.44475 0.98596 -0.01904 0.0
O596 O 0.49731 0.98801 0.0061 0.0
O597 O 0.28342 0.78797 -0.01826 0.0
O598 O 0.20314 0.84077 0.00192 0.0
H599 H 0.3863 0.4179 0.00257 0.0
H600 H 0.19871 0.20912 0.04524 0.0
O601 O 0.27209 0.07238 0.07823 0.0
H602 H 0.12444 0.12916 0.92903 0.0
H603 H 0.02843 0.04921 0.06337 0.0
H604 H 0.16593 0.74359 0.041 0.0
H605 H 0.1953 0.99407 0.96586 0.0
H606 H 0.13909 0.09295 0.06273 0.0
O607 O 0.39097 0.93703 -0.01779 0.0
H608 H 0.32963 0.59805 0.00723 0.0
H609 H 0.49885 0.78898 0.00722 0.0
H610 H 0.05712 0.69462 0.04467 0.0
H611 H 0.13214 0.35065 0.00846 0.0
H612 H -0.01197 0.847 0.05707 0.0
H613 H 0.09004 0.30916 0.94991 0.0
O614 O 0.27906 0.82888 0.07151 0.0
H615 H 0.4887 0.13944 0.0909 0.0
H616 H 0.47014 0.72213 0.07027 0.0
H617 H 0.5395 0.79277 0.12321 0.0
H618 H 0.54241 1.00258 0.13491 0.0
H619 H 0.42369 0.06701 0.03865 0.0
H620 H 0.55037 0.61257 -0.0039 0.0
H621 H 0.4945 0.42674 -0.00616 0.0
O622 O 0.34611 0.7347 0.05058 0.0
C623 C 0.22262 0.7896 -0.01965 0.0
C624 C 0.40979 0.50016 0.00251 0.0
C625 C 0.50231 0.61048 -0.00111 0.0
N626 N 0.41019 0.70608 0.00699 0.0
C627 C 0.37866 0.60251 0.00535 0.0
C628 C 0.4718 0.71048 0.00423 0.0
C629 C 0.47116 0.50502 -0.00168 0.0
C630 C 0.18242 0.1873 0.02016 0.0
N631 N 0.19627 0.08236 0.00916 0.0
C632 C 0.14384 0.26963 -0.00076 0.0
C633 C 0.1203 0.24669 -0.03362 0.0
C634 C 0.13898 0.14526 0.95477 0.0
C635 C 0.1785 0.06607 -0.02364 0.0
C636 C 0.05887 0.98103 0.05879 0.0
C637 C 0.13613 0.81185 0.04597 0.0
C638 C 0.12123 1.00694 0.05736 0.0
N639 N 0.15804 0.9238 0.0495 0.0
C640 C 0.07466 0.78245 0.04827 0.0
C641 C 0.03596 0.86766 0.05513 0.0
C642 C 0.31736 0.74415 0.07198 0.0
C643 C 0.48626 0.04789 0.08678 0.0
C644 C 0.47598 0.81383 0.07436 0.0
C645 C 0.51372 0.85309 0.10473 0.0
C646 C 0.51681 0.97082 0.11118 0.0
N647 N 0.44233 0.89012 0.05123 0.0
C648 C 0.44945 1.00593 0.0569 0.0
Co649 Co 0.40573 0.95479 0.64234 0.0
Co650 Co 0.27799 0.83887 0.66484 0.0
O651 O 0.32567 0.97352 0.65446 0.0
C652 C 0.33076 0.15718 0.59969 0.0
O653 O 0.30514 0.17924 0.62279 0.0
C654 C 0.19919 0.98588 0.70076 0.0
O655 O 0.14661 0.98796 0.67562 0.0
O656 O 0.36042 0.7875 0.69998 0.0
O657 O 0.44071 0.84022 0.67981 0.0
H658 H 0.25742 0.41756 0.67912 0.0
H659 H 0.44531 0.20847 0.63649 0.0
O660 O 0.37191 0.07183 0.60349 0.0
H661 H 0.51924 0.12856 0.75271 0.0
H662 H 0.61571 0.04816 0.61852 0.0
H663 H 0.47792 0.74288 0.64076 0.0
H664 H 0.4484 0.99356 0.71586 0.0
H665 H 0.50502 0.09219 0.61909 0.0
O666 O 0.25292 0.93677 0.69949 0.0
H667 H 0.31414 0.5976 0.67445 0.0
H668 H 0.14504 0.78886 0.67452 0.0
H669 H 0.58679 0.69368 0.63719 0.0
H670 H 0.51181 0.34998 0.67331 0.0
H671 H 0.65602 0.84589 0.62486 0.0
H672 H 0.55375 0.30848 0.73186 0.0
O673 O 0.36487 0.82833 0.61021 0.0
H674 H 0.15533 0.13908 0.59075 0.0
H675 H 0.17377 0.72182 0.61143 0.0
H676 H 0.10453 0.79242 0.55846 0.0
H677 H 0.1017 1.00219 0.54673 0.0
H678 H 0.2202 0.06668 0.64303 0.0
H679 H 0.09345 0.61251 0.68563 0.0
H680 H 0.14923 0.42658 0.68787 0.0
O681 O 0.29776 0.73425 0.63112 0.0
C682 C 0.42122 0.78909 0.70138 0.0
C683 C 0.23396 0.49985 0.67918 0.0
C684 C 0.1415 0.61034 0.68283 0.0
N685 N 0.23364 0.70578 0.67471 0.0
C686 C 0.26512 0.60214 0.67634 0.0
C687 C 0.17205 0.7103 0.67749 0.0
C688 C 0.1726 0.50482 0.68339 0.0
C689 C 0.46153 0.18667 0.66158 0.0
N690 N 0.44762 0.08176 0.67257 0.0
C691 C 0.50006 0.26899 0.68252 0.0
C692 C 0.52352 0.24603 0.71537 0.0
C693 C 0.50477 0.14465 0.72697 0.0
C694 C 0.46528 0.0655 0.70537 0.0
C695 C 0.5852 0.98004 0.62306 0.0
C696 C 0.50777 0.81107 0.63582 0.0
C697 C 0.52283 1.00612 0.62446 0.0
N698 N 0.48592 0.92307 0.63227 0.0
C699 C 0.56928 0.78155 0.63358 0.0
C700 C 0.60807 0.86665 0.62676 0.0
C701 C 0.32654 0.74366 0.60973 0.0
C702 C 0.15774 0.04755 0.59487 0.0
C703 C 0.16794 0.81351 0.60733 0.0
C704 C 0.13028 0.85275 0.57694 0.0
C705 C 0.12723 0.97046 0.57047 0.0
N706 N 0.20155 0.8898 0.63047 0.0
C707 C 0.19445 1.0056 0.62478 0.0
Co708 Co 0.65572 0.5712 0.39235 0.0
Co709 Co 0.52799 0.68718 0.41485 0.0
O710 O 0.57567 0.55252 0.40447 0.0
C711 C 0.58075 0.36884 0.3497 0.0
O712 O 0.55513 0.34679 0.3728 0.0
C713 C 0.44918 0.54018 0.45076 0.0
O714 O 0.39661 0.53813 0.42563 0.0
O715 O 0.61041 0.73853 0.44999 0.0
O716 O 0.6907 0.68578 0.42981 0.0
H717 H 0.50736 0.10851 0.42912 0.0
H718 H 0.6953 0.31749 0.38651 0.0
O719 O 0.6219 0.45417 0.3535 0.0
H720 H 0.76929 0.39743 0.50272 0.0
H721 H 0.86565 0.47764 0.36849 0.0
H722 H 0.72792 0.78306 0.39076 0.0
H723 H 0.69844 0.53246 0.46587 0.0
H724 H 0.75497 0.43373 0.36907 0.0
O725 O 0.50291 0.58928 0.4495 0.0
H726 H 0.5641 0.92846 0.42446 0.0
H727 H 0.39503 0.73722 0.42454 0.0
H728 H 0.83678 0.83215 0.38717 0.0
H729 H 0.76181 0.17596 0.42332 0.0
H730 H 0.90598 0.67988 0.37482 0.0
H731 H 0.80377 0.21746 0.48187 0.0
O732 O 0.61486 0.69767 0.36022 0.0
H733 H 0.40534 0.38703 0.34075 0.0
H734 H 0.42378 0.80428 0.36143 0.0
H735 H 0.35453 0.73372 0.30847 0.0
H736 H 0.35171 0.52396 0.29673 0.0
H737 H 0.4702 0.45939 0.39304 0.0
H738 H 0.34342 0.91357 0.43564 0.0
H739 H 0.39916 0.0995 0.43787 0.0
O740 O 0.54775 0.7918 0.38113 0.0
C741 C 0.67121 0.73693 0.45138 0.0
C742 C 0.4839 0.02622 0.42918 0.0
C743 C 0.39146 0.91574 0.43284 0.0
N744 N 0.48362 0.82028 0.42472 0.0
C745 C 0.51508 0.92392 0.42634 0.0
C746 C 0.42203 0.81578 0.4275 0.0
C747 C 0.42254 0.02126 0.43339 0.0
C748 C 0.71153 0.33929 0.41159 0.0
N749 N 0.69763 0.44422 0.42258 0.0
C750 C 0.75007 0.25697 0.43253 0.0
C751 C 0.77354 0.27992 0.46538 0.0
C752 C 0.7548 0.38133 0.47698 0.0
C753 C 0.71531 0.46049 0.45538 0.0
C754 C 0.83515 0.54579 0.37304 0.0
C755 C 0.75777 0.71483 0.38582 0.0
C756 C 0.77279 0.51977 0.37445 0.0
N757 N 0.7359 0.60286 0.38227 0.0
C758 C 0.81927 0.7443 0.38356 0.0
C759 C 0.85803 0.65916 0.37673 0.0
C760 C 0.57653 0.78237 0.35974 0.0
C761 C 0.40774 0.47856 0.34488 0.0
C762 C 0.41794 0.71259 0.35733 0.0
C763 C 0.38028 0.67338 0.32695 0.0
C764 C 0.37724 0.55566 0.32048 0.0
N765 N 0.45155 0.63628 0.38048 0.0
C766 C 0.44445 0.52049 0.37479 0.0
Co767 Co 0.48819 0.57072 0.78939 0.0
Co768 Co 0.61587 0.68677 0.76687 0.0
O769 O 0.56823 0.55206 0.77725 0.0
C770 C 0.56325 0.36836 0.83202 0.0
O771 O 0.58885 0.34634 0.80891 0.0
C772 C 0.69476 0.54006 0.73096 0.0
O773 O 0.74732 0.53797 0.7561 0.0
O774 O 0.53342 0.73807 0.73174 0.0
O775 O 0.45314 0.6853 0.75193 0.0
H776 H 0.63624 0.1081 0.75257 0.0
H777 H 0.44869 0.317 0.79525 0.0
O778 O 0.52209 0.45369 0.82824 0.0
H779 H 0.3745 0.39693 0.67904 0.0
H780 H 0.27837 0.47708 0.81333 0.0
H781 H 0.41595 0.78255 0.79101 0.0
H782 H 0.44537 0.53197 0.71587 0.0
H783 H 0.38904 0.43321 0.81272 0.0
O784 O 0.64098 0.58899 0.73222 0.0
H785 H 0.57959 0.92796 0.75723 0.0
H786 H 0.74885 0.73701 0.75724 0.0
H787 H 0.30712 0.83163 0.79465 0.0
H788 H 0.38214 0.1755 0.75847 0.0
H789 H 0.238 0.67933 0.80702 0.0
H790 H 0.34007 0.21699 0.69991 0.0
O791 O 0.52905 0.69718 0.82152 0.0
H792 H 0.73874 0.38653 0.8409 0.0
H793 H 0.72015 0.80385 0.82028 0.0
H794 H 0.78952 0.73317 0.87321 0.0
H795 H 0.79246 0.52335 0.88492 0.0
H796 H 0.6737 0.45899 0.78866 0.0
H797 H 0.80035 0.91342 0.74612 0.0
H798 H 0.74443 0.09925 0.74384 0.0
O799 O 0.59611 0.79132 0.80059 0.0
C800 C 0.47262 0.73644 0.73036 0.0
C801 C 0.65973 0.02584 0.75251 0.0
C802 C 0.75229 0.91551 0.7489 0.0
N803 N 0.66017 0.81992 0.757 0.0
C804 C 0.62862 0.9235 0.75536 0.0
C805 C 0.72178 0.81551 0.75425 0.0
C806 C 0.72111 0.02097 0.74833 0.0
C807 C 0.43242 0.33881 0.77017 0.0
N808 N 0.44629 0.44373 0.75917 0.0
C809 C 0.39385 0.2565 0.74925 0.0
C810 C 0.37033 0.27945 0.71639 0.0
C811 C 0.38903 0.38084 0.70478 0.0
C812 C 0.42854 0.46 0.72637 0.0
C813 C 0.30883 0.54523 0.80877 0.0
C814 C 0.38614 0.71432 0.79596 0.0
C815 C 0.37119 0.51925 0.80734 0.0
N816 N 0.40803 0.60235 0.7995 0.0
C817 C 0.32466 0.74378 0.79825 0.0
C818 C 0.28593 0.65861 0.80509 0.0
C819 C 0.56735 0.78188 0.82199 0.0
C820 C 0.73628 0.47808 0.83679 0.0
C821 C 0.72599 0.71214 0.82437 0.0
C822 C 0.76374 0.67286 0.85474 0.0
C823 C 0.76684 0.55513 0.86119 0.0
N824 N 0.69234 0.63587 0.80124 0.0
C825 C 0.69947 0.52006 0.80691 0.0
Co826 Co 0.23824 0.45484 0.53937 0.0
Co827 Co 0.36598 0.33885 0.51686 0.0
O828 O 0.3183 0.47352 0.52724 0.0
C829 C 0.31321 0.6572 0.58201 0.0
O830 O 0.33884 0.67924 0.55892 0.0
C831 C 0.44479 0.48585 0.48095 0.0
O832 O 0.49736 0.48791 0.50609 0.0
O833 O 0.28355 0.28751 0.48172 0.0
O834 O 0.20326 0.34025 0.5019 0.0
H835 H 0.38661 0.91752 0.5026 0.0
H836 H 0.19867 0.70854 0.54521 0.0
O837 O 0.27206 0.57186 0.57822 0.0
H838 H 0.12468 0.6286 0.42899 0.0
H839 H 0.02832 0.5484 0.56323 0.0
H840 H 0.16604 0.24297 0.54095 0.0
H841 H 0.19553 0.49357 0.46585 0.0
H842 H 0.139 0.59231 0.56264 0.0
O843 O 0.39105 0.43676 0.48221 0.0
H844 H 0.32986 0.09757 0.50725 0.0
H845 H 0.49893 0.28881 0.50718 0.0
H846 H 0.05718 0.19388 0.54454 0.0
H847 H 0.13216 0.85008 0.50839 0.0
H848 H -0.01201 0.34616 0.55689 0.0
H849 H 0.09019 0.80857 0.44984 0.0
O850 O 0.27911 0.32836 0.57149 0.0
H851 H 0.48863 0.63901 0.59096 0.0
H852 H 0.47019 0.22175 0.57028 0.0
H853 H 0.53943 0.29231 0.62324 0.0
H854 H 0.54226 0.50207 0.63498 0.0
H855 H 0.42377 0.56664 0.53867 0.0
H856 H 0.55055 0.11246 0.49607 0.0
H857 H 0.49481 0.92653 0.49385 0.0
O858 O 0.34622 0.23424 0.55058 0.0
C859 C 0.22275 0.2891 0.48034 0.0
C860 C 0.41007 0.99982 0.50253 0.0
C861 C 0.5025 0.1103 0.49887 0.0
N862 N 0.41035 0.20575 0.50699 0.0
C863 C 0.37888 0.10211 0.50537 0.0
C864 C 0.47194 0.21025 0.50421 0.0
C865 C 0.47142 1.00477 0.49832 0.0
C866 C 0.18243 0.68674 0.52013 0.0
N867 N 0.19634 0.58181 0.50913 0.0
C868 C 0.1439 0.76907 0.49918 0.0
C869 C 0.12043 0.74611 0.46633 0.0
C870 C 0.13916 0.6447 0.45473 0.0
C871 C 0.17866 0.56554 0.47633 0.0
C872 C 0.05882 0.48025 0.55867 0.0
C873 C 0.1362 0.3112 0.5459 0.0
C874 C 0.12118 0.50626 0.55727 0.0
N875 N 0.15806 0.42317 0.54945 0.0
C876 C 0.0747 0.28173 0.54815 0.0
C877 C 0.03593 0.36687 0.55499 0.0
C878 C 0.31744 0.24366 0.57197 0.0
C879 C 0.48622 0.54747 0.58683 0.0
C880 C 0.47603 0.31344 0.57438 0.0
C881 C 0.51369 0.35266 0.60476 0.0
C882 C 0.51673 0.47037 0.61123 0.0
N883 N 0.44241 0.38975 0.55124 0.0
C884 C 0.44951 0.50554 0.55692 0.0
Co885 Co 0.40578 0.45532 0.14232 0.0
Co886 Co 0.2781 0.33926 0.16484 0.0
O887 O 0.32574 0.47397 0.15447 0.0
C888 C 0.33071 0.65767 0.09969 0.0
O889 O 0.30511 0.67969 0.1228 0.0
C890 C 0.19921 0.48597 0.20075 0.0
O891 O 0.14665 0.48806 0.17561 0.0
O892 O 0.36055 0.28796 0.19997 0.0
O893 O 0.44082 0.34073 0.17979 0.0
H894 H 0.25773 0.91793 0.17914 0.0
H895 H 0.44527 0.70903 0.13646 0.0
O896 O 0.37188 0.57234 0.10348 0.0
H897 H 0.51946 0.6291 0.25267 0.0
H898 H 0.6156 0.54895 0.11838 0.0
H899 H 0.47802 0.24348 0.14071 0.0
H900 H 0.44859 0.49406 0.21584 0.0
H901 H 0.50493 0.59282 0.119 0.0
O902 O 0.25299 0.43704 0.19949 0.0
H903 H 0.31437 0.09807 0.17448 0.0
H904 H 0.14511 0.28902 0.17447 0.0
H905 H 0.58684 0.1944 0.13706 0.0
H906 H 0.51183 0.85054 0.17325 0.0
H907 H 0.65597 0.3467 0.12469 0.0
H908 H 0.55389 0.80905 0.2318 0.0
O909 O 0.36492 0.32885 0.11019 0.0
H910 H 0.15523 0.6395 0.09081 0.0
H911 H 0.17381 0.22218 0.11143 0.0
H912 H 0.10444 0.29286 0.0585 0.0
H913 H 0.10151 0.50268 0.0468 0.0
H914 H 0.22026 0.56704 0.14306 0.0
H915 H 0.09362 0.11261 0.18559 0.0
H916 H 0.14953 0.92678 0.18787 0.0
O917 O 0.29786 0.23471 0.13112 0.0
C918 C 0.42135 0.28959 0.20135 0.0
C919 C 0.23423 1.00019 0.1792 0.0
C920 C 0.14168 0.11052 0.18281 0.0
N921 N 0.23379 0.20611 0.17471 0.0
C922 C 0.26534 0.10253 0.17636 0.0
C923 C 0.17218 0.21052 0.17746 0.0
C924 C 0.17286 1.00506 0.18338 0.0
C925 C 0.46155 0.68723 0.16154 0.0
N926 N 0.44768 0.5823 0.17255 0.0
C927 C 0.50011 0.76953 0.18247 0.0
C928 C 0.52364 0.74659 0.21532 0.0
C929 C 0.50494 0.64519 0.22693 0.0
C930 C 0.46542 0.56603 0.20534 0.0
C931 C 0.58513 0.4808 0.12294 0.0
C932 C 0.50783 0.31171 0.13575 0.0
C933 C 0.52277 0.50678 0.12437 0.0
N934 N 0.48594 0.42369 0.13221 0.0
C935 C 0.56931 0.28225 0.13347 0.0
C936 C 0.60804 0.36742 0.12662 0.0
C937 C 0.32661 0.24415 0.10972 0.0
C938 C 0.15768 0.54795 0.09492 0.0
C939 C 0.16798 0.31389 0.10734 0.0
C940 C 0.13023 0.35317 0.07698 0.0
C941 C 0.12713 0.4709 0.07053 0.0
N942 N 0.20163 0.39017 0.13048 0.0
C943 C 0.1945 0.50597 0.12481 0.0
loop_
_geom_bond_atom_site_label_1
_geom_bond_atom_site_label_2
_geom_bond_distance
_geom_bond_site_symmetry_2
_ccdc_geom_bond_type
Co0 O2 2.143 . S
Co0 O8 2.074 . S
Co0 O11 2.093 1_545 S
Co0 O24 2.097 . S
Co0 N41 2.151 1_545 S
Co0 N49 2.214 . S
Co1 O2 2.160 . S
Co1 O7 2.058 . S
Co1 O17 2.057 . S
Co1 O32 2.037 . S
Co1 N36 2.145 . S
Co1 N57 2.257 1_455 S
O2 Co0 2.143 . S
O2 Co1 2.160 . S
C3 O4 1.278 . S
C3 O11 1.224 . S
O4 C3 1.278 . S
C5 O6 1.245 1_545 S
C5 O17 1.232 . S
O6 C5 1.245 1_565 S
O7 Co1 2.058 . S
O7 C33 1.269 . S
O8 Co0 2.074 . S
O8 C33 1.257 . S
H9 C34 0.930 . S
H10 C40 0.930 . S
O11 Co0 2.093 1_565 S
O11 C3 1.224 . S
H12 C44 0.929 . S
H13 C46 0.928 1_565 S
H14 C47 0.930 . S
H15 C45 0.929 1_545 S
H16 C48 0.928 1_565 S
O17 Co1 2.057 . S
O17 C5 1.232 . S
H18 C37 0.929 . S
H19 C38 0.929 . S
H20 C50 0.931 . S
H21 C42 0.929 . S
H22 C51 0.930 . S
H23 C43 0.931 . S
O24 Co0 2.097 . S
O24 C52 1.214 . S
H25 C53 0.929 1_565 S
H26 C54 0.929 . S
H27 C55 0.930 . S
H28 C56 0.929 . S
H29 C58 0.930 . S
H30 C35 0.930 . S
H31 C39 0.930 . S
O32 Co1 2.037 . S
O32 C52 1.234 . S
C33 O7 1.269 . S
C33 O8 1.257 . S
C34 H9 0.930 . S
C34 C37 1.388 . S
C34 C39 1.418 1_455 S
C35 H30 0.930 . S
C35 C38 1.404 . S
C35 C39 1.353 . S
N36 Co1 2.145 . S
N36 C37 1.397 . S
N36 C38 1.334 1_455 S
C37 H18 0.929 . S
C37 C34 1.388 . S
C37 N36 1.397 . S
C38 H19 0.929 . S
C38 C35 1.404 . S
C38 N36 1.334 1_655 S
C39 H31 0.930 . S
C39 C34 1.418 1_655 S
C39 C35 1.353 . S
C40 H10 0.930 . S
C40 N41 1.330 . S
C40 C42 1.446 . S
N41 Co0 2.151 1_565 S
N41 C40 1.330 . S
N41 C45 1.418 . S
C42 H21 0.929 . S
C42 C40 1.446 . S
C42 C43 1.332 . S
C43 H23 0.931 . S
C43 C42 1.332 . S
C43 C44 1.267 . S
C44 H12 0.929 . S
C44 C43 1.267 . S
C44 C45 1.251 . S
C45 H15 0.929 1_565 S
C45 N41 1.418 . S
C45 C44 1.251 . S
C46 H13 0.928 1_545 S
C46 C48 1.406 . S
C46 C51 1.261 . S
C47 H14 0.930 . S
C47 N49 1.325 . S
C47 C50 1.357 . S
C48 H16 0.928 1_545 S
C48 C46 1.406 . S
C48 N49 1.261 . S
N49 Co0 2.214 . S
N49 C47 1.325 . S
N49 C48 1.261 . S
C50 H20 0.931 . S
C50 C47 1.357 . S
C50 C51 1.312 . S
C51 H22 0.930 . S
C51 C46 1.261 . S
C51 C50 1.312 . S
C52 O24 1.214 . S
C52 O32 1.234 . S
C53 H25 0.929 1_545 S
C53 C56 1.391 . S
C53 C58 1.391 . S
C54 H26 0.929 . S
C54 C55 1.390 . S
C54 N57 1.391 . S
C55 H27 0.930 . S
C55 C54 1.390 . S
C55 C56 1.392 . S
C56 H28 0.929 . S
C56 C53 1.391 . S
C56 C55 1.392 . S
N57 Co1 2.257 1_655 S
N57 C54 1.391 . S
N57 C58 1.388 . S
C58 H29 0.930 . S
C58 C53 1.391 . S
C58 N57 1.388 . S
Co59 O61 2.143 . S
Co59 O67 2.074 . S
Co59 O70 2.093 1_545 S
Co59 O83 2.097 . S
Co59 N100 2.151 1_445 S
Co59 N108 2.214 1_455 S
Co60 O61 2.160 . S
Co60 O66 2.058 . S
Co60 O76 2.057 . S
Co60 O91 2.037 . S
Co60 N95 2.145 . S
Co60 N116 2.257 . S
O61 Co59 2.143 . S
O61 Co60 2.160 . S
C62 O63 1.278 . S
C62 O70 1.224 . S
O63 C62 1.278 . S
C64 O65 1.245 1_545 S
C64 O76 1.232 . S
O65 C64 1.245 1_565 S
O66 Co60 2.058 . S
O66 C92 1.269 . S
O67 Co59 2.074 . S
O67 C92 1.257 . S
H68 C93 0.930 . S
H69 C99 0.930 . S
O70 Co59 2.093 1_565 S
O70 C62 1.224 . S
H71 C103 0.929 . S
H72 C105 0.928 1_565 S
H73 C106 0.930 . S
H74 C104 0.929 1_545 S
H75 C107 0.928 1_565 S
O76 Co60 2.057 . S
O76 C64 1.232 . S
H77 C96 0.929 . S
H78 C97 0.929 . S
H79 C109 0.931 . S
H80 C101 0.929 . S
H81 C110 0.930 . S
H82 C102 0.931 . S
O83 Co59 2.097 . S
O83 C111 1.214 . S
H84 C112 0.929 1_565 S
H85 C113 0.929 . S
H86 C114 0.930 . S
H87 C115 0.929 . S
H88 C117 0.930 . S
H89 C94 0.930 . S
H90 C98 0.930 . S
O91 Co60 2.037 . S
O91 C111 1.234 . S
C92 O66 1.269 . S
C92 O67 1.257 . S
C93 H68 0.930 . S
C93 C96 1.388 . S
C93 C98 1.418 . S
C94 H89 0.930 . S
C94 C97 1.404 . S
C94 C98 1.353 . S
N95 Co60 2.145 . S
N95 C96 1.397 . S
N95 C97 1.334 . S
C96 H77 0.929 . S
C96 C93 1.388 . S
C96 N95 1.397 . S
C97 H78 0.929 . S
C97 C94 1.404 . S
C97 N95 1.334 . S
C98 H90 0.930 . S
C98 C93 1.418 . S
C98 C94 1.353 . S
C99 H69 0.930 . S
C99 N100 1.330 1_455 S
C99 C101 1.446 1_455 S
N100 Co59 2.151 1_665 S
N100 C99 1.330 1_655 S
N100 C104 1.418 . S
C101 H80 0.929 . S
C101 C99 1.446 1_655 S
C101 C102 1.332 . S
C102 H82 0.931 . S
C102 C101 1.332 . S
C102 C103 1.267 . S
C103 H71 0.929 . S
C103 C102 1.267 . S
C103 C104 1.251 . S
C104 H74 0.929 1_565 S
C104 N100 1.418 . S
C104 C103 1.251 . S
C105 H72 0.928 1_545 S
C105 C107 1.406 . S
C105 C110 1.261 . S
C106 H73 0.930 . S
C106 N108 1.325 . S
C106 C109 1.357 . S
C107 H75 0.928 1_545 S
C107 C105 1.406 . S
C107 N108 1.261 . S
N108 Co59 2.214 1_655 S
N108 C106 1.325 . S
N108 C107 1.261 . S
C109 H79 0.931 . S
C109 C106 1.357 . S
C109 C110 1.312 . S
C110 H81 0.930 . S
C110 C105 1.261 . S
C110 C109 1.312 . S
C111 O83 1.214 . S
C111 O91 1.234 . S
C112 H84 0.929 1_545 S
C112 C115 1.391 . S
C112 C117 1.391 . S
C113 H85 0.929 . S
C113 C114 1.390 . S
C113 N116 1.391 . S
C114 H86 0.930 . S
C114 C113 1.390 . S
C114 C115 1.392 . S
C115 H87 0.929 . S
C115 C112 1.391 . S
C115 C114 1.392 . S
N116 Co60 2.257 . S
N116 C113 1.391 . S
N116 C117 1.388 . S
C117 H88 0.930 . S
C117 C112 1.391 . S
C117 N116 1.388 . S
Co118 O120 2.143 . S
Co118 O126 2.074 . S
Co118 O129 2.093 1_565 S
Co118 O142 2.097 . S
Co118 N159 2.151 1_565 S
Co118 N167 2.214 . S
Co119 O120 2.160 . S
Co119 O125 2.058 . S
Co119 O135 2.057 . S
Co119 O150 2.037 . S
Co119 N154 2.145 . S
Co119 N175 2.257 1_655 S
O120 Co118 2.143 . S
O120 Co119 2.160 . S
C121 O122 1.278 . S
C121 O129 1.224 . S
O122 C121 1.278 . S
C123 O124 1.245 1_565 S
C123 O135 1.232 . S
O124 C123 1.245 1_545 S
O125 Co119 2.058 . S
O125 C151 1.269 . S
O126 Co118 2.074 . S
O126 C151 1.257 . S
H127 C152 0.930 . S
H128 C158 0.930 . S
O129 Co118 2.093 1_545 S
O129 C121 1.224 . S
H130 C162 0.929 . S
H131 C164 0.928 1_545 S
H132 C165 0.930 . S
H133 C163 0.929 1_565 S
H134 C166 0.928 1_545 S
O135 Co119 2.057 . S
O135 C123 1.232 . S
H136 C155 0.929 . S
H137 C156 0.929 . S
H138 C168 0.931 . S
H139 C160 0.929 . S
H140 C169 0.930 . S
H141 C161 0.931 . S
O142 Co118 2.097 . S
O142 C170 1.214 . S
H143 C171 0.929 1_545 S
H144 C172 0.929 . S
H145 C173 0.930 . S
H146 C174 0.929 . S
H147 C176 0.930 . S
H148 C153 0.930 . S
H149 C157 0.930 . S
O150 Co119 2.037 . S
O150 C170 1.234 . S
C151 O125 1.269 . S
C151 O126 1.257 . S
C152 H127 0.930 . S
C152 C155 1.388 . S
C152 C157 1.418 1_655 S
C153 H148 0.930 . S
C153 C156 1.404 . S
C153 C157 1.353 . S
N154 Co119 2.145 . S
N154 C155 1.397 . S
N154 C156 1.334 1_655 S
C155 H136 0.929 . S
C155 C152 1.388 . S
C155 N154 1.397 . S
C156 H137 0.929 . S
C156 C153 1.404 . S
C156 N154 1.334 1_455 S
C157 H149 0.930 . S
C157 C152 1.418 1_455 S
C157 C153 1.353 . S
C158 H128 0.930 . S
C158 N159 1.330 . S
C158 C160 1.446 . S
N159 Co118 2.151 1_545 S
N159 C158 1.330 . S
N159 C163 1.418 . S
C160 H139 0.929 . S
C160 C158 1.446 . S
C160 C161 1.332 . S
C161 H141 0.931 . S
C161 C160 1.332 . S
C161 C162 1.267 . S
C162 H130 0.929 . S
C162 C161 1.267 . S
C162 C163 1.251 . S
C163 H133 0.929 1_545 S
C163 N159 1.418 . S
C163 C162 1.251 . S
C164 H131 0.928 1_565 S
C164 C166 1.406 . S
C164 C169 1.261 . S
C165 H132 0.930 . S
C165 N167 1.325 . S
C165 C168 1.357 . S
C166 H134 0.928 1_565 S
C166 C164 1.406 . S
C166 N167 1.261 . S
N167 Co118 2.214 . S
N167 C165 1.325 . S
N167 C166 1.261 . S
C168 H138 0.931 . S
C168 C165 1.357 . S
C168 C169 1.312 . S
C169 H140 0.930 . S
C169 C164 1.261 . S
C169 C168 1.312 . S
C170 O142 1.214 . S
C170 O150 1.234 . S
C171 H143 0.929 1_565 S
C171 C174 1.391 . S
C171 C176 1.391 . S
C172 H144 0.929 . S
C172 C173 1.390 . S
C172 N175 1.391 . S
C173 H145 0.930 . S
C173 C172 1.390 . S
C173 C174 1.392 . S
C174 H146 0.929 . S
C174 C171 1.391 . S
C174 C173 1.392 . S
N175 Co119 2.257 1_455 S
N175 C172 1.391 . S
N175 C176 1.388 . S
C176 H147 0.930 . S
C176 C171 1.391 . S
C176 N175 1.388 . S
Co177 O179 2.143 . S
Co177 O185 2.074 . S
Co177 O188 2.093 1_565 S
Co177 O201 2.097 . S
Co177 N218 2.151 1_665 S
Co177 N226 2.214 1_655 S
Co178 O179 2.160 . S
Co178 O184 2.058 . S
Co178 O194 2.057 . S
Co178 O209 2.037 . S
Co178 N213 2.145 . S
Co178 N234 2.257 . S
O179 Co177 2.143 . S
O179 Co178 2.160 . S
C180 O181 1.278 . S
C180 O188 1.224 . S
O181 C180 1.278 . S
C182 O183 1.245 1_565 S
C182 O194 1.232 . S
O183 C182 1.245 1_545 S
O184 Co178 2.058 . S
O184 C210 1.269 . S
O185 Co177 2.074 . S
O185 C210 1.257 . S
H186 C211 0.930 . S
H187 C217 0.930 . S
O188 Co177 2.093 1_545 S
O188 C180 1.224 . S
H189 C221 0.929 . S
H190 C223 0.928 1_545 S
H191 C224 0.930 . S
H192 C222 0.929 1_565 S
H193 C225 0.928 1_545 S
O194 Co178 2.057 . S
O194 C182 1.232 . S
H195 C214 0.929 . S
H196 C215 0.929 . S
H197 C227 0.931 . S
H198 C219 0.929 . S
H199 C228 0.930 . S
H200 C220 0.931 . S
O201 Co177 2.097 . S
O201 C229 1.214 . S
H202 C230 0.929 1_545 S
H203 C231 0.929 . S
H204 C232 0.930 . S
H205 C233 0.929 . S
H206 C235 0.930 . S
H207 C212 0.930 . S
H208 C216 0.930 . S
O209 Co178 2.037 . S
O209 C229 1.234 . S
C210 O184 1.269 . S
C210 O185 1.257 . S
C211 H186 0.930 . S
C211 C214 1.388 . S
C211 C216 1.418 . S
C212 H207 0.930 . S
C212 C215 1.404 . S
C212 C216 1.353 . S
N213 Co178 2.145 . S
N213 C214 1.397 . S
N213 C215 1.334 . S
C214 H195 0.929 . S
C214 C211 1.388 . S
C214 N213 1.397 . S
C215 H196 0.929 . S
C215 C212 1.404 . S
C215 N213 1.334 . S
C216 H208 0.930 . S
C216 C211 1.418 . S
C216 C212 1.353 . S
C217 H187 0.930 . S
C217 N218 1.330 1_655 S
C217 C219 1.446 1_655 S
N218 Co177 2.151 1_445 S
N218 C217 1.330 1_455 S
N218 C222 1.418 . S
C219 H198 0.929 . S
C219 C217 1.446 1_455 S
C219 C220 1.332 . S
C220 H200 0.931 . S
C220 C219 1.332 . S
C220 C221 1.267 . S
C221 H189 0.929 . S
C221 C220 1.267 . S
C221 C222 1.251 . S
C222 H192 0.929 1_545 S
C222 N218 1.418 . S
C222 C221 1.251 . S
C223 H190 0.928 1_565 S
C223 C225 1.406 . S
C223 C228 1.261 . S
C224 H191 0.930 . S
C224 N226 1.325 . S
C224 C227 1.357 . S
C225 H193 0.928 1_565 S
C225 C223 1.406 . S
C225 N226 1.261 . S
N226 Co177 2.214 1_455 S
N226 C224 1.325 . S
N226 C225 1.261 . S
C227 H197 0.931 . S
C227 C224 1.357 . S
C227 C228 1.312 . S
C228 H199 0.930 . S
C228 C223 1.261 . S
C228 C227 1.312 . S
C229 O201 1.214 . S
C229 O209 1.234 . S
C230 H202 0.929 1_565 S
C230 C233 1.391 . S
C230 C235 1.391 . S
C231 H203 0.929 . S
C231 C232 1.390 . S
C231 N234 1.391 . S
C232 H204 0.930 . S
C232 C231 1.390 . S
C232 C233 1.392 . S
C233 H205 0.929 . S
C233 C230 1.391 . S
C233 C232 1.392 . S
N234 Co178 2.257 . S
N234 C231 1.391 . S
N234 C235 1.388 . S
C235 H206 0.930 . S
C235 C230 1.391 . S
C235 N234 1.388 . S
Co236 O238 2.143 . S
Co236 O244 2.074 . S
Co236 O247 2.093 . S
Co236 O260 2.097 . S
Co236 N277 2.151 . S
Co236 N285 2.214 . S
Co237 O238 2.160 . S
Co237 O243 2.058 . S
Co237 O253 2.057 . S
Co237 O268 2.037 . S
Co237 N272 2.145 . S
Co237 N293 2.257 1_455 S
O238 Co236 2.143 . S
O238 Co237 2.160 . S
C239 O240 1.278 . S
C239 O247 1.224 . S
O240 C239 1.278 . S
C241 O242 1.245 . S
C241 O253 1.232 . S
O242 C241 1.245 . S
O243 Co237 2.058 . S
O243 C269 1.269 . S
O244 Co236 2.074 . S
O244 C269 1.257 . S
H245 C270 0.930 . S
H246 C276 0.930 . S
O247 Co236 2.093 . S
O247 C239 1.224 . S
H248 C280 0.929 1_554 S
H249 C282 0.930 . S
H250 C283 0.930 . S
H251 C281 0.929 . S
H252 C284 0.928 . S
O253 Co237 2.057 . S
O253 C241 1.232 . S
H254 C273 0.929 . S
H255 C274 0.929 . S
H256 C286 0.931 . S
H257 C278 0.929 . S
H258 C287 0.930 . S
H259 C279 0.931 1_554 S
O260 Co236 2.097 . S
O260 C288 1.214 . S
H261 C289 0.929 . S
H262 C290 0.929 . S
H263 C291 0.930 . S
H264 C292 0.929 . S
H265 C294 0.930 . S
H266 C271 0.950 . S
H267 C275 0.930 . S
O268 Co237 2.037 . S
O268 C288 1.234 . S
C269 O243 1.269 . S
C269 O244 1.257 . S
C270 H245 0.930 . S
C270 C273 1.388 1_545 S
C270 C275 1.418 1_455 S
C271 H266 0.950 . S
C271 C274 1.404 . S
C271 C275 1.353 1_565 S
N272 Co237 2.145 . S
N272 C273 1.397 . S
N272 C274 1.334 1_455 S
C273 H254 0.929 . S
C273 C270 1.388 1_565 S
C273 N272 1.397 . S
C274 H255 0.929 . S
C274 C271 1.404 . S
C274 N272 1.334 1_655 S
C275 H267 0.930 . S
C275 C270 1.418 1_655 S
C275 C271 1.353 1_545 S
C276 H246 0.930 . S
C276 N277 1.330 . S
C276 C278 1.446 . S
N277 Co236 2.151 . S
N277 C276 1.330 . S
N277 C281 1.418 . S
C278 H257 0.929 . S
C278 C276 1.446 . S
C278 C279 1.332 . S
C279 H259 0.931 1_556 S
C279 C278 1.332 . S
C279 C280 1.267 . S
C280 H248 0.929 1_556 S
C280 C279 1.267 . S
C280 C281 1.251 . S
C281 H251 0.929 . S
C281 N277 1.418 . S
C281 C280 1.251 . S
C282 H249 0.930 . S
C282 C284 1.406 . S
C282 C287 1.261 . S
C283 H250 0.930 . S
C283 N285 1.325 . S
C283 C286 1.357 . S
C284 H252 0.928 . S
C284 C282 1.406 . S
C284 N285 1.261 . S
N285 Co236 2.214 . S
N285 C283 1.325 . S
N285 C284 1.261 . S
C286 H256 0.931 . S
C286 C283 1.357 . S
C286 C287 1.312 . S
C287 H258 0.930 . S
C287 C282 1.261 . S
C287 C286 1.312 . S
C288 O260 1.214 . S
C288 O268 1.234 . S
C289 H261 0.929 . S
C289 C292 1.391 . S
C289 C294 1.391 . S
C290 H262 0.929 . S
C290 C291 1.390 . S
C290 N293 1.391 . S
C291 H263 0.930 . S
C291 C290 1.390 . S
C291 C292 1.392 . S
C292 H264 0.929 . S
C292 C289 1.391 . S
C292 C291 1.392 . S
N293 Co237 2.257 1_655 S
N293 C290 1.391 . S
N293 C294 1.388 . S
C294 H265 0.930 . S
C294 C289 1.391 . S
C294 N293 1.388 . S
Co295 O297 2.143 . S
Co295 O303 2.074 . S
Co295 O306 2.093 . S
Co295 O319 2.097 . S
Co295 N336 2.151 1_455 S
Co295 N344 2.214 1_455 S
Co296 O297 2.160 . S
Co296 O302 2.058 . S
Co296 O312 2.057 . S
Co296 O327 2.037 . S
Co296 N331 2.145 . S
Co296 N352 2.257 . S
O297 Co295 2.143 . S
O297 Co296 2.160 . S
C298 O299 1.278 . S
C298 O306 1.224 . S
O299 C298 1.278 . S
C300 O301 1.245 . S
C300 O312 1.232 . S
O301 C300 1.245 . S
O302 Co296 2.058 . S
O302 C328 1.269 . S
O303 Co295 2.074 . S
O303 C328 1.257 . S
H304 C329 0.930 . S
H305 C335 0.930 . S
O306 Co295 2.093 . S
O306 C298 1.224 . S
H307 C339 0.929 . S
H308 C341 0.930 . S
H309 C342 0.930 . S
H310 C340 0.929 . S
H311 C343 0.928 . S
O312 Co296 2.057 . S
O312 C300 1.232 . S
H313 C332 0.929 . S
H314 C333 0.929 . S
H315 C345 0.931 . S
H316 C337 0.929 . S
H317 C346 0.930 . S
H318 C338 0.931 . S
O319 Co295 2.097 . S
O319 C347 1.214 . S
H320 C348 0.929 . S
H321 C349 0.929 . S
H322 C350 0.930 . S
H323 C351 0.929 . S
H324 C353 0.930 . S
H325 C330 0.930 . S
H326 C334 0.930 . S
O327 Co296 2.037 . S
O327 C347 1.234 . S
C328 O302 1.269 . S
C328 O303 1.257 . S
C329 H304 0.930 . S
C329 C332 1.388 1_545 S
C329 C334 1.418 . S
C330 H325 0.930 . S
C330 C333 1.404 . S
C330 C334 1.353 1_565 S
N331 Co296 2.145 . S
N331 C332 1.397 . S
N331 C333 1.334 . S
C332 H313 0.929 . S
C332 C329 1.388 1_565 S
C332 N331 1.397 . S
C333 H314 0.929 . S
C333 C330 1.404 . S
C333 N331 1.334 . S
C334 H326 0.930 . S
C334 C329 1.418 . S
C334 C330 1.353 1_545 S
C335 H305 0.930 . S
C335 N336 1.330 1_455 S
C335 C337 1.446 1_455 S
N336 Co295 2.151 1_655 S
N336 C335 1.330 1_655 S
N336 C340 1.418 . S
C337 H316 0.929 . S
C337 C335 1.446 1_655 S
C337 C338 1.332 . S
C338 H318 0.931 . S
C338 C337 1.332 . S
C338 C339 1.267 . S
C339 H307 0.929 . S
C339 C338 1.267 . S
C339 C340 1.251 . S
C340 H310 0.929 . S
C340 N336 1.418 . S
C340 C339 1.251 . S
C341 H308 0.930 . S
C341 C343 1.406 . S
C341 C346 1.261 . S
C342 H309 0.930 . S
C342 N344 1.325 . S
C342 C345 1.357 . S
C343 H311 0.928 . S
C343 C341 1.406 . S
C343 N344 1.261 . S
N344 Co295 2.214 1_655 S
N344 C342 1.325 . S
N344 C343 1.261 . S
C345 H315 0.931 . S
C345 C342 1.357 . S
C345 C346 1.312 . S
C346 H317 0.930 . S
C346 C341 1.261 . S
C346 C345 1.312 . S
C347 O319 1.214 . S
C347 O327 1.234 . S
C348 H320 0.929 . S
C348 C351 1.391 . S
C348 C353 1.391 . S
C349 H321 0.929 . S
C349 C350 1.390 . S
C349 N352 1.391 . S
C350 H322 0.930 . S
C350 C349 1.390 . S
C350 C351 1.392 . S
C351 H323 0.929 . S
C351 C348 1.391 . S
C351 C350 1.392 . S
N352 Co296 2.257 . S
N352 C349 1.391 . S
N352 C353 1.388 . S
C353 H324 0.930 . S
C353 C348 1.391 . S
C353 N352 1.388 . S
Co354 O356 2.143 . S
Co354 O362 2.074 . S
Co354 O365 2.093 . S
Co354 O378 2.097 . S
Co354 N395 2.151 . S
Co354 N403 2.214 . S
Co355 O356 2.160 . S
Co355 O361 2.058 . S
Co355 O371 2.057 . S
Co355 O386 2.037 . S
Co355 N390 2.145 . S
Co355 N411 2.257 1_655 S
O356 Co354 2.143 . S
O356 Co355 2.160 . S
C357 O358 1.278 . S
C357 O365 1.224 . S
O358 C357 1.278 . S
C359 O360 1.245 . S
C359 O371 1.232 . S
O360 C359 1.245 . S
O361 Co355 2.058 . S
O361 C387 1.269 . S
O362 Co354 2.074 . S
O362 C387 1.257 . S
H363 C388 0.930 . S
H364 C394 0.930 . S
O365 Co354 2.093 . S
O365 C357 1.224 . S
H366 C398 0.929 1_556 S
H367 C400 0.930 . S
H368 C401 0.930 . S
H369 C399 0.929 . S
H370 C402 0.928 . S
O371 Co355 2.057 . S
O371 C359 1.232 . S
H372 C391 0.929 . S
H373 C392 0.929 . S
H374 C404 0.931 . S
H375 C396 0.929 . S
H376 C405 0.930 . S
H377 C397 0.931 1_556 S
O378 Co354 2.097 . S
O378 C406 1.214 . S
H379 C407 0.929 . S
H380 C408 0.929 . S
H381 C409 0.930 . S
H382 C410 0.929 . S
H383 C412 0.930 . S
H384 C389 0.950 . S
H385 C393 0.930 . S
O386 Co355 2.037 . S
O386 C406 1.234 . S
C387 O361 1.269 . S
C387 O362 1.257 . S
C388 H363 0.930 . S
C388 C391 1.388 1_565 S
C388 C393 1.418 1_655 S
C389 H384 0.950 . S
C389 C392 1.404 . S
C389 C393 1.353 1_545 S
N390 Co355 2.145 . S
N390 C391 1.397 . S
N390 C392 1.334 1_655 S
C391 H372 0.929 . S
C391 C388 1.388 1_545 S
C391 N390 1.397 . S
C392 H373 0.929 . S
C392 C389 1.404 . S
C392 N390 1.334 1_455 S
C393 H385 0.930 . S
C393 C388 1.418 1_455 S
C393 C389 1.353 1_565 S
C394 H364 0.930 . S
C394 N395 1.330 . S
C394 C396 1.446 . S
N395 Co354 2.151 . S
N395 C394 1.330 . S
N395 C399 1.418 . S
C396 H375 0.929 . S
C396 C394 1.446 . S
C396 C397 1.332 . S
C397 H377 0.931 1_554 S
C397 C396 1.332 . S
C397 C398 1.267 . S
C398 H366 0.929 1_554 S
C398 C397 1.267 . S
C398 C399 1.251 . S
C399 H369 0.929 . S
C399 N395 1.418 . S
C399 C398 1.251 . S
C400 H367 0.930 . S
C400 C402 1.406 . S
C400 C405 1.261 . S
C401 H368 0.930 . S
C401 N403 1.325 . S
C401 C404 1.357 . S
C402 H370 0.928 . S
C402 C400 1.406 . S
C402 N403 1.261 . S
N403 Co354 2.214 . S
N403 C401 1.325 . S
N403 C402 1.261 . S
C404 H374 0.931 . S
C404 C401 1.357 . S
C404 C405 1.312 . S
C405 H376 0.930 . S
C405 C400 1.261 . S
C405 C404 1.312 . S
C406 O378 1.214 . S
C406 O386 1.234 . S
C407 H379 0.929 . S
C407 C410 1.391 . S
C407 C412 1.391 . S
C408 H380 0.929 . S
C408 C409 1.390 . S
C408 N411 1.391 . S
C409 H381 0.930 . S
C409 C408 1.390 . S
C409 C410 1.392 . S
C410 H382 0.929 . S
C410 C407 1.391 . S
C410 C409 1.392 . S
N411 Co355 2.257 1_455 S
N411 C408 1.391 . S
N411 C412 1.388 . S
C412 H383 0.930 . S
C412 C407 1.391 . S
C412 N411 1.388 . S
Co413 O415 2.143 . S
Co413 O421 2.074 . S
Co413 O424 2.093 . S
Co413 O437 2.097 . S
Co413 N454 2.151 1_655 S
Co413 N462 2.214 1_655 S
Co414 O415 2.160 . S
Co414 O420 2.058 . S
Co414 O430 2.057 . S
Co414 O445 2.037 . S
Co414 N449 2.145 . S
Co414 N470 2.257 . S
O415 Co413 2.143 . S
O415 Co414 2.160 . S
C416 O417 1.278 . S
C416 O424 1.224 . S
O417 C416 1.278 . S
C418 O419 1.245 . S
C418 O430 1.232 . S
O419 C418 1.245 . S
O420 Co414 2.058 . S
O420 C446 1.269 . S
O421 Co413 2.074 . S
O421 C446 1.257 . S
H422 C447 0.930 . S
H423 C453 0.930 . S
O424 Co413 2.093 . S
O424 C416 1.224 . S
H425 C457 0.929 . S
H426 C459 0.930 . S
H427 C460 0.930 . S
H428 C458 0.929 . S
H429 C461 0.928 . S
O430 Co414 2.057 . S
O430 C418 1.232 . S
H431 C450 0.929 . S
H432 C451 0.929 . S
H433 C463 0.931 . S
H434 C455 0.929 . S
H435 C464 0.930 . S
H436 C456 0.931 . S
O437 Co413 2.097 . S
O437 C465 1.214 . S
H438 C466 0.929 . S
H439 C467 0.929 . S
H440 C468 0.930 . S
H441 C469 0.929 . S
H442 C471 0.930 . S
H443 C448 0.930 . S
H444 C452 0.930 . S
O445 Co414 2.037 . S
O445 C465 1.234 . S
C446 O420 1.269 . S
C446 O421 1.257 . S
C447 H422 0.930 . S
C447 C450 1.388 1_565 S
C447 C452 1.418 . S
C448 H443 0.930 . S
C448 C451 1.404 . S
C448 C452 1.353 1_545 S
N449 Co414 2.145 . S
N449 C450 1.397 . S
N449 C451 1.334 . S
C450 H431 0.929 . S
C450 C447 1.388 1_545 S
C450 N449 1.397 . S
C451 H432 0.929 . S
C451 C448 1.404 . S
C451 N449 1.334 . S
C452 H444 0.930 . S
C452 C447 1.418 . S
C452 C448 1.353 1_565 S
C453 H423 0.930 . S
C453 N454 1.330 1_655 S
C453 C455 1.446 1_655 S
N454 Co413 2.151 1_455 S
N454 C453 1.330 1_455 S
N454 C458 1.418 . S
C455 H434 0.929 . S
C455 C453 1.446 1_455 S
C455 C456 1.332 . S
C456 H436 0.931 . S
C456 C455 1.332 . S
C456 C457 1.267 . S
C457 H425 0.929 . S
C457 C456 1.267 . S
C457 C458 1.251 . S
C458 H428 0.929 . S
C458 N454 1.418 . S
C458 C457 1.251 . S
C459 H426 0.930 . S
C459 C461 1.406 . S
C459 C464 1.261 . S
C460 H427 0.930 . S
C460 N462 1.325 . S
C460 C463 1.357 . S
C461 H429 0.928 . S
C461 C459 1.406 . S
C461 N462 1.261 . S
N462 Co413 2.214 1_455 S
N462 C460 1.325 . S
N462 C461 1.261 . S
C463 H433 0.931 . S
C463 C460 1.357 . S
C463 C464 1.312 . S
C464 H435 0.930 . S
C464 C459 1.261 . S
C464 C463 1.312 . S
C465 O437 1.214 . S
C465 O445 1.234 . S
C466 H438 0.929 . S
C466 C469 1.391 . S
C466 C471 1.391 . S
C467 H439 0.929 . S
C467 C468 1.390 . S
C467 N470 1.391 . S
C468 H440 0.930 . S
C468 C467 1.390 . S
C468 C469 1.392 . S
C469 H441 0.929 . S
C469 C466 1.391 . S
C469 C468 1.392 . S
N470 Co414 2.257 . S
N470 C467 1.391 . S
N470 C471 1.388 . S
C471 H442 0.930 . S
C471 C466 1.391 . S
C471 N470 1.388 . S
Co472 O474 2.143 . S
Co472 O480 2.074 . S
Co472 O483 2.093 1_545 S
Co472 O496 2.097 . S
Co472 N513 2.151 1_545 S
Co472 N521 2.214 . S
Co473 O474 2.160 . S
Co473 O479 2.058 . S
Co473 O489 2.057 . S
Co473 O504 2.037 . S
Co473 N508 2.145 . S
Co473 N529 2.257 . S
O474 Co472 2.143 . S
O474 Co473 2.160 . S
C475 O476 1.278 . S
C475 O483 1.224 . S
O476 C475 1.278 . S
C477 O478 1.245 1_545 S
C477 O489 1.232 . S
O478 C477 1.245 1_565 S
O479 Co473 2.058 . S
O479 C505 1.269 . S
O480 Co472 2.074 . S
O480 C505 1.257 . S
H481 C506 0.930 . S
H482 C512 0.930 . S
O483 Co472 2.093 1_565 S
O483 C475 1.224 . S
H484 C516 0.929 1_554 S
H485 C518 0.928 1_565 S
H486 C519 0.930 . S
H487 C517 0.929 1_545 S
H488 C520 0.928 1_565 S
O489 Co473 2.057 . S
O489 C477 1.232 . S
H490 C509 0.929 . S
H491 C510 0.929 . S
H492 C522 0.931 . S
H493 C514 0.929 . S
H494 C523 0.930 . S
H495 C515 0.931 1_554 S
O496 Co472 2.097 . S
O496 C524 1.214 . S
H497 C525 0.929 1_565 S
H498 C526 0.929 . S
H499 C527 0.930 . S
H500 C528 0.929 . S
H501 C530 0.930 . S
H502 C507 0.950 . S
H503 C511 0.930 . S
O504 Co473 2.037 . S
O504 C524 1.234 . S
C505 O479 1.269 . S
C505 O480 1.257 . S
C506 H481 0.930 . S
C506 C509 1.388 . S
C506 C511 1.418 . S
C507 H502 0.950 . S
C507 C510 1.404 . S
C507 C511 1.353 . S
N508 Co473 2.145 . S
N508 C509 1.397 . S
N508 C510 1.334 . S
C509 H490 0.929 . S
C509 C506 1.388 . S
C509 N508 1.397 . S
C510 H491 0.929 . S
C510 C507 1.404 . S
C510 N508 1.334 . S
C511 H503 0.930 . S
C511 C506 1.418 . S
C511 C507 1.353 . S
C512 H482 0.930 . S
C512 N513 1.330 . S
C512 C514 1.446 . S
N513 Co472 2.151 1_565 S
N513 C512 1.330 . S
N513 C517 1.418 . S
C514 H493 0.929 . S
C514 C512 1.446 . S
C514 C515 1.332 . S
C515 H495 0.931 1_556 S
C515 C514 1.332 . S
C515 C516 1.267 . S
C516 H484 0.929 1_556 S
C516 C515 1.267 . S
C516 C517 1.251 . S
C517 H487 0.929 1_565 S
C517 N513 1.418 . S
C517 C516 1.251 . S
C518 H485 0.928 1_545 S
C518 C520 1.406 . S
C518 C523 1.261 . S
C519 H486 0.930 . S
C519 N521 1.325 . S
C519 C522 1.357 . S
C520 H488 0.928 1_545 S
C520 C518 1.406 . S
C520 N521 1.261 . S
N521 Co472 2.214 . S
N521 C519 1.325 . S
N521 C520 1.261 . S
C522 H492 0.931 . S
C522 C519 1.357 . S
C522 C523 1.312 . S
C523 H494 0.930 . S
C523 C518 1.261 . S
C523 C522 1.312 . S
C524 O496 1.214 . S
C524 O504 1.234 . S
C525 H497 0.929 1_545 S
C525 C528 1.391 . S
C525 C530 1.391 . S
C526 H498 0.929 . S
C526 C527 1.390 . S
C526 N529 1.391 . S
C527 H499 0.930 . S
C527 C526 1.390 . S
C527 C528 1.392 . S
C528 H500 0.929 . S
C528 C525 1.391 . S
C528 C527 1.392 . S
N529 Co473 2.257 . S
N529 C526 1.391 . S
N529 C530 1.388 . S
C530 H501 0.930 . S
C530 C525 1.391 . S
C530 N529 1.388 . S
Co531 O533 2.143 . S
Co531 O539 2.074 . S
Co531 O542 2.093 1_545 S
Co531 O555 2.097 . S
Co531 N572 2.151 1_545 S
Co531 N580 2.214 . S
Co532 O533 2.160 . S
Co532 O538 2.058 . S
Co532 O548 2.057 . S
Co532 O563 2.037 . S
Co532 N567 2.145 . S
Co532 N588 2.257 . S
O533 Co531 2.143 . S
O533 Co532 2.160 . S
C534 O535 1.278 . S
C534 O542 1.224 . S
O535 C534 1.278 . S
C536 O537 1.245 1_545 S
C536 O548 1.232 . S
O537 C536 1.245 1_565 S
O538 Co532 2.058 . S
O538 C564 1.269 . S
O539 Co531 2.074 . S
O539 C564 1.257 . S
H540 C565 0.930 . S
H541 C571 0.930 . S
O542 Co531 2.093 1_565 S
O542 C534 1.224 . S
H543 C575 0.929 . S
H544 C577 0.928 1_565 S
H545 C578 0.930 . S
H546 C576 0.929 1_545 S
H547 C579 0.928 1_565 S
O548 Co532 2.057 . S
O548 C536 1.232 . S
H549 C568 0.929 . S
H550 C569 0.929 . S
H551 C581 0.931 . S
H552 C573 0.929 . S
H553 C582 0.930 . S
H554 C574 0.931 . S
O555 Co531 2.097 . S
O555 C583 1.214 . S
H556 C584 0.929 1_565 S
H557 C585 0.929 . S
H558 C586 0.930 . S
H559 C587 0.929 . S
H560 C589 0.930 . S
H561 C566 0.930 . S
H562 C570 0.930 . S
O563 Co532 2.037 . S
O563 C583 1.234 . S
C564 O538 1.269 . S
C564 O539 1.257 . S
C565 H540 0.930 . S
C565 C568 1.388 . S
C565 C570 1.418 . S
C566 H561 0.930 . S
C566 C569 1.404 . S
C566 C570 1.353 . S
N567 Co532 2.145 . S
N567 C568 1.397 . S
N567 C569 1.334 . S
C568 H549 0.929 . S
C568 C565 1.388 . S
C568 N567 1.397 . S
C569 H550 0.929 . S
C569 C566 1.404 . S
C569 N567 1.334 . S
C570 H562 0.930 . S
C570 C565 1.418 . S
C570 C566 1.353 . S
C571 H541 0.930 . S
C571 N572 1.330 . S
C571 C573 1.446 . S
N572 Co531 2.151 1_565 S
N572 C571 1.330 . S
N572 C576 1.418 . S
C573 H552 0.929 . S
C573 C571 1.446 . S
C573 C574 1.332 . S
C574 H554 0.931 . S
C574 C573 1.332 . S
C574 C575 1.267 . S
C575 H543 0.929 . S
C575 C574 1.267 . S
C575 C576 1.251 . S
C576 H546 0.929 1_565 S
C576 N572 1.418 . S
C576 C575 1.251 . S
C577 H544 0.928 1_545 S
C577 C579 1.406 . S
C577 C582 1.261 . S
C578 H545 0.930 . S
C578 N580 1.325 . S
C578 C581 1.357 . S
C579 H547 0.928 1_545 S
C579 C577 1.406 . S
C579 N580 1.261 . S
N580 Co531 2.214 . S
N580 C578 1.325 . S
N580 C579 1.261 . S
C581 H551 0.931 . S
C581 C578 1.357 . S
C581 C582 1.312 . S
C582 H553 0.930 . S
C582 C577 1.261 . S
C582 C581 1.312 . S
C583 O555 1.214 . S
C583 O563 1.234 . S
C584 H556 0.929 1_545 S
C584 C587 1.391 . S
C584 C589 1.391 . S
C585 H557 0.929 . S
C585 C586 1.390 . S
C585 N588 1.391 . S
C586 H558 0.930 . S
C586 C585 1.390 . S
C586 C587 1.392 . S
C587 H559 0.929 . S
C587 C584 1.391 . S
C587 C586 1.392 . S
N588 Co532 2.257 . S
N588 C585 1.391 . S
N588 C589 1.388 . S
C589 H560 0.930 . S
C589 C584 1.391 . S
C589 N588 1.388 . S
Co590 O592 2.143 . S
Co590 O598 2.074 . S
Co590 O601 2.093 1_565 S
Co590 O614 2.097 . S
Co590 N631 2.151 1_565 S
Co590 N639 2.214 . S
Co591 O592 2.160 . S
Co591 O597 2.058 . S
Co591 O607 2.057 . S
Co591 O622 2.037 . S
Co591 N626 2.145 . S
Co591 N647 2.257 . S
O592 Co590 2.143 . S
O592 Co591 2.160 . S
C593 O594 1.278 . S
C593 O601 1.224 . S
O594 C593 1.278 . S
C595 O596 1.245 1_565 S
C595 O607 1.232 . S
O596 C595 1.245 1_545 S
O597 Co591 2.058 . S
O597 C623 1.269 . S
O598 Co590 2.074 . S
O598 C623 1.257 . S
H599 C624 0.930 . S
H600 C630 0.930 . S
O601 Co590 2.093 1_545 S
O601 C593 1.224 . S
H602 C634 0.929 1_556 S
H603 C636 0.928 1_545 S
H604 C637 0.930 . S
H605 C635 0.929 1_565 S
H606 C638 0.928 1_545 S
O607 Co591 2.057 . S
O607 C595 1.232 . S
H608 C627 0.929 . S
H609 C628 0.929 . S
H610 C640 0.931 . S
H611 C632 0.929 . S
H612 C641 0.930 . S
H613 C633 0.931 1_556 S
O614 Co590 2.097 . S
O614 C642 1.214 . S
H615 C643 0.929 1_545 S
H616 C644 0.929 . S
H617 C645 0.930 . S
H618 C646 0.929 . S
H619 C648 0.930 . S
H620 C625 0.950 . S
H621 C629 0.930 . S
O622 Co591 2.037 . S
O622 C642 1.234 . S
C623 O597 1.269 . S
C623 O598 1.257 . S
C624 H599 0.930 . S
C624 C627 1.388 . S
C624 C629 1.418 . S
C625 H620 0.950 . S
C625 C628 1.404 . S
C625 C629 1.353 . S
N626 Co591 2.145 . S
N626 C627 1.397 . S
N626 C628 1.334 . S
C627 H608 0.929 . S
C627 C624 1.388 . S
C627 N626 1.397 . S
C628 H609 0.929 . S
C628 C625 1.404 . S
C628 N626 1.334 . S
C629 H621 0.930 . S
C629 C624 1.418 . S
C629 C625 1.353 . S
C630 H600 0.930 . S
C630 N631 1.330 . S
C630 C632 1.446 . S
N631 Co590 2.151 1_545 S
N631 C630 1.330 . S
N631 C635 1.418 . S
C632 H611 0.929 . S
C632 C630 1.446 . S
C632 C633 1.332 . S
C633 H613 0.931 1_554 S
C633 C632 1.332 . S
C633 C634 1.267 . S
C634 H602 0.929 1_554 S
C634 C633 1.267 . S
C634 C635 1.251 . S
C635 H605 0.929 1_545 S
C635 N631 1.418 . S
C635 C634 1.251 . S
C636 H603 0.928 1_565 S
C636 C638 1.406 . S
C636 C641 1.261 . S
C637 H604 0.930 . S
C637 N639 1.325 . S
C637 C640 1.357 . S
C638 H606 0.928 1_565 S
C638 C636 1.406 . S
C638 N639 1.261 . S
N639 Co590 2.214 . S
N639 C637 1.325 . S
N639 C638 1.261 . S
C640 H610 0.931 . S
C640 C637 1.357 . S
C640 C641 1.312 . S
C641 H612 0.930 . S
C641 C636 1.261 . S
C641 C640 1.312 . S
C642 O614 1.214 . S
C642 O622 1.234 . S
C643 H615 0.929 1_565 S
C643 C646 1.391 . S
C643 C648 1.391 . S
C644 H616 0.929 . S
C644 C645 1.390 . S
C644 N647 1.391 . S
C645 H617 0.930 . S
C645 C644 1.390 . S
C645 C646 1.392 . S
C646 H618 0.929 . S
C646 C643 1.391 . S
C646 C645 1.392 . S
N647 Co591 2.257 . S
N647 C644 1.391 . S
N647 C648 1.388 . S
C648 H619 0.930 . S
C648 C643 1.391 . S
C648 N647 1.388 . S
Co649 O651 2.143 . S
Co649 O657 2.074 . S
Co649 O660 2.093 1_565 S
Co649 O673 2.097 . S
Co649 N690 2.151 1_565 S
Co649 N698 2.214 . S
Co650 O651 2.160 . S
Co650 O656 2.058 . S
Co650 O666 2.057 . S
Co650 O681 2.037 . S
Co650 N685 2.145 . S
Co650 N706 2.257 . S
O651 Co649 2.143 . S
O651 Co650 2.160 . S
C652 O653 1.278 . S
C652 O660 1.224 . S
O653 C652 1.278 . S
C654 O655 1.245 1_565 S
C654 O666 1.232 . S
O655 C654 1.245 1_545 S
O656 Co650 2.058 . S
O656 C682 1.269 . S
O657 Co649 2.074 . S
O657 C682 1.257 . S
H658 C683 0.930 . S
H659 C689 0.930 . S
O660 Co649 2.093 1_545 S
O660 C652 1.224 . S
H661 C693 0.929 . S
H662 C695 0.928 1_545 S
H663 C696 0.930 . S
H664 C694 0.929 1_565 S
H665 C697 0.928 1_545 S
O666 Co650 2.057 . S
O666 C654 1.232 . S
H667 C686 0.929 . S
H668 C687 0.929 . S
H669 C699 0.931 . S
H670 C691 0.929 . S
H671 C700 0.930 . S
H672 C692 0.931 . S
O673 Co649 2.097 . S
O673 C701 1.214 . S
H674 C702 0.929 1_545 S
H675 C703 0.929 . S
H676 C704 0.930 . S
H677 C705 0.929 . S
H678 C707 0.930 . S
H679 C684 0.930 . S
H680 C688 0.930 . S
O681 Co650 2.037 . S
O681 C701 1.234 . S
C682 O656 1.269 . S
C682 O657 1.257 . S
C683 H658 0.930 . S
C683 C686 1.388 . S
C683 C688 1.418 . S
C684 H679 0.930 . S
C684 C687 1.404 . S
C684 C688 1.353 . S
N685 Co650 2.145 . S
N685 C686 1.397 . S
N685 C687 1.334 . S
C686 H667 0.929 . S
C686 C683 1.388 . S
C686 N685 1.397 . S
C687 H668 0.929 . S
C687 C684 1.404 . S
C687 N685 1.334 . S
C688 H680 0.930 . S
C688 C683 1.418 . S
C688 C684 1.353 . S
C689 H659 0.930 . S
C689 N690 1.330 . S
C689 C691 1.446 . S
N690 Co649 2.151 1_545 S
N690 C689 1.330 . S
N690 C694 1.418 . S
C691 H670 0.929 . S
C691 C689 1.446 . S
C691 C692 1.332 . S
C692 H672 0.931 . S
C692 C691 1.332 . S
C692 C693 1.267 . S
C693 H661 0.929 . S
C693 C692 1.267 . S
C693 C694 1.251 . S
C694 H664 0.929 1_545 S
C694 N690 1.418 . S
C694 C693 1.251 . S
C695 H662 0.928 1_565 S
C695 C697 1.406 . S
C695 C700 1.261 . S
C696 H663 0.930 . S
C696 N698 1.325 . S
C696 C699 1.357 . S
C697 H665 0.928 1_565 S
C697 C695 1.406 . S
C697 N698 1.261 . S
N698 Co649 2.214 . S
N698 C696 1.325 . S
N698 C697 1.261 . S
C699 H669 0.931 . S
C699 C696 1.357 . S
C699 C700 1.312 . S
C700 H671 0.930 . S
C700 C695 1.261 . S
C700 C699 1.312 . S
C701 O673 1.214 . S
C701 O681 1.234 . S
C702 H674 0.929 1_565 S
C702 C705 1.391 . S
C702 C707 1.391 . S
C703 H675 0.929 . S
C703 C704 1.390 . S
C703 N706 1.391 . S
C704 H676 0.930 . S
C704 C703 1.390 . S
C704 C705 1.392 . S
C705 H677 0.929 . S
C705 C702 1.391 . S
C705 C704 1.392 . S
N706 Co650 2.257 . S
N706 C703 1.391 . S
N706 C707 1.388 . S
C707 H678 0.930 . S
C707 C702 1.391 . S
C707 N706 1.388 . S
Co708 O710 2.143 . S
Co708 O716 2.074 . S
Co708 O719 2.093 . S
Co708 O732 2.097 . S
Co708 N749 2.151 . S
Co708 N757 2.214 . S
Co709 O710 2.160 . S
Co709 O715 2.058 . S
Co709 O725 2.057 . S
Co709 O740 2.037 . S
Co709 N744 2.145 . S
Co709 N765 2.257 . S
O710 Co708 2.143 . S
O710 Co709 2.160 . S
C711 O712 1.278 . S
C711 O719 1.224 . S
O712 C711 1.278 . S
C713 O714 1.245 . S
C713 O725 1.232 . S
O714 C713 1.245 . S
O715 Co709 2.058 . S
O715 C741 1.269 . S
O716 Co708 2.074 . S
O716 C741 1.257 . S
H717 C742 0.930 . S
H718 C748 0.930 . S
O719 Co708 2.093 . S
O719 C711 1.224 . S
H720 C752 0.929 . S
H721 C754 0.930 . S
H722 C755 0.930 . S
H723 C753 0.929 . S
H724 C756 0.928 . S
O725 Co709 2.057 . S
O725 C713 1.232 . S
H726 C745 0.929 . S
H727 C746 0.929 . S
H728 C758 0.931 . S
H729 C750 0.929 . S
H730 C759 0.930 . S
H731 C751 0.931 . S
O732 Co708 2.097 . S
O732 C760 1.214 . S
H733 C761 0.929 . S
H734 C762 0.929 . S
H735 C763 0.930 . S
H736 C764 0.929 . S
H737 C766 0.930 . S
H738 C743 0.930 . S
H739 C747 0.930 . S
O740 Co709 2.037 . S
O740 C760 1.234 . S
C741 O715 1.269 . S
C741 O716 1.257 . S
C742 H717 0.930 . S
C742 C745 1.388 1_545 S
C742 C747 1.418 . S
C743 H738 0.930 . S
C743 C746 1.404 . S
C743 C747 1.353 1_565 S
N744 Co709 2.145 . S
N744 C745 1.397 . S
N744 C746 1.334 . S
C745 H726 0.929 . S
C745 C742 1.388 1_565 S
C745 N744 1.397 . S
C746 H727 0.929 . S
C746 C743 1.404 . S
C746 N744 1.334 . S
C747 H739 0.930 . S
C747 C742 1.418 . S
C747 C743 1.353 1_545 S
C748 H718 0.930 . S
C748 N749 1.330 . S
C748 C750 1.446 . S
N749 Co708 2.151 . S
N749 C748 1.330 . S
N749 C753 1.418 . S
C750 H729 0.929 . S
C750 C748 1.446 . S
C750 C751 1.332 . S
C751 H731 0.931 . S
C751 C750 1.332 . S
C751 C752 1.267 . S
C752 H720 0.929 . S
C752 C751 1.267 . S
C752 C753 1.251 . S
C753 H723 0.929 . S
C753 N749 1.418 . S
C753 C752 1.251 . S
C754 H721 0.930 . S
C754 C756 1.406 . S
C754 C759 1.261 . S
C755 H722 0.930 . S
C755 N757 1.325 . S
C755 C758 1.357 . S
C756 H724 0.928 . S
C756 C754 1.406 . S
C756 N757 1.261 . S
N757 Co708 2.214 . S
N757 C755 1.325 . S
N757 C756 1.261 . S
C758 H728 0.931 . S
C758 C755 1.357 . S
C758 C759 1.312 . S
C759 H730 0.930 . S
C759 C754 1.261 . S
C759 C758 1.312 . S
C760 O732 1.214 . S
C760 O740 1.234 . S
C761 H733 0.929 . S
C761 C764 1.391 . S
C761 C766 1.391 . S
C762 H734 0.929 . S
C762 C763 1.390 . S
C762 N765 1.391 . S
C763 H735 0.930 . S
C763 C762 1.390 . S
C763 C764 1.392 . S
C764 H736 0.929 . S
C764 C761 1.391 . S
C764 C763 1.392 . S
N765 Co709 2.257 . S
N765 C762 1.391 . S
N765 C766 1.388 . S
C766 H737 0.930 . S
C766 C761 1.391 . S
C766 N765 1.388 . S
Co767 O769 2.143 . S
Co767 O775 2.074 . S
Co767 O778 2.093 . S
Co767 O791 2.097 . S
Co767 N808 2.151 . S
Co767 N816 2.214 . S
Co768 O769 2.160 . S
Co768 O774 2.058 . S
Co768 O784 2.057 . S
Co768 O799 2.037 . S
Co768 N803 2.145 . S
Co768 N824 2.257 . S
O769 Co767 2.143 . S
O769 Co768 2.160 . S
C770 O771 1.278 . S
C770 O778 1.224 . S
O771 C770 1.278 . S
C772 O773 1.245 . S
C772 O784 1.232 . S
O773 C772 1.245 . S
O774 Co768 2.058 . S
O774 C800 1.269 . S
O775 Co767 2.074 . S
O775 C800 1.257 . S
H776 C801 0.930 . S
H777 C807 0.930 . S
O778 Co767 2.093 . S
O778 C770 1.224 . S
H779 C811 0.929 . S
H780 C813 0.930 . S
H781 C814 0.930 . S
H782 C812 0.929 . S
H783 C815 0.928 . S
O784 Co768 2.057 . S
O784 C772 1.232 . S
H785 C804 0.929 . S
H786 C805 0.929 . S
H787 C817 0.931 . S
H788 C809 0.929 . S
H789 C818 0.930 . S
H790 C810 0.931 . S
O791 Co767 2.097 . S
O791 C819 1.214 . S
H792 C820 0.929 . S
H793 C821 0.929 . S
H794 C822 0.930 . S
H795 C823 0.929 . S
H796 C825 0.930 . S
H797 C802 0.930 . S
H798 C806 0.930 . S
O799 Co768 2.037 . S
O799 C819 1.234 . S
C800 O774 1.269 . S
C800 O775 1.257 . S
C801 H776 0.930 . S
C801 C804 1.388 1_545 S
C801 C806 1.418 . S
C802 H797 0.930 . S
C802 C805 1.404 . S
C802 C806 1.353 1_565 S
N803 Co768 2.145 . S
N803 C804 1.397 . S
N803 C805 1.334 . S
C804 H785 0.929 . S
C804 C801 1.388 1_565 S
C804 N803 1.397 . S
C805 H786 0.929 . S
C805 C802 1.404 . S
C805 N803 1.334 . S
C806 H798 0.930 . S
C806 C801 1.418 . S
C806 C802 1.353 1_545 S
C807 H777 0.930 . S
C807 N808 1.330 . S
C807 C809 1.446 . S
N808 Co767 2.151 . S
N808 C807 1.330 . S
N808 C812 1.418 . S
C809 H788 0.929 . S
C809 C807 1.446 . S
C809 C810 1.332 . S
C810 H790 0.931 . S
C810 C809 1.332 . S
C810 C811 1.267 . S
C811 H779 0.929 . S
C811 C810 1.267 . S
C811 C812 1.251 . S
C812 H782 0.929 . S
C812 N808 1.418 . S
C812 C811 1.251 . S
C813 H780 0.930 . S
C813 C815 1.406 . S
C813 C818 1.261 . S
C814 H781 0.930 . S
C814 N816 1.325 . S
C814 C817 1.357 . S
C815 H783 0.928 . S
C815 C813 1.406 . S
C815 N816 1.261 . S
N816 Co767 2.214 . S
N816 C814 1.325 . S
N816 C815 1.261 . S
C817 H787 0.931 . S
C817 C814 1.357 . S
C817 C818 1.312 . S
C818 H789 0.930 . S
C818 C813 1.261 . S
C818 C817 1.312 . S
C819 O791 1.214 . S
C819 O799 1.234 . S
C820 H792 0.929 . S
C820 C823 1.391 . S
C820 C825 1.391 . S
C821 H793 0.929 . S
C821 C822 1.390 . S
C821 N824 1.391 . S
C822 H794 0.930 . S
C822 C821 1.390 . S
C822 C823 1.392 . S
C823 H795 0.929 . S
C823 C820 1.391 . S
C823 C822 1.392 . S
N824 Co768 2.257 . S
N824 C821 1.391 . S
N824 C825 1.388 . S
C825 H796 0.930 . S
C825 C820 1.391 . S
C825 N824 1.388 . S
Co826 O828 2.143 . S
Co826 O834 2.074 . S
Co826 O837 2.093 . S
Co826 O850 2.097 . S
Co826 N867 2.151 . S
Co826 N875 2.214 . S
Co827 O828 2.160 . S
Co827 O833 2.058 . S
Co827 O843 2.057 . S
Co827 O858 2.037 . S
Co827 N862 2.145 . S
Co827 N883 2.257 . S
O828 Co826 2.143 . S
O828 Co827 2.160 . S
C829 O830 1.278 . S
C829 O837 1.224 . S
O830 C829 1.278 . S
C831 O832 1.245 . S
C831 O843 1.232 . S
O832 C831 1.245 . S
O833 Co827 2.058 . S
O833 C859 1.269 . S
O834 Co826 2.074 . S
O834 C859 1.257 . S
H835 C860 0.930 . S
H836 C866 0.930 . S
O837 Co826 2.093 . S
O837 C829 1.224 . S
H838 C870 0.929 . S
H839 C872 0.930 . S
H840 C873 0.930 . S
H841 C871 0.929 . S
H842 C874 0.928 . S
O843 Co827 2.057 . S
O843 C831 1.232 . S
H844 C863 0.929 . S
H845 C864 0.929 . S
H846 C876 0.931 . S
H847 C868 0.929 . S
H848 C877 0.930 . S
H849 C869 0.931 . S
O850 Co826 2.097 . S
O850 C878 1.214 . S
H851 C879 0.929 . S
H852 C880 0.929 . S
H853 C881 0.930 . S
H854 C882 0.929 . S
H855 C884 0.930 . S
H856 C861 0.930 . S
H857 C865 0.930 . S
O858 Co827 2.037 . S
O858 C878 1.234 . S
C859 O833 1.269 . S
C859 O834 1.257 . S
C860 H835 0.930 . S
C860 C863 1.388 1_565 S
C860 C865 1.418 . S
C861 H856 0.930 . S
C861 C864 1.404 . S
C861 C865 1.353 1_545 S
N862 Co827 2.145 . S
N862 C863 1.397 . S
N862 C864 1.334 . S
C863 H844 0.929 . S
C863 C860 1.388 1_545 S
C863 N862 1.397 . S
C864 H845 0.929 . S
C864 C861 1.404 . S
C864 N862 1.334 . S
C865 H857 0.930 . S
C865 C860 1.418 . S
C865 C861 1.353 1_565 S
C866 H836 0.930 . S
C866 N867 1.330 . S
C866 C868 1.446 . S
N867 Co826 2.151 . S
N867 C866 1.330 . S
N867 C871 1.418 . S
C868 H847 0.929 . S
C868 C866 1.446 . S
C868 C869 1.332 . S
C869 H849 0.931 . S
C869 C868 1.332 . S
C869 C870 1.267 . S
C870 H838 0.929 . S
C870 C869 1.267 . S
C870 C871 1.251 . S
C871 H841 0.929 . S
C871 N867 1.418 . S
C871 C870 1.251 . S
C872 H839 0.930 . S
C872 C874 1.406 . S
C872 C877 1.261 . S
C873 H840 0.930 . S
C873 N875 1.325 . S
C873 C876 1.357 . S
C874 H842 0.928 . S
C874 C872 1.406 . S
C874 N875 1.261 . S
N875 Co826 2.214 . S
N875 C873 1.325 . S
N875 C874 1.261 . S
C876 H846 0.931 . S
C876 C873 1.357 . S
C876 C877 1.312 . S
C877 H848 0.930 . S
C877 C872 1.261 . S
C877 C876 1.312 . S
C878 O850 1.214 . S
C878 O858 1.234 . S
C879 H851 0.929 . S
C879 C882 1.391 . S
C879 C884 1.391 . S
C880 H852 0.929 . S
C880 C881 1.390 . S
C880 N883 1.391 . S
C881 H853 0.930 . S
C881 C880 1.390 . S
C881 C882 1.392 . S
C882 H854 0.929 . S
C882 C879 1.391 . S
C882 C881 1.392 . S
N883 Co827 2.257 . S
N883 C880 1.391 . S
N883 C884 1.388 . S
C884 H855 0.930 . S
C884 C879 1.391 . S
C884 N883 1.388 . S
Co885 O887 2.143 . S
Co885 O893 2.074 . S
Co885 O896 2.093 . S
Co885 O909 2.097 . S
Co885 N926 2.151 . S
Co885 N934 2.214 . S
Co886 O887 2.160 . S
Co886 O892 2.058 . S
Co886 O902 2.057 . S
Co886 O917 2.037 . S
Co886 N921 2.145 . S
Co886 N942 2.257 . S
O887 Co885 2.143 . S
O887 Co886 2.160 . S
C888 O889 1.278 . S
C888 O896 1.224 . S
O889 C888 1.278 . S
C890 O891 1.245 . S
C890 O902 1.232 . S
O891 C890 1.245 . S
O892 Co886 2.058 . S
O892 C918 1.269 . S
O893 Co885 2.074 . S
O893 C918 1.257 . S
H894 C919 0.930 . S
H895 C925 0.930 . S
O896 Co885 2.093 . S
O896 C888 1.224 . S
H897 C929 0.929 . S
H898 C931 0.930 . S
H899 C932 0.930 . S
H900 C930 0.929 . S
H901 C933 0.928 . S
O902 Co886 2.057 . S
O902 C890 1.232 . S
H903 C922 0.929 . S
H904 C923 0.929 . S
H905 C935 0.931 . S
H906 C927 0.929 . S
H907 C936 0.930 . S
H908 C928 0.931 . S
O909 Co885 2.097 . S
O909 C937 1.214 . S
H910 C938 0.929 . S
H911 C939 0.929 . S
H912 C940 0.930 . S
H913 C941 0.929 . S
H914 C943 0.930 . S
H915 C920 0.930 . S
H916 C924 0.930 . S
O917 Co886 2.037 . S
O917 C937 1.234 . S
C918 O892 1.269 . S
C918 O893 1.257 . S
C919 H894 0.930 . S
C919 C922 1.388 1_565 S
C919 C924 1.418 . S
C920 H915 0.930 . S
C920 C923 1.404 . S
C920 C924 1.353 1_545 S
N921 Co886 2.145 . S
N921 C922 1.397 . S
N921 C923 1.334 . S
C922 H903 0.929 . S
C922 C919 1.388 1_545 S
C922 N921 1.397 . S
C923 H904 0.929 . S
C923 C920 1.404 . S
C923 N921 1.334 . S
C924 H916 0.930 . S
C924 C919 1.418 . S
C924 C920 1.353 1_565 S
C925 H895 0.930 . S
C925 N926 1.330 . S
C925 C927 1.446 . S
N926 Co885 2.151 . S
N926 C925 1.330 . S
N926 C930 1.418 . S
C927 H906 0.929 . S
C927 C925 1.446 . S
C927 C928 1.332 . S
C928 H908 0.931 . S
C928 C927 1.332 . S
C928 C929 1.267 . S
C929 H897 0.929 . S
C929 C928 1.267 . S
C929 C930 1.251 . S
C930 H900 0.929 . S
C930 N926 1.418 . S
C930 C929 1.251 . S
C931 H898 0.930 . S
C931 C933 1.406 . S
C931 C936 1.261 . S
C932 H899 0.930 . S
C932 N934 1.325 . S
C932 C935 1.357 . S
C933 H901 0.928 . S
C933 C931 1.406 . S
C933 N934 1.261 . S
N934 Co885 2.214 . S
N934 C932 1.325 . S
N934 C933 1.261 . S
C935 H905 0.931 . S
C935 C932 1.357 . S
C935 C936 1.312 . S
C936 H907 0.930 . S
C936 C931 1.261 . S
C936 C935 1.312 . S
C937 O909 1.214 . S
C937 O917 1.234 . S
C938 H910 0.929 . S
C938 C941 1.391 . S
C938 C943 1.391 . S
C939 H911 0.929 . S
C939 C940 1.390 . S
C939 N942 1.391 . S
C940 H912 0.930 . S
C940 C939 1.390 . S
C940 C941 1.392 . S
C941 H913 0.929 . S
C941 C938 1.391 . S
C941 C940 1.392 . S
N942 Co886 2.257 . S
N942 C939 1.391 . S
N942 C943 1.388 . S
C943 H914 0.930 . S
C943 C938 1.391 . S
C943 N942 1.388 . S
C859 C33 1.552 . S
C123 C5 1.523 1_665 S
C654 C64 1.523 1_565 S
C92 C446 1.552 1_455 S
C151 C741 1.552 . S
C536 C182 1.523 1_545 S
C210 C328 1.552 1_655 S
C623 C269 1.552 1_554 S
C241 C359 1.523 1_456 S
C890 C300 1.523 . S
C505 C387 1.552 1_556 S
C772 C418 1.523 . S
C477 C595 1.523 1_546 S
C918 C564 1.552 . S
C682 C800 1.552 . S
C831 C713 1.523 . S
C347 C3 1.602 . S
C52 C298 1.602 . S
C111 C239 1.602 . S
C288 C62 1.602 . S
C465 C121 1.602 . S
C416 C170 1.602 . S
C357 C229 1.602 . S
C180 C406 1.602 . S
C819 C475 1.602 . S
C524 C770 1.602 . S
C583 C711 1.602 . S
C760 C534 1.602 . S
C937 C593 1.602 . S
C888 C642 1.602 . S
C701 C829 1.602 . S
C878 C652 1.602 . S
