# Generated by pormake.
# Topology sxb, (6)-cn, num edge types: 1
# Building blocks:
#     Node 0, Type 0, BuildingBlock: BETFAJ_clean_sbu_0, # of connection points: 6
#     Node 1, Type 0, BuildingBlock: BETFAJ_clean_sbu_0, # of connection points: 6
#     Node 2, Type 0, BuildingBlock: BETFAJ_clean_sbu_0, # of connection points: 6
#     Node 3, Type 0, BuildingBlock: BETFAJ_clean_sbu_0, # of connection points: 6
#     Edge 4, Type (0, 0), BuildingBlock: FUNLAD_clean_linker_1, # of connection points: 2
#     Edge 5, Type (0, 0), BuildingBlock: FUNLAD_clean_linker_1, # of connection points: 2
#     Edge 6, Type (0, 0), BuildingBlock: FUNLAD_clean_linker_1, # of connection points: 2
#     Edge 7, Type (0, 0), BuildingBlock: FUNLAD_clean_linker_1, # of connection points: 2
#     Edge 8, Type (0, 0), BuildingBlock: FUNLAD_clean_linker_1, # of connection points: 2
#     Edge 9, Type (0, 0), BuildingBlock: FUNLAD_clean_linker_1, # of connection points: 2
#     Edge 10, Type (0, 0), BuildingBlock: FUNLAD_clean_linker_1, # of connection points: 2
#     Edge 11, Type (0, 0), BuildingBlock: FUNLAD_clean_linker_1, # of connection points: 2
#     Edge 12, Type (0, 0), BuildingBlock: FUNLAD_clean_linker_1, # of connection points: 2
#     Edge 13, Type (0, 0), BuildingBlock: FUNLAD_clean_linker_1, # of connection points: 2
#     Edge 14, Type (0, 0), BuildingBlock: FUNLAD_clean_linker_1, # of connection points: 2
#     Edge 15, Type (0, 0), BuildingBlock: FUNLAD_clean_linker_1, # of connection points: 2
# Relax obj value: 0.395
# Max RMSD: 0.124
# Mean RMSD: 0.080
data_MOF--net-sxb--node1-BETFAJ_clean_sbu_0--edge1-FUNLAD_clean_linker_1
_symmetry_space_group_name_H-M    P1
_symmetry_Int_Tables_number       1
_symmetry_cell_setting            triclinic
loop_
_symmetry_equiv_pos_as_xyz
'x, y, z'
_cell_length_a     18.234681
_cell_length_b     37.348222
_cell_length_c     31.730617
_cell_angle_alpha  92.362578
_cell_angle_beta   95.209599
_cell_angle_gamma 69.67252
loop_
_atom_site_label
_atom_site_type_symbol
_atom_site_fract_x
_atom_site_fract_y
_atom_site_fract_z
_atom_type_partial_charge
Sm0 Sm 1.01245 0.04357 -0.00427 0.0
Sm1 Sm 0.15544 0.04493 -0.01042 0.0
C2 C 0.88716 1.03188 0.01964 0.0
C3 C 0.81452 0.05558 0.03762 0.0
C4 C 0.77295 1.03822 0.05964 0.0
C5 C 0.70055 0.06007 0.07396 0.0
C6 C 0.66857 0.09939 0.0658 0.0
C7 C 0.71295 0.11723 0.0467 0.0
C8 C 0.78558 0.09537 0.03247 0.0
C9 C 1.03333 0.05067 0.91097 0.0
C10 C 1.00637 0.13257 -0.005 0.0
C11 C 0.27949 0.0574 0.96505 0.0
C12 C 0.35001 1.03507 0.94433 0.0
C13 C 0.38809 0.05402 0.92198 0.0
C14 C 0.45894 1.0335 0.90517 0.0
C15 C 0.49305 0.99391 0.91125 0.0
C16 C 0.45163 0.97454 0.93044 0.0
C17 C 0.38045 0.99507 0.94712 0.0
C18 C 0.13397 1.03854 0.07436 0.0
C19 C 0.16154 0.95591 -0.00913 0.0
O20 O 0.95139 1.02605 0.04424 0.0
O21 O 0.89467 1.03914 0.9807 0.0
O22 O 1.08276 1.02707 0.93649 0.0
O23 O 0.97306 0.07146 0.9303 0.0
O24 O 0.96339 0.1117 0.00283 0.0
O25 O 1.081 0.11291 0.98761 0.0
O26 O 0.21338 0.06516 0.94171 0.0
O27 O 0.27503 0.04746 0.00342 0.0
O28 O 1.08485 0.06189 0.04854 0.0
O29 O 0.19463 1.01769 0.05538 0.0
O30 O 0.20436 0.97674 0.98257 0.0
O31 O 1.08702 0.97563 -0.00157 0.0
H32 H 0.79516 1.00763 0.06445 0.0
H33 H 0.66739 0.04595 0.0892 0.0
H34 H 0.68901 0.14751 0.04008 0.0
H35 H 0.81758 0.1093 0.016 0.0
H36 H 0.36454 0.0848 0.91889 0.0
H37 H 0.4896 0.04882 0.88978 0.0
H38 H 0.47711 0.94401 0.93536 0.0
H39 H 0.35094 0.97992 0.96369 0.0
Sm40 Sm 0.118 1.00997 0.48841 0.0
Sm41 Sm 1.04696 0.08506 0.49701 0.0
C42 C 0.15769 0.93483 0.49397 0.0
C43 C 0.11384 0.90812 0.48915 0.0
C44 C 1.05163 0.91196 0.51412 0.0
C45 C 1.00723 0.88815 0.50715 0.0
C46 C 1.02318 0.86047 0.47475 0.0
C47 C 1.08668 0.85594 0.45044 0.0
C48 C 0.13163 0.87956 0.45767 0.0
C49 C 1.08502 1.0428 0.4086 0.0
C50 C 0.91211 0.04325 0.49239 0.0
C51 C 1.0079 0.16024 0.49107 0.0
C52 C 1.053 0.18624 0.4974 0.0
C53 C 0.13046 0.17478 0.48591 0.0
C54 C 0.17631 0.19738 0.49643 0.0
C55 C 0.14515 0.23223 0.51807 0.0
C56 C 1.06646 0.24475 0.52757 0.0
C57 C 1.0209 0.22163 0.5178 0.0
C58 C 1.08014 0.05203 0.57674 0.0
C59 C 0.25313 0.05153 0.49328 0.0
O60 O 0.14542 0.95783 0.52677 0.0
O61 O 0.16141 0.95183 0.45959 0.0
O62 O 1.03749 0.05037 0.43744 0.0
O63 O 0.15264 1.01881 0.4223 0.0
O64 O 0.9812 1.01383 0.49492 0.0
O65 O 0.91938 0.07737 0.48946 0.0
O66 O 1.02321 0.13692 0.45863 0.0
O67 O 1.00124 0.14351 0.52502 0.0
O68 O 0.12754 0.04469 0.54786 0.0
O69 O 1.01258 0.07621 0.56326 0.0
O70 O 0.18404 0.08087 0.49127 0.0
O71 O 0.24591 1.01736 0.49563 0.0
H72 H 1.03622 0.93376 0.53859 0.0
H73 H 0.95897 0.89201 0.5265 0.0
H74 H 0.10202 0.83415 0.42599 0.0
H75 H 0.17963 0.87592 0.43822 0.0
H76 H 0.15615 0.14817 0.46917 0.0
H77 H 0.23607 0.18766 0.48744 0.0
H78 H 1.04107 0.27183 0.5437 0.0
H79 H 0.96117 0.23103 0.52682 0.0
Sm80 Sm 0.50936 0.54317 -0.00459 0.0
Sm81 Sm 0.65861 0.54427 -0.00631 0.0
C82 C 0.37561 0.5365 0.01275 0.0
C83 C 0.295 0.56398 0.01275 0.0
C84 C 0.25217 0.56699 0.04813 0.0
C85 C 0.17596 0.59344 0.04865 0.0
C86 C 0.14147 0.61661 0.01348 0.0
C87 C 0.18521 0.61459 0.97876 0.0
C88 C 0.26147 0.58857 0.97841 0.0
C89 C 0.54081 0.54957 0.91269 0.0
C90 C 0.50771 0.63214 -0.00611 0.0
C91 C 0.78427 0.55505 0.96951 0.0
C92 C 0.8443 0.53539 0.94022 0.0
C93 C 0.85548 0.55596 0.90689 0.0
C94 C 0.91356 0.53847 0.87952 0.0
C95 C 0.9626 0.50036 0.8856 0.0
C96 C 0.94846 0.47899 0.91718 0.0
C97 C 0.88971 0.4964 0.94445 0.0
C98 C 0.62404 0.54268 0.07717 0.0
C99 C 0.65958 0.45585 -0.00409 0.0
O100 O 0.42596 0.54205 0.04191 0.0
O101 O 0.4044 0.52751 0.97597 0.0
O102 O 0.58758 0.52639 0.93959 0.0
O103 O 0.47754 0.57035 0.92963 0.0
O104 O 0.46197 0.61164 -0.00219 0.0
O105 O 0.58424 0.61232 -0.009 0.0
O106 O 0.71366 0.57204 0.95187 0.0
O107 O 0.78476 0.53755 0.00442 0.0
O108 O 0.57848 0.56288 0.04794 0.0
O109 O 0.69159 0.52369 0.06331 0.0
O110 O 0.70244 0.47619 0.98601 0.0
O111 O 0.58555 0.47587 0.00432 0.0
H112 H 0.27745 0.54868 0.07517 0.0
H113 H 0.1428 0.59465 0.07565 0.0
H114 H 0.15967 0.63262 0.95154 0.0
H115 H 0.2938 0.58752 0.95112 0.0
H116 H 0.82031 0.58583 0.90255 0.0
H117 H 0.92305 0.55524 0.85492 0.0
H118 H 0.98586 0.44956 0.92236 0.0
H119 H 0.88134 0.47963 0.96943 0.0
Sm120 Sm 0.65288 0.48939 0.49564 0.0
Sm121 Sm 0.57368 0.57917 0.50092 0.0
C122 C 0.70614 0.41725 0.51921 0.0
C123 C 0.67079 0.39378 0.54019 0.0
C124 C 0.59717 0.41091 0.55615 0.0
C125 C 0.55586 0.38838 0.56838 0.0
C126 C 0.58775 0.34837 0.56476 0.0
C127 C 0.66398 0.33131 0.55188 0.0
C128 C 0.70503 0.35392 0.53924 0.0
C129 C 0.63187 0.51881 0.41424 0.0
C130 C 0.44475 0.52934 0.49709 0.0
C131 C 0.52143 0.65088 0.47643 0.0
C132 C 0.55619 0.67243 0.45199 0.0
C133 C 0.61948 0.65295 0.42801 0.0
C134 C 0.66287 0.67264 0.4116 0.0
C135 C 0.64438 0.71191 0.4195 0.0
C136 C 0.57743 0.73178 0.44097 0.0
C137 C 0.53394 0.71206 0.45732 0.0
C138 C 0.59562 0.54977 0.58235 0.0
C139 C 0.78175 0.53926 0.49944 0.0
O140 O 0.72046 0.44448 0.54212 0.0
O141 O 0.67355 0.4284 0.48132 0.0
O142 O 0.61387 0.53683 0.44866 0.0
O143 O 0.66221 0.48263 0.42254 0.0
O144 O 0.5123 0.49856 0.49729 0.0
O145 O 0.45209 0.56413 0.49691 0.0
O146 O 0.50106 0.62416 0.45583 0.0
O147 O 0.55869 0.63989 0.51349 0.0
O148 O 0.61304 0.53186 0.54783 0.0
O149 O 0.56372 0.58593 0.57406 0.0
O150 O 0.71413 0.57001 0.49886 0.0
O151 O 0.77448 0.50447 0.49998 0.0
H152 H 0.57009 0.44171 0.55728 0.0
H153 H 0.49805 0.4023 0.57933 0.0
H154 H 0.68981 0.30053 0.54911 0.0
H155 H 0.76172 0.34031 0.52684 0.0
H156 H 0.63782 0.62223 0.42385 0.0
H157 H 0.7138 0.65675 0.39494 0.0
H158 H 0.55999 0.7623 0.44639 0.0
H159 H 0.48522 0.72747 0.47576 0.0
H160 H 0.52306 0.68933 -0.01081 0.0
C161 C 0.47718 0.67757 -0.00759 0.0
H162 H 0.35608 0.69304 -0.00042 0.0
H163 H 0.22222 0.86608 0.0593 0.0
H164 H 0.20391 0.83156 0.11782 0.0
H165 H 0.26049 0.76148 0.12055 0.0
H166 H 0.33718 0.72491 0.06513 0.0
C167 C 0.40141 0.7048 -0.0051 0.0
C168 C 0.37207 0.75075 -0.00595 0.0
C169 C 0.3243 0.77382 0.02586 0.0
C170 C 0.28913 0.81573 0.02391 0.0
C171 C 0.24711 0.83533 0.05805 0.0
C172 C 0.2367 0.8158 0.09214 0.0
C173 C 0.26865 0.77626 0.09369 0.0
C174 C 0.31216 0.75553 0.06135 0.0
H175 H 0.1474 0.89863 -0.00318 0.0
C176 C 0.19259 0.91047 -0.00789 0.0
H177 H 0.31264 0.89524 0.98252 0.0
H178 H 0.44944 0.72201 0.92483 0.0
H179 H 0.46749 0.75647 0.86615 0.0
H180 H 0.40965 0.8265 0.86293 0.0
H181 H 0.3322 0.86308 0.91805 0.0
C182 C 0.26804 0.88333 0.98833 0.0
C183 C 0.2979 0.83736 -0.01055 0.0
C184 C 0.34567 0.81428 0.95764 0.0
C185 C 0.38112 0.77238 0.9597 0.0
C186 C 0.42383 0.75276 0.92579 0.0
C187 C 0.43421 0.77225 0.89166 0.0
C188 C 0.40157 0.81176 0.88985 0.0
C189 C 0.35764 0.8325 0.92204 0.0
H190 H 0.64684 0.39879 0.00601 0.0
C191 C 0.69058 0.41048 -0.00192 0.0
H192 H 0.80949 0.39512 0.98575 0.0
H193 H 0.99637 0.22756 0.05185 0.0
H194 H 1.05552 0.26654 0.09523 0.0
H195 H 0.99847 0.33665 0.0937 0.0
H196 H 0.88084 0.36882 0.04921 0.0
C197 C 0.76506 0.38329 -0.00788 0.0
C198 C 0.7958 0.33749 -0.00446 0.0
C199 C 0.86691 0.31697 0.02085 0.0
C200 C 0.9019 0.27502 0.02132 0.0
C201 C 0.96934 0.25813 0.049 0.0
C202 C 1.00364 0.28026 0.0744 0.0
C203 C 0.97143 0.31982 0.07355 0.0
C204 C 0.90401 0.33797 0.04749 0.0
H205 H 1.019 0.18989 0.98678 0.0
C206 C 0.975 0.17797 -0.00634 0.0
H207 H 0.85545 0.19286 0.00424 0.0
H208 H 0.66755 0.36078 0.9401 0.0
H209 H 0.60829 0.32184 0.8967 0.0
H210 H 0.66578 0.25173 0.89783 0.0
H211 H 0.78384 0.21953 0.94193 0.0
C212 C 0.89998 0.20494 -0.00113 0.0
C213 C 0.8689 0.25079 -0.0042 0.0
C214 C 0.79772 0.27133 0.97051 0.0
C215 C 0.76264 0.31327 0.97014 0.0
C216 C 0.69485 0.33019 0.94271 0.0
C217 C 0.66044 0.30809 0.91734 0.0
C218 C 0.69288 0.26854 0.91797 0.0
C219 C 0.76057 0.25036 0.94383 0.0
H220 H 0.16816 0.28665 0.52562 0.0
C221 C 0.19409 0.25594 0.5299 0.0
H222 H 0.2944 0.20972 0.55079 0.0
H223 H 0.53437 0.28476 0.50099 0.0
H224 H 0.56332 0.22876 0.45575 0.0
H225 H 0.48264 0.18756 0.45335 0.0
H226 H 0.37208 0.20251 0.49581 0.0
C227 C 0.26918 0.24031 0.54559 0.0
C228 C 0.32232 0.26294 0.55123 0.0
C229 C 0.38806 0.25324 0.52679 0.0
C230 C 0.4356 0.27654 0.52886 0.0
C231 C 0.49804 0.26739 0.50217 0.0
C232 C 0.51495 0.23544 0.47559 0.0
C233 C 0.46944 0.21231 0.47415 0.0
C234 C 0.4062 0.22119 0.49897 0.0
H235 H 0.57036 0.29499 0.58145 0.0
C236 C 0.54038 0.3241 0.5706 0.0
H237 H 0.4335 0.36356 0.5443 0.0
H238 H 0.20886 0.28576 0.60755 0.0
H239 H 0.18125 0.34122 0.65408 0.0
H240 H 0.26183 0.38251 0.65647 0.0
H241 H 0.37106 0.36828 0.61271 0.0
C242 C 0.46405 0.33505 0.55665 0.0
C243 C 0.41837 0.30893 0.55628 0.0
C244 C 0.3542 0.31788 0.58167 0.0
C245 C 0.30668 0.29459 0.57959 0.0
C246 C 0.24496 0.30332 0.60663 0.0
C247 C 0.22895 0.33487 0.63382 0.0
C248 C 0.2744 0.35807 0.63523 0.0
C249 C 0.33667 0.34968 0.60976 0.0
H250 H 0.94012 0.83409 0.4936 0.0
C251 C 0.97238 0.83695 0.46746 0.0
H252 H 0.98506 0.82646 0.40186 0.0
H253 H 0.82548 0.70436 0.46911 0.0
H254 H 0.95586 0.67086 0.50178 0.0
H255 H 1.06306 0.69632 0.49792 0.0
H256 H 1.0399 0.75604 0.46211 0.0
C257 C 0.95908 0.82177 0.42964 0.0
C258 C 0.9002 0.80235 0.42423 0.0
C259 C 0.91541 0.76689 0.44406 0.0
C260 C 0.85419 0.75173 0.44526 0.0
C261 C 0.87007 0.71699 0.46674 0.0
C262 C 0.94468 0.69745 0.48565 0.0
C263 C 1.005 0.71184 0.48356 0.0
C264 C 0.99086 0.74618 0.46311 0.0
H265 H 0.73835 0.7175 0.38338 0.0
C266 C 0.69978 0.73041 0.40825 0.0
H267 H 0.67828 0.77081 0.45865 0.0
H268 H 0.85484 0.86843 0.37889 0.0
H269 H 0.72627 0.90022 0.34293 0.0
H270 H 0.62025 0.87361 0.34462 0.0
H271 H 0.64232 0.81479 0.38202 0.0
C272 C 0.71223 0.75873 0.43189 0.0
C273 C 0.77854 0.77173 0.42577 0.0
C274 C 0.76492 0.80573 0.40338 0.0
C275 C 0.82604 0.82103 0.40243 0.0
C276 C 0.81054 0.85547 0.38048 0.0
C277 C 0.73705 0.87398 0.35971 0.0
C278 C 0.67732 0.85901 0.36067 0.0
C279 C 0.69069 0.82532 0.38228 0.0
H280 H 0.5936 0.94969 0.88358 0.0
C281 C 0.57698 0.97412 0.90495 0.0
H282 H 0.69449 0.96882 0.92226 0.0
H283 H 0.55879 0.14505 0.98332 0.0
H284 H 0.62268 0.15083 0.92125 0.0
H285 H 0.68411 0.09449 0.87663 0.0
H286 H 0.68147 1.03211 0.89362 0.0
C287 C 0.63343 0.98388 0.92776 0.0
C288 C 0.61409 1.01533 0.96006 0.0
C289 C 0.61822 0.05121 0.95042 0.0
C290 C 0.5844 0.08347 0.97665 0.0
C291 C 0.58567 0.11943 0.96507 0.0
C292 C 0.62166 0.12316 0.92943 0.0
C293 C 0.65614 0.09146 0.90427 0.0
C294 C 0.65416 0.05586 0.91433 0.0
H295 H 0.56696 0.14484 0.09106 0.0
C296 C 0.58427 0.12027 0.06991 0.0
H297 H 0.46725 0.12691 0.04932 0.0
H298 H 0.6079 0.94946 -0.00873 0.0
H299 H 0.54402 0.94362 0.05335 0.0
H300 H 0.48054 1.00014 0.09729 0.0
H301 H 0.48171 0.06269 0.07982 0.0
C302 C 0.52873 0.11111 0.04554 0.0
C303 C 0.54972 0.07942 0.01361 0.0
C304 C 0.5459 0.04351 0.02335 0.0
C305 C 0.5803 1.01119 -0.00269 0.0
C306 C 0.58019 0.97513 0.00927 0.0
C307 C 0.54423 0.97137 0.04491 0.0
C308 C 0.5086 1.00318 0.06969 0.0
C309 C 0.50971 1.03887 0.05935 0.0
H310 H 0.32521 0.08891 0.48309 0.0
C311 C 0.33533 0.05947 0.49082 0.0
H312 H 0.42553 1.00654 0.50303 0.0
H313 H 0.75922 0.99424 0.44774 0.0
H314 H 0.73289 0.94053 0.41416 0.0
H315 H 0.60364 0.93374 0.41486 0.0
H316 H 0.49864 0.98071 0.44898 0.0
C317 C 0.41685 1.03598 0.49603 0.0
C318 C 0.49977 0.04404 0.49257 0.0
C319 C 0.56605 1.01666 0.47285 0.0
C320 C 0.6448 1.02038 0.47267 0.0
C321 C 0.70211 0.99248 0.45053 0.0
C322 C 0.68732 0.96157 0.43057 0.0
C323 C 0.61441 0.95776 0.431 0.0
C324 C 0.55459 0.98489 0.4513 0.0
H325 H 0.83924 1.00628 0.50279 0.0
C326 C 0.82961 1.03562 0.49484 0.0
H327 H 0.74003 0.08868 0.48216 0.0
H328 H 0.40543 0.10152 0.53736 0.0
H329 H 0.43164 0.15559 0.57048 0.0
H330 H 0.56029 0.16268 0.56894 0.0
H331 H 0.66548 0.11549 0.53518 0.0
C332 C 0.74824 0.05934 0.48937 0.0
C333 C 0.66499 0.05155 0.49268 0.0
C334 C 0.59856 0.07909 0.51214 0.0
C335 C 0.51986 0.07531 0.51246 0.0
C336 C 0.46248 0.10332 0.53447 0.0
C337 C 0.47714 0.13441 0.5541 0.0
C338 C 0.54982 0.13838 0.55328 0.0
C339 C 0.60973 0.11114 0.53317 0.0
H340 H 1.046 0.45943 0.84443 0.0
C341 C 1.03588 0.48503 0.86387 0.0
H342 H 0.14493 0.48927 0.85305 0.0
H343 H 0.9907 0.66595 0.91205 0.0
H344 H 1.00034 0.67369 0.83729 0.0
H345 H 1.0486 0.61752 0.79035 0.0
H346 H 1.08828 0.55318 0.81799 0.0
C347 C 0.09227 0.50087 0.86983 0.0
C348 C 1.08408 0.5339 0.89947 0.0
C349 C 1.06281 0.57115 0.88311 0.0
C350 C 1.03459 0.60349 0.91015 0.0
C351 C 1.01247 0.64042 0.89285 0.0
C352 C 1.01762 0.64524 0.85004 0.0
C353 C 1.04477 0.6136 0.82359 0.0
C354 C 1.06711 0.57689 0.83977 0.0
H355 H 1.0366 0.66327 0.03358 0.0
C356 C 1.05723 0.64001 0.01105 0.0
H357 H 0.94408 0.65065 0.98114 0.0
H358 H 0.13667 0.46667 0.94227 0.0
H359 H 0.12353 0.45836 0.01656 0.0
H360 H 1.06225 0.51408 0.06207 0.0
H361 H 1.01623 0.57833 0.03402 0.0
C362 C 1.00519 0.6322 0.98265 0.0
C363 C 1.02869 0.59842 0.95357 0.0
C364 C 1.05151 0.56104 0.97004 0.0
C365 C 1.08265 0.52887 0.94336 0.0
C366 C 0.10993 0.49194 0.96109 0.0
C367 C 0.10295 0.48683 0.00358 0.0
C368 C 1.06865 0.51819 0.02922 0.0
C369 C 1.04293 0.55492 0.01279 0.0
H370 H 0.36867 0.49195 0.49142 0.0
C371 C 0.3609 0.52196 0.49592 0.0
H372 H 0.27328 0.57604 0.50286 0.0
H373 H 0.92436 0.58273 0.44859 0.0
H374 H 0.94186 0.63213 0.4083 0.0
H375 H 1.07101 0.63892 0.40778 0.0
H376 H 0.18512 0.59612 0.44681 0.0
C377 C 0.28031 0.54607 0.49912 0.0
C378 C 0.1961 0.53796 0.49731 0.0
C379 C 0.12431 0.56301 0.47493 0.0
C380 C 1.0454 0.55941 0.47568 0.0
C381 C 0.98222 0.58466 0.45066 0.0
C382 C 0.99174 0.61298 0.42691 0.0
C383 C 1.06466 0.61681 0.42663 0.0
C384 C 0.12988 0.59217 0.44977 0.0
H385 H 0.85759 0.57675 0.50506 0.0
C386 C 0.86554 0.54672 0.50068 0.0
H387 H 0.95342 0.49267 0.49409 0.0
H388 H 0.3021 0.48613 0.54828 0.0
H389 H 0.28449 0.43695 0.58884 0.0
H390 H 0.15521 0.4303 0.58962 0.0
H391 H 1.04115 0.47303 0.55047 0.0
C392 C 0.94622 0.52267 0.49767 0.0
C393 C 1.03036 0.53086 0.49955 0.0
C394 C 0.10211 0.50588 0.52202 0.0
C395 C 0.18104 0.50944 0.52121 0.0
C396 C 0.24423 0.48421 0.54625 0.0
C397 C 0.23468 0.45595 0.57009 0.0
C398 C 0.16169 0.45223 0.57054 0.0
C399 C 0.09647 0.47685 0.54737 0.0
H400 H 1.00258 0.07178 0.3538 0.0
C401 C 1.06202 0.05293 0.36257 0.0
H402 H 0.17032 1.01865 0.34072 0.0
H403 H 1.06839 0.98983 0.15176 0.0
H404 H 1.07953 0.93 0.18313 0.0
H405 H 0.0964 0.92225 0.26057 0.0
H406 H 0.10118 0.97454 0.30731 0.0
C407 C 0.11203 1.03865 0.33171 0.0
C408 C 1.09128 0.04562 0.28443 0.0
C409 C 1.09003 1.01477 0.25682 0.0
C410 C 1.08217 1.01899 0.21166 0.0
C411 C 1.07747 0.98791 0.18584 0.0
C412 C 1.083 0.95345 0.20348 0.0
C413 C 0.09239 0.9491 0.2471 0.0
C414 C 0.09551 0.9793 0.27357 0.0
H415 H 0.1829 1.01604 0.13795 0.0
C416 C 0.13202 1.0369 0.12159 0.0
H417 H 1.02305 0.08001 0.12989 0.0
H418 H 1.09002 0.11106 0.32616 0.0
H419 H 1.07743 0.17124 0.29488 0.0
H420 H 1.06461 0.1785 0.21742 0.0
H421 H 1.06471 0.12561 0.17052 0.0
C422 C 1.07349 0.05816 0.14526 0.0
C423 C 1.07773 0.05391 0.19322 0.0
C424 C 1.07603 0.08521 0.22085 0.0
C425 C 1.08305 0.08107 0.26606 0.0
C426 C 1.0839 0.11265 0.29202 0.0
C427 C 1.07692 0.14737 0.27445 0.0
C428 C 1.06969 0.15146 0.2308 0.0
C429 C 1.06957 0.12086 0.20421 0.0
H430 H 0.98407 0.07422 0.84783 0.0
C431 C 1.03498 0.05305 0.86378 0.0
H432 H 0.1437 1.01006 0.8546 0.0
H433 H 1.07454 0.9827 0.65758 0.0
H434 H 1.08674 0.92201 0.68742 0.0
H435 H 0.10016 0.91332 0.76467 0.0
H436 H 0.10102 0.96529 0.81281 0.0
C437 C 0.09321 1.0322 0.83968 0.0
C438 C 1.08856 1.03734 0.79183 0.0
C439 C 1.08969 1.00657 0.76346 0.0
C440 C 1.08236 1.01154 0.71835 0.0
C441 C 1.08094 0.98048 0.69167 0.0
C442 C 1.08769 0.94547 0.70841 0.0
C443 C 0.09524 0.94058 0.75194 0.0
C444 C 0.09592 0.97066 0.77924 0.0
H445 H 0.16264 1.02222 0.63113 0.0
C446 C 0.10326 1.04127 0.62263 0.0
H447 H 0.99523 0.07531 0.64496 0.0
H448 H 0.09893 0.10056 0.83478 0.0
H449 H 1.0883 0.16089 0.80482 0.0
H450 H 1.07088 0.17006 0.72759 0.0
H451 H 1.06507 0.11871 0.67964 0.0
C452 C 1.05346 0.05512 0.65367 0.0
C453 C 1.07438 0.04729 0.70082 0.0
C454 C 1.07618 0.07759 0.72916 0.0
C455 C 1.08435 0.07255 0.77421 0.0
C456 C 1.08961 0.10311 0.80075 0.0
C457 C 1.08437 0.13785 0.78392 0.0
C458 C 1.07467 0.14301 0.74042 0.0
C459 C 1.07096 0.11333 0.71325 0.0
H460 H 0.627 0.56373 0.36843 0.0
C461 C 0.62545 0.53511 0.37095 0.0
H462 H 0.62161 0.48514 0.34002 0.0
H463 H 0.55527 0.60286 0.17387 0.0
H464 H 0.45545 0.65018 0.21163 0.0
H465 H 0.43239 0.63856 0.28435 0.0
H466 H 0.51091 0.58016 0.32042 0.0
C467 C 0.6236 0.51349 0.33552 0.0
C468 C 0.63456 0.52237 0.29052 0.0
C469 C 0.58436 0.55553 0.26839 0.0
C470 C 0.59353 0.56095 0.22473 0.0
C471 C 0.54757 0.59602 0.20553 0.0
C472 C 0.49051 0.62366 0.22706 0.0
C473 C 0.47782 0.61721 0.26812 0.0
C474 C 0.52389 0.58362 0.28864 0.0
H475 H 0.54429 0.55054 0.12862 0.0
C476 C 0.60525 0.54388 0.12249 0.0
H477 H 0.72147 0.53017 0.14813 0.0
H478 H 0.74823 0.45769 0.32242 0.0
H479 H 0.84067 0.40818 0.28326 0.0
H480 H 0.84395 0.41337 0.20635 0.0
H481 H 0.75616 0.46849 0.1683 0.0
C482 C 0.66121 0.53634 0.15548 0.0
C483 C 0.64837 0.53181 0.20154 0.0
C484 C 0.69728 0.49836 0.22357 0.0
C485 C 0.69224 0.49431 0.26782 0.0
C486 C 0.74625 0.4616 0.28871 0.0
C487 C 0.80037 0.43298 0.26667 0.0
C488 C 0.80247 0.43598 0.22343 0.0
C489 C 0.75186 0.4681 0.20203 0.0
H490 H 0.63449 0.50245 0.62951 0.0
C491 C 0.60856 0.53319 0.62594 0.0
H492 H 0.56568 0.58668 0.6565 0.0
H493 H 0.50947 0.49478 0.81557 0.0
H494 H 0.42039 0.47501 0.76652 0.0
H495 H 0.41252 0.48644 0.68999 0.0
H496 H 0.49438 0.51725 0.66176 0.0
C497 C 0.58901 0.55593 0.66076 0.0
C498 C 0.60219 0.54263 0.70631 0.0
C499 C 0.55357 0.52484 0.72281 0.0
C500 C 0.55653 0.51919 0.76754 0.0
C501 C 0.5082 0.50069 0.78237 0.0
C502 C 0.45705 0.48903 0.75452 0.0
C503 C 0.45272 0.49541 0.71139 0.0
C504 C 0.50015 0.51311 0.69557 0.0
H505 H 0.49509 0.56892 0.84772 0.0
C506 C 0.54591 0.54952 0.86571 0.0
H507 H 0.66023 0.50981 0.86134 0.0
H508 H 0.70805 0.57452 0.68661 0.0
H509 H 0.79561 0.59529 0.73572 0.0
H510 H 0.79748 0.58761 0.81256 0.0
H511 H 0.71336 0.55821 0.84112 0.0
C512 C 0.60729 0.52826 0.84407 0.0
C513 C 0.60697 0.53195 0.79645 0.0
C514 C 0.65752 0.54846 0.77979 0.0
C515 C 0.65516 0.55372 0.7351 0.0
C516 C 0.70631 0.57051 0.72005 0.0
C517 C 0.75715 0.58238 0.74786 0.0
C518 C 0.75849 0.57787 0.79117 0.0
C519 C 0.70973 0.56101 0.80712 0.0
loop_
_geom_bond_atom_site_label_1
_geom_bond_atom_site_label_2
_geom_bond_distance
_geom_bond_site_symmetry_2
_ccdc_geom_bond_type
Sm0 C2 2.846 . S
Sm0 O20 2.543 1_566 S
Sm0 O21 2.450 . S
Sm0 O22 2.681 1_655 S
Sm0 O23 2.464 . S
Sm0 O24 2.396 1_565 S
Sm0 O28 2.386 1_566 S
Sm0 O31 2.408 1_655 S
Sm1 C11 2.846 . S
Sm1 O22 2.386 1_544 S
Sm1 O25 2.408 1_455 S
Sm1 O26 2.543 1_544 S
Sm1 O27 2.450 . S
Sm1 O28 2.681 1_455 S
Sm1 O29 2.464 . S
Sm1 O30 2.396 1_545 S
C2 Sm0 2.846 . S
C2 C3 1.506 1_565 S
C2 O20 1.262 1_566 S
C2 O21 1.241 . S
C3 C2 1.506 1_545 S
C3 C4 1.358 1_556 S
C3 C8 1.382 . S
C4 C3 1.358 1_554 S
C4 C5 1.385 . S
C4 H32 0.930 . S
C5 C4 1.385 . S
C5 C6 1.395 1_554 S
C5 H33 0.929 . S
C6 C5 1.395 1_556 S
C6 C7 1.335 . S
C7 C6 1.335 . S
C7 C8 1.398 . S
C7 H34 0.930 . S
C8 C3 1.382 . S
C8 C7 1.398 . S
C8 H35 0.929 1_545 S
C9 O22 1.271 1_655 S
C9 O23 1.251 . S
C10 O24 1.252 . S
C10 O25 1.272 1_556 S
C11 Sm1 2.846 . S
C11 C12 1.505 1_545 S
C11 O26 1.260 1_544 S
C11 O27 1.243 . S
C12 C11 1.505 1_565 S
C12 C13 1.358 1_554 S
C12 C17 1.382 . S
C13 C12 1.358 1_556 S
C13 C14 1.385 . S
C13 H36 0.930 . S
C14 C13 1.385 . S
C14 C15 1.395 1_556 S
C14 H37 0.929 . S
C15 C14 1.395 1_554 S
C15 C16 1.335 . S
C16 C15 1.335 . S
C16 C17 1.398 . S
C16 H38 0.930 . S
C17 C12 1.382 . S
C17 C16 1.398 . S
C17 H39 0.929 1_565 S
C18 O28 1.271 1_455 S
C18 O29 1.251 . S
C19 O30 1.252 . S
C19 O31 1.272 1_554 S
O20 Sm0 2.543 1_544 S
O20 C2 1.262 1_544 S
O21 Sm0 2.450 . S
O21 C2 1.241 . S
O22 Sm0 2.681 1_455 S
O22 Sm1 2.386 1_566 S
O22 C9 1.271 1_455 S
O23 Sm0 2.464 . S
O23 C9 1.251 . S
O24 Sm0 2.396 1_545 S
O24 C10 1.252 . S
O25 Sm1 2.408 1_655 S
O25 C10 1.272 1_554 S
O26 Sm1 2.543 1_566 S
O26 C11 1.260 1_566 S
O27 Sm1 2.450 . S
O27 C11 1.243 . S
O28 Sm0 2.386 1_544 S
O28 Sm1 2.681 1_655 S
O28 C18 1.271 1_655 S
O29 Sm1 2.464 . S
O29 C18 1.251 . S
O30 Sm1 2.396 1_565 S
O30 C19 1.252 . S
O31 Sm0 2.408 1_455 S
O31 C19 1.272 1_556 S
H32 C4 0.930 . S
H33 C5 0.929 . S
H34 C7 0.930 . S
H35 C8 0.929 1_565 S
H36 C13 0.930 . S
H37 C14 0.929 . S
H38 C16 0.930 . S
H39 C17 0.929 1_545 S
Sm40 C42 2.846 1_455 S
Sm40 O60 2.543 1_455 S
Sm40 O61 2.450 1_455 S
Sm40 O62 2.681 1_565 S
Sm40 O63 2.464 . S
Sm40 O64 2.396 1_455 S
Sm40 O68 2.386 1_455 S
Sm40 O71 2.408 . S
Sm41 C51 2.846 1_655 S
Sm41 O62 2.386 1_655 S
Sm41 O65 2.408 . S
Sm41 O66 2.543 1_655 S
Sm41 O67 2.450 1_655 S
Sm41 O68 2.681 1_545 S
Sm41 O69 2.464 . S
Sm41 O70 2.396 1_655 S
C42 Sm40 2.846 1_655 S
C42 C43 1.506 . S
C42 O60 1.261 . S
C42 O61 1.242 . S
C43 C42 1.506 . S
C43 C44 1.358 . S
C43 C48 1.382 . S
C44 C43 1.358 . S
C44 C45 1.385 . S
C44 H72 0.930 . S
C45 C44 1.385 . S
C45 C46 1.395 . S
C45 H73 0.929 . S
C46 C45 1.395 . S
C46 C47 1.335 . S
C47 C46 1.335 . S
C47 C48 1.398 . S
C47 H74 0.930 . S
C48 C43 1.382 . S
C48 C47 1.398 . S
C48 H75 0.929 . S
C49 O62 1.271 1_565 S
C49 O63 1.251 . S
C50 O64 1.252 1_545 S
C50 O65 1.272 . S
C51 Sm41 2.846 1_455 S
C51 C52 1.506 . S
C51 O66 1.261 . S
C51 O67 1.242 . S
C52 C51 1.506 . S
C52 C53 1.358 . S
C52 C57 1.382 . S
C53 C52 1.358 . S
C53 C54 1.385 . S
C53 H76 0.930 . S
C54 C53 1.385 . S
C54 C55 1.395 . S
C54 H77 0.929 . S
C55 C54 1.395 . S
C55 C56 1.335 . S
C56 C55 1.335 . S
C56 C57 1.398 . S
C56 H78 0.930 . S
C57 C52 1.382 . S
C57 C56 1.398 . S
C57 H79 0.929 . S
C58 O68 1.271 1_545 S
C58 O69 1.251 . S
C59 O70 1.252 1_565 S
C59 O71 1.272 . S
O60 Sm40 2.543 1_655 S
O60 C42 1.261 . S
O61 Sm40 2.450 1_655 S
O61 C42 1.242 . S
O62 Sm40 2.681 1_545 S
O62 Sm41 2.386 1_455 S
O62 C49 1.271 1_545 S
O63 Sm40 2.464 . S
O63 C49 1.251 . S
O64 Sm40 2.396 1_655 S
O64 C50 1.252 1_565 S
O65 Sm41 2.408 . S
O65 C50 1.272 . S
O66 Sm41 2.543 1_455 S
O66 C51 1.261 . S
O67 Sm41 2.450 1_455 S
O67 C51 1.242 . S
O68 Sm40 2.386 1_655 S
O68 Sm41 2.681 1_565 S
O68 C58 1.271 1_565 S
O69 Sm41 2.464 . S
O69 C58 1.251 . S
O70 Sm41 2.396 1_455 S
O70 C59 1.252 1_545 S
O71 Sm40 2.408 . S
O71 C59 1.272 . S
H72 C44 0.930 . S
H73 C45 0.929 . S
H74 C47 0.930 . S
H75 C48 0.929 . S
H76 C53 0.930 . S
H77 C54 0.929 . S
H78 C56 0.930 . S
H79 C57 0.929 . S
Sm80 C82 2.846 . S
Sm80 O100 2.543 1_556 S
Sm80 O101 2.450 . S
Sm80 O102 2.681 . S
Sm80 O103 2.464 . S
Sm80 O104 2.396 . S
Sm80 O108 2.386 1_556 S
Sm80 O111 2.408 . S
Sm81 C91 2.846 . S
Sm81 O102 2.386 1_554 S
Sm81 O105 2.408 . S
Sm81 O106 2.543 1_554 S
Sm81 O107 2.450 . S
Sm81 O108 2.681 . S
Sm81 O109 2.464 . S
Sm81 O110 2.396 . S
C82 Sm80 2.846 . S
C82 C83 1.506 . S
C82 O100 1.261 1_556 S
C82 O101 1.242 . S
C83 C82 1.506 . S
C83 C84 1.358 1_556 S
C83 C88 1.382 . S
C84 C83 1.358 1_554 S
C84 C85 1.385 . S
C84 H112 0.930 . S
C85 C84 1.385 . S
C85 C86 1.395 1_554 S
C85 H113 0.929 . S
C86 C85 1.395 1_556 S
C86 C87 1.335 . S
C87 C86 1.335 . S
C87 C88 1.398 . S
C87 H114 0.930 . S
C88 C83 1.382 . S
C88 C87 1.398 . S
C88 H115 0.929 . S
C89 O102 1.271 . S
C89 O103 1.251 . S
C90 O104 1.252 . S
C90 O105 1.272 1_556 S
C91 Sm81 2.846 . S
C91 C92 1.506 . S
C91 O106 1.261 1_554 S
C91 O107 1.242 . S
C92 C91 1.506 . S
C92 C93 1.358 1_554 S
C92 C97 1.382 . S
C93 C92 1.358 1_556 S
C93 C94 1.385 . S
C93 H116 0.930 . S
C94 C93 1.385 . S
C94 C95 1.395 1_556 S
C94 H117 0.929 . S
C95 C94 1.395 1_554 S
C95 C96 1.335 . S
C96 C95 1.335 . S
C96 C97 1.398 . S
C96 H118 0.930 . S
C97 C92 1.382 . S
C97 C96 1.398 . S
C97 H119 0.929 . S
C98 O108 1.271 . S
C98 O109 1.251 . S
C99 O110 1.252 . S
C99 O111 1.272 1_554 S
O100 Sm80 2.543 1_554 S
O100 C82 1.261 1_554 S
O101 Sm80 2.450 . S
O101 C82 1.242 . S
O102 Sm80 2.681 . S
O102 Sm81 2.386 1_556 S
O102 C89 1.271 . S
O103 Sm80 2.464 . S
O103 C89 1.251 . S
O104 Sm80 2.396 . S
O104 C90 1.252 . S
O105 Sm81 2.408 . S
O105 C90 1.272 1_554 S
O106 Sm81 2.543 1_556 S
O106 C91 1.261 1_556 S
O107 Sm81 2.450 . S
O107 C91 1.242 . S
O108 Sm80 2.386 1_554 S
O108 Sm81 2.681 . S
O108 C98 1.271 . S
O109 Sm81 2.464 . S
O109 C98 1.251 . S
O110 Sm81 2.396 . S
O110 C99 1.252 . S
O111 Sm80 2.408 . S
O111 C99 1.272 1_556 S
H112 C84 0.930 . S
H113 C85 0.929 . S
H114 C87 0.930 . S
H115 C88 0.929 . S
H116 C93 0.930 . S
H117 C94 0.929 . S
H118 C96 0.930 . S
H119 C97 0.929 . S
Sm120 C122 2.846 . S
Sm120 O140 2.543 . S
Sm120 O141 2.450 . S
Sm120 O142 2.681 . S
Sm120 O143 2.464 . S
Sm120 O144 2.396 . S
Sm120 O148 2.386 . S
Sm120 O151 2.408 . S
Sm121 C131 2.846 . S
Sm121 O142 2.386 . S
Sm121 O145 2.408 . S
Sm121 O146 2.543 . S
Sm121 O147 2.450 . S
Sm121 O148 2.681 . S
Sm121 O149 2.464 . S
Sm121 O150 2.396 . S
C122 Sm120 2.846 . S
C122 C123 1.506 . S
C122 O140 1.261 . S
C122 O141 1.242 . S
C123 C122 1.506 . S
C123 C124 1.358 . S
C123 C128 1.382 . S
C124 C123 1.358 . S
C124 C125 1.385 . S
C124 H152 0.930 . S
C125 C124 1.385 . S
C125 C126 1.395 . S
C125 H153 0.929 . S
C126 C125 1.395 . S
C126 C127 1.335 . S
C127 C126 1.335 . S
C127 C128 1.398 . S
C127 H154 0.930 . S
C128 C123 1.382 . S
C128 C127 1.398 . S
C128 H155 0.929 . S
C129 O142 1.271 . S
C129 O143 1.251 . S
C130 O144 1.252 . S
C130 O145 1.272 . S
C131 Sm121 2.846 . S
C131 C132 1.506 . S
C131 O146 1.261 . S
C131 O147 1.242 . S
C132 C131 1.506 . S
C132 C133 1.358 . S
C132 C137 1.382 . S
C133 C132 1.358 . S
C133 C134 1.385 . S
C133 H156 0.930 . S
C134 C133 1.385 . S
C134 C135 1.395 . S
C134 H157 0.929 . S
C135 C134 1.395 . S
C135 C136 1.335 . S
C136 C135 1.335 . S
C136 C137 1.398 . S
C136 H158 0.930 . S
C137 C132 1.382 . S
C137 C136 1.398 . S
C137 H159 0.929 . S
C138 O148 1.271 . S
C138 O149 1.251 . S
C139 O150 1.252 . S
C139 O151 1.272 . S
O140 Sm120 2.543 . S
O140 C122 1.261 . S
O141 Sm120 2.450 . S
O141 C122 1.242 . S
O142 Sm120 2.681 . S
O142 Sm121 2.386 . S
O142 C129 1.271 . S
O143 Sm120 2.464 . S
O143 C129 1.251 . S
O144 Sm120 2.396 . S
O144 C130 1.252 . S
O145 Sm121 2.408 . S
O145 C130 1.272 . S
O146 Sm121 2.543 . S
O146 C131 1.261 . S
O147 Sm121 2.450 . S
O147 C131 1.242 . S
O148 Sm120 2.386 . S
O148 Sm121 2.681 . S
O148 C138 1.271 . S
O149 Sm121 2.464 . S
O149 C138 1.251 . S
O150 Sm121 2.396 . S
O150 C139 1.252 . S
O151 Sm120 2.408 . S
O151 C139 1.272 . S
H152 C124 0.930 . S
H153 C125 0.929 . S
H154 C127 0.930 . S
H155 C128 0.929 . S
H156 C133 0.930 . S
H157 C134 0.929 . S
H158 C136 0.930 . S
H159 C137 0.929 . S
H160 C161 0.951 . S
C161 H160 0.951 . S
C161 C167 1.265 . S
H162 C167 0.950 . S
H163 C171 0.949 . S
H164 C172 0.950 . S
H165 C173 0.951 . S
H166 C174 0.951 . S
C167 C161 1.265 . S
C167 H162 0.950 . S
C167 C168 1.479 . S
C168 C167 1.479 . S
C168 C169 1.406 . S
C168 C185 1.384 1_554 S
C169 C168 1.406 . S
C169 C170 1.438 . S
C169 C174 1.429 . S
C170 C169 1.438 . S
C170 C171 1.428 . S
C170 C183 1.389 1_554 S
C171 H163 0.949 . S
C171 C170 1.428 . S
C171 C172 1.345 . S
C172 H164 0.950 . S
C172 C171 1.345 . S
C172 C173 1.424 . S
C173 H165 0.951 . S
C173 C172 1.424 . S
C173 C174 1.347 . S
C174 H166 0.951 . S
C174 C169 1.429 . S
C174 C173 1.347 . S
H175 C176 0.951 . S
C176 H175 0.951 . S
C176 C182 1.265 . S
H177 C182 0.950 . S
H178 C186 0.949 . S
H179 C187 0.950 . S
H180 C188 0.951 . S
H181 C189 0.951 . S
C182 C176 1.265 . S
C182 H177 0.950 . S
C182 C183 1.478 . S
C183 C170 1.389 1_556 S
C183 C182 1.478 . S
C183 C184 1.401 . S
C184 C183 1.401 . S
C184 C185 1.438 . S
C184 C189 1.429 . S
C185 C168 1.384 1_556 S
C185 C184 1.438 . S
C185 C186 1.428 . S
C186 H178 0.949 . S
C186 C185 1.428 . S
C186 C187 1.345 . S
C187 H179 0.950 . S
C187 C186 1.345 . S
C187 C188 1.424 . S
C188 H180 0.951 . S
C188 C187 1.424 . S
C188 C189 1.347 . S
C189 H181 0.951 . S
C189 C184 1.429 . S
C189 C188 1.347 . S
H190 C191 0.951 . S
C191 H190 0.951 . S
C191 C197 1.265 1_556 S
H192 C197 0.950 . S
H193 C201 0.949 . S
H194 C202 0.950 . S
H195 C203 0.951 . S
H196 C204 0.951 . S
C197 C191 1.265 1_554 S
C197 H192 0.950 . S
C197 C198 1.478 . S
C198 C197 1.478 . S
C198 C199 1.397 . S
C198 C215 1.394 1_554 S
C199 C198 1.397 . S
C199 C200 1.438 . S
C199 C204 1.429 . S
C200 C199 1.438 . S
C200 C201 1.428 . S
C200 C213 1.394 1_554 S
C201 H193 0.949 . S
C201 C200 1.428 . S
C201 C202 1.345 . S
C202 H194 0.950 . S
C202 C201 1.345 . S
C202 C203 1.424 . S
C203 H195 0.951 . S
C203 C202 1.424 . S
C203 C204 1.347 . S
C204 H196 0.951 . S
C204 C199 1.429 . S
C204 C203 1.347 . S
H205 C206 0.951 . S
C206 H205 0.951 . S
C206 C212 1.265 1_554 S
H207 C212 0.950 . S
H208 C216 0.949 . S
H209 C217 0.950 . S
H210 C218 0.951 . S
H211 C219 0.951 . S
C212 C206 1.265 1_556 S
C212 H207 0.950 . S
C212 C213 1.478 . S
C213 C200 1.394 1_556 S
C213 C212 1.478 . S
C213 C214 1.397 . S
C214 C213 1.397 . S
C214 C215 1.438 . S
C214 C219 1.429 . S
C215 C198 1.394 1_556 S
C215 C214 1.438 . S
C215 C216 1.428 . S
C216 H208 0.949 . S
C216 C215 1.428 . S
C216 C217 1.345 . S
C217 H209 0.950 . S
C217 C216 1.345 . S
C217 C218 1.424 . S
C218 H210 0.951 . S
C218 C217 1.424 . S
C218 C219 1.347 . S
C219 H211 0.951 . S
C219 C214 1.429 . S
C219 C218 1.347 . S
H220 C221 0.951 . S
C221 H220 0.951 . S
C221 C227 1.265 . S
H222 C227 0.950 . S
H223 C231 0.949 . S
H224 C232 0.950 . S
H225 C233 0.951 . S
H226 C234 0.951 . S
C227 C221 1.265 . S
C227 H222 0.950 . S
C227 C228 1.478 . S
C228 C227 1.478 . S
C228 C229 1.397 . S
C228 C245 1.394 . S
C229 C228 1.397 . S
C229 C230 1.438 . S
C229 C234 1.429 . S
C230 C229 1.438 . S
C230 C231 1.428 . S
C230 C243 1.394 . S
C231 H223 0.949 . S
C231 C230 1.428 . S
C231 C232 1.345 . S
C232 H224 0.950 . S
C232 C231 1.345 . S
C232 C233 1.424 . S
C233 H225 0.951 . S
C233 C232 1.424 . S
C233 C234 1.347 . S
C234 H226 0.951 . S
C234 C229 1.429 . S
C234 C233 1.347 . S
H235 C236 0.951 . S
C236 H235 0.951 . S
C236 C242 1.265 . S
H237 C242 0.950 . S
H238 C246 0.949 . S
H239 C247 0.950 . S
H240 C248 0.951 . S
H241 C249 0.951 . S
C242 C236 1.265 . S
C242 H237 0.950 . S
C242 C243 1.478 . S
C243 C230 1.394 . S
C243 C242 1.478 . S
C243 C244 1.397 . S
C244 C243 1.397 . S
C244 C245 1.438 . S
C244 C249 1.429 . S
C245 C228 1.394 . S
C245 C244 1.438 . S
C245 C246 1.428 . S
C246 H238 0.949 . S
C246 C245 1.428 . S
C246 C247 1.345 . S
C247 H239 0.950 . S
C247 C246 1.345 . S
C247 C248 1.424 . S
C248 H240 0.951 . S
C248 C247 1.424 . S
C248 C249 1.347 . S
C249 H241 0.951 . S
C249 C244 1.429 . S
C249 C248 1.347 . S
H250 C251 0.951 . S
C251 H250 0.951 . S
C251 C257 1.265 . S
H252 C257 0.950 . S
H253 C261 0.949 . S
H254 C262 0.950 . S
H255 C263 0.951 . S
H256 C264 0.951 . S
C257 C251 1.265 . S
C257 H252 0.950 . S
C257 C258 1.478 . S
C258 C257 1.478 . S
C258 C259 1.397 . S
C258 C275 1.394 . S
C259 C258 1.397 . S
C259 C260 1.438 . S
C259 C264 1.429 . S
C260 C259 1.438 . S
C260 C261 1.428 . S
C260 C273 1.394 . S
C261 H253 0.949 . S
C261 C260 1.428 . S
C261 C262 1.345 . S
C262 H254 0.950 . S
C262 C261 1.345 . S
C262 C263 1.424 . S
C263 H255 0.951 . S
C263 C262 1.424 . S
C263 C264 1.347 . S
C264 H256 0.951 . S
C264 C259 1.429 . S
C264 C263 1.347 . S
H265 C266 0.951 . S
C266 H265 0.951 . S
C266 C272 1.265 . S
H267 C272 0.950 . S
H268 C276 0.949 . S
H269 C277 0.950 . S
H270 C278 0.951 . S
H271 C279 0.951 . S
C272 C266 1.265 . S
C272 H267 0.950 . S
C272 C273 1.478 . S
C273 C260 1.394 . S
C273 C272 1.478 . S
C273 C274 1.397 . S
C274 C273 1.397 . S
C274 C275 1.438 . S
C274 C279 1.429 . S
C275 C258 1.394 . S
C275 C274 1.438 . S
C275 C276 1.428 . S
C276 H268 0.949 . S
C276 C275 1.428 . S
C276 C277 1.345 . S
C277 H269 0.950 . S
C277 C276 1.345 . S
C277 C278 1.424 . S
C278 H270 0.951 . S
C278 C277 1.424 . S
C278 C279 1.347 . S
C279 H271 0.951 . S
C279 C274 1.429 . S
C279 C278 1.347 . S
H280 C281 0.950 1_556 S
C281 H280 0.950 1_554 S
C281 C287 1.264 . S
H282 C287 0.950 . S
H283 C291 0.968 . S
H284 C292 0.950 . S
H285 C293 0.951 . S
H286 C294 0.951 . S
C287 C281 1.264 . S
C287 H282 0.950 . S
C287 C288 1.478 . S
C288 C287 1.478 . S
C288 C289 1.397 1_554 S
C288 C305 1.413 . S
C289 C288 1.397 1_556 S
C289 C290 1.438 1_565 S
C289 C294 1.429 . S
C290 C289 1.438 1_545 S
C290 C291 1.424 . S
C290 C303 1.414 . S
C291 H283 0.968 . S
C291 C290 1.424 . S
C291 C292 1.330 1_545 S
C292 H284 0.950 . S
C292 C291 1.330 1_565 S
C292 C293 1.424 . S
C293 H285 0.951 . S
C293 C292 1.424 . S
C293 C294 1.347 . S
C294 H286 0.951 . S
C294 C289 1.429 . S
C294 C293 1.347 . S
H295 C296 0.950 1_554 S
C296 H295 0.950 1_556 S
C296 C302 1.264 . S
H297 C302 0.950 . S
H298 C306 0.960 . S
H299 C307 0.950 . S
H300 C308 0.951 . S
H301 C309 0.951 . S
C302 C296 1.264 . S
C302 H297 0.950 . S
C302 C303 1.481 . S
C303 C290 1.414 . S
C303 C302 1.481 . S
C303 C304 1.374 1_556 S
C304 C303 1.374 1_554 S
C304 C305 1.413 1_545 S
C304 C309 1.429 . S
C305 C288 1.413 . S
C305 C304 1.413 1_565 S
C305 C306 1.430 . S
C306 H298 0.960 . S
C306 C305 1.430 . S
C306 C307 1.336 1_565 S
C307 H299 0.950 . S
C307 C306 1.336 1_545 S
C307 C308 1.424 . S
C308 H300 0.951 . S
C308 C307 1.424 . S
C308 C309 1.347 . S
C309 H301 0.951 . S
C309 C304 1.429 . S
C309 C308 1.347 . S
H310 C311 0.951 . S
C311 H310 0.951 . S
C311 C317 1.265 1_545 S
H312 C317 0.950 . S
H313 C321 0.949 . S
H314 C322 0.950 . S
H315 C323 0.951 . S
H316 C324 0.951 . S
C317 C311 1.265 1_565 S
C317 H312 0.950 . S
C317 C318 1.478 . S
C318 C317 1.478 . S
C318 C319 1.397 . S
C318 C335 1.394 1_565 S
C319 C318 1.397 . S
C319 C320 1.438 . S
C319 C324 1.429 . S
C320 C319 1.438 . S
C320 C321 1.428 . S
C320 C333 1.394 1_565 S
C321 H313 0.949 . S
C321 C320 1.428 . S
C321 C322 1.345 . S
C322 H314 0.950 . S
C322 C321 1.345 . S
C322 C323 1.424 . S
C323 H315 0.951 . S
C323 C322 1.424 . S
C323 C324 1.347 . S
C324 H316 0.951 . S
C324 C319 1.429 . S
C324 C323 1.347 . S
H325 C326 0.951 . S
C326 H325 0.951 . S
C326 C332 1.265 1_565 S
H327 C332 0.950 . S
H328 C336 0.949 . S
H329 C337 0.950 . S
H330 C338 0.951 . S
H331 C339 0.951 . S
C332 C326 1.265 1_545 S
C332 H327 0.950 . S
C332 C333 1.478 . S
C333 C320 1.394 1_545 S
C333 C332 1.478 . S
C333 C334 1.397 . S
C334 C333 1.397 . S
C334 C335 1.438 . S
C334 C339 1.429 . S
C335 C318 1.394 1_545 S
C335 C334 1.438 . S
C335 C336 1.428 . S
C336 H328 0.949 . S
C336 C335 1.428 . S
C336 C337 1.345 . S
C337 H329 0.950 . S
C337 C336 1.345 . S
C337 C338 1.424 . S
C338 H330 0.951 . S
C338 C337 1.424 . S
C338 C339 1.347 . S
C339 H331 0.951 . S
C339 C334 1.429 . S
C339 C338 1.347 . S
H340 C341 0.951 . S
C341 H340 0.951 . S
C341 C347 1.265 1_554 S
H342 C347 0.950 . S
H343 C351 0.949 1_455 S
H344 C352 0.950 . S
H345 C353 0.951 . S
H346 C354 0.951 . S
C347 C341 1.265 1_556 S
C347 H342 0.950 . S
C347 C348 1.478 . S
C348 C347 1.478 . S
C348 C349 1.397 1_556 S
C348 C365 1.394 1_655 S
C349 C348 1.397 1_554 S
C349 C350 1.438 . S
C349 C354 1.429 . S
C350 C349 1.438 . S
C350 C351 1.428 . S
C350 C363 1.394 1_655 S
C351 H343 0.949 1_655 S
C351 C350 1.428 . S
C351 C352 1.345 . S
C352 H344 0.950 . S
C352 C351 1.345 . S
C352 C353 1.424 . S
C353 H345 0.951 . S
C353 C352 1.424 . S
C353 C354 1.347 . S
C354 H346 0.951 . S
C354 C349 1.429 . S
C354 C353 1.347 . S
H355 C356 0.951 . S
C356 H355 0.951 . S
C356 C362 1.265 1_556 S
H357 C362 0.950 . S
H358 C366 0.949 1_655 S
H359 C367 0.950 . S
H360 C368 0.951 . S
H361 C369 0.951 . S
C362 C356 1.265 1_554 S
C362 H357 0.950 . S
C362 C363 1.478 . S
C363 C350 1.394 1_455 S
C363 C362 1.478 . S
C363 C364 1.397 1_554 S
C364 C363 1.397 1_556 S
C364 C365 1.438 . S
C364 C369 1.429 . S
C365 C348 1.394 1_455 S
C365 C364 1.438 . S
C365 C366 1.428 . S
C366 H358 0.949 1_455 S
C366 C365 1.428 . S
C366 C367 1.345 . S
C367 H359 0.950 . S
C367 C366 1.345 . S
C367 C368 1.424 . S
C368 H360 0.951 . S
C368 C367 1.424 . S
C368 C369 1.347 . S
C369 H361 0.951 . S
C369 C364 1.429 . S
C369 C368 1.347 . S
H370 C371 0.951 . S
C371 H370 0.951 . S
C371 C377 1.265 . S
H372 C377 0.950 . S
H373 C381 0.949 . S
H374 C382 0.950 . S
H375 C383 0.951 1_455 S
H376 C384 0.951 . S
C377 C371 1.265 . S
C377 H372 0.950 . S
C377 C378 1.478 . S
C378 C377 1.478 . S
C378 C379 1.397 . S
C378 C395 1.394 . S
C379 C378 1.397 . S
C379 C380 1.438 1_455 S
C379 C384 1.429 . S
C380 C379 1.438 1_655 S
C380 C381 1.428 . S
C380 C393 1.394 . S
C381 H373 0.949 . S
C381 C380 1.428 . S
C381 C382 1.345 . S
C382 H374 0.950 . S
C382 C381 1.345 . S
C382 C383 1.424 . S
C383 H375 0.951 1_655 S
C383 C382 1.424 . S
C383 C384 1.347 1_655 S
C384 H376 0.951 . S
C384 C379 1.429 . S
C384 C383 1.347 1_455 S
H385 C386 0.951 . S
C386 H385 0.951 . S
C386 C392 1.265 . S
H387 C392 0.950 . S
H388 C396 0.949 . S
H389 C397 0.950 . S
H390 C398 0.951 1_655 S
H391 C399 0.951 . S
C392 C386 1.265 . S
C392 H387 0.950 . S
C392 C393 1.478 . S
C393 C380 1.394 . S
C393 C392 1.478 . S
C393 C394 1.397 . S
C394 C393 1.397 . S
C394 C395 1.438 1_655 S
C394 C399 1.429 . S
C395 C378 1.394 . S
C395 C394 1.438 1_455 S
C395 C396 1.428 . S
C396 H388 0.949 . S
C396 C395 1.428 . S
C396 C397 1.345 . S
C397 H389 0.950 . S
C397 C396 1.345 . S
C397 C398 1.424 . S
C398 H390 0.951 1_455 S
C398 C397 1.424 . S
C398 C399 1.347 1_455 S
C399 H391 0.951 . S
C399 C394 1.429 . S
C399 C398 1.347 1_655 S
H400 C401 0.951 . S
C401 H400 0.951 . S
C401 C407 1.265 1_645 S
H402 C407 0.950 . S
H403 C411 0.949 . S
H404 C412 0.950 . S
H405 C413 0.951 . S
H406 C414 0.951 . S
C407 C401 1.265 1_465 S
C407 H402 0.950 . S
C407 C408 1.478 . S
C408 C407 1.478 . S
C408 C409 1.397 . S
C408 C425 1.394 1_465 S
C409 C408 1.397 . S
C409 C410 1.438 . S
C409 C414 1.429 . S
C410 C409 1.438 . S
C410 C411 1.428 . S
C410 C423 1.394 1_465 S
C411 H403 0.949 . S
C411 C410 1.428 . S
C411 C412 1.345 . S
C412 H404 0.950 . S
C412 C411 1.345 . S
C412 C413 1.424 . S
C413 H405 0.951 . S
C413 C412 1.424 . S
C413 C414 1.347 . S
C414 H406 0.951 . S
C414 C409 1.429 . S
C414 C413 1.347 . S
H415 C416 0.950 1_565 S
C416 H415 0.950 1_545 S
C416 C422 1.265 1_455 S
H417 C422 0.950 . S
H418 C426 0.949 . S
H419 C427 0.950 . S
H420 C428 0.951 . S
H421 C429 0.951 . S
C422 C416 1.265 1_655 S
C422 H417 0.950 . S
C422 C423 1.478 . S
C423 C410 1.394 1_645 S
C423 C422 1.478 . S
C423 C424 1.397 . S
C424 C423 1.397 . S
C424 C425 1.438 . S
C424 C429 1.429 . S
C425 C408 1.394 1_645 S
C425 C424 1.438 . S
C425 C426 1.428 . S
C426 H418 0.949 . S
C426 C425 1.428 . S
C426 C427 1.345 . S
C427 H419 0.950 . S
C427 C426 1.345 . S
C427 C428 1.424 . S
C428 H420 0.951 . S
C428 C427 1.424 . S
C428 C429 1.347 . S
C429 H421 0.951 . S
C429 C424 1.429 . S
C429 C428 1.347 . S
H430 C431 0.955 . S
C431 H430 0.955 . S
C431 C437 1.263 1_645 S
H432 C437 0.950 . S
H433 C441 0.949 . S
H434 C442 0.950 . S
H435 C443 0.951 . S
H436 C444 0.951 . S
C437 C431 1.263 1_465 S
C437 H432 0.950 . S
C437 C438 1.478 . S
C438 C437 1.478 . S
C438 C439 1.397 . S
C438 C455 1.394 1_465 S
C439 C438 1.397 . S
C439 C440 1.438 . S
C439 C444 1.429 . S
C440 C439 1.438 . S
C440 C441 1.428 . S
C440 C453 1.394 1_465 S
C441 H433 0.949 . S
C441 C440 1.428 . S
C441 C442 1.345 . S
C442 H434 0.950 . S
C442 C441 1.345 . S
C442 C443 1.424 . S
C443 H435 0.951 . S
C443 C442 1.424 . S
C443 C444 1.347 . S
C444 H436 0.951 . S
C444 C439 1.429 . S
C444 C443 1.347 . S
H445 C446 0.951 . S
C446 H445 0.951 . S
C446 C452 1.265 1_465 S
H447 C452 0.950 . S
H448 C456 0.949 . S
H449 C457 0.950 . S
H450 C458 0.951 . S
H451 C459 0.951 . S
C452 C446 1.265 1_645 S
C452 H447 0.950 . S
C452 C453 1.478 . S
C453 C440 1.394 1_645 S
C453 C452 1.478 . S
C453 C454 1.397 . S
C454 C453 1.397 . S
C454 C455 1.438 . S
C454 C459 1.429 . S
C455 C438 1.394 1_645 S
C455 C454 1.438 . S
C455 C456 1.428 . S
C456 H448 0.949 . S
C456 C455 1.428 . S
C456 C457 1.345 . S
C457 H449 0.950 . S
C457 C456 1.345 . S
C457 C458 1.424 . S
C458 H450 0.951 . S
C458 C457 1.424 . S
C458 C459 1.347 . S
C459 H451 0.951 . S
C459 C454 1.429 . S
C459 C458 1.347 . S
H460 C461 0.951 . S
C461 H460 0.951 . S
C461 C467 1.265 . S
H462 C467 0.950 . S
H463 C471 0.949 . S
H464 C472 0.950 . S
H465 C473 0.951 . S
H466 C474 0.951 . S
C467 C461 1.265 . S
C467 H462 0.950 . S
C467 C468 1.478 . S
C468 C467 1.478 . S
C468 C469 1.397 . S
C468 C485 1.394 . S
C469 C468 1.397 . S
C469 C470 1.438 . S
C469 C474 1.429 . S
C470 C469 1.438 . S
C470 C471 1.428 . S
C470 C483 1.394 . S
C471 H463 0.949 . S
C471 C470 1.428 . S
C471 C472 1.345 . S
C472 H464 0.950 . S
C472 C471 1.345 . S
C472 C473 1.424 . S
C473 H465 0.951 . S
C473 C472 1.424 . S
C473 C474 1.347 . S
C474 H466 0.951 . S
C474 C469 1.429 . S
C474 C473 1.347 . S
H475 C476 0.951 . S
C476 H475 0.951 . S
C476 C482 1.265 . S
H477 C482 0.950 . S
H478 C486 0.949 . S
H479 C487 0.950 . S
H480 C488 0.951 . S
H481 C489 0.951 . S
C482 C476 1.265 . S
C482 H477 0.950 . S
C482 C483 1.478 . S
C483 C470 1.394 . S
C483 C482 1.478 . S
C483 C484 1.397 . S
C484 C483 1.397 . S
C484 C485 1.438 . S
C484 C489 1.429 . S
C485 C468 1.394 . S
C485 C484 1.438 . S
C485 C486 1.428 . S
C486 H478 0.949 . S
C486 C485 1.428 . S
C486 C487 1.345 . S
C487 H479 0.950 . S
C487 C486 1.345 . S
C487 C488 1.424 . S
C488 H480 0.951 . S
C488 C487 1.424 . S
C488 C489 1.347 . S
C489 H481 0.951 . S
C489 C484 1.429 . S
C489 C488 1.347 . S
H490 C491 0.951 . S
C491 H490 0.951 . S
C491 C497 1.265 . S
H492 C497 0.950 . S
H493 C501 0.949 . S
H494 C502 0.950 . S
H495 C503 0.951 . S
H496 C504 0.951 . S
C497 C491 1.265 . S
C497 H492 0.950 . S
C497 C498 1.478 . S
C498 C497 1.478 . S
C498 C499 1.397 . S
C498 C515 1.394 . S
C499 C498 1.397 . S
C499 C500 1.438 . S
C499 C504 1.429 . S
C500 C499 1.438 . S
C500 C501 1.428 . S
C500 C513 1.394 . S
C501 H493 0.949 . S
C501 C500 1.428 . S
C501 C502 1.345 . S
C502 H494 0.950 . S
C502 C501 1.345 . S
C502 C503 1.424 . S
C503 H495 0.951 . S
C503 C502 1.424 . S
C503 C504 1.347 . S
C504 H496 0.951 . S
C504 C499 1.429 . S
C504 C503 1.347 . S
H505 C506 0.951 . S
C506 H505 0.951 . S
C506 C512 1.265 . S
H507 C512 0.950 . S
H508 C516 0.949 . S
H509 C517 0.950 . S
H510 C518 0.951 . S
H511 C519 0.951 . S
C512 C506 1.265 . S
C512 H507 0.950 . S
C512 C513 1.478 . S
C513 C500 1.394 . S
C513 C512 1.478 . S
C513 C514 1.397 . S
C514 C513 1.397 . S
C514 C515 1.438 . S
C514 C519 1.429 . S
C515 C498 1.394 . S
C515 C514 1.438 . S
C515 C516 1.428 . S
C516 H508 0.949 . S
C516 C515 1.428 . S
C516 C517 1.345 . S
C517 H509 0.950 . S
C517 C516 1.345 . S
C517 C518 1.424 . S
C518 H510 0.951 . S
C518 C517 1.424 . S
C518 C519 1.347 . S
C519 H511 0.951 . S
C519 C514 1.429 . S
C519 C518 1.347 . S
C161 C90 3.541 1_554 S
C176 C19 3.541 1_556 S
C191 C99 3.543 1_556 S
C206 C10 3.543 1_554 S
C221 C55 0.266 . S
C236 C126 0.266 . S
C251 C46 0.143 . S
C266 C135 0.144 . S
C281 C15 0.842 . S
C296 C6 0.842 . S
C311 C59 4.860 1_545 S
C326 C50 4.860 1_565 S
C341 C95 1.027 . S
C356 C86 1.027 . S
C371 C130 4.861 . S
C386 C139 4.861 . S
C401 C49 1.452 1_645 S
C416 C18 1.413 . S
C431 C9 1.414 1_545 S
C446 C58 1.461 1_465 S
C461 C129 1.435 . S
C476 C98 1.478 . S
C491 C138 1.477 . S
C506 C89 1.438 . S
