# Generated by pormake.
# Topology rkf, (6)-cn, num edge types: 1
# Building blocks:
#     Node 0, Type 0, BuildingBlock: MIFKUJ_clean_sbu_0, # of connection points: 6
#     Node 1, Type 0, BuildingBlock: MIFKUJ_clean_sbu_0, # of connection points: 6
#     Node 2, Type 0, BuildingBlock: MIFKUJ_clean_sbu_0, # of connection points: 6
#     Node 3, Type 0, BuildingBlock: MIFKUJ_clean_sbu_0, # of connection points: 6
#     Node 4, Type 0, BuildingBlock: MIFKUJ_clean_sbu_0, # of connection points: 6
#     Node 5, Type 0, BuildingBlock: MIFKUJ_clean_sbu_0, # of connection points: 6
#     Edge 6, Type (0, 0), BuildingBlock: MIFKUJ_clean_linker_0, # of connection points: 2
#     Edge 7, Type (0, 0), BuildingBlock: MIFKUJ_clean_linker_0, # of connection points: 2
#     Edge 8, Type (0, 0), BuildingBlock: MIFKUJ_clean_linker_0, # of connection points: 2
#     Edge 9, Type (0, 0), BuildingBlock: MIFKUJ_clean_linker_0, # of connection points: 2
#     Edge 10, Type (0, 0), BuildingBlock: MIFKUJ_clean_linker_0, # of connection points: 2
#     Edge 11, Type (0, 0), BuildingBlock: MIFKUJ_clean_linker_0, # of connection points: 2
#     Edge 12, Type (0, 0), BuildingBlock: MIFKUJ_clean_linker_0, # of connection points: 2
#     Edge 13, Type (0, 0), BuildingBlock: MIFKUJ_clean_linker_0, # of connection points: 2
#     Edge 14, Type (0, 0), BuildingBlock: MIFKUJ_clean_linker_0, # of connection points: 2
#     Edge 15, Type (0, 0), BuildingBlock: MIFKUJ_clean_linker_0, # of connection points: 2
#     Edge 16, Type (0, 0), BuildingBlock: MIFKUJ_clean_linker_0, # of connection points: 2
#     Edge 17, Type (0, 0), BuildingBlock: MIFKUJ_clean_linker_0, # of connection points: 2
#     Edge 18, Type (0, 0), BuildingBlock: MIFKUJ_clean_linker_0, # of connection points: 2
#     Edge 19, Type (0, 0), BuildingBlock: MIFKUJ_clean_linker_0, # of connection points: 2
#     Edge 20, Type (0, 0), BuildingBlock: MIFKUJ_clean_linker_0, # of connection points: 2
#     Edge 21, Type (0, 0), BuildingBlock: MIFKUJ_clean_linker_0, # of connection points: 2
#     Edge 22, Type (0, 0), BuildingBlock: MIFKUJ_clean_linker_0, # of connection points: 2
#     Edge 23, Type (0, 0), BuildingBlock: MIFKUJ_clean_linker_0, # of connection points: 2
# Relax obj value: 0.357
# Max RMSD: 0.298
# Mean RMSD: 0.298
data_MOF--net-rkf--node1-MIFKUJ_clean_sbu_0--edge1-MIFKUJ_clean_linker_0
_symmetry_space_group_name_H-M    P1
_symmetry_Int_Tables_number       1
_symmetry_cell_setting            triclinic
loop_
_symmetry_equiv_pos_as_xyz
'x, y, z'
_cell_length_a     29.656598
_cell_length_b     29.612028
_cell_length_c     58.124152
_cell_angle_alpha  90.01016
_cell_angle_beta   90.112614
_cell_angle_gamma 120.20781
loop_
_atom_site_label
_atom_site_type_symbol
_atom_site_fract_x
_atom_site_fract_y
_atom_site_fract_z
_atom_type_partial_charge
Zn0 Zn 0.27767 0.05938 0.96188 0.0
Zn1 Zn 0.29611 0.01748 0.02545 0.0
C2 C 0.19995 0.97947 0.94175 0.0
O3 O 0.24058 0.00156 0.92802 0.0
C4 C 0.40779 0.0841 0.04359 0.0
O5 O 0.45714 0.09846 0.04066 0.0
O6 O 0.28654 0.10677 0.935 0.0
O7 O 0.30659 0.0917 0.99285 0.0
O8 O 0.27668 0.07385 0.02773 0.0
C9 C 0.31259 0.15365 0.92792 0.0
O10 O 0.3497 0.18968 0.94081 0.0
O11 O 0.20214 0.00081 0.96103 0.0
C12 C 0.26432 0.93796 0.0624 0.0
O13 O 0.31387 0.95156 0.06303 0.0
O14 O 0.24899 0.95872 0.04746 0.0
O15 O 0.27852 0.99487 0.99193 0.0
O16 O 0.31605 0.02042 0.95839 0.0
O17 O 0.37415 0.04915 0.03029 0.0
C18 C 0.27869 0.09483 0.00837 0.0
C19 C 0.31186 0.99747 0.97746 0.0
Zn20 Zn 0.27179 0.15053 0.38753 0.0
Zn21 Zn 0.2663 0.16354 0.31372 0.0
C22 C 0.21015 0.19358 0.40463 0.0
O23 O 0.2421 0.23484 0.39253 0.0
C24 C 0.28534 0.13916 0.27136 0.0
O25 O 0.23731 0.10302 0.27639 0.0
O26 O 0.29273 0.11946 0.41361 0.0
O27 O 0.26253 0.11088 0.35872 0.0
O28 O 0.22895 0.08909 0.32485 0.0
C29 C 0.26163 0.0705 0.41572 0.0
O30 O 0.22656 0.04594 0.39957 0.0
O31 O 0.20994 0.15094 0.4015 0.0
C32 C 0.21895 0.21432 0.28762 0.0
O33 O 0.26562 0.25606 0.28834 0.0
O34 O 0.21011 0.1739 0.2989 0.0
O35 O 0.30542 0.21165 0.34111 0.0
O36 O 0.32359 0.22397 0.37853 0.0
O37 O 0.31256 0.17207 0.28684 0.0
C38 C 0.22214 0.08956 0.34628 0.0
C39 C 0.32981 0.2417 0.35802 0.0
Zn40 Zn 0.92172 0.14988 0.63404 0.0
Zn41 Zn 0.96631 0.15774 0.70168 0.0
C42 C 0.02172 0.23257 0.61786 0.0
O43 O -0.00072 0.26097 0.61969 0.0
C44 C 0.91345 0.12564 0.74164 0.0
O45 O 0.92831 0.09179 0.73665 0.0
O46 O 0.87756 0.11675 0.60532 0.0
O47 O 0.90422 0.09727 0.65952 0.0
O48 O 0.9388 0.08389 0.6897 0.0
C49 C 0.89979 0.10358 0.59014 0.0
O50 O 0.94616 0.11019 0.59453 0.0
O51 O -0.00285 0.18526 0.6245 0.0
C52 C 0.05832 0.217 0.73103 0.0
O53 O 0.04019 0.24903 0.73366 0.0
O54 O 0.0362 0.17944 0.71674 0.0
O55 O 0.96494 0.1939 0.67265 0.0
O56 O 0.91381 0.20604 0.6497 0.0
O57 O 0.92194 0.16081 0.72702 0.0
C58 C 0.93494 0.08345 0.66789 0.0
C59 C 0.93783 0.21522 0.66886 0.0
Zn60 Zn 0.82441 0.05378 0.05612 0.0
Zn61 Zn 0.86498 0.98813 0.00258 0.0
C62 C 0.72884 0.96932 0.07197 0.0
O63 O 0.73795 0.94228 0.05664 0.0
C64 C 0.9247 0.08698 0.97774 0.0
O65 O 0.9088 0.1073 0.99358 0.0
O66 O 0.872 0.10497 0.08041 0.0
O67 O 0.84625 0.00223 0.04931 0.0
O68 O 0.90195 0.98784 0.03211 0.0
C69 C 0.8775 0.08072 0.09726 0.0
O70 O 0.85091 0.02938 0.09732 0.0
O71 O 0.75357 0.0187 0.0703 0.0
C72 C 0.81043 0.91854 0.96668 0.0
O73 O 0.79328 0.95161 0.96526 0.0
O74 O 0.83938 0.92229 0.98366 0.0
O75 O 0.80571 0.00473 0.00563 0.0
O76 O 0.82344 0.07805 0.02408 0.0
O77 O 0.91543 0.04048 0.98016 0.0
C78 C 0.89254 0.01076 0.04817 0.0
C79 C 0.79431 0.0397 0.01106 0.0
Zn80 Zn 0.89029 0.75286 0.29893 0.0
Zn81 Zn 0.87073 0.76726 0.37119 0.0
C82 C 0.85064 0.78449 0.26503 0.0
O83 O 0.8383 0.73622 0.26025 0.0
C84 C 0.90168 0.74426 0.41232 0.0
O85 O 0.93914 0.79252 0.40864 0.0
O86 O 0.92664 0.73498 0.27419 0.0
O87 O 0.93274 0.77674 0.32829 0.0
O88 O 0.94568 0.81484 0.36153 0.0
C89 C 0.97499 0.76635 0.27103 0.0
O90 O 0.00076 0.80392 0.28606 0.0
O91 O 0.87497 0.80494 0.28368 0.0
C92 C 0.80536 0.79572 0.39765 0.0
O93 O 0.77948 0.74554 0.40237 0.0
O94 O 0.84282 0.81289 0.38333 0.0
O95 O 0.83945 0.72692 0.34208 0.0
O96 O 0.82035 0.69074 0.30814 0.0
O97 O 0.86625 0.72144 0.39727 0.0
C98 C 0.94764 0.8184 0.33972 0.0
C99 C 0.80752 0.69066 0.32905 0.0
Zn100 Zn 0.00685 0.78673 0.71911 0.0
Zn101 Zn 0.0092 0.72158 0.65562 0.0
C102 C 0.11235 0.87964 0.72422 0.0
O103 O 0.15753 0.91396 0.71544 0.0
C104 C 0.93235 0.60938 0.6433 0.0
O105 O 0.90706 0.55966 0.64886 0.0
O106 O 0.96543 0.78364 0.74749 0.0
O107 O 0.95824 0.75547 0.6915 0.0
O108 O 0.9592 0.74946 0.65433 0.0
C109 C 0.9358 0.80304 0.74856 0.0
O110 O 0.9332 0.8296 0.73105 0.0
O111 O 0.07336 0.85431 0.71099 0.0
C112 C 0.10071 0.76101 0.62057 0.0
O113 O 0.11872 0.73167 0.6286 0.0
O114 O 0.05995 0.75802 0.62922 0.0
O115 O 0.04333 0.75007 0.68653 0.0
O116 O 0.03263 0.73657 0.72342 0.0
O117 O 0.968 0.6419 0.65664 0.0
C118 C 0.96545 0.77744 0.672 0.0
C119 C 0.04197 0.72361 0.70393 0.0
H120 H 0.98167 0.02985 0.06993 0.0
H121 H 0.06558 0.10621 0.06106 0.0
H122 H 0.98839 0.18314 0.03236 0.0
H123 H 0.90589 0.10735 0.03995 0.0
H124 H -0.00414 0.08488 0.00916 0.0
H125 H 0.14141 0.29608 0.00818 0.0
H126 H 0.18512 0.37333 0.0336 0.0
H127 H 0.18438 0.27653 0.08882 0.0
H128 H 0.14105 0.19901 0.06364 0.0
H129 H 0.28146 0.16157 0.97592 0.0
H130 H 0.21102 0.17851 0.96562 0.0
H131 H 0.1105 0.06124 0.01468 0.0
H132 H 0.17984 0.04438 0.02459 0.0
H133 H 0.18185 0.21818 1.00023 0.0
H134 H -0.00299 0.00719 0.00636 0.0
H135 H 0.95726 0.9248 0.98472 0.0
H136 H 0.04154 0.00626 0.9244 0.0
H137 H 0.08118 0.09014 0.94534 0.0
C138 C 0.98258 0.06435 0.06311 0.0
C139 C 0.93682 0.06173 0.05497 0.0
C140 C 0.03074 0.10881 0.05853 0.0
C141 C 0.03244 0.14822 0.04436 0.0
C142 C 0.98761 0.15195 0.04243 0.0
C143 C 0.93966 0.10751 0.04649 0.0
C144 C 0.06041 0.15553 0.02264 0.0
C145 C 0.03636 0.11437 0.00671 0.0
C146 C 0.11168 0.19594 0.01889 0.0
C147 C 0.13731 0.24186 0.0342 0.0
C148 C 0.1505 0.29141 0.02578 0.0
C149 C 0.17524 0.3352 0.04012 0.0
C150 C 0.18727 0.32981 0.06285 0.0
C151 C 0.17474 0.28063 0.07126 0.0
C152 C 0.14993 0.23674 0.05699 0.0
C153 C 0.24365 0.13867 0.98391 0.0
C154 C 0.23599 0.10271 0.00136 0.0
C155 C 0.20347 0.1478 0.97779 0.0
C156 C 0.15529 0.12056 0.989 0.0
C157 C 0.14681 0.08181 0.00524 0.0
C158 C 0.18691 0.07317 0.01146 0.0
C159 C 0.11995 0.1417 0.98976 0.0
C160 C 0.14048 0.18989 0.00137 0.0
C161 C 0.06571 0.10615 0.99029 0.0
C162 C 0.04167 0.05561 0.97742 0.0
C163 C 0.00658 0.00812 0.98834 0.0
C164 C 0.98415 0.96097 0.97619 0.0
C165 C -0.00333 0.96043 0.95311 0.0
C166 C 0.03178 0.00702 0.94219 0.0
C167 C 0.05429 0.05442 0.9542 0.0
H168 H 0.97941 0.92388 0.94372 0.0
H169 H 0.20646 0.36376 0.07392 0.0
H170 H 0.8591 0.82495 0.33842 0.0
H171 H 0.85819 0.90727 0.33662 0.0
H172 H 0.02243 0.98779 0.31982 0.0
H173 H 0.02251 0.90655 0.32121 0.0
H174 H 0.91192 0.97784 0.36811 0.0
H175 H 0.07169 0.08665 0.29702 0.0
H176 H 0.07969 0.05963 0.25825 0.0
H177 H 0.91329 0.97112 0.25168 0.0
H178 H 0.90335 -0.00092 0.29018 0.0
H179 H 0.13244 0.00921 0.36113 0.0
H180 H 0.05039 0.00688 0.36579 0.0
H181 H 0.12618 0.17296 0.35272 0.0
H182 H 0.20851 0.1742 0.34681 0.0
H183 H 0.04976 0.12575 0.32479 0.0
H184 H 0.0423 0.11958 0.40376 0.0
H185 H 0.06919 0.10345 0.44144 0.0
H186 H 0.98246 0.93828 0.4294 0.0
H187 H 0.95845 0.95302 0.39109 0.0
C188 C 0.89411 0.86017 0.33319 0.0
C189 C 0.94107 0.86013 0.33001 0.0
C190 C 0.89347 0.90703 0.33207 0.0
C191 C 0.93985 0.95404 0.32774 0.0
C192 C 0.98536 0.95235 0.3223 0.0
C193 C 0.9858 0.90577 0.32329 0.0
C194 C 0.94595 0.00508 0.33475 0.0
C195 C 0.94243 0.0103 0.3586 0.0
C196 C 0.98057 0.05022 0.32199 0.0
C197 C 0.98654 0.04556 0.29675 0.0
C198 C 0.03643 0.06358 0.2871 0.0
C199 C 0.04142 0.04755 0.26513 0.0
C200 C -0.00293 0.01362 0.25255 0.0
C201 C 0.94757 0.99741 0.26147 0.0
C202 C 0.94218 0.01382 0.28327 0.0
C203 C 0.13181 0.04543 0.36006 0.0
C204 C 0.17634 0.09173 0.35376 0.0
C205 C 0.08499 0.04457 0.36318 0.0
C206 C 0.08191 0.09034 0.36044 0.0
C207 C 0.12756 0.13749 0.35542 0.0
C208 C 0.17445 0.13806 0.35189 0.0
C209 C 0.02968 0.08476 0.35702 0.0
C210 C 0.01952 0.09307 0.33427 0.0
C211 C 0.98745 0.04734 0.37038 0.0
C212 C -0.00353 0.03752 0.39467 0.0
C213 C 0.02828 0.07971 0.40922 0.0
C214 C 0.04407 0.07084 0.43056 0.0
C215 C 0.02721 0.02002 0.43798 0.0
C216 C -0.00507 0.97773 0.4239 0.0
C217 C 0.98012 0.98633 0.40228 0.0
H218 H 0.03945 0.01359 0.45459 0.0
H219 H 0.00112 -0.00048 0.23597 0.0
H220 H 0.06431 0.82139 0.65508 0.0
H221 H 0.12855 0.91376 0.65141 0.0
H222 H 0.02019 0.95172 0.68317 0.0
H223 H 0.95628 0.85886 0.68689 0.0
H224 H 0.1153 0.97447 0.62509 0.0
H225 H 0.0588 0.04837 0.706 0.0
H226 H 0.05656 0.03805 0.74814 0.0
H227 H 0.17874 0.00081 0.74433 0.0
H228 H 0.18157 0.01077 0.702 0.0
H229 H 0.94043 0.02579 0.6334 0.0
H230 H 0.01855 0.02692 0.6207 0.0
H231 H 0.11324 0.17077 0.6582 0.0
H232 H 0.03423 0.16631 0.67255 0.0
H233 H 0.12826 0.11086 0.67808 0.0
H234 H 0.1665 0.13628 0.6013 0.0
H235 H 0.16451 0.14299 0.559 0.0
H236 H 0.05777 0.97803 0.55406 0.0
H237 H 0.05886 0.96999 0.59609 0.0
C238 C 0.05422 0.84936 0.66111 0.0
C239 C 0.00499 0.83312 0.67071 0.0
C240 C 0.09151 0.90222 0.6596 0.0
C241 C 0.07998 0.93988 0.66754 0.0
C242 C 0.03114 0.92353 0.67781 0.0
C243 C 0.99411 0.87052 0.67954 0.0
C244 C 0.11232 0.99496 0.66037 0.0
C245 C 0.11792 0.00451 0.63659 0.0
C246 C 0.12187 0.03618 0.67544 0.0
C247 C 0.12024 0.02994 0.70084 0.0
C248 C 0.08531 0.03808 0.71414 0.0
C249 C 0.08378 0.03213 0.73804 0.0
C250 C 0.11735 0.01856 0.74889 0.0
C251 C 0.15255 0.011 0.73585 0.0
C252 C 0.1539 0.01644 0.71189 0.0
C253 C 0.97807 0.0584 0.63832 0.0
C254 C 0.98149 0.09455 0.65467 0.0
C255 C 0.02336 0.05996 0.63062 0.0
C256 C 0.07273 0.09808 0.63913 0.0
C257 C 0.07589 0.13984 0.65199 0.0
C258 C 0.03059 0.13699 0.66046 0.0
C259 C 0.11278 0.08253 0.64291 0.0
C260 C 0.1258 0.08154 0.66617 0.0
C261 C 0.11694 0.04788 0.62743 0.0
C262 C 0.11346 0.05256 0.60204 0.0
C263 C 0.14235 0.10144 0.59124 0.0
C264 C 0.14142 0.10544 0.56727 0.0
C265 C 0.11113 0.06099 0.55389 0.0
C266 C 0.08146 0.01242 0.56443 0.0
C267 C 0.08255 0.00808 0.58834 0.0
H268 H 0.11077 0.06415 0.53536 0.0
H269 H 0.11618 0.01401 0.7674 0.0
H270 H 0.24356 0.08582 0.89665 0.0
H271 H 0.21204 0.10531 0.86171 0.0
H272 H 0.31559 0.27024 0.8728 0.0
H273 H 0.3464 0.25092 0.90875 0.0
H274 H 0.22164 0.25197 0.86088 0.0
H275 H 0.33579 0.1935 0.82949 0.0
H276 H 0.36731 0.13085 0.82644 0.0
H277 H 0.21472 0.01037 0.80531 0.0
H278 H 0.1822 0.07209 0.80841 0.0
H279 H 0.13584 0.30093 0.75418 0.0
H280 H 0.19156 0.2995 0.78504 0.0
H281 H 0.11666 0.13163 0.77859 0.0
H282 H 0.06435 0.13373 0.74675 0.0
H283 H 0.20799 0.16154 0.78718 0.0
H284 H 0.08839 0.20707 0.82134 0.0
H285 H 0.04663 0.2601 0.82706 0.0
H286 H 0.19357 0.3915 0.84708 0.0
H287 H 0.2368 0.33992 0.84067 0.0
C288 C 0.26001 0.12638 0.89174 0.0
C289 C 0.29747 0.16683 0.90563 0.0
C290 C 0.24212 0.13745 0.87153 0.0
C291 C 0.26187 0.18919 0.8643 0.0
C292 C 0.29986 0.22991 0.87794 0.0
C293 C 0.31765 0.21884 0.89842 0.0
C294 C 0.24076 0.20012 0.84303 0.0
C295 C 0.21962 0.23313 0.84458 0.0
C296 C 0.23627 0.17395 0.82199 0.0
C297 C 0.2566 0.13752 0.81918 0.0
C298 C 0.30901 0.15369 0.82416 0.0
C299 C 0.32702 0.1183 0.82245 0.0
C300 C 0.29305 0.06669 0.81569 0.0
C301 C 0.24104 0.05039 0.8105 0.0
C302 C 0.22285 0.08561 0.81215 0.0
C303 C 0.13211 0.26395 0.75915 0.0
C304 C 0.09593 0.21751 0.74799 0.0
C305 C 0.1635 0.263 0.77701 0.0
C306 C 0.1577 0.21529 0.78475 0.0
C307 C 0.1223 0.1691 0.77312 0.0
C308 C 0.09228 0.17028 0.75482 0.0
C309 C 0.18757 0.21263 0.80501 0.0
C310 C 0.21051 0.18117 0.80329 0.0
C311 C 0.19212 0.23888 0.82612 0.0
C312 C 0.16603 0.26984 0.83012 0.0
C313 C 0.11195 0.24743 0.82673 0.0
C314 C 0.088 0.27724 0.83009 0.0
C315 C 0.1174 0.32915 0.83734 0.0
C316 C 0.17088 0.35136 0.84133 0.0
C317 C 0.19518 0.32192 0.83775 0.0
H318 H 0.09869 0.35207 0.83998 0.0
H319 H 0.30704 0.03934 0.81446 0.0
H320 H 0.17906 0.13975 0.25471 0.0
H321 H 0.12578 0.13428 0.22145 0.0
H322 H 0.12332 0.27103 0.24513 0.0
H323 H 0.17897 0.27796 0.27812 0.0
H324 H 0.02194 0.18177 0.22973 0.0
H325 H 0.19359 0.29252 0.20703 0.0
H326 H 0.28702 0.32974 0.19907 0.0
H327 H 0.25139 0.21012 0.14891 0.0
H328 H 0.15799 0.16915 0.15794 0.0
H329 H 0.90916 0.17642 0.11689 0.0
H330 H 0.97243 0.21728 0.14864 0.0
H331 H 0.00157 0.08851 0.14769 0.0
H332 H 0.93751 0.04695 0.11694 0.0
H333 H 0.09344 0.19539 0.15134 0.0
H334 H 0.91334 0.08865 0.17718 0.0
H335 H 0.82367 0.06825 0.18403 0.0
H336 H 0.87952 0.20614 0.22557 0.0
H337 H 0.97026 0.22822 0.21863 0.0
C338 C 0.16672 0.16835 0.25295 0.0
C339 C 0.18261 0.20902 0.26904 0.0
C340 C 0.13659 0.16537 0.23389 0.0
C341 C 0.12082 0.20238 0.23078 0.0
C342 C 0.13515 0.24213 0.24724 0.0
C343 C 0.16679 0.24606 0.26602 0.0
C344 C 0.09026 0.1995 0.21001 0.0
C345 C 0.03775 0.18573 0.21256 0.0
C346 C 0.11143 0.20545 0.18764 0.0
C347 C 0.16829 0.22692 0.18362 0.0
C348 C 0.20555 0.27275 0.19495 0.0
C349 C 0.25871 0.29456 0.19024 0.0
C350 C 0.27525 0.27173 0.17378 0.0
C351 C 0.23865 0.22693 0.16208 0.0
C352 C 0.18555 0.20416 0.16713 0.0
C353 C 0.92948 0.15728 0.12344 0.0
C354 C 0.91808 0.10831 0.11483 0.0
C355 C 0.96554 0.18059 0.14145 0.0
C356 C 0.99124 0.1556 0.15053 0.0
C357 C 0.98192 0.10821 0.14096 0.0
C358 C 0.94508 0.08437 0.12354 0.0
C359 C 0.02497 0.17571 0.17112 0.0
C360 C 0.07806 0.19239 0.16855 0.0
C361 C 0.00464 0.17423 0.19334 0.0
C362 C 0.94939 0.16058 0.19715 0.0
C363 C 0.90711 0.11535 0.18749 0.0
C364 C 0.85577 0.10324 0.19148 0.0
C365 C 0.84584 0.13595 0.20518 0.0
C366 C 0.88727 0.18081 0.21493 0.0
C367 C 0.93872 0.19308 0.211 0.0
H368 H 0.80605 0.12648 0.20828 0.0
H369 H 0.31636 0.28907 0.1699 0.0
H370 H 0.79532 0.04277 0.57987 0.0
H371 H 0.75765 0.99523 0.54364 0.0
H372 H 0.9115 0.06669 0.514 0.0
H373 H 0.94918 0.11281 0.54994 0.0
H374 H 0.83313 0.05676 0.48257 0.0
H375 H 0.86508 0.95158 0.53947 0.0
H376 H 0.84984 0.90751 0.57707 0.0
H377 H 0.68512 0.82096 0.56341 0.0
H378 H 0.69947 0.86494 0.52582 0.0
H379 H 0.8727 0.89983 0.40387 0.0
H380 H 0.86883 0.95646 0.43325 0.0
H381 H 0.71646 0.8322 0.45362 0.0
H382 H 0.72201 0.7745 0.42508 0.0
H383 H 0.76934 0.86723 0.48924 0.0
H384 H 0.7441 0.95056 0.42585 0.0
H385 H 0.76006 0.9923 0.38778 0.0
H386 H 0.90486 0.12076 0.41197 0.0
H387 H 0.88953 0.0798 0.45014 0.0
C388 C 0.82081 0.04892 0.56543 0.0
C389 C 0.87514 0.08088 0.56776 0.0
C390 C 0.79933 0.02181 0.5448 0.0
C391 C 0.83194 0.02718 0.52619 0.0
C392 C 0.88572 0.06189 0.5281 0.0
C393 C 0.90718 0.088 0.54872 0.0
C394 C 0.81202 0.99268 0.50568 0.0
C395 C 0.81901 0.01521 0.48379 0.0
C396 C 0.79165 0.93827 0.50751 0.0
C397 C 0.78325 0.91194 0.53004 0.0
C398 C 0.82561 0.92342 0.54459 0.0
C399 C 0.81715 0.89841 0.56586 0.0
C400 C 0.76653 0.86159 0.57266 0.0
C401 C 0.72429 0.84957 0.55816 0.0
C402 C 0.73256 0.87449 0.53687 0.0
C403 C 0.83804 0.88494 0.41432 0.0
C404 C 0.79796 0.83262 0.41224 0.0
C405 C 0.83557 0.91753 0.43107 0.0
C406 C 0.79203 0.89904 0.44566 0.0
C407 C 0.75056 0.84755 0.44268 0.0
C408 C 0.75365 0.81459 0.42627 0.0
C409 C 0.79255 0.93126 0.46556 0.0
C410 C 0.78195 0.90833 0.48751 0.0
C411 C 0.80895 0.98519 0.46359 0.0
C412 C 0.81661 0.01119 0.44081 0.0
C413 C 0.77966 0.98742 0.42304 0.0
C414 C 0.78841 0.01108 0.40142 0.0
C415 C 0.8337 0.05889 0.39737 0.0
C416 C 0.86997 0.0835 0.41503 0.0
C417 C 0.86126 0.06004 0.43667 0.0
H418 H 0.84051 0.07703 0.3806 0.0
H419 H 0.76004 0.84228 0.58913 0.0
H420 H 0.7424 0.89273 0.93085 0.0
H421 H 0.74576 0.85543 0.89386 0.0
H422 H 0.87364 0.83829 0.91865 0.0
H423 H 0.86942 0.87416 0.95585 0.0
H424 H 0.8172 0.89497 0.86403 0.0
H425 H 0.88422 0.74791 0.89302 0.0
H426 H 0.86021 0.68016 0.9228 0.0
H427 H 0.70793 0.66292 0.9282 0.0
H428 H 0.73096 0.73036 0.89845 0.0
H429 H 0.96372 0.88787 0.77482 0.0
H430 H 0.93285 0.891 0.81326 0.0
H431 H 0.82072 0.72587 0.80957 0.0
H432 H 0.85807 0.72151 0.77236 0.0
H433 H 0.84729 0.74631 0.8514 0.0
H434 H 0.77742 0.82265 0.80076 0.0
H435 H 0.79126 0.87457 0.76557 0.0
H436 H 0.91723 0.00872 0.79857 0.0
H437 H 0.9022 0.95831 0.83428 0.0
C438 C 0.77033 0.8797 0.92862 0.0
C439 C 0.80569 0.88644 0.94629 0.0
C440 C 0.77236 0.8586 0.9074 0.0
C441 C 0.80988 0.8439 0.90336 0.0
C442 C 0.84361 0.84831 0.92139 0.0
C443 C 0.84126 0.86896 0.94271 0.0
C444 C 0.81749 0.82904 0.87982 0.0
C445 C 0.82302 0.862 0.86134 0.0
C446 C 0.82331 0.78507 0.87579 0.0
C447 C 0.80948 0.7444 0.89362 0.0
C448 C 0.84557 0.72951 0.90051 0.0
C449 C 0.83216 0.69125 0.91742 0.0
C450 C 0.78262 0.66733 0.92742 0.0
C451 C 0.74636 0.68161 0.92052 0.0
C452 C 0.75964 0.71996 0.9037 0.0
C453 C 0.93272 0.85224 0.78233 0.0
C454 C 0.91304 0.80456 0.77077 0.0
C455 C 0.91447 0.85409 0.80417 0.0
C456 C 0.87255 0.80919 0.81402 0.0
C457 C 0.85269 0.76122 0.80237 0.0
C458 C 0.87352 0.7588 0.78104 0.0
C459 C 0.84911 0.81349 0.83606 0.0
C460 C 0.84046 0.7786 0.85414 0.0
C461 C 0.83698 0.85359 0.83944 0.0
C462 C 0.83872 0.88682 0.82009 0.0
C463 C 0.80697 0.8637 0.80068 0.0
C464 C 0.815 0.89282 0.78066 0.0
C465 C 0.85497 0.94491 0.77983 0.0
C466 C 0.88568 0.96861 0.79932 0.0
C467 C 0.87692 0.94003 0.81959 0.0
H468 H 0.86238 0.96656 0.76396 0.0
H469 H 0.77231 0.63769 0.94048 0.0
H470 H 0.07813 0.80602 0.26216 0.0
H471 H 0.1199 0.8227 0.2245 0.0
H472 H 0.96907 0.75083 0.19145 0.0
H473 H 0.92689 0.73185 0.22925 0.0
H474 H 0.034 0.7314 0.16705 0.0
H475 H 0.04025 0.8875 0.19378 0.0
H476 H 0.05297 0.95185 0.22383 0.0
H477 H 0.21147 0.98792 0.23309 0.0
H478 H 0.20008 0.92524 0.20262 0.0
H479 H 0.15773 0.89252 0.0643 0.0
H480 H 0.10122 0.85109 0.0977 0.0
H481 H 0.23432 0.87409 0.13718 0.0
H482 H 0.29083 0.91443 0.10388 0.0
H483 H 0.1696 0.91744 0.156 0.0
H484 H 0.15595 0.7586 0.12359 0.0
H485 H 0.13335 0.69233 0.09325 0.0
H486 H 0.97512 0.66025 0.09306 0.0
H487 H -0.00303 0.72688 0.12319 0.0
C488 C 0.05384 0.79277 0.24689 0.0
C489 C -0.00066 0.76795 0.24864 0.0
C490 C 0.07771 0.80268 0.22535 0.0
C491 C 0.04771 0.78947 0.20509 0.0
C492 C 0.99307 0.76173 0.2068 0.0
C493 C 0.96903 0.75082 0.22843 0.0
C494 C 0.07389 0.80804 0.18242 0.0
C495 C 0.06317 0.77216 0.16451 0.0
C496 C 0.11124 0.86133 0.17885 0.0
C497 C 0.11937 0.90181 0.19597 0.0
C498 C 0.07796 0.90968 0.20209 0.0
C499 C 0.08497 0.946 0.21913 0.0
C500 C 0.13309 0.97431 0.23029 0.0
C501 C 0.17442 0.96668 0.22425 0.0
C502 C 0.16787 0.93109 0.20696 0.0
C503 C 0.17481 0.88788 0.07996 0.0
C504 C 0.22886 0.90687 0.08142 0.0
C505 C 0.14245 0.86416 0.099 0.0
C506 C 0.16366 0.85962 0.11988 0.0
C507 C 0.21723 0.87719 0.12119 0.0
C508 C 0.24943 0.90007 0.10209 0.0
C509 C 0.13117 0.84048 0.14092 0.0
C510 C 0.14031 0.87666 0.15846 0.0
C511 C 0.09113 0.78783 0.14369 0.0
C512 C 0.07828 0.74823 0.12542 0.0
C513 C 0.1165 0.73788 0.11688 0.0
C514 C 0.10378 0.70012 0.09977 0.0
C515 C 0.05288 0.67223 0.09117 0.0
C516 C 0.01456 0.68196 0.0997 0.0
C517 C 0.02709 0.71969 0.1168 0.0
H518 H 0.0431 0.64298 0.07795 0.0
H519 H 0.13827 0.00197 0.24367 0.0
H520 H 0.1735 0.76504 0.58997 0.0
H521 H 0.21185 0.82462 0.55715 0.0
H522 H 0.12788 0.9028 0.57639 0.0
H523 H 0.08883 0.84316 0.60858 0.0
H524 H 0.11159 0.87734 0.53346 0.0
H525 H 0.26262 0.962 0.5817 0.0
H526 H 0.33409 0.96999 0.60633 0.0
H527 H 0.39334 0.92095 0.55019 0.0
H528 H 0.32184 0.91204 0.52528 0.0
H529 H 0.29407 0.11212 0.45892 0.0
H530 H 0.27373 0.06385 0.49541 0.0
H531 H 0.19955 0.91821 0.45809 0.0
H532 H 0.21855 0.96583 0.42176 0.0
H533 H 0.29761 0.98251 0.51089 0.0
H534 H 0.11037 0.86364 0.47276 0.0
H535 H 0.03206 0.85598 0.45395 0.0
H536 H 0.04264 0.97937 0.49658 0.0
H537 H 0.12205 0.98887 0.51505 0.0
C538 C 0.16369 0.79527 0.58728 0.0
C539 C 0.12756 0.79884 0.60169 0.0
C540 C 0.18588 0.82954 0.56862 0.0
C541 C 0.17282 0.86831 0.56428 0.0
C542 C 0.13835 0.87306 0.57925 0.0
C543 C 0.11589 0.83871 0.59765 0.0
C544 C 0.19066 0.90076 0.54306 0.0
C545 C 0.15241 0.90034 0.52868 0.0
C546 C 0.24385 0.93111 0.53669 0.0
C547 C 0.28648 0.93575 0.55171 0.0
C548 C 0.29056 0.95237 0.57467 0.0
C549 C 0.33117 0.95721 0.58867 0.0
C550 C 0.36813 0.94582 0.57985 0.0
C551 C 0.36463 0.92967 0.55701 0.0
C552 C 0.32409 0.92476 0.54294 0.0
C553 C 0.27418 0.06983 0.4585 0.0
C554 C 0.25774 0.04274 0.43747 0.0
C555 C 0.26225 0.04233 0.47934 0.0
C556 C 0.2339 0.98745 0.47944 0.0
C557 C 0.22 0.9605 0.45843 0.0
C558 C 0.23142 0.98781 0.43767 0.0
C559 C 0.21836 0.95803 0.5014 0.0
C560 C 0.25696 0.9592 0.51584 0.0
C561 C 0.16554 0.92861 0.50811 0.0
C562 C 0.12276 0.9279 0.49479 0.0
C563 C 0.09679 0.89009 0.47762 0.0
C564 C 0.05204 0.88516 0.46715 0.0
C565 C 0.03235 0.91706 0.47409 0.0
C566 C 0.05808 0.95486 0.49113 0.0
C567 C 0.10321 0.96037 0.50145 0.0
H568 H -0.00311 0.91214 0.46645 0.0
H569 H 0.39956 0.94963 0.59071 0.0
H570 H 0.41381 0.06322 0.96873 0.0
H571 H 0.48772 0.05882 0.9846 0.0
H572 H 0.38236 0.91716 0.02079 0.0
H573 H 0.30759 0.92239 0.0055 0.0
H574 H 0.51244 0.04553 0.03507 0.0
H575 H 0.43946 0.84295 0.0039 0.0
H576 H 0.37442 0.77783 0.97711 0.0
H577 H 0.40081 0.90023 0.92986 0.0
H578 H 0.46644 0.96577 0.95624 0.0
H579 H 0.708 0.94338 0.01285 0.0
H580 H 0.618 0.92401 0.01589 0.0
H581 H 0.66917 0.087 0.0043 0.0
H582 H 0.75974 0.10713 0.00357 0.0
H583 H 0.55376 0.92882 0.98979 0.0
H584 H 0.59987 0.12813 0.03084 0.0
H585 H 0.6666 0.19488 0.05634 0.0
H586 H 0.69697 0.07974 0.08571 0.0
H587 H 0.62973 0.01199 0.06071 0.0
C588 C 0.40645 0.03106 0.97999 0.0
C589 C 0.3555 0.99254 0.98567 0.0
C590 C 0.44848 0.02917 0.98935 0.0
C591 C 0.43994 0.98806 0.00396 0.0
C592 C 0.38913 0.9494 0.00972 0.0
C593 C 0.34686 0.952 0.00078 0.0
C594 C 0.48476 0.98302 0.01038 0.0
C595 C 0.52164 0.01966 0.02559 0.0
C596 C 0.49532 0.94813 0.99835 0.0
C597 C 0.45724 0.90907 0.98209 0.0
C598 C 0.43141 0.8558 0.98775 0.0
C599 C 0.3945 0.81887 0.97265 0.0
C600 C 0.38336 0.8349 0.95184 0.0
C601 C 0.40934 0.88786 0.94601 0.0
C602 C 0.44637 0.92489 0.96102 0.0
C603 C 0.69986 0.97499 0.01104 0.0
C604 C 0.74034 0.02687 0.00858 0.0
C605 C 0.64857 0.9639 0.01277 0.0
C606 C 0.63723 0.00438 0.01125 0.0
C607 C 0.67742 0.05559 0.00668 0.0
C608 C 0.72888 0.06699 0.00592 0.0
C609 C 0.58327 0.99315 0.01388 0.0
C610 C 0.54451 0.95334 1.00031 0.0
C611 C 0.57101 0.02488 0.02776 0.0
C612 C 0.60964 0.06487 0.04382 0.0
C613 C 0.62024 0.11681 0.04294 0.0
C614 C 0.65832 0.15491 0.05726 0.0
C615 C 0.68604 0.14157 0.07262 0.0
C616 C 0.67549 0.09003 0.0738 0.0
C617 C 0.63734 0.05174 0.05956 0.0
H618 H 0.71568 0.17118 0.08361 0.0
H619 H 0.35468 0.80627 0.9402 0.0
H620 H 0.35212 0.32258 0.38659 0.0
H621 H 0.42639 0.4116 0.38368 0.0
H622 H 0.46764 0.37334 0.31839 0.0
H623 H 0.39214 0.28484 0.32071 0.0
H624 H 0.53007 0.40111 0.37275 0.0
H625 H 0.47179 0.45094 0.30188 0.0
H626 H 0.41213 0.46903 0.27937 0.0
H627 H 0.42213 0.57734 0.33106 0.0
H628 H 0.4812 0.55904 0.35409 0.0
H629 H 0.76073 0.58854 0.31699 0.0
H630 H 0.67535 0.51829 0.32969 0.0
H631 H 0.65922 0.62661 0.37375 0.0
H632 H 0.74557 0.69687 0.36151 0.0
H633 H 0.57999 0.57206 0.3371 0.0
H634 H 0.65879 0.53956 0.4013 0.0
H635 H 0.72072 0.52355 0.42314 0.0
H636 H 0.67415 0.38368 0.38412 0.0
H637 H 0.6125 0.39921 0.36179 0.0
C638 C 0.37607 0.33383 0.37125 0.0
C639 C 0.36729 0.29704 0.35402 0.0
C640 C 0.41795 0.38466 0.36952 0.0
C641 C 0.45171 0.39892 0.35069 0.0
C642 C 0.44095 0.36328 0.33271 0.0
C643 C 0.39828 0.31271 0.33417 0.0
C644 C 0.504 0.44485 0.3527 0.0
C645 C 0.54131 0.43857 0.3649 0.0
C646 C 0.51736 0.49372 0.34315 0.0
C647 C 0.47965 0.50247 0.33 0.0
C648 C 0.46023 0.47758 0.30873 0.0
C649 C 0.42685 0.48819 0.29578 0.0
C650 C 0.41301 0.52401 0.30386 0.0
C651 C 0.43258 0.54933 0.3249 0.0
C652 C 0.46593 0.53878 0.33792 0.0
C653 C 0.73928 0.597 0.32969 0.0
C654 C 0.75901 0.64776 0.33824 0.0
C655 C 0.69099 0.55696 0.33707 0.0
C656 C 0.66154 0.56759 0.35268 0.0
C657 C 0.68192 0.6179 0.36185 0.0
C658 C 0.73091 0.65775 0.35488 0.0
C659 C 0.60677 0.52779 0.35639 0.0
C660 C 0.56873 0.53501 0.34537 0.0
C661 C 0.59287 0.47953 0.36684 0.0
C662 C 0.63126 0.47089 0.3797 0.0
C663 C 0.66221 0.50576 0.39714 0.0
C664 C 0.69716 0.49665 0.40968 0.0
C665 C 0.70144 0.45268 0.40499 0.0
C666 C 0.67083 0.41775 0.38773 0.0
C667 C 0.63583 0.42668 0.37514 0.0
H668 H 0.72841 0.44563 0.41475 0.0
H669 H 0.38738 0.53238 0.29376 0.0
H670 H 0.86472 0.24183 0.67949 0.0
H671 H 0.88474 0.32885 0.69218 0.0
H672 H 0.04647 0.37307 0.70107 0.0
H673 H 0.02567 0.28532 0.69043 0.0
H674 H 0.03094 0.43482 0.72536 0.0
H675 H -0.00289 0.37852 0.64724 0.0
H676 H 0.94613 0.31916 0.61554 0.0
H677 H 0.82269 0.35217 0.62729 0.0
H678 H 0.8727 0.4113 0.65926 0.0
H679 H 0.09019 0.6943 0.67264 0.0
H680 H 0.07618 0.60568 0.66684 0.0
H681 H 0.96417 0.54895 0.72213 0.0
H682 H 0.97799 0.6366 0.72803 0.0
H683 H 0.96744 0.49988 0.66133 0.0
H684 H 0.01784 0.51178 0.75549 0.0
H685 H 0.08035 0.5791 0.78231 0.0
H686 H 0.19495 0.64346 0.7286 0.0
H687 H 0.13291 0.57672 0.70153 0.0
C688 C 0.90385 0.26948 0.68531 0.0
C689 C 0.94398 0.25785 0.68356 0.0
C690 C 0.9154 0.31913 0.69239 0.0
C691 C 0.96756 0.35797 0.69634 0.0
C692 C 0.00613 0.34397 0.6977 0.0
C693 C 0.99417 0.29376 0.69159 0.0
C694 C 0.98335 0.41369 0.69463 0.0
C695 C 0.01696 0.44873 0.71134 0.0
C696 C 0.96776 0.43279 0.67558 0.0
C697 C 0.9385 0.39909 0.65572 0.0
C698 C 0.9591 0.37313 0.64305 0.0
C699 C 0.93034 0.33944 0.62507 0.0
C700 C 0.88116 0.33181 0.61944 0.0
C701 C 0.86078 0.35811 0.63168 0.0
C702 C 0.88933 0.39178 0.64972 0.0
C703 C 0.06261 0.66263 0.68344 0.0
C704 C 0.03538 0.67177 0.70085 0.0
C705 C 0.05439 0.6124 0.68 0.0
C706 C 0.01899 0.57143 0.69401 0.0
C707 C 0.99153 0.58052 0.7112 0.0
C708 C -0.00013 0.63047 0.71471 0.0
C709 C 0.01293 0.51941 0.69241 0.0
C710 C 0.98146 0.48538 0.67511 0.0
C711 C 0.03294 0.50175 0.70998 0.0
C712 C 0.07116 0.53903 0.7267 0.0
C713 C 0.05665 0.53987 0.74958 0.0
C714 C 0.09184 0.57816 0.76474 0.0
C715 C 0.14167 0.61543 0.75719 0.0
C716 C 0.15643 0.61453 0.73445 0.0
C717 C 0.12129 0.57656 0.71921 0.0
H718 H 0.16885 0.64507 0.76892 0.0
H719 H 0.85889 0.30559 0.60556 0.0
H720 H 0.31375 0.04371 0.06548 0.0
H721 H 0.29618 0.07184 0.10182 0.0
H722 H 0.45086 0.2076 0.10106 0.0
H723 H 0.46948 0.17682 0.06531 0.0
H724 H 0.43884 0.16405 0.13904 0.0
H725 H 0.32942 0.21117 0.09795 0.0
H726 H 0.26042 0.20249 0.07143 0.0
H727 H 0.14514 0.07382 0.111 0.0
H728 H 0.21337 0.08102 0.13753 0.0
H729 H 0.37793 0.2155 0.25246 0.0
H730 H 0.4031 0.22505 0.21175 0.0
H731 H 0.25904 0.08339 0.19584 0.0
H732 H 0.23271 0.07614 0.23572 0.0
H733 H 0.27377 0.15016 0.16552 0.0
H734 H 0.38554 0.09336 0.20082 0.0
H735 H 0.45389 0.10003 0.22724 0.0
H736 H 0.56389 0.2483 0.19789 0.0
H737 H 0.496 0.2427 0.17145 0.0
C738 C 0.34362 0.07973 0.07279 0.0
C739 C 0.39313 0.10713 0.06272 0.0
C740 C 0.33339 0.09646 0.09357 0.0
C741 C 0.37208 0.14222 0.10431 0.0
C742 C 0.42038 0.17198 0.09327 0.0
C743 C 0.43097 0.15437 0.07279 0.0
C744 C 0.36477 0.15455 0.12835 0.0
C745 C 0.4033 0.16267 0.14465 0.0
C746 C 0.31797 0.15158 0.13592 0.0
C747 C 0.27679 0.14643 0.11966 0.0
C748 C 0.28946 0.18066 0.10087 0.0
C749 C 0.25042 0.17606 0.08586 0.0
C750 C 0.19848 0.13753 0.08949 0.0
C751 C 0.18541 0.10359 0.10818 0.0
C752 C 0.22426 0.10794 0.12322 0.0
C753 C 0.35196 0.18631 0.24024 0.0
C754 C 0.30377 0.14425 0.24738 0.0
C755 C 0.3664 0.19171 0.217 0.0
C756 C 0.33328 0.15456 0.2007 0.0
C757 C 0.28538 0.11264 0.20798 0.0
C758 C 0.27065 0.10795 0.23093 0.0
C759 C 0.34723 0.15863 0.17595 0.0
C760 C 0.30994 0.15347 0.15961 0.0
C761 C 0.39503 0.16432 0.1683 0.0
C762 C 0.43554 0.16796 0.18441 0.0
C763 C 0.42418 0.1276 0.20016 0.0
C764 C 0.46285 0.13113 0.2151 0.0
C765 C 0.51314 0.17466 0.21431 0.0
C766 C 0.52489 0.21469 0.19854 0.0
C767 C 0.48634 0.21135 0.18357 0.0
H768 H 0.54303 0.17729 0.22586 0.0
H769 H 0.16835 0.13398 0.07783 0.0
H770 H 0.17657 0.12948 0.44203 0.0
H771 H 0.15444 0.14831 0.47975 0.0
H772 H 0.17415 0.29408 0.45441 0.0
H773 H 0.19678 0.27558 0.41635 0.0
H774 H 0.22435 0.30801 0.49513 0.0
H775 H 0.05463 0.19966 0.46675 0.0
H776 H 0.97846 0.1255 0.44882 0.0
H777 H 0.97943 0.02239 0.50058 0.0
H778 H 0.05656 0.09641 0.51869 0.0
H779 H 0.06728 0.31876 0.58994 0.0
H780 H 0.1188 0.32784 0.55566 0.0
H781 H 0.12946 0.19396 0.57651 0.0
H782 H 0.07712 0.18356 0.61021 0.0
H783 H 0.06582 0.18096 0.53752 0.0
H784 H 0.23756 0.30087 0.56713 0.0
H785 H 0.30402 0.38269 0.58548 0.0
H786 H 0.28813 0.47174 0.53105 0.0
H787 H 0.22106 0.39045 0.5125 0.0
C788 C 0.17515 0.16507 0.44425 0.0
C789 C 0.18788 0.20081 0.42609 0.0
C790 C 0.16269 0.17589 0.4659 0.0
C791 C 0.16254 0.22255 0.46987 0.0
C792 C 0.17414 0.25788 0.45169 0.0
C793 C 0.1866 0.24705 0.42994 0.0
C794 C 0.15181 0.23458 0.49327 0.0
C795 C 0.1894 0.28058 0.50435 0.0
C796 C 0.10638 0.19875 0.50531 0.0
C797 C 0.06186 0.15345 0.49387 0.0
C798 C 0.03893 0.16112 0.47421 0.0
C799 C -0.00504 0.11917 0.46423 0.0
C800 C 0.9734 0.06917 0.47374 0.0
C801 C -0.00392 0.0611 0.49323 0.0
C802 C 0.03991 0.1031 0.50339 0.0
C803 C 0.08242 0.29252 0.58773 0.0
C804 C 0.06698 0.24953 0.60249 0.0
C805 C 0.11218 0.29803 0.56818 0.0
C806 C 0.12722 0.26104 0.56347 0.0
C807 C 0.11802 0.22269 0.57986 0.0
C808 C 0.08799 0.21683 0.59919 0.0
C809 C 0.13899 0.25332 0.53964 0.0
C810 C 0.10111 0.20815 0.5284 0.0
C811 C 0.18331 0.29063 0.52746 0.0
C812 C 0.22387 0.33953 0.53853 0.0
C813 C 0.24786 0.3379 0.55917 0.0
C814 C 0.28575 0.3842 0.56959 0.0
C815 C 0.30018 0.43239 0.55947 0.0
C816 C 0.27688 0.43438 0.53887 0.0
C817 C 0.23898 0.3882 0.52838 0.0
H818 H 0.32949 0.46818 0.56757 0.0
H819 H 0.93955 0.03658 0.46587 0.0
H820 H 0.88241 0.05027 0.77316 0.0
H821 H 0.87612 0.05762 0.81414 0.0
H822 H 0.89807 0.21221 0.80547 0.0
H823 H 0.90889 0.20602 0.76382 0.0
H824 H 0.9581 0.21696 0.83707 0.0
H825 H 0.77649 0.09858 0.82875 0.0
H826 H 0.69721 0.02211 0.81341 0.0
H827 H 0.74501 0.91956 0.84265 0.0
H828 H 0.8246 0.99526 0.85805 0.0
H829 H 0.9279 0.17632 0.96283 0.0
H830 H 0.92261 0.19843 0.9227 0.0
H831 H 0.94355 0.07154 0.90006 0.0
H832 H 0.94943 0.04941 0.93989 0.0
H833 H 0.84544 0.0667 0.88729 0.0
H834 H 0.03444 0.18365 0.88539 0.0
H835 H 0.11657 0.25824 0.89978 0.0
H836 H 0.0544 0.36018 0.88984 0.0
H837 H 0.97187 0.28607 0.87537 0.0
C838 C 0.88491 0.08536 0.77988 0.0
C839 C 0.89668 0.12746 0.76534 0.0
C840 C 0.88041 0.08936 0.80341 0.0
C841 C 0.88529 0.13497 0.81311 0.0
C842 C 0.89373 0.17635 0.79844 0.0
C843 C 0.89949 0.17267 0.77464 0.0
C844 C 0.88878 0.14077 0.83858 0.0
C845 C 0.93266 0.1846 0.84808 0.0
C846 C 0.85546 0.09873 0.85319 0.0
C847 C 0.80649 0.05278 0.84467 0.0
C848 C 0.77005 0.05974 0.83195 0.0
C849 C 0.72505 0.01648 0.82323 0.0
C850 C 0.71603 0.96602 0.82709 0.0
C851 C 0.75188 0.95865 0.83977 0.0
C852 C 0.79683 0.00173 0.84861 0.0
C853 C 0.93318 0.15424 0.94931 0.0
C854 C 0.93789 0.11038 0.95454 0.0
C855 C 0.93 0.16688 0.92642 0.0
C856 C 0.93168 0.13591 0.90859 0.0
C857 C 0.94158 0.09544 0.9137 0.0
C858 C 0.94515 0.08303 0.93649 0.0
C859 C 0.91652 0.14084 0.88495 0.0
C860 C 0.87004 0.09936 0.87617 0.0
C861 C 0.94733 0.18477 0.87107 0.0
C862 C -0.00314 0.22931 0.8796 0.0
C863 C 0.03818 0.22191 0.88646 0.0
C864 C 0.08482 0.2641 0.89457 0.0
C865 C 0.09056 0.31385 0.89588 0.0
C866 C 0.0498 0.32157 0.88892 0.0
C867 C 0.00316 0.27955 0.88068 0.0
H868 H 0.1267 0.34647 0.90215 0.0
H869 H 0.68128 0.93263 0.82023 0.0
H870 H 0.69746 0.86992 0.08613 0.0
H871 H 0.70391 0.84502 0.12532 0.0
H872 H 0.73136 0.99413 0.15011 0.0
H873 H 0.72532 0.01969 0.11084 0.0
H874 H 0.81151 0.97712 0.1601 0.0
H875 H 0.62501 0.88122 0.16846 0.0
H876 H 0.53572 0.81951 0.15504 0.0
H877 H 0.57153 0.69596 0.15323 0.0
H878 H 0.66123 0.75702 0.16634 0.0
H879 H 0.84418 0.87327 0.27207 0.0
H880 H 0.81338 0.91458 0.24413 0.0
H881 H 0.7964 0.80196 0.19278 0.0
H882 H 0.82605 0.76049 0.22024 0.0
H883 H 0.70372 0.81235 0.203 0.0
H884 H 0.88908 0.92997 0.1644 0.0
H885 H 0.98339 0.99278 0.16874 0.0
H886 H 0.95127 0.06835 0.2241 0.0
H887 H 0.85689 0.00543 0.22027 0.0
C888 C 0.70276 0.8967 0.09996 0.0
C889 C 0.71231 0.9473 0.09528 0.0
C890 C 0.70643 0.88237 0.12243 0.0
C891 C 0.71868 0.91801 0.14058 0.0
C892 C 0.72224 0.96626 0.13629 0.0
C893 C 0.71847 0.98061 0.11382 0.0
C894 C 0.73559 0.90786 0.16298 0.0
C895 C 0.78728 0.94191 0.16995 0.0
C896 C 0.70458 0.86119 0.17534 0.0
C897 C 0.6499 0.82377 0.16844 0.0
C898 C 0.61386 0.84089 0.16521 0.0
C899 C 0.56318 0.80603 0.15763 0.0
C900 C 0.54796 0.75385 0.1533 0.0
C901 C 0.58333 0.73636 0.15665 0.0
C902 C 0.63406 0.77106 0.16423 0.0
C903 C 0.83436 0.85782 0.25473 0.0
C904 C 0.83686 0.81329 0.2484 0.0
C905 C 0.81702 0.88149 0.23883 0.0
C906 C 0.80283 0.86123 0.21645 0.0
C907 C 0.80715 0.81805 0.20999 0.0
C908 C 0.82391 0.79431 0.22577 0.0
C909 C 0.77945 0.88153 0.19998 0.0
C910 C 0.72688 0.84882 0.19383 0.0
C911 C 0.80978 0.92887 0.18807 0.0
C912 C 0.86628 0.96277 0.19226 0.0
C913 C 0.90235 0.95952 0.17774 0.0
C914 C 0.95573 0.99519 0.18005 0.0
C915 C 0.97331 0.0346 0.19666 0.0
C916 C 0.93761 0.03768 0.21129 0.0
C917 C 0.88421 0.00182 0.20918 0.0
H918 H 0.01456 0.06268 0.19826 0.0
H919 H 0.50876 0.72696 0.14735 0.0
H920 H 0.81347 0.66991 0.43389 0.0
H921 H 0.80676 0.63954 0.47374 0.0
H922 H 0.97377 0.73526 0.48133 0.0
H923 H 0.98066 0.7653 0.44169 0.0
H924 H 0.93266 0.63479 0.49927 0.0
H925 H 0.89914 0.77977 0.49984 0.0
H926 H 0.85022 0.82272 0.4875 0.0
H927 H 0.70956 0.69642 0.51582 0.0
H928 H 0.75745 0.65227 0.52801 0.0
H929 H 0.00167 0.67358 0.61219 0.0
H930 H 0.98471 0.69628 0.57409 0.0
H931 H 0.81933 0.59607 0.58487 0.0
H932 H 0.83682 0.57741 0.62412 0.0
H933 H 0.84432 0.68623 0.55746 0.0
H934 H 0.88006 0.54475 0.55961 0.0
H935 H 0.93012 0.5031 0.57202 0.0
H936 H 0.06643 0.62301 0.53805 0.0
H937 H 0.01736 0.66578 0.5257 0.0
C938 C 0.84874 0.68365 0.44399 0.0
C939 C 0.89763 0.72023 0.4349 0.0
C940 C 0.84479 0.66663 0.46672 0.0
C941 C 0.88973 0.6857 0.48043 0.0
C942 C 0.93867 0.7203 0.47098 0.0
C943 C 0.94256 0.7376 0.44843 0.0
C944 C 0.88651 0.67124 0.50489 0.0
C945 C 0.91333 0.64598 0.51199 0.0
C946 C 0.86016 0.68492 0.52131 0.0
C947 C 0.83177 0.71236 0.51461 0.0
C948 C 0.85771 0.76097 0.50332 0.0
C949 C 0.83018 0.78557 0.49636 0.0
C950 C 0.77678 0.76217 0.50079 0.0
C951 C 0.7509 0.71439 0.51235 0.0
C952 C 0.77822 0.68959 0.5193 0.0
C953 C 0.96189 0.65968 0.60705 0.0
C954 C 0.92077 0.62602 0.62135 0.0
C955 C 0.95203 0.67138 0.58508 0.0
C956 C 0.90072 0.64754 0.57663 0.0
C957 C 0.85914 0.6151 0.59116 0.0
C958 C 0.86917 0.60417 0.61341 0.0
C959 C 0.89193 0.65123 0.55182 0.0
C960 C 0.86277 0.67419 0.54468 0.0
C961 C 0.91603 0.63538 0.53521 0.0
C962 C 0.94505 0.60852 0.54178 0.0
C963 C 0.92072 0.56225 0.5548 0.0
C964 C 0.94894 0.53848 0.56185 0.0
C965 C 0.00143 0.56041 0.55583 0.0
C966 C 0.02575 0.60604 0.54267 0.0
C967 C -0.00227 0.63 0.5356 0.0
H968 H 0.02324 0.54203 0.56136 0.0
H969 H 0.75539 0.78098 0.49529 0.0
H970 H 0.17604 0.8659 0.75405 0.0
H971 H 0.16675 0.85702 0.79613 0.0
H972 H 0.02753 0.86795 0.79185 0.0
H973 H 0.0397 0.88175 0.75035 0.0
H974 H 0.0814 0.92573 0.82265 0.0
H975 H 0.03247 0.74624 0.80329 0.0
H976 H 0.0493 0.67991 0.78604 0.0
H977 H 0.18459 0.73194 0.82895 0.0
H978 H 0.16895 0.79884 0.84628 0.0
H979 H 0.09636 0.95168 0.93766 0.0
H980 H 0.04233 0.89559 0.90597 0.0
H981 H 0.15657 0.84811 0.89422 0.0
H982 H 0.20452 0.89672 0.92739 0.0
H983 H 0.08913 0.79156 0.87054 0.0
H984 H 0.15527 0.98561 0.8803 0.0
H985 H 0.14765 0.06054 0.8941 0.0
H986 H 0.99381 0.99234 0.86533 0.0
H987 H -0.00111 0.91545 0.85275 0.0
C988 C 0.14321 0.86579 0.76225 0.0
C989 C 0.10675 0.87169 0.74911 0.0
C990 C 0.13752 0.86009 0.78617 0.0
C991 C 0.095 0.85973 0.79706 0.0
C992 C 0.05953 0.86664 0.78373 0.0
C993 C 0.06594 0.87359 0.76009 0.0
C994 C 0.0893 0.85734 0.82245 0.0
C995 C 0.0825 0.89593 0.83312 0.0
C996 C 0.09116 0.81888 0.83614 0.0
C997 C 0.09952 0.77759 0.82606 0.0
C998 C 0.06582 0.74355 0.80902 0.0
C999 C 0.07519 0.70588 0.79922 0.0
C1000 C 0.11796 0.70174 0.80641 0.0
C1001 C 0.15143 0.73514 0.82343 0.0
C1002 C 0.14226 0.77285 0.83328 0.0
C1003 C 0.10733 0.92596 0.92928 0.0
C1004 C 0.15549 0.92986 0.93411 0.0
C1005 C 0.07736 0.89501 0.9107 0.0
C1006 C 0.09778 0.87148 0.89616 0.0
C1007 C 0.14015 0.86711 0.90427 0.0
C1008 C 0.16803 0.89522 0.92345 0.0
C1009 C 0.08485 0.86233 0.87108 0.0
C1010 C 0.08743 0.8211 0.86016 0.0
C1011 C 0.08075 0.89947 0.85703 0.0
C1012 C 0.07712 0.94441 0.86598 0.0
C1013 C 0.11962 0.98637 0.87717 0.0
C1014 C 0.11582 0.02921 0.8847 0.0
C1015 C 0.07087 0.03171 0.88014 0.0
C1016 C 0.02879 0.99055 0.86872 0.0
C1017 C 0.03178 0.94701 0.86168 0.0
H1018 H 0.06834 0.06522 0.88578 0.0
H1019 H 0.12516 0.67263 0.79883 0.0
loop_
_geom_bond_atom_site_label_1
_geom_bond_atom_site_label_2
_geom_bond_distance
_geom_bond_site_symmetry_2
_ccdc_geom_bond_type
Zn0 O6 1.969 . S
Zn0 O7 1.965 . S
Zn0 O11 2.024 1_545 S
Zn0 O16 1.969 . S
Zn1 O8 1.969 . S
Zn1 O14 1.969 1_545 S
Zn1 O15 1.965 . S
Zn1 O17 2.024 . S
C2 O3 1.229 . S
C2 O11 1.058 . S
O3 C2 1.229 . S
C4 O5 1.229 . S
C4 O17 1.058 . S
O5 C4 1.229 . S
O6 Zn0 1.969 . S
O6 C9 1.267 . S
O7 Zn0 1.965 . S
O7 C18 1.260 1_556 S
O8 Zn1 1.969 . S
O8 C18 1.258 . S
C9 O6 1.267 . S
C9 O10 1.228 . S
O10 C9 1.228 . S
O11 Zn0 2.024 1_565 S
O11 C2 1.058 . S
C12 O13 1.228 . S
C12 O14 1.267 . S
O13 C12 1.228 . S
O14 Zn1 1.969 1_565 S
O14 C12 1.267 . S
O15 Zn1 1.965 . S
O15 C19 1.260 . S
O16 Zn0 1.969 . S
O16 C19 1.258 1_556 S
O17 Zn1 2.024 . S
O17 C4 1.058 . S
C18 O7 1.260 1_554 S
C18 O8 1.258 . S
C19 O15 1.260 . S
C19 O16 1.258 1_554 S
Zn20 O26 1.969 . S
Zn20 O27 1.965 . S
Zn20 O31 2.024 . S
Zn20 O36 1.969 . S
Zn21 O28 1.969 . S
Zn21 O34 1.969 . S
Zn21 O35 1.965 . S
Zn21 O37 2.024 . S
C22 O23 1.229 . S
C22 O31 1.058 . S
O23 C22 1.229 . S
C24 O25 1.229 . S
C24 O37 1.058 . S
O25 C24 1.229 . S
O26 Zn20 1.969 . S
O26 C29 1.267 . S
O27 Zn20 1.965 . S
O27 C38 1.260 . S
O28 Zn21 1.969 . S
O28 C38 1.258 . S
C29 O26 1.267 . S
C29 O30 1.228 . S
O30 C29 1.228 . S
O31 Zn20 2.024 . S
O31 C22 1.058 . S
C32 O33 1.228 . S
C32 O34 1.267 . S
O33 C32 1.228 . S
O34 Zn21 1.969 . S
O34 C32 1.267 . S
O35 Zn21 1.965 . S
O35 C39 1.260 . S
O36 Zn20 1.969 . S
O36 C39 1.258 . S
O37 Zn21 2.024 . S
O37 C24 1.058 . S
C38 O27 1.260 . S
C38 O28 1.258 . S
C39 O35 1.260 . S
C39 O36 1.258 . S
Zn40 O46 1.969 . S
Zn40 O47 1.965 . S
Zn40 O51 2.024 1_655 S
Zn40 O56 1.969 1_655 S
Zn41 O48 1.969 . S
Zn41 O54 1.969 . S
Zn41 O55 1.965 . S
Zn41 O57 2.024 1_455 S
C42 O43 1.229 . S
C42 O51 1.058 . S
O43 C42 1.229 . S
C44 O45 1.229 . S
C44 O57 1.058 . S
O45 C44 1.229 . S
O46 Zn40 1.969 . S
O46 C49 1.267 . S
O47 Zn40 1.965 . S
O47 C58 1.260 . S
O48 Zn41 1.969 . S
O48 C58 1.258 1_455 S
C49 O46 1.267 . S
C49 O50 1.228 . S
O50 C49 1.228 . S
O51 Zn40 2.024 1_455 S
O51 C42 1.058 . S
C52 O53 1.228 . S
C52 O54 1.267 . S
O53 C52 1.228 . S
O54 Zn41 1.969 . S
O54 C52 1.267 . S
O55 Zn41 1.965 . S
O55 C59 1.260 . S
O56 Zn40 1.969 1_455 S
O56 C59 1.258 . S
O57 Zn41 2.024 1_655 S
O57 C44 1.058 . S
C58 O47 1.260 . S
C58 O48 1.258 1_655 S
C59 O55 1.260 . S
C59 O56 1.258 . S
Zn60 O66 1.969 . S
Zn60 O67 1.965 . S
Zn60 O71 2.024 1_545 S
Zn60 O76 1.969 . S
Zn61 O68 1.969 . S
Zn61 O74 1.969 1_545 S
Zn61 O75 1.994 . S
Zn61 O77 2.024 . S
C62 O63 1.229 . S
C62 O71 1.058 . S
O63 C62 1.229 . S
C64 O65 1.229 . S
C64 O77 1.058 . S
O65 C64 1.229 . S
O66 Zn60 1.969 . S
O66 C69 1.267 . S
O67 Zn60 1.965 . S
O67 C78 1.260 . S
O68 Zn61 1.969 . S
O68 C78 1.258 1_556 S
C69 O66 1.267 . S
C69 O70 1.228 . S
O70 C69 1.228 . S
O71 Zn60 2.024 1_565 S
O71 C62 1.058 . S
C72 O73 1.228 . S
C72 O74 1.267 . S
O73 C72 1.228 . S
O74 Zn61 1.969 1_565 S
O74 C72 1.267 . S
O75 Zn61 1.994 . S
O75 C79 1.235 1_556 S
O76 Zn60 1.969 . S
O76 C79 1.258 . S
O77 Zn61 2.024 . S
O77 C64 1.058 . S
C78 O67 1.260 . S
C78 O68 1.258 1_554 S
C79 O75 1.235 1_554 S
C79 O76 1.258 . S
Zn80 O86 1.969 . S
Zn80 O87 1.965 . S
Zn80 O91 2.024 . S
Zn80 O96 1.969 . S
Zn81 O88 1.969 . S
Zn81 O94 1.969 . S
Zn81 O95 1.965 . S
Zn81 O97 2.024 . S
C82 O83 1.229 . S
C82 O91 1.058 . S
O83 C82 1.229 . S
C84 O85 1.229 . S
C84 O97 1.058 . S
O85 C84 1.229 . S
O86 Zn80 1.969 . S
O86 C89 1.267 . S
O87 Zn80 1.965 . S
O87 C98 1.260 . S
O88 Zn81 1.969 . S
O88 C98 1.258 . S
C89 O86 1.267 . S
C89 O90 1.228 . S
O90 C89 1.228 . S
O91 Zn80 2.024 . S
O91 C82 1.058 . S
C92 O93 1.228 . S
C92 O94 1.267 . S
O93 C92 1.228 . S
O94 Zn81 1.969 . S
O94 C92 1.267 . S
O95 Zn81 1.965 . S
O95 C99 1.260 . S
O96 Zn80 1.969 . S
O96 C99 1.258 . S
O97 Zn81 2.024 . S
O97 C84 1.058 . S
C98 O87 1.260 . S
C98 O88 1.258 . S
C99 O95 1.260 . S
C99 O96 1.258 . S
Zn100 O106 1.969 . S
Zn100 O107 1.965 . S
Zn100 O111 2.024 1_655 S
Zn100 O116 1.969 1_655 S
Zn101 O108 1.969 . S
Zn101 O114 1.969 . S
Zn101 O115 1.965 . S
Zn101 O117 2.024 1_455 S
C102 O103 1.229 . S
C102 O111 1.058 . S
O103 C102 1.229 . S
C104 O105 1.229 . S
C104 O117 1.058 . S
O105 C104 1.229 . S
O106 Zn100 1.969 . S
O106 C109 1.267 . S
O107 Zn100 1.965 . S
O107 C118 1.260 . S
O108 Zn101 1.969 . S
O108 C118 1.258 1_455 S
C109 O106 1.267 . S
C109 O110 1.228 . S
O110 C109 1.228 . S
O111 Zn100 2.024 1_455 S
O111 C102 1.058 . S
C112 O113 1.228 . S
C112 O114 1.267 . S
O113 C112 1.228 . S
O114 Zn101 1.969 . S
O114 C112 1.267 . S
O115 Zn101 1.965 . S
O115 C119 1.260 . S
O116 Zn100 1.969 1_455 S
O116 C119 1.258 . S
O117 Zn101 2.024 1_655 S
O117 C104 1.058 . S
C118 O107 1.260 . S
C118 O108 1.258 1_655 S
C119 O115 1.260 . S
C119 O116 1.258 . S
H120 C138 0.951 . S
H121 C140 0.951 . S
H122 C142 0.950 . S
H123 C143 0.950 . S
H124 C145 0.950 1_665 S
H125 C148 0.950 . S
H126 C149 0.950 . S
H127 C151 0.950 . S
H128 C152 0.950 . S
H129 C153 0.951 . S
H130 C155 0.951 . S
H131 C157 0.950 . S
H132 C158 0.950 . S
H133 C160 0.950 . S
H134 C163 0.904 1_554 S
H135 C164 0.950 . S
H136 C166 0.950 . S
H137 C167 0.950 . S
C138 H120 0.951 . S
C138 C139 1.366 . S
C138 C140 1.388 . S
C139 C138 1.366 . S
C139 C143 1.385 1_554 S
C140 H121 0.951 . S
C140 C138 1.388 . S
C140 C141 1.366 . S
C141 C140 1.366 . S
C141 C142 1.414 1_554 S
C141 C144 1.499 1_655 S
C142 H122 0.950 . S
C142 C141 1.414 1_556 S
C142 C143 1.374 . S
C143 H123 0.950 . S
C143 C139 1.385 1_556 S
C143 C142 1.374 . S
C144 C141 1.499 1_455 S
C144 C145 1.373 1_554 S
C144 C146 1.389 . S
C145 H124 0.950 1_445 S
C145 C144 1.373 1_556 S
C145 C161 1.377 . S
C146 C144 1.389 . S
C146 C147 1.524 . S
C146 C160 1.377 . S
C147 C146 1.524 . S
C147 C148 1.397 . S
C147 C152 1.363 . S
C148 H125 0.950 . S
C148 C147 1.397 . S
C148 C149 1.334 . S
C149 H126 0.950 . S
C149 C148 1.334 . S
C149 C150 1.287 . S
C150 C149 1.287 . S
C150 C151 1.524 . S
C150 H169 0.913 . S
C151 H127 0.950 . S
C151 C150 1.524 . S
C151 C152 1.415 . S
C152 H128 0.950 . S
C152 C147 1.363 . S
C152 C151 1.415 . S
C153 H129 0.951 . S
C153 C154 1.366 1_556 S
C153 C155 1.388 . S
C154 C153 1.366 1_554 S
C154 C158 1.385 . S
C155 H130 0.951 . S
C155 C153 1.388 . S
C155 C156 1.366 1_556 S
C156 C155 1.366 1_554 S
C156 C157 1.414 . S
C156 C159 1.499 . S
C157 H131 0.950 . S
C157 C156 1.414 . S
C157 C158 1.374 . S
C158 H132 0.950 . S
C158 C154 1.385 . S
C158 C157 1.374 . S
C159 C156 1.499 . S
C159 C160 1.373 . S
C159 C161 1.389 1_554 S
C160 H133 0.950 . S
C160 C146 1.377 . S
C160 C159 1.373 . S
C161 C145 1.377 . S
C161 C159 1.389 1_556 S
C161 C162 1.524 1_545 S
C162 C161 1.524 1_565 S
C162 C163 1.423 . S
C162 C167 1.363 . S
C163 H134 0.904 1_556 S
C163 C162 1.423 . S
C163 C164 1.353 . S
C164 H135 0.950 . S
C164 C163 1.353 . S
C164 C165 1.287 . S
C165 C164 1.287 . S
C165 C166 1.524 . S
C165 H168 0.999 . S
C166 H136 0.950 . S
C166 C165 1.524 . S
C166 C167 1.415 . S
C167 H137 0.950 . S
C167 C162 1.363 . S
C167 C166 1.415 . S
H168 C165 0.999 . S
H169 C150 0.913 . S
H170 C188 0.951 . S
H171 C190 0.951 . S
H172 C192 0.950 . S
H173 C193 0.950 . S
H174 C195 0.950 . S
H175 C198 0.950 . S
H176 C199 0.950 . S
H177 C201 0.950 . S
H178 C202 0.950 1_545 S
H179 C203 0.951 . S
H180 C205 0.951 . S
H181 C207 0.950 . S
H182 C208 0.950 . S
H183 C210 0.950 . S
H184 C213 0.950 . S
H185 C214 0.950 . S
H186 C216 0.950 . S
H187 C217 0.950 . S
C188 H170 0.951 . S
C188 C189 1.366 . S
C188 C190 1.388 . S
C189 C188 1.366 . S
C189 C193 1.385 . S
C190 H171 0.951 . S
C190 C188 1.388 . S
C190 C191 1.366 . S
C191 C190 1.366 . S
C191 C192 1.414 . S
C191 C194 1.499 1_655 S
C192 H172 0.950 . S
C192 C191 1.414 . S
C192 C193 1.374 . S
C193 H173 0.950 . S
C193 C189 1.385 . S
C193 C192 1.374 . S
C194 C191 1.499 1_455 S
C194 C195 1.373 . S
C194 C196 1.389 . S
C195 H174 0.950 . S
C195 C194 1.373 . S
C195 C211 1.377 . S
C196 C194 1.389 . S
C196 C197 1.524 . S
C196 C210 1.377 1_565 S
C197 C196 1.524 . S
C197 C198 1.397 . S
C197 C202 1.363 . S
C198 H175 0.950 . S
C198 C197 1.397 . S
C198 C199 1.334 1_455 S
C199 H176 0.950 . S
C199 C198 1.334 1_655 S
C199 C200 1.287 . S
C200 C199 1.287 . S
C200 C201 1.524 . S
C200 H219 0.913 . S
C201 H177 0.950 . S
C201 C200 1.524 . S
C201 C202 1.415 1_655 S
C202 H178 0.950 1_565 S
C202 C197 1.363 . S
C202 C201 1.415 1_455 S
C203 H179 0.951 . S
C203 C204 1.366 . S
C203 C205 1.388 . S
C204 C203 1.366 . S
C204 C208 1.385 . S
C205 H180 0.951 . S
C205 C203 1.388 . S
C205 C206 1.366 . S
C206 C205 1.366 . S
C206 C207 1.414 . S
C206 C209 1.499 . S
C207 H181 0.950 . S
C207 C206 1.414 . S
C207 C208 1.374 . S
C208 H182 0.950 . S
C208 C204 1.385 . S
C208 C207 1.374 . S
C209 C206 1.499 . S
C209 C210 1.373 . S
C209 C211 1.389 1_545 S
C210 H183 0.950 . S
C210 C196 1.377 1_545 S
C210 C209 1.373 . S
C211 C195 1.377 . S
C211 C209 1.389 1_565 S
C211 C212 1.524 1_565 S
C212 C211 1.524 1_545 S
C212 C213 1.397 . S
C212 C217 1.363 1_545 S
C213 H184 0.950 . S
C213 C212 1.397 . S
C213 C214 1.334 . S
C214 H185 0.950 . S
C214 C213 1.334 . S
C214 C215 1.287 . S
C215 C214 1.287 . S
C215 C216 1.524 1_545 S
C215 H218 0.999 . S
C216 H186 0.950 . S
C216 C215 1.524 1_565 S
C216 C217 1.415 . S
C217 H187 0.950 . S
C217 C212 1.363 1_565 S
C217 C216 1.415 . S
H218 C215 0.999 . S
H219 C200 0.913 . S
H220 C238 0.951 . S
H221 C240 0.951 . S
H222 C242 0.950 . S
H223 C243 0.950 . S
H224 C245 0.950 . S
H225 C248 0.936 1_655 S
H226 C249 0.950 1_655 S
H227 C251 0.950 1_545 S
H228 C252 0.950 1_545 S
H229 C253 0.951 . S
H230 C255 0.951 . S
H231 C257 0.950 . S
H232 C258 0.950 . S
H233 C260 0.950 . S
H234 C263 0.950 . S
H235 C264 0.950 1_455 S
H236 C266 0.950 . S
H237 C267 0.950 . S
C238 H220 0.951 . S
C238 C239 1.371 . S
C238 C240 1.388 . S
C239 C238 1.371 . S
C239 C243 1.373 1_455 S
C240 H221 0.951 . S
C240 C238 1.388 . S
C240 C241 1.356 1_455 S
C241 C240 1.356 1_655 S
C241 C242 1.418 . S
C241 C244 1.504 . S
C242 H222 0.950 . S
C242 C241 1.418 . S
C242 C243 1.374 . S
C243 H223 0.950 . S
C243 C239 1.373 1_655 S
C243 C242 1.374 . S
C244 C241 1.504 . S
C244 C245 1.373 . S
C244 C246 1.389 1_655 S
C245 H224 0.950 . S
C245 C244 1.373 . S
C245 C261 1.377 . S
C246 C244 1.389 1_455 S
C246 C247 1.524 . S
C246 C260 1.377 1_565 S
C247 C246 1.524 . S
C247 C248 1.403 . S
C247 C252 1.363 . S
C248 H225 0.936 1_455 S
C248 C247 1.403 . S
C248 C249 1.342 . S
C249 H226 0.950 1_455 S
C249 C248 1.342 . S
C249 C250 1.287 . S
C250 C249 1.287 . S
C250 C251 1.524 . S
C250 H269 0.913 . S
C251 H227 0.950 1_565 S
C251 C250 1.524 . S
C251 C252 1.415 . S
C252 H228 0.950 1_565 S
C252 C247 1.363 . S
C252 C251 1.415 . S
C253 H229 0.951 . S
C253 C254 1.362 1_655 S
C253 C255 1.388 . S
C254 C253 1.362 1_455 S
C254 C258 1.393 . S
C255 H230 0.951 . S
C255 C253 1.388 . S
C255 C256 1.366 1_655 S
C256 C255 1.366 1_455 S
C256 C257 1.414 . S
C256 C259 1.499 . S
C257 H231 0.950 . S
C257 C256 1.414 . S
C257 C258 1.374 . S
C258 H232 0.950 . S
C258 C254 1.393 . S
C258 C257 1.374 . S
C259 C256 1.499 . S
C259 C260 1.373 . S
C259 C261 1.389 1_445 S
C260 H233 0.950 . S
C260 C246 1.377 1_545 S
C260 C259 1.373 . S
C261 C245 1.377 . S
C261 C259 1.389 1_665 S
C261 C262 1.524 1_565 S
C262 C261 1.524 1_545 S
C262 C263 1.397 1_655 S
C262 C267 1.362 1_545 S
C263 H234 0.950 . S
C263 C262 1.397 1_455 S
C263 C264 1.334 1_455 S
C264 H235 0.950 1_655 S
C264 C263 1.334 1_655 S
C264 C265 1.287 . S
C265 C264 1.287 . S
C265 C266 1.524 1_545 S
C265 H268 0.999 . S
C266 H236 0.950 . S
C266 C265 1.524 1_565 S
C266 C267 1.415 . S
C267 H237 0.950 . S
C267 C262 1.362 1_565 S
C267 C266 1.415 . S
H268 C265 0.999 . S
H269 C250 0.913 . S
H270 C288 0.951 . S
H271 C290 0.951 . S
H272 C292 0.950 . S
H273 C293 0.950 . S
H274 C295 0.950 . S
H275 C298 0.950 . S
H276 C299 0.950 . S
H277 C301 0.950 . S
H278 C302 0.950 . S
H279 C303 0.951 . S
H280 C305 0.951 . S
H281 C307 0.950 . S
H282 C308 0.950 . S
H283 C310 0.950 . S
H284 C313 0.950 . S
H285 C314 0.950 . S
H286 C316 0.950 . S
H287 C317 0.950 . S
C288 H270 0.951 . S
C288 C289 1.366 . S
C288 C290 1.388 . S
C289 C288 1.366 . S
C289 C293 1.385 . S
C290 H271 0.951 . S
C290 C288 1.388 . S
C290 C291 1.366 . S
C291 C290 1.366 . S
C291 C292 1.414 . S
C291 C294 1.499 . S
C292 H272 0.950 . S
C292 C291 1.414 . S
C292 C293 1.374 . S
C293 H273 0.950 . S
C293 C289 1.385 . S
C293 C292 1.374 . S
C294 C291 1.499 . S
C294 C295 1.373 . S
C294 C296 1.389 . S
C295 H274 0.950 . S
C295 C294 1.373 . S
C295 C311 1.377 . S
C296 C294 1.389 . S
C296 C297 1.524 . S
C296 C310 1.377 . S
C297 C296 1.524 . S
C297 C298 1.397 . S
C297 C302 1.363 . S
C298 H275 0.950 . S
C298 C297 1.397 . S
C298 C299 1.334 . S
C299 H276 0.950 . S
C299 C298 1.334 . S
C299 C300 1.287 . S
C300 C299 1.287 . S
C300 C301 1.524 . S
C300 H319 0.913 . S
C301 H277 0.950 . S
C301 C300 1.524 . S
C301 C302 1.415 . S
C302 H278 0.950 . S
C302 C297 1.363 . S
C302 C301 1.415 . S
C303 H279 0.951 . S
C303 C304 1.366 . S
C303 C305 1.388 . S
C304 C303 1.366 . S
C304 C308 1.385 . S
C305 H280 0.951 . S
C305 C303 1.388 . S
C305 C306 1.366 . S
C306 C305 1.366 . S
C306 C307 1.414 . S
C306 C309 1.499 . S
C307 H281 0.950 . S
C307 C306 1.414 . S
C307 C308 1.374 . S
C308 H282 0.950 . S
C308 C304 1.385 . S
C308 C307 1.374 . S
C309 C306 1.499 . S
C309 C310 1.373 . S
C309 C311 1.389 . S
C310 H283 0.950 . S
C310 C296 1.377 . S
C310 C309 1.373 . S
C311 C295 1.377 . S
C311 C309 1.389 . S
C311 C312 1.524 . S
C312 C311 1.524 . S
C312 C313 1.397 . S
C312 C317 1.363 . S
C313 H284 0.950 . S
C313 C312 1.397 . S
C313 C314 1.334 . S
C314 H285 0.950 . S
C314 C313 1.334 . S
C314 C315 1.287 . S
C315 C314 1.287 . S
C315 C316 1.524 . S
C315 H318 0.999 . S
C316 H286 0.950 . S
C316 C315 1.524 . S
C316 C317 1.415 . S
C317 H287 0.950 . S
C317 C312 1.363 . S
C317 C316 1.415 . S
H318 C315 0.999 . S
H319 C300 0.913 . S
H320 C338 0.951 . S
H321 C340 0.951 . S
H322 C342 0.950 . S
H323 C343 0.950 . S
H324 C345 0.950 . S
H325 C348 0.950 . S
H326 C349 0.950 . S
H327 C351 0.950 . S
H328 C352 0.950 . S
H329 C353 0.951 . S
H330 C355 0.951 . S
H331 C357 0.950 . S
H332 C358 0.950 . S
H333 C360 0.950 . S
H334 C363 0.950 . S
H335 C364 0.950 . S
H336 C366 0.950 . S
H337 C367 0.950 . S
C338 H320 0.951 . S
C338 C339 1.366 . S
C338 C340 1.388 . S
C339 C338 1.366 . S
C339 C343 1.385 . S
C340 H321 0.951 . S
C340 C338 1.388 . S
C340 C341 1.366 . S
C341 C340 1.366 . S
C341 C342 1.414 . S
C341 C344 1.499 . S
C342 H322 0.950 . S
C342 C341 1.414 . S
C342 C343 1.374 . S
C343 H323 0.950 . S
C343 C339 1.385 . S
C343 C342 1.374 . S
C344 C341 1.499 . S
C344 C345 1.373 . S
C344 C346 1.389 . S
C345 H324 0.950 . S
C345 C344 1.373 . S
C345 C361 1.377 . S
C346 C344 1.389 . S
C346 C347 1.524 . S
C346 C360 1.377 . S
C347 C346 1.524 . S
C347 C348 1.397 . S
C347 C352 1.363 . S
C348 H325 0.950 . S
C348 C347 1.397 . S
C348 C349 1.334 . S
C349 H326 0.950 . S
C349 C348 1.334 . S
C349 C350 1.287 . S
C350 C349 1.287 . S
C350 C351 1.524 . S
C350 H369 0.913 . S
C351 H327 0.950 . S
C351 C350 1.524 . S
C351 C352 1.415 . S
C352 H328 0.950 . S
C352 C347 1.363 . S
C352 C351 1.415 . S
C353 H329 0.951 . S
C353 C354 1.366 . S
C353 C355 1.388 . S
C354 C353 1.366 . S
C354 C358 1.385 . S
C355 H330 0.951 . S
C355 C353 1.388 . S
C355 C356 1.366 1_655 S
C356 C355 1.366 1_455 S
C356 C357 1.414 . S
C356 C359 1.499 . S
C357 H331 0.950 . S
C357 C356 1.414 . S
C357 C358 1.374 1_455 S
C358 H332 0.950 . S
C358 C354 1.385 . S
C358 C357 1.374 1_655 S
C359 C356 1.499 . S
C359 C360 1.373 . S
C359 C361 1.389 . S
C360 H333 0.950 . S
C360 C346 1.377 . S
C360 C359 1.373 . S
C361 C345 1.377 . S
C361 C359 1.389 . S
C361 C362 1.524 1_455 S
C362 C361 1.524 1_655 S
C362 C363 1.397 . S
C362 C367 1.363 . S
C363 H334 0.950 . S
C363 C362 1.397 . S
C363 C364 1.334 . S
C364 H335 0.950 . S
C364 C363 1.334 . S
C364 C365 1.287 . S
C365 C364 1.287 . S
C365 C366 1.524 . S
C365 H368 0.999 . S
C366 H336 0.950 . S
C366 C365 1.524 . S
C366 C367 1.415 . S
C367 H337 0.950 . S
C367 C362 1.363 . S
C367 C366 1.415 . S
H368 C365 0.999 . S
H369 C350 0.913 . S
H370 C388 0.951 . S
H371 C390 0.951 . S
H372 C392 0.950 . S
H373 C393 0.950 . S
H374 C395 0.950 . S
H375 C398 0.950 . S
H376 C399 0.950 . S
H377 C401 0.950 . S
H378 C402 0.950 . S
H379 C403 0.951 . S
H380 C405 0.951 . S
H381 C407 0.950 . S
H382 C408 0.950 . S
H383 C410 0.950 . S
H384 C413 0.950 1_565 S
H385 C414 0.950 . S
H386 C416 0.950 . S
H387 C417 0.950 . S
C388 H370 0.951 . S
C388 C389 1.366 . S
C388 C390 1.388 . S
C389 C388 1.366 . S
C389 C393 1.385 . S
C390 H371 0.951 . S
C390 C388 1.388 . S
C390 C391 1.366 . S
C391 C390 1.366 . S
C391 C392 1.414 . S
C391 C394 1.499 1_545 S
C392 H372 0.950 . S
C392 C391 1.414 . S
C392 C393 1.374 . S
C393 H373 0.950 . S
C393 C389 1.385 . S
C393 C392 1.374 . S
C394 C391 1.499 1_565 S
C394 C395 1.373 1_565 S
C394 C396 1.389 . S
C395 H374 0.950 . S
C395 C394 1.373 1_545 S
C395 C411 1.377 1_545 S
C396 C394 1.389 . S
C396 C397 1.524 . S
C396 C410 1.377 . S
C397 C396 1.524 . S
C397 C398 1.397 . S
C397 C402 1.363 . S
C398 H375 0.950 . S
C398 C397 1.397 . S
C398 C399 1.334 . S
C399 H376 0.950 . S
C399 C398 1.334 . S
C399 C400 1.287 . S
C400 C399 1.287 . S
C400 C401 1.524 . S
C400 H419 0.913 . S
C401 H377 0.950 . S
C401 C400 1.524 . S
C401 C402 1.415 . S
C402 H378 0.950 . S
C402 C397 1.363 . S
C402 C401 1.415 . S
C403 H379 0.951 . S
C403 C404 1.366 . S
C403 C405 1.388 . S
C404 C403 1.366 . S
C404 C408 1.385 . S
C405 H380 0.951 . S
C405 C403 1.388 . S
C405 C406 1.366 . S
C406 C405 1.366 . S
C406 C407 1.414 . S
C406 C409 1.499 . S
C407 H381 0.950 . S
C407 C406 1.414 . S
C407 C408 1.374 . S
C408 H382 0.950 . S
C408 C404 1.385 . S
C408 C407 1.374 . S
C409 C406 1.499 . S
C409 C410 1.373 . S
C409 C411 1.389 . S
C410 H383 0.950 . S
C410 C396 1.377 . S
C410 C409 1.373 . S
C411 C395 1.377 1_565 S
C411 C409 1.389 . S
C411 C412 1.524 1_565 S
C412 C411 1.524 1_545 S
C412 C413 1.397 . S
C412 C417 1.363 . S
C413 H384 0.950 1_545 S
C413 C412 1.397 . S
C413 C414 1.334 . S
C414 H385 0.950 . S
C414 C413 1.334 . S
C414 C415 1.287 . S
C415 C414 1.287 . S
C415 C416 1.524 . S
C415 H418 0.999 . S
C416 H386 0.950 . S
C416 C415 1.524 . S
C416 C417 1.415 . S
C417 H387 0.950 . S
C417 C412 1.363 . S
C417 C416 1.415 . S
H418 C415 0.999 . S
H419 C400 0.913 . S
H420 C438 0.951 . S
H421 C440 0.951 . S
H422 C442 0.950 . S
H423 C443 0.950 . S
H424 C445 0.950 . S
H425 C448 0.950 . S
H426 C449 0.950 . S
H427 C451 0.950 . S
H428 C452 0.950 . S
H429 C453 0.951 . S
H430 C455 0.951 . S
H431 C457 0.950 . S
H432 C458 0.950 . S
H433 C460 0.950 . S
H434 C463 0.950 . S
H435 C464 0.950 . S
H436 C466 0.950 1_545 S
H437 C467 0.950 . S
C438 H420 0.951 . S
C438 C439 1.366 . S
C438 C440 1.388 . S
C439 C438 1.366 . S
C439 C443 1.385 . S
C440 H421 0.951 . S
C440 C438 1.388 . S
C440 C441 1.366 . S
C441 C440 1.366 . S
C441 C442 1.414 . S
C441 C444 1.499 . S
C442 H422 0.950 . S
C442 C441 1.414 . S
C442 C443 1.374 . S
C443 H423 0.950 . S
C443 C439 1.385 . S
C443 C442 1.374 . S
C444 C441 1.499 . S
C444 C445 1.373 . S
C444 C446 1.389 . S
C445 H424 0.950 . S
C445 C444 1.373 . S
C445 C461 1.377 . S
C446 C444 1.389 . S
C446 C447 1.524 . S
C446 C460 1.377 . S
C447 C446 1.524 . S
C447 C448 1.397 . S
C447 C452 1.363 . S
C448 H425 0.950 . S
C448 C447 1.397 . S
C448 C449 1.334 . S
C449 H426 0.950 . S
C449 C448 1.334 . S
C449 C450 1.287 . S
C450 C449 1.287 . S
C450 C451 1.524 . S
C450 H469 0.913 . S
C451 H427 0.950 . S
C451 C450 1.524 . S
C451 C452 1.415 . S
C452 H428 0.950 . S
C452 C447 1.363 . S
C452 C451 1.415 . S
C453 H429 0.951 . S
C453 C454 1.366 . S
C453 C455 1.388 . S
C454 C453 1.366 . S
C454 C458 1.385 . S
C455 H430 0.951 . S
C455 C453 1.388 . S
C455 C456 1.366 . S
C456 C455 1.366 . S
C456 C457 1.414 . S
C456 C459 1.499 . S
C457 H431 0.950 . S
C457 C456 1.414 . S
C457 C458 1.374 . S
C458 H432 0.950 . S
C458 C454 1.385 . S
C458 C457 1.374 . S
C459 C456 1.499 . S
C459 C460 1.373 . S
C459 C461 1.389 . S
C460 H433 0.950 . S
C460 C446 1.377 . S
C460 C459 1.373 . S
C461 C445 1.377 . S
C461 C459 1.389 . S
C461 C462 1.524 . S
C462 C461 1.524 . S
C462 C463 1.397 . S
C462 C467 1.363 . S
C463 H434 0.950 . S
C463 C462 1.397 . S
C463 C464 1.334 . S
C464 H435 0.950 . S
C464 C463 1.334 . S
C464 C465 1.287 . S
C465 C464 1.287 . S
C465 C466 1.524 . S
C465 H468 0.999 . S
C466 H436 0.950 1_565 S
C466 C465 1.524 . S
C466 C467 1.415 . S
C467 H437 0.950 . S
C467 C462 1.363 . S
C467 C466 1.415 . S
H468 C465 0.999 . S
H469 C450 0.913 . S
H470 C488 0.955 . S
H471 C490 0.951 . S
H472 C492 0.950 . S
H473 C493 0.950 . S
H474 C495 0.950 . S
H475 C498 0.950 . S
H476 C499 0.950 . S
H477 C501 0.950 1_545 S
H478 C502 0.950 . S
H479 C503 0.951 . S
H480 C505 0.951 . S
H481 C507 0.950 . S
H482 C508 0.950 . S
H483 C510 0.950 . S
H484 C513 0.950 . S
H485 C514 0.950 . S
H486 C516 0.950 1_655 S
H487 C517 0.950 1_655 S
C488 H470 0.955 . S
C488 C489 1.355 1_455 S
C488 C490 1.394 . S
C489 C488 1.355 1_655 S
C489 C493 1.385 . S
C490 H471 0.951 . S
C490 C488 1.394 . S
C490 C491 1.366 . S
C491 C490 1.366 . S
C491 C492 1.414 1_455 S
C491 C494 1.499 . S
C492 H472 0.950 . S
C492 C491 1.414 1_655 S
C492 C493 1.374 . S
C493 H473 0.950 . S
C493 C489 1.385 . S
C493 C492 1.374 . S
C494 C491 1.499 . S
C494 C495 1.373 . S
C494 C496 1.389 . S
C495 H474 0.950 . S
C495 C494 1.373 . S
C495 C511 1.377 . S
C496 C494 1.389 . S
C496 C497 1.524 . S
C496 C510 1.377 . S
C497 C496 1.524 . S
C497 C498 1.397 . S
C497 C502 1.363 . S
C498 H475 0.950 . S
C498 C497 1.397 . S
C498 C499 1.334 . S
C499 H476 0.950 . S
C499 C498 1.334 . S
C499 C500 1.287 . S
C500 C499 1.287 . S
C500 C501 1.524 . S
C500 H519 0.913 1_565 S
C501 H477 0.950 1_565 S
C501 C500 1.524 . S
C501 C502 1.415 . S
C502 H478 0.950 . S
C502 C497 1.363 . S
C502 C501 1.415 . S
C503 H479 0.951 . S
C503 C504 1.366 . S
C503 C505 1.388 . S
C504 C503 1.366 . S
C504 C508 1.385 . S
C505 H480 0.951 . S
C505 C503 1.388 . S
C505 C506 1.366 . S
C506 C505 1.366 . S
C506 C507 1.414 . S
C506 C509 1.499 . S
C507 H481 0.950 . S
C507 C506 1.414 . S
C507 C508 1.374 . S
C508 H482 0.950 . S
C508 C504 1.385 . S
C508 C507 1.374 . S
C509 C506 1.499 . S
C509 C510 1.373 . S
C509 C511 1.389 . S
C510 H483 0.950 . S
C510 C496 1.377 . S
C510 C509 1.373 . S
C511 C495 1.377 . S
C511 C509 1.389 . S
C511 C512 1.524 . S
C512 C511 1.524 . S
C512 C513 1.397 . S
C512 C517 1.363 . S
C513 H484 0.950 . S
C513 C512 1.397 . S
C513 C514 1.334 . S
C514 H485 0.950 . S
C514 C513 1.334 . S
C514 C515 1.287 . S
C515 C514 1.287 . S
C515 C516 1.524 . S
C515 H518 0.999 . S
C516 H486 0.950 1_455 S
C516 C515 1.524 . S
C516 C517 1.415 . S
C517 H487 0.950 1_455 S
C517 C512 1.363 . S
C517 C516 1.415 . S
H518 C515 0.999 . S
H519 C500 0.913 1_545 S
H520 C538 0.951 . S
H521 C540 0.951 . S
H522 C542 0.950 . S
H523 C543 0.950 . S
H524 C545 0.950 . S
H525 C548 0.950 . S
H526 C549 0.950 . S
H527 C551 0.950 . S
H528 C552 0.950 . S
H529 C553 0.951 . S
H530 C555 0.951 . S
H531 C557 0.950 1_565 S
H532 C558 0.950 . S
H533 C560 0.950 . S
H534 C563 0.950 . S
H535 C564 0.950 . S
H536 C566 0.950 . S
H537 C567 0.950 . S
C538 H520 0.951 . S
C538 C539 1.366 . S
C538 C540 1.388 . S
C539 C538 1.366 . S
C539 C543 1.385 . S
C540 H521 0.951 . S
C540 C538 1.388 . S
C540 C541 1.366 . S
C541 C540 1.366 . S
C541 C542 1.414 . S
C541 C544 1.499 . S
C542 H522 0.950 . S
C542 C541 1.414 . S
C542 C543 1.374 . S
C543 H523 0.950 . S
C543 C539 1.385 . S
C543 C542 1.374 . S
C544 C541 1.499 . S
C544 C545 1.373 . S
C544 C546 1.389 . S
C545 H524 0.950 . S
C545 C544 1.373 . S
C545 C561 1.377 . S
C546 C544 1.389 . S
C546 C547 1.524 . S
C546 C560 1.377 . S
C547 C546 1.524 . S
C547 C548 1.397 . S
C547 C552 1.363 . S
C548 H525 0.950 . S
C548 C547 1.397 . S
C548 C549 1.334 . S
C549 H526 0.950 . S
C549 C548 1.334 . S
C549 C550 1.287 . S
C550 C549 1.287 . S
C550 C551 1.524 . S
C550 H569 0.913 . S
C551 H527 0.950 . S
C551 C550 1.524 . S
C551 C552 1.415 . S
C552 H528 0.950 . S
C552 C547 1.363 . S
C552 C551 1.415 . S
C553 H529 0.951 . S
C553 C554 1.366 . S
C553 C555 1.388 . S
C554 C553 1.366 . S
C554 C558 1.385 . S
C555 H530 0.951 . S
C555 C553 1.388 . S
C555 C556 1.366 . S
C556 C555 1.366 . S
C556 C557 1.414 . S
C556 C559 1.499 1_545 S
C557 H531 0.950 1_545 S
C557 C556 1.414 . S
C557 C558 1.374 . S
C558 H532 0.950 . S
C558 C554 1.385 . S
C558 C557 1.374 . S
C559 C556 1.499 1_565 S
C559 C560 1.373 . S
C559 C561 1.389 . S
C560 H533 0.950 . S
C560 C546 1.377 . S
C560 C559 1.373 . S
C561 C545 1.377 . S
C561 C559 1.389 . S
C561 C562 1.524 . S
C562 C561 1.524 . S
C562 C563 1.397 . S
C562 C567 1.363 1_565 S
C563 H534 0.950 . S
C563 C562 1.397 . S
C563 C564 1.334 . S
C564 H535 0.950 . S
C564 C563 1.334 . S
C564 C565 1.287 . S
C565 C564 1.287 . S
C565 C566 1.524 1_565 S
C565 H568 0.999 . S
C566 H536 0.950 . S
C566 C565 1.524 1_545 S
C566 C567 1.415 . S
C567 H537 0.950 . S
C567 C562 1.363 1_545 S
C567 C566 1.415 . S
H568 C565 0.999 . S
H569 C550 0.913 . S
H570 C588 0.951 . S
H571 C590 0.951 . S
H572 C592 0.950 . S
H573 C593 0.950 . S
H574 C595 0.950 . S
H575 C598 0.950 1_554 S
H576 C599 0.950 . S
H577 C601 0.950 . S
H578 C602 0.950 . S
H579 C603 0.951 . S
H580 C605 0.951 . S
H581 C607 0.950 . S
H582 C608 0.950 . S
H583 C610 0.950 . S
H584 C613 0.950 . S
H585 C614 0.950 . S
H586 C616 0.950 . S
H587 C617 0.950 . S
C588 H570 0.951 . S
C588 C589 1.366 1_556 S
C588 C590 1.388 . S
C589 C588 1.366 1_554 S
C589 C593 1.385 . S
C590 H571 0.951 . S
C590 C588 1.388 . S
C590 C591 1.366 1_556 S
C591 C590 1.366 1_554 S
C591 C592 1.414 . S
C591 C594 1.499 . S
C592 H572 0.950 . S
C592 C591 1.414 . S
C592 C593 1.374 . S
C593 H573 0.950 . S
C593 C589 1.385 . S
C593 C592 1.374 . S
C594 C591 1.499 . S
C594 C595 1.373 . S
C594 C596 1.389 1_544 S
C595 H574 0.950 . S
C595 C594 1.373 . S
C595 C611 1.377 . S
C596 C594 1.389 1_566 S
C596 C597 1.524 . S
C596 C610 1.377 . S
C597 C596 1.524 . S
C597 C598 1.397 . S
C597 C602 1.363 . S
C598 H575 0.950 1_556 S
C598 C597 1.397 . S
C598 C599 1.334 . S
C599 H576 0.950 . S
C599 C598 1.334 . S
C599 C600 1.287 . S
C600 C599 1.287 . S
C600 C601 1.524 . S
C600 H619 0.913 . S
C601 H577 0.950 . S
C601 C600 1.524 . S
C601 C602 1.415 . S
C602 H578 0.950 . S
C602 C597 1.363 . S
C602 C601 1.415 . S
C603 H579 0.951 . S
C603 C604 1.366 . S
C603 C605 1.388 . S
C604 C603 1.366 . S
C604 C608 1.385 1_554 S
C605 H580 0.951 . S
C605 C603 1.388 . S
C605 C606 1.366 . S
C606 C605 1.366 . S
C606 C607 1.414 1_554 S
C606 C609 1.499 . S
C607 H581 0.950 . S
C607 C606 1.414 1_556 S
C607 C608 1.374 . S
C608 H582 0.950 . S
C608 C604 1.385 1_556 S
C608 C607 1.374 . S
C609 C606 1.499 . S
C609 C610 1.373 1_544 S
C609 C611 1.389 . S
C610 H583 0.950 . S
C610 C596 1.377 . S
C610 C609 1.373 1_566 S
C611 C595 1.377 . S
C611 C609 1.389 . S
C611 C612 1.524 . S
C612 C611 1.524 . S
C612 C613 1.397 . S
C612 C617 1.363 . S
C613 H584 0.950 . S
C613 C612 1.397 . S
C613 C614 1.334 . S
C614 H585 0.950 . S
C614 C613 1.334 . S
C614 C615 1.287 . S
C615 C614 1.287 . S
C615 C616 1.524 . S
C615 H618 0.999 . S
C616 H586 0.950 . S
C616 C615 1.524 . S
C616 C617 1.415 . S
C617 H587 0.950 . S
C617 C612 1.363 . S
C617 C616 1.415 . S
H618 C615 0.999 . S
H619 C600 0.913 . S
H620 C638 0.951 . S
H621 C640 0.951 . S
H622 C642 0.950 . S
H623 C643 0.950 . S
H624 C645 0.950 . S
H625 C648 0.950 . S
H626 C649 0.950 . S
H627 C651 0.950 . S
H628 C652 0.950 . S
H629 C653 0.951 . S
H630 C655 0.951 . S
H631 C657 0.950 . S
H632 C658 0.950 . S
H633 C660 0.950 . S
H634 C663 0.950 . S
H635 C664 0.950 . S
H636 C666 0.950 . S
H637 C667 0.950 . S
C638 H620 0.951 . S
C638 C639 1.366 . S
C638 C640 1.388 . S
C639 C638 1.366 . S
C639 C643 1.385 . S
C640 H621 0.951 . S
C640 C638 1.388 . S
C640 C641 1.366 . S
C641 C640 1.366 . S
C641 C642 1.414 . S
C641 C644 1.499 . S
C642 H622 0.950 . S
C642 C641 1.414 . S
C642 C643 1.374 . S
C643 H623 0.950 . S
C643 C639 1.385 . S
C643 C642 1.374 . S
C644 C641 1.499 . S
C644 C645 1.373 . S
C644 C646 1.389 . S
C645 H624 0.950 . S
C645 C644 1.373 . S
C645 C661 1.377 . S
C646 C644 1.389 . S
C646 C647 1.524 . S
C646 C660 1.377 . S
C647 C646 1.524 . S
C647 C648 1.397 . S
C647 C652 1.363 . S
C648 H625 0.950 . S
C648 C647 1.397 . S
C648 C649 1.334 . S
C649 H626 0.950 . S
C649 C648 1.334 . S
C649 C650 1.287 . S
C650 C649 1.287 . S
C650 C651 1.524 . S
C650 H669 0.913 . S
C651 H627 0.950 . S
C651 C650 1.524 . S
C651 C652 1.415 . S
C652 H628 0.950 . S
C652 C647 1.363 . S
C652 C651 1.415 . S
C653 H629 0.951 . S
C653 C654 1.366 . S
C653 C655 1.388 . S
C654 C653 1.366 . S
C654 C658 1.385 . S
C655 H630 0.951 . S
C655 C653 1.388 . S
C655 C656 1.366 . S
C656 C655 1.366 . S
C656 C657 1.414 . S
C656 C659 1.499 . S
C657 H631 0.950 . S
C657 C656 1.414 . S
C657 C658 1.374 . S
C658 H632 0.950 . S
C658 C654 1.385 . S
C658 C657 1.374 . S
C659 C656 1.499 . S
C659 C660 1.373 . S
C659 C661 1.389 . S
C660 H633 0.950 . S
C660 C646 1.377 . S
C660 C659 1.373 . S
C661 C645 1.377 . S
C661 C659 1.389 . S
C661 C662 1.524 . S
C662 C661 1.524 . S
C662 C663 1.397 . S
C662 C667 1.363 . S
C663 H634 0.950 . S
C663 C662 1.397 . S
C663 C664 1.334 . S
C664 H635 0.950 . S
C664 C663 1.334 . S
C664 C665 1.287 . S
C665 C664 1.287 . S
C665 C666 1.524 . S
C665 H668 0.999 . S
C666 H636 0.950 . S
C666 C665 1.524 . S
C666 C667 1.415 . S
C667 H637 0.950 . S
C667 C662 1.363 . S
C667 C666 1.415 . S
H668 C665 0.999 . S
H669 C650 0.913 . S
H670 C688 0.951 . S
H671 C690 0.951 . S
H672 C692 0.950 . S
H673 C693 0.950 . S
H674 C695 0.950 . S
H675 C698 0.950 . S
H676 C699 0.950 . S
H677 C701 0.950 . S
H678 C702 0.950 . S
H679 C703 0.951 . S
H680 C705 0.951 . S
H681 C707 0.950 . S
H682 C708 0.950 . S
H683 C710 0.950 . S
H684 C713 0.950 . S
H685 C714 0.950 . S
H686 C716 0.950 . S
H687 C717 0.950 . S
C688 H670 0.951 . S
C688 C689 1.366 1_655 S
C688 C690 1.388 . S
C689 C688 1.366 1_455 S
C689 C693 1.385 . S
C690 H671 0.951 . S
C690 C688 1.388 . S
C690 C691 1.366 1_655 S
C691 C690 1.366 1_455 S
C691 C692 1.414 . S
C691 C694 1.499 . S
C692 H672 0.950 . S
C692 C691 1.414 . S
C692 C693 1.374 . S
C693 H673 0.950 . S
C693 C689 1.385 . S
C693 C692 1.374 . S
C694 C691 1.499 . S
C694 C695 1.373 . S
C694 C696 1.389 1_455 S
C695 H674 0.950 . S
C695 C694 1.373 . S
C695 C711 1.377 . S
C696 C694 1.389 1_655 S
C696 C697 1.524 . S
C696 C710 1.377 . S
C697 C696 1.524 . S
C697 C698 1.397 . S
C697 C702 1.363 . S
C698 H675 0.950 . S
C698 C697 1.397 . S
C698 C699 1.334 . S
C699 H676 0.950 . S
C699 C698 1.334 . S
C699 C700 1.287 . S
C700 C699 1.287 . S
C700 C701 1.524 . S
C700 H719 0.913 . S
C701 H677 0.950 . S
C701 C700 1.524 . S
C701 C702 1.415 . S
C702 H678 0.950 . S
C702 C697 1.363 . S
C702 C701 1.415 . S
C703 H679 0.951 . S
C703 C704 1.366 . S
C703 C705 1.388 . S
C704 C703 1.366 . S
C704 C708 1.385 1_455 S
C705 H680 0.951 . S
C705 C703 1.388 . S
C705 C706 1.366 . S
C706 C705 1.366 . S
C706 C707 1.414 1_455 S
C706 C709 1.499 . S
C707 H681 0.950 . S
C707 C706 1.414 1_655 S
C707 C708 1.374 . S
C708 H682 0.950 . S
C708 C704 1.385 1_655 S
C708 C707 1.374 . S
C709 C706 1.499 . S
C709 C710 1.373 1_455 S
C709 C711 1.389 . S
C710 H683 0.950 . S
C710 C696 1.377 . S
C710 C709 1.373 1_655 S
C711 C695 1.377 . S
C711 C709 1.389 . S
C711 C712 1.524 . S
C712 C711 1.524 . S
C712 C713 1.397 . S
C712 C717 1.363 . S
C713 H684 0.950 . S
C713 C712 1.397 . S
C713 C714 1.334 . S
C714 H685 0.950 . S
C714 C713 1.334 . S
C714 C715 1.287 . S
C715 C714 1.287 . S
C715 C716 1.524 . S
C715 H718 0.999 . S
C716 H686 0.950 . S
C716 C715 1.524 . S
C716 C717 1.415 . S
C717 H687 0.950 . S
C717 C712 1.363 . S
C717 C716 1.415 . S
H718 C715 0.999 . S
H719 C700 0.913 . S
H720 C738 0.951 . S
H721 C740 0.951 . S
H722 C742 0.950 . S
H723 C743 0.950 . S
H724 C745 0.950 . S
H725 C748 0.950 . S
H726 C749 0.950 . S
H727 C751 0.950 . S
H728 C752 0.950 . S
H729 C753 0.951 . S
H730 C755 0.951 . S
H731 C757 0.950 . S
H732 C758 0.950 . S
H733 C760 0.950 . S
H734 C763 0.950 . S
H735 C764 0.950 . S
H736 C766 0.950 . S
H737 C767 0.950 . S
C738 H720 0.951 . S
C738 C739 1.366 . S
C738 C740 1.388 . S
C739 C738 1.366 . S
C739 C743 1.385 . S
C740 H721 0.951 . S
C740 C738 1.388 . S
C740 C741 1.366 . S
C741 C740 1.366 . S
C741 C742 1.414 . S
C741 C744 1.499 . S
C742 H722 0.950 . S
C742 C741 1.414 . S
C742 C743 1.374 . S
C743 H723 0.950 . S
C743 C739 1.385 . S
C743 C742 1.374 . S
C744 C741 1.499 . S
C744 C745 1.373 . S
C744 C746 1.389 . S
C745 H724 0.950 . S
C745 C744 1.373 . S
C745 C761 1.377 . S
C746 C744 1.389 . S
C746 C747 1.524 . S
C746 C760 1.377 . S
C747 C746 1.524 . S
C747 C748 1.397 . S
C747 C752 1.363 . S
C748 H725 0.950 . S
C748 C747 1.397 . S
C748 C749 1.334 . S
C749 H726 0.950 . S
C749 C748 1.334 . S
C749 C750 1.287 . S
C750 C749 1.287 . S
C750 C751 1.524 . S
C750 H769 0.913 . S
C751 H727 0.950 . S
C751 C750 1.524 . S
C751 C752 1.415 . S
C752 H728 0.950 . S
C752 C747 1.363 . S
C752 C751 1.415 . S
C753 H729 0.951 . S
C753 C754 1.366 . S
C753 C755 1.388 . S
C754 C753 1.366 . S
C754 C758 1.385 . S
C755 H730 0.951 . S
C755 C753 1.388 . S
C755 C756 1.366 . S
C756 C755 1.366 . S
C756 C757 1.414 . S
C756 C759 1.499 . S
C757 H731 0.950 . S
C757 C756 1.414 . S
C757 C758 1.374 . S
C758 H732 0.950 . S
C758 C754 1.385 . S
C758 C757 1.374 . S
C759 C756 1.499 . S
C759 C760 1.373 . S
C759 C761 1.389 . S
C760 H733 0.950 . S
C760 C746 1.377 . S
C760 C759 1.373 . S
C761 C745 1.377 . S
C761 C759 1.389 . S
C761 C762 1.524 . S
C762 C761 1.524 . S
C762 C763 1.397 . S
C762 C767 1.363 . S
C763 H734 0.950 . S
C763 C762 1.397 . S
C763 C764 1.334 . S
C764 H735 0.950 . S
C764 C763 1.334 . S
C764 C765 1.287 . S
C765 C764 1.287 . S
C765 C766 1.524 . S
C765 H768 0.999 . S
C766 H736 0.950 . S
C766 C765 1.524 . S
C766 C767 1.415 . S
C767 H737 0.950 . S
C767 C762 1.363 . S
C767 C766 1.415 . S
H768 C765 0.999 . S
H769 C750 0.913 . S
H770 C788 0.951 . S
H771 C790 0.951 . S
H772 C792 0.950 . S
H773 C793 0.950 . S
H774 C795 0.950 . S
H775 C798 0.950 . S
H776 C799 0.950 . S
H777 C801 0.950 . S
H778 C802 0.950 . S
H779 C803 0.951 . S
H780 C805 0.951 . S
H781 C807 0.950 . S
H782 C808 0.950 . S
H783 C810 0.950 . S
H784 C813 0.950 . S
H785 C814 0.950 . S
H786 C816 0.950 . S
H787 C817 0.950 . S
C788 H770 0.951 . S
C788 C789 1.366 . S
C788 C790 1.388 . S
C789 C788 1.366 . S
C789 C793 1.385 . S
C790 H771 0.951 . S
C790 C788 1.388 . S
C790 C791 1.366 . S
C791 C790 1.366 . S
C791 C792 1.414 . S
C791 C794 1.499 . S
C792 H772 0.950 . S
C792 C791 1.414 . S
C792 C793 1.374 . S
C793 H773 0.950 . S
C793 C789 1.385 . S
C793 C792 1.374 . S
C794 C791 1.499 . S
C794 C795 1.373 . S
C794 C796 1.389 . S
C795 H774 0.950 . S
C795 C794 1.373 . S
C795 C811 1.377 . S
C796 C794 1.389 . S
C796 C797 1.524 . S
C796 C810 1.377 . S
C797 C796 1.524 . S
C797 C798 1.397 . S
C797 C802 1.363 . S
C798 H775 0.950 . S
C798 C797 1.397 . S
C798 C799 1.334 . S
C799 H776 0.950 . S
C799 C798 1.334 . S
C799 C800 1.287 . S
C800 C799 1.287 . S
C800 C801 1.524 . S
C800 H819 0.913 . S
C801 H777 0.950 . S
C801 C800 1.524 . S
C801 C802 1.415 . S
C802 H778 0.950 . S
C802 C797 1.363 . S
C802 C801 1.415 . S
C803 H779 0.951 . S
C803 C804 1.366 . S
C803 C805 1.388 . S
C804 C803 1.366 . S
C804 C808 1.385 . S
C805 H780 0.951 . S
C805 C803 1.388 . S
C805 C806 1.366 . S
C806 C805 1.366 . S
C806 C807 1.414 . S
C806 C809 1.499 . S
C807 H781 0.950 . S
C807 C806 1.414 . S
C807 C808 1.374 . S
C808 H782 0.950 . S
C808 C804 1.385 . S
C808 C807 1.374 . S
C809 C806 1.499 . S
C809 C810 1.373 . S
C809 C811 1.389 . S
C810 H783 0.950 . S
C810 C796 1.377 . S
C810 C809 1.373 . S
C811 C795 1.377 . S
C811 C809 1.389 . S
C811 C812 1.524 . S
C812 C811 1.524 . S
C812 C813 1.397 . S
C812 C817 1.363 . S
C813 H784 0.950 . S
C813 C812 1.397 . S
C813 C814 1.334 . S
C814 H785 0.950 . S
C814 C813 1.334 . S
C814 C815 1.287 . S
C815 C814 1.287 . S
C815 C816 1.524 . S
C815 H818 0.999 . S
C816 H786 0.950 . S
C816 C815 1.524 . S
C816 C817 1.415 . S
C817 H787 0.950 . S
C817 C812 1.363 . S
C817 C816 1.415 . S
H818 C815 0.999 . S
H819 C800 0.913 . S
H820 C838 0.951 . S
H821 C840 0.951 . S
H822 C842 0.950 . S
H823 C843 0.950 . S
H824 C845 0.950 . S
H825 C848 0.950 . S
H826 C849 0.950 . S
H827 C851 0.950 . S
H828 C852 0.950 . S
H829 C853 0.951 . S
H830 C855 0.951 . S
H831 C857 0.950 . S
H832 C858 0.950 . S
H833 C860 0.950 . S
H834 C863 0.950 . S
H835 C864 0.950 . S
H836 C866 0.950 . S
H837 C867 0.950 1_655 S
C838 H820 0.951 . S
C838 C839 1.366 . S
C838 C840 1.388 . S
C839 C838 1.366 . S
C839 C843 1.385 . S
C840 H821 0.951 . S
C840 C838 1.388 . S
C840 C841 1.366 . S
C841 C840 1.366 . S
C841 C842 1.414 . S
C841 C844 1.499 . S
C842 H822 0.950 . S
C842 C841 1.414 . S
C842 C843 1.374 . S
C843 H823 0.950 . S
C843 C839 1.385 . S
C843 C842 1.374 . S
C844 C841 1.499 . S
C844 C845 1.373 . S
C844 C846 1.389 . S
C845 H824 0.950 . S
C845 C844 1.373 . S
C845 C861 1.377 . S
C846 C844 1.389 . S
C846 C847 1.524 . S
C846 C860 1.377 . S
C847 C846 1.524 . S
C847 C848 1.397 . S
C847 C852 1.364 1_545 S
C848 H825 0.950 . S
C848 C847 1.397 . S
C848 C849 1.334 . S
C849 H826 0.950 . S
C849 C848 1.334 . S
C849 C850 1.287 1_545 S
C850 C849 1.287 1_565 S
C850 C851 1.524 . S
C850 H869 0.913 . S
C851 H827 0.950 . S
C851 C850 1.524 . S
C851 C852 1.414 . S
C852 H828 0.950 . S
C852 C847 1.364 1_565 S
C852 C851 1.414 . S
C853 H829 0.951 . S
C853 C854 1.366 . S
C853 C855 1.388 . S
C854 C853 1.366 . S
C854 C858 1.385 . S
C855 H830 0.951 . S
C855 C853 1.388 . S
C855 C856 1.366 . S
C856 C855 1.366 . S
C856 C857 1.414 . S
C856 C859 1.499 . S
C857 H831 0.950 . S
C857 C856 1.414 . S
C857 C858 1.374 . S
C858 H832 0.950 . S
C858 C854 1.385 . S
C858 C857 1.374 . S
C859 C856 1.499 . S
C859 C860 1.373 . S
C859 C861 1.389 . S
C860 H833 0.950 . S
C860 C846 1.377 . S
C860 C859 1.373 . S
C861 C845 1.377 . S
C861 C859 1.389 . S
C861 C862 1.524 . S
C862 C861 1.524 . S
C862 C863 1.397 1_655 S
C862 C867 1.363 1_655 S
C863 H834 0.950 . S
C863 C862 1.397 1_455 S
C863 C864 1.334 . S
C864 H835 0.950 . S
C864 C863 1.334 . S
C864 C865 1.287 . S
C865 C864 1.287 . S
C865 C866 1.524 . S
C865 H868 0.999 . S
C866 H836 0.950 . S
C866 C865 1.524 . S
C866 C867 1.415 . S
C867 H837 0.950 1_455 S
C867 C862 1.363 1_455 S
C867 C866 1.415 . S
H868 C865 0.999 . S
H869 C850 0.913 . S
H870 C888 0.951 . S
H871 C890 0.951 . S
H872 C892 0.950 . S
H873 C893 0.950 1_545 S
H874 C895 0.950 . S
H875 C898 0.950 . S
H876 C899 0.950 . S
H877 C901 0.950 . S
H878 C902 0.950 . S
H879 C903 0.951 . S
H880 C905 0.951 . S
H881 C907 0.950 . S
H882 C908 0.950 . S
H883 C910 0.950 . S
H884 C913 0.950 . S
H885 C914 0.950 . S
H886 C916 0.950 . S
H887 C917 0.950 1_545 S
C888 H870 0.951 . S
C888 C889 1.366 . S
C888 C890 1.388 . S
C889 C888 1.366 . S
C889 C893 1.385 . S
C890 H871 0.951 . S
C890 C888 1.388 . S
C890 C891 1.366 . S
C891 C890 1.366 . S
C891 C892 1.414 . S
C891 C894 1.499 . S
C892 H872 0.950 . S
C892 C891 1.414 . S
C892 C893 1.374 . S
C893 H873 0.950 1_565 S
C893 C889 1.385 . S
C893 C892 1.374 . S
C894 C891 1.499 . S
C894 C895 1.373 . S
C894 C896 1.389 . S
C895 H874 0.950 . S
C895 C894 1.373 . S
C895 C911 1.377 . S
C896 C894 1.389 . S
C896 C897 1.524 . S
C896 C910 1.377 . S
C897 C896 1.524 . S
C897 C898 1.397 . S
C897 C902 1.363 . S
C898 H875 0.950 . S
C898 C897 1.397 . S
C898 C899 1.334 . S
C899 H876 0.950 . S
C899 C898 1.334 . S
C899 C900 1.287 . S
C900 C899 1.287 . S
C900 C901 1.524 . S
C900 H919 0.913 . S
C901 H877 0.950 . S
C901 C900 1.524 . S
C901 C902 1.415 . S
C902 H878 0.950 . S
C902 C897 1.363 . S
C902 C901 1.415 . S
C903 H879 0.951 . S
C903 C904 1.366 . S
C903 C905 1.388 . S
C904 C903 1.366 . S
C904 C908 1.385 . S
C905 H880 0.951 . S
C905 C903 1.388 . S
C905 C906 1.366 . S
C906 C905 1.366 . S
C906 C907 1.414 . S
C906 C909 1.499 . S
C907 H881 0.950 . S
C907 C906 1.414 . S
C907 C908 1.374 . S
C908 H882 0.950 . S
C908 C904 1.385 . S
C908 C907 1.374 . S
C909 C906 1.499 . S
C909 C910 1.373 . S
C909 C911 1.389 . S
C910 H883 0.950 . S
C910 C896 1.377 . S
C910 C909 1.373 . S
C911 C895 1.377 . S
C911 C909 1.389 . S
C911 C912 1.524 . S
C912 C911 1.524 . S
C912 C913 1.397 . S
C912 C917 1.363 . S
C913 H884 0.950 . S
C913 C912 1.397 . S
C913 C914 1.334 . S
C914 H885 0.950 . S
C914 C913 1.334 . S
C914 C915 1.287 . S
C915 C914 1.287 . S
C915 C916 1.524 1_565 S
C915 H918 0.999 1_665 S
C916 H886 0.950 . S
C916 C915 1.524 1_545 S
C916 C917 1.415 1_545 S
C917 H887 0.950 1_565 S
C917 C912 1.363 . S
C917 C916 1.415 1_565 S
H918 C915 0.999 1_445 S
H919 C900 0.913 . S
H920 C938 0.951 . S
H921 C940 0.951 . S
H922 C942 0.950 . S
H923 C943 0.950 . S
H924 C945 0.950 . S
H925 C948 0.950 . S
H926 C949 0.950 . S
H927 C951 0.950 . S
H928 C952 0.950 . S
H929 C953 0.951 . S
H930 C955 0.951 . S
H931 C957 0.950 . S
H932 C958 0.950 . S
H933 C960 0.950 . S
H934 C963 0.950 . S
H935 C964 0.950 . S
H936 C966 0.950 . S
H937 C967 0.950 . S
C938 H920 0.951 . S
C938 C939 1.366 . S
C938 C940 1.388 . S
C939 C938 1.366 . S
C939 C943 1.385 . S
C940 H921 0.951 . S
C940 C938 1.388 . S
C940 C941 1.366 . S
C941 C940 1.366 . S
C941 C942 1.414 . S
C941 C944 1.499 . S
C942 H922 0.950 . S
C942 C941 1.414 . S
C942 C943 1.374 . S
C943 H923 0.950 . S
C943 C939 1.385 . S
C943 C942 1.374 . S
C944 C941 1.499 . S
C944 C945 1.373 . S
C944 C946 1.389 . S
C945 H924 0.950 . S
C945 C944 1.373 . S
C945 C961 1.377 . S
C946 C944 1.389 . S
C946 C947 1.524 . S
C946 C960 1.377 . S
C947 C946 1.524 . S
C947 C948 1.397 . S
C947 C952 1.363 . S
C948 H925 0.950 . S
C948 C947 1.397 . S
C948 C949 1.334 . S
C949 H926 0.950 . S
C949 C948 1.334 . S
C949 C950 1.287 . S
C950 C949 1.287 . S
C950 C951 1.524 . S
C950 H969 0.913 . S
C951 H927 0.950 . S
C951 C950 1.524 . S
C951 C952 1.415 . S
C952 H928 0.950 . S
C952 C947 1.363 . S
C952 C951 1.415 . S
C953 H929 0.951 . S
C953 C954 1.366 . S
C953 C955 1.388 . S
C954 C953 1.366 . S
C954 C958 1.385 . S
C955 H930 0.951 . S
C955 C953 1.388 . S
C955 C956 1.366 . S
C956 C955 1.366 . S
C956 C957 1.414 . S
C956 C959 1.499 . S
C957 H931 0.950 . S
C957 C956 1.414 . S
C957 C958 1.374 . S
C958 H932 0.950 . S
C958 C954 1.385 . S
C958 C957 1.374 . S
C959 C956 1.499 . S
C959 C960 1.373 . S
C959 C961 1.389 . S
C960 H933 0.950 . S
C960 C946 1.377 . S
C960 C959 1.373 . S
C961 C945 1.377 . S
C961 C959 1.389 . S
C961 C962 1.524 . S
C962 C961 1.524 . S
C962 C963 1.397 . S
C962 C967 1.363 1_655 S
C963 H934 0.950 . S
C963 C962 1.397 . S
C963 C964 1.334 . S
C964 H935 0.950 . S
C964 C963 1.334 . S
C964 C965 1.287 . S
C965 C964 1.287 . S
C965 C966 1.524 1_655 S
C965 H968 0.999 1_655 S
C966 H936 0.950 . S
C966 C965 1.524 1_455 S
C966 C967 1.415 . S
C967 H937 0.950 . S
C967 C962 1.363 1_455 S
C967 C966 1.415 . S
H968 C965 0.999 1_455 S
H969 C950 0.913 . S
H970 C988 0.951 . S
H971 C990 0.951 . S
H972 C992 0.950 . S
H973 C993 0.950 . S
H974 C995 0.950 . S
H975 C998 0.950 . S
H976 C999 0.950 . S
H977 C1001 0.950 . S
H978 C1002 0.950 . S
H979 C1003 0.951 . S
H980 C1005 0.951 . S
H981 C1007 0.950 . S
H982 C1008 0.950 . S
H983 C1010 0.950 . S
H984 C1013 0.950 1_545 S
H985 C1014 0.950 . S
H986 C1016 0.950 . S
H987 C1017 0.950 . S
C988 H970 0.951 . S
C988 C989 1.366 . S
C988 C990 1.388 . S
C989 C988 1.366 . S
C989 C993 1.385 . S
C990 H971 0.951 . S
C990 C988 1.388 . S
C990 C991 1.366 . S
C991 C990 1.366 . S
C991 C992 1.414 . S
C991 C994 1.499 . S
C992 H972 0.950 . S
C992 C991 1.414 . S
C992 C993 1.374 . S
C993 H973 0.950 . S
C993 C989 1.385 . S
C993 C992 1.374 . S
C994 C991 1.499 . S
C994 C995 1.373 . S
C994 C996 1.389 . S
C995 H974 0.950 . S
C995 C994 1.373 . S
C995 C1011 1.377 . S
C996 C994 1.389 . S
C996 C997 1.524 . S
C996 C1010 1.377 . S
C997 C996 1.524 . S
C997 C998 1.397 . S
C997 C1002 1.363 . S
C998 H975 0.950 . S
C998 C997 1.397 . S
C998 C999 1.334 . S
C999 H976 0.950 . S
C999 C998 1.334 . S
C999 C1000 1.287 . S
C1000 C999 1.287 . S
C1000 C1001 1.524 . S
C1000 H1019 0.913 . S
C1001 H977 0.950 . S
C1001 C1000 1.524 . S
C1001 C1002 1.415 . S
C1002 H978 0.950 . S
C1002 C997 1.363 . S
C1002 C1001 1.415 . S
C1003 H979 0.951 . S
C1003 C1004 1.366 . S
C1003 C1005 1.388 . S
C1004 C1003 1.366 . S
C1004 C1008 1.385 . S
C1005 H980 0.951 . S
C1005 C1003 1.388 . S
C1005 C1006 1.366 . S
C1006 C1005 1.366 . S
C1006 C1007 1.414 . S
C1006 C1009 1.499 . S
C1007 H981 0.950 . S
C1007 C1006 1.414 . S
C1007 C1008 1.374 . S
C1008 H982 0.950 . S
C1008 C1004 1.385 . S
C1008 C1007 1.374 . S
C1009 C1006 1.499 . S
C1009 C1010 1.373 . S
C1009 C1011 1.389 . S
C1010 H983 0.950 . S
C1010 C996 1.377 . S
C1010 C1009 1.373 . S
C1011 C995 1.377 . S
C1011 C1009 1.389 . S
C1011 C1012 1.524 . S
C1012 C1011 1.524 . S
C1012 C1013 1.397 . S
C1012 C1017 1.363 . S
C1013 H984 0.950 1_565 S
C1013 C1012 1.397 . S
C1013 C1014 1.334 1_565 S
C1014 H985 0.950 . S
C1014 C1013 1.334 1_545 S
C1014 C1015 1.287 . S
C1015 C1014 1.287 . S
C1015 C1016 1.524 1_545 S
C1015 H1018 0.999 . S
C1016 H986 0.950 . S
C1016 C1015 1.524 1_565 S
C1016 C1017 1.415 . S
C1017 H987 0.950 . S
C1017 C1012 1.363 . S
C1017 C1016 1.415 . S
H1018 C1015 0.999 . S
H1019 C1000 0.913 . S
C139 C78 1.565 . S
C154 C18 1.565 . S
C189 C98 1.565 . S
C204 C38 1.565 . S
C239 C118 1.559 1_455 S
C254 C58 1.569 1_455 S
C289 C9 1.618 . S
C304 C52 1.698 . S
C339 C32 1.698 . S
C354 C69 1.618 . S
C389 C49 1.618 . S
C404 C92 1.698 . S
C439 C72 1.698 . S
C454 C109 1.618 . S
C489 C89 1.618 . S
C504 C12 1.698 . S
C539 C112 1.697 . S
C554 C29 1.618 . S
C589 C19 0.828 . S
C604 C79 0.827 . S
C639 C39 0.827 . S
C654 C99 0.827 . S
C689 C59 0.828 . S
C704 C119 0.828 . S
C739 C4 0.830 . S
C754 C24 0.829 . S
C789 C22 0.973 . S
C804 C42 0.972 . S
C839 C44 0.829 . S
C854 C64 0.830 . S
C889 C62 0.973 . S
C904 C82 0.974 . S
C939 C84 0.833 . S
C954 C104 0.831 . S
C989 C102 0.973 . S
C1004 C2 0.974 . S
