# Generated by pormake.
# Topology ghw, (5)-cn, num edge types: 1
# Building blocks:
#     Node 0, Type 0, BuildingBlock: XOMCOT_clean_sbu_0, # of connection points: 5
#     Node 1, Type 0, BuildingBlock: XOMCOT_clean_sbu_0, # of connection points: 5
#     Node 2, Type 0, BuildingBlock: XOMCOT_clean_sbu_0, # of connection points: 5
#     Node 3, Type 0, BuildingBlock: XOMCOT_clean_sbu_0, # of connection points: 5
#     Node 4, Type 0, BuildingBlock: XOMCOT_clean_sbu_0, # of connection points: 5
#     Node 5, Type 0, BuildingBlock: XOMCOT_clean_sbu_0, # of connection points: 5
#     Node 6, Type 0, BuildingBlock: XOMCOT_clean_sbu_0, # of connection points: 5
#     Node 7, Type 0, BuildingBlock: XOMCOT_clean_sbu_0, # of connection points: 5
#     Node 8, Type 0, BuildingBlock: XOMCOT_clean_sbu_0, # of connection points: 5
#     Node 9, Type 0, BuildingBlock: XOMCOT_clean_sbu_0, # of connection points: 5
#     Node 10, Type 0, BuildingBlock: XOMCOT_clean_sbu_0, # of connection points: 5
#     Node 11, Type 0, BuildingBlock: XOMCOT_clean_sbu_0, # of connection points: 5
#     Node 12, Type 0, BuildingBlock: XOMCOT_clean_sbu_0, # of connection points: 5
#     Node 13, Type 0, BuildingBlock: XOMCOT_clean_sbu_0, # of connection points: 5
#     Node 14, Type 0, BuildingBlock: XOMCOT_clean_sbu_0, # of connection points: 5
#     Node 15, Type 0, BuildingBlock: XOMCOT_clean_sbu_0, # of connection points: 5
#     Edge 16, Type (0, 0), BuildingBlock: OJICUG_clean_linker_0, # of connection points: 2
#     Edge 17, Type (0, 0), BuildingBlock: OJICUG_clean_linker_0, # of connection points: 2
#     Edge 18, Type (0, 0), BuildingBlock: OJICUG_clean_linker_0, # of connection points: 2
#     Edge 19, Type (0, 0), BuildingBlock: OJICUG_clean_linker_0, # of connection points: 2
#     Edge 20, Type (0, 0), BuildingBlock: OJICUG_clean_linker_0, # of connection points: 2
#     Edge 21, Type (0, 0), BuildingBlock: OJICUG_clean_linker_0, # of connection points: 2
#     Edge 22, Type (0, 0), BuildingBlock: OJICUG_clean_linker_0, # of connection points: 2
#     Edge 23, Type (0, 0), BuildingBlock: OJICUG_clean_linker_0, # of connection points: 2
#     Edge 24, Type (0, 0), BuildingBlock: OJICUG_clean_linker_0, # of connection points: 2
#     Edge 25, Type (0, 0), BuildingBlock: OJICUG_clean_linker_0, # of connection points: 2
#     Edge 26, Type (0, 0), BuildingBlock: OJICUG_clean_linker_0, # of connection points: 2
#     Edge 27, Type (0, 0), BuildingBlock: OJICUG_clean_linker_0, # of connection points: 2
#     Edge 28, Type (0, 0), BuildingBlock: OJICUG_clean_linker_0, # of connection points: 2
#     Edge 29, Type (0, 0), BuildingBlock: OJICUG_clean_linker_0, # of connection points: 2
#     Edge 30, Type (0, 0), BuildingBlock: OJICUG_clean_linker_0, # of connection points: 2
#     Edge 31, Type (0, 0), BuildingBlock: OJICUG_clean_linker_0, # of connection points: 2
#     Edge 32, Type (0, 0), BuildingBlock: OJICUG_clean_linker_0, # of connection points: 2
#     Edge 33, Type (0, 0), BuildingBlock: OJICUG_clean_linker_0, # of connection points: 2
#     Edge 34, Type (0, 0), BuildingBlock: OJICUG_clean_linker_0, # of connection points: 2
#     Edge 35, Type (0, 0), BuildingBlock: OJICUG_clean_linker_0, # of connection points: 2
#     Edge 36, Type (0, 0), BuildingBlock: OJICUG_clean_linker_0, # of connection points: 2
#     Edge 37, Type (0, 0), BuildingBlock: OJICUG_clean_linker_0, # of connection points: 2
#     Edge 38, Type (0, 0), BuildingBlock: OJICUG_clean_linker_0, # of connection points: 2
#     Edge 39, Type (0, 0), BuildingBlock: OJICUG_clean_linker_0, # of connection points: 2
#     Edge 40, Type (0, 0), BuildingBlock: OJICUG_clean_linker_0, # of connection points: 2
#     Edge 41, Type (0, 0), BuildingBlock: OJICUG_clean_linker_0, # of connection points: 2
#     Edge 42, Type (0, 0), BuildingBlock: OJICUG_clean_linker_0, # of connection points: 2
#     Edge 43, Type (0, 0), BuildingBlock: OJICUG_clean_linker_0, # of connection points: 2
#     Edge 44, Type (0, 0), BuildingBlock: OJICUG_clean_linker_0, # of connection points: 2
#     Edge 45, Type (0, 0), BuildingBlock: OJICUG_clean_linker_0, # of connection points: 2
#     Edge 46, Type (0, 0), BuildingBlock: OJICUG_clean_linker_0, # of connection points: 2
#     Edge 47, Type (0, 0), BuildingBlock: OJICUG_clean_linker_0, # of connection points: 2
#     Edge 48, Type (0, 0), BuildingBlock: OJICUG_clean_linker_0, # of connection points: 2
#     Edge 49, Type (0, 0), BuildingBlock: OJICUG_clean_linker_0, # of connection points: 2
#     Edge 50, Type (0, 0), BuildingBlock: OJICUG_clean_linker_0, # of connection points: 2
#     Edge 51, Type (0, 0), BuildingBlock: OJICUG_clean_linker_0, # of connection points: 2
#     Edge 52, Type (0, 0), BuildingBlock: OJICUG_clean_linker_0, # of connection points: 2
#     Edge 53, Type (0, 0), BuildingBlock: OJICUG_clean_linker_0, # of connection points: 2
#     Edge 54, Type (0, 0), BuildingBlock: OJICUG_clean_linker_0, # of connection points: 2
#     Edge 55, Type (0, 0), BuildingBlock: OJICUG_clean_linker_0, # of connection points: 2
# Relax obj value: 0.183
# Max RMSD: 0.214
# Mean RMSD: 0.214
data_MOF--net-ghw--node1-XOMCOT_clean_sbu_0--edge1-OJICUG_clean_linker_0
_symmetry_space_group_name_H-M    P1
_symmetry_Int_Tables_number       1
_symmetry_cell_setting            triclinic
loop_
_symmetry_equiv_pos_as_xyz
'x, y, z'
_cell_length_a     25.263161
_cell_length_b     29.119113
_cell_length_c     26.693107
_cell_angle_alpha  89.906927
_cell_angle_beta   89.63867
_cell_angle_gamma 90.056784
loop_
_atom_site_label
_atom_site_type_symbol
_atom_site_fract_x
_atom_site_fract_y
_atom_site_fract_z
_atom_type_partial_charge
Co0 Co 0.13787 0.13999 0.43695 0.0
C1 C 0.23795 0.09464 0.41035 0.0
C2 C 0.21344 0.07785 0.48517 0.0
C3 C 0.26349 0.06065 0.47752 0.0
N4 N 0.19702 0.09832 0.44267 0.0
N5 N 0.27909 0.07167 0.43058 0.0
H6 H 0.23932 0.11217 0.37458 0.0
H7 H 0.19153 0.0775 0.52012 0.0
C8 C 0.08778 0.04898 0.46969 0.0
O9 O 0.12871 0.02484 0.45466 0.0
N10 N 0.0781 0.18193 0.43217 0.0
C11 C 0.07555 0.22706 0.44325 0.0
C12 C 0.02418 0.24186 0.43689 0.0
C13 C 0.02832 0.17017 0.41886 0.0
N14 N 0.99443 0.20601 0.42171 0.0
C15 C 0.13351 0.16198 0.33498 0.0
C16 C 0.12887 0.07486 0.2943 0.0
C17 C 0.13332 0.11286 0.262 0.0
C18 C 0.13603 0.15671 0.2834 0.0
C19 C 0.1271 0.08173 0.34654 0.0
N20 N 0.12952 0.12505 0.36621 0.0
H21 H 0.13621 0.19626 0.35013 0.0
H22 H 0.12511 0.05219 0.37052 0.0
H23 H 0.10828 0.24806 0.45542 0.0
H24 H 0.01697 0.13571 0.40828 0.0
O25 O 0.18843 0.18914 0.42793 0.0
O26 O 0.15726 0.16583 0.5014 0.0
O27 O 0.0856 0.09225 0.46188 0.0
C28 C 0.1896 0.19243 0.47639 0.0
H29 H 0.28738 0.04341 0.50529 0.0
H30 H 1.01002 0.27651 0.44278 0.0
H31 H 0.12651 0.04034 0.27943 0.0
H32 H 0.14076 0.18717 0.26046 0.0
Co33 Co 0.13606 0.1402 0.86751 0.0
C34 C 0.0328 0.09204 0.88143 0.0
C35 C 0.06902 0.07499 0.81134 0.0
C36 C 0.01967 0.05452 0.81363 0.0
N37 N 0.07757 0.09819 0.8543 0.0
N38 N 0.99721 0.06532 0.858 0.0
H39 H 0.0237 0.10933 0.91578 0.0
H40 H 0.09597 0.07444 0.7797 0.0
C41 C 0.18881 0.04904 0.84324 0.0
O42 O 0.15233 0.02591 0.86789 0.0
N43 N 0.19417 0.18202 0.88027 0.0
C44 C 0.19441 0.21681 0.91344 0.0
C45 C 0.24562 0.23259 0.91842 0.0
C46 C 0.24508 0.17732 0.86537 0.0
N47 N 0.27761 0.20739 0.88848 0.0
C48 C 0.0989 0.14017 0.96775 0.0
C49 C 0.17967 0.09261 1.01305 0.0
C50 C 0.13815 0.11002 0.04322 0.0
C51 C 0.09642 0.13201 1.01869 0.0
C52 C 0.17863 0.09884 0.96043 0.0
N53 N 0.13793 0.12218 0.9383 0.0
H54 H 0.06859 0.16181 0.95242 0.0
H55 H 0.21163 0.08683 0.93815 0.0
H56 H 0.1603 0.22816 0.93473 0.0
H57 H 0.25844 0.15151 0.83928 0.0
O58 O 0.08591 0.19017 0.87294 0.0
O59 O 0.12423 0.16837 0.80239 0.0
O60 O 0.18903 0.09283 0.84424 0.0
C61 C 0.09057 0.19528 0.82489 0.0
H62 H 1.00119 0.03459 0.78434 0.0
H63 H 0.25855 0.25875 0.94438 0.0
H64 H 0.21345 0.0758 0.02972 0.0
H65 H 0.06187 0.14453 0.03845 0.0
Co66 Co 0.87422 0.8686 0.61516 0.0
C67 C 0.77236 0.91724 0.63537 0.0
C68 C 0.8058 0.93597 0.56439 0.0
C69 C 0.75686 0.95661 0.56908 0.0
N70 N 0.81584 0.91154 0.60629 0.0
N71 N 0.73609 0.94477 0.61391 0.0
H72 H 0.7646 0.89896 0.66959 0.0
H73 H 0.83134 0.93708 0.53173 0.0
C74 C 0.92782 0.95984 0.59261 0.0
O75 O 0.89198 0.98316 0.61774 0.0
N76 N 0.93318 0.82609 0.62329 0.0
C77 C 0.93209 0.77997 0.62804 0.0
C78 C 0.98329 0.76415 0.63339 0.0
C79 C 0.98506 0.83745 0.62622 0.0
N80 N 0.01663 0.80042 0.63217 0.0
C81 C 0.84301 0.86573 0.7172 0.0
C82 C 0.9245 0.91558 0.75842 0.0
C83 C 0.88499 0.89762 0.79056 0.0
C84 C 0.84292 0.87401 0.76821 0.0
C85 C 0.92104 0.90902 0.70622 0.0
N86 N 0.88011 0.88453 0.68609 0.0
H87 H 0.81203 0.84411 0.70299 0.0
H88 H 0.95238 0.92224 0.6827 0.0
H89 H 0.89681 0.75896 0.62775 0.0
H90 H 0.99962 0.87229 0.62526 0.0
O91 O 0.82315 0.81913 0.62089 0.0
O92 O 0.8587 0.843 0.54969 0.0
O93 O 0.92634 0.91611 0.59144 0.0
C94 C 0.82538 0.81586 0.57246 0.0
H95 H 0.73724 0.97713 0.54091 0.0
H96 H 0.99489 0.72857 0.63736 0.0
H97 H 0.95858 0.93345 0.77309 0.0
H98 H 0.80965 0.86092 0.78947 0.0
Co99 Co 0.89963 0.87587 0.18364 0.0
C100 C 1.0003 0.92277 0.16149 0.0
C101 C 0.97278 0.93703 0.23598 0.0
C102 C 0.02256 0.95544 0.23047 0.0
N103 N 0.95846 0.91734 0.1924 0.0
N104 N 0.03998 0.9461 0.18372 0.0
H105 H 1.00339 0.90647 0.12518 0.0
H106 H 0.94942 0.93634 0.27009 0.0
C107 C 0.84938 0.96776 0.21109 0.0
O108 O 0.89209 0.99131 0.19964 0.0
N109 N 0.84015 0.83397 0.17588 0.0
C110 C 0.83915 0.78773 0.17978 0.0
C111 C 0.78808 0.77262 0.17211 0.0
C112 C 0.78974 0.84611 0.16559 0.0
N113 N 0.75708 0.80944 0.16349 0.0
C114 C 0.90259 0.85286 0.0819 0.0
C115 C 0.88986 0.93889 0.03982 0.0
C116 C 0.89575 0.90065 1.00835 0.0
C117 C 0.90305 0.85746 0.03024 0.0
C118 C 0.88999 0.93273 0.09211 0.0
N119 N 0.89585 0.88988 0.11244 0.0
H120 H 0.90751 0.81894 0.09753 0.0
H121 H 0.88558 0.96236 0.11553 0.0
H122 H 0.87284 0.76615 0.18768 0.0
H123 H 0.77716 0.88106 0.15892 0.0
O124 O 0.94999 0.82652 0.17883 0.0
O125 O 0.91351 0.85085 0.2497 0.0
O126 O 0.84695 0.92448 0.20375 0.0
C127 C 0.94683 0.82343 0.22726 0.0
H128 H 0.04506 0.97244 0.25941 0.0
H129 H 0.77466 0.73733 0.17371 0.0
H130 H 0.88404 0.97287 0.02426 0.0
H131 H 0.90859 0.82705 1.00752 0.0
Co132 Co 0.14473 0.64424 0.93832 0.0
C133 C 0.24544 0.59713 0.91662 0.0
C134 C 0.22042 0.58681 0.9927 0.0
C135 C 0.27019 0.56848 0.98699 0.0
N136 N 0.20449 0.60392 0.94829 0.0
N137 N 0.28606 0.57534 0.93922 0.0
H138 H 0.24718 0.61136 0.87916 0.0
H139 H 0.19814 0.58914 0.02733 0.0
C140 C 0.0964 0.55362 0.97323 0.0
O141 O 0.13929 0.53013 0.96252 0.0
N142 N 0.08436 0.68497 0.92913 0.0
C143 C 0.0821 0.73109 0.93315 0.0
C144 C 0.03102 0.74522 0.9239 0.0
C145 C 0.03464 0.67191 0.91701 0.0
N146 N 1.00103 0.70796 0.91389 0.0
C147 C 0.14415 0.66166 0.83551 0.0
C148 C 0.13389 0.5731 0.79965 0.0
C149 C 0.13824 0.6097 0.76566 0.0
C150 C 0.14429 0.65421 0.78436 0.0
C151 C 0.13441 0.58215 0.85136 0.0
N152 N 0.13911 0.6262 0.86855 0.0
H153 H 0.14812 0.69649 0.84874 0.0
H154 H 0.13144 0.55377 0.87683 0.0
H155 H 0.11501 0.75333 0.9419 0.0
H156 H 0.02324 0.63654 0.9111 0.0
O157 O 0.19435 0.69364 0.92847 0.0
O158 O 0.16057 0.67304 1.002 0.0
O159 O 0.09308 0.59641 0.96313 0.0
C160 C 0.19316 0.69916 0.97667 0.0
H161 H 0.29367 0.55316 1.01637 0.0
H162 H 0.01737 0.78043 0.92403 0.0
H163 H 0.12908 0.53819 0.78645 0.0
H164 H 0.14856 0.68345 0.7595 0.0
Co165 Co 0.12776 0.64223 0.37461 0.0
C166 C 0.02517 0.59211 0.38815 0.0
C167 C 0.0607 0.57865 0.3168 0.0
C168 C 0.01188 0.55731 0.31864 0.0
N169 N 0.06934 0.60026 0.36072 0.0
N170 N 0.98985 0.56579 0.36379 0.0
H171 H 0.01617 0.60765 0.42353 0.0
H172 H 0.08723 0.5798 0.28486 0.0
C173 C 0.18008 0.55163 0.34925 0.0
O174 O 0.14316 0.5279 0.37261 0.0
N175 N 0.18658 0.68391 0.38756 0.0
C176 C 0.18514 0.72937 0.39735 0.0
C177 C 0.23625 0.74512 0.40373 0.0
C178 C 0.23855 0.67278 0.38884 0.0
N179 N 0.26972 0.70938 0.39849 0.0
C180 C 0.09099 0.63968 0.47461 0.0
C181 C 0.1724 0.59122 0.5177 0.0
C182 C 0.13062 0.60706 0.54854 0.0
C183 C 0.08841 0.62934 0.52499 0.0
C184 C 0.17105 0.59903 0.46556 0.0
N185 N 0.13019 0.62295 0.44458 0.0
H186 H 0.06027 0.66132 0.45999 0.0
H187 H 0.20397 0.58767 0.44284 0.0
H188 H 0.14966 0.74997 0.3998 0.0
H189 H 0.25373 0.63865 0.3824 0.0
O190 O 0.07738 0.69174 0.38126 0.0
O191 O 0.11594 0.6711 0.31021 0.0
O192 O 0.17997 0.59535 0.35051 0.0
C193 C 0.08224 0.69754 0.33329 0.0
H194 H 0.9933 0.53853 0.28851 0.0
H195 H 0.24775 0.78007 0.41217 0.0
H196 H 0.20662 0.57434 0.53339 0.0
H197 H 0.05339 0.6404 0.54497 0.0
Co198 Co 0.87416 0.37324 0.10656 0.0
C199 C 0.77335 0.42014 0.12793 0.0
C200 C 0.80147 0.43428 0.05353 0.0
C201 C 0.75179 0.45286 0.05868 0.0
N202 N 0.81534 0.41454 0.09727 0.0
N203 N 0.734 0.44361 0.10536 0.0
H204 H 0.76996 0.40398 0.16436 0.0
H205 H 0.82511 0.4336 1.01961 0.0
C206 C 0.92431 0.46541 0.07938 0.0
O207 O 0.8816 0.48883 0.09092 0.0
N208 N 0.93368 0.3316 0.11486 0.0
C209 C 0.93486 0.28535 0.11162 0.0
C210 C 0.98601 0.27056 0.11948 0.0
C211 C 0.98404 0.34408 0.12498 0.0
N212 N 0.01684 0.30763 0.12754 0.0
C213 C 0.86916 0.34993 0.20826 0.0
C214 C 0.88407 0.43546 0.25054 0.0
C215 C 0.87662 0.39724 0.28195 0.0
C216 C 0.86815 0.35433 0.25994 0.0
C217 C 0.88424 0.42955 0.19825 0.0
N218 N 0.87724 0.38694 0.17782 0.0
H219 H 0.86366 0.31614 0.19259 0.0
H220 H 0.88996 0.45916 0.17493 0.0
H221 H 0.90123 0.26355 0.10402 0.0
H222 H 0.9965 0.37914 0.13122 0.0
O223 O 0.82392 0.32372 0.1109 0.0
O224 O 0.86101 0.34837 0.04035 0.0
O225 O 0.9268 0.42212 0.08676 0.0
C226 C 0.82755 0.32077 0.06252 0.0
H227 H 0.72965 0.47003 0.02957 0.0
H228 H 0.99962 0.23533 0.11839 0.0
H229 H 0.89091 0.46924 0.26615 0.0
H230 H 0.86126 0.32394 0.28256 0.0
Co231 Co 0.90006 0.36909 0.67515 0.0
C232 C 1.0019 0.41783 0.65465 0.0
C233 C 0.96883 0.43627 0.72578 0.0
C234 C 0.01787 0.45683 0.72098 0.0
N235 N 0.95851 0.41206 0.68387 0.0
N236 N 0.03841 0.44517 0.67604 0.0
H237 H 1.00942 0.3997 0.62036 0.0
H238 H 0.94344 0.43725 0.75854 0.0
C239 C 0.84652 0.46022 0.6979 0.0
O240 O 0.88253 0.48373 0.67305 0.0
N241 N 0.84106 0.32651 0.6671 0.0
C242 C 0.8421 0.28038 0.66265 0.0
C243 C 0.79092 0.26451 0.65718 0.0
C244 C 0.78921 0.33783 0.66386 0.0
N245 N 0.75761 0.30075 0.65802 0.0
C246 C 0.93107 0.36601 0.57311 0.0
C247 C 0.84965 0.41582 0.53172 0.0
C248 C 0.88872 0.39727 0.49966 0.0
C249 C 0.93082 0.37379 0.522 0.0
C250 C 0.85337 0.40965 0.58398 0.0
N251 N 0.89418 0.38506 0.60418 0.0
H252 H 0.96207 0.34445 0.58737 0.0
H253 H 0.82227 0.42316 0.6075 0.0
H254 H 0.87735 0.25939 0.66322 0.0
H255 H 0.77471 0.37266 0.66451 0.0
O256 O 0.95105 0.3197 0.66942 0.0
O257 O 0.91566 0.34335 0.74065 0.0
O258 O 0.84791 0.41648 0.69884 0.0
C259 C 0.94891 0.3163 0.71784 0.0
H260 H 0.03771 0.47715 0.74913 0.0
H261 H 0.7793 0.22891 0.65341 0.0
H262 H 0.81564 0.43369 0.51687 0.0
H263 H 0.96369 0.36029 0.50053 0.0
Co264 Co 0.64605 0.14085 0.91439 0.0
C265 C 0.74843 0.09069 0.90075 0.0
C266 C 0.71291 0.07701 0.97213 0.0
C267 C 0.76175 0.05581 0.97033 0.0
N268 N 0.70425 0.09869 0.92817 0.0
N269 N 0.78378 0.06444 0.92517 0.0
H270 H 0.75745 0.10635 0.86537 0.0
H271 H 0.68641 0.07811 1.00409 0.0
C272 C 0.5933 0.05031 0.93973 0.0
O273 O 0.63018 0.02658 0.91648 0.0
N274 N 0.58748 0.18275 0.90153 0.0
C275 C 0.58918 0.2283 0.89207 0.0
C276 C 0.53817 0.24424 0.88575 0.0
C277 C 0.53546 0.17177 0.90012 0.0
N278 N 0.5045 0.20852 0.8907 0.0
C279 C 0.68267 0.13863 0.81435 0.0
C280 C 0.60099 0.09039 0.77141 0.0
C281 C 0.64276 0.10628 0.74051 0.0
C282 C 0.68511 0.12845 0.76396 0.0
C283 C 0.60247 0.09804 0.82353 0.0
N284 N 0.64345 0.12186 0.84443 0.0
H285 H 0.7135 0.16019 0.82893 0.0
H286 H 0.56954 0.08664 0.84629 0.0
H287 H 0.62477 0.24884 0.88982 0.0
H288 H 0.52009 0.13762 0.90633 0.0
O289 O 0.69673 0.19024 0.9078 0.0
O290 O 0.65802 0.16936 0.97881 0.0
O291 O 0.59358 0.09403 0.93843 0.0
C292 C 0.69189 0.1958 0.95579 0.0
H293 H 0.78039 0.03709 1.00052 0.0
H294 H 0.52685 0.27929 0.87757 0.0
H295 H 0.56667 0.0736 0.75577 0.0
H296 H 0.72011 0.13956 0.74389 0.0
Co297 Co 0.62904 0.14643 0.35127 0.0
C298 C 0.52802 0.09914 0.37177 0.0
C299 C 0.5531 0.09027 0.29553 0.0
C300 C 0.5033 0.0718 0.30086 0.0
N301 N 0.56901 0.10658 0.34025 0.0
N302 N 0.48739 0.07773 0.34875 0.0
H303 H 0.52632 0.11259 0.40951 0.0
H304 H 0.57548 0.09318 0.26098 0.0
C305 C 0.67665 0.05591 0.31575 0.0
O306 O 0.63342 0.03259 0.3259 0.0
N307 N 0.68962 0.18677 0.36169 0.0
C308 C 0.69098 0.23309 0.36387 0.0
C309 C 0.74189 0.24691 0.37477 0.0
C310 C 0.73978 0.17326 0.37134 0.0
N311 N 0.77247 0.20923 0.37922 0.0
C312 C 0.62732 0.16242 0.4543 0.0
C313 C 0.63983 0.07372 0.48929 0.0
C314 C 0.63421 0.10983 0.52359 0.0
C315 C 0.62694 0.15437 0.50534 0.0
C316 C 0.63946 0.08336 0.43766 0.0
N317 N 0.63368 0.12749 0.4209 0.0
H318 H 0.62265 0.19733 0.44154 0.0
H319 H 0.64366 0.05537 0.41192 0.0
H320 H 0.65743 0.25556 0.35879 0.0
H321 H 0.75199 0.13776 0.37419 0.0
O322 O 0.57975 0.19593 0.36111 0.0
O323 O 0.61435 0.17616 0.28775 0.0
O324 O 0.68037 0.09855 0.32636 0.0
C325 C 0.58177 0.20218 0.31303 0.0
H326 H 0.47987 0.05694 0.2712 0.0
H327 H 0.75543 0.28198 0.37887 0.0
H328 H 0.64566 0.03881 0.50218 0.0
H329 H 0.62178 0.18321 0.53051 0.0
Co330 Co 0.39109 0.87598 0.10964 0.0
C331 C 0.29068 0.92306 0.13075 0.0
C332 C 0.3179 0.93614 0.05586 0.0
C333 C 0.26789 0.95408 0.06098 0.0
N334 N 0.33257 0.91755 0.09995 0.0
N335 N 0.2506 0.94538 0.10796 0.0
H336 H 0.28789 0.90729 0.16741 0.0
H337 H 0.34105 0.93477 0.02167 0.0
C338 C 0.44133 0.96574 0.07458 0.0
O339 O 0.40049 0.99011 0.0894 0.0
N340 N 0.45011 0.83383 0.1183 0.0
C341 C 0.45084 0.78764 0.11454 0.0
C342 C 0.50179 0.77241 0.1223 0.0
C343 C 0.50053 0.84584 0.12875 0.0
N344 N 0.53313 0.80908 0.13108 0.0
C345 C 0.3901 0.85716 0.2121 0.0
C346 C 0.39763 0.94489 0.25075 0.0
C347 C 0.39062 0.90769 0.28373 0.0
C348 C 0.38608 0.86362 0.26333 0.0
C349 C 0.40054 0.93686 0.19867 0.0
N350 N 0.39682 0.89319 0.18003 0.0
H351 H 0.38679 0.82258 0.19799 0.0
H352 H 0.40506 0.96575 0.1741 0.0
H353 H 0.41702 0.76612 0.10679 0.0
H354 H 0.51322 0.88098 0.1338 0.0
O355 O 0.34004 0.82756 0.11912 0.0
O356 O 0.37426 0.84788 0.04574 0.0
O357 O 0.44403 0.92278 0.08405 0.0
C358 C 0.34106 0.82224 0.07091 0.0
H359 H 0.24519 0.97023 0.03158 0.0
H360 H 0.51449 0.73694 0.12186 0.0
H361 H 0.40154 0.97953 0.26499 0.0
H362 H 0.37959 0.8338 0.28696 0.0
Co363 Co 0.3847 0.86705 0.67643 0.0
C364 C 0.4879 0.91529 0.66176 0.0
C365 C 0.45256 0.93182 0.73238 0.0
C366 C 0.50206 0.952 0.72991 0.0
N367 N 0.44332 0.90915 0.6892 0.0
N368 N 0.52393 0.94156 0.68519 0.0
H369 H 0.49666 0.89817 0.62719 0.0
H370 H 0.42604 0.93207 0.76435 0.0
C371 C 0.33168 0.95712 0.70372 0.0
O372 O 0.36709 0.9806 0.67806 0.0
N373 N 0.32582 0.82519 0.66448 0.0
C374 C 0.32646 0.77894 0.66104 0.0
C375 C 0.2754 0.76338 0.65399 0.0
C376 C 0.27434 0.83692 0.65886 0.0
N377 N 0.24271 0.79994 0.65255 0.0
C378 C 0.41996 0.86949 0.57598 0.0
C379 C 0.34191 0.92166 0.53269 0.0
C380 C 0.38361 0.90505 0.50211 0.0
C381 C 0.42417 0.88103 0.52606 0.0
C382 C 0.34186 0.91272 0.58496 0.0
N383 N 0.38113 0.88682 0.6061 0.0
H384 H 0.44979 0.84677 0.59007 0.0
H385 H 0.30944 0.92527 0.60759 0.0
H386 H 0.3613 0.75759 0.66362 0.0
H387 H 0.25986 0.8718 0.66026 0.0
O388 O 0.43542 0.81792 0.66817 0.0
O389 O 0.39947 0.83743 0.74049 0.0
O390 O 0.3321 0.91334 0.70279 0.0
C391 C 0.43319 0.81189 0.71615 0.0
H392 H 0.52109 0.97145 0.75927 0.0
H393 H 0.26339 0.72791 0.64982 0.0
H394 H 0.30912 0.94033 0.51662 0.0
H395 H 0.45941 0.86957 0.50665 0.0
Co396 Co 0.638 0.64053 0.42203 0.0
C397 C 0.74096 0.59222 0.40786 0.0
C398 C 0.70507 0.57537 0.47825 0.0
C399 C 0.75434 0.55488 0.47586 0.0
N400 N 0.69637 0.59847 0.43518 0.0
N401 N 0.77661 0.56556 0.43132 0.0
H402 H 0.74991 0.60941 0.37333 0.0
H403 H 0.67827 0.57492 0.51001 0.0
C404 C 0.58522 0.5493 0.44637 0.0
O405 O 0.62175 0.52628 0.4218 0.0
N406 N 0.57998 0.6824 0.40932 0.0
C407 C 0.57993 0.71745 0.37635 0.0
C408 C 0.52876 0.73326 0.3713 0.0
C409 C 0.529 0.67755 0.424 0.0
N410 N 0.49662 0.70781 0.40098 0.0
C411 C 0.67488 0.64095 0.32165 0.0
C412 C 0.5943 0.59277 0.27676 0.0
C413 C 0.63563 0.61041 0.24641 0.0
C414 C 0.67722 0.63283 0.27071 0.0
C415 C 0.5954 0.59913 0.32932 0.0
N416 N 0.63602 0.62272 0.35125 0.0
H417 H 0.7052 0.66264 0.33691 0.0
H418 H 0.56251 0.58693 0.3517 0.0
H419 H 0.61414 0.72901 0.35526 0.0
H420 H 0.51547 0.65152 0.44987 0.0
O421 O 0.68831 0.69052 0.4167 0.0
O422 O 0.64986 0.66842 0.48719 0.0
O423 O 0.58496 0.59309 0.44528 0.0
C424 C 0.68363 0.69541 0.46477 0.0
H425 H 0.77294 0.53506 0.50522 0.0
H426 H 0.51599 0.75964 0.34547 0.0
H427 H 0.56062 0.57567 0.26024 0.0
H428 H 0.71157 0.64562 0.25074 0.0
Co429 Co 0.6358 0.63974 0.85251 0.0
C430 C 0.53553 0.59419 0.87818 0.0
C431 C 0.5604 0.57809 0.80335 0.0
C432 C 0.51029 0.56077 0.81065 0.0
N433 N 0.57659 0.59822 0.84607 0.0
N434 N 0.49448 0.57135 0.85761 0.0
H435 H 0.53402 0.61134 0.91409 0.0
H436 H 0.58253 0.57803 0.76852 0.0
C437 C 0.68576 0.54875 0.82 0.0
O438 O 0.64465 0.52459 0.8348 0.0
N439 N 0.69566 0.68149 0.85818 0.0
C440 C 0.69706 0.72761 0.85331 0.0
C441 C 0.7481 0.74255 0.86164 0.0
C442 C 0.74583 0.6692 0.86942 0.0
N443 N 0.7787 0.70573 0.87157 0.0
C444 C 0.63838 0.66135 0.95447 0.0
C445 C 0.64494 0.57438 0.99547 0.0
C446 C 0.63964 0.61233 0.02763 0.0
C447 C 0.63581 0.65607 1.00604 0.0
C448 C 0.64663 0.58125 0.94316 0.0
N449 N 0.64333 0.62452 0.92334 0.0
H450 H 0.6351 0.6956 0.93931 0.0
H451 H 0.6495 0.55177 0.91926 0.0
H452 H 0.66357 0.74924 0.84477 0.0
H453 H 0.75789 0.63427 0.87715 0.0
O454 O 0.58533 0.68889 0.86118 0.0
O455 O 0.61727 0.66616 0.78794 0.0
O456 O 0.68799 0.59199 0.82782 0.0
C457 C 0.58483 0.69269 0.81276 0.0
H458 H 0.48653 0.54372 0.78268 0.0
H459 H 0.76169 0.77779 0.86007 0.0
H460 H 0.64815 0.53994 1.01051 0.0
H461 H 0.63034 0.68645 0.02884 0.0
Co462 Co 0.38946 0.36659 0.61296 0.0
C463 C 0.28633 0.41486 0.62768 0.0
C464 C 0.32153 0.43126 0.55688 0.0
C465 C 0.27217 0.45159 0.55942 0.0
N466 N 0.33078 0.40857 0.60012 0.0
N467 N 0.25038 0.44124 0.60425 0.0
H468 H 0.27763 0.39786 0.6624 0.0
H469 H 0.34799 0.43149 0.52486 0.0
C470 C 0.44229 0.4569 0.58583 0.0
O471 O 0.40673 0.48022 0.61133 0.0
N472 N 0.44841 0.32487 0.625 0.0
C473 C 0.44783 0.27862 0.62853 0.0
C474 C 0.49891 0.2632 0.63566 0.0
C475 C 0.49987 0.33674 0.63064 0.0
N476 N 0.53156 0.29984 0.63706 0.0
C477 C 0.35399 0.36846 0.71334 0.0
C478 C 0.43164 0.421 0.75674 0.0
C479 C 0.38991 0.40415 0.78723 0.0
C480 C 0.34958 0.37987 0.76323 0.0
C481 C 0.43191 0.41212 0.7045 0.0
N482 N 0.39281 0.38607 0.6833 0.0
H483 H 0.32422 0.34571 0.69914 0.0
H484 H 0.46434 0.42487 0.68195 0.0
H485 H 0.41302 0.25718 0.62597 0.0
H486 H 0.51429 0.37166 0.62922 0.0
O487 O 0.33885 0.31728 0.62104 0.0
O488 O 0.37496 0.33719 0.54881 0.0
O489 O 0.442 0.41313 0.58682 0.0
C490 C 0.34126 0.31144 0.57305 0.0
H491 H 0.25319 0.47112 0.53006 0.0
H492 H 0.51095 0.22775 0.63993 0.0
H493 H 0.46428 0.43984 0.77285 0.0
H494 H 0.31432 0.36822 0.78252 0.0
Co495 Co 0.38227 0.3775 0.17999 0.0
C496 C 0.48264 0.42426 0.1578 0.0
C497 C 0.45542 0.43869 0.23232 0.0
C498 C 0.5057 0.45609 0.22696 0.0
N499 N 0.44059 0.41956 0.1886 0.0
N500 N 0.523 0.4465 0.18023 0.0
H501 H 0.48539 0.40776 0.12157 0.0
H502 H 0.4323 0.43782 0.26656 0.0
C503 C 0.33155 0.46715 0.21427 0.0
O504 O 0.37205 0.49173 0.19884 0.0
N505 N 0.32349 0.33484 0.17245 0.0
C506 C 0.32306 0.28871 0.17728 0.0
C507 C 0.27224 0.27301 0.16981 0.0
C508 C 0.27302 0.34634 0.16169 0.0
N509 N 0.24068 0.30932 0.16016 0.0
C510 C 0.38177 0.35774 0.07785 0.0
C511 C 0.37532 0.44521 0.03808 0.0
C512 C 0.38165 0.40769 1.00557 0.0
C513 C 0.38559 0.36374 0.02652 0.0
C514 C 0.37256 0.43763 0.09026 0.0
N515 N 0.37574 0.39409 0.10946 0.0
H516 H 0.3849 0.32327 0.09243 0.0
H517 H 0.36878 0.46678 0.11447 0.0
H518 H 0.35702 0.26755 0.18551 0.0
H519 H 0.26011 0.38131 0.15582 0.0
O520 O 0.43354 0.32941 0.17058 0.0
O521 O 0.39999 0.35005 0.24405 0.0
O522 O 0.32916 0.42408 0.20542 0.0
C523 C 0.43314 0.3245 0.21886 0.0
H524 H 0.52863 0.47233 0.25611 0.0
H525 H 0.25977 0.23747 0.17102 0.0
H526 H 0.37196 0.47977 0.02341 0.0
H527 H 0.39166 0.33368 1.00329 0.0
C528 C 0.37607 0.06493 0.44101 0.0
C529 C 0.33162 0.06784 0.40966 0.0
H530 H 0.46051 0.06481 0.44602 0.0
C531 C 0.33953 0.06982 0.35757 0.0
H532 H 0.37168 0.06341 0.48129 0.0
C533 C 0.3906 0.07114 0.33741 0.0
C534 C 0.43501 0.07058 0.36892 0.0
H535 H 0.30621 0.07115 0.33234 0.0
H536 H 0.39502 0.07452 0.29726 0.0
C537 C 0.42714 0.06619 0.42083 0.0
C538 C 0.90466 0.23847 0.43455 0.0
C539 C 0.93815 0.20596 0.41173 0.0
H540 H 0.82599 0.26539 0.44166 0.0
C541 C 0.91561 0.17361 0.379 0.0
H542 H 0.92011 0.26253 0.46158 0.0
C543 C 0.86122 0.17429 0.36888 0.0
C544 C 0.82822 0.20772 0.39063 0.0
H545 H 0.94006 0.1482 0.36053 0.0
H546 H 0.84511 0.14932 0.34309 0.0
C547 C 0.85058 0.23979 0.42359 0.0
C548 C 0.41941 0.16974 0.87272 0.0
C549 C 0.44736 0.20912 0.88777 0.0
H550 H 0.34422 0.13804 0.86125 0.0
C551 C 0.41844 0.24848 0.90129 0.0
H552 H 0.44034 0.13899 0.86148 0.0
C553 C 0.36298 0.24799 0.90095 0.0
C554 C 0.33493 0.20846 0.88653 0.0
H555 H 0.43857 0.2793 0.91343 0.0
H556 H 0.34199 0.27851 0.9123 0.0
C557 C 0.36403 0.16942 0.87201 0.0
C558 C 0.9316 0.05715 0.92651 0.0
C559 C 0.94363 0.05727 0.87492 0.0
H560 H 0.87126 0.05878 0.9831 0.0
C561 C 0.902 0.05355 0.84056 0.0
H562 H 0.96285 0.05888 0.954 0.0
C563 C 0.84946 0.05292 0.85737 0.0
C564 C 0.83742 0.05609 0.90882 0.0
H565 H 0.90981 0.0534 0.80066 0.0
H566 H 0.81808 0.05179 0.82996 0.0
C567 C 0.87911 0.05642 0.94329 0.0
C568 C 0.64032 0.95303 0.59828 0.0
C569 C 0.68277 0.95175 0.6319 0.0
H570 H 0.55631 0.95137 0.58912 0.0
C571 C 0.67189 0.9525 0.68368 0.0
H572 H 0.6473 0.95253 0.55824 0.0
C573 C 0.61967 0.95161 0.70146 0.0
C574 C 0.57728 0.94969 0.66774 0.0
H575 H 0.70391 0.9522 0.71044 0.0
H576 H 0.61262 0.95011 0.74146 0.0
C577 C 0.58819 0.95182 0.61601 0.0
C578 C 0.09994 0.76298 0.6596 0.0
C579 C 0.07382 0.80007 0.63673 0.0
H580 H 0.17377 0.73365 0.68244 0.0
C581 C 0.10467 0.83698 0.61872 0.0
H582 H 0.07758 0.73463 0.67494 0.0
C583 C 0.15983 0.83688 0.62385 0.0
C584 C 0.18582 0.7997 0.64665 0.0
H585 H 0.0864 0.86588 0.60013 0.0
H586 H 0.18225 0.8657 0.60929 0.0
C587 C 0.15517 0.76258 0.66414 0.0
C588 C 0.67603 0.77232 0.13153 0.0
C589 C 0.70069 0.80965 0.15503 0.0
H590 H 0.60407 0.74286 0.10485 0.0
C591 C 0.66934 0.84689 0.17061 0.0
H592 H 0.69941 0.74374 0.11828 0.0
C593 C 0.61454 0.8466 0.16309 0.0
C594 C 0.58969 0.80915 0.13955 0.0
H595 H 0.68702 0.87593 0.18945 0.0
H596 H 0.59169 0.87555 0.17641 0.0
C597 C 0.6213 0.77198 0.12386 0.0
C598 C 0.10255 0.95296 0.11289 0.0
C599 C 0.09302 0.95154 0.16472 0.0
H600 H 0.15993 0.95174 0.05403 0.0
C601 C 0.1363 0.95199 0.19755 0.0
H602 H 0.07 0.95336 0.08672 0.0
C603 C 0.18797 0.95156 0.17888 0.0
C604 C 0.19753 0.95072 0.12701 0.0
H605 H 0.13049 0.95079 0.23771 0.0
H606 H 0.22044 0.95117 0.20513 0.0
C607 C 0.15422 0.95246 0.09419 0.0
C608 C 0.34644 0.56509 0.86707 0.0
C609 C 0.3385 0.56884 0.91901 0.0
H610 H 0.40201 0.56324 0.80665 0.0
C611 C 0.38284 0.56939 0.95057 0.0
H612 H 0.31309 0.5638 0.84185 0.0
C613 C 0.43393 0.56858 0.93047 0.0
C614 C 0.44192 0.56713 0.87838 0.0
H615 H 0.37835 0.57234 0.99075 0.0
H616 H 0.4672 0.56983 0.95577 0.0
C617 C 0.39755 0.56432 0.84694 0.0
C618 C 0.86709 0.66861 0.86861 0.0
C619 C 0.8346 0.70563 0.88273 0.0
H620 H 0.94538 0.64057 0.8664 0.0
C621 C 0.85764 0.7429 0.90769 0.0
H622 H 0.85059 0.63949 0.84894 0.0
C623 C 0.9119 0.74371 0.91775 0.0
C624 C 0.9448 0.70698 0.9033 0.0
H625 H 0.83325 0.77109 0.92022 0.0
H626 H 0.92778 0.77294 0.93755 0.0
C627 C 0.92153 0.66929 0.87868 0.0
C628 C 0.41001 0.66977 0.41692 0.0
C629 C 0.43929 0.70892 0.40281 0.0
H630 H 0.33354 0.63937 0.42707 0.0
C631 C 0.41145 0.74865 0.38874 0.0
H632 H 0.42967 0.63825 0.4274 0.0
C633 C 0.356 0.74925 0.38833 0.0
C634 C 0.32687 0.7098 0.40144 0.0
H635 H 0.43261 0.77926 0.37776 0.0
H636 H 0.33603 0.78025 0.37646 0.0
C637 C 0.35462 0.6702 0.41613 0.0
C638 C 0.84207 0.55723 0.36276 0.0
C639 C 0.83016 0.55762 0.41436 0.0
H640 H 0.90229 0.55897 0.30603 0.0
C641 C 0.87188 0.55441 0.44868 0.0
H642 H 0.81073 0.55859 0.33533 0.0
C643 C 0.92438 0.55406 0.43179 0.0
C644 C 0.9363 0.55706 0.38029 0.0
H645 H 0.86415 0.55447 0.4886 0.0
H646 H 0.9558 0.5533 0.45917 0.0
C647 C 0.89454 0.5568 0.34588 0.0
C648 C 0.5861 0.45092 0.10953 0.0
C649 C 0.57628 0.45068 0.16135 0.0
H650 H 0.64384 0.44891 0.05097 0.0
C651 C 0.61947 0.45188 0.19435 0.0
H652 H 0.55374 0.45083 0.08316 0.0
C653 C 0.67123 0.45143 0.17588 0.0
C654 C 0.68097 0.44961 0.12411 0.0
H655 H 0.61353 0.45153 0.2345 0.0
H656 H 0.70366 0.45151 0.20219 0.0
C657 C 0.63785 0.45045 0.09108 0.0
C658 C 0.15275 0.27179 0.16823 0.0
C659 C 0.18416 0.30884 0.15157 0.0
H660 H 0.07475 0.24327 0.17461 0.0
C661 C 0.15915 0.34564 0.12695 0.0
H662 H 0.17014 0.24319 0.18807 0.0
C663 C 0.10436 0.34541 0.11935 0.0
C664 C 0.07322 0.3083 0.13593 0.0
H665 H 0.18185 0.37445 0.11287 0.0
H666 H 0.08652 0.37395 0.09969 0.0
C667 C 0.09803 0.27164 0.16051 0.0
C668 C 0.61914 0.2626 0.62594 0.0
C669 C 0.58845 0.29974 0.64306 0.0
H670 H 0.69675 0.23467 0.61563 0.0
C671 C 0.61439 0.33705 0.66559 0.0
H672 H 0.60059 0.23356 0.60786 0.0
C673 C 0.66955 0.33726 0.67085 0.0
C674 C 0.70044 0.30032 0.65325 0.0
H675 H 0.59196 0.3659 0.67987 0.0
H676 H 0.68777 0.36627 0.68924 0.0
C677 C 0.67437 0.26309 0.63064 0.0
C678 C 0.1343 0.45312 0.69144 0.0
C679 C 0.09174 0.45203 0.65793 0.0
H680 H 0.21834 0.45115 0.7004 0.0
C681 C 0.1025 0.45284 0.60612 0.0
H682 H 0.12744 0.45257 0.73149 0.0
C683 C 0.15468 0.45177 0.58822 0.0
C684 C 0.19715 0.44963 0.62184 0.0
H685 H 0.07041 0.45271 0.57943 0.0
H686 H 0.16159 0.45029 0.54821 0.0
C687 C 0.18638 0.45175 0.67358 0.0
C688 C 0.16263 0.07489 0.1804 0.0
C689 C 0.13335 0.10859 0.20628 0.0
H690 H 0.1873 0.04842 0.10875 0.0
C691 C 0.10611 0.14154 0.1783 0.0
H692 H 0.18479 0.04936 0.20097 0.0
C693 C 0.11 0.1428 0.12648 0.0
C694 C 0.13815 0.10889 0.09964 0.0
H695 H 0.08208 0.16723 0.19676 0.0
H696 H 0.09099 0.17134 0.10798 0.0
C697 C 0.16474 0.07486 0.12754 0.0
C698 C 0.91929 0.93608 0.92431 0.0
C699 C 0.89108 0.90372 0.95304 0.0
H700 H 0.93951 0.96018 0.85073 0.0
C701 C 0.8606 0.87077 0.92839 0.0
H702 H 0.94392 0.96139 0.94252 0.0
C703 C 0.86019 0.86831 0.87652 0.0
C704 C 0.88771 0.90065 0.84675 0.0
H705 H 0.83774 0.8459 0.94958 0.0
H706 H 0.83884 0.83985 0.86045 0.0
C707 C 0.91736 0.93476 0.87163 0.0
C708 C 0.10106 0.63561 0.63315 0.0
C709 C 0.13143 0.60429 0.60473 0.0
H710 H 0.07597 0.65848 0.70506 0.0
C711 C 0.16255 0.57206 0.63093 0.0
H712 H 0.07843 0.66288 0.61622 0.0
C713 C 0.16369 0.57201 0.68364 0.0
C714 C 0.13311 0.60368 0.71088 0.0
H715 H 0.18672 0.54745 0.61105 0.0
H716 H 0.18971 0.54848 0.70297 0.0
C717 C 0.10057 0.63416 0.68496 0.0
C718 C 0.91037 0.36505 0.41454 0.0
C719 C 0.88529 0.3992 0.44354 0.0
H720 H 0.92944 0.33907 0.34233 0.0
C721 C 0.85745 0.43403 0.41805 0.0
H722 H 0.93095 0.33662 0.43134 0.0
C723 C 0.85527 0.4345 0.36538 0.0
C724 C 0.88083 0.40015 0.33731 0.0
H725 H 0.83724 0.4608 0.43855 0.0
H726 H 0.83252 0.46084 0.34669 0.0
C727 C 0.90887 0.36592 0.36267 0.0
C728 C 0.60931 0.07161 0.60554 0.0
C729 C 0.63973 0.10347 0.57826 0.0
H730 H 0.5865 0.0468 0.67818 0.0
C731 C 0.67226 0.13403 0.60408 0.0
H732 H 0.58324 0.0481 0.58625 0.0
C733 C 0.672 0.13524 0.65588 0.0
C734 C 0.64179 0.10371 0.68435 0.0
H735 H 0.69655 0.15862 0.5839 0.0
H736 H 0.69461 0.16252 0.67281 0.0
C737 C 0.61061 0.0715 0.65823 0.0
C738 C 0.36102 0.94483 0.36581 0.0
C739 C 0.39141 0.9123 0.33929 0.0
H740 H 0.33468 0.96879 0.4381 0.0
C741 C 0.41962 0.87951 0.36647 0.0
H742 H 0.33828 0.97029 0.34571 0.0
C743 C 0.4148 0.87655 0.41802 0.0
C744 C 0.38512 0.90886 0.44577 0.0
H745 H 0.44433 0.85457 0.34744 0.0
H746 H 0.43399 0.84754 0.43536 0.0
C747 C 0.35824 0.94336 0.41871 0.0
C748 C 0.66662 0.64186 0.111 0.0
C749 C 0.63998 0.60828 0.08338 0.0
H750 H 0.68151 0.6721 0.18111 0.0
C751 C 0.61146 0.57423 0.10964 0.0
H752 H 0.68993 0.66798 0.09226 0.0
C753 C 0.60947 0.57444 0.16251 0.0
C754 C 0.63551 0.60902 0.19003 0.0
H755 H 0.58971 0.54827 0.08936 0.0
H756 H 0.58744 0.54776 0.18161 0.0
C757 C 0.66295 0.64323 0.16284 0.0
C758 C 0.41489 0.44271 0.87045 0.0
C759 C 0.38808 0.4081 0.84354 0.0
H760 H 0.43457 0.46986 0.94331 0.0
C761 C 0.35821 0.37587 0.87139 0.0
H762 H 0.4386 0.46809 0.851 0.0
C763 C 0.3531 0.37902 0.9229 0.0
C764 C 0.38121 0.41195 0.94995 0.0
H765 H 0.33907 0.34678 0.85421 0.0
H766 H 0.32823 0.35414 0.94199 0.0
C767 C 0.41184 0.44435 0.92331 0.0
C768 C 0.2685 0.25324 0.5767 0.0
C769 C 0.30427 0.2796 0.54794 0.0
H770 H 0.204 0.20536 0.5768 0.0
C771 C 0.30175 0.27723 0.49552 0.0
H772 H 0.26923 0.25443 0.61725 0.0
C773 C 0.26401 0.2493 0.47239 0.0
C774 C 0.22804 0.22316 0.5012 0.0
H775 H 0.32847 0.29735 0.47237 0.0
H776 H 0.26312 0.24817 0.43185 0.0
C777 C 0.23084 0.2253 0.55359 0.0
C778 C 1.00991 0.95784 0.53979 0.0
C779 C 0.96913 0.98355 0.56242 0.0
H780 H 0.07861 0.95801 0.49274 0.0
C781 C 0.96706 0.03109 0.55351 0.0
H782 H 0.01277 0.92111 0.54557 0.0
C783 C 1.00487 0.05232 0.52252 0.0
C784 C 0.0457 0.02647 0.50004 0.0
H785 H 0.93595 0.05182 0.56999 0.0
H786 H 1.00231 0.08905 0.51653 0.0
C787 C 0.04769 0.979 0.50914 0.0
C788 C 0.25771 0.95541 0.76753 0.0
C789 C 0.29415 0.98083 0.73836 0.0
H790 H 0.19662 0.95658 0.82372 0.0
C791 C 0.29628 0.02864 0.74494 0.0
H792 H 0.255 0.91846 0.76371 0.0
C793 C 0.26295 0.05044 0.77966 0.0
C794 C 0.22653 0.02508 0.80891 0.0
H795 H 0.32396 0.04933 0.72348 0.0
H796 H 0.26555 0.08738 0.7831 0.0
C797 C 0.22438 0.97724 0.80232 0.0
C798 C 0.98369 0.28302 0.7978 0.0
C799 C 0.98475 0.28502 0.74526 0.0
H800 H 0.01664 0.25346 0.86408 0.0
C801 C 0.0219 0.25808 0.71904 0.0
H802 H 0.95579 0.30353 0.81909 0.0
C803 C 0.05708 0.22957 0.74481 0.0
C804 C 0.05583 0.2274 0.79735 0.0
H805 H 0.02393 0.25904 0.67851 0.0
H806 H 0.08486 0.20893 0.72354 0.0
C807 C 0.01882 0.2545 0.82355 0.0
C808 C 0.79078 0.78289 0.49236 0.0
C809 C 0.78954 0.78469 0.5449 0.0
H810 H 0.75797 0.75365 0.42591 0.0
C811 C 0.75219 0.75768 0.57096 0.0
H812 H 0.81884 0.80345 0.47119 0.0
C813 C 0.71701 0.72931 0.54502 0.0
C814 C 0.71843 0.72737 0.49247 0.0
H815 H 0.75002 0.75848 0.61149 0.0
H816 H 0.68906 0.70862 0.56616 0.0
C817 C 0.75565 0.75452 0.46644 0.0
C818 C 0.71744 0.98684 0.27554 0.0
C819 C 0.72106 0.03321 0.28947 0.0
H820 H 0.7548 0.92992 0.23952 0.0
C821 C 0.76676 0.05822 0.27634 0.0
H822 H 0.68269 0.96665 0.28483 0.0
C823 C 0.80801 0.03725 0.24996 0.0
C824 C 0.80449 0.99081 0.23626 0.0
H825 H 0.77075 0.09411 0.28628 0.0
H826 H 0.84283 0.05738 0.24081 0.0
C827 C 0.75871 0.96585 0.24926 0.0
C828 C 0.0176 0.7638 0.22846 0.0
C829 C 0.98108 0.79123 0.2548 0.0
H830 H 0.07855 0.71297 0.23262 0.0
C831 C 0.97892 0.78837 0.30723 0.0
H832 H 0.02039 0.76538 0.18798 0.0
C833 C 0.01247 0.75837 0.3328 0.0
C834 C 0.04881 0.7308 0.30638 0.0
H835 H 0.95138 0.80925 0.3285 0.0
H836 H 1.00967 0.7566 0.37327 0.0
C837 C 0.05116 0.73391 0.25399 0.0
C838 C 0.30188 0.78692 0.99423 0.0
C839 C 0.30401 0.79024 0.04655 0.0
H840 H 0.26461 0.75581 0.93112 0.0
C841 C 0.26857 0.76408 0.07585 0.0
H842 H 0.32842 0.80687 0.97073 0.0
C843 C 0.23178 0.73504 0.05325 0.0
C844 C 0.22972 0.73163 1.00093 0.0
H845 H 0.26908 0.76608 0.11636 0.0
H846 H 0.2053 0.71503 0.07676 0.0
C847 C 0.26508 0.75787 0.97162 0.0
C848 C 0.05571 0.48455 1.01385 0.0
C849 C 0.05212 0.53094 0.99988 0.0
H850 H 0.01852 0.42762 0.05028 0.0
C851 C 1.00665 0.55599 1.01339 0.0
H852 H 0.09028 0.46433 1.0043 0.0
C853 C 0.96559 0.53501 0.04019 0.0
C854 C 0.96908 0.48854 0.05392 0.0
H855 H 1.0027 0.59189 1.00339 0.0
H856 H 0.93092 0.55515 0.04963 0.0
C857 C 0.01464 0.46357 0.04055 0.0
C858 C 0.25992 0.55508 0.29369 0.0
C859 C 0.21954 0.52881 0.31636 0.0
H860 H 0.32597 0.55662 0.24347 0.0
C861 C 0.21549 0.482 0.30429 0.0
H862 H 0.26422 0.59132 0.30181 0.0
C863 C 0.25101 0.46203 0.27014 0.0
C864 C 0.29135 0.4885 0.24754 0.0
H865 H 0.18456 0.46091 0.32068 0.0
H866 H 0.24707 0.4258 0.26179 0.0
C867 C 0.29528 0.53523 0.25979 0.0
C868 C 0.79572 0.28616 0.98231 0.0
C869 C 0.79342 0.2887 0.03475 0.0
H870 H 0.76493 0.25486 0.91609 0.0
C871 C 0.75673 0.26117 0.06092 0.0
H872 H 0.8234 0.30713 0.96119 0.0
C873 C 0.72308 0.23154 0.03521 0.0
C874 C 0.72551 0.22878 0.98282 0.0
H875 H 0.75383 0.26251 0.1014 0.0
H876 H 0.69552 0.21054 0.05646 0.0
C877 C 0.76207 0.25639 0.95656 0.0
C878 C 0.76386 0.45796 0.75001 0.0
C879 C 0.80505 0.48375 0.72796 0.0
H880 H 0.69461 0.45792 0.79636 0.0
C881 C 0.80733 0.53119 0.73728 0.0
H882 H 0.76085 0.42129 0.74391 0.0
C883 C 0.76931 0.55225 0.76806 0.0
C884 C 0.72803 0.52633 0.78991 0.0
H885 H 0.83875 0.55198 0.72128 0.0
H886 H 0.77208 0.58891 0.77438 0.0
C887 C 0.72587 0.47895 0.78044 0.0
C888 C 0.52216 0.96074 1.01915 0.0
C889 C 0.48162 0.98713 0.04134 0.0
H890 H 0.58888 0.95968 0.96895 0.0
C891 C 0.47761 0.0338 0.02869 0.0
H892 H 0.52616 0.92456 0.02781 0.0
C893 C 0.51311 0.05367 0.99482 0.0
C894 C 0.55368 0.02747 0.97256 0.0
H895 H 0.44677 0.05513 0.0447 0.0
H896 H 0.50877 0.08986 0.98639 0.0
C897 C 0.55779 0.98071 0.98501 0.0
C898 C 0.50619 0.26705 0.21388 0.0
C899 C 0.47071 0.29299 0.24321 0.0
H900 H 0.56962 0.21826 0.21293 0.0
C901 C 0.47318 0.28984 0.29554 0.0
H902 H 0.50543 0.26896 0.17336 0.0
C903 C 0.51023 0.26103 0.31811 0.0
C904 C 0.54548 0.23486 0.28877 0.0
H905 H 0.44664 0.30967 0.31905 0.0
H906 H 0.51087 0.25901 0.35863 0.0
C907 C 0.54323 0.23823 0.23646 0.0
C908 C 0.50623 0.75401 0.71239 0.0
C909 C 0.47034 0.7801 0.74118 0.0
H910 H 0.57079 0.70626 0.71226 0.0
C911 C 0.47283 0.77749 0.79358 0.0
H912 H 0.50554 0.75542 0.67184 0.0
C913 C 0.51058 0.74954 0.81668 0.0
C914 C 0.54661 0.72361 0.78787 0.0
H915 H 0.44605 0.79739 0.81677 0.0
H916 H 0.51138 0.74821 0.85723 0.0
C917 C 0.54391 0.72604 0.73547 0.0
C918 C 0.54974 0.4774 0.48742 0.0
C919 C 0.54749 0.52523 0.48068 0.0
H920 H 0.51919 0.41852 0.52616 0.0
C921 C 0.51096 0.55047 0.50978 0.0
H922 H 0.57758 0.45684 0.46613 0.0
C923 C 0.47761 0.52856 0.54451 0.0
C924 C 0.47985 0.48076 0.55123 0.0
H925 H 0.5083 0.5874 0.50621 0.0
H926 H 0.44985 0.54915 0.56585 0.0
C927 C 0.5164 0.45547 0.52222 0.0
loop_
_geom_bond_atom_site_label_1
_geom_bond_atom_site_label_2
_geom_bond_distance
_geom_bond_site_symmetry_2
_ccdc_geom_bond_type
Co0 N4 2.148 . S
Co0 N10 2.128 . S
Co0 N20 2.194 . S
Co0 O25 2.351 . S
Co0 O26 2.155 . S
Co0 O27 2.096 . S
C1 N4 1.301 . S
C1 N5 1.328 . S
C1 H6 0.930 . S
C2 C3 1.333 . S
C2 N4 1.317 . S
C2 H7 0.930 . S
C3 C2 1.333 . S
C3 N5 1.350 . S
C3 H29 0.931 . S
N4 Co0 2.148 . S
N4 C1 1.301 . S
N4 C2 1.317 . S
N5 C1 1.328 . S
N5 C3 1.350 . S
H6 C1 0.930 . S
H7 C2 0.930 . S
C8 O9 1.224 . S
C8 O27 1.247 . S
O9 C8 1.224 . S
N10 Co0 2.128 . S
N10 C11 1.355 . S
N10 C13 1.311 . S
C11 N10 1.355 . S
C11 C12 1.363 1_455 S
C11 H23 0.929 . S
C12 C11 1.363 1_655 S
C12 N14 1.375 . S
C12 H30 0.931 . S
C13 N10 1.311 . S
C13 N14 1.347 1_455 S
C13 H24 0.929 . S
N14 C12 1.375 . S
N14 C13 1.347 1_655 S
C15 C18 1.365 . S
C15 N20 1.328 . S
C15 H21 0.929 . S
C16 C17 1.362 . S
C16 C19 1.378 . S
C16 H31 0.929 . S
C17 C16 1.362 . S
C17 C18 1.366 . S
C18 C15 1.365 . S
C18 C17 1.366 . S
C18 H32 0.930 . S
C19 C16 1.378 . S
C19 N20 1.315 . S
C19 H22 0.930 . S
N20 Co0 2.194 . S
N20 C15 1.328 . S
N20 C19 1.315 . S
H21 C15 0.929 . S
H22 C19 0.930 . S
H23 C11 0.929 . S
H24 C13 0.929 . S
O25 Co0 2.351 . S
O25 C28 1.244 . S
O26 Co0 2.155 . S
O26 C28 1.240 . S
O27 Co0 2.096 . S
O27 C8 1.247 . S
C28 O25 1.244 . S
C28 O26 1.240 . S
H29 C3 0.931 . S
H30 C12 0.931 . S
H31 C16 0.929 . S
H32 C18 0.930 . S
Co33 N37 2.148 . S
Co33 N43 2.128 . S
Co33 N53 2.194 . S
Co33 O58 2.351 . S
Co33 O59 2.155 . S
Co33 O60 2.096 . S
C34 N37 1.301 . S
C34 N38 1.328 1_455 S
C34 H39 0.931 . S
C35 C36 1.333 1_455 S
C35 N37 1.317 . S
C35 H40 0.930 . S
C36 C35 1.333 1_655 S
C36 N38 1.350 . S
C36 H62 0.931 . S
N37 Co33 2.148 . S
N37 C34 1.301 . S
N37 C35 1.317 . S
N38 C34 1.328 1_655 S
N38 C36 1.350 . S
H39 C34 0.931 . S
H40 C35 0.930 . S
C41 O42 1.224 . S
C41 O60 1.247 . S
O42 C41 1.224 . S
N43 Co33 2.128 . S
N43 C44 1.355 . S
N43 C46 1.311 . S
C44 N43 1.355 . S
C44 C45 1.363 . S
C44 H56 0.929 . S
C45 C44 1.363 . S
C45 N47 1.375 . S
C45 H63 0.931 . S
C46 N43 1.311 . S
C46 N47 1.347 . S
C46 H57 0.929 . S
N47 C45 1.375 . S
N47 C46 1.347 . S
C48 C51 1.365 1_556 S
C48 N53 1.328 . S
C48 H54 0.929 . S
C49 C50 1.362 . S
C49 C52 1.378 1_554 S
C49 H64 0.929 . S
C50 C49 1.362 . S
C50 C51 1.366 . S
C51 C48 1.365 1_554 S
C51 C50 1.366 . S
C51 H65 0.930 . S
C52 C49 1.378 1_556 S
C52 N53 1.315 . S
C52 H55 0.930 . S
N53 Co33 2.194 . S
N53 C48 1.328 . S
N53 C52 1.315 . S
H54 C48 0.929 . S
H55 C52 0.930 . S
H56 C44 0.929 . S
H57 C46 0.929 . S
O58 Co33 2.351 . S
O58 C61 1.244 . S
O59 Co33 2.155 . S
O59 C61 1.240 . S
O60 Co33 2.096 . S
O60 C41 1.247 . S
C61 O58 1.244 . S
C61 O59 1.240 . S
H62 C36 0.931 . S
H63 C45 0.931 . S
H64 C49 0.929 . S
H65 C51 0.930 . S
Co66 N70 2.148 . S
Co66 N76 2.128 . S
Co66 N86 2.194 . S
Co66 O91 2.351 . S
Co66 O92 2.155 . S
Co66 O93 2.096 . S
C67 N70 1.301 . S
C67 N71 1.328 . S
C67 H72 0.930 . S
C68 C69 1.333 . S
C68 N70 1.317 . S
C68 H73 0.930 . S
C69 C68 1.333 . S
C69 N71 1.350 . S
C69 H95 0.931 . S
N70 Co66 2.148 . S
N70 C67 1.301 . S
N70 C68 1.317 . S
N71 C67 1.328 . S
N71 C69 1.350 . S
H72 C67 0.930 . S
H73 C68 0.930 . S
C74 O75 1.224 . S
C74 O93 1.247 . S
O75 C74 1.224 . S
N76 Co66 2.128 . S
N76 C77 1.355 . S
N76 C79 1.311 . S
C77 N76 1.355 . S
C77 C78 1.363 1_655 S
C77 H89 0.929 . S
C78 C77 1.363 1_455 S
C78 N80 1.375 . S
C78 H96 0.931 . S
C79 N76 1.311 . S
C79 N80 1.347 1_655 S
C79 H90 0.929 . S
N80 C78 1.375 . S
N80 C79 1.347 1_455 S
C81 C84 1.365 . S
C81 N86 1.328 . S
C81 H87 0.929 . S
C82 C83 1.362 . S
C82 C85 1.378 . S
C82 H97 0.929 . S
C83 C82 1.362 . S
C83 C84 1.366 . S
C84 C81 1.365 . S
C84 C83 1.366 . S
C84 H98 0.930 . S
C85 C82 1.378 . S
C85 N86 1.315 . S
C85 H88 0.930 . S
N86 Co66 2.194 . S
N86 C81 1.328 . S
N86 C85 1.315 . S
H87 C81 0.929 . S
H88 C85 0.930 . S
H89 C77 0.929 . S
H90 C79 0.929 . S
O91 Co66 2.351 . S
O91 C94 1.244 . S
O92 Co66 2.155 . S
O92 C94 1.240 . S
O93 Co66 2.096 . S
O93 C74 1.247 . S
C94 O91 1.244 . S
C94 O92 1.240 . S
H95 C69 0.931 . S
H96 C78 0.931 . S
H97 C82 0.929 . S
H98 C84 0.930 . S
Co99 N103 2.148 . S
Co99 N109 2.128 . S
Co99 N119 2.194 . S
Co99 O124 2.351 . S
Co99 O125 2.155 . S
Co99 O126 2.096 . S
C100 N103 1.301 . S
C100 N104 1.328 1_655 S
C100 H105 0.931 . S
C101 C102 1.333 1_655 S
C101 N103 1.317 . S
C101 H106 0.930 . S
C102 C101 1.333 1_455 S
C102 N104 1.350 . S
C102 H128 0.931 . S
N103 Co99 2.148 . S
N103 C100 1.301 . S
N103 C101 1.317 . S
N104 C100 1.328 1_455 S
N104 C102 1.350 . S
H105 C100 0.931 . S
H106 C101 0.930 . S
C107 O108 1.224 . S
C107 O126 1.247 . S
O108 C107 1.224 . S
N109 Co99 2.128 . S
N109 C110 1.355 . S
N109 C112 1.311 . S
C110 N109 1.355 . S
C110 C111 1.363 . S
C110 H122 0.929 . S
C111 C110 1.363 . S
C111 N113 1.375 . S
C111 H129 0.931 . S
C112 N109 1.311 . S
C112 N113 1.347 . S
C112 H123 0.929 . S
N113 C111 1.375 . S
N113 C112 1.347 . S
C114 C117 1.365 1_554 S
C114 N119 1.328 . S
C114 H120 0.929 . S
C115 C116 1.362 . S
C115 C118 1.378 1_556 S
C115 H130 0.929 . S
C116 C115 1.362 . S
C116 C117 1.366 . S
C117 C114 1.365 1_556 S
C117 C116 1.366 . S
C117 H131 0.930 . S
C118 C115 1.378 1_554 S
C118 N119 1.315 . S
C118 H121 0.930 . S
N119 Co99 2.194 . S
N119 C114 1.328 . S
N119 C118 1.315 . S
H120 C114 0.929 . S
H121 C118 0.930 . S
H122 C110 0.929 . S
H123 C112 0.929 . S
O124 Co99 2.351 . S
O124 C127 1.244 . S
O125 Co99 2.155 . S
O125 C127 1.240 . S
O126 Co99 2.096 . S
O126 C107 1.247 . S
C127 O124 1.244 . S
C127 O125 1.240 . S
H128 C102 0.931 . S
H129 C111 0.931 . S
H130 C115 0.929 . S
H131 C117 0.930 . S
Co132 N136 2.148 . S
Co132 N142 2.128 . S
Co132 N152 2.194 . S
Co132 O157 2.351 . S
Co132 O158 2.155 . S
Co132 O159 2.096 . S
C133 N136 1.301 . S
C133 N137 1.328 . S
C133 H138 0.930 . S
C134 C135 1.333 . S
C134 N136 1.317 . S
C134 H139 0.930 . S
C135 C134 1.333 . S
C135 N137 1.350 . S
C135 H161 0.931 . S
N136 Co132 2.148 . S
N136 C133 1.301 . S
N136 C134 1.317 . S
N137 C133 1.328 . S
N137 C135 1.350 . S
H138 C133 0.930 . S
H139 C134 0.930 . S
C140 O141 1.224 . S
C140 O159 1.247 . S
O141 C140 1.224 . S
N142 Co132 2.128 . S
N142 C143 1.355 . S
N142 C145 1.311 . S
C143 N142 1.355 . S
C143 C144 1.363 1_455 S
C143 H155 0.929 . S
C144 C143 1.363 1_655 S
C144 N146 1.375 . S
C144 H162 0.931 . S
C145 N142 1.311 . S
C145 N146 1.347 1_455 S
C145 H156 0.929 . S
N146 C144 1.375 . S
N146 C145 1.347 1_655 S
C147 C150 1.365 . S
C147 N152 1.328 . S
C147 H153 0.929 . S
C148 C149 1.362 . S
C148 C151 1.378 . S
C148 H163 0.929 . S
C149 C148 1.362 . S
C149 C150 1.366 . S
C150 C147 1.365 . S
C150 C149 1.366 . S
C150 H164 0.930 . S
C151 C148 1.378 . S
C151 N152 1.315 . S
C151 H154 0.930 . S
N152 Co132 2.194 . S
N152 C147 1.328 . S
N152 C151 1.315 . S
H153 C147 0.929 . S
H154 C151 0.930 . S
H155 C143 0.929 . S
H156 C145 0.929 . S
O157 Co132 2.351 . S
O157 C160 1.244 . S
O158 Co132 2.155 . S
O158 C160 1.240 . S
O159 Co132 2.096 . S
O159 C140 1.247 . S
C160 O157 1.244 . S
C160 O158 1.240 . S
H161 C135 0.931 . S
H162 C144 0.931 . S
H163 C148 0.929 . S
H164 C150 0.930 . S
Co165 N169 2.148 . S
Co165 N175 2.128 . S
Co165 N185 2.194 . S
Co165 O190 2.351 . S
Co165 O191 2.155 . S
Co165 O192 2.096 . S
C166 N169 1.301 . S
C166 N170 1.328 1_455 S
C166 H171 0.931 . S
C167 C168 1.333 1_455 S
C167 N169 1.317 . S
C167 H172 0.930 . S
C168 C167 1.333 1_655 S
C168 N170 1.350 . S
C168 H194 0.931 . S
N169 Co165 2.148 . S
N169 C166 1.301 . S
N169 C167 1.317 . S
N170 C166 1.328 1_655 S
N170 C168 1.350 . S
H171 C166 0.931 . S
H172 C167 0.930 . S
C173 O174 1.224 . S
C173 O192 1.247 . S
O174 C173 1.224 . S
N175 Co165 2.128 . S
N175 C176 1.355 . S
N175 C178 1.311 . S
C176 N175 1.355 . S
C176 C177 1.363 . S
C176 H188 0.929 . S
C177 C176 1.363 . S
C177 N179 1.375 . S
C177 H195 0.931 . S
C178 N175 1.311 . S
C178 N179 1.347 . S
C178 H189 0.929 . S
N179 C177 1.375 . S
N179 C178 1.347 . S
C180 C183 1.365 . S
C180 N185 1.328 . S
C180 H186 0.929 . S
C181 C182 1.362 . S
C181 C184 1.378 . S
C181 H196 0.929 . S
C182 C181 1.362 . S
C182 C183 1.366 . S
C183 C180 1.365 . S
C183 C182 1.366 . S
C183 H197 0.930 . S
C184 C181 1.378 . S
C184 N185 1.315 . S
C184 H187 0.930 . S
N185 Co165 2.194 . S
N185 C180 1.328 . S
N185 C184 1.315 . S
H186 C180 0.929 . S
H187 C184 0.930 . S
H188 C176 0.929 . S
H189 C178 0.929 . S
O190 Co165 2.351 . S
O190 C193 1.244 . S
O191 Co165 2.155 . S
O191 C193 1.240 . S
O192 Co165 2.096 . S
O192 C173 1.247 . S
C193 O190 1.244 . S
C193 O191 1.240 . S
H194 C168 0.931 . S
H195 C177 0.931 . S
H196 C181 0.929 . S
H197 C183 0.930 . S
Co198 N202 2.148 . S
Co198 N208 2.128 . S
Co198 N218 2.194 . S
Co198 O223 2.351 . S
Co198 O224 2.155 . S
Co198 O225 2.096 . S
C199 N202 1.301 . S
C199 N203 1.328 . S
C199 H204 0.930 . S
C200 C201 1.333 . S
C200 N202 1.317 . S
C200 H205 0.930 . S
C201 C200 1.333 . S
C201 N203 1.350 . S
C201 H227 0.931 . S
N202 Co198 2.148 . S
N202 C199 1.301 . S
N202 C200 1.317 . S
N203 C199 1.328 . S
N203 C201 1.350 . S
H204 C199 0.930 . S
H205 C200 0.930 . S
C206 O207 1.224 . S
C206 O225 1.247 . S
O207 C206 1.224 . S
N208 Co198 2.128 . S
N208 C209 1.355 . S
N208 C211 1.311 . S
C209 N208 1.355 . S
C209 C210 1.363 1_655 S
C209 H221 0.929 . S
C210 C209 1.363 1_455 S
C210 N212 1.375 . S
C210 H228 0.931 . S
C211 N208 1.311 . S
C211 N212 1.347 1_655 S
C211 H222 0.929 . S
N212 C210 1.375 . S
N212 C211 1.347 1_455 S
C213 C216 1.365 . S
C213 N218 1.328 . S
C213 H219 0.929 . S
C214 C215 1.362 . S
C214 C217 1.378 . S
C214 H229 0.929 . S
C215 C214 1.362 . S
C215 C216 1.366 . S
C216 C213 1.365 . S
C216 C215 1.366 . S
C216 H230 0.930 . S
C217 C214 1.378 . S
C217 N218 1.315 . S
C217 H220 0.930 . S
N218 Co198 2.194 . S
N218 C213 1.328 . S
N218 C217 1.315 . S
H219 C213 0.929 . S
H220 C217 0.930 . S
H221 C209 0.929 . S
H222 C211 0.929 . S
O223 Co198 2.351 . S
O223 C226 1.244 . S
O224 Co198 2.155 . S
O224 C226 1.240 . S
O225 Co198 2.096 . S
O225 C206 1.247 . S
C226 O223 1.244 . S
C226 O224 1.240 . S
H227 C201 0.931 . S
H228 C210 0.931 . S
H229 C214 0.929 . S
H230 C216 0.930 . S
Co231 N235 2.148 . S
Co231 N241 2.128 . S
Co231 N251 2.194 . S
Co231 O256 2.351 . S
Co231 O257 2.155 . S
Co231 O258 2.096 . S
C232 N235 1.301 . S
C232 N236 1.328 1_655 S
C232 H237 0.931 . S
C233 C234 1.333 1_655 S
C233 N235 1.317 . S
C233 H238 0.930 . S
C234 C233 1.333 1_455 S
C234 N236 1.350 . S
C234 H260 0.931 . S
N235 Co231 2.148 . S
N235 C232 1.301 . S
N235 C233 1.317 . S
N236 C232 1.328 1_455 S
N236 C234 1.350 . S
H237 C232 0.931 . S
H238 C233 0.930 . S
C239 O240 1.224 . S
C239 O258 1.247 . S
O240 C239 1.224 . S
N241 Co231 2.128 . S
N241 C242 1.355 . S
N241 C244 1.311 . S
C242 N241 1.355 . S
C242 C243 1.363 . S
C242 H254 0.929 . S
C243 C242 1.363 . S
C243 N245 1.375 . S
C243 H261 0.931 . S
C244 N241 1.311 . S
C244 N245 1.347 . S
C244 H255 0.929 . S
N245 C243 1.375 . S
N245 C244 1.347 . S
C246 C249 1.365 . S
C246 N251 1.328 . S
C246 H252 0.929 . S
C247 C248 1.362 . S
C247 C250 1.378 . S
C247 H262 0.929 . S
C248 C247 1.362 . S
C248 C249 1.366 . S
C249 C246 1.365 . S
C249 C248 1.366 . S
C249 H263 0.930 . S
C250 C247 1.378 . S
C250 N251 1.315 . S
C250 H253 0.930 . S
N251 Co231 2.194 . S
N251 C246 1.328 . S
N251 C250 1.315 . S
H252 C246 0.929 . S
H253 C250 0.930 . S
H254 C242 0.929 . S
H255 C244 0.929 . S
O256 Co231 2.351 . S
O256 C259 1.244 . S
O257 Co231 2.155 . S
O257 C259 1.240 . S
O258 Co231 2.096 . S
O258 C239 1.247 . S
C259 O256 1.244 . S
C259 O257 1.240 . S
H260 C234 0.931 . S
H261 C243 0.931 . S
H262 C247 0.929 . S
H263 C249 0.930 . S
Co264 N268 2.148 . S
Co264 N274 2.128 . S
Co264 N284 2.194 . S
Co264 O289 2.351 . S
Co264 O290 2.155 . S
Co264 O291 2.096 . S
C265 N268 1.301 . S
C265 N269 1.328 . S
C265 H270 0.930 . S
C266 C267 1.333 . S
C266 N268 1.317 . S
C266 H271 0.930 . S
C267 C266 1.333 . S
C267 N269 1.350 . S
C267 H293 0.931 . S
N268 Co264 2.148 . S
N268 C265 1.301 . S
N268 C266 1.317 . S
N269 C265 1.328 . S
N269 C267 1.350 . S
H270 C265 0.930 . S
H271 C266 0.930 . S
C272 O273 1.224 . S
C272 O291 1.247 . S
O273 C272 1.224 . S
N274 Co264 2.128 . S
N274 C275 1.355 . S
N274 C277 1.311 . S
C275 N274 1.355 . S
C275 C276 1.363 . S
C275 H287 0.929 . S
C276 C275 1.363 . S
C276 N278 1.375 . S
C276 H294 0.931 . S
C277 N274 1.311 . S
C277 N278 1.347 . S
C277 H288 0.929 . S
N278 C276 1.375 . S
N278 C277 1.347 . S
C279 C282 1.365 . S
C279 N284 1.328 . S
C279 H285 0.929 . S
C280 C281 1.362 . S
C280 C283 1.378 . S
C280 H295 0.929 . S
C281 C280 1.362 . S
C281 C282 1.366 . S
C282 C279 1.365 . S
C282 C281 1.366 . S
C282 H296 0.930 . S
C283 C280 1.378 . S
C283 N284 1.315 . S
C283 H286 0.930 . S
N284 Co264 2.194 . S
N284 C279 1.328 . S
N284 C283 1.315 . S
H285 C279 0.929 . S
H286 C283 0.930 . S
H287 C275 0.929 . S
H288 C277 0.929 . S
O289 Co264 2.351 . S
O289 C292 1.244 . S
O290 Co264 2.155 . S
O290 C292 1.240 . S
O291 Co264 2.096 . S
O291 C272 1.247 . S
C292 O289 1.244 . S
C292 O290 1.240 . S
H293 C267 0.931 . S
H294 C276 0.931 . S
H295 C280 0.929 . S
H296 C282 0.930 . S
Co297 N301 2.148 . S
Co297 N307 2.128 . S
Co297 N317 2.194 . S
Co297 O322 2.351 . S
Co297 O323 2.155 . S
Co297 O324 2.096 . S
C298 N301 1.301 . S
C298 N302 1.328 . S
C298 H303 0.930 . S
C299 C300 1.333 . S
C299 N301 1.317 . S
C299 H304 0.930 . S
C300 C299 1.333 . S
C300 N302 1.350 . S
C300 H326 0.931 . S
N301 Co297 2.148 . S
N301 C298 1.301 . S
N301 C299 1.317 . S
N302 C298 1.328 . S
N302 C300 1.350 . S
H303 C298 0.930 . S
H304 C299 0.930 . S
C305 O306 1.224 . S
C305 O324 1.247 . S
O306 C305 1.224 . S
N307 Co297 2.128 . S
N307 C308 1.355 . S
N307 C310 1.311 . S
C308 N307 1.355 . S
C308 C309 1.363 . S
C308 H320 0.929 . S
C309 C308 1.363 . S
C309 N311 1.375 . S
C309 H327 0.931 . S
C310 N307 1.311 . S
C310 N311 1.347 . S
C310 H321 0.929 . S
N311 C309 1.375 . S
N311 C310 1.347 . S
C312 C315 1.365 . S
C312 N317 1.328 . S
C312 H318 0.929 . S
C313 C314 1.362 . S
C313 C316 1.378 . S
C313 H328 0.929 . S
C314 C313 1.362 . S
C314 C315 1.366 . S
C315 C312 1.365 . S
C315 C314 1.366 . S
C315 H329 0.930 . S
C316 C313 1.378 . S
C316 N317 1.315 . S
C316 H319 0.930 . S
N317 Co297 2.194 . S
N317 C312 1.328 . S
N317 C316 1.315 . S
H318 C312 0.929 . S
H319 C316 0.930 . S
H320 C308 0.929 . S
H321 C310 0.929 . S
O322 Co297 2.351 . S
O322 C325 1.244 . S
O323 Co297 2.155 . S
O323 C325 1.240 . S
O324 Co297 2.096 . S
O324 C305 1.247 . S
C325 O322 1.244 . S
C325 O323 1.240 . S
H326 C300 0.931 . S
H327 C309 0.931 . S
H328 C313 0.929 . S
H329 C315 0.930 . S
Co330 N334 2.148 . S
Co330 N340 2.128 . S
Co330 N350 2.194 . S
Co330 O355 2.351 . S
Co330 O356 2.155 . S
Co330 O357 2.096 . S
C331 N334 1.301 . S
C331 N335 1.328 . S
C331 H336 0.930 . S
C332 C333 1.333 . S
C332 N334 1.317 . S
C332 H337 0.930 . S
C333 C332 1.333 . S
C333 N335 1.350 . S
C333 H359 0.931 . S
N334 Co330 2.148 . S
N334 C331 1.301 . S
N334 C332 1.317 . S
N335 C331 1.328 . S
N335 C333 1.350 . S
H336 C331 0.930 . S
H337 C332 0.930 . S
C338 O339 1.224 . S
C338 O357 1.247 . S
O339 C338 1.224 . S
N340 Co330 2.128 . S
N340 C341 1.355 . S
N340 C343 1.311 . S
C341 N340 1.355 . S
C341 C342 1.363 . S
C341 H353 0.929 . S
C342 C341 1.363 . S
C342 N344 1.375 . S
C342 H360 0.931 . S
C343 N340 1.311 . S
C343 N344 1.347 . S
C343 H354 0.929 . S
N344 C342 1.375 . S
N344 C343 1.347 . S
C345 C348 1.365 . S
C345 N350 1.328 . S
C345 H351 0.929 . S
C346 C347 1.362 . S
C346 C349 1.378 . S
C346 H361 0.929 . S
C347 C346 1.362 . S
C347 C348 1.366 . S
C348 C345 1.365 . S
C348 C347 1.366 . S
C348 H362 0.930 . S
C349 C346 1.378 . S
C349 N350 1.315 . S
C349 H352 0.930 . S
N350 Co330 2.194 . S
N350 C345 1.328 . S
N350 C349 1.315 . S
H351 C345 0.929 . S
H352 C349 0.930 . S
H353 C341 0.929 . S
H354 C343 0.929 . S
O355 Co330 2.351 . S
O355 C358 1.244 . S
O356 Co330 2.155 . S
O356 C358 1.240 . S
O357 Co330 2.096 . S
O357 C338 1.247 . S
C358 O355 1.244 . S
C358 O356 1.240 . S
H359 C333 0.931 . S
H360 C342 0.931 . S
H361 C346 0.929 . S
H362 C348 0.930 . S
Co363 N367 2.148 . S
Co363 N373 2.128 . S
Co363 N383 2.194 . S
Co363 O388 2.351 . S
Co363 O389 2.155 . S
Co363 O390 2.096 . S
C364 N367 1.301 . S
C364 N368 1.328 . S
C364 H369 0.930 . S
C365 C366 1.333 . S
C365 N367 1.317 . S
C365 H370 0.930 . S
C366 C365 1.333 . S
C366 N368 1.350 . S
C366 H392 0.931 . S
N367 Co363 2.148 . S
N367 C364 1.301 . S
N367 C365 1.317 . S
N368 C364 1.328 . S
N368 C366 1.350 . S
H369 C364 0.930 . S
H370 C365 0.930 . S
C371 O372 1.224 . S
C371 O390 1.247 . S
O372 C371 1.224 . S
N373 Co363 2.128 . S
N373 C374 1.355 . S
N373 C376 1.311 . S
C374 N373 1.355 . S
C374 C375 1.363 . S
C374 H386 0.929 . S
C375 C374 1.363 . S
C375 N377 1.375 . S
C375 H393 0.931 . S
C376 N373 1.311 . S
C376 N377 1.347 . S
C376 H387 0.929 . S
N377 C375 1.375 . S
N377 C376 1.347 . S
C378 C381 1.365 . S
C378 N383 1.328 . S
C378 H384 0.929 . S
C379 C380 1.362 . S
C379 C382 1.378 . S
C379 H394 0.929 . S
C380 C379 1.362 . S
C380 C381 1.366 . S
C381 C378 1.365 . S
C381 C380 1.366 . S
C381 H395 0.930 . S
C382 C379 1.378 . S
C382 N383 1.315 . S
C382 H385 0.930 . S
N383 Co363 2.194 . S
N383 C378 1.328 . S
N383 C382 1.315 . S
H384 C378 0.929 . S
H385 C382 0.930 . S
H386 C374 0.929 . S
H387 C376 0.929 . S
O388 Co363 2.351 . S
O388 C391 1.244 . S
O389 Co363 2.155 . S
O389 C391 1.240 . S
O390 Co363 2.096 . S
O390 C371 1.247 . S
C391 O388 1.244 . S
C391 O389 1.240 . S
H392 C366 0.931 . S
H393 C375 0.931 . S
H394 C379 0.929 . S
H395 C381 0.930 . S
Co396 N400 2.148 . S
Co396 N406 2.128 . S
Co396 N416 2.194 . S
Co396 O421 2.351 . S
Co396 O422 2.155 . S
Co396 O423 2.096 . S
C397 N400 1.301 . S
C397 N401 1.328 . S
C397 H402 0.930 . S
C398 C399 1.333 . S
C398 N400 1.317 . S
C398 H403 0.930 . S
C399 C398 1.333 . S
C399 N401 1.350 . S
C399 H425 0.931 . S
N400 Co396 2.148 . S
N400 C397 1.301 . S
N400 C398 1.317 . S
N401 C397 1.328 . S
N401 C399 1.350 . S
H402 C397 0.930 . S
H403 C398 0.930 . S
C404 O405 1.224 . S
C404 O423 1.247 . S
O405 C404 1.224 . S
N406 Co396 2.128 . S
N406 C407 1.355 . S
N406 C409 1.311 . S
C407 N406 1.355 . S
C407 C408 1.363 . S
C407 H419 0.929 . S
C408 C407 1.363 . S
C408 N410 1.375 . S
C408 H426 0.931 . S
C409 N406 1.311 . S
C409 N410 1.347 . S
C409 H420 0.929 . S
N410 C408 1.375 . S
N410 C409 1.347 . S
C411 C414 1.365 . S
C411 N416 1.328 . S
C411 H417 0.929 . S
C412 C413 1.362 . S
C412 C415 1.378 . S
C412 H427 0.929 . S
C413 C412 1.362 . S
C413 C414 1.366 . S
C414 C411 1.365 . S
C414 C413 1.366 . S
C414 H428 0.930 . S
C415 C412 1.378 . S
C415 N416 1.315 . S
C415 H418 0.930 . S
N416 Co396 2.194 . S
N416 C411 1.328 . S
N416 C415 1.315 . S
H417 C411 0.929 . S
H418 C415 0.930 . S
H419 C407 0.929 . S
H420 C409 0.929 . S
O421 Co396 2.351 . S
O421 C424 1.244 . S
O422 Co396 2.155 . S
O422 C424 1.240 . S
O423 Co396 2.096 . S
O423 C404 1.247 . S
C424 O421 1.244 . S
C424 O422 1.240 . S
H425 C399 0.931 . S
H426 C408 0.931 . S
H427 C412 0.929 . S
H428 C414 0.930 . S
Co429 N433 2.148 . S
Co429 N439 2.128 . S
Co429 N449 2.194 . S
Co429 O454 2.351 . S
Co429 O455 2.155 . S
Co429 O456 2.096 . S
C430 N433 1.301 . S
C430 N434 1.328 . S
C430 H435 0.930 . S
C431 C432 1.333 . S
C431 N433 1.317 . S
C431 H436 0.930 . S
C432 C431 1.333 . S
C432 N434 1.350 . S
C432 H458 0.931 . S
N433 Co429 2.148 . S
N433 C430 1.301 . S
N433 C431 1.317 . S
N434 C430 1.328 . S
N434 C432 1.350 . S
H435 C430 0.930 . S
H436 C431 0.930 . S
C437 O438 1.224 . S
C437 O456 1.247 . S
O438 C437 1.224 . S
N439 Co429 2.128 . S
N439 C440 1.355 . S
N439 C442 1.311 . S
C440 N439 1.355 . S
C440 C441 1.363 . S
C440 H452 0.929 . S
C441 C440 1.363 . S
C441 N443 1.375 . S
C441 H459 0.931 . S
C442 N439 1.311 . S
C442 N443 1.347 . S
C442 H453 0.929 . S
N443 C441 1.375 . S
N443 C442 1.347 . S
C444 C447 1.365 1_556 S
C444 N449 1.328 . S
C444 H450 0.929 . S
C445 C446 1.362 . S
C445 C448 1.378 1_554 S
C445 H460 0.929 . S
C446 C445 1.362 . S
C446 C447 1.366 . S
C447 C444 1.365 1_554 S
C447 C446 1.366 . S
C447 H461 0.930 . S
C448 C445 1.378 1_556 S
C448 N449 1.315 . S
C448 H451 0.930 . S
N449 Co429 2.194 . S
N449 C444 1.328 . S
N449 C448 1.315 . S
H450 C444 0.929 . S
H451 C448 0.930 . S
H452 C440 0.929 . S
H453 C442 0.929 . S
O454 Co429 2.351 . S
O454 C457 1.244 . S
O455 Co429 2.155 . S
O455 C457 1.240 . S
O456 Co429 2.096 . S
O456 C437 1.247 . S
C457 O454 1.244 . S
C457 O455 1.240 . S
H458 C432 0.931 . S
H459 C441 0.931 . S
H460 C445 0.929 . S
H461 C447 0.930 . S
Co462 N466 2.148 . S
Co462 N472 2.128 . S
Co462 N482 2.194 . S
Co462 O487 2.351 . S
Co462 O488 2.155 . S
Co462 O489 2.096 . S
C463 N466 1.301 . S
C463 N467 1.328 . S
C463 H468 0.930 . S
C464 C465 1.333 . S
C464 N466 1.317 . S
C464 H469 0.930 . S
C465 C464 1.333 . S
C465 N467 1.350 . S
C465 H491 0.931 . S
N466 Co462 2.148 . S
N466 C463 1.301 . S
N466 C464 1.317 . S
N467 C463 1.328 . S
N467 C465 1.350 . S
H468 C463 0.930 . S
H469 C464 0.930 . S
C470 O471 1.224 . S
C470 O489 1.247 . S
O471 C470 1.224 . S
N472 Co462 2.128 . S
N472 C473 1.355 . S
N472 C475 1.311 . S
C473 N472 1.355 . S
C473 C474 1.363 . S
C473 H485 0.929 . S
C474 C473 1.363 . S
C474 N476 1.375 . S
C474 H492 0.931 . S
C475 N472 1.311 . S
C475 N476 1.347 . S
C475 H486 0.929 . S
N476 C474 1.375 . S
N476 C475 1.347 . S
C477 C480 1.365 . S
C477 N482 1.328 . S
C477 H483 0.929 . S
C478 C479 1.362 . S
C478 C481 1.378 . S
C478 H493 0.929 . S
C479 C478 1.362 . S
C479 C480 1.366 . S
C480 C477 1.365 . S
C480 C479 1.366 . S
C480 H494 0.930 . S
C481 C478 1.378 . S
C481 N482 1.315 . S
C481 H484 0.930 . S
N482 Co462 2.194 . S
N482 C477 1.328 . S
N482 C481 1.315 . S
H483 C477 0.929 . S
H484 C481 0.930 . S
H485 C473 0.929 . S
H486 C475 0.929 . S
O487 Co462 2.351 . S
O487 C490 1.244 . S
O488 Co462 2.155 . S
O488 C490 1.240 . S
O489 Co462 2.096 . S
O489 C470 1.247 . S
C490 O487 1.244 . S
C490 O488 1.240 . S
H491 C465 0.931 . S
H492 C474 0.931 . S
H493 C478 0.929 . S
H494 C480 0.930 . S
Co495 N499 2.148 . S
Co495 N505 2.128 . S
Co495 N515 2.194 . S
Co495 O520 2.351 . S
Co495 O521 2.155 . S
Co495 O522 2.096 . S
C496 N499 1.301 . S
C496 N500 1.328 . S
C496 H501 0.930 . S
C497 C498 1.333 . S
C497 N499 1.317 . S
C497 H502 0.930 . S
C498 C497 1.333 . S
C498 N500 1.350 . S
C498 H524 0.931 . S
N499 Co495 2.148 . S
N499 C496 1.301 . S
N499 C497 1.317 . S
N500 C496 1.328 . S
N500 C498 1.350 . S
H501 C496 0.930 . S
H502 C497 0.930 . S
C503 O504 1.224 . S
C503 O522 1.247 . S
O504 C503 1.224 . S
N505 Co495 2.128 . S
N505 C506 1.355 . S
N505 C508 1.311 . S
C506 N505 1.355 . S
C506 C507 1.363 . S
C506 H518 0.929 . S
C507 C506 1.363 . S
C507 N509 1.375 . S
C507 H525 0.931 . S
C508 N505 1.311 . S
C508 N509 1.347 . S
C508 H519 0.929 . S
N509 C507 1.375 . S
N509 C508 1.347 . S
C510 C513 1.365 1_554 S
C510 N515 1.328 . S
C510 H516 0.929 . S
C511 C512 1.362 . S
C511 C514 1.378 1_556 S
C511 H526 0.929 . S
C512 C511 1.362 . S
C512 C513 1.366 . S
C513 C510 1.365 1_556 S
C513 C512 1.366 . S
C513 H527 0.930 . S
C514 C511 1.378 1_554 S
C514 N515 1.315 . S
C514 H517 0.930 . S
N515 Co495 2.194 . S
N515 C510 1.328 . S
N515 C514 1.315 . S
H516 C510 0.929 . S
H517 C514 0.930 . S
H518 C506 0.929 . S
H519 C508 0.929 . S
O520 Co495 2.351 . S
O520 C523 1.244 . S
O521 Co495 2.155 . S
O521 C523 1.240 . S
O522 Co495 2.096 . S
O522 C503 1.247 . S
C523 O520 1.244 . S
C523 O521 1.240 . S
H524 C498 0.931 . S
H525 C507 0.931 . S
H526 C511 0.929 . S
H527 C513 0.930 . S
C528 C529 1.387 . S
C528 H532 0.950 . S
C528 C537 1.390 . S
C529 C528 1.387 . S
C529 C531 1.387 . S
H530 C537 0.950 . S
C531 C529 1.387 . S
C531 C533 1.390 . S
C531 H535 0.950 . S
H532 C528 0.950 . S
C533 C531 1.390 . S
C533 C534 1.387 . S
C533 H536 0.950 . S
C534 C533 1.387 . S
C534 C537 1.387 . S
H535 C531 0.950 . S
H536 C533 0.950 . S
C537 C528 1.390 . S
C537 H530 0.950 . S
C537 C534 1.387 . S
C538 C539 1.387 . S
C538 H542 0.950 . S
C538 C547 1.390 . S
C539 C538 1.387 . S
C539 C541 1.387 . S
H540 C547 0.950 . S
C541 C539 1.387 . S
C541 C543 1.390 . S
C541 H545 0.950 . S
H542 C538 0.950 . S
C543 C541 1.390 . S
C543 C544 1.387 . S
C543 H546 0.950 . S
C544 C543 1.387 . S
C544 C547 1.387 . S
H545 C541 0.950 . S
H546 C543 0.950 . S
C547 C538 1.390 . S
C547 H540 0.950 . S
C547 C544 1.387 . S
C548 C549 1.387 . S
C548 H552 0.950 . S
C548 C557 1.390 . S
C549 C548 1.387 . S
C549 C551 1.387 . S
H550 C557 0.950 . S
C551 C549 1.387 . S
C551 C553 1.390 . S
C551 H555 0.950 . S
H552 C548 0.950 . S
C553 C551 1.390 . S
C553 C554 1.387 . S
C553 H556 0.950 . S
C554 C553 1.387 . S
C554 C557 1.387 . S
H555 C551 0.950 . S
H556 C553 0.950 . S
C557 C548 1.390 . S
C557 H550 0.950 . S
C557 C554 1.387 . S
C558 C559 1.387 . S
C558 H562 0.950 . S
C558 C567 1.390 . S
C559 C558 1.387 . S
C559 C561 1.387 . S
H560 C567 0.950 . S
C561 C559 1.387 . S
C561 C563 1.390 . S
C561 H565 0.950 . S
H562 C558 0.950 . S
C563 C561 1.390 . S
C563 C564 1.387 . S
C563 H566 0.950 . S
C564 C563 1.387 . S
C564 C567 1.387 . S
H565 C561 0.950 . S
H566 C563 0.950 . S
C567 C558 1.390 . S
C567 H560 0.950 . S
C567 C564 1.387 . S
C568 C569 1.387 . S
C568 H572 0.950 . S
C568 C577 1.390 . S
C569 C568 1.387 . S
C569 C571 1.387 . S
H570 C577 0.950 . S
C571 C569 1.387 . S
C571 C573 1.390 . S
C571 H575 0.950 . S
H572 C568 0.950 . S
C573 C571 1.390 . S
C573 C574 1.387 . S
C573 H576 0.950 . S
C574 C573 1.387 . S
C574 C577 1.387 . S
H575 C571 0.950 . S
H576 C573 0.950 . S
C577 C568 1.390 . S
C577 H570 0.950 . S
C577 C574 1.387 . S
C578 C579 1.387 . S
C578 H582 0.950 . S
C578 C587 1.390 . S
C579 C578 1.387 . S
C579 C581 1.387 . S
H580 C587 0.950 . S
C581 C579 1.387 . S
C581 C583 1.390 . S
C581 H585 0.950 . S
H582 C578 0.950 . S
C583 C581 1.390 . S
C583 C584 1.387 . S
C583 H586 0.950 . S
C584 C583 1.387 . S
C584 C587 1.387 . S
H585 C581 0.950 . S
H586 C583 0.950 . S
C587 C578 1.390 . S
C587 H580 0.950 . S
C587 C584 1.387 . S
C588 C589 1.387 . S
C588 H592 0.950 . S
C588 C597 1.390 . S
C589 C588 1.387 . S
C589 C591 1.387 . S
H590 C597 0.950 . S
C591 C589 1.387 . S
C591 C593 1.390 . S
C591 H595 0.950 . S
H592 C588 0.950 . S
C593 C591 1.390 . S
C593 C594 1.387 . S
C593 H596 0.950 . S
C594 C593 1.387 . S
C594 C597 1.387 . S
H595 C591 0.950 . S
H596 C593 0.950 . S
C597 C588 1.390 . S
C597 H590 0.950 . S
C597 C594 1.387 . S
C598 C599 1.387 . S
C598 H602 0.950 . S
C598 C607 1.390 . S
C599 C598 1.387 . S
C599 C601 1.387 . S
H600 C607 0.950 . S
C601 C599 1.387 . S
C601 C603 1.390 . S
C601 H605 0.950 . S
H602 C598 0.950 . S
C603 C601 1.390 . S
C603 C604 1.387 . S
C603 H606 0.950 . S
C604 C603 1.387 . S
C604 C607 1.387 . S
H605 C601 0.950 . S
H606 C603 0.950 . S
C607 C598 1.390 . S
C607 H600 0.950 . S
C607 C604 1.387 . S
C608 C609 1.387 . S
C608 H612 0.950 . S
C608 C617 1.390 . S
C609 C608 1.387 . S
C609 C611 1.387 . S
H610 C617 0.950 . S
C611 C609 1.387 . S
C611 C613 1.390 . S
C611 H615 0.950 . S
H612 C608 0.950 . S
C613 C611 1.390 . S
C613 C614 1.387 . S
C613 H616 0.950 . S
C614 C613 1.387 . S
C614 C617 1.387 . S
H615 C611 0.950 . S
H616 C613 0.950 . S
C617 C608 1.390 . S
C617 H610 0.950 . S
C617 C614 1.387 . S
C618 C619 1.387 . S
C618 H622 0.950 . S
C618 C627 1.390 . S
C619 C618 1.387 . S
C619 C621 1.387 . S
H620 C627 0.950 . S
C621 C619 1.387 . S
C621 C623 1.390 . S
C621 H625 0.950 . S
H622 C618 0.950 . S
C623 C621 1.390 . S
C623 C624 1.387 . S
C623 H626 0.950 . S
C624 C623 1.387 . S
C624 C627 1.387 . S
H625 C621 0.950 . S
H626 C623 0.950 . S
C627 C618 1.390 . S
C627 H620 0.950 . S
C627 C624 1.387 . S
C628 C629 1.387 . S
C628 H632 0.950 . S
C628 C637 1.390 . S
C629 C628 1.387 . S
C629 C631 1.387 . S
H630 C637 0.950 . S
C631 C629 1.387 . S
C631 C633 1.390 . S
C631 H635 0.950 . S
H632 C628 0.950 . S
C633 C631 1.390 . S
C633 C634 1.387 . S
C633 H636 0.950 . S
C634 C633 1.387 . S
C634 C637 1.387 . S
H635 C631 0.950 . S
H636 C633 0.950 . S
C637 C628 1.390 . S
C637 H630 0.950 . S
C637 C634 1.387 . S
C638 C639 1.387 . S
C638 H642 0.950 . S
C638 C647 1.390 . S
C639 C638 1.387 . S
C639 C641 1.387 . S
H640 C647 0.950 . S
C641 C639 1.387 . S
C641 C643 1.390 . S
C641 H645 0.950 . S
H642 C638 0.950 . S
C643 C641 1.390 . S
C643 C644 1.387 . S
C643 H646 0.950 . S
C644 C643 1.387 . S
C644 C647 1.387 . S
H645 C641 0.950 . S
H646 C643 0.950 . S
C647 C638 1.390 . S
C647 H640 0.950 . S
C647 C644 1.387 . S
C648 C649 1.387 . S
C648 H652 0.950 . S
C648 C657 1.390 . S
C649 C648 1.387 . S
C649 C651 1.387 . S
H650 C657 0.950 . S
C651 C649 1.387 . S
C651 C653 1.390 . S
C651 H655 0.950 . S
H652 C648 0.950 . S
C653 C651 1.390 . S
C653 C654 1.387 . S
C653 H656 0.950 . S
C654 C653 1.387 . S
C654 C657 1.387 . S
H655 C651 0.950 . S
H656 C653 0.950 . S
C657 C648 1.390 . S
C657 H650 0.950 . S
C657 C654 1.387 . S
C658 C659 1.387 . S
C658 H662 0.950 . S
C658 C667 1.390 . S
C659 C658 1.387 . S
C659 C661 1.387 . S
H660 C667 0.950 . S
C661 C659 1.387 . S
C661 C663 1.390 . S
C661 H665 0.950 . S
H662 C658 0.950 . S
C663 C661 1.390 . S
C663 C664 1.387 . S
C663 H666 0.950 . S
C664 C663 1.387 . S
C664 C667 1.387 . S
H665 C661 0.950 . S
H666 C663 0.950 . S
C667 C658 1.390 . S
C667 H660 0.950 . S
C667 C664 1.387 . S
C668 C669 1.387 . S
C668 H672 0.950 . S
C668 C677 1.390 . S
C669 C668 1.387 . S
C669 C671 1.387 . S
H670 C677 0.950 . S
C671 C669 1.387 . S
C671 C673 1.390 . S
C671 H675 0.950 . S
H672 C668 0.950 . S
C673 C671 1.390 . S
C673 C674 1.387 . S
C673 H676 0.950 . S
C674 C673 1.387 . S
C674 C677 1.387 . S
H675 C671 0.950 . S
H676 C673 0.950 . S
C677 C668 1.390 . S
C677 H670 0.950 . S
C677 C674 1.387 . S
C678 C679 1.387 . S
C678 H682 0.950 . S
C678 C687 1.390 . S
C679 C678 1.387 . S
C679 C681 1.387 . S
H680 C687 0.950 . S
C681 C679 1.387 . S
C681 C683 1.390 . S
C681 H685 0.950 . S
H682 C678 0.950 . S
C683 C681 1.390 . S
C683 C684 1.387 . S
C683 H686 0.950 . S
C684 C683 1.387 . S
C684 C687 1.387 . S
H685 C681 0.950 . S
H686 C683 0.950 . S
C687 C678 1.390 . S
C687 H680 0.950 . S
C687 C684 1.387 . S
C688 C689 1.387 . S
C688 H692 0.950 . S
C688 C697 1.390 . S
C689 C688 1.387 . S
C689 C691 1.387 . S
H690 C697 0.950 . S
C691 C689 1.387 . S
C691 C693 1.390 . S
C691 H695 0.950 . S
H692 C688 0.950 . S
C693 C691 1.390 . S
C693 C694 1.387 . S
C693 H696 0.950 . S
C694 C693 1.387 . S
C694 C697 1.387 . S
H695 C691 0.950 . S
H696 C693 0.950 . S
C697 C688 1.390 . S
C697 H690 0.950 . S
C697 C694 1.387 . S
C698 C699 1.387 . S
C698 H702 0.950 . S
C698 C707 1.390 . S
C699 C698 1.387 . S
C699 C701 1.387 . S
H700 C707 0.950 . S
C701 C699 1.387 . S
C701 C703 1.390 . S
C701 H705 0.950 . S
H702 C698 0.950 . S
C703 C701 1.390 . S
C703 C704 1.387 . S
C703 H706 0.950 . S
C704 C703 1.387 . S
C704 C707 1.387 . S
H705 C701 0.950 . S
H706 C703 0.950 . S
C707 C698 1.390 . S
C707 H700 0.950 . S
C707 C704 1.387 . S
C708 C709 1.387 . S
C708 H712 0.950 . S
C708 C717 1.390 . S
C709 C708 1.387 . S
C709 C711 1.387 . S
H710 C717 0.950 . S
C711 C709 1.387 . S
C711 C713 1.390 . S
C711 H715 0.950 . S
H712 C708 0.950 . S
C713 C711 1.390 . S
C713 C714 1.387 . S
C713 H716 0.950 . S
C714 C713 1.387 . S
C714 C717 1.387 . S
H715 C711 0.950 . S
H716 C713 0.950 . S
C717 C708 1.390 . S
C717 H710 0.950 . S
C717 C714 1.387 . S
C718 C719 1.387 . S
C718 H722 0.950 . S
C718 C727 1.390 . S
C719 C718 1.387 . S
C719 C721 1.387 . S
H720 C727 0.950 . S
C721 C719 1.387 . S
C721 C723 1.390 . S
C721 H725 0.950 . S
H722 C718 0.950 . S
C723 C721 1.390 . S
C723 C724 1.387 . S
C723 H726 0.950 . S
C724 C723 1.387 . S
C724 C727 1.387 . S
H725 C721 0.950 . S
H726 C723 0.950 . S
C727 C718 1.390 . S
C727 H720 0.950 . S
C727 C724 1.387 . S
C728 C729 1.387 . S
C728 H732 0.950 . S
C728 C737 1.390 . S
C729 C728 1.387 . S
C729 C731 1.387 . S
H730 C737 0.950 . S
C731 C729 1.387 . S
C731 C733 1.390 . S
C731 H735 0.950 . S
H732 C728 0.950 . S
C733 C731 1.390 . S
C733 C734 1.387 . S
C733 H736 0.950 . S
C734 C733 1.387 . S
C734 C737 1.387 . S
H735 C731 0.950 . S
H736 C733 0.950 . S
C737 C728 1.390 . S
C737 H730 0.950 . S
C737 C734 1.387 . S
C738 C739 1.387 . S
C738 H742 0.950 . S
C738 C747 1.390 . S
C739 C738 1.387 . S
C739 C741 1.387 . S
H740 C747 0.950 . S
C741 C739 1.387 . S
C741 C743 1.390 . S
C741 H745 0.950 . S
H742 C738 0.950 . S
C743 C741 1.390 . S
C743 C744 1.387 . S
C743 H746 0.950 . S
C744 C743 1.387 . S
C744 C747 1.387 . S
H745 C741 0.950 . S
H746 C743 0.950 . S
C747 C738 1.390 . S
C747 H740 0.950 . S
C747 C744 1.387 . S
C748 C749 1.387 . S
C748 H752 0.950 . S
C748 C757 1.390 . S
C749 C748 1.387 . S
C749 C751 1.387 . S
H750 C757 0.950 . S
C751 C749 1.387 . S
C751 C753 1.390 . S
C751 H755 0.950 . S
H752 C748 0.950 . S
C753 C751 1.390 . S
C753 C754 1.387 . S
C753 H756 0.950 . S
C754 C753 1.387 . S
C754 C757 1.387 . S
H755 C751 0.950 . S
H756 C753 0.950 . S
C757 C748 1.390 . S
C757 H750 0.950 . S
C757 C754 1.387 . S
C758 C759 1.387 . S
C758 H762 0.950 . S
C758 C767 1.390 . S
C759 C758 1.387 . S
C759 C761 1.387 . S
H760 C767 0.950 . S
C761 C759 1.387 . S
C761 C763 1.390 . S
C761 H765 0.950 . S
H762 C758 0.950 . S
C763 C761 1.390 . S
C763 C764 1.387 . S
C763 H766 0.950 . S
C764 C763 1.387 . S
C764 C767 1.387 . S
H765 C761 0.950 . S
H766 C763 0.950 . S
C767 C758 1.390 . S
C767 H760 0.950 . S
C767 C764 1.387 . S
C768 C769 1.387 . S
C768 H772 0.950 . S
C768 C777 1.390 . S
C769 C768 1.387 . S
C769 C771 1.387 . S
H770 C777 0.950 . S
C771 C769 1.387 . S
C771 C773 1.390 . S
C771 H775 0.950 . S
H772 C768 0.950 . S
C773 C771 1.390 . S
C773 C774 1.387 . S
C773 H776 0.950 . S
C774 C773 1.387 . S
C774 C777 1.387 . S
H775 C771 0.950 . S
H776 C773 0.950 . S
C777 C768 1.390 . S
C777 H770 0.950 . S
C777 C774 1.387 . S
C778 C779 1.387 . S
C778 H782 0.950 . S
C778 C787 1.390 1_655 S
C779 C778 1.387 . S
C779 C781 1.387 1_565 S
H780 C787 0.950 . S
C781 C779 1.387 1_545 S
C781 C783 1.390 1_655 S
C781 H785 0.950 . S
H782 C778 0.950 . S
C783 C781 1.390 1_455 S
C783 C784 1.387 . S
C783 H786 0.950 . S
C784 C783 1.387 . S
C784 C787 1.387 1_545 S
H785 C781 0.950 . S
H786 C783 0.950 . S
C787 C778 1.390 1_455 S
C787 H780 0.950 . S
C787 C784 1.387 1_565 S
C788 C789 1.387 . S
C788 H792 0.950 . S
C788 C797 1.390 . S
C789 C788 1.387 . S
C789 C791 1.387 1_565 S
H790 C797 0.950 . S
C791 C789 1.387 1_545 S
C791 C793 1.390 . S
C791 H795 0.950 . S
H792 C788 0.950 . S
C793 C791 1.390 . S
C793 C794 1.387 . S
C793 H796 0.950 . S
C794 C793 1.387 . S
C794 C797 1.387 1_545 S
H795 C791 0.950 . S
H796 C793 0.950 . S
C797 C788 1.390 . S
C797 H790 0.950 . S
C797 C794 1.387 1_565 S
C798 C799 1.387 . S
C798 H802 0.950 . S
C798 C807 1.390 1_655 S
C799 C798 1.387 . S
C799 C801 1.387 . S
H800 C807 0.950 . S
C801 C799 1.387 . S
C801 C803 1.390 1_655 S
C801 H805 0.950 . S
H802 C798 0.950 . S
C803 C801 1.390 1_455 S
C803 C804 1.387 . S
C803 H806 0.950 . S
C804 C803 1.387 . S
C804 C807 1.387 . S
H805 C801 0.950 . S
H806 C803 0.950 . S
C807 C798 1.390 1_455 S
C807 H800 0.950 . S
C807 C804 1.387 . S
C808 C809 1.387 . S
C808 H812 0.950 . S
C808 C817 1.390 . S
C809 C808 1.387 . S
C809 C811 1.387 . S
H810 C817 0.950 . S
C811 C809 1.387 . S
C811 C813 1.390 . S
C811 H815 0.950 . S
H812 C808 0.950 . S
C813 C811 1.390 . S
C813 C814 1.387 . S
C813 H816 0.950 . S
C814 C813 1.387 . S
C814 C817 1.387 . S
H815 C811 0.950 . S
H816 C813 0.950 . S
C817 C808 1.390 . S
C817 H810 0.950 . S
C817 C814 1.387 . S
C818 C819 1.387 1_565 S
C818 H822 0.950 . S
C818 C827 1.390 . S
C819 C818 1.387 1_545 S
C819 C821 1.387 . S
H820 C827 0.950 . S
C821 C819 1.387 . S
C821 C823 1.390 . S
C821 H825 0.950 . S
H822 C818 0.950 . S
C823 C821 1.390 . S
C823 C824 1.387 1_545 S
C823 H826 0.950 . S
C824 C823 1.387 1_565 S
C824 C827 1.387 . S
H825 C821 0.950 . S
H826 C823 0.950 . S
C827 C818 1.390 . S
C827 H820 0.950 . S
C827 C824 1.387 . S
C828 C829 1.387 . S
C828 H832 0.950 . S
C828 C837 1.390 1_655 S
C829 C828 1.387 . S
C829 C831 1.387 . S
H830 C837 0.950 . S
C831 C829 1.387 . S
C831 C833 1.390 1_655 S
C831 H835 0.950 . S
H832 C828 0.950 . S
C833 C831 1.390 1_455 S
C833 C834 1.387 . S
C833 H836 0.950 . S
C834 C833 1.387 . S
C834 C837 1.387 . S
H835 C831 0.950 . S
H836 C833 0.950 . S
C837 C828 1.390 1_455 S
C837 H830 0.950 . S
C837 C834 1.387 . S
C838 C839 1.387 . S
C838 H842 0.950 . S
C838 C847 1.390 1_554 S
C839 C838 1.387 . S
C839 C841 1.387 . S
H840 C847 0.950 . S
C841 C839 1.387 . S
C841 C843 1.390 1_554 S
C841 H845 0.950 . S
H842 C838 0.950 . S
C843 C841 1.390 1_556 S
C843 C844 1.387 . S
C843 H846 0.950 . S
C844 C843 1.387 . S
C844 C847 1.387 . S
H845 C841 0.950 . S
H846 C843 0.950 . S
C847 C838 1.390 1_556 S
C847 H840 0.950 . S
C847 C844 1.387 . S
C848 C849 1.387 1_554 S
C848 H852 0.950 . S
C848 C857 1.390 . S
C849 C848 1.387 1_556 S
C849 C851 1.387 1_455 S
H850 C857 0.950 . S
C851 C849 1.387 1_655 S
C851 C853 1.390 . S
C851 H855 0.950 . S
H852 C848 0.950 . S
C853 C851 1.390 . S
C853 C854 1.387 1_556 S
C853 H856 0.950 . S
C854 C853 1.387 1_554 S
C854 C857 1.387 1_655 S
H855 C851 0.950 . S
H856 C853 0.950 . S
C857 C848 1.390 . S
C857 H850 0.950 . S
C857 C854 1.387 1_455 S
C858 C859 1.387 . S
C858 H862 0.950 . S
C858 C867 1.390 . S
C859 C858 1.387 . S
C859 C861 1.387 . S
H860 C867 0.950 . S
C861 C859 1.387 . S
C861 C863 1.390 . S
C861 H865 0.950 . S
H862 C858 0.950 . S
C863 C861 1.390 . S
C863 C864 1.387 . S
C863 H866 0.950 . S
C864 C863 1.387 . S
C864 C867 1.387 . S
H865 C861 0.950 . S
H866 C863 0.950 . S
C867 C858 1.390 . S
C867 H860 0.950 . S
C867 C864 1.387 . S
C868 C869 1.387 1_556 S
C868 H872 0.950 . S
C868 C877 1.390 . S
C869 C868 1.387 1_554 S
C869 C871 1.387 . S
H870 C877 0.950 . S
C871 C869 1.387 . S
C871 C873 1.390 . S
C871 H875 0.950 . S
H872 C868 0.950 . S
C873 C871 1.390 . S
C873 C874 1.387 1_554 S
C873 H876 0.950 . S
C874 C873 1.387 1_556 S
C874 C877 1.387 . S
H875 C871 0.950 . S
H876 C873 0.950 . S
C877 C868 1.390 . S
C877 H870 0.950 . S
C877 C874 1.387 . S
C878 C879 1.387 . S
C878 H882 0.950 . S
C878 C887 1.390 . S
C879 C878 1.387 . S
C879 C881 1.387 . S
H880 C887 0.950 . S
C881 C879 1.387 . S
C881 C883 1.390 . S
C881 H885 0.950 . S
H882 C878 0.950 . S
C883 C881 1.390 . S
C883 C884 1.387 . S
C883 H886 0.950 . S
C884 C883 1.387 . S
C884 C887 1.387 . S
H885 C881 0.950 . S
H886 C883 0.950 . S
C887 C878 1.390 . S
C887 H880 0.950 . S
C887 C884 1.387 . S
C888 C889 1.387 . S
C888 H892 0.950 . S
C888 C897 1.390 . S
C889 C888 1.387 . S
C889 C891 1.387 1_564 S
H890 C897 0.950 . S
C891 C889 1.387 1_546 S
C891 C893 1.390 . S
C891 H895 0.950 . S
H892 C888 0.950 . S
C893 C891 1.390 . S
C893 C894 1.387 . S
C893 H896 0.950 . S
C894 C893 1.387 . S
C894 C897 1.387 1_546 S
H895 C891 0.950 . S
H896 C893 0.950 . S
C897 C888 1.390 . S
C897 H890 0.950 . S
C897 C894 1.387 1_564 S
C898 C899 1.387 . S
C898 H902 0.950 . S
C898 C907 1.390 . S
C899 C898 1.387 . S
C899 C901 1.387 . S
H900 C907 0.950 . S
C901 C899 1.387 . S
C901 C903 1.390 . S
C901 H905 0.950 . S
H902 C898 0.950 . S
C903 C901 1.390 . S
C903 C904 1.387 . S
C903 H906 0.950 . S
C904 C903 1.387 . S
C904 C907 1.387 . S
H905 C901 0.950 . S
H906 C903 0.950 . S
C907 C898 1.390 . S
C907 H900 0.950 . S
C907 C904 1.387 . S
C908 C909 1.387 . S
C908 H912 0.950 . S
C908 C917 1.390 . S
C909 C908 1.387 . S
C909 C911 1.387 . S
H910 C917 0.950 . S
C911 C909 1.387 . S
C911 C913 1.390 . S
C911 H915 0.950 . S
H912 C908 0.950 . S
C913 C911 1.390 . S
C913 C914 1.387 . S
C913 H916 0.950 . S
C914 C913 1.387 . S
C914 C917 1.387 . S
H915 C911 0.950 . S
H916 C913 0.950 . S
C917 C908 1.390 . S
C917 H910 0.950 . S
C917 C914 1.387 . S
C918 C919 1.387 . S
C918 H922 0.950 . S
C918 C927 1.390 . S
C919 C918 1.387 . S
C919 C921 1.387 . S
H920 C927 0.950 . S
C921 C919 1.387 . S
C921 C923 1.390 . S
C921 H925 0.950 . S
H922 C918 0.950 . S
C923 C921 1.390 . S
C923 C924 1.387 . S
C923 H926 0.950 . S
C924 C923 1.387 . S
C924 C927 1.387 . S
H925 C921 0.950 . S
H926 C923 0.950 . S
C927 C918 1.390 . S
C927 H920 0.950 . S
C927 C924 1.387 . S
C529 N5 1.013 . S
C534 N302 1.013 . S
C539 N14 1.059 . S
C544 N311 1.059 . S
C549 N278 1.054 . S
C554 N47 1.054 . S
C559 N38 1.015 . S
C564 N269 1.015 . S
C569 N71 1.013 . S
C574 N368 1.013 . S
C579 N80 1.054 . S
C584 N377 1.054 . S
C589 N113 1.054 . S
C594 N344 1.054 . S
C599 N104 1.015 . S
C604 N335 1.015 . S
C609 N137 1.013 . S
C614 N434 1.013 . S
C619 N443 1.054 . S
C624 N146 1.054 . S
C629 N410 1.054 . S
C634 N179 1.054 . S
C639 N401 1.015 . S
C644 N170 1.015 . S
C649 N500 1.013 . S
C654 N203 1.013 . S
C659 N509 1.054 . S
C664 N212 1.054 . S
C669 N476 1.054 . S
C674 N245 1.054 . S
C679 N236 1.013 . S
C684 N467 1.013 . S
C689 C17 1.240 . S
C694 C50 1.240 . S
C699 C116 1.241 . S
C704 C83 1.241 . S
C709 C182 1.241 . S
C714 C149 1.241 . S
C719 C248 1.240 . S
C724 C215 1.240 . S
C729 C314 1.240 . S
C734 C281 1.240 . S
C739 C347 1.241 . S
C744 C380 1.241 . S
C749 C446 1.241 . S
C754 C413 1.241 . S
C759 C479 1.241 . S
C764 C512 1.241 . S
C769 C490 1.835 . S
C774 C28 1.835 . S
C779 C74 1.854 . S
C784 C8 1.854 . S
C789 C371 1.854 . S
C794 C41 1.854 . S
C799 C259 1.833 . S
C804 C61 1.833 . S
C809 C94 1.833 . S
C814 C424 1.833 . S
C819 C305 1.856 . S
C824 C107 1.856 . S
C829 C127 1.835 . S
C834 C193 1.835 . S
C839 C358 1.834 . S
C844 C160 1.834 . S
C849 C140 1.856 . S
C854 C206 1.856 . S
C859 C173 1.856 . S
C864 C503 1.856 . S
C869 C226 1.833 . S
C874 C292 1.833 . S
C879 C239 1.855 . S
C884 C437 1.855 . S
C889 C338 1.856 . S
C894 C272 1.856 . S
C899 C523 1.835 . S
C904 C325 1.835 . S
C909 C391 1.835 . S
C914 C457 1.835 . S
C919 C404 1.854 . S
C924 C470 1.854 . S
