# Generated by pormake.
# Topology wlg, (5)-cn, num edge types: 1
# Building blocks:
#     Node 0, Type 0, BuildingBlock: BEQFEK_clean_sbu_0, # of connection points: 5
#     Node 1, Type 0, BuildingBlock: BEQFEK_clean_sbu_0, # of connection points: 5
#     Node 2, Type 0, BuildingBlock: BEQFEK_clean_sbu_0, # of connection points: 5
#     Node 3, Type 0, BuildingBlock: BEQFEK_clean_sbu_0, # of connection points: 5
#     Node 4, Type 0, BuildingBlock: BEQFEK_clean_sbu_0, # of connection points: 5
#     Node 5, Type 0, BuildingBlock: BEQFEK_clean_sbu_0, # of connection points: 5
#     Node 6, Type 0, BuildingBlock: BEQFEK_clean_sbu_0, # of connection points: 5
#     Node 7, Type 0, BuildingBlock: BEQFEK_clean_sbu_0, # of connection points: 5
#     Node 8, Type 0, BuildingBlock: BEQFEK_clean_sbu_0, # of connection points: 5
#     Node 9, Type 0, BuildingBlock: BEQFEK_clean_sbu_0, # of connection points: 5
#     Node 10, Type 0, BuildingBlock: BEQFEK_clean_sbu_0, # of connection points: 5
#     Node 11, Type 0, BuildingBlock: BEQFEK_clean_sbu_0, # of connection points: 5
#     Node 12, Type 0, BuildingBlock: BEQFEK_clean_sbu_0, # of connection points: 5
#     Node 13, Type 0, BuildingBlock: BEQFEK_clean_sbu_0, # of connection points: 5
#     Node 14, Type 0, BuildingBlock: BEQFEK_clean_sbu_0, # of connection points: 5
#     Node 15, Type 0, BuildingBlock: BEQFEK_clean_sbu_0, # of connection points: 5
#     Node 16, Type 0, BuildingBlock: BEQFEK_clean_sbu_0, # of connection points: 5
#     Node 17, Type 0, BuildingBlock: BEQFEK_clean_sbu_0, # of connection points: 5
#     Node 18, Type 0, BuildingBlock: BEQFEK_clean_sbu_0, # of connection points: 5
#     Node 19, Type 0, BuildingBlock: BEQFEK_clean_sbu_0, # of connection points: 5
#     Node 20, Type 0, BuildingBlock: BEQFEK_clean_sbu_0, # of connection points: 5
#     Node 21, Type 0, BuildingBlock: BEQFEK_clean_sbu_0, # of connection points: 5
#     Node 22, Type 0, BuildingBlock: BEQFEK_clean_sbu_0, # of connection points: 5
#     Node 23, Type 0, BuildingBlock: BEQFEK_clean_sbu_0, # of connection points: 5
#     Node 24, Type 0, BuildingBlock: BEQFEK_clean_sbu_0, # of connection points: 5
#     Node 25, Type 0, BuildingBlock: BEQFEK_clean_sbu_0, # of connection points: 5
#     Node 26, Type 0, BuildingBlock: BEQFEK_clean_sbu_0, # of connection points: 5
#     Node 27, Type 0, BuildingBlock: BEQFEK_clean_sbu_0, # of connection points: 5
#     Node 28, Type 0, BuildingBlock: BEQFEK_clean_sbu_0, # of connection points: 5
#     Node 29, Type 0, BuildingBlock: BEQFEK_clean_sbu_0, # of connection points: 5
#     Node 30, Type 0, BuildingBlock: BEQFEK_clean_sbu_0, # of connection points: 5
#     Node 31, Type 0, BuildingBlock: BEQFEK_clean_sbu_0, # of connection points: 5
#     Node 32, Type 0, BuildingBlock: BEQFEK_clean_sbu_0, # of connection points: 5
#     Node 33, Type 0, BuildingBlock: BEQFEK_clean_sbu_0, # of connection points: 5
#     Node 34, Type 0, BuildingBlock: BEQFEK_clean_sbu_0, # of connection points: 5
#     Node 35, Type 0, BuildingBlock: BEQFEK_clean_sbu_0, # of connection points: 5
#     Edge 36, Type (0, 0), BuildingBlock: ZUJKAS_clean_linker_0, # of connection points: 2
#     Edge 37, Type (0, 0), BuildingBlock: ZUJKAS_clean_linker_0, # of connection points: 2
#     Edge 38, Type (0, 0), BuildingBlock: ZUJKAS_clean_linker_0, # of connection points: 2
#     Edge 39, Type (0, 0), BuildingBlock: ZUJKAS_clean_linker_0, # of connection points: 2
#     Edge 40, Type (0, 0), BuildingBlock: ZUJKAS_clean_linker_0, # of connection points: 2
#     Edge 41, Type (0, 0), BuildingBlock: ZUJKAS_clean_linker_0, # of connection points: 2
#     Edge 42, Type (0, 0), BuildingBlock: ZUJKAS_clean_linker_0, # of connection points: 2
#     Edge 43, Type (0, 0), BuildingBlock: ZUJKAS_clean_linker_0, # of connection points: 2
#     Edge 44, Type (0, 0), BuildingBlock: ZUJKAS_clean_linker_0, # of connection points: 2
#     Edge 45, Type (0, 0), BuildingBlock: ZUJKAS_clean_linker_0, # of connection points: 2
#     Edge 46, Type (0, 0), BuildingBlock: ZUJKAS_clean_linker_0, # of connection points: 2
#     Edge 47, Type (0, 0), BuildingBlock: ZUJKAS_clean_linker_0, # of connection points: 2
#     Edge 48, Type (0, 0), BuildingBlock: ZUJKAS_clean_linker_0, # of connection points: 2
#     Edge 49, Type (0, 0), BuildingBlock: ZUJKAS_clean_linker_0, # of connection points: 2
#     Edge 50, Type (0, 0), BuildingBlock: ZUJKAS_clean_linker_0, # of connection points: 2
#     Edge 51, Type (0, 0), BuildingBlock: ZUJKAS_clean_linker_0, # of connection points: 2
#     Edge 52, Type (0, 0), BuildingBlock: ZUJKAS_clean_linker_0, # of connection points: 2
#     Edge 53, Type (0, 0), BuildingBlock: ZUJKAS_clean_linker_0, # of connection points: 2
#     Edge 54, Type (0, 0), BuildingBlock: ZUJKAS_clean_linker_0, # of connection points: 2
#     Edge 55, Type (0, 0), BuildingBlock: ZUJKAS_clean_linker_0, # of connection points: 2
#     Edge 56, Type (0, 0), BuildingBlock: ZUJKAS_clean_linker_0, # of connection points: 2
#     Edge 57, Type (0, 0), BuildingBlock: ZUJKAS_clean_linker_0, # of connection points: 2
#     Edge 58, Type (0, 0), BuildingBlock: ZUJKAS_clean_linker_0, # of connection points: 2
#     Edge 59, Type (0, 0), BuildingBlock: ZUJKAS_clean_linker_0, # of connection points: 2
#     Edge 60, Type (0, 0), BuildingBlock: ZUJKAS_clean_linker_0, # of connection points: 2
#     Edge 61, Type (0, 0), BuildingBlock: ZUJKAS_clean_linker_0, # of connection points: 2
#     Edge 62, Type (0, 0), BuildingBlock: ZUJKAS_clean_linker_0, # of connection points: 2
#     Edge 63, Type (0, 0), BuildingBlock: ZUJKAS_clean_linker_0, # of connection points: 2
#     Edge 64, Type (0, 0), BuildingBlock: ZUJKAS_clean_linker_0, # of connection points: 2
#     Edge 65, Type (0, 0), BuildingBlock: ZUJKAS_clean_linker_0, # of connection points: 2
#     Edge 66, Type (0, 0), BuildingBlock: ZUJKAS_clean_linker_0, # of connection points: 2
#     Edge 67, Type (0, 0), BuildingBlock: ZUJKAS_clean_linker_0, # of connection points: 2
#     Edge 68, Type (0, 0), BuildingBlock: ZUJKAS_clean_linker_0, # of connection points: 2
#     Edge 69, Type (0, 0), BuildingBlock: ZUJKAS_clean_linker_0, # of connection points: 2
#     Edge 70, Type (0, 0), BuildingBlock: ZUJKAS_clean_linker_0, # of connection points: 2
#     Edge 71, Type (0, 0), BuildingBlock: ZUJKAS_clean_linker_0, # of connection points: 2
#     Edge 72, Type (0, 0), BuildingBlock: ZUJKAS_clean_linker_0, # of connection points: 2
#     Edge 73, Type (0, 0), BuildingBlock: ZUJKAS_clean_linker_0, # of connection points: 2
#     Edge 74, Type (0, 0), BuildingBlock: ZUJKAS_clean_linker_0, # of connection points: 2
#     Edge 75, Type (0, 0), BuildingBlock: ZUJKAS_clean_linker_0, # of connection points: 2
#     Edge 76, Type (0, 0), BuildingBlock: ZUJKAS_clean_linker_0, # of connection points: 2
#     Edge 77, Type (0, 0), BuildingBlock: ZUJKAS_clean_linker_0, # of connection points: 2
#     Edge 78, Type (0, 0), BuildingBlock: ZUJKAS_clean_linker_0, # of connection points: 2
#     Edge 79, Type (0, 0), BuildingBlock: ZUJKAS_clean_linker_0, # of connection points: 2
#     Edge 80, Type (0, 0), BuildingBlock: ZUJKAS_clean_linker_0, # of connection points: 2
#     Edge 81, Type (0, 0), BuildingBlock: ZUJKAS_clean_linker_0, # of connection points: 2
#     Edge 82, Type (0, 0), BuildingBlock: ZUJKAS_clean_linker_0, # of connection points: 2
#     Edge 83, Type (0, 0), BuildingBlock: ZUJKAS_clean_linker_0, # of connection points: 2
#     Edge 84, Type (0, 0), BuildingBlock: ZUJKAS_clean_linker_0, # of connection points: 2
#     Edge 85, Type (0, 0), BuildingBlock: ZUJKAS_clean_linker_0, # of connection points: 2
#     Edge 86, Type (0, 0), BuildingBlock: ZUJKAS_clean_linker_0, # of connection points: 2
#     Edge 87, Type (0, 0), BuildingBlock: ZUJKAS_clean_linker_0, # of connection points: 2
#     Edge 88, Type (0, 0), BuildingBlock: ZUJKAS_clean_linker_0, # of connection points: 2
#     Edge 89, Type (0, 0), BuildingBlock: ZUJKAS_clean_linker_0, # of connection points: 2
#     Edge 90, Type (0, 0), BuildingBlock: ZUJKAS_clean_linker_0, # of connection points: 2
#     Edge 91, Type (0, 0), BuildingBlock: ZUJKAS_clean_linker_0, # of connection points: 2
#     Edge 92, Type (0, 0), BuildingBlock: ZUJKAS_clean_linker_0, # of connection points: 2
#     Edge 93, Type (0, 0), BuildingBlock: ZUJKAS_clean_linker_0, # of connection points: 2
#     Edge 94, Type (0, 0), BuildingBlock: ZUJKAS_clean_linker_0, # of connection points: 2
#     Edge 95, Type (0, 0), BuildingBlock: ZUJKAS_clean_linker_0, # of connection points: 2
#     Edge 96, Type (0, 0), BuildingBlock: ZUJKAS_clean_linker_0, # of connection points: 2
#     Edge 97, Type (0, 0), BuildingBlock: ZUJKAS_clean_linker_0, # of connection points: 2
#     Edge 98, Type (0, 0), BuildingBlock: ZUJKAS_clean_linker_0, # of connection points: 2
#     Edge 99, Type (0, 0), BuildingBlock: ZUJKAS_clean_linker_0, # of connection points: 2
#     Edge 100, Type (0, 0), BuildingBlock: ZUJKAS_clean_linker_0, # of connection points: 2
#     Edge 101, Type (0, 0), BuildingBlock: ZUJKAS_clean_linker_0, # of connection points: 2
#     Edge 102, Type (0, 0), BuildingBlock: ZUJKAS_clean_linker_0, # of connection points: 2
#     Edge 103, Type (0, 0), BuildingBlock: ZUJKAS_clean_linker_0, # of connection points: 2
#     Edge 104, Type (0, 0), BuildingBlock: ZUJKAS_clean_linker_0, # of connection points: 2
#     Edge 105, Type (0, 0), BuildingBlock: ZUJKAS_clean_linker_0, # of connection points: 2
#     Edge 106, Type (0, 0), BuildingBlock: ZUJKAS_clean_linker_0, # of connection points: 2
#     Edge 107, Type (0, 0), BuildingBlock: ZUJKAS_clean_linker_0, # of connection points: 2
#     Edge 108, Type (0, 0), BuildingBlock: ZUJKAS_clean_linker_0, # of connection points: 2
#     Edge 109, Type (0, 0), BuildingBlock: ZUJKAS_clean_linker_0, # of connection points: 2
#     Edge 110, Type (0, 0), BuildingBlock: ZUJKAS_clean_linker_0, # of connection points: 2
#     Edge 111, Type (0, 0), BuildingBlock: ZUJKAS_clean_linker_0, # of connection points: 2
#     Edge 112, Type (0, 0), BuildingBlock: ZUJKAS_clean_linker_0, # of connection points: 2
#     Edge 113, Type (0, 0), BuildingBlock: ZUJKAS_clean_linker_0, # of connection points: 2
#     Edge 114, Type (0, 0), BuildingBlock: ZUJKAS_clean_linker_0, # of connection points: 2
#     Edge 115, Type (0, 0), BuildingBlock: ZUJKAS_clean_linker_0, # of connection points: 2
#     Edge 116, Type (0, 0), BuildingBlock: ZUJKAS_clean_linker_0, # of connection points: 2
#     Edge 117, Type (0, 0), BuildingBlock: ZUJKAS_clean_linker_0, # of connection points: 2
#     Edge 118, Type (0, 0), BuildingBlock: ZUJKAS_clean_linker_0, # of connection points: 2
#     Edge 119, Type (0, 0), BuildingBlock: ZUJKAS_clean_linker_0, # of connection points: 2
#     Edge 120, Type (0, 0), BuildingBlock: ZUJKAS_clean_linker_0, # of connection points: 2
#     Edge 121, Type (0, 0), BuildingBlock: ZUJKAS_clean_linker_0, # of connection points: 2
#     Edge 122, Type (0, 0), BuildingBlock: ZUJKAS_clean_linker_0, # of connection points: 2
#     Edge 123, Type (0, 0), BuildingBlock: ZUJKAS_clean_linker_0, # of connection points: 2
#     Edge 124, Type (0, 0), BuildingBlock: ZUJKAS_clean_linker_0, # of connection points: 2
#     Edge 125, Type (0, 0), BuildingBlock: ZUJKAS_clean_linker_0, # of connection points: 2
# Relax obj value: 0.277
# Max RMSD: 0.180
# Mean RMSD: 0.179
data_MOF--net-wlg--node1-BEQFEK_clean_sbu_0--edge1-ZUJKAS_clean_linker_0
_symmetry_space_group_name_H-M    P1
_symmetry_Int_Tables_number       1
_symmetry_cell_setting            triclinic
loop_
_symmetry_equiv_pos_as_xyz
'x, y, z'
_cell_length_a     69.606712
_cell_length_b     69.621898
_cell_length_c     90.678212
_cell_angle_alpha  90.011681
_cell_angle_beta   89.979449
_cell_angle_gamma 119.99833
loop_
_atom_site_label
_atom_site_type_symbol
_atom_site_fract_x
_atom_site_fract_y
_atom_site_fract_z
_atom_type_partial_charge
Co0 Co 0.96872 0.17415 0.14304 0.0
Co1 Co 0.01205 0.17104 0.14175 0.0
C2 C 0.9677 0.13356 0.1318 0.0
O3 O 0.95799 0.14451 0.13458 0.0
O4 O 0.9884 0.14179 0.13414 0.0
C5 C 0.92588 0.1688 0.13685 0.0
O6 O 0.92419 0.15363 0.12748 0.0
C7 C 0.04491 0.16108 0.12944 0.0
C8 C 0.07286 0.17819 0.14497 0.0
C9 C 0.06568 0.16416 0.13286 0.0
N10 N 0.0399 0.17243 0.13919 0.0
N11 N 0.0568 0.18286 0.14834 0.0
C12 C 0.03014 0.14789 0.11697 0.0
H13 H 0.02018 0.15539 0.11319 0.0
H14 H 0.04004 0.14704 0.10765 0.0
H15 H 0.01862 0.13081 0.12082 0.0
C16 C -0.00367 0.21412 0.12515 0.0
N17 N 0.99318 0.19591 0.13236 0.0
N18 N 0.01155 0.19489 0.13191 0.0
C19 C 0.02712 0.21261 0.12446 0.0
C20 C 0.01799 0.22543 0.11993 0.0
C21 C 0.97867 0.22016 0.1231 0.0
H22 H 0.96288 0.20519 0.11998 0.0
H23 H 0.98324 0.23301 0.11446 0.0
H24 H 0.97596 0.22642 0.1337 0.0
O25 O 0.97672 0.17384 0.16385 0.0
O26 O 0.00778 0.17236 0.16329 0.0
H27 H 0.05741 0.21768 0.13391 0.0
H28 H 0.06135 0.2345 0.11787 0.0
C29 C 0.05069 0.21796 0.12288 0.0
H30 H 0.05125 0.20507 0.116 0.0
H31 H 0.05702 0.19249 0.15723 0.0
O32 O 0.94394 0.18027 0.14381 0.0
C33 C 0.99246 0.17314 0.17046 0.0
Co34 Co 0.81853 0.79255 0.1438 0.0
Co35 Co 0.82401 0.83972 0.13956 0.0
C36 C 0.86003 0.83041 0.13103 0.0
O37 O 0.84856 0.81038 0.1353 0.0
O38 O 0.85251 0.8437 0.13188 0.0
C39 C 0.82163 0.75392 0.13732 0.0
O40 O 0.83503 0.76623 0.12674 0.0
C41 C 0.83783 0.88562 0.13089 0.0
C42 C 0.80919 0.88867 0.13825 0.0
C43 C 0.82984 0.90031 0.13163 0.0
N44 N 0.82234 0.86603 0.13646 0.0
N45 N 0.80531 0.86801 0.14089 0.0
C46 C 0.86081 0.8908 0.12691 0.0
H47 H 0.8673 0.88439 0.13563 0.0
H48 H 0.8602 0.88237 0.11639 0.0
H49 H 0.87244 0.90883 0.12578 0.0
C50 C 0.77837 0.77974 0.12599 0.0
N51 N 0.79713 0.7951 0.13258 0.0
N52 N 0.79985 0.81495 0.13013 0.0
C53 C 0.78325 0.81287 0.12139 0.0
C54 C 0.76892 0.79048 0.11864 0.0
C55 C 0.76906 0.75527 0.1277 0.0
H56 H 0.77193 0.75149 0.13909 0.0
H57 H 0.77772 0.74977 0.11998 0.0
H58 H 0.751 0.7459 0.12537 0.0
O59 O 0.81881 0.80217 0.16409 0.0
O60 O 0.82279 0.8356 0.16143 0.0
H61 H 0.77303 0.83711 0.12254 0.0
H62 H 0.77279 0.8271 0.10423 0.0
C63 C 0.78197 0.83193 0.11484 0.0
H64 H 0.79885 0.84614 0.11289 0.0
H65 H 0.79127 0.85539 0.14607 0.0
O66 O 0.81204 0.76164 0.14527 0.0
C67 C 0.82073 0.8198 0.16962 0.0
Co68 Co 0.2008 0.02514 0.14132 0.0
Co69 Co 0.15383 0.98226 0.14054 0.0
C70 C 0.16105 0.02679 0.13088 0.0
O71 O 0.18177 0.03601 0.13333 0.0
O72 O 0.14821 0.00618 0.13334 0.0
C73 C 0.23823 0.06762 0.13436 0.0
O74 O 0.2245 0.06924 0.1252 0.0
C75 C 0.10965 0.94664 0.1302 0.0
C76 C 0.10262 0.92115 0.14713 0.0
C77 C 0.09334 0.92583 0.13511 0.0
N78 N 0.12749 0.95387 0.13906 0.0
N79 N 0.12325 0.93834 0.14897 0.0
C80 C 0.10779 0.96008 0.11799 0.0
H81 H 0.12249 0.97685 0.11749 0.0
H82 H 0.10675 0.95189 0.10729 0.0
H83 H 0.09254 0.96121 0.11938 0.0
C84 C 0.21205 0.99694 0.12327 0.0
N85 N 0.19731 0.00048 0.13058 0.0
N86 N 0.17772 0.98237 0.13021 0.0
C87 C 0.17941 0.96658 0.12269 0.0
C88 C 0.20127 0.97529 0.11807 0.0
C89 C 0.23591 0.01418 0.12123 0.0
H90 H 0.2371 0.03004 0.11781 0.0
H91 H 0.24409 0.00916 0.1128 0.0
H92 H 0.24472 0.01703 0.13191 0.0
O93 O 0.19348 0.01756 0.16227 0.0
O94 O 0.16055 0.98701 0.16196 0.0
H95 H 0.15486 0.93612 0.13234 0.0
H96 H 0.16611 0.93249 0.11539 0.0
C97 C 0.16088 0.94313 0.12121 0.0
H98 H 0.14692 0.94291 0.11517 0.0
H99 H 0.13415 0.93988 0.1574 0.0
O100 O 0.23178 0.0497 0.14146 0.0
C101 C 0.17703 0.00203 0.16901 0.0
Co102 Co 0.17578 0.9722 0.35398 0.0
Co103 Co 0.16944 0.01349 0.35695 0.0
C104 C 0.13334 0.96809 0.36527 0.0
O105 O 0.14546 0.95982 0.36197 0.0
O106 O 0.14041 0.98875 0.36379 0.0
C107 C 0.17313 0.93092 0.3614 0.0
O108 O 0.15991 0.93029 0.37196 0.0
C109 C 0.15709 0.04531 0.36843 0.0
C110 C 0.17871 0.07523 0.35534 0.0
C111 C 0.16195 0.06694 0.36581 0.0
N112 N 0.17012 0.04097 0.35975 0.0
N113 N 0.18314 0.05899 0.35205 0.0
C114 C 0.14115 0.02929 0.37945 0.0
H115 H 0.14754 0.01871 0.38389 0.0
H116 H 0.13843 0.03816 0.38867 0.0
H117 H 0.12506 0.01844 0.37394 0.0
C118 C 0.21518 0.00051 0.3723 0.0
N119 N 0.19645 0.99646 0.36534 0.0
N120 N 0.19337 0.01349 0.36711 0.0
C121 C 0.2098 0.02876 0.37559 0.0
C122 C 0.22431 0.02115 0.37909 0.0
C123 C 0.2249 0.98563 0.37133 0.0
H124 H 0.22218 0.97829 0.36014 0.0
H125 H 0.21641 0.97191 0.37939 0.0
H126 H 0.24295 0.99472 0.37369 0.0
O127 O 0.17628 0.98126 0.33343 0.0
O128 O 0.17214 0.01073 0.33526 0.0
H129 H 0.21714 0.06198 0.37155 0.0
H130 H 0.22226 0.05698 0.39032 0.0
C131 C 0.21102 0.04978 0.38071 0.0
H132 H 0.19426 0.04647 0.38389 0.0
H133 H 0.19472 0.06003 0.34431 0.0
O134 O 0.18259 0.9479 0.35314 0.0
C135 C 0.17467 0.99692 0.32748 0.0
Co136 Co 0.02308 0.20302 0.35508 0.0
Co137 Co 0.98172 0.1556 0.35857 0.0
C138 C 0.02741 0.16504 0.3665 0.0
O139 O 0.03574 0.18543 0.36321 0.0
O140 O 0.00671 0.15152 0.36509 0.0
C141 C 0.06453 0.24193 0.36166 0.0
O142 O 0.06571 0.2297 0.37225 0.0
C143 C 0.95081 0.11193 0.37093 0.0
C144 C 0.92028 0.10252 0.35825 0.0
C145 C 0.92924 0.09478 0.36875 0.0
N146 N 0.9545 0.12882 0.36199 0.0
N147 N 0.93612 0.12318 0.35454 0.0
C148 C 0.9674 0.11276 0.38178 0.0
H149 H 0.97772 0.12989 0.38603 0.0
H150 H 0.95904 0.10128 0.39113 0.0
H151 H 0.97843 0.10784 0.37616 0.0
C152 C 0.9952 0.21478 0.37325 0.0
N153 N -0.00092 0.19981 0.36655 0.0
N154 N 0.98195 0.17982 0.36851 0.0
C155 C 0.96677 0.18138 0.37686 0.0
C156 C 0.97457 0.20362 0.38007 0.0
C157 C 0.01017 0.23934 0.37188 0.0
H158 H 0.01701 0.24353 0.36055 0.0
H159 H 0.02425 0.24473 0.37967 0.0
H160 H 0.00132 0.2485 0.37433 0.0
O161 O 0.01355 0.19376 0.33467 0.0
O162 O 0.98383 0.16038 0.33681 0.0
H163 H 0.9335 0.15567 0.37273 0.0
H164 H 0.93825 0.16626 0.39137 0.0
C165 C 0.94552 0.16185 0.38198 0.0
H166 H 0.94856 0.14835 0.38548 0.0
H167 H 0.93457 0.13324 0.34665 0.0
O168 O 0.04721 0.23408 0.35372 0.0
C169 C -0.00232 0.17647 0.32888 0.0
Co170 Co 0.79332 0.82235 0.35548 0.0
Co171 Co 0.84029 0.82672 0.35673 0.0
C172 C 0.83225 0.863 0.36748 0.0
O173 O 0.81165 0.85167 0.36456 0.0
O174 O 0.84526 0.8555 0.36485 0.0
C175 C 0.7551 0.82614 0.36241 0.0
O176 O 0.76812 0.84055 0.37231 0.0
C177 C 0.88385 0.83724 0.36817 0.0
C178 C 0.89306 0.81818 0.35315 0.0
C179 C 0.90088 0.8331 0.36477 0.0
N180 N 0.86689 0.82553 0.35889 0.0
N181 N 0.87244 0.81404 0.35001 0.0
C182 C 0.88337 0.85166 0.38023 0.0
H183 H 0.8663 0.84444 0.38471 0.0
H184 H 0.89499 0.85355 0.38923 0.0
H185 H 0.88832 0.86828 0.37567 0.0
C186 C 0.78155 0.78183 0.37257 0.0
N187 N 0.79644 0.80051 0.36569 0.0
N188 N 0.81611 0.80218 0.36628 0.0
C189 C 0.81434 0.78448 0.37356 0.0
C190 C 0.79233 0.77095 0.37775 0.0
C191 C 0.75758 0.77495 0.37434 0.0
H192 H 0.75614 0.78933 0.37812 0.0
H193 H 0.74914 0.76122 0.38239 0.0
H194 H 0.74919 0.76963 0.36348 0.0
O195 O 0.80186 0.82365 0.33461 0.0
O196 O 0.83479 0.826 0.33522 0.0
H197 H 0.83931 0.77892 0.36427 0.0
H198 H 0.82787 0.76405 0.38117 0.0
C199 C 0.83303 0.77986 0.37532 0.0
H200 H 0.84679 0.79371 0.38143 0.0
H201 H 0.86237 0.80383 0.34153 0.0
O202 O 0.76224 0.81566 0.35483 0.0
C203 C 0.81862 0.82501 0.32802 0.0
Co204 Co 0.02181 0.81919 0.85679 0.0
Co205 Co 0.98067 0.82601 0.85762 0.0
C206 C 0.026 0.86217 0.86639 0.0
O207 O 0.03441 0.84986 0.86417 0.0
O208 O 0.0055 0.85513 0.86411 0.0
C209 C 0.06291 0.82173 0.86477 0.0
O210 O 0.06438 0.8365 0.87441 0.0
C211 C 0.94973 0.8397 0.86841 0.0
C212 C 0.91994 0.81917 0.8549 0.0
C213 C 0.92847 0.83571 0.86552 0.0
N214 N 0.95365 0.82635 0.85977 0.0
N215 N 0.93573 0.814 0.8518 0.0
C216 C 0.96578 0.85512 0.87964 0.0
H217 H 0.97537 0.84781 0.88441 0.0
H218 H 0.95703 0.85852 0.88861 0.0
H219 H 0.9776 0.87099 0.87421 0.0
C220 C 0.99262 0.78099 0.87559 0.0
N221 N -0.00293 0.7994 0.86806 0.0
N222 N 0.97974 0.80222 0.86858 0.0
C223 C 0.96368 0.78566 0.87658 0.0
C224 C 0.97129 0.77164 0.88126 0.0
C225 C 0.00787 0.77165 0.87607 0.0
H226 H 0.01407 0.77163 0.8648 0.0
H227 H 0.0224 0.78245 0.88307 0.0
H228 H -0.00045 0.75451 0.88049 0.0
O229 O 0.01337 0.81766 0.83588 0.0
O230 O 0.98419 0.82247 0.83625 0.0
H231 H 0.93149 0.7784 0.86946 0.0
H232 H 0.93246 0.77083 0.8884 0.0
C233 C 0.94152 0.78338 0.87972 0.0
H234 H 0.94374 0.79957 0.88336 0.0
H235 H 0.93445 0.80236 0.84403 0.0
O236 O 0.04553 0.81154 0.85694 0.0
C237 C -0.00184 0.81925 0.82921 0.0
Co238 Co 0.17454 0.2012 0.85547 0.0
Co239 Co 0.17042 0.15435 0.85805 0.0
C240 C 0.13326 0.16154 0.86705 0.0
O241 O 0.14435 0.18186 0.86331 0.0
O242 O 0.14135 0.14875 0.86583 0.0
C243 C 0.16847 0.2383 0.86168 0.0
O244 O 0.15312 0.22459 0.87086 0.0
C245 C 0.15991 0.10959 0.86746 0.0
C246 C 0.1841 0.10501 0.85434 0.0
C247 C 0.16656 0.09434 0.86408 0.0
N248 N 0.17305 0.12847 0.8601 0.0
N249 N 0.18763 0.1257 0.85242 0.0
C250 C 0.13974 0.10554 0.87589 0.0
H251 H 0.12719 0.10476 0.868 0.0
H252 H 0.14413 0.11958 0.88354 0.0
H253 H 0.1323 0.08982 0.88219 0.0
C254 C 0.21413 0.21372 0.87376 0.0
N255 N 0.19584 0.19853 0.86666 0.0
N256 N 0.19419 0.17892 0.86788 0.0
C257 C 0.21137 0.18101 0.87598 0.0
C258 C 0.22461 0.20313 0.87991 0.0
C259 C 0.22208 0.23806 0.8736 0.0
H260 H 0.22129 0.24337 0.86219 0.0
H261 H 0.2109 0.24134 0.88055 0.0
H262 H 0.23932 0.24798 0.87774 0.0
O263 O 0.1757 0.1934 0.83483 0.0
O264 O 0.17149 0.15974 0.83642 0.0
H265 H 0.22132 0.15741 0.87059 0.0
H266 H 0.22658 0.16666 0.88951 0.0
C267 C 0.21472 0.16211 0.88021 0.0
H268 H 0.19865 0.14759 0.88345 0.0
H269 H 0.19944 0.13766 0.84541 0.0
O270 O 0.18025 0.23197 0.85483 0.0
C271 C 0.17392 0.17614 0.82877 0.0
Co272 Co 0.79268 0.97392 0.85484 0.0
Co273 Co 0.83982 0.01641 0.85697 0.0
C274 C 0.83155 0.97133 0.86612 0.0
O275 O 0.81099 0.96234 0.86316 0.0
O276 O 0.84463 0.99201 0.86411 0.0
C277 C 0.75458 0.93153 0.86098 0.0
O278 O 0.76762 0.92985 0.87073 0.0
C279 C 0.8843 0.04902 0.86778 0.0
C280 C 0.89217 0.07789 0.85364 0.0
C281 C 0.90105 0.07035 0.86431 0.0
N282 N 0.8664 0.04429 0.85954 0.0
N283 N 0.87113 0.06174 0.85128 0.0
C284 C 0.88612 0.03213 0.87695 0.0
H285 H 0.87029 0.02167 0.88288 0.0
H286 H 0.8998 0.03975 0.88505 0.0
H287 H 0.88929 0.02135 0.86955 0.0
C288 C 0.78091 0.00164 0.87309 0.0
N289 N 0.79584 -0.00178 0.86591 0.0
N290 N 0.81555 0.0161 0.86692 0.0
C291 C 0.81377 0.03156 0.8748 0.0
C292 C 0.79171 0.02292 0.87893 0.0
C293 C 0.75684 0.98462 0.87439 0.0
H294 H 0.75515 0.96853 0.87775 0.0
H295 H 0.74825 0.98955 0.88258 0.0
H296 H 0.74881 0.98228 0.86346 0.0
O297 O 0.80132 0.98252 0.83414 0.0
O298 O 0.83437 0.01286 0.8354 0.0
H299 H 0.82758 0.06472 0.884 0.0
H300 H 0.84658 0.05418 0.88242 0.0
C301 C 0.83248 0.05472 0.87714 0.0
H302 H 0.83815 0.06298 0.86629 0.0
H303 H 0.86033 0.06221 0.84349 0.0
O304 O 0.7616 0.94949 0.85382 0.0
C305 C 0.81821 -0.00174 0.82788 0.0
Co306 Co 0.82108 0.02355 0.64209 0.0
Co307 Co 0.8243 0.98029 0.64054 0.0
C308 C 0.86105 0.02378 0.6296 0.0
O309 O 0.85007 0.03338 0.63267 0.0
O310 O 0.85333 0.00324 0.63226 0.0
C311 C 0.82651 0.06634 0.63507 0.0
O312 O 0.84144 0.06777 0.62559 0.0
C313 C 0.83423 0.9454 0.63181 0.0
C314 C 0.81023 0.91738 0.64553 0.0
C315 C 0.82758 0.92368 0.6357 0.0
N316 N 0.82129 0.95159 0.63898 0.0
N317 N 0.80678 0.93465 0.64699 0.0
C318 C 0.8542 0.96095 0.62298 0.0
H319 H 0.84974 0.97044 0.61523 0.0
H320 H 0.86111 0.95212 0.61672 0.0
H321 H 0.86716 0.97293 0.63056 0.0
C322 C 0.77983 0.99542 0.62562 0.0
N323 N 0.79854 -0.00124 0.63222 0.0
N324 N 0.80022 0.98084 0.63092 0.0
C325 C 0.78279 0.96561 0.62307 0.0
C326 C 0.7692 0.97429 0.61951 0.0
C327 C 0.77171 0.01167 0.62619 0.0
H328 H 0.77491 0.01941 0.63727 0.0
H329 H 0.78096 0.02498 0.61798 0.0
H330 H 0.75369 0.00363 0.62384 0.0
O331 O 0.82234 0.01654 0.6629 0.0
O332 O 0.82388 0.98555 0.66211 0.0
H333 H 0.77279 0.93184 0.6278 0.0
H334 H 0.76855 0.93678 0.60886 0.0
C335 C 0.77985 0.94365 0.61847 0.0
H336 H 0.79614 0.94546 0.61553 0.0
H337 H 0.79515 0.93523 0.65397 0.0
O338 O 0.81545 0.04863 0.64246 0.0
C339 C 0.82329 0.00088 0.6694 0.0
Co340 Co 0.97159 0.79015 0.64353 0.0
Co341 Co 0.01253 0.83816 0.64191 0.0
C342 C 0.96663 0.82853 0.63423 0.0
O343 O 0.95835 0.80785 0.63649 0.0
O344 O 0.98722 0.84201 0.63609 0.0
C345 C 0.93052 0.75139 0.63605 0.0
O346 O 0.92897 0.76446 0.62627 0.0
C347 C 0.04194 0.88243 0.63027 0.0
C348 C 0.07191 0.89387 0.64399 0.0
C349 C 0.06259 0.90073 0.63316 0.0
N350 N 0.03907 0.86577 0.63915 0.0
N351 N 0.05714 0.8726 0.64721 0.0
C352 C 0.0254 0.88032 0.61891 0.0
H353 H 0.01646 0.86314 0.61452 0.0
H354 H 0.03365 0.89216 0.6097 0.0
H355 H 0.01304 0.88384 0.62409 0.0
C356 C 0.00012 0.78106 0.624 0.0
N357 N 0.99589 0.79505 0.63171 0.0
N358 N 0.01313 0.81522 0.63091 0.0
C359 C 0.0289 0.81474 0.62258 0.0
C360 C 0.0212 0.79308 0.61794 0.0
C361 C 0.98495 0.75646 0.62369 0.0
H362 H 0.97918 0.75035 0.63503 0.0
H363 H 0.97014 0.7526 0.61694 0.0
H364 H 0.99318 0.74767 0.61906 0.0
O365 O 0.98093 0.79765 0.6643 0.0
O366 O 0.01005 0.83164 0.66331 0.0
H367 H 0.06107 0.84023 0.62931 0.0
H368 H 0.0599 0.83109 0.61048 0.0
C369 C 0.05086 0.83468 0.61913 0.0
H370 H 0.04832 0.84836 0.61531 0.0
H371 H 0.05909 0.86298 0.65524 0.0
O372 O 0.94799 0.75873 0.6438 0.0
C373 C -0.0036 0.81466 0.67065 0.0
Co374 Co 0.19794 0.17508 0.64314 0.0
Co375 Co 0.1515 0.17208 0.64146 0.0
C376 C 0.15768 0.13405 0.63246 0.0
O377 O 0.17828 0.14492 0.63546 0.0
O378 O 0.14535 0.14257 0.63421 0.0
C379 C 0.23477 0.16889 0.63634 0.0
O380 O 0.2209 0.15389 0.62704 0.0
C381 C 0.10798 0.16298 0.63037 0.0
C382 C 0.09956 0.18135 0.64656 0.0
C383 C 0.09114 0.16696 0.63469 0.0
N384 N 0.12545 0.17441 0.63936 0.0
N385 N 0.12045 0.18568 0.64882 0.0
C386 C 0.10649 0.14627 0.61938 0.0
H387 H 0.12326 0.15078 0.61532 0.0
H388 H 0.09598 0.14505 0.60986 0.0
H389 H 0.0989 0.12978 0.62476 0.0
C390 C 0.21048 0.21462 0.62475 0.0
N391 N 0.1953 0.19648 0.63198 0.0
N392 N 0.17595 0.19551 0.63136 0.0
C393 C 0.17823 0.21316 0.62375 0.0
C394 C 0.20024 0.2259 0.61933 0.0
C395 C 0.23427 0.22077 0.62306 0.0
H396 H 0.23524 0.20593 0.6198 0.0
H397 H 0.24289 0.23393 0.61465 0.0
H398 H 0.24281 0.22663 0.63383 0.0
O399 O 0.19052 0.17638 0.66395 0.0
O400 O 0.15739 0.17359 0.66295 0.0
H401 H 0.16582 0.23463 0.6163 0.0
H402 H 0.14616 0.20515 0.6158 0.0
C403 C 0.1601 0.21862 0.62203 0.0
H404 H 0.15382 0.21957 0.63309 0.0
H405 H 0.13088 0.19541 0.65732 0.0
O406 O 0.22865 0.18055 0.64354 0.0
C407 C 0.17377 0.17537 0.67032 0.0
Co408 Co 0.63936 0.51402 0.47829 0.0
Co409 Co 0.68101 0.50813 0.47563 0.0
C410 C 0.63525 0.47076 0.46918 0.0
O411 O 0.62672 0.48279 0.47201 0.0
O412 O 0.6561 0.47848 0.4701 0.0
C413 C 0.59759 0.51015 0.47097 0.0
O414 O 0.59683 0.49611 0.46098 0.0
C415 C 0.712 0.49505 0.46385 0.0
C416 C 0.74232 0.51609 0.47674 0.0
C417 C 0.73344 0.49927 0.46633 0.0
N418 N 0.70828 0.50847 0.47256 0.0
N419 N 0.72655 0.52118 0.48012 0.0
C420 C 0.69555 0.47919 0.45299 0.0
H421 H 0.68494 0.48571 0.4488 0.0
H422 H 0.70408 0.47633 0.44362 0.0
H423 H 0.6848 0.46315 0.45857 0.0
C424 C 0.66609 0.5513 0.45806 0.0
N425 N 0.66272 0.5334 0.46581 0.0
N426 N 0.68025 0.531 0.46462 0.0
C427 C 0.69533 0.54728 0.45595 0.0
C428 C 0.6869 0.56072 0.45154 0.0
C429 C 0.65046 0.5602 0.45816 0.0
H430 H 0.6451 0.56051 0.46964 0.0
H431 H 0.63547 0.54895 0.45167 0.0
H432 H 0.65815 0.57715 0.45346 0.0
O433 O 0.64999 0.51727 0.49876 0.0
O434 O 0.67911 0.51246 0.49714 0.0
H435 H 0.72825 0.55542 0.46185 0.0
H436 H 0.72552 0.56212 0.44298 0.0
C437 C 0.71738 0.54988 0.45198 0.0
H438 H 0.71518 0.53367 0.44841 0.0
H439 H 0.72805 0.53291 0.48789 0.0
O440 O 0.61488 0.52059 0.47885 0.0
C441 C 0.66585 0.51605 0.50476 0.0
Co442 Co 0.48518 0.12717 0.47638 0.0
Co443 Co 0.49004 0.17433 0.47513 0.0
C444 C 0.52634 0.16622 0.46483 0.0
O445 O 0.51474 0.14552 0.46738 0.0
O446 O 0.51897 0.1793 0.4676 0.0
C447 C 0.48858 0.08887 0.46881 0.0
O448 O 0.50252 0.1018 0.45867 0.0
C449 C 0.50238 0.21889 0.46484 0.0
C450 C 0.48145 0.22705 0.47882 0.0
C451 C 0.49815 0.23586 0.46831 0.0
N452 N 0.48911 0.2011 0.47311 0.0
N453 N 0.47643 0.20598 0.4813 0.0
C454 C 0.51812 0.21912 0.4535 0.0
H455 H 0.51099 0.20257 0.44822 0.0
H456 H 0.52166 0.23184 0.44493 0.0
H457 H 0.53388 0.22285 0.45895 0.0
C458 C 0.44464 0.11584 0.45932 0.0
N459 N 0.46345 0.13054 0.46617 0.0
N460 N 0.46588 0.15049 0.46509 0.0
C461 C 0.44889 0.1492 0.45719 0.0
C462 C 0.43475 0.12715 0.45332 0.0
C463 C 0.43568 0.09131 0.45956 0.0
H464 H 0.4386 0.08623 0.47054 0.0
H465 H 0.44458 0.08701 0.45121 0.0
H466 H 0.41764 0.08196 0.45717 0.0
O467 O 0.48627 0.13545 0.49724 0.0
O468 O 0.48848 0.16831 0.49666 0.0
H469 H 0.44085 0.17425 0.46251 0.0
H470 H 0.4352 0.16499 0.44356 0.0
C471 C 0.44687 0.16887 0.4529 0.0
H472 H 0.46334 0.18278 0.44965 0.0
H473 H 0.46488 0.19516 0.48895 0.0
O474 O 0.47857 0.09612 0.47679 0.0
C475 C 0.4874 0.15209 0.50384 0.0
Co476 Co 0.86561 0.35737 0.47607 0.0
Co477 Co 0.81847 0.31525 0.47309 0.0
C478 C 0.82669 0.36009 0.46429 0.0
O479 O 0.84707 0.3688 0.46775 0.0
O480 O 0.8134 0.33935 0.46581 0.0
C481 C 0.90369 0.39954 0.46915 0.0
O482 O 0.8908 0.40066 0.45902 0.0
C483 C 0.77365 0.28172 0.46321 0.0
C484 C 0.76846 0.25247 0.476 0.0
C485 C 0.75813 0.2598 0.46631 0.0
N486 N 0.79234 0.28703 0.47069 0.0
N487 N 0.7892 0.26939 0.47815 0.0
C488 C 0.77002 0.2982 0.45491 0.0
H489 H 0.78454 0.30836 0.44771 0.0
H490 H 0.75474 0.29017 0.44815 0.0
H491 H 0.76859 0.30944 0.46293 0.0
C492 C 0.87791 0.32954 0.45833 0.0
N493 N 0.86277 0.33318 0.46502 0.0
N494 N 0.8429 0.31579 0.4632 0.0
C495 C 0.84471 0.30069 0.45491 0.0
C496 C 0.86698 0.30881 0.45163 0.0
C497 C 0.90242 0.34493 0.4595 0.0
H498 H 0.90665 0.35221 0.47072 0.0
H499 H 0.90747 0.35866 0.45147 0.0
H500 H 0.91184 0.33627 0.45725 0.0
O501 O 0.85707 0.34861 0.49665 0.0
O502 O 0.82381 0.31868 0.49479 0.0
H503 H 0.81999 0.26696 0.45883 0.0
H504 H 0.82977 0.27268 0.44002 0.0
C505 C 0.82537 0.27931 0.44979 0.0
H506 H 0.81134 0.28186 0.44687 0.0
H507 H 0.80097 0.26918 0.48518 0.0
O508 O 0.89651 0.3821 0.47691 0.0
C509 C 0.8399 0.3328 0.50259 0.0
Co510 Co 0.83945 0.30251 0.68842 0.0
Co511 Co 0.83511 0.34515 0.68981 0.0
C512 C 0.79836 0.3007 0.69994 0.0
O513 O 0.80977 0.29151 0.69701 0.0
O514 O 0.80601 0.32134 0.69762 0.0
C515 C 0.83496 0.26005 0.69485 0.0
O516 O 0.81953 0.25799 0.70411 0.0
C517 C 0.82462 0.37906 0.69998 0.0
C518 C 0.8448 0.40649 0.68458 0.0
C519 C 0.82928 0.40016 0.69579 0.0
N520 N 0.83687 0.37328 0.6916 0.0
N521 N 0.8491 0.38987 0.68257 0.0
C522 C 0.80669 0.36338 0.71016 0.0
H523 H 0.81224 0.35307 0.7161 0.0
H524 H 0.8019 0.37215 0.71824 0.0
H525 H 0.79186 0.35223 0.70352 0.0
C526 C 0.8795 0.33084 0.706 0.0
N527 N 0.86099 0.32724 0.69897 0.0
N528 N 0.85935 0.34525 0.69964 0.0
C529 C 0.87691 0.361 0.70714 0.0
C530 C 0.89031 0.35239 0.71138 0.0
C531 C 0.88632 0.3137 0.70768 0.0
H532 H 0.87186 0.2978 0.71127 0.0
H533 H 0.89988 0.31879 0.71585 0.0
H534 H 0.89187 0.31088 0.69683 0.0
O535 O 0.83896 0.31011 0.66755 0.0
O536 O 0.8363 0.34048 0.66831 0.0
H537 H 0.88352 0.39196 0.69803 0.0
H538 H 0.89689 0.39462 0.71547 0.0
C539 C 0.88157 0.3843 0.70904 0.0
H540 H 0.86729 0.38412 0.71461 0.0
H541 H 0.85965 0.38942 0.67457 0.0
O542 O 0.84615 0.27813 0.68785 0.0
C543 C 0.83767 0.32558 0.66103 0.0
Co544 Co 0.69129 0.53582 0.69106 0.0
Co545 Co 0.64819 0.48906 0.69142 0.0
C546 C 0.69237 0.49547 0.70089 0.0
O547 O 0.70192 0.51628 0.6987 0.0
O548 O 0.67175 0.48294 0.69835 0.0
C549 C 0.73414 0.57262 0.69812 0.0
O550 O 0.7354 0.55852 0.70714 0.0
C551 C 0.61456 0.44427 0.7009 0.0
C552 C 0.58614 0.43805 0.68677 0.0
C553 C 0.59305 0.42822 0.69718 0.0
N554 N 0.61996 0.46272 0.6931 0.0
N555 N 0.60282 0.45896 0.68481 0.0
C556 C 0.63094 0.44141 0.70997 0.0
H557 H 0.6426 0.43975 0.70245 0.0
H558 H 0.64066 0.45634 0.71691 0.0
H559 H 0.62299 0.42653 0.71708 0.0
C560 C 0.66342 0.54696 0.70958 0.0
N561 N 0.66683 0.53231 0.70204 0.0
N562 N 0.64864 0.51277 0.70229 0.0
C563 C 0.63299 0.51438 0.71007 0.0
C564 C 0.64183 0.53616 0.71489 0.0
C565 C 0.68062 0.57085 0.71153 0.0
H566 H 0.69651 0.57212 0.71494 0.0
H567 H 0.67556 0.57906 0.71992 0.0
H568 H 0.6834 0.57956 0.70082 0.0
O569 O 0.68318 0.52929 0.67008 0.0
O570 O 0.65272 0.49624 0.67009 0.0
H571 H 0.60177 0.49159 0.70048 0.0
H572 H 0.59947 0.50056 0.71865 0.0
C573 C 0.6095 0.49595 0.71156 0.0
H574 H 0.60927 0.4811 0.71621 0.0
H575 H 0.60286 0.47038 0.67735 0.0
O576 O 0.71623 0.56667 0.69112 0.0
C577 C 0.66758 0.51306 0.66322 0.0
Co578 Co 0.4584 0.15361 0.68874 0.0
Co579 Co 0.50525 0.1578 0.69174 0.0
C580 C 0.49739 0.19515 0.69996 0.0
O581 O 0.47701 0.18385 0.69645 0.0
O582 O 0.51026 0.18713 0.69876 0.0
C583 C 0.42069 0.15879 0.69426 0.0
O584 O 0.43391 0.1739 0.70374 0.0
C585 C 0.54842 0.16866 0.70418 0.0
C586 C 0.5584 0.14962 0.68974 0.0
C587 C 0.56581 0.16487 0.70117 0.0
N588 N 0.53172 0.15653 0.69481 0.0
N589 N 0.5377 0.145 0.68631 0.0
C590 C 0.54745 0.18329 0.71586 0.0
H591 H 0.53013 0.17652 0.71975 0.0
H592 H 0.55831 0.1849 0.7253 0.0
H593 H 0.55325 0.19997 0.71113 0.0
C594 C 0.44594 0.11456 0.70765 0.0
N595 N 0.46114 0.13267 0.70041 0.0
N596 N 0.48068 0.13416 0.70161 0.0
C597 C 0.47851 0.1169 0.70964 0.0
C598 C 0.45638 0.10385 0.71371 0.0
C599 C 0.42195 0.10792 0.70878 0.0
H600 H 0.4205 0.12262 0.71166 0.0
H601 H 0.41322 0.09488 0.71725 0.0
H602 H 0.4139 0.10172 0.69791 0.0
O603 O 0.46709 0.15257 0.66824 0.0
O604 O 0.50023 0.15559 0.67006 0.0
H605 H 0.49138 0.09635 0.71819 0.0
H606 H 0.51046 0.12598 0.71839 0.0
C607 C 0.49696 0.11209 0.71214 0.0
H608 H 0.50378 0.11096 0.70134 0.0
H609 H 0.52794 0.13454 0.67782 0.0
O610 O 0.42746 0.14735 0.68744 0.0
C611 C 0.48412 0.15362 0.66229 0.0
Co612 Co 0.68735 0.1509 0.18854 0.0
Co613 Co 0.64475 0.15516 0.19064 0.0
C614 C 0.68976 0.19282 0.1988 0.0
O615 O 0.69895 0.18138 0.19598 0.0
O616 O 0.66895 0.18476 0.19715 0.0
C617 C 0.72937 0.15517 0.19592 0.0
O618 O 0.73033 0.16947 0.20576 0.0
C619 C 0.61249 0.16649 0.20237 0.0
C620 C 0.58297 0.14588 0.18868 0.0
C621 C 0.59105 0.162 0.19957 0.0
N622 N 0.61701 0.15391 0.19339 0.0
N623 N 0.59921 0.14142 0.18535 0.0
C624 C 0.62821 0.18187 0.21374 0.0
H625 H 0.63887 0.1754 0.21793 0.0
H626 H 0.61906 0.18396 0.22305 0.0
H627 H 0.63899 0.19828 0.20863 0.0
C628 C 0.66017 0.11204 0.20753 0.0
N629 N 0.66343 0.13017 0.20013 0.0
N630 N 0.64554 0.13198 0.20115 0.0
C631 C 0.63031 0.11506 0.20934 0.0
C632 C 0.63903 0.10183 0.21362 0.0
C633 C 0.67636 0.10384 0.20764 0.0
H634 H 0.6822 0.10395 0.19623 0.0
H635 H 0.69101 0.11528 0.21434 0.0
H636 H 0.66898 0.08683 0.2122 0.0
O637 O 0.67814 0.14942 0.16782 0.0
O638 O 0.64772 0.15203 0.16912 0.0
H639 H 0.59745 0.10665 0.20303 0.0
H640 H 0.59959 0.09901 0.22176 0.0
C641 C 0.60792 0.11179 0.21308 0.0
H642 H 0.60965 0.12765 0.21702 0.0
H643 H 0.59836 0.13033 0.17729 0.0
O644 O 0.71203 0.14466 0.18809 0.0
C645 C 0.66209 0.15005 0.1616 0.0
Co646 Co 0.84161 0.53492 0.18945 0.0
Co647 Co 0.83654 0.48769 0.19039 0.0
C648 C 0.79964 0.49572 0.19967 0.0
O649 O 0.81136 0.51639 0.19714 0.0
O650 O 0.80725 0.4827 0.19745 0.0
C651 C 0.83779 0.57289 0.19685 0.0
O652 O 0.8231 0.55948 0.20648 0.0
C653 C 0.82508 0.44434 0.20234 0.0
C654 C 0.84115 0.43272 0.18649 0.0
C655 C 0.82723 0.42613 0.19867 0.0
N656 N 0.83681 0.46066 0.19264 0.0
N657 N 0.84661 0.45373 0.1833 0.0
C658 C 0.81262 0.44666 0.21502 0.0
H659 H 0.82103 0.46414 0.21884 0.0
H660 H 0.81135 0.43563 0.22426 0.0
H661 H 0.79568 0.44211 0.21135 0.0
C662 C 0.88046 0.54531 0.20801 0.0
N663 N 0.8622 0.5309 0.20055 0.0
N664 N 0.86032 0.51113 0.2009 0.0
C665 C 0.87749 0.51236 0.20855 0.0
C666 C 0.89086 0.53411 0.21329 0.0
C667 C 0.88755 0.56928 0.21005 0.0
H668 H 0.87305 0.57084 0.21334 0.0
H669 H 0.90065 0.57719 0.21858 0.0
H670 H 0.89384 0.57809 0.1994 0.0
O671 O 0.84245 0.52753 0.16856 0.0
O672 O 0.83937 0.49428 0.16897 0.0
H673 H 0.89815 0.49867 0.21531 0.0
H674 H 0.8685 0.4801 0.21661 0.0
C675 C 0.88193 0.49352 0.21002 0.0
H676 H 0.88181 0.48675 0.19893 0.0
H677 H 0.85636 0.46305 0.17442 0.0
O678 O 0.84852 0.56606 0.18924 0.0
C679 C 0.84146 0.51101 0.16188 0.0
Co680 Co 0.45754 0.30259 0.19068 0.0
Co681 Co 0.50511 0.34431 0.19169 0.0
C682 C 0.49622 0.29934 0.20154 0.0
O683 O 0.47561 0.29068 0.19885 0.0
O684 O 0.50959 0.31987 0.1992 0.0
C685 C 0.41907 0.26088 0.1976 0.0
O686 O 0.43231 0.25884 0.20698 0.0
C687 C 0.54925 0.37645 0.20277 0.0
C688 C 0.55873 0.40501 0.18798 0.0
C689 C 0.56652 0.39748 0.19936 0.0
N690 N 0.53216 0.3717 0.19373 0.0
N691 N 0.53787 0.3889 0.18498 0.0
C692 C 0.54868 0.36126 0.21464 0.0
H693 H 0.53165 0.35152 0.21919 0.0
H694 H 0.56048 0.37074 0.22362 0.0
H695 H 0.55337 0.34952 0.20986 0.0
C696 C 0.44734 0.33174 0.20855 0.0
N697 N 0.46175 0.32753 0.20141 0.0
N698 N 0.48165 0.34522 0.20186 0.0
C699 C 0.48051 0.3614 0.20928 0.0
C700 C 0.45868 0.3534 0.21372 0.0
C701 C 0.42323 0.31516 0.21038 0.0
H702 H 0.42131 0.29904 0.21391 0.0
H703 H 0.41524 0.32066 0.21866 0.0
H704 H 0.41474 0.3126 0.1996 0.0
O705 O 0.46531 0.31026 0.16979 0.0
O706 O 0.49881 0.34008 0.17023 0.0
H707 H 0.50533 0.39168 0.19963 0.0
H708 H 0.49491 0.39548 0.21688 0.0
C709 C 0.49953 0.38459 0.21077 0.0
H710 H 0.51345 0.38429 0.2165 0.0
H711 H 0.52773 0.38941 0.17669 0.0
O712 O 0.42622 0.27879 0.19036 0.0
C713 C 0.4821 0.32548 0.16311 0.0
Co714 Co 0.48611 0.35571 0.97765 0.0
Co715 Co 0.48782 0.31163 0.97567 0.0
C716 C 0.52674 0.35559 0.96711 0.0
O717 O 0.51616 0.36561 0.97014 0.0
O718 O 0.51785 0.33467 0.96873 0.0
C719 C 0.4935 0.39929 0.9713 0.0
O720 O 0.5088 0.40048 0.96226 0.0
C721 C 0.49612 0.27649 0.9649 0.0
C722 C 0.4754 0.24923 0.98025 0.0
C723 C 0.49071 0.25513 0.96894 0.0
N724 N 0.48454 0.28288 0.97347 0.0
N725 N 0.47191 0.26635 0.98243 0.0
C726 C 0.51422 0.29177 0.95468 0.0
H727 H 0.51014 0.30391 0.9498 0.0
H728 H 0.51692 0.28259 0.94571 0.0
H729 H 0.52985 0.30089 0.96104 0.0
C730 C 0.44695 0.33 0.95866 0.0
N731 N 0.46461 0.33223 0.96616 0.0
N732 N 0.46514 0.31363 0.96531 0.0
C733 C 0.44771 0.29887 0.95725 0.0
C734 C 0.43556 0.30876 0.95279 0.0
C735 C 0.44139 0.34807 0.95711 0.0
H736 H 0.43563 0.3508 0.96791 0.0
H737 H 0.4565 0.36372 0.95396 0.0
H738 H 0.42835 0.34398 0.94868 0.0
O739 O 0.48426 0.34657 0.99838 0.0
O740 O 0.48543 0.31539 0.99717 0.0
H741 H 0.43958 0.26725 0.96602 0.0
H742 H 0.4264 0.26563 0.94865 0.0
C743 C 0.44186 0.27524 0.95509 0.0
H744 H 0.45572 0.27475 0.94941 0.0
H745 H 0.46173 0.26719 0.99056 0.0
O746 O 0.48129 0.38133 0.97819 0.0
C747 C 0.48421 0.33022 0.00465 0.0
Co748 Co 0.63438 0.1256 0.97539 0.0
Co749 Co 0.67614 0.1731 0.97459 0.0
C750 C 0.63128 0.16443 0.96473 0.0
O751 O 0.62251 0.14371 0.96706 0.0
O752 O 0.65171 0.1777 0.96742 0.0
C753 C 0.59295 0.08704 0.96789 0.0
O754 O 0.59123 0.10019 0.95826 0.0
C755 C 0.70782 0.21749 0.96382 0.0
C756 C 0.73715 0.22641 0.97773 0.0
C757 C 0.72907 0.2346 0.96694 0.0
N758 N 0.70346 0.20015 0.97251 0.0
N759 N 0.72113 0.20551 0.98071 0.0
C760 C 0.69216 0.21711 0.95237 0.0
H761 H 0.68257 0.20026 0.94753 0.0
H762 H 0.70123 0.22929 0.94348 0.0
H763 H 0.68029 0.22127 0.95762 0.0
C764 C 0.6636 0.11552 0.9574 0.0
N765 N 0.65939 0.12981 0.96472 0.0
N766 N 0.67695 0.14979 0.96417 0.0
C767 C 0.69296 0.14885 0.95639 0.0
C768 C 0.68505 0.12711 0.95187 0.0
C769 C 0.64787 0.09104 0.95679 0.0
H770 H 0.64146 0.08481 0.96802 0.0
H771 H 0.63352 0.08775 0.94973 0.0
H772 H 0.65588 0.0819 0.95237 0.0
O773 O 0.64192 0.13327 0.99635 0.0
O774 O 0.67208 0.16653 0.99603 0.0
H775 H 0.72524 0.17365 0.96345 0.0
H776 H 0.72425 0.16463 0.94463 0.0
C777 C 0.71526 0.16847 0.95317 0.0
H778 H 0.71327 0.18249 0.94931 0.0
H779 H 0.72203 0.19507 0.98859 0.0
O780 O 0.61052 0.09432 0.97552 0.0
C781 C 0.6573 0.14987 0.00308 0.0
Co782 Co 0.8683 0.5103 0.97584 0.0
Co783 Co 0.82099 0.50531 0.97492 0.0
C784 C 0.82849 0.46794 0.96649 0.0
O785 O 0.84919 0.47969 0.96884 0.0
O786 O 0.81561 0.47573 0.96849 0.0
C787 C 0.90444 0.50395 0.96846 0.0
O788 O 0.88962 0.48852 0.95983 0.0
C789 C 0.77794 0.49321 0.96252 0.0
C790 C 0.76486 0.50795 0.97833 0.0
C791 C 0.75911 0.49434 0.96602 0.0
N792 N 0.7938 0.50516 0.97243 0.0
N793 N 0.78602 0.51421 0.98175 0.0
C794 C 0.7812 0.48139 0.94983 0.0
H795 H 0.7988 0.49044 0.94622 0.0
H796 H 0.77026 0.47987 0.94046 0.0
H797 H 0.77718 0.46455 0.95337 0.0
C798 C 0.87846 0.54877 0.95686 0.0
N799 N 0.86411 0.53053 0.96438 0.0
N800 N 0.84431 0.5286 0.96403 0.0
C801 C 0.84545 0.54569 0.95634 0.0
C802 C 0.86717 0.55908 0.95154 0.0
C803 C 0.90253 0.55614 0.955 0.0
H804 H 0.91121 0.56284 0.96564 0.0
H805 H 0.90439 0.54171 0.95203 0.0
H806 H 0.91034 0.56903 0.94634 0.0
O807 O 0.86137 0.51211 0.99676 0.0
O808 O 0.82804 0.50894 0.99626 0.0
H809 H 0.8198 0.54973 0.96621 0.0
H810 H 0.83183 0.5666 0.95004 0.0
C811 C 0.82663 0.55022 0.95508 0.0
H812 H 0.81325 0.53702 0.94834 0.0
H813 H 0.79482 0.52387 0.9908 0.0
O814 O 0.89938 0.51653 0.97557 0.0
C815 C 0.84487 0.51134 0.00338 0.0
Co816 Co 0.30136 0.842 0.8099 0.0
Co817 Co 0.34399 0.83777 0.8077 0.0
C818 C 0.29922 0.80062 0.79861 0.0
O819 O 0.29005 0.81192 0.80188 0.0
O820 O 0.32003 0.80855 0.80024 0.0
C821 C 0.25879 0.83705 0.80341 0.0
O822 O 0.25734 0.82226 0.79381 0.0
C823 C 0.37684 0.82734 0.79589 0.0
C824 C 0.40537 0.84629 0.81071 0.0
C825 C 0.39793 0.83114 0.79921 0.0
N826 N 0.37191 0.83929 0.80517 0.0
N827 N 0.38916 0.85085 0.81387 0.0
C828 C 0.36174 0.81311 0.78387 0.0
H829 H 0.35151 0.82013 0.77979 0.0
H830 H 0.37137 0.81166 0.7746 0.0
H831 H 0.3505 0.79634 0.78834 0.0
C832 C 0.32902 0.88178 0.79181 0.0
N833 N 0.32561 0.86333 0.79885 0.0
N834 N 0.34357 0.86164 0.79786 0.0
C835 C 0.35903 0.87899 0.79008 0.0
C836 C 0.35035 0.89236 0.78602 0.0
C837 C 0.31269 0.88981 0.79173 0.0
H838 H 0.30666 0.88938 0.80312 0.0
H839 H 0.29818 0.87844 0.7849 0.0
H840 H 0.32004 0.90692 0.78734 0.0
O841 O 0.30993 0.8423 0.83059 0.0
O842 O 0.34016 0.83939 0.82934 0.0
H843 H 0.3916 0.88681 0.79669 0.0
H844 H 0.39023 0.89589 0.77823 0.0
C845 C 0.38153 0.88248 0.78646 0.0
H846 H 0.37992 0.8669 0.78202 0.0
H847 H 0.38956 0.86123 0.82231 0.0
O848 O 0.27665 0.8482 0.81064 0.0
C849 C 0.32561 0.84107 0.83685 0.0
Co850 Co 0.15104 0.45935 0.80845 0.0
Co851 Co 0.15535 0.50645 0.80692 0.0
C852 C 0.19294 0.49925 0.79838 0.0
O853 O 0.18157 0.47856 0.80105 0.0
O854 O 0.18481 0.5119 0.80021 0.0
C855 C 0.15635 0.42193 0.80173 0.0
O856 O 0.17187 0.43569 0.79267 0.0
C857 C 0.16499 0.5508 0.79644 0.0
C858 C 0.14579 0.55806 0.81265 0.0
C859 C 0.16066 0.56733 0.80107 0.0
N860 N 0.15345 0.53283 0.80505 0.0
N861 N 0.14165 0.53717 0.81448 0.0
C862 C 0.18113 0.55267 0.78482 0.0
H863 H 0.18148 0.53706 0.78368 0.0
H864 H 0.17608 0.55607 0.774 0.0
H865 H 0.19794 0.56659 0.78747 0.0
C866 C 0.11201 0.44808 0.78977 0.0
N867 N 0.1302 0.46281 0.79719 0.0
N868 N 0.13196 0.48251 0.79646 0.0
C869 C 0.11494 0.48096 0.78845 0.0
C870 C 0.1017 0.45908 0.78397 0.0
C871 C 0.10391 0.42371 0.78936 0.0
H872 H 0.10403 0.41774 0.80068 0.0
H873 H 0.11541 0.42074 0.78255 0.0
H874 H 0.0869 0.41413 0.78479 0.0
O875 O 0.14971 0.46661 0.82927 0.0
O876 O 0.15313 0.50001 0.8284 0.0
H877 H 0.10685 0.50545 0.79522 0.0
H878 H 0.0987 0.49584 0.77649 0.0
C879 C 0.11167 0.50015 0.785 0.0
H880 H 0.12749 0.51428 0.78099 0.0
H881 H 0.1316 0.52622 0.82267 0.0
O882 O 0.14475 0.42838 0.8087 0.0
C883 C 0.15097 0.48343 0.8357 0.0
Co884 Co 0.53583 0.69323 0.80812 0.0
Co885 Co 0.48858 0.65098 0.80676 0.0
C886 C 0.49659 0.69593 0.79772 0.0
O887 O 0.51724 0.70496 0.80039 0.0
O888 O 0.48364 0.67524 0.79973 0.0
C889 C 0.57383 0.73492 0.80045 0.0
O890 O 0.56048 0.73598 0.79066 0.0
C891 C 0.44487 0.61896 0.79522 0.0
C892 C 0.4343 0.59074 0.81048 0.0
C893 C 0.42703 0.59831 0.7988 0.0
N894 N 0.46163 0.62351 0.80452 0.0
N895 N 0.45533 0.60645 0.81349 0.0
C896 C 0.44645 0.6339 0.78285 0.0
H897 H 0.46381 0.64349 0.77883 0.0
H898 H 0.43531 0.6242 0.77364 0.0
H899 H 0.44149 0.64579 0.78693 0.0
C900 C 0.54666 0.66462 0.78998 0.0
N901 N 0.53204 0.66858 0.7971 0.0
N902 N 0.51221 0.65081 0.79644 0.0
C903 C 0.51356 0.63493 0.78881 0.0
C904 C 0.53544 0.64313 0.78449 0.0
C905 C 0.57113 0.68052 0.78972 0.0
H906 H 0.57697 0.68676 0.80103 0.0
H907 H 0.57452 0.69495 0.78272 0.0
H908 H 0.58053 0.67273 0.78541 0.0
O909 O 0.5282 0.68506 0.82898 0.0
O910 O 0.49494 0.65488 0.82824 0.0
H911 H 0.48871 0.60288 0.79621 0.0
H912 H 0.49849 0.60313 0.77767 0.0
C913 C 0.49423 0.61239 0.78575 0.0
H914 H 0.48027 0.61402 0.78134 0.0
H915 H 0.46511 0.60587 0.82201 0.0
O916 O 0.56693 0.71759 0.80829 0.0
C917 C 0.51147 0.66949 0.83549 0.0
Co918 Co 0.50834 0.63809 0.02042 0.0
Co919 Co 0.50343 0.68033 0.02351 0.0
C920 C 0.46688 0.63521 0.0324 0.0
O921 O 0.47829 0.62631 0.02873 0.0
O922 O 0.47457 0.656 0.031 0.0
C923 C 0.50497 0.59637 0.02754 0.0
O924 O 0.49107 0.59529 0.03774 0.0
C925 C 0.49033 0.71282 0.0326 0.0
C926 C 0.5172 0.74381 0.02295 0.0
C927 C 0.49761 0.73524 0.03087 0.0
N928 N 0.50516 0.70843 0.02622 0.0
N929 N 0.52121 0.72706 0.02052 0.0
C930 C 0.46831 0.69523 0.0383 0.0
H931 H 0.47097 0.68645 0.04759 0.0
H932 H 0.45762 0.70188 0.04197 0.0
H933 H 0.45952 0.68304 0.02938 0.0
C934 C 0.54827 0.66567 0.03832 0.0
N935 N 0.52968 0.66228 0.0315 0.0
N936 N 0.52732 0.67974 0.03335 0.0
C937 C 0.54408 0.69459 0.04184 0.0
C938 C 0.55804 0.68627 0.04515 0.0
C939 C 0.55723 0.65014 0.03721 0.0
H940 H 0.55482 0.64339 0.02586 0.0
H941 H 0.54792 0.63605 0.04489 0.0
H942 H 0.57514 0.65849 0.03995 0.0
O943 O 0.50847 0.64697 -9e-05 0.0
O944 O 0.50522 0.67696 0.00177 0.0
H945 H 0.55421 0.72878 0.03878 0.0
H946 H 0.5562 0.72149 0.05755 0.0
C947 C 0.54608 0.71578 0.04734 0.0
H948 H 0.52941 0.71345 0.04967 0.0
H949 H 0.53458 0.72818 0.01458 0.0
O950 O 0.51481 0.61359 0.01953 0.0
C951 C 0.50711 0.66277 0.99397 0.0
Co952 Co 0.3555 0.86753 0.02223 0.0
Co953 Co 0.31295 0.82049 0.02456 0.0
C954 C 0.35774 0.82834 0.03363 0.0
O955 O 0.36681 0.84875 0.03022 0.0
O956 O 0.33693 0.81539 0.03212 0.0
C957 C 0.39794 0.90518 0.02903 0.0
O958 O 0.39932 0.89183 0.03866 0.0
C959 C 0.27977 0.77478 0.03291 0.0
C960 C 0.24935 0.77137 0.02276 0.0
C961 C 0.25736 0.7599 0.03073 0.0
N962 N 0.28464 0.79426 0.02674 0.0
N963 N 0.26636 0.79211 0.02073 0.0
C964 C 0.29698 0.76992 0.03879 0.0
H965 H 0.30949 0.77346 0.03006 0.0
H966 H 0.30551 0.78101 0.04828 0.0
H967 H 0.29001 0.75243 0.04223 0.0
C968 C 0.32796 0.87962 0.04041 0.0
N969 N 0.33126 0.86454 0.03332 0.0
N970 N 0.31347 0.84481 0.03462 0.0
C971 C 0.29836 0.8467 0.04285 0.0
C972 C 0.30697 0.86882 0.04668 0.0
C973 C 0.34408 0.90403 0.04017 0.0
H974 H 0.35019 0.90929 0.02875 0.0
H975 H 0.35856 0.90758 0.04717 0.0
H976 H 0.33651 0.91377 0.04421 0.0
O977 O 0.34698 0.85947 0.00156 0.0
O978 O 0.31692 0.82623 0.00293 0.0
H979 H 0.26432 0.82359 0.03836 0.0
H980 H 0.26996 0.83194 0.05738 0.0
C981 C 0.27641 0.82768 0.04745 0.0
H982 H 0.27799 0.81294 0.04988 0.0
H983 H 0.26568 0.80463 0.01483 0.0
O984 O 0.38021 0.89842 0.02164 0.0
C985 C 0.33131 0.84249 0.99537 0.0
Co986 Co 0.12649 0.48452 0.01993 0.0
Co987 Co 0.17338 0.48959 0.02392 0.0
C988 C 0.16475 0.52652 0.0314 0.0
O989 O 0.14448 0.51482 0.02773 0.0
O990 O 0.17795 0.51887 0.0305 0.0
C991 C 0.08435 0.48259 0.02654 0.0
O992 O 0.09057 0.48709 0.04038 0.0
C993 C 0.21615 0.50102 0.03719 0.0
C994 C 0.22715 0.48249 0.0231 0.0
C995 C 0.23399 0.4978 0.0345 0.0
N996 N 0.19985 0.48863 0.02763 0.0
N997 N 0.20639 0.47732 0.01938 0.0
C998 C 0.21411 0.51501 0.04891 0.0
H999 H 0.19655 0.50764 0.05243 0.0
H1000 H 0.22462 0.51664 0.05857 0.0
H1001 H 0.21957 0.53173 0.04438 0.0
C1002 C 0.11362 0.44518 0.03894 0.0
N1003 N 0.12877 0.4636 0.0319 0.0
N1004 N 0.14857 0.46583 0.03367 0.0
C1005 C 0.14666 0.44899 0.04205 0.0
C1006 C 0.12446 0.43532 0.04563 0.0
C1007 C 0.08913 0.43627 0.03819 0.0
H1008 H 0.08454 0.43975 0.02721 0.0
H1009 H 0.08441 0.44463 0.04668 0.0
H1010 H 0.07976 0.41814 0.04026 0.0
O1011 O 0.13581 0.48301 -0.00021 0.0
O1012 O 0.16939 0.48723 0.00209 0.0
H1013 H 0.17237 0.44177 0.03701 0.0
H1014 H 0.16098 0.43344 0.05537 0.0
C1015 C 0.16582 0.44634 0.04673 0.0
H1016 H 0.17925 0.46232 0.05111 0.0
H1017 H 0.19702 0.46673 0.01084 0.0
O1018 O 0.09635 0.47961 0.01734 0.0
C1019 C 0.15314 0.48443 0.99411 0.0
Co1020 Co 0.3545 0.48452 0.52004 0.0
Co1021 Co 0.31245 0.48981 0.52253 0.0
C1022 C 0.35738 0.52681 0.53068 0.0
O1023 O 0.36611 0.51511 0.52734 0.0
O1024 O 0.33655 0.5191 0.5295 0.0
C1025 C 0.39649 0.48899 0.52764 0.0
O1026 O 0.39698 0.50288 0.53765 0.0
C1027 C 0.27896 0.5009 0.53276 0.0
C1028 C 0.25004 0.47814 0.51921 0.0
C1029 C 0.25723 0.49505 0.52949 0.0
N1030 N 0.28431 0.48796 0.52479 0.0
N1031 N 0.26685 0.4742 0.51687 0.0
C1032 C 0.29533 0.52023 0.54173 0.0
H1033 H 0.30613 0.53389 0.53413 0.0
H1034 H 0.30592 0.51551 0.54813 0.0
H1035 H 0.28717 0.52638 0.54933 0.0
C1036 C 0.32715 0.44588 0.53911 0.0
N1037 N 0.33056 0.46401 0.53165 0.0
N1038 N 0.31293 0.46625 0.53286 0.0
C1039 C 0.29776 0.44964 0.5413 0.0
C1040 C 0.30622 0.43614 0.54549 0.0
C1041 C 0.34307 0.43734 0.53912 0.0
H1042 H 0.34939 0.43807 0.52779 0.0
H1043 H 0.35744 0.44815 0.54624 0.0
H1044 H 0.33523 0.42002 0.54321 0.0
O1045 O 0.34525 0.48282 0.49938 0.0
O1046 O 0.31613 0.4876 0.50094 0.0
H1047 H 0.26451 0.44096 0.53594 0.0
H1048 H 0.26817 0.43526 0.55484 0.0
C1049 C 0.27584 0.4471 0.54557 0.0
H1050 H 0.27805 0.46341 0.54887 0.0
H1051 H 0.2667 0.46268 0.50944 0.0
O1052 O 0.37932 0.47845 0.51967 0.0
C1053 C 0.32979 0.48465 0.49331 0.0
Co1054 Co 0.50733 0.86772 0.52133 0.0
Co1055 Co 0.50321 0.82101 0.52519 0.0
C1056 C 0.4669 0.8294 0.53476 0.0
O1057 O 0.4778 0.84948 0.53049 0.0
O1058 O 0.47481 0.81647 0.53347 0.0
C1059 C 0.50311 0.90592 0.52752 0.0
O1060 O 0.48955 0.89349 0.538 0.0
C1061 C 0.49029 0.77507 0.53315 0.0
C1062 C 0.51908 0.77273 0.52524 0.0
C1063 C 0.49849 0.7606 0.53185 0.0
N1064 N 0.50559 0.79498 0.52789 0.0
N1065 N 0.52273 0.79344 0.52315 0.0
C1066 C 0.46723 0.76942 0.5373 0.0
H1067 H 0.46054 0.77588 0.52876 0.0
H1068 H 0.46778 0.77751 0.54795 0.0
H1069 H 0.45582 0.75131 0.53827 0.0
C1070 C 0.54838 0.88144 0.53838 0.0
N1071 N 0.52957 0.86578 0.532 0.0
N1072 N 0.52743 0.84614 0.5343 0.0
C1073 C 0.54446 0.84863 0.54276 0.0
C1074 C 0.55847 0.8711 0.54547 0.0
C1075 C 0.55706 0.90581 0.53676 0.0
H1076 H 0.55362 0.90948 0.52548 0.0
H1077 H 0.54841 0.91099 0.54473 0.0
H1078 H 0.57519 0.91556 0.5388 0.0
O1079 O 0.50636 0.85804 0.50094 0.0
O1080 O 0.50349 0.82505 0.50337 0.0
H1081 H 0.5554 0.82496 0.54131 0.0
H1082 H 0.55574 0.83481 0.55969 0.0
C1083 C 0.54637 0.82984 0.54916 0.0
H1084 H 0.52968 0.81537 0.5512 0.0
H1085 H 0.53663 0.80635 0.51804 0.0
O1086 O 0.51318 0.89847 0.51982 0.0
C1087 C 0.50476 0.8406 0.49529 0.0
Co1088 Co 0.12648 0.63638 0.52314 0.0
Co1089 Co 0.17359 0.67875 0.52396 0.0
C1090 C 0.1654 0.63426 0.53452 0.0
O1091 O 0.14469 0.62505 0.53204 0.0
O1092 O 0.17839 0.65468 0.53165 0.0
C1093 C 0.08824 0.59409 0.52944 0.0
O1094 O 0.10148 0.59198 0.53878 0.0
C1095 C 0.21634 0.71083 0.5365 0.0
C1096 C 0.2289 0.73807 0.52025 0.0
C1097 C 0.2348 0.73109 0.53292 0.0
N1098 N 0.20059 0.70601 0.5263 0.0
N1099 N 0.20808 0.72246 0.5167 0.0
C1100 C 0.21319 0.69634 0.54952 0.0
H1101 H 0.19548 0.68742 0.55288 0.0
H1102 H 0.22364 0.70628 0.55893 0.0
H1103 H 0.21784 0.68378 0.54643 0.0
C1104 C 0.11547 0.66554 0.54049 0.0
N1105 N 0.13007 0.66145 0.53347 0.0
N1106 N 0.14981 0.67937 0.53381 0.0
C1107 C 0.14838 0.69557 0.54097 0.0
C1108 C 0.12653 0.68733 0.54544 0.0
C1109 C 0.09149 0.64866 0.54252 0.0
H1110 H 0.08988 0.63257 0.54579 0.0
H1111 H 0.08359 0.65388 0.55104 0.0
H1112 H 0.08269 0.64619 0.53187 0.0
O1113 O 0.13478 0.64378 0.50218 0.0
O1114 O 0.1677 0.67439 0.50255 0.0
H1115 H 0.17452 0.72501 0.5312 0.0
H1116 H 0.16179 0.73022 0.54683 0.0
C1117 C 0.16718 0.71891 0.54226 0.0
H1118 H 0.18024 0.7192 0.54943 0.0
H1119 H 0.19927 0.72267 0.50745 0.0
O1120 O 0.09523 0.61222 0.52249 0.0
C1121 C 0.15135 0.65925 0.49547 0.0
Co1122 Co 0.15099 0.68986 0.31043 0.0
Co1123 Co 0.15686 0.64826 0.30763 0.0
C1124 C 0.19286 0.69357 0.29866 0.0
O1125 O 0.18095 0.70207 0.30199 0.0
O1126 O 0.18572 0.67293 0.30039 0.0
C1127 C 0.15346 0.73119 0.3034 0.0
O1128 O 0.16679 0.73212 0.29282 0.0
C1129 C 0.16861 0.6164 0.29557 0.0
C1130 C 0.14809 0.58674 0.30917 0.0
C1131 C 0.16406 0.59488 0.29818 0.0
N1132 N 0.15614 0.62083 0.30472 0.0
N1133 N 0.14377 0.60297 0.31275 0.0
C1134 C 0.18377 0.63226 0.28416 0.0
H1135 H 0.1769 0.64256 0.27995 0.0
H1136 H 0.1861 0.62328 0.27484 0.0
H1137 H 0.20013 0.64343 0.28925 0.0
C1138 C 0.11129 0.6616 0.29244 0.0
N1139 N 0.13004 0.66552 0.2993 0.0
N1140 N 0.13256 0.64809 0.29792 0.0
C1141 C 0.11548 0.6325 0.29002 0.0
C1142 C 0.10141 0.6405 0.28633 0.0
C1143 C 0.10235 0.67718 0.2928 0.0
H1144 H 0.10327 0.68332 0.30421 0.0
H1145 H 0.11282 0.6917 0.2857 0.0
H1146 H 0.08492 0.66913 0.28892 0.0
O1147 O 0.15115 0.68103 0.33102 0.0
O1148 O 0.15487 0.65131 0.32927 0.0
H1149 H 0.10816 0.59979 0.2958 0.0
H1150 H 0.10007 0.60212 0.27725 0.0
C1151 C 0.11291 0.61052 0.28588 0.0
H1152 H 0.12892 0.61287 0.28172 0.0
H1153 H 0.13274 0.60203 0.32089 0.0
O1154 O 0.144 0.71403 0.31149 0.0
C1155 C 0.15276 0.66539 0.33702 0.0
Co1156 Co 0.30306 0.45932 0.30797 0.0
Co1157 Co 0.34421 0.50713 0.3057 0.0
C1158 C 0.29871 0.49756 0.29713 0.0
O1159 O 0.29041 0.47711 0.30021 0.0
O1160 O 0.31935 0.51115 0.29878 0.0
C1161 C 0.26201 0.42053 0.30047 0.0
O1162 O 0.26096 0.43325 0.29017 0.0
C1163 C 0.37548 0.55128 0.29418 0.0
C1164 C 0.40556 0.56028 0.30728 0.0
C1165 C 0.39698 0.56829 0.29671 0.0
N1166 N 0.37145 0.53413 0.30297 0.0
N1167 N 0.38955 0.53954 0.31069 0.0
C1168 C 0.35928 0.55087 0.28318 0.0
H1169 H 0.34916 0.53392 0.27858 0.0
H1170 H 0.36795 0.56277 0.27408 0.0
H1171 H 0.348 0.5555 0.28877 0.0
C1172 C 0.33146 0.44898 0.28935 0.0
N1173 N 0.3274 0.46344 0.29658 0.0
N1174 N 0.34475 0.4835 0.29549 0.0
C1175 C 0.36044 0.48244 0.2874 0.0
C1176 C 0.35255 0.46055 0.28327 0.0
C1177 C 0.31605 0.42442 0.2894 0.0
H1178 H 0.3101 0.41879 0.30079 0.0
H1179 H 0.30139 0.42046 0.28247 0.0
H1180 H 0.32417 0.41529 0.28516 0.0
O1181 O 0.31204 0.46745 0.32864 0.0
O1182 O 0.34097 0.5015 0.3273 0.0
H1183 H 0.39304 0.50764 0.29355 0.0
H1184 H 0.39098 0.49797 0.27481 0.0
C1185 C 0.38244 0.50205 0.28356 0.0
H1186 H 0.3801 0.51584 0.2797 0.0
H1187 H 0.39082 0.52924 0.31852 0.0
O1188 O 0.27916 0.42809 0.30856 0.0
C1189 C 0.32729 0.48476 0.33483 0.0
Co1190 Co 0.53188 0.84027 0.30968 0.0
Co1191 Co 0.48479 0.83559 0.30812 0.0
C1192 C 0.49347 0.79984 0.29706 0.0
O1193 O 0.51397 0.8112 0.30023 0.0
O1194 O 0.48028 0.80716 0.29966 0.0
C1195 C 0.57043 0.83689 0.30319 0.0
O1196 O 0.5577 0.82251 0.29318 0.0
C1197 C 0.44186 0.82546 0.29581 0.0
C1198 C 0.43121 0.84283 0.31128 0.0
C1199 C 0.42436 0.82894 0.29911 0.0
N1200 N 0.45812 0.83654 0.30568 0.0
N1201 N 0.45173 0.84704 0.31483 0.0
C1202 C 0.44349 0.81235 0.28329 0.0
H1203 H 0.46092 0.82006 0.27943 0.0
H1204 H 0.43263 0.81133 0.27401 0.0
H1205 H 0.43825 0.79532 0.28716 0.0
C1206 C 0.54373 0.88103 0.2929 0.0
N1207 N 0.5288 0.86225 0.29966 0.0
N1208 N 0.5091 0.86048 0.29897 0.0
C1209 C 0.51088 0.87823 0.29177 0.0
C1210 C 0.53292 0.89188 0.28771 0.0
C1211 C 0.56771 0.88794 0.29116 0.0
H1212 H 0.57608 0.89334 0.30202 0.0
H1213 H 0.56919 0.87357 0.28743 0.0
H1214 H 0.57614 0.90163 0.28308 0.0
O1215 O 0.52271 0.83827 0.33045 0.0
O1216 O 0.48969 0.83569 0.3297 0.0
H1217 H 0.48502 0.88264 0.30081 0.0
H1218 H 0.49747 0.89893 0.28452 0.0
C1219 C 0.49211 0.88271 0.28986 0.0
H1220 H 0.4789 0.86928 0.28314 0.0
H1221 H 0.46115 0.85661 0.32373 0.0
O1222 O 0.56302 0.84721 0.31067 0.0
C1223 C 0.50576 0.83658 0.33696 0.0
H1224 H 0.04573 0.12001 0.12635 0.0
H1225 H 0.0638 0.09847 0.1212 0.0
H1226 H 0.12772 0.15821 0.12258 0.0
H1227 H 0.10961 0.17994 0.12794 0.0
H1228 H 0.09275 0.09851 0.10014 0.0
H1229 H 0.13183 0.12104 0.15562 0.0
H1230 H 0.11059 0.12707 0.14994 0.0
H1231 H 0.13874 0.14431 0.14383 0.0
C1232 C 0.06357 0.12871 0.12506 0.0
C1233 C 0.07628 0.15172 0.12737 0.0
C1234 C 0.07389 0.11632 0.12222 0.0
C1235 C 0.09709 0.12669 0.12173 0.0
C1236 C 0.10979 0.14984 0.12319 0.0
H1237 H 0.18378 0.07098 0.12435 0.0
H1238 H 0.16856 0.09519 0.11964 0.0
C1239 C 0.09946 0.16223 0.12617 0.0
C1240 C 0.10784 0.11296 0.12101 0.0
H1241 H 0.14039 0.09857 0.14083 0.0
C1242 C 0.10327 0.09858 0.10898 0.0
C1243 C 0.12134 0.11292 0.13267 0.0
C1244 C 0.12578 0.12698 0.14631 0.0
C1245 C 0.11197 0.08423 0.10829 0.0
C1246 C 0.1254 0.08422 0.11996 0.0
C1247 C 0.13018 0.09877 0.13187 0.0
C1248 C 0.13431 0.06891 0.12042 0.0
C1249 C 0.10684 0.06924 0.0951 0.0
C1250 C 0.12004 0.04601 0.12217 0.0
C1251 C 0.12868 0.03203 0.12493 0.0
C1252 C 0.15174 0.0408 0.12608 0.0
C1253 C 0.16595 0.06363 0.12364 0.0
C1254 C 0.1573 0.07754 0.1209 0.0
H1255 H 0.10061 0.07473 0.08565 0.0
H1256 H 0.1218 0.06864 0.09154 0.0
H1257 H 0.09387 0.05216 0.09814 0.0
H1258 H 0.10222 0.0391 0.12207 0.0
H1259 H 0.11729 0.01453 0.12674 0.0
H1260 H 0.85487 0.92094 0.10725 0.0
H1261 H 0.87856 0.96104 0.10342 0.0
H1262 H 0.85423 0.97343 0.144 0.0
H1263 H 0.83103 0.93345 0.14806 0.0
H1264 H 0.8698 -0.00239 0.10246 0.0
H1265 H 0.92242 0.00189 0.14975 0.0
H1266 H 0.90275 0.97605 0.14113 0.0
H1267 H 0.89341 0.98921 0.15406 0.0
C1268 C 0.85464 0.93228 0.11533 0.0
C1269 C 0.84175 0.92422 0.12818 0.0
C1270 C 0.86799 0.9551 0.11307 0.0
C1271 C 0.86845 0.97007 0.1236 0.0
C1272 C 0.85437 0.96205 0.1359 0.0
H1273 H 0.92305 0.11029 0.12652 0.0
H1274 H 0.90016 0.07068 0.12185 0.0
C1275 C 0.84107 0.93927 0.13817 0.0
C1276 C 0.88464 0.99398 0.12231 0.0
H1277 H 0.92855 0.0362 0.14012 0.0
C1278 C 0.88278 0.0061 0.1106 0.0
C1279 C 0.90184 0.0048 0.13277 0.0
C1280 C 0.90543 0.99232 0.14506 0.0
C1281 C 0.89719 0.02909 0.10943 0.0
C1282 C 0.91357 0.04011 0.12039 0.0
C1283 C 0.91592 0.02776 0.13175 0.0
C1284 C 0.92772 0.06455 0.12093 0.0
C1285 C 0.89474 0.0413 0.09649 0.0
C1286 C 0.95085 0.07431 0.12201 0.0
C1287 C 0.964 0.09695 0.12495 0.0
C1288 C 0.95425 0.11025 0.12685 0.0
C1289 C 0.93115 0.10058 0.1251 0.0
C1290 C 0.91801 0.07792 0.12227 0.0
H1291 H 0.887 0.03008 0.08691 0.0
H1292 H 0.88379 0.04796 0.09968 0.0
H1293 H 0.91102 0.05539 0.09303 0.0
H1294 H 0.95866 0.06424 0.12111 0.0
H1295 H 0.98166 0.10376 0.1263 0.0
H1296 H 0.05902 0.90208 0.15369 0.0
H1297 H 0.0195 0.8845 0.14853 0.0
H1298 H 0.0336 0.90379 0.10287 0.0
H1299 H 0.07329 0.92041 0.10776 0.0
H1300 H -0.00019 0.90794 0.13855 0.0
H1301 H 0.98356 0.8389 0.10037 0.0
H1302 H 0.00834 0.85278 0.1115 0.0
H1303 H 0.00574 0.86588 0.09517 0.0
C1304 C 0.0538 0.90228 0.14247 0.0
C1305 C 0.06945 0.9133 0.13124 0.0
C1306 C 0.03117 0.89228 0.13956 0.0
C1307 C 0.02363 0.89295 0.12535 0.0
C1308 C 0.03908 0.90303 0.11392 0.0
H1309 H 0.88842 0.87032 0.11802 0.0
H1310 H 0.92814 0.88602 0.11361 0.0
C1311 C 0.06183 0.91295 0.11681 0.0
C1312 C -0.0003 0.88455 0.12299 0.0
H1313 H 0.9534 0.84443 0.10566 0.0
C1314 C 0.98966 0.89415 0.13128 0.0
C1315 C 0.98659 0.86653 0.11352 0.0
C1316 C -0.00351 0.85525 0.10469 0.0
C1317 C 0.96674 0.88582 0.13075 0.0
C1318 C 0.95354 0.86774 0.12133 0.0
C1319 C 0.96363 0.85844 0.11274 0.0
C1320 C 0.92906 0.85711 0.12138 0.0
C1321 C 0.95677 0.89581 0.14084 0.0
C1322 C 0.91624 0.83521 0.12638 0.0
C1323 C 0.89351 0.82611 0.12877 0.0
C1324 C 0.88323 0.83882 0.12627 0.0
C1325 C 0.89588 0.86024 0.12032 0.0
C1326 C 0.91859 0.86925 0.1178 0.0
H1327 H 0.96851 0.90616 0.14964 0.0
H1328 H 0.95241 0.90655 0.1343 0.0
H1329 H 0.94142 0.88266 0.14614 0.0
H1330 H 0.924 0.82552 0.12914 0.0
H1331 H 0.88426 0.80949 0.13325 0.0
H1332 H 0.17963 0.11091 0.3716 0.0
H1333 H 0.15958 0.13069 0.37712 0.0
H1334 H 0.09765 0.06875 0.37628 0.0
H1335 H 0.11741 0.04906 0.37066 0.0
H1336 H 0.1291 0.13099 0.3584 0.0
H1337 H 0.08979 0.09835 0.41264 0.0
H1338 H 0.11267 0.09551 0.40588 0.0
H1339 H 0.0848 0.07671 0.39982 0.0
C1340 C 0.16178 0.1015 0.37294 0.0
C1341 C 0.15017 0.07837 0.37106 0.0
C1342 C 0.15038 0.11279 0.37612 0.0
C1343 C 0.12718 0.10113 0.37744 0.0
C1344 C 0.11561 0.07799 0.37583 0.0
H1345 H 0.01742 0.12189 0.36954 0.0
H1346 H 0.04318 0.1084 0.37427 0.0
C1347 C 0.12698 0.06671 0.37267 0.0
C1348 C 0.11476 0.11321 0.37856 0.0
H1349 H 0.07348 0.1151 0.39769 0.0
C1350 C 0.11725 0.12788 0.36715 0.0
C1351 C 0.09923 0.10898 0.38994 0.0
C1352 C 0.0966 0.09419 0.40284 0.0
C1353 C 0.10384 0.13759 0.36638 0.0
C1354 C 0.08779 0.13278 0.37749 0.0
C1355 C 0.08579 0.1187 0.38919 0.0
C1356 C 0.07199 0.14109 0.37653 0.0
C1357 C 0.1062 0.152 0.35328 0.0
C1358 C 0.07958 0.16392 0.37672 0.0
C1359 C 0.06492 0.1717 0.37396 0.0
C1360 C 0.04236 0.15675 0.37109 0.0
C1361 C 0.03464 0.13385 0.37171 0.0
C1362 C 0.04934 0.1261 0.37442 0.0
H1363 H 0.11607 0.15032 0.34426 0.0
H1364 H 0.08967 0.14777 0.34884 0.0
H1365 H 0.11476 0.16963 0.35678 0.0
H1366 H 0.09695 0.17573 0.37859 0.0
H1367 H 0.07139 0.18944 0.37372 0.0
H1368 H 0.88577 0.06794 0.37573 0.0
H1369 H 0.86705 0.02823 0.38152 0.0
H1370 H 0.92965 0.02974 0.37879 0.0
H1371 H 0.94829 0.0691 0.37301 0.0
H1372 H 0.86616 -0.00199 0.36249 0.0
H1373 H 0.90281 0.99167 0.4151 0.0
H1374 H 0.90506 0.01733 0.40878 0.0
H1375 H 0.92357 0.00843 0.40179 0.0
C1376 C 0.89557 0.05986 0.37675 0.0
C1377 C 0.91856 0.07175 0.37426 0.0
C1378 C 0.88489 0.03724 0.38007 0.0
C1379 C 0.89703 0.02613 0.3809 0.0
C1380 C 0.92007 0.0381 0.37874 0.0
H1381 H 0.87585 0.89562 0.36953 0.0
H1382 H 0.89017 0.93482 0.37518 0.0
C1383 C 0.93074 0.0607 0.37546 0.0
C1384 C 0.88543 0.00163 0.38194 0.0
H1385 H 0.88552 0.95866 0.40004 0.0
C1386 C 0.87005 0.98937 0.37087 0.0
C1387 C 0.89068 0.99043 0.39282 0.0
C1388 C 0.90628 0.00265 0.40538 0.0
C1389 C 0.86055 0.9663 0.36997 0.0
C1390 C 0.86631 0.95517 0.38059 0.0
C1391 C 0.88119 0.9673 0.39192 0.0
C1392 C 0.8579 0.93108 0.37948 0.0
C1393 C 0.84521 0.95416 0.35726 0.0
C1394 C 0.83512 0.91595 0.38058 0.0
C1395 C 0.82687 0.89359 0.37729 0.0
C1396 C 0.84131 0.88595 0.37296 0.0
C1397 C 0.86428 0.90094 0.37281 0.0
C1398 C 0.8725 0.92334 0.37604 0.0
H1399 H 0.84607 0.96568 0.34847 0.0
H1400 H 0.84928 0.94202 0.35234 0.0
H1401 H 0.82787 0.9449 0.36134 0.0
H1402 H 0.82364 0.92159 0.38345 0.0
H1403 H 0.80911 0.88245 0.3777 0.0
H1404 H 0.9271 0.87722 0.37084 0.0
H1405 H 0.9668 0.89703 0.37594 0.0
H1406 H 0.96713 0.83525 0.3751 0.0
H1407 H 0.92721 0.81526 0.36983 0.0
H1408 H 0.99455 0.89486 0.39743 0.0
H1409 H 0.00953 0.87089 0.34189 0.0
H1410 H 0.98277 0.86653 0.34746 0.0
H1411 H 0.99213 0.84813 0.35379 0.0
C1412 C 0.93541 0.86773 0.37222 0.0
C1413 C 0.92402 0.84465 0.37011 0.0
C1414 C 0.95817 0.87911 0.37504 0.0
C1415 C 0.96993 0.86764 0.3757 0.0
C1416 C 0.95839 0.84444 0.37438 0.0
H1417 H 0.1131 0.92342 0.37029 0.0
H1418 H 0.07394 0.89804 0.3755 0.0
C1419 C 0.93563 0.83306 0.37144 0.0
C1420 C 0.99445 0.88027 0.37646 0.0
H1421 H 0.04083 0.89337 0.35632 0.0
C1422 C 0.00472 0.89441 0.38852 0.0
C1423 C 0.00763 0.87972 0.36476 0.0
C1424 C -0.00248 0.86567 0.35117 0.0
C1425 C 0.02785 0.90822 0.38911 0.0
C1426 C 0.04092 0.90798 0.37726 0.0
C1427 C 0.03072 0.8934 0.36542 0.0
C1428 C 0.06506 0.92368 0.37629 0.0
C1429 C 0.03811 0.923 0.40234 0.0
C1430 C 0.07306 0.94654 0.37515 0.0
C1431 C 0.09544 0.96113 0.37211 0.0
C1432 C 0.11019 0.95308 0.37007 0.0
C1433 C 0.10222 0.93022 0.37174 0.0
C1434 C 0.07985 0.91566 0.37477 0.0
H1435 H 0.02698 0.91675 0.4121 0.0
H1436 H 0.05426 0.92438 0.40522 0.0
H1437 H 0.04109 0.93985 0.39975 0.0
H1438 H 0.06182 0.95301 0.37597 0.0
H1439 H 0.10096 0.97858 0.37083 0.0
H1440 H 0.87509 0.98205 0.86809 0.0
H1441 H 0.8893 0.95691 0.87299 0.0
H1442 H 0.82261 0.90315 0.88 0.0
H1443 H 0.80818 0.92807 0.87503 0.0
H1444 H 0.88394 0.92724 0.89728 0.0
H1445 H 0.8463 0.88339 0.84461 0.0
H1446 H 0.84936 0.91004 0.84902 0.0
H1447 H 0.82768 0.88533 0.85745 0.0
C1448 C 0.86345 0.965 0.87093 0.0
C1449 C 0.84048 0.95704 0.87099 0.0
C1450 C 0.87161 0.95066 0.87373 0.0
C1451 C 0.85695 0.92816 0.87663 0.0
C1452 C 0.83414 0.92042 0.87756 0.0
H1453 H 0.88471 0.81921 0.87147 0.0
H1454 H 0.86597 0.84023 0.87709 0.0
C1455 C 0.82595 0.93471 0.87472 0.0
C1456 C 0.86542 0.9125 0.87743 0.0
H1457 H 0.86601 0.8705 0.85846 0.0
C1458 C 0.87992 0.9147 0.88888 0.0
C1459 C 0.86008 0.89618 0.86644 0.0
C1460 C 0.84515 0.8936 0.8536 0.0
C1461 C 0.88943 0.90106 0.88956 0.0
C1462 C 0.88458 0.88517 0.87832 0.0
C1463 C 0.8696 0.88261 0.86711 0.0
C1464 C 0.8961 0.87221 0.87719 0.0
C1465 C 0.90458 0.9038 0.90226 0.0
C1466 C 0.91921 0.88321 0.87544 0.0
C1467 C 0.9299 0.87126 0.87227 0.0
C1468 C 0.91765 0.84808 0.87074 0.0
C1469 C 0.89456 0.83704 0.87274 0.0
C1470 C 0.88387 0.84901 0.87597 0.0
H1471 H 0.90086 0.91094 0.91208 0.0
H1472 H 0.90316 0.88772 0.9054 0.0
H1473 H 0.922 0.91538 0.89897 0.0
H1474 H 0.92889 0.90114 0.8758 0.0
H1475 H 0.94757 0.88035 0.8702 0.0
H1476 H 0.06669 0.88012 0.8795 0.0
H1477 H 0.09236 0.91926 0.88476 0.0
H1478 H 0.04472 0.93603 0.86769 0.0
H1479 H 0.01867 0.89692 0.86306 0.0
H1480 H 0.11157 0.95068 0.86598 0.0
H1481 H 0.06432 0.97454 0.90306 0.0
H1482 H 0.05537 0.94591 0.89899 0.0
H1483 H 0.04841 0.96197 0.88677 0.0
C1484 C 0.06154 0.89213 0.87714 0.0
C1485 C 0.04067 0.88546 0.87087 0.0
C1486 C 0.07622 0.91449 0.88016 0.0
C1487 C 0.0704 0.93063 0.87684 0.0
C1488 C 0.04938 0.9239 0.87082 0.0
H1489 H 0.15196 0.0607 0.84452 0.0
H1490 H 0.13075 0.02095 0.84956 0.0
C1491 C 0.03454 0.90151 0.86804 0.0
C1492 C 0.08707 0.95457 0.87812 0.0
H1493 H 0.09336 0.00447 0.88863 0.0
C1494 C 0.10771 0.96237 0.8712 0.0
C1495 C 0.08238 0.96989 0.8852 0.0
C1496 C 0.0615 0.96257 0.89406 0.0
C1497 C 0.12318 0.98509 0.87038 0.0
C1498 C 0.11753 0.00049 0.87616 0.0
C1499 C 0.09753 0.99269 0.88392 0.0
C1500 C 0.1313 0.02463 0.87332 0.0
C1501 C 0.14531 0.99229 0.86318 0.0
C1502 C 0.13819 0.03999 0.88496 0.0
C1503 C 0.15 0.06277 0.88204 0.0
C1504 C 0.15497 0.07045 0.86745 0.0
C1505 C 0.14842 0.05512 0.85586 0.0
C1506 C 0.13644 0.03242 0.85875 0.0
H1507 H 0.15022 0.97946 0.86449 0.0
H1508 H 0.14403 0.99459 0.85118 0.0
H1509 H 0.15858 0.00813 0.86788 0.0
H1510 H 0.13433 0.03435 0.89627 0.0
H1511 H 0.1552 0.07438 0.89114 0.0
H1512 H 0.10803 0.18136 0.86526 0.0
H1513 H 0.06859 0.16488 0.8703 0.0
H1514 H 0.06613 0.10477 0.88504 0.0
H1515 H 0.10566 0.12099 0.8796 0.0
H1516 H 0.03532 0.09586 0.86534 0.0
H1517 H 0.031 0.15216 0.90626 0.0
H1518 H 0.04709 0.16759 0.89065 0.0
H1519 H 0.05663 0.15275 0.90199 0.0
C1520 C 0.09925 0.16477 0.86983 0.0
C1521 C 0.10999 0.15242 0.87191 0.0
C1522 C 0.07668 0.15544 0.87285 0.0
C1523 C 0.06443 0.13371 0.87828 0.0
C1524 C 0.07528 0.12162 0.88092 0.0
H1525 H 0.92048 0.07681 0.8916 0.0
H1526 H 0.95994 0.09072 0.89681 0.0
C1527 C 0.09787 0.13088 0.87776 0.0
C1528 C 0.03994 0.12284 0.87938 0.0
H1529 H -0.00199 0.13112 0.89115 0.0
C1530 C 0.02717 0.10336 0.87124 0.0
C1531 C 0.02918 0.13237 0.88725 0.0
C1532 C 0.04172 0.15223 0.89716 0.0
C1533 C 0.00414 0.09393 0.87 0.0
C1534 C 0.99367 0.1046 0.87677 0.0
C1535 C 0.00616 0.12324 0.88571 0.0
C1536 C 0.97007 0.09729 0.87394 0.0
C1537 C 0.99129 0.07281 0.86124 0.0
C1538 C 0.96292 0.09717 0.85946 0.0
C1539 C 0.94051 0.08897 0.85648 0.0
C1540 C 0.92486 0.08081 0.86793 0.0
C1541 C 0.93216 0.08218 0.88254 0.0
C1542 C 0.95465 0.09032 0.88553 0.0
H1543 H 0.0001 0.0632 0.86089 0.0
H1544 H 0.97448 0.06212 0.86594 0.0
H1545 H 0.98943 0.07702 0.84972 0.0
H1546 H 0.97467 0.1031 0.85042 0.0
H1547 H 0.93535 0.08838 0.84514 0.0
H1548 H 0.97449 0.87071 0.63786 0.0
H1549 H 0.94842 0.88407 0.6343 0.0
H1550 H 0.89951 0.81981 0.61777 0.0
H1551 H 0.92522 0.806 0.62198 0.0
H1552 H 0.92707 0.88855 0.61171 0.0
H1553 H 0.8656 0.82696 0.65073 0.0
H1554 H 0.89295 0.83064 0.64845 0.0
H1555 H 0.87152 0.8148 0.63521 0.0
C1556 C 0.95824 0.85945 0.63336 0.0
C1557 C 0.95178 0.83722 0.6304 0.0
C1558 C 0.94335 0.86712 0.63131 0.0
C1559 C 0.92181 0.85279 0.62609 0.0
C1560 C 0.91579 0.83095 0.62225 0.0
H1561 H 0.83735 0.91203 0.60914 0.0
H1562 H 0.85838 0.89278 0.60495 0.0
C1563 C 0.93054 0.82314 0.62457 0.0
C1564 C 0.90557 0.86067 0.62536 0.0
H1565 H 0.85608 0.85135 0.63931 0.0
C1566 C 0.91148 0.88036 0.61768 0.0
C1567 C 0.88531 0.85004 0.63327 0.0
C1568 C 0.87851 0.82957 0.6425 0.0
C1569 C 0.8981 0.89017 0.61808 0.0
C1570 C 0.87784 0.87952 0.62598 0.0
C1571 C 0.87155 0.8594 0.63321 0.0
C1572 C 0.86397 0.88996 0.62816 0.0
C1573 C 0.90639 0.91238 0.61071 0.0
C1574 C 0.85929 0.89386 0.64255 0.0
C1575 C 0.84697 0.90436 0.64492 0.0
C1576 C 0.83936 0.91142 0.63293 0.0
C1577 C 0.84347 0.90705 0.61852 0.0
C1578 C 0.85555 0.8962 0.61614 0.0
H1579 H 0.92445 0.92068 0.60831 0.0
H1580 H 0.89756 0.90994 0.60008 0.0
H1581 H 0.90321 0.92359 0.6177 0.0
H1582 H 0.86554 0.88913 0.652 0.0
H1583 H 0.84392 0.90753 0.65613 0.0
H1584 H 0.04004 0.92282 0.6275 0.0
H1585 H 0.05564 0.96208 0.62221 0.0
H1586 H 0.12161 0.97123 0.62401 0.0
H1587 H 0.10598 0.93151 0.62872 0.0
H1588 H 0.08292 0.99361 0.64213 0.0
H1589 H 0.12508 0.00838 0.58792 0.0
H1590 H 0.10428 0.98109 0.59406 0.0
H1591 H 0.13221 0.99344 0.60088 0.0
C1592 C 0.05779 0.93286 0.62608 0.0
C1593 C 0.07176 0.92389 0.62812 0.0
C1594 C 0.06671 0.95542 0.62324 0.0
C1595 C 0.08975 0.96949 0.62248 0.0
C1596 C 0.10376 0.96056 0.62418 0.0
H1597 H 0.17843 0.10972 0.62924 0.0
H1598 H 0.16111 0.06984 0.62504 0.0
C1599 C 0.09483 0.93792 0.62699 0.0
C1600 C 0.09904 0.99378 0.62181 0.0
H1601 H 0.13357 0.04044 0.60228 0.0
C1602 C 0.09378 0.00383 0.63332 0.0
C1603 C 0.11333 0.00702 0.61038 0.0
C1604 C 0.11895 0.99696 0.59753 0.0
C1605 C 0.10285 0.02686 0.63392 0.0
C1606 C 0.11724 0.04015 0.62253 0.0
C1607 C 0.12241 0.03013 0.61094 0.0
C1608 C 0.12787 0.06458 0.62298 0.0
C1609 C 0.09757 0.03681 0.64702 0.0
C1610 C 0.11496 0.07489 0.6227 0.0
C1611 C 0.12476 0.09767 0.62521 0.0
C1612 C 0.14767 0.11055 0.62793 0.0
C1613 C 0.16072 0.10031 0.6273 0.0
C1614 C 0.15088 0.07752 0.62484 0.0
H1615 H 0.09036 0.02486 0.6563 0.0
H1616 H 0.11268 0.05185 0.65102 0.0
H1617 H 0.08529 0.04173 0.64369 0.0
H1618 H 0.09719 0.06518 0.62103 0.0
H1619 H 0.11426 0.10501 0.62548 0.0
H1620 H 0.87851 0.06321 0.61502 0.0
H1621 H 0.91751 0.08857 0.60932 0.0
H1622 H 0.93441 0.04118 0.62665 0.0
H1623 H 0.89534 0.01543 0.63186 0.0
H1624 H 0.94763 0.10704 0.62944 0.0
H1625 H 0.97484 0.06297 0.59185 0.0
H1626 H 0.94589 0.05347 0.59523 0.0
H1627 H 0.96144 0.04626 0.60772 0.0
C1628 C 0.89048 0.05797 0.61728 0.0
C1629 C 0.8839 0.03739 0.62397 0.0
C1630 C 0.91276 0.07247 0.61399 0.0
C1631 C 0.92893 0.06677 0.61744 0.0
C1632 C 0.92224 0.04577 0.62351 0.0
H1633 H 0.05636 0.14618 0.65321 0.0
H1634 H 0.01712 0.12378 0.64695 0.0
C1635 C 0.89988 0.03109 0.62659 0.0
C1636 C 0.95281 0.08381 0.61673 0.0
H1637 H 0.00375 0.09208 0.60687 0.0
C1638 C 0.95982 0.1039 0.62422 0.0
C1639 C 0.96879 0.07998 0.60975 0.0
C1640 C 0.9623 0.05958 0.60056 0.0
C1641 C 0.98236 0.11962 0.62568 0.0
C1642 C -0.00163 0.11489 0.61985 0.0
C1643 C 0.99142 0.0955 0.61155 0.0
C1644 C 0.0222 0.1289 0.62339 0.0
C1645 C 0.98881 0.14097 0.63375 0.0
C1646 C 0.03813 0.13889 0.6122 0.0
C1647 C 0.06065 0.15167 0.61578 0.0
C1648 C 0.06749 0.15434 0.63058 0.0
C1649 C 0.05149 0.14447 0.64172 0.0
C1650 C 0.02908 0.13172 0.63816 0.0
H1651 H 0.97549 0.14531 0.63307 0.0
H1652 H 0.99147 0.13893 0.64558 0.0
H1653 H 0.00436 0.15495 0.62924 0.0
H1654 H 0.03311 0.13691 0.60074 0.0
H1655 H 0.07265 0.15962 0.60702 0.0
H1656 H 0.71399 0.45437 0.46281 0.0
H1657 H 0.73227 0.43309 0.45745 0.0
H1658 H 0.79512 0.49373 0.45383 0.0
H1659 H 0.7768 0.51526 0.45923 0.0
H1660 H 0.759 0.43248 0.43425 0.0
H1661 H 0.80484 0.46023 0.48739 0.0
H1662 H 0.78215 0.46473 0.4829 0.0
H1663 H 0.80909 0.48208 0.47495 0.0
C1664 C 0.73155 0.46327 0.46039 0.0
C1665 C 0.74393 0.48653 0.46121 0.0
C1666 C 0.74202 0.45104 0.45744 0.0
C1667 C 0.76505 0.46182 0.45539 0.0
C1668 C 0.77735 0.48509 0.45558 0.0
H1669 H 0.85077 0.40428 0.45779 0.0
H1670 H 0.83677 0.42951 0.45287 0.0
C1671 C 0.76689 0.49735 0.45862 0.0
C1672 C 0.77621 0.44852 0.45427 0.0
H1673 H 0.81103 0.43592 0.47292 0.0
C1674 C 0.77053 0.43333 0.44263 0.0
C1675 C 0.79113 0.44961 0.46527 0.0
C1676 C 0.79708 0.46488 0.47841 0.0
C1677 C 0.77931 0.41906 0.44174 0.0
C1678 C 0.79387 0.41987 0.45291 0.0
C1679 C 0.79993 0.43543 0.46434 0.0
C1680 C 0.80218 0.40404 0.45355 0.0
C1681 C 0.77293 0.40325 0.42891 0.0
C1682 C 0.78734 0.38126 0.45533 0.0
C1683 C 0.79529 0.36672 0.45815 0.0
C1684 C 0.81821 0.37477 0.45939 0.0
C1685 C 0.83301 0.39749 0.457 0.0
C1686 C 0.82506 0.41197 0.45414 0.0
H1687 H 0.76723 0.40905 0.41933 0.0
H1688 H 0.78705 0.40116 0.42538 0.0
H1689 H 0.75908 0.38679 0.43228 0.0
H1690 H 0.7696 0.37485 0.45522 0.0
H1691 H 0.78343 0.34938 0.45998 0.0
H1692 H 0.59001 0.44842 0.46613 0.0
H1693 H 0.5655 0.40845 0.46298 0.0
H1694 H 0.62236 0.39941 0.46096 0.0
H1695 H 0.64695 0.43915 0.46438 0.0
H1696 H 0.56305 0.37716 0.4408 0.0
H1697 H 0.58553 0.36147 0.4965 0.0
H1698 H 0.59164 0.38867 0.4905 0.0
H1699 H 0.6088 0.37758 0.48461 0.0
C1700 C 0.59735 0.43798 0.46488 0.0
C1701 C 0.6205 0.447 0.46565 0.0
C1702 C 0.5833 0.41516 0.46303 0.0
C1703 C 0.59216 0.40103 0.46196 0.0
C1704 C 0.61523 0.41007 0.46198 0.0
H1705 H 0.54297 0.26117 0.46409 0.0
H1706 H 0.56455 0.30106 0.46034 0.0
C1707 C 0.62928 0.43283 0.46387 0.0
C1708 C 0.57735 0.37672 0.46177 0.0
H1709 H 0.56388 0.33003 0.48157 0.0
C1710 C 0.56311 0.36679 0.44971 0.0
C1711 C 0.57738 0.36338 0.4735 0.0
C1712 C 0.59149 0.37328 0.48709 0.0
C1713 C 0.54937 0.34365 0.44888 0.0
C1714 C 0.54981 0.33032 0.46048 0.0
C1715 C 0.56376 0.34033 0.47263 0.0
C1716 C 0.53616 0.30586 0.46036 0.0
C1717 C 0.53491 0.33357 0.43549 0.0
C1718 C 0.51297 0.29528 0.4614 0.0
C1719 C 0.50048 0.27229 0.46334 0.0
C1720 C 0.511 0.25957 0.46421 0.0
C1721 C 0.5342 0.27023 0.46284 0.0
C1722 C 0.54663 0.29313 0.46088 0.0
H1723 H 0.53987 0.3456 0.42624 0.0
H1724 H 0.53562 0.31877 0.43168 0.0
H1725 H 0.51744 0.32813 0.43842 0.0
H1726 H 0.50463 0.30489 0.46135 0.0
H1727 H 0.48265 0.26453 0.46457 0.0
H1728 H 0.72413 0.24058 0.48558 0.0
H1729 H 0.68446 0.22208 0.48023 0.0
H1730 H 0.69871 0.2329 0.43366 0.0
H1731 H 0.73867 0.252 0.4391 0.0
H1732 H 0.66818 0.24335 0.44133 0.0
H1733 H 0.64401 0.16121 0.46459 0.0
H1734 H 0.65877 0.1823 0.47812 0.0
H1735 H 0.67263 0.18189 0.46141 0.0
C1736 C 0.71875 0.2388 0.4742 0.0
C1737 C 0.7343 0.24779 0.46274 0.0
C1738 C 0.69611 0.22811 0.47113 0.0
C1739 C 0.68858 0.2257 0.45652 0.0
C1740 C 0.70415 0.23449 0.44501 0.0
H1741 H 0.54426 0.14427 0.45062 0.0
H1742 H 0.58332 0.15839 0.44464 0.0
C1743 C 0.72689 0.24543 0.44811 0.0
C1744 C 0.66447 0.2151 0.4535 0.0
H1745 H 0.61487 0.17058 0.46324 0.0
C1746 C 0.6565 0.22724 0.44586 0.0
C1747 C 0.64922 0.19383 0.45904 0.0
C1748 C 0.65664 0.17898 0.46609 0.0
C1749 C 0.63365 0.21932 0.44452 0.0
C1750 C 0.61845 0.19908 0.45141 0.0
C1751 C 0.62644 0.18629 0.45816 0.0
C1752 C 0.59446 0.19156 0.45281 0.0
C1753 C 0.62614 0.23287 0.43585 0.0
C1754 C 0.5876 0.20557 0.45913 0.0
C1755 C 0.56524 0.19764 0.46231 0.0
C1756 C 0.54938 0.17536 0.4596 0.0
C1757 C 0.55614 0.16149 0.4529 0.0
C1758 C 0.57845 0.16955 0.44947 0.0
H1759 H 0.63806 0.24222 0.42687 0.0
H1760 H 0.60947 0.2223 0.43092 0.0
H1761 H 0.62545 0.24519 0.44327 0.0
H1762 H 0.59963 0.22238 0.46226 0.0
H1763 H 0.56059 0.20866 0.46762 0.0
H1764 H 0.81073 0.41604 0.67685 0.0
H1765 H 0.78951 0.43433 0.68268 0.0
H1766 H 0.79938 0.42903 0.72915 0.0
H1767 H 0.82074 0.41058 0.72329 0.0
H1768 H 0.75584 0.41622 0.72232 0.0
H1769 H 0.81278 0.49734 0.69697 0.0
H1770 H 0.80575 0.47508 0.68424 0.0
H1771 H 0.82096 0.47698 0.70078 0.0
C1772 C 0.80851 0.41894 0.6883 0.0
C1773 C 0.81708 0.4117 0.69964 0.0
C1774 C 0.79648 0.42945 0.69162 0.0
C1775 C 0.79314 0.43331 0.70633 0.0
C1776 C 0.80181 0.42622 0.71772 0.0
H1777 H 0.73251 0.51627 0.71476 0.0
H1778 H 0.75692 0.50127 0.71989 0.0
C1779 C 0.81383 0.41558 0.71438 0.0
C1780 C 0.7799 0.44407 0.70962 0.0
H1781 H 0.77483 0.48861 0.69996 0.0
C1782 C 0.76014 0.43224 0.71768 0.0
C1783 C 0.78578 0.46517 0.70386 0.0
C1784 C 0.80761 0.47947 0.69612 0.0
C1785 C 0.7454 0.44035 0.71929 0.0
C1786 C 0.75037 0.46053 0.71235 0.0
C1787 C 0.77081 0.47298 0.70512 0.0
C1788 C 0.73418 0.46845 0.7115 0.0
C1789 C 0.7246 0.42709 0.72828 0.0
C1790 C 0.71308 0.4549 0.70533 0.0
C1791 C 0.69898 0.46335 0.70257 0.0
C1792 C 0.70592 0.48568 0.70561 0.0
C1793 C 0.72675 0.49903 0.7122 0.0
C1794 C 0.7407 0.49047 0.71517 0.0
H1795 H 0.72719 0.4174 0.737 0.0
H1796 H 0.71911 0.43793 0.73355 0.0
H1797 H 0.71114 0.41511 0.72097 0.0
H1798 H 0.7079 0.43807 0.702 0.0
H1799 H 0.68314 0.45273 0.69734 0.0
H1800 H 0.58577 0.4082 0.72428 0.0
H1801 H 0.57012 0.36839 0.72916 0.0
H1802 H 0.55726 0.35474 0.6827 0.0
H1803 H 0.57361 0.39438 0.67774 0.0
H1804 H 0.52851 0.33109 0.72298 0.0
H1805 H 0.59601 0.32759 0.69304 0.0
H1806 H 0.59784 0.35341 0.69845 0.0
H1807 H 0.58291 0.33923 0.68206 0.0
C1808 C 0.57984 0.39666 0.71513 0.0
C1809 C 0.58157 0.40431 0.70059 0.0
C1810 C 0.57073 0.37399 0.71794 0.0
C1811 C 0.56313 0.35876 0.70623 0.0
C1812 C 0.56359 0.36632 0.69183 0.0
H1813 H 0.47764 0.22038 0.69744 0.0
H1814 H 0.49411 0.25994 0.70214 0.0
C1815 C 0.57275 0.38891 0.68902 0.0
C1816 C 0.55511 0.33499 0.70886 0.0
H1817 H 0.56311 0.29282 0.69758 0.0
C1818 C 0.5362 0.32271 0.71761 0.0
C1819 C 0.56554 0.32424 0.70216 0.0
C1820 C 0.58684 0.33684 0.69353 0.0
C1821 C 0.52667 0.29964 0.71912 0.0
C1822 C 0.53608 0.28865 0.71141 0.0
C1823 C 0.55573 0.30118 0.70337 0.0
C1824 C 0.52512 0.26415 0.71052 0.0
C1825 C 0.50654 0.28731 0.72885 0.0
C1826 C 0.53712 0.25331 0.71352 0.0
C1827 C 0.52788 0.2307 0.71055 0.0
C1828 C 0.50646 0.2185 0.70455 0.0
C1829 C 0.49415 0.22923 0.70213 0.0
C1830 C 0.50348 0.25186 0.70495 0.0
H1831 H 0.50645 0.29816 0.73781 0.0
H1832 H 0.49136 0.28193 0.72215 0.0
H1833 H 0.50581 0.27242 0.73387 0.0
H1834 H 0.55389 0.2625 0.71776 0.0
H1835 H 0.5377 0.22293 0.71267 0.0
H1836 H 0.59343 0.14852 0.70627 0.0
H1837 H 0.63328 0.1697 0.71163 0.0
H1838 H 0.63043 0.23017 0.71231 0.0
H1839 H 0.59094 0.20926 0.70699 0.0
H1840 H 0.66273 0.2006 0.69317 0.0
H1841 H 0.6697 0.23961 0.74755 0.0
H1842 H 0.64402 0.21651 0.74097 0.0
H1843 H 0.65253 0.24431 0.73502 0.0
C1844 C 0.60125 0.16627 0.70797 0.0
C1845 C 0.58893 0.17714 0.70658 0.0
C1846 C 0.62396 0.17833 0.71104 0.0
C1847 C 0.63475 0.20147 0.71268 0.0
C1848 C 0.62235 0.21227 0.71163 0.0
H1849 H 0.76589 0.31189 0.70255 0.0
H1850 H 0.72651 0.28693 0.70772 0.0
C1851 C 0.59966 0.20022 0.70862 0.0
C1852 C 0.65928 0.21467 0.71346 0.0
H1853 H 0.70243 0.2566 0.73225 0.0
C1854 C 0.67144 0.21255 0.70186 0.0
C1855 C 0.67059 0.23039 0.72475 0.0
C1856 C 0.65854 0.2327 0.73785 0.0
C1857 C 0.69449 0.2263 0.70091 0.0
C1858 C 0.70573 0.2424 0.71198 0.0
C1859 C 0.69371 0.24424 0.72378 0.0
C1860 C 0.72987 0.25798 0.71102 0.0
C1861 C 0.70653 0.22409 0.68773 0.0
C1862 C 0.74482 0.25007 0.71169 0.0
C1863 C 0.76727 0.26423 0.7087 0.0
C1864 C 0.77521 0.28662 0.70506 0.0
C1865 C 0.76036 0.29478 0.70528 0.0
C1866 C 0.73785 0.28055 0.70825 0.0
H1867 H 0.69493 0.21404 0.67879 0.0
H1868 H 0.71858 0.24066 0.68323 0.0
H1869 H 0.7159 0.21582 0.69118 0.0
H1870 H 0.73898 0.23276 0.71403 0.0
H1871 H 0.77827 0.25743 0.7088 0.0
H1872 H 0.47222 0.25555 0.20911 0.0
H1873 H 0.4862 0.23033 0.21416 0.0
H1874 H 0.55337 0.28445 0.2099 0.0
H1875 H 0.53959 0.3099 0.20487 0.0
H1876 H 0.51163 0.22343 0.19335 0.0
H1877 H 0.55628 0.25119 0.24665 0.0
H1878 H 0.53589 0.25844 0.24081 0.0
H1879 H 0.56362 0.27313 0.23354 0.0
C1880 C 0.48999 0.26224 0.20951 0.0
C1881 C 0.50479 0.28478 0.2065 0.0
C1882 C 0.49792 0.24777 0.21244 0.0
C1883 C 0.52079 0.25557 0.21255 0.0
C1884 C 0.53566 0.2782 0.21017 0.0
H1885 H 0.60972 0.20665 0.20361 0.0
H1886 H 0.59078 0.22724 0.20908 0.0
C1887 C 0.52774 0.29271 0.20722 0.0
C1888 C 0.52896 0.23966 0.21327 0.0
H1889 H 0.564 0.22731 0.2319 0.0
C1890 C 0.5228 0.224 0.20191 0.0
C1891 C 0.54359 0.2406 0.22441 0.0
C1892 C 0.55011 0.25661 0.23713 0.0
C1893 C 0.53167 0.20988 0.20097 0.0
C1894 C 0.5467 0.2111 0.21194 0.0
C1895 C 0.55238 0.22634 0.22356 0.0
C1896 C 0.55818 0.19812 0.21073 0.0
C1897 C 0.52575 0.19461 0.18783 0.0
C1898 C 0.54621 0.17485 0.21027 0.0
C1899 C 0.55705 0.16299 0.20714 0.0
C1900 C 0.58006 0.17422 0.20475 0.0
C1901 C 0.59211 0.19745 0.20586 0.0
C1902 C 0.58126 0.20928 0.20888 0.0
H1903 H 0.51792 0.19921 0.17887 0.0
H1904 H 0.54069 0.19483 0.18332 0.0
H1905 H 0.51378 0.17739 0.1913 0.0
H1906 H 0.52841 0.16591 0.21189 0.0
H1907 H 0.54741 0.14508 0.2063 0.0
H1908 H 0.8408 0.39572 0.20035 0.0
H1909 H 0.81759 0.35576 0.20479 0.0
H1910 H 0.76129 0.36427 0.21296 0.0
H1911 H 0.78394 0.40376 0.20804 0.0
H1912 H 0.78686 0.32865 0.22936 0.0
H1913 H 0.74604 0.32369 0.17563 0.0
H1914 H 0.77211 0.34746 0.1809 0.0
H1915 H 0.74659 0.34354 0.18856 0.0
C1916 C 0.82359 0.38911 0.20341 0.0
C1917 C 0.81435 0.40302 0.20406 0.0
C1918 C 0.8104 0.36634 0.20599 0.0
C1919 C 0.78777 0.35717 0.20913 0.0
C1920 C 0.77877 0.37113 0.21057 0.0
H1921 H 0.6768 0.22341 0.20401 0.0
H1922 H 0.70042 0.26292 0.20892 0.0
C1923 C 0.79189 0.39383 0.20795 0.0
C1924 C 0.77303 0.33286 0.20922 0.0
H1925 H 0.73186 0.29078 0.18943 0.0
C1926 C 0.77479 0.32029 0.22068 0.0
C1927 C 0.75742 0.32213 0.19781 0.0
C1928 C 0.75545 0.33481 0.18494 0.0
C1929 C 0.761 0.29713 0.22112 0.0
C1930 C 0.74541 0.28641 0.20967 0.0
C1931 C 0.74371 0.29907 0.19826 0.0
C1932 C 0.73105 0.26202 0.2089 0.0
C1933 C 0.76299 0.28439 0.23391 0.0
C1934 C 0.74041 0.24836 0.20744 0.0
C1935 C 0.72691 0.22569 0.20471 0.0
C1936 C 0.70379 0.21632 0.20324 0.0
C1937 C 0.69445 0.22998 0.20515 0.0
C1938 C 0.70795 0.25261 0.20794 0.0
H1939 H 0.77089 0.29527 0.24362 0.0
H1940 H 0.74648 0.27053 0.23723 0.0
H1941 H 0.77349 0.27729 0.23058 0.0
H1942 H 0.75823 0.25536 0.2078 0.0
H1943 H 0.73469 0.21569 0.20327 0.0
H1944 H 0.77849 0.5188 0.20623 0.0
H1945 H 0.73908 0.50381 0.21119 0.0
H1946 H 0.72834 0.43732 0.20846 0.0
H1947 H 0.76777 0.4521 0.20349 0.0
H1948 H 0.70674 0.47609 0.19062 0.0
H1949 H 0.69233 0.43544 0.24535 0.0
H1950 H 0.71952 0.45636 0.2391 0.0
H1951 H 0.70751 0.42835 0.23253 0.0
C1952 C 0.76786 0.50098 0.20692 0.0
C1953 C 0.77631 0.48664 0.20439 0.0
C1954 C 0.74535 0.49247 0.2098 0.0
C1955 C 0.73089 0.4695 0.21034 0.0
C1956 C 0.73934 0.45512 0.20838 0.0
H1957 H 0.59211 0.37863 0.20459 0.0
H1958 H 0.6319 0.39771 0.2094 0.0
C1959 C 0.76188 0.46361 0.20546 0.0
C1960 C 0.70668 0.46061 0.21117 0.0
H1961 H 0.66019 0.4265 0.23096 0.0
C1962 C 0.69656 0.46549 0.19953 0.0
C1963 C 0.69354 0.4467 0.22277 0.0
C1964 C 0.70375 0.44151 0.23573 0.0
C1965 C 0.67348 0.45615 0.19887 0.0
C1966 C 0.66024 0.442 0.21039 0.0
C1967 C 0.67041 0.43747 0.2222 0.0
C1968 C 0.63573 0.43053 0.20973 0.0
C1969 C 0.66347 0.46072 0.18549 0.0
C1970 C 0.62457 0.4426 0.20883 0.0
C1971 C 0.60177 0.4317 0.20604 0.0
C1972 C 0.58975 0.40854 0.20447 0.0
C1973 C 0.60077 0.39641 0.20616 0.0
C1974 C 0.62357 0.40732 0.20881 0.0
H1975 H 0.67544 0.46756 0.17619 0.0
H1976 H 0.64852 0.44537 0.18166 0.0
H1977 H 0.65844 0.47306 0.18839 0.0
H1978 H 0.63361 0.46051 0.20976 0.0
H1979 H 0.59364 0.44141 0.20476 0.0
H1980 H 0.49867 0.24409 0.94146 0.0
H1981 H 0.52006 0.22567 0.93562 0.0
H1982 H 0.53043 0.22095 0.98209 0.0
H1983 H 0.50914 0.23915 0.9879 0.0
H1984 H 0.56338 0.23895 0.94195 0.0
H1985 H 0.50862 0.1582 0.9684 0.0
H1986 H 0.49973 0.17804 0.96467 0.0
H1987 H 0.51551 0.18053 0.98103 0.0
C1988 C 0.50564 0.23916 0.95037 0.0
C1989 C 0.50254 0.24321 0.96511 0.0
C1990 C 0.51769 0.22854 0.94705 0.0
C1991 C 0.52655 0.22165 0.95843 0.0
C1992 C 0.52328 0.22561 0.97314 0.0
H1993 H 0.63919 0.20687 0.96722 0.0
H1994 H 0.61329 0.22005 0.9623 0.0
C1995 C 0.51121 0.23609 0.97645 0.0
C1996 C 0.54014 0.21126 0.95514 0.0
H1997 H 0.54696 0.16797 0.96539 0.0
C1998 C 0.55962 0.22322 0.94683 0.0
C1999 C 0.53497 0.19051 0.96119 0.0
C2000 C 0.51343 0.17598 0.96917 0.0
C2001 C 0.57481 0.21565 0.94525 0.0
C2002 C 0.57061 0.19592 0.95252 0.0
C2003 C 0.55041 0.18328 0.95999 0.0
C2004 C 0.58741 0.18879 0.95351 0.0
C2005 C 0.59525 0.22901 0.93597 0.0
C2006 C 0.58151 0.16678 0.95034 0.0
C2007 C 0.59611 0.15906 0.95348 0.0
C2008 C 0.61699 0.17327 0.95975 0.0
C2009 C 0.62331 0.19557 0.96227 0.0
C2010 C 0.60855 0.20319 0.95934 0.0
H2011 H 0.592 0.23796 0.92705 0.0
H2012 H 0.60867 0.24164 0.943 0.0
H2013 H 0.60115 0.21836 0.93091 0.0
H2014 H 0.56528 0.15534 0.94589 0.0
H2015 H 0.59082 0.14181 0.95133 0.0
H2016 H 0.71029 0.26037 0.96197 0.0
H2017 H 0.72929 0.29994 0.95673 0.0
H2018 H 0.79212 0.3017 0.95645 0.0
H2019 H 0.77305 0.26181 0.96167 0.0
H2020 H 0.79127 0.33153 0.97526 0.0
H2021 H 0.75899 0.33853 0.92095 0.0
H2022 H 0.73729 0.32151 0.93364 0.0
H2023 H 0.75641 0.31286 0.92754 0.0
C2024 C 0.72803 0.26891 0.96018 0.0
C2025 C 0.74015 0.25787 0.96187 0.0
C2026 C 0.7389 0.29161 0.95722 0.0
C2027 C 0.76207 0.30369 0.95589 0.0
C2028 C 0.77419 0.29262 0.95726 0.0
H2029 H 0.8513 0.44691 0.95881 0.0
H2030 H 0.83624 0.4074 0.95427 0.0
C2031 C 0.76331 0.26989 0.96026 0.0
C2032 C 0.7737 0.32818 0.95501 0.0
H2033 H 0.77558 0.37144 0.936 0.0
C2034 C 0.78815 0.34029 0.96654 0.0
C2035 C 0.76945 0.33952 0.94368 0.0
C2036 C 0.75485 0.32744 0.93068 0.0
C2037 C 0.7978 0.36338 0.96737 0.0
C2038 C 0.79311 0.37467 0.95624 0.0
C2039 C 0.77907 0.36266 0.94452 0.0
C2040 C 0.80201 0.39885 0.95704 0.0
C2041 C 0.8122 0.37541 0.98048 0.0
C2042 C 0.78764 0.40718 0.95951 0.0
C2043 C 0.79617 0.42981 0.96207 0.0
C2044 C 0.81923 0.44444 0.96218 0.0
C2045 C 0.83348 0.43611 0.95897 0.0
C2046 C 0.82493 0.41352 0.95638 0.0
H2047 H 0.8104 0.36385 0.98952 0.0
H2048 H 0.82985 0.38438 0.97701 0.0
H2049 H 0.80806 0.3878 0.98487 0.0
H2050 H 0.76987 0.39605 0.96003 0.0
H2051 H 0.78473 0.43566 0.96448 0.0
H2052 H 0.73867 0.45108 0.95674 0.0
H2053 H 0.6996 0.42708 0.95111 0.0
H2054 H 0.68774 0.4814 0.95878 0.0
H2055 H 0.72725 0.50593 0.96388 0.0
H2056 H 0.66831 0.41867 0.97242 0.0
H2057 H 0.64988 0.45172 0.92205 0.0
H2058 H 0.67769 0.45845 0.92705 0.0
H2059 H 0.66486 0.4723 0.93591 0.0
C2060 C 0.7281 0.45832 0.95651 0.0
C2061 C 0.73623 0.48063 0.96038 0.0
C2062 C 0.70563 0.44443 0.95347 0.0
C2063 C 0.69083 0.45252 0.95431 0.0
C2064 C 0.69897 0.47495 0.9577 0.0
H2065 H 0.55206 0.40072 0.9655 0.0
H2066 H 0.59168 0.42277 0.96045 0.0
C2067 C 0.7215 0.4889 0.96073 0.0
C2068 C 0.66666 0.43687 0.95373 0.0
H2069 H 0.61871 0.42629 0.93657 0.0
C2070 C 0.65747 0.4201 0.96444 0.0
C2071 C 0.65263 0.43894 0.94338 0.0
C2072 C 0.66175 0.4562 0.93135 0.0
C2073 C 0.63452 0.40582 0.96545 0.0
C2074 C 0.62041 0.40807 0.95524 0.0
C2075 C 0.62961 0.42455 0.94432 0.0
C2076 C 0.59599 0.39451 0.9565 0.0
C2077 C 0.62555 0.38914 0.97787 0.0
C2078 C 0.58515 0.3713 0.95552 0.0
C2079 C 0.56247 0.35856 0.95855 0.0
C2080 C 0.55022 0.36887 0.96246 0.0
C2081 C 0.56097 0.39219 0.96262 0.0
C2082 C 0.58363 0.40487 0.95968 0.0
H2083 H 0.63816 0.39292 0.98659 0.0
H2084 H 0.61081 0.38863 0.98299 0.0
H2085 H 0.62042 0.3724 0.97344 0.0
H2086 H 0.59435 0.36302 0.95279 0.0
H2087 H 0.55469 0.34069 0.95814 0.0
H2088 H 0.44218 0.84687 0.79556 0.0
H2089 H 0.46049 0.82508 0.79101 0.0
H2090 H 0.39663 0.76563 0.78774 0.0
H2091 H 0.37838 0.78694 0.79272 0.0
H2092 H 0.42629 0.76556 0.80955 0.0
H2093 H 0.46607 0.79132 0.75432 0.0
H2094 H 0.47 0.81304 0.76686 0.0
H2095 H 0.44283 0.79452 0.75975 0.0
C2096 C 0.43208 0.82923 0.7935 0.0
C2097 C 0.40882 0.81874 0.79414 0.0
C2098 C 0.44254 0.81686 0.79082 0.0
C2099 C 0.42986 0.79383 0.78881 0.0
C2100 C 0.40666 0.78346 0.78901 0.0
H2101 H 0.4531 0.68329 0.79251 0.0
H2102 H 0.43739 0.7073 0.78854 0.0
C2103 C 0.39624 0.79576 0.79168 0.0
C2104 C 0.44051 0.78006 0.78852 0.0
H2105 H 0.47377 0.7671 0.76821 0.0
C2106 C 0.4366 0.76581 0.80048 0.0
C2107 C 0.45412 0.78071 0.77676 0.0
C2108 C 0.45848 0.79559 0.76361 0.0
C2109 C 0.44598 0.75214 0.80104 0.0
C2110 C 0.45921 0.75237 0.78913 0.0
C2111 C 0.46342 0.76685 0.77723 0.0
C2112 C 0.46899 0.73779 0.78912 0.0
C2113 C 0.44197 0.73787 0.81452 0.0
C2114 C 0.49204 0.74697 0.79001 0.0
C2115 C 0.50113 0.73326 0.79213 0.0
C2116 C 0.48727 0.71013 0.7934 0.0
C2117 C 0.46426 0.70097 0.79164 0.0
C2118 C 0.45522 0.71468 0.78944 0.0
H2119 H 0.43628 0.74373 0.82407 0.0
H2120 H 0.42891 0.7206 0.81202 0.0
H2121 H 0.45726 0.73768 0.81774 0.0
H2122 H 0.50293 0.76479 0.78972 0.0
H2123 H 0.51894 0.74089 0.79334 0.0
H2124 H 0.31224 0.77241 0.78721 0.0
H2125 H 0.28895 0.73284 0.78214 0.0
H2126 H 0.23099 0.7362 0.79492 0.0
H2127 H 0.25402 0.77577 0.79958 0.0
H2128 H 0.26616 0.70285 0.80216 0.0
H2129 H 0.20747 0.6975 0.75923 0.0
H2130 H 0.23238 0.72318 0.76361 0.0
H2131 H 0.20761 0.71396 0.77447 0.0
C2132 C 0.29452 0.76484 0.78868 0.0
C2133 C 0.28507 0.77728 0.79389 0.0
C2134 C 0.28119 0.74221 0.78573 0.0
C2135 C 0.25817 0.73157 0.78796 0.0
C2136 C 0.24861 0.7441 0.79272 0.0
H2137 H 0.17373 0.60143 0.82024 0.0
H2138 H 0.19733 0.64095 0.81541 0.0
C2139 C 0.26189 0.76675 0.79551 0.0
C2140 C 0.24452 0.70705 0.78715 0.0
H2141 H 0.19536 0.66465 0.77436 0.0
C2142 C 0.25089 0.69451 0.79586 0.0
C2143 C 0.22472 0.69607 0.77879 0.0
C2144 C 0.21779 0.70839 0.76838 0.0
C2145 C 0.23748 0.67146 0.79704 0.0
C2146 C 0.21685 0.66072 0.78962 0.0
C2147 C 0.211 0.67301 0.78026 0.0
C2148 C 0.20084 0.63694 0.79208 0.0
C2149 C 0.24543 0.65886 0.80638 0.0
C2150 C 0.19397 0.62171 0.7804 0.0
C2151 C 0.18016 0.59903 0.7831 0.0
C2152 C 0.17315 0.5913 0.79753 0.0
C2153 C 0.17904 0.6068 0.80902 0.0
C2154 C 0.19271 0.62938 0.80631 0.0
H2155 H 0.26379 0.66805 0.80747 0.0
H2156 H 0.23827 0.65659 0.81761 0.0
H2157 H 0.24016 0.64224 0.80165 0.0
H2158 H 0.1997 0.62731 0.76927 0.0
H2159 H 0.17504 0.58769 0.77389 0.0
H2160 H 0.2173 0.47833 0.79643 0.0
H2161 H 0.25724 0.49543 0.79242 0.0
H2162 H 0.26193 0.55907 0.78637 0.0
H2163 H 0.22206 0.54226 0.79062 0.0
H2164 H 0.28659 0.52128 0.76942 0.0
H2165 H 0.30255 0.56845 0.82177 0.0
H2166 H 0.27549 0.54588 0.81689 0.0
H2167 H 0.28566 0.57279 0.80875 0.0
C2168 C 0.22674 0.49593 0.79409 0.0
C2169 C 0.21652 0.509 0.79408 0.0
C2170 C 0.24956 0.50564 0.79176 0.0
C2171 C 0.26253 0.52854 0.78937 0.0
C2172 C 0.25222 0.54141 0.78848 0.0
H2173 H 0.40368 0.61887 0.79106 0.0
H2174 H 0.36418 0.60158 0.78605 0.0
C2175 C 0.22942 0.53176 0.79088 0.0
C2176 C 0.28699 0.53917 0.7889 0.0
H2177 H 0.33375 0.57566 0.80751 0.0
C2178 C 0.29696 0.53321 0.7777 0.0
C2179 C 0.30038 0.55456 0.79983 0.0
C2180 C 0.29053 0.56069 0.81258 0.0
C2181 C 0.32011 0.54256 0.77703 0.0
C2182 C 0.33345 0.558 0.78794 0.0
C2183 C 0.32345 0.56394 0.79909 0.0
C2184 C 0.35785 0.56799 0.78835 0.0
C2185 C 0.33014 0.53608 0.76461 0.0
C2186 C 0.36748 0.5548 0.79106 0.0
C2187 C 0.39027 0.56469 0.79374 0.0
C2188 C 0.40376 0.5879 0.7937 0.0
C2189 C 0.39409 0.60099 0.79056 0.0
C2190 C 0.37138 0.59111 0.78788 0.0
H2191 H 0.31836 0.52842 0.75529 0.0
H2192 H 0.3455 0.55071 0.76046 0.0
H2193 H 0.3346 0.52381 0.76874 0.0
H2194 H 0.35725 0.53694 0.79182 0.0
H2195 H 0.39722 0.55422 0.79632 0.0
H2196 H 0.345 0.78648 0.04378 0.0
H2197 H 0.36879 0.77062 0.04846 0.0
H2198 H 0.42653 0.83361 0.03833 0.0
H2199 H 0.40302 0.84968 0.03392 0.0
H2200 H 0.39393 0.76678 0.02771 0.0
H2201 H 0.44789 0.81538 0.07411 0.0
H2202 H 0.42271 0.81551 0.06954 0.0
H2203 H 0.44801 0.833 0.05965 0.0
C2204 C 0.36276 0.79707 0.0428 0.0
C2205 C 0.37204 0.8193 0.03834 0.0
C2206 C 0.37635 0.78799 0.04553 0.0
C2207 C 0.39946 0.80099 0.04391 0.0
C2208 C 0.40881 0.82339 0.04001 0.0
H2209 H 0.49049 0.762 0.01275 0.0
H2210 H 0.46691 0.77822 0.01741 0.0
C2211 C 0.39527 0.83251 0.03736 0.0
C2212 C 0.41353 0.79059 0.04442 0.0
H2213 H 0.4616 0.79647 0.05869 0.0
C2214 C 0.40853 0.77306 0.03466 0.0
C2215 C 0.43248 0.79866 0.05358 0.0
C2216 C 0.43796 0.81652 0.06492 0.0
C2217 C 0.42248 0.76405 0.03332 0.0
C2218 C 0.44215 0.77309 0.04176 0.0
C2219 C 0.44668 0.78988 0.05205 0.0
C2220 C 0.45837 0.76553 0.03968 0.0
C2221 C 0.41617 0.74506 0.02275 0.0
C2222 C 0.46212 0.75394 0.0509 0.0
C2223 C 0.47565 0.74476 0.04827 0.0
C2224 C 0.48551 0.74702 0.03438 0.0
C2225 C 0.48286 0.75983 0.02349 0.0
C2226 C 0.46933 0.76897 0.02611 0.0
H2227 H 0.3982 0.73647 0.02001 0.0
H2228 H 0.42564 0.75157 0.01234 0.0
H2229 H 0.42022 0.73277 0.02742 0.0
H2230 H 0.45398 0.75136 0.0615 0.0
H2231 H 0.47798 0.73543 0.05695 0.0
H2232 H 0.20655 0.55661 0.04101 0.0
H2233 H 0.22152 0.59608 0.04571 0.0
H2234 H 0.15777 0.58915 0.03572 0.0
H2235 H 0.14249 0.54961 0.03145 0.0
H2236 H 0.22473 0.62476 0.02517 0.0
H2237 H 0.17508 0.62852 0.07156 0.0
H2238 H 0.17549 0.60352 0.06685 0.0
H2239 H 0.15789 0.61111 0.05691 0.0
C2240 C 0.19557 0.56334 0.04013 0.0
C2241 C 0.17334 0.5499 0.03581 0.0
C2242 C 0.20416 0.58593 0.04282 0.0
C2243 C 0.19071 0.59553 0.04124 0.0
C2244 C 0.16834 0.58204 0.03738 0.0
H2245 H 0.2307 0.727 0.01196 0.0
H2246 H 0.21377 0.68697 0.01589 0.0
C2247 C 0.15968 0.55942 0.03481 0.0
C2248 C 0.20064 0.61993 0.04185 0.0
H2249 H 0.19434 0.66157 0.05669 0.0
C2250 C 0.21826 0.6328 0.03222 0.0
C2251 C 0.19232 0.63046 0.05112 0.0
C2252 C 0.1743 0.61769 0.0623 0.0
C2253 C 0.22724 0.65578 0.03122 0.0
C2254 C 0.21805 0.6661 0.03984 0.0
C2255 C 0.20105 0.65347 0.04991 0.0
C2256 C 0.22583 0.68999 0.03825 0.0
C2257 C 0.24645 0.66883 0.02086 0.0
C2258 C 0.23726 0.70476 0.04978 0.0
C2259 C 0.24684 0.72761 0.04757 0.0
C2260 C 0.24516 0.73589 0.0338 0.0
C2261 C 0.23245 0.721 0.02262 0.0
C2262 C 0.22289 0.6982 0.02482 0.0
H2263 H 0.25505 0.65954 0.01793 0.0
H2264 H 0.24016 0.67225 0.01052 0.0
H2265 H 0.25869 0.68497 0.02582 0.0
H2266 H 0.23945 0.69867 0.06027 0.0
H2267 H 0.25604 0.73883 0.05649 0.0
H2268 H 0.44329 0.58984 0.03338 0.0
H2269 H 0.4037 0.5662 0.03838 0.0
H2270 H 0.39832 0.62403 0.04775 0.0
H2271 H 0.4378 0.64784 0.04271 0.0
H2272 H 0.37494 0.56193 0.06328 0.0
H2273 H 0.35695 0.59347 0.01178 0.0
H2274 H 0.38408 0.59749 0.0159 0.0
H2275 H 0.37467 0.61439 0.02474 0.0
C2276 C 0.4338 0.59758 0.0367 0.0
C2277 C 0.44368 0.62083 0.03735 0.0
C2278 C 0.41119 0.584 0.03959 0.0
C2279 C 0.39811 0.59343 0.0432 0.0
C2280 C 0.40814 0.6165 0.04476 0.0
H2281 H 0.25716 0.54185 0.04211 0.0
H2282 H 0.2965 0.56415 0.04729 0.0
C2283 C 0.43072 0.63009 0.04185 0.0
C2284 C 0.37374 0.57935 0.04399 0.0
H2285 H 0.32635 0.56874 0.02614 0.0
C2286 C 0.36424 0.5634 0.05521 0.0
C2287 C 0.35995 0.58126 0.03336 0.0
C2288 C 0.36935 0.59742 0.02068 0.0
C2289 C 0.34112 0.54949 0.0562 0.0
C2290 C 0.32736 0.55146 0.04556 0.0
C2291 C 0.33695 0.56741 0.03436 0.0
C2292 C 0.30297 0.53693 0.04542 0.0
C2293 C 0.33161 0.53304 0.06869 0.0
C2294 C 0.29339 0.51404 0.04298 0.0
C2295 C 0.27062 0.50105 0.04028 0.0
C2296 C 0.25709 0.51074 0.03995 0.0
C2297 C 0.26669 0.53354 0.04289 0.0
C2298 C 0.28936 0.54645 0.04567 0.0
H2299 H 0.34358 0.53756 0.07794 0.0
H2300 H 0.31609 0.53187 0.07294 0.0
H2301 H 0.32759 0.51641 0.06461 0.0
H2302 H 0.30366 0.50644 0.04238 0.0
H2303 H 0.26374 0.48358 0.03787 0.0
H2304 H 0.14357 0.59441 0.54872 0.0
H2305 H 0.15762 0.56933 0.55431 0.0
H2306 H 0.22159 0.61714 0.5367 0.0
H2307 H 0.20795 0.64265 0.53175 0.0
H2308 H 0.16933 0.55039 0.53505 0.0
H2309 H 0.24146 0.59712 0.57139 0.0
H2310 H 0.22173 0.60619 0.56782 0.0
H2311 H 0.24442 0.61323 0.55527 0.0
C2312 C 0.16079 0.59977 0.54637 0.0
C2313 C 0.17464 0.62045 0.53974 0.0
C2314 C 0.1688 0.58543 0.54958 0.0
C2315 C 0.19074 0.59138 0.54608 0.0
C2316 C 0.20481 0.61237 0.53993 0.0
H2317 H 0.23878 0.5114 0.51082 0.0
H2318 H 0.22068 0.53272 0.51694 0.0
C2319 C 0.19692 0.62689 0.53697 0.0
C2320 C 0.19805 0.5747 0.54702 0.0
H2321 H 0.24203 0.56831 0.55636 0.0
C2322 C 0.18502 0.55418 0.54 0.0
C2323 C 0.21829 0.57932 0.55372 0.0
C2324 C 0.2321 0.60008 0.56261 0.0
C2325 C 0.19232 0.5388 0.53868 0.0
C2326 C 0.21355 0.54439 0.54406 0.0
C2327 C 0.22593 0.56422 0.55196 0.0
C2328 C 0.22387 0.53078 0.54058 0.0
C2329 C 0.17729 0.51685 0.53131 0.0
C2330 C 0.23218 0.52306 0.55182 0.0
C2331 C 0.24281 0.51111 0.5483 0.0
C2332 C 0.2454 0.5069 0.5335 0.0
C2333 C 0.23685 0.51437 0.52231 0.0
C2334 C 0.22641 0.52642 0.52581 0.0
H2335 H 0.15956 0.5119 0.53281 0.0
H2336 H 0.18072 0.51842 0.51928 0.0
H2337 H 0.17994 0.50348 0.53572 0.0
H2338 H 0.23044 0.5263 0.56329 0.0
H2339 H 0.24897 0.50513 0.5571 0.0
H2340 H 0.40266 0.54945 0.53247 0.0
H2341 H 0.42695 0.58904 0.53662 0.0
H2342 H 0.36992 0.59704 0.54288 0.0
H2343 H 0.3454 0.55744 0.53851 0.0
H2344 H 0.39862 0.62504 0.52213 0.0
H2345 H 0.44477 0.62887 0.57285 0.0
H2346 H 0.44533 0.61058 0.55912 0.0
H2347 H 0.41939 0.6043 0.56747 0.0
C2348 C 0.39521 0.55951 0.53497 0.0
C2349 C 0.37201 0.55024 0.53503 0.0
C2350 C 0.40918 0.58215 0.53747 0.0
C2351 C 0.40025 0.59593 0.54022 0.0
C2352 C 0.37713 0.58664 0.54084 0.0
H2353 H 0.47415 0.73863 0.55615 0.0
H2354 H 0.45068 0.69834 0.55916 0.0
C2355 C 0.36314 0.56399 0.53832 0.0
C2356 C 0.41493 0.62029 0.54079 0.0
H2357 H 0.4603 0.66189 0.55806 0.0
C2358 C 0.41195 0.63311 0.53008 0.0
C2359 C 0.43223 0.63078 0.55124 0.0
C2360 C 0.43553 0.61796 0.56341 0.0
C2361 C 0.4262 0.65608 0.52926 0.0
C2362 C 0.44411 0.66642 0.53926 0.0
C2363 C 0.44672 0.65378 0.55028 0.0
C2364 C 0.46017 0.69042 0.53831 0.0
C2365 C 0.42199 0.66912 0.51768 0.0
C2366 C 0.47381 0.69912 0.52585 0.0
C2367 C 0.48704 0.72202 0.52408 0.0
C2368 C 0.4867 0.73651 0.5347 0.0
C2369 C 0.47417 0.72774 0.54762 0.0
C2370 C 0.46094 0.70481 0.54941 0.0
H2371 H 0.40485 0.65969 0.51322 0.0
H2372 H 0.42467 0.68508 0.52225 0.0
H2373 H 0.43373 0.67291 0.50839 0.0
H2374 H 0.47366 0.68819 0.51729 0.0
H2375 H 0.49676 0.7284 0.5141 0.0
H2376 H 0.26522 0.77511 0.53356 0.0
H2377 H 0.30485 0.79219 0.53915 0.0
H2378 H 0.2956 0.72825 0.55129 0.0
H2379 H 0.25651 0.71097 0.54505 0.0
H2380 H 0.33097 0.79295 0.56417 0.0
H2381 H 0.33793 0.74776 0.51574 0.0
H2382 H 0.31349 0.74975 0.51931 0.0
H2383 H 0.31832 0.73041 0.52948 0.0
C2384 C 0.27157 0.76476 0.53769 0.0
C2385 C 0.25756 0.7417 0.53902 0.0
C2386 C 0.29417 0.77456 0.54094 0.0
C2387 C 0.30312 0.76142 0.54548 0.0
C2388 C 0.28898 0.73863 0.54771 0.0
H2389 H 0.4387 0.7879 0.54568 0.0
H2390 H 0.39931 0.77178 0.55118 0.0
C2391 C 0.26645 0.72881 0.54435 0.0
C2392 C 0.32743 0.77105 0.54629 0.0
H2393 H 0.37037 0.76925 0.52953 0.0
C2394 C 0.33964 0.78774 0.55666 0.0
C2395 C 0.33863 0.76428 0.53639 0.0
C2396 C 0.3265 0.74722 0.5245 0.0
C2397 C 0.36286 0.79776 0.55746 0.0
C2398 C 0.374 0.79103 0.5475 0.0
C2399 C 0.36173 0.7742 0.53725 0.0
C2400 C 0.39846 0.80189 0.54678 0.0
C2401 C 0.37523 0.81533 0.56896 0.0
C2402 C 0.41114 0.82429 0.54277 0.0
C2403 C 0.43369 0.83356 0.53958 0.0
C2404 C 0.44392 0.82052 0.5402 0.0
C2405 C 0.43138 0.79838 0.54494 0.0
C2406 C 0.40885 0.78914 0.54815 0.0
H2407 H 0.36422 0.81408 0.57823 0.0
H2408 H 0.38942 0.81408 0.57344 0.0
H2409 H 0.38186 0.83194 0.56386 0.0
H2410 H 0.40336 0.8343 0.54135 0.0
H2411 H 0.44283 0.85068 0.53597 0.0
H2412 H 0.30855 0.54069 0.29419 0.0
H2413 H 0.28273 0.55404 0.28922 0.0
H2414 H 0.22929 0.48664 0.28443 0.0
H2415 H 0.25491 0.47306 0.28952 0.0
H2416 H 0.25239 0.54702 0.26541 0.0
H2417 H 0.20992 0.51189 0.3189 0.0
H2418 H 0.23649 0.51478 0.31441 0.0
H2419 H 0.21158 0.4927 0.30644 0.0
C2420 C 0.2914 0.52869 0.29186 0.0
C2421 C 0.28377 0.5058 0.29242 0.0
C2422 C 0.27667 0.53636 0.28901 0.0
C2423 C 0.25409 0.52129 0.28668 0.0
C2424 C 0.24662 0.49849 0.28644 0.0
H2425 H 0.14628 0.55091 0.2924 0.0
H2426 H 0.16625 0.5312 0.28646 0.0
C2427 C 0.2613 0.49079 0.28933 0.0
C2428 C 0.23821 0.52946 0.28567 0.0
H2429 H 0.19687 0.53116 0.30477 0.0
C2430 C 0.24009 0.54342 0.27392 0.0
C2431 C 0.22218 0.52465 0.29679 0.0
C2432 C 0.21993 0.51033 0.30993 0.0
C2433 C 0.22654 0.55301 0.27313 0.0
C2434 C 0.21105 0.54882 0.28453 0.0
C2435 C 0.20869 0.53426 0.296 0.0
C2436 C 0.19858 0.56084 0.28567 0.0
C2437 C 0.22902 0.56765 0.26016 0.0
C2438 C 0.21011 0.58401 0.28709 0.0
C2439 C 0.19877 0.59525 0.29046 0.0
C2440 C 0.17567 0.58351 0.2925 0.0
C2441 C 0.16407 0.56036 0.29074 0.0
C2442 C 0.17543 0.54912 0.28732 0.0
H2443 H 0.23562 0.56328 0.25035 0.0
H2444 H 0.21295 0.56638 0.25721 0.0
H2445 H 0.24096 0.58515 0.26305 0.0
H2446 H 0.22805 0.59331 0.28639 0.0
H2447 H 0.20834 0.61294 0.29235 0.0
H2448 H 0.51709 0.78016 0.28831 0.0
H2449 H 0.50268 0.74115 0.28232 0.0
H2450 H 0.43578 0.72871 0.2872 0.0
H2451 H 0.44999 0.76774 0.29314 0.0
H2452 H 0.47755 0.70864 0.30279 0.0
H2453 H 0.43166 0.69291 0.25011 0.0
H2454 H 0.45221 0.72042 0.25608 0.0
H2455 H 0.42461 0.70731 0.26357 0.0
C2456 C 0.49929 0.76926 0.28783 0.0
C2457 C 0.48468 0.77706 0.29132 0.0
C2458 C 0.49111 0.74698 0.28435 0.0
C2459 C 0.46819 0.73211 0.28419 0.0
C2460 C 0.45353 0.74001 0.28696 0.0
H2461 H 0.37838 0.59443 0.29324 0.0
H2462 H 0.3974 0.63399 0.28772 0.0
C2463 C 0.46169 0.76233 0.29044 0.0
C2464 C 0.45977 0.708 0.28321 0.0
H2465 H 0.42369 0.66097 0.26463 0.0
C2466 C 0.46607 0.69822 0.29431 0.0
C2467 C 0.44471 0.69454 0.27218 0.0
C2468 C 0.43803 0.70433 0.25972 0.0
C2469 C 0.45692 0.67519 0.2951 0.0
C2470 C 0.44145 0.66162 0.28425 0.0
C2471 C 0.43563 0.67144 0.27288 0.0
C2472 C 0.42978 0.63715 0.28535 0.0
C2473 C 0.46303 0.66557 0.30799 0.0
C2474 C 0.4416 0.62568 0.28539 0.0
C2475 C 0.43073 0.60301 0.28857 0.0
C2476 C 0.40784 0.59141 0.29142 0.0
C2477 C 0.3959 0.60274 0.29067 0.0
C2478 C 0.40678 0.62541 0.28761 0.0
H2479 H 0.47123 0.67788 0.31697 0.0
H2480 H 0.44812 0.65092 0.31259 0.0
H2481 H 0.47474 0.66015 0.30422 0.0
H2482 H 0.45932 0.6344 0.28344 0.0
H2483 H 0.44029 0.59462 0.28912 0.0
H2484 H 0.22577 0.68333 0.29473 0.0
H2485 H 0.26493 0.70906 0.28948 0.0
H2486 H 0.25137 0.7629 0.28595 0.0
H2487 H 0.21225 0.73743 0.29127 0.0
H2488 H 0.28829 0.7411 0.26563 0.0
H2489 H 0.29595 0.77974 0.32071 0.0
H2490 H 0.27244 0.75331 0.31575 0.0
H2491 H 0.27477 0.77852 0.30877 0.0
C2492 C 0.23101 0.70056 0.29259 0.0
C2493 C 0.21591 0.70836 0.29362 0.0
C2494 C 0.25338 0.71522 0.28957 0.0
C2495 C 0.261 0.73787 0.28754 0.0
C2496 C 0.2458 0.7455 0.28769 0.0
H2497 H 0.39743 0.8463 0.29495 0.0
H2498 H 0.35781 0.82611 0.28889 0.0
C2499 C 0.22346 0.73089 0.29074 0.0
C2500 C 0.28506 0.75374 0.2866 0.0
H2501 H 0.32811 0.79398 0.30627 0.0
C2502 C 0.29704 0.75282 0.27444 0.0
C2503 C 0.29632 0.769 0.2981 0.0
C2504 C 0.28432 0.7702 0.31164 0.0
C2505 C 0.32015 0.76669 0.27356 0.0
C2506 C 0.3315 0.78146 0.28529 0.0
C2507 C 0.31937 0.78275 0.29724 0.0
C2508 C 0.35602 0.79436 0.28621 0.0
C2509 C 0.33217 0.76536 0.26009 0.0
C2510 C 0.36821 0.78328 0.2865 0.0
C2511 C 0.39079 0.79478 0.28988 0.0
C2512 C 0.40158 0.81756 0.2931 0.0
C2513 C 0.38954 0.82878 0.29237 0.0
C2514 C 0.36696 0.81729 0.2889 0.0
H2515 H 0.32104 0.75945 0.25033 0.0
H2516 H 0.34685 0.7817 0.25747 0.0
H2517 H 0.3379 0.75333 0.26218 0.0
H2518 H 0.36 0.76548 0.28498 0.0
H2519 H 0.39934 0.78547 0.29092 0.0
H2520 H 0.02544 0.20701 0.30884 0.0
H2521 H 0.02284 0.20491 0.28205 0.0
H2522 H 0.96318 0.14114 0.28501 0.0
H2523 H 0.96577 0.14288 0.31199 0.0
H2524 H 0.99385 0.14261 0.26431 0.0
H2525 H 0.97883 0.21304 0.25678 0.0
H2526 H 0.00304 0.22 0.2676 0.0
H2527 H 0.97608 0.19991 0.27443 0.0
C2528 C 0.01167 0.19254 0.30386 0.0
C2529 C 0.99572 0.17515 0.3126 0.0
C2530 C 0.01017 0.19143 0.28852 0.0
C2531 C 0.99263 0.17305 0.28158 0.0
C2532 C 0.97678 0.15554 0.2902 0.0
H2533 H 0.9604 0.17062 0.18904 0.0
H2534 H 0.9599 0.16925 0.2159 0.0
C2535 C 0.97827 0.15659 0.3056 0.0
C2536 C 0.99119 0.17209 0.26529 0.0
H2537 H 0.98843 0.20008 0.23524 0.0
C2538 C 0.9925 0.15506 0.25792 0.0
C2539 C 0.98917 0.18822 0.25703 0.0
C2540 C 0.98647 0.20621 0.26435 0.0
C2541 C 0.9924 0.15404 0.24246 0.0
C2542 C 0.99136 0.17074 0.2342 0.0
C2543 C 0.98951 0.18745 0.24159 0.0
C2544 C 0.99172 0.17103 0.21787 0.0
C2545 C 0.99314 0.13497 0.23512 0.0
C2546 C 0.00992 0.17271 0.21006 0.0
C2547 C 0.01026 0.17342 0.19464 0.0
C2548 C 0.99248 0.17269 0.18679 0.0
C2549 C 0.9744 0.17125 0.1947 0.0
C2550 C 0.97405 0.17043 0.21007 0.0
H2551 H 0.98786 0.12072 0.24275 0.0
H2552 H 0.98234 0.12922 0.2252 0.0
H2553 H 0.0104 0.14051 0.23159 0.0
H2554 H 0.02397 0.17371 0.21589 0.0
H2555 H 0.02448 0.17466 0.1889 0.0
H2556 H 0.78906 0.8273 0.30932 0.0
H2557 H 0.78991 0.82819 0.28242 0.0
H2558 H 0.85019 0.82498 0.28273 0.0
H2559 H 0.84976 0.82447 0.30973 0.0
H2560 H 0.85125 0.85632 0.26296 0.0
H2561 H 0.77454 0.77473 0.25622 0.0
H2562 H 0.77108 0.79402 0.26745 0.0
H2563 H 0.78894 0.78387 0.2736 0.0
C2564 C 0.80251 0.82673 0.3037 0.0
C2565 C 0.81926 0.82563 0.3117 0.0
C2566 C 0.80291 0.82717 0.28832 0.0
C2567 C 0.8199 0.82629 0.28061 0.0
C2568 C 0.83687 0.82558 0.28851 0.0
H2569 H 0.81988 0.79063 0.19002 0.0
H2570 H 0.82028 0.79369 0.21676 0.0
C2571 C 0.83656 0.82524 0.30393 0.0
C2572 C 0.81988 0.82596 0.26429 0.0
H2573 H 0.78974 0.79605 0.23456 0.0
C2574 C 0.83784 0.84316 0.25672 0.0
C2575 C 0.80243 0.80864 0.25622 0.0
C2576 C 0.78325 0.78915 0.26376 0.0
C2577 C 0.83877 0.84354 0.24124 0.0
C2578 C 0.82108 0.82644 0.23319 0.0
C2579 C 0.80316 0.80925 0.24078 0.0
C2580 C 0.82133 0.82527 0.21689 0.0
C2581 C 0.8589 0.86188 0.23367 0.0
C2582 C 0.82166 0.842 0.20806 0.0
C2583 C 0.82152 0.84037 0.19267 0.0
C2584 C 0.82085 0.82186 0.18588 0.0
C2585 C 0.82037 0.80511 0.19483 0.0
C2586 C 0.8206 0.80681 0.21014 0.0
H2587 H 0.87308 0.87064 0.24139 0.0
H2588 H 0.86418 0.85527 0.22433 0.0
H2589 H 0.85474 0.87419 0.22921 0.0
H2590 H 0.8218 0.85619 0.21307 0.0
H2591 H 0.8218 0.8535 0.1861 0.0
H2592 H 0.14618 0.97056 0.18754 0.0
H2593 H 0.14604 0.97106 0.21452 0.0
H2594 H 0.20713 0.03384 0.21438 0.0
H2595 H 0.20769 0.03334 0.1875 0.0
H2596 H 0.20804 0.00463 0.2339 0.0
H2597 H 0.13117 0.00897 0.24115 0.0
H2598 H 0.12743 0.986 0.23004 0.0
H2599 H 0.14519 0.01388 0.22363 0.0
C2600 C 0.15958 0.98449 0.19325 0.0
C2601 C 0.17691 0.00194 0.18534 0.0
C2602 C 0.15937 0.98483 0.20866 0.0
C2603 C 0.17636 0.00269 0.21643 0.0
C2604 C 0.19379 0.01996 0.20859 0.0
H2605 H 0.17407 0.0292 0.31039 0.0
H2606 H 0.17537 0.03174 0.28341 0.0
C2607 C 0.19407 0.01962 0.19321 0.0
C2608 C 0.17641 0.00312 0.23276 0.0
H2609 H 0.14619 0.00198 0.26276 0.0
C2610 C 0.19457 0.00416 0.24021 0.0
C2611 C 0.15899 0.00289 0.24096 0.0
C2612 C 0.13969 0.0031 0.23355 0.0
C2613 C 0.19556 0.00444 0.25566 0.0
C2614 C 0.17768 0.00321 0.26386 0.0
C2615 C 0.15977 0.00273 0.25643 0.0
C2616 C 0.17703 0.00182 0.28016 0.0
C2617 C 0.21584 0.00628 0.26304 0.0
C2618 C 0.17725 0.98401 0.28721 0.0
C2619 C 0.17661 0.98256 0.30255 0.0
C2620 C 0.17551 -0.00122 0.31119 0.0
C2621 C 0.17499 0.01647 0.30408 0.0
C2622 C 0.1757 0.01794 0.28868 0.0
H2623 H 0.2304 0.01355 0.25552 0.0
H2624 H 0.22019 0.01663 0.27315 0.0
H2625 H 0.21243 0.98948 0.26624 0.0
H2626 H 0.17775 0.97112 0.28082 0.0
H2627 H 0.17683 0.96859 0.30763 0.0
H2628 H 0.97735 0.7793 0.68945 0.0
H2629 H 0.97801 0.78001 0.71638 0.0
H2630 H 0.01852 0.85134 0.71561 0.0
H2631 H 0.01862 0.85071 0.68865 0.0
H2632 H 0.03296 0.83418 0.73587 0.0
H2633 H 0.94207 0.79702 0.7421 0.0
H2634 H 0.94935 0.77956 0.73185 0.0
H2635 H 0.95583 0.80618 0.72453 0.0
C2636 C 0.98645 0.79515 0.69501 0.0
C2637 C -0.0022 0.81498 0.68692 0.0
C2638 C 0.98666 0.79553 0.71041 0.0
C2639 C -0.00219 0.81577 0.71801 0.0
C2640 C 0.00966 0.83554 0.70997 0.0
H2641 H 0.97655 0.83292 0.81047 0.0
H2642 H 0.97693 0.8326 0.78349 0.0
C2643 C 0.00972 0.83515 0.69456 0.0
C2644 C -0.00269 0.81635 0.73435 0.0
H2645 H 0.96235 0.79994 0.76397 0.0
C2646 C 0.01753 0.82679 0.74202 0.0
C2647 C 0.97716 0.80706 0.74235 0.0
C2648 C 0.95489 0.79704 0.73478 0.0
C2649 C 0.01816 0.82792 0.75747 0.0
C2650 C -0.002 0.81767 0.76549 0.0
C2651 C 0.97779 0.80754 0.75782 0.0
C2652 C -0.0025 0.81747 0.78184 0.0
C2653 C 0.04044 0.84051 0.76499 0.0
C2654 C 0.00852 0.80863 0.78987 0.0
C2655 C 0.00858 0.80907 0.80526 0.0
C2656 C -0.0028 0.81792 0.81293 0.0
C2657 C 0.98548 0.82601 0.80488 0.0
C2658 C 0.9857 0.82585 0.78947 0.0
H2659 H 0.05327 0.85287 0.75746 0.0
H2660 H 0.03955 0.84929 0.77496 0.0
H2661 H 0.04593 0.82869 0.76838 0.0
H2662 H 0.01713 0.80142 0.78423 0.0
H2663 H 0.01752 0.80243 0.81114 0.0
H2664 H 0.18965 0.21066 0.80942 0.0
H2665 H 0.1885 0.20898 0.78255 0.0
H2666 H 0.15677 0.13762 0.78436 0.0
H2667 H 0.15864 0.13923 0.81134 0.0
H2668 H 0.18758 0.15363 0.76357 0.0
H2669 H 0.13514 0.19208 0.75742 0.0
H2670 H 0.16003 0.20969 0.76747 0.0
H2671 H 0.13993 0.18322 0.77505 0.0
C2672 C 0.18243 0.19459 0.80411 0.0
C2673 C 0.17406 0.17505 0.8125 0.0
C2674 C 0.18162 0.19366 0.78874 0.0
C2675 C 0.17197 0.17315 0.78145 0.0
C2676 C 0.1641 0.15362 0.78977 0.0
H2677 H 0.13741 0.16148 0.68807 0.0
H2678 H 0.13618 0.15948 0.71502 0.0
C2679 C 0.1652 0.15456 0.80517 0.0
C2680 C 0.17049 0.17218 0.76513 0.0
H2681 H 0.15342 0.19013 0.73557 0.0
C2682 C 0.17993 0.16143 0.75744 0.0
C2683 C 0.1601 0.18196 0.75714 0.0
C2684 C 0.14801 0.19216 0.76471 0.0
C2685 C 0.17987 0.16078 0.74198 0.0
C2686 C 0.17077 0.17183 0.73399 0.0
C2687 C 0.16072 0.18197 0.74168 0.0
C2688 C 0.17158 0.17316 0.71766 0.0
C2689 C 0.18928 0.14796 0.73441 0.0
C2690 C 0.19193 0.18197 0.71021 0.0
C2691 C 0.19264 0.18285 0.69483 0.0
C2692 C 0.17306 0.17541 0.68661 0.0
C2693 C 0.15278 0.16735 0.6941 0.0
C2694 C 0.15205 0.16616 0.70949 0.0
H2695 H 0.18866 0.13485 0.74171 0.0
H2696 H 0.18014 0.14007 0.72409 0.0
H2697 H 0.20693 0.15945 0.73161 0.0
H2698 H 0.2073 0.18818 0.71628 0.0
H2699 H 0.20856 0.18942 0.68938 0.0
H2700 H 0.85078 0.02982 0.81029 0.0
H2701 H 0.8522 0.03073 0.7833 0.0
H2702 H 0.78968 0.96947 0.78163 0.0
H2703 H 0.78789 0.96853 0.80849 0.0
H2704 H 0.852 -0.00048 0.76372 0.0
H2705 H 0.77921 0.01052 0.75479 0.0
H2706 H 0.79254 0.01475 0.77252 0.0
H2707 H 0.77346 0.98715 0.76619 0.0
C2708 C 0.83727 0.0166 0.80419 0.0
C2709 C 0.81915 -0.00082 0.81157 0.0
C2710 C 0.83814 0.01713 0.78878 0.0
C2711 C 0.82089 0.00033 0.7805 0.0
C2712 C 0.80293 0.98283 0.78782 0.0
H2713 H 0.82235 0.96893 0.68765 0.0
H2714 H 0.82247 0.96879 0.71466 0.0
C2715 C 0.802 0.9823 0.80319 0.0
C2716 C 0.82177 0.00088 0.76419 0.0
H2717 H 0.79379 0.00209 0.73365 0.0
C2718 C 0.83935 0.00018 0.75712 0.0
C2719 C 0.80534 0.00195 0.75565 0.0
C2720 C 0.78668 0.00385 0.76265 0.0
C2721 C 0.84075 0.00019 0.74167 0.0
C2722 C 0.82394 0.00056 0.73314 0.0
C2723 C 0.80654 0.00157 0.74023 0.0
C2724 C 0.82437 0.00066 0.71682 0.0
C2725 C 0.86041 0.00021 0.73463 0.0
C2726 C 0.82495 0.01839 0.70912 0.0
C2727 C 0.82468 0.01844 0.69374 0.0
C2728 C 0.82377 0.00069 0.68572 0.0
C2729 C 0.82318 0.9829 0.69348 0.0
C2730 C 0.82338 0.98285 0.70891 0.0
H2731 H 0.87437 0.00548 0.74252 0.0
H2732 H 0.85538 0.98317 0.73085 0.0
H2733 H 0.86637 0.01138 0.7249 0.0
H2734 H 0.82564 0.03225 0.71503 0.0
H2735 H 0.82517 0.03243 0.68816 0.0
H2736 H 0.64891 0.5344 0.52355 0.0
H2737 H 0.65079 0.53556 0.55044 0.0
H2738 H 0.68875 0.502 0.54958 0.0
H2739 H 0.68769 0.50158 0.52262 0.0
H2740 H 0.63415 0.50231 0.5691 0.0
H2741 H 0.72498 0.55113 0.57777 0.0
H2742 H 0.71245 0.54886 0.55997 0.0
H2743 H 0.717 0.52706 0.56659 0.0
C2744 C 0.65791 0.52752 0.52908 0.0
C2745 C 0.66822 0.51796 0.52097 0.0
C2746 C 0.65894 0.52817 0.54445 0.0
C2747 C 0.67014 0.51912 0.55205 0.0
C2748 C 0.68053 0.50963 0.54397 0.0
H2749 H 0.64483 0.47843 0.64416 0.0
H2750 H 0.64528 0.4797 0.6172 0.0
C2751 C 0.6798 0.50928 0.52856 0.0
C2752 C 0.66984 0.51859 0.5684 0.0
H2753 H 0.70298 0.53245 0.59883 0.0
C2754 C 0.64922 0.50904 0.5756 0.0
C2755 C 0.6895 0.52761 0.57689 0.0
C2756 C 0.71223 0.53945 0.56992 0.0
C2757 C 0.64769 0.50809 0.59103 0.0
C2758 C 0.6673 0.51623 0.59951 0.0
C2759 C 0.68794 0.52597 0.59232 0.0
C2760 C 0.66688 0.5153 0.61585 0.0
C2761 C 0.62511 0.49886 0.59806 0.0
C2762 C 0.67939 0.53476 0.62406 0.0
C2763 C 0.67952 0.53402 0.63944 0.0
C2764 C 0.66701 0.51379 0.64694 0.0
C2765 C 0.65443 0.4943 0.63871 0.0
C2766 C 0.65457 0.49502 0.6233 0.0
H2767 H 0.61309 0.4998 0.59045 0.0
H2768 H 0.61857 0.48114 0.60082 0.0
H2769 H 0.62596 0.5079 0.60835 0.0
H2770 H 0.68906 0.55058 0.61856 0.0
H2771 H 0.68937 0.54933 0.64546 0.0
H2772 H 0.45332 0.15084 0.64245 0.0
H2773 H 0.45518 0.1504 0.61563 0.0
H2774 H 0.51892 0.15436 0.6182 0.0
H2775 H 0.51741 0.15512 0.64518 0.0
H2776 H 0.51742 0.18381 0.59777 0.0
H2777 H 0.44687 0.09844 0.59001 0.0
H2778 H 0.44005 0.11567 0.60098 0.0
H2779 H 0.4601 0.10864 0.60765 0.0
C2780 C 0.46773 0.15151 0.63737 0.0
C2781 C 0.48518 0.1529 0.646 0.0
C2782 C 0.46869 0.15116 0.62201 0.0
C2783 C 0.48701 0.15199 0.61496 0.0
C2784 C 0.50457 0.15357 0.62347 0.0
H2785 H 0.48987 0.12256 0.52243 0.0
H2786 H 0.49104 0.12338 0.5493 0.0
C2787 C 0.50365 0.15396 0.63888 0.0
C2788 C 0.48792 0.15166 0.59866 0.0
H2789 H 0.46007 0.12106 0.56853 0.0
C2790 C 0.50499 0.17005 0.59135 0.0
C2791 C 0.47181 0.13357 0.59036 0.0
C2792 C 0.45379 0.11286 0.59763 0.0
C2793 C 0.50609 0.17104 0.57589 0.0
C2794 C 0.48944 0.15332 0.56758 0.0
C2795 C 0.47266 0.13474 0.57492 0.0
C2796 C 0.48929 0.15343 0.55125 0.0
C2797 C 0.52521 0.19087 0.5686 0.0
C2798 C 0.48772 0.16999 0.54342 0.0
C2799 C 0.48714 0.16965 0.528 0.0
C2800 C 0.48787 0.15259 0.52016 0.0
C2801 C 0.48923 0.13594 0.52809 0.0
C2802 C 0.48993 0.13637 0.54347 0.0
H2803 H 0.53941 0.19982 0.57628 0.0
H2804 H 0.53103 0.18587 0.5587 0.0
H2805 H 0.51969 0.2026 0.56507 0.0
H2806 H 0.48669 0.18303 0.54924 0.0
H2807 H 0.48595 0.18265 0.52224 0.0
H2808 H 0.83721 0.35695 0.64295 0.0
H2809 H 0.83636 0.35699 0.61598 0.0
H2810 H 0.83612 0.29493 0.61522 0.0
H2811 H 0.83736 0.29489 0.6421 0.0
H2812 H 0.86608 0.32527 0.59594 0.0
H2813 H 0.78381 0.31875 0.58917 0.0
H2814 H 0.80265 0.34158 0.60054 0.0
H2815 H 0.79311 0.31362 0.60654 0.0
C2816 C 0.83692 0.34328 0.63706 0.0
C2817 C 0.8373 0.32589 0.64471 0.0
C2818 C 0.83628 0.34325 0.62164 0.0
C2819 C 0.83578 0.32577 0.61362 0.0
C2820 C 0.83636 0.30852 0.62121 0.0
H2821 H 0.80748 0.30001 0.51965 0.0
H2822 H 0.80625 0.29742 0.54662 0.0
C2823 C 0.83708 0.30855 0.63659 0.0
C2824 C 0.83543 0.32574 0.5973 0.0
H2825 H 0.80587 0.3266 0.56751 0.0
C2826 C 0.85287 0.32546 0.58972 0.0
C2827 C 0.81799 0.32564 0.58922 0.0
C2828 C 0.79821 0.32469 0.59676 0.0
C2829 C 0.8536 0.32555 0.57427 0.0
C2830 C 0.83665 0.32639 0.5662 0.0
C2831 C 0.81893 0.32616 0.57375 0.0
C2832 C 0.83728 0.32796 0.54991 0.0
C2833 C 0.87241 0.32453 0.56674 0.0
C2834 C 0.85494 0.34614 0.54288 0.0
C2835 C 0.85576 0.34763 0.52754 0.0
C2836 C 0.83878 0.33106 0.51888 0.0
C2837 C 0.82086 0.31302 0.52597 0.0
C2838 C 0.82011 0.31152 0.54137 0.0
H2839 H 0.88017 0.31761 0.57414 0.0
H2840 H 0.86661 0.31425 0.55659 0.0
H2841 H 0.88538 0.34154 0.56357 0.0
H2842 H 0.8681 0.35926 0.54928 0.0
H2843 H 0.86971 0.36187 0.52247 0.0
H2844 H 0.62957 0.14941 0.14416 0.0
H2845 H 0.6277 0.14839 0.11719 0.0
H2846 H 0.68937 0.14795 0.11523 0.0
H2847 H 0.69126 0.14859 0.14208 0.0
H2848 H 0.65757 0.17865 0.09719 0.0
H2849 H 0.64885 0.09573 0.08896 0.0
H2850 H 0.64489 0.10508 0.10668 0.0
H2851 H 0.67242 0.11398 0.09999 0.0
C2852 C 0.64266 0.14893 0.138 0.0
C2853 C 0.66051 0.14896 0.1453 0.0
C2854 C 0.64157 0.14839 0.12259 0.0
C2855 C 0.65823 0.14776 0.11424 0.0
C2856 C 0.6761 0.14793 0.12148 0.0
H2857 H 0.6887 0.18087 0.02157 0.0
H2858 H 0.68875 0.18057 0.04855 0.0
C2859 C 0.67719 0.14841 0.13685 0.0
C2860 C 0.65731 0.1476 0.09792 0.0
H2861 H 0.6569 0.11838 0.06759 0.0
C2862 C 0.6573 0.16543 0.0907 0.0
C2863 C 0.65671 0.1302 0.08951 0.0
C2864 C 0.6555 0.11005 0.09667 0.0
C2865 C 0.65712 0.16652 0.07525 0.0
C2866 C 0.65737 0.14953 0.06685 0.0
C2867 C 0.65697 0.13151 0.07408 0.0
C2868 C 0.65753 0.14982 0.05052 0.0
C2869 C 0.6563 0.18566 0.06809 0.0
C2870 C 0.64028 0.13233 0.04269 0.0
C2871 C 0.64031 0.13232 0.02731 0.0
C2872 C 0.65763 0.14981 0.01941 0.0
C2873 C 0.67503 0.16722 0.02729 0.0
C2874 C 0.67502 0.16716 0.04272 0.0
H2875 H 0.65029 0.19385 0.07586 0.0
H2876 H 0.67324 0.19822 0.06448 0.0
H2877 H 0.64534 0.18008 0.05825 0.0
H2878 H 0.62668 0.11874 0.04851 0.0
H2879 H 0.62664 0.11863 0.02161 0.0
H2880 H 0.84272 0.54247 0.14328 0.0
H2881 H 0.84317 0.54247 0.11639 0.0
H2882 H 0.84312 0.4805 0.11652 0.0
H2883 H 0.84226 0.48009 0.1435 0.0
H2884 H 0.87385 0.54256 0.09737 0.0
H2885 H 0.79139 0.46746 0.08922 0.0
H2886 H 0.80029 0.48133 0.10679 0.0
H2887 H 0.80992 0.46305 0.10063 0.0
C2888 C 0.84277 0.52878 0.13763 0.0
C2889 C 0.84233 0.5112 0.14556 0.0
C2890 C 0.84304 0.52884 0.12224 0.0
C2891 C 0.84283 0.51133 0.11447 0.0
C2892 C 0.84279 0.49394 0.12232 0.0
H2893 H 0.87621 0.51284 0.02226 0.0
H2894 H 0.87583 0.51342 0.04915 0.0
C2895 C 0.84243 0.4938 0.13774 0.0
C2896 C 0.843 0.51157 0.09815 0.0
H2897 H 0.81365 0.48277 0.06785 0.0
C2898 C 0.86068 0.52952 0.0909 0.0
C2899 C 0.82561 0.4947 0.08977 0.0
C2900 C 0.80561 0.47564 0.09697 0.0
C2901 C 0.86159 0.53092 0.07546 0.0
C2902 C 0.84458 0.51367 0.06708 0.0
C2903 C 0.82675 0.49587 0.07433 0.0
C2904 C 0.84497 0.51373 0.05076 0.0
C2905 C 0.88056 0.55103 0.06829 0.0
C2906 C 0.8275 0.51325 0.04274 0.0
C2907 C 0.82754 0.51273 0.02734 0.0
C2908 C 0.84506 0.5126 0.01968 0.0
C2909 C 0.86254 0.5131 0.02778 0.0
C2910 C 0.86243 0.51354 0.04317 0.0
H2911 H 0.88852 0.56525 0.07605 0.0
H2912 H 0.89335 0.54693 0.06473 0.0
H2913 H 0.87487 0.55623 0.05842 0.0
H2914 H 0.81382 0.51329 0.04842 0.0
H2915 H 0.8138 0.51232 0.02145 0.0
H2916 H 0.48183 0.29696 0.02215 0.0
H2917 H 0.48047 0.29506 0.04912 0.0
H2918 H 0.48338 0.35836 0.05094 0.0
H2919 H 0.48437 0.36029 0.02409 0.0
H2920 H 0.51125 0.32408 0.06927 0.0
H2921 H 0.42996 0.31939 0.07686 0.0
H2922 H 0.43911 0.31487 0.05924 0.0
H2923 H 0.44909 0.34261 0.0659 0.0
C2924 C 0.48204 0.31042 0.02828 0.0
C2925 C 0.48309 0.32872 0.02094 0.0
C2926 C 0.48129 0.30931 0.04368 0.0
C2927 C 0.48149 0.32641 0.05199 0.0
C2928 C 0.48272 0.34476 0.04472 0.0
H2929 H 0.51395 0.35619 0.14471 0.0
H2930 H 0.51397 0.35615 0.11772 0.0
C2931 C 0.4834 0.34586 0.02935 0.0
C2932 C 0.48103 0.32542 0.0683 0.0
H2933 H 0.45213 0.32649 0.09839 0.0
C2934 C 0.49827 0.32448 0.07566 0.0
C2935 C 0.46393 0.32569 0.07656 0.0
C2936 C 0.44435 0.32548 0.06925 0.0
C2937 C 0.49912 0.32425 0.09111 0.0
C2938 C 0.48248 0.32539 0.09938 0.0
C2939 C 0.46501 0.32589 0.09201 0.0
C2940 C 0.48257 0.3256 0.1157 0.0
C2941 C 0.51761 0.32243 0.09845 0.0
C2942 C 0.46465 0.30877 0.12347 0.0
C2943 C 0.46447 0.30884 0.13885 0.0
C2944 C 0.48223 0.3258 0.14679 0.0
C2945 C 0.50008 0.34281 0.13895 0.0
C2946 C 0.50019 0.34274 0.12353 0.0
H2947 H 0.52542 0.3159 0.09076 0.0
H2948 H 0.53062 0.33914 0.10214 0.0
H2949 H 0.51144 0.31145 0.10826 0.0
H2950 H 0.45084 0.29545 0.11762 0.0
H2951 H 0.45043 0.29549 0.14451 0.0
H2952 H 0.35741 0.84073 0.8546 0.0
H2953 H 0.35805 0.84018 0.88159 0.0
H2954 H 0.2962 0.84034 0.88295 0.0
H2955 H 0.29557 0.8413 0.85611 0.0
H2956 H 0.32695 0.87033 0.90195 0.0
H2957 H 0.32002 0.78784 0.90866 0.0
H2958 H 0.34273 0.80669 0.89721 0.0
H2959 H 0.31471 0.79712 0.89135 0.0
C2960 C 0.34393 0.84062 0.86064 0.0
C2961 C 0.32642 0.84101 0.85317 0.0
C2962 C 0.34425 0.84014 0.87606 0.0
C2963 C 0.32698 0.83985 0.88425 0.0
C2964 C 0.30963 0.84045 0.87683 0.0
H2965 H 0.29901 0.81056 0.97777 0.0
H2966 H 0.29747 0.80983 0.95077 0.0
C2967 C 0.30932 0.84101 0.86147 0.0
C2968 C 0.32718 0.83957 0.90058 0.0
H2969 H 0.32732 0.80961 0.93035 0.0
C2970 C 0.32698 0.85703 0.90816 0.0
C2971 C 0.32687 0.82202 0.90864 0.0
C2972 C 0.32588 0.80223 0.90108 0.0
C2973 C 0.32679 0.85761 0.92361 0.0
C2974 C 0.32728 0.84047 0.93168 0.0
C2975 C 0.32712 0.82281 0.92411 0.0
C2976 C 0.32826 0.84078 0.94798 0.0
C2977 C 0.32573 0.87639 0.93114 0.0
C2978 C 0.34622 0.85826 0.95531 0.0
C2979 C 0.34711 0.8588 0.97068 0.0
C2980 C 0.33013 0.84172 0.97905 0.0
C2981 C 0.31231 0.82401 0.97167 0.0
C2982 C 0.31141 0.82354 0.95625 0.0
H2983 H 0.31918 0.88441 0.92366 0.0
H2984 H 0.31512 0.8705 0.94114 0.0
H2985 H 0.34269 0.88919 0.93455 0.0
H2986 H 0.35964 0.87147 0.94913 0.0
H2987 H 0.3612 0.87259 0.97597 0.0
H2988 H 0.13765 0.44856 0.85462 0.0
H2989 H 0.13897 0.44957 0.88152 0.0
H2990 H 0.16657 0.52053 0.88058 0.0
H2991 H 0.16457 0.51957 0.85365 0.0
H2992 H 0.17368 0.46968 0.89961 0.0
H2993 H 0.11684 0.50257 0.90951 0.0
H2994 H 0.11974 0.49289 0.89165 0.0
H2995 H 0.13993 0.52018 0.89793 0.0
C2996 C 0.1438 0.46437 0.86013 0.0
C2997 C 0.15086 0.48397 0.852 0.0
C2998 C 0.14461 0.46492 0.87551 0.0
C2999 C 0.15261 0.48507 0.88308 0.0
C3000 C 0.15982 0.50471 0.875 0.0
H3001 H 0.19016 0.50047 0.9766 0.0
H3002 H 0.19137 0.50106 0.94957 0.0
C3003 C 0.15873 0.50414 0.8596 0.0
C3004 C 0.15379 0.48545 0.89941 0.0
H3005 H 0.13633 0.50034 0.93026 0.0
C3006 C 0.16547 0.47633 0.90633 0.0
C3007 C 0.14291 0.49396 0.90815 0.0
C3008 C 0.12897 0.50275 0.90145 0.0
C3009 C 0.16644 0.47534 0.92176 0.0
C3010 C 0.15598 0.48431 0.93049 0.0
C3011 C 0.14447 0.4936 0.92355 0.0
C3012 C 0.15567 0.48329 0.94682 0.0
C3013 C 0.17803 0.46405 0.92851 0.0
C3014 C 0.13527 0.47342 0.95426 0.0
C3015 C 0.13456 0.47346 0.96961 0.0
C3016 C 0.15425 0.48322 0.9779 0.0
C3017 C 0.17472 0.49265 0.97049 0.0
C3018 C 0.17542 0.4929 0.95506 0.0
H3019 H 0.17968 0.45287 0.92051 0.0
H3020 H 0.19496 0.47681 0.93199 0.0
H3021 H 0.16896 0.45421 0.93836 0.0
H3022 H 0.11982 0.46586 0.94815 0.0
H3023 H 0.11852 0.46595 0.97499 0.0
H3024 H 0.50723 0.69531 0.97673 0.0
H3025 H 0.50795 0.6973 0.94974 0.0
H3026 H 0.50829 0.6356 0.94744 0.0
H3027 H 0.50796 0.63362 0.97425 0.0
H3028 H 0.53936 0.66756 0.92938 0.0
H3029 H 0.45681 0.66024 0.92145 0.0
H3030 H 0.4752 0.6824 0.93345 0.0
H3031 H 0.46533 0.65413 0.93879 0.0
C3032 C 0.5074 0.68214 0.97048 0.0
C3033 C 0.50749 0.66429 0.97767 0.0
C3034 C 0.50768 0.68325 0.95506 0.0
C3035 C 0.50786 0.66643 0.94661 0.0
C3036 C 0.50808 0.64871 0.95376 0.0
H3037 H 0.48011 0.63759 0.85352 0.0
H3038 H 0.47964 0.63699 0.88052 0.0
C3039 C 0.50789 0.64762 0.96911 0.0
C3040 C 0.50835 0.66737 0.9303 0.0
H3041 H 0.47905 0.66734 0.90011 0.0
C3042 C 0.52619 0.66753 0.92297 0.0
C3043 C 0.49097 0.667 0.92199 0.0
C3044 C 0.47087 0.66573 0.92928 0.0
C3045 C 0.52719 0.66743 0.90753 0.0
C3046 C 0.5101 0.66762 0.89922 0.0
C3047 C 0.49219 0.66733 0.90654 0.0
C3048 C 0.51047 0.66801 0.8829 0.0
C3049 C 0.54629 0.6666 0.90027 0.0
C3050 C 0.52786 0.68574 0.87534 0.0
C3051 C 0.52827 0.68608 0.85995 0.0
C3052 C 0.51114 0.66878 0.85181 0.0
C3053 C 0.49359 0.65113 0.85944 0.0
C3054 C 0.49326 0.65079 0.87486 0.0
H3055 H 0.55446 0.66048 0.90797 0.0
H3056 H 0.54066 0.65573 0.89039 0.0
H3057 H 0.55889 0.68356 0.89672 0.0
H3058 H 0.54106 0.69943 0.88134 0.0
H3059 H 0.54194 0.70003 0.85445 0.0
H3060 H 0.34903 0.46936 0.47391 0.0
H3061 H 0.34836 0.47042 0.44703 0.0
H3062 H 0.30743 0.50074 0.44893 0.0
H3063 H 0.30737 0.49903 0.47589 0.0
H3064 H 0.29308 0.46967 0.42822 0.0
H3065 H 0.38374 0.52415 0.4218 0.0
H3066 H 0.37704 0.49942 0.43188 0.0
H3067 H 0.3701 0.51911 0.43946 0.0
C3068 C 0.33985 0.47624 0.46862 0.0
C3069 C 0.32839 0.48427 0.47703 0.0
C3070 C 0.33964 0.477 0.45325 0.0
C3071 C 0.32837 0.48623 0.44598 0.0
C3072 C 0.31642 0.49374 0.45432 0.0
H3073 H 0.34894 0.52135 0.35255 0.0
H3074 H 0.3487 0.52248 0.37953 0.0
C3075 C 0.31637 0.49271 0.46972 0.0
C3076 C 0.32875 0.48767 0.42966 0.0
H3077 H 0.36356 0.50589 0.39996 0.0
C3078 C 0.30849 0.47775 0.42204 0.0
C3079 C 0.34885 0.49862 0.42161 0.0
C3080 C 0.37114 0.51113 0.42912 0.0
C3081 C 0.30778 0.4779 0.40658 0.0
C3082 C 0.3279 0.48763 0.39852 0.0
C3083 C 0.34815 0.49814 0.40614 0.0
C3084 C 0.32831 0.48692 0.38219 0.0
C3085 C 0.28546 0.46789 0.39909 0.0
C3086 C 0.3174 0.46654 0.37474 0.0
C3087 C 0.31729 0.46587 0.35937 0.0
C3088 C 0.3285 0.48555 0.35112 0.0
C3089 C 0.34014 0.50591 0.35859 0.0
C3090 C 0.33999 0.50658 0.374 0.0
H3091 H 0.27273 0.46788 0.40649 0.0
H3092 H 0.2863 0.47702 0.38885 0.0
H3093 H 0.27989 0.4504 0.39616 0.0
H3094 H 0.30891 0.45111 0.38083 0.0
H3095 H 0.30841 0.44989 0.35394 0.0
H3096 H 0.50312 0.80682 0.47864 0.0
H3097 H 0.5031 0.80434 0.45166 0.0
H3098 H 0.50487 0.86698 0.44827 0.0
H3099 H 0.50518 0.8698 0.47505 0.0
H3100 H 0.47294 0.80468 0.43084 0.0
H3101 H 0.55782 0.87616 0.42315 0.0
H3102 H 0.54767 0.86296 0.44081 0.0
H3103 H 0.54019 0.8826 0.43399 0.0
C3104 C 0.50355 0.82008 0.47215 0.0
C3105 C 0.50435 0.83859 0.47902 0.0
C3106 C 0.5035 0.81861 0.45675 0.0
C3107 C 0.50434 0.83565 0.44801 0.0
C3108 C 0.50468 0.85388 0.45483 0.0
H3109 H 0.47438 0.83666 0.35528 0.0
H3110 H 0.47349 0.83513 0.38226 0.0
C3111 C 0.50477 0.8554 0.47016 0.0
C3112 C 0.50482 0.83451 0.43174 0.0
H3113 H 0.53539 0.86252 0.40163 0.0
C3114 C 0.48664 0.81721 0.42442 0.0
C3115 C 0.52284 0.85075 0.42345 0.0
C3116 C 0.54334 0.86906 0.43074 0.0
C3117 C 0.48577 0.81603 0.40896 0.0
C3118 C 0.50339 0.83282 0.40066 0.0
C3119 C 0.52178 0.8498 0.40802 0.0
C3120 C 0.50335 0.83301 0.38433 0.0
C3121 C 0.46614 0.79672 0.40165 0.0
C3122 C 0.52069 0.83283 0.37659 0.0
C3123 C 0.52141 0.83397 0.36122 0.0
C3124 C 0.50478 0.83535 0.35327 0.0
C3125 C 0.48738 0.8355 0.36106 0.0
C3126 C 0.48675 0.83446 0.37647 0.0
H3127 H 0.45733 0.7825 0.40934 0.0
H3128 H 0.45422 0.80197 0.39806 0.0
H3129 H 0.47136 0.79104 0.39178 0.0
H3130 H 0.53373 0.83183 0.38245 0.0
H3131 H 0.53504 0.83376 0.3556 0.0
H3132 H 0.152 0.69453 0.35684 0.0
H3133 H 0.15216 0.69259 0.38367 0.0
H3134 H 0.15257 0.63094 0.38109 0.0
H3135 H 0.15282 0.6329 0.35412 0.0
H3136 H 0.12164 0.66065 0.40206 0.0
H3137 H 0.2044 0.66807 0.40877 0.0
H3138 H 0.19539 0.67409 0.3916 0.0
H3139 H 0.18578 0.64585 0.39692 0.0
C3140 C 0.15218 0.68055 0.36193 0.0
C3141 C 0.1525 0.66391 0.35331 0.0
C3142 C 0.15227 0.67949 0.37729 0.0
C3143 C 0.1527 0.6618 0.38435 0.0
C3144 C 0.15272 0.64498 0.37583 0.0
H3145 H 0.12088 0.62803 0.47681 0.0
H3146 H 0.12122 0.62833 0.4499 0.0
C3147 C 0.15272 0.64606 0.36043 0.0
C3148 C 0.15264 0.66088 0.40066 0.0
H3149 H 0.18259 0.66061 0.43038 0.0
C3150 C 0.13496 0.66064 0.40827 0.0
C3151 C 0.17019 0.66116 0.40869 0.0
C3152 C 0.19013 0.66251 0.40112 0.0
C3153 C 0.13427 0.66056 0.42372 0.0
C3154 C 0.15154 0.66027 0.43175 0.0
C3155 C 0.1693 0.66065 0.42416 0.0
C3156 C 0.15161 0.65988 0.44806 0.0
C3157 C 0.11533 0.66128 0.43129 0.0
C3158 C 0.16892 0.67725 0.45594 0.0
C3159 C 0.1689 0.67708 0.47135 0.0
C3160 C 0.15156 0.65947 0.47915 0.0
C3161 C 0.13439 0.64195 0.47118 0.0
C3162 C 0.13449 0.64212 0.45578 0.0
H3163 H 0.10685 0.66728 0.42378 0.0
H3164 H 0.10293 0.64432 0.43497 0.0
H3165 H 0.12123 0.67221 0.44115 0.0
H3166 H 0.18234 0.69107 0.45016 0.0
H3167 H 0.1824 0.6908 0.47714 0.0
H3168 H 0.0961 0.42307 0.0689 0.0
H3169 H 0.07874 0.38749 0.08205 0.0
H3170 H 0.11212 0.36419 0.05322 0.0
H3171 H 0.12968 0.39982 0.04023 0.0
H3172 H 0.05091 0.34602 0.07123 0.0
H3173 H 0.12712 0.35029 0.09357 0.0
H3174 H 0.12697 0.37411 0.08586 0.0
H3175 H 0.12783 0.35388 0.07395 0.0
C3176 C 0.09977 0.41034 0.06548 0.0
C3177 C 0.11434 0.41412 0.05372 0.0
C3178 C 0.0899 0.39009 0.07297 0.0
C3179 C 0.09447 0.37337 0.06878 0.0
C3180 C 0.10885 0.37708 0.05689 0.0
H3181 H 0.04203 0.23602 0.09451 0.0
H3182 H 0.06067 0.27217 0.08198 0.0
C3183 C 0.1188 0.39736 0.04947 0.0
C3184 C 0.08353 0.35173 0.07648 0.0
H3185 H 0.09374 0.31547 0.09555 0.0
C3186 C 0.06026 0.3394 0.07663 0.0
C3187 C 0.09581 0.34315 0.0835 0.0
C3188 C 0.12081 0.35613 0.08436 0.0
C3189 C 0.04892 0.31854 0.08342 0.0
C3190 C 0.06121 0.30991 0.09029 0.0
C3191 C 0.08445 0.32218 0.09017 0.0
C3192 C 0.05016 0.28825 0.09786 0.0
C3193 C 0.0239 0.30568 0.08302 0.0
C3194 C 0.03839 0.28557 0.11097 0.0
C3195 C 0.02798 0.26511 0.11816 0.0
C3196 C 0.02917 0.24706 0.11233 0.0
C3197 C 0.04105 0.24979 0.09924 0.0
C3198 C 0.05159 0.27032 0.09209 0.0
H3199 H 0.01709 0.31267 0.07491 0.0
H3200 H 0.0178 0.28802 0.08022 0.0
H3201 H 0.01736 0.30619 0.09409 0.0
H3202 H 0.03739 0.29935 0.11567 0.0
H3203 H 0.01914 0.26343 0.12835 0.0
H3204 H 0.57232 0.66901 0.06666 0.0
H3205 H 0.60837 0.68716 0.07911 0.0
H3206 H 0.62727 0.7472 0.05464 0.0
H3207 H 0.59175 0.72868 0.0416 0.0
H3208 H 0.65973 0.73736 0.05466 0.0
H3209 H 0.62915 0.73227 0.11175 0.0
H3210 H 0.61732 0.70567 0.10298 0.0
H3211 H 0.61149 0.72635 0.09585 0.0
C3212 C 0.58424 0.68605 0.06394 0.0
C3213 C 0.5793 0.6975 0.05323 0.0
C3214 C 0.60468 0.69649 0.07117 0.0
C3215 C 0.62034 0.71866 0.06799 0.0
C3216 C 0.61536 0.73013 0.05733 0.0
H3217 H 0.73627 0.80088 0.12121 0.0
H3218 H 0.70086 0.78428 0.10812 0.0
C3219 C 0.59502 0.71962 0.04999 0.0
C3220 C 0.64224 0.7297 0.07537 0.0
H3221 H 0.66723 0.7428 0.10911 0.0
C3222 C 0.66139 0.73867 0.06657 0.0
C3223 C 0.64436 0.73166 0.09089 0.0
C3224 C 0.62449 0.72368 0.10092 0.0
C3225 C 0.68263 0.74932 0.07287 0.0
C3226 C 0.68473 0.75044 0.08841 0.0
C3227 C 0.66558 0.74171 0.0972 0.0
C3228 C 0.7066 0.76096 0.09581 0.0
C3229 C 0.70257 0.75968 0.0628 0.0
C3230 C 0.72157 0.75335 0.09326 0.0
C3231 C 0.74202 0.76315 0.1005 0.0
C3232 C 0.74761 0.78042 0.11061 0.0
C3233 C 0.73253 0.78786 0.11327 0.0
C3234 C 0.71223 0.77825 0.1059 0.0
H3235 H 0.69826 0.76317 0.0517 0.0
H3236 H 0.71608 0.7754 0.06748 0.0
H3237 H 0.70893 0.74801 0.06137 0.0
H3238 H 0.71737 0.73968 0.08577 0.0
H3239 H 0.75343 0.75721 0.09822 0.0
H3240 H 0.23713 0.9728 0.12708 0.0
H3241 H 0.25464 0.95427 0.11461 0.0
H3242 H 0.2051 0.93224 0.08032 0.0
H3243 H 0.18808 0.95155 0.09251 0.0
H3244 H 0.23743 0.91037 0.10794 0.0
H3245 H 0.26245 0.9611 0.05684 0.0
H3246 H 0.25327 0.96901 0.07317 0.0
H3247 H 0.23338 0.94829 0.06092 0.0
C3248 C 0.23017 0.96418 0.11679 0.0
C3249 C 0.2114 0.96365 0.11066 0.0
C3250 C 0.24007 0.95353 0.10974 0.0
C3251 C 0.23137 0.94218 0.09643 0.0
C3252 C 0.21236 0.94131 0.09042 0.0
H3253 H 0.26679 0.86402 0.04009 0.0
H3254 H 0.24788 0.8812 0.05261 0.0
C3255 C 0.20252 0.9521 0.09744 0.0
C3256 C 0.24206 0.93099 0.08903 0.0
H3257 H 0.26724 0.92965 0.05704 0.0
C3258 C 0.24402 0.91463 0.09683 0.0
C3259 C 0.25067 0.93665 0.07455 0.0
C3260 C 0.25006 0.95486 0.06591 0.0
C3261 C 0.25416 0.90358 0.09046 0.0
C3262 C 0.26264 0.90917 0.07598 0.0
C3263 C 0.26062 0.92543 0.06814 0.0
C3264 C 0.27381 0.8984 0.06877 0.0
C3265 C 0.25552 0.88582 0.09914 0.0
C3266 C 0.29463 0.90253 0.07374 0.0
C3267 C 0.30543 0.8928 0.0666 0.0
C3268 C 0.29549 0.8788 0.05445 0.0
C3269 C 0.27462 0.87461 0.04955 0.0
C3270 C 0.2639 0.88444 0.05662 0.0
H3271 H 0.24459 0.88061 0.10901 0.0
H3272 H 0.25085 0.87104 0.09213 0.0
H3273 H 0.27285 0.89226 0.10289 0.0
H3274 H 0.3026 0.91347 0.08302 0.0
H3275 H 0.3215 0.89617 0.07056 0.0
H3276 H 0.23959 0.00472 0.40053 0.0
H3277 H 0.27546 0.02393 0.41312 0.0
H3278 H 0.29213 0.08379 0.38908 0.0
H3279 H 0.25696 0.06416 0.37575 0.0
H3280 H 0.32585 0.07709 0.38918 0.0
H3281 H 0.29438 0.06722 0.44632 0.0
H3282 H 0.28406 0.04099 0.43726 0.0
H3283 H 0.2765 0.06064 0.43048 0.0
C3284 C 0.25099 0.02194 0.39791 0.0
C3285 C 0.2455 0.03301 0.38724 0.0
C3286 C 0.27133 0.033 0.40525 0.0
C3287 C 0.2863 0.05546 0.4023 0.0
C3288 C 0.28077 0.06652 0.39165 0.0
H3289 H 0.40107 0.13576 0.45783 0.0
H3290 H 0.36567 0.11989 0.44471 0.0
C3291 C 0.2606 0.05537 0.38414 0.0
C3292 C 0.30813 0.06719 0.40981 0.0
H3293 H 0.33286 0.07885 0.44365 0.0
C3294 C 0.32737 0.07764 0.4011 0.0
C3295 C 0.31012 0.06823 0.42536 0.0
C3296 C 0.29014 0.05887 0.43539 0.0
C3297 C 0.34855 0.08874 0.40748 0.0
C3298 C 0.35057 0.0887 0.42301 0.0
C3299 C 0.33132 0.07863 0.43173 0.0
C3300 C 0.37244 0.09899 0.43047 0.0
C3301 C 0.36846 0.10072 0.39751 0.0
C3302 C 0.388 0.09249 0.42687 0.0
C3303 C 0.40842 0.10196 0.43411 0.0
C3304 C 0.41343 0.11769 0.44531 0.0
C3305 C 0.39777 0.12396 0.44905 0.0
C3306 C 0.37748 0.11476 0.44166 0.0
H3307 H 0.36392 0.10531 0.38686 0.0
H3308 H 0.38172 0.11603 0.40278 0.0
H3309 H 0.37521 0.08963 0.395 0.0
H3310 H 0.38427 0.07993 0.41857 0.0
H3311 H 0.42027 0.09692 0.43098 0.0
H3312 H 0.85771 0.26615 0.45532 0.0
H3313 H 0.87501 0.2475 0.44284 0.0
H3314 H 0.9172 0.30741 0.41855 0.0
H3315 H 0.89888 0.32566 0.43034 0.0
H3316 H 0.9021 0.27228 0.40114 0.0
H3317 H 0.93489 0.25575 0.45228 0.0
H3318 H 0.90533 0.24376 0.45272 0.0
H3319 H 0.92286 0.27345 0.45198 0.0
C3320 C 0.87043 0.27521 0.44715 0.0
C3321 C 0.87704 0.29735 0.44381 0.0
C3322 C 0.88056 0.26466 0.4402 0.0
C3323 C 0.89779 0.27623 0.43004 0.0
C3324 C 0.90408 0.29823 0.42647 0.0
H3325 H 0.99106 0.23555 0.40132 0.0
H3326 H 0.9724 0.25349 0.41306 0.0
C3327 C 0.89373 0.30867 0.43326 0.0
C3328 C 0.90915 0.26539 0.42301 0.0
H3329 H 0.93727 0.23801 0.43047 0.0
C3330 C 0.90988 0.26487 0.40755 0.0
C3331 C 0.91962 0.25605 0.43138 0.0
C3332 C 0.92087 0.25747 0.448 0.0
C3333 C 0.92058 0.25508 0.40023 0.0
C3334 C 0.93017 0.24486 0.4086 0.0
C3335 C 0.92966 0.2456 0.42406 0.0
C3336 C 0.94128 0.23376 0.40157 0.0
C3337 C 0.92195 0.25631 0.38361 0.0
C3338 C 0.92988 0.21648 0.39141 0.0
C3339 C 0.94067 0.20658 0.38449 0.0
C3340 C 0.96287 0.21344 0.38786 0.0
C3341 C 0.97402 0.23019 0.39839 0.0
C3342 C 0.96334 0.24032 0.40516 0.0
H3343 H 0.92001 0.27019 0.37932 0.0
H3344 H 0.93802 0.25853 0.37962 0.0
H3345 H 0.90837 0.24068 0.3789 0.0
H3346 H 0.91268 0.21072 0.38876 0.0
H3347 H 0.93174 0.19381 0.37632 0.0
H3348 H 0.8048 0.76061 0.40364 0.0
H3349 H 0.788 0.72419 0.4157 0.0
H3350 H 0.73982 0.69621 0.38064 0.0
H3351 H 0.75708 0.73238 0.36834 0.0
H3352 H 0.74543 0.69882 0.4259 0.0
H3353 H 0.76295 0.65309 0.38282 0.0
H3354 H 0.77626 0.68296 0.38308 0.0
H3355 H 0.74856 0.6666 0.37596 0.0
C3356 C 0.79081 0.74656 0.39846 0.0
C3357 C 0.78228 0.74912 0.38506 0.0
C3358 C 0.78119 0.72585 0.40536 0.0
C3359 C 0.76291 0.70743 0.39893 0.0
C3360 C 0.75422 0.71008 0.38561 0.0
H3361 H 0.67277 0.57255 0.42703 0.0
H3362 H 0.69162 0.60843 0.41414 0.0
C3363 C 0.76391 0.73074 0.37869 0.0
C3364 C 0.7524 0.68564 0.40643 0.0
H3365 H 0.73785 0.63133 0.40186 0.0
C3366 C 0.74391 0.6841 0.4207 0.0
C3367 C 0.75045 0.66647 0.39959 0.0
C3368 C 0.76022 0.66734 0.38457 0.0
C3369 C 0.73314 0.66378 0.4282 0.0
C3370 C 0.73098 0.64462 0.42129 0.0
C3371 C 0.7395 0.64611 0.40706 0.0
C3372 C 0.72 0.62286 0.42875 0.0
C3373 C 0.72377 0.66282 0.44337 0.0
C3374 C 0.72994 0.61916 0.44104 0.0
C3375 C 0.71927 0.59878 0.44833 0.0
C3376 C 0.69853 0.58186 0.44342 0.0
C3377 C 0.68873 0.58547 0.431 0.0
C3378 C 0.69947 0.60583 0.42365 0.0
H3379 H 0.72311 0.67808 0.44598 0.0
H3380 H 0.70679 0.64826 0.44434 0.0
H3381 H 0.73438 0.66098 0.45173 0.0
H3382 H 0.74588 0.63209 0.44502 0.0
H3383 H 0.72703 0.59637 0.45796 0.0
H3384 H 0.98319 0.75848 0.90615 0.0
H3385 H 0.96331 0.72193 0.91808 0.0
H3386 H 0.91132 0.70033 0.88557 0.0
H3387 H 0.93129 0.73674 0.87354 0.0
H3388 H 0.9174 0.69831 0.92922 0.0
H3389 H 0.93342 0.65437 0.88377 0.0
H3390 H 0.94933 0.68411 0.88602 0.0
H3391 H 0.92179 0.67135 0.87853 0.0
C3392 C 0.96749 0.74589 0.90163 0.0
C3393 C 0.95871 0.75023 0.88897 0.0
C3394 C 0.95616 0.72514 0.90843 0.0
C3395 C 0.93602 0.70846 0.90258 0.0
C3396 C 0.92697 0.71296 0.89013 0.0
H3397 H 0.85325 0.56908 0.92612 0.0
H3398 H 0.86871 0.60559 0.91429 0.0
C3399 C 0.93827 0.73373 0.88336 0.0
C3400 C 0.92468 0.68622 0.90938 0.0
H3401 H 0.91124 0.63251 0.90353 0.0
C3402 C 0.916 0.68389 0.92364 0.0
C3403 C 0.92286 0.66751 0.90197 0.0
C3404 C 0.93245 0.66934 0.88676 0.0
C3405 C 0.90541 0.6632 0.93071 0.0
C3406 C 0.90397 0.64456 0.92343 0.0
C3407 C 0.9124 0.64686 0.90908 0.0
C3408 C 0.89439 0.62263 0.93066 0.0
C3409 C 0.89562 0.66146 0.94584 0.0
C3410 C 0.90392 0.62013 0.94363 0.0
C3411 C 0.89506 0.59942 0.95039 0.0
C3412 C 0.87669 0.58085 0.9442 0.0
C3413 C 0.86733 0.58326 0.93112 0.0
C3414 C 0.87616 0.60402 0.92437 0.0
H3415 H 0.89237 0.6753 0.94798 0.0
H3416 H 0.87987 0.64551 0.94719 0.0
H3417 H 0.90752 0.66227 0.9543 0.0
H3418 H 0.91829 0.63419 0.94848 0.0
H3419 H 0.90246 0.59794 0.96052 0.0
H3420 H 0.26071 0.19955 0.87327 0.0
H3421 H 0.2967 0.21734 0.88593 0.0
H3422 H 0.2726 0.24775 0.91665 0.0
H3423 H 0.23652 0.22986 0.90404 0.0
H3424 H 0.32477 0.2659 0.8909 0.0
H3425 H 0.29864 0.21545 0.9423 0.0
H3426 H 0.28314 0.206 0.9253 0.0
H3427 H 0.28156 0.22661 0.93628 0.0
C3428 C 0.2631 0.20987 0.88282 0.0
C3429 C 0.24599 0.21337 0.88777 0.0
C3430 C 0.2836 0.22005 0.88997 0.0
C3431 C 0.28714 0.23366 0.90226 0.0
C3432 C 0.27003 0.2371 0.90727 0.0
H3433 H 0.39746 0.30699 0.96162 0.0
H3434 H 0.36168 0.2895 0.9488 0.0
C3435 C 0.24956 0.22701 0.90005 0.0
C3436 C 0.30898 0.24475 0.90959 0.0
H3437 H 0.33528 0.24575 0.94154 0.0
C3438 C 0.32716 0.2615 0.90195 0.0
C3439 C 0.31186 0.23894 0.92401 0.0
C3440 C 0.29285 0.22067 0.93248 0.0
C3441 C 0.34823 0.27293 0.90848 0.0
C3442 C 0.35119 0.26702 0.92288 0.0
C3443 C 0.33295 0.25022 0.9305 0.0
C3444 C 0.37303 0.27811 0.93031 0.0
C3445 C 0.36696 0.29159 0.90005 0.0
C3446 C 0.3912 0.27741 0.92419 0.0
C3447 C 0.41166 0.28759 0.93142 0.0
C3448 C 0.41414 0.29836 0.94495 0.0
C3449 C 0.39594 0.29895 0.95111 0.0
C3450 C 0.37554 0.28889 0.94385 0.0
H3451 H 0.36069 0.29798 0.89115 0.0
H3452 H 0.37774 0.30555 0.90749 0.0
H3453 H 0.37726 0.2854 0.89485 0.0
H3454 H 0.38949 0.26879 0.9139 0.0
H3455 H 0.42554 0.28703 0.92647 0.0
H3456 H 0.67278 0.10242 0.9268 0.0
H3457 H 0.6924 0.08581 0.91443 0.0
H3458 H 0.74428 0.11465 0.94711 0.0
H3459 H 0.72462 0.13115 0.95953 0.0
H3460 H 0.73938 0.10937 0.9037 0.0
H3461 H 0.72107 0.04577 0.94699 0.0
H3462 H 0.70504 0.05952 0.94498 0.0
H3463 H 0.73214 0.07394 0.95312 0.0
C3464 C 0.68838 0.10518 0.93128 0.0
C3465 C 0.69726 0.11795 0.94407 0.0
C3466 C 0.69956 0.09578 0.92423 0.0
C3467 C 0.71962 0.09888 0.92997 0.0
C3468 C 0.72869 0.11194 0.94262 0.0
H3469 H 0.80325 0.04392 0.9055 0.0
H3470 H 0.78672 0.06365 0.91779 0.0
C3471 C 0.71757 0.12143 0.94963 0.0
C3472 C 0.73099 0.0883 0.92277 0.0
H3473 H 0.74391 0.04742 0.92725 0.0
C3474 C 0.7404 0.09582 0.90881 0.0
C3475 C 0.73232 0.07075 0.92957 0.0
C3476 C 0.72201 0.06183 0.94446 0.0
C3477 C 0.75134 0.08631 0.90145 0.0
C3478 C 0.75234 0.06845 0.90812 0.0
C3479 C 0.74308 0.06109 0.92217 0.0
C3480 C 0.76255 0.05689 0.90061 0.0
C3481 C 0.76203 0.09571 0.88673 0.0
C3482 C 0.75422 0.04632 0.88702 0.0
C3483 C 0.76376 0.03529 0.87997 0.0
C3484 C 0.7816 0.03445 0.88649 0.0
C3485 C 0.78968 0.04465 0.90021 0.0
C3486 C 0.78021 0.05579 0.90723 0.0
H3487 H 0.76546 0.11299 0.88526 0.0
H3488 H 0.77784 0.09557 0.88548 0.0
H3489 H 0.75063 0.08546 0.87778 0.0
H3490 H 0.74026 0.0465 0.88189 0.0
H3491 H 0.75728 0.02751 0.86939 0.0
H3492 H 0.57362 0.9044 0.56585 0.0
H3493 H 0.60991 0.92278 0.57802 0.0
H3494 H 0.62721 0.87872 0.55575 0.0
H3495 H 0.59165 0.86138 0.54287 0.0
H3496 H 0.62868 0.90765 0.59657 0.0
H3497 H 0.68005 0.93756 0.54608 0.0
H3498 H 0.65042 0.92623 0.54579 0.0
H3499 H 0.66191 0.90809 0.54585 0.0
C3500 C 0.58534 0.89891 0.56341 0.0
C3501 C 0.57995 0.88162 0.55334 0.0
C3502 C 0.60597 0.90928 0.57043 0.0
C3503 C 0.62146 0.90242 0.56756 0.0
C3504 C 0.61578 0.88469 0.55784 0.0
H3505 H 0.73443 0.9324 0.62356 0.0
H3506 H 0.69871 0.91472 0.61074 0.0
C3507 C 0.59531 0.87455 0.55067 0.0
C3508 C 0.64338 0.91353 0.57494 0.0
H3509 H 0.69906 0.93918 0.56835 0.0
C3510 C 0.64409 0.91468 0.5904 0.0
C3511 C 0.66348 0.92304 0.56687 0.0
C3512 C 0.66397 0.9239 0.55023 0.0
C3513 C 0.66432 0.92473 0.59803 0.0
C3514 C 0.68437 0.9332 0.58999 0.0
C3515 C 0.68367 0.93239 0.57452 0.0
C3516 C 0.7063 0.94343 0.59735 0.0
C3517 C 0.66397 0.92659 0.61461 0.0
C3518 C 0.72282 0.96502 0.59358 0.0
C3519 C 0.74344 0.97486 0.60056 0.0
C3520 C 0.74783 0.96335 0.61153 0.0
C3521 C 0.73149 0.94159 0.61509 0.0
C3522 C 0.71097 0.93162 0.60794 0.0
H3523 H 0.64839 0.9257 0.61848 0.0
H3524 H 0.66491 0.9126 0.61971 0.0
H3525 H 0.67824 0.94237 0.61859 0.0
H3526 H 0.71967 0.97437 0.58533 0.0
H3527 H 0.75592 0.99153 0.59744 0.0
H3528 H 0.00837 0.76779 0.59312 0.0
H3529 H 0.02799 0.75134 0.58056 0.0
H3530 H 0.08127 0.78219 0.61214 0.0
H3531 H 0.06157 0.79842 0.6248 0.0
H3532 H 0.0734 0.77393 0.56855 0.0
H3533 H 0.05994 0.71433 0.6137 0.0
H3534 H 0.04371 0.72791 0.61199 0.0
H3535 H 0.0715 0.74288 0.61905 0.0
C3536 C 0.02429 0.77104 0.59731 0.0
C3537 C 0.03353 0.78426 0.60988 0.0
C3538 C 0.03547 0.76174 0.59015 0.0
C3539 C 0.05592 0.7654 0.59555 0.0
C3540 C 0.06538 0.77901 0.60793 0.0
H3541 H 0.14047 0.71172 0.57066 0.0
H3542 H 0.12438 0.73213 0.58258 0.0
C3543 C 0.05424 0.78837 0.61506 0.0
C3544 C 0.06718 0.75469 0.58837 0.0
H3545 H 0.08202 0.71533 0.59363 0.0
C3546 C 0.07531 0.76111 0.574 0.0
C3547 C 0.06965 0.73807 0.59558 0.0
C3548 C 0.06062 0.73019 0.61089 0.0
C3549 C 0.08609 0.75142 0.56665 0.0
C3550 C 0.08829 0.73455 0.57378 0.0
C3551 C 0.0803 0.72828 0.58821 0.0
C3552 C 0.09837 0.7228 0.56637 0.0
C3553 C 0.09532 0.75958 0.55142 0.0
C3554 C 0.08891 0.71064 0.55343 0.0
C3555 C 0.09815 0.69917 0.5466 0.0
C3556 C 0.11684 0.6995 0.55269 0.0
C3557 C 0.12617 0.71146 0.56572 0.0
C3558 C 0.11698 0.723 0.57252 0.0
H3559 H 0.09796 0.77646 0.54933 0.0
H3560 H 0.11131 0.75992 0.54982 0.0
H3561 H 0.08336 0.74822 0.54308 0.0
H3562 H 0.07426 0.70986 0.54868 0.0
H3563 H 0.09074 0.6901 0.53653 0.0
H3564 H 0.18794 0.23682 0.59356 0.0
H3565 H 0.20583 0.27322 0.58135 0.0
H3566 H 0.25447 0.30008 0.61616 0.0
H3567 H 0.23643 0.2639 0.62851 0.0
H3568 H 0.21495 0.3161 0.59473 0.0
H3569 H 0.29042 0.31443 0.57642 0.0
H3570 H 0.26494 0.28958 0.58129 0.0
H3571 H 0.28269 0.30778 0.59547 0.0
C3572 C 0.20237 0.25058 0.5986 0.0
C3573 C 0.21091 0.24768 0.61191 0.0
C3574 C 0.21257 0.27125 0.59163 0.0
C3575 C 0.23155 0.28917 0.59781 0.0
C3576 C 0.24001 0.28632 0.61115 0.0
H3577 H 0.32115 0.42446 0.56969 0.0
H3578 H 0.3024 0.38903 0.58302 0.0
C3579 C 0.22975 0.26571 0.61815 0.0
C3580 C 0.24245 0.31096 0.59039 0.0
H3581 H 0.28983 0.34764 0.57243 0.0
C3582 C 0.23129 0.32303 0.5898 0.0
C3583 C 0.26379 0.31988 0.58411 0.0
C3584 C 0.27619 0.30725 0.58421 0.0
C3585 C 0.2411 0.34407 0.58321 0.0
C3586 C 0.26238 0.35292 0.57675 0.0
C3587 C 0.27353 0.34082 0.5774 0.0
C3588 C 0.27328 0.37456 0.56905 0.0
C3589 C 0.22879 0.35679 0.58351 0.0
C3590 C 0.26318 0.37806 0.55674 0.0
C3591 C 0.27381 0.39824 0.5492 0.0
C3592 C 0.29479 0.41511 0.55376 0.0
C3593 C 0.30496 0.41161 0.566 0.0
C3594 C 0.29428 0.39146 0.57359 0.0
H3595 H 0.21616 0.35081 0.59243 0.0
H3596 H 0.24037 0.37481 0.5851 0.0
H3597 H 0.22006 0.35446 0.57286 0.0
H3598 H 0.24725 0.36505 0.55281 0.0
H3599 H 0.26583 0.4005 0.53963 0.0
H3600 H 0.09011 0.43393 0.75909 0.0
H3601 H 0.05426 0.4169 0.74625 0.0
H3602 H 0.0295 0.44477 0.77849 0.0
H3603 H 0.06538 0.462 0.79118 0.0
H3604 H 0.01345 0.38645 0.75698 0.0
H3605 H 0.01328 0.46293 0.74005 0.0
H3606 H 0.03793 0.46326 0.7466 0.0
H3607 H 0.0175 0.46163 0.75947 0.0
C3608 C 0.07699 0.43647 0.76333 0.0
C3609 C 0.08039 0.44932 0.77601 0.0
C3610 C 0.0566 0.4268 0.75601 0.0
C3611 C 0.03935 0.42988 0.76128 0.0
C3612 C 0.04275 0.44265 0.77402 0.0
H3613 H 0.90071 0.37488 0.73746 0.0
H3614 H 0.9371 0.39387 0.74967 0.0
C3615 C 0.06317 0.45241 0.78128 0.0
C3616 C 0.01751 0.41894 0.75381 0.0
H3617 H 0.97934 0.42888 0.73713 0.0
C3618 C 0.00606 0.39573 0.75256 0.0
C3619 C 0.00789 0.43111 0.74808 0.0
C3620 C 0.01986 0.45612 0.74847 0.0
C3621 C 0.98507 0.38433 0.74592 0.0
C3622 C 0.97544 0.39648 0.74029 0.0
C3623 C 0.98682 0.41966 0.74154 0.0
C3624 C 0.95365 0.38539 0.73284 0.0
C3625 C 0.97319 0.35933 0.74518 0.0
C3626 C 0.95111 0.37468 0.71929 0.0
C3627 C 0.93049 0.36405 0.71229 0.0
C3628 C 0.91214 0.36401 0.71874 0.0
C3629 C 0.91472 0.37489 0.73224 0.0
C3630 C 0.9354 0.38563 0.73922 0.0
H3631 H 0.98065 0.35229 0.75274 0.0
H3632 H 0.95537 0.35215 0.748 0.0
H3633 H 0.97422 0.35415 0.73377 0.0
H3634 H 0.96511 0.37462 0.71411 0.0
H3635 H 0.9289 0.35595 0.70179 0.0
H3636 H 0.61919 0.52387 0.74088 0.0
H3637 H 0.59918 0.54047 0.75274 0.0
H3638 H 0.61909 0.58825 0.71745 0.0
H3639 H 0.63844 0.57126 0.70539 0.0
H3640 H 0.61572 0.58354 0.76258 0.0
H3641 H 0.55228 0.56325 0.71918 0.0
H3642 H 0.56932 0.55047 0.71996 0.0
H3643 H 0.5802 0.57781 0.7123 0.0
C3644 C 0.61903 0.53777 0.73564 0.0
C3645 C 0.63012 0.54625 0.72222 0.0
C3646 C 0.60773 0.54726 0.74241 0.0
C3647 C 0.60734 0.56531 0.73582 0.0
C3648 C 0.61876 0.57401 0.72253 0.0
H3649 H 0.56079 0.65509 0.75971 0.0
H3650 H 0.57795 0.63546 0.74805 0.0
C3651 C 0.62998 0.56448 0.71575 0.0
C3652 C 0.59557 0.57553 0.74304 0.0
H3653 H 0.5553 0.58913 0.73756 0.0
C3654 C 0.60238 0.5846 0.75718 0.0
C3655 C 0.57816 0.57684 0.73594 0.0
C3656 C 0.56939 0.56639 0.72107 0.0
C3657 C 0.59262 0.59551 0.76427 0.0
C3658 C 0.5755 0.59715 0.75706 0.0
C3659 C 0.56852 0.58789 0.74299 0.0
C3660 C 0.56478 0.60863 0.76391 0.0
C3661 C 0.60101 0.60568 0.77926 0.0
C3662 C 0.55152 0.59981 0.7765 0.0
C3663 C 0.54174 0.61093 0.7831 0.0
C3664 C 0.54509 0.631 0.77717 0.0
C3665 C 0.55811 0.63967 0.76446 0.0
C3666 C 0.56782 0.62849 0.75782 0.0
H3667 H 0.61705 0.60671 0.78203 0.0
H3668 H 0.60318 0.62259 0.77979 0.0
H3669 H 0.58867 0.59537 0.78777 0.0
H3670 H 0.54882 0.58436 0.78124 0.0
H3671 H 0.53184 0.60406 0.79297 0.0
H3672 H 0.33692 0.90455 0.76136 0.0
H3673 H 0.35576 0.94079 0.74897 0.0
H3674 H 0.40823 0.96474 0.78127 0.0
H3675 H 0.38936 0.92857 0.7937 0.0
H3676 H 0.38832 0.99285 0.77525 0.0
H3677 H 0.41544 0.96715 0.72493 0.0
H3678 H 0.38682 0.95004 0.73014 0.0
H3679 H 0.40822 0.9514 0.74188 0.0
C3680 C 0.3525 0.91759 0.76574 0.0
C3681 C 0.36183 0.91392 0.77838 0.0
C3682 C 0.36326 0.93816 0.75866 0.0
C3683 C 0.38345 0.95528 0.76416 0.0
C3684 C 0.39272 0.95165 0.77684 0.0
H3685 H 0.46807 0.09421 0.74018 0.0
H3686 H 0.45077 0.05817 0.75275 0.0
C3687 C 0.38203 0.93105 0.78387 0.0
C3688 C 0.39461 0.97718 0.75689 0.0
H3689 H 0.42123 0.00363 0.72528 0.0
C3690 C 0.39563 0.99531 0.76435 0.0
C3691 C 0.40399 0.98015 0.74268 0.0
C3692 C 0.40378 0.96123 0.73442 0.0
C3693 C 0.40543 0.01638 0.75781 0.0
C3694 C 0.4149 0.0194 0.74359 0.0
C3695 C 0.41396 0.00124 0.73618 0.0
C3696 C 0.42556 0.04119 0.73607 0.0
C3697 C 0.40498 0.03502 0.76601 0.0
C3698 C 0.4175 0.04341 0.72237 0.0
C3699 C 0.42756 0.06382 0.71512 0.0
C3700 C 0.44585 0.08232 0.72145 0.0
C3701 C 0.45401 0.0801 0.7351 0.0
C3702 C 0.44401 0.05963 0.74233 0.0
H3703 H 0.39208 0.02868 0.77476 0.0
H3704 H 0.4213 0.04554 0.77136 0.0
H3705 H 0.40181 0.0456 0.75837 0.0
H3706 H 0.40337 0.02934 0.71731 0.0
H3707 H 0.42116 0.06512 0.70451 0.0
H3708 H 0.65283 0.09002 0.2383 0.0
H3709 H 0.63396 0.05405 0.25106 0.0
H3710 H 0.58071 0.02992 0.21936 0.0
H3711 H 0.59959 0.06575 0.20654 0.0
H3712 H 0.58792 0.03128 0.26279 0.0
H3713 H 0.60308 0.98388 0.21939 0.0
H3714 H 0.61928 0.01373 0.22079 0.0
H3715 H 0.59176 0.00076 0.21326 0.0
C3716 C 0.63712 0.07696 0.23409 0.0
C3717 C 0.62758 0.08047 0.2215 0.0
C3718 C 0.62637 0.05655 0.24137 0.0
C3719 C 0.6061 0.03937 0.23603 0.0
C3720 C 0.59647 0.04295 0.22352 0.0
H3721 H 0.52039 0.90205 0.26178 0.0
H3722 H 0.53736 0.93833 0.24952 0.0
C3723 C 0.60715 0.06338 0.2163 0.0
C3724 C 0.59494 0.01769 0.24358 0.0
H3725 H 0.58024 0.96336 0.23936 0.0
C3726 C 0.58625 0.0164 0.25773 0.0
C3727 C 0.59276 -0.00159 0.23684 0.0
C3728 C 0.60232 -0.00086 0.22177 0.0
C3729 C 0.57512 0.99614 0.26529 0.0
C3730 C 0.57314 0.97685 0.25862 0.0
C3731 C 0.58178 0.97818 0.24443 0.0
C3732 C 0.56248 0.95517 0.26626 0.0
C3733 C 0.5652 0.99549 0.28022 0.0
C3734 C 0.57113 0.95265 0.27962 0.0
C3735 C 0.56136 0.93206 0.28665 0.0
C3736 C 0.54296 0.91367 0.28034 0.0
C3737 C 0.53442 0.91612 0.26691 0.0
C3738 C 0.54414 0.93674 0.2599 0.0
H3739 H 0.56259 0.00985 0.28182 0.0
H3740 H 0.54908 0.97996 0.28168 0.0
H3741 H 0.57671 0.99619 0.28894 0.0
H3742 H 0.58557 0.96653 0.28454 0.0
H3743 H 0.56818 0.93051 0.29703 0.0
H3744 H 0.9297 0.56963 0.20461 0.0
H3745 H 0.96553 0.58624 0.21725 0.0
H3746 H 0.93667 0.53649 0.25133 0.0
H3747 H 0.90051 0.52028 0.23891 0.0
H3748 H 0.96198 0.57885 0.26231 0.0
H3749 H 0.00835 0.56264 0.21902 0.0
H3750 H 0.99493 0.57717 0.21224 0.0
H3751 H 0.97846 0.54934 0.21912 0.0
C3752 C 0.93104 0.56232 0.21482 0.0
C3753 C 0.91249 0.54373 0.22083 0.0
C3754 C 0.95152 0.57164 0.22193 0.0
C3755 C 0.95383 0.56232 0.23507 0.0
C3756 C 0.93525 0.54379 0.24113 0.0
H3757 H 0.06652 0.60023 0.29348 0.0
H3758 H 0.03031 0.58047 0.28117 0.0
C3759 C 0.9147 0.53452 0.23403 0.0
C3760 C 0.97546 0.57251 0.24274 0.0
H3761 H 0.02999 0.58803 0.23805 0.0
C3762 C 0.97681 0.58067 0.25708 0.0
C3763 C 0.99475 0.57482 0.23585 0.0
C3764 C 0.99407 0.56534 0.22077 0.0
C3765 C -0.00287 0.59166 0.26458 0.0
C3766 C 0.01645 0.59437 0.25757 0.0
C3767 C 0.01509 0.58599 0.24331 0.0
C3768 C 0.03831 0.60604 0.26484 0.0
C3769 C -0.00205 0.60079 0.27981 0.0
C3770 C 0.05477 0.62672 0.25953 0.0
C3771 C 0.07538 0.63796 0.26652 0.0
C3772 C 0.07982 0.62853 0.27879 0.0
C3773 C 0.06343 0.60771 0.28396 0.0
C3774 C 0.04279 0.59652 0.27703 0.0
H3775 H 0.98238 0.60074 0.2826 0.0
H3776 H 0.00047 0.5905 0.28806 0.0
H3777 H 0.01208 0.61802 0.28073 0.0
H3778 H 0.05156 0.63423 0.25008 0.0
H3779 H 0.08789 0.65397 0.26233 0.0
H3780 H 0.42405 0.35745 0.20396 0.0
H3781 H 0.40729 0.37714 0.21592 0.0
H3782 H 0.45503 0.39697 0.25121 0.0
H3783 H 0.47161 0.3769 0.23938 0.0
H3784 H 0.39007 0.36894 0.24656 0.0
H3785 H 0.45746 0.45555 0.23589 0.0
H3786 H 0.45421 0.4323 0.22507 0.0
H3787 H 0.46545 0.43661 0.24336 0.0
C3788 C 0.43089 0.36598 0.21429 0.0
C3789 C 0.44907 0.36575 0.2208 0.0
C3790 C 0.4214 0.37725 0.22105 0.0
C3791 C 0.4301 0.38862 0.23433 0.0
C3792 C 0.44833 0.38851 0.24084 0.0
H3793 H 0.39263 0.46549 0.2905 0.0
H3794 H 0.41174 0.44809 0.27854 0.0
C3795 C 0.45775 0.3771 0.23411 0.0
C3796 C 0.4195 0.3999 0.2416 0.0
H3797 H 0.42709 0.45094 0.25019 0.0
C3798 C 0.3981 0.38687 0.24736 0.0
C3799 C 0.43019 0.42324 0.24265 0.0
C3800 C 0.45305 0.43787 0.23635 0.0
C3801 C 0.38707 0.39659 0.25431 0.0
C3802 C 0.39755 0.41998 0.25513 0.0
C3803 C 0.41907 0.43301 0.24947 0.0
C3804 C 0.38646 0.43121 0.2619 0.0
C3805 C 0.3645 0.38169 0.26097 0.0
C3806 C 0.36622 0.42786 0.25628 0.0
C3807 C 0.35531 0.43769 0.26312 0.0
C3808 C 0.36465 0.45122 0.27554 0.0
C3809 C 0.38523 0.45517 0.28087 0.0
C3810 C 0.39608 0.44523 0.27409 0.0
H3811 H 0.36167 0.36475 0.26307 0.0
H3812 H 0.36245 0.38861 0.2715 0.0
H3813 H 0.35152 0.38019 0.25318 0.0
H3814 H 0.3588 0.41754 0.24666 0.0
H3815 H 0.33954 0.43465 0.25877 0.0
H3816 H 0.88321 0.14252 0.12733 0.0
H3817 H 0.8498 0.14089 0.13737 0.0
H3818 H 0.89007 0.19528 0.16658 0.0
H3819 H 0.92353 0.19726 0.15652 0.0
H3820 H 0.8377 0.13233 0.16724 0.0
H3821 H 0.8464 0.21264 0.14952 0.0
H3822 H 0.86186 0.20105 0.14109 0.0
H3823 H 0.87045 0.21501 0.15855 0.0
C3824 C 0.885 0.15445 0.13567 0.0
C3825 C 0.90602 0.16997 0.14117 0.0
C3826 C 0.8659 0.15344 0.14142 0.0
C3827 C 0.86751 0.16803 0.15265 0.0
C3828 C 0.88849 0.1841 0.15775 0.0
H3829 H 0.77153 0.1812 0.20639 0.0
H3830 H 0.80542 0.18299 0.19712 0.0
C3831 C 0.9076 0.18513 0.15202 0.0
C3832 C 0.84726 0.16532 0.15985 0.0
H3833 H 0.81854 0.19204 0.16732 0.0
C3834 C 0.83341 0.14532 0.1672 0.0
C3835 C 0.84189 0.1824 0.15987 0.0
C3836 C 0.8558 0.20392 0.15173 0.0
C3837 C 0.81438 0.14199 0.17472 0.0
C3838 C 0.80897 0.15903 0.17468 0.0
C3839 C 0.82286 0.17907 0.16739 0.0
C3840 C 0.78843 0.15611 0.18155 0.0
C3841 C 0.80042 0.12044 0.18282 0.0
C3842 C 0.7677 0.14012 0.17604 0.0
C3843 C 0.74834 0.13902 0.18132 0.0
C3844 C 0.74941 0.15402 0.19213 0.0
C3845 C 0.77015 0.16939 0.19808 0.0
C3846 C 0.78952 0.1705 0.19277 0.0
H3847 H 0.80989 0.11183 0.18517 0.0
H3848 H 0.79413 0.12326 0.19338 0.0
H3849 H 0.78594 0.10929 0.17589 0.0
H3850 H 0.76654 0.12909 0.16723 0.0
H3851 H 0.73263 0.12698 0.1765 0.0
H3852 H 0.86534 0.60358 0.17679 0.0
H3853 H 0.86296 0.63507 0.16722 0.0
H3854 H 0.81052 0.62153 0.19809 0.0
H3855 H 0.81253 0.58972 0.20763 0.0
H3856 H 0.79987 0.6244 0.16877 0.0
H3857 H 0.88147 0.69646 0.1838 0.0
H3858 H 0.88333 0.67465 0.17454 0.0
H3859 H 0.87061 0.66964 0.19244 0.0
C3860 C 0.85359 0.60754 0.18176 0.0
C3861 C 0.83902 0.59406 0.19292 0.0
C3862 C 0.85233 0.62561 0.17632 0.0
C3863 C 0.83665 0.63067 0.18201 0.0
C3864 C 0.82275 0.61788 0.19358 0.0
H3865 H 0.79504 0.72438 0.15824 0.0
H3866 H 0.79753 0.69311 0.16816 0.0
C3867 C 0.82399 0.59977 0.19905 0.0
C3868 C 0.83344 0.64802 0.175 0.0
H3869 H 0.85989 0.70303 0.16632 0.0
C3870 C 0.81292 0.64164 0.16832 0.0
C3871 C 0.85058 0.6704 0.17434 0.0
C3872 C 0.87268 0.67829 0.18177 0.0
C3873 C 0.80916 0.65705 0.1608 0.0
C3874 C 0.82632 0.67941 0.16011 0.0
C3875 C 0.84684 0.6858 0.16679 0.0
C3876 C 0.82313 0.6967 0.153 0.0
C3877 C 0.78705 0.64922 0.1534 0.0
C3878 C 0.8366 0.70893 0.14112 0.0
C3879 C 0.83526 0.72686 0.13542 0.0
C3880 C 0.8206 0.73298 0.14166 0.0
C3881 C 0.80651 0.72011 0.15319 0.0
C3882 C 0.80783 0.70217 0.15884 0.0
H3883 H 0.77798 0.63098 0.15166 0.0
H3884 H 0.77666 0.65337 0.16051 0.0
H3885 H 0.78918 0.65754 0.14259 0.0
H3886 H 0.84854 0.70494 0.1365 0.0
H3887 H 0.84636 0.73646 0.12655 0.0
H3888 H 0.38779 0.25967 0.17887 0.0
H3889 H 0.35596 0.22671 0.16855 0.0
H3890 H 0.37081 0.18504 0.19581 0.0
H3891 H 0.40251 0.21788 0.20636 0.0
H3892 H 0.36046 0.1949 0.15283 0.0
H3893 H 0.30372 0.15703 0.20048 0.0
H3894 H 0.32605 0.18549 0.2005 0.0
H3895 H 0.33168 0.16335 0.20393 0.0
C3896 C 0.38401 0.24351 0.18292 0.0
C3897 C 0.39775 0.24137 0.19337 0.0
C3898 C 0.36586 0.22472 0.17698 0.0
C3899 C 0.36104 0.20349 0.18145 0.0
C3900 C 0.37406 0.2013 0.19238 0.0
H3901 H 0.27015 0.06983 0.15291 0.0
H3902 H 0.30147 0.10326 0.16319 0.0
C3903 C 0.39221 0.2201 0.19837 0.0
C3904 C 0.34371 0.18371 0.17371 0.0
H3905 H 0.29573 0.13473 0.17898 0.0
C3906 C 0.34621 0.18179 0.1585 0.0
C3907 C 0.32526 0.16665 0.1812 0.0
C3908 C 0.32134 0.16825 0.1974 0.0
C3909 C 0.3309 0.16301 0.1506 0.0
C3910 C 0.31251 0.14591 0.1581 0.0
C3911 C 0.30997 0.14787 0.1733 0.0
C3912 C 0.29542 0.12594 0.15042 0.0
C3913 C 0.33476 0.1614 0.13439 0.0
C3914 C 0.28202 0.1277 0.13957 0.0
C3915 C 0.26414 0.10863 0.13362 0.0
C3916 C 0.25927 0.08752 0.13855 0.0
C3917 C 0.2734 0.08585 0.14891 0.0
C3918 C 0.29127 0.10491 0.15483 0.0
H3919 H 0.35225 0.17299 0.13119 0.0
H3920 H 0.33054 0.14427 0.13138 0.0
H3921 H 0.32397 0.16574 0.12788 0.0
H3922 H 0.28478 0.1438 0.13618 0.0
H3923 H 0.25353 0.11048 0.1257 0.0
H3924 H 0.14909 0.88939 0.37328 0.0
H3925 H 0.14633 0.85512 0.36393 0.0
H3926 H 0.19541 0.89243 0.33074 0.0
H3927 H 0.19851 0.92673 0.34008 0.0
H3928 H 0.13297 0.83982 0.335 0.0
H3929 H 0.21612 0.85096 0.34703 0.0
H3930 H 0.20572 0.8671 0.35601 0.0
H3931 H 0.21682 0.87401 0.33764 0.0
C3932 C 0.15967 0.89037 0.36421 0.0
C3933 C 0.17396 0.91077 0.35739 0.0
C3934 C 0.15799 0.87077 0.35885 0.0
C3935 C 0.17074 0.87129 0.3467 0.0
C3936 C 0.18568 0.89171 0.34027 0.0
H3937 H 0.17727 0.77293 0.29179 0.0
H3938 H 0.17987 0.80695 0.30148 0.0
C3939 C 0.18735 0.9113 0.34559 0.0
C3940 C 0.1671 0.85039 0.33996 0.0
H3941 H 0.19321 0.82173 0.33059 0.0
C3942 C 0.14607 0.83574 0.33412 0.0
C3943 C 0.1843 0.84529 0.33875 0.0
C3944 C 0.20696 0.86005 0.3453 0.0
C3945 C 0.14187 0.81623 0.32686 0.0
C3946 C 0.15908 0.81116 0.32561 0.0
C3947 C 0.1801 0.82579 0.33148 0.0
C3948 C 0.15554 0.79041 0.3187 0.0
C3949 C 0.1192 0.80145 0.32032 0.0
C3950 C 0.14069 0.76986 0.32502 0.0
C3951 C 0.13911 0.75041 0.3195 0.0
C3952 C 0.15251 0.7512 0.30762 0.0
C3953 C 0.1667 0.77174 0.30093 0.0
C3954 C 0.16828 0.7912 0.30648 0.0
H3955 H 0.10993 0.81046 0.31874 0.0
H3956 H 0.12047 0.79461 0.30953 0.0
H3957 H 0.10945 0.78735 0.3279 0.0
H3958 H 0.13096 0.76893 0.33459 0.0
H3959 H 0.12803 0.73486 0.32492 0.0
H3960 H 0.25886 0.39044 0.321 0.0
H3961 H 0.22494 0.35921 0.33083 0.0
H3962 H 0.18608 0.37218 0.29961 0.0
H3963 H 0.21993 0.40334 0.28958 0.0
H3964 H 0.19136 0.36475 0.34365 0.0
H3965 H 0.15894 0.30464 0.29726 0.0
H3966 H 0.18737 0.32697 0.2981 0.0
H3967 H 0.16577 0.33239 0.29249 0.0
C3968 C 0.24314 0.38639 0.31601 0.0
C3969 C 0.24207 0.39946 0.30457 0.0
C3970 C 0.22379 0.36856 0.32166 0.0
C3971 C 0.20306 0.3634 0.31592 0.0
C3972 C 0.20196 0.37572 0.30404 0.0
H3973 H 0.06736 0.27122 0.34057 0.0
H3974 H 0.10111 0.30229 0.3304 0.0
C3975 C 0.22133 0.39355 0.29835 0.0
C3976 C 0.18257 0.34645 0.32324 0.0
H3977 H 0.13482 0.29739 0.31763 0.0
C3978 C 0.17903 0.34994 0.338 0.0
C3979 C 0.16652 0.3273 0.31578 0.0
C3980 C 0.16985 0.32243 0.30007 0.0
C3981 C 0.15966 0.33486 0.34549 0.0
C3982 C 0.14363 0.31567 0.33805 0.0
C3983 C 0.14715 0.3122 0.32327 0.0
C3984 C 0.12322 0.29866 0.34541 0.0
C3985 C 0.15632 0.33981 0.36118 0.0
C3986 C 0.12451 0.28667 0.35744 0.0
C3987 C 0.10524 0.26895 0.36334 0.0
C3988 C 0.08442 0.26281 0.35718 0.0
C3989 C 0.08316 0.27548 0.34553 0.0
C3990 C 0.10241 0.2932 0.33968 0.0
H3991 H 0.16701 0.35767 0.36388 0.0
H3992 H 0.13874 0.335 0.36321 0.0
H3993 H 0.16072 0.33014 0.3688 0.0
H3994 H 0.14046 0.29041 0.36187 0.0
H3995 H 0.10679 0.25946 0.37225 0.0
H3996 H 0.72511 0.79902 0.34186 0.0
H3997 H 0.6935 0.80117 0.33217 0.0
H3998 H 0.70558 0.8524 0.36369 0.0
H3999 H 0.73747 0.85062 0.37337 0.0
H4000 H 0.65473 0.7967 0.34559 0.0
H4001 H 0.7093 0.88146 0.3233 0.0
H4002 H 0.71991 0.86391 0.32951 0.0
H4003 H 0.71237 0.87829 0.34268 0.0
C4004 C 0.72091 0.81058 0.34687 0.0
C4005 C 0.73398 0.82487 0.35826 0.0
C4006 C 0.70285 0.81177 0.34131 0.0
C4007 C 0.69759 0.82729 0.34701 0.0
C4008 C 0.70974 0.84066 0.35895 0.0
H4009 H 0.59992 0.86399 0.32399 0.0
H4010 H 0.63145 0.862 0.33401 0.0
C4011 C 0.72783 0.83949 0.36453 0.0
C4012 C 0.6799 0.82998 0.34004 0.0
H4013 H 0.6706 0.86669 0.3208 0.0
C4014 C 0.65816 0.81197 0.34015 0.0
C4015 C 0.68455 0.84992 0.33291 0.0
C4016 C 0.70781 0.86947 0.33194 0.0
C4017 C 0.64079 0.81348 0.33349 0.0
C4018 C 0.64544 0.83341 0.32634 0.0
C4019 C 0.66717 0.85144 0.32626 0.0
C4020 C 0.62779 0.836 0.31922 0.0
C4021 C 0.61753 0.79393 0.33444 0.0
C4022 C 0.61592 0.82265 0.3072 0.0
C4023 C 0.59789 0.82374 0.30142 0.0
C4024 C 0.59151 0.83825 0.30758 0.0
C4025 C 0.6043 0.85252 0.31907 0.0
C4026 C 0.62231 0.85141 0.32482 0.0
H4027 H 0.61601 0.78197 0.34311 0.0
H4028 H 0.6054 0.79948 0.3368 0.0
H4029 H 0.61303 0.78507 0.32371 0.0
H4030 H 0.62026 0.81099 0.30254 0.0
H4031 H 0.58847 0.81263 0.29252 0.0
H4032 H 0.21611 0.81015 0.79414 0.0
H4033 H 0.18256 0.80762 0.8046 0.0
H4034 H 0.22248 0.86282 0.83332 0.0
H4035 H 0.25614 0.86536 0.82307 0.0
H4036 H 0.18996 0.82516 0.848 0.0
H4037 H 0.15443 0.84681 0.8003 0.0
H4038 H 0.16128 0.82561 0.79654 0.0
H4039 H 0.18298 0.85325 0.80084 0.0
C4040 C 0.21779 0.82206 0.80246 0.0
C4041 C 0.23878 0.83788 0.80783 0.0
C4042 C 0.19859 0.82061 0.8084 0.0
C4043 C 0.20008 0.83509 0.81968 0.0
C4044 C 0.22102 0.8515 0.82462 0.0
H4045 H 0.1054 0.84762 0.87471 0.0
H4046 H 0.13884 0.84932 0.86474 0.0
C4047 C 0.24022 0.85295 0.81871 0.0
C4048 C 0.17986 0.83204 0.82713 0.0
H4049 H 0.13132 0.83173 0.82133 0.0
C4050 C 0.17717 0.82671 0.84221 0.0
C4051 C 0.16321 0.83395 0.81949 0.0
C4052 C 0.16563 0.84041 0.80343 0.0
C4053 C 0.15805 0.82292 0.84983 0.0
C4054 C 0.14141 0.82483 0.8422 0.0
C4055 C 0.1441 0.83016 0.82712 0.0
C4056 C 0.12121 0.82191 0.84963 0.0
C4057 C 0.15564 0.8165 0.8659 0.0
C4058 C 0.10025 0.80576 0.84456 0.0
C4059 C 0.08112 0.8048 0.85018 0.0
C4060 C 0.08266 0.82011 0.8609 0.0
C4061 C 0.10364 0.83554 0.86651 0.0
C4062 C 0.12278 0.83651 0.86085 0.0
H4063 H 0.16677 0.81001 0.86903 0.0
H4064 H 0.16011 0.83135 0.87277 0.0
H4065 H 0.13827 0.80375 0.86853 0.0
H4066 H 0.09873 0.79434 0.83591 0.0
H4067 H 0.06521 0.79265 0.84566 0.0
H4068 H 0.141 0.25373 0.87041 0.0
H4069 H 0.139 0.28511 0.86002 0.0
H4070 H 0.19574 0.30136 0.83259 0.0
H4071 H 0.1978 0.26995 0.84277 0.0
H4072 H 0.17058 0.33125 0.85819 0.0
H4073 H 0.14654 0.2915 0.80299 0.0
H4074 H 0.14581 0.27644 0.81939 0.0
H4075 H 0.17174 0.29418 0.81032 0.0
C4076 C 0.15325 0.26415 0.86232 0.0
C4077 C 0.16938 0.25917 0.85727 0.0
C4078 C 0.15204 0.28203 0.85637 0.0
C4079 C 0.16689 0.29516 0.8453 0.0
C4080 C 0.18381 0.29106 0.84088 0.0
H4081 H 0.18349 0.40618 0.7929 0.0
H4082 H 0.18506 0.37447 0.80314 0.0
C4083 C 0.18503 0.27319 0.84679 0.0
C4084 C 0.16426 0.31271 0.83805 0.0
H4085 H 0.15322 0.32829 0.80486 0.0
C4086 C 0.1667 0.3306 0.84655 0.0
C4087 C 0.15917 0.3117 0.82286 0.0
C4088 C 0.15545 0.29234 0.81335 0.0
C4089 C 0.16461 0.34783 0.84019 0.0
C4090 C 0.15954 0.34683 0.825 0.0
C4091 C 0.15708 0.32893 0.8165 0.0
C4092 C 0.15705 0.36446 0.81774 0.0
C4093 C 0.16833 0.36719 0.84971 0.0
C4094 C 0.14019 0.36868 0.82213 0.0
C4095 C 0.13923 0.38673 0.81631 0.0
C4096 C 0.15508 0.40082 0.80595 0.0
C4097 C 0.1711 0.39571 0.8009 0.0
C4098 C 0.17206 0.37764 0.80675 0.0
H4099 H 0.17716 0.36798 0.86009 0.0
H4100 H 0.17807 0.3831 0.84369 0.0
H4101 H 0.15205 0.36541 0.85267 0.0
H4102 H 0.12815 0.35835 0.83036 0.0
H4103 H 0.12653 0.39008 0.82033 0.0
H4104 H 0.72443 0.92918 0.84073 0.0
H4105 H 0.69331 0.89569 0.83039 0.0
H4106 H 0.70643 0.85548 0.86031 0.0
H4107 H 0.73781 0.8889 0.87065 0.0
H4108 H 0.70412 0.84357 0.83034 0.0
H4109 H 0.63165 0.85175 0.84673 0.0
H4110 H 0.65367 0.87591 0.838 0.0
H4111 H 0.65836 0.86713 0.85561 0.0
C4112 C 0.72046 0.91325 0.84532 0.0
C4113 C 0.73367 0.91169 0.85647 0.0
C4114 C 0.70261 0.89414 0.83942 0.0
C4115 C 0.69754 0.87316 0.84464 0.0
C4116 C 0.71011 0.87157 0.85616 0.0
H4117 H 0.60507 0.73822 0.82008 0.0
H4118 H 0.63656 0.77216 0.82958 0.0
C4119 C 0.72797 0.89068 0.86209 0.0
C4120 C 0.6803 0.8529 0.83727 0.0
H4121 H 0.62512 0.82394 0.82908 0.0
C4122 C 0.68681 0.83918 0.83012 0.0
C4123 C 0.65783 0.8474 0.83692 0.0
C4124 C 0.64986 0.86119 0.84483 0.0
C4125 C 0.67141 0.82014 0.82246 0.0
C4126 C 0.64892 0.81459 0.82216 0.0
C4127 C 0.64244 0.82837 0.82926 0.0
C4128 C 0.63159 0.79403 0.81513 0.0
C4129 C 0.67939 0.80634 0.81458 0.0
C4130 C 0.61848 0.79509 0.80376 0.0
C4131 C 0.6004 0.7757 0.79832 0.0
C4132 C 0.595 0.75496 0.8043 0.0
C4133 C 0.60877 0.75393 0.81524 0.0
C4134 C 0.62685 0.77331 0.82064 0.0
H4135 H 0.69753 0.81594 0.81242 0.0
H4136 H 0.67601 0.79189 0.82155 0.0
H4137 H 0.67059 0.8 0.80392 0.0
H4138 H 0.62189 0.81098 0.7994 0.0
H4139 H 0.5901 0.77707 0.78991 0.0
H4140 H 0.79732 0.06874 0.65401 0.0
H4141 H 0.79877 0.1022 0.66355 0.0
H4142 H 0.85408 0.14237 0.63496 0.0
H4143 H 0.85298 0.10894 0.62543 0.0
H4144 H 0.86158 0.15471 0.66483 0.0
H4145 H 0.78177 0.14555 0.64552 0.0
H4146 H 0.77903 0.12149 0.65475 0.0
H4147 H 0.79377 0.13017 0.63754 0.0
C4148 C 0.80955 0.08465 0.64954 0.0
C4149 C 0.82512 0.0862 0.63902 0.0
C4150 C 0.81027 0.10375 0.65496 0.0
C4151 C 0.82644 0.12471 0.64988 0.0
C4152 C 0.84145 0.1263 0.63897 0.0
H4153 H 0.86455 0.25865 0.67572 0.0
H4154 H 0.86363 0.22567 0.66571 0.0
C4155 C 0.84073 0.10718 0.63351 0.0
C4156 C 0.82879 0.14494 0.65688 0.0
H4157 H 0.80115 0.17286 0.66396 0.0
C4158 C 0.84846 0.15882 0.66456 0.0
C4159 C 0.81155 0.15007 0.65657 0.0
C4160 C 0.79041 0.13616 0.64804 0.0
C4161 C 0.8512 0.17754 0.67219 0.0
C4162 C 0.83393 0.18261 0.67194 0.0
C4163 C 0.81429 0.16879 0.66421 0.0
C4164 C 0.83605 0.20258 0.67921 0.0
C4165 C 0.87235 0.19147 0.68072 0.0
C4166 C 0.82094 0.20049 0.6902 0.0
C4167 C 0.82136 0.21932 0.69593 0.0
C4168 C 0.83677 0.24052 0.69063 0.0
C4169 C 0.85247 0.24257 0.68005 0.0
C4170 C 0.85205 0.22374 0.67435 0.0
H4171 H 0.88121 0.18224 0.68303 0.0
H4172 H 0.88355 0.20636 0.67413 0.0
H4173 H 0.86891 0.19713 0.69134 0.0
H4174 H 0.80845 0.18425 0.69406 0.0
H4175 H 0.80903 0.21717 0.70406 0.0
H4176 H 0.92841 0.7202 0.65526 0.0
H4177 H 0.89498 0.68858 0.66531 0.0
H4178 H 0.85456 0.70343 0.63675 0.0
H4179 H 0.88788 0.73488 0.62647 0.0
H4180 H 0.86295 0.69334 0.68021 0.0
H4181 H 0.82596 0.63639 0.63259 0.0
H4182 H 0.85446 0.65861 0.63276 0.0
H4183 H 0.83249 0.66433 0.62887 0.0
C4184 C 0.91243 0.71645 0.65087 0.0
C4185 C 0.91078 0.73012 0.64013 0.0
C4186 C 0.89336 0.69841 0.65665 0.0
C4187 C 0.87233 0.69365 0.65174 0.0
C4188 C 0.87065 0.7066 0.64052 0.0
H4189 H 0.73743 0.60461 0.67916 0.0
H4190 H 0.77139 0.63539 0.66897 0.0
C4191 C 0.88973 0.72462 0.63468 0.0
C4192 C 0.85221 0.67651 0.65932 0.0
H4193 H 0.80298 0.62891 0.65373 0.0
C4194 C 0.84989 0.67915 0.67446 0.0
C4195 C 0.83519 0.65813 0.65175 0.0
C4196 C 0.83718 0.65403 0.63562 0.0
C4197 C 0.8308 0.66406 0.68219 0.0
C4198 C 0.81375 0.64576 0.6746 0.0
C4199 C 0.81608 0.64307 0.65948 0.0
C4200 C 0.79343 0.6289 0.68213 0.0
C4201 C 0.82881 0.66807 0.69833 0.0
C4202 C 0.79466 0.61543 0.69316 0.0
C4203 C 0.77528 0.59785 0.69906 0.0
C4204 C 0.75439 0.59337 0.69391 0.0
C4205 C 0.75326 0.60757 0.68334 0.0
C4206 C 0.77263 0.62512 0.67747 0.0
H4207 H 0.84054 0.68551 0.70154 0.0
H4208 H 0.81168 0.66416 0.70107 0.0
H4209 H 0.8327 0.65712 0.70504 0.0
H4210 H 0.81058 0.6179 0.69675 0.0
H4211 H 0.77673 0.58719 0.70714 0.0
H4212 H 0.39036 0.1305 0.67425 0.0
H4213 H 0.3587 0.1322 0.66413 0.0
H4214 H 0.37183 0.18588 0.69373 0.0
H4215 H 0.4037 0.18452 0.70384 0.0
H4216 H 0.32032 0.12905 0.67772 0.0
H4217 H 0.37428 0.21155 0.65217 0.0
H4218 H 0.38495 0.19434 0.65898 0.0
H4219 H 0.37837 0.21011 0.67161 0.0
C4220 C 0.38639 0.14252 0.67874 0.0
C4221 C 0.39971 0.15756 0.68973 0.0
C4222 C 0.36831 0.14346 0.67293 0.0
C4223 C 0.3633 0.15948 0.67797 0.0
C4224 C 0.37578 0.17372 0.68949 0.0
H4225 H 0.26635 0.19697 0.65577 0.0
H4226 H 0.29811 0.1947 0.66498 0.0
C4227 C 0.39387 0.17279 0.69532 0.0
C4228 C 0.3454 0.16169 0.67087 0.0
H4229 H 0.33548 0.19728 0.65076 0.0
C4230 C 0.32359 0.1439 0.67177 0.0
C4231 C 0.34985 0.18109 0.66308 0.0
C4232 C 0.37314 0.20032 0.66125 0.0
C4233 C 0.30594 0.14521 0.66536 0.0
C4234 C 0.31037 0.16466 0.65763 0.0
C4235 C 0.33221 0.18239 0.65666 0.0
C4236 C 0.2924 0.1672 0.65096 0.0
C4237 C 0.28264 0.12601 0.66724 0.0
C4238 C 0.27922 0.15302 0.63962 0.0
C4239 C 0.26103 0.15426 0.63431 0.0
C4240 C 0.2558 0.16975 0.64025 0.0
C4241 C 0.26982 0.18474 0.65103 0.0
C4242 C 0.28798 0.18348 0.65632 0.0
H4243 H 0.28158 0.11462 0.67619 0.0
H4244 H 0.27092 0.13202 0.66975 0.0
H4245 H 0.27721 0.11637 0.65683 0.0
H4246 H 0.2827 0.14066 0.63513 0.0
H4247 H 0.25064 0.14257 0.62594 0.0
H4248 H 0.40109 0.46257 0.50736 0.0
H4249 H 0.43564 0.46602 0.49819 0.0
H4250 H 0.47269 0.51798 0.52974 0.0
H4251 H 0.43818 0.51486 0.53891 0.0
H4252 H 0.48718 0.52934 0.50045 0.0
H4253 H 0.47878 0.44827 0.51565 0.0
H4254 H 0.45519 0.44613 0.50609 0.0
H4255 H 0.46226 0.45867 0.52407 0.0
C4256 C 0.41653 0.47445 0.51256 0.0
C4257 C 0.4169 0.48852 0.52382 0.0
C4258 C 0.43626 0.47633 0.50733 0.0
C4259 C 0.45667 0.49216 0.51335 0.0
C4260 C 0.45706 0.50562 0.52499 0.0
H4261 H 0.59348 0.53674 0.49137 0.0
H4262 H 0.55914 0.53358 0.50075 0.0
C4263 C 0.43732 0.50375 0.53025 0.0
C4264 C 0.47764 0.49587 0.50666 0.0
H4265 H 0.50744 0.47046 0.49866 0.0
C4266 C 0.49173 0.51654 0.50014 0.0
C4267 C 0.48336 0.47907 0.5062 0.0
C4268 C 0.46922 0.45684 0.51349 0.0
C4269 C 0.51128 0.52075 0.49293 0.0
C4270 C 0.51697 0.50392 0.49243 0.0
C4271 C 0.50291 0.48327 0.49898 0.0
C4272 C 0.53782 0.50754 0.48562 0.0
C4273 C 0.52544 0.54298 0.48565 0.0
C4274 C 0.5372 0.49406 0.47392 0.0
C4275 C 0.55681 0.49577 0.46854 0.0
C4276 C 0.57734 0.51084 0.4749 0.0
C4277 C 0.57794 0.52496 0.48622 0.0
C4278 C 0.55834 0.52325 0.49156 0.0
H4279 H 0.51597 0.55168 0.48362 0.0
H4280 H 0.5396 0.55359 0.49298 0.0
H4281 H 0.53223 0.54112 0.475 0.0
H4282 H 0.52148 0.4818 0.46921 0.0
H4283 H 0.55577 0.48463 0.45983 0.0
H4284 H 0.46196 0.05874 0.48948 0.0
H4285 H 0.4646 0.02733 0.49899 0.0
H4286 H 0.51538 0.03981 0.46699 0.0
H4287 H 0.5131 0.0715 0.45748 0.0
H4288 H 0.46031 0.98865 0.48546 0.0
H4289 H 0.54528 0.04398 0.50716 0.0
H4290 H 0.52736 0.05428 0.50118 0.0
H4291 H 0.54172 0.04699 0.48783 0.0
C4292 C 0.47351 0.05467 0.48432 0.0
C4293 C 0.48754 0.0678 0.47284 0.0
C4294 C 0.47499 0.03672 0.48978 0.0
C4295 C 0.49053 0.03162 0.4839 0.0
C4296 C 0.50362 0.04383 0.47187 0.0
H4297 H 0.52923 0.93521 0.5063 0.0
H4298 H 0.52644 0.9663 0.49629 0.0
C4299 C 0.50216 0.06181 0.46638 0.0
C4300 C 0.49357 0.01409 0.49078 0.0
H4301 H 0.53096 0.00536 0.50966 0.0
C4302 C 0.47572 0.99226 0.49077 0.0
C4303 C 0.5137 0.01898 0.49775 0.0
C4304 C 0.53308 0.04234 0.49864 0.0
C4305 C 0.47758 0.97504 0.49735 0.0
C4306 C 0.4977 0.97993 0.50434 0.0
C4307 C 0.51556 0.00175 0.50433 0.0
C4308 C 0.50066 0.96245 0.51137 0.0
C4309 C 0.45817 0.95168 0.49653 0.0
C4310 C 0.48767 0.95058 0.52352 0.0
C4311 C 0.48922 0.93281 0.5293 0.0
C4312 C 0.50384 0.92667 0.523 0.0
C4313 C 0.51769 0.93941 0.51134 0.0
C4314 C 0.51613 0.95717 0.50559 0.0
H4315 H 0.44598 0.95001 0.48799 0.0
H4316 H 0.46387 0.93971 0.49404 0.0
H4317 H 0.44955 0.94712 0.50734 0.0
H4318 H 0.47595 0.95475 0.52831 0.0
H4319 H 0.47841 0.92341 0.53834 0.0
H4320 H 0.93434 0.40249 0.48917 0.0
H4321 H 0.96587 0.43628 0.49889 0.0
H4322 H 0.95216 0.47559 0.46854 0.0
H4323 H 0.92038 0.44187 0.45879 0.0
H4324 H 0.00409 0.47154 0.48494 0.0
H4325 H 0.94912 0.49939 0.50992 0.0
H4326 H 0.93883 0.47141 0.50341 0.0
H4327 H 0.94532 0.49339 0.49051 0.0
C4328 C 0.93816 0.41829 0.48442 0.0
C4329 C 0.92469 0.41953 0.47333 0.0
C4330 C 0.95617 0.43756 0.49 0.0
C4331 C 0.96098 0.45837 0.48463 0.0
C4332 C 0.94838 0.45964 0.473 0.0
H4333 H 0.05788 0.59244 0.50961 0.0
H4334 H 0.02633 0.55926 0.49924 0.0
C4335 C 0.93035 0.44036 0.46738 0.0
C4336 C 0.97868 0.47871 0.49163 0.0
H4337 H 0.98777 0.52358 0.5122 0.0
C4338 C 0.00057 0.48293 0.49091 0.0
C4339 C 0.97391 0.49344 0.49943 0.0
C4340 C 0.95051 0.48918 0.50101 0.0
C4341 C 0.01795 0.50172 0.49765 0.0
C4342 C 0.01317 0.51637 0.50553 0.0
C4343 C 0.9913 0.51222 0.50619 0.0
C4344 C 0.0308 0.53635 0.51292 0.0
C4345 C 0.04135 0.50597 0.49603 0.0
C4346 C 0.04314 0.53441 0.52446 0.0
C4347 C 0.06117 0.55333 0.53044 0.0
C4348 C 0.0671 0.57447 0.52496 0.0
C4349 C 0.05385 0.57638 0.514 0.0
C4350 C 0.03583 0.55746 0.50805 0.0
H4351 H 0.04281 0.49618 0.48687 0.0
H4352 H 0.05314 0.52383 0.49402 0.0
H4353 H 0.04634 0.50115 0.50639 0.0
H4354 H 0.03917 0.51823 0.52857 0.0
H4355 H 0.07095 0.55129 0.53893 0.0
H4356 H 0.46487 0.40262 0.99031 0.0
H4357 H 0.46695 0.4365 -0.00045 0.0
H4358 H 0.52235 0.47554 0.97074 0.0
H4359 H 0.52066 0.44168 0.96155 0.0
H4360 H 0.53019 0.48908 0.00014 0.0
H4361 H 0.45014 0.47939 0.9809 0.0
H4362 H 0.44735 0.45573 0.99072 0.0
H4363 H 0.46177 0.4634 0.97336 0.0
C4364 C 0.47728 0.41837 0.98574 0.0
C4365 C 0.49267 0.41946 0.97523 0.0
C4366 C 0.47836 0.43772 0.99099 0.0
C4367 C 0.49469 0.45848 0.98574 0.0
C4368 C 0.50959 0.45962 0.97489 0.0
H4369 H 0.53323 0.59366 0.00789 0.0
H4370 H 0.53193 0.56003 0.99876 0.0
C4371 C 0.50854 0.44026 0.96962 0.0
C4372 C 0.49722 0.479 0.99239 0.0
H4373 H 0.46993 0.50746 0.99882 0.0
C4374 C 0.51709 0.49321 -0.00023 0.0
C4375 C 0.48003 0.48421 0.99196 0.0
C4376 C 0.45869 0.47 0.98369 0.0
C4377 C 0.52011 0.51237 0.00694 0.0
C4378 C 0.50288 0.5175 0.00656 0.0
C4379 C 0.48303 0.50332 -0.00083 0.0
C4380 C 0.50533 0.53792 0.01328 0.0
C4381 C 0.54151 0.52677 0.01509 0.0
C4382 C 0.49091 0.53659 0.02456 0.0
C4383 C 0.49158 0.55578 0.02981 0.0
C4384 C 0.50652 0.57657 0.02371 0.0
C4385 C 0.52152 0.57789 0.01281 0.0
C4386 C 0.52088 0.55871 0.00762 0.0
H4387 H 0.5506 0.51777 0.01744 0.0
H4388 H 0.55237 0.54144 0.00822 0.0
H4389 H 0.53834 0.53277 0.02565 0.0
H4390 H 0.47876 0.52063 0.02902 0.0
H4391 H 0.47979 0.5542 0.03819 0.0
H4392 H 0.59118 0.05592 0.98701 0.0
H4393 H 0.55794 0.02392 0.99689 0.0
H4394 H 0.51712 0.03823 0.96835 0.0
H4395 H 0.55027 0.07013 0.95825 0.0
H4396 H 0.5251 0.02803 0.01169 0.0
H4397 H 0.49005 0.97115 0.96382 0.0
H4398 H 0.51841 0.99366 0.9643 0.0
H4399 H 0.49627 -0.00097 0.96018 0.0
C4400 C 0.57516 0.052 0.9826 0.0
C4401 C 0.57334 0.06564 0.97191 0.0
C4402 C 0.5562 0.03374 0.98829 0.0
C4403 C 0.53512 0.02871 0.98332 0.0
C4404 C 0.53327 0.04165 0.97216 0.0
H4405 H 0.40056 0.93643 0.00968 0.0
H4406 H 0.4342 0.96779 -0.00036 0.0
C4407 C 0.55224 0.05991 0.96643 0.0
C4408 C 0.51509 0.01122 0.99076 0.0
H4409 H 0.46679 0.96279 0.98486 0.0
C4410 C 0.5124 0.01367 0.00586 0.0
C4411 C 0.49855 0.99263 0.98308 0.0
C4412 C 0.50098 0.98879 0.96698 0.0
C4413 C 0.49337 -0.00184 0.01347 0.0
C4414 C 0.47681 0.97961 0.00579 0.0
C4415 C 0.47952 0.97713 0.99069 0.0
C4416 C 0.4566 0.96233 0.01318 0.0
C4417 C 0.49093 0.002 0.02958 0.0
C4418 C 0.45811 0.94921 0.02435 0.0
C4419 C 0.43891 0.93131 0.03017 0.0
C4420 C 0.41792 0.92613 0.02478 0.0
C4421 C 0.41648 0.93992 0.01403 0.0
C4422 C 0.43566 0.95781 0.00825 0.0
H4423 H 0.50212 0.01955 0.03281 0.0
H4424 H 0.47358 -0.00255 0.03219 0.0
H4425 H 0.49527 0.99146 0.03637 0.0
H4426 H 0.47414 0.95224 0.02814 0.0
H4427 H 0.44059 0.92095 0.03839 0.0
H4428 H 0.08318 0.50056 0.00049 0.0
H4429 H 0.05388 0.50624 0.99074 0.0
H4430 H 0.01414 0.475 0.02941 0.0
H4431 H 0.04445 0.47072 0.03973 0.0
H4432 H 0.01527 0.47932 0.98229 0.0
H4433 H 0.00719 0.52782 0.0278 0.0
H4434 H 0.02937 0.52157 0.02714 0.0
H4435 H 0.00241 0.50135 0.03401 0.0
C4436 C 0.06822 0.49498 0.00695 0.0
C4437 C 0.06598 0.48516 0.02084 0.0
C4438 C 0.05147 0.49825 0.00137 0.0
C4439 C 0.03185 0.49134 0.00939 0.0
C4440 C 0.02938 0.48112 0.0232 0.0
H4441 H 0.91132 0.46897 0.96672 0.0
H4442 H 0.94283 0.46669 0.97618 0.0
C4443 C 0.04654 0.47844 0.02903 0.0
C4444 C 0.01388 0.49422 0.00284 0.0
H4445 H 0.97876 0.51409 0.00952 0.0
C4446 C 0.00746 0.48713 0.98824 0.0
C4447 C 0.00391 0.50476 0.01043 0.0
C4448 C 0.01125 0.51453 0.02564 0.0
C4449 C 0.99137 0.49018 0.98105 0.0
C4450 C 0.98045 0.4995 0.98894 0.0
C4451 C 0.98697 0.50677 0.00349 0.0
C4452 C 0.96183 0.5013 0.98248 0.0
C4453 C 0.9868 0.48391 0.96497 0.0
C4454 C 0.96165 0.52138 0.98321 0.0
C4455 C 0.94326 0.52255 0.97819 0.0
C4456 C 0.92494 0.50374 0.97216 0.0
C4457 C 0.92541 0.48386 0.97105 0.0
C4458 C 0.9435 0.48256 0.9764 0.0
H4459 H 0.00161 0.48515 0.95942 0.0
H4460 H 0.97323 0.46642 0.96406 0.0
H4461 H 0.98183 0.49465 0.95898 0.0
H4462 H 0.97556 0.53606 0.9879 0.0
H4463 H 0.94324 0.53804 0.97923 0.0
loop_
_geom_bond_atom_site_label_1
_geom_bond_atom_site_label_2
_geom_bond_distance
_geom_bond_site_symmetry_2
_ccdc_geom_bond_type
Co0 O3 1.970 . S
Co0 N17 2.010 . S
Co0 O25 1.967 . S
Co0 O32 1.920 . S
Co1 O4 1.966 1_455 S
Co1 N10 2.022 . S
Co1 N18 1.993 . S
Co1 O26 1.941 . S
C2 O3 1.258 . S
C2 O4 1.263 . S
O3 Co0 1.970 . S
O3 C2 1.258 . S
O4 Co1 1.966 1_655 S
O4 C2 1.263 . S
C5 O6 1.235 . S
C5 O32 1.289 . S
O6 C5 1.235 . S
C7 C9 1.400 . S
C7 N10 1.351 . S
C7 C12 1.501 . S
C8 C9 1.387 . S
C8 N11 1.341 . S
C9 C7 1.400 . S
C9 C8 1.387 . S
N10 Co1 2.022 . S
N10 C7 1.351 . S
N10 N11 1.365 . S
N11 C8 1.341 . S
N11 N10 1.365 . S
N11 H31 0.862 . S
C12 C7 1.501 . S
C12 H13 0.961 . S
C12 H14 0.961 . S
C12 H15 0.960 . S
H13 C12 0.961 . S
H14 C12 0.961 . S
H15 C12 0.960 . S
C16 N17 1.352 1_455 S
C16 C20 1.401 . S
C16 C21 1.499 1_455 S
N17 Co0 2.010 . S
N17 C16 1.352 1_655 S
N17 N18 1.348 1_655 S
N18 Co1 1.993 . S
N18 N17 1.348 1_455 S
N18 C19 1.346 . S
C19 N18 1.346 . S
C19 C20 1.396 . S
C19 C29 1.510 . S
C20 C16 1.401 . S
C20 C19 1.396 . S
C21 C16 1.499 1_655 S
C21 H22 0.959 . S
C21 H23 0.960 . S
C21 H24 0.961 . S
H22 C21 0.959 . S
H23 C21 0.960 . S
H24 C21 0.961 . S
O25 Co0 1.967 . S
O25 C33 1.212 1_655 S
O26 Co1 1.941 . S
O26 C33 1.313 . S
H27 C29 0.959 . S
H28 C29 0.961 . S
C29 C19 1.510 . S
C29 H27 0.959 . S
C29 H28 0.961 . S
C29 H30 0.960 . S
H30 C29 0.960 . S
H31 N11 0.862 . S
O32 Co0 1.920 . S
O32 C5 1.289 . S
C33 O25 1.212 1_455 S
C33 O26 1.313 . S
Co34 O37 1.970 . S
Co34 N51 1.989 . S
Co34 O59 1.967 . S
Co34 O66 1.920 . S
Co35 O38 1.966 . S
Co35 N44 2.022 . S
Co35 N52 1.993 . S
Co35 O60 1.941 . S
C36 O37 1.258 . S
C36 O38 1.263 . S
O37 Co34 1.970 . S
O37 C36 1.258 . S
O38 Co35 1.966 . S
O38 C36 1.263 . S
C39 O40 1.235 . S
C39 O66 1.289 . S
O40 C39 1.235 . S
C41 C43 1.400 . S
C41 N44 1.351 . S
C41 C46 1.501 . S
C42 C43 1.387 . S
C42 N45 1.341 . S
C43 C41 1.400 . S
C43 C42 1.387 . S
N44 Co35 2.022 . S
N44 C41 1.351 . S
N44 N45 1.365 . S
N45 C42 1.341 . S
N45 N44 1.365 . S
N45 H65 0.862 . S
C46 C41 1.501 . S
C46 H47 0.961 . S
C46 H48 0.961 . S
C46 H49 0.960 . S
H47 C46 0.961 . S
H48 C46 0.961 . S
H49 C46 0.960 . S
C50 N51 1.342 . S
C50 C54 1.401 . S
C50 C55 1.499 . S
N51 Co34 1.989 . S
N51 C50 1.342 . S
N51 N52 1.388 . S
N52 Co35 1.993 . S
N52 N51 1.388 . S
N52 C53 1.346 . S
C53 N52 1.346 . S
C53 C54 1.396 . S
C53 C63 1.510 . S
C54 C50 1.401 . S
C54 C53 1.396 . S
C55 C50 1.499 . S
C55 H56 0.959 . S
C55 H57 0.960 . S
C55 H58 0.961 . S
H56 C55 0.959 . S
H57 C55 0.960 . S
H58 C55 0.961 . S
O59 Co34 1.967 . S
O59 C67 1.258 . S
O60 Co35 1.941 . S
O60 C67 1.266 . S
H61 C63 0.959 . S
H62 C63 0.961 . S
C63 C53 1.510 . S
C63 H61 0.959 . S
C63 H62 0.961 . S
C63 H64 0.960 . S
H64 C63 0.960 . S
H65 N45 0.862 . S
O66 Co34 1.920 . S
O66 C39 1.289 . S
C67 O59 1.258 . S
C67 O60 1.266 . S
Co68 O71 1.970 . S
Co68 N85 2.022 . S
Co68 O93 1.967 . S
Co68 O100 1.920 . S
Co69 O72 1.966 1_565 S
Co69 N78 2.022 . S
Co69 N86 1.993 . S
Co69 O94 1.941 . S
C70 O71 1.258 . S
C70 O72 1.263 . S
O71 Co68 1.970 . S
O71 C70 1.258 . S
O72 Co69 1.966 1_545 S
O72 C70 1.263 . S
C73 O74 1.235 . S
C73 O100 1.289 . S
O74 C73 1.235 . S
C75 C77 1.400 . S
C75 N78 1.351 . S
C75 C80 1.501 . S
C76 C77 1.387 . S
C76 N79 1.341 . S
C77 C75 1.400 . S
C77 C76 1.387 . S
N78 Co69 2.022 . S
N78 C75 1.351 . S
N78 N79 1.365 . S
N79 C76 1.341 . S
N79 N78 1.365 . S
N79 H99 0.862 . S
C80 C75 1.501 . S
C80 H81 0.961 . S
C80 H82 0.961 . S
C80 H83 0.960 . S
H81 C80 0.961 . S
H82 C80 0.961 . S
H83 C80 0.960 . S
C84 N85 1.318 1_565 S
C84 C88 1.401 . S
C84 C89 1.499 1_565 S
N85 Co68 2.022 . S
N85 C84 1.318 1_545 S
N85 N86 1.374 1_545 S
N86 Co69 1.993 . S
N86 N85 1.374 1_565 S
N86 C87 1.346 . S
C87 N86 1.346 . S
C87 C88 1.396 . S
C87 C97 1.510 . S
C88 C84 1.401 . S
C88 C87 1.396 . S
C89 C84 1.499 1_545 S
C89 H90 0.959 . S
C89 H91 0.960 . S
C89 H92 0.961 . S
H90 C89 0.959 . S
H91 C89 0.960 . S
H92 C89 0.961 . S
O93 Co68 1.967 . S
O93 C101 1.233 1_545 S
O94 Co69 1.941 . S
O94 C101 1.289 . S
H95 C97 0.959 . S
H96 C97 0.961 . S
C97 C87 1.510 . S
C97 H95 0.959 . S
C97 H96 0.961 . S
C97 H98 0.960 . S
H98 C97 0.960 . S
H99 N79 0.862 . S
O100 Co68 1.920 . S
O100 C73 1.289 . S
C101 O93 1.233 1_565 S
C101 O94 1.289 . S
Co102 O105 1.970 . S
Co102 N119 2.010 . S
Co102 O127 1.967 . S
Co102 O134 1.920 . S
Co103 O106 1.966 1_545 S
Co103 N112 2.022 . S
Co103 N120 1.993 . S
Co103 O128 1.941 . S
C104 O105 1.258 . S
C104 O106 1.263 . S
O105 Co102 1.970 . S
O105 C104 1.258 . S
O106 Co103 1.966 1_565 S
O106 C104 1.263 . S
C107 O108 1.235 . S
C107 O134 1.289 . S
O108 C107 1.235 . S
C109 C111 1.400 . S
C109 N112 1.351 . S
C109 C114 1.501 . S
C110 C111 1.387 . S
C110 N113 1.341 . S
C111 C109 1.400 . S
C111 C110 1.387 . S
N112 Co103 2.022 . S
N112 C109 1.351 . S
N112 N113 1.365 . S
N113 C110 1.341 . S
N113 N112 1.365 . S
N113 H133 0.862 . S
C114 C109 1.501 . S
C114 H115 0.961 . S
C114 H116 0.961 . S
C114 H117 0.960 . S
H115 C114 0.961 . S
H116 C114 0.961 . S
H117 C114 0.960 . S
C118 N119 1.352 1_545 S
C118 C122 1.401 . S
C118 C123 1.499 1_545 S
N119 Co102 2.010 . S
N119 C118 1.352 1_565 S
N119 N120 1.348 1_565 S
N120 Co103 1.993 . S
N120 N119 1.348 1_545 S
N120 C121 1.346 . S
C121 N120 1.346 . S
C121 C122 1.396 . S
C121 C131 1.510 . S
C122 C118 1.401 . S
C122 C121 1.396 . S
C123 C118 1.499 1_565 S
C123 H124 0.959 . S
C123 H125 0.960 . S
C123 H126 0.961 . S
H124 C123 0.959 . S
H125 C123 0.960 . S
H126 C123 0.961 . S
O127 Co102 1.967 . S
O127 C135 1.212 1_565 S
O128 Co103 1.941 . S
O128 C135 1.313 . S
H129 C131 0.959 . S
H130 C131 0.961 . S
C131 C121 1.510 . S
C131 H129 0.959 . S
C131 H130 0.961 . S
C131 H132 0.960 . S
H132 C131 0.960 . S
H133 N113 0.862 . S
O134 Co102 1.920 . S
O134 C107 1.289 . S
C135 O127 1.212 1_545 S
C135 O128 1.313 . S
Co136 O139 1.970 . S
Co136 N153 2.022 . S
Co136 O161 1.967 . S
Co136 O168 1.920 . S
Co137 O140 1.966 1_655 S
Co137 N146 2.022 . S
Co137 N154 1.993 . S
Co137 O162 1.941 . S
C138 O139 1.258 . S
C138 O140 1.263 . S
O139 Co136 1.970 . S
O139 C138 1.258 . S
O140 Co137 1.966 1_455 S
O140 C138 1.263 . S
C141 O142 1.235 . S
C141 O168 1.289 . S
O142 C141 1.235 . S
C143 C145 1.400 . S
C143 N146 1.351 . S
C143 C148 1.501 . S
C144 C145 1.387 . S
C144 N147 1.341 . S
C145 C143 1.400 . S
C145 C144 1.387 . S
N146 Co137 2.022 . S
N146 C143 1.351 . S
N146 N147 1.365 . S
N147 C144 1.341 . S
N147 N146 1.365 . S
N147 H167 0.862 . S
C148 C143 1.501 . S
C148 H149 0.961 . S
C148 H150 0.961 . S
C148 H151 0.960 . S
H149 C148 0.961 . S
H150 C148 0.961 . S
H151 C148 0.960 . S
C152 N153 1.318 1_655 S
C152 C156 1.401 . S
C152 C157 1.499 1_655 S
N153 Co136 2.022 . S
N153 C152 1.318 1_455 S
N153 N154 1.374 1_455 S
N154 Co137 1.993 . S
N154 N153 1.374 1_655 S
N154 C155 1.346 . S
C155 N154 1.346 . S
C155 C156 1.396 . S
C155 C165 1.510 . S
C156 C152 1.401 . S
C156 C155 1.396 . S
C157 C152 1.499 1_455 S
C157 H158 0.959 . S
C157 H159 0.960 . S
C157 H160 0.961 . S
H158 C157 0.959 . S
H159 C157 0.960 . S
H160 C157 0.961 . S
O161 Co136 1.967 . S
O161 C169 1.233 1_455 S
O162 Co137 1.941 . S
O162 C169 1.289 . S
H163 C165 0.959 . S
H164 C165 0.961 . S
C165 C155 1.510 . S
C165 H163 0.959 . S
C165 H164 0.961 . S
C165 H166 0.960 . S
H166 C165 0.960 . S
H167 N147 0.862 . S
O168 Co136 1.920 . S
O168 C141 1.289 . S
C169 O161 1.233 1_655 S
C169 O162 1.289 . S
Co170 O173 1.970 . S
Co170 N187 1.989 . S
Co170 O195 1.967 . S
Co170 O202 1.920 . S
Co171 O174 1.966 . S
Co171 N180 2.022 . S
Co171 N188 1.993 . S
Co171 O196 1.941 . S
C172 O173 1.258 . S
C172 O174 1.263 . S
O173 Co170 1.970 . S
O173 C172 1.258 . S
O174 Co171 1.966 . S
O174 C172 1.263 . S
C175 O176 1.235 . S
C175 O202 1.289 . S
O176 C175 1.235 . S
C177 C179 1.400 . S
C177 N180 1.351 . S
C177 C182 1.501 . S
C178 C179 1.387 . S
C178 N181 1.341 . S
C179 C177 1.400 . S
C179 C178 1.387 . S
N180 Co171 2.022 . S
N180 C177 1.351 . S
N180 N181 1.365 . S
N181 C178 1.341 . S
N181 N180 1.365 . S
N181 H201 0.862 . S
C182 C177 1.501 . S
C182 H183 0.961 . S
C182 H184 0.961 . S
C182 H185 0.960 . S
H183 C182 0.961 . S
H184 C182 0.961 . S
H185 C182 0.960 . S
C186 N187 1.342 . S
C186 C190 1.401 . S
C186 C191 1.499 . S
N187 Co170 1.989 . S
N187 C186 1.342 . S
N187 N188 1.388 . S
N188 Co171 1.993 . S
N188 N187 1.388 . S
N188 C189 1.346 . S
C189 N188 1.346 . S
C189 C190 1.396 . S
C189 C199 1.510 . S
C190 C186 1.401 . S
C190 C189 1.396 . S
C191 C186 1.499 . S
C191 H192 0.959 . S
C191 H193 0.960 . S
C191 H194 0.961 . S
H192 C191 0.959 . S
H193 C191 0.960 . S
H194 C191 0.961 . S
O195 Co170 1.967 . S
O195 C203 1.258 . S
O196 Co171 1.941 . S
O196 C203 1.266 . S
H197 C199 0.959 . S
H198 C199 0.961 . S
C199 C189 1.510 . S
C199 H197 0.959 . S
C199 H198 0.961 . S
C199 H200 0.960 . S
H200 C199 0.960 . S
H201 N181 0.862 . S
O202 Co170 1.920 . S
O202 C175 1.289 . S
C203 O195 1.258 . S
C203 O196 1.266 . S
Co204 O207 1.970 . S
Co204 N221 2.010 . S
Co204 O229 1.967 . S
Co204 O236 1.920 . S
Co205 O208 1.966 1_655 S
Co205 N214 2.022 . S
Co205 N222 1.993 . S
Co205 O230 1.941 . S
C206 O207 1.258 . S
C206 O208 1.263 . S
O207 Co204 1.970 . S
O207 C206 1.258 . S
O208 Co205 1.966 1_455 S
O208 C206 1.263 . S
C209 O210 1.235 . S
C209 O236 1.289 . S
O210 C209 1.235 . S
C211 C213 1.400 . S
C211 N214 1.351 . S
C211 C216 1.501 . S
C212 C213 1.387 . S
C212 N215 1.341 . S
C213 C211 1.400 . S
C213 C212 1.387 . S
N214 Co205 2.022 . S
N214 C211 1.351 . S
N214 N215 1.365 . S
N215 C212 1.341 . S
N215 N214 1.365 . S
N215 H235 0.862 . S
C216 C211 1.501 . S
C216 H217 0.961 . S
C216 H218 0.961 . S
C216 H219 0.960 . S
H217 C216 0.961 . S
H218 C216 0.961 . S
H219 C216 0.960 . S
C220 N221 1.352 1_655 S
C220 C224 1.401 . S
C220 C225 1.499 1_655 S
N221 Co204 2.010 . S
N221 C220 1.352 1_455 S
N221 N222 1.348 1_455 S
N222 Co205 1.993 . S
N222 N221 1.348 1_655 S
N222 C223 1.346 . S
C223 N222 1.346 . S
C223 C224 1.396 . S
C223 C233 1.510 . S
C224 C220 1.401 . S
C224 C223 1.396 . S
C225 C220 1.499 1_455 S
C225 H226 0.959 . S
C225 H227 0.960 . S
C225 H228 0.961 . S
H226 C225 0.959 . S
H227 C225 0.960 . S
H228 C225 0.961 . S
O229 Co204 1.967 . S
O229 C237 1.212 1_455 S
O230 Co205 1.941 . S
O230 C237 1.313 . S
H231 C233 0.959 . S
H232 C233 0.961 . S
C233 C223 1.510 . S
C233 H231 0.959 . S
C233 H232 0.961 . S
C233 H234 0.960 . S
H234 C233 0.960 . S
H235 N215 0.862 . S
O236 Co204 1.920 . S
O236 C209 1.289 . S
C237 O229 1.212 1_655 S
C237 O230 1.313 . S
Co238 O241 1.970 . S
Co238 N255 1.989 . S
Co238 O263 1.967 . S
Co238 O270 1.920 . S
Co239 O242 1.966 . S
Co239 N248 2.022 . S
Co239 N256 1.993 . S
Co239 O264 1.941 . S
C240 O241 1.258 . S
C240 O242 1.263 . S
O241 Co238 1.970 . S
O241 C240 1.258 . S
O242 Co239 1.966 . S
O242 C240 1.263 . S
C243 O244 1.235 . S
C243 O270 1.289 . S
O244 C243 1.235 . S
C245 C247 1.400 . S
C245 N248 1.351 . S
C245 C250 1.501 . S
C246 C247 1.387 . S
C246 N249 1.341 . S
C247 C245 1.400 . S
C247 C246 1.387 . S
N248 Co239 2.022 . S
N248 C245 1.351 . S
N248 N249 1.365 . S
N249 C246 1.341 . S
N249 N248 1.365 . S
N249 H269 0.862 . S
C250 C245 1.501 . S
C250 H251 0.961 . S
C250 H252 0.961 . S
C250 H253 0.960 . S
H251 C250 0.961 . S
H252 C250 0.961 . S
H253 C250 0.960 . S
C254 N255 1.342 . S
C254 C258 1.401 . S
C254 C259 1.499 . S
N255 Co238 1.989 . S
N255 C254 1.342 . S
N255 N256 1.388 . S
N256 Co239 1.993 . S
N256 N255 1.388 . S
N256 C257 1.346 . S
C257 N256 1.346 . S
C257 C258 1.396 . S
C257 C267 1.510 . S
C258 C254 1.401 . S
C258 C257 1.396 . S
C259 C254 1.499 . S
C259 H260 0.959 . S
C259 H261 0.960 . S
C259 H262 0.961 . S
H260 C259 0.959 . S
H261 C259 0.960 . S
H262 C259 0.961 . S
O263 Co238 1.967 . S
O263 C271 1.258 . S
O264 Co239 1.941 . S
O264 C271 1.266 . S
H265 C267 0.959 . S
H266 C267 0.961 . S
C267 C257 1.510 . S
C267 H265 0.959 . S
C267 H266 0.961 . S
C267 H268 0.960 . S
H268 C267 0.960 . S
H269 N249 0.862 . S
O270 Co238 1.920 . S
O270 C243 1.289 . S
C271 O263 1.258 . S
C271 O264 1.266 . S
Co272 O275 1.970 . S
Co272 N289 2.022 . S
Co272 O297 1.967 . S
Co272 O304 1.920 . S
Co273 O276 1.966 1_545 S
Co273 N282 2.022 . S
Co273 N290 1.993 . S
Co273 O298 1.941 . S
C274 O275 1.258 . S
C274 O276 1.263 . S
O275 Co272 1.970 . S
O275 C274 1.258 . S
O276 Co273 1.966 1_565 S
O276 C274 1.263 . S
C277 O278 1.235 . S
C277 O304 1.289 . S
O278 C277 1.235 . S
C279 C281 1.400 . S
C279 N282 1.351 . S
C279 C284 1.501 . S
C280 C281 1.387 . S
C280 N283 1.341 . S
C281 C279 1.400 . S
C281 C280 1.387 . S
N282 Co273 2.022 . S
N282 C279 1.351 . S
N282 N283 1.365 . S
N283 C280 1.341 . S
N283 N282 1.365 . S
N283 H303 0.862 . S
C284 C279 1.501 . S
C284 H285 0.961 . S
C284 H286 0.961 . S
C284 H287 0.960 . S
H285 C284 0.961 . S
H286 C284 0.961 . S
H287 C284 0.960 . S
C288 N289 1.318 1_545 S
C288 C292 1.401 . S
C288 C293 1.499 1_545 S
N289 Co272 2.022 . S
N289 C288 1.318 1_565 S
N289 N290 1.374 1_565 S
N290 Co273 1.993 . S
N290 N289 1.374 1_545 S
N290 C291 1.346 . S
C291 N290 1.346 . S
C291 C292 1.396 . S
C291 C301 1.510 . S
C292 C288 1.401 . S
C292 C291 1.396 . S
C293 C288 1.499 1_565 S
C293 H294 0.959 . S
C293 H295 0.960 . S
C293 H296 0.961 . S
H294 C293 0.959 . S
H295 C293 0.960 . S
H296 C293 0.961 . S
O297 Co272 1.967 . S
O297 C305 1.233 1_565 S
O298 Co273 1.941 . S
O298 C305 1.289 . S
H299 C301 0.959 . S
H300 C301 0.961 . S
C301 C291 1.510 . S
C301 H299 0.959 . S
C301 H300 0.961 . S
C301 H302 0.960 . S
H302 C301 0.960 . S
H303 N283 0.862 . S
O304 Co272 1.920 . S
O304 C277 1.289 . S
C305 O297 1.233 1_545 S
C305 O298 1.289 . S
Co306 O309 1.970 . S
Co306 N323 2.010 . S
Co306 O331 1.967 . S
Co306 O338 1.920 . S
Co307 O310 1.966 1_565 S
Co307 N316 2.022 . S
Co307 N324 1.993 . S
Co307 O332 1.941 . S
C308 O309 1.258 . S
C308 O310 1.263 . S
O309 Co306 1.970 . S
O309 C308 1.258 . S
O310 Co307 1.966 1_545 S
O310 C308 1.263 . S
C311 O312 1.235 . S
C311 O338 1.289 . S
O312 C311 1.235 . S
C313 C315 1.400 . S
C313 N316 1.351 . S
C313 C318 1.501 . S
C314 C315 1.387 . S
C314 N317 1.341 . S
C315 C313 1.400 . S
C315 C314 1.387 . S
N316 Co307 2.022 . S
N316 C313 1.351 . S
N316 N317 1.365 . S
N317 C314 1.341 . S
N317 N316 1.365 . S
N317 H337 0.862 . S
C318 C313 1.501 . S
C318 H319 0.961 . S
C318 H320 0.961 . S
C318 H321 0.960 . S
H319 C318 0.961 . S
H320 C318 0.961 . S
H321 C318 0.960 . S
C322 N323 1.352 1_565 S
C322 C326 1.401 . S
C322 C327 1.499 1_565 S
N323 Co306 2.010 . S
N323 C322 1.352 1_545 S
N323 N324 1.348 1_545 S
N324 Co307 1.993 . S
N324 N323 1.348 1_565 S
N324 C325 1.346 . S
C325 N324 1.346 . S
C325 C326 1.396 . S
C325 C335 1.510 . S
C326 C322 1.401 . S
C326 C325 1.396 . S
C327 C322 1.499 1_545 S
C327 H328 0.959 . S
C327 H329 0.960 . S
C327 H330 0.961 . S
H328 C327 0.959 . S
H329 C327 0.960 . S
H330 C327 0.961 . S
O331 Co306 1.967 . S
O331 C339 1.212 1_545 S
O332 Co307 1.941 . S
O332 C339 1.313 . S
H333 C335 0.959 . S
H334 C335 0.961 . S
C335 C325 1.510 . S
C335 H333 0.959 . S
C335 H334 0.961 . S
C335 H336 0.960 . S
H336 C335 0.960 . S
H337 N317 0.862 . S
O338 Co306 1.920 . S
O338 C311 1.289 . S
C339 O331 1.212 1_565 S
C339 O332 1.313 . S
Co340 O343 1.970 . S
Co340 N357 2.022 . S
Co340 O365 1.967 . S
Co340 O372 1.920 . S
Co341 O344 1.966 1_455 S
Co341 N350 2.022 . S
Co341 N358 1.993 . S
Co341 O366 1.941 . S
C342 O343 1.258 . S
C342 O344 1.263 . S
O343 Co340 1.970 . S
O343 C342 1.258 . S
O344 Co341 1.966 1_655 S
O344 C342 1.263 . S
C345 O346 1.235 . S
C345 O372 1.289 . S
O346 C345 1.235 . S
C347 C349 1.400 . S
C347 N350 1.351 . S
C347 C352 1.501 . S
C348 C349 1.387 . S
C348 N351 1.341 . S
C349 C347 1.400 . S
C349 C348 1.387 . S
N350 Co341 2.022 . S
N350 C347 1.351 . S
N350 N351 1.365 . S
N351 C348 1.341 . S
N351 N350 1.365 . S
N351 H371 0.862 . S
C352 C347 1.501 . S
C352 H353 0.961 . S
C352 H354 0.961 . S
C352 H355 0.960 . S
H353 C352 0.961 . S
H354 C352 0.961 . S
H355 C352 0.960 . S
C356 N357 1.318 1_455 S
C356 C360 1.401 . S
C356 C361 1.499 1_455 S
N357 Co340 2.022 . S
N357 C356 1.318 1_655 S
N357 N358 1.374 1_655 S
N358 Co341 1.993 . S
N358 N357 1.374 1_455 S
N358 C359 1.346 . S
C359 N358 1.346 . S
C359 C360 1.396 . S
C359 C369 1.510 . S
C360 C356 1.401 . S
C360 C359 1.396 . S
C361 C356 1.499 1_655 S
C361 H362 0.959 . S
C361 H363 0.960 . S
C361 H364 0.961 . S
H362 C361 0.959 . S
H363 C361 0.960 . S
H364 C361 0.961 . S
O365 Co340 1.967 . S
O365 C373 1.233 1_655 S
O366 Co341 1.941 . S
O366 C373 1.289 . S
H367 C369 0.959 . S
H368 C369 0.961 . S
C369 C359 1.510 . S
C369 H367 0.959 . S
C369 H368 0.961 . S
C369 H370 0.960 . S
H370 C369 0.960 . S
H371 N351 0.862 . S
O372 Co340 1.920 . S
O372 C345 1.289 . S
C373 O365 1.233 1_455 S
C373 O366 1.289 . S
Co374 O377 1.970 . S
Co374 N391 1.989 . S
Co374 O399 1.967 . S
Co374 O406 1.920 . S
Co375 O378 1.966 . S
Co375 N384 2.022 . S
Co375 N392 1.993 . S
Co375 O400 1.941 . S
C376 O377 1.258 . S
C376 O378 1.263 . S
O377 Co374 1.970 . S
O377 C376 1.258 . S
O378 Co375 1.966 . S
O378 C376 1.263 . S
C379 O380 1.235 . S
C379 O406 1.289 . S
O380 C379 1.235 . S
C381 C383 1.400 . S
C381 N384 1.351 . S
C381 C386 1.501 . S
C382 C383 1.387 . S
C382 N385 1.341 . S
C383 C381 1.400 . S
C383 C382 1.387 . S
N384 Co375 2.022 . S
N384 C381 1.351 . S
N384 N385 1.365 . S
N385 C382 1.341 . S
N385 N384 1.365 . S
N385 H405 0.862 . S
C386 C381 1.501 . S
C386 H387 0.961 . S
C386 H388 0.961 . S
C386 H389 0.960 . S
H387 C386 0.961 . S
H388 C386 0.961 . S
H389 C386 0.960 . S
C390 N391 1.342 . S
C390 C394 1.401 . S
C390 C395 1.499 . S
N391 Co374 1.989 . S
N391 C390 1.342 . S
N391 N392 1.388 . S
N392 Co375 1.993 . S
N392 N391 1.388 . S
N392 C393 1.346 . S
C393 N392 1.346 . S
C393 C394 1.396 . S
C393 C403 1.510 . S
C394 C390 1.401 . S
C394 C393 1.396 . S
C395 C390 1.499 . S
C395 H396 0.959 . S
C395 H397 0.960 . S
C395 H398 0.961 . S
H396 C395 0.959 . S
H397 C395 0.960 . S
H398 C395 0.961 . S
O399 Co374 1.967 . S
O399 C407 1.258 . S
O400 Co375 1.941 . S
O400 C407 1.266 . S
H401 C403 0.959 . S
H402 C403 0.961 . S
C403 C393 1.510 . S
C403 H401 0.959 . S
C403 H402 0.961 . S
C403 H404 0.960 . S
H404 C403 0.960 . S
H405 N385 0.862 . S
O406 Co374 1.920 . S
O406 C379 1.289 . S
C407 O399 1.258 . S
C407 O400 1.266 . S
Co408 O411 1.970 . S
Co408 N425 1.989 . S
Co408 O433 1.967 . S
Co408 O440 1.920 . S
Co409 O412 1.966 . S
Co409 N418 2.022 . S
Co409 N426 1.993 . S
Co409 O434 1.941 . S
C410 O411 1.258 . S
C410 O412 1.263 . S
O411 Co408 1.970 . S
O411 C410 1.258 . S
O412 Co409 1.966 . S
O412 C410 1.263 . S
C413 O414 1.235 . S
C413 O440 1.289 . S
O414 C413 1.235 . S
C415 C417 1.400 . S
C415 N418 1.351 . S
C415 C420 1.501 . S
C416 C417 1.387 . S
C416 N419 1.341 . S
C417 C415 1.400 . S
C417 C416 1.387 . S
N418 Co409 2.022 . S
N418 C415 1.351 . S
N418 N419 1.365 . S
N419 C416 1.341 . S
N419 N418 1.365 . S
N419 H439 0.862 . S
C420 C415 1.501 . S
C420 H421 0.961 . S
C420 H422 0.961 . S
C420 H423 0.960 . S
H421 C420 0.961 . S
H422 C420 0.961 . S
H423 C420 0.960 . S
C424 N425 1.342 . S
C424 C428 1.401 . S
C424 C429 1.499 . S
N425 Co408 1.989 . S
N425 C424 1.342 . S
N425 N426 1.388 . S
N426 Co409 1.993 . S
N426 N425 1.388 . S
N426 C427 1.346 . S
C427 N426 1.346 . S
C427 C428 1.396 . S
C427 C437 1.510 . S
C428 C424 1.401 . S
C428 C427 1.396 . S
C429 C424 1.499 . S
C429 H430 0.959 . S
C429 H431 0.960 . S
C429 H432 0.961 . S
H430 C429 0.959 . S
H431 C429 0.960 . S
H432 C429 0.961 . S
O433 Co408 1.967 . S
O433 C441 1.258 . S
O434 Co409 1.941 . S
O434 C441 1.266 . S
H435 C437 0.959 . S
H436 C437 0.961 . S
C437 C427 1.510 . S
C437 H435 0.959 . S
C437 H436 0.961 . S
C437 H438 0.960 . S
H438 C437 0.960 . S
H439 N419 0.862 . S
O440 Co408 1.920 . S
O440 C413 1.289 . S
C441 O433 1.258 . S
C441 O434 1.266 . S
Co442 O445 1.970 . S
Co442 N459 1.989 . S
Co442 O467 1.967 . S
Co442 O474 1.920 . S
Co443 O446 1.966 . S
Co443 N452 2.022 . S
Co443 N460 1.993 . S
Co443 O468 1.941 . S
C444 O445 1.258 . S
C444 O446 1.263 . S
O445 Co442 1.970 . S
O445 C444 1.258 . S
O446 Co443 1.966 . S
O446 C444 1.263 . S
C447 O448 1.235 . S
C447 O474 1.289 . S
O448 C447 1.235 . S
C449 C451 1.400 . S
C449 N452 1.351 . S
C449 C454 1.501 . S
C450 C451 1.387 . S
C450 N453 1.341 . S
C451 C449 1.400 . S
C451 C450 1.387 . S
N452 Co443 2.022 . S
N452 C449 1.351 . S
N452 N453 1.365 . S
N453 C450 1.341 . S
N453 N452 1.365 . S
N453 H473 0.862 . S
C454 C449 1.501 . S
C454 H455 0.961 . S
C454 H456 0.961 . S
C454 H457 0.960 . S
H455 C454 0.961 . S
H456 C454 0.961 . S
H457 C454 0.960 . S
C458 N459 1.342 . S
C458 C462 1.401 . S
C458 C463 1.499 . S
N459 Co442 1.989 . S
N459 C458 1.342 . S
N459 N460 1.388 . S
N460 Co443 1.993 . S
N460 N459 1.388 . S
N460 C461 1.346 . S
C461 N460 1.346 . S
C461 C462 1.396 . S
C461 C471 1.510 . S
C462 C458 1.401 . S
C462 C461 1.396 . S
C463 C458 1.499 . S
C463 H464 0.959 . S
C463 H465 0.960 . S
C463 H466 0.961 . S
H464 C463 0.959 . S
H465 C463 0.960 . S
H466 C463 0.961 . S
O467 Co442 1.967 . S
O467 C475 1.258 . S
O468 Co443 1.941 . S
O468 C475 1.266 . S
H469 C471 0.959 . S
H470 C471 0.961 . S
C471 C461 1.510 . S
C471 H469 0.959 . S
C471 H470 0.961 . S
C471 H472 0.960 . S
H472 C471 0.960 . S
H473 N453 0.862 . S
O474 Co442 1.920 . S
O474 C447 1.289 . S
C475 O467 1.258 . S
C475 O468 1.266 . S
Co476 O479 1.970 . S
Co476 N493 1.989 . S
Co476 O501 1.967 . S
Co476 O508 1.920 . S
Co477 O480 1.966 . S
Co477 N486 2.022 . S
Co477 N494 1.993 . S
Co477 O502 1.941 . S
C478 O479 1.258 . S
C478 O480 1.263 . S
O479 Co476 1.970 . S
O479 C478 1.258 . S
O480 Co477 1.966 . S
O480 C478 1.263 . S
C481 O482 1.235 . S
C481 O508 1.289 . S
O482 C481 1.235 . S
C483 C485 1.400 . S
C483 N486 1.351 . S
C483 C488 1.501 . S
C484 C485 1.387 . S
C484 N487 1.341 . S
C485 C483 1.400 . S
C485 C484 1.387 . S
N486 Co477 2.022 . S
N486 C483 1.351 . S
N486 N487 1.365 . S
N487 C484 1.341 . S
N487 N486 1.365 . S
N487 H507 0.862 . S
C488 C483 1.501 . S
C488 H489 0.961 . S
C488 H490 0.961 . S
C488 H491 0.960 . S
H489 C488 0.961 . S
H490 C488 0.961 . S
H491 C488 0.960 . S
C492 N493 1.342 . S
C492 C496 1.401 . S
C492 C497 1.499 . S
N493 Co476 1.989 . S
N493 C492 1.342 . S
N493 N494 1.388 . S
N494 Co477 1.993 . S
N494 N493 1.388 . S
N494 C495 1.346 . S
C495 N494 1.346 . S
C495 C496 1.396 . S
C495 C505 1.510 . S
C496 C492 1.401 . S
C496 C495 1.396 . S
C497 C492 1.499 . S
C497 H498 0.959 . S
C497 H499 0.960 . S
C497 H500 0.961 . S
H498 C497 0.959 . S
H499 C497 0.960 . S
H500 C497 0.961 . S
O501 Co476 1.967 . S
O501 C509 1.258 . S
O502 Co477 1.941 . S
O502 C509 1.266 . S
H503 C505 0.959 . S
H504 C505 0.961 . S
C505 C495 1.510 . S
C505 H503 0.959 . S
C505 H504 0.961 . S
C505 H506 0.960 . S
H506 C505 0.960 . S
H507 N487 0.862 . S
O508 Co476 1.920 . S
O508 C481 1.289 . S
C509 O501 1.258 . S
C509 O502 1.266 . S
Co510 O513 1.970 . S
Co510 N527 1.989 . S
Co510 O535 1.967 . S
Co510 O542 1.920 . S
Co511 O514 1.966 . S
Co511 N520 2.022 . S
Co511 N528 1.993 . S
Co511 O536 1.941 . S
C512 O513 1.258 . S
C512 O514 1.263 . S
O513 Co510 1.970 . S
O513 C512 1.258 . S
O514 Co511 1.966 . S
O514 C512 1.263 . S
C515 O516 1.235 . S
C515 O542 1.289 . S
O516 C515 1.235 . S
C517 C519 1.400 . S
C517 N520 1.351 . S
C517 C522 1.501 . S
C518 C519 1.387 . S
C518 N521 1.341 . S
C519 C517 1.400 . S
C519 C518 1.387 . S
N520 Co511 2.022 . S
N520 C517 1.351 . S
N520 N521 1.365 . S
N521 C518 1.341 . S
N521 N520 1.365 . S
N521 H541 0.862 . S
C522 C517 1.501 . S
C522 H523 0.961 . S
C522 H524 0.961 . S
C522 H525 0.960 . S
H523 C522 0.961 . S
H524 C522 0.961 . S
H525 C522 0.960 . S
C526 N527 1.342 . S
C526 C530 1.401 . S
C526 C531 1.499 . S
N527 Co510 1.989 . S
N527 C526 1.342 . S
N527 N528 1.388 . S
N528 Co511 1.993 . S
N528 N527 1.388 . S
N528 C529 1.346 . S
C529 N528 1.346 . S
C529 C530 1.396 . S
C529 C539 1.510 . S
C530 C526 1.401 . S
C530 C529 1.396 . S
C531 C526 1.499 . S
C531 H532 0.959 . S
C531 H533 0.960 . S
C531 H534 0.961 . S
H532 C531 0.959 . S
H533 C531 0.960 . S
H534 C531 0.961 . S
O535 Co510 1.967 . S
O535 C543 1.258 . S
O536 Co511 1.941 . S
O536 C543 1.266 . S
H537 C539 0.959 . S
H538 C539 0.961 . S
C539 C529 1.510 . S
C539 H537 0.959 . S
C539 H538 0.961 . S
C539 H540 0.960 . S
H540 C539 0.960 . S
H541 N521 0.862 . S
O542 Co510 1.920 . S
O542 C515 1.289 . S
C543 O535 1.258 . S
C543 O536 1.266 . S
Co544 O547 1.970 . S
Co544 N561 1.989 . S
Co544 O569 1.967 . S
Co544 O576 1.920 . S
Co545 O548 1.966 . S
Co545 N554 2.022 . S
Co545 N562 1.993 . S
Co545 O570 1.941 . S
C546 O547 1.258 . S
C546 O548 1.263 . S
O547 Co544 1.970 . S
O547 C546 1.258 . S
O548 Co545 1.966 . S
O548 C546 1.263 . S
C549 O550 1.235 . S
C549 O576 1.289 . S
O550 C549 1.235 . S
C551 C553 1.400 . S
C551 N554 1.351 . S
C551 C556 1.501 . S
C552 C553 1.387 . S
C552 N555 1.341 . S
C553 C551 1.400 . S
C553 C552 1.387 . S
N554 Co545 2.022 . S
N554 C551 1.351 . S
N554 N555 1.365 . S
N555 C552 1.341 . S
N555 N554 1.365 . S
N555 H575 0.862 . S
C556 C551 1.501 . S
C556 H557 0.961 . S
C556 H558 0.961 . S
C556 H559 0.960 . S
H557 C556 0.961 . S
H558 C556 0.961 . S
H559 C556 0.960 . S
C560 N561 1.342 . S
C560 C564 1.401 . S
C560 C565 1.499 . S
N561 Co544 1.989 . S
N561 C560 1.342 . S
N561 N562 1.388 . S
N562 Co545 1.993 . S
N562 N561 1.388 . S
N562 C563 1.346 . S
C563 N562 1.346 . S
C563 C564 1.396 . S
C563 C573 1.510 . S
C564 C560 1.401 . S
C564 C563 1.396 . S
C565 C560 1.499 . S
C565 H566 0.959 . S
C565 H567 0.960 . S
C565 H568 0.961 . S
H566 C565 0.959 . S
H567 C565 0.960 . S
H568 C565 0.961 . S
O569 Co544 1.967 . S
O569 C577 1.258 . S
O570 Co545 1.941 . S
O570 C577 1.266 . S
H571 C573 0.959 . S
H572 C573 0.961 . S
C573 C563 1.510 . S
C573 H571 0.959 . S
C573 H572 0.961 . S
C573 H574 0.960 . S
H574 C573 0.960 . S
H575 N555 0.862 . S
O576 Co544 1.920 . S
O576 C549 1.289 . S
C577 O569 1.258 . S
C577 O570 1.266 . S
Co578 O581 1.970 . S
Co578 N595 1.989 . S
Co578 O603 1.967 . S
Co578 O610 1.920 . S
Co579 O582 1.966 . S
Co579 N588 2.022 . S
Co579 N596 1.993 . S
Co579 O604 1.941 . S
C580 O581 1.258 . S
C580 O582 1.263 . S
O581 Co578 1.970 . S
O581 C580 1.258 . S
O582 Co579 1.966 . S
O582 C580 1.263 . S
C583 O584 1.235 . S
C583 O610 1.289 . S
O584 C583 1.235 . S
C585 C587 1.400 . S
C585 N588 1.351 . S
C585 C590 1.501 . S
C586 C587 1.387 . S
C586 N589 1.341 . S
C587 C585 1.400 . S
C587 C586 1.387 . S
N588 Co579 2.022 . S
N588 C585 1.351 . S
N588 N589 1.365 . S
N589 C586 1.341 . S
N589 N588 1.365 . S
N589 H609 0.862 . S
C590 C585 1.501 . S
C590 H591 0.961 . S
C590 H592 0.961 . S
C590 H593 0.960 . S
H591 C590 0.961 . S
H592 C590 0.961 . S
H593 C590 0.960 . S
C594 N595 1.342 . S
C594 C598 1.401 . S
C594 C599 1.499 . S
N595 Co578 1.989 . S
N595 C594 1.342 . S
N595 N596 1.388 . S
N596 Co579 1.993 . S
N596 N595 1.388 . S
N596 C597 1.346 . S
C597 N596 1.346 . S
C597 C598 1.396 . S
C597 C607 1.510 . S
C598 C594 1.401 . S
C598 C597 1.396 . S
C599 C594 1.499 . S
C599 H600 0.959 . S
C599 H601 0.960 . S
C599 H602 0.961 . S
H600 C599 0.959 . S
H601 C599 0.960 . S
H602 C599 0.961 . S
O603 Co578 1.967 . S
O603 C611 1.258 . S
O604 Co579 1.941 . S
O604 C611 1.266 . S
H605 C607 0.959 . S
H606 C607 0.961 . S
C607 C597 1.510 . S
C607 H605 0.959 . S
C607 H606 0.961 . S
C607 H608 0.960 . S
H608 C607 0.960 . S
H609 N589 0.862 . S
O610 Co578 1.920 . S
O610 C583 1.289 . S
C611 O603 1.258 . S
C611 O604 1.266 . S
Co612 O615 1.970 . S
Co612 N629 1.989 . S
Co612 O637 1.967 . S
Co612 O644 1.920 . S
Co613 O616 1.966 . S
Co613 N622 2.022 . S
Co613 N630 1.993 . S
Co613 O638 1.941 . S
C614 O615 1.258 . S
C614 O616 1.263 . S
O615 Co612 1.970 . S
O615 C614 1.258 . S
O616 Co613 1.966 . S
O616 C614 1.263 . S
C617 O618 1.235 . S
C617 O644 1.289 . S
O618 C617 1.235 . S
C619 C621 1.400 . S
C619 N622 1.351 . S
C619 C624 1.501 . S
C620 C621 1.387 . S
C620 N623 1.341 . S
C621 C619 1.400 . S
C621 C620 1.387 . S
N622 Co613 2.022 . S
N622 C619 1.351 . S
N622 N623 1.365 . S
N623 C620 1.341 . S
N623 N622 1.365 . S
N623 H643 0.862 . S
C624 C619 1.501 . S
C624 H625 0.961 . S
C624 H626 0.961 . S
C624 H627 0.960 . S
H625 C624 0.961 . S
H626 C624 0.961 . S
H627 C624 0.960 . S
C628 N629 1.342 . S
C628 C632 1.401 . S
C628 C633 1.499 . S
N629 Co612 1.989 . S
N629 C628 1.342 . S
N629 N630 1.388 . S
N630 Co613 1.993 . S
N630 N629 1.388 . S
N630 C631 1.346 . S
C631 N630 1.346 . S
C631 C632 1.396 . S
C631 C641 1.510 . S
C632 C628 1.401 . S
C632 C631 1.396 . S
C633 C628 1.499 . S
C633 H634 0.959 . S
C633 H635 0.960 . S
C633 H636 0.961 . S
H634 C633 0.959 . S
H635 C633 0.960 . S
H636 C633 0.961 . S
O637 Co612 1.967 . S
O637 C645 1.258 . S
O638 Co613 1.941 . S
O638 C645 1.266 . S
H639 C641 0.959 . S
H640 C641 0.961 . S
C641 C631 1.510 . S
C641 H639 0.959 . S
C641 H640 0.961 . S
C641 H642 0.960 . S
H642 C641 0.960 . S
H643 N623 0.862 . S
O644 Co612 1.920 . S
O644 C617 1.289 . S
C645 O637 1.258 . S
C645 O638 1.266 . S
Co646 O649 1.970 . S
Co646 N663 1.989 . S
Co646 O671 1.967 . S
Co646 O678 1.920 . S
Co647 O650 1.966 . S
Co647 N656 2.022 . S
Co647 N664 1.993 . S
Co647 O672 1.941 . S
C648 O649 1.258 . S
C648 O650 1.263 . S
O649 Co646 1.970 . S
O649 C648 1.258 . S
O650 Co647 1.966 . S
O650 C648 1.263 . S
C651 O652 1.235 . S
C651 O678 1.289 . S
O652 C651 1.235 . S
C653 C655 1.400 . S
C653 N656 1.351 . S
C653 C658 1.501 . S
C654 C655 1.387 . S
C654 N657 1.341 . S
C655 C653 1.400 . S
C655 C654 1.387 . S
N656 Co647 2.022 . S
N656 C653 1.351 . S
N656 N657 1.365 . S
N657 C654 1.341 . S
N657 N656 1.365 . S
N657 H677 0.862 . S
C658 C653 1.501 . S
C658 H659 0.961 . S
C658 H660 0.961 . S
C658 H661 0.960 . S
H659 C658 0.961 . S
H660 C658 0.961 . S
H661 C658 0.960 . S
C662 N663 1.342 . S
C662 C666 1.401 . S
C662 C667 1.499 . S
N663 Co646 1.989 . S
N663 C662 1.342 . S
N663 N664 1.388 . S
N664 Co647 1.993 . S
N664 N663 1.388 . S
N664 C665 1.346 . S
C665 N664 1.346 . S
C665 C666 1.396 . S
C665 C675 1.510 . S
C666 C662 1.401 . S
C666 C665 1.396 . S
C667 C662 1.499 . S
C667 H668 0.959 . S
C667 H669 0.960 . S
C667 H670 0.961 . S
H668 C667 0.959 . S
H669 C667 0.960 . S
H670 C667 0.961 . S
O671 Co646 1.967 . S
O671 C679 1.258 . S
O672 Co647 1.941 . S
O672 C679 1.266 . S
H673 C675 0.959 . S
H674 C675 0.961 . S
C675 C665 1.510 . S
C675 H673 0.959 . S
C675 H674 0.961 . S
C675 H676 0.960 . S
H676 C675 0.960 . S
H677 N657 0.862 . S
O678 Co646 1.920 . S
O678 C651 1.289 . S
C679 O671 1.258 . S
C679 O672 1.266 . S
Co680 O683 1.970 . S
Co680 N697 1.989 . S
Co680 O705 1.967 . S
Co680 O712 1.920 . S
Co681 O684 1.966 . S
Co681 N690 2.022 . S
Co681 N698 1.993 . S
Co681 O706 1.941 . S
C682 O683 1.258 . S
C682 O684 1.263 . S
O683 Co680 1.970 . S
O683 C682 1.258 . S
O684 Co681 1.966 . S
O684 C682 1.263 . S
C685 O686 1.235 . S
C685 O712 1.289 . S
O686 C685 1.235 . S
C687 C689 1.400 . S
C687 N690 1.351 . S
C687 C692 1.501 . S
C688 C689 1.387 . S
C688 N691 1.341 . S
C689 C687 1.400 . S
C689 C688 1.387 . S
N690 Co681 2.022 . S
N690 C687 1.351 . S
N690 N691 1.365 . S
N691 C688 1.341 . S
N691 N690 1.365 . S
N691 H711 0.862 . S
C692 C687 1.501 . S
C692 H693 0.961 . S
C692 H694 0.961 . S
C692 H695 0.960 . S
H693 C692 0.961 . S
H694 C692 0.961 . S
H695 C692 0.960 . S
C696 N697 1.342 . S
C696 C700 1.401 . S
C696 C701 1.499 . S
N697 Co680 1.989 . S
N697 C696 1.342 . S
N697 N698 1.388 . S
N698 Co681 1.993 . S
N698 N697 1.388 . S
N698 C699 1.346 . S
C699 N698 1.346 . S
C699 C700 1.396 . S
C699 C709 1.510 . S
C700 C696 1.401 . S
C700 C699 1.396 . S
C701 C696 1.499 . S
C701 H702 0.959 . S
C701 H703 0.960 . S
C701 H704 0.961 . S
H702 C701 0.959 . S
H703 C701 0.960 . S
H704 C701 0.961 . S
O705 Co680 1.967 . S
O705 C713 1.258 . S
O706 Co681 1.941 . S
O706 C713 1.266 . S
H707 C709 0.959 . S
H708 C709 0.961 . S
C709 C699 1.510 . S
C709 H707 0.959 . S
C709 H708 0.961 . S
C709 H710 0.960 . S
H710 C709 0.960 . S
H711 N691 0.862 . S
O712 Co680 1.920 . S
O712 C685 1.289 . S
C713 O705 1.258 . S
C713 O706 1.266 . S
Co714 O717 1.970 . S
Co714 N731 1.989 . S
Co714 O739 1.967 1_556 S
Co714 O746 1.920 . S
Co715 O718 1.966 . S
Co715 N724 2.022 . S
Co715 N732 1.993 . S
Co715 O740 1.941 1_556 S
C716 O717 1.258 . S
C716 O718 1.263 . S
O717 Co714 1.970 . S
O717 C716 1.258 . S
O718 Co715 1.966 . S
O718 C716 1.263 . S
C719 O720 1.235 . S
C719 O746 1.289 . S
O720 C719 1.235 . S
C721 C723 1.400 . S
C721 N724 1.351 . S
C721 C726 1.501 . S
C722 C723 1.387 . S
C722 N725 1.341 . S
C723 C721 1.400 . S
C723 C722 1.387 . S
N724 Co715 2.022 . S
N724 C721 1.351 . S
N724 N725 1.365 . S
N725 C722 1.341 . S
N725 N724 1.365 . S
N725 H745 0.862 . S
C726 C721 1.501 . S
C726 H727 0.961 . S
C726 H728 0.961 . S
C726 H729 0.960 . S
H727 C726 0.961 . S
H728 C726 0.961 . S
H729 C726 0.960 . S
C730 N731 1.342 . S
C730 C734 1.401 . S
C730 C735 1.499 . S
N731 Co714 1.989 . S
N731 C730 1.342 . S
N731 N732 1.388 . S
N732 Co715 1.993 . S
N732 N731 1.388 . S
N732 C733 1.346 . S
C733 N732 1.346 . S
C733 C734 1.396 . S
C733 C743 1.510 . S
C734 C730 1.401 . S
C734 C733 1.396 . S
C735 C730 1.499 . S
C735 H736 0.959 . S
C735 H737 0.960 . S
C735 H738 0.961 . S
H736 C735 0.959 . S
H737 C735 0.960 . S
H738 C735 0.961 . S
O739 Co714 1.967 1_554 S
O739 C747 1.258 . S
O740 Co715 1.941 1_554 S
O740 C747 1.266 . S
H741 C743 0.959 . S
H742 C743 0.961 . S
C743 C733 1.510 . S
C743 H741 0.959 . S
C743 H742 0.961 . S
C743 H744 0.960 . S
H744 C743 0.960 . S
H745 N725 0.862 . S
O746 Co714 1.920 . S
O746 C719 1.289 . S
C747 O739 1.258 . S
C747 O740 1.266 . S
Co748 O751 1.970 . S
Co748 N765 1.989 . S
Co748 O773 1.967 1_556 S
Co748 O780 1.920 . S
Co749 O752 1.966 . S
Co749 N758 2.022 . S
Co749 N766 1.993 . S
Co749 O774 1.941 1_556 S
C750 O751 1.258 . S
C750 O752 1.263 . S
O751 Co748 1.970 . S
O751 C750 1.258 . S
O752 Co749 1.966 . S
O752 C750 1.263 . S
C753 O754 1.235 . S
C753 O780 1.289 . S
O754 C753 1.235 . S
C755 C757 1.400 . S
C755 N758 1.351 . S
C755 C760 1.501 . S
C756 C757 1.387 . S
C756 N759 1.341 . S
C757 C755 1.400 . S
C757 C756 1.387 . S
N758 Co749 2.022 . S
N758 C755 1.351 . S
N758 N759 1.365 . S
N759 C756 1.341 . S
N759 N758 1.365 . S
N759 H779 0.862 . S
C760 C755 1.501 . S
C760 H761 0.961 . S
C760 H762 0.961 . S
C760 H763 0.960 . S
H761 C760 0.961 . S
H762 C760 0.961 . S
H763 C760 0.960 . S
C764 N765 1.342 . S
C764 C768 1.401 . S
C764 C769 1.499 . S
N765 Co748 1.989 . S
N765 C764 1.342 . S
N765 N766 1.388 . S
N766 Co749 1.993 . S
N766 N765 1.388 . S
N766 C767 1.346 . S
C767 N766 1.346 . S
C767 C768 1.396 . S
C767 C777 1.510 . S
C768 C764 1.401 . S
C768 C767 1.396 . S
C769 C764 1.499 . S
C769 H770 0.959 . S
C769 H771 0.960 . S
C769 H772 0.961 . S
H770 C769 0.959 . S
H771 C769 0.960 . S
H772 C769 0.961 . S
O773 Co748 1.967 1_554 S
O773 C781 1.258 . S
O774 Co749 1.941 1_554 S
O774 C781 1.266 . S
H775 C777 0.959 . S
H776 C777 0.961 . S
C777 C767 1.510 . S
C777 H775 0.959 . S
C777 H776 0.961 . S
C777 H778 0.960 . S
H778 C777 0.960 . S
H779 N759 0.862 . S
O780 Co748 1.920 . S
O780 C753 1.289 . S
C781 O773 1.258 . S
C781 O774 1.266 . S
Co782 O785 1.970 . S
Co782 N799 1.989 . S
Co782 O807 1.967 1_556 S
Co782 O814 1.920 . S
Co783 O786 1.966 . S
Co783 N792 2.022 . S
Co783 N800 1.993 . S
Co783 O808 1.941 1_556 S
C784 O785 1.258 . S
C784 O786 1.263 . S
O785 Co782 1.970 . S
O785 C784 1.258 . S
O786 Co783 1.966 . S
O786 C784 1.263 . S
C787 O788 1.235 . S
C787 O814 1.289 . S
O788 C787 1.235 . S
C789 C791 1.400 . S
C789 N792 1.351 . S
C789 C794 1.501 . S
C790 C791 1.387 . S
C790 N793 1.341 . S
C791 C789 1.400 . S
C791 C790 1.387 . S
N792 Co783 2.022 . S
N792 C789 1.351 . S
N792 N793 1.365 . S
N793 C790 1.341 . S
N793 N792 1.365 . S
N793 H813 0.862 . S
C794 C789 1.501 . S
C794 H795 0.961 . S
C794 H796 0.961 . S
C794 H797 0.960 . S
H795 C794 0.961 . S
H796 C794 0.961 . S
H797 C794 0.960 . S
C798 N799 1.342 . S
C798 C802 1.401 . S
C798 C803 1.499 . S
N799 Co782 1.989 . S
N799 C798 1.342 . S
N799 N800 1.388 . S
N800 Co783 1.993 . S
N800 N799 1.388 . S
N800 C801 1.346 . S
C801 N800 1.346 . S
C801 C802 1.396 . S
C801 C811 1.510 . S
C802 C798 1.401 . S
C802 C801 1.396 . S
C803 C798 1.499 . S
C803 H804 0.959 . S
C803 H805 0.960 . S
C803 H806 0.961 . S
H804 C803 0.959 . S
H805 C803 0.960 . S
H806 C803 0.961 . S
O807 Co782 1.967 1_554 S
O807 C815 1.258 . S
O808 Co783 1.941 1_554 S
O808 C815 1.266 . S
H809 C811 0.959 . S
H810 C811 0.961 . S
C811 C801 1.510 . S
C811 H809 0.959 . S
C811 H810 0.961 . S
C811 H812 0.960 . S
H812 C811 0.960 . S
H813 N793 0.862 . S
O814 Co782 1.920 . S
O814 C787 1.289 . S
C815 O807 1.258 . S
C815 O808 1.266 . S
Co816 O819 1.970 . S
Co816 N833 1.989 . S
Co816 O841 1.967 . S
Co816 O848 1.920 . S
Co817 O820 1.966 . S
Co817 N826 2.022 . S
Co817 N834 1.993 . S
Co817 O842 1.941 . S
C818 O819 1.258 . S
C818 O820 1.263 . S
O819 Co816 1.970 . S
O819 C818 1.258 . S
O820 Co817 1.966 . S
O820 C818 1.263 . S
C821 O822 1.235 . S
C821 O848 1.289 . S
O822 C821 1.235 . S
C823 C825 1.400 . S
C823 N826 1.351 . S
C823 C828 1.501 . S
C824 C825 1.387 . S
C824 N827 1.341 . S
C825 C823 1.400 . S
C825 C824 1.387 . S
N826 Co817 2.022 . S
N826 C823 1.351 . S
N826 N827 1.365 . S
N827 C824 1.341 . S
N827 N826 1.365 . S
N827 H847 0.862 . S
C828 C823 1.501 . S
C828 H829 0.961 . S
C828 H830 0.961 . S
C828 H831 0.960 . S
H829 C828 0.961 . S
H830 C828 0.961 . S
H831 C828 0.960 . S
C832 N833 1.342 . S
C832 C836 1.401 . S
C832 C837 1.499 . S
N833 Co816 1.989 . S
N833 C832 1.342 . S
N833 N834 1.388 . S
N834 Co817 1.993 . S
N834 N833 1.388 . S
N834 C835 1.346 . S
C835 N834 1.346 . S
C835 C836 1.396 . S
C835 C845 1.510 . S
C836 C832 1.401 . S
C836 C835 1.396 . S
C837 C832 1.499 . S
C837 H838 0.959 . S
C837 H839 0.960 . S
C837 H840 0.961 . S
H838 C837 0.959 . S
H839 C837 0.960 . S
H840 C837 0.961 . S
O841 Co816 1.967 . S
O841 C849 1.258 . S
O842 Co817 1.941 . S
O842 C849 1.266 . S
H843 C845 0.959 . S
H844 C845 0.961 . S
C845 C835 1.510 . S
C845 H843 0.959 . S
C845 H844 0.961 . S
C845 H846 0.960 . S
H846 C845 0.960 . S
H847 N827 0.862 . S
O848 Co816 1.920 . S
O848 C821 1.289 . S
C849 O841 1.258 . S
C849 O842 1.266 . S
Co850 O853 1.970 . S
Co850 N867 1.989 . S
Co850 O875 1.967 . S
Co850 O882 1.920 . S
Co851 O854 1.966 . S
Co851 N860 2.022 . S
Co851 N868 1.993 . S
Co851 O876 1.941 . S
C852 O853 1.258 . S
C852 O854 1.263 . S
O853 Co850 1.970 . S
O853 C852 1.258 . S
O854 Co851 1.966 . S
O854 C852 1.263 . S
C855 O856 1.235 . S
C855 O882 1.289 . S
O856 C855 1.235 . S
C857 C859 1.400 . S
C857 N860 1.351 . S
C857 C862 1.501 . S
C858 C859 1.387 . S
C858 N861 1.341 . S
C859 C857 1.400 . S
C859 C858 1.387 . S
N860 Co851 2.022 . S
N860 C857 1.351 . S
N860 N861 1.365 . S
N861 C858 1.341 . S
N861 N860 1.365 . S
N861 H881 0.862 . S
C862 C857 1.501 . S
C862 H863 0.961 . S
C862 H864 0.961 . S
C862 H865 0.960 . S
H863 C862 0.961 . S
H864 C862 0.961 . S
H865 C862 0.960 . S
C866 N867 1.342 . S
C866 C870 1.401 . S
C866 C871 1.499 . S
N867 Co850 1.989 . S
N867 C866 1.342 . S
N867 N868 1.388 . S
N868 Co851 1.993 . S
N868 N867 1.388 . S
N868 C869 1.346 . S
C869 N868 1.346 . S
C869 C870 1.396 . S
C869 C879 1.510 . S
C870 C866 1.401 . S
C870 C869 1.396 . S
C871 C866 1.499 . S
C871 H872 0.959 . S
C871 H873 0.960 . S
C871 H874 0.961 . S
H872 C871 0.959 . S
H873 C871 0.960 . S
H874 C871 0.961 . S
O875 Co850 1.967 . S
O875 C883 1.258 . S
O876 Co851 1.941 . S
O876 C883 1.266 . S
H877 C879 0.959 . S
H878 C879 0.961 . S
C879 C869 1.510 . S
C879 H877 0.959 . S
C879 H878 0.961 . S
C879 H880 0.960 . S
H880 C879 0.960 . S
H881 N861 0.862 . S
O882 Co850 1.920 . S
O882 C855 1.289 . S
C883 O875 1.258 . S
C883 O876 1.266 . S
Co884 O887 1.970 . S
Co884 N901 1.989 . S
Co884 O909 1.967 . S
Co884 O916 1.920 . S
Co885 O888 1.966 . S
Co885 N894 2.022 . S
Co885 N902 1.993 . S
Co885 O910 1.941 . S
C886 O887 1.258 . S
C886 O888 1.263 . S
O887 Co884 1.970 . S
O887 C886 1.258 . S
O888 Co885 1.966 . S
O888 C886 1.263 . S
C889 O890 1.235 . S
C889 O916 1.289 . S
O890 C889 1.235 . S
C891 C893 1.400 . S
C891 N894 1.351 . S
C891 C896 1.501 . S
C892 C893 1.387 . S
C892 N895 1.341 . S
C893 C891 1.400 . S
C893 C892 1.387 . S
N894 Co885 2.022 . S
N894 C891 1.351 . S
N894 N895 1.365 . S
N895 C892 1.341 . S
N895 N894 1.365 . S
N895 H915 0.862 . S
C896 C891 1.501 . S
C896 H897 0.961 . S
C896 H898 0.961 . S
C896 H899 0.960 . S
H897 C896 0.961 . S
H898 C896 0.961 . S
H899 C896 0.960 . S
C900 N901 1.342 . S
C900 C904 1.401 . S
C900 C905 1.499 . S
N901 Co884 1.989 . S
N901 C900 1.342 . S
N901 N902 1.388 . S
N902 Co885 1.993 . S
N902 N901 1.388 . S
N902 C903 1.346 . S
C903 N902 1.346 . S
C903 C904 1.396 . S
C903 C913 1.510 . S
C904 C900 1.401 . S
C904 C903 1.396 . S
C905 C900 1.499 . S
C905 H906 0.959 . S
C905 H907 0.960 . S
C905 H908 0.961 . S
H906 C905 0.959 . S
H907 C905 0.960 . S
H908 C905 0.961 . S
O909 Co884 1.967 . S
O909 C917 1.258 . S
O910 Co885 1.941 . S
O910 C917 1.266 . S
H911 C913 0.959 . S
H912 C913 0.961 . S
C913 C903 1.510 . S
C913 H911 0.959 . S
C913 H912 0.961 . S
C913 H914 0.960 . S
H914 C913 0.960 . S
H915 N895 0.862 . S
O916 Co884 1.920 . S
O916 C889 1.289 . S
C917 O909 1.258 . S
C917 O910 1.266 . S
Co918 O921 1.970 . S
Co918 N935 1.989 . S
Co918 O943 1.967 1_554 S
Co918 O950 1.920 . S
Co919 O922 1.966 . S
Co919 N928 2.022 . S
Co919 N936 1.993 . S
Co919 O944 1.941 1_554 S
C920 O921 1.258 . S
C920 O922 1.263 . S
O921 Co918 1.970 . S
O921 C920 1.258 . S
O922 Co919 1.966 . S
O922 C920 1.263 . S
C923 O924 1.235 . S
C923 O950 1.289 . S
O924 C923 1.235 . S
C925 C927 1.400 . S
C925 N928 1.351 . S
C925 C930 1.501 . S
C926 C927 1.387 . S
C926 N929 1.341 . S
C927 C925 1.400 . S
C927 C926 1.387 . S
N928 Co919 2.022 . S
N928 C925 1.351 . S
N928 N929 1.365 . S
N929 C926 1.341 . S
N929 N928 1.365 . S
N929 H949 0.862 . S
C930 C925 1.501 . S
C930 H931 0.961 . S
C930 H932 0.961 . S
C930 H933 0.960 . S
H931 C930 0.961 . S
H932 C930 0.961 . S
H933 C930 0.960 . S
C934 N935 1.342 . S
C934 C938 1.401 . S
C934 C939 1.499 . S
N935 Co918 1.989 . S
N935 C934 1.342 . S
N935 N936 1.388 . S
N936 Co919 1.993 . S
N936 N935 1.388 . S
N936 C937 1.346 . S
C937 N936 1.346 . S
C937 C938 1.396 . S
C937 C947 1.510 . S
C938 C934 1.401 . S
C938 C937 1.396 . S
C939 C934 1.499 . S
C939 H940 0.959 . S
C939 H941 0.960 . S
C939 H942 0.961 . S
H940 C939 0.959 . S
H941 C939 0.960 . S
H942 C939 0.961 . S
O943 Co918 1.967 1_556 S
O943 C951 1.258 . S
O944 Co919 1.941 1_556 S
O944 C951 1.266 . S
H945 C947 0.959 . S
H946 C947 0.961 . S
C947 C937 1.510 . S
C947 H945 0.959 . S
C947 H946 0.961 . S
C947 H948 0.960 . S
H948 C947 0.960 . S
H949 N929 0.862 . S
O950 Co918 1.920 . S
O950 C923 1.289 . S
C951 O943 1.258 . S
C951 O944 1.266 . S
Co952 O955 1.970 . S
Co952 N969 1.989 . S
Co952 O977 1.967 1_554 S
Co952 O984 1.920 . S
Co953 O956 1.966 . S
Co953 N962 2.022 . S
Co953 N970 1.993 . S
Co953 O978 1.941 1_554 S
C954 O955 1.258 . S
C954 O956 1.263 . S
O955 Co952 1.970 . S
O955 C954 1.258 . S
O956 Co953 1.966 . S
O956 C954 1.263 . S
C957 O958 1.235 . S
C957 O984 1.289 . S
O958 C957 1.235 . S
C959 C961 1.400 . S
C959 N962 1.351 . S
C959 C964 1.501 . S
C960 C961 1.387 . S
C960 N963 1.341 . S
C961 C959 1.400 . S
C961 C960 1.387 . S
N962 Co953 2.022 . S
N962 C959 1.351 . S
N962 N963 1.365 . S
N963 C960 1.341 . S
N963 N962 1.365 . S
N963 H983 0.862 . S
C964 C959 1.501 . S
C964 H965 0.961 . S
C964 H966 0.961 . S
C964 H967 0.960 . S
H965 C964 0.961 . S
H966 C964 0.961 . S
H967 C964 0.960 . S
C968 N969 1.342 . S
C968 C972 1.401 . S
C968 C973 1.499 . S
N969 Co952 1.989 . S
N969 C968 1.342 . S
N969 N970 1.388 . S
N970 Co953 1.993 . S
N970 N969 1.388 . S
N970 C971 1.346 . S
C971 N970 1.346 . S
C971 C972 1.396 . S
C971 C981 1.510 . S
C972 C968 1.401 . S
C972 C971 1.396 . S
C973 C968 1.499 . S
C973 H974 0.959 . S
C973 H975 0.960 . S
C973 H976 0.961 . S
H974 C973 0.959 . S
H975 C973 0.960 . S
H976 C973 0.961 . S
O977 Co952 1.967 1_556 S
O977 C985 1.258 . S
O978 Co953 1.941 1_556 S
O978 C985 1.266 . S
H979 C981 0.959 . S
H980 C981 0.961 . S
C981 C971 1.510 . S
C981 H979 0.959 . S
C981 H980 0.961 . S
C981 H982 0.960 . S
H982 C981 0.960 . S
H983 N963 0.862 . S
O984 Co952 1.920 . S
O984 C957 1.289 . S
C985 O977 1.258 . S
C985 O978 1.266 . S
Co986 O989 1.970 . S
Co986 N1003 1.989 . S
Co986 O1011 1.967 1_554 S
Co986 O1018 1.920 . S
Co987 O990 1.966 . S
Co987 N996 2.022 . S
Co987 N1004 1.993 . S
Co987 O1012 1.941 1_554 S
C988 O989 1.258 . S
C988 O990 1.263 . S
O989 Co986 1.970 . S
O989 C988 1.258 . S
O990 Co987 1.966 . S
O990 C988 1.263 . S
C991 O992 1.235 . S
C991 O1018 1.289 . S
O992 C991 1.235 . S
C993 C995 1.400 . S
C993 N996 1.351 . S
C993 C998 1.501 . S
C994 C995 1.387 . S
C994 N997 1.341 . S
C995 C993 1.400 . S
C995 C994 1.387 . S
N996 Co987 2.022 . S
N996 C993 1.351 . S
N996 N997 1.365 . S
N997 C994 1.341 . S
N997 N996 1.365 . S
N997 H1017 0.862 . S
C998 C993 1.501 . S
C998 H999 0.961 . S
C998 H1000 0.961 . S
C998 H1001 0.960 . S
H999 C998 0.961 . S
H1000 C998 0.961 . S
H1001 C998 0.960 . S
C1002 N1003 1.342 . S
C1002 C1006 1.401 . S
C1002 C1007 1.499 . S
N1003 Co986 1.989 . S
N1003 C1002 1.342 . S
N1003 N1004 1.388 . S
N1004 Co987 1.993 . S
N1004 N1003 1.388 . S
N1004 C1005 1.346 . S
C1005 N1004 1.346 . S
C1005 C1006 1.396 . S
C1005 C1015 1.510 . S
C1006 C1002 1.401 . S
C1006 C1005 1.396 . S
C1007 C1002 1.499 . S
C1007 H1008 0.959 . S
C1007 H1009 0.960 . S
C1007 H1010 0.961 . S
H1008 C1007 0.959 . S
H1009 C1007 0.960 . S
H1010 C1007 0.961 . S
O1011 Co986 1.967 1_556 S
O1011 C1019 1.258 . S
O1012 Co987 1.941 1_556 S
O1012 C1019 1.266 . S
H1013 C1015 0.959 . S
H1014 C1015 0.961 . S
C1015 C1005 1.510 . S
C1015 H1013 0.959 . S
C1015 H1014 0.961 . S
C1015 H1016 0.960 . S
H1016 C1015 0.960 . S
H1017 N997 0.862 . S
O1018 Co986 1.920 . S
O1018 C991 1.289 . S
C1019 O1011 1.258 . S
C1019 O1012 1.266 . S
Co1020 O1023 1.970 . S
Co1020 N1037 1.989 . S
Co1020 O1045 1.967 . S
Co1020 O1052 1.920 . S
Co1021 O1024 1.966 . S
Co1021 N1030 2.022 . S
Co1021 N1038 1.993 . S
Co1021 O1046 1.941 . S
C1022 O1023 1.258 . S
C1022 O1024 1.263 . S
O1023 Co1020 1.970 . S
O1023 C1022 1.258 . S
O1024 Co1021 1.966 . S
O1024 C1022 1.263 . S
C1025 O1026 1.235 . S
C1025 O1052 1.289 . S
O1026 C1025 1.235 . S
C1027 C1029 1.400 . S
C1027 N1030 1.351 . S
C1027 C1032 1.501 . S
C1028 C1029 1.387 . S
C1028 N1031 1.341 . S
C1029 C1027 1.400 . S
C1029 C1028 1.387 . S
N1030 Co1021 2.022 . S
N1030 C1027 1.351 . S
N1030 N1031 1.365 . S
N1031 C1028 1.341 . S
N1031 N1030 1.365 . S
N1031 H1051 0.862 . S
C1032 C1027 1.501 . S
C1032 H1033 0.961 . S
C1032 H1034 0.961 . S
C1032 H1035 0.960 . S
H1033 C1032 0.961 . S
H1034 C1032 0.961 . S
H1035 C1032 0.960 . S
C1036 N1037 1.342 . S
C1036 C1040 1.401 . S
C1036 C1041 1.499 . S
N1037 Co1020 1.989 . S
N1037 C1036 1.342 . S
N1037 N1038 1.388 . S
N1038 Co1021 1.993 . S
N1038 N1037 1.388 . S
N1038 C1039 1.346 . S
C1039 N1038 1.346 . S
C1039 C1040 1.396 . S
C1039 C1049 1.510 . S
C1040 C1036 1.401 . S
C1040 C1039 1.396 . S
C1041 C1036 1.499 . S
C1041 H1042 0.959 . S
C1041 H1043 0.960 . S
C1041 H1044 0.961 . S
H1042 C1041 0.959 . S
H1043 C1041 0.960 . S
H1044 C1041 0.961 . S
O1045 Co1020 1.967 . S
O1045 C1053 1.258 . S
O1046 Co1021 1.941 . S
O1046 C1053 1.266 . S
H1047 C1049 0.959 . S
H1048 C1049 0.961 . S
C1049 C1039 1.510 . S
C1049 H1047 0.959 . S
C1049 H1048 0.961 . S
C1049 H1050 0.960 . S
H1050 C1049 0.960 . S
H1051 N1031 0.862 . S
O1052 Co1020 1.920 . S
O1052 C1025 1.289 . S
C1053 O1045 1.258 . S
C1053 O1046 1.266 . S
Co1054 O1057 1.970 . S
Co1054 N1071 1.989 . S
Co1054 O1079 1.967 . S
Co1054 O1086 1.920 . S
Co1055 O1058 1.966 . S
Co1055 N1064 2.022 . S
Co1055 N1072 1.993 . S
Co1055 O1080 1.941 . S
C1056 O1057 1.258 . S
C1056 O1058 1.263 . S
O1057 Co1054 1.970 . S
O1057 C1056 1.258 . S
O1058 Co1055 1.966 . S
O1058 C1056 1.263 . S
C1059 O1060 1.235 . S
C1059 O1086 1.289 . S
O1060 C1059 1.235 . S
C1061 C1063 1.400 . S
C1061 N1064 1.351 . S
C1061 C1066 1.501 . S
C1062 C1063 1.387 . S
C1062 N1065 1.341 . S
C1063 C1061 1.400 . S
C1063 C1062 1.387 . S
N1064 Co1055 2.022 . S
N1064 C1061 1.351 . S
N1064 N1065 1.365 . S
N1065 C1062 1.341 . S
N1065 N1064 1.365 . S
N1065 H1085 0.862 . S
C1066 C1061 1.501 . S
C1066 H1067 0.961 . S
C1066 H1068 0.961 . S
C1066 H1069 0.960 . S
H1067 C1066 0.961 . S
H1068 C1066 0.961 . S
H1069 C1066 0.960 . S
C1070 N1071 1.342 . S
C1070 C1074 1.401 . S
C1070 C1075 1.499 . S
N1071 Co1054 1.989 . S
N1071 C1070 1.342 . S
N1071 N1072 1.388 . S
N1072 Co1055 1.993 . S
N1072 N1071 1.388 . S
N1072 C1073 1.346 . S
C1073 N1072 1.346 . S
C1073 C1074 1.396 . S
C1073 C1083 1.510 . S
C1074 C1070 1.401 . S
C1074 C1073 1.396 . S
C1075 C1070 1.499 . S
C1075 H1076 0.959 . S
C1075 H1077 0.960 . S
C1075 H1078 0.961 . S
H1076 C1075 0.959 . S
H1077 C1075 0.960 . S
H1078 C1075 0.961 . S
O1079 Co1054 1.967 . S
O1079 C1087 1.258 . S
O1080 Co1055 1.941 . S
O1080 C1087 1.266 . S
H1081 C1083 0.959 . S
H1082 C1083 0.961 . S
C1083 C1073 1.510 . S
C1083 H1081 0.959 . S
C1083 H1082 0.961 . S
C1083 H1084 0.960 . S
H1084 C1083 0.960 . S
H1085 N1065 0.862 . S
O1086 Co1054 1.920 . S
O1086 C1059 1.289 . S
C1087 O1079 1.258 . S
C1087 O1080 1.266 . S
Co1088 O1091 1.970 . S
Co1088 N1105 1.989 . S
Co1088 O1113 1.967 . S
Co1088 O1120 1.920 . S
Co1089 O1092 1.966 . S
Co1089 N1098 2.022 . S
Co1089 N1106 1.993 . S
Co1089 O1114 1.941 . S
C1090 O1091 1.258 . S
C1090 O1092 1.263 . S
O1091 Co1088 1.970 . S
O1091 C1090 1.258 . S
O1092 Co1089 1.966 . S
O1092 C1090 1.263 . S
C1093 O1094 1.235 . S
C1093 O1120 1.289 . S
O1094 C1093 1.235 . S
C1095 C1097 1.400 . S
C1095 N1098 1.351 . S
C1095 C1100 1.501 . S
C1096 C1097 1.387 . S
C1096 N1099 1.341 . S
C1097 C1095 1.400 . S
C1097 C1096 1.387 . S
N1098 Co1089 2.022 . S
N1098 C1095 1.351 . S
N1098 N1099 1.365 . S
N1099 C1096 1.341 . S
N1099 N1098 1.365 . S
N1099 H1119 0.862 . S
C1100 C1095 1.501 . S
C1100 H1101 0.961 . S
C1100 H1102 0.961 . S
C1100 H1103 0.960 . S
H1101 C1100 0.961 . S
H1102 C1100 0.961 . S
H1103 C1100 0.960 . S
C1104 N1105 1.342 . S
C1104 C1108 1.401 . S
C1104 C1109 1.499 . S
N1105 Co1088 1.989 . S
N1105 C1104 1.342 . S
N1105 N1106 1.388 . S
N1106 Co1089 1.993 . S
N1106 N1105 1.388 . S
N1106 C1107 1.346 . S
C1107 N1106 1.346 . S
C1107 C1108 1.396 . S
C1107 C1117 1.510 . S
C1108 C1104 1.401 . S
C1108 C1107 1.396 . S
C1109 C1104 1.499 . S
C1109 H1110 0.959 . S
C1109 H1111 0.960 . S
C1109 H1112 0.961 . S
H1110 C1109 0.959 . S
H1111 C1109 0.960 . S
H1112 C1109 0.961 . S
O1113 Co1088 1.967 . S
O1113 C1121 1.258 . S
O1114 Co1089 1.941 . S
O1114 C1121 1.266 . S
H1115 C1117 0.959 . S
H1116 C1117 0.961 . S
C1117 C1107 1.510 . S
C1117 H1115 0.959 . S
C1117 H1116 0.961 . S
C1117 H1118 0.960 . S
H1118 C1117 0.960 . S
H1119 N1099 0.862 . S
O1120 Co1088 1.920 . S
O1120 C1093 1.289 . S
C1121 O1113 1.258 . S
C1121 O1114 1.266 . S
Co1122 O1125 1.970 . S
Co1122 N1139 1.989 . S
Co1122 O1147 1.967 . S
Co1122 O1154 1.920 . S
Co1123 O1126 1.966 . S
Co1123 N1132 2.022 . S
Co1123 N1140 1.993 . S
Co1123 O1148 1.941 . S
C1124 O1125 1.258 . S
C1124 O1126 1.263 . S
O1125 Co1122 1.970 . S
O1125 C1124 1.258 . S
O1126 Co1123 1.966 . S
O1126 C1124 1.263 . S
C1127 O1128 1.235 . S
C1127 O1154 1.289 . S
O1128 C1127 1.235 . S
C1129 C1131 1.400 . S
C1129 N1132 1.351 . S
C1129 C1134 1.501 . S
C1130 C1131 1.387 . S
C1130 N1133 1.341 . S
C1131 C1129 1.400 . S
C1131 C1130 1.387 . S
N1132 Co1123 2.022 . S
N1132 C1129 1.351 . S
N1132 N1133 1.365 . S
N1133 C1130 1.341 . S
N1133 N1132 1.365 . S
N1133 H1153 0.862 . S
C1134 C1129 1.501 . S
C1134 H1135 0.961 . S
C1134 H1136 0.961 . S
C1134 H1137 0.960 . S
H1135 C1134 0.961 . S
H1136 C1134 0.961 . S
H1137 C1134 0.960 . S
C1138 N1139 1.342 . S
C1138 C1142 1.401 . S
C1138 C1143 1.499 . S
N1139 Co1122 1.989 . S
N1139 C1138 1.342 . S
N1139 N1140 1.388 . S
N1140 Co1123 1.993 . S
N1140 N1139 1.388 . S
N1140 C1141 1.346 . S
C1141 N1140 1.346 . S
C1141 C1142 1.396 . S
C1141 C1151 1.510 . S
C1142 C1138 1.401 . S
C1142 C1141 1.396 . S
C1143 C1138 1.499 . S
C1143 H1144 0.959 . S
C1143 H1145 0.960 . S
C1143 H1146 0.961 . S
H1144 C1143 0.959 . S
H1145 C1143 0.960 . S
H1146 C1143 0.961 . S
O1147 Co1122 1.967 . S
O1147 C1155 1.258 . S
O1148 Co1123 1.941 . S
O1148 C1155 1.266 . S
H1149 C1151 0.959 . S
H1150 C1151 0.961 . S
C1151 C1141 1.510 . S
C1151 H1149 0.959 . S
C1151 H1150 0.961 . S
C1151 H1152 0.960 . S
H1152 C1151 0.960 . S
H1153 N1133 0.862 . S
O1154 Co1122 1.920 . S
O1154 C1127 1.289 . S
C1155 O1147 1.258 . S
C1155 O1148 1.266 . S
Co1156 O1159 1.970 . S
Co1156 N1173 1.989 . S
Co1156 O1181 1.967 . S
Co1156 O1188 1.920 . S
Co1157 O1160 1.966 . S
Co1157 N1166 2.022 . S
Co1157 N1174 1.993 . S
Co1157 O1182 1.941 . S
C1158 O1159 1.258 . S
C1158 O1160 1.263 . S
O1159 Co1156 1.970 . S
O1159 C1158 1.258 . S
O1160 Co1157 1.966 . S
O1160 C1158 1.263 . S
C1161 O1162 1.235 . S
C1161 O1188 1.289 . S
O1162 C1161 1.235 . S
C1163 C1165 1.400 . S
C1163 N1166 1.351 . S
C1163 C1168 1.501 . S
C1164 C1165 1.387 . S
C1164 N1167 1.341 . S
C1165 C1163 1.400 . S
C1165 C1164 1.387 . S
N1166 Co1157 2.022 . S
N1166 C1163 1.351 . S
N1166 N1167 1.365 . S
N1167 C1164 1.341 . S
N1167 N1166 1.365 . S
N1167 H1187 0.862 . S
C1168 C1163 1.501 . S
C1168 H1169 0.961 . S
C1168 H1170 0.961 . S
C1168 H1171 0.960 . S
H1169 C1168 0.961 . S
H1170 C1168 0.961 . S
H1171 C1168 0.960 . S
C1172 N1173 1.342 . S
C1172 C1176 1.401 . S
C1172 C1177 1.499 . S
N1173 Co1156 1.989 . S
N1173 C1172 1.342 . S
N1173 N1174 1.388 . S
N1174 Co1157 1.993 . S
N1174 N1173 1.388 . S
N1174 C1175 1.346 . S
C1175 N1174 1.346 . S
C1175 C1176 1.396 . S
C1175 C1185 1.510 . S
C1176 C1172 1.401 . S
C1176 C1175 1.396 . S
C1177 C1172 1.499 . S
C1177 H1178 0.959 . S
C1177 H1179 0.960 . S
C1177 H1180 0.961 . S
H1178 C1177 0.959 . S
H1179 C1177 0.960 . S
H1180 C1177 0.961 . S
O1181 Co1156 1.967 . S
O1181 C1189 1.258 . S
O1182 Co1157 1.941 . S
O1182 C1189 1.266 . S
H1183 C1185 0.959 . S
H1184 C1185 0.961 . S
C1185 C1175 1.510 . S
C1185 H1183 0.959 . S
C1185 H1184 0.961 . S
C1185 H1186 0.960 . S
H1186 C1185 0.960 . S
H1187 N1167 0.862 . S
O1188 Co1156 1.920 . S
O1188 C1161 1.289 . S
C1189 O1181 1.258 . S
C1189 O1182 1.266 . S
Co1190 O1193 1.970 . S
Co1190 N1207 1.989 . S
Co1190 O1215 1.967 . S
Co1190 O1222 1.920 . S
Co1191 O1194 1.966 . S
Co1191 N1200 2.022 . S
Co1191 N1208 1.993 . S
Co1191 O1216 1.941 . S
C1192 O1193 1.258 . S
C1192 O1194 1.263 . S
O1193 Co1190 1.970 . S
O1193 C1192 1.258 . S
O1194 Co1191 1.966 . S
O1194 C1192 1.263 . S
C1195 O1196 1.235 . S
C1195 O1222 1.289 . S
O1196 C1195 1.235 . S
C1197 C1199 1.400 . S
C1197 N1200 1.351 . S
C1197 C1202 1.501 . S
C1198 C1199 1.387 . S
C1198 N1201 1.341 . S
C1199 C1197 1.400 . S
C1199 C1198 1.387 . S
N1200 Co1191 2.022 . S
N1200 C1197 1.351 . S
N1200 N1201 1.365 . S
N1201 C1198 1.341 . S
N1201 N1200 1.365 . S
N1201 H1221 0.862 . S
C1202 C1197 1.501 . S
C1202 H1203 0.961 . S
C1202 H1204 0.961 . S
C1202 H1205 0.960 . S
H1203 C1202 0.961 . S
H1204 C1202 0.961 . S
H1205 C1202 0.960 . S
C1206 N1207 1.342 . S
C1206 C1210 1.401 . S
C1206 C1211 1.499 . S
N1207 Co1190 1.989 . S
N1207 C1206 1.342 . S
N1207 N1208 1.388 . S
N1208 Co1191 1.993 . S
N1208 N1207 1.388 . S
N1208 C1209 1.346 . S
C1209 N1208 1.346 . S
C1209 C1210 1.396 . S
C1209 C1219 1.510 . S
C1210 C1206 1.401 . S
C1210 C1209 1.396 . S
C1211 C1206 1.499 . S
C1211 H1212 0.959 . S
C1211 H1213 0.960 . S
C1211 H1214 0.961 . S
H1212 C1211 0.959 . S
H1213 C1211 0.960 . S
H1214 C1211 0.961 . S
O1215 Co1190 1.967 . S
O1215 C1223 1.258 . S
O1216 Co1191 1.941 . S
O1216 C1223 1.266 . S
H1217 C1219 0.959 . S
H1218 C1219 0.961 . S
C1219 C1209 1.510 . S
C1219 H1217 0.959 . S
C1219 H1218 0.961 . S
C1219 H1220 0.960 . S
H1220 C1219 0.960 . S
H1221 N1201 0.862 . S
O1222 Co1190 1.920 . S
O1222 C1195 1.289 . S
C1223 O1215 1.258 . S
C1223 O1216 1.266 . S
H1224 C1232 0.929 . S
H1225 C1234 0.930 . S
H1226 C1236 0.930 . S
H1227 C1239 0.929 . S
H1228 C1242 0.930 . S
H1229 C1244 0.960 . S
H1230 C1244 0.960 . S
H1231 C1244 0.960 . S
C1232 H1224 0.929 . S
C1232 C1233 1.377 . S
C1232 C1234 1.384 . S
C1233 C1232 1.377 . S
C1233 C1239 1.390 . S
C1234 H1225 0.930 . S
C1234 C1232 1.384 . S
C1234 C1235 1.372 . S
C1235 C1234 1.372 . S
C1235 C1236 1.400 . S
C1235 C1240 1.490 . S
C1236 H1226 0.930 . S
C1236 C1235 1.400 . S
C1236 C1239 1.386 . S
H1237 C1253 0.930 . S
H1238 C1254 0.931 . S
C1239 H1227 0.929 . S
C1239 C1233 1.390 . S
C1239 C1236 1.386 . S
C1240 C1235 1.490 . S
C1240 C1242 1.395 . S
C1240 C1243 1.403 . S
H1241 C1247 0.930 . S
C1242 H1228 0.930 . S
C1242 C1240 1.395 . S
C1242 C1245 1.403 . S
C1243 C1240 1.403 . S
C1243 C1244 1.524 . S
C1243 C1247 1.400 . S
C1244 H1229 0.960 . S
C1244 H1230 0.960 . S
C1244 H1231 0.960 . S
C1244 C1243 1.524 . S
C1245 C1242 1.403 . S
C1245 C1246 1.392 . S
C1245 C1249 1.495 . S
C1246 C1245 1.392 . S
C1246 C1247 1.385 . S
C1246 C1248 1.478 . S
C1247 H1241 0.930 . S
C1247 C1243 1.400 . S
C1247 C1246 1.385 . S
C1248 C1246 1.478 . S
C1248 C1250 1.381 . S
C1248 C1254 1.383 . S
C1249 C1245 1.495 . S
C1249 H1255 0.959 . S
C1249 H1256 0.961 . S
C1249 H1257 0.960 . S
C1250 C1248 1.381 . S
C1250 C1251 1.394 . S
C1250 H1258 0.930 . S
C1251 C1250 1.394 . S
C1251 C1252 1.383 . S
C1251 H1259 0.929 . S
C1252 C1251 1.383 . S
C1252 C1253 1.377 . S
C1253 H1237 0.930 . S
C1253 C1252 1.377 . S
C1253 C1254 1.379 . S
C1254 H1238 0.931 . S
C1254 C1248 1.383 . S
C1254 C1253 1.379 . S
H1255 C1249 0.959 . S
H1256 C1249 0.961 . S
H1257 C1249 0.960 . S
H1258 C1250 0.930 . S
H1259 C1251 0.929 . S
H1260 C1268 0.929 . S
H1261 C1270 0.930 . S
H1262 C1272 0.930 . S
H1263 C1275 0.929 . S
H1264 C1278 0.930 . S
H1265 C1280 0.959 1_545 S
H1266 C1280 0.960 . S
H1267 C1280 0.960 . S
C1268 H1260 0.929 . S
C1268 C1269 1.377 . S
C1268 C1270 1.384 . S
C1269 C1268 1.377 . S
C1269 C1275 1.390 . S
C1270 H1261 0.930 . S
C1270 C1268 1.384 . S
C1270 C1271 1.372 . S
C1271 C1270 1.372 . S
C1271 C1272 1.400 . S
C1271 C1276 1.490 . S
C1272 H1262 0.930 . S
C1272 C1271 1.400 . S
C1272 C1275 1.386 . S
H1273 C1289 0.930 . S
H1274 C1290 0.931 . S
C1275 H1263 0.929 . S
C1275 C1269 1.390 . S
C1275 C1272 1.386 . S
C1276 C1271 1.490 . S
C1276 C1278 1.395 1_565 S
C1276 C1279 1.403 1_565 S
H1277 C1283 0.930 . S
C1278 H1264 0.930 . S
C1278 C1276 1.395 1_545 S
C1278 C1281 1.403 . S
C1279 C1276 1.403 1_545 S
C1279 C1280 1.524 1_545 S
C1279 C1283 1.400 . S
C1280 H1265 0.959 1_565 S
C1280 H1266 0.960 . S
C1280 H1267 0.960 . S
C1280 C1279 1.524 1_565 S
C1281 C1278 1.403 . S
C1281 C1282 1.392 . S
C1281 C1285 1.495 . S
C1282 C1281 1.392 . S
C1282 C1283 1.385 . S
C1282 C1284 1.478 . S
C1283 H1277 0.930 . S
C1283 C1279 1.400 . S
C1283 C1282 1.385 . S
C1284 C1282 1.478 . S
C1284 C1286 1.381 . S
C1284 C1290 1.383 . S
C1285 C1281 1.495 . S
C1285 H1291 0.959 . S
C1285 H1292 0.961 . S
C1285 H1293 0.960 . S
C1286 C1284 1.381 . S
C1286 C1287 1.394 . S
C1286 H1294 0.930 . S
C1287 C1286 1.394 . S
C1287 C1288 1.383 . S
C1287 H1295 0.929 . S
C1288 C1287 1.383 . S
C1288 C1289 1.377 . S
C1289 H1273 0.930 . S
C1289 C1288 1.377 . S
C1289 C1290 1.379 . S
C1290 H1274 0.931 . S
C1290 C1284 1.383 . S
C1290 C1289 1.379 . S
H1291 C1285 0.959 . S
H1292 C1285 0.961 . S
H1293 C1285 0.960 . S
H1294 C1286 0.930 . S
H1295 C1287 0.929 . S
H1296 C1304 0.929 . S
H1297 C1306 0.930 . S
H1298 C1308 0.930 . S
H1299 C1311 0.929 . S
H1300 C1314 0.930 1_455 S
H1301 C1316 0.960 . S
H1302 C1316 0.960 1_455 S
H1303 C1316 0.960 1_455 S
C1304 H1296 0.929 . S
C1304 C1305 1.377 . S
C1304 C1306 1.384 . S
C1305 C1304 1.377 . S
C1305 C1311 1.390 . S
C1306 H1297 0.930 . S
C1306 C1304 1.384 . S
C1306 C1307 1.372 . S
C1307 C1306 1.372 . S
C1307 C1308 1.400 . S
C1307 C1312 1.490 . S
C1308 H1298 0.930 . S
C1308 C1307 1.400 . S
C1308 C1311 1.386 . S
H1309 C1325 0.930 . S
H1310 C1326 0.931 . S
C1311 H1299 0.929 . S
C1311 C1305 1.390 . S
C1311 C1308 1.386 . S
C1312 C1307 1.490 . S
C1312 C1314 1.395 1_455 S
C1312 C1315 1.403 1_455 S
H1313 C1319 0.930 . S
C1314 H1300 0.930 1_655 S
C1314 C1312 1.395 1_655 S
C1314 C1317 1.403 . S
C1315 C1312 1.403 1_655 S
C1315 C1316 1.524 . S
C1315 C1319 1.400 . S
C1316 H1301 0.960 . S
C1316 H1302 0.960 1_655 S
C1316 H1303 0.960 1_655 S
C1316 C1315 1.524 . S
C1317 C1314 1.403 . S
C1317 C1318 1.392 . S
C1317 C1321 1.495 . S
C1318 C1317 1.392 . S
C1318 C1319 1.385 . S
C1318 C1320 1.478 . S
C1319 H1313 0.930 . S
C1319 C1315 1.400 . S
C1319 C1318 1.385 . S
C1320 C1318 1.478 . S
C1320 C1322 1.381 . S
C1320 C1326 1.383 . S
C1321 C1317 1.495 . S
C1321 H1327 0.959 . S
C1321 H1328 0.961 . S
C1321 H1329 0.960 . S
C1322 C1320 1.381 . S
C1322 C1323 1.394 . S
C1322 H1330 0.930 . S
C1323 C1322 1.394 . S
C1323 C1324 1.383 . S
C1323 H1331 0.929 . S
C1324 C1323 1.383 . S
C1324 C1325 1.377 . S
C1325 H1309 0.930 . S
C1325 C1324 1.377 . S
C1325 C1326 1.379 . S
C1326 H1310 0.931 . S
C1326 C1320 1.383 . S
C1326 C1325 1.379 . S
H1327 C1321 0.959 . S
H1328 C1321 0.961 . S
H1329 C1321 0.960 . S
H1330 C1322 0.930 . S
H1331 C1323 0.929 . S
H1332 C1340 0.929 . S
H1333 C1342 0.930 . S
H1334 C1344 0.930 . S
H1335 C1347 0.929 . S
H1336 C1350 0.930 . S
H1337 C1352 0.960 . S
H1338 C1352 0.960 . S
H1339 C1352 0.960 . S
C1340 H1332 0.929 . S
C1340 C1341 1.377 . S
C1340 C1342 1.384 . S
C1341 C1340 1.377 . S
C1341 C1347 1.390 . S
C1342 H1333 0.930 . S
C1342 C1340 1.384 . S
C1342 C1343 1.372 . S
C1343 C1342 1.372 . S
C1343 C1344 1.400 . S
C1343 C1348 1.490 . S
C1344 H1334 0.930 . S
C1344 C1343 1.400 . S
C1344 C1347 1.386 . S
H1345 C1361 0.930 . S
H1346 C1362 0.931 . S
C1347 H1335 0.929 . S
C1347 C1341 1.390 . S
C1347 C1344 1.386 . S
C1348 C1343 1.490 . S
C1348 C1350 1.395 . S
C1348 C1351 1.403 . S
H1349 C1355 0.930 . S
C1350 H1336 0.930 . S
C1350 C1348 1.395 . S
C1350 C1353 1.403 . S
C1351 C1348 1.403 . S
C1351 C1352 1.524 . S
C1351 C1355 1.400 . S
C1352 H1337 0.960 . S
C1352 H1338 0.960 . S
C1352 H1339 0.960 . S
C1352 C1351 1.524 . S
C1353 C1350 1.403 . S
C1353 C1354 1.392 . S
C1353 C1357 1.495 . S
C1354 C1353 1.392 . S
C1354 C1355 1.385 . S
C1354 C1356 1.478 . S
C1355 H1349 0.930 . S
C1355 C1351 1.400 . S
C1355 C1354 1.385 . S
C1356 C1354 1.478 . S
C1356 C1358 1.381 . S
C1356 C1362 1.383 . S
C1357 C1353 1.495 . S
C1357 H1363 0.959 . S
C1357 H1364 0.961 . S
C1357 H1365 0.960 . S
C1358 C1356 1.381 . S
C1358 C1359 1.394 . S
C1358 H1366 0.930 . S
C1359 C1358 1.394 . S
C1359 C1360 1.383 . S
C1359 H1367 0.929 . S
C1360 C1359 1.383 . S
C1360 C1361 1.377 . S
C1361 H1345 0.930 . S
C1361 C1360 1.377 . S
C1361 C1362 1.379 . S
C1362 H1346 0.931 . S
C1362 C1356 1.383 . S
C1362 C1361 1.379 . S
H1363 C1357 0.959 . S
H1364 C1357 0.961 . S
H1365 C1357 0.960 . S
H1366 C1358 0.930 . S
H1367 C1359 0.929 . S
H1368 C1376 0.929 . S
H1369 C1378 0.930 . S
H1370 C1380 0.930 . S
H1371 C1383 0.929 . S
H1372 C1386 0.892 1_545 S
H1373 C1388 0.960 1_565 S
H1374 C1388 0.960 . S
H1375 C1388 0.960 . S
C1376 H1368 0.929 . S
C1376 C1377 1.377 . S
C1376 C1378 1.384 . S
C1377 C1376 1.377 . S
C1377 C1383 1.390 . S
C1378 H1369 0.930 . S
C1378 C1376 1.384 . S
C1378 C1379 1.372 . S
C1379 C1378 1.372 . S
C1379 C1380 1.400 . S
C1379 C1384 1.490 . S
C1380 H1370 0.930 . S
C1380 C1379 1.400 . S
C1380 C1383 1.386 . S
H1381 C1397 0.930 . S
H1382 C1398 0.931 . S
C1383 H1371 0.929 . S
C1383 C1377 1.390 . S
C1383 C1380 1.386 . S
C1384 C1379 1.490 . S
C1384 C1386 1.395 1_545 S
C1384 C1387 1.403 1_545 S
H1385 C1391 0.930 . S
C1386 H1372 0.892 1_565 S
C1386 C1384 1.395 1_565 S
C1386 C1389 1.403 . S
C1387 C1384 1.403 1_565 S
C1387 C1388 1.524 1_565 S
C1387 C1391 1.400 . S
C1388 H1373 0.960 1_545 S
C1388 H1374 0.960 . S
C1388 H1375 0.960 . S
C1388 C1387 1.524 1_545 S
C1389 C1386 1.403 . S
C1389 C1390 1.392 . S
C1389 C1393 1.495 . S
C1390 C1389 1.392 . S
C1390 C1391 1.385 . S
C1390 C1392 1.478 . S
C1391 H1385 0.930 . S
C1391 C1387 1.400 . S
C1391 C1390 1.385 . S
C1392 C1390 1.478 . S
C1392 C1394 1.381 . S
C1392 C1398 1.383 . S
C1393 C1389 1.495 . S
C1393 H1399 0.959 . S
C1393 H1400 0.961 . S
C1393 H1401 0.960 . S
C1394 C1392 1.381 . S
C1394 C1395 1.394 . S
C1394 H1402 0.930 . S
C1395 C1394 1.394 . S
C1395 C1396 1.383 . S
C1395 H1403 0.929 . S
C1396 C1395 1.383 . S
C1396 C1397 1.377 . S
C1397 H1381 0.930 . S
C1397 C1396 1.377 . S
C1397 C1398 1.379 . S
C1398 H1382 0.931 . S
C1398 C1392 1.383 . S
C1398 C1397 1.379 . S
H1399 C1393 0.959 . S
H1400 C1393 0.961 . S
H1401 C1393 0.960 . S
H1402 C1394 0.930 . S
H1403 C1395 0.929 . S
H1404 C1412 0.929 . S
H1405 C1414 0.930 . S
H1406 C1416 0.930 . S
H1407 C1419 0.929 . S
H1408 C1422 0.930 1_655 S
H1409 C1424 0.960 1_455 S
H1410 C1424 0.960 . S
H1411 C1424 0.960 . S
C1412 H1404 0.929 . S
C1412 C1413 1.377 . S
C1412 C1414 1.384 . S
C1413 C1412 1.377 . S
C1413 C1419 1.390 . S
C1414 H1405 0.930 . S
C1414 C1412 1.384 . S
C1414 C1415 1.372 . S
C1415 C1414 1.372 . S
C1415 C1416 1.400 . S
C1415 C1420 1.490 . S
C1416 H1406 0.930 . S
C1416 C1415 1.400 . S
C1416 C1419 1.386 . S
H1417 C1433 0.930 . S
H1418 C1434 0.931 . S
C1419 H1407 0.929 . S
C1419 C1413 1.390 . S
C1419 C1416 1.386 . S
C1420 C1415 1.490 . S
C1420 C1422 1.395 1_655 S
C1420 C1423 1.403 1_655 S
H1421 C1427 0.930 . S
C1422 H1408 0.930 1_455 S
C1422 C1420 1.395 1_455 S
C1422 C1425 1.403 . S
C1423 C1420 1.403 1_455 S
C1423 C1424 1.524 1_455 S
C1423 C1427 1.400 . S
C1424 H1409 0.960 1_655 S
C1424 H1410 0.960 . S
C1424 H1411 0.960 . S
C1424 C1423 1.524 1_655 S
C1425 C1422 1.403 . S
C1425 C1426 1.392 . S
C1425 C1429 1.495 . S
C1426 C1425 1.392 . S
C1426 C1427 1.385 . S
C1426 C1428 1.478 . S
C1427 H1421 0.930 . S
C1427 C1423 1.400 . S
C1427 C1426 1.385 . S
C1428 C1426 1.478 . S
C1428 C1430 1.381 . S
C1428 C1434 1.383 . S
C1429 C1425 1.495 . S
C1429 H1435 0.959 . S
C1429 H1436 0.961 . S
C1429 H1437 0.960 . S
C1430 C1428 1.381 . S
C1430 C1431 1.394 . S
C1430 H1438 0.930 . S
C1431 C1430 1.394 . S
C1431 C1432 1.383 . S
C1431 H1439 0.929 . S
C1432 C1431 1.383 . S
C1432 C1433 1.377 . S
C1433 H1417 0.930 . S
C1433 C1432 1.377 . S
C1433 C1434 1.379 . S
C1434 H1418 0.931 . S
C1434 C1428 1.383 . S
C1434 C1433 1.379 . S
H1435 C1429 0.959 . S
H1436 C1429 0.961 . S
H1437 C1429 0.960 . S
H1438 C1430 0.930 . S
H1439 C1431 0.929 . S
H1440 C1448 0.929 . S
H1441 C1450 0.930 . S
H1442 C1452 0.930 . S
H1443 C1455 0.929 . S
H1444 C1458 0.930 . S
H1445 C1460 0.960 . S
H1446 C1460 0.960 . S
H1447 C1460 0.960 . S
C1448 H1440 0.929 . S
C1448 C1449 1.377 . S
C1448 C1450 1.384 . S
C1449 C1448 1.377 . S
C1449 C1455 1.390 . S
C1450 H1441 0.930 . S
C1450 C1448 1.384 . S
C1450 C1451 1.372 . S
C1451 C1450 1.372 . S
C1451 C1452 1.400 . S
C1451 C1456 1.490 . S
C1452 H1442 0.930 . S
C1452 C1451 1.400 . S
C1452 C1455 1.386 . S
H1453 C1469 0.930 . S
H1454 C1470 0.931 . S
C1455 H1443 0.929 . S
C1455 C1449 1.390 . S
C1455 C1452 1.386 . S
C1456 C1451 1.490 . S
C1456 C1458 1.395 . S
C1456 C1459 1.403 . S
H1457 C1463 0.930 . S
C1458 H1444 0.930 . S
C1458 C1456 1.395 . S
C1458 C1461 1.403 . S
C1459 C1456 1.403 . S
C1459 C1460 1.524 . S
C1459 C1463 1.400 . S
C1460 H1445 0.960 . S
C1460 H1446 0.960 . S
C1460 H1447 0.960 . S
C1460 C1459 1.524 . S
C1461 C1458 1.403 . S
C1461 C1462 1.392 . S
C1461 C1465 1.495 . S
C1462 C1461 1.392 . S
C1462 C1463 1.385 . S
C1462 C1464 1.478 . S
C1463 H1457 0.930 . S
C1463 C1459 1.400 . S
C1463 C1462 1.385 . S
C1464 C1462 1.478 . S
C1464 C1466 1.381 . S
C1464 C1470 1.383 . S
C1465 C1461 1.495 . S
C1465 H1471 0.959 . S
C1465 H1472 0.961 . S
C1465 H1473 0.960 . S
C1466 C1464 1.381 . S
C1466 C1467 1.394 . S
C1466 H1474 0.930 . S
C1467 C1466 1.394 . S
C1467 C1468 1.383 . S
C1467 H1475 0.929 . S
C1468 C1467 1.383 . S
C1468 C1469 1.377 . S
C1469 H1453 0.930 . S
C1469 C1468 1.377 . S
C1469 C1470 1.379 . S
C1470 H1454 0.931 . S
C1470 C1464 1.383 . S
C1470 C1469 1.379 . S
H1471 C1465 0.959 . S
H1472 C1465 0.961 . S
H1473 C1465 0.960 . S
H1474 C1466 0.930 . S
H1475 C1467 0.929 . S
H1476 C1484 0.929 . S
H1477 C1486 0.930 . S
H1478 C1488 0.930 . S
H1479 C1491 0.929 . S
H1480 C1494 0.930 . S
H1481 C1496 0.960 . S
H1482 C1496 0.960 . S
H1483 C1496 0.960 . S
C1484 H1476 0.929 . S
C1484 C1485 1.377 . S
C1484 C1486 1.384 . S
C1485 C1484 1.377 . S
C1485 C1491 1.390 . S
C1486 H1477 0.930 . S
C1486 C1484 1.384 . S
C1486 C1487 1.372 . S
C1487 C1486 1.372 . S
C1487 C1488 1.400 . S
C1487 C1492 1.490 . S
C1488 H1478 0.930 . S
C1488 C1487 1.400 . S
C1488 C1491 1.386 . S
H1489 C1505 0.930 . S
H1490 C1506 0.931 . S
C1491 H1479 0.929 . S
C1491 C1485 1.390 . S
C1491 C1488 1.386 . S
C1492 C1487 1.490 . S
C1492 C1494 1.395 . S
C1492 C1495 1.403 . S
H1493 C1499 0.930 1_545 S
C1494 H1480 0.930 . S
C1494 C1492 1.395 . S
C1494 C1497 1.403 . S
C1495 C1492 1.403 . S
C1495 C1496 1.524 . S
C1495 C1499 1.400 . S
C1496 H1481 0.960 . S
C1496 H1482 0.960 . S
C1496 H1483 0.960 . S
C1496 C1495 1.524 . S
C1497 C1494 1.403 . S
C1497 C1498 1.392 1_565 S
C1497 C1501 1.495 . S
C1498 C1497 1.392 1_545 S
C1498 C1499 1.385 1_545 S
C1498 C1500 1.478 . S
C1499 H1493 0.930 1_565 S
C1499 C1495 1.400 . S
C1499 C1498 1.385 1_565 S
C1500 C1498 1.478 . S
C1500 C1502 1.381 . S
C1500 C1506 1.383 . S
C1501 C1497 1.495 . S
C1501 H1507 0.959 . S
C1501 H1508 0.961 1_565 S
C1501 H1509 0.960 1_565 S
C1502 C1500 1.381 . S
C1502 C1503 1.394 . S
C1502 H1510 0.930 . S
C1503 C1502 1.394 . S
C1503 C1504 1.383 . S
C1503 H1511 0.929 . S
C1504 C1503 1.383 . S
C1504 C1505 1.377 . S
C1505 H1489 0.930 . S
C1505 C1504 1.377 . S
C1505 C1506 1.379 . S
C1506 H1490 0.931 . S
C1506 C1500 1.383 . S
C1506 C1505 1.379 . S
H1507 C1501 0.959 . S
H1508 C1501 0.961 1_545 S
H1509 C1501 0.960 1_545 S
H1510 C1502 0.930 . S
H1511 C1503 0.929 . S
H1512 C1520 0.929 . S
H1513 C1522 0.930 . S
H1514 C1524 0.930 . S
H1515 C1527 0.929 . S
H1516 C1530 0.930 . S
H1517 C1532 0.960 . S
H1518 C1532 0.960 . S
H1519 C1532 0.960 . S
C1520 H1512 0.929 . S
C1520 C1521 1.377 . S
C1520 C1522 1.384 . S
C1521 C1520 1.377 . S
C1521 C1527 1.390 . S
C1522 H1513 0.930 . S
C1522 C1520 1.384 . S
C1522 C1523 1.372 . S
C1523 C1522 1.372 . S
C1523 C1524 1.400 . S
C1523 C1528 1.490 . S
C1524 H1514 0.930 . S
C1524 C1523 1.400 . S
C1524 C1527 1.386 . S
H1525 C1541 0.930 . S
H1526 C1542 0.931 . S
C1527 H1515 0.929 . S
C1527 C1521 1.390 . S
C1527 C1524 1.386 . S
C1528 C1523 1.490 . S
C1528 C1530 1.395 . S
C1528 C1531 1.403 . S
H1529 C1535 0.961 . S
C1530 H1516 0.930 . S
C1530 C1528 1.395 . S
C1530 C1533 1.403 . S
C1531 C1528 1.403 . S
C1531 C1532 1.524 . S
C1531 C1535 1.400 . S
C1532 H1517 0.960 . S
C1532 H1518 0.960 . S
C1532 H1519 0.960 . S
C1532 C1531 1.524 . S
C1533 C1530 1.403 . S
C1533 C1534 1.392 1_455 S
C1533 C1537 1.495 1_455 S
C1534 C1533 1.392 1_655 S
C1534 C1535 1.385 1_655 S
C1534 C1536 1.478 . S
C1535 H1529 0.961 . S
C1535 C1531 1.400 . S
C1535 C1534 1.385 1_455 S
C1536 C1534 1.478 . S
C1536 C1538 1.381 . S
C1536 C1542 1.383 . S
C1537 C1533 1.495 1_655 S
C1537 H1543 0.959 . S
C1537 H1544 0.961 . S
C1537 H1545 0.960 . S
C1538 C1536 1.381 . S
C1538 C1539 1.394 . S
C1538 H1546 0.930 . S
C1539 C1538 1.394 . S
C1539 C1540 1.383 . S
C1539 H1547 0.929 . S
C1540 C1539 1.383 . S
C1540 C1541 1.377 . S
C1541 H1525 0.930 . S
C1541 C1540 1.377 . S
C1541 C1542 1.379 . S
C1542 H1526 0.931 . S
C1542 C1536 1.383 . S
C1542 C1541 1.379 . S
H1543 C1537 0.959 . S
H1544 C1537 0.961 . S
H1545 C1537 0.960 . S
H1546 C1538 0.930 . S
H1547 C1539 0.929 . S
H1548 C1556 0.929 . S
H1549 C1558 0.930 . S
H1550 C1560 0.930 . S
H1551 C1563 0.929 . S
H1552 C1566 0.930 . S
H1553 C1568 0.960 . S
H1554 C1568 0.960 . S
H1555 C1568 0.960 . S
C1556 H1548 0.929 . S
C1556 C1557 1.377 . S
C1556 C1558 1.384 . S
C1557 C1556 1.377 . S
C1557 C1563 1.390 . S
C1558 H1549 0.930 . S
C1558 C1556 1.384 . S
C1558 C1559 1.372 . S
C1559 C1558 1.372 . S
C1559 C1560 1.400 . S
C1559 C1564 1.490 . S
C1560 H1550 0.930 . S
C1560 C1559 1.400 . S
C1560 C1563 1.386 . S
H1561 C1577 0.930 . S
H1562 C1578 0.931 . S
C1563 H1551 0.929 . S
C1563 C1557 1.390 . S
C1563 C1560 1.386 . S
C1564 C1559 1.490 . S
C1564 C1566 1.395 . S
C1564 C1567 1.403 . S
H1565 C1571 0.930 . S
C1566 H1552 0.930 . S
C1566 C1564 1.395 . S
C1566 C1569 1.403 . S
C1567 C1564 1.403 . S
C1567 C1568 1.524 . S
C1567 C1571 1.400 . S
C1568 H1553 0.960 . S
C1568 H1554 0.960 . S
C1568 H1555 0.960 . S
C1568 C1567 1.524 . S
C1569 C1566 1.403 . S
C1569 C1570 1.392 . S
C1569 C1573 1.495 . S
C1570 C1569 1.392 . S
C1570 C1571 1.385 . S
C1570 C1572 1.478 . S
C1571 H1565 0.930 . S
C1571 C1567 1.400 . S
C1571 C1570 1.385 . S
C1572 C1570 1.478 . S
C1572 C1574 1.381 . S
C1572 C1578 1.383 . S
C1573 C1569 1.495 . S
C1573 H1579 0.959 . S
C1573 H1580 0.961 . S
C1573 H1581 0.960 . S
C1574 C1572 1.381 . S
C1574 C1575 1.394 . S
C1574 H1582 0.930 . S
C1575 C1574 1.394 . S
C1575 C1576 1.383 . S
C1575 H1583 0.929 . S
C1576 C1575 1.383 . S
C1576 C1577 1.377 . S
C1577 H1561 0.930 . S
C1577 C1576 1.377 . S
C1577 C1578 1.379 . S
C1578 H1562 0.931 . S
C1578 C1572 1.383 . S
C1578 C1577 1.379 . S
H1579 C1573 0.959 . S
H1580 C1573 0.961 . S
H1581 C1573 0.960 . S
H1582 C1574 0.930 . S
H1583 C1575 0.929 . S
H1584 C1592 0.929 . S
H1585 C1594 0.930 . S
H1586 C1596 0.930 . S
H1587 C1599 0.929 . S
H1588 C1602 0.930 1_565 S
H1589 C1604 0.960 . S
H1590 C1604 0.960 1_565 S
H1591 C1604 0.960 1_565 S
C1592 H1584 0.929 . S
C1592 C1593 1.377 . S
C1592 C1594 1.384 . S
C1593 C1592 1.377 . S
C1593 C1599 1.390 . S
C1594 H1585 0.930 . S
C1594 C1592 1.384 . S
C1594 C1595 1.372 . S
C1595 C1594 1.372 . S
C1595 C1596 1.400 . S
C1595 C1600 1.490 . S
C1596 H1586 0.930 . S
C1596 C1595 1.400 . S
C1596 C1599 1.386 . S
H1597 C1613 0.930 . S
H1598 C1614 0.931 . S
C1599 H1587 0.929 . S
C1599 C1593 1.390 . S
C1599 C1596 1.386 . S
C1600 C1595 1.490 . S
C1600 C1602 1.395 1_565 S
C1600 C1603 1.403 1_565 S
H1601 C1607 0.930 . S
C1602 H1588 0.930 1_545 S
C1602 C1600 1.395 1_545 S
C1602 C1605 1.403 . S
C1603 C1600 1.403 1_545 S
C1603 C1604 1.524 . S
C1603 C1607 1.400 . S
C1604 H1589 0.960 . S
C1604 H1590 0.960 1_545 S
C1604 H1591 0.960 1_545 S
C1604 C1603 1.524 . S
C1605 C1602 1.403 . S
C1605 C1606 1.392 . S
C1605 C1609 1.495 . S
C1606 C1605 1.392 . S
C1606 C1607 1.385 . S
C1606 C1608 1.478 . S
C1607 H1601 0.930 . S
C1607 C1603 1.400 . S
C1607 C1606 1.385 . S
C1608 C1606 1.478 . S
C1608 C1610 1.381 . S
C1608 C1614 1.383 . S
C1609 C1605 1.495 . S
C1609 H1615 0.959 . S
C1609 H1616 0.961 . S
C1609 H1617 0.960 . S
C1610 C1608 1.381 . S
C1610 C1611 1.394 . S
C1610 H1618 0.930 . S
C1611 C1610 1.394 . S
C1611 C1612 1.383 . S
C1611 H1619 0.929 . S
C1612 C1611 1.383 . S
C1612 C1613 1.377 . S
C1613 H1597 0.930 . S
C1613 C1612 1.377 . S
C1613 C1614 1.379 . S
C1614 H1598 0.931 . S
C1614 C1608 1.383 . S
C1614 C1613 1.379 . S
H1615 C1609 0.959 . S
H1616 C1609 0.961 . S
H1617 C1609 0.960 . S
H1618 C1610 0.930 . S
H1619 C1611 0.929 . S
H1620 C1628 0.929 . S
H1621 C1630 0.930 . S
H1622 C1632 0.930 . S
H1623 C1635 0.929 . S
H1624 C1638 0.930 . S
H1625 C1640 0.960 . S
H1626 C1640 0.960 . S
H1627 C1640 0.960 . S
C1628 H1620 0.929 . S
C1628 C1629 1.377 . S
C1628 C1630 1.384 . S
C1629 C1628 1.377 . S
C1629 C1635 1.390 . S
C1630 H1621 0.930 . S
C1630 C1628 1.384 . S
C1630 C1631 1.372 . S
C1631 C1630 1.372 . S
C1631 C1632 1.400 . S
C1631 C1636 1.490 . S
C1632 H1622 0.930 . S
C1632 C1631 1.400 . S
C1632 C1635 1.386 . S
H1633 C1649 0.930 . S
H1634 C1650 0.931 . S
C1635 H1623 0.929 . S
C1635 C1629 1.390 . S
C1635 C1632 1.386 . S
C1636 C1631 1.490 . S
C1636 C1638 1.395 . S
C1636 C1639 1.403 . S
H1637 C1643 0.930 1_455 S
C1638 H1624 0.930 . S
C1638 C1636 1.395 . S
C1638 C1641 1.403 . S
C1639 C1636 1.403 . S
C1639 C1640 1.524 . S
C1639 C1643 1.400 . S
C1640 H1625 0.960 . S
C1640 H1626 0.960 . S
C1640 H1627 0.960 . S
C1640 C1639 1.524 . S
C1641 C1638 1.403 . S
C1641 C1642 1.392 1_655 S
C1641 C1645 1.495 . S
C1642 C1641 1.392 1_455 S
C1642 C1643 1.385 1_455 S
C1642 C1644 1.478 . S
C1643 H1637 0.930 1_655 S
C1643 C1639 1.400 . S
C1643 C1642 1.385 1_655 S
C1644 C1642 1.478 . S
C1644 C1646 1.381 . S
C1644 C1650 1.383 . S
C1645 C1641 1.495 . S
C1645 H1651 0.959 . S
C1645 H1652 0.961 1_655 S
C1645 H1653 0.960 1_655 S
C1646 C1644 1.381 . S
C1646 C1647 1.394 . S
C1646 H1654 0.930 . S
C1647 C1646 1.394 . S
C1647 C1648 1.383 . S
C1647 H1655 0.929 . S
C1648 C1647 1.383 . S
C1648 C1649 1.377 . S
C1649 H1633 0.930 . S
C1649 C1648 1.377 . S
C1649 C1650 1.379 . S
C1650 H1634 0.931 . S
C1650 C1644 1.383 . S
C1650 C1649 1.379 . S
H1651 C1645 0.959 . S
H1652 C1645 0.961 1_455 S
H1653 C1645 0.960 1_455 S
H1654 C1646 0.930 . S
H1655 C1647 0.929 . S
H1656 C1664 0.929 . S
H1657 C1666 0.930 . S
H1658 C1668 0.930 . S
H1659 C1671 0.929 . S
H1660 C1674 0.930 . S
H1661 C1676 0.960 . S
H1662 C1676 0.960 . S
H1663 C1676 0.960 . S
C1664 H1656 0.929 . S
C1664 C1665 1.377 . S
C1664 C1666 1.384 . S
C1665 C1664 1.377 . S
C1665 C1671 1.390 . S
C1666 H1657 0.930 . S
C1666 C1664 1.384 . S
C1666 C1667 1.372 . S
C1667 C1666 1.372 . S
C1667 C1668 1.400 . S
C1667 C1672 1.490 . S
C1668 H1658 0.930 . S
C1668 C1667 1.400 . S
C1668 C1671 1.386 . S
H1669 C1685 0.930 . S
H1670 C1686 0.931 . S
C1671 H1659 0.929 . S
C1671 C1665 1.390 . S
C1671 C1668 1.386 . S
C1672 C1667 1.490 . S
C1672 C1674 1.395 . S
C1672 C1675 1.403 . S
H1673 C1679 0.930 . S
C1674 H1660 0.930 . S
C1674 C1672 1.395 . S
C1674 C1677 1.403 . S
C1675 C1672 1.403 . S
C1675 C1676 1.524 . S
C1675 C1679 1.400 . S
C1676 H1661 0.960 . S
C1676 H1662 0.960 . S
C1676 H1663 0.960 . S
C1676 C1675 1.524 . S
C1677 C1674 1.403 . S
C1677 C1678 1.392 . S
C1677 C1681 1.495 . S
C1678 C1677 1.392 . S
C1678 C1679 1.385 . S
C1678 C1680 1.478 . S
C1679 H1673 0.930 . S
C1679 C1675 1.400 . S
C1679 C1678 1.385 . S
C1680 C1678 1.478 . S
C1680 C1682 1.381 . S
C1680 C1686 1.383 . S
C1681 C1677 1.495 . S
C1681 H1687 0.959 . S
C1681 H1688 0.961 . S
C1681 H1689 0.960 . S
C1682 C1680 1.381 . S
C1682 C1683 1.394 . S
C1682 H1690 0.930 . S
C1683 C1682 1.394 . S
C1683 C1684 1.383 . S
C1683 H1691 0.929 . S
C1684 C1683 1.383 . S
C1684 C1685 1.377 . S
C1685 H1669 0.930 . S
C1685 C1684 1.377 . S
C1685 C1686 1.379 . S
C1686 H1670 0.931 . S
C1686 C1680 1.383 . S
C1686 C1685 1.379 . S
H1687 C1681 0.959 . S
H1688 C1681 0.961 . S
H1689 C1681 0.960 . S
H1690 C1682 0.930 . S
H1691 C1683 0.929 . S
H1692 C1700 0.929 . S
H1693 C1702 0.930 . S
H1694 C1704 0.930 . S
H1695 C1707 0.929 . S
H1696 C1710 0.930 . S
H1697 C1712 0.960 . S
H1698 C1712 0.960 . S
H1699 C1712 0.960 . S
C1700 H1692 0.929 . S
C1700 C1701 1.377 . S
C1700 C1702 1.384 . S
C1701 C1700 1.377 . S
C1701 C1707 1.390 . S
C1702 H1693 0.930 . S
C1702 C1700 1.384 . S
C1702 C1703 1.372 . S
C1703 C1702 1.372 . S
C1703 C1704 1.400 . S
C1703 C1708 1.490 . S
C1704 H1694 0.930 . S
C1704 C1703 1.400 . S
C1704 C1707 1.386 . S
H1705 C1721 0.930 . S
H1706 C1722 0.931 . S
C1707 H1695 0.929 . S
C1707 C1701 1.390 . S
C1707 C1704 1.386 . S
C1708 C1703 1.490 . S
C1708 C1710 1.395 . S
C1708 C1711 1.403 . S
H1709 C1715 0.930 . S
C1710 H1696 0.930 . S
C1710 C1708 1.395 . S
C1710 C1713 1.403 . S
C1711 C1708 1.403 . S
C1711 C1712 1.524 . S
C1711 C1715 1.400 . S
C1712 H1697 0.960 . S
C1712 H1698 0.960 . S
C1712 H1699 0.960 . S
C1712 C1711 1.524 . S
C1713 C1710 1.403 . S
C1713 C1714 1.392 . S
C1713 C1717 1.495 . S
C1714 C1713 1.392 . S
C1714 C1715 1.385 . S
C1714 C1716 1.478 . S
C1715 H1709 0.930 . S
C1715 C1711 1.400 . S
C1715 C1714 1.385 . S
C1716 C1714 1.478 . S
C1716 C1718 1.381 . S
C1716 C1722 1.383 . S
C1717 C1713 1.495 . S
C1717 H1723 0.959 . S
C1717 H1724 0.961 . S
C1717 H1725 0.960 . S
C1718 C1716 1.381 . S
C1718 C1719 1.394 . S
C1718 H1726 0.930 . S
C1719 C1718 1.394 . S
C1719 C1720 1.383 . S
C1719 H1727 0.929 . S
C1720 C1719 1.383 . S
C1720 C1721 1.377 . S
C1721 H1705 0.930 . S
C1721 C1720 1.377 . S
C1721 C1722 1.379 . S
C1722 H1706 0.931 . S
C1722 C1716 1.383 . S
C1722 C1721 1.379 . S
H1723 C1717 0.959 . S
H1724 C1717 0.961 . S
H1725 C1717 0.960 . S
H1726 C1718 0.930 . S
H1727 C1719 0.929 . S
H1728 C1736 0.929 . S
H1729 C1738 0.930 . S
H1730 C1740 0.930 . S
H1731 C1743 0.929 . S
H1732 C1746 0.930 . S
H1733 C1748 0.960 . S
H1734 C1748 0.960 . S
H1735 C1748 0.960 . S
C1736 H1728 0.929 . S
C1736 C1737 1.377 . S
C1736 C1738 1.384 . S
C1737 C1736 1.377 . S
C1737 C1743 1.390 . S
C1738 H1729 0.930 . S
C1738 C1736 1.384 . S
C1738 C1739 1.372 . S
C1739 C1738 1.372 . S
C1739 C1740 1.400 . S
C1739 C1744 1.490 . S
C1740 H1730 0.930 . S
C1740 C1739 1.400 . S
C1740 C1743 1.386 . S
H1741 C1757 0.930 . S
H1742 C1758 0.931 . S
C1743 H1731 0.929 . S
C1743 C1737 1.390 . S
C1743 C1740 1.386 . S
C1744 C1739 1.490 . S
C1744 C1746 1.395 . S
C1744 C1747 1.403 . S
H1745 C1751 0.930 . S
C1746 H1732 0.930 . S
C1746 C1744 1.395 . S
C1746 C1749 1.403 . S
C1747 C1744 1.403 . S
C1747 C1748 1.524 . S
C1747 C1751 1.400 . S
C1748 H1733 0.960 . S
C1748 H1734 0.960 . S
C1748 H1735 0.960 . S
C1748 C1747 1.524 . S
C1749 C1746 1.403 . S
C1749 C1750 1.392 . S
C1749 C1753 1.495 . S
C1750 C1749 1.392 . S
C1750 C1751 1.385 . S
C1750 C1752 1.478 . S
C1751 H1745 0.930 . S
C1751 C1747 1.400 . S
C1751 C1750 1.385 . S
C1752 C1750 1.478 . S
C1752 C1754 1.381 . S
C1752 C1758 1.383 . S
C1753 C1749 1.495 . S
C1753 H1759 0.959 . S
C1753 H1760 0.961 . S
C1753 H1761 0.960 . S
C1754 C1752 1.381 . S
C1754 C1755 1.394 . S
C1754 H1762 0.930 . S
C1755 C1754 1.394 . S
C1755 C1756 1.383 . S
C1755 H1763 0.929 . S
C1756 C1755 1.383 . S
C1756 C1757 1.377 . S
C1757 H1741 0.930 . S
C1757 C1756 1.377 . S
C1757 C1758 1.379 . S
C1758 H1742 0.931 . S
C1758 C1752 1.383 . S
C1758 C1757 1.379 . S
H1759 C1753 0.959 . S
H1760 C1753 0.961 . S
H1761 C1753 0.960 . S
H1762 C1754 0.930 . S
H1763 C1755 0.929 . S
H1764 C1772 0.929 . S
H1765 C1774 0.930 . S
H1766 C1776 0.930 . S
H1767 C1779 0.929 . S
H1768 C1782 0.930 . S
H1769 C1784 0.960 . S
H1770 C1784 0.960 . S
H1771 C1784 0.960 . S
C1772 H1764 0.929 . S
C1772 C1773 1.377 . S
C1772 C1774 1.384 . S
C1773 C1772 1.377 . S
C1773 C1779 1.390 . S
C1774 H1765 0.930 . S
C1774 C1772 1.384 . S
C1774 C1775 1.372 . S
C1775 C1774 1.372 . S
C1775 C1776 1.400 . S
C1775 C1780 1.490 . S
C1776 H1766 0.930 . S
C1776 C1775 1.400 . S
C1776 C1779 1.386 . S
H1777 C1793 0.930 . S
H1778 C1794 0.931 . S
C1779 H1767 0.929 . S
C1779 C1773 1.390 . S
C1779 C1776 1.386 . S
C1780 C1775 1.490 . S
C1780 C1782 1.395 . S
C1780 C1783 1.403 . S
H1781 C1787 0.930 . S
C1782 H1768 0.930 . S
C1782 C1780 1.395 . S
C1782 C1785 1.403 . S
C1783 C1780 1.403 . S
C1783 C1784 1.524 . S
C1783 C1787 1.400 . S
C1784 H1769 0.960 . S
C1784 H1770 0.960 . S
C1784 H1771 0.960 . S
C1784 C1783 1.524 . S
C1785 C1782 1.403 . S
C1785 C1786 1.392 . S
C1785 C1789 1.495 . S
C1786 C1785 1.392 . S
C1786 C1787 1.385 . S
C1786 C1788 1.478 . S
C1787 H1781 0.930 . S
C1787 C1783 1.400 . S
C1787 C1786 1.385 . S
C1788 C1786 1.478 . S
C1788 C1790 1.381 . S
C1788 C1794 1.383 . S
C1789 C1785 1.495 . S
C1789 H1795 0.959 . S
C1789 H1796 0.961 . S
C1789 H1797 0.960 . S
C1790 C1788 1.381 . S
C1790 C1791 1.394 . S
C1790 H1798 0.930 . S
C1791 C1790 1.394 . S
C1791 C1792 1.383 . S
C1791 H1799 0.929 . S
C1792 C1791 1.383 . S
C1792 C1793 1.377 . S
C1793 H1777 0.930 . S
C1793 C1792 1.377 . S
C1793 C1794 1.379 . S
C1794 H1778 0.931 . S
C1794 C1788 1.383 . S
C1794 C1793 1.379 . S
H1795 C1789 0.959 . S
H1796 C1789 0.961 . S
H1797 C1789 0.960 . S
H1798 C1790 0.930 . S
H1799 C1791 0.929 . S
H1800 C1808 0.929 . S
H1801 C1810 0.930 . S
H1802 C1812 0.930 . S
H1803 C1815 0.929 . S
H1804 C1818 0.930 . S
H1805 C1820 0.960 . S
H1806 C1820 0.960 . S
H1807 C1820 0.960 . S
C1808 H1800 0.929 . S
C1808 C1809 1.377 . S
C1808 C1810 1.384 . S
C1809 C1808 1.377 . S
C1809 C1815 1.390 . S
C1810 H1801 0.930 . S
C1810 C1808 1.384 . S
C1810 C1811 1.372 . S
C1811 C1810 1.372 . S
C1811 C1812 1.400 . S
C1811 C1816 1.490 . S
C1812 H1802 0.930 . S
C1812 C1811 1.400 . S
C1812 C1815 1.386 . S
H1813 C1829 0.930 . S
H1814 C1830 0.931 . S
C1815 H1803 0.929 . S
C1815 C1809 1.390 . S
C1815 C1812 1.386 . S
C1816 C1811 1.490 . S
C1816 C1818 1.395 . S
C1816 C1819 1.403 . S
H1817 C1823 0.930 . S
C1818 H1804 0.930 . S
C1818 C1816 1.395 . S
C1818 C1821 1.403 . S
C1819 C1816 1.403 . S
C1819 C1820 1.524 . S
C1819 C1823 1.400 . S
C1820 H1805 0.960 . S
C1820 H1806 0.960 . S
C1820 H1807 0.960 . S
C1820 C1819 1.524 . S
C1821 C1818 1.403 . S
C1821 C1822 1.392 . S
C1821 C1825 1.495 . S
C1822 C1821 1.392 . S
C1822 C1823 1.385 . S
C1822 C1824 1.478 . S
C1823 H1817 0.930 . S
C1823 C1819 1.400 . S
C1823 C1822 1.385 . S
C1824 C1822 1.478 . S
C1824 C1826 1.381 . S
C1824 C1830 1.383 . S
C1825 C1821 1.495 . S
C1825 H1831 0.959 . S
C1825 H1832 0.961 . S
C1825 H1833 0.960 . S
C1826 C1824 1.381 . S
C1826 C1827 1.394 . S
C1826 H1834 0.930 . S
C1827 C1826 1.394 . S
C1827 C1828 1.383 . S
C1827 H1835 0.929 . S
C1828 C1827 1.383 . S
C1828 C1829 1.377 . S
C1829 H1813 0.930 . S
C1829 C1828 1.377 . S
C1829 C1830 1.379 . S
C1830 H1814 0.931 . S
C1830 C1824 1.383 . S
C1830 C1829 1.379 . S
H1831 C1825 0.959 . S
H1832 C1825 0.961 . S
H1833 C1825 0.960 . S
H1834 C1826 0.930 . S
H1835 C1827 0.929 . S
H1836 C1844 0.929 . S
H1837 C1846 0.930 . S
H1838 C1848 0.930 . S
H1839 C1851 0.929 . S
H1840 C1854 0.930 . S
H1841 C1856 0.960 . S
H1842 C1856 0.960 . S
H1843 C1856 0.960 . S
C1844 H1836 0.929 . S
C1844 C1845 1.377 . S
C1844 C1846 1.384 . S
C1845 C1844 1.377 . S
C1845 C1851 1.390 . S
C1846 H1837 0.930 . S
C1846 C1844 1.384 . S
C1846 C1847 1.372 . S
C1847 C1846 1.372 . S
C1847 C1848 1.400 . S
C1847 C1852 1.490 . S
C1848 H1838 0.930 . S
C1848 C1847 1.400 . S
C1848 C1851 1.386 . S
H1849 C1865 0.930 . S
H1850 C1866 0.931 . S
C1851 H1839 0.929 . S
C1851 C1845 1.390 . S
C1851 C1848 1.386 . S
C1852 C1847 1.490 . S
C1852 C1854 1.395 . S
C1852 C1855 1.403 . S
H1853 C1859 0.930 . S
C1854 H1840 0.930 . S
C1854 C1852 1.395 . S
C1854 C1857 1.403 . S
C1855 C1852 1.403 . S
C1855 C1856 1.524 . S
C1855 C1859 1.400 . S
C1856 H1841 0.960 . S
C1856 H1842 0.960 . S
C1856 H1843 0.960 . S
C1856 C1855 1.524 . S
C1857 C1854 1.403 . S
C1857 C1858 1.392 . S
C1857 C1861 1.495 . S
C1858 C1857 1.392 . S
C1858 C1859 1.385 . S
C1858 C1860 1.478 . S
C1859 H1853 0.930 . S
C1859 C1855 1.400 . S
C1859 C1858 1.385 . S
C1860 C1858 1.478 . S
C1860 C1862 1.381 . S
C1860 C1866 1.383 . S
C1861 C1857 1.495 . S
C1861 H1867 0.959 . S
C1861 H1868 0.961 . S
C1861 H1869 0.960 . S
C1862 C1860 1.381 . S
C1862 C1863 1.394 . S
C1862 H1870 0.930 . S
C1863 C1862 1.394 . S
C1863 C1864 1.383 . S
C1863 H1871 0.929 . S
C1864 C1863 1.383 . S
C1864 C1865 1.377 . S
C1865 H1849 0.930 . S
C1865 C1864 1.377 . S
C1865 C1866 1.379 . S
C1866 H1850 0.931 . S
C1866 C1860 1.383 . S
C1866 C1865 1.379 . S
H1867 C1861 0.959 . S
H1868 C1861 0.961 . S
H1869 C1861 0.960 . S
H1870 C1862 0.930 . S
H1871 C1863 0.929 . S
H1872 C1880 0.929 . S
H1873 C1882 0.930 . S
H1874 C1884 0.930 . S
H1875 C1887 0.929 . S
H1876 C1890 0.930 . S
H1877 C1892 0.960 . S
H1878 C1892 0.960 . S
H1879 C1892 0.960 . S
C1880 H1872 0.929 . S
C1880 C1881 1.377 . S
C1880 C1882 1.384 . S
C1881 C1880 1.377 . S
C1881 C1887 1.390 . S
C1882 H1873 0.930 . S
C1882 C1880 1.384 . S
C1882 C1883 1.372 . S
C1883 C1882 1.372 . S
C1883 C1884 1.400 . S
C1883 C1888 1.490 . S
C1884 H1874 0.930 . S
C1884 C1883 1.400 . S
C1884 C1887 1.386 . S
H1885 C1901 0.930 . S
H1886 C1902 0.931 . S
C1887 H1875 0.929 . S
C1887 C1881 1.390 . S
C1887 C1884 1.386 . S
C1888 C1883 1.490 . S
C1888 C1890 1.395 . S
C1888 C1891 1.403 . S
H1889 C1895 0.930 . S
C1890 H1876 0.930 . S
C1890 C1888 1.395 . S
C1890 C1893 1.403 . S
C1891 C1888 1.403 . S
C1891 C1892 1.524 . S
C1891 C1895 1.400 . S
C1892 H1877 0.960 . S
C1892 H1878 0.960 . S
C1892 H1879 0.960 . S
C1892 C1891 1.524 . S
C1893 C1890 1.403 . S
C1893 C1894 1.392 . S
C1893 C1897 1.495 . S
C1894 C1893 1.392 . S
C1894 C1895 1.385 . S
C1894 C1896 1.478 . S
C1895 H1889 0.930 . S
C1895 C1891 1.400 . S
C1895 C1894 1.385 . S
C1896 C1894 1.478 . S
C1896 C1898 1.381 . S
C1896 C1902 1.383 . S
C1897 C1893 1.495 . S
C1897 H1903 0.959 . S
C1897 H1904 0.961 . S
C1897 H1905 0.960 . S
C1898 C1896 1.381 . S
C1898 C1899 1.394 . S
C1898 H1906 0.930 . S
C1899 C1898 1.394 . S
C1899 C1900 1.383 . S
C1899 H1907 0.929 . S
C1900 C1899 1.383 . S
C1900 C1901 1.377 . S
C1901 H1885 0.930 . S
C1901 C1900 1.377 . S
C1901 C1902 1.379 . S
C1902 H1886 0.931 . S
C1902 C1896 1.383 . S
C1902 C1901 1.379 . S
H1903 C1897 0.959 . S
H1904 C1897 0.961 . S
H1905 C1897 0.960 . S
H1906 C1898 0.930 . S
H1907 C1899 0.929 . S
H1908 C1916 0.929 . S
H1909 C1918 0.930 . S
H1910 C1920 0.930 . S
H1911 C1923 0.929 . S
H1912 C1926 0.930 . S
H1913 C1928 0.960 . S
H1914 C1928 0.960 . S
H1915 C1928 0.960 . S
C1916 H1908 0.929 . S
C1916 C1917 1.377 . S
C1916 C1918 1.384 . S
C1917 C1916 1.377 . S
C1917 C1923 1.390 . S
C1918 H1909 0.930 . S
C1918 C1916 1.384 . S
C1918 C1919 1.372 . S
C1919 C1918 1.372 . S
C1919 C1920 1.400 . S
C1919 C1924 1.490 . S
C1920 H1910 0.930 . S
C1920 C1919 1.400 . S
C1920 C1923 1.386 . S
H1921 C1937 0.930 . S
H1922 C1938 0.931 . S
C1923 H1911 0.929 . S
C1923 C1917 1.390 . S
C1923 C1920 1.386 . S
C1924 C1919 1.490 . S
C1924 C1926 1.395 . S
C1924 C1927 1.403 . S
H1925 C1931 0.930 . S
C1926 H1912 0.930 . S
C1926 C1924 1.395 . S
C1926 C1929 1.403 . S
C1927 C1924 1.403 . S
C1927 C1928 1.524 . S
C1927 C1931 1.400 . S
C1928 H1913 0.960 . S
C1928 H1914 0.960 . S
C1928 H1915 0.960 . S
C1928 C1927 1.524 . S
C1929 C1926 1.403 . S
C1929 C1930 1.392 . S
C1929 C1933 1.495 . S
C1930 C1929 1.392 . S
C1930 C1931 1.385 . S
C1930 C1932 1.478 . S
C1931 H1925 0.930 . S
C1931 C1927 1.400 . S
C1931 C1930 1.385 . S
C1932 C1930 1.478 . S
C1932 C1934 1.381 . S
C1932 C1938 1.383 . S
C1933 C1929 1.495 . S
C1933 H1939 0.959 . S
C1933 H1940 0.961 . S
C1933 H1941 0.960 . S
C1934 C1932 1.381 . S
C1934 C1935 1.394 . S
C1934 H1942 0.930 . S
C1935 C1934 1.394 . S
C1935 C1936 1.383 . S
C1935 H1943 0.929 . S
C1936 C1935 1.383 . S
C1936 C1937 1.377 . S
C1937 H1921 0.930 . S
C1937 C1936 1.377 . S
C1937 C1938 1.379 . S
C1938 H1922 0.931 . S
C1938 C1932 1.383 . S
C1938 C1937 1.379 . S
H1939 C1933 0.959 . S
H1940 C1933 0.961 . S
H1941 C1933 0.960 . S
H1942 C1934 0.930 . S
H1943 C1935 0.929 . S
H1944 C1952 0.929 . S
H1945 C1954 0.930 . S
H1946 C1956 0.930 . S
H1947 C1959 0.929 . S
H1948 C1962 0.930 . S
H1949 C1964 0.960 . S
H1950 C1964 0.960 . S
H1951 C1964 0.960 . S
C1952 H1944 0.929 . S
C1952 C1953 1.377 . S
C1952 C1954 1.384 . S
C1953 C1952 1.377 . S
C1953 C1959 1.390 . S
C1954 H1945 0.930 . S
C1954 C1952 1.384 . S
C1954 C1955 1.372 . S
C1955 C1954 1.372 . S
C1955 C1956 1.400 . S
C1955 C1960 1.490 . S
C1956 H1946 0.930 . S
C1956 C1955 1.400 . S
C1956 C1959 1.386 . S
H1957 C1973 0.930 . S
H1958 C1974 0.931 . S
C1959 H1947 0.929 . S
C1959 C1953 1.390 . S
C1959 C1956 1.386 . S
C1960 C1955 1.490 . S
C1960 C1962 1.395 . S
C1960 C1963 1.403 . S
H1961 C1967 0.930 . S
C1962 H1948 0.930 . S
C1962 C1960 1.395 . S
C1962 C1965 1.403 . S
C1963 C1960 1.403 . S
C1963 C1964 1.524 . S
C1963 C1967 1.400 . S
C1964 H1949 0.960 . S
C1964 H1950 0.960 . S
C1964 H1951 0.960 . S
C1964 C1963 1.524 . S
C1965 C1962 1.403 . S
C1965 C1966 1.392 . S
C1965 C1969 1.495 . S
C1966 C1965 1.392 . S
C1966 C1967 1.385 . S
C1966 C1968 1.478 . S
C1967 H1961 0.930 . S
C1967 C1963 1.400 . S
C1967 C1966 1.385 . S
C1968 C1966 1.478 . S
C1968 C1970 1.381 . S
C1968 C1974 1.383 . S
C1969 C1965 1.495 . S
C1969 H1975 0.959 . S
C1969 H1976 0.961 . S
C1969 H1977 0.960 . S
C1970 C1968 1.381 . S
C1970 C1971 1.394 . S
C1970 H1978 0.930 . S
C1971 C1970 1.394 . S
C1971 C1972 1.383 . S
C1971 H1979 0.929 . S
C1972 C1971 1.383 . S
C1972 C1973 1.377 . S
C1973 H1957 0.930 . S
C1973 C1972 1.377 . S
C1973 C1974 1.379 . S
C1974 H1958 0.931 . S
C1974 C1968 1.383 . S
C1974 C1973 1.379 . S
H1975 C1969 0.959 . S
H1976 C1969 0.961 . S
H1977 C1969 0.960 . S
H1978 C1970 0.930 . S
H1979 C1971 0.929 . S
H1980 C1988 0.929 . S
H1981 C1990 0.930 . S
H1982 C1992 0.930 . S
H1983 C1995 0.929 . S
H1984 C1998 0.930 . S
H1985 C2000 0.960 . S
H1986 C2000 0.960 . S
H1987 C2000 0.960 . S
C1988 H1980 0.929 . S
C1988 C1989 1.377 . S
C1988 C1990 1.384 . S
C1989 C1988 1.377 . S
C1989 C1995 1.390 . S
C1990 H1981 0.930 . S
C1990 C1988 1.384 . S
C1990 C1991 1.372 . S
C1991 C1990 1.372 . S
C1991 C1992 1.400 . S
C1991 C1996 1.490 . S
C1992 H1982 0.930 . S
C1992 C1991 1.400 . S
C1992 C1995 1.386 . S
H1993 C2009 0.930 . S
H1994 C2010 0.931 . S
C1995 H1983 0.929 . S
C1995 C1989 1.390 . S
C1995 C1992 1.386 . S
C1996 C1991 1.490 . S
C1996 C1998 1.395 . S
C1996 C1999 1.403 . S
H1997 C2003 0.930 . S
C1998 H1984 0.930 . S
C1998 C1996 1.395 . S
C1998 C2001 1.403 . S
C1999 C1996 1.403 . S
C1999 C2000 1.524 . S
C1999 C2003 1.400 . S
C2000 H1985 0.960 . S
C2000 H1986 0.960 . S
C2000 H1987 0.960 . S
C2000 C1999 1.524 . S
C2001 C1998 1.403 . S
C2001 C2002 1.392 . S
C2001 C2005 1.495 . S
C2002 C2001 1.392 . S
C2002 C2003 1.385 . S
C2002 C2004 1.478 . S
C2003 H1997 0.930 . S
C2003 C1999 1.400 . S
C2003 C2002 1.385 . S
C2004 C2002 1.478 . S
C2004 C2006 1.381 . S
C2004 C2010 1.383 . S
C2005 C2001 1.495 . S
C2005 H2011 0.959 . S
C2005 H2012 0.961 . S
C2005 H2013 0.960 . S
C2006 C2004 1.381 . S
C2006 C2007 1.394 . S
C2006 H2014 0.930 . S
C2007 C2006 1.394 . S
C2007 C2008 1.383 . S
C2007 H2015 0.929 . S
C2008 C2007 1.383 . S
C2008 C2009 1.377 . S
C2009 H1993 0.930 . S
C2009 C2008 1.377 . S
C2009 C2010 1.379 . S
C2010 H1994 0.931 . S
C2010 C2004 1.383 . S
C2010 C2009 1.379 . S
H2011 C2005 0.959 . S
H2012 C2005 0.961 . S
H2013 C2005 0.960 . S
H2014 C2006 0.930 . S
H2015 C2007 0.929 . S
H2016 C2024 0.929 . S
H2017 C2026 0.930 . S
H2018 C2028 0.930 . S
H2019 C2031 0.929 . S
H2020 C2034 0.930 . S
H2021 C2036 0.960 . S
H2022 C2036 0.960 . S
H2023 C2036 0.960 . S
C2024 H2016 0.929 . S
C2024 C2025 1.377 . S
C2024 C2026 1.384 . S
C2025 C2024 1.377 . S
C2025 C2031 1.390 . S
C2026 H2017 0.930 . S
C2026 C2024 1.384 . S
C2026 C2027 1.372 . S
C2027 C2026 1.372 . S
C2027 C2028 1.400 . S
C2027 C2032 1.490 . S
C2028 H2018 0.930 . S
C2028 C2027 1.400 . S
C2028 C2031 1.386 . S
H2029 C2045 0.930 . S
H2030 C2046 0.931 . S
C2031 H2019 0.929 . S
C2031 C2025 1.390 . S
C2031 C2028 1.386 . S
C2032 C2027 1.490 . S
C2032 C2034 1.395 . S
C2032 C2035 1.403 . S
H2033 C2039 0.930 . S
C2034 H2020 0.930 . S
C2034 C2032 1.395 . S
C2034 C2037 1.403 . S
C2035 C2032 1.403 . S
C2035 C2036 1.524 . S
C2035 C2039 1.400 . S
C2036 H2021 0.960 . S
C2036 H2022 0.960 . S
C2036 H2023 0.960 . S
C2036 C2035 1.524 . S
C2037 C2034 1.403 . S
C2037 C2038 1.392 . S
C2037 C2041 1.495 . S
C2038 C2037 1.392 . S
C2038 C2039 1.385 . S
C2038 C2040 1.478 . S
C2039 H2033 0.930 . S
C2039 C2035 1.400 . S
C2039 C2038 1.385 . S
C2040 C2038 1.478 . S
C2040 C2042 1.381 . S
C2040 C2046 1.383 . S
C2041 C2037 1.495 . S
C2041 H2047 0.959 1_556 S
C2041 H2048 0.961 . S
C2041 H2049 0.960 1_556 S
C2042 C2040 1.381 . S
C2042 C2043 1.394 . S
C2042 H2050 0.930 . S
C2043 C2042 1.394 . S
C2043 C2044 1.383 . S
C2043 H2051 0.929 . S
C2044 C2043 1.383 . S
C2044 C2045 1.377 . S
C2045 H2029 0.930 . S
C2045 C2044 1.377 . S
C2045 C2046 1.379 . S
C2046 H2030 0.931 . S
C2046 C2040 1.383 . S
C2046 C2045 1.379 . S
H2047 C2041 0.959 1_554 S
H2048 C2041 0.961 . S
H2049 C2041 0.960 1_554 S
H2050 C2042 0.930 . S
H2051 C2043 0.929 . S
H2052 C2060 0.929 . S
H2053 C2062 0.930 . S
H2054 C2064 0.930 . S
H2055 C2067 0.929 . S
H2056 C2070 0.930 . S
H2057 C2072 0.960 . S
H2058 C2072 0.960 . S
H2059 C2072 0.960 . S
C2060 H2052 0.929 . S
C2060 C2061 1.377 . S
C2060 C2062 1.384 . S
C2061 C2060 1.377 . S
C2061 C2067 1.390 . S
C2062 H2053 0.930 . S
C2062 C2060 1.384 . S
C2062 C2063 1.372 . S
C2063 C2062 1.372 . S
C2063 C2064 1.400 . S
C2063 C2068 1.490 . S
C2064 H2054 0.930 . S
C2064 C2063 1.400 . S
C2064 C2067 1.386 . S
H2065 C2081 0.930 . S
H2066 C2082 0.931 . S
C2067 H2055 0.929 . S
C2067 C2061 1.390 . S
C2067 C2064 1.386 . S
C2068 C2063 1.490 . S
C2068 C2070 1.395 . S
C2068 C2071 1.403 . S
H2069 C2075 0.930 . S
C2070 H2056 0.930 . S
C2070 C2068 1.395 . S
C2070 C2073 1.403 . S
C2071 C2068 1.403 . S
C2071 C2072 1.524 . S
C2071 C2075 1.400 . S
C2072 H2057 0.960 . S
C2072 H2058 0.960 . S
C2072 H2059 0.960 . S
C2072 C2071 1.524 . S
C2073 C2070 1.403 . S
C2073 C2074 1.392 . S
C2073 C2077 1.495 . S
C2074 C2073 1.392 . S
C2074 C2075 1.385 . S
C2074 C2076 1.478 . S
C2075 H2069 0.930 . S
C2075 C2071 1.400 . S
C2075 C2074 1.385 . S
C2076 C2074 1.478 . S
C2076 C2078 1.381 . S
C2076 C2082 1.383 . S
C2077 C2073 1.495 . S
C2077 H2083 0.997 . S
C2077 H2084 0.961 1_556 S
C2077 H2085 0.960 . S
C2078 C2076 1.381 . S
C2078 C2079 1.394 . S
C2078 H2086 0.930 . S
C2079 C2078 1.394 . S
C2079 C2080 1.383 . S
C2079 H2087 0.929 . S
C2080 C2079 1.383 . S
C2080 C2081 1.377 . S
C2081 H2065 0.930 . S
C2081 C2080 1.377 . S
C2081 C2082 1.379 . S
C2082 H2066 0.931 . S
C2082 C2076 1.383 . S
C2082 C2081 1.379 . S
H2083 C2077 0.997 . S
H2084 C2077 0.961 1_554 S
H2085 C2077 0.960 . S
H2086 C2078 0.930 . S
H2087 C2079 0.929 . S
H2088 C2096 0.929 . S
H2089 C2098 0.930 . S
H2090 C2100 0.930 . S
H2091 C2103 0.929 . S
H2092 C2106 0.930 . S
H2093 C2108 0.960 . S
H2094 C2108 0.960 . S
H2095 C2108 0.960 . S
C2096 H2088 0.929 . S
C2096 C2097 1.377 . S
C2096 C2098 1.384 . S
C2097 C2096 1.377 . S
C2097 C2103 1.390 . S
C2098 H2089 0.930 . S
C2098 C2096 1.384 . S
C2098 C2099 1.372 . S
C2099 C2098 1.372 . S
C2099 C2100 1.400 . S
C2099 C2104 1.490 . S
C2100 H2090 0.930 . S
C2100 C2099 1.400 . S
C2100 C2103 1.386 . S
H2101 C2117 0.930 . S
H2102 C2118 0.931 . S
C2103 H2091 0.929 . S
C2103 C2097 1.390 . S
C2103 C2100 1.386 . S
C2104 C2099 1.490 . S
C2104 C2106 1.395 . S
C2104 C2107 1.403 . S
H2105 C2111 0.930 . S
C2106 H2092 0.930 . S
C2106 C2104 1.395 . S
C2106 C2109 1.403 . S
C2107 C2104 1.403 . S
C2107 C2108 1.524 . S
C2107 C2111 1.400 . S
C2108 H2093 0.960 . S
C2108 H2094 0.960 . S
C2108 H2095 0.960 . S
C2108 C2107 1.524 . S
C2109 C2106 1.403 . S
C2109 C2110 1.392 . S
C2109 C2113 1.495 . S
C2110 C2109 1.392 . S
C2110 C2111 1.385 . S
C2110 C2112 1.478 . S
C2111 H2105 0.930 . S
C2111 C2107 1.400 . S
C2111 C2110 1.385 . S
C2112 C2110 1.478 . S
C2112 C2114 1.381 . S
C2112 C2118 1.383 . S
C2113 C2109 1.495 . S
C2113 H2119 0.959 . S
C2113 H2120 0.961 . S
C2113 H2121 0.960 . S
C2114 C2112 1.381 . S
C2114 C2115 1.394 . S
C2114 H2122 0.930 . S
C2115 C2114 1.394 . S
C2115 C2116 1.383 . S
C2115 H2123 0.929 . S
C2116 C2115 1.383 . S
C2116 C2117 1.377 . S
C2117 H2101 0.930 . S
C2117 C2116 1.377 . S
C2117 C2118 1.379 . S
C2118 H2102 0.931 . S
C2118 C2112 1.383 . S
C2118 C2117 1.379 . S
H2119 C2113 0.959 . S
H2120 C2113 0.961 . S
H2121 C2113 0.960 . S
H2122 C2114 0.930 . S
H2123 C2115 0.929 . S
H2124 C2132 0.929 . S
H2125 C2134 0.930 . S
H2126 C2136 0.930 . S
H2127 C2139 0.929 . S
H2128 C2142 0.930 . S
H2129 C2144 0.960 . S
H2130 C2144 0.960 . S
H2131 C2144 0.960 . S
C2132 H2124 0.929 . S
C2132 C2133 1.377 . S
C2132 C2134 1.384 . S
C2133 C2132 1.377 . S
C2133 C2139 1.390 . S
C2134 H2125 0.930 . S
C2134 C2132 1.384 . S
C2134 C2135 1.372 . S
C2135 C2134 1.372 . S
C2135 C2136 1.400 . S
C2135 C2140 1.490 . S
C2136 H2126 0.930 . S
C2136 C2135 1.400 . S
C2136 C2139 1.386 . S
H2137 C2153 0.930 . S
H2138 C2154 0.931 . S
C2139 H2127 0.929 . S
C2139 C2133 1.390 . S
C2139 C2136 1.386 . S
C2140 C2135 1.490 . S
C2140 C2142 1.395 . S
C2140 C2143 1.403 . S
H2141 C2147 0.930 . S
C2142 H2128 0.930 . S
C2142 C2140 1.395 . S
C2142 C2145 1.403 . S
C2143 C2140 1.403 . S
C2143 C2144 1.524 . S
C2143 C2147 1.400 . S
C2144 H2129 0.960 . S
C2144 H2130 0.960 . S
C2144 H2131 0.960 . S
C2144 C2143 1.524 . S
C2145 C2142 1.403 . S
C2145 C2146 1.392 . S
C2145 C2149 1.495 . S
C2146 C2145 1.392 . S
C2146 C2147 1.385 . S
C2146 C2148 1.478 . S
C2147 H2141 0.930 . S
C2147 C2143 1.400 . S
C2147 C2146 1.385 . S
C2148 C2146 1.478 . S
C2148 C2150 1.381 . S
C2148 C2154 1.383 . S
C2149 C2145 1.495 . S
C2149 H2155 0.959 . S
C2149 H2156 0.961 . S
C2149 H2157 0.960 . S
C2150 C2148 1.381 . S
C2150 C2151 1.394 . S
C2150 H2158 0.930 . S
C2151 C2150 1.394 . S
C2151 C2152 1.383 . S
C2151 H2159 0.929 . S
C2152 C2151 1.383 . S
C2152 C2153 1.377 . S
C2153 H2137 0.930 . S
C2153 C2152 1.377 . S
C2153 C2154 1.379 . S
C2154 H2138 0.931 . S
C2154 C2148 1.383 . S
C2154 C2153 1.379 . S
H2155 C2149 0.959 . S
H2156 C2149 0.961 . S
H2157 C2149 0.960 . S
H2158 C2150 0.930 . S
H2159 C2151 0.929 . S
H2160 C2168 0.929 . S
H2161 C2170 0.930 . S
H2162 C2172 0.930 . S
H2163 C2175 0.929 . S
H2164 C2178 0.930 . S
H2165 C2180 0.960 . S
H2166 C2180 0.960 . S
H2167 C2180 0.960 . S
C2168 H2160 0.929 . S
C2168 C2169 1.377 . S
C2168 C2170 1.384 . S
C2169 C2168 1.377 . S
C2169 C2175 1.390 . S
C2170 H2161 0.930 . S
C2170 C2168 1.384 . S
C2170 C2171 1.372 . S
C2171 C2170 1.372 . S
C2171 C2172 1.400 . S
C2171 C2176 1.490 . S
C2172 H2162 0.930 . S
C2172 C2171 1.400 . S
C2172 C2175 1.386 . S
H2173 C2189 0.930 . S
H2174 C2190 0.931 . S
C2175 H2163 0.929 . S
C2175 C2169 1.390 . S
C2175 C2172 1.386 . S
C2176 C2171 1.490 . S
C2176 C2178 1.395 . S
C2176 C2179 1.403 . S
H2177 C2183 0.930 . S
C2178 H2164 0.930 . S
C2178 C2176 1.395 . S
C2178 C2181 1.403 . S
C2179 C2176 1.403 . S
C2179 C2180 1.524 . S
C2179 C2183 1.400 . S
C2180 H2165 0.960 . S
C2180 H2166 0.960 . S
C2180 H2167 0.960 . S
C2180 C2179 1.524 . S
C2181 C2178 1.403 . S
C2181 C2182 1.392 . S
C2181 C2185 1.495 . S
C2182 C2181 1.392 . S
C2182 C2183 1.385 . S
C2182 C2184 1.478 . S
C2183 H2177 0.930 . S
C2183 C2179 1.400 . S
C2183 C2182 1.385 . S
C2184 C2182 1.478 . S
C2184 C2186 1.381 . S
C2184 C2190 1.383 . S
C2185 C2181 1.495 . S
C2185 H2191 0.959 . S
C2185 H2192 0.961 . S
C2185 H2193 0.960 . S
C2186 C2184 1.381 . S
C2186 C2187 1.394 . S
C2186 H2194 0.930 . S
C2187 C2186 1.394 . S
C2187 C2188 1.383 . S
C2187 H2195 0.929 . S
C2188 C2187 1.383 . S
C2188 C2189 1.377 . S
C2189 H2173 0.930 . S
C2189 C2188 1.377 . S
C2189 C2190 1.379 . S
C2190 H2174 0.931 . S
C2190 C2184 1.383 . S
C2190 C2189 1.379 . S
H2191 C2185 0.959 . S
H2192 C2185 0.961 . S
H2193 C2185 0.960 . S
H2194 C2186 0.930 . S
H2195 C2187 0.929 . S
H2196 C2204 0.929 . S
H2197 C2206 0.930 . S
H2198 C2208 0.930 . S
H2199 C2211 0.929 . S
H2200 C2214 0.930 . S
H2201 C2216 0.960 . S
H2202 C2216 0.960 . S
H2203 C2216 0.960 . S
C2204 H2196 0.929 . S
C2204 C2205 1.377 . S
C2204 C2206 1.384 . S
C2205 C2204 1.377 . S
C2205 C2211 1.390 . S
C2206 H2197 0.930 . S
C2206 C2204 1.384 . S
C2206 C2207 1.372 . S
C2207 C2206 1.372 . S
C2207 C2208 1.400 . S
C2207 C2212 1.490 . S
C2208 H2198 0.930 . S
C2208 C2207 1.400 . S
C2208 C2211 1.386 . S
H2209 C2225 0.930 . S
H2210 C2226 0.931 . S
C2211 H2199 0.929 . S
C2211 C2205 1.390 . S
C2211 C2208 1.386 . S
C2212 C2207 1.490 . S
C2212 C2214 1.395 . S
C2212 C2215 1.403 . S
H2213 C2219 0.930 . S
C2214 H2200 0.930 . S
C2214 C2212 1.395 . S
C2214 C2217 1.403 . S
C2215 C2212 1.403 . S
C2215 C2216 1.524 . S
C2215 C2219 1.400 . S
C2216 H2201 0.960 . S
C2216 H2202 0.960 . S
C2216 H2203 0.960 . S
C2216 C2215 1.524 . S
C2217 C2214 1.403 . S
C2217 C2218 1.392 . S
C2217 C2221 1.495 . S
C2218 C2217 1.392 . S
C2218 C2219 1.385 . S
C2218 C2220 1.478 . S
C2219 H2213 0.930 . S
C2219 C2215 1.400 . S
C2219 C2218 1.385 . S
C2220 C2218 1.478 . S
C2220 C2222 1.381 . S
C2220 C2226 1.383 . S
C2221 C2217 1.495 . S
C2221 H2227 0.959 . S
C2221 H2228 0.961 . S
C2221 H2229 0.960 . S
C2222 C2220 1.381 . S
C2222 C2223 1.394 . S
C2222 H2230 0.930 . S
C2223 C2222 1.394 . S
C2223 C2224 1.383 . S
C2223 H2231 0.929 . S
C2224 C2223 1.383 . S
C2224 C2225 1.377 . S
C2225 H2209 0.930 . S
C2225 C2224 1.377 . S
C2225 C2226 1.379 . S
C2226 H2210 0.931 . S
C2226 C2220 1.383 . S
C2226 C2225 1.379 . S
H2227 C2221 0.959 . S
H2228 C2221 0.961 . S
H2229 C2221 0.960 . S
H2230 C2222 0.930 . S
H2231 C2223 0.929 . S
H2232 C2240 0.929 . S
H2233 C2242 0.930 . S
H2234 C2244 0.930 . S
H2235 C2247 0.929 . S
H2236 C2250 0.930 . S
H2237 C2252 0.960 . S
H2238 C2252 0.960 . S
H2239 C2252 0.960 . S
C2240 H2232 0.929 . S
C2240 C2241 1.377 . S
C2240 C2242 1.384 . S
C2241 C2240 1.377 . S
C2241 C2247 1.390 . S
C2242 H2233 0.930 . S
C2242 C2240 1.384 . S
C2242 C2243 1.372 . S
C2243 C2242 1.372 . S
C2243 C2244 1.400 . S
C2243 C2248 1.490 . S
C2244 H2234 0.930 . S
C2244 C2243 1.400 . S
C2244 C2247 1.386 . S
H2245 C2261 0.930 . S
H2246 C2262 0.931 . S
C2247 H2235 0.929 . S
C2247 C2241 1.390 . S
C2247 C2244 1.386 . S
C2248 C2243 1.490 . S
C2248 C2250 1.395 . S
C2248 C2251 1.403 . S
H2249 C2255 0.930 . S
C2250 H2236 0.930 . S
C2250 C2248 1.395 . S
C2250 C2253 1.403 . S
C2251 C2248 1.403 . S
C2251 C2252 1.524 . S
C2251 C2255 1.400 . S
C2252 H2237 0.960 . S
C2252 H2238 0.960 . S
C2252 H2239 0.960 . S
C2252 C2251 1.524 . S
C2253 C2250 1.403 . S
C2253 C2254 1.392 . S
C2253 C2257 1.495 . S
C2254 C2253 1.392 . S
C2254 C2255 1.385 . S
C2254 C2256 1.478 . S
C2255 H2249 0.930 . S
C2255 C2251 1.400 . S
C2255 C2254 1.385 . S
C2256 C2254 1.478 . S
C2256 C2258 1.381 . S
C2256 C2262 1.383 . S
C2257 C2253 1.495 . S
C2257 H2263 0.959 . S
C2257 H2264 0.961 . S
C2257 H2265 0.960 . S
C2258 C2256 1.381 . S
C2258 C2259 1.394 . S
C2258 H2266 0.930 . S
C2259 C2258 1.394 . S
C2259 C2260 1.383 . S
C2259 H2267 0.929 . S
C2260 C2259 1.383 . S
C2260 C2261 1.377 . S
C2261 H2245 0.930 . S
C2261 C2260 1.377 . S
C2261 C2262 1.379 . S
C2262 H2246 0.931 . S
C2262 C2256 1.383 . S
C2262 C2261 1.379 . S
H2263 C2257 0.959 . S
H2264 C2257 0.961 . S
H2265 C2257 0.960 . S
H2266 C2258 0.930 . S
H2267 C2259 0.929 . S
H2268 C2276 0.929 . S
H2269 C2278 0.930 . S
H2270 C2280 0.930 . S
H2271 C2283 0.929 . S
H2272 C2286 0.930 . S
H2273 C2288 0.960 1_556 S
H2274 C2288 0.938 1_556 S
H2275 C2288 0.960 . S
C2276 H2268 0.929 . S
C2276 C2277 1.377 . S
C2276 C2278 1.384 . S
C2277 C2276 1.377 . S
C2277 C2283 1.390 . S
C2278 H2269 0.930 . S
C2278 C2276 1.384 . S
C2278 C2279 1.372 . S
C2279 C2278 1.372 . S
C2279 C2280 1.400 . S
C2279 C2284 1.490 . S
C2280 H2270 0.930 . S
C2280 C2279 1.400 . S
C2280 C2283 1.386 . S
H2281 C2297 0.930 . S
H2282 C2298 0.931 . S
C2283 H2271 0.929 . S
C2283 C2277 1.390 . S
C2283 C2280 1.386 . S
C2284 C2279 1.490 . S
C2284 C2286 1.395 . S
C2284 C2287 1.403 . S
H2285 C2291 0.930 . S
C2286 H2272 0.930 . S
C2286 C2284 1.395 . S
C2286 C2289 1.403 . S
C2287 C2284 1.403 . S
C2287 C2288 1.524 . S
C2287 C2291 1.400 . S
C2288 H2273 0.960 1_554 S
C2288 H2274 0.938 1_554 S
C2288 H2275 0.960 . S
C2288 C2287 1.524 . S
C2289 C2286 1.403 . S
C2289 C2290 1.392 . S
C2289 C2293 1.495 . S
C2290 C2289 1.392 . S
C2290 C2291 1.385 . S
C2290 C2292 1.478 . S
C2291 H2285 0.930 . S
C2291 C2287 1.400 . S
C2291 C2290 1.385 . S
C2292 C2290 1.478 . S
C2292 C2294 1.381 . S
C2292 C2298 1.383 . S
C2293 C2289 1.495 . S
C2293 H2299 0.959 . S
C2293 H2300 0.961 . S
C2293 H2301 0.960 . S
C2294 C2292 1.381 . S
C2294 C2295 1.394 . S
C2294 H2302 0.930 . S
C2295 C2294 1.394 . S
C2295 C2296 1.383 . S
C2295 H2303 0.929 . S
C2296 C2295 1.383 . S
C2296 C2297 1.377 . S
C2297 H2281 0.930 . S
C2297 C2296 1.377 . S
C2297 C2298 1.379 . S
C2298 H2282 0.931 . S
C2298 C2292 1.383 . S
C2298 C2297 1.379 . S
H2299 C2293 0.959 . S
H2300 C2293 0.961 . S
H2301 C2293 0.960 . S
H2302 C2294 0.930 . S
H2303 C2295 0.929 . S
H2304 C2312 0.929 . S
H2305 C2314 0.930 . S
H2306 C2316 0.930 . S
H2307 C2319 0.929 . S
H2308 C2322 0.930 . S
H2309 C2324 0.960 . S
H2310 C2324 0.960 . S
H2311 C2324 0.960 . S
C2312 H2304 0.929 . S
C2312 C2313 1.377 . S
C2312 C2314 1.384 . S
C2313 C2312 1.377 . S
C2313 C2319 1.390 . S
C2314 H2305 0.930 . S
C2314 C2312 1.384 . S
C2314 C2315 1.372 . S
C2315 C2314 1.372 . S
C2315 C2316 1.400 . S
C2315 C2320 1.490 . S
C2316 H2306 0.930 . S
C2316 C2315 1.400 . S
C2316 C2319 1.386 . S
H2317 C2333 0.930 . S
H2318 C2334 0.931 . S
C2319 H2307 0.929 . S
C2319 C2313 1.390 . S
C2319 C2316 1.386 . S
C2320 C2315 1.490 . S
C2320 C2322 1.395 . S
C2320 C2323 1.403 . S
H2321 C2327 0.930 . S
C2322 H2308 0.930 . S
C2322 C2320 1.395 . S
C2322 C2325 1.403 . S
C2323 C2320 1.403 . S
C2323 C2324 1.524 . S
C2323 C2327 1.400 . S
C2324 H2309 0.960 . S
C2324 H2310 0.960 . S
C2324 H2311 0.960 . S
C2324 C2323 1.524 . S
C2325 C2322 1.403 . S
C2325 C2326 1.392 . S
C2325 C2329 1.495 . S
C2326 C2325 1.392 . S
C2326 C2327 1.385 . S
C2326 C2328 1.478 . S
C2327 H2321 0.930 . S
C2327 C2323 1.400 . S
C2327 C2326 1.385 . S
C2328 C2326 1.478 . S
C2328 C2330 1.381 . S
C2328 C2334 1.383 . S
C2329 C2325 1.495 . S
C2329 H2335 0.959 . S
C2329 H2336 0.961 . S
C2329 H2337 0.960 . S
C2330 C2328 1.381 . S
C2330 C2331 1.394 . S
C2330 H2338 0.930 . S
C2331 C2330 1.394 . S
C2331 C2332 1.383 . S
C2331 H2339 0.929 . S
C2332 C2331 1.383 . S
C2332 C2333 1.377 . S
C2333 H2317 0.930 . S
C2333 C2332 1.377 . S
C2333 C2334 1.379 . S
C2334 H2318 0.931 . S
C2334 C2328 1.383 . S
C2334 C2333 1.379 . S
H2335 C2329 0.959 . S
H2336 C2329 0.961 . S
H2337 C2329 0.960 . S
H2338 C2330 0.930 . S
H2339 C2331 0.929 . S
H2340 C2348 0.929 . S
H2341 C2350 0.930 . S
H2342 C2352 0.930 . S
H2343 C2355 0.929 . S
H2344 C2358 0.930 . S
H2345 C2360 0.960 . S
H2346 C2360 0.960 . S
H2347 C2360 0.960 . S
C2348 H2340 0.929 . S
C2348 C2349 1.377 . S
C2348 C2350 1.384 . S
C2349 C2348 1.377 . S
C2349 C2355 1.390 . S
C2350 H2341 0.930 . S
C2350 C2348 1.384 . S
C2350 C2351 1.372 . S
C2351 C2350 1.372 . S
C2351 C2352 1.400 . S
C2351 C2356 1.490 . S
C2352 H2342 0.930 . S
C2352 C2351 1.400 . S
C2352 C2355 1.386 . S
H2353 C2369 0.930 . S
H2354 C2370 0.931 . S
C2355 H2343 0.929 . S
C2355 C2349 1.390 . S
C2355 C2352 1.386 . S
C2356 C2351 1.490 . S
C2356 C2358 1.395 . S
C2356 C2359 1.403 . S
H2357 C2363 0.930 . S
C2358 H2344 0.930 . S
C2358 C2356 1.395 . S
C2358 C2361 1.403 . S
C2359 C2356 1.403 . S
C2359 C2360 1.524 . S
C2359 C2363 1.400 . S
C2360 H2345 0.960 . S
C2360 H2346 0.960 . S
C2360 H2347 0.960 . S
C2360 C2359 1.524 . S
C2361 C2358 1.403 . S
C2361 C2362 1.392 . S
C2361 C2365 1.495 . S
C2362 C2361 1.392 . S
C2362 C2363 1.385 . S
C2362 C2364 1.478 . S
C2363 H2357 0.930 . S
C2363 C2359 1.400 . S
C2363 C2362 1.385 . S
C2364 C2362 1.478 . S
C2364 C2366 1.381 . S
C2364 C2370 1.383 . S
C2365 C2361 1.495 . S
C2365 H2371 0.959 . S
C2365 H2372 0.961 . S
C2365 H2373 0.960 . S
C2366 C2364 1.381 . S
C2366 C2367 1.394 . S
C2366 H2374 0.930 . S
C2367 C2366 1.394 . S
C2367 C2368 1.383 . S
C2367 H2375 0.929 . S
C2368 C2367 1.383 . S
C2368 C2369 1.377 . S
C2369 H2353 0.930 . S
C2369 C2368 1.377 . S
C2369 C2370 1.379 . S
C2370 H2354 0.931 . S
C2370 C2364 1.383 . S
C2370 C2369 1.379 . S
H2371 C2365 0.959 . S
H2372 C2365 0.961 . S
H2373 C2365 0.960 . S
H2374 C2366 0.930 . S
H2375 C2367 0.929 . S
H2376 C2384 0.929 . S
H2377 C2386 0.930 . S
H2378 C2388 0.930 . S
H2379 C2391 0.929 . S
H2380 C2394 0.930 . S
H2381 C2396 0.960 . S
H2382 C2396 0.960 . S
H2383 C2396 0.960 . S
C2384 H2376 0.929 . S
C2384 C2385 1.377 . S
C2384 C2386 1.384 . S
C2385 C2384 1.377 . S
C2385 C2391 1.390 . S
C2386 H2377 0.930 . S
C2386 C2384 1.384 . S
C2386 C2387 1.372 . S
C2387 C2386 1.372 . S
C2387 C2388 1.400 . S
C2387 C2392 1.490 . S
C2388 H2378 0.930 . S
C2388 C2387 1.400 . S
C2388 C2391 1.386 . S
H2389 C2405 0.930 . S
H2390 C2406 0.931 . S
C2391 H2379 0.929 . S
C2391 C2385 1.390 . S
C2391 C2388 1.386 . S
C2392 C2387 1.490 . S
C2392 C2394 1.395 . S
C2392 C2395 1.403 . S
H2393 C2399 0.930 . S
C2394 H2380 0.930 . S
C2394 C2392 1.395 . S
C2394 C2397 1.403 . S
C2395 C2392 1.403 . S
C2395 C2396 1.524 . S
C2395 C2399 1.400 . S
C2396 H2381 0.960 . S
C2396 H2382 0.960 . S
C2396 H2383 0.960 . S
C2396 C2395 1.524 . S
C2397 C2394 1.403 . S
C2397 C2398 1.392 . S
C2397 C2401 1.495 . S
C2398 C2397 1.392 . S
C2398 C2399 1.385 . S
C2398 C2400 1.478 . S
C2399 H2393 0.930 . S
C2399 C2395 1.400 . S
C2399 C2398 1.385 . S
C2400 C2398 1.478 . S
C2400 C2402 1.381 . S
C2400 C2406 1.383 . S
C2401 C2397 1.495 . S
C2401 H2407 0.959 . S
C2401 H2408 0.961 . S
C2401 H2409 0.960 . S
C2402 C2400 1.381 . S
C2402 C2403 1.394 . S
C2402 H2410 0.930 . S
C2403 C2402 1.394 . S
C2403 C2404 1.383 . S
C2403 H2411 0.929 . S
C2404 C2403 1.383 . S
C2404 C2405 1.377 . S
C2405 H2389 0.930 . S
C2405 C2404 1.377 . S
C2405 C2406 1.379 . S
C2406 H2390 0.931 . S
C2406 C2400 1.383 . S
C2406 C2405 1.379 . S
H2407 C2401 0.959 . S
H2408 C2401 0.961 . S
H2409 C2401 0.960 . S
H2410 C2402 0.930 . S
H2411 C2403 0.929 . S
H2412 C2420 0.929 . S
H2413 C2422 0.930 . S
H2414 C2424 0.930 . S
H2415 C2427 0.929 . S
H2416 C2430 0.930 . S
H2417 C2432 0.960 . S
H2418 C2432 0.960 . S
H2419 C2432 0.960 . S
C2420 H2412 0.929 . S
C2420 C2421 1.377 . S
C2420 C2422 1.384 . S
C2421 C2420 1.377 . S
C2421 C2427 1.390 . S
C2422 H2413 0.930 . S
C2422 C2420 1.384 . S
C2422 C2423 1.372 . S
C2423 C2422 1.372 . S
C2423 C2424 1.400 . S
C2423 C2428 1.490 . S
C2424 H2414 0.930 . S
C2424 C2423 1.400 . S
C2424 C2427 1.386 . S
H2425 C2441 0.930 . S
H2426 C2442 0.931 . S
C2427 H2415 0.929 . S
C2427 C2421 1.390 . S
C2427 C2424 1.386 . S
C2428 C2423 1.490 . S
C2428 C2430 1.395 . S
C2428 C2431 1.403 . S
H2429 C2435 0.930 . S
C2430 H2416 0.930 . S
C2430 C2428 1.395 . S
C2430 C2433 1.403 . S
C2431 C2428 1.403 . S
C2431 C2432 1.524 . S
C2431 C2435 1.400 . S
C2432 H2417 0.960 . S
C2432 H2418 0.960 . S
C2432 H2419 0.960 . S
C2432 C2431 1.524 . S
C2433 C2430 1.403 . S
C2433 C2434 1.392 . S
C2433 C2437 1.495 . S
C2434 C2433 1.392 . S
C2434 C2435 1.385 . S
C2434 C2436 1.478 . S
C2435 H2429 0.930 . S
C2435 C2431 1.400 . S
C2435 C2434 1.385 . S
C2436 C2434 1.478 . S
C2436 C2438 1.381 . S
C2436 C2442 1.383 . S
C2437 C2433 1.495 . S
C2437 H2443 0.959 . S
C2437 H2444 0.961 . S
C2437 H2445 0.960 . S
C2438 C2436 1.381 . S
C2438 C2439 1.394 . S
C2438 H2446 0.930 . S
C2439 C2438 1.394 . S
C2439 C2440 1.383 . S
C2439 H2447 0.929 . S
C2440 C2439 1.383 . S
C2440 C2441 1.377 . S
C2441 H2425 0.930 . S
C2441 C2440 1.377 . S
C2441 C2442 1.379 . S
C2442 H2426 0.931 . S
C2442 C2436 1.383 . S
C2442 C2441 1.379 . S
H2443 C2437 0.959 . S
H2444 C2437 0.961 . S
H2445 C2437 0.960 . S
H2446 C2438 0.930 . S
H2447 C2439 0.929 . S
H2448 C2456 0.929 . S
H2449 C2458 0.930 . S
H2450 C2460 0.930 . S
H2451 C2463 0.929 . S
H2452 C2466 0.930 . S
H2453 C2468 0.960 . S
H2454 C2468 0.960 . S
H2455 C2468 0.960 . S
C2456 H2448 0.929 . S
C2456 C2457 1.377 . S
C2456 C2458 1.384 . S
C2457 C2456 1.377 . S
C2457 C2463 1.390 . S
C2458 H2449 0.930 . S
C2458 C2456 1.384 . S
C2458 C2459 1.372 . S
C2459 C2458 1.372 . S
C2459 C2460 1.400 . S
C2459 C2464 1.490 . S
C2460 H2450 0.930 . S
C2460 C2459 1.400 . S
C2460 C2463 1.386 . S
H2461 C2477 0.930 . S
H2462 C2478 0.931 . S
C2463 H2451 0.929 . S
C2463 C2457 1.390 . S
C2463 C2460 1.386 . S
C2464 C2459 1.490 . S
C2464 C2466 1.395 . S
C2464 C2467 1.403 . S
H2465 C2471 0.930 . S
C2466 H2452 0.930 . S
C2466 C2464 1.395 . S
C2466 C2469 1.403 . S
C2467 C2464 1.403 . S
C2467 C2468 1.524 . S
C2467 C2471 1.400 . S
C2468 H2453 0.960 . S
C2468 H2454 0.960 . S
C2468 H2455 0.960 . S
C2468 C2467 1.524 . S
C2469 C2466 1.403 . S
C2469 C2470 1.392 . S
C2469 C2473 1.495 . S
C2470 C2469 1.392 . S
C2470 C2471 1.385 . S
C2470 C2472 1.478 . S
C2471 H2465 0.930 . S
C2471 C2467 1.400 . S
C2471 C2470 1.385 . S
C2472 C2470 1.478 . S
C2472 C2474 1.381 . S
C2472 C2478 1.383 . S
C2473 C2469 1.495 . S
C2473 H2479 0.959 . S
C2473 H2480 0.961 . S
C2473 H2481 0.960 . S
C2474 C2472 1.381 . S
C2474 C2475 1.394 . S
C2474 H2482 0.930 . S
C2475 C2474 1.394 . S
C2475 C2476 1.383 . S
C2475 H2483 0.929 . S
C2476 C2475 1.383 . S
C2476 C2477 1.377 . S
C2477 H2461 0.930 . S
C2477 C2476 1.377 . S
C2477 C2478 1.379 . S
C2478 H2462 0.931 . S
C2478 C2472 1.383 . S
C2478 C2477 1.379 . S
H2479 C2473 0.959 . S
H2480 C2473 0.961 . S
H2481 C2473 0.960 . S
H2482 C2474 0.930 . S
H2483 C2475 0.929 . S
H2484 C2492 0.929 . S
H2485 C2494 0.930 . S
H2486 C2496 0.930 . S
H2487 C2499 0.929 . S
H2488 C2502 0.930 . S
H2489 C2504 0.960 . S
H2490 C2504 0.960 . S
H2491 C2504 0.960 . S
C2492 H2484 0.929 . S
C2492 C2493 1.377 . S
C2492 C2494 1.384 . S
C2493 C2492 1.377 . S
C2493 C2499 1.390 . S
C2494 H2485 0.930 . S
C2494 C2492 1.384 . S
C2494 C2495 1.372 . S
C2495 C2494 1.372 . S
C2495 C2496 1.400 . S
C2495 C2500 1.490 . S
C2496 H2486 0.930 . S
C2496 C2495 1.400 . S
C2496 C2499 1.386 . S
H2497 C2513 0.930 . S
H2498 C2514 0.931 . S
C2499 H2487 0.929 . S
C2499 C2493 1.390 . S
C2499 C2496 1.386 . S
C2500 C2495 1.490 . S
C2500 C2502 1.395 . S
C2500 C2503 1.403 . S
H2501 C2507 0.930 . S
C2502 H2488 0.930 . S
C2502 C2500 1.395 . S
C2502 C2505 1.403 . S
C2503 C2500 1.403 . S
C2503 C2504 1.524 . S
C2503 C2507 1.400 . S
C2504 H2489 0.960 . S
C2504 H2490 0.960 . S
C2504 H2491 0.960 . S
C2504 C2503 1.524 . S
C2505 C2502 1.403 . S
C2505 C2506 1.392 . S
C2505 C2509 1.495 . S
C2506 C2505 1.392 . S
C2506 C2507 1.385 . S
C2506 C2508 1.478 . S
C2507 H2501 0.930 . S
C2507 C2503 1.400 . S
C2507 C2506 1.385 . S
C2508 C2506 1.478 . S
C2508 C2510 1.381 . S
C2508 C2514 1.383 . S
C2509 C2505 1.495 . S
C2509 H2515 0.959 . S
C2509 H2516 0.961 . S
C2509 H2517 0.960 . S
C2510 C2508 1.381 . S
C2510 C2511 1.394 . S
C2510 H2518 0.930 . S
C2511 C2510 1.394 . S
C2511 C2512 1.383 . S
C2511 H2519 0.929 . S
C2512 C2511 1.383 . S
C2512 C2513 1.377 . S
C2513 H2497 0.930 . S
C2513 C2512 1.377 . S
C2513 C2514 1.379 . S
C2514 H2498 0.931 . S
C2514 C2508 1.383 . S
C2514 C2513 1.379 . S
H2515 C2509 0.959 . S
H2516 C2509 0.961 . S
H2517 C2509 0.960 . S
H2518 C2510 0.930 . S
H2519 C2511 0.929 . S
H2520 C2528 0.929 . S
H2521 C2530 0.930 . S
H2522 C2532 0.930 . S
H2523 C2535 0.929 . S
H2524 C2538 0.930 . S
H2525 C2540 0.960 . S
H2526 C2540 0.960 . S
H2527 C2540 0.960 . S
C2528 H2520 0.929 . S
C2528 C2529 1.377 1_455 S
C2528 C2530 1.384 . S
C2529 C2528 1.377 1_655 S
C2529 C2535 1.390 . S
C2530 H2521 0.930 . S
C2530 C2528 1.384 . S
C2530 C2531 1.387 . S
C2531 C2530 1.387 . S
C2531 C2532 1.384 1_455 S
C2531 C2536 1.491 . S
C2532 H2522 0.930 . S
C2532 C2531 1.384 1_655 S
C2532 C2535 1.386 . S
H2533 C2549 0.930 . S
H2534 C2550 0.931 . S
C2535 H2523 0.929 . S
C2535 C2529 1.390 . S
C2535 C2532 1.386 . S
C2536 C2531 1.491 . S
C2536 C2538 1.395 . S
C2536 C2539 1.403 1_455 S
H2537 C2543 0.930 . S
C2538 H2524 0.930 . S
C2538 C2536 1.395 . S
C2538 C2541 1.403 . S
C2539 C2536 1.403 1_655 S
C2539 C2540 1.524 . S
C2539 C2543 1.400 . S
C2540 H2525 0.960 . S
C2540 H2526 0.960 . S
C2540 H2527 0.960 . S
C2540 C2539 1.524 . S
C2541 C2538 1.403 . S
C2541 C2542 1.392 . S
C2541 C2545 1.495 . S
C2542 C2541 1.392 . S
C2542 C2543 1.385 1_455 S
C2542 C2544 1.478 . S
C2543 H2537 0.930 . S
C2543 C2539 1.400 . S
C2543 C2542 1.385 1_655 S
C2544 C2542 1.478 . S
C2544 C2546 1.381 . S
C2544 C2550 1.383 1_455 S
C2545 C2541 1.495 . S
C2545 H2551 0.959 . S
C2545 H2552 0.961 . S
C2545 H2553 0.960 . S
C2546 C2544 1.381 . S
C2546 C2547 1.394 . S
C2546 H2554 0.930 . S
C2547 C2546 1.394 . S
C2547 C2548 1.383 . S
C2547 H2555 0.929 . S
C2548 C2547 1.383 . S
C2548 C2549 1.377 1_455 S
C2549 H2533 0.930 . S
C2549 C2548 1.377 1_655 S
C2549 C2550 1.379 . S
C2550 H2534 0.931 . S
C2550 C2544 1.383 1_655 S
C2550 C2549 1.379 . S
H2551 C2545 0.959 . S
H2552 C2545 0.961 . S
H2553 C2545 0.960 . S
H2554 C2546 0.930 . S
H2555 C2547 0.929 . S
H2556 C2564 0.929 . S
H2557 C2566 0.930 . S
H2558 C2568 0.930 . S
H2559 C2571 0.929 . S
H2560 C2574 0.930 . S
H2561 C2576 0.960 . S
H2562 C2576 0.960 . S
H2563 C2576 0.960 . S
C2564 H2556 0.929 . S
C2564 C2565 1.377 . S
C2564 C2566 1.384 . S
C2565 C2564 1.377 . S
C2565 C2571 1.390 . S
C2566 H2557 0.930 . S
C2566 C2564 1.384 . S
C2566 C2567 1.372 . S
C2567 C2566 1.372 . S
C2567 C2568 1.400 . S
C2567 C2572 1.490 . S
C2568 H2558 0.930 . S
C2568 C2567 1.400 . S
C2568 C2571 1.386 . S
H2569 C2585 0.930 . S
H2570 C2586 0.931 . S
C2571 H2559 0.929 . S
C2571 C2565 1.390 . S
C2571 C2568 1.386 . S
C2572 C2567 1.490 . S
C2572 C2574 1.395 . S
C2572 C2575 1.403 . S
H2573 C2579 0.930 . S
C2574 H2560 0.930 . S
C2574 C2572 1.395 . S
C2574 C2577 1.403 . S
C2575 C2572 1.403 . S
C2575 C2576 1.524 . S
C2575 C2579 1.400 . S
C2576 H2561 0.960 . S
C2576 H2562 0.960 . S
C2576 H2563 0.960 . S
C2576 C2575 1.524 . S
C2577 C2574 1.403 . S
C2577 C2578 1.392 . S
C2577 C2581 1.495 . S
C2578 C2577 1.392 . S
C2578 C2579 1.385 . S
C2578 C2580 1.478 . S
C2579 H2573 0.930 . S
C2579 C2575 1.400 . S
C2579 C2578 1.385 . S
C2580 C2578 1.478 . S
C2580 C2582 1.381 . S
C2580 C2586 1.383 . S
C2581 C2577 1.495 . S
C2581 H2587 0.959 . S
C2581 H2588 0.961 . S
C2581 H2589 0.960 . S
C2582 C2580 1.381 . S
C2582 C2583 1.394 . S
C2582 H2590 0.930 . S
C2583 C2582 1.394 . S
C2583 C2584 1.383 . S
C2583 H2591 0.929 . S
C2584 C2583 1.383 . S
C2584 C2585 1.377 . S
C2585 H2569 0.930 . S
C2585 C2584 1.377 . S
C2585 C2586 1.379 . S
C2586 H2570 0.931 . S
C2586 C2580 1.383 . S
C2586 C2585 1.379 . S
H2587 C2581 0.959 . S
H2588 C2581 0.961 . S
H2589 C2581 0.960 . S
H2590 C2582 0.930 . S
H2591 C2583 0.929 . S
H2592 C2600 0.929 . S
H2593 C2602 0.930 . S
H2594 C2604 0.930 . S
H2595 C2607 0.929 . S
H2596 C2610 0.930 . S
H2597 C2612 0.960 . S
H2598 C2612 0.960 . S
H2599 C2612 0.960 . S
C2600 H2592 0.929 . S
C2600 C2601 1.377 . S
C2600 C2602 1.384 . S
C2601 C2600 1.377 . S
C2601 C2607 1.390 1_565 S
C2602 H2593 0.930 . S
C2602 C2600 1.384 . S
C2602 C2603 1.372 . S
C2603 C2602 1.372 . S
C2603 C2604 1.400 1_565 S
C2603 C2608 1.490 . S
C2604 H2594 0.930 . S
C2604 C2603 1.400 1_545 S
C2604 C2607 1.386 . S
H2605 C2621 0.930 . S
H2606 C2622 0.931 . S
C2607 H2595 0.929 . S
C2607 C2601 1.390 1_545 S
C2607 C2604 1.386 . S
C2608 C2603 1.490 . S
C2608 C2610 1.395 . S
C2608 C2611 1.403 1_565 S
H2609 C2615 0.930 . S
C2610 H2596 0.930 . S
C2610 C2608 1.395 . S
C2610 C2613 1.403 . S
C2611 C2608 1.403 1_545 S
C2611 C2612 1.524 . S
C2611 C2615 1.400 . S
C2612 H2597 0.960 . S
C2612 H2598 0.960 . S
C2612 H2599 0.960 . S
C2612 C2611 1.524 . S
C2613 C2610 1.403 . S
C2613 C2614 1.392 . S
C2613 C2617 1.495 . S
C2614 C2613 1.392 . S
C2614 C2615 1.385 1_565 S
C2614 C2616 1.478 . S
C2615 H2609 0.930 . S
C2615 C2611 1.400 . S
C2615 C2614 1.385 1_545 S
C2616 C2614 1.478 . S
C2616 C2618 1.381 . S
C2616 C2622 1.383 1_565 S
C2617 C2613 1.495 . S
C2617 H2623 0.959 . S
C2617 H2624 0.961 . S
C2617 H2625 0.960 . S
C2618 C2616 1.381 . S
C2618 C2619 1.394 . S
C2618 H2626 0.930 . S
C2619 C2618 1.394 . S
C2619 C2620 1.364 1_565 S
C2619 H2627 0.929 . S
C2620 C2619 1.364 1_545 S
C2620 C2621 1.395 . S
C2621 H2605 0.930 . S
C2621 C2620 1.395 . S
C2621 C2622 1.379 . S
C2622 H2606 0.931 . S
C2622 C2616 1.383 1_545 S
C2622 C2621 1.379 . S
H2623 C2617 0.959 . S
H2624 C2617 0.961 . S
H2625 C2617 0.960 . S
H2626 C2618 0.930 . S
H2627 C2619 0.929 . S
H2628 C2636 0.929 . S
H2629 C2638 0.930 . S
H2630 C2640 0.930 . S
H2631 C2643 0.929 . S
H2632 C2646 0.930 . S
H2633 C2648 0.960 . S
H2634 C2648 0.960 . S
H2635 C2648 0.960 . S
C2636 H2628 0.929 . S
C2636 C2637 1.377 . S
C2636 C2638 1.384 . S
C2637 C2636 1.377 . S
C2637 C2643 1.390 1_455 S
C2638 H2629 0.930 . S
C2638 C2636 1.384 . S
C2638 C2639 1.391 . S
C2639 C2638 1.391 . S
C2639 C2640 1.381 1_455 S
C2639 C2644 1.491 . S
C2640 H2630 0.930 . S
C2640 C2639 1.381 1_655 S
C2640 C2643 1.386 . S
H2641 C2657 0.937 . S
H2642 C2658 0.931 . S
C2643 H2631 0.929 . S
C2643 C2637 1.390 1_655 S
C2643 C2640 1.386 . S
C2644 C2639 1.491 . S
C2644 C2646 1.395 . S
C2644 C2647 1.403 1_455 S
H2645 C2651 0.930 . S
C2646 H2632 0.930 . S
C2646 C2644 1.395 . S
C2646 C2649 1.403 . S
C2647 C2644 1.403 1_655 S
C2647 C2648 1.524 . S
C2647 C2651 1.400 . S
C2648 H2633 0.960 . S
C2648 H2634 0.960 . S
C2648 H2635 0.960 . S
C2648 C2647 1.524 . S
C2649 C2646 1.403 . S
C2649 C2650 1.392 . S
C2649 C2653 1.495 . S
C2650 C2649 1.392 . S
C2650 C2651 1.385 1_455 S
C2650 C2652 1.478 . S
C2651 H2645 0.930 . S
C2651 C2647 1.400 . S
C2651 C2650 1.385 1_655 S
C2652 C2650 1.478 . S
C2652 C2654 1.381 . S
C2652 C2658 1.383 . S
C2653 C2649 1.495 . S
C2653 H2659 0.959 . S
C2653 H2660 0.961 . S
C2653 H2661 0.960 . S
C2654 C2652 1.381 . S
C2654 C2655 1.394 . S
C2654 H2662 0.930 . S
C2655 C2654 1.394 . S
C2655 C2656 1.398 . S
C2655 H2663 0.929 . S
C2656 C2655 1.398 . S
C2656 C2657 1.365 . S
C2657 H2641 0.937 . S
C2657 C2656 1.365 . S
C2657 C2658 1.379 . S
C2658 H2642 0.931 . S
C2658 C2652 1.383 . S
C2658 C2657 1.379 . S
H2659 C2653 0.959 . S
H2660 C2653 0.961 . S
H2661 C2653 0.960 . S
H2662 C2654 0.930 . S
H2663 C2655 0.929 . S
H2664 C2672 0.929 . S
H2665 C2674 0.930 . S
H2666 C2676 0.930 . S
H2667 C2679 0.929 . S
H2668 C2682 0.930 . S
H2669 C2684 0.960 . S
H2670 C2684 0.960 . S
H2671 C2684 0.960 . S
C2672 H2664 0.929 . S
C2672 C2673 1.377 . S
C2672 C2674 1.384 . S
C2673 C2672 1.377 . S
C2673 C2679 1.390 . S
C2674 H2665 0.930 . S
C2674 C2672 1.384 . S
C2674 C2675 1.372 . S
C2675 C2674 1.372 . S
C2675 C2676 1.400 . S
C2675 C2680 1.490 . S
C2676 H2666 0.930 . S
C2676 C2675 1.400 . S
C2676 C2679 1.386 . S
H2677 C2693 0.930 . S
H2678 C2694 0.931 . S
C2679 H2667 0.929 . S
C2679 C2673 1.390 . S
C2679 C2676 1.386 . S
C2680 C2675 1.490 . S
C2680 C2682 1.395 . S
C2680 C2683 1.403 . S
H2681 C2687 0.930 . S
C2682 H2668 0.930 . S
C2682 C2680 1.395 . S
C2682 C2685 1.403 . S
C2683 C2680 1.403 . S
C2683 C2684 1.524 . S
C2683 C2687 1.400 . S
C2684 H2669 0.960 . S
C2684 H2670 0.960 . S
C2684 H2671 0.960 . S
C2684 C2683 1.524 . S
C2685 C2682 1.403 . S
C2685 C2686 1.392 . S
C2685 C2689 1.495 . S
C2686 C2685 1.392 . S
C2686 C2687 1.385 . S
C2686 C2688 1.478 . S
C2687 H2681 0.930 . S
C2687 C2683 1.400 . S
C2687 C2686 1.385 . S
C2688 C2686 1.478 . S
C2688 C2690 1.381 . S
C2688 C2694 1.383 . S
C2689 C2685 1.495 . S
C2689 H2695 0.959 . S
C2689 H2696 0.961 . S
C2689 H2697 0.960 . S
C2690 C2688 1.381 . S
C2690 C2691 1.394 . S
C2690 H2698 0.930 . S
C2691 C2690 1.394 . S
C2691 C2692 1.383 . S
C2691 H2699 0.929 . S
C2692 C2691 1.383 . S
C2692 C2693 1.377 . S
C2693 H2677 0.930 . S
C2693 C2692 1.377 . S
C2693 C2694 1.379 . S
C2694 H2678 0.931 . S
C2694 C2688 1.383 . S
C2694 C2693 1.379 . S
H2695 C2689 0.959 . S
H2696 C2689 0.961 . S
H2697 C2689 0.960 . S
H2698 C2690 0.930 . S
H2699 C2691 0.929 . S
H2700 C2708 0.929 . S
H2701 C2710 0.930 . S
H2702 C2712 0.930 . S
H2703 C2715 0.929 . S
H2704 C2718 0.930 . S
H2705 C2720 0.960 . S
H2706 C2720 0.960 . S
H2707 C2720 0.960 . S
C2708 H2700 0.929 . S
C2708 C2709 1.377 . S
C2708 C2710 1.384 . S
C2709 C2708 1.377 . S
C2709 C2715 1.390 1_545 S
C2710 H2701 0.930 . S
C2710 C2708 1.384 . S
C2710 C2711 1.372 . S
C2711 C2710 1.372 . S
C2711 C2712 1.400 1_545 S
C2711 C2716 1.490 . S
C2712 H2702 0.930 . S
C2712 C2711 1.400 1_565 S
C2712 C2715 1.386 . S
H2713 C2729 0.930 . S
H2714 C2730 0.931 . S
C2715 H2703 0.929 . S
C2715 C2709 1.390 1_565 S
C2715 C2712 1.386 . S
C2716 C2711 1.490 . S
C2716 C2718 1.395 . S
C2716 C2719 1.403 1_545 S
H2717 C2723 0.930 . S
C2718 H2704 0.930 . S
C2718 C2716 1.395 . S
C2718 C2721 1.403 . S
C2719 C2716 1.403 1_565 S
C2719 C2720 1.524 . S
C2719 C2723 1.400 . S
C2720 H2705 0.960 . S
C2720 H2706 0.960 . S
C2720 H2707 0.960 . S
C2720 C2719 1.524 . S
C2721 C2718 1.403 . S
C2721 C2722 1.392 . S
C2721 C2725 1.495 . S
C2722 C2721 1.392 . S
C2722 C2723 1.385 1_545 S
C2722 C2724 1.478 . S
C2723 H2717 0.930 . S
C2723 C2719 1.400 . S
C2723 C2722 1.385 1_565 S
C2724 C2722 1.478 . S
C2724 C2726 1.381 . S
C2724 C2730 1.383 1_545 S
C2725 C2721 1.495 . S
C2725 H2731 0.959 . S
C2725 H2732 0.961 . S
C2725 H2733 0.960 . S
C2726 C2724 1.381 . S
C2726 C2727 1.394 . S
C2726 H2734 0.930 . S
C2727 C2726 1.394 . S
C2727 C2728 1.366 1_545 S
C2727 H2735 0.929 . S
C2728 C2727 1.366 1_565 S
C2728 C2729 1.394 . S
C2729 H2713 0.930 . S
C2729 C2728 1.394 . S
C2729 C2730 1.379 . S
C2730 H2714 0.931 . S
C2730 C2724 1.383 1_565 S
C2730 C2729 1.379 . S
H2731 C2725 0.959 . S
H2732 C2725 0.961 . S
H2733 C2725 0.960 . S
H2734 C2726 0.930 . S
H2735 C2727 0.929 . S
H2736 C2744 0.929 . S
H2737 C2746 0.930 . S
H2738 C2748 0.930 . S
H2739 C2751 0.929 . S
H2740 C2754 0.930 . S
H2741 C2756 0.960 . S
H2742 C2756 0.960 . S
H2743 C2756 0.960 . S
C2744 H2736 0.929 . S
C2744 C2745 1.377 . S
C2744 C2746 1.384 . S
C2745 C2744 1.377 . S
C2745 C2751 1.390 . S
C2746 H2737 0.930 . S
C2746 C2744 1.384 . S
C2746 C2747 1.372 . S
C2747 C2746 1.372 . S
C2747 C2748 1.400 . S
C2747 C2752 1.490 . S
C2748 H2738 0.930 . S
C2748 C2747 1.400 . S
C2748 C2751 1.386 . S
H2749 C2765 0.930 . S
H2750 C2766 0.931 . S
C2751 H2739 0.929 . S
C2751 C2745 1.390 . S
C2751 C2748 1.386 . S
C2752 C2747 1.490 . S
C2752 C2754 1.395 . S
C2752 C2755 1.403 . S
H2753 C2759 0.930 . S
C2754 H2740 0.930 . S
C2754 C2752 1.395 . S
C2754 C2757 1.403 . S
C2755 C2752 1.403 . S
C2755 C2756 1.524 . S
C2755 C2759 1.400 . S
C2756 H2741 0.960 . S
C2756 H2742 0.960 . S
C2756 H2743 0.960 . S
C2756 C2755 1.524 . S
C2757 C2754 1.403 . S
C2757 C2758 1.392 . S
C2757 C2761 1.495 . S
C2758 C2757 1.392 . S
C2758 C2759 1.385 . S
C2758 C2760 1.478 . S
C2759 H2753 0.930 . S
C2759 C2755 1.400 . S
C2759 C2758 1.385 . S
C2760 C2758 1.478 . S
C2760 C2762 1.381 . S
C2760 C2766 1.383 . S
C2761 C2757 1.495 . S
C2761 H2767 0.959 . S
C2761 H2768 0.961 . S
C2761 H2769 0.960 . S
C2762 C2760 1.381 . S
C2762 C2763 1.394 . S
C2762 H2770 0.930 . S
C2763 C2762 1.394 . S
C2763 C2764 1.383 . S
C2763 H2771 0.929 . S
C2764 C2763 1.383 . S
C2764 C2765 1.377 . S
C2765 H2749 0.930 . S
C2765 C2764 1.377 . S
C2765 C2766 1.379 . S
C2766 H2750 0.931 . S
C2766 C2760 1.383 . S
C2766 C2765 1.379 . S
H2767 C2761 0.959 . S
H2768 C2761 0.961 . S
H2769 C2761 0.960 . S
H2770 C2762 0.930 . S
H2771 C2763 0.929 . S
H2772 C2780 0.929 . S
H2773 C2782 0.930 . S
H2774 C2784 0.930 . S
H2775 C2787 0.929 . S
H2776 C2790 0.930 . S
H2777 C2792 0.960 . S
H2778 C2792 0.960 . S
H2779 C2792 0.960 . S
C2780 H2772 0.929 . S
C2780 C2781 1.377 . S
C2780 C2782 1.384 . S
C2781 C2780 1.377 . S
C2781 C2787 1.390 . S
C2782 H2773 0.930 . S
C2782 C2780 1.384 . S
C2782 C2783 1.372 . S
C2783 C2782 1.372 . S
C2783 C2784 1.400 . S
C2783 C2788 1.490 . S
C2784 H2774 0.930 . S
C2784 C2783 1.400 . S
C2784 C2787 1.386 . S
H2785 C2801 0.930 . S
H2786 C2802 0.931 . S
C2787 H2775 0.929 . S
C2787 C2781 1.390 . S
C2787 C2784 1.386 . S
C2788 C2783 1.490 . S
C2788 C2790 1.395 . S
C2788 C2791 1.403 . S
H2789 C2795 0.930 . S
C2790 H2776 0.930 . S
C2790 C2788 1.395 . S
C2790 C2793 1.403 . S
C2791 C2788 1.403 . S
C2791 C2792 1.524 . S
C2791 C2795 1.400 . S
C2792 H2777 0.960 . S
C2792 H2778 0.960 . S
C2792 H2779 0.960 . S
C2792 C2791 1.524 . S
C2793 C2790 1.403 . S
C2793 C2794 1.392 . S
C2793 C2797 1.495 . S
C2794 C2793 1.392 . S
C2794 C2795 1.385 . S
C2794 C2796 1.478 . S
C2795 H2789 0.930 . S
C2795 C2791 1.400 . S
C2795 C2794 1.385 . S
C2796 C2794 1.478 . S
C2796 C2798 1.381 . S
C2796 C2802 1.383 . S
C2797 C2793 1.495 . S
C2797 H2803 0.959 . S
C2797 H2804 0.961 . S
C2797 H2805 0.960 . S
C2798 C2796 1.381 . S
C2798 C2799 1.394 . S
C2798 H2806 0.930 . S
C2799 C2798 1.394 . S
C2799 C2800 1.383 . S
C2799 H2807 0.929 . S
C2800 C2799 1.383 . S
C2800 C2801 1.377 . S
C2801 H2785 0.930 . S
C2801 C2800 1.377 . S
C2801 C2802 1.379 . S
C2802 H2786 0.931 . S
C2802 C2796 1.383 . S
C2802 C2801 1.379 . S
H2803 C2797 0.959 . S
H2804 C2797 0.961 . S
H2805 C2797 0.960 . S
H2806 C2798 0.930 . S
H2807 C2799 0.929 . S
H2808 C2816 0.929 . S
H2809 C2818 0.930 . S
H2810 C2820 0.930 . S
H2811 C2823 0.929 . S
H2812 C2826 0.930 . S
H2813 C2828 0.960 . S
H2814 C2828 0.960 . S
H2815 C2828 0.960 . S
C2816 H2808 0.929 . S
C2816 C2817 1.377 . S
C2816 C2818 1.384 . S
C2817 C2816 1.377 . S
C2817 C2823 1.390 . S
C2818 H2809 0.930 . S
C2818 C2816 1.384 . S
C2818 C2819 1.372 . S
C2819 C2818 1.372 . S
C2819 C2820 1.400 . S
C2819 C2824 1.490 . S
C2820 H2810 0.930 . S
C2820 C2819 1.400 . S
C2820 C2823 1.386 . S
H2821 C2837 0.930 . S
H2822 C2838 0.931 . S
C2823 H2811 0.929 . S
C2823 C2817 1.390 . S
C2823 C2820 1.386 . S
C2824 C2819 1.490 . S
C2824 C2826 1.395 . S
C2824 C2827 1.403 . S
H2825 C2831 0.930 . S
C2826 H2812 0.930 . S
C2826 C2824 1.395 . S
C2826 C2829 1.403 . S
C2827 C2824 1.403 . S
C2827 C2828 1.524 . S
C2827 C2831 1.400 . S
C2828 H2813 0.960 . S
C2828 H2814 0.960 . S
C2828 H2815 0.960 . S
C2828 C2827 1.524 . S
C2829 C2826 1.403 . S
C2829 C2830 1.392 . S
C2829 C2833 1.495 . S
C2830 C2829 1.392 . S
C2830 C2831 1.385 . S
C2830 C2832 1.478 . S
C2831 H2825 0.930 . S
C2831 C2827 1.400 . S
C2831 C2830 1.385 . S
C2832 C2830 1.478 . S
C2832 C2834 1.381 . S
C2832 C2838 1.383 . S
C2833 C2829 1.495 . S
C2833 H2839 0.959 . S
C2833 H2840 0.961 . S
C2833 H2841 0.960 . S
C2834 C2832 1.381 . S
C2834 C2835 1.394 . S
C2834 H2842 0.930 . S
C2835 C2834 1.394 . S
C2835 C2836 1.383 . S
C2835 H2843 0.929 . S
C2836 C2835 1.383 . S
C2836 C2837 1.377 . S
C2837 H2821 0.930 . S
C2837 C2836 1.377 . S
C2837 C2838 1.379 . S
C2838 H2822 0.931 . S
C2838 C2832 1.383 . S
C2838 C2837 1.379 . S
H2839 C2833 0.959 . S
H2840 C2833 0.961 . S
H2841 C2833 0.960 . S
H2842 C2834 0.930 . S
H2843 C2835 0.929 . S
H2844 C2852 0.929 . S
H2845 C2854 0.930 . S
H2846 C2856 0.930 . S
H2847 C2859 0.929 . S
H2848 C2862 0.930 . S
H2849 C2864 0.960 . S
H2850 C2864 0.960 . S
H2851 C2864 0.960 . S
C2852 H2844 0.929 . S
C2852 C2853 1.377 . S
C2852 C2854 1.384 . S
C2853 C2852 1.377 . S
C2853 C2859 1.390 . S
C2854 H2845 0.930 . S
C2854 C2852 1.384 . S
C2854 C2855 1.372 . S
C2855 C2854 1.372 . S
C2855 C2856 1.400 . S
C2855 C2860 1.490 . S
C2856 H2846 0.930 . S
C2856 C2855 1.400 . S
C2856 C2859 1.386 . S
H2857 C2873 0.930 . S
H2858 C2874 0.931 . S
C2859 H2847 0.929 . S
C2859 C2853 1.390 . S
C2859 C2856 1.386 . S
C2860 C2855 1.490 . S
C2860 C2862 1.395 . S
C2860 C2863 1.403 . S
H2861 C2867 0.930 . S
C2862 H2848 0.930 . S
C2862 C2860 1.395 . S
C2862 C2865 1.403 . S
C2863 C2860 1.403 . S
C2863 C2864 1.524 . S
C2863 C2867 1.400 . S
C2864 H2849 0.960 . S
C2864 H2850 0.960 . S
C2864 H2851 0.960 . S
C2864 C2863 1.524 . S
C2865 C2862 1.403 . S
C2865 C2866 1.392 . S
C2865 C2869 1.495 . S
C2866 C2865 1.392 . S
C2866 C2867 1.385 . S
C2866 C2868 1.478 . S
C2867 H2861 0.930 . S
C2867 C2863 1.400 . S
C2867 C2866 1.385 . S
C2868 C2866 1.478 . S
C2868 C2870 1.381 . S
C2868 C2874 1.383 . S
C2869 C2865 1.495 . S
C2869 H2875 0.959 . S
C2869 H2876 0.961 . S
C2869 H2877 0.960 . S
C2870 C2868 1.381 . S
C2870 C2871 1.394 . S
C2870 H2878 0.930 . S
C2871 C2870 1.394 . S
C2871 C2872 1.383 . S
C2871 H2879 0.929 . S
C2872 C2871 1.383 . S
C2872 C2873 1.377 . S
C2873 H2857 0.930 . S
C2873 C2872 1.377 . S
C2873 C2874 1.379 . S
C2874 H2858 0.931 . S
C2874 C2868 1.383 . S
C2874 C2873 1.379 . S
H2875 C2869 0.959 . S
H2876 C2869 0.961 . S
H2877 C2869 0.960 . S
H2878 C2870 0.930 . S
H2879 C2871 0.929 . S
H2880 C2888 0.929 . S
H2881 C2890 0.930 . S
H2882 C2892 0.930 . S
H2883 C2895 0.929 . S
H2884 C2898 0.930 . S
H2885 C2900 0.960 . S
H2886 C2900 0.960 . S
H2887 C2900 0.960 . S
C2888 H2880 0.929 . S
C2888 C2889 1.377 . S
C2888 C2890 1.384 . S
C2889 C2888 1.377 . S
C2889 C2895 1.390 . S
C2890 H2881 0.930 . S
C2890 C2888 1.384 . S
C2890 C2891 1.372 . S
C2891 C2890 1.372 . S
C2891 C2892 1.400 . S
C2891 C2896 1.490 . S
C2892 H2882 0.930 . S
C2892 C2891 1.400 . S
C2892 C2895 1.386 . S
H2893 C2909 0.930 . S
H2894 C2910 0.931 . S
C2895 H2883 0.929 . S
C2895 C2889 1.390 . S
C2895 C2892 1.386 . S
C2896 C2891 1.490 . S
C2896 C2898 1.395 . S
C2896 C2899 1.403 . S
H2897 C2903 0.930 . S
C2898 H2884 0.930 . S
C2898 C2896 1.395 . S
C2898 C2901 1.403 . S
C2899 C2896 1.403 . S
C2899 C2900 1.524 . S
C2899 C2903 1.400 . S
C2900 H2885 0.960 . S
C2900 H2886 0.960 . S
C2900 H2887 0.960 . S
C2900 C2899 1.524 . S
C2901 C2898 1.403 . S
C2901 C2902 1.392 . S
C2901 C2905 1.495 . S
C2902 C2901 1.392 . S
C2902 C2903 1.385 . S
C2902 C2904 1.478 . S
C2903 H2897 0.930 . S
C2903 C2899 1.400 . S
C2903 C2902 1.385 . S
C2904 C2902 1.478 . S
C2904 C2906 1.381 . S
C2904 C2910 1.383 . S
C2905 C2901 1.495 . S
C2905 H2911 0.959 . S
C2905 H2912 0.961 . S
C2905 H2913 0.960 . S
C2906 C2904 1.381 . S
C2906 C2907 1.394 . S
C2906 H2914 0.930 . S
C2907 C2906 1.394 . S
C2907 C2908 1.383 . S
C2907 H2915 0.929 . S
C2908 C2907 1.383 . S
C2908 C2909 1.377 . S
C2909 H2893 0.930 . S
C2909 C2908 1.377 . S
C2909 C2910 1.379 . S
C2910 H2894 0.931 . S
C2910 C2904 1.383 . S
C2910 C2909 1.379 . S
H2911 C2905 0.959 . S
H2912 C2905 0.961 . S
H2913 C2905 0.960 . S
H2914 C2906 0.930 . S
H2915 C2907 0.929 . S
H2916 C2924 0.929 . S
H2917 C2926 0.930 . S
H2918 C2928 0.930 . S
H2919 C2931 0.929 . S
H2920 C2934 0.930 . S
H2921 C2936 0.960 . S
H2922 C2936 0.960 . S
H2923 C2936 0.960 . S
C2924 H2916 0.929 . S
C2924 C2925 1.377 . S
C2924 C2926 1.384 . S
C2925 C2924 1.377 . S
C2925 C2931 1.390 . S
C2926 H2917 0.930 . S
C2926 C2924 1.384 . S
C2926 C2927 1.372 . S
C2927 C2926 1.372 . S
C2927 C2928 1.400 . S
C2927 C2932 1.490 . S
C2928 H2918 0.930 . S
C2928 C2927 1.400 . S
C2928 C2931 1.386 . S
H2929 C2945 0.930 . S
H2930 C2946 0.931 . S
C2931 H2919 0.929 . S
C2931 C2925 1.390 . S
C2931 C2928 1.386 . S
C2932 C2927 1.490 . S
C2932 C2934 1.395 . S
C2932 C2935 1.403 . S
H2933 C2939 0.930 . S
C2934 H2920 0.930 . S
C2934 C2932 1.395 . S
C2934 C2937 1.403 . S
C2935 C2932 1.403 . S
C2935 C2936 1.524 . S
C2935 C2939 1.400 . S
C2936 H2921 0.960 . S
C2936 H2922 0.960 . S
C2936 H2923 0.960 . S
C2936 C2935 1.524 . S
C2937 C2934 1.403 . S
C2937 C2938 1.392 . S
C2937 C2941 1.495 . S
C2938 C2937 1.392 . S
C2938 C2939 1.385 . S
C2938 C2940 1.478 . S
C2939 H2933 0.930 . S
C2939 C2935 1.400 . S
C2939 C2938 1.385 . S
C2940 C2938 1.478 . S
C2940 C2942 1.381 . S
C2940 C2946 1.383 . S
C2941 C2937 1.495 . S
C2941 H2947 0.959 . S
C2941 H2948 0.961 . S
C2941 H2949 0.960 . S
C2942 C2940 1.381 . S
C2942 C2943 1.394 . S
C2942 H2950 0.930 . S
C2943 C2942 1.394 . S
C2943 C2944 1.383 . S
C2943 H2951 0.929 . S
C2944 C2943 1.383 . S
C2944 C2945 1.377 . S
C2945 H2929 0.930 . S
C2945 C2944 1.377 . S
C2945 C2946 1.379 . S
C2946 H2930 0.931 . S
C2946 C2940 1.383 . S
C2946 C2945 1.379 . S
H2947 C2941 0.959 . S
H2948 C2941 0.961 . S
H2949 C2941 0.960 . S
H2950 C2942 0.930 . S
H2951 C2943 0.929 . S
H2952 C2960 0.929 . S
H2953 C2962 0.930 . S
H2954 C2964 0.930 . S
H2955 C2967 0.929 . S
H2956 C2970 0.930 . S
H2957 C2972 0.960 . S
H2958 C2972 0.960 . S
H2959 C2972 0.960 . S
C2960 H2952 0.929 . S
C2960 C2961 1.377 . S
C2960 C2962 1.384 . S
C2961 C2960 1.377 . S
C2961 C2967 1.390 . S
C2962 H2953 0.930 . S
C2962 C2960 1.384 . S
C2962 C2963 1.372 . S
C2963 C2962 1.372 . S
C2963 C2964 1.400 . S
C2963 C2968 1.490 . S
C2964 H2954 0.930 . S
C2964 C2963 1.400 . S
C2964 C2967 1.386 . S
H2965 C2981 0.930 . S
H2966 C2982 0.931 . S
C2967 H2955 0.929 . S
C2967 C2961 1.390 . S
C2967 C2964 1.386 . S
C2968 C2963 1.490 . S
C2968 C2970 1.395 . S
C2968 C2971 1.403 . S
H2969 C2975 0.930 . S
C2970 H2956 0.930 . S
C2970 C2968 1.395 . S
C2970 C2973 1.403 . S
C2971 C2968 1.403 . S
C2971 C2972 1.524 . S
C2971 C2975 1.400 . S
C2972 H2957 0.960 . S
C2972 H2958 0.960 . S
C2972 H2959 0.960 . S
C2972 C2971 1.524 . S
C2973 C2970 1.403 . S
C2973 C2974 1.392 . S
C2973 C2977 1.495 . S
C2974 C2973 1.392 . S
C2974 C2975 1.385 . S
C2974 C2976 1.478 . S
C2975 H2969 0.930 . S
C2975 C2971 1.400 . S
C2975 C2974 1.385 . S
C2976 C2974 1.478 . S
C2976 C2978 1.381 . S
C2976 C2982 1.383 . S
C2977 C2973 1.495 . S
C2977 H2983 0.959 . S
C2977 H2984 0.961 . S
C2977 H2985 0.960 . S
C2978 C2976 1.381 . S
C2978 C2979 1.394 . S
C2978 H2986 0.930 . S
C2979 C2978 1.394 . S
C2979 C2980 1.383 . S
C2979 H2987 0.929 . S
C2980 C2979 1.383 . S
C2980 C2981 1.377 . S
C2981 H2965 0.930 . S
C2981 C2980 1.377 . S
C2981 C2982 1.379 . S
C2982 H2966 0.931 . S
C2982 C2976 1.383 . S
C2982 C2981 1.379 . S
H2983 C2977 0.959 . S
H2984 C2977 0.961 . S
H2985 C2977 0.960 . S
H2986 C2978 0.930 . S
H2987 C2979 0.929 . S
H2988 C2996 0.929 . S
H2989 C2998 0.930 . S
H2990 C3000 0.930 . S
H2991 C3003 0.929 . S
H2992 C3006 0.930 . S
H2993 C3008 0.960 . S
H2994 C3008 0.960 . S
H2995 C3008 0.960 . S
C2996 H2988 0.929 . S
C2996 C2997 1.377 . S
C2996 C2998 1.384 . S
C2997 C2996 1.377 . S
C2997 C3003 1.390 . S
C2998 H2989 0.930 . S
C2998 C2996 1.384 . S
C2998 C2999 1.372 . S
C2999 C2998 1.372 . S
C2999 C3000 1.400 . S
C2999 C3004 1.490 . S
C3000 H2990 0.930 . S
C3000 C2999 1.400 . S
C3000 C3003 1.386 . S
H3001 C3017 0.930 . S
H3002 C3018 0.931 . S
C3003 H2991 0.929 . S
C3003 C2997 1.390 . S
C3003 C3000 1.386 . S
C3004 C2999 1.490 . S
C3004 C3006 1.395 . S
C3004 C3007 1.403 . S
H3005 C3011 0.930 . S
C3006 H2992 0.930 . S
C3006 C3004 1.395 . S
C3006 C3009 1.403 . S
C3007 C3004 1.403 . S
C3007 C3008 1.524 . S
C3007 C3011 1.400 . S
C3008 H2993 0.960 . S
C3008 H2994 0.960 . S
C3008 H2995 0.960 . S
C3008 C3007 1.524 . S
C3009 C3006 1.403 . S
C3009 C3010 1.392 . S
C3009 C3013 1.495 . S
C3010 C3009 1.392 . S
C3010 C3011 1.385 . S
C3010 C3012 1.478 . S
C3011 H3005 0.930 . S
C3011 C3007 1.400 . S
C3011 C3010 1.385 . S
C3012 C3010 1.478 . S
C3012 C3014 1.381 . S
C3012 C3018 1.383 . S
C3013 C3009 1.495 . S
C3013 H3019 0.959 . S
C3013 H3020 0.961 . S
C3013 H3021 0.960 . S
C3014 C3012 1.381 . S
C3014 C3015 1.394 . S
C3014 H3022 0.930 . S
C3015 C3014 1.394 . S
C3015 C3016 1.383 . S
C3015 H3023 0.929 . S
C3016 C3015 1.383 . S
C3016 C3017 1.377 . S
C3017 H3001 0.930 . S
C3017 C3016 1.377 . S
C3017 C3018 1.379 . S
C3018 H3002 0.931 . S
C3018 C3012 1.383 . S
C3018 C3017 1.379 . S
H3019 C3013 0.959 . S
H3020 C3013 0.961 . S
H3021 C3013 0.960 . S
H3022 C3014 0.930 . S
H3023 C3015 0.929 . S
H3024 C3032 0.929 . S
H3025 C3034 0.930 . S
H3026 C3036 0.930 . S
H3027 C3039 0.929 . S
H3028 C3042 0.930 . S
H3029 C3044 0.960 . S
H3030 C3044 0.960 . S
H3031 C3044 0.960 . S
C3032 H3024 0.929 . S
C3032 C3033 1.377 . S
C3032 C3034 1.384 . S
C3033 C3032 1.377 . S
C3033 C3039 1.390 . S
C3034 H3025 0.930 . S
C3034 C3032 1.384 . S
C3034 C3035 1.372 . S
C3035 C3034 1.372 . S
C3035 C3036 1.400 . S
C3035 C3040 1.490 . S
C3036 H3026 0.930 . S
C3036 C3035 1.400 . S
C3036 C3039 1.386 . S
H3037 C3053 0.930 . S
H3038 C3054 0.931 . S
C3039 H3027 0.929 . S
C3039 C3033 1.390 . S
C3039 C3036 1.386 . S
C3040 C3035 1.490 . S
C3040 C3042 1.395 . S
C3040 C3043 1.403 . S
H3041 C3047 0.930 . S
C3042 H3028 0.930 . S
C3042 C3040 1.395 . S
C3042 C3045 1.403 . S
C3043 C3040 1.403 . S
C3043 C3044 1.524 . S
C3043 C3047 1.400 . S
C3044 H3029 0.960 . S
C3044 H3030 0.960 . S
C3044 H3031 0.960 . S
C3044 C3043 1.524 . S
C3045 C3042 1.403 . S
C3045 C3046 1.392 . S
C3045 C3049 1.495 . S
C3046 C3045 1.392 . S
C3046 C3047 1.385 . S
C3046 C3048 1.478 . S
C3047 H3041 0.930 . S
C3047 C3043 1.400 . S
C3047 C3046 1.385 . S
C3048 C3046 1.478 . S
C3048 C3050 1.381 . S
C3048 C3054 1.383 . S
C3049 C3045 1.495 . S
C3049 H3055 0.959 . S
C3049 H3056 0.961 . S
C3049 H3057 0.960 . S
C3050 C3048 1.381 . S
C3050 C3051 1.394 . S
C3050 H3058 0.930 . S
C3051 C3050 1.394 . S
C3051 C3052 1.383 . S
C3051 H3059 0.929 . S
C3052 C3051 1.383 . S
C3052 C3053 1.377 . S
C3053 H3037 0.930 . S
C3053 C3052 1.377 . S
C3053 C3054 1.379 . S
C3054 H3038 0.931 . S
C3054 C3048 1.383 . S
C3054 C3053 1.379 . S
H3055 C3049 0.959 . S
H3056 C3049 0.961 . S
H3057 C3049 0.960 . S
H3058 C3050 0.930 . S
H3059 C3051 0.929 . S
H3060 C3068 0.929 . S
H3061 C3070 0.930 . S
H3062 C3072 0.930 . S
H3063 C3075 0.929 . S
H3064 C3078 0.930 . S
H3065 C3080 0.960 . S
H3066 C3080 0.960 . S
H3067 C3080 0.960 . S
C3068 H3060 0.929 . S
C3068 C3069 1.377 . S
C3068 C3070 1.384 . S
C3069 C3068 1.377 . S
C3069 C3075 1.390 . S
C3070 H3061 0.930 . S
C3070 C3068 1.384 . S
C3070 C3071 1.372 . S
C3071 C3070 1.372 . S
C3071 C3072 1.400 . S
C3071 C3076 1.490 . S
C3072 H3062 0.930 . S
C3072 C3071 1.400 . S
C3072 C3075 1.386 . S
H3073 C3089 0.930 . S
H3074 C3090 0.931 . S
C3075 H3063 0.929 . S
C3075 C3069 1.390 . S
C3075 C3072 1.386 . S
C3076 C3071 1.490 . S
C3076 C3078 1.395 . S
C3076 C3079 1.403 . S
H3077 C3083 0.930 . S
C3078 H3064 0.930 . S
C3078 C3076 1.395 . S
C3078 C3081 1.403 . S
C3079 C3076 1.403 . S
C3079 C3080 1.524 . S
C3079 C3083 1.400 . S
C3080 H3065 0.960 . S
C3080 H3066 0.960 . S
C3080 H3067 0.960 . S
C3080 C3079 1.524 . S
C3081 C3078 1.403 . S
C3081 C3082 1.392 . S
C3081 C3085 1.495 . S
C3082 C3081 1.392 . S
C3082 C3083 1.385 . S
C3082 C3084 1.478 . S
C3083 H3077 0.930 . S
C3083 C3079 1.400 . S
C3083 C3082 1.385 . S
C3084 C3082 1.478 . S
C3084 C3086 1.381 . S
C3084 C3090 1.383 . S
C3085 C3081 1.495 . S
C3085 H3091 0.959 . S
C3085 H3092 0.961 . S
C3085 H3093 0.960 . S
C3086 C3084 1.381 . S
C3086 C3087 1.394 . S
C3086 H3094 0.930 . S
C3087 C3086 1.394 . S
C3087 C3088 1.383 . S
C3087 H3095 0.929 . S
C3088 C3087 1.383 . S
C3088 C3089 1.377 . S
C3089 H3073 0.930 . S
C3089 C3088 1.377 . S
C3089 C3090 1.379 . S
C3090 H3074 0.931 . S
C3090 C3084 1.383 . S
C3090 C3089 1.379 . S
H3091 C3085 0.959 . S
H3092 C3085 0.961 . S
H3093 C3085 0.960 . S
H3094 C3086 0.930 . S
H3095 C3087 0.929 . S
H3096 C3104 0.929 . S
H3097 C3106 0.930 . S
H3098 C3108 0.930 . S
H3099 C3111 0.929 . S
H3100 C3114 0.930 . S
H3101 C3116 0.960 . S
H3102 C3116 0.960 . S
H3103 C3116 0.960 . S
C3104 H3096 0.929 . S
C3104 C3105 1.377 . S
C3104 C3106 1.384 . S
C3105 C3104 1.377 . S
C3105 C3111 1.390 . S
C3106 H3097 0.930 . S
C3106 C3104 1.384 . S
C3106 C3107 1.372 . S
C3107 C3106 1.372 . S
C3107 C3108 1.400 . S
C3107 C3112 1.490 . S
C3108 H3098 0.930 . S
C3108 C3107 1.400 . S
C3108 C3111 1.386 . S
H3109 C3125 0.930 . S
H3110 C3126 0.931 . S
C3111 H3099 0.929 . S
C3111 C3105 1.390 . S
C3111 C3108 1.386 . S
C3112 C3107 1.490 . S
C3112 C3114 1.395 . S
C3112 C3115 1.403 . S
H3113 C3119 0.930 . S
C3114 H3100 0.930 . S
C3114 C3112 1.395 . S
C3114 C3117 1.403 . S
C3115 C3112 1.403 . S
C3115 C3116 1.524 . S
C3115 C3119 1.400 . S
C3116 H3101 0.960 . S
C3116 H3102 0.960 . S
C3116 H3103 0.960 . S
C3116 C3115 1.524 . S
C3117 C3114 1.403 . S
C3117 C3118 1.392 . S
C3117 C3121 1.495 . S
C3118 C3117 1.392 . S
C3118 C3119 1.385 . S
C3118 C3120 1.478 . S
C3119 H3113 0.930 . S
C3119 C3115 1.400 . S
C3119 C3118 1.385 . S
C3120 C3118 1.478 . S
C3120 C3122 1.381 . S
C3120 C3126 1.383 . S
C3121 C3117 1.495 . S
C3121 H3127 0.959 . S
C3121 H3128 0.961 . S
C3121 H3129 0.960 . S
C3122 C3120 1.381 . S
C3122 C3123 1.394 . S
C3122 H3130 0.930 . S
C3123 C3122 1.394 . S
C3123 C3124 1.383 . S
C3123 H3131 0.929 . S
C3124 C3123 1.383 . S
C3124 C3125 1.377 . S
C3125 H3109 0.930 . S
C3125 C3124 1.377 . S
C3125 C3126 1.379 . S
C3126 H3110 0.931 . S
C3126 C3120 1.383 . S
C3126 C3125 1.379 . S
H3127 C3121 0.959 . S
H3128 C3121 0.961 . S
H3129 C3121 0.960 . S
H3130 C3122 0.930 . S
H3131 C3123 0.929 . S
H3132 C3140 0.929 . S
H3133 C3142 0.930 . S
H3134 C3144 0.930 . S
H3135 C3147 0.929 . S
H3136 C3150 0.930 . S
H3137 C3152 0.960 . S
H3138 C3152 0.960 . S
H3139 C3152 0.960 . S
C3140 H3132 0.929 . S
C3140 C3141 1.377 . S
C3140 C3142 1.384 . S
C3141 C3140 1.377 . S
C3141 C3147 1.390 . S
C3142 H3133 0.930 . S
C3142 C3140 1.384 . S
C3142 C3143 1.372 . S
C3143 C3142 1.372 . S
C3143 C3144 1.400 . S
C3143 C3148 1.490 . S
C3144 H3134 0.930 . S
C3144 C3143 1.400 . S
C3144 C3147 1.386 . S
H3145 C3161 0.930 . S
H3146 C3162 0.931 . S
C3147 H3135 0.929 . S
C3147 C3141 1.390 . S
C3147 C3144 1.386 . S
C3148 C3143 1.490 . S
C3148 C3150 1.395 . S
C3148 C3151 1.403 . S
H3149 C3155 0.930 . S
C3150 H3136 0.930 . S
C3150 C3148 1.395 . S
C3150 C3153 1.403 . S
C3151 C3148 1.403 . S
C3151 C3152 1.524 . S
C3151 C3155 1.400 . S
C3152 H3137 0.960 . S
C3152 H3138 0.960 . S
C3152 H3139 0.960 . S
C3152 C3151 1.524 . S
C3153 C3150 1.403 . S
C3153 C3154 1.392 . S
C3153 C3157 1.495 . S
C3154 C3153 1.392 . S
C3154 C3155 1.385 . S
C3154 C3156 1.478 . S
C3155 H3149 0.930 . S
C3155 C3151 1.400 . S
C3155 C3154 1.385 . S
C3156 C3154 1.478 . S
C3156 C3158 1.381 . S
C3156 C3162 1.383 . S
C3157 C3153 1.495 . S
C3157 H3163 0.959 . S
C3157 H3164 0.961 . S
C3157 H3165 0.960 . S
C3158 C3156 1.381 . S
C3158 C3159 1.394 . S
C3158 H3166 0.930 . S
C3159 C3158 1.394 . S
C3159 C3160 1.383 . S
C3159 H3167 0.929 . S
C3160 C3159 1.383 . S
C3160 C3161 1.377 . S
C3161 H3145 0.930 . S
C3161 C3160 1.377 . S
C3161 C3162 1.379 . S
C3162 H3146 0.931 . S
C3162 C3156 1.383 . S
C3162 C3161 1.379 . S
H3163 C3157 0.959 . S
H3164 C3157 0.961 . S
H3165 C3157 0.960 . S
H3166 C3158 0.930 . S
H3167 C3159 0.929 . S
H3168 C3176 0.929 . S
H3169 C3178 0.930 . S
H3170 C3180 0.930 . S
H3171 C3183 0.929 . S
H3172 C3186 0.930 . S
H3173 C3188 0.960 . S
H3174 C3188 0.960 . S
H3175 C3188 0.960 . S
C3176 H3168 0.929 . S
C3176 C3177 1.377 . S
C3176 C3178 1.384 . S
C3177 C3176 1.377 . S
C3177 C3183 1.390 . S
C3178 H3169 0.930 . S
C3178 C3176 1.384 . S
C3178 C3179 1.372 . S
C3179 C3178 1.372 . S
C3179 C3180 1.400 . S
C3179 C3184 1.490 . S
C3180 H3170 0.930 . S
C3180 C3179 1.400 . S
C3180 C3183 1.386 . S
H3181 C3197 0.930 . S
H3182 C3198 0.931 . S
C3183 H3171 0.929 . S
C3183 C3177 1.390 . S
C3183 C3180 1.386 . S
C3184 C3179 1.490 . S
C3184 C3186 1.395 . S
C3184 C3187 1.403 . S
H3185 C3191 0.930 . S
C3186 H3172 0.930 . S
C3186 C3184 1.395 . S
C3186 C3189 1.403 . S
C3187 C3184 1.403 . S
C3187 C3188 1.524 . S
C3187 C3191 1.400 . S
C3188 H3173 0.960 . S
C3188 H3174 0.960 . S
C3188 H3175 0.960 . S
C3188 C3187 1.524 . S
C3189 C3186 1.403 . S
C3189 C3190 1.392 . S
C3189 C3193 1.495 . S
C3190 C3189 1.392 . S
C3190 C3191 1.385 . S
C3190 C3192 1.478 . S
C3191 H3185 0.930 . S
C3191 C3187 1.400 . S
C3191 C3190 1.385 . S
C3192 C3190 1.478 . S
C3192 C3194 1.381 . S
C3192 C3198 1.383 . S
C3193 C3189 1.495 . S
C3193 H3199 0.959 . S
C3193 H3200 0.961 . S
C3193 H3201 0.960 . S
C3194 C3192 1.381 . S
C3194 C3195 1.394 . S
C3194 H3202 0.930 . S
C3195 C3194 1.394 . S
C3195 C3196 1.383 . S
C3195 H3203 0.929 . S
C3196 C3195 1.383 . S
C3196 C3197 1.377 . S
C3197 H3181 0.930 . S
C3197 C3196 1.377 . S
C3197 C3198 1.379 . S
C3198 H3182 0.931 . S
C3198 C3192 1.383 . S
C3198 C3197 1.379 . S
H3199 C3193 0.959 . S
H3200 C3193 0.961 . S
H3201 C3193 0.960 . S
H3202 C3194 0.930 . S
H3203 C3195 0.929 . S
H3204 C3212 0.929 . S
H3205 C3214 0.930 . S
H3206 C3216 0.930 . S
H3207 C3219 0.929 . S
H3208 C3222 0.930 . S
H3209 C3224 0.960 . S
H3210 C3224 0.960 . S
H3211 C3224 0.960 . S
C3212 H3204 0.929 . S
C3212 C3213 1.377 . S
C3212 C3214 1.384 . S
C3213 C3212 1.377 . S
C3213 C3219 1.390 . S
C3214 H3205 0.930 . S
C3214 C3212 1.384 . S
C3214 C3215 1.372 . S
C3215 C3214 1.372 . S
C3215 C3216 1.400 . S
C3215 C3220 1.490 . S
C3216 H3206 0.930 . S
C3216 C3215 1.400 . S
C3216 C3219 1.386 . S
H3217 C3233 0.930 . S
H3218 C3234 0.931 . S
C3219 H3207 0.929 . S
C3219 C3213 1.390 . S
C3219 C3216 1.386 . S
C3220 C3215 1.490 . S
C3220 C3222 1.395 . S
C3220 C3223 1.403 . S
H3221 C3227 0.930 . S
C3222 H3208 0.930 . S
C3222 C3220 1.395 . S
C3222 C3225 1.403 . S
C3223 C3220 1.403 . S
C3223 C3224 1.524 . S
C3223 C3227 1.400 . S
C3224 H3209 0.960 . S
C3224 H3210 0.960 . S
C3224 H3211 0.960 . S
C3224 C3223 1.524 . S
C3225 C3222 1.403 . S
C3225 C3226 1.392 . S
C3225 C3229 1.495 . S
C3226 C3225 1.392 . S
C3226 C3227 1.385 . S
C3226 C3228 1.478 . S
C3227 H3221 0.930 . S
C3227 C3223 1.400 . S
C3227 C3226 1.385 . S
C3228 C3226 1.478 . S
C3228 C3230 1.381 . S
C3228 C3234 1.383 . S
C3229 C3225 1.495 . S
C3229 H3235 0.959 . S
C3229 H3236 0.961 . S
C3229 H3237 0.960 . S
C3230 C3228 1.381 . S
C3230 C3231 1.394 . S
C3230 H3238 0.930 . S
C3231 C3230 1.394 . S
C3231 C3232 1.383 . S
C3231 H3239 0.929 . S
C3232 C3231 1.383 . S
C3232 C3233 1.377 . S
C3233 H3217 0.930 . S
C3233 C3232 1.377 . S
C3233 C3234 1.379 . S
C3234 H3218 0.931 . S
C3234 C3228 1.383 . S
C3234 C3233 1.379 . S
H3235 C3229 0.959 . S
H3236 C3229 0.961 . S
H3237 C3229 0.960 . S
H3238 C3230 0.930 . S
H3239 C3231 0.929 . S
H3240 C3248 0.929 . S
H3241 C3250 0.930 . S
H3242 C3252 0.930 . S
H3243 C3255 0.929 . S
H3244 C3258 0.930 . S
H3245 C3260 0.960 . S
H3246 C3260 0.960 . S
H3247 C3260 0.960 . S
C3248 H3240 0.929 . S
C3248 C3249 1.377 . S
C3248 C3250 1.384 . S
C3249 C3248 1.377 . S
C3249 C3255 1.390 . S
C3250 H3241 0.930 . S
C3250 C3248 1.384 . S
C3250 C3251 1.372 . S
C3251 C3250 1.372 . S
C3251 C3252 1.400 . S
C3251 C3256 1.490 . S
C3252 H3242 0.930 . S
C3252 C3251 1.400 . S
C3252 C3255 1.386 . S
H3253 C3269 0.930 . S
H3254 C3270 0.931 . S
C3255 H3243 0.929 . S
C3255 C3249 1.390 . S
C3255 C3252 1.386 . S
C3256 C3251 1.490 . S
C3256 C3258 1.395 . S
C3256 C3259 1.403 . S
H3257 C3263 0.930 . S
C3258 H3244 0.930 . S
C3258 C3256 1.395 . S
C3258 C3261 1.403 . S
C3259 C3256 1.403 . S
C3259 C3260 1.524 . S
C3259 C3263 1.400 . S
C3260 H3245 0.960 . S
C3260 H3246 0.960 . S
C3260 H3247 0.960 . S
C3260 C3259 1.524 . S
C3261 C3258 1.403 . S
C3261 C3262 1.392 . S
C3261 C3265 1.495 . S
C3262 C3261 1.392 . S
C3262 C3263 1.385 . S
C3262 C3264 1.478 . S
C3263 H3257 0.930 . S
C3263 C3259 1.400 . S
C3263 C3262 1.385 . S
C3264 C3262 1.478 . S
C3264 C3266 1.381 . S
C3264 C3270 1.383 . S
C3265 C3261 1.495 . S
C3265 H3271 0.959 . S
C3265 H3272 0.961 . S
C3265 H3273 0.960 . S
C3266 C3264 1.381 . S
C3266 C3267 1.394 . S
C3266 H3274 0.930 . S
C3267 C3266 1.394 . S
C3267 C3268 1.383 . S
C3267 H3275 0.929 . S
C3268 C3267 1.383 . S
C3268 C3269 1.377 . S
C3269 H3253 0.930 . S
C3269 C3268 1.377 . S
C3269 C3270 1.379 . S
C3270 H3254 0.931 . S
C3270 C3264 1.383 . S
C3270 C3269 1.379 . S
H3271 C3265 0.959 . S
H3272 C3265 0.961 . S
H3273 C3265 0.960 . S
H3274 C3266 0.930 . S
H3275 C3267 0.929 . S
H3276 C3284 0.929 . S
H3277 C3286 0.930 . S
H3278 C3288 0.930 . S
H3279 C3291 0.929 . S
H3280 C3294 0.930 . S
H3281 C3296 0.960 . S
H3282 C3296 0.960 . S
H3283 C3296 0.960 . S
C3284 H3276 0.929 . S
C3284 C3285 1.377 . S
C3284 C3286 1.384 . S
C3285 C3284 1.377 . S
C3285 C3291 1.390 . S
C3286 H3277 0.930 . S
C3286 C3284 1.384 . S
C3286 C3287 1.372 . S
C3287 C3286 1.372 . S
C3287 C3288 1.400 . S
C3287 C3292 1.490 . S
C3288 H3278 0.930 . S
C3288 C3287 1.400 . S
C3288 C3291 1.386 . S
H3289 C3305 0.930 . S
H3290 C3306 0.931 . S
C3291 H3279 0.929 . S
C3291 C3285 1.390 . S
C3291 C3288 1.386 . S
C3292 C3287 1.490 . S
C3292 C3294 1.395 . S
C3292 C3295 1.403 . S
H3293 C3299 0.930 . S
C3294 H3280 0.930 . S
C3294 C3292 1.395 . S
C3294 C3297 1.403 . S
C3295 C3292 1.403 . S
C3295 C3296 1.524 . S
C3295 C3299 1.400 . S
C3296 H3281 0.960 . S
C3296 H3282 0.960 . S
C3296 H3283 0.960 . S
C3296 C3295 1.524 . S
C3297 C3294 1.403 . S
C3297 C3298 1.392 . S
C3297 C3301 1.495 . S
C3298 C3297 1.392 . S
C3298 C3299 1.385 . S
C3298 C3300 1.478 . S
C3299 H3293 0.930 . S
C3299 C3295 1.400 . S
C3299 C3298 1.385 . S
C3300 C3298 1.478 . S
C3300 C3302 1.381 . S
C3300 C3306 1.383 . S
C3301 C3297 1.495 . S
C3301 H3307 0.959 . S
C3301 H3308 0.961 . S
C3301 H3309 0.960 . S
C3302 C3300 1.381 . S
C3302 C3303 1.394 . S
C3302 H3310 0.930 . S
C3303 C3302 1.394 . S
C3303 C3304 1.383 . S
C3303 H3311 0.929 . S
C3304 C3303 1.383 . S
C3304 C3305 1.377 . S
C3305 H3289 0.930 . S
C3305 C3304 1.377 . S
C3305 C3306 1.379 . S
C3306 H3290 0.931 . S
C3306 C3300 1.383 . S
C3306 C3305 1.379 . S
H3307 C3301 0.959 . S
H3308 C3301 0.961 . S
H3309 C3301 0.960 . S
H3310 C3302 0.930 . S
H3311 C3303 0.929 . S
H3312 C3320 0.929 . S
H3313 C3322 0.930 . S
H3314 C3324 0.930 . S
H3315 C3327 0.929 . S
H3316 C3330 0.930 . S
H3317 C3332 0.960 . S
H3318 C3332 0.960 . S
H3319 C3332 0.960 . S
C3320 H3312 0.929 . S
C3320 C3321 1.377 . S
C3320 C3322 1.384 . S
C3321 C3320 1.377 . S
C3321 C3327 1.390 . S
C3322 H3313 0.930 . S
C3322 C3320 1.384 . S
C3322 C3323 1.372 . S
C3323 C3322 1.372 . S
C3323 C3324 1.400 . S
C3323 C3328 1.490 . S
C3324 H3314 0.930 . S
C3324 C3323 1.400 . S
C3324 C3327 1.386 . S
H3325 C3341 0.930 . S
H3326 C3342 0.931 . S
C3327 H3315 0.929 . S
C3327 C3321 1.390 . S
C3327 C3324 1.386 . S
C3328 C3323 1.490 . S
C3328 C3330 1.395 . S
C3328 C3331 1.403 . S
H3329 C3335 0.930 . S
C3330 H3316 0.930 . S
C3330 C3328 1.395 . S
C3330 C3333 1.403 . S
C3331 C3328 1.403 . S
C3331 C3332 1.524 . S
C3331 C3335 1.400 . S
C3332 H3317 0.960 . S
C3332 H3318 0.960 . S
C3332 H3319 0.960 . S
C3332 C3331 1.524 . S
C3333 C3330 1.403 . S
C3333 C3334 1.392 . S
C3333 C3337 1.495 . S
C3334 C3333 1.392 . S
C3334 C3335 1.385 . S
C3334 C3336 1.478 . S
C3335 H3329 0.930 . S
C3335 C3331 1.400 . S
C3335 C3334 1.385 . S
C3336 C3334 1.478 . S
C3336 C3338 1.381 . S
C3336 C3342 1.383 . S
C3337 C3333 1.495 . S
C3337 H3343 0.959 . S
C3337 H3344 0.961 . S
C3337 H3345 0.960 . S
C3338 C3336 1.381 . S
C3338 C3339 1.394 . S
C3338 H3346 0.930 . S
C3339 C3338 1.394 . S
C3339 C3340 1.383 . S
C3339 H3347 0.929 . S
C3340 C3339 1.383 . S
C3340 C3341 1.377 . S
C3341 H3325 0.930 . S
C3341 C3340 1.377 . S
C3341 C3342 1.379 . S
C3342 H3326 0.931 . S
C3342 C3336 1.383 . S
C3342 C3341 1.379 . S
H3343 C3337 0.959 . S
H3344 C3337 0.961 . S
H3345 C3337 0.960 . S
H3346 C3338 0.930 . S
H3347 C3339 0.929 . S
H3348 C3356 0.929 . S
H3349 C3358 0.930 . S
H3350 C3360 0.930 . S
H3351 C3363 0.929 . S
H3352 C3366 0.930 . S
H3353 C3368 0.960 . S
H3354 C3368 0.960 . S
H3355 C3368 0.960 . S
C3356 H3348 0.929 . S
C3356 C3357 1.377 . S
C3356 C3358 1.384 . S
C3357 C3356 1.377 . S
C3357 C3363 1.390 . S
C3358 H3349 0.930 . S
C3358 C3356 1.384 . S
C3358 C3359 1.372 . S
C3359 C3358 1.372 . S
C3359 C3360 1.400 . S
C3359 C3364 1.490 . S
C3360 H3350 0.930 . S
C3360 C3359 1.400 . S
C3360 C3363 1.386 . S
H3361 C3377 0.930 . S
H3362 C3378 0.931 . S
C3363 H3351 0.929 . S
C3363 C3357 1.390 . S
C3363 C3360 1.386 . S
C3364 C3359 1.490 . S
C3364 C3366 1.395 . S
C3364 C3367 1.403 . S
H3365 C3371 0.930 . S
C3366 H3352 0.930 . S
C3366 C3364 1.395 . S
C3366 C3369 1.403 . S
C3367 C3364 1.403 . S
C3367 C3368 1.524 . S
C3367 C3371 1.400 . S
C3368 H3353 0.960 . S
C3368 H3354 0.960 . S
C3368 H3355 0.960 . S
C3368 C3367 1.524 . S
C3369 C3366 1.403 . S
C3369 C3370 1.392 . S
C3369 C3373 1.495 . S
C3370 C3369 1.392 . S
C3370 C3371 1.385 . S
C3370 C3372 1.478 . S
C3371 H3365 0.930 . S
C3371 C3367 1.400 . S
C3371 C3370 1.385 . S
C3372 C3370 1.478 . S
C3372 C3374 1.381 . S
C3372 C3378 1.383 . S
C3373 C3369 1.495 . S
C3373 H3379 0.959 . S
C3373 H3380 0.961 . S
C3373 H3381 0.960 . S
C3374 C3372 1.381 . S
C3374 C3375 1.394 . S
C3374 H3382 0.930 . S
C3375 C3374 1.394 . S
C3375 C3376 1.383 . S
C3375 H3383 0.929 . S
C3376 C3375 1.383 . S
C3376 C3377 1.377 . S
C3377 H3361 0.930 . S
C3377 C3376 1.377 . S
C3377 C3378 1.379 . S
C3378 H3362 0.931 . S
C3378 C3372 1.383 . S
C3378 C3377 1.379 . S
H3379 C3373 0.959 . S
H3380 C3373 0.961 . S
H3381 C3373 0.960 . S
H3382 C3374 0.930 . S
H3383 C3375 0.929 . S
H3384 C3392 0.929 . S
H3385 C3394 0.930 . S
H3386 C3396 0.930 . S
H3387 C3399 0.929 . S
H3388 C3402 0.930 . S
H3389 C3404 0.960 . S
H3390 C3404 0.960 . S
H3391 C3404 0.960 . S
C3392 H3384 0.929 . S
C3392 C3393 1.377 . S
C3392 C3394 1.384 . S
C3393 C3392 1.377 . S
C3393 C3399 1.390 . S
C3394 H3385 0.930 . S
C3394 C3392 1.384 . S
C3394 C3395 1.372 . S
C3395 C3394 1.372 . S
C3395 C3396 1.400 . S
C3395 C3400 1.490 . S
C3396 H3386 0.930 . S
C3396 C3395 1.400 . S
C3396 C3399 1.386 . S
H3397 C3413 0.930 . S
H3398 C3414 0.931 . S
C3399 H3387 0.929 . S
C3399 C3393 1.390 . S
C3399 C3396 1.386 . S
C3400 C3395 1.490 . S
C3400 C3402 1.395 . S
C3400 C3403 1.403 . S
H3401 C3407 0.930 . S
C3402 H3388 0.930 . S
C3402 C3400 1.395 . S
C3402 C3405 1.403 . S
C3403 C3400 1.403 . S
C3403 C3404 1.524 . S
C3403 C3407 1.400 . S
C3404 H3389 0.960 . S
C3404 H3390 0.960 . S
C3404 H3391 0.960 . S
C3404 C3403 1.524 . S
C3405 C3402 1.403 . S
C3405 C3406 1.392 . S
C3405 C3409 1.495 . S
C3406 C3405 1.392 . S
C3406 C3407 1.385 . S
C3406 C3408 1.478 . S
C3407 H3401 0.930 . S
C3407 C3403 1.400 . S
C3407 C3406 1.385 . S
C3408 C3406 1.478 . S
C3408 C3410 1.381 . S
C3408 C3414 1.383 . S
C3409 C3405 1.495 . S
C3409 H3415 0.959 . S
C3409 H3416 0.961 . S
C3409 H3417 0.960 . S
C3410 C3408 1.381 . S
C3410 C3411 1.394 . S
C3410 H3418 0.930 . S
C3411 C3410 1.394 . S
C3411 C3412 1.383 . S
C3411 H3419 0.929 . S
C3412 C3411 1.383 . S
C3412 C3413 1.377 . S
C3413 H3397 0.930 . S
C3413 C3412 1.377 . S
C3413 C3414 1.379 . S
C3414 H3398 0.931 . S
C3414 C3408 1.383 . S
C3414 C3413 1.379 . S
H3415 C3409 0.959 . S
H3416 C3409 0.961 . S
H3417 C3409 0.960 . S
H3418 C3410 0.930 . S
H3419 C3411 0.929 . S
H3420 C3428 0.929 . S
H3421 C3430 0.930 . S
H3422 C3432 0.930 . S
H3423 C3435 0.929 . S
H3424 C3438 0.930 . S
H3425 C3440 0.960 . S
H3426 C3440 0.960 . S
H3427 C3440 0.960 . S
C3428 H3420 0.929 . S
C3428 C3429 1.377 . S
C3428 C3430 1.384 . S
C3429 C3428 1.377 . S
C3429 C3435 1.390 . S
C3430 H3421 0.930 . S
C3430 C3428 1.384 . S
C3430 C3431 1.372 . S
C3431 C3430 1.372 . S
C3431 C3432 1.400 . S
C3431 C3436 1.490 . S
C3432 H3422 0.930 . S
C3432 C3431 1.400 . S
C3432 C3435 1.386 . S
H3433 C3449 0.930 . S
H3434 C3450 0.931 . S
C3435 H3423 0.929 . S
C3435 C3429 1.390 . S
C3435 C3432 1.386 . S
C3436 C3431 1.490 . S
C3436 C3438 1.395 . S
C3436 C3439 1.403 . S
H3437 C3443 0.930 . S
C3438 H3424 0.930 . S
C3438 C3436 1.395 . S
C3438 C3441 1.403 . S
C3439 C3436 1.403 . S
C3439 C3440 1.524 . S
C3439 C3443 1.400 . S
C3440 H3425 0.960 . S
C3440 H3426 0.960 . S
C3440 H3427 0.960 . S
C3440 C3439 1.524 . S
C3441 C3438 1.403 . S
C3441 C3442 1.392 . S
C3441 C3445 1.495 . S
C3442 C3441 1.392 . S
C3442 C3443 1.385 . S
C3442 C3444 1.478 . S
C3443 H3437 0.930 . S
C3443 C3439 1.400 . S
C3443 C3442 1.385 . S
C3444 C3442 1.478 . S
C3444 C3446 1.381 . S
C3444 C3450 1.383 . S
C3445 C3441 1.495 . S
C3445 H3451 0.959 . S
C3445 H3452 0.961 . S
C3445 H3453 0.960 . S
C3446 C3444 1.381 . S
C3446 C3447 1.394 . S
C3446 H3454 0.930 . S
C3447 C3446 1.394 . S
C3447 C3448 1.383 . S
C3447 H3455 0.929 . S
C3448 C3447 1.383 . S
C3448 C3449 1.377 . S
C3449 H3433 0.930 . S
C3449 C3448 1.377 . S
C3449 C3450 1.379 . S
C3450 H3434 0.931 . S
C3450 C3444 1.383 . S
C3450 C3449 1.379 . S
H3451 C3445 0.959 . S
H3452 C3445 0.961 . S
H3453 C3445 0.960 . S
H3454 C3446 0.930 . S
H3455 C3447 0.929 . S
H3456 C3464 0.929 . S
H3457 C3466 0.930 . S
H3458 C3468 0.930 . S
H3459 C3471 0.929 . S
H3460 C3474 0.930 . S
H3461 C3476 0.960 . S
H3462 C3476 0.960 . S
H3463 C3476 0.960 . S
C3464 H3456 0.929 . S
C3464 C3465 1.377 . S
C3464 C3466 1.384 . S
C3465 C3464 1.377 . S
C3465 C3471 1.390 . S
C3466 H3457 0.930 . S
C3466 C3464 1.384 . S
C3466 C3467 1.372 . S
C3467 C3466 1.372 . S
C3467 C3468 1.400 . S
C3467 C3472 1.490 . S
C3468 H3458 0.930 . S
C3468 C3467 1.400 . S
C3468 C3471 1.386 . S
H3469 C3485 0.930 . S
H3470 C3486 0.931 . S
C3471 H3459 0.929 . S
C3471 C3465 1.390 . S
C3471 C3468 1.386 . S
C3472 C3467 1.490 . S
C3472 C3474 1.395 . S
C3472 C3475 1.403 . S
H3473 C3479 0.930 . S
C3474 H3460 0.930 . S
C3474 C3472 1.395 . S
C3474 C3477 1.403 . S
C3475 C3472 1.403 . S
C3475 C3476 1.524 . S
C3475 C3479 1.400 . S
C3476 H3461 0.960 . S
C3476 H3462 0.960 . S
C3476 H3463 0.960 . S
C3476 C3475 1.524 . S
C3477 C3474 1.403 . S
C3477 C3478 1.392 . S
C3477 C3481 1.495 . S
C3478 C3477 1.392 . S
C3478 C3479 1.385 . S
C3478 C3480 1.478 . S
C3479 H3473 0.930 . S
C3479 C3475 1.400 . S
C3479 C3478 1.385 . S
C3480 C3478 1.478 . S
C3480 C3482 1.381 . S
C3480 C3486 1.383 . S
C3481 C3477 1.495 . S
C3481 H3487 0.959 . S
C3481 H3488 0.961 . S
C3481 H3489 0.960 . S
C3482 C3480 1.381 . S
C3482 C3483 1.394 . S
C3482 H3490 0.930 . S
C3483 C3482 1.394 . S
C3483 C3484 1.383 . S
C3483 H3491 0.929 . S
C3484 C3483 1.383 . S
C3484 C3485 1.377 . S
C3485 H3469 0.930 . S
C3485 C3484 1.377 . S
C3485 C3486 1.379 . S
C3486 H3470 0.931 . S
C3486 C3480 1.383 . S
C3486 C3485 1.379 . S
H3487 C3481 0.959 . S
H3488 C3481 0.961 . S
H3489 C3481 0.960 . S
H3490 C3482 0.930 . S
H3491 C3483 0.929 . S
H3492 C3500 0.929 . S
H3493 C3502 0.930 . S
H3494 C3504 0.930 . S
H3495 C3507 0.929 . S
H3496 C3510 0.930 . S
H3497 C3512 0.960 . S
H3498 C3512 0.960 . S
H3499 C3512 0.960 . S
C3500 H3492 0.929 . S
C3500 C3501 1.377 . S
C3500 C3502 1.384 . S
C3501 C3500 1.377 . S
C3501 C3507 1.390 . S
C3502 H3493 0.930 . S
C3502 C3500 1.384 . S
C3502 C3503 1.372 . S
C3503 C3502 1.372 . S
C3503 C3504 1.400 . S
C3503 C3508 1.490 . S
C3504 H3494 0.930 . S
C3504 C3503 1.400 . S
C3504 C3507 1.386 . S
H3505 C3521 0.930 . S
H3506 C3522 0.931 . S
C3507 H3495 0.929 . S
C3507 C3501 1.390 . S
C3507 C3504 1.386 . S
C3508 C3503 1.490 . S
C3508 C3510 1.395 . S
C3508 C3511 1.403 . S
H3509 C3515 0.930 . S
C3510 H3496 0.930 . S
C3510 C3508 1.395 . S
C3510 C3513 1.403 . S
C3511 C3508 1.403 . S
C3511 C3512 1.524 . S
C3511 C3515 1.400 . S
C3512 H3497 0.960 . S
C3512 H3498 0.960 . S
C3512 H3499 0.960 . S
C3512 C3511 1.524 . S
C3513 C3510 1.403 . S
C3513 C3514 1.392 . S
C3513 C3517 1.495 . S
C3514 C3513 1.392 . S
C3514 C3515 1.385 . S
C3514 C3516 1.478 . S
C3515 H3509 0.930 . S
C3515 C3511 1.400 . S
C3515 C3514 1.385 . S
C3516 C3514 1.478 . S
C3516 C3518 1.381 . S
C3516 C3522 1.383 . S
C3517 C3513 1.495 . S
C3517 H3523 0.959 . S
C3517 H3524 0.961 . S
C3517 H3525 0.960 . S
C3518 C3516 1.381 . S
C3518 C3519 1.394 . S
C3518 H3526 0.930 . S
C3519 C3518 1.394 . S
C3519 C3520 1.383 . S
C3519 H3527 0.929 . S
C3520 C3519 1.383 . S
C3520 C3521 1.377 . S
C3521 H3505 0.930 . S
C3521 C3520 1.377 . S
C3521 C3522 1.379 . S
C3522 H3506 0.931 . S
C3522 C3516 1.383 . S
C3522 C3521 1.379 . S
H3523 C3517 0.959 . S
H3524 C3517 0.961 . S
H3525 C3517 0.960 . S
H3526 C3518 0.930 . S
H3527 C3519 0.929 . S
H3528 C3536 0.929 . S
H3529 C3538 0.930 . S
H3530 C3540 0.930 . S
H3531 C3543 0.929 . S
H3532 C3546 0.930 . S
H3533 C3548 0.960 . S
H3534 C3548 0.960 . S
H3535 C3548 0.960 . S
C3536 H3528 0.929 . S
C3536 C3537 1.377 . S
C3536 C3538 1.384 . S
C3537 C3536 1.377 . S
C3537 C3543 1.390 . S
C3538 H3529 0.930 . S
C3538 C3536 1.384 . S
C3538 C3539 1.372 . S
C3539 C3538 1.372 . S
C3539 C3540 1.400 . S
C3539 C3544 1.490 . S
C3540 H3530 0.930 . S
C3540 C3539 1.400 . S
C3540 C3543 1.386 . S
H3541 C3557 0.930 . S
H3542 C3558 0.931 . S
C3543 H3531 0.929 . S
C3543 C3537 1.390 . S
C3543 C3540 1.386 . S
C3544 C3539 1.490 . S
C3544 C3546 1.395 . S
C3544 C3547 1.403 . S
H3545 C3551 0.930 . S
C3546 H3532 0.930 . S
C3546 C3544 1.395 . S
C3546 C3549 1.403 . S
C3547 C3544 1.403 . S
C3547 C3548 1.524 . S
C3547 C3551 1.400 . S
C3548 H3533 0.960 . S
C3548 H3534 0.960 . S
C3548 H3535 0.960 . S
C3548 C3547 1.524 . S
C3549 C3546 1.403 . S
C3549 C3550 1.392 . S
C3549 C3553 1.495 . S
C3550 C3549 1.392 . S
C3550 C3551 1.385 . S
C3550 C3552 1.478 . S
C3551 H3545 0.930 . S
C3551 C3547 1.400 . S
C3551 C3550 1.385 . S
C3552 C3550 1.478 . S
C3552 C3554 1.381 . S
C3552 C3558 1.383 . S
C3553 C3549 1.495 . S
C3553 H3559 0.959 . S
C3553 H3560 0.961 . S
C3553 H3561 0.960 . S
C3554 C3552 1.381 . S
C3554 C3555 1.394 . S
C3554 H3562 0.930 . S
C3555 C3554 1.394 . S
C3555 C3556 1.383 . S
C3555 H3563 0.929 . S
C3556 C3555 1.383 . S
C3556 C3557 1.377 . S
C3557 H3541 0.930 . S
C3557 C3556 1.377 . S
C3557 C3558 1.379 . S
C3558 H3542 0.931 . S
C3558 C3552 1.383 . S
C3558 C3557 1.379 . S
H3559 C3553 0.959 . S
H3560 C3553 0.961 . S
H3561 C3553 0.960 . S
H3562 C3554 0.930 . S
H3563 C3555 0.929 . S
H3564 C3572 0.929 . S
H3565 C3574 0.930 . S
H3566 C3576 0.930 . S
H3567 C3579 0.929 . S
H3568 C3582 0.930 . S
H3569 C3584 0.960 . S
H3570 C3584 0.960 . S
H3571 C3584 0.960 . S
C3572 H3564 0.929 . S
C3572 C3573 1.377 . S
C3572 C3574 1.384 . S
C3573 C3572 1.377 . S
C3573 C3579 1.390 . S
C3574 H3565 0.930 . S
C3574 C3572 1.384 . S
C3574 C3575 1.372 . S
C3575 C3574 1.372 . S
C3575 C3576 1.400 . S
C3575 C3580 1.490 . S
C3576 H3566 0.930 . S
C3576 C3575 1.400 . S
C3576 C3579 1.386 . S
H3577 C3593 0.930 . S
H3578 C3594 0.931 . S
C3579 H3567 0.929 . S
C3579 C3573 1.390 . S
C3579 C3576 1.386 . S
C3580 C3575 1.490 . S
C3580 C3582 1.395 . S
C3580 C3583 1.403 . S
H3581 C3587 0.930 . S
C3582 H3568 0.930 . S
C3582 C3580 1.395 . S
C3582 C3585 1.403 . S
C3583 C3580 1.403 . S
C3583 C3584 1.524 . S
C3583 C3587 1.400 . S
C3584 H3569 0.960 . S
C3584 H3570 0.960 . S
C3584 H3571 0.960 . S
C3584 C3583 1.524 . S
C3585 C3582 1.403 . S
C3585 C3586 1.392 . S
C3585 C3589 1.495 . S
C3586 C3585 1.392 . S
C3586 C3587 1.385 . S
C3586 C3588 1.478 . S
C3587 H3581 0.930 . S
C3587 C3583 1.400 . S
C3587 C3586 1.385 . S
C3588 C3586 1.478 . S
C3588 C3590 1.381 . S
C3588 C3594 1.383 . S
C3589 C3585 1.495 . S
C3589 H3595 0.959 . S
C3589 H3596 0.961 . S
C3589 H3597 0.960 . S
C3590 C3588 1.381 . S
C3590 C3591 1.394 . S
C3590 H3598 0.930 . S
C3591 C3590 1.394 . S
C3591 C3592 1.383 . S
C3591 H3599 0.929 . S
C3592 C3591 1.383 . S
C3592 C3593 1.377 . S
C3593 H3577 0.930 . S
C3593 C3592 1.377 . S
C3593 C3594 1.379 . S
C3594 H3578 0.931 . S
C3594 C3588 1.383 . S
C3594 C3593 1.379 . S
H3595 C3589 0.959 . S
H3596 C3589 0.961 . S
H3597 C3589 0.960 . S
H3598 C3590 0.930 . S
H3599 C3591 0.929 . S
H3600 C3608 0.929 . S
H3601 C3610 0.930 . S
H3602 C3612 0.930 . S
H3603 C3615 0.929 . S
H3604 C3618 0.930 . S
H3605 C3620 0.960 . S
H3606 C3620 0.960 . S
H3607 C3620 0.960 . S
C3608 H3600 0.929 . S
C3608 C3609 1.377 . S
C3608 C3610 1.384 . S
C3609 C3608 1.377 . S
C3609 C3615 1.390 . S
C3610 H3601 0.930 . S
C3610 C3608 1.384 . S
C3610 C3611 1.372 . S
C3611 C3610 1.372 . S
C3611 C3612 1.400 . S
C3611 C3616 1.490 . S
C3612 H3602 0.930 . S
C3612 C3611 1.400 . S
C3612 C3615 1.386 . S
H3613 C3629 0.930 . S
H3614 C3630 0.931 . S
C3615 H3603 0.929 . S
C3615 C3609 1.390 . S
C3615 C3612 1.386 . S
C3616 C3611 1.490 . S
C3616 C3618 1.395 . S
C3616 C3619 1.403 . S
H3617 C3623 0.930 . S
C3618 H3604 0.930 . S
C3618 C3616 1.395 . S
C3618 C3621 1.403 1_455 S
C3619 C3616 1.403 . S
C3619 C3620 1.524 . S
C3619 C3623 1.400 1_455 S
C3620 H3605 0.960 . S
C3620 H3606 0.960 . S
C3620 H3607 0.960 . S
C3620 C3619 1.524 . S
C3621 C3618 1.403 1_655 S
C3621 C3622 1.392 . S
C3621 C3625 1.495 . S
C3622 C3621 1.392 . S
C3622 C3623 1.385 . S
C3622 C3624 1.478 . S
C3623 H3617 0.930 . S
C3623 C3619 1.400 1_655 S
C3623 C3622 1.385 . S
C3624 C3622 1.478 . S
C3624 C3626 1.381 . S
C3624 C3630 1.383 . S
C3625 C3621 1.495 . S
C3625 H3631 0.959 . S
C3625 H3632 0.961 . S
C3625 H3633 0.960 . S
C3626 C3624 1.381 . S
C3626 C3627 1.394 . S
C3626 H3634 0.930 . S
C3627 C3626 1.394 . S
C3627 C3628 1.383 . S
C3627 H3635 0.929 . S
C3628 C3627 1.383 . S
C3628 C3629 1.377 . S
C3629 H3613 0.930 . S
C3629 C3628 1.377 . S
C3629 C3630 1.379 . S
C3630 H3614 0.931 . S
C3630 C3624 1.383 . S
C3630 C3629 1.379 . S
H3631 C3625 0.959 . S
H3632 C3625 0.961 . S
H3633 C3625 0.960 . S
H3634 C3626 0.930 . S
H3635 C3627 0.929 . S
H3636 C3644 0.929 . S
H3637 C3646 0.930 . S
H3638 C3648 0.930 . S
H3639 C3651 0.929 . S
H3640 C3654 0.930 . S
H3641 C3656 0.960 . S
H3642 C3656 0.960 . S
H3643 C3656 0.960 . S
C3644 H3636 0.929 . S
C3644 C3645 1.377 . S
C3644 C3646 1.384 . S
C3645 C3644 1.377 . S
C3645 C3651 1.390 . S
C3646 H3637 0.930 . S
C3646 C3644 1.384 . S
C3646 C3647 1.372 . S
C3647 C3646 1.372 . S
C3647 C3648 1.400 . S
C3647 C3652 1.490 . S
C3648 H3638 0.930 . S
C3648 C3647 1.400 . S
C3648 C3651 1.386 . S
H3649 C3665 0.930 . S
H3650 C3666 0.931 . S
C3651 H3639 0.929 . S
C3651 C3645 1.390 . S
C3651 C3648 1.386 . S
C3652 C3647 1.490 . S
C3652 C3654 1.395 . S
C3652 C3655 1.403 . S
H3653 C3659 0.930 . S
C3654 H3640 0.930 . S
C3654 C3652 1.395 . S
C3654 C3657 1.403 . S
C3655 C3652 1.403 . S
C3655 C3656 1.524 . S
C3655 C3659 1.400 . S
C3656 H3641 0.960 . S
C3656 H3642 0.960 . S
C3656 H3643 0.960 . S
C3656 C3655 1.524 . S
C3657 C3654 1.403 . S
C3657 C3658 1.392 . S
C3657 C3661 1.495 . S
C3658 C3657 1.392 . S
C3658 C3659 1.385 . S
C3658 C3660 1.478 . S
C3659 H3653 0.930 . S
C3659 C3655 1.400 . S
C3659 C3658 1.385 . S
C3660 C3658 1.478 . S
C3660 C3662 1.381 . S
C3660 C3666 1.383 . S
C3661 C3657 1.495 . S
C3661 H3667 0.959 . S
C3661 H3668 0.961 . S
C3661 H3669 0.960 . S
C3662 C3660 1.381 . S
C3662 C3663 1.394 . S
C3662 H3670 0.930 . S
C3663 C3662 1.394 . S
C3663 C3664 1.383 . S
C3663 H3671 0.929 . S
C3664 C3663 1.383 . S
C3664 C3665 1.377 . S
C3665 H3649 0.930 . S
C3665 C3664 1.377 . S
C3665 C3666 1.379 . S
C3666 H3650 0.931 . S
C3666 C3660 1.383 . S
C3666 C3665 1.379 . S
H3667 C3661 0.959 . S
H3668 C3661 0.961 . S
H3669 C3661 0.960 . S
H3670 C3662 0.930 . S
H3671 C3663 0.929 . S
H3672 C3680 0.929 . S
H3673 C3682 0.930 . S
H3674 C3684 0.930 . S
H3675 C3687 0.929 . S
H3676 C3690 0.930 . S
H3677 C3692 0.960 . S
H3678 C3692 0.960 . S
H3679 C3692 0.960 . S
C3680 H3672 0.929 . S
C3680 C3681 1.377 . S
C3680 C3682 1.384 . S
C3681 C3680 1.377 . S
C3681 C3687 1.390 . S
C3682 H3673 0.930 . S
C3682 C3680 1.384 . S
C3682 C3683 1.372 . S
C3683 C3682 1.372 . S
C3683 C3684 1.400 . S
C3683 C3688 1.490 . S
C3684 H3674 0.930 . S
C3684 C3683 1.400 . S
C3684 C3687 1.386 . S
H3685 C3701 0.930 . S
H3686 C3702 0.931 . S
C3687 H3675 0.929 . S
C3687 C3681 1.390 . S
C3687 C3684 1.386 . S
C3688 C3683 1.490 . S
C3688 C3690 1.395 . S
C3688 C3691 1.403 . S
H3689 C3695 0.930 . S
C3690 H3676 0.930 . S
C3690 C3688 1.395 . S
C3690 C3693 1.403 1_565 S
C3691 C3688 1.403 . S
C3691 C3692 1.524 . S
C3691 C3695 1.400 1_565 S
C3692 H3677 0.960 . S
C3692 H3678 0.960 . S
C3692 H3679 0.960 . S
C3692 C3691 1.524 . S
C3693 C3690 1.403 1_545 S
C3693 C3694 1.392 . S
C3693 C3697 1.495 . S
C3694 C3693 1.392 . S
C3694 C3695 1.385 . S
C3694 C3696 1.478 . S
C3695 H3689 0.930 . S
C3695 C3691 1.400 1_545 S
C3695 C3694 1.385 . S
C3696 C3694 1.478 . S
C3696 C3698 1.381 . S
C3696 C3702 1.383 . S
C3697 C3693 1.495 . S
C3697 H3703 0.959 . S
C3697 H3704 0.961 . S
C3697 H3705 0.960 . S
C3698 C3696 1.381 . S
C3698 C3699 1.394 . S
C3698 H3706 0.930 . S
C3699 C3698 1.394 . S
C3699 C3700 1.383 . S
C3699 H3707 0.929 . S
C3700 C3699 1.383 . S
C3700 C3701 1.377 . S
C3701 H3685 0.930 . S
C3701 C3700 1.377 . S
C3701 C3702 1.379 . S
C3702 H3686 0.931 . S
C3702 C3696 1.383 . S
C3702 C3701 1.379 . S
H3703 C3697 0.959 . S
H3704 C3697 0.961 . S
H3705 C3697 0.960 . S
H3706 C3698 0.930 . S
H3707 C3699 0.929 . S
H3708 C3716 0.929 . S
H3709 C3718 0.930 . S
H3710 C3720 0.930 . S
H3711 C3723 0.929 . S
H3712 C3726 0.930 . S
H3713 C3728 0.960 1_565 S
H3714 C3728 0.960 . S
H3715 C3728 0.960 . S
C3716 H3708 0.929 . S
C3716 C3717 1.377 . S
C3716 C3718 1.384 . S
C3717 C3716 1.377 . S
C3717 C3723 1.390 . S
C3718 H3709 0.930 . S
C3718 C3716 1.384 . S
C3718 C3719 1.372 . S
C3719 C3718 1.372 . S
C3719 C3720 1.400 . S
C3719 C3724 1.490 . S
C3720 H3710 0.930 . S
C3720 C3719 1.400 . S
C3720 C3723 1.386 . S
H3721 C3737 0.930 . S
H3722 C3738 0.931 . S
C3723 H3711 0.929 . S
C3723 C3717 1.390 . S
C3723 C3720 1.386 . S
C3724 C3719 1.490 . S
C3724 C3726 1.395 . S
C3724 C3727 1.403 . S
H3725 C3731 0.930 . S
C3726 H3712 0.930 . S
C3726 C3724 1.395 . S
C3726 C3729 1.403 1_545 S
C3727 C3724 1.403 . S
C3727 C3728 1.524 . S
C3727 C3731 1.400 1_545 S
C3728 H3713 0.960 1_545 S
C3728 H3714 0.960 . S
C3728 H3715 0.960 . S
C3728 C3727 1.524 . S
C3729 C3726 1.403 1_565 S
C3729 C3730 1.392 . S
C3729 C3733 1.495 . S
C3730 C3729 1.392 . S
C3730 C3731 1.385 . S
C3730 C3732 1.478 . S
C3731 H3725 0.930 . S
C3731 C3727 1.400 1_565 S
C3731 C3730 1.385 . S
C3732 C3730 1.478 . S
C3732 C3734 1.381 . S
C3732 C3738 1.383 . S
C3733 C3729 1.495 . S
C3733 H3739 0.959 1_565 S
C3733 H3740 0.961 . S
C3733 H3741 0.960 . S
C3734 C3732 1.381 . S
C3734 C3735 1.394 . S
C3734 H3742 0.930 . S
C3735 C3734 1.394 . S
C3735 C3736 1.383 . S
C3735 H3743 0.929 . S
C3736 C3735 1.383 . S
C3736 C3737 1.377 . S
C3737 H3721 0.930 . S
C3737 C3736 1.377 . S
C3737 C3738 1.379 . S
C3738 H3722 0.931 . S
C3738 C3732 1.383 . S
C3738 C3737 1.379 . S
H3739 C3733 0.959 1_545 S
H3740 C3733 0.961 . S
H3741 C3733 0.960 . S
H3742 C3734 0.930 . S
H3743 C3735 0.929 . S
H3744 C3752 0.929 . S
H3745 C3754 0.930 . S
H3746 C3756 0.930 . S
H3747 C3759 0.929 . S
H3748 C3762 0.930 . S
H3749 C3764 0.960 1_455 S
H3750 C3764 0.960 . S
H3751 C3764 0.960 . S
C3752 H3744 0.929 . S
C3752 C3753 1.377 . S
C3752 C3754 1.384 . S
C3753 C3752 1.377 . S
C3753 C3759 1.390 . S
C3754 H3745 0.930 . S
C3754 C3752 1.384 . S
C3754 C3755 1.372 . S
C3755 C3754 1.372 . S
C3755 C3756 1.400 . S
C3755 C3760 1.490 . S
C3756 H3746 0.930 . S
C3756 C3755 1.400 . S
C3756 C3759 1.386 . S
H3757 C3773 0.930 . S
H3758 C3774 0.931 . S
C3759 H3747 0.929 . S
C3759 C3753 1.390 . S
C3759 C3756 1.386 . S
C3760 C3755 1.490 . S
C3760 C3762 1.395 . S
C3760 C3763 1.403 . S
H3761 C3767 0.930 . S
C3762 H3748 0.930 . S
C3762 C3760 1.395 . S
C3762 C3765 1.403 1_655 S
C3763 C3760 1.403 . S
C3763 C3764 1.524 . S
C3763 C3767 1.400 1_655 S
C3764 H3749 0.960 1_655 S
C3764 H3750 0.960 . S
C3764 H3751 0.960 . S
C3764 C3763 1.524 . S
C3765 C3762 1.403 1_455 S
C3765 C3766 1.392 . S
C3765 C3769 1.495 . S
C3766 C3765 1.392 . S
C3766 C3767 1.385 . S
C3766 C3768 1.478 . S
C3767 H3761 0.930 . S
C3767 C3763 1.400 1_455 S
C3767 C3766 1.385 . S
C3768 C3766 1.478 . S
C3768 C3770 1.381 . S
C3768 C3774 1.383 . S
C3769 C3765 1.495 . S
C3769 H3775 0.959 1_455 S
C3769 H3776 0.961 . S
C3769 H3777 0.960 . S
C3770 C3768 1.381 . S
C3770 C3771 1.394 . S
C3770 H3778 0.930 . S
C3771 C3770 1.394 . S
C3771 C3772 1.383 . S
C3771 H3779 0.929 . S
C3772 C3771 1.383 . S
C3772 C3773 1.377 . S
C3773 H3757 0.930 . S
C3773 C3772 1.377 . S
C3773 C3774 1.379 . S
C3774 H3758 0.931 . S
C3774 C3768 1.383 . S
C3774 C3773 1.379 . S
H3775 C3769 0.959 1_655 S
H3776 C3769 0.961 . S
H3777 C3769 0.960 . S
H3778 C3770 0.930 . S
H3779 C3771 0.929 . S
H3780 C3788 0.929 . S
H3781 C3790 0.930 . S
H3782 C3792 0.930 . S
H3783 C3795 0.929 . S
H3784 C3798 0.930 . S
H3785 C3800 0.960 . S
H3786 C3800 0.960 . S
H3787 C3800 0.960 . S
C3788 H3780 0.929 . S
C3788 C3789 1.377 . S
C3788 C3790 1.384 . S
C3789 C3788 1.377 . S
C3789 C3795 1.390 . S
C3790 H3781 0.930 . S
C3790 C3788 1.384 . S
C3790 C3791 1.372 . S
C3791 C3790 1.372 . S
C3791 C3792 1.400 . S
C3791 C3796 1.490 . S
C3792 H3782 0.930 . S
C3792 C3791 1.400 . S
C3792 C3795 1.386 . S
H3793 C3809 0.930 . S
H3794 C3810 0.931 . S
C3795 H3783 0.929 . S
C3795 C3789 1.390 . S
C3795 C3792 1.386 . S
C3796 C3791 1.490 . S
C3796 C3798 1.395 . S
C3796 C3799 1.403 . S
H3797 C3803 0.930 . S
C3798 H3784 0.930 . S
C3798 C3796 1.395 . S
C3798 C3801 1.403 . S
C3799 C3796 1.403 . S
C3799 C3800 1.524 . S
C3799 C3803 1.400 . S
C3800 H3785 0.960 . S
C3800 H3786 0.960 . S
C3800 H3787 0.960 . S
C3800 C3799 1.524 . S
C3801 C3798 1.403 . S
C3801 C3802 1.392 . S
C3801 C3805 1.495 . S
C3802 C3801 1.392 . S
C3802 C3803 1.385 . S
C3802 C3804 1.478 . S
C3803 H3797 0.930 . S
C3803 C3799 1.400 . S
C3803 C3802 1.385 . S
C3804 C3802 1.478 . S
C3804 C3806 1.381 . S
C3804 C3810 1.383 . S
C3805 C3801 1.495 . S
C3805 H3811 0.959 . S
C3805 H3812 0.961 . S
C3805 H3813 0.960 . S
C3806 C3804 1.381 . S
C3806 C3807 1.394 . S
C3806 H3814 0.930 . S
C3807 C3806 1.394 . S
C3807 C3808 1.383 . S
C3807 H3815 0.929 . S
C3808 C3807 1.383 . S
C3808 C3809 1.377 . S
C3809 H3793 0.930 . S
C3809 C3808 1.377 . S
C3809 C3810 1.379 . S
C3810 H3794 0.931 . S
C3810 C3804 1.383 . S
C3810 C3809 1.379 . S
H3811 C3805 0.959 . S
H3812 C3805 0.961 . S
H3813 C3805 0.960 . S
H3814 C3806 0.930 . S
H3815 C3807 0.929 . S
H3816 C3824 0.929 . S
H3817 C3826 0.930 . S
H3818 C3828 0.930 . S
H3819 C3831 0.929 . S
H3820 C3834 0.930 . S
H3821 C3836 0.960 . S
H3822 C3836 0.960 . S
H3823 C3836 0.960 . S
C3824 H3816 0.929 . S
C3824 C3825 1.377 . S
C3824 C3826 1.384 . S
C3825 C3824 1.377 . S
C3825 C3831 1.390 . S
C3826 H3817 0.930 . S
C3826 C3824 1.384 . S
C3826 C3827 1.372 . S
C3827 C3826 1.372 . S
C3827 C3828 1.400 . S
C3827 C3832 1.490 . S
C3828 H3818 0.930 . S
C3828 C3827 1.400 . S
C3828 C3831 1.386 . S
H3829 C3845 0.930 . S
H3830 C3846 0.931 . S
C3831 H3819 0.929 . S
C3831 C3825 1.390 . S
C3831 C3828 1.386 . S
C3832 C3827 1.490 . S
C3832 C3834 1.395 . S
C3832 C3835 1.403 . S
H3833 C3839 0.930 . S
C3834 H3820 0.930 . S
C3834 C3832 1.395 . S
C3834 C3837 1.403 . S
C3835 C3832 1.403 . S
C3835 C3836 1.524 . S
C3835 C3839 1.400 . S
C3836 H3821 0.960 . S
C3836 H3822 0.960 . S
C3836 H3823 0.960 . S
C3836 C3835 1.524 . S
C3837 C3834 1.403 . S
C3837 C3838 1.392 . S
C3837 C3841 1.495 . S
C3838 C3837 1.392 . S
C3838 C3839 1.385 . S
C3838 C3840 1.478 . S
C3839 H3833 0.930 . S
C3839 C3835 1.400 . S
C3839 C3838 1.385 . S
C3840 C3838 1.478 . S
C3840 C3842 1.381 . S
C3840 C3846 1.383 . S
C3841 C3837 1.495 . S
C3841 H3847 0.959 . S
C3841 H3848 0.961 . S
C3841 H3849 0.960 . S
C3842 C3840 1.381 . S
C3842 C3843 1.394 . S
C3842 H3850 0.930 . S
C3843 C3842 1.394 . S
C3843 C3844 1.383 . S
C3843 H3851 0.929 . S
C3844 C3843 1.383 . S
C3844 C3845 1.377 . S
C3845 H3829 0.930 . S
C3845 C3844 1.377 . S
C3845 C3846 1.379 . S
C3846 H3830 0.931 . S
C3846 C3840 1.383 . S
C3846 C3845 1.379 . S
H3847 C3841 0.959 . S
H3848 C3841 0.961 . S
H3849 C3841 0.960 . S
H3850 C3842 0.930 . S
H3851 C3843 0.929 . S
H3852 C3860 0.929 . S
H3853 C3862 0.930 . S
H3854 C3864 0.930 . S
H3855 C3867 0.929 . S
H3856 C3870 0.930 . S
H3857 C3872 0.960 . S
H3858 C3872 0.960 . S
H3859 C3872 0.960 . S
C3860 H3852 0.929 . S
C3860 C3861 1.377 . S
C3860 C3862 1.384 . S
C3861 C3860 1.377 . S
C3861 C3867 1.390 . S
C3862 H3853 0.930 . S
C3862 C3860 1.384 . S
C3862 C3863 1.372 . S
C3863 C3862 1.372 . S
C3863 C3864 1.400 . S
C3863 C3868 1.490 . S
C3864 H3854 0.930 . S
C3864 C3863 1.400 . S
C3864 C3867 1.386 . S
H3865 C3881 0.930 . S
H3866 C3882 0.931 . S
C3867 H3855 0.929 . S
C3867 C3861 1.390 . S
C3867 C3864 1.386 . S
C3868 C3863 1.490 . S
C3868 C3870 1.395 . S
C3868 C3871 1.403 . S
H3869 C3875 0.930 . S
C3870 H3856 0.930 . S
C3870 C3868 1.395 . S
C3870 C3873 1.403 . S
C3871 C3868 1.403 . S
C3871 C3872 1.524 . S
C3871 C3875 1.400 . S
C3872 H3857 0.960 . S
C3872 H3858 0.960 . S
C3872 H3859 0.960 . S
C3872 C3871 1.524 . S
C3873 C3870 1.403 . S
C3873 C3874 1.392 . S
C3873 C3877 1.495 . S
C3874 C3873 1.392 . S
C3874 C3875 1.385 . S
C3874 C3876 1.478 . S
C3875 H3869 0.930 . S
C3875 C3871 1.400 . S
C3875 C3874 1.385 . S
C3876 C3874 1.478 . S
C3876 C3878 1.381 . S
C3876 C3882 1.383 . S
C3877 C3873 1.495 . S
C3877 H3883 0.959 . S
C3877 H3884 0.961 . S
C3877 H3885 0.960 . S
C3878 C3876 1.381 . S
C3878 C3879 1.394 . S
C3878 H3886 0.930 . S
C3879 C3878 1.394 . S
C3879 C3880 1.383 . S
C3879 H3887 0.929 . S
C3880 C3879 1.383 . S
C3880 C3881 1.377 . S
C3881 H3865 0.930 . S
C3881 C3880 1.377 . S
C3881 C3882 1.379 . S
C3882 H3866 0.931 . S
C3882 C3876 1.383 . S
C3882 C3881 1.379 . S
H3883 C3877 0.959 . S
H3884 C3877 0.961 . S
H3885 C3877 0.960 . S
H3886 C3878 0.930 . S
H3887 C3879 0.929 . S
H3888 C3896 0.929 . S
H3889 C3898 0.930 . S
H3890 C3900 0.930 . S
H3891 C3903 0.929 . S
H3892 C3906 0.930 . S
H3893 C3908 0.960 . S
H3894 C3908 0.960 . S
H3895 C3908 0.960 . S
C3896 H3888 0.929 . S
C3896 C3897 1.377 . S
C3896 C3898 1.384 . S
C3897 C3896 1.377 . S
C3897 C3903 1.390 . S
C3898 H3889 0.930 . S
C3898 C3896 1.384 . S
C3898 C3899 1.372 . S
C3899 C3898 1.372 . S
C3899 C3900 1.400 . S
C3899 C3904 1.490 . S
C3900 H3890 0.930 . S
C3900 C3899 1.400 . S
C3900 C3903 1.386 . S
H3901 C3917 0.930 . S
H3902 C3918 0.931 . S
C3903 H3891 0.929 . S
C3903 C3897 1.390 . S
C3903 C3900 1.386 . S
C3904 C3899 1.490 . S
C3904 C3906 1.395 . S
C3904 C3907 1.403 . S
H3905 C3911 0.930 . S
C3906 H3892 0.930 . S
C3906 C3904 1.395 . S
C3906 C3909 1.403 . S
C3907 C3904 1.403 . S
C3907 C3908 1.524 . S
C3907 C3911 1.400 . S
C3908 H3893 0.960 . S
C3908 H3894 0.960 . S
C3908 H3895 0.960 . S
C3908 C3907 1.524 . S
C3909 C3906 1.403 . S
C3909 C3910 1.392 . S
C3909 C3913 1.495 . S
C3910 C3909 1.392 . S
C3910 C3911 1.385 . S
C3910 C3912 1.478 . S
C3911 H3905 0.930 . S
C3911 C3907 1.400 . S
C3911 C3910 1.385 . S
C3912 C3910 1.478 . S
C3912 C3914 1.381 . S
C3912 C3918 1.383 . S
C3913 C3909 1.495 . S
C3913 H3919 0.959 . S
C3913 H3920 0.961 . S
C3913 H3921 0.960 . S
C3914 C3912 1.381 . S
C3914 C3915 1.394 . S
C3914 H3922 0.930 . S
C3915 C3914 1.394 . S
C3915 C3916 1.383 . S
C3915 H3923 0.929 . S
C3916 C3915 1.383 . S
C3916 C3917 1.377 . S
C3917 H3901 0.930 . S
C3917 C3916 1.377 . S
C3917 C3918 1.379 . S
C3918 H3902 0.931 . S
C3918 C3912 1.383 . S
C3918 C3917 1.379 . S
H3919 C3913 0.959 . S
H3920 C3913 0.961 . S
H3921 C3913 0.960 . S
H3922 C3914 0.930 . S
H3923 C3915 0.929 . S
H3924 C3932 0.929 . S
H3925 C3934 0.930 . S
H3926 C3936 0.930 . S
H3927 C3939 0.929 . S
H3928 C3942 0.930 . S
H3929 C3944 0.960 . S
H3930 C3944 0.960 . S
H3931 C3944 0.960 . S
C3932 H3924 0.929 . S
C3932 C3933 1.377 . S
C3932 C3934 1.384 . S
C3933 C3932 1.377 . S
C3933 C3939 1.390 . S
C3934 H3925 0.930 . S
C3934 C3932 1.384 . S
C3934 C3935 1.372 . S
C3935 C3934 1.372 . S
C3935 C3936 1.400 . S
C3935 C3940 1.490 . S
C3936 H3926 0.930 . S
C3936 C3935 1.400 . S
C3936 C3939 1.386 . S
H3937 C3953 0.930 . S
H3938 C3954 0.931 . S
C3939 H3927 0.929 . S
C3939 C3933 1.390 . S
C3939 C3936 1.386 . S
C3940 C3935 1.490 . S
C3940 C3942 1.395 . S
C3940 C3943 1.403 . S
H3941 C3947 0.930 . S
C3942 H3928 0.930 . S
C3942 C3940 1.395 . S
C3942 C3945 1.403 . S
C3943 C3940 1.403 . S
C3943 C3944 1.524 . S
C3943 C3947 1.400 . S
C3944 H3929 0.960 . S
C3944 H3930 0.960 . S
C3944 H3931 0.960 . S
C3944 C3943 1.524 . S
C3945 C3942 1.403 . S
C3945 C3946 1.392 . S
C3945 C3949 1.495 . S
C3946 C3945 1.392 . S
C3946 C3947 1.385 . S
C3946 C3948 1.478 . S
C3947 H3941 0.930 . S
C3947 C3943 1.400 . S
C3947 C3946 1.385 . S
C3948 C3946 1.478 . S
C3948 C3950 1.381 . S
C3948 C3954 1.383 . S
C3949 C3945 1.495 . S
C3949 H3955 0.959 . S
C3949 H3956 0.961 . S
C3949 H3957 0.960 . S
C3950 C3948 1.381 . S
C3950 C3951 1.394 . S
C3950 H3958 0.930 . S
C3951 C3950 1.394 . S
C3951 C3952 1.383 . S
C3951 H3959 0.929 . S
C3952 C3951 1.383 . S
C3952 C3953 1.377 . S
C3953 H3937 0.930 . S
C3953 C3952 1.377 . S
C3953 C3954 1.379 . S
C3954 H3938 0.931 . S
C3954 C3948 1.383 . S
C3954 C3953 1.379 . S
H3955 C3949 0.959 . S
H3956 C3949 0.961 . S
H3957 C3949 0.960 . S
H3958 C3950 0.930 . S
H3959 C3951 0.929 . S
H3960 C3968 0.929 . S
H3961 C3970 0.930 . S
H3962 C3972 0.930 . S
H3963 C3975 0.929 . S
H3964 C3978 0.930 . S
H3965 C3980 0.960 . S
H3966 C3980 0.960 . S
H3967 C3980 0.960 . S
C3968 H3960 0.929 . S
C3968 C3969 1.377 . S
C3968 C3970 1.384 . S
C3969 C3968 1.377 . S
C3969 C3975 1.390 . S
C3970 H3961 0.930 . S
C3970 C3968 1.384 . S
C3970 C3971 1.372 . S
C3971 C3970 1.372 . S
C3971 C3972 1.400 . S
C3971 C3976 1.490 . S
C3972 H3962 0.930 . S
C3972 C3971 1.400 . S
C3972 C3975 1.386 . S
H3973 C3989 0.930 . S
H3974 C3990 0.931 . S
C3975 H3963 0.929 . S
C3975 C3969 1.390 . S
C3975 C3972 1.386 . S
C3976 C3971 1.490 . S
C3976 C3978 1.395 . S
C3976 C3979 1.403 . S
H3977 C3983 0.930 . S
C3978 H3964 0.930 . S
C3978 C3976 1.395 . S
C3978 C3981 1.403 . S
C3979 C3976 1.403 . S
C3979 C3980 1.524 . S
C3979 C3983 1.400 . S
C3980 H3965 0.960 . S
C3980 H3966 0.960 . S
C3980 H3967 0.960 . S
C3980 C3979 1.524 . S
C3981 C3978 1.403 . S
C3981 C3982 1.392 . S
C3981 C3985 1.495 . S
C3982 C3981 1.392 . S
C3982 C3983 1.385 . S
C3982 C3984 1.478 . S
C3983 H3977 0.930 . S
C3983 C3979 1.400 . S
C3983 C3982 1.385 . S
C3984 C3982 1.478 . S
C3984 C3986 1.381 . S
C3984 C3990 1.383 . S
C3985 C3981 1.495 . S
C3985 H3991 0.959 . S
C3985 H3992 0.961 . S
C3985 H3993 0.960 . S
C3986 C3984 1.381 . S
C3986 C3987 1.394 . S
C3986 H3994 0.930 . S
C3987 C3986 1.394 . S
C3987 C3988 1.383 . S
C3987 H3995 0.929 . S
C3988 C3987 1.383 . S
C3988 C3989 1.377 . S
C3989 H3973 0.930 . S
C3989 C3988 1.377 . S
C3989 C3990 1.379 . S
C3990 H3974 0.931 . S
C3990 C3984 1.383 . S
C3990 C3989 1.379 . S
H3991 C3985 0.959 . S
H3992 C3985 0.961 . S
H3993 C3985 0.960 . S
H3994 C3986 0.930 . S
H3995 C3987 0.929 . S
H3996 C4004 0.929 . S
H3997 C4006 0.930 . S
H3998 C4008 0.930 . S
H3999 C4011 0.929 . S
H4000 C4014 0.930 . S
H4001 C4016 0.960 . S
H4002 C4016 0.960 . S
H4003 C4016 0.960 . S
C4004 H3996 0.929 . S
C4004 C4005 1.377 . S
C4004 C4006 1.384 . S
C4005 C4004 1.377 . S
C4005 C4011 1.390 . S
C4006 H3997 0.930 . S
C4006 C4004 1.384 . S
C4006 C4007 1.372 . S
C4007 C4006 1.372 . S
C4007 C4008 1.400 . S
C4007 C4012 1.490 . S
C4008 H3998 0.930 . S
C4008 C4007 1.400 . S
C4008 C4011 1.386 . S
H4009 C4025 0.930 . S
H4010 C4026 0.931 . S
C4011 H3999 0.929 . S
C4011 C4005 1.390 . S
C4011 C4008 1.386 . S
C4012 C4007 1.490 . S
C4012 C4014 1.395 . S
C4012 C4015 1.403 . S
H4013 C4019 0.930 . S
C4014 H4000 0.930 . S
C4014 C4012 1.395 . S
C4014 C4017 1.403 . S
C4015 C4012 1.403 . S
C4015 C4016 1.524 . S
C4015 C4019 1.400 . S
C4016 H4001 0.960 . S
C4016 H4002 0.960 . S
C4016 H4003 0.960 . S
C4016 C4015 1.524 . S
C4017 C4014 1.403 . S
C4017 C4018 1.392 . S
C4017 C4021 1.495 . S
C4018 C4017 1.392 . S
C4018 C4019 1.385 . S
C4018 C4020 1.478 . S
C4019 H4013 0.930 . S
C4019 C4015 1.400 . S
C4019 C4018 1.385 . S
C4020 C4018 1.478 . S
C4020 C4022 1.381 . S
C4020 C4026 1.383 . S
C4021 C4017 1.495 . S
C4021 H4027 0.959 . S
C4021 H4028 0.961 . S
C4021 H4029 0.960 . S
C4022 C4020 1.381 . S
C4022 C4023 1.394 . S
C4022 H4030 0.930 . S
C4023 C4022 1.394 . S
C4023 C4024 1.383 . S
C4023 H4031 0.929 . S
C4024 C4023 1.383 . S
C4024 C4025 1.377 . S
C4025 H4009 0.930 . S
C4025 C4024 1.377 . S
C4025 C4026 1.379 . S
C4026 H4010 0.931 . S
C4026 C4020 1.383 . S
C4026 C4025 1.379 . S
H4027 C4021 0.959 . S
H4028 C4021 0.961 . S
H4029 C4021 0.960 . S
H4030 C4022 0.930 . S
H4031 C4023 0.929 . S
H4032 C4040 0.929 . S
H4033 C4042 0.930 . S
H4034 C4044 0.930 . S
H4035 C4047 0.929 . S
H4036 C4050 0.930 . S
H4037 C4052 0.960 . S
H4038 C4052 0.960 . S
H4039 C4052 0.960 . S
C4040 H4032 0.929 . S
C4040 C4041 1.377 . S
C4040 C4042 1.384 . S
C4041 C4040 1.377 . S
C4041 C4047 1.390 . S
C4042 H4033 0.930 . S
C4042 C4040 1.384 . S
C4042 C4043 1.372 . S
C4043 C4042 1.372 . S
C4043 C4044 1.400 . S
C4043 C4048 1.490 . S
C4044 H4034 0.930 . S
C4044 C4043 1.400 . S
C4044 C4047 1.386 . S
H4045 C4061 0.930 . S
H4046 C4062 0.931 . S
C4047 H4035 0.929 . S
C4047 C4041 1.390 . S
C4047 C4044 1.386 . S
C4048 C4043 1.490 . S
C4048 C4050 1.395 . S
C4048 C4051 1.403 . S
H4049 C4055 0.930 . S
C4050 H4036 0.930 . S
C4050 C4048 1.395 . S
C4050 C4053 1.403 . S
C4051 C4048 1.403 . S
C4051 C4052 1.524 . S
C4051 C4055 1.400 . S
C4052 H4037 0.960 . S
C4052 H4038 0.960 . S
C4052 H4039 0.960 . S
C4052 C4051 1.524 . S
C4053 C4050 1.403 . S
C4053 C4054 1.392 . S
C4053 C4057 1.495 . S
C4054 C4053 1.392 . S
C4054 C4055 1.385 . S
C4054 C4056 1.478 . S
C4055 H4049 0.930 . S
C4055 C4051 1.400 . S
C4055 C4054 1.385 . S
C4056 C4054 1.478 . S
C4056 C4058 1.381 . S
C4056 C4062 1.383 . S
C4057 C4053 1.495 . S
C4057 H4063 0.959 . S
C4057 H4064 0.961 . S
C4057 H4065 0.960 . S
C4058 C4056 1.381 . S
C4058 C4059 1.394 . S
C4058 H4066 0.930 . S
C4059 C4058 1.394 . S
C4059 C4060 1.383 . S
C4059 H4067 0.929 . S
C4060 C4059 1.383 . S
C4060 C4061 1.377 . S
C4061 H4045 0.930 . S
C4061 C4060 1.377 . S
C4061 C4062 1.379 . S
C4062 H4046 0.931 . S
C4062 C4056 1.383 . S
C4062 C4061 1.379 . S
H4063 C4057 0.959 . S
H4064 C4057 0.961 . S
H4065 C4057 0.960 . S
H4066 C4058 0.930 . S
H4067 C4059 0.929 . S
H4068 C4076 0.929 . S
H4069 C4078 0.930 . S
H4070 C4080 0.930 . S
H4071 C4083 0.929 . S
H4072 C4086 0.930 . S
H4073 C4088 0.960 . S
H4074 C4088 0.960 . S
H4075 C4088 0.960 . S
C4076 H4068 0.929 . S
C4076 C4077 1.377 . S
C4076 C4078 1.384 . S
C4077 C4076 1.377 . S
C4077 C4083 1.390 . S
C4078 H4069 0.930 . S
C4078 C4076 1.384 . S
C4078 C4079 1.372 . S
C4079 C4078 1.372 . S
C4079 C4080 1.400 . S
C4079 C4084 1.490 . S
C4080 H4070 0.930 . S
C4080 C4079 1.400 . S
C4080 C4083 1.386 . S
H4081 C4097 0.930 . S
H4082 C4098 0.931 . S
C4083 H4071 0.929 . S
C4083 C4077 1.390 . S
C4083 C4080 1.386 . S
C4084 C4079 1.490 . S
C4084 C4086 1.395 . S
C4084 C4087 1.403 . S
H4085 C4091 0.930 . S
C4086 H4072 0.930 . S
C4086 C4084 1.395 . S
C4086 C4089 1.403 . S
C4087 C4084 1.403 . S
C4087 C4088 1.524 . S
C4087 C4091 1.400 . S
C4088 H4073 0.960 . S
C4088 H4074 0.960 . S
C4088 H4075 0.960 . S
C4088 C4087 1.524 . S
C4089 C4086 1.403 . S
C4089 C4090 1.392 . S
C4089 C4093 1.495 . S
C4090 C4089 1.392 . S
C4090 C4091 1.385 . S
C4090 C4092 1.478 . S
C4091 H4085 0.930 . S
C4091 C4087 1.400 . S
C4091 C4090 1.385 . S
C4092 C4090 1.478 . S
C4092 C4094 1.381 . S
C4092 C4098 1.383 . S
C4093 C4089 1.495 . S
C4093 H4099 0.959 . S
C4093 H4100 0.961 . S
C4093 H4101 0.960 . S
C4094 C4092 1.381 . S
C4094 C4095 1.394 . S
C4094 H4102 0.930 . S
C4095 C4094 1.394 . S
C4095 C4096 1.383 . S
C4095 H4103 0.929 . S
C4096 C4095 1.383 . S
C4096 C4097 1.377 . S
C4097 H4081 0.930 . S
C4097 C4096 1.377 . S
C4097 C4098 1.379 . S
C4098 H4082 0.931 . S
C4098 C4092 1.383 . S
C4098 C4097 1.379 . S
H4099 C4093 0.959 . S
H4100 C4093 0.961 . S
H4101 C4093 0.960 . S
H4102 C4094 0.930 . S
H4103 C4095 0.929 . S
H4104 C4112 0.929 . S
H4105 C4114 0.930 . S
H4106 C4116 0.930 . S
H4107 C4119 0.929 . S
H4108 C4122 0.930 . S
H4109 C4124 0.960 . S
H4110 C4124 0.960 . S
H4111 C4124 0.960 . S
C4112 H4104 0.929 . S
C4112 C4113 1.377 . S
C4112 C4114 1.384 . S
C4113 C4112 1.377 . S
C4113 C4119 1.390 . S
C4114 H4105 0.930 . S
C4114 C4112 1.384 . S
C4114 C4115 1.372 . S
C4115 C4114 1.372 . S
C4115 C4116 1.400 . S
C4115 C4120 1.490 . S
C4116 H4106 0.930 . S
C4116 C4115 1.400 . S
C4116 C4119 1.386 . S
H4117 C4133 0.930 . S
H4118 C4134 0.931 . S
C4119 H4107 0.929 . S
C4119 C4113 1.390 . S
C4119 C4116 1.386 . S
C4120 C4115 1.490 . S
C4120 C4122 1.395 . S
C4120 C4123 1.403 . S
H4121 C4127 0.930 . S
C4122 H4108 0.930 . S
C4122 C4120 1.395 . S
C4122 C4125 1.403 . S
C4123 C4120 1.403 . S
C4123 C4124 1.524 . S
C4123 C4127 1.400 . S
C4124 H4109 0.960 . S
C4124 H4110 0.960 . S
C4124 H4111 0.960 . S
C4124 C4123 1.524 . S
C4125 C4122 1.403 . S
C4125 C4126 1.392 . S
C4125 C4129 1.495 . S
C4126 C4125 1.392 . S
C4126 C4127 1.385 . S
C4126 C4128 1.478 . S
C4127 H4121 0.930 . S
C4127 C4123 1.400 . S
C4127 C4126 1.385 . S
C4128 C4126 1.478 . S
C4128 C4130 1.381 . S
C4128 C4134 1.383 . S
C4129 C4125 1.495 . S
C4129 H4135 0.959 . S
C4129 H4136 0.961 . S
C4129 H4137 0.960 . S
C4130 C4128 1.381 . S
C4130 C4131 1.394 . S
C4130 H4138 0.930 . S
C4131 C4130 1.394 . S
C4131 C4132 1.383 . S
C4131 H4139 0.929 . S
C4132 C4131 1.383 . S
C4132 C4133 1.377 . S
C4133 H4117 0.930 . S
C4133 C4132 1.377 . S
C4133 C4134 1.379 . S
C4134 H4118 0.931 . S
C4134 C4128 1.383 . S
C4134 C4133 1.379 . S
H4135 C4129 0.959 . S
H4136 C4129 0.961 . S
H4137 C4129 0.960 . S
H4138 C4130 0.930 . S
H4139 C4131 0.929 . S
H4140 C4148 0.929 . S
H4141 C4150 0.930 . S
H4142 C4152 0.930 . S
H4143 C4155 0.929 . S
H4144 C4158 0.930 . S
H4145 C4160 0.960 . S
H4146 C4160 0.960 . S
H4147 C4160 0.960 . S
C4148 H4140 0.929 . S
C4148 C4149 1.377 . S
C4148 C4150 1.384 . S
C4149 C4148 1.377 . S
C4149 C4155 1.390 . S
C4150 H4141 0.930 . S
C4150 C4148 1.384 . S
C4150 C4151 1.372 . S
C4151 C4150 1.372 . S
C4151 C4152 1.400 . S
C4151 C4156 1.490 . S
C4152 H4142 0.930 . S
C4152 C4151 1.400 . S
C4152 C4155 1.386 . S
H4153 C4169 0.930 . S
H4154 C4170 0.931 . S
C4155 H4143 0.929 . S
C4155 C4149 1.390 . S
C4155 C4152 1.386 . S
C4156 C4151 1.490 . S
C4156 C4158 1.395 . S
C4156 C4159 1.403 . S
H4157 C4163 0.930 . S
C4158 H4144 0.930 . S
C4158 C4156 1.395 . S
C4158 C4161 1.403 . S
C4159 C4156 1.403 . S
C4159 C4160 1.524 . S
C4159 C4163 1.400 . S
C4160 H4145 0.960 . S
C4160 H4146 0.960 . S
C4160 H4147 0.960 . S
C4160 C4159 1.524 . S
C4161 C4158 1.403 . S
C4161 C4162 1.392 . S
C4161 C4165 1.495 . S
C4162 C4161 1.392 . S
C4162 C4163 1.385 . S
C4162 C4164 1.478 . S
C4163 H4157 0.930 . S
C4163 C4159 1.400 . S
C4163 C4162 1.385 . S
C4164 C4162 1.478 . S
C4164 C4166 1.381 . S
C4164 C4170 1.383 . S
C4165 C4161 1.495 . S
C4165 H4171 0.959 . S
C4165 H4172 0.961 . S
C4165 H4173 0.960 . S
C4166 C4164 1.381 . S
C4166 C4167 1.394 . S
C4166 H4174 0.930 . S
C4167 C4166 1.394 . S
C4167 C4168 1.383 . S
C4167 H4175 0.929 . S
C4168 C4167 1.383 . S
C4168 C4169 1.377 . S
C4169 H4153 0.930 . S
C4169 C4168 1.377 . S
C4169 C4170 1.379 . S
C4170 H4154 0.931 . S
C4170 C4164 1.383 . S
C4170 C4169 1.379 . S
H4171 C4165 0.959 . S
H4172 C4165 0.961 . S
H4173 C4165 0.960 . S
H4174 C4166 0.930 . S
H4175 C4167 0.929 . S
H4176 C4184 0.929 . S
H4177 C4186 0.930 . S
H4178 C4188 0.930 . S
H4179 C4191 0.929 . S
H4180 C4194 0.930 . S
H4181 C4196 0.960 . S
H4182 C4196 0.960 . S
H4183 C4196 0.960 . S
C4184 H4176 0.929 . S
C4184 C4185 1.377 . S
C4184 C4186 1.384 . S
C4185 C4184 1.377 . S
C4185 C4191 1.390 . S
C4186 H4177 0.930 . S
C4186 C4184 1.384 . S
C4186 C4187 1.372 . S
C4187 C4186 1.372 . S
C4187 C4188 1.400 . S
C4187 C4192 1.490 . S
C4188 H4178 0.930 . S
C4188 C4187 1.400 . S
C4188 C4191 1.386 . S
H4189 C4205 0.930 . S
H4190 C4206 0.931 . S
C4191 H4179 0.929 . S
C4191 C4185 1.390 . S
C4191 C4188 1.386 . S
C4192 C4187 1.490 . S
C4192 C4194 1.395 . S
C4192 C4195 1.403 . S
H4193 C4199 0.930 . S
C4194 H4180 0.930 . S
C4194 C4192 1.395 . S
C4194 C4197 1.403 . S
C4195 C4192 1.403 . S
C4195 C4196 1.524 . S
C4195 C4199 1.400 . S
C4196 H4181 0.960 . S
C4196 H4182 0.960 . S
C4196 H4183 0.960 . S
C4196 C4195 1.524 . S
C4197 C4194 1.403 . S
C4197 C4198 1.392 . S
C4197 C4201 1.495 . S
C4198 C4197 1.392 . S
C4198 C4199 1.385 . S
C4198 C4200 1.478 . S
C4199 H4193 0.930 . S
C4199 C4195 1.400 . S
C4199 C4198 1.385 . S
C4200 C4198 1.478 . S
C4200 C4202 1.381 . S
C4200 C4206 1.383 . S
C4201 C4197 1.495 . S
C4201 H4207 0.959 . S
C4201 H4208 0.961 . S
C4201 H4209 0.960 . S
C4202 C4200 1.381 . S
C4202 C4203 1.394 . S
C4202 H4210 0.930 . S
C4203 C4202 1.394 . S
C4203 C4204 1.383 . S
C4203 H4211 0.929 . S
C4204 C4203 1.383 . S
C4204 C4205 1.377 . S
C4205 H4189 0.930 . S
C4205 C4204 1.377 . S
C4205 C4206 1.379 . S
C4206 H4190 0.931 . S
C4206 C4200 1.383 . S
C4206 C4205 1.379 . S
H4207 C4201 0.959 . S
H4208 C4201 0.961 . S
H4209 C4201 0.960 . S
H4210 C4202 0.930 . S
H4211 C4203 0.929 . S
H4212 C4220 0.929 . S
H4213 C4222 0.930 . S
H4214 C4224 0.930 . S
H4215 C4227 0.929 . S
H4216 C4230 0.930 . S
H4217 C4232 0.960 . S
H4218 C4232 0.960 . S
H4219 C4232 0.960 . S
C4220 H4212 0.929 . S
C4220 C4221 1.377 . S
C4220 C4222 1.384 . S
C4221 C4220 1.377 . S
C4221 C4227 1.390 . S
C4222 H4213 0.930 . S
C4222 C4220 1.384 . S
C4222 C4223 1.372 . S
C4223 C4222 1.372 . S
C4223 C4224 1.400 . S
C4223 C4228 1.490 . S
C4224 H4214 0.930 . S
C4224 C4223 1.400 . S
C4224 C4227 1.386 . S
H4225 C4241 0.930 . S
H4226 C4242 0.931 . S
C4227 H4215 0.929 . S
C4227 C4221 1.390 . S
C4227 C4224 1.386 . S
C4228 C4223 1.490 . S
C4228 C4230 1.395 . S
C4228 C4231 1.403 . S
H4229 C4235 0.930 . S
C4230 H4216 0.930 . S
C4230 C4228 1.395 . S
C4230 C4233 1.403 . S
C4231 C4228 1.403 . S
C4231 C4232 1.524 . S
C4231 C4235 1.400 . S
C4232 H4217 0.960 . S
C4232 H4218 0.960 . S
C4232 H4219 0.960 . S
C4232 C4231 1.524 . S
C4233 C4230 1.403 . S
C4233 C4234 1.392 . S
C4233 C4237 1.495 . S
C4234 C4233 1.392 . S
C4234 C4235 1.385 . S
C4234 C4236 1.478 . S
C4235 H4229 0.930 . S
C4235 C4231 1.400 . S
C4235 C4234 1.385 . S
C4236 C4234 1.478 . S
C4236 C4238 1.381 . S
C4236 C4242 1.383 . S
C4237 C4233 1.495 . S
C4237 H4243 0.959 . S
C4237 H4244 0.961 . S
C4237 H4245 0.960 . S
C4238 C4236 1.381 . S
C4238 C4239 1.394 . S
C4238 H4246 0.930 . S
C4239 C4238 1.394 . S
C4239 C4240 1.383 . S
C4239 H4247 0.929 . S
C4240 C4239 1.383 . S
C4240 C4241 1.377 . S
C4241 H4225 0.930 . S
C4241 C4240 1.377 . S
C4241 C4242 1.379 . S
C4242 H4226 0.931 . S
C4242 C4236 1.383 . S
C4242 C4241 1.379 . S
H4243 C4237 0.959 . S
H4244 C4237 0.961 . S
H4245 C4237 0.960 . S
H4246 C4238 0.930 . S
H4247 C4239 0.929 . S
H4248 C4256 0.929 . S
H4249 C4258 0.930 . S
H4250 C4260 0.930 . S
H4251 C4263 0.929 . S
H4252 C4266 0.930 . S
H4253 C4268 0.960 . S
H4254 C4268 0.960 . S
H4255 C4268 0.960 . S
C4256 H4248 0.929 . S
C4256 C4257 1.377 . S
C4256 C4258 1.384 . S
C4257 C4256 1.377 . S
C4257 C4263 1.390 . S
C4258 H4249 0.930 . S
C4258 C4256 1.384 . S
C4258 C4259 1.372 . S
C4259 C4258 1.372 . S
C4259 C4260 1.400 . S
C4259 C4264 1.490 . S
C4260 H4250 0.930 . S
C4260 C4259 1.400 . S
C4260 C4263 1.386 . S
H4261 C4277 0.930 . S
H4262 C4278 0.931 . S
C4263 H4251 0.929 . S
C4263 C4257 1.390 . S
C4263 C4260 1.386 . S
C4264 C4259 1.490 . S
C4264 C4266 1.395 . S
C4264 C4267 1.403 . S
H4265 C4271 0.930 . S
C4266 H4252 0.930 . S
C4266 C4264 1.395 . S
C4266 C4269 1.403 . S
C4267 C4264 1.403 . S
C4267 C4268 1.524 . S
C4267 C4271 1.400 . S
C4268 H4253 0.960 . S
C4268 H4254 0.960 . S
C4268 H4255 0.960 . S
C4268 C4267 1.524 . S
C4269 C4266 1.403 . S
C4269 C4270 1.392 . S
C4269 C4273 1.495 . S
C4270 C4269 1.392 . S
C4270 C4271 1.385 . S
C4270 C4272 1.478 . S
C4271 H4265 0.930 . S
C4271 C4267 1.400 . S
C4271 C4270 1.385 . S
C4272 C4270 1.478 . S
C4272 C4274 1.381 . S
C4272 C4278 1.383 . S
C4273 C4269 1.495 . S
C4273 H4279 0.959 . S
C4273 H4280 0.961 . S
C4273 H4281 0.960 . S
C4274 C4272 1.381 . S
C4274 C4275 1.394 . S
C4274 H4282 0.930 . S
C4275 C4274 1.394 . S
C4275 C4276 1.383 . S
C4275 H4283 0.929 . S
C4276 C4275 1.383 . S
C4276 C4277 1.377 . S
C4277 H4261 0.930 . S
C4277 C4276 1.377 . S
C4277 C4278 1.379 . S
C4278 H4262 0.931 . S
C4278 C4272 1.383 . S
C4278 C4277 1.379 . S
H4279 C4273 0.959 . S
H4280 C4273 0.961 . S
H4281 C4273 0.960 . S
H4282 C4274 0.930 . S
H4283 C4275 0.929 . S
H4284 C4292 0.929 . S
H4285 C4294 0.930 . S
H4286 C4296 0.930 . S
H4287 C4299 0.929 . S
H4288 C4302 0.930 . S
H4289 C4304 0.960 . S
H4290 C4304 0.960 . S
H4291 C4304 0.960 . S
C4292 H4284 0.929 . S
C4292 C4293 1.377 . S
C4292 C4294 1.384 . S
C4293 C4292 1.377 . S
C4293 C4299 1.390 . S
C4294 H4285 0.930 . S
C4294 C4292 1.384 . S
C4294 C4295 1.372 . S
C4295 C4294 1.372 . S
C4295 C4296 1.400 . S
C4295 C4300 1.490 . S
C4296 H4286 0.930 . S
C4296 C4295 1.400 . S
C4296 C4299 1.386 . S
H4297 C4313 0.930 . S
H4298 C4314 0.931 . S
C4299 H4287 0.929 . S
C4299 C4293 1.390 . S
C4299 C4296 1.386 . S
C4300 C4295 1.490 . S
C4300 C4302 1.395 1_545 S
C4300 C4303 1.403 . S
H4301 C4307 0.911 . S
C4302 H4288 0.930 . S
C4302 C4300 1.395 1_565 S
C4302 C4305 1.403 . S
C4303 C4300 1.403 . S
C4303 C4304 1.524 . S
C4303 C4307 1.459 . S
C4304 H4289 0.960 . S
C4304 H4290 0.960 . S
C4304 H4291 0.960 . S
C4304 C4303 1.524 . S
C4305 C4302 1.403 . S
C4305 C4306 1.392 . S
C4305 C4309 1.495 . S
C4306 C4305 1.392 . S
C4306 C4307 1.347 1_565 S
C4306 C4308 1.478 . S
C4307 H4301 0.911 . S
C4307 C4303 1.459 . S
C4307 C4306 1.347 1_545 S
C4308 C4306 1.478 . S
C4308 C4310 1.381 . S
C4308 C4314 1.383 . S
C4309 C4305 1.495 . S
C4309 H4315 0.959 . S
C4309 H4316 0.961 . S
C4309 H4317 0.960 . S
C4310 C4308 1.381 . S
C4310 C4311 1.394 . S
C4310 H4318 0.930 . S
C4311 C4310 1.394 . S
C4311 C4312 1.383 . S
C4311 H4319 0.929 . S
C4312 C4311 1.383 . S
C4312 C4313 1.377 . S
C4313 H4297 0.930 . S
C4313 C4312 1.377 . S
C4313 C4314 1.379 . S
C4314 H4298 0.931 . S
C4314 C4308 1.383 . S
C4314 C4313 1.379 . S
H4315 C4309 0.959 . S
H4316 C4309 0.961 . S
H4317 C4309 0.960 . S
H4318 C4310 0.930 . S
H4319 C4311 0.929 . S
H4320 C4328 0.929 . S
H4321 C4330 0.930 . S
H4322 C4332 0.930 . S
H4323 C4335 0.929 . S
H4324 C4338 0.930 . S
H4325 C4340 0.960 . S
H4326 C4340 0.960 . S
H4327 C4340 0.960 . S
C4328 H4320 0.929 . S
C4328 C4329 1.377 . S
C4328 C4330 1.384 . S
C4329 C4328 1.377 . S
C4329 C4335 1.390 . S
C4330 H4321 0.930 . S
C4330 C4328 1.384 . S
C4330 C4331 1.372 . S
C4331 C4330 1.372 . S
C4331 C4332 1.400 . S
C4331 C4336 1.490 . S
C4332 H4322 0.930 . S
C4332 C4331 1.400 . S
C4332 C4335 1.386 . S
H4333 C4349 0.930 . S
H4334 C4350 0.931 . S
C4335 H4323 0.929 . S
C4335 C4329 1.390 . S
C4335 C4332 1.386 . S
C4336 C4331 1.490 . S
C4336 C4338 1.395 1_655 S
C4336 C4339 1.403 . S
H4337 C4343 0.938 . S
C4338 H4324 0.930 . S
C4338 C4336 1.395 1_455 S
C4338 C4341 1.403 . S
C4339 C4336 1.403 . S
C4339 C4340 1.524 . S
C4339 C4343 1.408 . S
C4340 H4325 0.960 . S
C4340 H4326 0.960 . S
C4340 H4327 0.960 . S
C4340 C4339 1.524 . S
C4341 C4338 1.403 . S
C4341 C4342 1.392 . S
C4341 C4345 1.495 . S
C4342 C4341 1.392 . S
C4342 C4343 1.370 1_455 S
C4342 C4344 1.478 . S
C4343 H4337 0.938 . S
C4343 C4339 1.408 . S
C4343 C4342 1.370 1_655 S
C4344 C4342 1.478 . S
C4344 C4346 1.381 . S
C4344 C4350 1.383 . S
C4345 C4341 1.495 . S
C4345 H4351 0.959 . S
C4345 H4352 0.961 . S
C4345 H4353 0.960 . S
C4346 C4344 1.381 . S
C4346 C4347 1.394 . S
C4346 H4354 0.930 . S
C4347 C4346 1.394 . S
C4347 C4348 1.383 . S
C4347 H4355 0.929 . S
C4348 C4347 1.383 . S
C4348 C4349 1.377 . S
C4349 H4333 0.930 . S
C4349 C4348 1.377 . S
C4349 C4350 1.379 . S
C4350 H4334 0.931 . S
C4350 C4344 1.383 . S
C4350 C4349 1.379 . S
H4351 C4345 0.959 . S
H4352 C4345 0.961 . S
H4353 C4345 0.960 . S
H4354 C4346 0.930 . S
H4355 C4347 0.929 . S
H4356 C4364 0.904 1_554 S
H4357 C4366 0.889 1_554 S
H4358 C4368 0.930 . S
H4359 C4371 0.929 . S
H4360 C4374 0.930 . S
H4361 C4376 0.960 . S
H4362 C4376 0.960 . S
H4363 C4376 0.960 . S
C4364 H4356 0.904 1_556 S
C4364 C4365 1.377 . S
C4364 C4366 1.399 . S
C4365 C4364 1.377 . S
C4365 C4371 1.390 . S
C4366 H4357 0.889 1_556 S
C4366 C4364 1.399 . S
C4366 C4367 1.398 . S
C4367 C4366 1.398 . S
C4367 C4368 1.400 . S
C4367 C4372 1.490 . S
C4368 H4358 0.930 . S
C4368 C4367 1.400 . S
C4368 C4371 1.386 . S
H4369 C4385 0.891 1_556 S
H4370 C4386 0.931 1_556 S
C4371 H4359 0.929 . S
C4371 C4365 1.390 . S
C4371 C4368 1.386 . S
C4372 C4367 1.490 . S
C4372 C4374 1.395 1_556 S
C4372 C4375 1.403 . S
H4373 C4379 0.929 . S
C4374 H4360 0.930 . S
C4374 C4372 1.395 1_554 S
C4374 C4377 1.403 . S
C4375 C4372 1.403 . S
C4375 C4376 1.524 . S
C4375 C4379 1.386 1_556 S
C4376 H4361 0.960 . S
C4376 H4362 0.960 . S
C4376 H4363 0.960 . S
C4376 C4375 1.524 . S
C4377 C4374 1.403 . S
C4377 C4378 1.392 . S
C4377 C4381 1.495 . S
C4378 C4377 1.392 . S
C4378 C4379 1.402 . S
C4378 C4380 1.478 . S
C4379 H4373 0.929 . S
C4379 C4375 1.386 1_554 S
C4379 C4378 1.402 . S
C4380 C4378 1.478 . S
C4380 C4382 1.381 . S
C4380 C4386 1.383 . S
C4381 C4377 1.495 . S
C4381 H4387 0.959 . S
C4381 H4388 0.961 . S
C4381 H4389 0.960 . S
C4382 C4380 1.381 . S
C4382 C4383 1.394 . S
C4382 H4390 0.930 . S
C4383 C4382 1.394 . S
C4383 C4384 1.383 . S
C4383 H4391 0.929 . S
C4384 C4383 1.383 . S
C4384 C4385 1.377 . S
C4385 H4369 0.891 1_554 S
C4385 C4384 1.377 . S
C4385 C4386 1.379 . S
C4386 H4370 0.931 1_554 S
C4386 C4380 1.383 . S
C4386 C4385 1.379 . S
H4387 C4381 0.959 . S
H4388 C4381 0.961 . S
H4389 C4381 0.960 . S
H4390 C4382 0.930 . S
H4391 C4383 0.929 . S
H4392 C4400 0.929 . S
H4393 C4402 0.930 1_554 S
H4394 C4404 0.930 . S
H4395 C4407 0.929 . S
H4396 C4410 0.930 . S
H4397 C4412 0.960 . S
H4398 C4412 0.960 . S
H4399 C4412 0.960 1_545 S
C4400 H4392 0.929 . S
C4400 C4401 1.377 . S
C4400 C4402 1.384 . S
C4401 C4400 1.377 . S
C4401 C4407 1.390 . S
C4402 H4393 0.930 1_556 S
C4402 C4400 1.384 . S
C4402 C4403 1.372 . S
C4403 C4402 1.372 . S
C4403 C4404 1.400 . S
C4403 C4408 1.490 . S
C4404 H4394 0.930 . S
C4404 C4403 1.400 . S
C4404 C4407 1.386 . S
H4405 C4421 0.930 . S
H4406 C4422 0.906 1_556 S
C4407 H4395 0.929 . S
C4407 C4401 1.390 . S
C4407 C4404 1.386 . S
C4408 C4403 1.490 . S
C4408 C4410 1.395 1_556 S
C4408 C4411 1.403 1_545 S
H4409 C4415 0.930 . S
C4410 H4396 0.930 . S
C4410 C4408 1.395 1_554 S
C4410 C4413 1.403 . S
C4411 C4408 1.403 1_565 S
C4411 C4412 1.524 . S
C4411 C4415 1.400 . S
C4412 H4397 0.960 . S
C4412 H4398 0.960 . S
C4412 H4399 0.960 1_565 S
C4412 C4411 1.524 . S
C4413 C4410 1.403 . S
C4413 C4414 1.392 1_545 S
C4413 C4417 1.495 . S
C4414 C4413 1.392 1_565 S
C4414 C4415 1.385 1_554 S
C4414 C4416 1.478 . S
C4415 H4409 0.930 . S
C4415 C4411 1.400 . S
C4415 C4414 1.385 1_556 S
C4416 C4414 1.478 . S
C4416 C4418 1.381 . S
C4416 C4422 1.383 . S
C4417 C4413 1.495 . S
C4417 H4423 0.959 . S
C4417 H4424 0.961 . S
C4417 H4425 0.960 1_545 S
C4418 C4416 1.381 . S
C4418 C4419 1.394 . S
C4418 H4426 0.930 . S
C4419 C4418 1.394 . S
C4419 C4420 1.383 . S
C4419 H4427 0.929 . S
C4420 C4419 1.383 . S
C4420 C4421 1.377 . S
C4421 H4405 0.930 . S
C4421 C4420 1.377 . S
C4421 C4422 1.379 . S
C4422 H4406 0.906 1_554 S
C4422 C4416 1.383 . S
C4422 C4421 1.379 . S
H4423 C4417 0.959 . S
H4424 C4417 0.961 . S
H4425 C4417 0.960 1_565 S
H4426 C4418 0.930 . S
H4427 C4419 0.929 . S
H4428 C4436 0.929 . S
H4429 C4438 0.930 1_556 S
H4430 C4440 0.930 . S
H4431 C4443 0.929 . S
H4432 C4446 0.930 . S
H4433 C4448 0.911 1_655 S
H4434 C4448 0.960 . S
H4435 C4448 0.960 . S
C4436 H4428 0.929 . S
C4436 C4437 1.377 . S
C4436 C4438 1.384 . S
C4437 C4436 1.377 . S
C4437 C4443 1.390 . S
C4438 H4429 0.930 1_554 S
C4438 C4436 1.384 . S
C4438 C4439 1.372 . S
C4439 C4438 1.372 . S
C4439 C4440 1.400 . S
C4439 C4444 1.490 . S
C4440 H4430 0.930 . S
C4440 C4439 1.400 . S
C4440 C4443 1.386 . S
H4441 C4457 0.930 . S
H4442 C4458 0.931 . S
C4443 H4431 0.929 . S
C4443 C4437 1.390 . S
C4443 C4440 1.386 . S
C4444 C4439 1.490 . S
C4444 C4446 1.395 1_554 S
C4444 C4447 1.403 . S
H4445 C4451 0.930 . S
C4446 H4432 0.930 . S
C4446 C4444 1.395 1_556 S
C4446 C4449 1.403 1_455 S
C4447 C4444 1.403 . S
C4447 C4448 1.524 . S
C4447 C4451 1.400 1_455 S
C4448 H4433 0.911 1_455 S
C4448 H4434 0.960 . S
C4448 H4435 0.960 . S
C4448 C4447 1.524 . S
C4449 C4446 1.403 1_655 S
C4449 C4450 1.392 . S
C4449 C4453 1.495 . S
C4450 C4449 1.392 . S
C4450 C4451 1.385 1_556 S
C4450 C4452 1.478 . S
C4451 H4445 0.930 . S
C4451 C4447 1.400 1_655 S
C4451 C4450 1.385 1_554 S
C4452 C4450 1.478 . S
C4452 C4454 1.381 . S
C4452 C4458 1.383 . S
C4453 C4449 1.495 . S
C4453 H4459 0.959 1_655 S
C4453 H4460 0.961 . S
C4453 H4461 0.960 . S
C4454 C4452 1.381 . S
C4454 C4455 1.394 . S
C4454 H4462 0.930 . S
C4455 C4454 1.394 . S
C4455 C4456 1.383 . S
C4455 H4463 0.929 . S
C4456 C4455 1.383 . S
C4456 C4457 1.377 . S
C4457 H4441 0.930 . S
C4457 C4456 1.377 . S
C4457 C4458 1.379 . S
C4458 H4442 0.931 . S
C4458 C4452 1.383 . S
C4458 C4457 1.379 . S
H4459 C4453 0.959 1_455 S
H4460 C4453 0.961 . S
H4461 C4453 0.960 . S
H4462 C4454 0.930 . S
H4463 C4455 0.929 . S
C1233 C9 1.126 . S
C1252 C70 1.223 . S
C1269 C43 1.146 . S
C1288 C2 1.233 . S
C1305 C77 1.112 . S
C1324 C36 1.205 . S
C1341 C111 1.144 . S
C1360 C138 1.228 . S
C1377 C145 1.121 . S
C1396 C172 1.200 . S
C1413 C179 1.134 . S
C1432 C104 1.234 . S
C1449 C274 1.230 . S
C1468 C213 1.172 . S
C1485 C206 1.239 . S
C1504 C247 1.159 . S
C1521 C240 1.202 . S
C1540 C281 1.079 . S
C1557 C342 1.230 . S
C1576 C315 1.120 . S
C1593 C349 1.116 . S
C1612 C376 1.205 . S
C1629 C308 1.239 . S
C1648 C383 1.149 . S
C1665 C417 1.109 . S
C1684 C478 1.210 . S
C1701 C410 1.216 . S
C1720 C451 1.167 . S
C1737 C485 1.110 . S
C1756 C444 1.211 . S
C1773 C519 1.119 . S
C1792 C546 1.221 . S
C1809 C553 1.131 . S
C1828 C580 1.213 . S
C1845 C587 1.130 . S
C1864 C512 1.211 . S
C1881 C682 1.221 . S
C1900 C621 1.076 . S
C1917 C655 1.113 . S
C1936 C614 1.206 . S
C1953 C648 1.219 . S
C1972 C689 1.075 . S
C1989 C723 1.124 . S
C2008 C750 1.209 . S
C2025 C757 1.118 . S
C2044 C784 1.212 . S
C2061 C791 1.131 . S
C2080 C716 1.218 . S
C2097 C825 1.130 . S
C2116 C886 1.224 . S
C2133 C818 1.213 . S
C2152 C859 1.079 . S
C2169 C852 1.220 . S
C2188 C893 1.172 . S
C2205 C954 1.211 . S
C2224 C927 1.104 . S
C2241 C988 1.210 . S
C2260 C961 1.113 . S
C2277 C920 1.216 . S
C2296 C995 1.169 . S
C2313 C1090 1.212 . S
C2332 C1029 1.125 . S
C2349 C1022 1.215 . S
C2368 C1063 1.082 . S
C2385 C1097 1.109 . S
C2404 C1056 1.204 . S
C2421 C1158 1.222 . S
C2440 C1131 1.139 . S
C2457 C1192 1.218 . S
C2476 C1165 1.085 . S
C2493 C1124 1.215 . S
C2512 C1199 1.156 . S
C2529 C169 1.067 . S
C2548 C33 1.058 . S
C2565 C203 1.084 . S
C2584 C67 1.073 . S
C2601 C101 1.065 . S
C2620 C135 1.066 . S
C2637 C373 1.067 . S
C2656 C237 1.053 1_455 S
C2673 C271 1.085 . S
C2692 C407 1.084 . S
C2709 C305 1.069 . S
C2728 C339 1.050 . S
C2745 C441 1.089 . S
C2764 C577 1.086 . S
C2781 C611 1.089 . S
C2800 C475 1.084 . S
C2817 C543 1.085 . S
C2836 C509 1.089 . S
C2853 C645 1.087 . S
C2872 C781 1.076 . S
C2889 C679 1.086 . S
C2908 C815 1.093 . S
C2925 C747 1.089 . S
C2944 C713 1.077 . S
C2961 C849 1.084 . S
C2980 C985 1.089 . S
C2997 C883 1.089 . S
C3016 C1019 1.084 . S
C3033 C951 1.085 . S
C3052 C917 1.090 . S
C3069 C1053 1.087 . S
C3088 C1189 1.089 . S
C3105 C1087 1.087 . S
C3124 C1223 1.079 . S
C3141 C1155 1.084 . S
C3160 C1121 1.092 . S
C3177 C1006 1.870 . S
C3196 C20 1.859 . S
C3213 C938 1.878 . S
C3232 C54 1.874 . S
C3249 C88 1.856 . S
C3268 C972 1.852 . S
C3285 C122 1.868 . S
C3304 C462 1.865 . S
C3321 C496 1.858 . S
C3340 C156 1.848 . S
C3357 C190 1.879 . S
C3376 C428 1.870 . S
C3393 C224 1.867 . S
C3412 C802 1.869 . S
C3429 C258 1.879 . S
C3448 C734 1.871 . S
C3465 C768 1.857 . S
C3484 C292 1.847 . S
C3501 C1074 1.868 . S
C3520 C326 1.861 . S
C3537 C360 1.856 . S
C3556 C1108 1.850 . S
C3573 C394 1.879 . S
C3592 C1040 1.879 . S
C3609 C870 1.890 . S
C3628 C530 1.883 . S
C3645 C564 1.899 . S
C3664 C904 1.890 . S
C3681 C836 1.890 . S
C3700 C598 1.884 . S
C3717 C632 1.889 . S
C3736 C1210 1.889 . S
C3753 C666 1.889 . S
C3772 C1142 1.882 . S
C3789 C700 1.898 . S
C3808 C1176 1.889 . S
C3825 C5 1.455 . S
C3844 C617 1.474 . S
C3861 C651 1.413 . S
C3880 C39 1.425 . S
C3897 C685 1.439 . S
C3916 C73 1.434 . S
C3933 C107 1.456 . S
C3952 C1127 1.472 . S
C3969 C1161 1.440 . S
C3988 C141 1.446 . S
C4005 C175 1.408 . S
C4024 C1195 1.401 . S
C4041 C821 1.451 . S
C4060 C209 1.462 . S
C4077 C243 1.409 . S
C4096 C855 1.394 . S
C4113 C277 1.437 . S
C4132 C889 1.453 . S
C4149 C311 1.453 . S
C4168 C515 1.473 . S
C4185 C345 1.439 . S
C4204 C549 1.442 . S
C4221 C583 1.409 . S
C4240 C379 1.395 . S
C4257 C1025 1.421 . S
C4276 C413 1.435 . S
C4293 C447 1.438 . S
C4312 C1059 1.418 . S
C4329 C481 1.425 . S
C4348 C1093 1.406 . S
C4365 C719 1.421 . S
C4384 C923 1.435 . S
C4401 C753 1.428 . S
C4420 C957 1.433 . S
C4437 C991 1.436 . S
C4456 C787 1.436 . S
