# Generated by pormake.
# Topology smu, (6)-cn, num edge types: 1
# Building blocks:
#     Node 0, Type 0, BuildingBlock: UKALOJ_clean_sbu_0, # of connection points: 6
#     Node 1, Type 0, BuildingBlock: UKALOJ_clean_sbu_0, # of connection points: 6
#     Node 2, Type 0, BuildingBlock: UKALOJ_clean_sbu_0, # of connection points: 6
#     Node 3, Type 0, BuildingBlock: UKALOJ_clean_sbu_0, # of connection points: 6
#     Node 4, Type 0, BuildingBlock: UKALOJ_clean_sbu_0, # of connection points: 6
#     Node 5, Type 0, BuildingBlock: UKALOJ_clean_sbu_0, # of connection points: 6
#     Edge 6, Type (0, 0), BuildingBlock: XIVTED_clean_linker_0, # of connection points: 2
#     Edge 7, Type (0, 0), BuildingBlock: XIVTED_clean_linker_0, # of connection points: 2
#     Edge 8, Type (0, 0), BuildingBlock: XIVTED_clean_linker_0, # of connection points: 2
#     Edge 9, Type (0, 0), BuildingBlock: XIVTED_clean_linker_0, # of connection points: 2
#     Edge 10, Type (0, 0), BuildingBlock: XIVTED_clean_linker_0, # of connection points: 2
#     Edge 11, Type (0, 0), BuildingBlock: XIVTED_clean_linker_0, # of connection points: 2
#     Edge 12, Type (0, 0), BuildingBlock: XIVTED_clean_linker_0, # of connection points: 2
#     Edge 13, Type (0, 0), BuildingBlock: XIVTED_clean_linker_0, # of connection points: 2
#     Edge 14, Type (0, 0), BuildingBlock: XIVTED_clean_linker_0, # of connection points: 2
#     Edge 15, Type (0, 0), BuildingBlock: XIVTED_clean_linker_0, # of connection points: 2
#     Edge 16, Type (0, 0), BuildingBlock: XIVTED_clean_linker_0, # of connection points: 2
#     Edge 17, Type (0, 0), BuildingBlock: XIVTED_clean_linker_0, # of connection points: 2
#     Edge 18, Type (0, 0), BuildingBlock: XIVTED_clean_linker_0, # of connection points: 2
#     Edge 19, Type (0, 0), BuildingBlock: XIVTED_clean_linker_0, # of connection points: 2
#     Edge 20, Type (0, 0), BuildingBlock: XIVTED_clean_linker_0, # of connection points: 2
#     Edge 21, Type (0, 0), BuildingBlock: XIVTED_clean_linker_0, # of connection points: 2
#     Edge 22, Type (0, 0), BuildingBlock: XIVTED_clean_linker_0, # of connection points: 2
#     Edge 23, Type (0, 0), BuildingBlock: XIVTED_clean_linker_0, # of connection points: 2
# Relax obj value: 0.182
# Max RMSD: 0.229
# Mean RMSD: 0.229
data_MOF--net-smu--node1-UKALOJ_clean_sbu_0--edge1-XIVTED_clean_linker_0
_symmetry_space_group_name_H-M    P1
_symmetry_Int_Tables_number       1
_symmetry_cell_setting            triclinic
loop_
_symmetry_equiv_pos_as_xyz
'x, y, z'
_cell_length_a     27.707005
_cell_length_b     27.683891
_cell_length_c     40.243009
_cell_angle_alpha  90.075583
_cell_angle_beta   90.155898
_cell_angle_gamma 119.99865
loop_
_atom_site_label
_atom_site_type_symbol
_atom_site_fract_x
_atom_site_fract_y
_atom_site_fract_z
_atom_type_partial_charge
Zn0 Zn 0.32621 0.06112 0.29697 0.0
O1 O 0.26813 0.08719 0.3054 0.0
C2 C 0.2382 0.94884 0.27954 0.0
Zn3 Zn 0.31282 0.05394 0.2421 0.0
C4 C 0.24419 0.09251 0.27988 0.0
O5 O 0.25351 0.07861 0.25155 0.0
C6 C 0.40073 0.03053 0.25887 0.0
O7 O 0.37109 0.13824 0.23386 0.0
O8 O 0.38577 0.14536 0.28785 0.0
N9 N 0.28777 0.04106 0.1935 0.0
C10 C 0.31236 0.04576 0.16382 0.0
C11 C 0.22564 0.01279 0.15479 0.0
N12 N 0.23398 0.02058 0.1877 0.0
N13 N 0.27399 0.02798 0.13902 0.0
C14 C 0.31911 0.04708 0.37411 0.0
C15 C 0.40349 0.10023 0.38896 0.0
N16 N 0.34844 0.07141 0.34637 0.0
N17 N 0.40083 0.10462 0.35572 0.0
N18 N 0.35277 0.06404 0.40108 0.0
H19 H 0.24002 0.01336 0.39897 0.0
H20 H 0.24818 0.96534 0.37275 0.0
H21 H 0.23661 0.01801 0.35431 0.0
C22 C 0.25729 0.00901 0.37503 0.0
C23 C 0.37381 0.07009 0.1594 0.0
H24 H 0.39701 0.09931 0.17999 0.0
H25 H 0.38747 0.09227 0.13531 0.0
H26 H 0.38375 0.03593 0.15971 0.0
O27 O 0.37438 0.03252 0.23351 0.0
O28 O 0.38648 0.0378 0.28764 0.0
C29 C 0.39509 0.16801 0.25931 0.0
O30 O 0.2643 0.97746 0.30487 0.0
O31 O 0.25275 0.97032 0.25089 0.0
Zn32 Zn 0.72461 0.66638 0.23996 0.0
O33 O 0.75186 0.60906 0.23234 0.0
C34 C 0.61356 0.57696 0.25526 0.0
Zn35 Zn 0.71714 0.65283 0.29482 0.0
C36 C 0.7579 0.58555 0.25786 0.0
O37 O 0.74381 0.59449 0.28631 0.0
C38 C 0.69122 0.73948 0.27667 0.0
O39 O 0.80056 0.7121 0.30441 0.0
O40 O 0.80816 0.7266 0.25063 0.0
N41 N 0.70401 0.63092 0.34423 0.0
C42 C 0.70849 0.66081 0.37175 0.0
C43 C 0.67699 0.5767 0.38701 0.0
N44 N 0.68468 0.57868 0.35384 0.0
N45 N 0.69127 0.6277 0.39881 0.0
C46 C 0.71954 0.66752 0.16147 0.0
C47 C 0.77423 0.75429 0.1533 0.0
N48 N 0.73836 0.69175 0.19148 0.0
N49 N 0.77225 0.74557 0.1862 0.0
N50 N 0.74143 0.70615 0.13701 0.0
H51 H 0.68759 0.58253 0.17695 0.0
H52 H 0.69111 0.5927 0.13233 0.0
H53 H 0.63822 0.59647 0.15632 0.0
C54 C 0.6822 0.60613 0.15642 0.0
C55 C 0.73209 0.72268 0.37245 0.0
H56 H 0.76129 0.74315 0.35162 0.0
H57 H 0.75415 0.74049 0.3963 0.0
H58 H 0.69738 0.73153 0.37038 0.0
O59 O 0.69338 0.71351 0.30207 0.0
O60 O 0.69968 0.7255 0.24818 0.0
C61 C 0.83051 0.73624 0.27928 0.0
O62 O 0.6422 0.60386 0.23022 0.0
O63 O 0.63436 0.59129 0.28427 0.0
Zn64 Zn 0.91664 0.26049 0.29587 0.0
O65 O 0.89095 0.17612 0.30368 0.0
C66 C 0.02833 0.28449 0.27617 0.0
Zn67 Zn 0.9221 0.25484 0.24064 0.0
C68 C 0.8843 0.14713 0.27781 0.0
O69 O 0.89705 0.17073 0.2496 0.0
C70 C 0.9465 0.3662 0.2583 0.0
O71 O 0.83791 0.23002 0.23416 0.0
O72 O 0.83188 0.23577 0.28837 0.0
N73 N 0.93044 0.24158 0.19132 0.0
C74 C 0.92368 0.26167 0.16217 0.0
C75 C 0.9496 0.20289 0.15086 0.0
N76 N 0.94655 0.20515 0.18409 0.0
N77 N 0.93558 0.23799 0.13635 0.0
C78 C 0.9348 0.26627 0.37301 0.0
C79 C 0.883 0.29784 0.38972 0.0
N80 N 0.90948 0.27229 0.34591 0.0
N81 N 0.87712 0.29169 0.35644 0.0
N82 N 0.9193 0.2825 0.40075 0.0
H83 H 0.96308 0.21362 0.35106 0.0
H84 H 0.96806 0.21874 0.39587 0.0
H85 H 0.0161 0.27641 0.3708 0.0
C86 C 0.9724 0.24195 0.37257 0.0
C87 C 0.90269 0.30189 0.15923 0.0
H88 H 0.87536 0.29728 0.1805 0.0
H89 H 0.87942 0.29526 0.13561 0.0
H90 H 0.93874 0.34503 0.15951 0.0
O91 O 0.94409 0.33812 0.2327 0.0
O92 O 0.93945 0.34427 0.28694 0.0
C93 C 0.8087 0.22337 0.25986 0.0
O94 O 0.00082 0.28229 0.30188 0.0
O95 O 0.00571 0.27727 0.24775 0.0
Zn96 Zn 0.05714 0.32421 0.79547 0.0
O97 O 0.14188 0.3835 0.79956 0.0
C98 C 0.03401 0.412 0.77706 0.0
Zn99 Zn 0.06071 0.33357 0.74016 0.0
C100 C 0.17036 0.40487 0.7735 0.0
O101 O 0.14619 0.39328 0.74531 0.0
C102 C 0.94932 0.24687 0.76253 0.0
O103 O 0.08482 0.27356 0.73295 0.0
O104 O 0.08045 0.2636 0.78718 0.0
N105 N 0.06534 0.3498 0.68989 0.0
C106 C 0.03868 0.3178 0.66319 0.0
C107 C 0.09141 0.4004 0.64556 0.0
N108 N 0.09821 0.40106 0.67877 0.0
N109 N 0.05396 0.34867 0.63512 0.0
C110 C 0.02239 0.3097 0.87056 0.0
C111 C 0.07564 0.2822 0.89086 0.0
N112 N 0.05459 0.30923 0.84557 0.0
N113 N 0.08773 0.29233 0.85835 0.0
N114 N 0.03499 0.29305 0.89922 0.0
H115 H -0.00546 0.36892 0.87016 0.0
H116 H 0.94358 0.30112 0.88517 0.0
H117 H 0.9586 0.3124 0.84118 0.0
C118 C 0.97682 0.32341 0.86648 0.0
C119 C 0.00014 0.25608 0.66439 0.0
H120 H 0.00361 0.23605 0.64131 0.0
H121 H 0.95677 0.24777 0.66626 0.0
H122 H 0.00934 0.23754 0.68616 0.0
O123 O 0.97587 0.27149 0.73639 0.0
O124 O 0.97306 0.2629 0.79067 0.0
C125 C 0.092 0.25172 0.75886 0.0
O126 O 0.03729 0.38712 0.80271 0.0
O127 O 0.03947 0.39581 0.74843 0.0
Zn128 Zn 0.2567 0.93471 0.79348 0.0
O129 O 0.22871 0.84974 0.80075 0.0
C130 C 0.36725 0.95574 0.77771 0.0
Zn131 Zn 0.26338 0.92879 0.73859 0.0
C132 C 0.22284 0.8206 0.77501 0.0
O133 O 0.23707 0.84408 0.74675 0.0
C134 C 0.28966 0.04132 0.75716 0.0
O135 O 0.17959 0.90443 0.72941 0.0
O136 O 0.17353 0.9123 0.78325 0.0
N137 N 0.27594 0.91978 0.68917 0.0
C138 C 0.27122 0.94481 0.6616 0.0
C139 C 0.30152 0.89111 0.64636 0.0
N140 N 0.29455 0.88625 0.67958 0.0
N141 N 0.28751 0.92793 0.63449 0.0
C142 C 0.2615 0.93992 0.87199 0.0
C143 C 0.20747 0.97273 0.88036 0.0
N144 N 0.24329 0.9462 0.84202 0.0
N145 N 0.20984 0.96662 0.84743 0.0
N146 N 0.23958 0.95651 0.89654 0.0
H147 H 0.29299 0.88666 0.85611 0.0
H148 H 0.28876 0.89235 0.90078 0.0
H149 H 0.34239 0.94932 0.87739 0.0
C150 C 0.29828 0.91525 0.8769 0.0
C151 C 0.24812 0.98348 0.66094 0.0
H152 H 0.21901 0.97494 0.68182 0.0
H153 H 0.22607 0.97936 0.63713 0.0
H154 H 0.28307 0.02696 0.66309 0.0
O155 O 0.28687 0.01315 0.73158 0.0
O156 O 0.28217 0.019 0.7856 0.0
C157 C 0.1504 0.89933 0.75483 0.0
O158 O 0.33883 0.95384 0.80292 0.0
O159 O 0.34639 0.95002 0.74877 0.0
Zn160 Zn 0.65328 0.72541 0.7366 0.0
O161 O 0.71107 0.81008 0.7288 0.0
C162 C 0.74168 0.70189 0.75435 0.0
Zn163 Zn 0.66555 0.73064 0.7916 0.0
C164 C 0.73431 0.83877 0.75468 0.0
O165 O 0.7245 0.81482 0.78275 0.0
C166 C 0.57854 0.61937 0.77394 0.0
O167 O 0.60659 0.75597 0.79962 0.0
O168 O 0.59304 0.74917 0.74552 0.0
N169 N 0.68992 0.74254 0.84038 0.0
C170 C 0.66528 0.7223 0.87001 0.0
C171 C 0.75175 0.77709 0.87924 0.0
N172 N 0.74355 0.77648 0.84633 0.0
N173 N 0.70348 0.74335 0.8949 0.0
C174 C 0.66155 0.71851 0.65949 0.0
C175 C 0.57718 0.68599 0.64427 0.0
N176 N 0.63183 0.71363 0.68705 0.0
N177 N 0.57945 0.69368 0.67746 0.0
N178 N 0.62815 0.70089 0.63241 0.0
H179 H 0.74078 0.7646 0.63494 0.0
H180 H 0.73297 0.70867 0.66113 0.0
H181 H 0.74366 0.77266 0.67963 0.0
C182 C 0.72345 0.74291 0.65883 0.0
C183 C 0.60393 0.68438 0.87427 0.0
H184 H 0.58058 0.69002 0.85365 0.0
H185 H 0.58985 0.69249 0.89836 0.0
H186 H 0.59467 0.64049 0.87385 0.0
O187 O 0.60431 0.64736 0.79957 0.0
O188 O 0.59331 0.64144 0.74536 0.0
C189 C 0.583 0.76193 0.77406 0.0
O190 O 0.71586 0.70451 0.72894 0.0
O191 O 0.72633 0.70799 0.78297 0.0
H192 H 0.16077 0.93553 0.94169 0.0
H193 H 0.3418 -0.00111 0.10514 0.0
H194 H 0.33476 0.98627 0.93252 0.0
H195 H 0.21362 0.04238 0.09207 0.0
H196 H 0.33743 0.97936 0.04516 0.0
H197 H 0.17416 0.95451 1.00115 0.0
C198 C 0.20166 0.94982 0.95235 0.0
C199 C 0.24655 0.95899 0.93212 0.0
C200 C 0.311 -0.00601 0.05555 0.0
C201 C 0.26239 0.98131 1.00029 0.0
C202 C 0.31392 0.00585 0.08966 0.0
C203 C 0.27852 0.02317 0.10362 0.0
C204 C 0.27141 -0.00194 0.03572 0.0
C205 C 0.24156 0.02909 0.08242 0.0
C206 C 0.20935 0.96094 0.98621 0.0
C207 C 0.29875 0.97749 0.94727 0.0
N208 N 0.23858 0.01605 0.04974 0.0
N209 N 0.30538 0.98826 0.98059 0.0
H210 H 0.68907 0.6543 0.61231 0.0
H211 H 0.64324 0.68723 0.41887 0.0
H212 H 0.59326 0.72696 0.5761 0.0
H213 H 0.72067 0.59593 0.45514 0.0
H214 H 0.63035 0.70809 0.47614 0.0
H215 H 0.70715 0.63859 0.555 0.0
C216 C 0.67284 0.668 0.59222 0.0
C217 C 0.64085 0.69329 0.59882 0.0
C218 C 0.65053 0.68382 0.47167 0.0
C219 C 0.65985 0.67394 0.53315 0.0
C220 C 0.65845 0.67248 0.43896 0.0
C221 C 0.68432 0.64103 0.43239 0.0
C222 C 0.6684 0.66333 0.49804 0.0
C223 C 0.70102 0.62075 0.45933 0.0
C224 C 0.68254 0.65839 0.5595 0.0
C225 C 0.61858 0.70787 0.57191 0.0
N226 N 0.69302 0.63244 0.49101 0.0
N227 N 0.62866 0.69821 0.54023 0.0
H228 H 0.97432 0.33656 0.10321 0.0
H229 H -0.00725 0.19855 0.93436 0.0
H230 H 0.90174 0.15937 0.08891 0.0
H231 H 0.02073 0.36602 0.93727 0.0
H232 H 0.95763 0.18412 0.99125 0.0
H233 H -0.01107 0.3498 0.04294 0.0
C234 C 0.95994 0.30036 0.08732 0.0
C235 C 0.93632 0.24667 0.10101 0.0
C236 C 0.97073 0.22392 0.97948 0.0
C237 C 0.9546 0.26159 0.03238 0.0
C238 C -0.00918 0.23204 0.94708 0.0
C239 C 0.00925 0.28331 0.93133 0.0
C240 C 0.97024 0.26792 0.99666 0.0
C241 C 0.00625 0.32572 0.94868 0.0
C242 C 0.96876 0.30795 0.05296 0.0
C243 C 0.92019 0.2014 0.07934 0.0
N244 N -0.01224 0.31737 0.98068 0.0
N245 N 0.93008 0.20989 0.04626 0.0
H246 H 0.3876 0.12755 0.45645 0.0
H247 H 0.25703 0.86448 0.57908 0.0
H248 H 0.29257 0.95735 0.42266 0.0
H249 H 0.33439 0.03474 0.61302 0.0
H250 H 0.27072 0.8975 0.52142 0.0
H251 H 0.36977 0.09459 0.51415 0.0
C252 C 0.36253 0.08328 0.46131 0.0
C253 C 0.3404 0.04519 0.43492 0.0
C254 C 0.28421 0.92767 0.54147 0.0
C255 C 0.32041 0.00692 0.50055 0.0
C256 C 0.27644 0.90879 0.57426 0.0
C257 C 0.29343 0.94688 0.60069 0.0
C258 C 0.31003 0.98521 0.53509 0.0
C259 C 0.31906 0.00395 0.59334 0.0
C260 C 0.35229 0.06443 0.49413 0.0
C261 C 0.30879 0.98816 0.44232 0.0
N262 N 0.32668 0.0214 0.56124 0.0
N263 N 0.29983 0.97074 0.47443 0.0
H264 H 0.63665 0.6461 0.9287 0.0
H265 H 0.81917 0.76474 0.09144 0.0
H266 H 0.76293 0.81857 0.94197 0.0
H267 H 0.64552 0.64078 0.10147 0.0
H268 H 0.80457 0.77048 0.03218 0.0
H269 H 0.64166 0.63106 0.98863 0.0
C270 C 0.66421 0.68111 0.94421 0.0
C271 C 0.69896 0.73401 0.93031 0.0
C272 C 0.76973 0.74153 0.04726 0.0
C273 C 0.7068 0.71622 0.99814 0.0
C274 C 0.7781 0.73802 0.08102 0.0
C275 C 0.7337 0.702 0.10146 0.0
C276 C 0.71649 0.70861 0.03347 0.0
C277 C 0.68123 0.66818 0.08657 0.0
C278 C 0.6675 0.67226 0.9783 0.0
C279 C 0.73552 0.77719 0.95156 0.0
N280 N 0.67395 0.67236 0.05334 0.0
N281 N 0.7389 0.76722 0.98419 0.0
H282 H 0.02646 0.32647 0.42146 0.0
H283 H 0.94643 0.28552 0.61472 0.0
H284 H 0.85776 0.253 0.45679 0.0
H285 H 0.115 0.37951 0.579 0.0
H286 H 0.91294 0.26488 0.55722 0.0
H287 H 0.05949 0.33811 0.47893 0.0
C288 C -0.00371 0.3117 0.44135 0.0
C289 C 0.93918 0.2875 0.43441 0.0
C290 C 0.95731 0.28957 0.56191 0.0
C291 C 0.97671 0.30214 0.50038 0.0
C292 C 0.97646 0.30073 0.59475 0.0
C293 C 0.03367 0.33321 0.60157 0.0
C294 C -0.00435 0.31121 0.53565 0.0
C295 C 0.07061 0.35396 0.5747 0.0
C296 C 0.01518 0.31896 0.47419 0.0
C297 C 0.90207 0.27139 0.4612 0.0
N298 N 0.05104 0.34253 0.54294 0.0
N299 N 0.92141 0.27883 0.49301 0.0
H300 H 0.4634 0.01822 0.30683 0.0
H301 H 0.74413 0.19097 0.20343 0.0
H302 H 0.46461 0.05648 0.20276 0.0
H303 H 0.73381 0.1833 0.31056 0.0
H304 H 0.64303 0.12863 0.20036 0.0
H305 H 0.56431 0.05955 0.30527 0.0
C306 C 0.4847 0.03381 0.28338 0.0
C307 C 0.45575 0.03513 0.25508 0.0
C308 C 0.66307 0.14075 0.22448 0.0
C309 C 0.57125 0.08385 0.25338 0.0
C310 C 0.72059 0.17672 0.22628 0.0
C311 C 0.7474 0.19271 0.25732 0.0
C312 C 0.63243 0.1203 0.25391 0.0
C313 C 0.71494 0.17254 0.2861 0.0
C314 C 0.54241 0.05804 0.28261 0.0
C315 C 0.48539 0.05523 0.22528 0.0
N316 N 0.65924 0.13726 0.28367 0.0
N317 N 0.54187 0.08 0.22535 0.0
H318 H 0.57696 0.51313 0.19866 0.0
H319 H 0.43484 0.24312 0.31011 0.0
H320 H 0.53824 0.51344 0.30247 0.0
H321 H 0.42392 0.23261 0.20298 0.0
H322 H 0.47458 0.34345 0.30653 0.0
H323 H 0.51716 0.41169 0.19765 0.0
C324 C 0.55439 0.49219 0.22093 0.0
C325 C 0.56357 0.52161 0.25092 0.0
C326 C 0.46343 0.31931 0.28375 0.0
C327 C 0.4967 0.40588 0.2501 0.0
C328 C 0.44141 0.26197 0.28575 0.0
C329 C 0.42624 0.22936 0.25678 0.0
C330 C 0.47108 0.34463 0.25254 0.0
C331 C 0.43532 0.25625 0.22594 0.0
C332 C 0.52075 0.43418 0.22041 0.0
C333 C 0.53321 0.49229 0.27898 0.0
N334 N 0.45743 0.31252 0.2246 0.0
N335 N 0.50209 0.4359 0.27807 0.0
H336 H 0.95761 0.43969 0.30702 0.0
H337 H 0.79368 0.55665 0.20164 0.0
H338 H 0.9238 0.4072 0.2021 0.0
H339 H 0.7957 0.54851 0.3088 0.0
H340 H 0.85547 0.51713 0.19926 0.0
H341 H 0.91833 0.50111 0.30517 0.0
C342 C 0.94339 0.44671 0.28337 0.0
C343 C 0.94267 0.41718 0.25485 0.0
C344 C 0.84226 0.52406 0.22323 0.0
C345 C 0.89635 0.48618 0.25277 0.0
C346 C 0.80663 0.54607 0.22462 0.0
C347 C 0.78909 0.55541 0.25546 0.0
C348 C 0.86082 0.51197 0.25288 0.0
C349 C 0.80764 0.54153 0.28445 0.0
C350 C 0.92036 0.48128 0.28241 0.0
C351 C 0.92443 0.42851 0.22479 0.0
N352 N 0.84258 0.52068 0.28242 0.0
N353 N 0.90078 0.46127 0.22466 0.0
H354 H 0.05392 0.47494 0.83349 0.0
H355 H 0.18892 0.74715 0.72337 0.0
H356 H 0.02707 0.47582 0.72779 0.0
H357 H 0.18379 0.75434 0.83046 0.0
H358 H 0.12781 0.64682 0.72562 0.0
H359 H 0.09407 0.57613 0.83454 0.0
C360 C 0.05476 0.4961 0.81068 0.0
C361 C 0.03849 0.46712 0.78031 0.0
C362 C 0.13986 0.67022 0.74868 0.0
C363 C 0.08553 0.58262 0.78128 0.0
C364 C 0.17545 0.72756 0.74745 0.0
C365 C 0.19183 0.75921 0.77681 0.0
C366 C 0.12081 0.64395 0.77951 0.0
C367 C 0.17246 0.73143 0.80724 0.0
C368 C 0.07823 0.55397 0.81127 0.0
C369 C 0.0402 0.49664 0.75163 0.0
N370 N 0.13808 0.6752 0.80783 0.0
N371 N 0.06455 0.55295 0.7527 0.0
H372 H 0.40467 0.92947 0.83426 0.0
H373 H 0.54182 0.79538 0.72314 0.0
H374 H 0.44049 0.96423 0.72986 0.0
H375 H 0.55502 0.79913 0.83022 0.0
H376 H 0.50235 0.85622 0.72638 0.0
H377 H 0.46313 0.88639 0.83524 0.0
C378 C 0.4263 0.92981 0.81181 0.0
C379 C 0.41669 0.94936 0.78172 0.0
C380 C 0.51393 0.84389 0.74922 0.0
C381 C 0.48206 0.89885 0.78254 0.0
C382 C 0.5358 0.80844 0.74742 0.0
C383 C 0.55161 0.79193 0.77648 0.0
C384 C 0.5071 0.86268 0.7803 0.0
C385 C 0.54315 0.81066 0.8072 0.0
C386 C 0.45917 0.90463 0.81233 0.0
C387 C 0.44588 0.94874 0.75346 0.0
N388 N 0.52123 0.845 0.80834 0.0
N389 N 0.47627 0.92272 0.7544 0.0
H390 H 0.236 0.43811 0.82936 0.0
H391 H 0.51581 0.54618 0.72508 0.0
H392 H 0.24427 0.43761 0.7222 0.0
H393 H 0.51451 0.57926 0.82985 0.0
H394 H 0.41485 0.48668 0.72638 0.0
H395 H 0.33689 0.47635 0.8319 0.0
C396 C 0.25907 0.44662 0.80637 0.0
C397 C 0.23172 0.43511 0.77549 0.0
C398 C 0.43674 0.50618 0.74923 0.0
C399 C 0.34666 0.47728 0.77831 0.0
C400 C 0.49449 0.53961 0.7486 0.0
C401 C 0.52345 0.56881 0.77723 0.0
C402 C 0.40788 0.50206 0.77866 0.0
C403 C 0.49376 0.55814 0.80709 0.0
C404 C 0.31652 0.4679 0.80787 0.0
C405 C 0.26362 0.44636 0.74654 0.0
N406 N 0.43728 0.52651 0.80689 0.0
N407 N 0.31936 0.46668 0.74868 0.0
H408 H 0.2201 0.13432 0.3354 0.0
H409 H 0.09733 0.28918 0.22647 0.0
H410 H 0.20181 0.1238 0.22855 0.0
H411 H 0.07428 0.26815 0.33256 0.0
H412 H 0.15761 0.24871 0.2289 0.0
H413 H 0.18169 0.19719 0.33638 0.0
C414 C 0.20744 0.14466 0.31224 0.0
C415 C 0.21381 0.12347 0.28187 0.0
C416 C 0.14003 0.25376 0.25176 0.0
C417 C 0.17179 0.19644 0.28277 0.0
C418 C 0.10611 0.27749 0.25046 0.0
C419 C 0.07926 0.28045 0.27925 0.0
C420 C 0.14705 0.23286 0.28204 0.0
C421 C 0.09305 0.26555 0.30967 0.0
C422 C 0.18615 0.18096 0.3128 0.0
C423 C 0.19734 0.13874 0.25258 0.0
N424 N 0.12508 0.24114 0.31022 0.0
N425 N 0.17732 0.17442 0.25377 0.0
H426 H 0.89462 0.76261 0.3359 0.0
H427 H 0.17461 0.87542 0.23105 0.0
H428 H 0.90581 0.77664 0.22894 0.0
H429 H 0.17488 0.90866 0.33588 0.0
H430 H 0.07367 0.81633 0.23288 0.0
H431 H -0.00426 0.80044 0.33856 0.0
C432 C 0.91834 0.77425 0.31305 0.0
C433 C 0.89178 0.76679 0.28216 0.0
C434 C 0.09596 0.83583 0.25563 0.0
C435 C 0.00653 0.80804 0.28502 0.0
C436 C 0.15369 0.86902 0.2547 0.0
C437 C 0.18312 0.89831 0.28318 0.0
C438 C 0.06757 0.83197 0.28522 0.0
C439 C 0.15385 0.8877 0.31322 0.0
C440 C 0.97582 0.7952 0.31459 0.0
C441 C 0.92444 0.78199 0.25333 0.0
N442 N 0.09735 0.85629 0.31334 0.0
N443 N 0.97998 0.8016 0.25548 0.0
H444 H 0.85264 0.07451 0.22587 0.0
H445 H 0.70747 0.80064 0.33364 0.0
H446 H 0.8424 0.08003 0.3328 0.0
H447 H 0.68533 0.8043 0.22767 0.0
H448 H 0.74888 0.90171 0.33548 0.0
H449 H 0.78956 0.97455 0.22721 0.0
C450 C 0.83765 0.05461 0.24975 0.0
C451 C 0.85309 0.08573 0.27931 0.0
C452 C 0.73377 0.88021 0.31196 0.0
C453 C 0.77974 0.97087 0.28093 0.0
C454 C 0.70956 0.8223 0.31092 0.0
C455 C 0.69454 0.79408 0.2803 0.0
C456 C 0.743 0.9097 0.28213 0.0
C457 C 0.69761 0.82447 0.25174 0.0
C458 C 0.80091 -0.00251 0.25043 0.0
C459 C 0.83186 0.05754 0.30944 0.0
N460 N 0.72275 0.88083 0.25323 0.0
N461 N 0.79631 0.0015 0.3095 0.0
H462 H 0.1251 0.21157 0.8105 0.0
H463 H 0.27145 0.08553 0.70064 0.0
H464 H 0.132 0.22526 0.70347 0.0
H465 H 0.29488 0.11131 0.80659 0.0
H466 H 0.22802 0.14339 0.69959 0.0
H467 H 0.1887 0.1753 0.80846 0.0
C468 C 0.13941 0.20627 0.78647 0.0
C469 C 0.12296 0.22129 0.75708 0.0
C470 C 0.24382 0.13739 0.72294 0.0
C471 C 0.19693 0.18059 0.75464 0.0
C472 C 0.26922 0.10477 0.72351 0.0
C473 C 0.28527 0.09206 0.75391 0.0
C474 C 0.23443 0.15707 0.75298 0.0
C475 C 0.28189 0.11886 0.78268 0.0
C476 C 0.17644 0.18626 0.78537 0.0
C477 C 0.14333 0.21386 0.72672 0.0
N478 N 0.2556 0.14901 0.78165 0.0
N479 N 0.17925 0.19385 0.72627 0.0
H480 H 0.07726 0.87297 0.80581 0.0
H481 H 0.80336 0.7201 0.69757 0.0
H482 H 0.08383 0.85477 0.69953 0.0
H483 H 0.80825 0.69942 0.80357 0.0
H484 H 0.90468 0.76413 0.69602 0.0
H485 H 0.97725 0.81039 0.80408 0.0
C486 C 0.05759 0.85637 0.78197 0.0
C487 C 0.08905 0.86925 0.75274 0.0
C488 C 0.8834 0.7488 0.71948 0.0
C489 C 0.97414 0.79646 0.75071 0.0
C490 C 0.82539 0.72313 0.72036 0.0
C491 C 0.7973 0.70755 0.75089 0.0
C492 C 0.91313 0.759 0.74938 0.0
C493 C 0.8282 0.71197 0.77955 0.0
C494 C 0.00045 0.81992 0.78109 0.0
C495 C 0.0611 0.84615 0.72264 0.0
N496 N 0.88459 0.73849 0.77821 0.0
N497 N 0.00502 0.81084 0.72237 0.0
H498 H 0.88484 0.18086 0.81322 0.0
H499 H 0.75574 0.90657 0.70033 0.0
H500 H 0.8983 0.18611 0.70632 0.0
H501 H 0.77893 0.91079 0.80673 0.0
H502 H 0.79378 0.00783 0.70111 0.0
H503 H 0.82481 0.08008 0.81011 0.0
C504 C 0.87404 0.16108 0.78898 0.0
C505 C 0.89826 0.19181 0.76002 0.0
C506 C 0.79048 0.98637 0.72421 0.0
C507 C 0.83073 0.07637 0.75639 0.0
C508 C 0.76942 0.92879 0.72375 0.0
C509 C 0.76448 0.90022 0.75348 0.0
C510 C 0.80614 0.01522 0.75463 0.0
C511 C 0.78221 0.93099 0.78316 0.0
C512 C 0.84027 0.10339 0.78726 0.0
C513 C 0.88182 0.16396 0.72931 0.0
N514 N 0.80203 0.98671 0.78296 0.0
N515 N 0.85002 0.1075 0.7283 0.0
loop_
_geom_bond_atom_site_label_1
_geom_bond_atom_site_label_2
_geom_bond_distance
_geom_bond_site_symmetry_2
_ccdc_geom_bond_type
Zn0 O1 2.055 . S
Zn0 O8 2.046 . S
Zn0 N16 2.036 . S
Zn0 O28 2.053 . S
Zn0 O30 2.066 . S
O1 Zn0 2.055 . S
O1 C4 1.259 . S
C2 O30 1.256 . S
C2 O31 1.244 . S
Zn3 O5 2.046 . S
Zn3 O7 2.055 . S
Zn3 N9 2.036 . S
Zn3 O27 2.066 . S
Zn3 O31 2.053 . S
C4 O1 1.259 . S
C4 O5 1.254 . S
O5 Zn3 2.046 . S
O5 C4 1.254 . S
C6 O27 1.256 . S
C6 O28 1.244 . S
O7 Zn3 2.055 . S
O7 C29 1.259 . S
O8 Zn0 2.046 . S
O8 C29 1.254 . S
N9 Zn3 2.036 . S
N9 C10 1.298 . S
N9 N12 1.398 . S
C10 N9 1.298 . S
C10 N13 1.367 . S
C10 C23 1.481 . S
C11 N12 1.299 . S
C11 N13 1.379 . S
N12 N9 1.398 . S
N12 C11 1.299 . S
N13 C10 1.367 . S
N13 C11 1.379 . S
C14 N16 1.298 . S
C14 N18 1.367 . S
C14 C22 1.481 . S
C15 N17 1.299 . S
C15 N18 1.379 . S
N16 Zn0 2.036 . S
N16 C14 1.298 . S
N16 N17 1.398 . S
N17 C15 1.299 . S
N17 N16 1.398 . S
N18 C14 1.367 . S
N18 C15 1.379 . S
H19 C22 0.980 . S
H20 C22 0.981 . S
H21 C22 0.981 . S
C22 C14 1.481 . S
C22 H19 0.980 . S
C22 H20 0.981 . S
C22 H21 0.981 . S
C23 C10 1.481 . S
C23 H24 0.980 . S
C23 H25 0.981 . S
C23 H26 0.981 . S
H24 C23 0.980 . S
H25 C23 0.981 . S
H26 C23 0.981 . S
O27 Zn3 2.066 . S
O27 C6 1.256 . S
O28 Zn0 2.053 . S
O28 C6 1.244 . S
C29 O7 1.259 . S
C29 O8 1.254 . S
O30 Zn0 2.066 . S
O30 C2 1.256 . S
O31 C2 1.244 . S
O31 Zn3 2.053 . S
Zn32 O33 2.055 . S
Zn32 O40 2.046 . S
Zn32 N48 2.036 . S
Zn32 O60 2.053 . S
Zn32 O62 2.066 . S
O33 Zn32 2.055 . S
O33 C36 1.259 . S
C34 O62 1.256 . S
C34 O63 1.244 . S
Zn35 O37 2.046 . S
Zn35 O39 2.055 . S
Zn35 N41 2.036 . S
Zn35 O59 2.066 . S
Zn35 O63 2.053 . S
C36 O33 1.259 . S
C36 O37 1.254 . S
O37 Zn35 2.046 . S
O37 C36 1.254 . S
C38 O59 1.256 . S
C38 O60 1.244 . S
O39 Zn35 2.055 . S
O39 C61 1.259 . S
O40 Zn32 2.046 . S
O40 C61 1.254 . S
N41 Zn35 2.036 . S
N41 C42 1.298 . S
N41 N44 1.398 . S
C42 N41 1.298 . S
C42 N45 1.367 . S
C42 C55 1.481 . S
C43 N44 1.299 . S
C43 N45 1.379 . S
N44 N41 1.398 . S
N44 C43 1.299 . S
N45 C42 1.367 . S
N45 C43 1.379 . S
C46 N48 1.298 . S
C46 N50 1.367 . S
C46 C54 1.481 . S
C47 N49 1.299 . S
C47 N50 1.379 . S
N48 Zn32 2.036 . S
N48 C46 1.298 . S
N48 N49 1.398 . S
N49 C47 1.299 . S
N49 N48 1.398 . S
N50 C46 1.367 . S
N50 C47 1.379 . S
H51 C54 0.980 . S
H52 C54 0.981 . S
H53 C54 0.981 . S
C54 C46 1.481 . S
C54 H51 0.980 . S
C54 H52 0.981 . S
C54 H53 0.981 . S
C55 C42 1.481 . S
C55 H56 0.980 . S
C55 H57 0.981 . S
C55 H58 0.981 . S
H56 C55 0.980 . S
H57 C55 0.981 . S
H58 C55 0.981 . S
O59 Zn35 2.066 . S
O59 C38 1.256 . S
O60 Zn32 2.053 . S
O60 C38 1.244 . S
C61 O39 1.259 . S
C61 O40 1.254 . S
O62 Zn32 2.066 . S
O62 C34 1.256 . S
O63 C34 1.244 . S
O63 Zn35 2.053 . S
Zn64 O65 2.055 . S
Zn64 O72 2.046 . S
Zn64 N80 2.036 . S
Zn64 O92 2.053 . S
Zn64 O94 2.066 . S
O65 Zn64 2.055 . S
O65 C68 1.259 . S
C66 O94 1.256 . S
C66 O95 1.244 . S
Zn67 O69 2.046 . S
Zn67 O71 2.055 . S
Zn67 N73 2.036 . S
Zn67 O91 2.066 . S
Zn67 O95 2.053 . S
C68 O65 1.259 . S
C68 O69 1.254 . S
O69 Zn67 2.046 . S
O69 C68 1.254 . S
C70 O91 1.256 . S
C70 O92 1.244 . S
O71 Zn67 2.055 . S
O71 C93 1.259 . S
O72 Zn64 2.046 . S
O72 C93 1.254 . S
N73 Zn67 2.036 . S
N73 C74 1.298 . S
N73 N76 1.398 . S
C74 N73 1.298 . S
C74 N77 1.367 . S
C74 C87 1.481 . S
C75 N76 1.299 . S
C75 N77 1.379 . S
N76 N73 1.398 . S
N76 C75 1.299 . S
N77 C74 1.367 . S
N77 C75 1.379 . S
C78 N80 1.298 . S
C78 N82 1.367 . S
C78 C86 1.481 . S
C79 N81 1.299 . S
C79 N82 1.379 . S
N80 Zn64 2.036 . S
N80 C78 1.298 . S
N80 N81 1.398 . S
N81 C79 1.299 . S
N81 N80 1.398 . S
N82 C78 1.367 . S
N82 C79 1.379 . S
H83 C86 0.980 . S
H84 C86 0.981 . S
H85 C86 0.981 . S
C86 C78 1.481 . S
C86 H83 0.980 . S
C86 H84 0.981 . S
C86 H85 0.981 . S
C87 C74 1.481 . S
C87 H88 0.980 . S
C87 H89 0.981 . S
C87 H90 0.981 . S
H88 C87 0.980 . S
H89 C87 0.981 . S
H90 C87 0.981 . S
O91 Zn67 2.066 . S
O91 C70 1.256 . S
O92 Zn64 2.053 . S
O92 C70 1.244 . S
C93 O71 1.259 . S
C93 O72 1.254 . S
O94 Zn64 2.066 . S
O94 C66 1.256 . S
O95 C66 1.244 . S
O95 Zn67 2.053 . S
Zn96 O97 2.055 . S
Zn96 O104 2.046 . S
Zn96 N112 2.036 . S
Zn96 O124 2.053 . S
Zn96 O126 2.066 . S
O97 Zn96 2.055 . S
O97 C100 1.259 . S
C98 O126 1.256 . S
C98 O127 1.244 . S
Zn99 O101 2.046 . S
Zn99 O103 2.055 . S
Zn99 N105 2.036 . S
Zn99 O123 2.066 . S
Zn99 O127 2.053 . S
C100 O97 1.259 . S
C100 O101 1.254 . S
O101 Zn99 2.046 . S
O101 C100 1.254 . S
C102 O123 1.256 . S
C102 O124 1.244 . S
O103 Zn99 2.055 . S
O103 C125 1.259 . S
O104 Zn96 2.046 . S
O104 C125 1.254 . S
N105 Zn99 2.036 . S
N105 C106 1.298 . S
N105 N108 1.398 . S
C106 N105 1.298 . S
C106 N109 1.367 . S
C106 C119 1.481 . S
C107 N108 1.299 . S
C107 N109 1.379 . S
N108 N105 1.398 . S
N108 C107 1.299 . S
N109 C106 1.367 . S
N109 C107 1.379 . S
C110 N112 1.298 . S
C110 N114 1.367 . S
C110 C118 1.481 . S
C111 N113 1.299 . S
C111 N114 1.379 . S
N112 Zn96 2.036 . S
N112 C110 1.298 . S
N112 N113 1.398 . S
N113 C111 1.299 . S
N113 N112 1.398 . S
N114 C110 1.367 . S
N114 C111 1.379 . S
H115 C118 0.980 . S
H116 C118 0.981 . S
H117 C118 0.981 . S
C118 C110 1.481 . S
C118 H115 0.980 . S
C118 H116 0.981 . S
C118 H117 0.981 . S
C119 C106 1.481 . S
C119 H120 0.980 . S
C119 H121 0.981 . S
C119 H122 0.981 . S
H120 C119 0.980 . S
H121 C119 0.981 . S
H122 C119 0.981 . S
O123 Zn99 2.066 . S
O123 C102 1.256 . S
O124 Zn96 2.053 . S
O124 C102 1.244 . S
C125 O103 1.259 . S
C125 O104 1.254 . S
O126 Zn96 2.066 . S
O126 C98 1.256 . S
O127 C98 1.244 . S
O127 Zn99 2.053 . S
Zn128 O129 2.055 . S
Zn128 O136 2.046 . S
Zn128 N144 2.036 . S
Zn128 O156 2.053 . S
Zn128 O158 2.066 . S
O129 Zn128 2.055 . S
O129 C132 1.259 . S
C130 O158 1.256 . S
C130 O159 1.244 . S
Zn131 O133 2.046 . S
Zn131 O135 2.055 . S
Zn131 N137 2.036 . S
Zn131 O155 2.066 . S
Zn131 O159 2.053 . S
C132 O129 1.259 . S
C132 O133 1.254 . S
O133 Zn131 2.046 . S
O133 C132 1.254 . S
C134 O155 1.256 . S
C134 O156 1.244 . S
O135 Zn131 2.055 . S
O135 C157 1.259 . S
O136 Zn128 2.046 . S
O136 C157 1.254 . S
N137 Zn131 2.036 . S
N137 C138 1.298 . S
N137 N140 1.398 . S
C138 N137 1.298 . S
C138 N141 1.367 . S
C138 C151 1.481 . S
C139 N140 1.299 . S
C139 N141 1.379 . S
N140 N137 1.398 . S
N140 C139 1.299 . S
N141 C138 1.367 . S
N141 C139 1.379 . S
C142 N144 1.298 . S
C142 N146 1.367 . S
C142 C150 1.481 . S
C143 N145 1.299 . S
C143 N146 1.379 . S
N144 Zn128 2.036 . S
N144 C142 1.298 . S
N144 N145 1.398 . S
N145 C143 1.299 . S
N145 N144 1.398 . S
N146 C142 1.367 . S
N146 C143 1.379 . S
H147 C150 0.980 . S
H148 C150 0.981 . S
H149 C150 0.981 . S
C150 C142 1.481 . S
C150 H147 0.980 . S
C150 H148 0.981 . S
C150 H149 0.981 . S
C151 C138 1.481 . S
C151 H152 0.980 . S
C151 H153 0.981 . S
C151 H154 0.981 . S
H152 C151 0.980 . S
H153 C151 0.981 . S
H154 C151 0.981 . S
O155 Zn131 2.066 . S
O155 C134 1.256 . S
O156 Zn128 2.053 . S
O156 C134 1.244 . S
C157 O135 1.259 . S
C157 O136 1.254 . S
O158 Zn128 2.066 . S
O158 C130 1.256 . S
O159 C130 1.244 . S
O159 Zn131 2.053 . S
Zn160 O161 2.055 . S
Zn160 O168 2.046 . S
Zn160 N176 2.036 . S
Zn160 O188 2.053 . S
Zn160 O190 2.066 . S
O161 Zn160 2.055 . S
O161 C164 1.259 . S
C162 O190 1.256 . S
C162 O191 1.244 . S
Zn163 O165 2.046 . S
Zn163 O167 2.055 . S
Zn163 N169 2.036 . S
Zn163 O187 2.066 . S
Zn163 O191 2.053 . S
C164 O161 1.259 . S
C164 O165 1.254 . S
O165 Zn163 2.046 . S
O165 C164 1.254 . S
C166 O187 1.256 . S
C166 O188 1.244 . S
O167 Zn163 2.055 . S
O167 C189 1.259 . S
O168 Zn160 2.046 . S
O168 C189 1.254 . S
N169 Zn163 2.036 . S
N169 C170 1.298 . S
N169 N172 1.398 . S
C170 N169 1.298 . S
C170 N173 1.367 . S
C170 C183 1.481 . S
C171 N172 1.299 . S
C171 N173 1.379 . S
N172 N169 1.398 . S
N172 C171 1.299 . S
N173 C170 1.367 . S
N173 C171 1.379 . S
C174 N176 1.298 . S
C174 N178 1.367 . S
C174 C182 1.481 . S
C175 N177 1.299 . S
C175 N178 1.379 . S
N176 Zn160 2.036 . S
N176 C174 1.298 . S
N176 N177 1.398 . S
N177 C175 1.299 . S
N177 N176 1.398 . S
N178 C174 1.367 . S
N178 C175 1.379 . S
H179 C182 0.980 . S
H180 C182 0.981 . S
H181 C182 0.981 . S
C182 C174 1.481 . S
C182 H179 0.980 . S
C182 H180 0.981 . S
C182 H181 0.981 . S
C183 C170 1.481 . S
C183 H184 0.980 . S
C183 H185 0.981 . S
C183 H186 0.981 . S
H184 C183 0.980 . S
H185 C183 0.981 . S
H186 C183 0.981 . S
O187 Zn163 2.066 . S
O187 C166 1.256 . S
O188 Zn160 2.053 . S
O188 C166 1.244 . S
C189 O167 1.259 . S
C189 O168 1.254 . S
O190 Zn160 2.066 . S
O190 C162 1.256 . S
O191 C162 1.244 . S
O191 Zn163 2.053 . S
H192 C198 0.930 . S
H193 C202 0.930 . S
H194 C207 0.929 . S
H195 C205 0.929 . S
H196 C200 0.940 . S
H197 C206 0.916 1_545 S
C198 H192 0.930 . S
C198 C199 1.367 . S
C198 C206 1.378 . S
C199 C198 1.367 . S
C199 C207 1.433 . S
C200 H196 0.940 . S
C200 C202 1.378 . S
C200 C204 1.350 . S
C201 C204 1.463 1_566 S
C201 C206 1.350 . S
C201 N209 1.427 . S
C202 H193 0.930 . S
C202 C200 1.378 . S
C202 C203 1.367 . S
C203 C202 1.367 . S
C203 C205 1.433 . S
C204 C200 1.350 . S
C204 C201 1.463 1_544 S
C204 N208 1.427 . S
C205 H195 0.929 . S
C205 C203 1.433 . S
C205 N208 1.384 . S
C206 H197 0.916 1_565 S
C206 C198 1.378 . S
C206 C201 1.350 . S
C207 H194 0.929 . S
C207 C199 1.433 . S
C207 N209 1.384 . S
N208 C204 1.427 . S
N208 C205 1.384 . S
N209 C201 1.427 . S
N209 C207 1.384 . S
H210 C216 0.930 . S
H211 C220 0.930 . S
H212 C225 0.929 . S
H213 C223 0.929 . S
H214 C218 0.929 . S
H215 C224 0.929 . S
C216 H210 0.930 . S
C216 C217 1.367 . S
C216 C224 1.378 . S
C217 C216 1.367 . S
C217 C225 1.433 . S
C218 H214 0.929 . S
C218 C220 1.378 . S
C218 C222 1.350 . S
C219 C222 1.463 . S
C219 C224 1.350 . S
C219 N227 1.427 . S
C220 H211 0.930 . S
C220 C218 1.378 . S
C220 C221 1.367 . S
C221 C220 1.367 . S
C221 C223 1.433 . S
C222 C218 1.350 . S
C222 C219 1.463 . S
C222 N226 1.427 . S
C223 H213 0.929 . S
C223 C221 1.433 . S
C223 N226 1.384 . S
C224 H215 0.929 . S
C224 C216 1.378 . S
C224 C219 1.350 . S
C225 H212 0.929 . S
C225 C217 1.433 . S
C225 N227 1.384 . S
N226 C222 1.427 . S
N226 C223 1.384 . S
N227 C219 1.427 . S
N227 C225 1.384 . S
H228 C234 0.930 . S
H229 C238 0.930 . S
H230 C243 0.929 . S
H231 C241 0.929 . S
H232 C236 0.929 . S
H233 C242 0.929 . S
C234 H228 0.930 . S
C234 C235 1.367 . S
C234 C242 1.378 1_655 S
C235 C234 1.367 . S
C235 C243 1.433 . S
C236 H232 0.929 . S
C236 C238 1.378 1_655 S
C236 C240 1.350 1_655 S
C237 C240 1.463 1_654 S
C237 C242 1.350 1_655 S
C237 N245 1.427 . S
C238 H229 0.930 . S
C238 C236 1.378 1_455 S
C238 C239 1.367 . S
C239 C238 1.367 . S
C239 C241 1.433 . S
C240 C236 1.350 1_455 S
C240 C237 1.463 1_456 S
C240 N244 1.427 . S
C241 H231 0.929 . S
C241 C239 1.433 . S
C241 N244 1.384 . S
C242 H233 0.929 . S
C242 C234 1.378 1_455 S
C242 C237 1.350 1_455 S
C243 H230 0.929 . S
C243 C235 1.433 . S
C243 N245 1.384 . S
N244 C240 1.427 . S
N244 C241 1.384 . S
N245 C237 1.427 . S
N245 C243 1.384 . S
H246 C252 0.930 . S
H247 C256 0.930 . S
H248 C261 0.929 . S
H249 C259 0.929 . S
H250 C254 0.929 . S
H251 C260 0.929 . S
C252 H246 0.930 . S
C252 C253 1.367 . S
C252 C260 1.378 . S
C253 C252 1.367 . S
C253 C261 1.433 1_545 S
C254 H250 0.929 . S
C254 C256 1.378 . S
C254 C258 1.350 . S
C255 C258 1.463 1_545 S
C255 C260 1.350 . S
C255 N263 1.427 1_545 S
C256 H247 0.930 . S
C256 C254 1.378 . S
C256 C257 1.367 . S
C257 C256 1.367 . S
C257 C259 1.433 1_565 S
C258 C254 1.350 . S
C258 C255 1.463 1_565 S
C258 N262 1.427 1_565 S
C259 H249 0.929 . S
C259 C257 1.433 1_545 S
C259 N262 1.384 . S
C260 H251 0.929 . S
C260 C252 1.378 . S
C260 C255 1.350 . S
C261 H248 0.929 . S
C261 C253 1.433 1_565 S
C261 N263 1.384 . S
N262 C258 1.427 1_545 S
N262 C259 1.384 . S
N263 C255 1.427 1_565 S
N263 C261 1.384 . S
H264 C270 0.930 . S
H265 C274 0.930 . S
H266 C279 0.929 . S
H267 C277 0.929 . S
H268 C272 0.929 . S
H269 C278 0.929 . S
C270 H264 0.930 . S
C270 C271 1.367 . S
C270 C278 1.378 . S
C271 C270 1.367 . S
C271 C279 1.433 . S
C272 H268 0.929 . S
C272 C274 1.378 . S
C272 C276 1.350 . S
C273 C276 1.463 1_556 S
C273 C278 1.350 . S
C273 N281 1.427 . S
C274 H265 0.930 . S
C274 C272 1.378 . S
C274 C275 1.367 . S
C275 C274 1.367 . S
C275 C277 1.433 . S
C276 C272 1.350 . S
C276 C273 1.463 1_554 S
C276 N280 1.427 . S
C277 H267 0.929 . S
C277 C275 1.433 . S
C277 N280 1.384 . S
C278 H269 0.929 . S
C278 C270 1.378 . S
C278 C273 1.350 . S
C279 H266 0.929 . S
C279 C271 1.433 . S
C279 N281 1.384 . S
N280 C276 1.427 . S
N280 C277 1.384 . S
N281 C273 1.427 . S
N281 C279 1.384 . S
H282 C288 0.930 1_455 S
H283 C292 0.921 1_655 S
H284 C297 0.929 . S
H285 C295 0.929 . S
H286 C290 0.929 . S
H287 C296 0.929 . S
C288 H282 0.930 1_655 S
C288 C289 1.367 . S
C288 C296 1.378 1_655 S
C289 C288 1.367 . S
C289 C297 1.433 . S
C290 H286 0.929 . S
C290 C292 1.378 1_655 S
C290 C294 1.350 1_655 S
C291 C294 1.463 1_655 S
C291 C296 1.350 1_655 S
C291 N299 1.427 . S
C292 H283 0.921 1_455 S
C292 C290 1.378 1_455 S
C292 C293 1.367 . S
C293 C292 1.367 . S
C293 C295 1.433 . S
C294 C290 1.350 1_455 S
C294 C291 1.463 1_455 S
C294 N298 1.427 . S
C295 H285 0.929 . S
C295 C293 1.433 . S
C295 N298 1.384 . S
C296 H287 0.929 . S
C296 C288 1.378 1_455 S
C296 C291 1.350 1_455 S
C297 H284 0.929 . S
C297 C289 1.433 . S
C297 N299 1.384 . S
N298 C294 1.427 . S
N298 C295 1.384 . S
N299 C291 1.427 . S
N299 C297 1.384 . S
H300 C306 0.930 . S
H301 C310 0.930 . S
H302 C315 0.929 . S
H303 C313 0.929 . S
H304 C308 0.929 . S
H305 C314 0.929 . S
C306 H300 0.930 . S
C306 C307 1.367 . S
C306 C314 1.378 . S
C307 C306 1.367 . S
C307 C315 1.433 . S
C308 H304 0.929 . S
C308 C310 1.378 . S
C308 C312 1.350 . S
C309 C312 1.463 . S
C309 C314 1.350 . S
C309 N317 1.427 . S
C310 H301 0.930 . S
C310 C308 1.378 . S
C310 C311 1.367 . S
C311 C310 1.367 . S
C311 C313 1.433 . S
C312 C308 1.350 . S
C312 C309 1.463 . S
C312 N316 1.427 . S
C313 H303 0.929 . S
C313 C311 1.433 . S
C313 N316 1.384 . S
C314 H305 0.929 . S
C314 C306 1.378 . S
C314 C309 1.350 . S
C315 H302 0.929 . S
C315 C307 1.433 . S
C315 N317 1.384 . S
N316 C312 1.427 . S
N316 C313 1.384 . S
N317 C309 1.427 . S
N317 C315 1.384 . S
H318 C324 0.930 . S
H319 C328 0.930 . S
H320 C333 0.929 . S
H321 C331 0.929 . S
H322 C326 0.929 . S
H323 C332 0.929 . S
C324 H318 0.930 . S
C324 C325 1.367 . S
C324 C332 1.378 . S
C325 C324 1.367 . S
C325 C333 1.433 . S
C326 H322 0.929 . S
C326 C328 1.378 . S
C326 C330 1.350 . S
C327 C330 1.463 . S
C327 C332 1.350 . S
C327 N335 1.427 . S
C328 H319 0.930 . S
C328 C326 1.378 . S
C328 C329 1.367 . S
C329 C328 1.367 . S
C329 C331 1.433 . S
C330 C326 1.350 . S
C330 C327 1.463 . S
C330 N334 1.427 . S
C331 H321 0.929 . S
C331 C329 1.433 . S
C331 N334 1.384 . S
C332 H323 0.929 . S
C332 C324 1.378 . S
C332 C327 1.350 . S
C333 H320 0.929 . S
C333 C325 1.433 . S
C333 N335 1.384 . S
N334 C330 1.427 . S
N334 C331 1.384 . S
N335 C327 1.427 . S
N335 C333 1.384 . S
H336 C342 0.930 . S
H337 C346 0.930 . S
H338 C351 0.929 . S
H339 C349 0.929 . S
H340 C344 0.929 . S
H341 C350 0.929 . S
C342 H336 0.930 . S
C342 C343 1.367 . S
C342 C350 1.378 . S
C343 C342 1.367 . S
C343 C351 1.433 . S
C344 H340 0.929 . S
C344 C346 1.378 . S
C344 C348 1.350 . S
C345 C348 1.463 . S
C345 C350 1.350 . S
C345 N353 1.427 . S
C346 H337 0.930 . S
C346 C344 1.378 . S
C346 C347 1.367 . S
C347 C346 1.367 . S
C347 C349 1.433 . S
C348 C344 1.350 . S
C348 C345 1.463 . S
C348 N352 1.427 . S
C349 H339 0.929 . S
C349 C347 1.433 . S
C349 N352 1.384 . S
C350 H341 0.929 . S
C350 C342 1.378 . S
C350 C345 1.350 . S
C351 H338 0.929 . S
C351 C343 1.433 . S
C351 N353 1.384 . S
N352 C348 1.427 . S
N352 C349 1.384 . S
N353 C345 1.427 . S
N353 C351 1.384 . S
H354 C360 0.930 . S
H355 C364 0.930 . S
H356 C369 0.929 . S
H357 C367 0.929 . S
H358 C362 0.929 . S
H359 C368 0.929 . S
C360 H354 0.930 . S
C360 C361 1.367 . S
C360 C368 1.378 . S
C361 C360 1.367 . S
C361 C369 1.433 . S
C362 H358 0.929 . S
C362 C364 1.378 . S
C362 C366 1.350 . S
C363 C366 1.463 . S
C363 C368 1.350 . S
C363 N371 1.427 . S
C364 H355 0.930 . S
C364 C362 1.378 . S
C364 C365 1.367 . S
C365 C364 1.367 . S
C365 C367 1.433 . S
C366 C362 1.350 . S
C366 C363 1.463 . S
C366 N370 1.427 . S
C367 H357 0.929 . S
C367 C365 1.433 . S
C367 N370 1.384 . S
C368 H359 0.929 . S
C368 C360 1.378 . S
C368 C363 1.350 . S
C369 H356 0.929 . S
C369 C361 1.433 . S
C369 N371 1.384 . S
N370 C366 1.427 . S
N370 C367 1.384 . S
N371 C363 1.427 . S
N371 C369 1.384 . S
H372 C378 0.930 . S
H373 C382 0.930 . S
H374 C387 0.929 . S
H375 C385 0.929 . S
H376 C380 0.929 . S
H377 C386 0.929 . S
C378 H372 0.930 . S
C378 C379 1.367 . S
C378 C386 1.378 . S
C379 C378 1.367 . S
C379 C387 1.433 . S
C380 H376 0.929 . S
C380 C382 1.378 . S
C380 C384 1.350 . S
C381 C384 1.463 . S
C381 C386 1.350 . S
C381 N389 1.427 . S
C382 H373 0.930 . S
C382 C380 1.378 . S
C382 C383 1.367 . S
C383 C382 1.367 . S
C383 C385 1.433 . S
C384 C380 1.350 . S
C384 C381 1.463 . S
C384 N388 1.427 . S
C385 H375 0.929 . S
C385 C383 1.433 . S
C385 N388 1.384 . S
C386 H377 0.929 . S
C386 C378 1.378 . S
C386 C381 1.350 . S
C387 H374 0.929 . S
C387 C379 1.433 . S
C387 N389 1.384 . S
N388 C384 1.427 . S
N388 C385 1.384 . S
N389 C381 1.427 . S
N389 C387 1.384 . S
H390 C396 0.930 . S
H391 C400 0.930 . S
H392 C405 0.929 . S
H393 C403 0.929 . S
H394 C398 0.929 . S
H395 C404 0.929 . S
C396 H390 0.930 . S
C396 C397 1.367 . S
C396 C404 1.378 . S
C397 C396 1.367 . S
C397 C405 1.433 . S
C398 H394 0.929 . S
C398 C400 1.378 . S
C398 C402 1.350 . S
C399 C402 1.463 . S
C399 C404 1.350 . S
C399 N407 1.427 . S
C400 H391 0.930 . S
C400 C398 1.378 . S
C400 C401 1.367 . S
C401 C400 1.367 . S
C401 C403 1.433 . S
C402 C398 1.350 . S
C402 C399 1.463 . S
C402 N406 1.427 . S
C403 H393 0.929 . S
C403 C401 1.433 . S
C403 N406 1.384 . S
C404 H395 0.929 . S
C404 C396 1.378 . S
C404 C399 1.350 . S
C405 H392 0.929 . S
C405 C397 1.433 . S
C405 N407 1.384 . S
N406 C402 1.427 . S
N406 C403 1.384 . S
N407 C399 1.427 . S
N407 C405 1.384 . S
H408 C414 0.930 . S
H409 C418 0.930 . S
H410 C423 0.929 . S
H411 C421 0.929 . S
H412 C416 0.929 . S
H413 C422 0.929 . S
C414 H408 0.930 . S
C414 C415 1.367 . S
C414 C422 1.378 . S
C415 C414 1.367 . S
C415 C423 1.433 . S
C416 H412 0.929 . S
C416 C418 1.378 . S
C416 C420 1.350 . S
C417 C420 1.463 . S
C417 C422 1.350 . S
C417 N425 1.427 . S
C418 H409 0.930 . S
C418 C416 1.378 . S
C418 C419 1.367 . S
C419 C418 1.367 . S
C419 C421 1.433 . S
C420 C416 1.350 . S
C420 C417 1.463 . S
C420 N424 1.427 . S
C421 H411 0.929 . S
C421 C419 1.433 . S
C421 N424 1.384 . S
C422 H413 0.929 . S
C422 C414 1.378 . S
C422 C417 1.350 . S
C423 H410 0.929 . S
C423 C415 1.433 . S
C423 N425 1.384 . S
N424 C420 1.427 . S
N424 C421 1.384 . S
N425 C417 1.427 . S
N425 C423 1.384 . S
H426 C432 0.930 . S
H427 C436 0.930 . S
H428 C441 0.929 . S
H429 C439 0.929 . S
H430 C434 0.929 . S
H431 C440 0.929 . S
C432 H426 0.930 . S
C432 C433 1.367 . S
C432 C440 1.378 1_655 S
C433 C432 1.367 . S
C433 C441 1.433 . S
C434 H430 0.929 . S
C434 C436 1.378 . S
C434 C438 1.350 . S
C435 C438 1.463 . S
C435 C440 1.350 . S
C435 N443 1.427 . S
C436 H427 0.930 . S
C436 C434 1.378 . S
C436 C437 1.367 . S
C437 C436 1.367 . S
C437 C439 1.433 . S
C438 C434 1.350 . S
C438 C435 1.463 . S
C438 N442 1.427 . S
C439 H429 0.929 . S
C439 C437 1.433 . S
C439 N442 1.384 . S
C440 H431 0.929 . S
C440 C432 1.378 1_455 S
C440 C435 1.350 . S
C441 H428 0.929 . S
C441 C433 1.433 . S
C441 N443 1.384 1_655 S
N442 C438 1.427 . S
N442 C439 1.384 . S
N443 C435 1.427 . S
N443 C441 1.384 1_455 S
H444 C450 0.930 . S
H445 C454 0.930 . S
H446 C459 0.929 . S
H447 C457 0.929 . S
H448 C452 0.929 . S
H449 C458 0.929 . S
C450 H444 0.930 . S
C450 C451 1.367 . S
C450 C458 1.378 1_545 S
C451 C450 1.367 . S
C451 C459 1.433 . S
C452 H448 0.929 . S
C452 C454 1.378 . S
C452 C456 1.350 . S
C453 C456 1.463 . S
C453 C458 1.350 . S
C453 N461 1.427 . S
C454 H445 0.930 . S
C454 C452 1.378 . S
C454 C455 1.367 . S
C455 C454 1.367 . S
C455 C457 1.433 . S
C456 C452 1.350 . S
C456 C453 1.463 . S
C456 N460 1.427 . S
C457 H447 0.929 . S
C457 C455 1.433 . S
C457 N460 1.384 . S
C458 H449 0.929 . S
C458 C450 1.378 1_565 S
C458 C453 1.350 . S
C459 H446 0.929 . S
C459 C451 1.433 . S
C459 N461 1.384 1_545 S
N460 C456 1.427 . S
N460 C457 1.384 . S
N461 C453 1.427 . S
N461 C459 1.384 1_565 S
H462 C468 0.930 . S
H463 C472 0.930 . S
H464 C477 0.929 . S
H465 C475 0.929 1_565 S
H466 C470 0.929 . S
H467 C476 0.929 . S
C468 H462 0.930 . S
C468 C469 1.367 . S
C468 C476 1.378 . S
C469 C468 1.367 . S
C469 C477 1.433 . S
C470 H466 0.929 . S
C470 C472 1.378 . S
C470 C474 1.350 . S
C471 C474 1.463 . S
C471 C476 1.350 . S
C471 N479 1.427 . S
C472 H463 0.930 . S
C472 C470 1.378 . S
C472 C473 1.367 . S
C473 C472 1.367 . S
C473 C475 1.433 . S
C474 C470 1.350 . S
C474 C471 1.463 . S
C474 N478 1.427 . S
C475 H465 0.929 1_545 S
C475 C473 1.433 . S
C475 N478 1.384 . S
C476 H467 0.929 . S
C476 C468 1.378 . S
C476 C471 1.350 . S
C477 H464 0.929 . S
C477 C469 1.433 . S
C477 N479 1.384 . S
N478 C474 1.427 . S
N478 C475 1.384 . S
N479 C471 1.427 . S
N479 C477 1.384 . S
H480 C486 0.930 . S
H481 C490 0.930 . S
H482 C495 0.929 . S
H483 C493 0.929 . S
H484 C488 0.929 . S
H485 C494 0.929 . S
C486 H480 0.930 . S
C486 C487 1.367 . S
C486 C494 1.378 1_455 S
C487 C486 1.367 . S
C487 C495 1.433 . S
C488 H484 0.929 . S
C488 C490 1.378 . S
C488 C492 1.350 . S
C489 C492 1.463 . S
C489 C494 1.350 . S
C489 N497 1.427 . S
C490 H481 0.930 . S
C490 C488 1.378 . S
C490 C491 1.367 . S
C491 C490 1.367 . S
C491 C493 1.433 . S
C492 C488 1.350 . S
C492 C489 1.463 . S
C492 N496 1.427 . S
C493 H483 0.929 . S
C493 C491 1.433 . S
C493 N496 1.384 . S
C494 H485 0.929 . S
C494 C486 1.378 1_655 S
C494 C489 1.350 . S
C495 H482 0.929 . S
C495 C487 1.433 . S
C495 N497 1.384 1_455 S
N496 C492 1.427 . S
N496 C493 1.384 . S
N497 C489 1.427 . S
N497 C495 1.384 1_655 S
H498 C504 0.930 1_455 S
H499 C508 0.930 . S
H500 C513 0.929 . S
H501 C511 0.929 . S
H502 C506 0.929 . S
H503 C512 0.929 . S
C504 H498 0.930 1_655 S
C504 C505 1.367 . S
C504 C512 1.378 . S
C505 C504 1.367 . S
C505 C513 1.433 . S
C506 H502 0.929 . S
C506 C508 1.378 1_545 S
C506 C510 1.350 . S
C507 C510 1.463 . S
C507 C512 1.350 . S
C507 N515 1.427 . S
C508 H499 0.930 . S
C508 C506 1.378 1_565 S
C508 C509 1.367 . S
C509 C508 1.367 . S
C509 C511 1.433 . S
C510 C506 1.350 . S
C510 C507 1.463 . S
C510 N514 1.427 . S
C511 H501 0.929 . S
C511 C509 1.433 . S
C511 N514 1.384 1_565 S
C512 H503 0.929 . S
C512 C504 1.378 . S
C512 C507 1.350 . S
C513 H500 0.929 . S
C513 C505 1.433 . S
C513 N515 1.384 . S
N514 C510 1.427 . S
N514 C511 1.384 1_545 S
N515 C507 1.427 . S
N515 C513 1.384 . S
C199 N146 1.858 . S
C203 N13 1.869 . S
C217 N178 1.731 . S
C221 N45 1.739 . S
C235 N77 1.864 . S
C239 N114 1.857 . S
C253 N18 1.735 . S
C257 N141 1.735 . S
C271 N173 1.866 . S
C275 N50 1.857 . S
C289 N82 1.739 . S
C293 N109 1.731 . S
C307 C6 1.295 . S
C311 C93 1.316 . S
C325 C34 1.286 . S
C329 C29 1.309 . S
C343 C70 1.291 . S
C347 C36 1.314 . S
C361 C98 1.287 . S
C365 C132 1.310 . S
C379 C130 1.295 . S
C383 C189 1.315 . S
C397 C100 1.314 . S
C401 C166 1.291 . S
C415 C4 0.889 . S
C419 C66 0.881 1_455 S
C433 C61 0.887 . S
C437 C2 0.878 1_565 S
C451 C68 0.885 . S
C455 C38 0.879 . S
C469 C125 0.890 . S
C473 C134 0.886 1_545 S
C487 C157 0.886 . S
C491 C162 0.880 . S
C505 C102 0.867 1_655 S
C509 C164 0.879 . S
