# Generated by pormake.
# Topology lvt, (4)-cn, num edge types: 1
# Building blocks:
#     Node 0, Type 0, BuildingBlock: NAWXER_clean_sbu_0, # of connection points: 4
#     Node 1, Type 0, BuildingBlock: NAWXER_clean_sbu_0, # of connection points: 4
#     Node 2, Type 0, BuildingBlock: NAWXER_clean_sbu_0, # of connection points: 4
#     Node 3, Type 0, BuildingBlock: NAWXER_clean_sbu_0, # of connection points: 4
#     Node 4, Type 0, BuildingBlock: NAWXER_clean_sbu_0, # of connection points: 4
#     Node 5, Type 0, BuildingBlock: NAWXER_clean_sbu_0, # of connection points: 4
#     Node 6, Type 0, BuildingBlock: NAWXER_clean_sbu_0, # of connection points: 4
#     Node 7, Type 0, BuildingBlock: NAWXER_clean_sbu_0, # of connection points: 4
#     Edge 8, Type (0, 0), BuildingBlock: ZUJKAS_clean_linker_0, # of connection points: 2
#     Edge 9, Type (0, 0), BuildingBlock: ZUJKAS_clean_linker_0, # of connection points: 2
#     Edge 10, Type (0, 0), BuildingBlock: ZUJKAS_clean_linker_0, # of connection points: 2
#     Edge 11, Type (0, 0), BuildingBlock: ZUJKAS_clean_linker_0, # of connection points: 2
#     Edge 12, Type (0, 0), BuildingBlock: ZUJKAS_clean_linker_0, # of connection points: 2
#     Edge 13, Type (0, 0), BuildingBlock: ZUJKAS_clean_linker_0, # of connection points: 2
#     Edge 14, Type (0, 0), BuildingBlock: ZUJKAS_clean_linker_0, # of connection points: 2
#     Edge 15, Type (0, 0), BuildingBlock: ZUJKAS_clean_linker_0, # of connection points: 2
#     Edge 16, Type (0, 0), BuildingBlock: ZUJKAS_clean_linker_0, # of connection points: 2
#     Edge 17, Type (0, 0), BuildingBlock: ZUJKAS_clean_linker_0, # of connection points: 2
#     Edge 18, Type (0, 0), BuildingBlock: ZUJKAS_clean_linker_0, # of connection points: 2
#     Edge 19, Type (0, 0), BuildingBlock: ZUJKAS_clean_linker_0, # of connection points: 2
#     Edge 20, Type (0, 0), BuildingBlock: ZUJKAS_clean_linker_0, # of connection points: 2
#     Edge 21, Type (0, 0), BuildingBlock: ZUJKAS_clean_linker_0, # of connection points: 2
#     Edge 22, Type (0, 0), BuildingBlock: ZUJKAS_clean_linker_0, # of connection points: 2
#     Edge 23, Type (0, 0), BuildingBlock: ZUJKAS_clean_linker_0, # of connection points: 2
# Relax obj value: 0.000
# Max RMSD: 0.000
# Mean RMSD: 0.000
data_MOF--net-lvt--node1-NAWXER_clean_sbu_0--edge1-ZUJKAS_clean_linker_0
_symmetry_space_group_name_H-M    P1
_symmetry_Int_Tables_number       1
_symmetry_cell_setting            triclinic
loop_
_symmetry_equiv_pos_as_xyz
'x, y, z'
_cell_length_a     50.260081
_cell_length_b     50.268509
_cell_length_c     28.307735
_cell_angle_alpha  89.739728
_cell_angle_beta   90.293034
_cell_angle_gamma 89.95346
loop_
_atom_site_label
_atom_site_type_symbol
_atom_site_fract_x
_atom_site_fract_y
_atom_site_fract_z
_atom_type_partial_charge
C0 C 0.95834 0.96375 0.47609 0.0
C1 C 0.03123 0.01846 0.41458 0.0
O2 O 0.97029 0.96101 0.4369 0.0
Zn3 Zn 0.99506 0.99032 0.44421 0.0
O4 O 0.96529 0.98259 0.50397 0.0
Zn5 Zn 0.99378 0.0144 0.50622 0.0
O6 O 0.97149 0.04608 0.50717 0.0
O7 O 0.96952 0.02451 0.43957 0.0
O8 O 0.02282 0.02576 0.45517 0.0
O9 O 0.02091 0.9982 0.39489 0.0
O10 O 0.01959 0.97673 0.50182 0.0
O11 O 0.01585 1.00511 0.56065 0.0
C12 C 0.96241 0.0442 0.46526 0.0
C13 C 0.02585 0.98394 0.54384 0.0
C14 C 0.22549 0.81051 0.73602 0.0
C15 C 0.2856 0.736 0.77274 0.0
O16 O 0.24255 0.80588 0.70353 0.0
Zn17 Zn 0.27436 0.77856 0.68941 0.0
O18 O 0.22544 0.79622 0.77323 0.0
Zn19 Zn 0.25539 0.77354 0.75641 0.0
O20 O 0.28836 0.8006 0.75601 0.0
O21 O 0.3047 0.80241 0.6839 0.0
O22 O 0.26762 0.74559 0.79918 0.0
O23 O 0.28974 0.74659 0.73213 0.0
O24 O 0.26086 0.75939 0.63441 0.0
O25 O 0.23852 0.75118 0.69971 0.0
C26 C 0.30541 0.80993 0.72674 0.0
C27 C 0.24203 0.74735 0.65546 0.0
C28 C 0.48427 0.98901 0.95821 0.0
C29 C 0.54569 0.04798 0.04234 0.0
O30 O 0.49546 0.00995 0.94277 0.0
Zn31 Zn 0.51563 0.01865 0.99936 0.0
O32 O 0.48918 0.98116 1.00053 0.0
Zn33 Zn 0.51321 0.9933 0.0594 0.0
O34 O 0.4872 0.99968 0.10824 0.0
O35 O 0.48582 0.02918 0.05032 0.0
O36 O 0.53842 0.02784 0.06714 0.0
O37 O 0.53731 0.05041 1.00004 0.0
O38 O 0.54531 0.98802 0.00286 0.0
O39 O 0.53785 0.9639 0.06676 0.0
C40 C 0.47722 0.02067 0.09022 0.0
C41 C 0.55156 0.9685 0.03004 0.0
C42 C 0.29841 0.21067 0.28282 0.0
C43 C 0.23592 0.27697 0.34172 0.0
O44 O 0.28219 0.21909 0.25097 0.0
Zn45 Zn 0.25031 0.24743 0.24453 0.0
O46 O 0.29761 0.22062 0.32401 0.0
Zn47 Zn 0.26822 0.24477 0.31236 0.0
O48 O 0.23586 0.21732 0.29891 0.0
O49 O 0.2212 0.22457 0.22631 0.0
O50 O 0.25511 0.26612 0.36398 0.0
O51 O 0.23214 0.2716 0.29794 0.0
O52 O 0.26375 0.27297 0.19905 0.0
O53 O 0.28554 0.27414 0.26669 0.0
C54 C 0.21986 0.2116 0.26491 0.0
C55 C 0.28206 0.28292 0.22451 0.0
C56 C 0.7451 0.31004 0.1532 0.0
C57 C 0.80096 0.24588 0.24046 0.0
O58 O 0.76525 0.29768 0.1373 0.0
Zn59 Zn 0.77425 0.2784 0.19532 0.0
O60 O 0.73814 0.30649 0.19628 0.0
Zn61 Zn 0.74989 0.28345 0.25664 0.0
O62 O 0.75936 0.31026 0.30294 0.0
O63 O 0.78698 0.30913 0.24263 0.0
O64 O 0.78177 0.25556 0.2646 0.0
O65 O 0.80421 0.25361 0.19798 0.0
O66 O 0.74109 0.25199 0.2007 0.0
O67 O 0.71877 0.26091 0.26564 0.0
C68 C 0.77994 0.31917 0.28224 0.0
C69 C 0.72152 0.2472 0.22828 0.0
C70 C 0.80735 0.72085 0.78702 0.0
C71 C 0.74768 0.79146 0.8398 0.0
O72 O 0.78807 0.72529 0.7582 0.0
Zn73 Zn 0.75456 0.75155 0.75202 0.0
O74 O 0.8094 0.73474 0.82429 0.0
Zn75 Zn 0.77846 0.75704 0.81337 0.0
O76 O 0.7458 0.72945 0.82093 0.0
O77 O 0.72503 0.72701 0.75217 0.0
O78 O 0.7693 0.78404 0.85934 0.0
O79 O 0.74053 0.78109 0.80043 0.0
O80 O 0.76219 0.77165 0.69498 0.0
O81 O 0.79024 0.78015 0.75304 0.0
C82 C 0.72697 0.71994 0.79526 0.0
C83 C 0.78255 0.78394 0.71026 0.0
C84 C 0.4598 0.52399 0.92179 0.0
C85 C 0.53328 0.46363 0.96545 0.0
O86 O 0.46815 0.52673 0.96438 0.0
Zn87 Zn 0.4975 0.50994 0.01102 0.0
O88 O 0.47031 0.50638 0.89558 0.0
Zn89 Zn 0.4958 0.49265 0.94184 0.0
O90 O 0.47054 0.47428 0.99329 0.0
O91 O 0.47606 0.49483 0.06135 0.0
O92 O 0.52108 0.46436 0.92594 0.0
O93 O 0.52598 0.47932 0.99851 0.0
O94 O 0.52067 0.54038 0.02264 0.0
O95 O 0.5216 0.52613 0.94904 0.0
C96 C 0.46477 0.47676 0.03715 0.0
C97 C 0.52947 0.54252 0.9807 0.0
C98 C 0.98054 0.49196 0.47187 0.0
C99 C 0.05431 0.55175 0.509 0.0
O100 O 0.99097 0.50982 0.44609 0.0
Zn101 Zn 0.01789 0.5217 0.49026 0.0
O102 O 0.99009 0.48764 0.51331 0.0
Zn103 Zn 0.02187 0.50295 0.55665 0.0
O104 O 1.00315 0.51582 0.61129 0.0
O105 O 0.99512 0.53926 0.54672 0.0
O106 O 0.0496 0.53519 0.54267 0.0
O107 O 0.04027 0.55093 0.47156 0.0
O108 O 0.04589 0.48921 0.49265 0.0
O109 O 0.04473 0.47235 0.56474 0.0
C110 C 0.99139 0.53515 0.591 0.0
C111 C 0.05404 0.47205 0.52314 0.0
H112 H 0.05252 0.01237 0.32547 0.0
H113 H 0.08458 0.04197 0.28607 0.0
H114 H 0.088 0.09101 0.41046 0.0
H115 H 0.05639 0.06194 0.44982 0.0
H116 H 0.07754 0.1184 0.31971 0.0
H117 H 0.16651 0.05207 0.32027 0.0
H118 H 0.13511 0.03909 0.29974 0.0
H119 H 0.13936 0.04712 0.36092 0.0
C120 C 0.06032 0.02932 0.3445 0.0
C121 C 0.05183 0.03477 0.39079 0.0
C122 C 0.0786 0.04618 0.32197 0.0
C123 C 0.0886 0.06864 0.34545 0.0
C124 C 0.08045 0.07382 0.39172 0.0
H125 H 0.21452 0.17853 0.3409 0.0
H126 H 0.1823 0.14282 0.35201 0.0
C127 C 0.06237 0.05708 0.41418 0.0
C128 C 0.10713 0.08747 0.3223 0.0
H129 H 0.17267 0.0963 0.29536 0.0
C130 C 0.09825 0.1135 0.31344 0.0
C131 C 0.13411 0.08096 0.31465 0.0
C132 C 0.14458 0.05335 0.32444 0.0
C133 C 0.11589 0.13355 0.29894 0.0
C134 C 0.14308 0.12727 0.29279 0.0
C135 C 0.15177 0.10098 0.2999 0.0
C136 C 0.1632 0.14826 0.28403 0.0
C137 C 0.10563 0.16158 0.29289 0.0
C138 C 0.16327 0.16307 0.24186 0.0
C139 C 0.1817 0.18365 0.23535 0.0
C140 C 0.20036 0.18973 0.27096 0.0
C141 C 0.20038 0.17453 0.31282 0.0
C142 C 0.18205 0.15399 0.31918 0.0
H143 H 0.08495 0.16384 0.30599 0.0
H144 H 0.11863 0.17585 0.31197 0.0
H145 H 0.10584 0.16703 0.25487 0.0
H146 H 0.14903 0.15877 0.21409 0.0
H147 H 0.18124 0.19487 0.2026 0.0
H148 H 0.05727 0.99882 0.61915 0.0
H149 H 0.09139 0.97184 0.65944 0.0
H150 H 0.0703 0.90462 0.57286 0.0
H151 H 0.03716 0.93158 0.53152 0.0
H152 H 0.09182 0.92631 0.71081 0.0
H153 H 0.14822 0.91031 0.54622 0.0
H154 H 0.12118 0.93378 0.54967 0.0
H155 H 0.11458 0.89893 0.54058 0.0
C156 C 0.0599 0.97826 0.60889 0.0
C157 C 0.04484 0.96746 0.57162 0.0
C158 C 0.07938 0.96285 0.63194 0.0
C159 C 0.08395 0.93637 0.61834 0.0
C160 C 0.06783 0.92522 0.58296 0.0
H161 H 0.17355 0.81204 0.76519 0.0
H162 H 0.13941 0.84431 0.74105 0.0
C163 C 0.04876 0.94066 0.55948 0.0
C164 C 0.10592 0.92044 0.6399 0.0
H165 H 0.15952 0.88217 0.61127 0.0
C166 C 0.1068 0.91683 0.68915 0.0
C167 C 0.12584 0.9085 0.61183 0.0
C168 C 0.12762 0.91331 0.55923 0.0
C169 C 0.12659 0.90102 0.71086 0.0
C170 C 0.14556 0.88782 0.68241 0.0
C171 C 0.14493 0.89199 0.63329 0.0
C172 C 0.16647 0.86971 0.70207 0.0
C173 C 0.12717 0.89908 0.76404 0.0
C174 C 0.19307 0.87291 0.68811 0.0
C175 C 0.21233 0.8541 0.70069 0.0
C176 C 0.20561 0.83185 0.72833 0.0
C177 C 0.17933 0.8292 0.74437 0.0
C178 C 0.15984 0.84777 0.73078 0.0
H179 H 0.11769 0.91671 0.78048 0.0
H180 H 0.11583 0.88124 0.77532 0.0
H181 H 0.14784 0.89731 0.7777 0.0
H182 H 0.19883 0.88962 0.66613 0.0
H183 H 0.23247 0.85671 0.68797 0.0
H184 H 0.47571 0.99347 0.86236 0.0
H185 H 0.44588 0.96632 0.81318 0.0
H186 H 0.4216 0.92222 0.9365 0.0
H187 H 0.4513 0.94886 0.98566 0.0
H188 H 0.44584 0.90411 0.8113 0.0
H189 H 0.35143 0.95213 0.86666 0.0
H190 H 0.3832 0.96892 0.86946 0.0
H191 H 0.37478 0.94439 0.91315 0.0
C192 C 0.46393 0.97806 0.879 0.0
C193 C 0.46588 0.97337 0.92798 0.0
C194 C 0.44699 0.96254 0.85084 0.0
C195 C 0.43148 0.9424 0.87134 0.0
C196 C 0.4333 0.93779 0.92011 0.0
H197 H 0.31523 0.82466 0.81758 0.0
H198 H 0.34662 0.85775 0.84631 0.0
C199 C 0.45035 0.95303 0.94812 0.0
C200 C 0.41345 0.92577 0.84229 0.0
H201 H 0.34779 0.91092 0.82661 0.0
C202 C 0.42438 0.90578 0.81388 0.0
C203 C 0.38554 0.92805 0.84597 0.0
C204 C 0.3729 0.94963 0.87515 0.0
C205 C 0.40804 0.88705 0.79097 0.0
C206 C 0.38007 0.88878 0.79598 0.0
C207 C 0.36921 0.90953 0.82285 0.0
C208 C 0.36171 0.86813 0.7772 0.0
C209 C 0.42091 0.86479 0.76374 0.0
C210 C 0.3597 0.8628 0.7286 0.0
C211 C 0.34176 0.84359 0.7119 0.0
C212 C 0.32532 0.8296 0.74353 0.0
C213 C 0.32749 0.83504 0.79211 0.0
C214 C 0.34544 0.85403 0.80868 0.0
H215 H 0.44253 0.8631 0.7716 0.0
H216 H 0.41126 0.84546 0.77195 0.0
H217 H 0.41853 0.86866 0.72533 0.0
H218 H 0.37169 0.87377 0.70352 0.0
H219 H 0.34046 0.84001 0.67426 0.0
H220 H 0.30052 0.1821 0.20145 0.0
H221 H 0.33085 0.14607 0.18171 0.0
H222 H 0.36921 0.15352 0.31756 0.0
H223 H 0.33874 0.18991 0.33791 0.0
H224 H 0.40445 0.15173 0.23866 0.0
H225 H 0.33158 0.06916 0.23395 0.0
H226 H 0.32114 0.09775 0.2004 0.0
H227 H 0.32504 0.10028 0.26342 0.0
C228 C 0.31532 0.17611 0.22735 0.0
C229 C 0.31717 0.18891 0.27134 0.0
C230 C 0.3325 0.15532 0.21609 0.0
C231 C 0.35192 0.14681 0.2485 0.0
C232 C 0.35412 0.15965 0.29229 0.0
H233 H 0.45485 0.01029 0.17697 0.0
H234 H 0.42497 0.03938 0.22187 0.0
C235 C 0.33675 0.18043 0.3038 0.0
C236 C 0.3707 0.12546 0.23498 0.0
H237 H 0.37279 0.06189 0.19299 0.0
C238 C 0.39765 0.13193 0.2295 0.0
C239 C 0.36182 0.09956 0.22354 0.0
C240 C 0.33335 0.09113 0.23105 0.0
C241 C 0.41563 0.11367 0.2101 0.0
C242 C 0.40633 0.08844 0.19556 0.0
C243 C 0.37977 0.08137 0.20374 0.0
C244 C 0.4234 0.07015 0.16828 0.0
C245 C 0.44432 0.12175 0.20409 0.0
C246 C 0.43168 0.07754 0.1229 0.0
C247 C 0.44846 0.06101 0.09715 0.0
C248 C 0.45737 0.03667 0.11626 0.0
C249 C 0.44839 0.02891 0.16128 0.0
C250 C 0.43139 0.04549 0.18701 0.0
H251 H 0.44976 0.13845 0.22783 0.0
H252 H 0.45787 0.10473 0.2113 0.0
H253 H 0.44749 0.12839 0.1671 0.0
H254 H 0.42533 0.09629 0.10754 0.0
H255 H 0.45486 0.06763 0.06257 0.0
H256 H 0.92897 0.96552 0.55669 0.0
H257 H 0.89608 0.93355 0.58437 0.0
H258 H 0.90616 0.88763 0.45744 0.0
H259 H 0.9396 0.91952 0.42944 0.0
H260 H 0.8478 0.91627 0.54446 0.0
H261 H 0.92091 0.83362 0.56425 0.0
H262 H 0.93107 0.86773 0.5558 0.0
H263 H 0.91858 0.84885 0.5068 0.0
C264 C 0.9242 0.9487 0.5344 0.0
C265 C 0.93713 0.945 0.49094 0.0
C266 C 0.90529 0.93047 0.55029 0.0
C267 C 0.89888 0.90805 0.52327 0.0
C268 C 0.91112 0.9046 0.4792 0.0
H269 H 0.77131 0.79927 0.61877 0.0
H270 H 0.79791 0.82854 0.56782 0.0
C271 C 0.93013 0.9229 0.46317 0.0
C272 C 0.88004 0.88808 0.5426 0.0
H273 H 0.87708 0.82518 0.58846 0.0
C274 C 0.85404 0.89621 0.55349 0.0
C275 C 0.88836 0.86202 0.55473 0.0
C276 C 0.91628 0.85245 0.5452 0.0
C277 C 0.83638 0.87922 0.57734 0.0
C278 C 0.8449 0.85338 0.59029 0.0
C279 C 0.8706 0.84498 0.5782 0.0
C280 C 0.82844 0.83571 0.62037 0.0
C281 C 0.80918 0.8894 0.59056 0.0
C282 C 0.83691 0.82992 0.66654 0.0
C283 C 0.82183 0.81335 0.69564 0.0
C284 C 0.79797 0.802 0.6791 0.0
C285 C 0.78953 0.80775 0.63266 0.0
C286 C 0.80465 0.8245 0.60354 0.0
H287 H 0.80699 0.91106 0.58362 0.0
H288 H 0.79383 0.87872 0.5697 0.0
H289 H 0.80525 0.88551 0.62854 0.0
H290 H 0.85521 0.83837 0.68019 0.0
H291 H 0.82902 0.80933 0.73109 0.0
H292 H 0.9489 0.09289 0.50237 0.0
H293 H 0.92155 0.12771 0.46498 0.0
H294 H 0.90929 0.07746 0.34384 0.0
H295 H 0.93631 0.04272 0.38065 0.0
H296 H 0.93025 0.15298 0.3737 0.0
H297 H 0.83331 0.10033 0.38291 0.0
H298 H 0.86162 0.09088 0.41879 0.0
H299 H 0.85994 0.08128 0.35779 0.0
C300 C 0.94016 0.08917 0.46798 0.0
C301 C 0.94473 0.06495 0.44465 0.0
C302 C 0.92466 0.10912 0.44658 0.0
C303 C 0.91322 0.10506 0.40181 0.0
C304 C 0.91762 0.08088 0.37865 0.0
H305 H 0.84501 0.221 0.20298 0.0
H306 H 0.87331 0.18727 0.24139 0.0
C307 C 0.93317 0.06105 0.39979 0.0
C308 C 0.89702 0.12615 0.37863 0.0
H309 H 0.83469 0.13957 0.33615 0.0
C310 C 0.90934 0.15013 0.36561 0.0
C311 C 0.86972 0.1224 0.3683 0.0
C312 C 0.85523 0.09744 0.38297 0.0
C313 C 0.89511 0.17036 0.34196 0.0
C314 C 0.86795 0.16635 0.33073 0.0
C315 C 0.85559 0.14249 0.34431 0.0
C316 C 0.85152 0.18716 0.30716 0.0
C317 C 0.9091 0.19603 0.32992 0.0
C318 C 0.82973 0.19798 0.33107 0.0
C319 C 0.81359 0.21707 0.3093 0.0
C320 C 0.8187 0.22574 0.26285 0.0
C321 C 0.84055 0.21484 0.23878 0.0
C322 C 0.85682 0.19568 0.26078 0.0
H323 H 0.92821 0.19811 0.34944 0.0
H324 H 0.91344 0.19647 0.29153 0.0
H325 H 0.89626 0.21339 0.33806 0.0
H326 H 0.82522 0.19165 0.36678 0.0
H327 H 0.79695 0.22493 0.32902 0.0
H328 H 0.67411 0.23393 0.27106 0.0
H329 H 0.64245 0.19936 0.24616 0.0
H330 H 0.69394 0.17863 0.13066 0.0
H331 H 0.72548 0.2126 0.1551 0.0
H332 H 0.61632 0.19441 0.15617 0.0
H333 H 0.67977 0.10693 0.19653 0.0
H334 H 0.68627 0.1395 0.22065 0.0
H335 H 0.69621 0.1317 0.16135 0.0
C336 C 0.67874 0.22184 0.24061 0.0
C337 C 0.70238 0.22599 0.21523 0.0
C338 C 0.66063 0.20218 0.22638 0.0
C339 C 0.66606 0.18622 0.18695 0.0
C340 C 0.68959 0.19038 0.16168 0.0
H341 H 0.56537 0.0936 1.00162 0.0
H342 H 0.59334 0.12753 0.03893 0.0
C343 C 0.70755 0.20996 0.17566 0.0
C344 C 0.64703 0.16562 0.17084 0.0
H345 H 0.64254 0.09945 0.14546 0.0
C346 C 0.62187 0.17359 0.1543 0.0
C347 C 0.65427 0.13846 0.16882 0.0
C348 C 0.6805 0.12854 0.1882 0.0
C349 C 0.60411 0.1552 0.13422 0.0
C350 C 0.61192 0.12826 0.12999 0.0
C351 C 0.6367 0.12017 0.14811 0.0
C352 C 0.59469 0.10801 0.10724 0.0
C353 C 0.57711 0.16476 0.11789 0.0
C354 C 0.58677 0.08544 0.13282 0.0
C355 C 0.57106 0.06594 0.11152 0.0
C356 C 0.56299 0.06851 0.06403 0.0
C357 C 0.57115 0.09104 0.03827 0.0
C358 C 0.58695 0.11056 0.05967 0.0
H359 H 0.57151 0.18378 0.13504 0.0
H360 H 0.57755 0.16819 0.07915 0.0
H361 H 0.56152 0.14972 0.12551 0.0
H362 H 0.59265 0.08298 0.16946 0.0
H363 H 0.56516 0.04888 0.13248 0.0
H364 H 0.59473 0.98233 0.97812 0.0
H365 H 0.631 0.95368 0.95205 0.0
H366 H 0.59583 0.88724 0.02574 0.0
H367 H 0.56005 0.91627 0.05392 0.0
H368 H 0.64868 0.88574 0.03369 0.0
H369 H 0.62216 0.90261 0.84582 0.0
H370 H 0.63025 0.93298 0.87549 0.0
H371 H 0.60153 0.9141 0.89342 0.0
C372 C 0.59481 0.96164 0.98902 0.0
C373 C 0.57439 0.95142 0.01754 0.0
C374 C 0.61548 0.94525 0.97386 0.0
C375 C 0.61573 0.91811 0.98569 0.0
C376 C 0.59594 0.90807 0.01581 0.0
H377 H 0.69488 0.79795 0.82342 0.0
H378 H 0.66429 0.82834 0.86192 0.0
C379 C 0.5755 0.92465 0.03186 0.0
C380 C 0.6361 0.90008 0.96534 0.0
H381 H 0.66252 0.87964 0.86077 0.0
C382 C 0.65167 0.88431 0.99588 0.0
C383 C 0.63974 0.89792 0.91592 0.0
C384 C 0.62234 0.91259 0.88077 0.0
C385 C 0.67079 0.86648 0.97837 0.0
C386 C 0.67503 0.86503 0.92901 0.0
C387 C 0.65951 0.88091 0.89862 0.0
C388 C 0.6941 0.84602 0.90746 0.0
C389 C 0.68554 0.8488 0.01286 0.0
C390 C 0.72121 0.84574 0.92008 0.0
C391 C 0.73881 0.82791 0.8985 0.0
C392 C 0.72967 0.81059 0.86311 0.0
C393 C 0.70264 0.8112 0.85023 0.0
C394 C 0.68507 0.82857 0.87231 0.0
H395 H 0.67485 0.84703 0.04699 0.0
H396 H 0.68842 0.82855 0.99824 0.0
H397 H 0.70541 0.85751 0.02024 0.0
H398 H 0.72885 0.85948 0.94616 0.0
H399 H 0.75957 0.82797 0.90894 0.0
H400 H 0.54309 0.55759 0.89186 0.0
H401 H 0.57638 0.59006 0.86794 0.0
H402 H 0.59332 0.60742 0.01401 0.0
H403 H 0.55968 0.57467 0.03866 0.0
H404 H 0.57935 0.64696 0.89423 0.0
H405 H 0.66668 0.58604 0.95082 0.0
H406 H 0.63429 0.57151 0.94082 0.0
H407 H 0.64025 0.59107 0.99259 0.0
C408 C 0.55379 0.56829 0.91911 0.0
C409 C 0.54883 0.5634 0.96726 0.0
C410 C 0.57278 0.58691 0.90527 0.0
C411 C 0.58743 0.60092 0.93917 0.0
C412 C 0.58232 0.59656 0.98734 0.0
H413 H 0.72278 0.70567 0.88813 0.0
H414 H 0.68861 0.67811 0.92486 0.0
C415 C 0.56306 0.57798 1.00134 0.0
C416 C 0.60823 0.61973 0.92326 0.0
H417 H 0.67547 0.62642 0.91181 0.0
C418 C 0.60039 0.64265 0.8984 0.0
C419 C 0.63559 0.61397 0.9288 0.0
C420 C 0.64491 0.58927 0.95446 0.0
C421 C 0.61924 0.65993 0.8785 0.0
C422 C 0.64664 0.65368 0.8825 0.0
C423 C 0.65447 0.63108 0.90848 0.0
C424 C 0.66748 0.67018 0.85968 0.0
C425 C 0.6096 0.6848 0.85373 0.0
C426 C 0.66729 0.67447 0.81059 0.0
C427 C 0.68677 0.69037 0.7894 0.0
C428 C 0.707 0.702 0.81686 0.0
C429 C 0.7075 0.69705 0.86586 0.0
C430 C 0.68796 0.6813 0.887 0.0
H431 H 0.58946 0.69067 0.86589 0.0
H432 H 0.62343 0.70168 0.85971 0.0
H433 H 0.60838 0.68105 0.81518 0.0
H434 H 0.65209 0.66551 0.78861 0.0
H435 H 0.6859 0.69362 0.75157 0.0
H436 H 0.7409 0.31037 0.05605 0.0
H437 H 0.70927 0.33637 0.00763 0.0
H438 H 0.67997 0.37444 0.13322 0.0
H439 H 0.71105 0.34868 0.18144 0.0
H440 H 0.65053 0.33643 0.02183 0.0
H441 H 0.69545 0.43655 0.03855 0.0
H442 H 0.71426 0.40626 0.04763 0.0
H443 H 0.69318 0.4188 0.0936 0.0
C444 C 0.728 0.32462 0.07314 0.0
C445 C 0.7285 0.32749 0.12258 0.0
C446 C 0.70988 0.33933 0.0455 0.0
C447 C 0.69243 0.35748 0.06684 0.0
C448 C 0.69346 0.3608 0.11596 0.0
H449 H 0.55961 0.45576 0.04843 0.0
H450 H 0.59905 0.42899 0.06338 0.0
C451 C 0.71121 0.34597 0.1435 0.0
C452 C 0.67198 0.37214 0.03903 0.0
H453 H 0.64897 0.43508 0.01873 0.0
C454 C 0.6504 0.35798 0.01998 0.0
C455 C 0.67192 0.40023 0.03671 0.0
C456 C 0.69506 0.41639 0.05481 0.0
C457 C 0.62786 0.37128 1.00184 0.0
C458 C 0.62713 0.39943 0.00228 0.0
C459 C 0.64947 0.4135 0.0186 0.0
C460 C 0.60242 0.41467 0.99175 0.0
C461 C 0.6043 0.35521 0.98525 0.0
C462 C 0.59091 0.41539 0.94637 0.0
C463 C 0.56804 0.4308 0.93755 0.0
C464 C 0.55644 0.44578 0.97399 0.0
C465 C 0.56794 0.4446 0.01939 0.0
C466 C 0.5906 0.4293 0.02808 0.0
H467 H 0.60671 0.33365 0.99298 0.0
H468 H 0.5858 0.36236 0.00233 0.0
H469 H 0.60184 0.35776 0.94652 0.0
H470 H 0.59988 0.40448 0.91764 0.0
H471 H 0.55977 0.43137 0.90216 0.0
H472 H 0.8192 0.34806 0.24024 0.0
H473 H 0.84968 0.3797 0.27715 0.0
H474 H 0.81002 0.36905 0.41048 0.0
H475 H 0.77909 0.33735 0.37372 0.0
H476 H 0.83323 0.42972 0.34253 0.0
H477 H 0.89575 0.34886 0.42052 0.0
H478 H 0.87634 0.34362 0.36749 0.0
H479 H 0.85997 0.34655 0.42328 0.0
C480 C 0.81673 0.35258 0.27734 0.0
C481 C 0.79675 0.34007 0.3041 0.0
C482 C 0.83415 0.37072 0.29829 0.0
C483 C 0.83212 0.37657 0.34645 0.0
C484 C 0.81185 0.36471 0.37319 0.0
H485 H 0.94918 0.4579 0.52249 0.0
H486 H 0.9116 0.43151 0.49408 0.0
C487 C 0.79419 0.34668 0.35212 0.0
C488 C 0.85209 0.39417 0.36881 0.0
H489 H 0.91057 0.39275 0.43053 0.0
C490 C 0.85007 0.42175 0.36211 0.0
C491 C 0.8739 0.38361 0.39435 0.0
C492 C 0.8769 0.35404 0.40199 0.0
C493 C 0.86946 0.43914 0.38023 0.0
C494 C 0.89185 0.42853 0.40446 0.0
C495 C 0.89351 0.40091 0.41185 0.0
C496 C 0.91402 0.44557 0.42185 0.0
C497 C 0.86554 0.46869 0.37372 0.0
C498 C 0.9281 0.46217 0.3907 0.0
C499 C 0.9495 0.47749 0.40695 0.0
C500 C 0.95755 0.47618 0.45457 0.0
C501 C 0.94355 0.45938 0.48559 0.0
C502 C 0.92203 0.44427 0.4694 0.0
H503 H 0.84419 0.47375 0.36851 0.0
H504 H 0.87322 0.47993 0.40458 0.0
H505 H 0.87643 0.47536 0.3418 0.0
H506 H 0.92284 0.46297 0.35358 0.0
H507 H 0.95998 0.49003 0.38203 0.0
H508 H 0.85392 0.7087 0.83401 0.0
H509 H 0.88734 0.67546 0.8116 0.0
H510 H 0.8391 0.65307 0.69187 0.0
H511 H 0.80571 0.68583 0.71394 0.0
H512 H 0.86031 0.60936 0.74422 0.0
H513 H 0.93722 0.68427 0.69607 0.0
H514 H 0.9234 0.68657 0.75439 0.0
H515 H 0.90268 0.69302 0.70379 0.0
C516 C 0.85039 0.69659 0.80307 0.0
C517 C 0.82721 0.70006 0.77561 0.0
C518 C 0.86955 0.6777 0.79022 0.0
C519 C 0.86579 0.66202 0.7498 0.0
C520 C 0.8424 0.66499 0.72315 0.0
H521 H 0.965 0.57902 0.55822 0.0
H522 H 0.93582 0.60875 0.60203 0.0
C523 C 0.82336 0.68383 0.7358 0.0
C524 C 0.8863 0.64286 0.734 0.0
H525 H 0.94783 0.6393 0.68376 0.0
C526 C 0.8796 0.6158 0.73155 0.0
C527 C 0.91131 0.65145 0.71707 0.0
C528 C 0.91917 0.68041 0.71752 0.0
C529 C 0.89699 0.59714 0.71155 0.0
C530 C 0.92183 0.60579 0.69399 0.0
C531 C 0.92881 0.63275 0.6975 0.0
C532 C 0.93992 0.58762 0.66839 0.0
C533 C 0.88819 0.56855 0.70741 0.0
C534 C 0.95207 0.56593 0.6913 0.0
C535 C 0.9688 0.54879 0.66628 0.0
C536 C 0.9737 0.55311 0.61794 0.0
C537 C 0.96163 0.57502 0.59534 0.0
C538 C 0.94499 0.59211 0.62035 0.0
H539 H 0.86665 0.5661 0.71488 0.0
H540 H 0.89229 0.56084 0.67147 0.0
H541 H 0.89954 0.55619 0.73311 0.0
H542 H 0.94869 0.56233 0.72854 0.0
H543 H 0.97788 0.53218 0.68481 0.0
H544 H 0.43169 0.44243 0.99145 0.0
H545 H 0.39974 0.41152 0.02566 0.0
H546 H 0.42156 0.43773 0.16546 0.0
H547 H 0.45323 0.46942 0.13125 0.0
H548 H 0.40862 0.37014 0.08321 0.0
H549 H 0.34152 0.44167 0.17215 0.0
H550 H 0.36628 0.45209 0.13002 0.0
H551 H 0.37571 0.44453 0.18999 0.0
C552 C 0.42963 0.44181 0.02951 0.0
C553 C 0.44502 0.45847 0.05862 0.0
C554 C 0.41131 0.42408 0.04902 0.0
C555 C 0.40794 0.42248 0.09811 0.0
C556 C 0.42332 0.43902 0.12742 0.0
H557 H 0.31823 0.31261 0.27368 0.0
H558 H 0.34831 0.34671 0.24301 0.0
C559 C 0.44155 0.45702 0.10784 0.0
C560 C 0.38907 0.40268 0.11817 0.0
H561 H 0.33409 0.39578 0.18784 0.0
C562 C 0.39226 0.3758 0.10592 0.0
C563 C 0.3677 0.41004 0.14783 0.0
C564 C 0.36238 0.43867 0.16047 0.0
C565 C 0.37485 0.35613 0.12269 0.0
C566 C 0.35357 0.36349 0.15232 0.0
C567 C 0.35044 0.39026 0.16502 0.0
C568 C 0.33455 0.34352 0.1708 0.0
C569 C 0.37949 0.32751 0.10914 0.0
C570 C 0.31658 0.3307 0.14038 0.0
C571 C 0.29921 0.31126 0.15779 0.0
C572 C 0.29963 0.30421 0.20595 0.0
C573 C 0.31745 0.31742 0.23636 0.0
C574 C 0.33463 0.33698 0.21898 0.0
H575 H 0.39941 0.32449 0.09318 0.0
H576 H 0.37764 0.31429 0.1405 0.0
H577 H 0.36418 0.3214 0.08299 0.0
H578 H 0.31607 0.33567 0.10311 0.0
H579 H 0.28573 0.30152 0.13344 0.0
H580 H 0.319 0.70646 0.71837 0.0
H581 H 0.34568 0.66804 0.74169 0.0
H582 H 0.3162 0.67419 0.88406 0.0
H583 H 0.28871 0.71238 0.86055 0.0
H584 H 0.38536 0.66461 0.80362 0.0
H585 H 0.30499 0.59623 0.85992 0.0
H586 H 0.29837 0.62663 0.82782 0.0
H587 H 0.30443 0.62739 0.89053 0.0
C588 C 0.31801 0.69961 0.75465 0.0
C589 C 0.30162 0.71252 0.78759 0.0
C590 C 0.33332 0.67757 0.76792 0.0
C591 C 0.33271 0.66787 0.81446 0.0
C592 C 0.31652 0.68081 0.84762 0.0
H593 H 0.42726 0.55586 0.97336 0.0
H594 H 0.39566 0.58916 0.94459 0.0
C595 C 0.30095 0.70279 0.83423 0.0
C596 C 0.34995 0.64496 0.82835 0.0
H597 H 0.34941 0.58311 0.87923 0.0
C598 C 0.37742 0.6467 0.81974 0.0
C599 C 0.33964 0.6215 0.84928 0.0
C600 C 0.31022 0.61765 0.85702 0.0
C601 C 0.39487 0.62599 0.83243 0.0
C602 C 0.38461 0.60281 0.85409 0.0
C603 C 0.35718 0.6009 0.86248 0.0
C604 C 0.40236 0.58104 0.8707 0.0
C605 C 0.42428 0.6293 0.82381 0.0
C606 C 0.41621 0.56495 0.83861 0.0
C607 C 0.43427 0.54566 0.85496 0.0
C608 C 0.4389 0.54232 0.90369 0.0
C609 C 0.42434 0.55799 0.93559 0.0
C610 C 0.40619 0.57702 0.91926 0.0
H611 H 0.42947 0.64999 0.81342 0.0
H612 H 0.43584 0.62384 0.85597 0.0
H613 H 0.43049 0.61578 0.795 0.0
H614 H 0.41333 0.56761 0.80093 0.0
H615 H 0.44515 0.53394 0.82949 0.0
H616 H 0.19744 0.72397 0.6901 0.0
H617 H 0.16808 0.69236 0.65137 0.0
H618 H 0.21551 0.69674 0.52512 0.0
H619 H 0.24549 0.72867 0.56403 0.0
H620 H 0.13834 0.69902 0.56548 0.0
H621 H 0.21131 0.61562 0.55859 0.0
H622 H 0.21606 0.64396 0.59667 0.0
H623 H 0.2212 0.64724 0.53427 0.0
C624 C 0.20178 0.71832 0.65406 0.0
C625 C 0.22398 0.7288 0.63026 0.0
C626 C 0.18485 0.70026 0.63194 0.0
C627 C 0.18971 0.69205 0.58556 0.0
C628 C 0.2116 0.70264 0.56118 0.0
H629 H 0.06747 0.59231 0.44816 0.0
H630 H 0.10148 0.62664 0.45955 0.0
C631 C 0.22862 0.72093 0.58335 0.0
C632 C 0.17167 0.67217 0.56384 0.0
H633 H 0.16743 0.60641 0.5348 0.0
C634 C 0.14473 0.67887 0.55794 0.0
C635 C 0.18009 0.64586 0.5546 0.0
C636 C 0.20869 0.6375 0.5615 0.0
C637 C 0.12581 0.65976 0.54457 0.0
C638 C 0.13411 0.63329 0.53644 0.0
C639 C 0.16119 0.62676 0.54086 0.0
C640 C 0.11466 0.61168 0.52752 0.0
C641 C 0.09687 0.66769 0.54166 0.0
C642 C 0.11123 0.59156 0.56143 0.0
C643 C 0.09187 0.57195 0.55508 0.0
C644 C 0.0756 0.57196 0.51449 0.0
C645 C 0.07956 0.59177 0.47993 0.0
C646 C 0.09893 0.61146 0.48641 0.0
H647 H 0.09327 0.68773 0.55675 0.0
H648 H 0.09045 0.66802 0.5041 0.0
H649 H 0.08427 0.65304 0.56065 0.0
H650 H 0.12318 0.59136 0.59339 0.0
H651 H 0.08948 0.55694 0.58231 0.0
H652 H 0.18346 0.28486 0.32356 0.0
H653 H 0.15376 0.31734 0.35959 0.0
H654 H 0.21827 0.34513 0.44762 0.0
H655 H 0.24766 0.31134 0.41357 0.0
H656 H 0.17504 0.34525 0.4965 0.0
H657 H 0.15135 0.39348 0.3258 0.0
H658 H 0.14196 0.35914 0.32476 0.0
H659 H 0.17654 0.36812 0.33121 0.0
C660 C 0.19126 0.29785 0.35074 0.0
C661 C 0.21791 0.29582 0.36545 0.0
C662 C 0.17433 0.31658 0.37104 0.0
C663 C 0.18394 0.33439 0.40521 0.0
C664 C 0.2104 0.33183 0.42101 0.0
H665 H 0.09441 0.47895 0.46101 0.0
H666 H 0.12772 0.44641 0.43681 0.0
C667 C 0.2272 0.31255 0.40156 0.0
C668 C 0.16638 0.35567 0.42412 0.0
H669 H 0.12304 0.40453 0.3903 0.0
C670 C 0.16387 0.3584 0.47328 0.0
C671 C 0.15222 0.37333 0.394 0.0
C672 C 0.1559 0.37357 0.34108 0.0
C673 C 0.14721 0.37785 0.49306 0.0
C674 C 0.13168 0.39429 0.46282 0.0
C675 C 0.13459 0.3918 0.4137 0.0
C676 C 0.11254 0.4145 0.48081 0.0
C677 C 0.14707 0.38091 0.54606 0.0
C678 C 0.0929 0.40766 0.51395 0.0
C679 C 0.07431 0.42657 0.52889 0.0
C680 C 0.0744 0.45236 0.50963 0.0
C681 C 0.09382 0.45914 0.47623 0.0
C682 C 0.11285 0.44052 0.46238 0.0
H683 H 0.1661 0.37395 0.56203 0.0
H684 H 0.14382 0.40192 0.55651 0.0
H685 H 0.13089 0.36854 0.56111 0.0
H686 H 0.09151 0.38756 0.52756 0.0
H687 H 0.05931 0.42077 0.55429 0.0
loop_
_geom_bond_atom_site_label_1
_geom_bond_atom_site_label_2
_geom_bond_distance
_geom_bond_site_symmetry_2
_ccdc_geom_bond_type
C0 O2 1.247 . S
C0 O4 1.258 . S
C1 O8 1.247 . S
C1 O9 1.258 . S
O2 C0 1.247 . S
O2 Zn3 2.030 1_655 S
Zn3 O2 2.030 1_455 S
Zn3 O7 2.037 1_465 S
Zn3 O9 2.033 1_565 S
Zn3 O10 2.026 . S
O4 C0 1.258 . S
O4 Zn5 2.033 1_665 S
Zn5 O4 2.033 1_445 S
Zn5 O6 2.026 1_455 S
Zn5 O8 2.030 . S
Zn5 O11 2.037 1_545 S
O6 Zn5 2.026 1_655 S
O6 C12 1.247 . S
O7 Zn3 2.037 1_645 S
O7 C12 1.258 . S
O8 C1 1.247 . S
O8 Zn5 2.030 . S
O9 C1 1.258 . S
O9 Zn3 2.033 1_545 S
O10 Zn3 2.026 . S
O10 C13 1.247 . S
O11 Zn5 2.037 1_565 S
O11 C13 1.258 . S
C12 O6 1.247 . S
C12 O7 1.258 . S
C13 O10 1.247 . S
C13 O11 1.258 . S
C14 O16 1.247 . S
C14 O18 1.258 . S
C15 O22 1.247 . S
C15 O23 1.258 . S
O16 C14 1.247 . S
O16 Zn17 2.028 . S
Zn17 O16 2.028 . S
Zn17 O21 2.035 . S
Zn17 O23 2.035 . S
Zn17 O24 2.028 . S
O18 C14 1.258 . S
O18 Zn19 2.035 . S
Zn19 O18 2.035 . S
Zn19 O20 2.028 . S
Zn19 O22 2.028 . S
Zn19 O25 2.035 . S
O20 Zn19 2.028 . S
O20 C26 1.247 . S
O21 Zn17 2.035 . S
O21 C26 1.258 . S
O22 C15 1.247 . S
O22 Zn19 2.028 . S
O23 C15 1.258 . S
O23 Zn17 2.035 . S
O24 Zn17 2.028 . S
O24 C27 1.247 . S
O25 Zn19 2.035 . S
O25 C27 1.258 . S
C26 O20 1.247 . S
C26 O21 1.258 . S
C27 O24 1.247 . S
C27 O25 1.258 . S
C28 O30 1.247 . S
C28 O32 1.258 1_556 S
C29 O36 1.247 . S
C29 O37 1.258 1_554 S
O30 C28 1.247 . S
O30 Zn31 2.028 1_565 S
Zn31 O30 2.028 1_545 S
Zn31 O35 2.035 . S
Zn31 O37 2.035 . S
Zn31 O38 2.028 1_545 S
O32 C28 1.258 1_554 S
O32 Zn33 2.035 . S
Zn33 O32 2.035 . S
Zn33 O34 2.028 1_565 S
Zn33 O36 2.028 1_565 S
Zn33 O39 2.035 . S
O34 Zn33 2.028 1_545 S
O34 C40 1.247 . S
O35 Zn31 2.035 . S
O35 C40 1.258 1_556 S
O36 C29 1.247 . S
O36 Zn33 2.028 1_545 S
O37 C29 1.258 1_556 S
O37 Zn31 2.035 . S
O38 Zn31 2.028 1_565 S
O38 C41 1.247 . S
O39 Zn33 2.035 . S
O39 C41 1.258 1_554 S
C40 O34 1.247 . S
C40 O35 1.258 1_554 S
C41 O38 1.247 . S
C41 O39 1.258 1_556 S
C42 O44 1.247 . S
C42 O46 1.258 . S
C43 O50 1.247 . S
C43 O51 1.258 . S
O44 C42 1.247 . S
O44 Zn45 2.028 . S
Zn45 O44 2.028 . S
Zn45 O49 2.035 . S
Zn45 O51 2.035 . S
Zn45 O52 2.028 . S
O46 C42 1.258 . S
O46 Zn47 2.035 . S
Zn47 O46 2.035 . S
Zn47 O48 2.028 . S
Zn47 O50 2.028 . S
Zn47 O53 2.035 . S
O48 Zn47 2.028 . S
O48 C54 1.247 . S
O49 Zn45 2.035 . S
O49 C54 1.258 . S
O50 C43 1.247 . S
O50 Zn47 2.028 . S
O51 C43 1.258 . S
O51 Zn45 2.035 . S
O52 Zn45 2.028 . S
O52 C55 1.247 . S
O53 Zn47 2.035 . S
O53 C55 1.258 . S
C54 O48 1.247 . S
C54 O49 1.258 . S
C55 O52 1.247 . S
C55 O53 1.258 . S
C56 O58 1.247 . S
C56 O60 1.258 . S
C57 O64 1.247 . S
C57 O65 1.258 . S
O58 C56 1.247 . S
O58 Zn59 2.028 . S
Zn59 O58 2.028 . S
Zn59 O63 2.035 . S
Zn59 O65 2.035 . S
Zn59 O66 2.028 . S
O60 C56 1.258 . S
O60 Zn61 2.035 . S
Zn61 O60 2.035 . S
Zn61 O62 2.028 . S
Zn61 O64 2.028 . S
Zn61 O67 2.035 . S
O62 Zn61 2.028 . S
O62 C68 1.247 . S
O63 Zn59 2.035 . S
O63 C68 1.258 . S
O64 C57 1.247 . S
O64 Zn61 2.028 . S
O65 C57 1.258 . S
O65 Zn59 2.035 . S
O66 Zn59 2.028 . S
O66 C69 1.247 . S
O67 Zn61 2.035 . S
O67 C69 1.258 . S
C68 O62 1.247 . S
C68 O63 1.258 . S
C69 O66 1.247 . S
C69 O67 1.258 . S
C70 O72 1.247 . S
C70 O74 1.258 . S
C71 O78 1.247 . S
C71 O79 1.258 . S
O72 C70 1.247 . S
O72 Zn73 2.028 . S
Zn73 O72 2.028 . S
Zn73 O77 2.035 . S
Zn73 O79 2.035 . S
Zn73 O80 2.028 . S
O74 C70 1.258 . S
O74 Zn75 2.035 . S
Zn75 O74 2.035 . S
Zn75 O76 2.028 . S
Zn75 O78 2.028 . S
Zn75 O81 2.035 . S
O76 Zn75 2.028 . S
O76 C82 1.247 . S
O77 Zn73 2.035 . S
O77 C82 1.258 . S
O78 C71 1.247 . S
O78 Zn75 2.028 . S
O79 C71 1.258 . S
O79 Zn73 2.035 . S
O80 Zn73 2.028 . S
O80 C83 1.247 . S
O81 Zn75 2.035 . S
O81 C83 1.258 . S
C82 O76 1.247 . S
C82 O77 1.258 . S
C83 O80 1.247 . S
C83 O81 1.258 . S
C84 O86 1.247 1_556 S
C84 O88 1.258 . S
C85 O92 1.247 1_554 S
C85 O93 1.258 . S
O86 C84 1.247 1_554 S
O86 Zn87 2.028 . S
Zn87 O86 2.028 . S
Zn87 O91 2.035 . S
Zn87 O93 2.035 . S
Zn87 O94 2.028 . S
O88 C84 1.258 . S
O88 Zn89 2.035 . S
Zn89 O88 2.035 . S
Zn89 O90 2.028 . S
Zn89 O92 2.028 . S
Zn89 O95 2.035 . S
O90 Zn89 2.028 . S
O90 C96 1.247 1_556 S
O91 Zn87 2.035 . S
O91 C96 1.258 . S
O92 C85 1.247 1_556 S
O92 Zn89 2.028 . S
O93 C85 1.258 . S
O93 Zn87 2.035 . S
O94 Zn87 2.028 . S
O94 C97 1.247 1_554 S
O95 Zn89 2.035 . S
O95 C97 1.258 . S
C96 O90 1.247 1_554 S
C96 O91 1.258 . S
C97 O94 1.247 1_556 S
C97 O95 1.258 . S
C98 O100 1.247 . S
C98 O102 1.258 . S
C99 O106 1.247 . S
C99 O107 1.258 . S
O100 C98 1.247 . S
O100 Zn101 2.030 1_655 S
Zn101 O100 2.030 1_455 S
Zn101 O105 2.037 1_455 S
Zn101 O107 2.033 . S
Zn101 O108 2.026 . S
O102 C98 1.258 . S
O102 Zn103 2.033 1_655 S
Zn103 O102 2.033 1_455 S
Zn103 O104 2.026 1_455 S
Zn103 O106 2.030 . S
Zn103 O109 2.037 . S
O104 Zn103 2.026 1_655 S
O104 C110 1.247 . S
O105 Zn101 2.037 1_655 S
O105 C110 1.258 . S
O106 C99 1.247 . S
O106 Zn103 2.030 . S
O107 C99 1.258 . S
O107 Zn101 2.033 . S
O108 Zn101 2.026 . S
O108 C111 1.247 . S
O109 Zn103 2.037 . S
O109 C111 1.258 . S
C110 O104 1.247 . S
C110 O105 1.258 . S
C111 O108 1.247 . S
C111 O109 1.258 . S
H112 C120 0.929 . S
H113 C122 0.930 . S
H114 C124 0.930 . S
H115 C127 0.929 . S
H116 C130 0.930 . S
H117 C132 0.960 . S
H118 C132 0.960 . S
H119 C132 0.960 . S
C120 H112 0.929 . S
C120 C121 1.377 . S
C120 C122 1.384 . S
C121 C120 1.377 . S
C121 C127 1.390 . S
C122 H113 0.930 . S
C122 C120 1.384 . S
C122 C123 1.372 . S
C123 C122 1.372 . S
C123 C124 1.400 . S
C123 C128 1.490 . S
C124 H114 0.930 . S
C124 C123 1.400 . S
C124 C127 1.386 . S
H125 C141 0.930 . S
H126 C142 0.931 . S
C127 H115 0.929 . S
C127 C121 1.390 . S
C127 C124 1.386 . S
C128 C123 1.490 . S
C128 C130 1.395 . S
C128 C131 1.403 . S
H129 C135 0.930 . S
C130 H116 0.930 . S
C130 C128 1.395 . S
C130 C133 1.403 . S
C131 C128 1.403 . S
C131 C132 1.524 . S
C131 C135 1.400 . S
C132 H117 0.960 . S
C132 H118 0.960 . S
C132 H119 0.960 . S
C132 C131 1.524 . S
C133 C130 1.403 . S
C133 C134 1.392 . S
C133 C137 1.495 . S
C134 C133 1.392 . S
C134 C135 1.385 . S
C134 C136 1.478 . S
C135 H129 0.930 . S
C135 C131 1.400 . S
C135 C134 1.385 . S
C136 C134 1.478 . S
C136 C138 1.381 . S
C136 C142 1.383 . S
C137 C133 1.495 . S
C137 H143 0.959 . S
C137 H144 0.961 . S
C137 H145 0.960 . S
C138 C136 1.381 . S
C138 C139 1.394 . S
C138 H146 0.930 . S
C139 C138 1.394 . S
C139 C140 1.383 . S
C139 H147 0.929 . S
C140 C139 1.383 . S
C140 C141 1.377 . S
C141 H125 0.930 . S
C141 C140 1.377 . S
C141 C142 1.379 . S
C142 H126 0.931 . S
C142 C136 1.383 . S
C142 C141 1.379 . S
H143 C137 0.959 . S
H144 C137 0.961 . S
H145 C137 0.960 . S
H146 C138 0.930 . S
H147 C139 0.929 . S
H148 C156 0.929 . S
H149 C158 0.930 . S
H150 C160 0.930 . S
H151 C163 0.929 . S
H152 C166 0.930 . S
H153 C168 0.960 . S
H154 C168 0.960 . S
H155 C168 0.960 . S
C156 H148 0.929 . S
C156 C157 1.377 . S
C156 C158 1.384 . S
C157 C156 1.377 . S
C157 C163 1.390 . S
C158 H149 0.930 . S
C158 C156 1.384 . S
C158 C159 1.372 . S
C159 C158 1.372 . S
C159 C160 1.400 . S
C159 C164 1.490 . S
C160 H150 0.930 . S
C160 C159 1.400 . S
C160 C163 1.386 . S
H161 C177 0.930 . S
H162 C178 0.931 . S
C163 H151 0.929 . S
C163 C157 1.390 . S
C163 C160 1.386 . S
C164 C159 1.490 . S
C164 C166 1.395 . S
C164 C167 1.403 . S
H165 C171 0.930 . S
C166 H152 0.930 . S
C166 C164 1.395 . S
C166 C169 1.403 . S
C167 C164 1.403 . S
C167 C168 1.524 . S
C167 C171 1.400 . S
C168 H153 0.960 . S
C168 H154 0.960 . S
C168 H155 0.960 . S
C168 C167 1.524 . S
C169 C166 1.403 . S
C169 C170 1.392 . S
C169 C173 1.495 . S
C170 C169 1.392 . S
C170 C171 1.385 . S
C170 C172 1.478 . S
C171 H165 0.930 . S
C171 C167 1.400 . S
C171 C170 1.385 . S
C172 C170 1.478 . S
C172 C174 1.381 . S
C172 C178 1.383 . S
C173 C169 1.495 . S
C173 H179 0.959 . S
C173 H180 0.961 . S
C173 H181 0.960 . S
C174 C172 1.381 . S
C174 C175 1.394 . S
C174 H182 0.930 . S
C175 C174 1.394 . S
C175 C176 1.383 . S
C175 H183 0.929 . S
C176 C175 1.383 . S
C176 C177 1.377 . S
C177 H161 0.930 . S
C177 C176 1.377 . S
C177 C178 1.379 . S
C178 H162 0.931 . S
C178 C172 1.383 . S
C178 C177 1.379 . S
H179 C173 0.959 . S
H180 C173 0.961 . S
H181 C173 0.960 . S
H182 C174 0.930 . S
H183 C175 0.929 . S
H184 C192 0.929 . S
H185 C194 0.930 . S
H186 C196 0.930 . S
H187 C199 0.930 . S
H188 C202 0.930 . S
H189 C204 0.960 . S
H190 C204 0.960 . S
H191 C204 0.960 . S
C192 H184 0.929 . S
C192 C193 1.377 . S
C192 C194 1.384 . S
C193 C192 1.377 . S
C193 C199 1.390 . S
C194 H185 0.930 . S
C194 C192 1.384 . S
C194 C195 1.372 . S
C195 C194 1.372 . S
C195 C196 1.400 . S
C195 C200 1.490 . S
C196 H186 0.930 . S
C196 C195 1.400 . S
C196 C199 1.386 . S
H197 C213 0.930 . S
H198 C214 0.931 . S
C199 H187 0.930 . S
C199 C193 1.390 . S
C199 C196 1.386 . S
C200 C195 1.490 . S
C200 C202 1.395 . S
C200 C203 1.403 . S
H201 C207 0.930 . S
C202 H188 0.930 . S
C202 C200 1.395 . S
C202 C205 1.403 . S
C203 C200 1.403 . S
C203 C204 1.524 . S
C203 C207 1.400 . S
C204 H189 0.960 . S
C204 H190 0.960 . S
C204 H191 0.960 . S
C204 C203 1.524 . S
C205 C202 1.403 . S
C205 C206 1.392 . S
C205 C209 1.495 . S
C206 C205 1.392 . S
C206 C207 1.385 . S
C206 C208 1.478 . S
C207 H201 0.930 . S
C207 C203 1.400 . S
C207 C206 1.385 . S
C208 C206 1.478 . S
C208 C210 1.381 . S
C208 C214 1.383 . S
C209 C205 1.495 . S
C209 H215 0.959 . S
C209 H216 0.961 . S
C209 H217 0.960 . S
C210 C208 1.381 . S
C210 C211 1.394 . S
C210 H218 0.930 . S
C211 C210 1.394 . S
C211 C212 1.383 . S
C211 H219 0.929 . S
C212 C211 1.383 . S
C212 C213 1.377 . S
C213 H197 0.930 . S
C213 C212 1.377 . S
C213 C214 1.379 . S
C214 H198 0.931 . S
C214 C208 1.383 . S
C214 C213 1.379 . S
H215 C209 0.959 . S
H216 C209 0.961 . S
H217 C209 0.960 . S
H218 C210 0.930 . S
H219 C211 0.929 . S
H220 C228 0.929 . S
H221 C230 0.930 . S
H222 C232 0.930 . S
H223 C235 0.929 . S
H224 C238 0.930 . S
H225 C240 0.960 . S
H226 C240 0.960 . S
H227 C240 0.960 . S
C228 H220 0.929 . S
C228 C229 1.377 . S
C228 C230 1.384 . S
C229 C228 1.377 . S
C229 C235 1.390 . S
C230 H221 0.930 . S
C230 C228 1.384 . S
C230 C231 1.372 . S
C231 C230 1.372 . S
C231 C232 1.400 . S
C231 C236 1.490 . S
C232 H222 0.930 . S
C232 C231 1.400 . S
C232 C235 1.386 . S
H233 C249 0.930 . S
H234 C250 0.931 . S
C235 H223 0.929 . S
C235 C229 1.390 . S
C235 C232 1.386 . S
C236 C231 1.490 . S
C236 C238 1.395 . S
C236 C239 1.403 . S
H237 C243 0.930 . S
C238 H224 0.930 . S
C238 C236 1.395 . S
C238 C241 1.403 . S
C239 C236 1.403 . S
C239 C240 1.524 . S
C239 C243 1.400 . S
C240 H225 0.960 . S
C240 H226 0.960 . S
C240 H227 0.960 . S
C240 C239 1.524 . S
C241 C238 1.403 . S
C241 C242 1.392 . S
C241 C245 1.495 . S
C242 C241 1.392 . S
C242 C243 1.385 . S
C242 C244 1.478 . S
C243 H237 0.930 . S
C243 C239 1.400 . S
C243 C242 1.385 . S
C244 C242 1.478 . S
C244 C246 1.381 . S
C244 C250 1.383 . S
C245 C241 1.495 . S
C245 H251 0.959 . S
C245 H252 0.961 . S
C245 H253 0.960 . S
C246 C244 1.381 . S
C246 C247 1.394 . S
C246 H254 0.930 . S
C247 C246 1.394 . S
C247 C248 1.383 . S
C247 H255 0.929 . S
C248 C247 1.383 . S
C248 C249 1.377 . S
C249 H233 0.930 . S
C249 C248 1.377 . S
C249 C250 1.379 . S
C250 H234 0.931 . S
C250 C244 1.383 . S
C250 C249 1.379 . S
H251 C245 0.959 . S
H252 C245 0.961 . S
H253 C245 0.960 . S
H254 C246 0.930 . S
H255 C247 0.929 . S
H256 C264 0.929 . S
H257 C266 0.930 . S
H258 C268 0.930 . S
H259 C271 0.929 . S
H260 C274 0.930 . S
H261 C276 0.960 . S
H262 C276 0.960 . S
H263 C276 0.960 . S
C264 H256 0.929 . S
C264 C265 1.377 . S
C264 C266 1.384 . S
C265 C264 1.377 . S
C265 C271 1.390 . S
C266 H257 0.930 . S
C266 C264 1.384 . S
C266 C267 1.372 . S
C267 C266 1.372 . S
C267 C268 1.400 . S
C267 C272 1.490 . S
C268 H258 0.930 . S
C268 C267 1.400 . S
C268 C271 1.386 . S
H269 C285 0.930 . S
H270 C286 0.931 . S
C271 H259 0.929 . S
C271 C265 1.390 . S
C271 C268 1.386 . S
C272 C267 1.490 . S
C272 C274 1.395 . S
C272 C275 1.403 . S
H273 C279 0.930 . S
C274 H260 0.930 . S
C274 C272 1.395 . S
C274 C277 1.403 . S
C275 C272 1.403 . S
C275 C276 1.524 . S
C275 C279 1.400 . S
C276 H261 0.960 . S
C276 H262 0.960 . S
C276 H263 0.960 . S
C276 C275 1.524 . S
C277 C274 1.403 . S
C277 C278 1.392 . S
C277 C281 1.495 . S
C278 C277 1.392 . S
C278 C279 1.385 . S
C278 C280 1.478 . S
C279 H273 0.930 . S
C279 C275 1.400 . S
C279 C278 1.385 . S
C280 C278 1.478 . S
C280 C282 1.381 . S
C280 C286 1.383 . S
C281 C277 1.495 . S
C281 H287 0.959 . S
C281 H288 0.961 . S
C281 H289 0.960 . S
C282 C280 1.381 . S
C282 C283 1.394 . S
C282 H290 0.930 . S
C283 C282 1.394 . S
C283 C284 1.383 . S
C283 H291 0.929 . S
C284 C283 1.383 . S
C284 C285 1.377 . S
C285 H269 0.930 . S
C285 C284 1.377 . S
C285 C286 1.379 . S
C286 H270 0.931 . S
C286 C280 1.383 . S
C286 C285 1.379 . S
H287 C281 0.959 . S
H288 C281 0.961 . S
H289 C281 0.960 . S
H290 C282 0.930 . S
H291 C283 0.929 . S
H292 C300 0.929 . S
H293 C302 0.930 . S
H294 C304 0.930 . S
H295 C307 0.929 . S
H296 C310 0.930 . S
H297 C312 0.960 . S
H298 C312 0.960 . S
H299 C312 0.960 . S
C300 H292 0.929 . S
C300 C301 1.377 . S
C300 C302 1.384 . S
C301 C300 1.377 . S
C301 C307 1.390 . S
C302 H293 0.930 . S
C302 C300 1.384 . S
C302 C303 1.372 . S
C303 C302 1.372 . S
C303 C304 1.400 . S
C303 C308 1.490 . S
C304 H294 0.930 . S
C304 C303 1.400 . S
C304 C307 1.386 . S
H305 C321 0.930 . S
H306 C322 0.931 . S
C307 H295 0.929 . S
C307 C301 1.390 . S
C307 C304 1.386 . S
C308 C303 1.490 . S
C308 C310 1.395 . S
C308 C311 1.403 . S
H309 C315 0.930 . S
C310 H296 0.930 . S
C310 C308 1.395 . S
C310 C313 1.403 . S
C311 C308 1.403 . S
C311 C312 1.524 . S
C311 C315 1.400 . S
C312 H297 0.960 . S
C312 H298 0.960 . S
C312 H299 0.960 . S
C312 C311 1.524 . S
C313 C310 1.403 . S
C313 C314 1.392 . S
C313 C317 1.495 . S
C314 C313 1.392 . S
C314 C315 1.385 . S
C314 C316 1.478 . S
C315 H309 0.930 . S
C315 C311 1.400 . S
C315 C314 1.385 . S
C316 C314 1.478 . S
C316 C318 1.381 . S
C316 C322 1.383 . S
C317 C313 1.495 . S
C317 H323 0.959 . S
C317 H324 0.961 . S
C317 H325 0.960 . S
C318 C316 1.381 . S
C318 C319 1.394 . S
C318 H326 0.930 . S
C319 C318 1.394 . S
C319 C320 1.383 . S
C319 H327 0.929 . S
C320 C319 1.383 . S
C320 C321 1.377 . S
C321 H305 0.930 . S
C321 C320 1.377 . S
C321 C322 1.379 . S
C322 H306 0.931 . S
C322 C316 1.383 . S
C322 C321 1.379 . S
H323 C317 0.959 . S
H324 C317 0.961 . S
H325 C317 0.960 . S
H326 C318 0.930 . S
H327 C319 0.929 . S
H328 C336 0.929 . S
H329 C338 0.930 . S
H330 C340 0.930 . S
H331 C343 0.929 . S
H332 C346 0.930 . S
H333 C348 0.960 . S
H334 C348 0.960 . S
H335 C348 0.960 . S
C336 H328 0.929 . S
C336 C337 1.377 . S
C336 C338 1.384 . S
C337 C336 1.377 . S
C337 C343 1.390 . S
C338 H329 0.930 . S
C338 C336 1.384 . S
C338 C339 1.372 . S
C339 C338 1.372 . S
C339 C340 1.400 . S
C339 C344 1.490 . S
C340 H330 0.930 . S
C340 C339 1.400 . S
C340 C343 1.386 . S
H341 C357 0.930 . S
H342 C358 0.931 . S
C343 H331 0.929 . S
C343 C337 1.390 . S
C343 C340 1.386 . S
C344 C339 1.490 . S
C344 C346 1.395 . S
C344 C347 1.403 . S
H345 C351 0.930 . S
C346 H332 0.930 . S
C346 C344 1.395 . S
C346 C349 1.403 . S
C347 C344 1.403 . S
C347 C348 1.524 . S
C347 C351 1.400 . S
C348 H333 0.960 . S
C348 H334 0.960 . S
C348 H335 0.960 . S
C348 C347 1.524 . S
C349 C346 1.403 . S
C349 C350 1.392 . S
C349 C353 1.495 . S
C350 C349 1.392 . S
C350 C351 1.385 . S
C350 C352 1.478 . S
C351 H345 0.930 . S
C351 C347 1.400 . S
C351 C350 1.385 . S
C352 C350 1.478 . S
C352 C354 1.381 . S
C352 C358 1.383 . S
C353 C349 1.495 . S
C353 H359 0.959 . S
C353 H360 0.961 . S
C353 H361 0.960 . S
C354 C352 1.381 . S
C354 C355 1.394 . S
C354 H362 0.930 . S
C355 C354 1.394 . S
C355 C356 1.383 . S
C355 H363 0.929 . S
C356 C355 1.383 . S
C356 C357 1.377 . S
C357 H341 0.930 . S
C357 C356 1.377 . S
C357 C358 1.379 . S
C358 H342 0.931 . S
C358 C352 1.383 . S
C358 C357 1.379 . S
H359 C353 0.959 . S
H360 C353 0.961 . S
H361 C353 0.960 . S
H362 C354 0.930 . S
H363 C355 0.929 . S
H364 C372 0.929 . S
H365 C374 0.930 . S
H366 C376 0.930 . S
H367 C379 0.929 . S
H368 C382 0.930 . S
H369 C384 0.960 . S
H370 C384 0.960 . S
H371 C384 0.960 . S
C372 H364 0.929 . S
C372 C373 1.377 . S
C372 C374 1.384 . S
C373 C372 1.377 . S
C373 C379 1.390 . S
C374 H365 0.930 . S
C374 C372 1.384 . S
C374 C375 1.372 . S
C375 C374 1.372 . S
C375 C376 1.400 . S
C375 C380 1.490 . S
C376 H366 0.930 . S
C376 C375 1.400 . S
C376 C379 1.386 . S
H377 C393 0.930 . S
H378 C394 0.931 . S
C379 H367 0.929 . S
C379 C373 1.390 . S
C379 C376 1.386 . S
C380 C375 1.490 . S
C380 C382 1.395 . S
C380 C383 1.403 . S
H381 C387 0.930 . S
C382 H368 0.930 . S
C382 C380 1.395 . S
C382 C385 1.403 . S
C383 C380 1.403 . S
C383 C384 1.524 . S
C383 C387 1.400 . S
C384 H369 0.960 . S
C384 H370 0.960 . S
C384 H371 0.960 . S
C384 C383 1.524 . S
C385 C382 1.403 . S
C385 C386 1.392 . S
C385 C389 1.495 . S
C386 C385 1.392 . S
C386 C387 1.385 . S
C386 C388 1.478 . S
C387 H381 0.930 . S
C387 C383 1.400 . S
C387 C386 1.385 . S
C388 C386 1.478 . S
C388 C390 1.381 . S
C388 C394 1.383 . S
C389 C385 1.495 . S
C389 H395 0.959 . S
C389 H396 0.961 . S
C389 H397 0.960 . S
C390 C388 1.381 . S
C390 C391 1.394 . S
C390 H398 0.930 . S
C391 C390 1.394 . S
C391 C392 1.383 . S
C391 H399 0.929 . S
C392 C391 1.383 . S
C392 C393 1.377 . S
C393 H377 0.930 . S
C393 C392 1.377 . S
C393 C394 1.379 . S
C394 H378 0.931 . S
C394 C388 1.383 . S
C394 C393 1.379 . S
H395 C389 0.959 . S
H396 C389 0.961 . S
H397 C389 0.960 . S
H398 C390 0.930 . S
H399 C391 0.929 . S
H400 C408 0.929 . S
H401 C410 0.930 . S
H402 C412 0.930 . S
H403 C415 0.929 1_554 S
H404 C418 0.930 . S
H405 C420 0.960 . S
H406 C420 0.960 . S
H407 C420 0.960 . S
C408 H400 0.929 . S
C408 C409 1.377 . S
C408 C410 1.384 . S
C409 C408 1.377 . S
C409 C415 1.390 . S
C410 H401 0.930 . S
C410 C408 1.384 . S
C410 C411 1.372 . S
C411 C410 1.372 . S
C411 C412 1.400 . S
C411 C416 1.490 . S
C412 H402 0.930 . S
C412 C411 1.400 . S
C412 C415 1.386 . S
H413 C429 0.930 . S
H414 C430 0.931 . S
C415 H403 0.929 1_556 S
C415 C409 1.390 . S
C415 C412 1.386 . S
C416 C411 1.490 . S
C416 C418 1.395 . S
C416 C419 1.403 . S
H417 C423 0.930 . S
C418 H404 0.930 . S
C418 C416 1.395 . S
C418 C421 1.403 . S
C419 C416 1.403 . S
C419 C420 1.524 . S
C419 C423 1.400 . S
C420 H405 0.960 . S
C420 H406 0.960 . S
C420 H407 0.960 . S
C420 C419 1.524 . S
C421 C418 1.403 . S
C421 C422 1.392 . S
C421 C425 1.495 . S
C422 C421 1.392 . S
C422 C423 1.385 . S
C422 C424 1.478 . S
C423 H417 0.930 . S
C423 C419 1.400 . S
C423 C422 1.385 . S
C424 C422 1.478 . S
C424 C426 1.381 . S
C424 C430 1.383 . S
C425 C421 1.495 . S
C425 H431 0.959 . S
C425 H432 0.961 . S
C425 H433 0.960 . S
C426 C424 1.381 . S
C426 C427 1.394 . S
C426 H434 0.930 . S
C427 C426 1.394 . S
C427 C428 1.383 . S
C427 H435 0.929 . S
C428 C427 1.383 . S
C428 C429 1.377 . S
C429 H413 0.930 . S
C429 C428 1.377 . S
C429 C430 1.379 . S
C430 H414 0.931 . S
C430 C424 1.383 . S
C430 C429 1.379 . S
H431 C425 0.959 . S
H432 C425 0.961 . S
H433 C425 0.960 . S
H434 C426 0.930 . S
H435 C427 0.929 . S
H436 C444 0.929 . S
H437 C446 0.930 . S
H438 C448 0.930 . S
H439 C451 0.929 . S
H440 C454 0.930 . S
H441 C456 0.960 . S
H442 C456 0.960 . S
H443 C456 0.960 . S
C444 H436 0.929 . S
C444 C445 1.377 . S
C444 C446 1.384 . S
C445 C444 1.377 . S
C445 C451 1.390 . S
C446 H437 0.930 . S
C446 C444 1.384 . S
C446 C447 1.372 . S
C447 C446 1.372 . S
C447 C448 1.400 . S
C447 C452 1.490 . S
C448 H438 0.930 . S
C448 C447 1.400 . S
C448 C451 1.386 . S
H449 C465 0.930 . S
H450 C466 0.931 . S
C451 H439 0.929 . S
C451 C445 1.390 . S
C451 C448 1.386 . S
C452 C447 1.490 . S
C452 C454 1.395 . S
C452 C455 1.403 . S
H453 C459 0.930 . S
C454 H440 0.930 . S
C454 C452 1.395 . S
C454 C457 1.403 . S
C455 C452 1.403 . S
C455 C456 1.524 . S
C455 C459 1.400 . S
C456 H441 0.960 . S
C456 H442 0.960 . S
C456 H443 0.960 . S
C456 C455 1.524 . S
C457 C454 1.403 . S
C457 C458 1.392 . S
C457 C461 1.495 . S
C458 C457 1.392 . S
C458 C459 1.385 . S
C458 C460 1.478 . S
C459 H453 0.930 . S
C459 C455 1.400 . S
C459 C458 1.385 . S
C460 C458 1.478 . S
C460 C462 1.381 . S
C460 C466 1.383 . S
C461 C457 1.495 . S
C461 H467 0.959 . S
C461 H468 0.961 . S
C461 H469 0.960 . S
C462 C460 1.381 . S
C462 C463 1.394 . S
C462 H470 0.930 . S
C463 C462 1.394 . S
C463 C464 1.383 . S
C463 H471 0.929 1_554 S
C464 C463 1.383 . S
C464 C465 1.377 . S
C465 H449 0.930 . S
C465 C464 1.377 . S
C465 C466 1.379 . S
C466 H450 0.931 . S
C466 C460 1.383 . S
C466 C465 1.379 . S
H467 C461 0.959 . S
H468 C461 0.961 . S
H469 C461 0.960 . S
H470 C462 0.930 . S
H471 C463 0.929 1_556 S
H472 C480 0.929 . S
H473 C482 0.930 . S
H474 C484 0.930 . S
H475 C487 0.929 . S
H476 C490 0.930 . S
H477 C492 0.960 . S
H478 C492 0.960 . S
H479 C492 0.960 . S
C480 H472 0.929 . S
C480 C481 1.377 . S
C480 C482 1.384 . S
C481 C480 1.377 . S
C481 C487 1.390 . S
C482 H473 0.930 . S
C482 C480 1.384 . S
C482 C483 1.372 . S
C483 C482 1.372 . S
C483 C484 1.400 . S
C483 C488 1.490 . S
C484 H474 0.930 . S
C484 C483 1.400 . S
C484 C487 1.386 . S
H485 C501 0.930 . S
H486 C502 0.931 . S
C487 H475 0.929 . S
C487 C481 1.390 . S
C487 C484 1.386 . S
C488 C483 1.490 . S
C488 C490 1.395 . S
C488 C491 1.403 . S
H489 C495 0.930 . S
C490 H476 0.930 . S
C490 C488 1.395 . S
C490 C493 1.403 . S
C491 C488 1.403 . S
C491 C492 1.524 . S
C491 C495 1.400 . S
C492 H477 0.960 . S
C492 H478 0.960 . S
C492 H479 0.960 . S
C492 C491 1.524 . S
C493 C490 1.403 . S
C493 C494 1.392 . S
C493 C497 1.495 . S
C494 C493 1.392 . S
C494 C495 1.385 . S
C494 C496 1.478 . S
C495 H489 0.930 . S
C495 C491 1.400 . S
C495 C494 1.385 . S
C496 C494 1.478 . S
C496 C498 1.381 . S
C496 C502 1.383 . S
C497 C493 1.495 . S
C497 H503 0.959 . S
C497 H504 0.961 . S
C497 H505 0.960 . S
C498 C496 1.381 . S
C498 C499 1.394 . S
C498 H506 0.930 . S
C499 C498 1.394 . S
C499 C500 1.383 . S
C499 H507 0.929 . S
C500 C499 1.383 . S
C500 C501 1.377 . S
C501 H485 0.930 . S
C501 C500 1.377 . S
C501 C502 1.379 . S
C502 H486 0.931 . S
C502 C496 1.383 . S
C502 C501 1.379 . S
H503 C497 0.959 . S
H504 C497 0.961 . S
H505 C497 0.960 . S
H506 C498 0.930 . S
H507 C499 0.929 . S
H508 C516 0.929 . S
H509 C518 0.930 . S
H510 C520 0.930 . S
H511 C523 0.929 . S
H512 C526 0.930 . S
H513 C528 0.960 . S
H514 C528 0.960 . S
H515 C528 0.960 . S
C516 H508 0.929 . S
C516 C517 1.377 . S
C516 C518 1.384 . S
C517 C516 1.377 . S
C517 C523 1.390 . S
C518 H509 0.930 . S
C518 C516 1.384 . S
C518 C519 1.372 . S
C519 C518 1.372 . S
C519 C520 1.400 . S
C519 C524 1.490 . S
C520 H510 0.930 . S
C520 C519 1.400 . S
C520 C523 1.386 . S
H521 C537 0.930 . S
H522 C538 0.931 . S
C523 H511 0.929 . S
C523 C517 1.390 . S
C523 C520 1.386 . S
C524 C519 1.490 . S
C524 C526 1.395 . S
C524 C527 1.403 . S
H525 C531 0.930 . S
C526 H512 0.930 . S
C526 C524 1.395 . S
C526 C529 1.403 . S
C527 C524 1.403 . S
C527 C528 1.524 . S
C527 C531 1.400 . S
C528 H513 0.960 . S
C528 H514 0.960 . S
C528 H515 0.960 . S
C528 C527 1.524 . S
C529 C526 1.403 . S
C529 C530 1.392 . S
C529 C533 1.495 . S
C530 C529 1.392 . S
C530 C531 1.385 . S
C530 C532 1.478 . S
C531 H525 0.930 . S
C531 C527 1.400 . S
C531 C530 1.385 . S
C532 C530 1.478 . S
C532 C534 1.381 . S
C532 C538 1.383 . S
C533 C529 1.495 . S
C533 H539 0.959 . S
C533 H540 0.961 . S
C533 H541 0.960 . S
C534 C532 1.381 . S
C534 C535 1.394 . S
C534 H542 0.930 . S
C535 C534 1.394 . S
C535 C536 1.383 . S
C535 H543 0.929 . S
C536 C535 1.383 . S
C536 C537 1.377 . S
C537 H521 0.930 . S
C537 C536 1.377 . S
C537 C538 1.379 . S
C538 H522 0.931 . S
C538 C532 1.383 . S
C538 C537 1.379 . S
H539 C533 0.959 . S
H540 C533 0.961 . S
H541 C533 0.960 . S
H542 C534 0.930 . S
H543 C535 0.929 . S
H544 C552 0.929 . S
H545 C554 0.930 . S
H546 C556 0.930 . S
H547 C559 0.929 . S
H548 C562 0.930 . S
H549 C564 0.960 . S
H550 C564 0.960 . S
H551 C564 0.960 . S
C552 H544 0.929 . S
C552 C553 1.377 . S
C552 C554 1.384 . S
C553 C552 1.377 . S
C553 C559 1.390 . S
C554 H545 0.930 . S
C554 C552 1.384 . S
C554 C555 1.372 . S
C555 C554 1.372 . S
C555 C556 1.400 . S
C555 C560 1.490 . S
C556 H546 0.930 . S
C556 C555 1.400 . S
C556 C559 1.386 . S
H557 C573 0.930 . S
H558 C574 0.931 . S
C559 H547 0.929 . S
C559 C553 1.390 . S
C559 C556 1.386 . S
C560 C555 1.490 . S
C560 C562 1.395 . S
C560 C563 1.403 . S
H561 C567 0.930 . S
C562 H548 0.930 . S
C562 C560 1.395 . S
C562 C565 1.403 . S
C563 C560 1.403 . S
C563 C564 1.524 . S
C563 C567 1.400 . S
C564 H549 0.960 . S
C564 H550 0.960 . S
C564 H551 0.960 . S
C564 C563 1.524 . S
C565 C562 1.403 . S
C565 C566 1.392 . S
C565 C569 1.495 . S
C566 C565 1.392 . S
C566 C567 1.385 . S
C566 C568 1.478 . S
C567 H561 0.930 . S
C567 C563 1.400 . S
C567 C566 1.385 . S
C568 C566 1.478 . S
C568 C570 1.381 . S
C568 C574 1.383 . S
C569 C565 1.495 . S
C569 H575 0.959 . S
C569 H576 0.961 . S
C569 H577 0.960 . S
C570 C568 1.381 . S
C570 C571 1.394 . S
C570 H578 0.930 . S
C571 C570 1.394 . S
C571 C572 1.383 . S
C571 H579 0.929 . S
C572 C571 1.383 . S
C572 C573 1.377 . S
C573 H557 0.930 . S
C573 C572 1.377 . S
C573 C574 1.379 . S
C574 H558 0.931 . S
C574 C568 1.383 . S
C574 C573 1.379 . S
H575 C569 0.959 . S
H576 C569 0.961 . S
H577 C569 0.960 . S
H578 C570 0.930 . S
H579 C571 0.929 . S
H580 C588 0.929 . S
H581 C590 0.930 . S
H582 C592 0.930 . S
H583 C595 0.929 . S
H584 C598 0.930 . S
H585 C600 0.960 . S
H586 C600 0.960 . S
H587 C600 0.960 . S
C588 H580 0.929 . S
C588 C589 1.377 . S
C588 C590 1.384 . S
C589 C588 1.377 . S
C589 C595 1.390 . S
C590 H581 0.930 . S
C590 C588 1.384 . S
C590 C591 1.372 . S
C591 C590 1.372 . S
C591 C592 1.400 . S
C591 C596 1.490 . S
C592 H582 0.930 . S
C592 C591 1.400 . S
C592 C595 1.386 . S
H593 C609 0.930 1_554 S
H594 C610 0.931 . S
C595 H583 0.929 . S
C595 C589 1.390 . S
C595 C592 1.386 . S
C596 C591 1.490 . S
C596 C598 1.395 . S
C596 C599 1.403 . S
H597 C603 0.930 . S
C598 H584 0.930 . S
C598 C596 1.395 . S
C598 C601 1.403 . S
C599 C596 1.403 . S
C599 C600 1.524 . S
C599 C603 1.400 . S
C600 H585 0.960 . S
C600 H586 0.960 . S
C600 H587 0.960 . S
C600 C599 1.524 . S
C601 C598 1.403 . S
C601 C602 1.392 . S
C601 C605 1.495 . S
C602 C601 1.392 . S
C602 C603 1.385 . S
C602 C604 1.478 . S
C603 H597 0.930 . S
C603 C599 1.400 . S
C603 C602 1.385 . S
C604 C602 1.478 . S
C604 C606 1.381 . S
C604 C610 1.383 . S
C605 C601 1.495 . S
C605 H611 0.959 . S
C605 H612 0.961 . S
C605 H613 0.960 . S
C606 C604 1.381 . S
C606 C607 1.394 . S
C606 H614 0.930 . S
C607 C606 1.394 . S
C607 C608 1.383 . S
C607 H615 0.929 . S
C608 C607 1.383 . S
C608 C609 1.377 . S
C609 H593 0.930 1_556 S
C609 C608 1.377 . S
C609 C610 1.379 . S
C610 H594 0.931 . S
C610 C604 1.383 . S
C610 C609 1.379 . S
H611 C605 0.959 . S
H612 C605 0.961 . S
H613 C605 0.960 . S
H614 C606 0.930 . S
H615 C607 0.929 . S
H616 C624 0.929 . S
H617 C626 0.930 . S
H618 C628 0.930 . S
H619 C631 0.929 . S
H620 C634 0.930 . S
H621 C636 0.960 . S
H622 C636 0.960 . S
H623 C636 0.960 . S
C624 H616 0.929 . S
C624 C625 1.377 . S
C624 C626 1.384 . S
C625 C624 1.377 . S
C625 C631 1.390 . S
C626 H617 0.930 . S
C626 C624 1.384 . S
C626 C627 1.372 . S
C627 C626 1.372 . S
C627 C628 1.400 . S
C627 C632 1.490 . S
C628 H618 0.930 . S
C628 C627 1.400 . S
C628 C631 1.386 . S
H629 C645 0.930 . S
H630 C646 0.931 . S
C631 H619 0.929 . S
C631 C625 1.390 . S
C631 C628 1.386 . S
C632 C627 1.490 . S
C632 C634 1.395 . S
C632 C635 1.403 . S
H633 C639 0.930 . S
C634 H620 0.930 . S
C634 C632 1.395 . S
C634 C637 1.403 . S
C635 C632 1.403 . S
C635 C636 1.524 . S
C635 C639 1.400 . S
C636 H621 0.960 . S
C636 H622 0.960 . S
C636 H623 0.960 . S
C636 C635 1.524 . S
C637 C634 1.403 . S
C637 C638 1.392 . S
C637 C641 1.495 . S
C638 C637 1.392 . S
C638 C639 1.385 . S
C638 C640 1.478 . S
C639 H633 0.930 . S
C639 C635 1.400 . S
C639 C638 1.385 . S
C640 C638 1.478 . S
C640 C642 1.381 . S
C640 C646 1.383 . S
C641 C637 1.495 . S
C641 H647 0.959 . S
C641 H648 0.961 . S
C641 H649 0.960 . S
C642 C640 1.381 . S
C642 C643 1.394 . S
C642 H650 0.930 . S
C643 C642 1.394 . S
C643 C644 1.383 . S
C643 H651 0.929 . S
C644 C643 1.383 . S
C644 C645 1.377 . S
C645 H629 0.930 . S
C645 C644 1.377 . S
C645 C646 1.379 . S
C646 H630 0.931 . S
C646 C640 1.383 . S
C646 C645 1.379 . S
H647 C641 0.959 . S
H648 C641 0.961 . S
H649 C641 0.960 . S
H650 C642 0.930 . S
H651 C643 0.929 . S
H652 C660 0.929 . S
H653 C662 0.930 . S
H654 C664 0.930 . S
H655 C667 0.929 . S
H656 C670 0.930 . S
H657 C672 0.960 . S
H658 C672 0.960 . S
H659 C672 0.960 . S
C660 H652 0.929 . S
C660 C661 1.377 . S
C660 C662 1.384 . S
C661 C660 1.377 . S
C661 C667 1.390 . S
C662 H653 0.930 . S
C662 C660 1.384 . S
C662 C663 1.372 . S
C663 C662 1.372 . S
C663 C664 1.400 . S
C663 C668 1.490 . S
C664 H654 0.930 . S
C664 C663 1.400 . S
C664 C667 1.386 . S
H665 C681 0.930 . S
H666 C682 0.931 . S
C667 H655 0.929 . S
C667 C661 1.390 . S
C667 C664 1.386 . S
C668 C663 1.490 . S
C668 C670 1.395 . S
C668 C671 1.403 . S
H669 C675 0.930 . S
C670 H656 0.930 . S
C670 C668 1.395 . S
C670 C673 1.403 . S
C671 C668 1.403 . S
C671 C672 1.524 . S
C671 C675 1.400 . S
C672 H657 0.960 . S
C672 H658 0.960 . S
C672 H659 0.960 . S
C672 C671 1.524 . S
C673 C670 1.403 . S
C673 C674 1.392 . S
C673 C677 1.495 . S
C674 C673 1.392 . S
C674 C675 1.385 . S
C674 C676 1.478 . S
C675 H669 0.930 . S
C675 C671 1.400 . S
C675 C674 1.385 . S
C676 C674 1.478 . S
C676 C678 1.381 . S
C676 C682 1.383 . S
C677 C673 1.495 . S
C677 H683 0.959 . S
C677 H684 0.961 . S
C677 H685 0.960 . S
C678 C676 1.381 . S
C678 C679 1.394 . S
C678 H686 0.930 . S
C679 C678 1.394 . S
C679 C680 1.383 . S
C679 H687 0.929 . S
C680 C679 1.383 . S
C680 C681 1.377 . S
C681 H665 0.930 . S
C681 C680 1.377 . S
C681 C682 1.379 . S
C682 H666 0.931 . S
C682 C676 1.383 . S
C682 C681 1.379 . S
H683 C677 0.959 . S
H684 C677 0.961 . S
H685 C677 0.960 . S
H686 C678 0.930 . S
H687 C679 0.929 . S
C121 C1 1.499 . S
C140 C54 1.493 . S
C157 C13 1.498 . S
C176 C14 1.492 . S
C193 C28 1.498 . S
C212 C26 1.504 . S
C229 C42 1.499 . S
C248 C40 1.494 . S
C265 C0 1.499 . S
C284 C83 1.497 . S
C301 C12 1.498 . S
C320 C57 1.500 . S
C337 C69 1.498 . S
C356 C29 1.494 . S
C373 C41 1.498 . S
C392 C71 1.499 . S
C409 C97 1.498 . S
C428 C82 1.498 . S
C445 C56 1.498 . S
C464 C85 1.498 . S
C481 C68 1.499 . S
C500 C98 1.497 . S
C517 C70 1.498 . S
C536 C110 1.494 . S
C553 C96 1.498 . S
C572 C55 1.496 . S
C589 C15 1.497 . S
C608 C84 1.501 . S
C625 C27 1.497 . S
C644 C99 1.497 . S
C661 C43 1.499 . S
C680 C111 1.493 . S
