# Generated by pormake.
# Topology ukp, (4)-cn, num edge types: 1
# Building blocks:
#     Node 0, Type 0, BuildingBlock: MUDLON_clean_sbu_0, # of connection points: 4
#     Node 1, Type 0, BuildingBlock: MUDLON_clean_sbu_0, # of connection points: 4
#     Node 2, Type 0, BuildingBlock: MUDLON_clean_sbu_0, # of connection points: 4
#     Node 3, Type 0, BuildingBlock: MUDLON_clean_sbu_0, # of connection points: 4
#     Node 4, Type 0, BuildingBlock: MUDLON_clean_sbu_0, # of connection points: 4
#     Node 5, Type 0, BuildingBlock: MUDLON_clean_sbu_0, # of connection points: 4
#     Node 6, Type 0, BuildingBlock: MUDLON_clean_sbu_0, # of connection points: 4
#     Node 7, Type 0, BuildingBlock: MUDLON_clean_sbu_0, # of connection points: 4
#     Node 8, Type 0, BuildingBlock: MUDLON_clean_sbu_0, # of connection points: 4
#     Node 9, Type 0, BuildingBlock: MUDLON_clean_sbu_0, # of connection points: 4
#     Node 10, Type 0, BuildingBlock: MUDLON_clean_sbu_0, # of connection points: 4
#     Node 11, Type 0, BuildingBlock: MUDLON_clean_sbu_0, # of connection points: 4
#     Node 12, Type 0, BuildingBlock: MUDLON_clean_sbu_0, # of connection points: 4
#     Node 13, Type 0, BuildingBlock: MUDLON_clean_sbu_0, # of connection points: 4
#     Node 14, Type 0, BuildingBlock: MUDLON_clean_sbu_0, # of connection points: 4
#     Node 15, Type 0, BuildingBlock: MUDLON_clean_sbu_0, # of connection points: 4
#     Node 16, Type 0, BuildingBlock: MUDLON_clean_sbu_0, # of connection points: 4
#     Node 17, Type 0, BuildingBlock: MUDLON_clean_sbu_0, # of connection points: 4
#     Node 18, Type 0, BuildingBlock: MUDLON_clean_sbu_0, # of connection points: 4
#     Node 19, Type 0, BuildingBlock: MUDLON_clean_sbu_0, # of connection points: 4
#     Node 20, Type 0, BuildingBlock: MUDLON_clean_sbu_0, # of connection points: 4
#     Node 21, Type 0, BuildingBlock: MUDLON_clean_sbu_0, # of connection points: 4
#     Node 22, Type 0, BuildingBlock: MUDLON_clean_sbu_0, # of connection points: 4
#     Node 23, Type 0, BuildingBlock: MUDLON_clean_sbu_0, # of connection points: 4
#     Node 24, Type 0, BuildingBlock: MUDLON_clean_sbu_0, # of connection points: 4
#     Node 25, Type 0, BuildingBlock: MUDLON_clean_sbu_0, # of connection points: 4
#     Node 26, Type 0, BuildingBlock: MUDLON_clean_sbu_0, # of connection points: 4
#     Node 27, Type 0, BuildingBlock: MUDLON_clean_sbu_0, # of connection points: 4
#     Node 28, Type 0, BuildingBlock: MUDLON_clean_sbu_0, # of connection points: 4
#     Node 29, Type 0, BuildingBlock: MUDLON_clean_sbu_0, # of connection points: 4
#     Node 30, Type 0, BuildingBlock: MUDLON_clean_sbu_0, # of connection points: 4
#     Node 31, Type 0, BuildingBlock: MUDLON_clean_sbu_0, # of connection points: 4
#     Node 32, Type 0, BuildingBlock: MUDLON_clean_sbu_0, # of connection points: 4
#     Node 33, Type 0, BuildingBlock: MUDLON_clean_sbu_0, # of connection points: 4
#     Node 34, Type 0, BuildingBlock: MUDLON_clean_sbu_0, # of connection points: 4
#     Node 35, Type 0, BuildingBlock: MUDLON_clean_sbu_0, # of connection points: 4
#     Node 36, Type 0, BuildingBlock: MUDLON_clean_sbu_0, # of connection points: 4
#     Node 37, Type 0, BuildingBlock: MUDLON_clean_sbu_0, # of connection points: 4
#     Node 38, Type 0, BuildingBlock: MUDLON_clean_sbu_0, # of connection points: 4
#     Node 39, Type 0, BuildingBlock: MUDLON_clean_sbu_0, # of connection points: 4
#     Node 40, Type 0, BuildingBlock: MUDLON_clean_sbu_0, # of connection points: 4
#     Node 41, Type 0, BuildingBlock: MUDLON_clean_sbu_0, # of connection points: 4
#     Node 42, Type 0, BuildingBlock: MUDLON_clean_sbu_0, # of connection points: 4
#     Node 43, Type 0, BuildingBlock: MUDLON_clean_sbu_0, # of connection points: 4
#     Node 44, Type 0, BuildingBlock: MUDLON_clean_sbu_0, # of connection points: 4
#     Node 45, Type 0, BuildingBlock: MUDLON_clean_sbu_0, # of connection points: 4
#     Node 46, Type 0, BuildingBlock: MUDLON_clean_sbu_0, # of connection points: 4
#     Node 47, Type 0, BuildingBlock: MUDLON_clean_sbu_0, # of connection points: 4
#     Edge 48, Type (0, 0), BuildingBlock: XIVTED_clean_linker_0, # of connection points: 2
#     Edge 49, Type (0, 0), BuildingBlock: XIVTED_clean_linker_0, # of connection points: 2
#     Edge 50, Type (0, 0), BuildingBlock: XIVTED_clean_linker_0, # of connection points: 2
#     Edge 51, Type (0, 0), BuildingBlock: XIVTED_clean_linker_0, # of connection points: 2
#     Edge 52, Type (0, 0), BuildingBlock: XIVTED_clean_linker_0, # of connection points: 2
#     Edge 53, Type (0, 0), BuildingBlock: XIVTED_clean_linker_0, # of connection points: 2
#     Edge 54, Type (0, 0), BuildingBlock: XIVTED_clean_linker_0, # of connection points: 2
#     Edge 55, Type (0, 0), BuildingBlock: XIVTED_clean_linker_0, # of connection points: 2
#     Edge 56, Type (0, 0), BuildingBlock: XIVTED_clean_linker_0, # of connection points: 2
#     Edge 57, Type (0, 0), BuildingBlock: XIVTED_clean_linker_0, # of connection points: 2
#     Edge 58, Type (0, 0), BuildingBlock: XIVTED_clean_linker_0, # of connection points: 2
#     Edge 59, Type (0, 0), BuildingBlock: XIVTED_clean_linker_0, # of connection points: 2
#     Edge 60, Type (0, 0), BuildingBlock: XIVTED_clean_linker_0, # of connection points: 2
#     Edge 61, Type (0, 0), BuildingBlock: XIVTED_clean_linker_0, # of connection points: 2
#     Edge 62, Type (0, 0), BuildingBlock: XIVTED_clean_linker_0, # of connection points: 2
#     Edge 63, Type (0, 0), BuildingBlock: XIVTED_clean_linker_0, # of connection points: 2
#     Edge 64, Type (0, 0), BuildingBlock: XIVTED_clean_linker_0, # of connection points: 2
#     Edge 65, Type (0, 0), BuildingBlock: XIVTED_clean_linker_0, # of connection points: 2
#     Edge 66, Type (0, 0), BuildingBlock: XIVTED_clean_linker_0, # of connection points: 2
#     Edge 67, Type (0, 0), BuildingBlock: XIVTED_clean_linker_0, # of connection points: 2
#     Edge 68, Type (0, 0), BuildingBlock: XIVTED_clean_linker_0, # of connection points: 2
#     Edge 69, Type (0, 0), BuildingBlock: XIVTED_clean_linker_0, # of connection points: 2
#     Edge 70, Type (0, 0), BuildingBlock: XIVTED_clean_linker_0, # of connection points: 2
#     Edge 71, Type (0, 0), BuildingBlock: XIVTED_clean_linker_0, # of connection points: 2
#     Edge 72, Type (0, 0), BuildingBlock: XIVTED_clean_linker_0, # of connection points: 2
#     Edge 73, Type (0, 0), BuildingBlock: XIVTED_clean_linker_0, # of connection points: 2
#     Edge 74, Type (0, 0), BuildingBlock: XIVTED_clean_linker_0, # of connection points: 2
#     Edge 75, Type (0, 0), BuildingBlock: XIVTED_clean_linker_0, # of connection points: 2
#     Edge 76, Type (0, 0), BuildingBlock: XIVTED_clean_linker_0, # of connection points: 2
#     Edge 77, Type (0, 0), BuildingBlock: XIVTED_clean_linker_0, # of connection points: 2
#     Edge 78, Type (0, 0), BuildingBlock: XIVTED_clean_linker_0, # of connection points: 2
#     Edge 79, Type (0, 0), BuildingBlock: XIVTED_clean_linker_0, # of connection points: 2
#     Edge 80, Type (0, 0), BuildingBlock: XIVTED_clean_linker_0, # of connection points: 2
#     Edge 81, Type (0, 0), BuildingBlock: XIVTED_clean_linker_0, # of connection points: 2
#     Edge 82, Type (0, 0), BuildingBlock: XIVTED_clean_linker_0, # of connection points: 2
#     Edge 83, Type (0, 0), BuildingBlock: XIVTED_clean_linker_0, # of connection points: 2
#     Edge 84, Type (0, 0), BuildingBlock: XIVTED_clean_linker_0, # of connection points: 2
#     Edge 85, Type (0, 0), BuildingBlock: XIVTED_clean_linker_0, # of connection points: 2
#     Edge 86, Type (0, 0), BuildingBlock: XIVTED_clean_linker_0, # of connection points: 2
#     Edge 87, Type (0, 0), BuildingBlock: XIVTED_clean_linker_0, # of connection points: 2
#     Edge 88, Type (0, 0), BuildingBlock: XIVTED_clean_linker_0, # of connection points: 2
#     Edge 89, Type (0, 0), BuildingBlock: XIVTED_clean_linker_0, # of connection points: 2
#     Edge 90, Type (0, 0), BuildingBlock: XIVTED_clean_linker_0, # of connection points: 2
#     Edge 91, Type (0, 0), BuildingBlock: XIVTED_clean_linker_0, # of connection points: 2
#     Edge 92, Type (0, 0), BuildingBlock: XIVTED_clean_linker_0, # of connection points: 2
#     Edge 93, Type (0, 0), BuildingBlock: XIVTED_clean_linker_0, # of connection points: 2
#     Edge 94, Type (0, 0), BuildingBlock: XIVTED_clean_linker_0, # of connection points: 2
#     Edge 95, Type (0, 0), BuildingBlock: XIVTED_clean_linker_0, # of connection points: 2
#     Edge 96, Type (0, 0), BuildingBlock: XIVTED_clean_linker_0, # of connection points: 2
#     Edge 97, Type (0, 0), BuildingBlock: XIVTED_clean_linker_0, # of connection points: 2
#     Edge 98, Type (0, 0), BuildingBlock: XIVTED_clean_linker_0, # of connection points: 2
#     Edge 99, Type (0, 0), BuildingBlock: XIVTED_clean_linker_0, # of connection points: 2
#     Edge 100, Type (0, 0), BuildingBlock: XIVTED_clean_linker_0, # of connection points: 2
#     Edge 101, Type (0, 0), BuildingBlock: XIVTED_clean_linker_0, # of connection points: 2
#     Edge 102, Type (0, 0), BuildingBlock: XIVTED_clean_linker_0, # of connection points: 2
#     Edge 103, Type (0, 0), BuildingBlock: XIVTED_clean_linker_0, # of connection points: 2
#     Edge 104, Type (0, 0), BuildingBlock: XIVTED_clean_linker_0, # of connection points: 2
#     Edge 105, Type (0, 0), BuildingBlock: XIVTED_clean_linker_0, # of connection points: 2
#     Edge 106, Type (0, 0), BuildingBlock: XIVTED_clean_linker_0, # of connection points: 2
#     Edge 107, Type (0, 0), BuildingBlock: XIVTED_clean_linker_0, # of connection points: 2
#     Edge 108, Type (0, 0), BuildingBlock: XIVTED_clean_linker_0, # of connection points: 2
#     Edge 109, Type (0, 0), BuildingBlock: XIVTED_clean_linker_0, # of connection points: 2
#     Edge 110, Type (0, 0), BuildingBlock: XIVTED_clean_linker_0, # of connection points: 2
#     Edge 111, Type (0, 0), BuildingBlock: XIVTED_clean_linker_0, # of connection points: 2
#     Edge 112, Type (0, 0), BuildingBlock: XIVTED_clean_linker_0, # of connection points: 2
#     Edge 113, Type (0, 0), BuildingBlock: XIVTED_clean_linker_0, # of connection points: 2
#     Edge 114, Type (0, 0), BuildingBlock: XIVTED_clean_linker_0, # of connection points: 2
#     Edge 115, Type (0, 0), BuildingBlock: XIVTED_clean_linker_0, # of connection points: 2
#     Edge 116, Type (0, 0), BuildingBlock: XIVTED_clean_linker_0, # of connection points: 2
#     Edge 117, Type (0, 0), BuildingBlock: XIVTED_clean_linker_0, # of connection points: 2
#     Edge 118, Type (0, 0), BuildingBlock: XIVTED_clean_linker_0, # of connection points: 2
#     Edge 119, Type (0, 0), BuildingBlock: XIVTED_clean_linker_0, # of connection points: 2
#     Edge 120, Type (0, 0), BuildingBlock: XIVTED_clean_linker_0, # of connection points: 2
#     Edge 121, Type (0, 0), BuildingBlock: XIVTED_clean_linker_0, # of connection points: 2
#     Edge 122, Type (0, 0), BuildingBlock: XIVTED_clean_linker_0, # of connection points: 2
#     Edge 123, Type (0, 0), BuildingBlock: XIVTED_clean_linker_0, # of connection points: 2
#     Edge 124, Type (0, 0), BuildingBlock: XIVTED_clean_linker_0, # of connection points: 2
#     Edge 125, Type (0, 0), BuildingBlock: XIVTED_clean_linker_0, # of connection points: 2
#     Edge 126, Type (0, 0), BuildingBlock: XIVTED_clean_linker_0, # of connection points: 2
#     Edge 127, Type (0, 0), BuildingBlock: XIVTED_clean_linker_0, # of connection points: 2
#     Edge 128, Type (0, 0), BuildingBlock: XIVTED_clean_linker_0, # of connection points: 2
#     Edge 129, Type (0, 0), BuildingBlock: XIVTED_clean_linker_0, # of connection points: 2
#     Edge 130, Type (0, 0), BuildingBlock: XIVTED_clean_linker_0, # of connection points: 2
#     Edge 131, Type (0, 0), BuildingBlock: XIVTED_clean_linker_0, # of connection points: 2
#     Edge 132, Type (0, 0), BuildingBlock: XIVTED_clean_linker_0, # of connection points: 2
#     Edge 133, Type (0, 0), BuildingBlock: XIVTED_clean_linker_0, # of connection points: 2
#     Edge 134, Type (0, 0), BuildingBlock: XIVTED_clean_linker_0, # of connection points: 2
#     Edge 135, Type (0, 0), BuildingBlock: XIVTED_clean_linker_0, # of connection points: 2
#     Edge 136, Type (0, 0), BuildingBlock: XIVTED_clean_linker_0, # of connection points: 2
#     Edge 137, Type (0, 0), BuildingBlock: XIVTED_clean_linker_0, # of connection points: 2
#     Edge 138, Type (0, 0), BuildingBlock: XIVTED_clean_linker_0, # of connection points: 2
#     Edge 139, Type (0, 0), BuildingBlock: XIVTED_clean_linker_0, # of connection points: 2
#     Edge 140, Type (0, 0), BuildingBlock: XIVTED_clean_linker_0, # of connection points: 2
#     Edge 141, Type (0, 0), BuildingBlock: XIVTED_clean_linker_0, # of connection points: 2
#     Edge 142, Type (0, 0), BuildingBlock: XIVTED_clean_linker_0, # of connection points: 2
#     Edge 143, Type (0, 0), BuildingBlock: XIVTED_clean_linker_0, # of connection points: 2
# Relax obj value: 0.219
# Max RMSD: 0.216
# Mean RMSD: 0.216
data_MOF--net-ukp--node1-MUDLON_clean_sbu_0--edge1-XIVTED_clean_linker_0
_symmetry_space_group_name_H-M    P1
_symmetry_Int_Tables_number       1
_symmetry_cell_setting            triclinic
loop_
_symmetry_equiv_pos_as_xyz
'x, y, z'
_cell_length_a     65.669235
_cell_length_b     65.668906
_cell_length_c     65.696595
_cell_angle_alpha  90.016898
_cell_angle_beta   90.01456
_cell_angle_gamma 89.976011
loop_
_atom_site_label
_atom_site_type_symbol
_atom_site_fract_x
_atom_site_fract_y
_atom_site_fract_z
_atom_type_partial_charge
Mg0 Mg 0.19977 0.27695 0.38458 0.0
C1 C 0.19527 0.30667 0.41974 0.0
O2 O 0.17905 0.29549 0.42316 0.0
C3 C 0.22372 0.24878 0.35913 0.0
O4 O 0.20568 0.24871 0.35045 0.0
C5 C 0.18332 0.24011 0.40578 0.0
O6 O 0.20303 0.23671 0.40611 0.0
O7 O 0.17683 0.25631 0.39731 0.0
O8 O 0.20757 0.30127 0.40579 0.0
O9 O 0.19141 0.29284 0.35656 0.0
C10 C 0.18893 0.31208 0.3567 0.0
O11 O 0.18777 0.32153 0.37427 0.0
O12 O 0.22622 0.2593 0.37521 0.0
Mg13 Mg 0.98664 0.95302 0.63504 0.0
C14 C 0.95417 0.93779 0.66089 0.0
O15 O 0.96673 0.92243 0.65825 0.0
C16 C 0.01878 0.9844 0.62377 0.0
O17 O 0.03097 0.96992 0.63026 0.0
C18 C 0.02086 0.92143 0.64663 0.0
O19 O 0.0222 0.91739 0.62709 0.0
O20 O 0.00828 0.93484 0.65276 0.0
O21 O 0.95904 0.95499 0.65341 0.0
O22 O 0.97446 0.94022 0.60703 0.0
C23 C 0.982 0.94496 0.58985 0.0
O24 O 0.99982 0.95403 0.58928 0.0
O25 O 0.99961 0.98205 0.62545 0.0
Mg26 Mg 0.3086 0.73464 0.88123 0.0
C27 C 0.31894 0.69509 0.89682 0.0
O28 O 0.33458 0.70146 0.88611 0.0
C29 C 0.26673 0.75917 0.88227 0.0
O30 O 0.26618 0.75726 0.90217 0.0
C31 C 0.32737 0.77099 0.90335 0.0
O32 O 0.30857 0.77764 0.90182 0.0
O33 O 0.33192 0.75383 0.89552 0.0
O34 O 0.304 0.70718 0.89944 0.0
O35 O 0.31735 0.72065 0.85242 0.0
C36 C 0.31175 0.72789 0.83537 0.0
O37 O 0.30395 0.7463 0.83473 0.0
O38 O 0.28147 0.75158 0.87229 0.0
Mg39 Mg 0.52324 0.0557 0.14174 0.0
C40 C 0.55355 0.06645 0.17439 0.0
O41 O 0.54012 0.08107 0.1769 0.0
C42 C 0.49135 0.02897 0.12463 0.0
O43 O 0.48838 0.04627 0.11503 0.0
C44 C 0.48902 0.07743 0.16336 0.0
O45 O 0.48449 0.0584 0.16754 0.0
O46 O 0.50434 0.08111 0.15207 0.0
O47 O 0.54974 0.05245 0.16157 0.0
O48 O 0.53602 0.05934 0.11145 0.0
C49 C 0.55407 0.0657 0.10849 0.0
O50 O 0.56442 0.07323 0.12385 0.0
O51 O 0.50501 0.02823 0.13838 0.0
Mg52 Mg 0.19997 0.73251 0.11566 0.0
C53 C 0.1936 0.70242 0.08157 0.0
O54 O 0.17704 0.71345 0.07949 0.0
C55 C 0.22282 0.76742 0.13409 0.0
O56 O 0.20389 0.77306 0.13728 0.0
C57 C 0.18029 0.76442 0.08971 0.0
O58 O 0.1995 0.76592 0.08432 0.0
O59 O 0.17547 0.75154 0.10338 0.0
O60 O 0.20701 0.70804 0.09438 0.0
O61 O 0.19297 0.71499 0.14297 0.0
C62 C 0.19001 0.72206 0.16074 0.0
O63 O 0.1884 0.74183 0.16328 0.0
O64 O 0.22616 0.75121 0.12398 0.0
Mg65 Mg 0.51954 0.95822 0.36166 0.0
C66 C 0.54784 0.94767 0.32729 0.0
O67 O 0.5348 0.93255 0.32615 0.0
C68 C 0.48855 0.98382 0.38238 0.0
O69 O 0.48667 0.96616 0.39158 0.0
C70 C 0.48497 0.93644 0.34088 0.0
O71 O 0.48069 0.95551 0.33661 0.0
O72 O 0.50029 0.93264 0.35216 0.0
O73 O 0.54416 0.96217 0.33961 0.0
O74 O 0.53713 0.9541 0.38941 0.0
C75 C 0.53302 0.94529 0.40613 0.0
O76 O 0.51571 0.93548 0.40818 0.0
O77 O 0.50113 0.9853 0.3677 0.0
Mg78 Mg 0.28741 0.27145 0.61244 0.0
C79 C 0.29244 0.3025 0.57863 0.0
O80 O 0.30786 0.29052 0.57425 0.0
C81 C 0.26061 0.23539 0.62309 0.0
O82 O 0.27643 0.2257 0.61561 0.0
C83 C 0.32833 0.25174 0.59997 0.0
O84 O 0.3358 0.26552 0.6124 0.0
O85 O 0.30913 0.2508 0.59748 0.0
O86 O 0.2802 0.2972 0.59268 0.0
O87 O 0.29788 0.28573 0.64065 0.0
C88 C 0.30198 0.30469 0.64101 0.0
O89 O 0.30341 0.31457 0.6237 0.0
O90 O 0.2604 0.25475 0.62252 0.0
Mg91 Mg 0.98882 0.05731 0.87036 0.0
C92 C 0.9574 0.07433 0.84376 0.0
O93 O 0.96798 0.09014 0.84996 0.0
C94 C 0.02153 0.0285 0.8834 0.0
O95 O 0.03054 0.04617 0.88598 0.0
C96 C 0.01466 0.07913 0.84033 0.0
O97 O 0.00502 0.06565 0.82911 0.0
O98 O 0.01109 0.07958 0.85938 0.0
O99 O 0.96327 0.05666 0.84912 0.0
O100 O 0.97352 0.06436 0.89894 0.0
C101 C 0.98117 0.06093 0.91638 0.0
O102 O 1.0004 0.0556 0.91772 0.0
O103 O 1.00379 0.02814 0.87557 0.0
Mg104 Mg 0.38989 0.20615 0.27457 0.0
C105 C 0.4041 0.21967 0.31555 0.0
O106 O 0.38692 0.22978 0.31373 0.0
C107 C 0.38226 0.23786 0.24063 0.0
O108 O 0.38928 0.22365 0.22843 0.0
C109 C 0.4182 0.18622 0.24435 0.0
O110 O 0.42791 0.20342 0.24758 0.0
O111 O 0.40139 0.18313 0.25349 0.0
O112 O 0.41037 0.20926 0.30046 0.0
O113 O 0.36132 0.19795 0.28899 0.0
C114 C 0.34446 0.20177 0.28029 0.0
O115 O 0.34455 0.20775 0.26121 0.0
O116 O 0.38234 0.2349 0.25977 0.0
Mg117 Mg 0.05887 0.13629 0.51551 0.0
C118 C 0.08198 0.1602 0.54619 0.0
O119 O 0.0952 0.15808 0.53134 0.0
C120 C 0.02264 0.13299 0.48709 0.0
O121 O 0.0367 0.13718 0.47351 0.0
C122 C 0.09504 0.14437 0.48622 0.0
O123 O 0.10319 0.12852 0.49532 0.0
O124 O 0.07715 0.14992 0.49116 0.0
O125 O 0.06396 0.15358 0.54352 0.0
O126 O 0.06459 0.10464 0.52388 0.0
C127 C 0.07354 0.09979 0.54037 0.0
O128 O 0.08366 0.11379 0.55042 0.0
O129 O 0.02722 0.13371 0.50591 0.0
Mg130 Mg 0.11899 0.80243 0.76869 0.0
C131 C 0.10124 0.78608 0.80779 0.0
O132 O 0.11705 0.77397 0.80577 0.0
C133 C 0.14019 0.77511 0.7401 0.0
O134 O 0.15071 0.7921 0.73914 0.0
C135 C 0.09496 0.83863 0.75224 0.0
O136 O 0.08814 0.83869 0.77104 0.0
O137 O 0.10853 0.82572 0.74725 0.0
O138 O 0.09734 0.79873 0.79364 0.0
O139 O 0.1483 0.80833 0.78321 0.0
C140 C 0.14966 0.81417 0.80165 0.0
O141 O 0.13311 0.82003 0.81123 0.0
O142 O 0.12454 0.77456 0.75154 0.0
Mg143 Mg 0.4471 0.87128 0.02373 0.0
C144 C 0.44015 0.83686 0.05319 0.0
O145 O 0.42257 0.83688 0.04364 0.0
C146 C 0.46985 0.89894 0.9972 0.0
O147 O 0.45178 0.90736 0.99901 0.0
C148 C 0.42824 0.84358 0.99332 0.0
O149 O 0.44647 0.83575 0.99599 0.0
O150 O 0.42351 0.85956 1.00326 0.0
O151 O 0.45432 0.84831 0.04664 0.0
O152 O 0.43966 0.89824 0.04192 0.0
C153 C 0.45061 0.89979 0.05787 0.0
O154 O 0.4636 0.88516 0.06199 0.0
O155 O 0.47296 0.88183 0.00579 0.0
Mg156 Mg 0.3834 0.80836 0.23012 0.0
C157 C 0.41703 0.81412 0.19911 0.0
O158 O 0.41933 0.83109 0.20945 0.0
C159 C 0.37502 0.77784 0.26545 0.0
O160 O 0.38596 0.7902 0.27674 0.0
C161 C 0.41272 0.82867 0.25935 0.0
O162 O 0.42201 0.81117 0.25648 0.0
O163 O 0.3959 0.83191 0.25024 0.0
O164 O 0.40432 0.80096 0.20545 0.0
O165 O 0.35656 0.8174 0.21294 0.0
C166 C 0.33869 0.81428 0.2197 0.0
O167 O 0.33636 0.80871 0.23876 0.0
O168 O 0.37286 0.78151 0.24656 0.0
Mg169 Mg 0.44204 0.14008 0.48309 0.0
C170 C 0.43658 0.17713 0.45613 0.0
O171 O 0.42142 0.18009 0.46883 0.0
C172 C 0.46565 0.11544 0.51217 0.0
O173 O 0.44744 0.10715 0.5124 0.0
C174 C 0.42381 0.16498 0.51658 0.0
O175 O 0.44333 0.1691 0.51809 0.0
O176 O 0.41809 0.15225 0.50309 0.0
O177 O 0.44885 0.16251 0.45946 0.0
O178 O 0.43515 0.11178 0.46668 0.0
C179 C 0.437 0.1114 0.44736 0.0
O180 O 0.43979 0.12863 0.43764 0.0
O181 O 0.46842 0.13126 0.50132 0.0
Mg182 Mg 0.14276 0.18094 0.73185 0.0
C183 C 0.13603 0.17146 0.6875 0.0
O184 O 0.14582 0.15498 0.69319 0.0
C185 C 0.14321 0.22039 0.75672 0.0
O186 O 0.12376 0.21626 0.75887 0.0
C187 C 0.1185 0.16538 0.76832 0.0
O188 O 0.13529 0.17044 0.77794 0.0
O189 O 0.11723 0.16865 0.74926 0.0
O190 O 0.13255 0.18537 0.70052 0.0
O191 O 0.16645 0.1578 0.73384 0.0
C192 C 0.18235 0.15347 0.7236 0.0
O193 O 0.19276 0.13721 0.72888 0.0
O194 O 0.15425 0.20864 0.746 0.0
Mg195 Mg 0.05245 0.86072 0.97554 0.0
C196 C 0.06189 0.82481 0.94811 0.0
O197 O 0.0769 0.82284 0.96118 0.0
C198 C 0.02724 0.88068 0.00729 0.0
O199 O 0.04524 0.88896 0.01007 0.0
C200 C 0.07282 0.83892 0.00976 0.0
O201 O 0.05367 0.83358 0.01192 0.0
O202 O 0.07745 0.85123 0.9955 0.0
O203 O 0.0483 0.83823 0.95141 0.0
O204 O 0.05663 0.88828 0.95762 0.0
C205 C 0.0642 0.90548 0.96223 0.0
O206 O 0.07267 0.90809 0.98015 0.0
O207 O 0.02535 0.8669 0.99378 0.0
Mg208 Mg 0.27125 0.38837 0.19904 0.0
C209 C 0.30405 0.4208 0.19656 0.0
O210 O 0.29361 0.42571 0.18022 0.0
C211 C 0.24761 0.38949 0.24039 0.0
O212 O 0.25688 0.40687 0.24384 0.0
C213 C 0.24102 0.41618 0.17889 0.0
O214 O 0.23862 0.42094 0.19817 0.0
O215 O 0.25399 0.40251 0.17423 0.0
O216 O 0.29721 0.40692 0.20821 0.0
O217 O 0.28499 0.35895 0.19232 0.0
C218 C 0.3036 0.35706 0.18726 0.0
O219 O 0.31402 0.37337 0.18223 0.0
O220 O 0.25071 0.38018 0.22371 0.0
Mg221 Mg 0.7718 0.1197 0.80693 0.0
C222 C 0.81333 0.10786 0.81656 0.0
O223 O 0.80755 0.11984 0.83149 0.0
C224 C 0.73685 0.13133 0.77953 0.0
O225 O 0.72803 0.13283 0.7974 0.0
C226 C 0.73996 0.10868 0.84082 0.0
O227 O 0.73495 0.12805 0.84065 0.0
O228 O 0.75407 0.10235 0.82914 0.0
O229 O 0.80053 0.10343 0.80269 0.0
O230 O 0.78306 0.14967 0.81602 0.0
C231 C 0.77557 0.16646 0.80996 0.0
O232 O 0.75779 0.1665 0.80083 0.0
O233 O 0.75505 0.12471 0.77862 0.0
Mg234 Mg 0.13433 0.52524 0.05347 0.0
C235 C 0.1682 0.55647 0.05757 0.0
O236 O 0.17292 0.54483 0.07312 0.0
C237 C 0.11183 0.49415 0.03041 0.0
O238 O 0.10313 0.49405 0.04842 0.0
C239 C 0.1611 0.49406 0.07352 0.0
O240 O 0.16587 0.49167 0.05424 0.0
O241 O 0.14764 0.50723 0.0782 0.0
O242 O 0.15379 0.55102 0.04582 0.0
O243 O 0.10484 0.53915 0.05978 0.0
C244 C 0.10311 0.55802 0.06386 0.0
O245 O 0.11957 0.56864 0.06791 0.0
O246 O 0.12718 0.50566 0.02764 0.0
Mg247 Mg 0.73225 0.89115 0.30108 0.0
C248 C 0.69017 0.90519 0.30768 0.0
O249 O 0.69185 0.88899 0.31926 0.0
C250 C 0.76352 0.87341 0.27381 0.0
O251 O 0.76679 0.86399 0.29113 0.0
C252 C 0.76552 0.91479 0.32146 0.0
O253 O 0.76719 0.92071 0.30243 0.0
O254 O 0.75194 0.90167 0.32592 0.0
O255 O 0.70574 0.91133 0.29787 0.0
O256 O 0.71794 0.86137 0.30445 0.0
C257 C 0.72355 0.84462 0.31233 0.0
O258 O 0.74128 0.84336 0.3215 0.0
O259 O 0.75001 0.88732 0.27322 0.0
Mg260 Mg 0.87269 0.98238 0.05465 0.0
C261 C 0.83708 0.95323 0.05764 0.0
O262 O 0.83389 0.96389 0.07426 0.0
C263 C 0.89781 0.01276 0.03338 0.0
O264 O 0.90585 0.0119 0.05168 0.0
C265 C 0.84816 0.01532 0.07482 0.0
O266 O 0.84461 0.01892 0.05546 0.0
O267 O 0.86005 1.00072 0.07952 0.0
O268 O 0.85109 0.95886 0.0455 0.0
O269 O 0.90084 0.96581 0.0615 0.0
C270 C 0.901 0.94642 0.06078 0.0
O271 O 0.88361 0.93669 0.05926 0.0
O272 O 0.88201 1.00216 0.02971 0.0
Mg273 Mg 0.23209 0.61495 0.70007 0.0
C274 C 0.20103 0.58103 0.69671 0.0
O275 O 0.21264 0.57638 0.6811 0.0
C276 C 0.26109 0.64124 0.72154 0.0
O277 O 0.26103 0.64811 0.70275 0.0
C278 C 0.25016 0.59979 0.65931 0.0
O279 O 0.23536 0.61068 0.65138 0.0
O280 O 0.25224 0.59935 0.67855 0.0
O281 O 0.20659 0.59533 0.70855 0.0
O282 O 0.2179 0.64324 0.68963 0.0
C283 C 0.19857 0.64467 0.68902 0.0
O284 O 0.18761 0.62806 0.69084 0.0
O285 O 0.2503 0.62568 0.7257 0.0
Mg286 Mg 0.13768 0.4831 0.45412 0.0
C287 C 0.1716 0.45262 0.44588 0.0
O288 O 0.1737 0.4639 0.4295 0.0
C289 C 0.12798 0.51728 0.48533 0.0
O290 O 0.13402 0.52985 0.47101 0.0
C291 C 0.16534 0.51466 0.43517 0.0
O292 O 0.17414 0.51238 0.453 0.0
O293 O 0.14939 0.50435 0.43125 0.0
O294 O 0.15893 0.45812 0.45946 0.0
O295 O 0.10897 0.46839 0.44588 0.0
C296 C 0.10806 0.44905 0.44455 0.0
O297 O 0.12506 0.43854 0.44485 0.0
O298 O 0.12926 0.49816 0.48245 0.0
Mg299 Mg 0.36713 0.51912 0.95174 0.0
C300 C 0.34051 0.54995 0.93297 0.0
O301 O 0.3466 0.53879 0.91751 0.0
C302 C 0.3834 0.48972 0.98149 0.0
O303 O 0.39332 0.48524 0.9647 0.0
C304 C 0.34565 0.48422 0.93207 0.0
O305 O 0.33838 0.48371 0.9507 0.0
O306 O 0.35913 0.49745 0.92774 0.0
O307 O 0.34554 0.5444 0.95082 0.0
O308 O 0.39641 0.53451 0.94913 0.0
C309 C 0.39776 0.54842 0.96258 0.0
O310 O 0.3822 0.55127 0.97484 0.0
O311 O 0.3697 0.50343 0.98078 0.0
Mg312 Mg 0.70266 0.7661 0.88925 0.0
C313 C 0.68253 0.80026 0.90806 0.0
O314 O 0.66851 0.79012 0.898 0.0
C315 C 0.73366 0.73774 0.87397 0.0
O316 O 0.71686 0.73181 0.86485 0.0
C317 C 0.67878 0.74256 0.91921 0.0
O318 O 0.68989 0.75487 0.9304 0.0
O319 O 0.6805 0.74355 0.89992 0.0
O320 O 0.70043 0.7929 0.9087 0.0
O321 O 0.69858 0.77984 0.85925 0.0
C322 C 0.712 0.79368 0.85697 0.0
O323 O 0.72506 0.7967 0.87183 0.0
O324 O 0.73256 0.75211 0.88694 0.0
Mg325 Mg 0.48235 0.44901 0.14314 0.0
C326 C 0.45107 0.44145 0.17567 0.0
O327 O 0.46034 0.42372 0.17541 0.0
C328 C 0.51226 0.47122 0.11864 0.0
O329 O 0.5118 0.45288 0.11065 0.0
C330 C 0.51554 0.42922 0.16728 0.0
O331 O 0.51782 0.44852 0.17204 0.0
O332 O 0.50159 0.42435 0.15471 0.0
O333 O 0.45836 0.45592 0.16507 0.0
O334 O 0.46528 0.44268 0.11528 0.0
C335 C 0.45052 0.45503 0.11278 0.0
O336 O 0.44715 0.46883 0.12687 0.0
O337 O 0.50139 0.47472 0.1343 0.0
Mg338 Mg 0.80792 0.22572 0.39365 0.0
C339 C 0.79395 0.18587 0.41044 0.0
O340 O 0.7831 0.18709 0.39368 0.0
C341 C 0.77848 0.25741 0.37759 0.0
O342 O 0.79573 0.266 0.37222 0.0
C343 C 0.82413 0.26075 0.41769 0.0
O344 O 0.80458 0.26129 0.42191 0.0
O345 O 0.83056 0.24731 0.40526 0.0
O346 O 0.80498 0.20098 0.41548 0.0
O347 O 0.81509 0.20896 0.36589 0.0
C348 C 0.81491 0.21596 0.34785 0.0
O349 O 0.81301 0.23565 0.34498 0.0
O350 O 0.77897 0.24086 0.38766 0.0
Mg351 Mg 0.02119 0.54889 0.6407 0.0
C352 C 0.05417 0.55687 0.67221 0.0
O353 O 0.04206 0.57223 0.67646 0.0
C354 C 0.99281 0.52171 0.61884 0.0
O355 O 0.9915 0.53893 0.60875 0.0
C356 C 1.00156 0.59016 0.6517 0.0
O357 O 0.01487 0.59725 0.63856 0.0
O358 O 1.00092 0.5711 0.65508 0.0
O359 O 0.04859 0.54396 0.65888 0.0
O360 O 0.03266 0.55682 0.61066 0.0
C361 C 0.05042 0.564 0.60779 0.0
O362 O 0.06105 0.5703 0.62351 0.0
O363 O 0.00418 0.52101 0.63454 0.0
Mg364 Mg 0.70048 0.22747 0.61522 0.0
C365 C 0.68863 0.20054 0.5798 0.0
O366 O 0.67342 0.21353 0.57927 0.0
C367 C 0.72841 0.25947 0.6324 0.0
O368 O 0.71088 0.26561 0.63983 0.0
C369 C 0.67999 0.26178 0.59346 0.0
O370 O 0.69872 0.26295 0.58653 0.0
O371 O 0.67586 0.24828 0.60675 0.0
O372 O 0.70317 0.20367 0.59222 0.0
O373 O 0.69619 0.2092 0.64251 0.0
C374 C 0.69272 0.21502 0.66063 0.0
O375 O 0.68914 0.23436 0.66428 0.0
O376 O 0.72868 0.24418 0.62047 0.0
Mg377 Mg 0.02666 0.4526 0.86503 0.0
C378 C 0.06958 0.46456 0.85405 0.0
O379 O 0.06815 0.47279 0.87223 0.0
C380 C 0.9928 0.48063 0.8792 0.0
O381 O 0.98369 0.46294 0.88092 0.0
C382 C 0.99276 0.41977 0.85528 0.0
O383 O 0.98711 0.42126 0.87439 0.0
O384 O 0.00776 0.43023 0.84885 0.0
O385 O 0.05381 0.45643 0.84625 0.0
O386 O 0.04025 0.44326 0.89385 0.0
C387 C 0.03186 0.44592 0.91109 0.0
O388 O 0.01262 0.45128 0.91184 0.0
O389 O 0.01062 0.48125 0.87155 0.0
Mg390 Mg 0.80687 0.77653 0.11324 0.0
C391 C 0.81228 0.80719 0.07903 0.0
O392 O 0.82855 0.79602 0.07573 0.0
C393 C 0.78122 0.74616 0.13524 0.0
O394 O 0.79831 0.74539 0.14563 0.0
C395 C 0.82746 0.74227 0.09016 0.0
O396 O 0.80832 0.73664 0.08868 0.0
O397 O 0.83172 0.75825 0.10031 0.0
O398 O 0.79963 0.80152 0.09256 0.0
O399 O 0.81313 0.7912 0.14261 0.0
C400 C 0.81211 0.81054 0.14395 0.0
O401 O 0.81028 0.82127 0.12719 0.0
O402 O 0.78033 0.75765 0.11965 0.0
Mg403 Mg 0.48207 0.56008 0.37449 0.0
C404 C 0.44267 0.57419 0.35992 0.0
O405 O 0.44796 0.58712 0.37423 0.0
C406 C 0.51292 0.52802 0.38617 0.0
O407 O 0.5233 0.54444 0.39095 0.0
C408 C 0.51638 0.57726 0.34971 0.0
O409 O 0.51542 0.55849 0.34284 0.0
O410 O 0.50422 0.58261 0.36384 0.0
O411 O 0.45526 0.56037 0.35478 0.0
O412 O 0.46788 0.56532 0.4041 0.0
C413 C 0.4749 0.56004 0.42135 0.0
O414 O 0.49378 0.55361 0.42274 0.0
O415 O 0.49568 0.53001 0.37752 0.0
Mg416 Mg 0.89297 0.70452 0.76974 0.0
C417 C 0.93056 0.69899 0.79578 0.0
O418 O 0.93305 0.68375 0.78307 0.0
C419 C 0.8651 0.72584 0.74233 0.0
O420 O 0.85792 0.70721 0.74367 0.0
C421 C 0.91651 0.68647 0.73539 0.0
O422 O 0.92019 0.70604 0.73344 0.0
O423 O 0.90456 0.68067 0.74951 0.0
O424 O 0.91613 0.71153 0.79261 0.0
O425 O 0.8665 0.69661 0.78821 0.0
C426 C 0.86427 0.70863 0.80327 0.0
O427 O 0.87794 0.72293 0.80616 0.0
O428 O 0.8816 0.73002 0.75163 0.0
Mg429 Mg 0.55766 0.63419 0.03007 0.0
C430 C 0.54369 0.64591 0.07193 0.0
O431 O 0.53483 0.62809 0.06994 0.0
C432 C 0.5276 0.6205 0.99714 0.0
O433 O 0.54446 0.61736 0.98688 0.0
C434 C 0.58927 0.64399 0.99515 0.0
O435 O 0.58662 0.62524 0.98874 0.0
O436 O 0.57986 0.65016 0.01094 0.0
O437 O 0.55335 0.65324 0.05684 0.0
O438 O 0.56667 0.60549 0.04411 0.0
C439 C 0.56232 0.58824 0.03648 0.0
O440 O 0.55551 0.58734 0.01771 0.0
O441 O 0.52865 0.62839 0.01482 0.0
Mg442 Mg 0.61856 0.30256 0.27657 0.0
C443 C 0.58298 0.31152 0.30388 0.0
O444 O 0.58213 0.32711 0.29139 0.0
C445 C 0.64294 0.27982 0.2474 0.0
O446 O 0.65066 0.29828 0.24757 0.0
C447 C 0.59509 0.32232 0.24306 0.0
O448 O 0.58967 0.30313 0.24143 0.0
O449 O 0.60814 0.32715 0.25658 0.0
O450 O 0.59572 0.29739 0.30023 0.0
O451 O 0.64637 0.30798 0.29399 0.0
C452 C 0.64846 0.29472 0.30799 0.0
O453 O 0.63402 0.28108 0.31036 0.0
O454 O 0.6272 0.27634 0.25816 0.0
Mg455 Mg 0.95594 0.36019 0.5251 0.0
C456 C 0.95055 0.32766 0.55752 0.0
O457 O 0.93462 0.32334 0.54621 0.0
C458 C 0.98122 0.38375 0.49626 0.0
O459 O 0.96364 0.39331 0.49571 0.0
C460 C 0.91536 0.34899 0.50364 0.0
O461 O 0.90773 0.36355 0.51505 0.0
O462 O 0.93425 0.34493 0.50491 0.0
O463 O 0.96304 0.34111 0.55134 0.0
O464 O 0.94676 0.38949 0.53813 0.0
C465 C 0.94479 0.3912 0.55735 0.0
O466 O 0.94473 0.37464 0.56853 0.0
O467 O 0.98287 0.36797 0.5074 0.0
Mg468 Mg 0.88686 0.30438 0.73473 0.0
C469 C 0.91827 0.31209 0.70271 0.0
O470 O 0.91561 0.33046 0.71018 0.0
C471 C 0.86065 0.2826 0.76318 0.0
O472 O 0.85288 0.30101 0.76197 0.0
C473 C 0.9177 0.32697 0.75921 0.0
O474 O 0.92839 0.31201 0.75133 0.0
O475 O 0.89883 0.32824 0.75483 0.0
O476 O 0.90922 0.29719 0.71116 0.0
O477 O 0.85941 0.31099 0.71702 0.0
C478 C 0.85709 0.29794 0.70284 0.0
O479 O 0.87104 0.28379 0.70056 0.0
O480 O 0.87694 0.2788 0.75336 0.0
Mg481 Mg 0.95356 0.64394 0.9742 0.0
C482 C 0.96997 0.66058 0.93521 0.0
O483 O 0.97942 0.64296 0.93628 0.0
C484 C 0.98597 0.63816 0.0085 0.0
O485 O 0.97518 0.65129 0.01903 0.0
C486 C 0.93287 0.67325 1.00257 0.0
O487 O 0.94939 0.68333 0.99752 0.0
O488 O 0.93013 0.65557 0.99504 0.0
O489 O 0.95907 0.66617 0.95022 0.0
O490 O 0.94562 0.61697 0.95659 0.0
C491 C 0.94831 0.59913 0.96362 0.0
O492 O 0.95266 0.59687 0.98301 0.0
O493 O 0.98083 0.63393 0.99031 0.0
Mg494 Mg 0.62436 0.69581 0.23687 0.0
C495 C 0.58845 0.68484 0.21027 0.0
O496 O 0.58817 0.66935 0.22291 0.0
C497 C 0.64621 0.72189 0.26602 0.0
O498 O 0.65495 0.70402 0.26819 0.0
C499 C 0.60211 0.67729 0.27195 0.0
O500 O 0.5972 0.69662 0.27352 0.0
O501 O 0.61447 0.67196 0.25798 0.0
O502 O 0.60102 0.69923 0.21341 0.0
O503 O 0.65267 0.69049 0.22009 0.0
C504 C 0.65368 0.70011 0.20327 0.0
O505 O 0.63773 0.71059 0.19729 0.0
O506 O 0.6312 0.72344 0.25384 0.0
Mg507 Mg 0.55043 0.36453 0.48697 0.0
C508 C 0.55817 0.34885 0.44608 0.0
O509 O 0.57127 0.36376 0.44843 0.0
C510 C 0.52551 0.3833 0.51888 0.0
O511 O 0.54355 0.39167 0.52106 0.0
C512 C 0.57159 0.34089 0.51973 0.0
O513 O 0.55251 0.33552 0.52248 0.0
O514 O 0.57571 0.35372 0.50578 0.0
O515 O 0.54656 0.34416 0.46086 0.0
O516 O 0.55413 0.39432 0.47264 0.0
C517 C 0.53917 0.39793 0.46082 0.0
O518 O 0.52459 0.38428 0.45956 0.0
O519 O 0.52339 0.36933 0.50561 0.0
Mg520 Mg 0.76943 0.88534 0.69707 0.0
C521 C 0.81006 0.89868 0.68497 0.0
O522 O 0.80423 0.88609 0.67057 0.0
C523 C 0.73801 0.87261 0.72902 0.0
O524 O 0.72696 0.8692 0.71272 0.0
C525 C 0.73336 0.89744 0.66732 0.0
O526 O 0.7255 0.87939 0.67082 0.0
O527 O 0.75021 0.90232 0.67558 0.0
O528 O 0.7977 0.90277 0.69933 0.0
O529 O 0.78165 0.85555 0.68832 0.0
C530 C 0.77507 0.8387 0.69524 0.0
O531 O 0.75757 0.83829 0.70486 0.0
O532 O 0.75555 0.88064 0.72698 0.0
Mg533 Mg 0.26652 0.62493 0.30816 0.0
C534 C 0.29797 0.5947 0.3207 0.0
O535 O 0.28498 0.59383 0.33588 0.0
C536 C 0.23524 0.64286 0.28198 0.0
O537 O 0.23205 0.65104 0.29996 0.0
C538 C 0.2329 0.60068 0.32799 0.0
O539 O 0.22981 0.59623 0.30874 0.0
O540 O 0.24698 0.61322 0.33252 0.0
O541 O 0.29348 0.60561 0.30534 0.0
O542 O 0.27859 0.65544 0.31308 0.0
C543 C 0.29678 0.65862 0.31895 0.0
O544 O 0.30777 0.64321 0.32543 0.0
O545 O 0.24898 0.62927 0.28034 0.0
Mg546 Mg 0.62869 0.02235 0.55509 0.0
C547 C 0.64417 0.06239 0.54002 0.0
O548 O 0.62685 0.06086 0.53011 0.0
C549 C 0.61397 0.98885 0.52745 0.0
O550 O 0.61114 0.98017 0.54524 0.0
C551 C 0.65971 1.00057 0.58065 0.0
O552 O 0.67106 0.01353 0.57049 0.0
O553 O 0.64051 1.00088 0.57786 0.0
O554 O 0.64993 0.0475 0.55098 0.0
O555 O 0.60046 0.03844 0.56228 0.0
C556 C 0.58284 0.03087 0.55956 0.0
O557 O 0.58116 0.01143 0.55524 0.0
O558 O 0.62232 0.00633 0.52677 0.0
Mg559 Mg 0.2359 0.38043 0.80662 0.0
C560 C 0.20757 0.41549 0.8158 0.0
O561 O 0.22116 0.41793 0.83027 0.0
C562 C 0.25616 0.38254 0.76305 0.0
O563 O 0.24838 0.40086 0.76097 0.0
C564 C 0.27007 0.40438 0.82579 0.0
O565 O 0.27197 0.40987 0.80665 0.0
O566 O 0.25631 0.39154 0.83048 0.0
O567 O 0.21052 0.4017 0.80249 0.0
O568 O 0.22237 0.35084 0.81309 0.0
C569 C 0.20314 0.34849 0.81314 0.0
O570 O 0.19138 0.36467 0.81257 0.0
O571 O 0.25335 0.37277 0.7795 0.0
Mg572 Mg 0.36221 0.47616 0.55369 0.0
C573 C 0.32723 0.44685 0.55821 0.0
O574 O 0.32533 0.45723 0.57521 0.0
C575 C 0.38318 0.51023 0.53177 0.0
O576 O 0.38534 0.51602 0.55079 0.0
C577 C 0.3353 0.50862 0.56994 0.0
O578 O 0.33113 0.50843 0.55038 0.0
O579 O 0.34871 0.49629 0.57663 0.0
O580 O 0.34046 0.45253 0.54526 0.0
O581 O 0.38847 0.4578 0.56254 0.0
C582 C 0.4064 0.46442 0.56561 0.0
O583 O 0.4095 0.48414 0.56659 0.0
O584 O 0.37285 0.49428 0.52795 0.0
Mg585 Mg 0.73853 0.11908 0.20168 0.0
C586 C 0.69727 0.10405 0.19424 0.0
O587 O 0.6999 0.1185 0.1807 0.0
C588 C 0.77341 0.13295 0.22773 0.0
O589 O 0.78086 0.13607 0.20944 0.0
C590 C 0.76961 0.09195 0.18207 0.0
O591 O 0.76987 0.0855 0.201 0.0
O592 O 0.75783 0.10666 0.17744 0.0
O593 O 0.712 0.09934 0.20594 0.0
O594 O 0.72389 0.1484 0.19565 0.0
C595 C 0.73128 0.16588 0.19946 0.0
O596 O 0.75048 0.16746 0.2048 0.0
O597 O 0.75612 0.12436 0.22941 0.0
Mg598 Mg 0.63553 0.98439 0.95304 0.0
C599 C 0.64973 0.94637 0.93584 0.0
O600 O 0.63829 0.95488 0.92181 0.0
C601 C 0.63198 0.01546 0.98748 0.0
O602 O 0.63896 0.02804 0.9736 0.0
C603 C 0.66708 0.00509 0.92717 0.0
O604 O 0.67726 0.98921 0.93382 0.0
O605 O 0.64856 0.0072 0.93251 0.0
O606 O 0.65309 0.95623 0.95217 0.0
O607 O 0.60534 0.97332 0.94495 0.0
C608 C 0.58933 0.98112 0.95253 0.0
O609 O 0.59072 0.99839 0.96252 0.0
O610 O 0.63082 0.99655 0.98343 0.0
Mg611 Mg 0.8723 0.01814 0.45059 0.0
C612 C 0.83555 0.0459 0.4467 0.0
O613 O 0.83049 0.03212 0.43311 0.0
C614 C 0.89594 0.98775 0.47304 0.0
O615 O 0.90403 0.98799 0.45475 0.0
C616 C 0.84753 0.98565 0.43005 0.0
O617 O 0.84314 0.98258 0.44932 0.0
O618 O 0.86019 0.99963 0.42555 0.0
O619 O 0.8514 0.04305 0.45747 0.0
O620 O 0.90112 0.03363 0.44509 0.0
C621 C 0.90218 0.05224 0.43979 0.0
O622 O 0.88556 0.0617 0.43392 0.0
O623 O 0.8803 0.99874 0.47633 0.0
H624 H 0.13459 0.13854 0.47413 0.0
H625 H 0.14183 0.24336 0.41162 0.0
H626 H 0.08369 0.17941 0.4663 0.0
H627 H 0.19279 0.20338 0.42282 0.0
H628 H 0.11961 0.21923 0.42951 0.0
H629 H 0.15539 0.16107 0.45313 0.0
C630 C 0.12771 0.15217 0.46788 0.0
C631 C 0.10735 0.15708 0.47211 0.0
C632 C 0.13565 0.21573 0.42797 0.0
C633 C 0.13121 0.18313 0.44804 0.0
C634 C 0.14833 0.22949 0.41773 0.0
C635 C 0.16925 0.22547 0.41576 0.0
C636 C 0.14392 0.19778 0.43626 0.0
C637 C 0.17681 0.20723 0.42401 0.0
C638 C 0.13964 0.16508 0.4559 0.0
C639 C 0.09933 0.175 0.46352 0.0
N640 N 0.16419 0.19414 0.4339 0.0
N641 N 0.11129 0.1874 0.452 0.0
H642 H 0.06714 0.86908 0.75832 0.0
H643 H 0.05004 0.89207 0.63966 0.0
H644 H 0.10139 0.83928 0.71081 0.0
H645 H 0.02003 0.92471 0.68818 0.0
H646 H 0.06941 0.87287 0.66517 0.0
H647 H 0.05028 0.88993 0.73263 0.0
C648 C 0.07122 0.86697 0.74249 0.0
C649 C 0.0857 0.85232 0.73677 0.0
C650 C 0.05864 0.88429 0.67021 0.0
C651 C 0.06624 0.87618 0.70709 0.0
C652 C 0.04755 0.89526 0.65564 0.0
C653 C 0.03331 0.91003 0.66173 0.0
C654 C 0.05541 0.88804 0.69104 0.0
C655 C 0.03079 0.91349 0.6827 0.0
C656 C 0.06155 0.87892 0.72778 0.0
C657 C 0.09034 0.85037 0.71596 0.0
N658 N 0.04164 0.90255 0.69653 0.0
N659 N 0.08057 0.86207 0.70188 0.0
H660 H 0.43405 0.80876 0.97129 0.0
H661 H 0.32239 0.80804 0.92199 0.0
H662 H 0.38914 0.85527 0.98321 0.0
H663 H 0.36704 0.7608 0.91217 0.0
H664 H 0.34694 0.82633 0.94317 0.0
H665 H 0.41006 0.79183 0.94861 0.0
C666 C 0.41914 0.81548 0.96913 0.0
C667 C 0.41363 0.83351 0.97926 0.0
C668 C 0.3514 0.812 0.93634 0.0
C669 C 0.38594 0.81404 0.95311 0.0
C670 C 0.33739 0.80152 0.92419 0.0
C671 C 0.3426 0.78277 0.91528 0.0
C672 C 0.37083 0.8037 0.93968 0.0
C673 C 0.3623 0.77517 0.9187 0.0
C674 C 0.40542 0.80575 0.95613 0.0
C675 C 0.39406 0.8414 0.97577 0.0
N676 N 0.37564 0.78561 0.93065 0.0
N677 N 0.38092 0.83161 0.96302 0.0
H678 H 0.40452 0.14733 0.23706 0.0
H679 H 0.4974 0.11846 0.16303 0.0
H680 H 0.45243 0.18923 0.22072 0.0
H681 H 0.45417 0.07465 0.18604 0.0
H682 H 0.47917 0.14538 0.1813 0.0
H683 H 0.42062 0.1213 0.21577 0.0
C684 C 0.41836 0.15111 0.22893 0.0
C685 C 0.42718 0.1705 0.2308 0.0
C686 C 0.47363 0.12988 0.18227 0.0
C687 C 0.4457 0.14073 0.20635 0.0
C688 C 0.48399 0.11451 0.17178 0.0
C689 C 0.47738 0.09421 0.17306 0.0
C690 C 0.45646 0.12498 0.19408 0.0
C691 C 0.45991 0.09004 0.18468 0.0
C692 C 0.42757 0.13622 0.2168 0.0
C693 C 0.44513 0.17448 0.21986 0.0
N694 N 0.45011 0.10525 0.19476 0.0
N695 N 0.4538 0.15975 0.20816 0.0
H696 H 0.18615 0.79348 0.06043 0.0
H697 H 0.06719 0.81318 0.04196 0.0
H698 H 0.13865 0.76379 0.09476 0.0
H699 H 0.11456 0.84306 0.00763 0.0
H700 H 0.09315 0.7962 0.0624 0.0
H701 H 0.16029 0.81282 0.04202 0.0
C702 C 0.17027 0.79106 0.06418 0.0
C703 C 0.1646 0.77688 0.07917 0.0
C704 C 0.0979 0.80652 0.05046 0.0
C705 C 0.13479 0.79907 0.05798 0.0
C706 C 0.08306 0.81627 0.03875 0.0
C707 C 0.08865 0.82956 0.02295 0.0
C708 C 0.1186 0.80998 0.04639 0.0
C709 C 0.1095 0.83295 0.01961 0.0
C710 C 0.15549 0.80214 0.05362 0.0
C711 C 0.14376 0.7745 0.08333 0.0
N712 N 0.1237 0.82316 0.03116 0.0
N713 N 0.12964 0.78541 0.07275 0.0
H714 H 0.49296 0.89527 0.34086 0.0
H715 H 0.3999 0.86798 0.26627 0.0
H716 H 0.45011 0.93969 0.31825 0.0
H717 H 0.44698 0.82524 0.28291 0.0
H718 H 0.4164 0.89377 0.28757 0.0
H719 H 0.47453 0.8687 0.32225 0.0
C720 C 0.47959 0.89943 0.33214 0.0
C721 C 0.47315 0.91979 0.33109 0.0
C722 C 0.42309 0.87872 0.2866 0.0
C723 C 0.452 0.88942 0.30963 0.0
C724 C 0.41365 0.86398 0.27444 0.0
C725 C 0.42208 0.8444 0.27269 0.0
C726 C 0.44108 0.87389 0.29718 0.0
C727 C 0.43995 0.84013 0.28369 0.0
C728 C 0.46911 0.88425 0.32144 0.0
C729 C 0.45572 0.92423 0.31947 0.0
N730 N 0.44884 0.85472 0.29541 0.0
N731 N 0.44582 0.90922 0.30918 0.0
H732 H 0.36993 0.24955 0.60212 0.0
H733 H 0.38172 0.16383 0.51561 0.0
H734 H 0.31847 0.22243 0.57156 0.0
H735 H 0.43206 0.19181 0.54725 0.0
H736 H 0.35807 0.18404 0.53642 0.0
H737 H 0.39265 0.22755 0.58264 0.0
C738 C 0.36337 0.23894 0.59135 0.0
C739 C 0.3422 0.23793 0.5885 0.0
C740 C 0.3743 0.18567 0.53884 0.0
C741 C 0.3683 0.21254 0.56595 0.0
C742 C 0.38781 0.1741 0.52699 0.0
C743 C 0.40896 0.17611 0.52961 0.0
C744 C 0.38198 0.19936 0.55343 0.0
C745 C 0.41593 0.18973 0.54458 0.0
C746 C 0.37639 0.22634 0.58019 0.0
C747 C 0.33467 0.22378 0.57428 0.0
N748 N 0.40253 0.2008 0.55582 0.0
N749 N 0.34769 0.2117 0.56351 0.0
H750 H 0.08391 0.14837 0.75227 0.0
H751 H 0.04237 0.10489 0.85859 0.0
H752 H 0.11523 0.15767 0.80929 0.0
H753 H 0.02009 0.08594 0.79975 0.0
H754 H 0.06686 0.12742 0.84151 0.0
H755 H 0.0579 0.12877 0.77019 0.0
C756 C 0.08527 0.14642 0.76858 0.0
C757 C 0.10188 0.15462 0.77925 0.0
C758 C 0.05656 0.11835 0.83238 0.0
C759 C 0.07207 0.13208 0.79993 0.0
C760 C 0.04255 0.10552 0.84212 0.0
C761 C 0.02921 0.09342 0.8306 0.0
C762 C 0.05706 0.11921 0.81099 0.0
C763 C 0.03015 0.09487 0.80929 0.0
C764 C 0.07043 0.13515 0.77882 0.0
C765 C 0.10276 0.15156 0.80041 0.0
N766 N 0.04378 0.10749 0.80022 0.0
N767 N 0.0881 0.14051 0.81005 0.0
H768 H 0.24271 0.41163 0.13725 0.0
H769 H 0.15715 0.49636 0.11519 0.0
H770 H 0.21162 0.44523 0.1844 0.0
H771 H 0.18988 0.46439 0.06801 0.0
H772 H 0.17611 0.47696 0.1408 0.0
H773 H 0.22274 0.43001 0.11166 0.0
C774 C 0.23168 0.42283 0.14224 0.0
C775 C 0.2289 0.42688 0.16304 0.0
C776 C 0.17911 0.47417 0.12484 0.0
C777 C 0.20594 0.44803 0.13379 0.0
C778 C 0.16826 0.48523 0.1102 0.0
C779 C 0.17191 0.48206 0.08938 0.0
C780 C 0.19375 0.45979 0.11866 0.0
C781 C 0.18653 0.46742 0.08386 0.0
C782 C 0.22027 0.43335 0.12761 0.0
C783 C 0.21435 0.44159 0.16856 0.0
N784 N 0.1969 0.45688 0.09837 0.0
N785 N 0.20346 0.45161 0.15406 0.0
H786 H 0.70521 0.115 0.86343 0.0
H787 H 0.70444 1.00202 0.90929 0.0
H788 H 0.74939 0.06876 0.84815 0.0
H789 H 0.65345 0.04305 0.91537 0.0
H790 H 0.72194 0.02733 0.88859 0.0
H791 H 0.68696 0.08999 0.88431 0.0
C792 C 0.71113 0.09964 0.8645 0.0
C793 C 0.72889 0.094 0.85399 0.0
C794 C 0.7069 0.03083 0.89439 0.0
C795 C 0.70807 0.06533 0.87788 0.0
C796 C 0.69688 0.01636 0.90626 0.0
C797 C 0.67741 0.02037 0.9141 0.0
C798 C 0.69753 0.04963 0.89037 0.0
C799 C 0.66842 0.03927 0.90959 0.0
C800 C 0.70064 0.08535 0.87637 0.0
C801 C 0.73576 0.07384 0.85592 0.0
N802 N 0.67858 0.05323 0.89809 0.0
N803 N 0.72539 0.0603 0.86763 0.0
H804 H 0.79601 0.94268 0.31618 0.0
H805 H 0.81995 0.95482 0.43518 0.0
H806 H 0.76533 0.90821 0.36294 0.0
H807 H 0.85022 0.98956 0.38836 0.0
H808 H 0.8009 0.93665 0.40894 0.0
H809 H 0.81687 0.95892 0.34227 0.0
C810 C 0.79367 0.93844 0.33194 0.0
C811 C 0.77878 0.92405 0.33733 0.0
C812 C 0.81175 0.94818 0.40437 0.0
C813 C 0.80276 0.94276 0.36743 0.0
C814 C 0.82269 0.95859 0.41937 0.0
C815 C 0.83673 0.97383 0.41402 0.0
C816 C 0.81478 0.953 0.38377 0.0
C817 C 0.83957 0.97797 0.39324 0.0
C818 C 0.80564 0.94777 0.34686 0.0
C819 C 0.77657 0.91922 0.35804 0.0
N820 N 0.82866 0.96767 0.37891 0.0
N821 N 0.78837 0.92859 0.37231 0.0
H822 H 0.82285 0.04799 0.06931 0.0
H823 H 0.79686 0.06093 0.18777 0.0
H824 H 0.84939 0.01077 0.1165 0.0
H825 H 0.77139 0.09913 0.14076 0.0
H826 H 0.8168 0.04304 0.16203 0.0
H827 H 0.80462 0.06737 0.09526 0.0
C828 C 0.82492 0.0439 0.08514 0.0
C829 C 0.83769 0.02763 0.09068 0.0
C830 C 0.80691 0.05536 0.15731 0.0
C831 C 0.81669 0.04987 0.1206 0.0
C832 C 0.79548 0.06563 0.17203 0.0
C833 C 0.78233 0.08158 0.16647 0.0
C834 C 0.80522 0.06098 0.13676 0.0
C835 C 0.78128 0.08694 0.14579 0.0
C836 C 0.81447 0.05501 0.09998 0.0
C837 C 0.83973 0.02315 0.11148 0.0
N838 N 0.79251 0.07663 0.13171 0.0
N839 N 0.82931 0.03415 0.12565 0.0
H840 H 0.24992 0.59704 0.61767 0.0
H841 H 0.33812 0.51245 0.61172 0.0
H842 H 0.28108 0.57389 0.67069 0.0
H843 H 0.30652 0.53674 0.55947 0.0
H844 H 0.31822 0.53525 0.63368 0.0
H845 H 0.27133 0.57553 0.59621 0.0
C846 C 0.26131 0.58749 0.62483 0.0
C847 C 0.26363 0.5873 0.64606 0.0
C848 C 0.3157 0.5356 0.6174 0.0
C849 C 0.28829 0.56245 0.62147 0.0
C850 C 0.32708 0.52259 0.60485 0.0
C851 C 0.32399 0.52261 0.58369 0.0
C852 C 0.30113 0.54872 0.60873 0.0
C853 C 0.30944 0.5361 0.57567 0.0
C854 C 0.27355 0.57517 0.61254 0.0
C855 C 0.27871 0.57456 0.6544 0.0
N856 N 0.29858 0.54852 0.58816 0.0
N857 N 0.29041 0.56262 0.64211 0.0
H858 H 0.20013 0.57536 0.32323 0.0
H859 H 0.19736 0.54091 0.44007 0.0
H860 H 0.23929 0.60092 0.3694 0.0
H861 H 0.15379 0.52049 0.39532 0.0
H862 H 0.21267 0.56315 0.41452 0.0
H863 H 0.18272 0.55556 0.34944 0.0
C864 C 0.20501 0.57692 0.33891 0.0
C865 C 0.22128 0.58982 0.34408 0.0
C866 C 0.19971 0.55388 0.41028 0.0
C867 C 0.2014 0.56697 0.37424 0.0
C868 C 0.19096 0.54112 0.42488 0.0
C869 C 0.17427 0.52871 0.41985 0.0
C870 C 0.19185 0.55422 0.3904 0.0
C871 C 0.16663 0.52974 0.3999 0.0
C872 C 0.19503 0.56558 0.35388 0.0
C873 C 0.22684 0.59121 0.36468 0.0
N874 N 0.17554 0.54218 0.38591 0.0
N875 N 0.21702 0.57983 0.37897 0.0
H876 H 0.35317 0.48403 0.89083 0.0
H877 H 0.26836 0.39917 0.86727 0.0
H878 H 0.3179 0.45361 0.93716 0.0
H879 H 0.30095 0.43193 0.82057 0.0
H880 H 0.28837 0.41703 0.89313 0.0
H881 H 0.33629 0.46312 0.86493 0.0
C882 C 0.34201 0.47285 0.89559 0.0
C883 C 0.33688 0.47068 0.91622 0.0
C884 C 0.29122 0.42024 0.87722 0.0
C885 C 0.31742 0.44673 0.88663 0.0
C886 C 0.2798 0.41002 0.86243 0.0
C887 C 0.28288 0.4141 0.84169 0.0
C888 C 0.30586 0.43469 0.87127 0.0
C889 C 0.29796 0.42833 0.83637 0.0
C890 C 0.33233 0.46095 0.88078 0.0
C891 C 0.32229 0.45593 0.92145 0.0
N892 N 0.3088 0.43815 0.85104 0.0
N893 N 0.31304 0.44462 0.90678 0.0
H894 H 0.60251 0.68157 0.00721 0.0
H895 H 0.65898 0.70927 0.90271 0.0
H896 H 0.60624 0.63924 0.95707 0.0
H897 H 0.66697 0.74236 0.95891 0.0
H898 H 0.63709 0.68485 0.92081 0.0
H899 H 0.62367 0.70541 0.98822 0.0
C900 C 0.60779 0.67725 0.99219 0.0
C901 C 0.60259 0.6583 0.98378 0.0
C902 C 0.64366 0.69748 0.92912 0.0
C903 C 0.62685 0.68574 0.96178 0.0
C904 C 0.65607 0.71146 0.91879 0.0
C905 C 0.66488 0.72788 0.9293 0.0
C906 C 0.63986 0.70011 0.95003 0.0
C907 C 0.66063 0.72992 0.95016 0.0
C908 C 0.61993 0.69089 0.98135 0.0
C909 C 0.60994 0.65362 0.96422 0.0
N910 N 0.64843 0.71628 0.95977 0.0
N911 N 0.62163 0.66728 0.95384 0.0
H912 H 0.56715 0.31637 0.21275 0.0
H913 H 0.54673 0.43522 0.19425 0.0
H914 H 0.59944 0.36405 0.24441 0.0
H915 H 0.51405 0.38749 0.16306 0.0
H916 H 0.56718 0.40946 0.21156 0.0
H917 H 0.54878 0.34216 0.1933 0.0
C918 C 0.57048 0.33227 0.21557 0.0
C919 C 0.58487 0.33801 0.23034 0.0
C920 C 0.55559 0.40459 0.20089 0.0
C921 C 0.5637 0.36775 0.20805 0.0
C922 C 0.54387 0.41931 0.19096 0.0
C923 C 0.52855 0.41355 0.17718 0.0
C924 C 0.55202 0.38385 0.1971 0.0
C925 C 0.52565 0.39267 0.17356 0.0
C926 C 0.55994 0.34702 0.20443 0.0
C927 C 0.5885 0.35889 0.23322 0.0
N928 N 0.53721 0.37861 0.1835 0.0
N929 N 0.57794 0.37298 0.22225 0.0
H930 H 0.87417 0.35286 0.49776 0.0
H931 H 0.86615 0.2607 0.41772 0.0
H932 H 0.92609 0.31781 0.47784 0.0
H933 H 0.81434 0.29283 0.44229 0.0
H934 H 0.88872 0.28294 0.43755 0.0
H935 H 0.85239 0.33244 0.47557 0.0
C936 C 0.88103 0.34091 0.48869 0.0
C937 C 0.90202 0.33704 0.48978 0.0
C938 C 0.87241 0.28515 0.43852 0.0
C939 C 0.87707 0.31349 0.46423 0.0
C940 C 0.85952 0.2725 0.42714 0.0
C941 C 0.83829 0.27481 0.42839 0.0
C942 C 0.86402 0.30028 0.45116 0.0
C943 C 0.83058 0.29036 0.4409 0.0
C944 C 0.86855 0.32922 0.47601 0.0
C945 C 0.90999 0.32133 0.47758 0.0
N946 N 0.8434 0.30242 0.45179 0.0
N947 N 0.89752 0.31013 0.46536 0.0
H948 H 0.91577 0.64449 0.73699 0.0
H949 H 0.99891 0.63169 0.64829 0.0
H950 H 0.94217 0.6946 0.70369 0.0
H951 H 0.97318 0.58087 0.68105 0.0
H952 H 0.97719 0.65475 0.66776 0.0
H953 H 0.93549 0.62074 0.71595 0.0
C954 C 0.92559 0.65051 0.7252 0.0
C955 C 0.92733 0.67161 0.72217 0.0
C956 C 0.97623 0.63855 0.67068 0.0
C957 C 0.95003 0.64451 0.69809 0.0
C958 C 0.98866 0.62534 0.65954 0.0
C959 C 0.98796 0.60427 0.66303 0.0
C960 C 0.96295 0.63071 0.68551 0.0
C961 C 0.97429 0.597 0.67783 0.0
C962 C 0.93689 0.63694 0.71321 0.0
C963 C 0.94035 0.67849 0.70666 0.0
N964 N 0.96239 0.61018 0.68855 0.0
N965 N 0.9512 0.66502 0.69529 0.0
H966 H 0.6131 0.34588 0.51659 0.0
H967 H 0.63877 0.26134 0.60114 0.0
H968 H 0.56733 0.31347 0.55081 0.0
H969 H 0.68442 0.29224 0.56541 0.0
H970 H 0.61247 0.28191 0.58449 0.0
H971 H 0.63954 0.328 0.53588 0.0
C972 C 0.60859 0.33511 0.52822 0.0
C973 C 0.58793 0.33114 0.53199 0.0
C974 C 0.62826 0.28425 0.58037 0.0
C975 C 0.61815 0.31052 0.55413 0.0
C976 C 0.64329 0.27253 0.58991 0.0
C977 C 0.66386 0.27497 0.58463 0.0
C978 C 0.63379 0.29855 0.56542 0.0
C979 C 0.66878 0.28974 0.56994 0.0
C980 C 0.6237 0.32486 0.53923 0.0
C981 C 0.58304 0.31699 0.54729 0.0
N982 N 0.65388 0.30088 0.56082 0.0
N983 N 0.598 0.30718 0.55772 0.0
H984 H 0.90028 0.35235 0.78781 0.0
H985 H 0.00541 0.40553 0.81826 0.0
H986 H 0.95822 0.33517 0.76205 0.0
H987 H 0.95437 0.40356 0.85956 0.0
H988 H 0.98663 0.38375 0.79462 0.0
H989 H 0.91818 0.37533 0.81142 0.0
C990 C 0.91671 0.35352 0.78702 0.0
C991 C 0.92778 0.34178 0.77298 0.0
C992 C 0.97954 0.38807 0.80887 0.0
C993 C 0.94824 0.36807 0.79973 0.0
C994 C 0.99024 0.40054 0.82236 0.0
C995 C 0.9815 0.40632 0.84099 0.0
C996 C 0.95979 0.38154 0.8138 0.0
C997 C 0.96176 0.39935 0.84545 0.0
C998 C 0.9269 0.36652 0.80055 0.0
C999 C 0.94907 0.34383 0.77268 0.0
N1000 N 0.95151 0.38742 0.8319 0.0
N1001 N 0.95856 0.35674 0.78576 0.0
H1002 H 0.82361 0.70618 0.06958 0.0
H1003 H 0.93645 0.70904 0.02355 0.0
H1004 H 0.86779 0.7524 0.08473 0.0
H1005 H 0.89494 0.65906 0.01379 0.0
H1006 H 0.91149 0.72501 0.04594 0.0
H1007 H 0.84941 0.68863 0.0493 0.0
C1008 C 0.83877 0.71262 0.06875 0.0
C1009 C 0.84348 0.73087 0.07889 0.0
C1010 C 0.90783 0.71052 0.03898 0.0
C1011 C 0.87317 0.71081 0.05547 0.0
C1012 C 0.92209 0.70137 0.02612 0.0
C1013 C 0.91781 0.68265 0.01666 0.0
C1014 C 0.88899 0.70102 0.04242 0.0
C1015 C 0.89892 0.67348 0.02071 0.0
C1016 C 0.85352 0.70255 0.05714 0.0
C1017 C 0.86343 0.73839 0.07722 0.0
N1018 N 0.88519 0.68279 0.03319 0.0
N1019 N 0.87747 0.72841 0.06566 0.0
H1020 H 0.52038 0.61831 0.3573 0.0
H1021 H 0.60414 0.63544 0.26985 0.0
H1022 H 0.54499 0.56986 0.32033 0.0
H1023 H 0.5764 0.6843 0.30396 0.0
H1024 H 0.58477 0.61088 0.29016 0.0
H1025 H 0.54286 0.64241 0.33986 0.0
C1026 C 0.53058 0.6127 0.34562 0.0
C1027 C 0.53068 0.59201 0.34023 0.0
C1028 C 0.58301 0.62698 0.29327 0.0
C1029 C 0.55648 0.61956 0.32014 0.0
C1030 C 0.59413 0.64101 0.28171 0.0
C1031 C 0.59186 0.662 0.2851 0.0
C1032 C 0.56952 0.63394 0.30838 0.0
C1033 C 0.5786 0.66829 0.30069 0.0
C1034 C 0.5434 0.62648 0.33563 0.0
C1035 C 0.54427 0.58566 0.32495 0.0
N1036 N 0.56791 0.65436 0.31166 0.0
N1037 N 0.55654 0.59936 0.31543 0.0
H1038 H 0.74708 0.93441 0.65383 0.0
H1039 H 0.64271 0.96684 0.59915 0.0
H1040 H 0.69453 0.89502 0.65153 0.0
H1041 H 0.69931 0.99968 0.5932 0.0
H1042 H 0.66027 0.94146 0.62034 0.0
H1043 H 0.72875 0.95945 0.63345 0.0
C1044 C 0.73168 0.93098 0.64902 0.0
C1045 C 0.72239 0.9125 0.65442 0.0
C1046 C 0.6688 0.95426 0.61439 0.0
C1047 C 0.70114 0.94135 0.63104 0.0
C1048 C 0.65877 0.96879 0.60238 0.0
C1049 C 0.66954 0.98544 0.59433 0.0
C1050 C 0.6897 0.95647 0.61854 0.0
C1051 C 0.69035 0.98711 0.59898 0.0
C1052 C 0.7212 0.94533 0.63735 0.0
C1053 C 0.70236 0.909 0.64769 0.0
N1054 N 0.69969 0.97287 0.61074 0.0
N1055 N 0.69238 0.9233 0.63641 0.0
H1056 H 0.23677 0.40462 0.2779 0.0
H1057 H 0.19429 0.29805 0.31762 0.0
H1058 H 0.22991 0.35175 0.23944 0.0
H1059 H 0.19125 0.35352 0.35279 0.0
H1060 H 0.20526 0.31791 0.28811 0.0
H1061 H 0.21847 0.38671 0.30497 0.0
C1062 C 0.23129 0.38933 0.27507 0.0
C1063 C 0.23505 0.37965 0.2564 0.0
C1064 C 0.20193 0.32578 0.30221 0.0
C1065 C 0.21419 0.35898 0.28738 0.0
C1066 C 0.19559 0.31443 0.31907 0.0
C1067 C 0.19201 0.32407 0.3378 0.0
C1068 C 0.20492 0.3469 0.30414 0.0
C1069 C 0.19395 0.34537 0.33872 0.0
C1070 C 0.2208 0.37911 0.29053 0.0
C1071 C 0.22748 0.35982 0.2536 0.0
N1072 N 0.20053 0.35601 0.32223 0.0
N1073 N 0.21761 0.3501 0.26896 0.0
H1074 H 0.88383 0.98275 0.51294 0.0
H1075 H 0.99355 0.94904 0.55005 0.0
H1076 H 0.93268 0.96841 0.47137 0.0
H1077 H 0.94035 0.94231 0.58799 0.0
H1078 H 0.97137 0.95579 0.52091 0.0
H1079 H 0.90391 0.96793 0.54077 0.0
C1080 C 0.89865 0.97631 0.50961 0.0
C1081 C 0.90662 0.97698 0.4898 0.0
C1082 C 0.96453 0.95252 0.53555 0.0
C1083 C 0.92973 0.96023 0.52156 0.0
C1084 C 0.9772 0.94863 0.55218 0.0
C1085 C 0.96883 0.94517 0.57151 0.0
C1086 C 0.94332 0.95338 0.53831 0.0
C1087 C 0.94749 0.94485 0.57337 0.0
C1088 C 0.91009 0.96782 0.52549 0.0
C1089 C 0.92591 0.96835 0.48639 0.0
N1090 N 0.93548 0.94926 0.55706 0.0
N1091 N 0.93688 0.96059 0.50212 0.0
H1092 H 0.31323 0.68613 0.83465 0.0
H1093 H 0.27969 0.67819 0.71791 0.0
H1094 H 0.30447 0.73833 0.79568 0.0
H1095 H 0.26751 0.63074 0.76171 0.0
H1096 H 0.2956 0.69841 0.74467 0.0
H1097 H 0.30359 0.66386 0.80633 0.0
C1098 C 0.30968 0.69292 0.82004 0.0
C1099 C 0.30955 0.71418 0.81757 0.0
C1100 C 0.28957 0.68352 0.74841 0.0
C1101 C 0.29845 0.68872 0.78518 0.0
C1102 C 0.28051 0.6719 0.73312 0.0
C1103 C 0.27209 0.65275 0.73757 0.0
C1104 C 0.29045 0.67593 0.76834 0.0
C1105 C 0.27367 0.64547 0.75761 0.0
C1106 C 0.30402 0.68017 0.80395 0.0
C1107 C 0.30468 0.72205 0.79831 0.0
N1108 N 0.28264 0.65709 0.77228 0.0
N1109 N 0.29926 0.70934 0.78289 0.0
H1110 H 0.63727 0.05279 0.00563 0.0
H1111 H 0.54144 0.0398 0.07847 0.0
H1112 H 0.60353 0.99667 0.01118 0.0
H1113 H 0.59089 0.07999 0.09464 0.0
H1114 H 0.56101 0.02816 0.04909 0.0
H1115 H 0.61797 0.06669 0.03458 0.0
C1116 C 0.62595 0.04336 0.01302 0.0
C1117 C 0.62208 0.02351 0.00606 0.0
C1118 C 0.56751 0.03962 0.05901 0.0
C1119 C 0.59969 0.03947 0.03862 0.0
C1120 C 0.55628 0.04643 0.07569 0.0
C1121 C 0.56458 0.06084 0.08912 0.0
C1122 C 0.58706 0.04747 0.0555 0.0
C1123 C 0.58395 0.06879 0.08473 0.0
C1124 C 0.61496 0.0513 0.02947 0.0
C1125 C 0.60717 0.01197 0.01613 0.0
N1126 N 0.59457 0.062 0.06826 0.0
N1127 N 0.59639 0.02019 0.03174 0.0
H1128 H 0.183 0.73103 0.20092 0.0
H1129 H 0.23911 0.63149 0.24176 0.0
H1130 H 0.20203 0.68205 0.16142 0.0
H1131 H 0.20795 0.67421 0.28082 0.0
H1132 H 0.22468 0.64891 0.21207 0.0
H1133 H 0.19089 0.70972 0.23038 0.0
C1134 C 0.18859 0.71571 0.19842 0.0
C1135 C 0.19197 0.70841 0.17864 0.0
C1136 C 0.22083 0.65431 0.22716 0.0
C1137 C 0.20134 0.68397 0.21236 0.0
C1138 C 0.22907 0.64436 0.24412 0.0
C1139 C 0.2249 0.65148 0.26383 0.0
C1140 C 0.2085 0.67162 0.22994 0.0
C1141 C 0.21173 0.66823 0.26594 0.0
C1142 C 0.19312 0.70354 0.21527 0.0
C1143 C 0.19922 0.68837 0.17637 0.0
N1144 N 0.20421 0.67783 0.24923 0.0
N1145 N 0.2039 0.67697 0.19301 0.0
H1146 H 0.61892 1.00095 0.48781 0.0
H1147 H 0.52901 0.93101 0.44539 0.0
H1148 H 0.58804 0.95628 0.52478 0.0
H1149 H 0.56867 0.96673 0.40703 0.0
H1150 H 0.55072 0.93929 0.47462 0.0
H1151 H 0.60101 0.98795 0.45791 0.0
C1152 C 0.60852 0.98828 0.48962 0.0
C1153 C 0.60493 0.97977 0.50887 0.0
C1154 C 0.55474 0.94514 0.45975 0.0
C1155 C 0.58414 0.96492 0.47469 0.0
C1156 C 0.54235 0.94041 0.44305 0.0
C1157 C 0.54689 0.9483 0.42371 0.0
C1158 C 0.57168 0.95797 0.45711 0.0
C1159 C 0.56444 0.96038 0.42163 0.0
C1160 C 0.59829 0.98084 0.47253 0.0
C1161 C 0.59129 0.96333 0.51026 0.0
N1162 N 0.57604 0.96498 0.43811 0.0
N1163 N 0.58124 0.95659 0.49345 0.0
H1164 H 0.29745 0.28988 0.67989 0.0
H1165 H 0.26574 0.3981 0.72531 0.0
H1166 H 0.30277 0.34606 0.64619 0.0
H1167 H 0.27058 0.34347 0.76154 0.0
H1168 H 0.28079 0.37972 0.69654 0.0
H1169 H 0.28951 0.30955 0.71049 0.0
C1170 C 0.29727 0.30635 0.67897 0.0
C1171 C 0.30063 0.31629 0.66036 0.0
C1172 C 0.27872 0.37182 0.71086 0.0
C1173 C 0.29118 0.33893 0.69531 0.0
C1174 C 0.27009 0.38231 0.72728 0.0
C1175 C 0.26672 0.37231 0.74586 0.0
C1176 C 0.28386 0.35113 0.71295 0.0
C1177 C 0.27277 0.35183 0.74751 0.0
C1178 C 0.29266 0.31759 0.69646 0.0
C1179 C 0.30019 0.3377 0.66015 0.0
N1180 N 0.28084 0.3419 0.73126 0.0
N1181 N 0.29529 0.34827 0.67727 0.0
H1182 H 0.93426 0.03262 0.03583 0.0
H1183 H 0.93939 0.06021 0.91734 0.0
H1184 H 0.88598 0.01846 0.99352 0.0
H1185 H 0.99214 0.05679 0.95642 0.0
H1186 H 0.91775 0.05173 0.94645 0.0
H1187 H 0.95353 0.04814 0.00816 0.0
C1188 C 0.92758 0.03294 0.02076 0.0
C1189 C 0.90851 0.02402 0.01698 0.0
C1190 C 0.93404 0.05305 0.94867 0.0
C1191 C 0.93061 0.04187 0.98517 0.0
C1192 C 0.94642 0.05803 0.9321 0.0
C1193 C 0.96768 0.05906 0.93439 0.0
C1194 C 0.94294 0.04929 0.96773 0.0
C1195 C 0.97587 0.05602 0.95389 0.0
C1196 C 0.93865 0.04178 0.00495 0.0
C1197 C 0.90067 0.02502 0.99712 0.0
N1198 N 0.9635 0.05118 0.96977 0.0
N1199 N 0.91179 0.03369 0.98192 0.0
H1200 H 0.30528 0.20556 0.26663 0.0
H1201 H 0.2628 0.24361 0.37338 0.0
H1202 H 0.34079 0.2028 0.32185 0.0
H1203 H 0.22407 0.23002 0.32204 0.0
H1204 H 0.29157 0.2284 0.35509 0.0
H1205 H 0.27518 0.21389 0.28686 0.0
C1206 C 0.30669 0.20641 0.28303 0.0
C1207 C 0.32561 0.20356 0.29253 0.0
C1208 C 0.27672 0.22857 0.34794 0.0
C1209 C 0.29128 0.21349 0.31579 0.0
C1210 C 0.2603 0.2373 0.35835 0.0
C1211 C 0.24101 0.23824 0.34918 0.0
C1212 C 0.27386 0.22096 0.32814 0.0
C1213 C 0.23866 0.22974 0.3297 0.0
C1214 C 0.2895 0.2112 0.29459 0.0
C1215 C 0.32651 0.20485 0.31387 0.0
N1216 N 0.25491 0.22166 0.31976 0.0
N1217 N 0.30966 0.21 0.32476 0.0
H1218 H 0.99868 0.00926 0.59705 0.0
H1219 H 0.0923 0.08208 0.57322 0.0
H1220 H 0.05806 0.99857 0.62308 0.0
H1221 H 0.042 0.0739 0.53172 0.0
H1222 H 0.07958 0.05347 0.59355 0.0
H1223 H 0.01334 0.03583 0.57549 0.0
C1224 C 0.01476 0.01265 0.59841 0.0
C1225 C 0.02715 1.00171 0.61196 0.0
C1226 C 0.0715 0.05781 0.57985 0.0
C1227 C 0.04405 0.03207 0.58721 0.0
C1228 C 0.07878 0.07408 0.5682 0.0
C1229 C 0.06822 0.08043 0.55072 0.0
C1230 C 0.0533 0.0481 0.57422 0.0
C1231 C 0.05072 0.06953 0.545 0.0
C1232 C 0.02316 0.02768 0.58594 0.0
C1233 C 0.04796 0.00663 0.61286 0.0
N1234 N 0.04366 0.05411 0.55687 0.0
N1235 N 0.05574 0.02153 0.60074 0.0
H1236 H 0.18667 0.80152 0.78703 0.0
H1237 H 0.23249 0.77808 0.89762 0.0
H1238 H 0.15587 0.81755 0.84282 0.0
H1239 H 0.26339 0.76468 0.84118 0.0
H1240 H 0.20518 0.79456 0.87817 0.0
H1241 H 0.21605 0.79042 0.80689 0.0
C1242 C 0.18617 0.80297 0.80345 0.0
C1243 C 0.16868 0.81038 0.81324 0.0
C1244 C 0.218 0.78809 0.87009 0.0
C1245 C 0.20227 0.79736 0.83619 0.0
C1246 C 0.23358 0.77864 0.88119 0.0
C1247 C 0.25023 0.76984 0.87106 0.0
C1248 C 0.21906 0.7887 0.8487 0.0
C1249 C 0.25085 0.77114 0.84971 0.0
C1250 C 0.20295 0.79654 0.81481 0.0
C1251 C 0.16898 0.81191 0.83459 0.0
N1252 N 0.23549 0.78027 0.83929 0.0
N1253 N 0.18541 0.80526 0.84535 0.0
H1254 H 0.46333 0.02538 0.09397 0.0
H1255 H 0.46578 0.90384 0.09611 0.0
H1256 H 0.49543 0.98989 0.13902 0.0
H1257 H 0.43703 0.93838 0.0482 0.0
H1258 H 0.47198 0.93529 0.11474 0.0
H1259 H 0.4492 0.99402 0.07982 0.0
C1260 C 0.46724 0.01102 0.10106 0.0
C1261 C 0.48079 0.01028 0.11761 0.0
C1262 C 0.46412 0.93605 0.10027 0.0
C1263 C 0.46465 0.97425 0.10137 0.0
C1264 C 0.46053 0.91806 0.0896 0.0
C1265 C 0.45107 0.9185 0.07044 0.0
C1266 C 0.45837 0.95475 0.09169 0.0
C1267 C 0.44441 0.93736 0.0629 0.0
C1268 C 0.45916 0.9931 0.09292 0.0
C1269 C 0.48518 0.99121 0.12618 0.0
N1270 N 0.44843 0.95479 0.07343 0.0
N1271 N 0.47727 0.97397 0.11786 0.0
H1272 H 0.34007 0.80972 0.17826 0.0
H1273 H 0.22005 0.79457 0.16546 0.0
H1274 H 0.29789 0.81414 0.22844 0.0
H1275 H 0.26398 0.76465 0.1268 0.0
H1276 H 0.24799 0.80958 0.18498 0.0
H1277 H 0.31166 0.80118 0.15566 0.0
C1278 C 0.3248 0.80931 0.18446 0.0
C1279 C 0.32136 0.81255 0.20533 0.0
C1280 C 0.25148 0.79989 0.1721 0.0
C1281 C 0.28886 0.8028 0.1795 0.0
C1282 C 0.23557 0.79137 0.16088 0.0
C1283 C 0.23968 0.77821 0.14452 0.0
C1284 C 0.27169 0.7955 0.16678 0.0
C1285 C 0.26011 0.77459 0.13937 0.0
C1286 C 0.30864 0.80428 0.17157 0.0
C1287 C 0.30125 0.81166 0.2125 0.0
N1288 N 0.27538 0.78318 0.15047 0.0
N1289 N 0.28576 0.80682 0.19962 0.0
H1290 H 0.46494 0.98616 0.41657 0.0
H1291 H 0.44501 0.10598 0.40688 0.0
H1292 H 0.48729 0.02275 0.3668 0.0
H1293 H 0.43626 0.0723 0.46263 0.0
H1294 H 0.45495 0.0745 0.38982 0.0
H1295 H 0.44917 0.01643 0.43132 0.0
C1296 C 0.4664 1.00052 0.40862 0.0
C1297 C 0.47761 1.0019 0.39044 0.0
C1298 C 0.45068 0.07395 0.40573 0.0
C1299 C 0.45948 0.0367 0.40734 0.0
C1300 C 0.44489 0.09192 0.41551 0.0
C1301 C 0.43993 0.09187 0.43633 0.0
C1302 C 0.45144 0.05568 0.41676 0.0
C1303 C 0.44003 0.07312 0.44661 0.0
C1304 C 0.45742 0.01782 0.41711 0.0
C1305 C 0.47891 0.02096 0.38087 0.0
N1306 N 0.44583 0.05581 0.43675 0.0
N1307 N 0.47001 0.03762 0.38946 0.0
H1308 H 0.20394 0.13986 0.69128 0.0
H1309 H 0.23013 0.25042 0.64779 0.0
H1310 H 0.1772 0.19461 0.71571 0.0
H1311 H 0.25528 0.1942 0.62485 0.0
H1312 H 0.20746 0.23069 0.66999 0.0
H1313 H 0.21941 0.15976 0.6642 0.0
C1314 C 0.20119 0.15613 0.69086 0.0
C1315 C 0.18941 0.16561 0.70592 0.0
C1316 C 0.21777 0.22271 0.65991 0.0
C1317 C 0.20741 0.18872 0.67489 0.0
C1318 C 0.23069 0.23395 0.64718 0.0
C1319 C 0.24481 0.22396 0.63455 0.0
C1320 C 0.21898 0.20134 0.66 0.0
C1321 C 0.24483 0.20259 0.63444 0.0
C1322 C 0.21004 0.16751 0.67533 0.0
C1323 C 0.18617 0.18669 0.70441 0.0
N1324 N 0.23228 0.19206 0.64705 0.0
N1325 N 0.19535 0.19762 0.68932 0.0
H1326 H 0.04326 0.90579 0.92622 0.0
H1327 H 0.05515 0.02558 0.90785 0.0
H1328 H 0.07748 0.94507 0.96633 0.0
H1329 H 0.00853 0.9889 0.87953 0.0
H1330 H 0.06788 0.99528 0.92532 0.0
H1331 H 0.035 0.93514 0.90506 0.0
C1332 C 0.04923 0.92055 0.93052 0.0
C1333 C 0.06098 0.92295 0.94825 0.0
C1334 C 0.05496 0.99385 0.91517 0.0
C1335 C 0.05148 0.95671 0.92392 0.0
C1336 C 0.04772 0.01112 0.90509 0.0
C1337 C 0.03064 0.00983 0.89226 0.0
C1338 C 0.0452 0.97507 0.91228 0.0
C1339 C 0.02166 0.99065 0.88934 0.0
C1340 C 0.04441 0.93733 0.91842 0.0
C1341 C 0.06829 0.9425 0.9529 0.0
N1342 N 0.02901 0.97405 0.89932 0.0
N1343 N 0.06336 0.95864 0.94085 0.0
H1344 H 0.34133 0.34485 0.17385 0.0
H1345 H 0.35291 0.26078 0.25898 0.0
H1346 H 0.29098 0.32568 0.21147 0.0
H1347 H 0.38662 0.25536 0.20285 0.0
H1348 H 0.33321 0.2886 0.24406 0.0
H1349 H 0.3609 0.31524 0.1858 0.0
C1350 C 0.33429 0.33428 0.18437 0.0
C1351 C 0.31447 0.33776 0.19166 0.0
C1352 C 0.34495 0.28134 0.23503 0.0
C1353 C 0.33695 0.30437 0.20577 0.0
C1354 C 0.35635 0.2656 0.24359 0.0
C1355 C 0.37148 0.25577 0.23215 0.0
C1356 C 0.34894 0.28764 0.21502 0.0
C1357 C 0.37507 0.26253 0.21218 0.0
C1358 C 0.34547 0.31745 0.19118 0.0
C1359 C 0.30615 0.32361 0.20535 0.0
N1360 N 0.36397 0.27819 0.20426 0.0
N1361 N 0.31753 0.30774 0.21219 0.0
H1362 H 0.81709 0.16857 0.81407 0.0
H1363 H 0.82294 0.28536 0.78033 0.0
H1364 H 0.76421 0.20584 0.80232 0.0
H1365 H 0.87229 0.24296 0.77085 0.0
H1366 H 0.80292 0.25816 0.79569 0.0
H1367 H 0.83892 0.19763 0.80582 0.0
C1368 C 0.81004 0.18297 0.81018 0.0
C1369 C 0.78874 0.18474 0.80876 0.0
C1370 C 0.81818 0.25483 0.79039 0.0
C1371 C 0.8137 0.21797 0.79924 0.0
C1372 C 0.82968 0.27037 0.78164 0.0
C1373 C 0.84931 0.26642 0.7741 0.0
C1374 C 0.82636 0.23516 0.79183 0.0
C1375 C 0.85719 0.24666 0.77632 0.0
C1376 C 0.82254 0.19948 0.80531 0.0
C1377 C 0.78053 0.20375 0.8035 0.0
N1378 N 0.84565 0.23173 0.78493 0.0
N1379 N 0.79301 0.21959 0.79885 0.0
H1380 H 0.00761 0.64801 0.04299 0.0
H1381 H 0.0694 0.54311 0.04434 0.0
H1382 H 1.00236 0.60192 0.99643 0.0
H1383 H 0.09268 0.59749 0.07304 0.0
H1384 H 0.04002 0.56253 0.03233 0.0
H1385 H 0.03483 0.62793 0.05908 0.0
C1386 C 0.01217 0.6337 0.03616 0.0
C1387 C 1.00281 0.62671 0.01825 0.0
C1388 C 0.05147 0.57015 0.04143 0.0
C1389 C 0.0335 0.60356 0.03679 0.0
C1390 C 0.06818 0.55904 0.04845 0.0
C1391 C 0.08365 0.56871 0.05961 0.0
C1392 C 0.05003 0.59104 0.04577 0.0
C1393 C 0.0812 0.58944 0.06438 0.0
C1394 C 0.02767 0.62228 0.04534 0.0
C1395 C 0.00928 0.60803 0.01009 0.0
N1396 N 0.06474 0.59995 0.05737 0.0
N1397 N 0.02412 0.59707 0.01947 0.0
H1398 H 0.63402 0.76187 0.26316 0.0
H1399 H 0.73215 0.80464 0.32177 0.0
H1400 H 0.67924 0.72336 0.29133 0.0
H1401 H 0.68555 0.84285 0.29545 0.0
H1402 H 0.71172 0.77465 0.31313 0.0
H1403 H 0.65137 0.79171 0.27717 0.0
C1404 C 0.64747 0.75966 0.27244 0.0
C1405 C 0.65524 0.74007 0.27593 0.0
C1406 C 0.70591 0.78962 0.30939 0.0
C1407 C 0.67531 0.77419 0.29193 0.0
C1408 C 0.71756 0.80676 0.31437 0.0
C1409 C 0.71068 0.82631 0.30917 0.0
C1410 C 0.68726 0.79205 0.29911 0.0
C1411 C 0.69161 0.82809 0.29959 0.0
C1412 C 0.65741 0.77672 0.28042 0.0
C1413 C 0.67274 0.73817 0.28812 0.0
N1414 N 0.68067 0.81121 0.29476 0.0
N1415 N 0.68225 0.75499 0.29554 0.0
H1416 H 0.02565 0.91404 0.03213 0.0
H1417 H 0.90586 0.90587 0.05255 0.0
H1418 H 0.98798 0.86598 0.00781 0.0
H1419 H 0.94022 0.96127 0.06105 0.0
H1420 H 0.93704 0.88853 0.04209 0.0
H1421 H 0.99567 0.92888 0.04837 0.0
C1422 C 0.01111 0.90647 0.03033 0.0
C1423 C 0.00933 0.88877 0.01844 0.0
C1424 C 0.93778 0.90443 0.04642 0.0
C1425 C 0.9749 0.90574 0.03712 0.0
C1426 C 0.92 0.91435 0.05253 0.0
C1427 C 0.92034 0.93516 0.05755 0.0
C1428 C 0.95615 0.91529 0.04546 0.0
C1429 C 0.93918 0.94527 0.05723 0.0
C1430 C 0.99398 0.91502 0.03959 0.0
C1431 C 0.99006 0.87969 0.01672 0.0
N1432 N 0.9563 0.93526 0.05116 0.0
N1433 N 0.97359 0.8883 0.02592 0.0
H1434 H 0.15799 0.65268 0.69428 0.0
H1435 H 0.17525 0.77088 0.71812 0.0
H1436 H 0.21629 0.68263 0.68923 0.0
H1437 H 0.12188 0.7375 0.73699 0.0
H1438 H 0.18837 0.74012 0.70193 0.0
H1439 H 0.14255 0.68512 0.70387 0.0
C1440 C 0.16752 0.66612 0.69484 0.0
C1441 C 0.18856 0.66483 0.69112 0.0
C1442 C 0.17374 0.73954 0.7095 0.0
C1443 C 0.17089 0.70206 0.70226 0.0
C1444 C 0.16618 0.75712 0.71875 0.0
C1445 C 0.14747 0.75677 0.7291 0.0
C1446 C 0.16248 0.72142 0.71045 0.0
C1447 C 0.13643 0.73846 0.72931 0.0
C1448 C 0.15867 0.68463 0.70045 0.0
C1449 C 0.20005 0.68284 0.69206 0.0
N1450 N 0.14413 0.7215 0.72019 0.0
N1451 N 0.1911 0.70067 0.69769 0.0
H1452 H 0.9835 0.41985 0.4757 0.0
H1453 H 0.10161 0.40808 0.44838 0.0
H1454 H 0.01944 0.36717 0.49169 0.0
H1455 H 0.06959 0.46551 0.44699 0.0
H1456 H 0.07002 0.39112 0.45814 0.0
H1457 H 0.01337 0.43489 0.4595 0.0
C1458 C 0.99763 0.41135 0.47568 0.0
C1459 C 0.99898 0.39225 0.48523 0.0
C1460 C 0.06986 0.4074 0.45551 0.0
C1461 C 0.03328 0.40944 0.46659 0.0
C1462 C 0.08788 0.41712 0.44981 0.0
C1463 C 0.08834 0.43833 0.44704 0.0
C1464 C 0.05209 0.41891 0.45836 0.0
C1465 C 0.07001 0.44916 0.44907 0.0
C1466 C 0.0147 0.41999 0.46644 0.0
C1467 C 0.01772 0.38197 0.48465 0.0
N1468 N 0.05267 0.43935 0.45475 0.0
N1469 N 0.03415 0.39073 0.47554 0.0
H1470 H 0.40308 0.58007 0.98873 0.0
H1471 H 0.52099 0.59698 0.96324 0.0
H1472 H 0.43494 0.54517 0.94304 0.0
H1473 H 0.48958 0.62499 0.01373 0.0
H1474 H 0.48907 0.58075 0.95289 0.0
H1475 H 0.43396 0.59934 0.99522 0.0
C1476 C 0.41658 0.57647 0.97996 0.0
C1477 C 0.41641 0.56082 0.9654 0.0
C1478 C 0.48915 0.59056 0.96614 0.0
C1479 C 0.45209 0.58299 0.97287 0.0
C1480 C 0.50735 0.59992 0.97203 0.0
C1481 C 0.50801 0.61232 0.98947 0.0
C1482 C 0.47145 0.59369 0.9777 0.0
C1483 C 0.48985 0.61551 1.00025 0.0
C1484 C 0.43426 0.58753 0.98372 0.0
C1485 C 0.43439 0.55704 0.95445 0.0
N1486 N 0.47238 0.6062 0.99424 0.0
N1487 N 0.45157 0.56799 0.95849 0.0
H1488 H 0.68927 0.79159 0.82149 0.0
H1489 H 0.75675 0.87692 0.76605 0.0
H1490 H 0.73834 0.82479 0.84998 0.0
H1491 H 0.70543 0.84774 0.73715 0.0
H1492 H 0.74875 0.85893 0.79751 0.0
H1493 H 0.69364 0.81263 0.79081 0.0
C1494 C 0.70087 0.8033 0.82134 0.0
C1495 C 0.71352 0.80631 0.83831 0.0
C1496 C 0.73911 0.85655 0.78435 0.0
C1497 C 0.7186 0.83039 0.80339 0.0
C1498 C 0.74366 0.8669 0.76636 0.0
C1499 C 0.73182 0.8638 0.74887 0.0
C1500 C 0.72268 0.84282 0.7849 0.0
C1501 C 0.71501 0.8506 0.75026 0.0
C1502 C 0.70336 0.81532 0.80385 0.0
C1503 C 0.72828 0.82176 0.83727 0.0
N1504 N 0.71104 0.84046 0.76789 0.0
N1505 N 0.73044 0.8331 0.82016 0.0
H1506 H 0.45835 0.43655 0.07586 0.0
H1507 H 0.36886 0.49784 0.01984 0.0
H1508 H 0.41482 0.47506 0.10655 0.0
H1509 H 0.41337 0.46145 0.98796 0.0
H1510 H 0.38295 0.48593 0.05215 0.0
H1511 H 0.4396 0.44174 0.04392 0.0
C1512 C 0.44472 0.44584 0.07595 0.0
C1513 C 0.43828 0.45557 0.09385 0.0
C1514 C 0.38953 0.48039 0.03809 0.0
C1515 C 0.41685 0.46167 0.05745 0.0
C1516 C 0.38144 0.48717 0.01962 0.0
C1517 C 0.39005 0.48082 1.00114 0.0
C1518 C 0.40643 0.46721 0.03813 0.0
C1519 C 0.40632 0.46691 1.00183 0.0
C1520 C 0.43406 0.44887 0.05772 0.0
C1521 C 0.42051 0.46746 0.09308 0.0
N1522 N 0.4141 0.46072 0.01999 0.0
N1523 N 0.41054 0.47029 0.0752 0.0
H1524 H 0.80534 0.17538 0.34878 0.0
H1525 H 0.80326 0.16195 0.22792 0.0
H1526 H 0.81978 0.22412 0.30715 0.0
H1527 H 0.76571 0.12629 0.26835 0.0
H1528 H 0.81642 0.18071 0.25726 0.0
H1529 H 0.7979 0.15326 0.31973 0.0
C1530 C 0.80729 0.18136 0.33354 0.0
C1531 C 0.81311 0.20172 0.33041 0.0
C1532 C 0.80545 0.16865 0.2597 0.0
C1533 C 0.80463 0.17639 0.29713 0.0
C1534 C 0.79799 0.15782 0.24299 0.0
C1535 C 0.78324 0.14256 0.24565 0.0
C1536 C 0.79837 0.164 0.27929 0.0
C1537 C 0.77697 0.138 0.26557 0.0
C1538 C 0.8029 0.16874 0.31699 0.0
C1539 C 0.81524 0.20859 0.31029 0.0
N1540 N 0.78454 0.14869 0.28163 0.0
N1541 N 0.81098 0.19596 0.29441 0.0
H1542 H 0.08613 0.58084 0.59386 0.0
H1543 H 0.10115 0.4968 0.50944 0.0
H1544 H 0.03836 0.53904 0.57678 0.0
H1545 H 0.12971 0.55556 0.50234 0.0
H1546 H 0.08142 0.51024 0.53792 0.0
H1547 H 0.10521 0.57074 0.56326 0.0
C1548 C 0.07952 0.56979 0.58355 0.0
C1549 C 0.06063 0.56074 0.58793 0.0
C1550 C 0.09202 0.52019 0.53013 0.0
C1551 C 0.08258 0.54879 0.5534 0.0
C1552 C 0.10344 0.51249 0.51399 0.0
C1553 C 0.11713 0.52508 0.5035 0.0
C1554 C 0.09456 0.54052 0.53617 0.0
C1555 C 0.11928 0.54536 0.51001 0.0
C1556 C 0.09042 0.56404 0.56616 0.0
C1557 C 0.05282 0.54646 0.57405 0.0
N1558 N 0.10821 0.55244 0.52607 0.0
N1559 N 0.06397 0.5407 0.55762 0.0
H1560 H 0.70899 0.17669 0.65882 0.0
H1561 H 0.70377 0.15661 0.77861 0.0
H1562 H 0.68376 0.22015 0.70122 0.0
H1563 H 0.74809 0.12805 0.73935 0.0
H1564 H 0.69047 0.17541 0.74936 0.0
H1565 H 0.71743 0.15431 0.68728 0.0
C1566 C 0.70497 0.18145 0.67408 0.0
C1567 C 0.69575 0.20045 0.67762 0.0
C1568 C 0.70299 0.16489 0.74714 0.0
C1569 C 0.70538 0.17475 0.71027 0.0
C1570 C 0.71053 0.15404 0.76379 0.0
C1571 C 0.72717 0.14078 0.76146 0.0
C1572 C 0.71193 0.16228 0.72793 0.0
C1573 C 0.73533 0.13818 0.74188 0.0
C1574 C 0.70991 0.16867 0.69032 0.0
C1575 C 0.69096 0.20572 0.69778 0.0
N1576 N 0.72764 0.14886 0.72587 0.0
N1577 N 0.69586 0.19296 0.71335 0.0
H1578 H 0.01937 0.44772 0.95082 0.0
H1579 H 0.1254 0.49005 0.99092 0.0
H1580 H 0.0735 0.44842 0.91357 0.0
H1581 H 0.0761 0.47291 0.03083 0.0
H1582 H 0.10714 0.47428 0.96242 0.0
H1583 H 0.04022 0.45604 0.9805 0.0
C1584 C 0.03568 0.44931 0.94893 0.0
C1585 C 0.04465 0.44747 0.92964 0.0
C1586 C 0.10045 0.47378 0.97748 0.0
C1587 C 0.06861 0.45741 0.96352 0.0
C1588 C 0.11086 0.48281 0.99374 0.0
C1589 C 0.10223 0.48296 0.01329 0.0
C1590 C 0.08116 0.46507 0.98074 0.0
C1591 C 0.08334 0.47328 0.01604 0.0
C1592 C 0.04759 0.4541 0.96589 0.0
C1593 C 0.0659 0.44969 0.92813 0.0
N1594 N 0.07337 0.46496 0.99994 0.0
N1595 N 0.0771 0.45485 0.94478 0.0
H1596 H 0.76259 0.89019 0.23542 0.0
H1597 H 0.81358 0.79363 0.1823 0.0
H1598 H 0.78761 0.83976 0.26934 0.0
H1599 H 0.80365 0.85066 0.15116 0.0
H1600 H 0.80432 0.81016 0.21443 0.0
H1601 H 0.77744 0.87595 0.20429 0.0
C1602 C 0.77133 0.87624 0.23636 0.0
C1603 C 0.77377 0.86614 0.25502 0.0
C1604 C 0.80439 0.8191 0.20058 0.0
C1605 C 0.79063 0.84962 0.21944 0.0
C1606 C 0.80972 0.80966 0.18223 0.0
C1607 C 0.8093 0.82071 0.16394 0.0
C1608 C 0.79836 0.83966 0.20062 0.0
C1609 C 0.80413 0.84148 0.16483 0.0
C1610 C 0.77983 0.86811 0.21859 0.0
C1611 C 0.78529 0.84809 0.25531 0.0
N1612 N 0.79865 0.85019 0.18278 0.0
N1613 N 0.7931 0.84032 0.23779 0.0
H1614 H 0.37691 0.50888 0.49045 0.0
H1615 H 0.48408 0.55513 0.4618 0.0
H1616 H 0.41637 0.53487 0.5361 0.0
H1617 H 0.43332 0.55753 0.42011 0.0
H1618 H 0.46052 0.54556 0.48915 0.0
H1619 H 0.39834 0.52418 0.46393 0.0
C1620 C 0.38998 0.51791 0.49489 0.0
C1621 C 0.39486 0.5206 0.5155 0.0
C1622 C 0.45455 0.54845 0.47405 0.0
C1623 C 0.41957 0.5378 0.48533 0.0
C1624 C 0.46797 0.55391 0.45846 0.0
C1625 C 0.46069 0.55712 0.43864 0.0
C1626 C 0.43379 0.54571 0.46968 0.0
C1627 C 0.43963 0.55527 0.43517 0.0
C1628 C 0.40214 0.52668 0.47978 0.0
C1629 C 0.41198 0.53247 0.5204 0.0
N1630 N 0.42698 0.54938 0.45045 0.0
N1631 N 0.42387 0.5404 0.50543 0.0
H1632 H 0.77193 0.74878 0.88677 0.0
H1633 H 0.82812 0.68813 0.79714 0.0
H1634 H 0.74083 0.70855 0.84513 0.0
H1635 H 0.85837 0.72882 0.83895 0.0
H1636 H 0.79668 0.69196 0.81698 0.0
H1637 H 0.80441 0.73824 0.87198 0.0
C1638 C 0.77193 0.73756 0.87469 0.0
C1639 C 0.75359 0.72971 0.86706 0.0
C1640 C 0.81028 0.69986 0.82191 0.0
C1641 C 0.79075 0.71768 0.84988 0.0
C1642 C 0.82824 0.69762 0.81063 0.0
C1643 C 0.84583 0.70835 0.81625 0.0
C1644 C 0.80998 0.71292 0.83891 0.0
C1645 C 0.84511 0.72045 0.83387 0.0
C1646 C 0.79049 0.73156 0.8662 0.0
C1647 C 0.75457 0.71514 0.8514 0.0
N1648 N 0.82748 0.72253 0.84444 0.0
N1649 N 0.7728 0.70976 0.8432 0.0
H1650 H 0.53279 0.46884 0.08261 0.0
H1651 H 0.56153 0.58712 0.07824 0.0
H1652 H 0.51759 0.51116 0.13057 0.0
H1653 H 0.55803 0.54831 0.02532 0.0
H1654 H 0.55244 0.55801 0.09968 0.0
H1655 H 0.54883 0.49648 0.06376 0.0
C1656 C 0.53297 0.48391 0.08931 0.0
C1657 C 0.52362 0.48769 0.10817 0.0
C1658 C 0.55391 0.55585 0.08341 0.0
C1659 C 0.54211 0.51948 0.08653 0.0
C1660 C 0.55927 0.5724 0.07115 0.0
C1661 C 0.56044 0.57018 0.04989 0.0
C1662 C 0.54993 0.53688 0.07439 0.0
C1663 C 0.55719 0.55076 0.0416 0.0
C1664 C 0.54212 0.4997 0.07847 0.0
C1665 C 0.52447 0.50757 0.11603 0.0
N1666 N 0.552 0.5349 0.05384 0.0
N1667 N 0.53347 0.52275 0.10514 0.0
H1668 H 0.68553 0.31391 0.30259 0.0
H1669 H 0.73991 0.24464 0.38701 0.0
H1670 H 0.6542 0.2714 0.34167 0.0
H1671 H 0.77228 0.28896 0.35089 0.0
H1672 H 0.70798 0.25642 0.37212 0.0
H1673 H 0.71709 0.30728 0.32161 0.0
C1674 C 0.68522 0.3034 0.3153 0.0
C1675 C 0.66724 0.29305 0.32041 0.0
C1676 C 0.72203 0.2637 0.36753 0.0
C1677 C 0.7032 0.28531 0.3421 0.0
C1678 C 0.7403 0.25697 0.37606 0.0
C1679 C 0.75885 0.26572 0.37012 0.0
C1680 C 0.72224 0.27922 0.35278 0.0
C1681 C 0.75836 0.28172 0.3559 0.0
C1682 C 0.70324 0.29957 0.32611 0.0
C1683 C 0.66772 0.27958 0.337 0.0
N1684 N 0.74038 0.28783 0.34758 0.0
N1685 N 0.68538 0.27601 0.34712 0.0
H1686 H 0.97247 0.51755 0.5828 0.0
H1687 H 0.94804 0.39924 0.59809 0.0
H1688 H 0.98964 0.48377 0.63649 0.0
H1689 H 0.94719 0.42906 0.53953 0.0
H1690 H 0.95715 0.43157 0.61403 0.0
H1691 H 0.95745 0.48669 0.56857 0.0
C1692 C 0.97296 0.50369 0.59171 0.0
C1693 C 0.98248 0.50326 0.61087 0.0
C1694 C 0.95478 0.43107 0.59772 0.0
C1695 C 0.96517 0.4678 0.59457 0.0
C1696 C 0.94944 0.41263 0.58858 0.0
C1697 C 0.94698 0.41134 0.56736 0.0
C1698 C 0.95754 0.44845 0.58563 0.0
C1699 C 0.94901 0.42928 0.55591 0.0
C1700 C 0.9644 0.48605 0.58351 0.0
C1701 C 0.98258 0.4848 0.62164 0.0
N1702 N 0.95428 0.44706 0.56517 0.0
N1703 N 0.9741 0.4678 0.61333 0.0
H1704 H 0.81958 0.31594 0.70935 0.0
H1705 H 0.76743 0.2508 0.62031 0.0
H1706 H 0.85221 0.27734 0.66736 0.0
H1707 H 0.73334 0.28903 0.6615 0.0
H1708 H 0.79898 0.26357 0.63522 0.0
H1709 H 0.78819 0.30962 0.68992 0.0
C1710 C 0.82021 0.30642 0.69589 0.0
C1711 C 0.83849 0.29698 0.6901 0.0
C1712 C 0.78462 0.26932 0.64092 0.0
C1713 C 0.80275 0.28958 0.66794 0.0
C1714 C 0.76657 0.26203 0.63237 0.0
C1715 C 0.74767 0.2687 0.63976 0.0
C1716 C 0.78385 0.28333 0.65711 0.0
C1717 C 0.74755 0.28336 0.65538 0.0
C1718 C 0.8023 0.30274 0.68486 0.0
C1719 C 0.83843 0.28474 0.67257 0.0
N1720 N 0.76534 0.29003 0.66366 0.0
N1721 N 0.82086 0.28129 0.66225 0.0
H1722 H 0.94443 0.55853 0.97213 0.0
H1723 H 1.0031 0.521 0.87417 0.0
H1724 H 0.95859 0.60001 0.92323 0.0
H1725 H 0.962 0.48168 0.90703 0.0
H1726 H 0.98944 0.55025 0.89314 0.0
H1727 H 0.95303 0.5299 0.94977 0.0
C1728 C 0.94909 0.56159 0.95662 0.0
C1729 C 0.95071 0.58167 0.94952 0.0
C1730 C 0.9833 0.53522 0.89599 0.0
C1731 C 0.96112 0.54905 0.92406 0.0
C1732 C 0.99111 0.51854 0.88521 0.0
C1733 C 0.9837 0.49885 0.889 0.0
C1734 C 0.96834 0.5321 0.91096 0.0
C1735 C 0.96815 0.49656 0.90353 0.0
C1736 C 0.954 0.54527 0.94387 0.0
C1737 C 0.95695 0.58476 0.92928 0.0
N1738 N 0.9612 0.51291 0.91416 0.0
N1739 N 0.96223 0.56864 0.91735 0.0
H1740 H 0.6927 0.68995 0.21514 0.0
H1741 H 0.74274 0.74573 0.11884 0.0
H1742 H 0.6585 0.71482 0.16485 0.0
H1743 H 0.77772 0.72247 0.16939 0.0
H1744 H 0.71208 0.73085 0.13376 0.0
H1745 H 0.72435 0.69791 0.19691 0.0
C1746 C 0.69183 0.69677 0.20015 0.0
C1747 C 0.67293 0.70191 0.19161 0.0
C1748 C 0.72649 0.72885 0.14152 0.0
C1749 C 0.709 0.71121 0.17075 0.0
C1750 C 0.74403 0.73734 0.13298 0.0
C1751 C 0.76284 0.73553 0.14295 0.0
C1752 C 0.7277 0.71851 0.16024 0.0
C1753 C 0.76354 0.72439 0.16121 0.0
C1754 C 0.70989 0.70141 0.18979 0.0
C1755 C 0.67272 0.71079 0.17216 0.0
N1756 N 0.74622 0.71646 0.16935 0.0
N1757 N 0.69043 0.71529 0.1625 0.0
H1758 H 0.49495 0.49095 0.37967 0.0
H1759 H 0.56368 0.43215 0.46175 0.0
H1760 H 0.54558 0.51912 0.4107 0.0
H1761 H 0.51155 0.4063 0.43117 0.0
H1762 H 0.55952 0.46325 0.44133 0.0
H1763 H 0.50328 0.45875 0.39614 0.0
C1764 C 0.50797 0.49033 0.38978 0.0
C1765 C 0.51947 0.50784 0.3939 0.0
C1766 C 0.54908 0.4507 0.43906 0.0
C1767 C 0.529 0.47094 0.41311 0.0
C1768 C 0.55145 0.43296 0.45071 0.0
C1769 C 0.53784 0.41666 0.44832 0.0
C1770 C 0.53304 0.45204 0.42491 0.0
C1771 C 0.52231 0.41852 0.43373 0.0
C1772 C 0.5127 0.47192 0.39926 0.0
C1773 C 0.53623 0.50604 0.40711 0.0
N1774 N 0.52031 0.43585 0.42269 0.0
N1775 N 0.54038 0.48797 0.41639 0.0
H1776 H 0.81668 0.83811 0.69104 0.0
H1777 H 0.82707 0.72195 0.72614 0.0
H1778 H 0.76537 0.79911 0.70383 0.0
H1779 H 0.87525 0.7659 0.73439 0.0
H1780 H 0.8059 0.74842 0.71105 0.0
H1781 H 0.83969 0.81002 0.69975 0.0
C1782 C 0.81022 0.82353 0.69526 0.0
C1783 C 0.78901 0.82098 0.69679 0.0
C1784 C 0.82114 0.75227 0.71604 0.0
C1785 C 0.81531 0.78887 0.70684 0.0
C1786 C 0.83331 0.73714 0.72463 0.0
C1787 C 0.85297 0.74171 0.73173 0.0
C1788 C 0.82865 0.77217 0.71429 0.0
C1789 C 0.86015 0.76171 0.72926 0.0
C1790 C 0.82339 0.80758 0.7004 0.0
C1791 C 0.78158 0.80179 0.70252 0.0
N1792 N 0.84797 0.77623 0.72078 0.0
N1793 N 0.79469 0.78652 0.70739 0.0
H1794 H 0.28224 0.68982 0.29544 0.0
H1795 H 0.38202 0.75907 0.30221 0.0
H1796 H 0.33424 0.67226 0.33165 0.0
H1797 H 0.34179 0.75806 0.25026 0.0
H1798 H 0.36209 0.73134 0.31755 0.0
H1799 H 0.30099 0.71972 0.28373 0.0
C1800 C 0.29747 0.69241 0.30122 0.0
C1801 C 0.30673 0.67839 0.31446 0.0
C1802 C 0.35769 0.73724 0.30279 0.0
C1803 C 0.32829 0.71262 0.30099 0.0
C1804 C 0.36903 0.75303 0.29404 0.0
C1805 C 0.36365 0.76078 0.27486 0.0
C1806 C 0.34063 0.7295 0.29247 0.0
C1807 C 0.34663 0.75242 0.26497 0.0
C1808 C 0.30822 0.70941 0.29438 0.0
C1809 C 0.32655 0.68259 0.32135 0.0
N1810 N 0.33568 0.73734 0.27393 0.0
N1811 N 0.33672 0.69931 0.31449 0.0
H1812 H 0.50581 0.12746 0.51507 0.0
H1813 H 0.54257 0.02022 0.5584 0.0
H1814 H 0.46461 0.07953 0.53306 0.0
H1815 H 0.58231 0.07244 0.55497 0.0
H1816 H 0.51374 0.0421 0.54978 0.0
H1817 H 0.53406 0.10808 0.53002 0.0
C1818 C 0.50266 0.11298 0.5223 0.0
C1819 C 0.48279 0.10508 0.52266 0.0
C1820 C 0.52872 0.04885 0.55115 0.0
C1821 C 0.51505 0.08276 0.53964 0.0
C1822 C 0.5452 0.03634 0.5561 0.0
C1823 C 0.56492 0.04446 0.55736 0.0
C1824 C 0.53196 0.06962 0.54709 0.0
C1825 C 0.56737 0.0655 0.55422 0.0
C1826 C 0.51879 0.10193 0.53086 0.0
C1827 C 0.47964 0.08623 0.5323 0.0
N1828 N 0.55114 0.0773 0.54897 0.0
N1829 N 0.49558 0.07567 0.5402 0.0
H1830 H 0.16286 0.33765 0.81337 0.0
H1831 H 0.18352 0.23092 0.75906 0.0
H1832 H 0.22301 0.31292 0.80379 0.0
H1833 H 0.12374 0.25065 0.77797 0.0
H1834 H 0.19823 0.26066 0.77586 0.0
H1835 H 0.14821 0.3055 0.80167 0.0
C1836 C 0.17301 0.32537 0.80909 0.0
C1837 C 0.19421 0.32808 0.80944 0.0
C1838 C 0.18191 0.25844 0.77643 0.0
C1839 C 0.17751 0.2913 0.79569 0.0
C1840 C 0.17347 0.2415 0.76675 0.0
C1841 C 0.15233 0.23832 0.76699 0.0
C1842 C 0.16913 0.27246 0.78633 0.0
C1843 C 0.1401 0.25251 0.77733 0.0
C1844 C 0.16462 0.30702 0.80235 0.0
C1845 C 0.20659 0.31157 0.80375 0.0
N1846 N 0.14866 0.26901 0.78646 0.0
N1847 N 0.19805 0.294 0.79688 0.0
H1848 H 0.44675 0.47249 0.57268 0.0
H1849 H 0.48513 0.37207 0.51644 0.0
H1850 H 0.40617 0.42419 0.55422 0.0
H1851 H 0.52537 0.41485 0.54596 0.0
H1852 H 0.45598 0.38979 0.53162 0.0
H1853 H 0.47575 0.45059 0.56472 0.0
C1854 C 0.44392 0.45718 0.56723 0.0
C1855 C 0.42396 0.45027 0.56398 0.0
C1856 C 0.47122 0.39514 0.53495 0.0
C1857 C 0.45717 0.42515 0.55448 0.0
C1858 C 0.48787 0.38501 0.52629 0.0
C1859 C 0.50775 0.39207 0.52976 0.0
C1860 C 0.47446 0.41254 0.54702 0.0
C1861 C 0.51035 0.40892 0.5427 0.0
C1862 C 0.46051 0.44467 0.56265 0.0
C1863 C 0.42127 0.43023 0.55691 0.0
N1864 N 0.49393 0.41868 0.55065 0.0
N1865 N 0.43767 0.41849 0.55214 0.0
H1866 H 0.63202 0.23946 0.24318 0.0
H1867 H 0.74145 0.20613 0.20338 0.0
H1868 H 0.67924 0.28237 0.22742 0.0
H1869 H 0.68955 0.16586 0.20142 0.0
H1870 H 0.71872 0.23431 0.21206 0.0
H1871 H 0.65253 0.21213 0.228 0.0
C1872 C 0.64658 0.24318 0.23638 0.0
C1873 C 0.65396 0.26324 0.23671 0.0
C1874 C 0.71226 0.21936 0.20948 0.0
C1875 C 0.67755 0.23206 0.21953 0.0
C1876 C 0.72525 0.20326 0.20451 0.0
C1877 C 0.71744 0.18358 0.20174 0.0
C1878 C 0.69132 0.21572 0.21206 0.0
C1879 C 0.69627 0.18079 0.2034 0.0
C1880 C 0.65826 0.22758 0.2277 0.0
C1881 C 0.67293 0.26715 0.22763 0.0
N1882 N 0.68399 0.19661 0.20872 0.0
N1883 N 0.68413 0.25171 0.21963 0.0
H1884 H 0.46895 0.93812 0.98349 0.0
H1885 H 0.58472 0.94012 0.94595 0.0
H1886 H 0.50865 0.88587 0.98775 0.0
H1887 H 0.55111 0.99392 0.96319 0.0
H1888 H 0.55483 0.91934 0.95404 0.0
H1889 H 0.49693 0.9578 0.96908 0.0
C1890 C 0.48351 0.93069 0.98123 0.0
C1891 C 0.48648 0.9103 0.987 0.0
C1892 C 0.55397 0.93571 0.95582 0.0
C1893 C 0.51861 0.93288 0.97037 0.0
C1894 C 0.57095 0.94762 0.95105 0.0
C1895 C 0.57046 0.96882 0.954 0.0
C1896 C 0.53628 0.94508 0.96331 0.0
C1897 C 0.55222 0.97765 0.96079 0.0
C1898 C 0.49949 0.942 0.97304 0.0
C1899 C 0.50571 0.90156 0.98365 0.0
N1900 N 0.53589 0.96574 0.96527 0.0
N1901 N 0.52108 0.91292 0.97558 0.0
H1902 H 0.9979 0.10776 0.50905 0.0
H1903 H 0.91375 0.08939 0.42441 0.0
H1904 H 1.00375 0.13575 0.44991 0.0
H1905 H 0.9326 0.04251 0.46642 0.0
H1906 H 0.94263 0.11042 0.43572 0.0
H1907 H 0.96884 0.08816 0.49645 0.0
C1908 C 0.99285 0.11008 0.49352 0.0
C1909 C 1.00329 0.12342 0.4805 0.0
C1910 C 0.94045 0.09545 0.44228 0.0
C1911 C 0.97006 0.10097 0.46602 0.0
C1912 C 0.92406 0.08344 0.43583 0.0
C1913 C 0.92081 0.06412 0.4444 0.0
C1914 C 0.95329 0.0883 0.45781 0.0
C1915 C 0.93458 0.05721 0.45925 0.0
C1916 C 0.97641 0.09872 0.4863 0.0
C1917 C 0.99616 0.1256 0.46044 0.0
N1918 N 0.95003 0.06939 0.46566 0.0
N1919 N 0.97992 0.11452 0.4538 0.0
H1920 H 0.20068 0.43637 0.42076 0.0
H1921 H 0.17291 0.32285 0.45103 0.0
H1922 H 0.1623 0.42127 0.47188 0.0
H1923 H 0.22047 0.33798 0.40831 0.0
H1924 H 0.17116 0.35862 0.46115 0.0
H1925 H 0.21056 0.40059 0.4181 0.0
C1926 C 0.19458 0.4256 0.43164 0.0
C1927 C 0.18046 0.43184 0.44643 0.0
C1928 C 0.18221 0.35408 0.44979 0.0
C1929 C 0.19149 0.39071 0.44328 0.0
C1930 C 0.18323 0.33362 0.44401 0.0
C1931 C 0.1967 0.32739 0.42864 0.0
C1932 C 0.19456 0.36851 0.43993 0.0
C1933 C 0.20977 0.34206 0.42016 0.0
C1934 C 0.20022 0.40513 0.43011 0.0
C1935 C 0.17315 0.41718 0.46017 0.0
N1936 N 0.20814 0.36196 0.42569 0.0
N1937 N 0.17849 0.39727 0.45806 0.0
H1938 H 0.93999 0.90215 0.67638 0.0
H1939 H 0.82537 0.93587 0.69747 0.0
H1940 H 0.92152 0.96424 0.66502 0.0
H1941 H 0.8431 0.87768 0.6727 0.0
H1942 H 0.86125 0.94719 0.69502 0.0
H1943 H 0.90512 0.89382 0.68562 0.0
C1944 C 0.92867 0.91416 0.67607 0.0
C1945 C 0.93368 0.93388 0.66956 0.0
C1946 C 0.85715 0.93194 0.69028 0.0
C1947 C 0.89358 0.92432 0.68028 0.0
C1948 C 0.83682 0.92547 0.69175 0.0
C1949 C 0.83135 0.90588 0.68514 0.0
C1950 C 0.87197 0.91844 0.68277 0.0
C1951 C 0.84665 0.89297 0.67777 0.0
C1952 C 0.90874 0.90933 0.68132 0.0
C1953 C 0.91829 0.9488 0.66976 0.0
N1954 N 0.86623 0.89942 0.67689 0.0
N1955 N 0.89881 0.94367 0.67487 0.0
H1956 H 0.33249 0.66351 0.87458 0.0
H1957 H 0.33137 0.58056 0.96044 0.0
H1958 H 0.30339 0.6773 0.93178 0.0
H1959 H 0.32933 0.56589 0.89641 0.0
H1960 H 0.32208 0.61591 0.95209 0.0
H1961 H 0.33336 0.62768 0.88385 0.0
C1962 C 0.32621 0.65893 0.88913 0.0
C1963 C 0.31794 0.67336 0.90249 0.0
C1964 C 0.32332 0.60479 0.93998 0.0
C1965 C 0.31909 0.63221 0.91335 0.0
C1966 C 0.32861 0.58463 0.9447 0.0
C1967 C 0.33143 0.57027 0.92907 0.0
C1968 C 0.32115 0.61057 0.91951 0.0
C1969 C 0.32763 0.57643 0.90897 0.0
C1970 C 0.3266 0.63843 0.89437 0.0
C1971 C 0.30985 0.66657 0.92108 0.0
N1972 N 0.32302 0.59612 0.90477 0.0
N1973 N 0.31092 0.64642 0.92616 0.0
H1974 H 0.68473 0.06401 0.19526 0.0
H1975 H 0.56724 0.09641 0.19974 0.0
H1976 H 0.66294 0.12579 0.1992 0.0
H1977 H 0.58707 0.04162 0.16927 0.0
H1978 H 0.6024 0.10329 0.20943 0.0
H1979 H 0.64904 0.052 0.19489 0.0
C1980 C 0.67244 0.07494 0.19652 0.0
C1981 C 0.67661 0.09587 0.19721 0.0
C1982 C 0.59902 0.08961 0.20085 0.0
C1983 C 0.63622 0.08242 0.19699 0.0
C1984 C 0.57892 0.08562 0.19535 0.0
C1985 C 0.57419 0.06857 0.18336 0.0
C1986 C 0.61459 0.07646 0.19444 0.0
C1987 C 0.59004 0.05506 0.17833 0.0
C1988 C 0.65218 0.06814 0.19617 0.0
C1989 C 0.66027 0.10952 0.19856 0.0
N1990 N 0.60961 0.0594 0.18371 0.0
N1991 N 0.64083 0.10257 0.19841 0.0
H1992 H 0.16892 0.68636 0.05208 0.0
H1993 H 0.20019 0.57266 0.0789 0.0
H1994 H 0.21981 0.67113 0.09077 0.0
H1995 H 0.15532 0.58806 0.03342 0.0
H1996 H 0.2102 0.60845 0.08058 0.0
H1997 H 0.16633 0.65064 0.04206 0.0
C1998 C 0.17978 0.67557 0.05822 0.0
C1999 C 0.19444 0.68175 0.07249 0.0
C2000 C 0.19838 0.60398 0.07 0.0
C2001 C 0.19137 0.64067 0.06129 0.0
C2002 C 0.19265 0.58351 0.06903 0.0
C2003 C 0.17673 0.57734 0.05616 0.0
C2004 C 0.18796 0.61848 0.05821 0.0
C2005 C 0.1676 0.5921 0.04364 0.0
C2006 C 0.17827 0.65513 0.0525 0.0
C2007 C 0.20818 0.66707 0.07982 0.0
N2008 N 0.17314 0.612 0.0452 0.0
N2009 N 0.2061 0.64718 0.07439 0.0
H2010 H 0.67919 0.94583 0.30729 0.0
H2011 H 0.56061 0.91788 0.30131 0.0
H2012 H 0.65489 0.88507 0.30234 0.0
H2013 H 0.58192 0.97186 0.33219 0.0
H2014 H 0.59558 0.90999 0.29172 0.0
H2015 H 0.64401 0.95931 0.3074 0.0
C2016 C 0.66649 0.93542 0.30581 0.0
C2017 C 0.66982 0.91433 0.30493 0.0
C2018 C 0.59258 0.92373 0.30035 0.0
C2019 C 0.62997 0.92949 0.30476 0.0
C2020 C 0.57258 0.9283 0.30579 0.0
C2021 C 0.5683 0.94537 0.31791 0.0
C2022 C 0.60853 0.9363 0.30701 0.0
C2023 C 0.58452 0.95842 0.32301 0.0
C2024 C 0.6465 0.94307 0.30598 0.0
C2025 C 0.65293 0.90142 0.30321 0.0
N2026 N 0.604 0.95347 0.31776 0.0
N2027 N 0.63379 0.90919 0.30318 0.0
H2028 H 0.33486 0.41661 0.5303 0.0
H2029 H 0.2688 0.33454 0.59141 0.0
H2030 H 0.29678 0.43104 0.58186 0.0
H2031 H 0.31576 0.31891 0.54818 0.0
H2032 H 0.27316 0.37044 0.58259 0.0
H2033 H 0.32226 0.38156 0.53131 0.0
C2034 C 0.32357 0.41254 0.54159 0.0
C2035 C 0.31708 0.42676 0.55619 0.0
C2036 C 0.2823 0.35913 0.57482 0.0
C2037 C 0.30268 0.38659 0.55749 0.0
C2038 C 0.27974 0.33858 0.57977 0.0
C2039 C 0.29211 0.32366 0.57071 0.0
C2040 C 0.29729 0.36483 0.56066 0.0
C2041 C 0.30604 0.32989 0.55572 0.0
C2042 C 0.31645 0.39248 0.54222 0.0
C2043 C 0.30239 0.42056 0.57045 0.0
N2044 N 0.3084 0.34999 0.55133 0.0
N2045 N 0.29586 0.40091 0.57086 0.0
H2046 H 0.94299 0.10985 0.82819 0.0
H2047 H 0.82993 0.07093 0.80499 0.0
H2048 H 0.92652 0.04671 0.8361 0.0
H2049 H 0.84572 0.13122 0.82564 0.0
H2050 H 0.86631 0.06128 0.80706 0.0
H2051 H 0.90847 0.11712 0.81688 0.0
C2052 C 0.93219 0.09742 0.8273 0.0
C2053 C 0.93759 0.0777 0.83348 0.0
C2054 C 0.86171 0.07665 0.81089 0.0
C2055 C 0.89786 0.08603 0.82056 0.0
C2056 C 0.84108 0.08216 0.80962 0.0
C2057 C 0.83492 0.10182 0.81532 0.0
C2058 C 0.8761 0.09113 0.81735 0.0
C2059 C 0.84984 0.11584 0.82133 0.0
C2060 C 0.91244 0.10162 0.82087 0.0
C2061 C 0.92295 0.06217 0.83166 0.0
N2062 N 0.86968 0.11024 0.82215 0.0
N2063 N 0.9036 0.06671 0.82558 0.0
H2064 H 0.41433 0.21053 0.44507 0.0
H2065 H 0.4364 0.19534 0.32664 0.0
H2066 H 0.45884 0.16812 0.42182 0.0
H2067 H 0.39373 0.23906 0.3509 0.0
H2068 H 0.44834 0.18841 0.36126 0.0
H2069 H 0.41023 0.22445 0.41089 0.0
C2070 C 0.42348 0.20433 0.43283 0.0
C2071 C 0.43677 0.18796 0.43632 0.0
C2072 C 0.43655 0.19972 0.35898 0.0
C2073 C 0.43193 0.20367 0.39693 0.0
C2074 C 0.42976 0.20373 0.33919 0.0
C2075 C 0.41384 0.21763 0.33584 0.0
C2076 C 0.42732 0.20963 0.37556 0.0
C2077 C 0.40587 0.22806 0.35272 0.0
C2078 C 0.4211 0.21227 0.41326 0.0
C2079 C 0.44833 0.18067 0.41985 0.0
N2080 N 0.41253 0.22369 0.37181 0.0
N2081 N 0.44542 0.18837 0.40082 0.0
H2082 H 0.05951 0.16785 0.58088 0.0
H2083 H 0.15401 0.15628 0.65356 0.0
H2084 H 0.12121 0.16628 0.55822 0.0
H2085 H 0.10146 0.19031 0.67341 0.0
H2086 H 0.14081 0.15688 0.61875 0.0
H2087 H 0.07294 0.17378 0.61535 0.0
C2088 C 0.07581 0.169 0.58308 0.0
C2089 C 0.08924 0.16643 0.56663 0.0
C2090 C 0.13224 0.16437 0.63068 0.0
C2091 C 0.10459 0.17278 0.6059 0.0
C2092 C 0.13972 0.16396 0.65053 0.0
C2093 C 0.12877 0.17324 0.66631 0.0
C2094 C 0.11342 0.17368 0.62664 0.0
C2095 C 0.11037 0.18307 0.66158 0.0
C2096 C 0.08344 0.1724 0.60272 0.0
C2097 C 0.11024 0.16808 0.57039 0.0
N2098 N 0.10307 0.18278 0.64217 0.0
N2099 N 0.11725 0.17082 0.58963 0.0
H2100 H 0.08678 0.79327 0.93706 0.0
H2101 H 0.06941 0.81113 0.81847 0.0
H2102 H 0.04035 0.83321 0.91322 0.0
H2103 H 0.10961 0.76522 0.84289 0.0
H2104 H 0.05617 0.81718 0.85276 0.0
H2105 H 0.0929 0.78045 0.90272 0.0
C2106 C 0.07764 0.79914 0.92465 0.0
C2107 C 0.06316 0.81449 0.92805 0.0
C2108 C 0.06769 0.80559 0.85058 0.0
C2109 C 0.07032 0.80008 0.8885 0.0
C2110 C 0.07524 0.8021 0.83097 0.0
C2111 C 0.09081 0.78777 0.82777 0.0
C2112 C 0.07586 0.7948 0.86716 0.0
C2113 C 0.09772 0.77651 0.84459 0.0
C2114 C 0.08117 0.79182 0.905 0.0
C2115 C 0.05172 0.82142 0.91134 0.0
N2116 N 0.09039 0.78044 0.86354 0.0
N2117 N 0.05575 0.81438 0.89226 0.0
H2118 H 0.41524 0.80806 0.07004 0.0
H2119 H 0.4474 0.83707 0.18211 0.0
H2120 H 0.4679 0.84502 0.08337 0.0
H2121 H 0.40628 0.78762 0.16864 0.0
H2122 H 0.45716 0.8382 0.14623 0.0
H2123 H 0.41362 0.79814 0.10585 0.0
C2124 C 0.4267 0.8138 0.08042 0.0
C2125 C 0.4416 0.82756 0.0737 0.0
C2126 C 0.44627 0.82686 0.15117 0.0
C2127 C 0.43959 0.81657 0.11487 0.0
C2128 C 0.44067 0.82621 0.17168 0.0
C2129 C 0.42583 0.81238 0.17839 0.0
C2130 C 0.4367 0.81382 0.13716 0.0
C2131 C 0.41772 0.79861 0.16416 0.0
C2132 C 0.42576 0.80813 0.1009 0.0
C2133 C 0.4561 0.83443 0.08786 0.0
N2134 N 0.42299 0.79991 0.14418 0.0
N2135 N 0.45451 0.82917 0.10782 0.0
H2136 H 0.42211 0.47076 0.16848 0.0
H2137 H 0.33373 0.4063 0.22217 0.0
H2138 H 0.43241 0.41532 0.2022 0.0
H2139 H 0.32291 0.45189 0.1761 0.0
H2140 H 0.36998 0.41481 0.22153 0.0
H2141 H 0.38605 0.46927 0.17781 0.0
C2142 C 0.4169 0.45851 0.17821 0.0
C2143 C 0.43029 0.44301 0.18438 0.0
C2144 C 0.35962 0.42314 0.21177 0.0
C2145 C 0.38899 0.44117 0.195 0.0
C2146 C 0.33888 0.41838 0.2122 0.0
C2147 C 0.32525 0.42824 0.19899 0.0
C2148 C 0.3668 0.43796 0.19813 0.0
C2149 C 0.33288 0.44374 0.1864 0.0
C2150 C 0.39628 0.45761 0.18342 0.0
C2151 C 0.42262 0.42749 0.19692 0.0
N2152 N 0.35315 0.448 0.18615 0.0
N2153 N 0.40247 0.42686 0.20167 0.0
H2154 H 0.80582 0.93675 0.07976 0.0
H2155 H 0.83567 0.8239 0.04882 0.0
H2156 H 0.8479 0.92258 0.03133 0.0
H2157 H 0.78641 0.8382 0.08989 0.0
H2158 H 0.8376 0.8598 0.03929 0.0
H2159 H 0.79562 0.901 0.08082 0.0
C2160 C 0.81267 0.9262 0.06909 0.0
C2161 C 0.82794 0.93267 0.05561 0.0
C2162 C 0.82615 0.85506 0.05015 0.0
C2163 C 0.81655 0.89156 0.05696 0.0
C2164 C 0.82502 0.83452 0.05559 0.0
C2165 C 0.81103 0.82802 0.07038 0.0
C2166 C 0.81336 0.8693 0.05974 0.0
C2167 C 0.79754 0.8425 0.07853 0.0
C2168 C 0.80685 0.90575 0.06972 0.0
C2169 C 0.83616 0.91829 0.04207 0.0
N2170 N 0.79926 0.86248 0.07335 0.0
N2171 N 0.83061 0.89838 0.04332 0.0
H2172 H 0.1846 0.54957 0.67483 0.0
H2173 H 0.07065 0.58118 0.70185 0.0
H2174 H 0.16927 0.59424 0.72053 0.0
H2175 H 0.08594 0.53214 0.66085 0.0
H2176 H 0.10647 0.58371 0.71156 0.0
H2177 H 0.14865 0.54037 0.67229 0.0
C2178 C 0.17372 0.55723 0.68458 0.0
C2179 C 0.17999 0.57285 0.69777 0.0
C2180 C 0.10197 0.57221 0.70063 0.0
C2181 C 0.13865 0.56258 0.69472 0.0
C2182 C 0.08148 0.57075 0.69507 0.0
C2183 C 0.07525 0.55654 0.68035 0.0
C2184 C 0.11644 0.55952 0.69128 0.0
C2185 C 0.09002 0.54338 0.67219 0.0
C2186 C 0.15316 0.55199 0.68309 0.0
C2187 C 0.16517 0.58216 0.71009 0.0
N2188 N 0.10993 0.54536 0.67757 0.0
N2189 N 0.14518 0.57708 0.70806 0.0
H2190 H 0.67887 0.92466 0.9573 0.0
H2191 H 0.64619 0.8199 0.90619 0.0
H2192 H 0.63501 0.91907 0.90866 0.0
H2193 H 0.70799 0.82795 0.92719 0.0
H2194 H 0.63902 0.85519 0.91461 0.0
H2195 H 0.68757 0.88832 0.95282 0.0
C2196 C 0.67113 0.91586 0.9457 0.0
C2197 C 0.65621 0.92492 0.93331 0.0
C2198 C 0.65414 0.84923 0.91749 0.0
C2199 C 0.66571 0.88363 0.9285 0.0
C2200 C 0.65826 0.82902 0.91277 0.0
C2201 C 0.67782 0.82096 0.91574 0.0
C2202 C 0.66959 0.86162 0.92545 0.0
C2203 C 0.69273 0.83359 0.92452 0.0
C2204 C 0.67612 0.89522 0.94316 0.0
C2205 C 0.64666 0.91283 0.91851 0.0
N2206 N 0.68834 0.85341 0.92902 0.0
N2207 N 0.65144 0.89285 0.91666 0.0
H2208 H 0.81978 0.17576 0.44184 0.0
H2209 H 0.80056 0.05668 0.42681 0.0
H2210 H 0.77331 0.15052 0.40282 0.0
H2211 H 0.84737 0.08117 0.46591 0.0
H2212 H 0.7871 0.09098 0.42205 0.0
H2213 H 0.82677 0.14156 0.45491 0.0
C2214 C 0.81081 0.1631 0.43625 0.0
C2215 C 0.7961 0.16601 0.421 0.0
C2216 C 0.80016 0.08886 0.43189 0.0
C2217 C 0.80416 0.12677 0.43578 0.0
C2218 C 0.80785 0.06923 0.43465 0.0
C2219 C 0.82528 0.06602 0.44659 0.0
C2220 C 0.81005 0.10551 0.44099 0.0
C2221 C 0.83396 0.08291 0.45648 0.0
C2222 C 0.81486 0.14355 0.44369 0.0
C2223 C 0.78494 0.14901 0.4144 0.0
N2224 N 0.82643 0.10194 0.45323 0.0
N2225 N 0.78935 0.13014 0.42165 0.0
H2226 H 0.71148 0.16587 0.58521 0.0
H2227 H 0.63441 0.09763 0.52009 0.0
H2228 H 0.66114 0.18984 0.55041 0.0
H2229 H 0.678 0.0727 0.56252 0.0
H2230 H 0.64871 0.13143 0.5258 0.0
H2231 H 0.70405 0.13189 0.57178 0.0
C2232 C 0.69911 0.16408 0.57445 0.0
C2233 C 0.68676 0.18072 0.56912 0.0
C2234 C 0.65531 0.11855 0.53371 0.0
C2235 C 0.67811 0.14183 0.55381 0.0
C2236 C 0.64718 0.09919 0.53042 0.0
C2237 C 0.65482 0.08229 0.54104 0.0
C2238 C 0.67122 0.12112 0.54776 0.0
C2239 C 0.67149 0.08531 0.55411 0.0
C2240 C 0.69481 0.14464 0.56688 0.0
C2241 C 0.67093 0.17744 0.55512 0.0
N2242 N 0.67899 0.10438 0.55727 0.0
N2243 N 0.66696 0.15838 0.54811 0.0
H2244 H 0.10598 0.48059 0.86637 0.0
H2245 H 0.17243 0.40861 0.79392 0.0
H2246 H 0.07972 0.44161 0.82045 0.0
H2247 H 0.19746 0.44701 0.84101 0.0
H2248 H 0.13885 0.4237 0.8001 0.0
H2249 H 0.13986 0.47179 0.85397 0.0
C2250 C 0.10731 0.47037 0.85349 0.0
C2251 C 0.08992 0.46169 0.84458 0.0
C2252 C 0.15175 0.42899 0.8089 0.0
C2253 C 0.12887 0.45131 0.83038 0.0
C2254 C 0.17096 0.42043 0.80533 0.0
C2255 C 0.1878 0.42641 0.81709 0.0
C2256 C 0.14935 0.44362 0.82435 0.0
C2257 C 0.18492 0.44177 0.83169 0.0
C2258 C 0.12671 0.4653 0.84643 0.0
C2259 C 0.09266 0.44861 0.82786 0.0
N2260 N 0.16609 0.44969 0.835 0.0
N2261 N 0.11176 0.44364 0.82145 0.0
H2262 H 0.33061 0.59604 0.29415 0.0
H2263 H 0.40935 0.58282 0.3822 0.0
H2264 H 0.31319 0.57527 0.35402 0.0
H2265 H 0.42756 0.56542 0.32156 0.0
H2266 H 0.37401 0.58396 0.37101 0.0
H2267 H 0.36627 0.5877 0.30225 0.0
C2268 C 0.33418 0.58941 0.30882 0.0
C2269 C 0.31888 0.5866 0.32353 0.0
C2270 C 0.38568 0.57976 0.36014 0.0
C2271 C 0.35947 0.57746 0.33288 0.0
C2272 C 0.40587 0.57925 0.36647 0.0
C2273 C 0.42136 0.57409 0.35274 0.0
C2274 C 0.38086 0.57559 0.33977 0.0
C2275 C 0.41598 0.56942 0.33258 0.0
C2276 C 0.3545 0.58466 0.31339 0.0
C2277 C 0.32441 0.57794 0.34226 0.0
N2278 N 0.3961 0.57058 0.32656 0.0
N2279 N 0.34425 0.57403 0.34651 0.0
H2280 H 0.9467 0.69399 0.92516 0.0
H2281 H 0.96401 0.67658 0.80635 0.0
H2282 H 0.99044 0.65185 0.90002 0.0
H2283 H 0.92146 0.72042 0.83059 0.0
H2284 H 0.97755 0.67133 0.84053 0.0
H2285 H 0.9409 0.7077 0.891 0.0
C2286 C 0.95536 0.68785 0.91254 0.0
C2287 C 0.96888 0.67153 0.91547 0.0
C2288 C 0.96545 0.68232 0.83838 0.0
C2289 C 0.96216 0.68704 0.87626 0.0
C2290 C 0.95773 0.68537 0.81882 0.0
C2291 C 0.9414 0.69878 0.81559 0.0
C2292 C 0.95665 0.69258 0.85498 0.0
C2293 C 0.93399 0.70985 0.83235 0.0
C2294 C 0.95199 0.69565 0.89301 0.0
C2295 C 0.97969 0.66426 0.89851 0.0
N2296 N 0.94145 0.70627 0.85136 0.0
N2297 N 0.97592 0.67188 0.87965 0.0
H2298 H 0.52635 0.63317 0.10759 0.0
H2299 H 0.5924 0.70895 0.17629 0.0
H2300 H 0.56493 0.6803 0.08293 0.0
H2301 H 0.55893 0.65747 0.19966 0.0
H2302 H 0.57763 0.70272 0.14265 0.0
H2303 H 0.53325 0.64594 0.14177 0.0
C2304 C 0.53607 0.64638 0.10931 0.0
C2305 C 0.54528 0.6555 0.09233 0.0
C2306 C 0.57331 0.69296 0.15521 0.0
C2307 C 0.55339 0.67014 0.13158 0.0
C2308 C 0.58167 0.69657 0.17446 0.0
C2309 C 0.57709 0.68356 0.19081 0.0
C2310 C 0.56025 0.67626 0.15228 0.0
C2311 C 0.56308 0.66776 0.18748 0.0
C2312 C 0.54004 0.65365 0.12889 0.0
C2313 C 0.55762 0.67268 0.09557 0.0
N2314 N 0.55533 0.66444 0.16859 0.0
N2315 N 0.5615 0.6793 0.11482 0.0
H2316 H 0.55535 0.33994 0.31635 0.0
H2317 H 0.55999 0.30871 0.43412 0.0
H2318 H 0.58733 0.28645 0.33731 0.0
H2319 H 0.55089 0.36966 0.4116 0.0
H2320 H 0.56106 0.29626 0.39862 0.0
H2321 H 0.54401 0.34635 0.3511 0.0
C2322 C 0.55971 0.32931 0.32819 0.0
C2323 C 0.57264 0.31283 0.32392 0.0
C2324 C 0.55846 0.31229 0.40154 0.0
C2325 C 0.55975 0.32022 0.36387 0.0
C2326 C 0.55772 0.31933 0.4217 0.0
C2327 C 0.55541 0.34019 0.4256 0.0
C2328 C 0.55647 0.32623 0.38541 0.0
C2329 C 0.55279 0.35345 0.40912 0.0
C2330 C 0.55327 0.33304 0.34805 0.0
C2331 C 0.57754 0.29946 0.33992 0.0
N2332 N 0.55343 0.34627 0.38977 0.0
N2333 N 0.57132 0.3036 0.35928 0.0
H2334 H 0.91354 0.28134 0.67478 0.0
H2335 H 0.97485 0.34167 0.58847 0.0
H2336 H 0.9457 0.33771 0.68494 0.0
H2337 H 0.92774 0.29769 0.57555 0.0
H2338 H 0.97133 0.33419 0.62475 0.0
H2339 H 0.92569 0.28126 0.63948 0.0
C2340 C 0.92353 0.29345 0.66974 0.0
C2341 C 0.92847 0.30967 0.68276 0.0
C2342 C 0.96199 0.32595 0.61394 0.0
C2343 C 0.94234 0.30968 0.64245 0.0
C2344 C 0.96406 0.33013 0.59319 0.0
C2345 C 0.95137 0.32048 0.57892 0.0
C2346 C 0.94725 0.31192 0.6205 0.0
C2347 C 0.93768 0.30566 0.58601 0.0
C2348 C 0.93034 0.29345 0.64956 0.0
C2349 C 0.94136 0.32502 0.67536 0.0
N2350 N 0.93584 0.30197 0.60631 0.0
N2351 N 0.94773 0.32472 0.65568 0.0
loop_
_geom_bond_atom_site_label_1
_geom_bond_atom_site_label_2
_geom_bond_distance
_geom_bond_site_symmetry_2
_ccdc_geom_bond_type
Mg0 O7 2.141 . S
Mg0 O8 2.048 . S
Mg0 O9 2.048 . S
Mg0 O12 2.141 . S
C1 O2 1.313 . S
C1 O8 1.195 . S
O2 C1 1.313 . S
C3 O4 1.245 . S
C3 O12 1.289 . S
O4 C3 1.245 . S
C5 O6 1.245 . S
C5 O7 1.289 . S
O6 C5 1.245 . S
O7 Mg0 2.141 . S
O7 C5 1.289 . S
O8 Mg0 2.048 . S
O8 C1 1.195 . S
O9 Mg0 2.048 . S
O9 C10 1.195 . S
C10 O9 1.195 . S
C10 O11 1.313 . S
O11 C10 1.313 . S
O12 Mg0 2.141 . S
O12 C3 1.289 . S
Mg13 O20 2.141 . S
Mg13 O21 2.048 . S
Mg13 O22 2.048 . S
Mg13 O25 2.141 1_655 S
C14 O15 1.313 . S
C14 O21 1.195 . S
O15 C14 1.313 . S
C16 O17 1.245 . S
C16 O25 1.289 . S
O17 C16 1.245 . S
C18 O19 1.245 . S
C18 O20 1.289 1_455 S
O19 C18 1.245 . S
O20 Mg13 2.141 . S
O20 C18 1.289 1_655 S
O21 Mg13 2.048 . S
O21 C14 1.195 . S
O22 Mg13 2.048 . S
O22 C23 1.195 . S
C23 O22 1.195 . S
C23 O24 1.313 . S
O24 C23 1.313 . S
O25 Mg13 2.141 1_455 S
O25 C16 1.289 . S
Mg26 O33 2.141 . S
Mg26 O34 2.048 . S
Mg26 O35 2.048 . S
Mg26 O38 2.141 . S
C27 O28 1.313 . S
C27 O34 1.195 . S
O28 C27 1.313 . S
C29 O30 1.245 . S
C29 O38 1.289 . S
O30 C29 1.245 . S
C31 O32 1.245 . S
C31 O33 1.289 . S
O32 C31 1.245 . S
O33 Mg26 2.141 . S
O33 C31 1.289 . S
O34 Mg26 2.048 . S
O34 C27 1.195 . S
O35 Mg26 2.048 . S
O35 C36 1.195 . S
C36 O35 1.195 . S
C36 O37 1.313 . S
O37 C36 1.313 . S
O38 Mg26 2.141 . S
O38 C29 1.289 . S
Mg39 O46 2.141 . S
Mg39 O47 2.048 . S
Mg39 O48 2.048 . S
Mg39 O51 2.141 . S
C40 O41 1.313 . S
C40 O47 1.195 . S
O41 C40 1.313 . S
C42 O43 1.245 . S
C42 O51 1.289 . S
O43 C42 1.245 . S
C44 O45 1.245 . S
C44 O46 1.289 . S
O45 C44 1.245 . S
O46 Mg39 2.141 . S
O46 C44 1.289 . S
O47 Mg39 2.048 . S
O47 C40 1.195 . S
O48 Mg39 2.048 . S
O48 C49 1.195 . S
C49 O48 1.195 . S
C49 O50 1.313 . S
O50 C49 1.313 . S
O51 Mg39 2.141 . S
O51 C42 1.289 . S
Mg52 O59 2.141 . S
Mg52 O60 2.048 . S
Mg52 O61 2.048 . S
Mg52 O64 2.141 . S
C53 O54 1.313 . S
C53 O60 1.195 . S
O54 C53 1.313 . S
C55 O56 1.245 . S
C55 O64 1.289 . S
O56 C55 1.245 . S
C57 O58 1.245 . S
C57 O59 1.289 . S
O58 C57 1.245 . S
O59 Mg52 2.141 . S
O59 C57 1.289 . S
O60 Mg52 2.048 . S
O60 C53 1.195 . S
O61 Mg52 2.048 . S
O61 C62 1.195 . S
C62 O61 1.195 . S
C62 O63 1.313 . S
O63 C62 1.313 . S
O64 Mg52 2.141 . S
O64 C55 1.289 . S
Mg65 O72 2.141 . S
Mg65 O73 2.048 . S
Mg65 O74 2.048 . S
Mg65 O77 2.141 . S
C66 O67 1.313 . S
C66 O73 1.195 . S
O67 C66 1.313 . S
C68 O69 1.245 . S
C68 O77 1.289 . S
O69 C68 1.245 . S
C70 O71 1.245 . S
C70 O72 1.289 . S
O71 C70 1.245 . S
O72 Mg65 2.141 . S
O72 C70 1.289 . S
O73 Mg65 2.048 . S
O73 C66 1.195 . S
O74 Mg65 2.048 . S
O74 C75 1.195 . S
C75 O74 1.195 . S
C75 O76 1.313 . S
O76 C75 1.313 . S
O77 Mg65 2.141 . S
O77 C68 1.289 . S
Mg78 O85 2.141 . S
Mg78 O86 2.048 . S
Mg78 O87 2.048 . S
Mg78 O90 2.141 . S
C79 O80 1.313 . S
C79 O86 1.195 . S
O80 C79 1.313 . S
C81 O82 1.245 . S
C81 O90 1.289 . S
O82 C81 1.245 . S
C83 O84 1.245 . S
C83 O85 1.289 . S
O84 C83 1.245 . S
O85 Mg78 2.141 . S
O85 C83 1.289 . S
O86 Mg78 2.048 . S
O86 C79 1.195 . S
O87 Mg78 2.048 . S
O87 C88 1.195 . S
C88 O87 1.195 . S
C88 O89 1.313 . S
O89 C88 1.313 . S
O90 Mg78 2.141 . S
O90 C81 1.289 . S
Mg91 O98 2.141 . S
Mg91 O99 2.048 . S
Mg91 O100 2.048 . S
Mg91 O103 2.141 1_655 S
C92 O93 1.313 . S
C92 O99 1.195 . S
O93 C92 1.313 . S
C94 O95 1.245 . S
C94 O103 1.289 . S
O95 C94 1.245 . S
C96 O97 1.245 . S
C96 O98 1.289 1_455 S
O97 C96 1.245 . S
O98 Mg91 2.141 . S
O98 C96 1.289 1_655 S
O99 Mg91 2.048 . S
O99 C92 1.195 . S
O100 Mg91 2.048 . S
O100 C101 1.195 . S
C101 O100 1.195 . S
C101 O102 1.313 . S
O102 C101 1.313 . S
O103 Mg91 2.141 1_455 S
O103 C94 1.289 . S
Mg104 O111 2.141 . S
Mg104 O112 2.048 . S
Mg104 O113 2.048 . S
Mg104 O116 2.141 . S
C105 O106 1.313 . S
C105 O112 1.195 . S
O106 C105 1.313 . S
C107 O108 1.245 . S
C107 O116 1.289 . S
O108 C107 1.245 . S
C109 O110 1.245 . S
C109 O111 1.289 . S
O110 C109 1.245 . S
O111 Mg104 2.141 . S
O111 C109 1.289 . S
O112 Mg104 2.048 . S
O112 C105 1.195 . S
O113 Mg104 2.048 . S
O113 C114 1.195 . S
C114 O113 1.195 . S
C114 O115 1.313 . S
O115 C114 1.313 . S
O116 Mg104 2.141 . S
O116 C107 1.289 . S
Mg117 O124 2.141 . S
Mg117 O125 2.048 . S
Mg117 O126 2.048 . S
Mg117 O129 2.141 . S
C118 O119 1.313 . S
C118 O125 1.195 . S
O119 C118 1.313 . S
C120 O121 1.245 . S
C120 O129 1.289 . S
O121 C120 1.245 . S
C122 O123 1.245 . S
C122 O124 1.289 . S
O123 C122 1.245 . S
O124 Mg117 2.141 . S
O124 C122 1.289 . S
O125 Mg117 2.048 . S
O125 C118 1.195 . S
O126 Mg117 2.048 . S
O126 C127 1.195 . S
C127 O126 1.195 . S
C127 O128 1.313 . S
O128 C127 1.313 . S
O129 Mg117 2.141 . S
O129 C120 1.289 . S
Mg130 O137 2.141 . S
Mg130 O138 2.048 . S
Mg130 O139 2.048 . S
Mg130 O142 2.141 . S
C131 O132 1.313 . S
C131 O138 1.195 . S
O132 C131 1.313 . S
C133 O134 1.245 . S
C133 O142 1.289 . S
O134 C133 1.245 . S
C135 O136 1.245 . S
C135 O137 1.289 . S
O136 C135 1.245 . S
O137 Mg130 2.141 . S
O137 C135 1.289 . S
O138 Mg130 2.048 . S
O138 C131 1.195 . S
O139 Mg130 2.048 . S
O139 C140 1.195 . S
C140 O139 1.195 . S
C140 O141 1.313 . S
O141 C140 1.313 . S
O142 Mg130 2.141 . S
O142 C133 1.289 . S
Mg143 O150 2.141 . S
Mg143 O151 2.048 . S
Mg143 O152 2.048 . S
Mg143 O155 2.141 1_554 S
C144 O145 1.313 . S
C144 O151 1.195 . S
O145 C144 1.313 . S
C146 O147 1.245 . S
C146 O155 1.289 . S
O147 C146 1.245 . S
C148 O149 1.245 . S
C148 O150 1.289 1_556 S
O149 C148 1.245 . S
O150 Mg143 2.141 . S
O150 C148 1.289 1_554 S
O151 Mg143 2.048 . S
O151 C144 1.195 . S
O152 Mg143 2.048 . S
O152 C153 1.195 . S
C153 O152 1.195 . S
C153 O154 1.313 . S
O154 C153 1.313 . S
O155 Mg143 2.141 1_556 S
O155 C146 1.289 . S
Mg156 O163 2.141 . S
Mg156 O164 2.048 . S
Mg156 O165 2.048 . S
Mg156 O168 2.141 . S
C157 O158 1.313 . S
C157 O164 1.195 . S
O158 C157 1.313 . S
C159 O160 1.245 . S
C159 O168 1.289 . S
O160 C159 1.245 . S
C161 O162 1.245 . S
C161 O163 1.289 . S
O162 C161 1.245 . S
O163 Mg156 2.141 . S
O163 C161 1.289 . S
O164 Mg156 2.048 . S
O164 C157 1.195 . S
O165 Mg156 2.048 . S
O165 C166 1.195 . S
C166 O165 1.195 . S
C166 O167 1.313 . S
O167 C166 1.313 . S
O168 Mg156 2.141 . S
O168 C159 1.289 . S
Mg169 O176 2.141 . S
Mg169 O177 2.048 . S
Mg169 O178 2.048 . S
Mg169 O181 2.141 . S
C170 O171 1.313 . S
C170 O177 1.195 . S
O171 C170 1.313 . S
C172 O173 1.245 . S
C172 O181 1.289 . S
O173 C172 1.245 . S
C174 O175 1.245 . S
C174 O176 1.289 . S
O175 C174 1.245 . S
O176 Mg169 2.141 . S
O176 C174 1.289 . S
O177 Mg169 2.048 . S
O177 C170 1.195 . S
O178 Mg169 2.048 . S
O178 C179 1.195 . S
C179 O178 1.195 . S
C179 O180 1.313 . S
O180 C179 1.313 . S
O181 Mg169 2.141 . S
O181 C172 1.289 . S
Mg182 O189 2.141 . S
Mg182 O190 2.048 . S
Mg182 O191 2.048 . S
Mg182 O194 2.141 . S
C183 O184 1.313 . S
C183 O190 1.195 . S
O184 C183 1.313 . S
C185 O186 1.245 . S
C185 O194 1.289 . S
O186 C185 1.245 . S
C187 O188 1.245 . S
C187 O189 1.289 . S
O188 C187 1.245 . S
O189 Mg182 2.141 . S
O189 C187 1.289 . S
O190 Mg182 2.048 . S
O190 C183 1.195 . S
O191 Mg182 2.048 . S
O191 C192 1.195 . S
C192 O191 1.195 . S
C192 O193 1.313 . S
O193 C192 1.313 . S
O194 Mg182 2.141 . S
O194 C185 1.289 . S
Mg195 O202 2.141 . S
Mg195 O203 2.048 . S
Mg195 O204 2.048 . S
Mg195 O207 2.141 1_556 S
C196 O197 1.313 . S
C196 O203 1.195 . S
O197 C196 1.313 . S
C198 O199 1.245 . S
C198 O207 1.289 . S
O199 C198 1.245 . S
C200 O201 1.245 . S
C200 O202 1.289 1_554 S
O201 C200 1.245 . S
O202 Mg195 2.141 . S
O202 C200 1.289 1_556 S
O203 Mg195 2.048 . S
O203 C196 1.195 . S
O204 Mg195 2.048 . S
O204 C205 1.195 . S
C205 O204 1.195 . S
C205 O206 1.313 . S
O206 C205 1.313 . S
O207 Mg195 2.141 1_554 S
O207 C198 1.289 . S
Mg208 O215 2.141 . S
Mg208 O216 2.048 . S
Mg208 O217 2.048 . S
Mg208 O220 2.141 . S
C209 O210 1.313 . S
C209 O216 1.195 . S
O210 C209 1.313 . S
C211 O212 1.245 . S
C211 O220 1.289 . S
O212 C211 1.245 . S
C213 O214 1.245 . S
C213 O215 1.289 . S
O214 C213 1.245 . S
O215 Mg208 2.141 . S
O215 C213 1.289 . S
O216 Mg208 2.048 . S
O216 C209 1.195 . S
O217 Mg208 2.048 . S
O217 C218 1.195 . S
C218 O217 1.195 . S
C218 O219 1.313 . S
O219 C218 1.313 . S
O220 Mg208 2.141 . S
O220 C211 1.289 . S
Mg221 O228 2.141 . S
Mg221 O229 2.048 . S
Mg221 O230 2.048 . S
Mg221 O233 2.141 . S
C222 O223 1.313 . S
C222 O229 1.195 . S
O223 C222 1.313 . S
C224 O225 1.245 . S
C224 O233 1.289 . S
O225 C224 1.245 . S
C226 O227 1.245 . S
C226 O228 1.289 . S
O227 C226 1.245 . S
O228 Mg221 2.141 . S
O228 C226 1.289 . S
O229 Mg221 2.048 . S
O229 C222 1.195 . S
O230 Mg221 2.048 . S
O230 C231 1.195 . S
C231 O230 1.195 . S
C231 O232 1.313 . S
O232 C231 1.313 . S
O233 Mg221 2.141 . S
O233 C224 1.289 . S
Mg234 O241 2.141 . S
Mg234 O242 2.048 . S
Mg234 O243 2.048 . S
Mg234 O246 2.141 . S
C235 O236 1.313 . S
C235 O242 1.195 . S
O236 C235 1.313 . S
C237 O238 1.245 . S
C237 O246 1.289 . S
O238 C237 1.245 . S
C239 O240 1.245 . S
C239 O241 1.289 . S
O240 C239 1.245 . S
O241 Mg234 2.141 . S
O241 C239 1.289 . S
O242 Mg234 2.048 . S
O242 C235 1.195 . S
O243 Mg234 2.048 . S
O243 C244 1.195 . S
C244 O243 1.195 . S
C244 O245 1.313 . S
O245 C244 1.313 . S
O246 Mg234 2.141 . S
O246 C237 1.289 . S
Mg247 O254 2.141 . S
Mg247 O255 2.048 . S
Mg247 O256 2.048 . S
Mg247 O259 2.141 . S
C248 O249 1.313 . S
C248 O255 1.195 . S
O249 C248 1.313 . S
C250 O251 1.245 . S
C250 O259 1.289 . S
O251 C250 1.245 . S
C252 O253 1.245 . S
C252 O254 1.289 . S
O253 C252 1.245 . S
O254 Mg247 2.141 . S
O254 C252 1.289 . S
O255 Mg247 2.048 . S
O255 C248 1.195 . S
O256 Mg247 2.048 . S
O256 C257 1.195 . S
C257 O256 1.195 . S
C257 O258 1.313 . S
O258 C257 1.313 . S
O259 Mg247 2.141 . S
O259 C250 1.289 . S
Mg260 O267 2.141 . S
Mg260 O268 2.048 . S
Mg260 O269 2.048 . S
Mg260 O272 2.141 1_565 S
C261 O262 1.313 . S
C261 O268 1.195 . S
O262 C261 1.313 . S
C263 O264 1.245 . S
C263 O272 1.289 . S
O264 C263 1.245 . S
C265 O266 1.245 . S
C265 O267 1.289 1_545 S
O266 C265 1.245 . S
O267 Mg260 2.141 . S
O267 C265 1.289 1_565 S
O268 Mg260 2.048 . S
O268 C261 1.195 . S
O269 Mg260 2.048 . S
O269 C270 1.195 . S
C270 O269 1.195 . S
C270 O271 1.313 . S
O271 C270 1.313 . S
O272 Mg260 2.141 1_545 S
O272 C263 1.289 . S
Mg273 O280 2.141 . S
Mg273 O281 2.048 . S
Mg273 O282 2.048 . S
Mg273 O285 2.141 . S
C274 O275 1.313 . S
C274 O281 1.195 . S
O275 C274 1.313 . S
C276 O277 1.245 . S
C276 O285 1.289 . S
O277 C276 1.245 . S
C278 O279 1.245 . S
C278 O280 1.289 . S
O279 C278 1.245 . S
O280 Mg273 2.141 . S
O280 C278 1.289 . S
O281 Mg273 2.048 . S
O281 C274 1.195 . S
O282 Mg273 2.048 . S
O282 C283 1.195 . S
C283 O282 1.195 . S
C283 O284 1.313 . S
O284 C283 1.313 . S
O285 Mg273 2.141 . S
O285 C276 1.289 . S
Mg286 O293 2.141 . S
Mg286 O294 2.048 . S
Mg286 O295 2.048 . S
Mg286 O298 2.141 . S
C287 O288 1.313 . S
C287 O294 1.195 . S
O288 C287 1.313 . S
C289 O290 1.245 . S
C289 O298 1.289 . S
O290 C289 1.245 . S
C291 O292 1.245 . S
C291 O293 1.289 . S
O292 C291 1.245 . S
O293 Mg286 2.141 . S
O293 C291 1.289 . S
O294 Mg286 2.048 . S
O294 C287 1.195 . S
O295 Mg286 2.048 . S
O295 C296 1.195 . S
C296 O295 1.195 . S
C296 O297 1.313 . S
O297 C296 1.313 . S
O298 Mg286 2.141 . S
O298 C289 1.289 . S
Mg299 O306 2.141 . S
Mg299 O307 2.048 . S
Mg299 O308 2.048 . S
Mg299 O311 2.141 . S
C300 O301 1.313 . S
C300 O307 1.195 . S
O301 C300 1.313 . S
C302 O303 1.245 . S
C302 O311 1.289 . S
O303 C302 1.245 . S
C304 O305 1.245 . S
C304 O306 1.289 . S
O305 C304 1.245 . S
O306 Mg299 2.141 . S
O306 C304 1.289 . S
O307 Mg299 2.048 . S
O307 C300 1.195 . S
O308 Mg299 2.048 . S
O308 C309 1.195 . S
C309 O308 1.195 . S
C309 O310 1.313 . S
O310 C309 1.313 . S
O311 Mg299 2.141 . S
O311 C302 1.289 . S
Mg312 O319 2.141 . S
Mg312 O320 2.048 . S
Mg312 O321 2.048 . S
Mg312 O324 2.141 . S
C313 O314 1.313 . S
C313 O320 1.195 . S
O314 C313 1.313 . S
C315 O316 1.245 . S
C315 O324 1.289 . S
O316 C315 1.245 . S
C317 O318 1.245 . S
C317 O319 1.289 . S
O318 C317 1.245 . S
O319 Mg312 2.141 . S
O319 C317 1.289 . S
O320 Mg312 2.048 . S
O320 C313 1.195 . S
O321 Mg312 2.048 . S
O321 C322 1.195 . S
C322 O321 1.195 . S
C322 O323 1.313 . S
O323 C322 1.313 . S
O324 Mg312 2.141 . S
O324 C315 1.289 . S
Mg325 O332 2.141 . S
Mg325 O333 2.048 . S
Mg325 O334 2.048 . S
Mg325 O337 2.141 . S
C326 O327 1.313 . S
C326 O333 1.195 . S
O327 C326 1.313 . S
C328 O329 1.245 . S
C328 O337 1.289 . S
O329 C328 1.245 . S
C330 O331 1.245 . S
C330 O332 1.289 . S
O331 C330 1.245 . S
O332 Mg325 2.141 . S
O332 C330 1.289 . S
O333 Mg325 2.048 . S
O333 C326 1.195 . S
O334 Mg325 2.048 . S
O334 C335 1.195 . S
C335 O334 1.195 . S
C335 O336 1.313 . S
O336 C335 1.313 . S
O337 Mg325 2.141 . S
O337 C328 1.289 . S
Mg338 O345 2.141 . S
Mg338 O346 2.048 . S
Mg338 O347 2.048 . S
Mg338 O350 2.141 . S
C339 O340 1.313 . S
C339 O346 1.195 . S
O340 C339 1.313 . S
C341 O342 1.245 . S
C341 O350 1.289 . S
O342 C341 1.245 . S
C343 O344 1.245 . S
C343 O345 1.289 . S
O344 C343 1.245 . S
O345 Mg338 2.141 . S
O345 C343 1.289 . S
O346 Mg338 2.048 . S
O346 C339 1.195 . S
O347 Mg338 2.048 . S
O347 C348 1.195 . S
C348 O347 1.195 . S
C348 O349 1.313 . S
O349 C348 1.313 . S
O350 Mg338 2.141 . S
O350 C341 1.289 . S
Mg351 O358 2.141 . S
Mg351 O359 2.048 . S
Mg351 O360 2.048 . S
Mg351 O363 2.141 1_455 S
C352 O353 1.313 . S
C352 O359 1.195 . S
O353 C352 1.313 . S
C354 O355 1.245 . S
C354 O363 1.289 . S
O355 C354 1.245 . S
C356 O357 1.245 . S
C356 O358 1.289 1_655 S
O357 C356 1.245 . S
O358 Mg351 2.141 . S
O358 C356 1.289 1_455 S
O359 Mg351 2.048 . S
O359 C352 1.195 . S
O360 Mg351 2.048 . S
O360 C361 1.195 . S
C361 O360 1.195 . S
C361 O362 1.313 . S
O362 C361 1.313 . S
O363 Mg351 2.141 1_655 S
O363 C354 1.289 . S
Mg364 O371 2.141 . S
Mg364 O372 2.048 . S
Mg364 O373 2.048 . S
Mg364 O376 2.141 . S
C365 O366 1.313 . S
C365 O372 1.195 . S
O366 C365 1.313 . S
C367 O368 1.245 . S
C367 O376 1.289 . S
O368 C367 1.245 . S
C369 O370 1.245 . S
C369 O371 1.289 . S
O370 C369 1.245 . S
O371 Mg364 2.141 . S
O371 C369 1.289 . S
O372 Mg364 2.048 . S
O372 C365 1.195 . S
O373 Mg364 2.048 . S
O373 C374 1.195 . S
C374 O373 1.195 . S
C374 O375 1.313 . S
O375 C374 1.313 . S
O376 Mg364 2.141 . S
O376 C367 1.289 . S
Mg377 O384 2.141 . S
Mg377 O385 2.048 . S
Mg377 O386 2.048 . S
Mg377 O389 2.141 1_455 S
C378 O379 1.313 . S
C378 O385 1.195 . S
O379 C378 1.313 . S
C380 O381 1.245 . S
C380 O389 1.289 . S
O381 C380 1.245 . S
C382 O383 1.245 . S
C382 O384 1.289 1_655 S
O383 C382 1.245 . S
O384 Mg377 2.141 . S
O384 C382 1.289 1_455 S
O385 Mg377 2.048 . S
O385 C378 1.195 . S
O386 Mg377 2.048 . S
O386 C387 1.195 . S
C387 O386 1.195 . S
C387 O388 1.313 . S
O388 C387 1.313 . S
O389 Mg377 2.141 1_655 S
O389 C380 1.289 . S
Mg390 O397 2.141 . S
Mg390 O398 2.048 . S
Mg390 O399 2.048 . S
Mg390 O402 2.141 . S
C391 O392 1.313 . S
C391 O398 1.195 . S
O392 C391 1.313 . S
C393 O394 1.245 . S
C393 O402 1.289 . S
O394 C393 1.245 . S
C395 O396 1.245 . S
C395 O397 1.289 . S
O396 C395 1.245 . S
O397 Mg390 2.141 . S
O397 C395 1.289 . S
O398 Mg390 2.048 . S
O398 C391 1.195 . S
O399 Mg390 2.048 . S
O399 C400 1.195 . S
C400 O399 1.195 . S
C400 O401 1.313 . S
O401 C400 1.313 . S
O402 Mg390 2.141 . S
O402 C393 1.289 . S
Mg403 O410 2.141 . S
Mg403 O411 2.048 . S
Mg403 O412 2.048 . S
Mg403 O415 2.141 . S
C404 O405 1.313 . S
C404 O411 1.195 . S
O405 C404 1.313 . S
C406 O407 1.245 . S
C406 O415 1.289 . S
O407 C406 1.245 . S
C408 O409 1.245 . S
C408 O410 1.289 . S
O409 C408 1.245 . S
O410 Mg403 2.141 . S
O410 C408 1.289 . S
O411 Mg403 2.048 . S
O411 C404 1.195 . S
O412 Mg403 2.048 . S
O412 C413 1.195 . S
C413 O412 1.195 . S
C413 O414 1.313 . S
O414 C413 1.313 . S
O415 Mg403 2.141 . S
O415 C406 1.289 . S
Mg416 O423 2.141 . S
Mg416 O424 2.048 . S
Mg416 O425 2.048 . S
Mg416 O428 2.141 . S
C417 O418 1.313 . S
C417 O424 1.195 . S
O418 C417 1.313 . S
C419 O420 1.245 . S
C419 O428 1.289 . S
O420 C419 1.245 . S
C421 O422 1.245 . S
C421 O423 1.289 . S
O422 C421 1.245 . S
O423 Mg416 2.141 . S
O423 C421 1.289 . S
O424 Mg416 2.048 . S
O424 C417 1.195 . S
O425 Mg416 2.048 . S
O425 C426 1.195 . S
C426 O425 1.195 . S
C426 O427 1.313 . S
O427 C426 1.313 . S
O428 Mg416 2.141 . S
O428 C419 1.289 . S
Mg429 O436 2.141 . S
Mg429 O437 2.048 . S
Mg429 O438 2.048 . S
Mg429 O441 2.141 1_554 S
C430 O431 1.313 . S
C430 O437 1.195 . S
O431 C430 1.313 . S
C432 O433 1.245 . S
C432 O441 1.289 . S
O433 C432 1.245 . S
C434 O435 1.245 . S
C434 O436 1.289 1_556 S
O435 C434 1.245 . S
O436 Mg429 2.141 . S
O436 C434 1.289 1_554 S
O437 Mg429 2.048 . S
O437 C430 1.195 . S
O438 Mg429 2.048 . S
O438 C439 1.195 . S
C439 O438 1.195 . S
C439 O440 1.313 . S
O440 C439 1.313 . S
O441 Mg429 2.141 1_556 S
O441 C432 1.289 . S
Mg442 O449 2.141 . S
Mg442 O450 2.048 . S
Mg442 O451 2.048 . S
Mg442 O454 2.141 . S
C443 O444 1.313 . S
C443 O450 1.195 . S
O444 C443 1.313 . S
C445 O446 1.245 . S
C445 O454 1.289 . S
O446 C445 1.245 . S
C447 O448 1.245 . S
C447 O449 1.289 . S
O448 C447 1.245 . S
O449 Mg442 2.141 . S
O449 C447 1.289 . S
O450 Mg442 2.048 . S
O450 C443 1.195 . S
O451 Mg442 2.048 . S
O451 C452 1.195 . S
C452 O451 1.195 . S
C452 O453 1.313 . S
O453 C452 1.313 . S
O454 Mg442 2.141 . S
O454 C445 1.289 . S
Mg455 O462 2.141 . S
Mg455 O463 2.048 . S
Mg455 O464 2.048 . S
Mg455 O467 2.141 . S
C456 O457 1.313 . S
C456 O463 1.195 . S
O457 C456 1.313 . S
C458 O459 1.245 . S
C458 O467 1.289 . S
O459 C458 1.245 . S
C460 O461 1.245 . S
C460 O462 1.289 . S
O461 C460 1.245 . S
O462 Mg455 2.141 . S
O462 C460 1.289 . S
O463 Mg455 2.048 . S
O463 C456 1.195 . S
O464 Mg455 2.048 . S
O464 C465 1.195 . S
C465 O464 1.195 . S
C465 O466 1.313 . S
O466 C465 1.313 . S
O467 Mg455 2.141 . S
O467 C458 1.289 . S
Mg468 O475 2.141 . S
Mg468 O476 2.048 . S
Mg468 O477 2.048 . S
Mg468 O480 2.141 . S
C469 O470 1.313 . S
C469 O476 1.195 . S
O470 C469 1.313 . S
C471 O472 1.245 . S
C471 O480 1.289 . S
O472 C471 1.245 . S
C473 O474 1.245 . S
C473 O475 1.289 . S
O474 C473 1.245 . S
O475 Mg468 2.141 . S
O475 C473 1.289 . S
O476 Mg468 2.048 . S
O476 C469 1.195 . S
O477 Mg468 2.048 . S
O477 C478 1.195 . S
C478 O477 1.195 . S
C478 O479 1.313 . S
O479 C478 1.313 . S
O480 Mg468 2.141 . S
O480 C471 1.289 . S
Mg481 O488 2.141 . S
Mg481 O489 2.048 . S
Mg481 O490 2.048 . S
Mg481 O493 2.141 1_556 S
C482 O483 1.313 . S
C482 O489 1.195 . S
O483 C482 1.313 . S
C484 O485 1.245 . S
C484 O493 1.289 . S
O485 C484 1.245 . S
C486 O487 1.245 . S
C486 O488 1.289 1_554 S
O487 C486 1.245 . S
O488 Mg481 2.141 . S
O488 C486 1.289 1_556 S
O489 Mg481 2.048 . S
O489 C482 1.195 . S
O490 Mg481 2.048 . S
O490 C491 1.195 . S
C491 O490 1.195 . S
C491 O492 1.313 . S
O492 C491 1.313 . S
O493 Mg481 2.141 1_554 S
O493 C484 1.289 . S
Mg494 O501 2.141 . S
Mg494 O502 2.048 . S
Mg494 O503 2.048 . S
Mg494 O506 2.141 . S
C495 O496 1.313 . S
C495 O502 1.195 . S
O496 C495 1.313 . S
C497 O498 1.245 . S
C497 O506 1.289 . S
O498 C497 1.245 . S
C499 O500 1.245 . S
C499 O501 1.289 . S
O500 C499 1.245 . S
O501 Mg494 2.141 . S
O501 C499 1.289 . S
O502 Mg494 2.048 . S
O502 C495 1.195 . S
O503 Mg494 2.048 . S
O503 C504 1.195 . S
C504 O503 1.195 . S
C504 O505 1.313 . S
O505 C504 1.313 . S
O506 Mg494 2.141 . S
O506 C497 1.289 . S
Mg507 O514 2.141 . S
Mg507 O515 2.048 . S
Mg507 O516 2.048 . S
Mg507 O519 2.141 . S
C508 O509 1.313 . S
C508 O515 1.195 . S
O509 C508 1.313 . S
C510 O511 1.245 . S
C510 O519 1.289 . S
O511 C510 1.245 . S
C512 O513 1.245 . S
C512 O514 1.289 . S
O513 C512 1.245 . S
O514 Mg507 2.141 . S
O514 C512 1.289 . S
O515 Mg507 2.048 . S
O515 C508 1.195 . S
O516 Mg507 2.048 . S
O516 C517 1.195 . S
C517 O516 1.195 . S
C517 O518 1.313 . S
O518 C517 1.313 . S
O519 Mg507 2.141 . S
O519 C510 1.289 . S
Mg520 O527 2.141 . S
Mg520 O528 2.048 . S
Mg520 O529 2.048 . S
Mg520 O532 2.141 . S
C521 O522 1.313 . S
C521 O528 1.195 . S
O522 C521 1.313 . S
C523 O524 1.245 . S
C523 O532 1.289 . S
O524 C523 1.245 . S
C525 O526 1.245 . S
C525 O527 1.289 . S
O526 C525 1.245 . S
O527 Mg520 2.141 . S
O527 C525 1.289 . S
O528 Mg520 2.048 . S
O528 C521 1.195 . S
O529 Mg520 2.048 . S
O529 C530 1.195 . S
C530 O529 1.195 . S
C530 O531 1.313 . S
O531 C530 1.313 . S
O532 Mg520 2.141 . S
O532 C523 1.289 . S
Mg533 O540 2.141 . S
Mg533 O541 2.048 . S
Mg533 O542 2.048 . S
Mg533 O545 2.141 . S
C534 O535 1.313 . S
C534 O541 1.195 . S
O535 C534 1.313 . S
C536 O537 1.245 . S
C536 O545 1.289 . S
O537 C536 1.245 . S
C538 O539 1.245 . S
C538 O540 1.289 . S
O539 C538 1.245 . S
O540 Mg533 2.141 . S
O540 C538 1.289 . S
O541 Mg533 2.048 . S
O541 C534 1.195 . S
O542 Mg533 2.048 . S
O542 C543 1.195 . S
C543 O542 1.195 . S
C543 O544 1.313 . S
O544 C543 1.313 . S
O545 Mg533 2.141 . S
O545 C536 1.289 . S
Mg546 O553 2.141 . S
Mg546 O554 2.048 . S
Mg546 O555 2.048 . S
Mg546 O558 2.141 1_545 S
C547 O548 1.313 . S
C547 O554 1.195 . S
O548 C547 1.313 . S
C549 O550 1.245 . S
C549 O558 1.289 . S
O550 C549 1.245 . S
C551 O552 1.245 . S
C551 O553 1.289 1_565 S
O552 C551 1.245 . S
O553 Mg546 2.141 . S
O553 C551 1.289 1_545 S
O554 Mg546 2.048 . S
O554 C547 1.195 . S
O555 Mg546 2.048 . S
O555 C556 1.195 . S
C556 O555 1.195 . S
C556 O557 1.313 . S
O557 C556 1.313 . S
O558 Mg546 2.141 1_565 S
O558 C549 1.289 . S
Mg559 O566 2.141 . S
Mg559 O567 2.048 . S
Mg559 O568 2.048 . S
Mg559 O571 2.141 . S
C560 O561 1.313 . S
C560 O567 1.195 . S
O561 C560 1.313 . S
C562 O563 1.245 . S
C562 O571 1.289 . S
O563 C562 1.245 . S
C564 O565 1.245 . S
C564 O566 1.289 . S
O565 C564 1.245 . S
O566 Mg559 2.141 . S
O566 C564 1.289 . S
O567 Mg559 2.048 . S
O567 C560 1.195 . S
O568 Mg559 2.048 . S
O568 C569 1.195 . S
C569 O568 1.195 . S
C569 O570 1.313 . S
O570 C569 1.313 . S
O571 Mg559 2.141 . S
O571 C562 1.289 . S
Mg572 O579 2.141 . S
Mg572 O580 2.048 . S
Mg572 O581 2.048 . S
Mg572 O584 2.141 . S
C573 O574 1.313 . S
C573 O580 1.195 . S
O574 C573 1.313 . S
C575 O576 1.245 . S
C575 O584 1.289 . S
O576 C575 1.245 . S
C577 O578 1.245 . S
C577 O579 1.289 . S
O578 C577 1.245 . S
O579 Mg572 2.141 . S
O579 C577 1.289 . S
O580 Mg572 2.048 . S
O580 C573 1.195 . S
O581 Mg572 2.048 . S
O581 C582 1.195 . S
C582 O581 1.195 . S
C582 O583 1.313 . S
O583 C582 1.313 . S
O584 Mg572 2.141 . S
O584 C575 1.289 . S
Mg585 O592 2.141 . S
Mg585 O593 2.048 . S
Mg585 O594 2.048 . S
Mg585 O597 2.141 . S
C586 O587 1.313 . S
C586 O593 1.195 . S
O587 C586 1.313 . S
C588 O589 1.245 . S
C588 O597 1.289 . S
O589 C588 1.245 . S
C590 O591 1.245 . S
C590 O592 1.289 . S
O591 C590 1.245 . S
O592 Mg585 2.141 . S
O592 C590 1.289 . S
O593 Mg585 2.048 . S
O593 C586 1.195 . S
O594 Mg585 2.048 . S
O594 C595 1.195 . S
C595 O594 1.195 . S
C595 O596 1.313 . S
O596 C595 1.313 . S
O597 Mg585 2.141 . S
O597 C588 1.289 . S
Mg598 O605 2.141 . S
Mg598 O606 2.048 . S
Mg598 O607 2.048 . S
Mg598 O610 2.141 1_565 S
C599 O600 1.313 . S
C599 O606 1.195 . S
O600 C599 1.313 . S
C601 O602 1.245 . S
C601 O610 1.289 . S
O602 C601 1.245 . S
C603 O604 1.245 . S
C603 O605 1.289 1_545 S
O604 C603 1.245 . S
O605 Mg598 2.141 . S
O605 C603 1.289 1_565 S
O606 Mg598 2.048 . S
O606 C599 1.195 . S
O607 Mg598 2.048 . S
O607 C608 1.195 . S
C608 O607 1.195 . S
C608 O609 1.313 . S
O609 C608 1.313 . S
O610 Mg598 2.141 1_545 S
O610 C601 1.289 . S
Mg611 O618 2.141 . S
Mg611 O619 2.048 . S
Mg611 O620 2.048 . S
Mg611 O623 2.141 1_545 S
C612 O613 1.313 . S
C612 O619 1.195 . S
O613 C612 1.313 . S
C614 O615 1.245 . S
C614 O623 1.289 . S
O615 C614 1.245 . S
C616 O617 1.245 . S
C616 O618 1.289 1_565 S
O617 C616 1.245 . S
O618 Mg611 2.141 . S
O618 C616 1.289 1_545 S
O619 Mg611 2.048 . S
O619 C612 1.195 . S
O620 Mg611 2.048 . S
O620 C621 1.195 . S
C621 O620 1.195 . S
C621 O622 1.313 . S
O622 C621 1.313 . S
O623 Mg611 2.141 1_565 S
O623 C614 1.289 . S
H624 C630 0.930 . S
H625 C634 0.930 . S
H626 C639 0.929 . S
H627 C637 0.929 . S
H628 C632 0.929 . S
H629 C638 0.929 . S
C630 H624 0.930 . S
C630 C631 1.367 . S
C630 C638 1.378 . S
C631 C630 1.367 . S
C631 C639 1.433 . S
C632 H628 0.929 . S
C632 C634 1.378 . S
C632 C636 1.350 . S
C633 C636 1.463 . S
C633 C638 1.350 . S
C633 N641 1.427 . S
C634 H625 0.930 . S
C634 C632 1.378 . S
C634 C635 1.367 . S
C635 C634 1.367 . S
C635 C637 1.433 . S
C636 C632 1.350 . S
C636 C633 1.463 . S
C636 N640 1.427 . S
C637 H627 0.929 . S
C637 C635 1.433 . S
C637 N640 1.384 . S
C638 H629 0.929 . S
C638 C630 1.378 . S
C638 C633 1.350 . S
C639 H626 0.929 . S
C639 C631 1.433 . S
C639 N641 1.384 . S
N640 C636 1.427 . S
N640 C637 1.384 . S
N641 C633 1.427 . S
N641 C639 1.384 . S
H642 C648 0.930 . S
H643 C652 0.930 . S
H644 C657 0.929 . S
H645 C655 0.929 . S
H646 C650 0.929 . S
H647 C656 0.929 . S
C648 H642 0.930 . S
C648 C649 1.367 . S
C648 C656 1.378 . S
C649 C648 1.367 . S
C649 C657 1.433 . S
C650 H646 0.929 . S
C650 C652 1.378 . S
C650 C654 1.350 . S
C651 C654 1.463 . S
C651 C656 1.350 . S
C651 N659 1.427 . S
C652 H643 0.930 . S
C652 C650 1.378 . S
C652 C653 1.367 . S
C653 C652 1.367 . S
C653 C655 1.433 . S
C654 C650 1.350 . S
C654 C651 1.463 . S
C654 N658 1.427 . S
C655 H645 0.929 . S
C655 C653 1.433 . S
C655 N658 1.384 . S
C656 H647 0.929 . S
C656 C648 1.378 . S
C656 C651 1.350 . S
C657 H644 0.929 . S
C657 C649 1.433 . S
C657 N659 1.384 . S
N658 C654 1.427 . S
N658 C655 1.384 . S
N659 C651 1.427 . S
N659 C657 1.384 . S
H660 C666 0.930 . S
H661 C670 0.930 . S
H662 C675 0.929 . S
H663 C673 0.929 . S
H664 C668 0.929 . S
H665 C674 0.929 . S
C666 H660 0.930 . S
C666 C667 1.367 . S
C666 C674 1.378 . S
C667 C666 1.367 . S
C667 C675 1.433 . S
C668 H664 0.929 . S
C668 C670 1.378 . S
C668 C672 1.350 . S
C669 C672 1.463 . S
C669 C674 1.350 . S
C669 N677 1.427 . S
C670 H661 0.930 . S
C670 C668 1.378 . S
C670 C671 1.367 . S
C671 C670 1.367 . S
C671 C673 1.433 . S
C672 C668 1.350 . S
C672 C669 1.463 . S
C672 N676 1.427 . S
C673 H663 0.929 . S
C673 C671 1.433 . S
C673 N676 1.384 . S
C674 H665 0.929 . S
C674 C666 1.378 . S
C674 C669 1.350 . S
C675 H662 0.929 . S
C675 C667 1.433 . S
C675 N677 1.384 . S
N676 C672 1.427 . S
N676 C673 1.384 . S
N677 C669 1.427 . S
N677 C675 1.384 . S
H678 C684 0.930 . S
H679 C688 0.930 . S
H680 C693 0.929 . S
H681 C691 0.929 . S
H682 C686 0.929 . S
H683 C692 0.929 . S
C684 H678 0.930 . S
C684 C685 1.367 . S
C684 C692 1.378 . S
C685 C684 1.367 . S
C685 C693 1.433 . S
C686 H682 0.929 . S
C686 C688 1.378 . S
C686 C690 1.350 . S
C687 C690 1.463 . S
C687 C692 1.350 . S
C687 N695 1.427 . S
C688 H679 0.930 . S
C688 C686 1.378 . S
C688 C689 1.367 . S
C689 C688 1.367 . S
C689 C691 1.433 . S
C690 C686 1.350 . S
C690 C687 1.463 . S
C690 N694 1.427 . S
C691 H681 0.929 . S
C691 C689 1.433 . S
C691 N694 1.384 . S
C692 H683 0.929 . S
C692 C684 1.378 . S
C692 C687 1.350 . S
C693 H680 0.929 . S
C693 C685 1.433 . S
C693 N695 1.384 . S
N694 C690 1.427 . S
N694 C691 1.384 . S
N695 C687 1.427 . S
N695 C693 1.384 . S
H696 C702 0.930 . S
H697 C706 0.930 . S
H698 C711 0.929 . S
H699 C709 0.929 . S
H700 C704 0.929 . S
H701 C710 0.929 . S
C702 H696 0.930 . S
C702 C703 1.367 . S
C702 C710 1.378 . S
C703 C702 1.367 . S
C703 C711 1.433 . S
C704 H700 0.929 . S
C704 C706 1.378 . S
C704 C708 1.350 . S
C705 C708 1.463 . S
C705 C710 1.350 . S
C705 N713 1.427 . S
C706 H697 0.930 . S
C706 C704 1.378 . S
C706 C707 1.367 . S
C707 C706 1.367 . S
C707 C709 1.433 . S
C708 C704 1.350 . S
C708 C705 1.463 . S
C708 N712 1.427 . S
C709 H699 0.929 . S
C709 C707 1.433 . S
C709 N712 1.384 . S
C710 H701 0.929 . S
C710 C702 1.378 . S
C710 C705 1.350 . S
C711 H698 0.929 . S
C711 C703 1.433 . S
C711 N713 1.384 . S
N712 C708 1.427 . S
N712 C709 1.384 . S
N713 C705 1.427 . S
N713 C711 1.384 . S
H714 C720 0.930 . S
H715 C724 0.930 . S
H716 C729 0.929 . S
H717 C727 0.929 . S
H718 C722 0.929 . S
H719 C728 0.929 . S
C720 H714 0.930 . S
C720 C721 1.367 . S
C720 C728 1.378 . S
C721 C720 1.367 . S
C721 C729 1.433 . S
C722 H718 0.929 . S
C722 C724 1.378 . S
C722 C726 1.350 . S
C723 C726 1.463 . S
C723 C728 1.350 . S
C723 N731 1.427 . S
C724 H715 0.930 . S
C724 C722 1.378 . S
C724 C725 1.367 . S
C725 C724 1.367 . S
C725 C727 1.433 . S
C726 C722 1.350 . S
C726 C723 1.463 . S
C726 N730 1.427 . S
C727 H717 0.929 . S
C727 C725 1.433 . S
C727 N730 1.384 . S
C728 H719 0.929 . S
C728 C720 1.378 . S
C728 C723 1.350 . S
C729 H716 0.929 . S
C729 C721 1.433 . S
C729 N731 1.384 . S
N730 C726 1.427 . S
N730 C727 1.384 . S
N731 C723 1.427 . S
N731 C729 1.384 . S
H732 C738 0.930 . S
H733 C742 0.930 . S
H734 C747 0.929 . S
H735 C745 0.929 . S
H736 C740 0.929 . S
H737 C746 0.929 . S
C738 H732 0.930 . S
C738 C739 1.367 . S
C738 C746 1.378 . S
C739 C738 1.367 . S
C739 C747 1.433 . S
C740 H736 0.929 . S
C740 C742 1.378 . S
C740 C744 1.350 . S
C741 C744 1.463 . S
C741 C746 1.350 . S
C741 N749 1.427 . S
C742 H733 0.930 . S
C742 C740 1.378 . S
C742 C743 1.367 . S
C743 C742 1.367 . S
C743 C745 1.433 . S
C744 C740 1.350 . S
C744 C741 1.463 . S
C744 N748 1.427 . S
C745 H735 0.929 . S
C745 C743 1.433 . S
C745 N748 1.384 . S
C746 H737 0.929 . S
C746 C738 1.378 . S
C746 C741 1.350 . S
C747 H734 0.929 . S
C747 C739 1.433 . S
C747 N749 1.384 . S
N748 C744 1.427 . S
N748 C745 1.384 . S
N749 C741 1.427 . S
N749 C747 1.384 . S
H750 C756 0.930 . S
H751 C760 0.930 . S
H752 C765 0.929 . S
H753 C763 0.929 . S
H754 C758 0.929 . S
H755 C764 0.929 . S
C756 H750 0.930 . S
C756 C757 1.367 . S
C756 C764 1.378 . S
C757 C756 1.367 . S
C757 C765 1.433 . S
C758 H754 0.929 . S
C758 C760 1.378 . S
C758 C762 1.350 . S
C759 C762 1.463 . S
C759 C764 1.350 . S
C759 N767 1.427 . S
C760 H751 0.930 . S
C760 C758 1.378 . S
C760 C761 1.367 . S
C761 C760 1.367 . S
C761 C763 1.433 . S
C762 C758 1.350 . S
C762 C759 1.463 . S
C762 N766 1.427 . S
C763 H753 0.929 . S
C763 C761 1.433 . S
C763 N766 1.384 . S
C764 H755 0.929 . S
C764 C756 1.378 . S
C764 C759 1.350 . S
C765 H752 0.929 . S
C765 C757 1.433 . S
C765 N767 1.384 . S
N766 C762 1.427 . S
N766 C763 1.384 . S
N767 C759 1.427 . S
N767 C765 1.384 . S
H768 C774 0.930 . S
H769 C778 0.930 . S
H770 C783 0.929 . S
H771 C781 0.929 . S
H772 C776 0.929 . S
H773 C782 0.929 . S
C774 H768 0.930 . S
C774 C775 1.367 . S
C774 C782 1.378 . S
C775 C774 1.367 . S
C775 C783 1.433 . S
C776 H772 0.929 . S
C776 C778 1.378 . S
C776 C780 1.350 . S
C777 C780 1.463 . S
C777 C782 1.350 . S
C777 N785 1.427 . S
C778 H769 0.930 . S
C778 C776 1.378 . S
C778 C779 1.367 . S
C779 C778 1.367 . S
C779 C781 1.433 . S
C780 C776 1.350 . S
C780 C777 1.463 . S
C780 N784 1.427 . S
C781 H771 0.929 . S
C781 C779 1.433 . S
C781 N784 1.384 . S
C782 H773 0.929 . S
C782 C774 1.378 . S
C782 C777 1.350 . S
C783 H770 0.929 . S
C783 C775 1.433 . S
C783 N785 1.384 . S
N784 C780 1.427 . S
N784 C781 1.384 . S
N785 C777 1.427 . S
N785 C783 1.384 . S
H786 C792 0.930 . S
H787 C796 0.930 . S
H788 C801 0.929 . S
H789 C799 0.929 . S
H790 C794 0.929 . S
H791 C800 0.929 . S
C792 H786 0.930 . S
C792 C793 1.367 . S
C792 C800 1.378 . S
C793 C792 1.367 . S
C793 C801 1.433 . S
C794 H790 0.929 . S
C794 C796 1.378 . S
C794 C798 1.350 . S
C795 C798 1.463 . S
C795 C800 1.350 . S
C795 N803 1.427 . S
C796 H787 0.930 . S
C796 C794 1.378 . S
C796 C797 1.367 . S
C797 C796 1.367 . S
C797 C799 1.433 . S
C798 C794 1.350 . S
C798 C795 1.463 . S
C798 N802 1.427 . S
C799 H789 0.929 . S
C799 C797 1.433 . S
C799 N802 1.384 . S
C800 H791 0.929 . S
C800 C792 1.378 . S
C800 C795 1.350 . S
C801 H788 0.929 . S
C801 C793 1.433 . S
C801 N803 1.384 . S
N802 C798 1.427 . S
N802 C799 1.384 . S
N803 C795 1.427 . S
N803 C801 1.384 . S
H804 C810 0.930 . S
H805 C814 0.930 . S
H806 C819 0.929 . S
H807 C817 0.929 . S
H808 C812 0.929 . S
H809 C818 0.929 . S
C810 H804 0.930 . S
C810 C811 1.367 . S
C810 C818 1.378 . S
C811 C810 1.367 . S
C811 C819 1.433 . S
C812 H808 0.929 . S
C812 C814 1.378 . S
C812 C816 1.350 . S
C813 C816 1.463 . S
C813 C818 1.350 . S
C813 N821 1.427 . S
C814 H805 0.930 . S
C814 C812 1.378 . S
C814 C815 1.367 . S
C815 C814 1.367 . S
C815 C817 1.433 . S
C816 C812 1.350 . S
C816 C813 1.463 . S
C816 N820 1.427 . S
C817 H807 0.929 . S
C817 C815 1.433 . S
C817 N820 1.384 . S
C818 H809 0.929 . S
C818 C810 1.378 . S
C818 C813 1.350 . S
C819 H806 0.929 . S
C819 C811 1.433 . S
C819 N821 1.384 . S
N820 C816 1.427 . S
N820 C817 1.384 . S
N821 C813 1.427 . S
N821 C819 1.384 . S
H822 C828 0.930 . S
H823 C832 0.930 . S
H824 C837 0.929 . S
H825 C835 0.929 . S
H826 C830 0.929 . S
H827 C836 0.929 . S
C828 H822 0.930 . S
C828 C829 1.367 . S
C828 C836 1.378 . S
C829 C828 1.367 . S
C829 C837 1.433 . S
C830 H826 0.929 . S
C830 C832 1.378 . S
C830 C834 1.350 . S
C831 C834 1.463 . S
C831 C836 1.350 . S
C831 N839 1.427 . S
C832 H823 0.930 . S
C832 C830 1.378 . S
C832 C833 1.367 . S
C833 C832 1.367 . S
C833 C835 1.433 . S
C834 C830 1.350 . S
C834 C831 1.463 . S
C834 N838 1.427 . S
C835 H825 0.929 . S
C835 C833 1.433 . S
C835 N838 1.384 . S
C836 H827 0.929 . S
C836 C828 1.378 . S
C836 C831 1.350 . S
C837 H824 0.929 . S
C837 C829 1.433 . S
C837 N839 1.384 . S
N838 C834 1.427 . S
N838 C835 1.384 . S
N839 C831 1.427 . S
N839 C837 1.384 . S
H840 C846 0.930 . S
H841 C850 0.930 . S
H842 C855 0.929 . S
H843 C853 0.929 . S
H844 C848 0.929 . S
H845 C854 0.929 . S
C846 H840 0.930 . S
C846 C847 1.367 . S
C846 C854 1.378 . S
C847 C846 1.367 . S
C847 C855 1.433 . S
C848 H844 0.929 . S
C848 C850 1.378 . S
C848 C852 1.350 . S
C849 C852 1.463 . S
C849 C854 1.350 . S
C849 N857 1.427 . S
C850 H841 0.930 . S
C850 C848 1.378 . S
C850 C851 1.367 . S
C851 C850 1.367 . S
C851 C853 1.433 . S
C852 C848 1.350 . S
C852 C849 1.463 . S
C852 N856 1.427 . S
C853 H843 0.929 . S
C853 C851 1.433 . S
C853 N856 1.384 . S
C854 H845 0.929 . S
C854 C846 1.378 . S
C854 C849 1.350 . S
C855 H842 0.929 . S
C855 C847 1.433 . S
C855 N857 1.384 . S
N856 C852 1.427 . S
N856 C853 1.384 . S
N857 C849 1.427 . S
N857 C855 1.384 . S
H858 C864 0.930 . S
H859 C868 0.930 . S
H860 C873 0.929 . S
H861 C871 0.929 . S
H862 C866 0.929 . S
H863 C872 0.929 . S
C864 H858 0.930 . S
C864 C865 1.367 . S
C864 C872 1.378 . S
C865 C864 1.367 . S
C865 C873 1.433 . S
C866 H862 0.929 . S
C866 C868 1.378 . S
C866 C870 1.350 . S
C867 C870 1.463 . S
C867 C872 1.350 . S
C867 N875 1.427 . S
C868 H859 0.930 . S
C868 C866 1.378 . S
C868 C869 1.367 . S
C869 C868 1.367 . S
C869 C871 1.433 . S
C870 C866 1.350 . S
C870 C867 1.463 . S
C870 N874 1.427 . S
C871 H861 0.929 . S
C871 C869 1.433 . S
C871 N874 1.384 . S
C872 H863 0.929 . S
C872 C864 1.378 . S
C872 C867 1.350 . S
C873 H860 0.929 . S
C873 C865 1.433 . S
C873 N875 1.384 . S
N874 C870 1.427 . S
N874 C871 1.384 . S
N875 C867 1.427 . S
N875 C873 1.384 . S
H876 C882 0.930 . S
H877 C886 0.930 . S
H878 C891 0.929 . S
H879 C889 0.929 . S
H880 C884 0.929 . S
H881 C890 0.929 . S
C882 H876 0.930 . S
C882 C883 1.367 . S
C882 C890 1.378 . S
C883 C882 1.367 . S
C883 C891 1.433 . S
C884 H880 0.929 . S
C884 C886 1.378 . S
C884 C888 1.350 . S
C885 C888 1.463 . S
C885 C890 1.350 . S
C885 N893 1.427 . S
C886 H877 0.930 . S
C886 C884 1.378 . S
C886 C887 1.367 . S
C887 C886 1.367 . S
C887 C889 1.433 . S
C888 C884 1.350 . S
C888 C885 1.463 . S
C888 N892 1.427 . S
C889 H879 0.929 . S
C889 C887 1.433 . S
C889 N892 1.384 . S
C890 H881 0.929 . S
C890 C882 1.378 . S
C890 C885 1.350 . S
C891 H878 0.929 . S
C891 C883 1.433 . S
C891 N893 1.384 . S
N892 C888 1.427 . S
N892 C889 1.384 . S
N893 C885 1.427 . S
N893 C891 1.384 . S
H894 C900 0.930 . S
H895 C904 0.930 . S
H896 C909 0.929 . S
H897 C907 0.929 . S
H898 C902 0.929 . S
H899 C908 0.929 . S
C900 H894 0.930 . S
C900 C901 1.367 . S
C900 C908 1.378 . S
C901 C900 1.367 . S
C901 C909 1.433 . S
C902 H898 0.929 . S
C902 C904 1.378 . S
C902 C906 1.350 . S
C903 C906 1.463 . S
C903 C908 1.350 . S
C903 N911 1.427 . S
C904 H895 0.930 . S
C904 C902 1.378 . S
C904 C905 1.367 . S
C905 C904 1.367 . S
C905 C907 1.433 . S
C906 C902 1.350 . S
C906 C903 1.463 . S
C906 N910 1.427 . S
C907 H897 0.929 . S
C907 C905 1.433 . S
C907 N910 1.384 . S
C908 H899 0.929 . S
C908 C900 1.378 . S
C908 C903 1.350 . S
C909 H896 0.929 . S
C909 C901 1.433 . S
C909 N911 1.384 . S
N910 C906 1.427 . S
N910 C907 1.384 . S
N911 C903 1.427 . S
N911 C909 1.384 . S
H912 C918 0.930 . S
H913 C922 0.930 . S
H914 C927 0.929 . S
H915 C925 0.929 . S
H916 C920 0.929 . S
H917 C926 0.929 . S
C918 H912 0.930 . S
C918 C919 1.367 . S
C918 C926 1.378 . S
C919 C918 1.367 . S
C919 C927 1.433 . S
C920 H916 0.929 . S
C920 C922 1.378 . S
C920 C924 1.350 . S
C921 C924 1.463 . S
C921 C926 1.350 . S
C921 N929 1.427 . S
C922 H913 0.930 . S
C922 C920 1.378 . S
C922 C923 1.367 . S
C923 C922 1.367 . S
C923 C925 1.433 . S
C924 C920 1.350 . S
C924 C921 1.463 . S
C924 N928 1.427 . S
C925 H915 0.929 . S
C925 C923 1.433 . S
C925 N928 1.384 . S
C926 H917 0.929 . S
C926 C918 1.378 . S
C926 C921 1.350 . S
C927 H914 0.929 . S
C927 C919 1.433 . S
C927 N929 1.384 . S
N928 C924 1.427 . S
N928 C925 1.384 . S
N929 C921 1.427 . S
N929 C927 1.384 . S
H930 C936 0.930 . S
H931 C940 0.930 . S
H932 C945 0.929 . S
H933 C943 0.929 . S
H934 C938 0.929 . S
H935 C944 0.929 . S
C936 H930 0.930 . S
C936 C937 1.367 . S
C936 C944 1.378 . S
C937 C936 1.367 . S
C937 C945 1.433 . S
C938 H934 0.929 . S
C938 C940 1.378 . S
C938 C942 1.350 . S
C939 C942 1.463 . S
C939 C944 1.350 . S
C939 N947 1.427 . S
C940 H931 0.930 . S
C940 C938 1.378 . S
C940 C941 1.367 . S
C941 C940 1.367 . S
C941 C943 1.433 . S
C942 C938 1.350 . S
C942 C939 1.463 . S
C942 N946 1.427 . S
C943 H933 0.929 . S
C943 C941 1.433 . S
C943 N946 1.384 . S
C944 H935 0.929 . S
C944 C936 1.378 . S
C944 C939 1.350 . S
C945 H932 0.929 . S
C945 C937 1.433 . S
C945 N947 1.384 . S
N946 C942 1.427 . S
N946 C943 1.384 . S
N947 C939 1.427 . S
N947 C945 1.384 . S
H948 C954 0.930 . S
H949 C958 0.930 . S
H950 C963 0.929 . S
H951 C961 0.929 . S
H952 C956 0.929 . S
H953 C962 0.929 . S
C954 H948 0.930 . S
C954 C955 1.367 . S
C954 C962 1.378 . S
C955 C954 1.367 . S
C955 C963 1.433 . S
C956 H952 0.929 . S
C956 C958 1.378 . S
C956 C960 1.350 . S
C957 C960 1.463 . S
C957 C962 1.350 . S
C957 N965 1.427 . S
C958 H949 0.930 . S
C958 C956 1.378 . S
C958 C959 1.367 . S
C959 C958 1.367 . S
C959 C961 1.433 . S
C960 C956 1.350 . S
C960 C957 1.463 . S
C960 N964 1.427 . S
C961 H951 0.929 . S
C961 C959 1.433 . S
C961 N964 1.384 . S
C962 H953 0.929 . S
C962 C954 1.378 . S
C962 C957 1.350 . S
C963 H950 0.929 . S
C963 C955 1.433 . S
C963 N965 1.384 . S
N964 C960 1.427 . S
N964 C961 1.384 . S
N965 C957 1.427 . S
N965 C963 1.384 . S
H966 C972 0.930 . S
H967 C976 0.930 . S
H968 C981 0.929 . S
H969 C979 0.929 . S
H970 C974 0.929 . S
H971 C980 0.929 . S
C972 H966 0.930 . S
C972 C973 1.367 . S
C972 C980 1.378 . S
C973 C972 1.367 . S
C973 C981 1.433 . S
C974 H970 0.929 . S
C974 C976 1.378 . S
C974 C978 1.350 . S
C975 C978 1.463 . S
C975 C980 1.350 . S
C975 N983 1.427 . S
C976 H967 0.930 . S
C976 C974 1.378 . S
C976 C977 1.367 . S
C977 C976 1.367 . S
C977 C979 1.433 . S
C978 C974 1.350 . S
C978 C975 1.463 . S
C978 N982 1.427 . S
C979 H969 0.929 . S
C979 C977 1.433 . S
C979 N982 1.384 . S
C980 H971 0.929 . S
C980 C972 1.378 . S
C980 C975 1.350 . S
C981 H968 0.929 . S
C981 C973 1.433 . S
C981 N983 1.384 . S
N982 C978 1.427 . S
N982 C979 1.384 . S
N983 C975 1.427 . S
N983 C981 1.384 . S
H984 C990 0.930 . S
H985 C994 0.930 . S
H986 C999 0.929 . S
H987 C997 0.929 . S
H988 C992 0.929 . S
H989 C998 0.929 . S
C990 H984 0.930 . S
C990 C991 1.367 . S
C990 C998 1.378 . S
C991 C990 1.367 . S
C991 C999 1.433 . S
C992 H988 0.929 . S
C992 C994 1.378 . S
C992 C996 1.350 . S
C993 C996 1.463 . S
C993 C998 1.350 . S
C993 N1001 1.427 . S
C994 H985 0.930 . S
C994 C992 1.378 . S
C994 C995 1.367 . S
C995 C994 1.367 . S
C995 C997 1.433 . S
C996 C992 1.350 . S
C996 C993 1.463 . S
C996 N1000 1.427 . S
C997 H987 0.929 . S
C997 C995 1.433 . S
C997 N1000 1.384 . S
C998 H989 0.929 . S
C998 C990 1.378 . S
C998 C993 1.350 . S
C999 H986 0.929 . S
C999 C991 1.433 . S
C999 N1001 1.384 . S
N1000 C996 1.427 . S
N1000 C997 1.384 . S
N1001 C993 1.427 . S
N1001 C999 1.384 . S
H1002 C1008 0.930 . S
H1003 C1012 0.930 . S
H1004 C1017 0.929 . S
H1005 C1015 0.929 . S
H1006 C1010 0.929 . S
H1007 C1016 0.929 . S
C1008 H1002 0.930 . S
C1008 C1009 1.367 . S
C1008 C1016 1.378 . S
C1009 C1008 1.367 . S
C1009 C1017 1.433 . S
C1010 H1006 0.929 . S
C1010 C1012 1.378 . S
C1010 C1014 1.350 . S
C1011 C1014 1.463 . S
C1011 C1016 1.350 . S
C1011 N1019 1.427 . S
C1012 H1003 0.930 . S
C1012 C1010 1.378 . S
C1012 C1013 1.367 . S
C1013 C1012 1.367 . S
C1013 C1015 1.433 . S
C1014 C1010 1.350 . S
C1014 C1011 1.463 . S
C1014 N1018 1.427 . S
C1015 H1005 0.929 . S
C1015 C1013 1.433 . S
C1015 N1018 1.384 . S
C1016 H1007 0.929 . S
C1016 C1008 1.378 . S
C1016 C1011 1.350 . S
C1017 H1004 0.929 . S
C1017 C1009 1.433 . S
C1017 N1019 1.384 . S
N1018 C1014 1.427 . S
N1018 C1015 1.384 . S
N1019 C1011 1.427 . S
N1019 C1017 1.384 . S
H1020 C1026 0.930 . S
H1021 C1030 0.930 . S
H1022 C1035 0.929 . S
H1023 C1033 0.929 . S
H1024 C1028 0.929 . S
H1025 C1034 0.929 . S
C1026 H1020 0.930 . S
C1026 C1027 1.367 . S
C1026 C1034 1.378 . S
C1027 C1026 1.367 . S
C1027 C1035 1.433 . S
C1028 H1024 0.929 . S
C1028 C1030 1.378 . S
C1028 C1032 1.350 . S
C1029 C1032 1.463 . S
C1029 C1034 1.350 . S
C1029 N1037 1.427 . S
C1030 H1021 0.930 . S
C1030 C1028 1.378 . S
C1030 C1031 1.367 . S
C1031 C1030 1.367 . S
C1031 C1033 1.433 . S
C1032 C1028 1.350 . S
C1032 C1029 1.463 . S
C1032 N1036 1.427 . S
C1033 H1023 0.929 . S
C1033 C1031 1.433 . S
C1033 N1036 1.384 . S
C1034 H1025 0.929 . S
C1034 C1026 1.378 . S
C1034 C1029 1.350 . S
C1035 H1022 0.929 . S
C1035 C1027 1.433 . S
C1035 N1037 1.384 . S
N1036 C1032 1.427 . S
N1036 C1033 1.384 . S
N1037 C1029 1.427 . S
N1037 C1035 1.384 . S
H1038 C1044 0.930 . S
H1039 C1048 0.930 . S
H1040 C1053 0.929 . S
H1041 C1051 0.929 . S
H1042 C1046 0.929 . S
H1043 C1052 0.929 . S
C1044 H1038 0.930 . S
C1044 C1045 1.367 . S
C1044 C1052 1.378 . S
C1045 C1044 1.367 . S
C1045 C1053 1.433 . S
C1046 H1042 0.929 . S
C1046 C1048 1.378 . S
C1046 C1050 1.350 . S
C1047 C1050 1.463 . S
C1047 C1052 1.350 . S
C1047 N1055 1.427 . S
C1048 H1039 0.930 . S
C1048 C1046 1.378 . S
C1048 C1049 1.367 . S
C1049 C1048 1.367 . S
C1049 C1051 1.433 . S
C1050 C1046 1.350 . S
C1050 C1047 1.463 . S
C1050 N1054 1.427 . S
C1051 H1041 0.929 . S
C1051 C1049 1.433 . S
C1051 N1054 1.384 . S
C1052 H1043 0.929 . S
C1052 C1044 1.378 . S
C1052 C1047 1.350 . S
C1053 H1040 0.929 . S
C1053 C1045 1.433 . S
C1053 N1055 1.384 . S
N1054 C1050 1.427 . S
N1054 C1051 1.384 . S
N1055 C1047 1.427 . S
N1055 C1053 1.384 . S
H1056 C1062 0.930 . S
H1057 C1066 0.930 . S
H1058 C1071 0.929 . S
H1059 C1069 0.929 . S
H1060 C1064 0.929 . S
H1061 C1070 0.929 . S
C1062 H1056 0.930 . S
C1062 C1063 1.367 . S
C1062 C1070 1.378 . S
C1063 C1062 1.367 . S
C1063 C1071 1.433 . S
C1064 H1060 0.929 . S
C1064 C1066 1.378 . S
C1064 C1068 1.350 . S
C1065 C1068 1.463 . S
C1065 C1070 1.350 . S
C1065 N1073 1.427 . S
C1066 H1057 0.930 . S
C1066 C1064 1.378 . S
C1066 C1067 1.367 . S
C1067 C1066 1.367 . S
C1067 C1069 1.433 . S
C1068 C1064 1.350 . S
C1068 C1065 1.463 . S
C1068 N1072 1.427 . S
C1069 H1059 0.929 . S
C1069 C1067 1.433 . S
C1069 N1072 1.384 . S
C1070 H1061 0.929 . S
C1070 C1062 1.378 . S
C1070 C1065 1.350 . S
C1071 H1058 0.929 . S
C1071 C1063 1.433 . S
C1071 N1073 1.384 . S
N1072 C1068 1.427 . S
N1072 C1069 1.384 . S
N1073 C1065 1.427 . S
N1073 C1071 1.384 . S
H1074 C1080 0.930 . S
H1075 C1084 0.930 . S
H1076 C1089 0.929 . S
H1077 C1087 0.929 . S
H1078 C1082 0.929 . S
H1079 C1088 0.929 . S
C1080 H1074 0.930 . S
C1080 C1081 1.367 . S
C1080 C1088 1.378 . S
C1081 C1080 1.367 . S
C1081 C1089 1.433 . S
C1082 H1078 0.929 . S
C1082 C1084 1.378 . S
C1082 C1086 1.350 . S
C1083 C1086 1.463 . S
C1083 C1088 1.350 . S
C1083 N1091 1.427 . S
C1084 H1075 0.930 . S
C1084 C1082 1.378 . S
C1084 C1085 1.367 . S
C1085 C1084 1.367 . S
C1085 C1087 1.433 . S
C1086 C1082 1.350 . S
C1086 C1083 1.463 . S
C1086 N1090 1.427 . S
C1087 H1077 0.929 . S
C1087 C1085 1.433 . S
C1087 N1090 1.384 . S
C1088 H1079 0.929 . S
C1088 C1080 1.378 . S
C1088 C1083 1.350 . S
C1089 H1076 0.929 . S
C1089 C1081 1.433 . S
C1089 N1091 1.384 . S
N1090 C1086 1.427 . S
N1090 C1087 1.384 . S
N1091 C1083 1.427 . S
N1091 C1089 1.384 . S
H1092 C1098 0.930 . S
H1093 C1102 0.930 . S
H1094 C1107 0.929 . S
H1095 C1105 0.929 . S
H1096 C1100 0.929 . S
H1097 C1106 0.929 . S
C1098 H1092 0.930 . S
C1098 C1099 1.367 . S
C1098 C1106 1.378 . S
C1099 C1098 1.367 . S
C1099 C1107 1.433 . S
C1100 H1096 0.929 . S
C1100 C1102 1.378 . S
C1100 C1104 1.350 . S
C1101 C1104 1.463 . S
C1101 C1106 1.350 . S
C1101 N1109 1.427 . S
C1102 H1093 0.930 . S
C1102 C1100 1.378 . S
C1102 C1103 1.367 . S
C1103 C1102 1.367 . S
C1103 C1105 1.433 . S
C1104 C1100 1.350 . S
C1104 C1101 1.463 . S
C1104 N1108 1.427 . S
C1105 H1095 0.929 . S
C1105 C1103 1.433 . S
C1105 N1108 1.384 . S
C1106 H1097 0.929 . S
C1106 C1098 1.378 . S
C1106 C1101 1.350 . S
C1107 H1094 0.929 . S
C1107 C1099 1.433 . S
C1107 N1109 1.384 . S
N1108 C1104 1.427 . S
N1108 C1105 1.384 . S
N1109 C1101 1.427 . S
N1109 C1107 1.384 . S
H1110 C1116 0.930 . S
H1111 C1120 0.930 . S
H1112 C1125 0.929 1_565 S
H1113 C1123 0.929 . S
H1114 C1118 0.929 . S
H1115 C1124 0.929 . S
C1116 H1110 0.930 . S
C1116 C1117 1.367 . S
C1116 C1124 1.378 . S
C1117 C1116 1.367 . S
C1117 C1125 1.433 . S
C1118 H1114 0.929 . S
C1118 C1120 1.378 . S
C1118 C1122 1.350 . S
C1119 C1122 1.463 1_556 S
C1119 C1124 1.350 . S
C1119 N1127 1.427 . S
C1120 H1111 0.930 . S
C1120 C1118 1.378 . S
C1120 C1121 1.367 . S
C1121 C1120 1.367 . S
C1121 C1123 1.433 . S
C1122 C1118 1.350 . S
C1122 C1119 1.463 1_554 S
C1122 N1126 1.427 . S
C1123 H1113 0.929 . S
C1123 C1121 1.433 . S
C1123 N1126 1.384 . S
C1124 H1115 0.929 . S
C1124 C1116 1.378 . S
C1124 C1119 1.350 . S
C1125 H1112 0.929 1_545 S
C1125 C1117 1.433 . S
C1125 N1127 1.384 . S
N1126 C1122 1.427 . S
N1126 C1123 1.384 . S
N1127 C1119 1.427 . S
N1127 C1125 1.384 . S
H1128 C1134 0.930 . S
H1129 C1138 0.930 . S
H1130 C1143 0.929 . S
H1131 C1141 0.929 . S
H1132 C1136 0.929 . S
H1133 C1142 0.929 . S
C1134 H1128 0.930 . S
C1134 C1135 1.367 . S
C1134 C1142 1.378 . S
C1135 C1134 1.367 . S
C1135 C1143 1.433 . S
C1136 H1132 0.929 . S
C1136 C1138 1.378 . S
C1136 C1140 1.350 . S
C1137 C1140 1.463 . S
C1137 C1142 1.350 . S
C1137 N1145 1.427 . S
C1138 H1129 0.930 . S
C1138 C1136 1.378 . S
C1138 C1139 1.367 . S
C1139 C1138 1.367 . S
C1139 C1141 1.433 . S
C1140 C1136 1.350 . S
C1140 C1137 1.463 . S
C1140 N1144 1.427 . S
C1141 H1131 0.929 . S
C1141 C1139 1.433 . S
C1141 N1144 1.384 . S
C1142 H1133 0.929 . S
C1142 C1134 1.378 . S
C1142 C1137 1.350 . S
C1143 H1130 0.929 . S
C1143 C1135 1.433 . S
C1143 N1145 1.384 . S
N1144 C1140 1.427 . S
N1144 C1141 1.384 . S
N1145 C1137 1.427 . S
N1145 C1143 1.384 . S
H1146 C1152 0.930 . S
H1147 C1156 0.930 . S
H1148 C1161 0.929 . S
H1149 C1159 0.929 . S
H1150 C1154 0.929 . S
H1151 C1160 0.929 . S
C1152 H1146 0.930 . S
C1152 C1153 1.367 . S
C1152 C1160 1.378 . S
C1153 C1152 1.367 . S
C1153 C1161 1.433 . S
C1154 H1150 0.929 . S
C1154 C1156 1.378 . S
C1154 C1158 1.350 . S
C1155 C1158 1.463 . S
C1155 C1160 1.350 . S
C1155 N1163 1.427 . S
C1156 H1147 0.930 . S
C1156 C1154 1.378 . S
C1156 C1157 1.367 . S
C1157 C1156 1.367 . S
C1157 C1159 1.433 . S
C1158 C1154 1.350 . S
C1158 C1155 1.463 . S
C1158 N1162 1.427 . S
C1159 H1149 0.929 . S
C1159 C1157 1.433 . S
C1159 N1162 1.384 . S
C1160 H1151 0.929 . S
C1160 C1152 1.378 . S
C1160 C1155 1.350 . S
C1161 H1148 0.929 . S
C1161 C1153 1.433 . S
C1161 N1163 1.384 . S
N1162 C1158 1.427 . S
N1162 C1159 1.384 . S
N1163 C1155 1.427 . S
N1163 C1161 1.384 . S
H1164 C1170 0.930 . S
H1165 C1174 0.930 . S
H1166 C1179 0.929 . S
H1167 C1177 0.929 . S
H1168 C1172 0.929 . S
H1169 C1178 0.929 . S
C1170 H1164 0.930 . S
C1170 C1171 1.367 . S
C1170 C1178 1.378 . S
C1171 C1170 1.367 . S
C1171 C1179 1.433 . S
C1172 H1168 0.929 . S
C1172 C1174 1.378 . S
C1172 C1176 1.350 . S
C1173 C1176 1.463 . S
C1173 C1178 1.350 . S
C1173 N1181 1.427 . S
C1174 H1165 0.930 . S
C1174 C1172 1.378 . S
C1174 C1175 1.367 . S
C1175 C1174 1.367 . S
C1175 C1177 1.433 . S
C1176 C1172 1.350 . S
C1176 C1173 1.463 . S
C1176 N1180 1.427 . S
C1177 H1167 0.929 . S
C1177 C1175 1.433 . S
C1177 N1180 1.384 . S
C1178 H1169 0.929 . S
C1178 C1170 1.378 . S
C1178 C1173 1.350 . S
C1179 H1166 0.929 . S
C1179 C1171 1.433 . S
C1179 N1181 1.384 . S
N1180 C1176 1.427 . S
N1180 C1177 1.384 . S
N1181 C1173 1.427 . S
N1181 C1179 1.384 . S
H1182 C1188 0.930 . S
H1183 C1192 0.930 . S
H1184 C1197 0.966 . S
H1185 C1195 0.929 . S
H1186 C1190 0.929 . S
H1187 C1196 0.929 . S
C1188 H1182 0.930 . S
C1188 C1189 1.367 . S
C1188 C1196 1.378 . S
C1189 C1188 1.367 . S
C1189 C1197 1.433 . S
C1190 H1186 0.929 . S
C1190 C1192 1.378 . S
C1190 C1194 1.350 . S
C1191 C1194 1.463 1_554 S
C1191 C1196 1.350 . S
C1191 N1199 1.427 . S
C1192 H1183 0.930 . S
C1192 C1190 1.378 . S
C1192 C1193 1.367 . S
C1193 C1192 1.367 . S
C1193 C1195 1.433 . S
C1194 C1190 1.350 . S
C1194 C1191 1.463 1_556 S
C1194 N1198 1.427 . S
C1195 H1185 0.929 . S
C1195 C1193 1.433 . S
C1195 N1198 1.384 . S
C1196 H1187 0.929 . S
C1196 C1188 1.378 . S
C1196 C1191 1.350 . S
C1197 H1184 0.966 . S
C1197 C1189 1.433 . S
C1197 N1199 1.384 . S
N1198 C1194 1.427 . S
N1198 C1195 1.384 . S
N1199 C1191 1.427 . S
N1199 C1197 1.384 . S
H1200 C1206 0.930 . S
H1201 C1210 0.930 . S
H1202 C1215 0.929 . S
H1203 C1213 0.929 . S
H1204 C1208 0.929 . S
H1205 C1214 0.929 . S
C1206 H1200 0.930 . S
C1206 C1207 1.367 . S
C1206 C1214 1.378 . S
C1207 C1206 1.367 . S
C1207 C1215 1.433 . S
C1208 H1204 0.929 . S
C1208 C1210 1.378 . S
C1208 C1212 1.350 . S
C1209 C1212 1.463 . S
C1209 C1214 1.350 . S
C1209 N1217 1.427 . S
C1210 H1201 0.930 . S
C1210 C1208 1.378 . S
C1210 C1211 1.367 . S
C1211 C1210 1.367 . S
C1211 C1213 1.433 . S
C1212 C1208 1.350 . S
C1212 C1209 1.463 . S
C1212 N1216 1.427 . S
C1213 H1203 0.929 . S
C1213 C1211 1.433 . S
C1213 N1216 1.384 . S
C1214 H1205 0.929 . S
C1214 C1206 1.378 . S
C1214 C1209 1.350 . S
C1215 H1202 0.929 . S
C1215 C1207 1.433 . S
C1215 N1217 1.384 . S
N1216 C1212 1.427 . S
N1216 C1213 1.384 . S
N1217 C1209 1.427 . S
N1217 C1215 1.384 . S
H1218 C1224 0.930 1_655 S
H1219 C1228 0.930 . S
H1220 C1233 0.929 . S
H1221 C1231 0.929 . S
H1222 C1226 0.929 . S
H1223 C1232 0.929 . S
C1224 H1218 0.930 1_455 S
C1224 C1225 1.367 . S
C1224 C1232 1.378 . S
C1225 C1224 1.367 . S
C1225 C1233 1.433 . S
C1226 H1222 0.929 . S
C1226 C1228 1.378 . S
C1226 C1230 1.350 . S
C1227 C1230 1.463 1_565 S
C1227 C1232 1.350 . S
C1227 N1235 1.427 . S
C1228 H1219 0.930 . S
C1228 C1226 1.378 . S
C1228 C1229 1.367 . S
C1229 C1228 1.367 . S
C1229 C1231 1.433 . S
C1230 C1226 1.350 . S
C1230 C1227 1.463 1_545 S
C1230 N1234 1.427 . S
C1231 H1221 0.929 . S
C1231 C1229 1.433 . S
C1231 N1234 1.384 . S
C1232 H1223 0.929 . S
C1232 C1224 1.378 . S
C1232 C1227 1.350 . S
C1233 H1220 0.929 . S
C1233 C1225 1.433 . S
C1233 N1235 1.384 . S
N1234 C1230 1.427 . S
N1234 C1231 1.384 . S
N1235 C1227 1.427 . S
N1235 C1233 1.384 . S
H1236 C1242 0.930 . S
H1237 C1246 0.930 . S
H1238 C1251 0.929 . S
H1239 C1249 0.929 . S
H1240 C1244 0.929 . S
H1241 C1250 0.929 . S
C1242 H1236 0.930 . S
C1242 C1243 1.367 . S
C1242 C1250 1.378 . S
C1243 C1242 1.367 . S
C1243 C1251 1.433 . S
C1244 H1240 0.929 . S
C1244 C1246 1.378 . S
C1244 C1248 1.350 . S
C1245 C1248 1.463 . S
C1245 C1250 1.350 . S
C1245 N1253 1.427 . S
C1246 H1237 0.930 . S
C1246 C1244 1.378 . S
C1246 C1247 1.367 . S
C1247 C1246 1.367 . S
C1247 C1249 1.433 . S
C1248 C1244 1.350 . S
C1248 C1245 1.463 . S
C1248 N1252 1.427 . S
C1249 H1239 0.929 . S
C1249 C1247 1.433 . S
C1249 N1252 1.384 . S
C1250 H1241 0.929 . S
C1250 C1242 1.378 . S
C1250 C1245 1.350 . S
C1251 H1238 0.929 . S
C1251 C1243 1.433 . S
C1251 N1253 1.384 . S
N1252 C1248 1.427 . S
N1252 C1249 1.384 . S
N1253 C1245 1.427 . S
N1253 C1251 1.384 . S
H1254 C1260 0.930 . S
H1255 C1264 0.930 . S
H1256 C1269 0.929 . S
H1257 C1267 0.929 . S
H1258 C1262 0.929 . S
H1259 C1268 0.929 . S
C1260 H1254 0.930 . S
C1260 C1261 1.367 . S
C1260 C1268 1.378 . S
C1261 C1260 1.367 . S
C1261 C1269 1.433 . S
C1262 H1258 0.929 . S
C1262 C1264 1.378 . S
C1262 C1266 1.350 . S
C1263 C1266 1.463 1_545 S
C1263 C1268 1.350 . S
C1263 N1271 1.427 . S
C1264 H1255 0.930 . S
C1264 C1262 1.378 . S
C1264 C1265 1.367 . S
C1265 C1264 1.367 . S
C1265 C1267 1.433 . S
C1266 C1262 1.350 . S
C1266 C1263 1.463 1_565 S
C1266 N1270 1.427 . S
C1267 H1257 0.929 . S
C1267 C1265 1.433 . S
C1267 N1270 1.384 . S
C1268 H1259 0.929 . S
C1268 C1260 1.378 . S
C1268 C1263 1.350 . S
C1269 H1256 0.929 . S
C1269 C1261 1.433 . S
C1269 N1271 1.384 . S
N1270 C1266 1.427 . S
N1270 C1267 1.384 . S
N1271 C1263 1.427 . S
N1271 C1269 1.384 . S
H1272 C1278 0.930 . S
H1273 C1282 0.930 . S
H1274 C1287 0.929 . S
H1275 C1285 0.929 . S
H1276 C1280 0.929 . S
H1277 C1286 0.929 . S
C1278 H1272 0.930 . S
C1278 C1279 1.367 . S
C1278 C1286 1.378 . S
C1279 C1278 1.367 . S
C1279 C1287 1.433 . S
C1280 H1276 0.929 . S
C1280 C1282 1.378 . S
C1280 C1284 1.350 . S
C1281 C1284 1.463 . S
C1281 C1286 1.350 . S
C1281 N1289 1.427 . S
C1282 H1273 0.930 . S
C1282 C1280 1.378 . S
C1282 C1283 1.367 . S
C1283 C1282 1.367 . S
C1283 C1285 1.433 . S
C1284 C1280 1.350 . S
C1284 C1281 1.463 . S
C1284 N1288 1.427 . S
C1285 H1275 0.929 . S
C1285 C1283 1.433 . S
C1285 N1288 1.384 . S
C1286 H1277 0.929 . S
C1286 C1278 1.378 . S
C1286 C1281 1.350 . S
C1287 H1274 0.929 . S
C1287 C1279 1.433 . S
C1287 N1289 1.384 . S
N1288 C1284 1.427 . S
N1288 C1285 1.384 . S
N1289 C1281 1.427 . S
N1289 C1287 1.384 . S
H1290 C1296 0.930 . S
H1291 C1300 0.930 . S
H1292 C1305 0.929 . S
H1293 C1303 0.929 . S
H1294 C1298 0.929 . S
H1295 C1304 0.929 . S
C1296 H1290 0.930 . S
C1296 C1297 1.367 . S
C1296 C1304 1.378 . S
C1297 C1296 1.367 . S
C1297 C1305 1.433 . S
C1298 H1294 0.929 . S
C1298 C1300 1.378 . S
C1298 C1302 1.350 . S
C1299 C1302 1.463 1_565 S
C1299 C1304 1.350 . S
C1299 N1307 1.427 . S
C1300 H1291 0.930 . S
C1300 C1298 1.378 . S
C1300 C1301 1.367 . S
C1301 C1300 1.367 . S
C1301 C1303 1.433 . S
C1302 C1298 1.350 . S
C1302 C1299 1.463 1_545 S
C1302 N1306 1.427 . S
C1303 H1293 0.929 . S
C1303 C1301 1.433 . S
C1303 N1306 1.384 . S
C1304 H1295 0.929 . S
C1304 C1296 1.378 . S
C1304 C1299 1.350 . S
C1305 H1292 0.929 . S
C1305 C1297 1.433 . S
C1305 N1307 1.384 . S
N1306 C1302 1.427 . S
N1306 C1303 1.384 . S
N1307 C1299 1.427 . S
N1307 C1305 1.384 . S
H1308 C1314 0.930 . S
H1309 C1318 0.930 . S
H1310 C1323 0.929 . S
H1311 C1321 0.929 . S
H1312 C1316 0.929 . S
H1313 C1322 0.929 . S
C1314 H1308 0.930 . S
C1314 C1315 1.367 . S
C1314 C1322 1.378 . S
C1315 C1314 1.367 . S
C1315 C1323 1.433 . S
C1316 H1312 0.929 . S
C1316 C1318 1.378 . S
C1316 C1320 1.350 . S
C1317 C1320 1.463 . S
C1317 C1322 1.350 . S
C1317 N1325 1.427 . S
C1318 H1309 0.930 . S
C1318 C1316 1.378 . S
C1318 C1319 1.367 . S
C1319 C1318 1.367 . S
C1319 C1321 1.433 . S
C1320 C1316 1.350 . S
C1320 C1317 1.463 . S
C1320 N1324 1.427 . S
C1321 H1311 0.929 . S
C1321 C1319 1.433 . S
C1321 N1324 1.384 . S
C1322 H1313 0.929 . S
C1322 C1314 1.378 . S
C1322 C1317 1.350 . S
C1323 H1310 0.929 . S
C1323 C1315 1.433 . S
C1323 N1325 1.384 . S
N1324 C1320 1.427 . S
N1324 C1321 1.384 . S
N1325 C1317 1.427 . S
N1325 C1323 1.384 . S
H1326 C1332 0.930 . S
H1327 C1336 0.930 . S
H1328 C1341 0.929 . S
H1329 C1339 0.929 . S
H1330 C1334 0.929 . S
H1331 C1340 0.929 . S
C1332 H1326 0.930 . S
C1332 C1333 1.367 . S
C1332 C1340 1.378 . S
C1333 C1332 1.367 . S
C1333 C1341 1.433 . S
C1334 H1330 0.929 . S
C1334 C1336 1.378 . S
C1334 C1338 1.350 . S
C1335 C1338 1.463 1_565 S
C1335 C1340 1.350 . S
C1335 N1343 1.427 . S
C1336 H1327 0.930 . S
C1336 C1334 1.378 . S
C1336 C1337 1.367 . S
C1337 C1336 1.367 . S
C1337 C1339 1.433 . S
C1338 C1334 1.350 . S
C1338 C1335 1.463 1_545 S
C1338 N1342 1.427 . S
C1339 H1329 0.929 . S
C1339 C1337 1.433 . S
C1339 N1342 1.384 . S
C1340 H1331 0.929 . S
C1340 C1332 1.378 . S
C1340 C1335 1.350 . S
C1341 H1328 0.929 . S
C1341 C1333 1.433 . S
C1341 N1343 1.384 . S
N1342 C1338 1.427 . S
N1342 C1339 1.384 . S
N1343 C1335 1.427 . S
N1343 C1341 1.384 . S
H1344 C1350 0.930 . S
H1345 C1354 0.930 . S
H1346 C1359 0.929 . S
H1347 C1357 0.929 . S
H1348 C1352 0.929 . S
H1349 C1358 0.929 . S
C1350 H1344 0.930 . S
C1350 C1351 1.367 . S
C1350 C1358 1.378 . S
C1351 C1350 1.367 . S
C1351 C1359 1.433 . S
C1352 H1348 0.929 . S
C1352 C1354 1.378 . S
C1352 C1356 1.350 . S
C1353 C1356 1.463 . S
C1353 C1358 1.350 . S
C1353 N1361 1.427 . S
C1354 H1345 0.930 . S
C1354 C1352 1.378 . S
C1354 C1355 1.367 . S
C1355 C1354 1.367 . S
C1355 C1357 1.433 . S
C1356 C1352 1.350 . S
C1356 C1353 1.463 . S
C1356 N1360 1.427 . S
C1357 H1347 0.929 . S
C1357 C1355 1.433 . S
C1357 N1360 1.384 . S
C1358 H1349 0.929 . S
C1358 C1350 1.378 . S
C1358 C1353 1.350 . S
C1359 H1346 0.929 . S
C1359 C1351 1.433 . S
C1359 N1361 1.384 . S
N1360 C1356 1.427 . S
N1360 C1357 1.384 . S
N1361 C1353 1.427 . S
N1361 C1359 1.384 . S
H1362 C1368 0.930 . S
H1363 C1372 0.930 . S
H1364 C1377 0.929 . S
H1365 C1375 0.929 . S
H1366 C1370 0.929 . S
H1367 C1376 0.929 . S
C1368 H1362 0.930 . S
C1368 C1369 1.367 . S
C1368 C1376 1.378 . S
C1369 C1368 1.367 . S
C1369 C1377 1.433 . S
C1370 H1366 0.929 . S
C1370 C1372 1.378 . S
C1370 C1374 1.350 . S
C1371 C1374 1.463 . S
C1371 C1376 1.350 . S
C1371 N1379 1.427 . S
C1372 H1363 0.930 . S
C1372 C1370 1.378 . S
C1372 C1373 1.367 . S
C1373 C1372 1.367 . S
C1373 C1375 1.433 . S
C1374 C1370 1.350 . S
C1374 C1371 1.463 . S
C1374 N1378 1.427 . S
C1375 H1365 0.929 . S
C1375 C1373 1.433 . S
C1375 N1378 1.384 . S
C1376 H1367 0.929 . S
C1376 C1368 1.378 . S
C1376 C1371 1.350 . S
C1377 H1364 0.929 . S
C1377 C1369 1.433 . S
C1377 N1379 1.384 . S
N1378 C1374 1.427 . S
N1378 C1375 1.384 . S
N1379 C1371 1.427 . S
N1379 C1377 1.384 . S
H1380 C1386 0.930 . S
H1381 C1390 0.930 . S
H1382 C1395 0.929 1_556 S
H1383 C1393 0.929 . S
H1384 C1388 0.929 . S
H1385 C1394 0.929 . S
C1386 H1380 0.930 . S
C1386 C1387 1.367 . S
C1386 C1394 1.378 . S
C1387 C1386 1.367 . S
C1387 C1395 1.433 . S
C1388 H1384 0.929 . S
C1388 C1390 1.378 . S
C1388 C1392 1.350 . S
C1389 C1392 1.463 1_655 S
C1389 C1394 1.350 . S
C1389 N1397 1.427 . S
C1390 H1381 0.930 . S
C1390 C1388 1.378 . S
C1390 C1391 1.367 . S
C1391 C1390 1.367 . S
C1391 C1393 1.433 . S
C1392 C1388 1.350 . S
C1392 C1389 1.463 1_455 S
C1392 N1396 1.427 . S
C1393 H1383 0.929 . S
C1393 C1391 1.433 . S
C1393 N1396 1.384 . S
C1394 H1385 0.929 . S
C1394 C1386 1.378 . S
C1394 C1389 1.350 . S
C1395 H1382 0.929 1_554 S
C1395 C1387 1.433 . S
C1395 N1397 1.384 . S
N1396 C1392 1.427 . S
N1396 C1393 1.384 . S
N1397 C1389 1.427 . S
N1397 C1395 1.384 . S
H1398 C1404 0.930 . S
H1399 C1408 0.930 . S
H1400 C1413 0.929 . S
H1401 C1411 0.929 . S
H1402 C1406 0.929 . S
H1403 C1412 0.929 . S
C1404 H1398 0.930 . S
C1404 C1405 1.367 . S
C1404 C1412 1.378 . S
C1405 C1404 1.367 . S
C1405 C1413 1.433 . S
C1406 H1402 0.929 . S
C1406 C1408 1.378 . S
C1406 C1410 1.350 . S
C1407 C1410 1.463 . S
C1407 C1412 1.350 . S
C1407 N1415 1.427 . S
C1408 H1399 0.930 . S
C1408 C1406 1.378 . S
C1408 C1409 1.367 . S
C1409 C1408 1.367 . S
C1409 C1411 1.433 . S
C1410 C1406 1.350 . S
C1410 C1407 1.463 . S
C1410 N1414 1.427 . S
C1411 H1401 0.929 . S
C1411 C1409 1.433 . S
C1411 N1414 1.384 . S
C1412 H1403 0.929 . S
C1412 C1404 1.378 . S
C1412 C1407 1.350 . S
C1413 H1400 0.929 . S
C1413 C1405 1.433 . S
C1413 N1415 1.384 . S
N1414 C1410 1.427 . S
N1414 C1411 1.384 . S
N1415 C1407 1.427 . S
N1415 C1413 1.384 . S
H1416 C1422 0.930 . S
H1417 C1426 0.930 . S
H1418 C1431 0.929 . S
H1419 C1429 0.929 . S
H1420 C1424 0.929 . S
H1421 C1430 0.929 . S
C1422 H1416 0.930 . S
C1422 C1423 1.367 . S
C1422 C1430 1.378 . S
C1423 C1422 1.367 . S
C1423 C1431 1.433 . S
C1424 H1420 0.929 . S
C1424 C1426 1.378 . S
C1424 C1428 1.350 . S
C1425 C1428 1.463 1_455 S
C1425 C1430 1.350 . S
C1425 N1433 1.427 . S
C1426 H1417 0.930 . S
C1426 C1424 1.378 . S
C1426 C1427 1.367 . S
C1427 C1426 1.367 . S
C1427 C1429 1.433 . S
C1428 C1424 1.350 . S
C1428 C1425 1.463 1_655 S
C1428 N1432 1.427 . S
C1429 H1419 0.929 . S
C1429 C1427 1.433 . S
C1429 N1432 1.384 . S
C1430 H1421 0.929 . S
C1430 C1422 1.378 . S
C1430 C1425 1.350 . S
C1431 H1418 0.929 . S
C1431 C1423 1.433 . S
C1431 N1433 1.384 . S
N1432 C1428 1.427 . S
N1432 C1429 1.384 . S
N1433 C1425 1.427 . S
N1433 C1431 1.384 . S
H1434 C1440 0.930 . S
H1435 C1444 0.930 . S
H1436 C1449 0.929 . S
H1437 C1447 0.929 . S
H1438 C1442 0.929 . S
H1439 C1448 0.929 . S
C1440 H1434 0.930 . S
C1440 C1441 1.367 . S
C1440 C1448 1.378 . S
C1441 C1440 1.367 . S
C1441 C1449 1.433 . S
C1442 H1438 0.929 . S
C1442 C1444 1.378 . S
C1442 C1446 1.350 . S
C1443 C1446 1.463 . S
C1443 C1448 1.350 . S
C1443 N1451 1.427 . S
C1444 H1435 0.930 . S
C1444 C1442 1.378 . S
C1444 C1445 1.367 . S
C1445 C1444 1.367 . S
C1445 C1447 1.433 . S
C1446 C1442 1.350 . S
C1446 C1443 1.463 . S
C1446 N1450 1.427 . S
C1447 H1437 0.929 . S
C1447 C1445 1.433 . S
C1447 N1450 1.384 . S
C1448 H1439 0.929 . S
C1448 C1440 1.378 . S
C1448 C1443 1.350 . S
C1449 H1436 0.929 . S
C1449 C1441 1.433 . S
C1449 N1451 1.384 . S
N1450 C1446 1.427 . S
N1450 C1447 1.384 . S
N1451 C1443 1.427 . S
N1451 C1449 1.384 . S
H1452 C1458 0.930 . S
H1453 C1462 0.930 . S
H1454 C1467 0.929 . S
H1455 C1465 0.929 . S
H1456 C1460 0.929 . S
H1457 C1466 0.929 . S
C1458 H1452 0.930 . S
C1458 C1459 1.367 . S
C1458 C1466 1.378 . S
C1459 C1458 1.367 . S
C1459 C1467 1.433 . S
C1460 H1456 0.929 . S
C1460 C1462 1.378 . S
C1460 C1464 1.350 . S
C1461 C1464 1.463 1_655 S
C1461 C1466 1.350 . S
C1461 N1469 1.427 . S
C1462 H1453 0.930 . S
C1462 C1460 1.378 . S
C1462 C1463 1.367 . S
C1463 C1462 1.367 . S
C1463 C1465 1.433 . S
C1464 C1460 1.350 . S
C1464 C1461 1.463 1_455 S
C1464 N1468 1.427 . S
C1465 H1455 0.929 . S
C1465 C1463 1.433 . S
C1465 N1468 1.384 . S
C1466 H1457 0.929 . S
C1466 C1458 1.378 . S
C1466 C1461 1.350 . S
C1467 H1454 0.929 . S
C1467 C1459 1.433 . S
C1467 N1469 1.384 . S
N1468 C1464 1.427 . S
N1468 C1465 1.384 . S
N1469 C1461 1.427 . S
N1469 C1467 1.384 . S
H1470 C1476 0.930 . S
H1471 C1480 0.930 . S
H1472 C1485 0.929 . S
H1473 C1483 0.929 . S
H1474 C1478 0.929 . S
H1475 C1484 0.929 . S
C1476 H1470 0.930 . S
C1476 C1477 1.367 . S
C1476 C1484 1.378 . S
C1477 C1476 1.367 . S
C1477 C1485 1.433 . S
C1478 H1474 0.929 . S
C1478 C1480 1.378 . S
C1478 C1482 1.350 . S
C1479 C1482 1.463 . S
C1479 C1484 1.350 . S
C1479 N1487 1.427 . S
C1480 H1471 0.930 . S
C1480 C1478 1.378 . S
C1480 C1481 1.367 . S
C1481 C1480 1.367 . S
C1481 C1483 1.433 . S
C1482 C1478 1.350 . S
C1482 C1479 1.463 . S
C1482 N1486 1.427 . S
C1483 H1473 0.929 . S
C1483 C1481 1.433 . S
C1483 N1486 1.384 . S
C1484 H1475 0.929 . S
C1484 C1476 1.378 . S
C1484 C1479 1.350 . S
C1485 H1472 0.929 . S
C1485 C1477 1.433 . S
C1485 N1487 1.384 . S
N1486 C1482 1.427 . S
N1486 C1483 1.384 . S
N1487 C1479 1.427 . S
N1487 C1485 1.384 . S
H1488 C1494 0.930 . S
H1489 C1498 0.930 . S
H1490 C1503 0.929 . S
H1491 C1501 0.929 . S
H1492 C1496 0.929 . S
H1493 C1502 0.929 . S
C1494 H1488 0.930 . S
C1494 C1495 1.367 . S
C1494 C1502 1.378 . S
C1495 C1494 1.367 . S
C1495 C1503 1.433 . S
C1496 H1492 0.929 . S
C1496 C1498 1.378 . S
C1496 C1500 1.350 . S
C1497 C1500 1.463 . S
C1497 C1502 1.350 . S
C1497 N1505 1.427 . S
C1498 H1489 0.930 . S
C1498 C1496 1.378 . S
C1498 C1499 1.367 . S
C1499 C1498 1.367 . S
C1499 C1501 1.433 . S
C1500 C1496 1.350 . S
C1500 C1497 1.463 . S
C1500 N1504 1.427 . S
C1501 H1491 0.929 . S
C1501 C1499 1.433 . S
C1501 N1504 1.384 . S
C1502 H1493 0.929 . S
C1502 C1494 1.378 . S
C1502 C1497 1.350 . S
C1503 H1490 0.929 . S
C1503 C1495 1.433 . S
C1503 N1505 1.384 . S
N1504 C1500 1.427 . S
N1504 C1501 1.384 . S
N1505 C1497 1.427 . S
N1505 C1503 1.384 . S
H1506 C1512 0.930 . S
H1507 C1516 0.930 . S
H1508 C1521 0.929 . S
H1509 C1519 0.929 . S
H1510 C1514 0.929 . S
H1511 C1520 0.929 . S
C1512 H1506 0.930 . S
C1512 C1513 1.367 . S
C1512 C1520 1.378 . S
C1513 C1512 1.367 . S
C1513 C1521 1.433 . S
C1514 H1510 0.929 . S
C1514 C1516 1.378 . S
C1514 C1518 1.350 . S
C1515 C1518 1.463 1_554 S
C1515 C1520 1.350 . S
C1515 N1523 1.427 . S
C1516 H1507 0.930 . S
C1516 C1514 1.378 . S
C1516 C1517 1.367 . S
C1517 C1516 1.367 . S
C1517 C1519 1.433 . S
C1518 C1514 1.350 . S
C1518 C1515 1.463 1_556 S
C1518 N1522 1.427 . S
C1519 H1509 0.929 . S
C1519 C1517 1.433 . S
C1519 N1522 1.384 . S
C1520 H1511 0.929 . S
C1520 C1512 1.378 . S
C1520 C1515 1.350 . S
C1521 H1508 0.929 . S
C1521 C1513 1.433 . S
C1521 N1523 1.384 . S
N1522 C1518 1.427 . S
N1522 C1519 1.384 . S
N1523 C1515 1.427 . S
N1523 C1521 1.384 . S
H1524 C1530 0.930 . S
H1525 C1534 0.930 . S
H1526 C1539 0.929 . S
H1527 C1537 0.929 . S
H1528 C1532 0.929 . S
H1529 C1538 0.929 . S
C1530 H1524 0.930 . S
C1530 C1531 1.367 . S
C1530 C1538 1.378 . S
C1531 C1530 1.367 . S
C1531 C1539 1.433 . S
C1532 H1528 0.929 . S
C1532 C1534 1.378 . S
C1532 C1536 1.350 . S
C1533 C1536 1.463 . S
C1533 C1538 1.350 . S
C1533 N1541 1.427 . S
C1534 H1525 0.930 . S
C1534 C1532 1.378 . S
C1534 C1535 1.367 . S
C1535 C1534 1.367 . S
C1535 C1537 1.433 . S
C1536 C1532 1.350 . S
C1536 C1533 1.463 . S
C1536 N1540 1.427 . S
C1537 H1527 0.929 . S
C1537 C1535 1.433 . S
C1537 N1540 1.384 . S
C1538 H1529 0.929 . S
C1538 C1530 1.378 . S
C1538 C1533 1.350 . S
C1539 H1526 0.929 . S
C1539 C1531 1.433 . S
C1539 N1541 1.384 . S
N1540 C1536 1.427 . S
N1540 C1537 1.384 . S
N1541 C1533 1.427 . S
N1541 C1539 1.384 . S
H1542 C1548 0.930 . S
H1543 C1552 0.930 . S
H1544 C1557 0.929 . S
H1545 C1555 0.929 . S
H1546 C1550 0.929 . S
H1547 C1556 0.929 . S
C1548 H1542 0.930 . S
C1548 C1549 1.367 . S
C1548 C1556 1.378 . S
C1549 C1548 1.367 . S
C1549 C1557 1.433 . S
C1550 H1546 0.929 . S
C1550 C1552 1.378 . S
C1550 C1554 1.350 . S
C1551 C1554 1.463 . S
C1551 C1556 1.350 . S
C1551 N1559 1.427 . S
C1552 H1543 0.930 . S
C1552 C1550 1.378 . S
C1552 C1553 1.367 . S
C1553 C1552 1.367 . S
C1553 C1555 1.433 . S
C1554 C1550 1.350 . S
C1554 C1551 1.463 . S
C1554 N1558 1.427 . S
C1555 H1545 0.929 . S
C1555 C1553 1.433 . S
C1555 N1558 1.384 . S
C1556 H1547 0.929 . S
C1556 C1548 1.378 . S
C1556 C1551 1.350 . S
C1557 H1544 0.929 . S
C1557 C1549 1.433 . S
C1557 N1559 1.384 . S
N1558 C1554 1.427 . S
N1558 C1555 1.384 . S
N1559 C1551 1.427 . S
N1559 C1557 1.384 . S
H1560 C1566 0.930 . S
H1561 C1570 0.930 . S
H1562 C1575 0.929 . S
H1563 C1573 0.929 . S
H1564 C1568 0.929 . S
H1565 C1574 0.929 . S
C1566 H1560 0.930 . S
C1566 C1567 1.367 . S
C1566 C1574 1.378 . S
C1567 C1566 1.367 . S
C1567 C1575 1.433 . S
C1568 H1564 0.929 . S
C1568 C1570 1.378 . S
C1568 C1572 1.350 . S
C1569 C1572 1.463 . S
C1569 C1574 1.350 . S
C1569 N1577 1.427 . S
C1570 H1561 0.930 . S
C1570 C1568 1.378 . S
C1570 C1571 1.367 . S
C1571 C1570 1.367 . S
C1571 C1573 1.433 . S
C1572 C1568 1.350 . S
C1572 C1569 1.463 . S
C1572 N1576 1.427 . S
C1573 H1563 0.929 . S
C1573 C1571 1.433 . S
C1573 N1576 1.384 . S
C1574 H1565 0.929 . S
C1574 C1566 1.378 . S
C1574 C1569 1.350 . S
C1575 H1562 0.929 . S
C1575 C1567 1.433 . S
C1575 N1577 1.384 . S
N1576 C1572 1.427 . S
N1576 C1573 1.384 . S
N1577 C1569 1.427 . S
N1577 C1575 1.384 . S
H1578 C1584 0.930 . S
H1579 C1588 0.930 . S
H1580 C1593 0.929 . S
H1581 C1591 0.929 . S
H1582 C1586 0.929 1_556 S
H1583 C1592 0.929 . S
C1584 H1578 0.930 . S
C1584 C1585 1.367 . S
C1584 C1592 1.378 . S
C1585 C1584 1.367 . S
C1585 C1593 1.433 . S
C1586 H1582 0.929 1_554 S
C1586 C1588 1.378 . S
C1586 C1590 1.350 . S
C1587 C1590 1.463 1_556 S
C1587 C1592 1.350 . S
C1587 N1595 1.427 . S
C1588 H1579 0.930 . S
C1588 C1586 1.378 . S
C1588 C1589 1.367 . S
C1589 C1588 1.367 . S
C1589 C1591 1.433 . S
C1590 C1586 1.350 . S
C1590 C1587 1.463 1_554 S
C1590 N1594 1.427 . S
C1591 H1581 0.929 . S
C1591 C1589 1.433 . S
C1591 N1594 1.384 . S
C1592 H1583 0.929 . S
C1592 C1584 1.378 . S
C1592 C1587 1.350 . S
C1593 H1580 0.929 . S
C1593 C1585 1.433 . S
C1593 N1595 1.384 . S
N1594 C1590 1.427 . S
N1594 C1591 1.384 . S
N1595 C1587 1.427 . S
N1595 C1593 1.384 . S
H1596 C1602 0.930 . S
H1597 C1606 0.930 . S
H1598 C1611 0.929 . S
H1599 C1609 0.929 . S
H1600 C1604 0.929 . S
H1601 C1610 0.929 . S
C1602 H1596 0.930 . S
C1602 C1603 1.367 . S
C1602 C1610 1.378 . S
C1603 C1602 1.367 . S
C1603 C1611 1.433 . S
C1604 H1600 0.929 . S
C1604 C1606 1.378 . S
C1604 C1608 1.350 . S
C1605 C1608 1.463 . S
C1605 C1610 1.350 . S
C1605 N1613 1.427 . S
C1606 H1597 0.930 . S
C1606 C1604 1.378 . S
C1606 C1607 1.367 . S
C1607 C1606 1.367 . S
C1607 C1609 1.433 . S
C1608 C1604 1.350 . S
C1608 C1605 1.463 . S
C1608 N1612 1.427 . S
C1609 H1599 0.929 . S
C1609 C1607 1.433 . S
C1609 N1612 1.384 . S
C1610 H1601 0.929 . S
C1610 C1602 1.378 . S
C1610 C1605 1.350 . S
C1611 H1598 0.929 . S
C1611 C1603 1.433 . S
C1611 N1613 1.384 . S
N1612 C1608 1.427 . S
N1612 C1609 1.384 . S
N1613 C1605 1.427 . S
N1613 C1611 1.384 . S
H1614 C1620 0.930 . S
H1615 C1624 0.930 . S
H1616 C1629 0.929 . S
H1617 C1627 0.929 . S
H1618 C1622 0.929 . S
H1619 C1628 0.929 . S
C1620 H1614 0.930 . S
C1620 C1621 1.367 . S
C1620 C1628 1.378 . S
C1621 C1620 1.367 . S
C1621 C1629 1.433 . S
C1622 H1618 0.929 . S
C1622 C1624 1.378 . S
C1622 C1626 1.350 . S
C1623 C1626 1.463 . S
C1623 C1628 1.350 . S
C1623 N1631 1.427 . S
C1624 H1615 0.930 . S
C1624 C1622 1.378 . S
C1624 C1625 1.367 . S
C1625 C1624 1.367 . S
C1625 C1627 1.433 . S
C1626 C1622 1.350 . S
C1626 C1623 1.463 . S
C1626 N1630 1.427 . S
C1627 H1617 0.929 . S
C1627 C1625 1.433 . S
C1627 N1630 1.384 . S
C1628 H1619 0.929 . S
C1628 C1620 1.378 . S
C1628 C1623 1.350 . S
C1629 H1616 0.929 . S
C1629 C1621 1.433 . S
C1629 N1631 1.384 . S
N1630 C1626 1.427 . S
N1630 C1627 1.384 . S
N1631 C1623 1.427 . S
N1631 C1629 1.384 . S
H1632 C1638 0.930 . S
H1633 C1642 0.930 . S
H1634 C1647 0.929 . S
H1635 C1645 0.929 . S
H1636 C1640 0.929 . S
H1637 C1646 0.929 . S
C1638 H1632 0.930 . S
C1638 C1639 1.367 . S
C1638 C1646 1.378 . S
C1639 C1638 1.367 . S
C1639 C1647 1.433 . S
C1640 H1636 0.929 . S
C1640 C1642 1.378 . S
C1640 C1644 1.350 . S
C1641 C1644 1.463 . S
C1641 C1646 1.350 . S
C1641 N1649 1.427 . S
C1642 H1633 0.930 . S
C1642 C1640 1.378 . S
C1642 C1643 1.367 . S
C1643 C1642 1.367 . S
C1643 C1645 1.433 . S
C1644 C1640 1.350 . S
C1644 C1641 1.463 . S
C1644 N1648 1.427 . S
C1645 H1635 0.929 . S
C1645 C1643 1.433 . S
C1645 N1648 1.384 . S
C1646 H1637 0.929 . S
C1646 C1638 1.378 . S
C1646 C1641 1.350 . S
C1647 H1634 0.929 . S
C1647 C1639 1.433 . S
C1647 N1649 1.384 . S
N1648 C1644 1.427 . S
N1648 C1645 1.384 . S
N1649 C1641 1.427 . S
N1649 C1647 1.384 . S
H1650 C1656 0.930 . S
H1651 C1660 0.930 . S
H1652 C1665 0.929 . S
H1653 C1663 0.929 . S
H1654 C1658 0.929 . S
H1655 C1664 0.929 . S
C1656 H1650 0.930 . S
C1656 C1657 1.367 . S
C1656 C1664 1.378 . S
C1657 C1656 1.367 . S
C1657 C1665 1.433 . S
C1658 H1654 0.929 . S
C1658 C1660 1.378 . S
C1658 C1662 1.350 . S
C1659 C1662 1.463 . S
C1659 C1664 1.350 . S
C1659 N1667 1.427 . S
C1660 H1651 0.930 . S
C1660 C1658 1.378 . S
C1660 C1661 1.367 . S
C1661 C1660 1.367 . S
C1661 C1663 1.433 . S
C1662 C1658 1.350 . S
C1662 C1659 1.463 . S
C1662 N1666 1.427 . S
C1663 H1653 0.929 . S
C1663 C1661 1.433 . S
C1663 N1666 1.384 . S
C1664 H1655 0.929 . S
C1664 C1656 1.378 . S
C1664 C1659 1.350 . S
C1665 H1652 0.929 . S
C1665 C1657 1.433 . S
C1665 N1667 1.384 . S
N1666 C1662 1.427 . S
N1666 C1663 1.384 . S
N1667 C1659 1.427 . S
N1667 C1665 1.384 . S
H1668 C1674 0.930 . S
H1669 C1678 0.930 . S
H1670 C1683 0.929 . S
H1671 C1681 0.929 . S
H1672 C1676 0.929 . S
H1673 C1682 0.929 . S
C1674 H1668 0.930 . S
C1674 C1675 1.367 . S
C1674 C1682 1.378 . S
C1675 C1674 1.367 . S
C1675 C1683 1.433 . S
C1676 H1672 0.929 . S
C1676 C1678 1.378 . S
C1676 C1680 1.350 . S
C1677 C1680 1.463 . S
C1677 C1682 1.350 . S
C1677 N1685 1.427 . S
C1678 H1669 0.930 . S
C1678 C1676 1.378 . S
C1678 C1679 1.367 . S
C1679 C1678 1.367 . S
C1679 C1681 1.433 . S
C1680 C1676 1.350 . S
C1680 C1677 1.463 . S
C1680 N1684 1.427 . S
C1681 H1671 0.929 . S
C1681 C1679 1.433 . S
C1681 N1684 1.384 . S
C1682 H1673 0.929 . S
C1682 C1674 1.378 . S
C1682 C1677 1.350 . S
C1683 H1670 0.929 . S
C1683 C1675 1.433 . S
C1683 N1685 1.384 . S
N1684 C1680 1.427 . S
N1684 C1681 1.384 . S
N1685 C1677 1.427 . S
N1685 C1683 1.384 . S
H1686 C1692 0.930 . S
H1687 C1696 0.930 . S
H1688 C1701 0.929 . S
H1689 C1699 0.929 . S
H1690 C1694 0.929 . S
H1691 C1700 0.929 . S
C1692 H1686 0.930 . S
C1692 C1693 1.367 . S
C1692 C1700 1.378 . S
C1693 C1692 1.367 . S
C1693 C1701 1.433 . S
C1694 H1690 0.929 . S
C1694 C1696 1.378 . S
C1694 C1698 1.350 . S
C1695 C1698 1.463 . S
C1695 C1700 1.350 . S
C1695 N1703 1.427 . S
C1696 H1687 0.930 . S
C1696 C1694 1.378 . S
C1696 C1697 1.367 . S
C1697 C1696 1.367 . S
C1697 C1699 1.433 . S
C1698 C1694 1.350 . S
C1698 C1695 1.463 . S
C1698 N1702 1.427 . S
C1699 H1689 0.929 . S
C1699 C1697 1.433 . S
C1699 N1702 1.384 . S
C1700 H1691 0.929 . S
C1700 C1692 1.378 . S
C1700 C1695 1.350 . S
C1701 H1688 0.929 . S
C1701 C1693 1.433 . S
C1701 N1703 1.384 . S
N1702 C1698 1.427 . S
N1702 C1699 1.384 . S
N1703 C1695 1.427 . S
N1703 C1701 1.384 . S
H1704 C1710 0.930 . S
H1705 C1714 0.930 . S
H1706 C1719 0.929 . S
H1707 C1717 0.929 . S
H1708 C1712 0.929 . S
H1709 C1718 0.929 . S
C1710 H1704 0.930 . S
C1710 C1711 1.367 . S
C1710 C1718 1.378 . S
C1711 C1710 1.367 . S
C1711 C1719 1.433 . S
C1712 H1708 0.929 . S
C1712 C1714 1.378 . S
C1712 C1716 1.350 . S
C1713 C1716 1.463 . S
C1713 C1718 1.350 . S
C1713 N1721 1.427 . S
C1714 H1705 0.930 . S
C1714 C1712 1.378 . S
C1714 C1715 1.367 . S
C1715 C1714 1.367 . S
C1715 C1717 1.433 . S
C1716 C1712 1.350 . S
C1716 C1713 1.463 . S
C1716 N1720 1.427 . S
C1717 H1707 0.929 . S
C1717 C1715 1.433 . S
C1717 N1720 1.384 . S
C1718 H1709 0.929 . S
C1718 C1710 1.378 . S
C1718 C1713 1.350 . S
C1719 H1706 0.929 . S
C1719 C1711 1.433 . S
C1719 N1721 1.384 . S
N1720 C1716 1.427 . S
N1720 C1717 1.384 . S
N1721 C1713 1.427 . S
N1721 C1719 1.384 . S
H1722 C1728 0.930 . S
H1723 C1732 0.930 . S
H1724 C1737 0.929 . S
H1725 C1735 0.929 . S
H1726 C1730 0.929 . S
H1727 C1736 0.929 . S
C1728 H1722 0.930 . S
C1728 C1729 1.367 . S
C1728 C1736 1.378 . S
C1729 C1728 1.367 . S
C1729 C1737 1.433 . S
C1730 H1726 0.929 . S
C1730 C1732 1.378 . S
C1730 C1734 1.350 . S
C1731 C1734 1.463 . S
C1731 C1736 1.350 . S
C1731 N1739 1.427 . S
C1732 H1723 0.930 . S
C1732 C1730 1.378 . S
C1732 C1733 1.367 . S
C1733 C1732 1.367 . S
C1733 C1735 1.433 . S
C1734 C1730 1.350 . S
C1734 C1731 1.463 . S
C1734 N1738 1.427 . S
C1735 H1725 0.929 . S
C1735 C1733 1.433 . S
C1735 N1738 1.384 . S
C1736 H1727 0.929 . S
C1736 C1728 1.378 . S
C1736 C1731 1.350 . S
C1737 H1724 0.929 . S
C1737 C1729 1.433 . S
C1737 N1739 1.384 . S
N1738 C1734 1.427 . S
N1738 C1735 1.384 . S
N1739 C1731 1.427 . S
N1739 C1737 1.384 . S
H1740 C1746 0.930 . S
H1741 C1750 0.930 . S
H1742 C1755 0.929 . S
H1743 C1753 0.929 . S
H1744 C1748 0.929 . S
H1745 C1754 0.929 . S
C1746 H1740 0.930 . S
C1746 C1747 1.367 . S
C1746 C1754 1.378 . S
C1747 C1746 1.367 . S
C1747 C1755 1.433 . S
C1748 H1744 0.929 . S
C1748 C1750 1.378 . S
C1748 C1752 1.350 . S
C1749 C1752 1.463 . S
C1749 C1754 1.350 . S
C1749 N1757 1.427 . S
C1750 H1741 0.930 . S
C1750 C1748 1.378 . S
C1750 C1751 1.367 . S
C1751 C1750 1.367 . S
C1751 C1753 1.433 . S
C1752 C1748 1.350 . S
C1752 C1749 1.463 . S
C1752 N1756 1.427 . S
C1753 H1743 0.929 . S
C1753 C1751 1.433 . S
C1753 N1756 1.384 . S
C1754 H1745 0.929 . S
C1754 C1746 1.378 . S
C1754 C1749 1.350 . S
C1755 H1742 0.929 . S
C1755 C1747 1.433 . S
C1755 N1757 1.384 . S
N1756 C1752 1.427 . S
N1756 C1753 1.384 . S
N1757 C1749 1.427 . S
N1757 C1755 1.384 . S
H1758 C1764 0.930 . S
H1759 C1768 0.930 . S
H1760 C1773 0.929 . S
H1761 C1771 0.929 . S
H1762 C1766 0.929 . S
H1763 C1772 0.929 . S
C1764 H1758 0.930 . S
C1764 C1765 1.367 . S
C1764 C1772 1.378 . S
C1765 C1764 1.367 . S
C1765 C1773 1.433 . S
C1766 H1762 0.929 . S
C1766 C1768 1.378 . S
C1766 C1770 1.350 . S
C1767 C1770 1.463 . S
C1767 C1772 1.350 . S
C1767 N1775 1.427 . S
C1768 H1759 0.930 . S
C1768 C1766 1.378 . S
C1768 C1769 1.367 . S
C1769 C1768 1.367 . S
C1769 C1771 1.433 . S
C1770 C1766 1.350 . S
C1770 C1767 1.463 . S
C1770 N1774 1.427 . S
C1771 H1761 0.929 . S
C1771 C1769 1.433 . S
C1771 N1774 1.384 . S
C1772 H1763 0.929 . S
C1772 C1764 1.378 . S
C1772 C1767 1.350 . S
C1773 H1760 0.929 . S
C1773 C1765 1.433 . S
C1773 N1775 1.384 . S
N1774 C1770 1.427 . S
N1774 C1771 1.384 . S
N1775 C1767 1.427 . S
N1775 C1773 1.384 . S
H1776 C1782 0.930 . S
H1777 C1786 0.930 . S
H1778 C1791 0.929 . S
H1779 C1789 0.929 . S
H1780 C1784 0.929 . S
H1781 C1790 0.929 . S
C1782 H1776 0.930 . S
C1782 C1783 1.367 . S
C1782 C1790 1.378 . S
C1783 C1782 1.367 . S
C1783 C1791 1.433 . S
C1784 H1780 0.929 . S
C1784 C1786 1.378 . S
C1784 C1788 1.350 . S
C1785 C1788 1.463 . S
C1785 C1790 1.350 . S
C1785 N1793 1.427 . S
C1786 H1777 0.930 . S
C1786 C1784 1.378 . S
C1786 C1787 1.367 . S
C1787 C1786 1.367 . S
C1787 C1789 1.433 . S
C1788 C1784 1.350 . S
C1788 C1785 1.463 . S
C1788 N1792 1.427 . S
C1789 H1779 0.929 . S
C1789 C1787 1.433 . S
C1789 N1792 1.384 . S
C1790 H1781 0.929 . S
C1790 C1782 1.378 . S
C1790 C1785 1.350 . S
C1791 H1778 0.929 . S
C1791 C1783 1.433 . S
C1791 N1793 1.384 . S
N1792 C1788 1.427 . S
N1792 C1789 1.384 . S
N1793 C1785 1.427 . S
N1793 C1791 1.384 . S
H1794 C1800 0.930 . S
H1795 C1804 0.930 . S
H1796 C1809 0.929 . S
H1797 C1807 0.929 . S
H1798 C1802 0.929 . S
H1799 C1808 0.929 . S
C1800 H1794 0.930 . S
C1800 C1801 1.367 . S
C1800 C1808 1.378 . S
C1801 C1800 1.367 . S
C1801 C1809 1.433 . S
C1802 H1798 0.929 . S
C1802 C1804 1.378 . S
C1802 C1806 1.350 . S
C1803 C1806 1.463 . S
C1803 C1808 1.350 . S
C1803 N1811 1.427 . S
C1804 H1795 0.930 . S
C1804 C1802 1.378 . S
C1804 C1805 1.367 . S
C1805 C1804 1.367 . S
C1805 C1807 1.433 . S
C1806 C1802 1.350 . S
C1806 C1803 1.463 . S
C1806 N1810 1.427 . S
C1807 H1797 0.929 . S
C1807 C1805 1.433 . S
C1807 N1810 1.384 . S
C1808 H1799 0.929 . S
C1808 C1800 1.378 . S
C1808 C1803 1.350 . S
C1809 H1796 0.929 . S
C1809 C1801 1.433 . S
C1809 N1811 1.384 . S
N1810 C1806 1.427 . S
N1810 C1807 1.384 . S
N1811 C1803 1.427 . S
N1811 C1809 1.384 . S
H1812 C1818 0.930 . S
H1813 C1822 0.930 . S
H1814 C1827 0.929 . S
H1815 C1825 0.929 . S
H1816 C1820 0.929 . S
H1817 C1826 0.929 . S
C1818 H1812 0.930 . S
C1818 C1819 1.367 . S
C1818 C1826 1.378 . S
C1819 C1818 1.367 . S
C1819 C1827 1.433 . S
C1820 H1816 0.929 . S
C1820 C1822 1.378 . S
C1820 C1824 1.350 . S
C1821 C1824 1.463 . S
C1821 C1826 1.350 . S
C1821 N1829 1.427 . S
C1822 H1813 0.930 . S
C1822 C1820 1.378 . S
C1822 C1823 1.367 . S
C1823 C1822 1.367 . S
C1823 C1825 1.433 . S
C1824 C1820 1.350 . S
C1824 C1821 1.463 . S
C1824 N1828 1.427 . S
C1825 H1815 0.929 . S
C1825 C1823 1.433 . S
C1825 N1828 1.384 . S
C1826 H1817 0.929 . S
C1826 C1818 1.378 . S
C1826 C1821 1.350 . S
C1827 H1814 0.929 . S
C1827 C1819 1.433 . S
C1827 N1829 1.384 . S
N1828 C1824 1.427 . S
N1828 C1825 1.384 . S
N1829 C1821 1.427 . S
N1829 C1827 1.384 . S
H1830 C1836 0.930 . S
H1831 C1840 0.930 . S
H1832 C1845 0.929 . S
H1833 C1843 0.929 . S
H1834 C1838 0.929 . S
H1835 C1844 0.929 . S
C1836 H1830 0.930 . S
C1836 C1837 1.367 . S
C1836 C1844 1.378 . S
C1837 C1836 1.367 . S
C1837 C1845 1.433 . S
C1838 H1834 0.929 . S
C1838 C1840 1.378 . S
C1838 C1842 1.350 . S
C1839 C1842 1.463 . S
C1839 C1844 1.350 . S
C1839 N1847 1.427 . S
C1840 H1831 0.930 . S
C1840 C1838 1.378 . S
C1840 C1841 1.367 . S
C1841 C1840 1.367 . S
C1841 C1843 1.433 . S
C1842 C1838 1.350 . S
C1842 C1839 1.463 . S
C1842 N1846 1.427 . S
C1843 H1833 0.929 . S
C1843 C1841 1.433 . S
C1843 N1846 1.384 . S
C1844 H1835 0.929 . S
C1844 C1836 1.378 . S
C1844 C1839 1.350 . S
C1845 H1832 0.929 . S
C1845 C1837 1.433 . S
C1845 N1847 1.384 . S
N1846 C1842 1.427 . S
N1846 C1843 1.384 . S
N1847 C1839 1.427 . S
N1847 C1845 1.384 . S
H1848 C1854 0.930 . S
H1849 C1858 0.930 . S
H1850 C1863 0.929 . S
H1851 C1861 0.929 . S
H1852 C1856 0.929 . S
H1853 C1862 0.929 . S
C1854 H1848 0.930 . S
C1854 C1855 1.367 . S
C1854 C1862 1.378 . S
C1855 C1854 1.367 . S
C1855 C1863 1.433 . S
C1856 H1852 0.929 . S
C1856 C1858 1.378 . S
C1856 C1860 1.350 . S
C1857 C1860 1.463 . S
C1857 C1862 1.350 . S
C1857 N1865 1.427 . S
C1858 H1849 0.930 . S
C1858 C1856 1.378 . S
C1858 C1859 1.367 . S
C1859 C1858 1.367 . S
C1859 C1861 1.433 . S
C1860 C1856 1.350 . S
C1860 C1857 1.463 . S
C1860 N1864 1.427 . S
C1861 H1851 0.929 . S
C1861 C1859 1.433 . S
C1861 N1864 1.384 . S
C1862 H1853 0.929 . S
C1862 C1854 1.378 . S
C1862 C1857 1.350 . S
C1863 H1850 0.929 . S
C1863 C1855 1.433 . S
C1863 N1865 1.384 . S
N1864 C1860 1.427 . S
N1864 C1861 1.384 . S
N1865 C1857 1.427 . S
N1865 C1863 1.384 . S
H1866 C1872 0.930 . S
H1867 C1876 0.930 . S
H1868 C1881 0.929 . S
H1869 C1879 0.929 . S
H1870 C1874 0.929 . S
H1871 C1880 0.929 . S
C1872 H1866 0.930 . S
C1872 C1873 1.367 . S
C1872 C1880 1.378 . S
C1873 C1872 1.367 . S
C1873 C1881 1.433 . S
C1874 H1870 0.929 . S
C1874 C1876 1.378 . S
C1874 C1878 1.350 . S
C1875 C1878 1.463 . S
C1875 C1880 1.350 . S
C1875 N1883 1.427 . S
C1876 H1867 0.930 . S
C1876 C1874 1.378 . S
C1876 C1877 1.367 . S
C1877 C1876 1.367 . S
C1877 C1879 1.433 . S
C1878 C1874 1.350 . S
C1878 C1875 1.463 . S
C1878 N1882 1.427 . S
C1879 H1869 0.929 . S
C1879 C1877 1.433 . S
C1879 N1882 1.384 . S
C1880 H1871 0.929 . S
C1880 C1872 1.378 . S
C1880 C1875 1.350 . S
C1881 H1868 0.929 . S
C1881 C1873 1.433 . S
C1881 N1883 1.384 . S
N1882 C1878 1.427 . S
N1882 C1879 1.384 . S
N1883 C1875 1.427 . S
N1883 C1881 1.384 . S
H1884 C1890 0.930 . S
H1885 C1894 0.930 . S
H1886 C1899 0.929 . S
H1887 C1897 0.929 . S
H1888 C1892 0.929 . S
H1889 C1898 0.929 . S
C1890 H1884 0.930 . S
C1890 C1891 1.367 . S
C1890 C1898 1.378 . S
C1891 C1890 1.367 . S
C1891 C1899 1.433 . S
C1892 H1888 0.929 . S
C1892 C1894 1.378 . S
C1892 C1896 1.350 . S
C1893 C1896 1.463 . S
C1893 C1898 1.350 . S
C1893 N1901 1.427 . S
C1894 H1885 0.930 . S
C1894 C1892 1.378 . S
C1894 C1895 1.367 . S
C1895 C1894 1.367 . S
C1895 C1897 1.433 . S
C1896 C1892 1.350 . S
C1896 C1893 1.463 . S
C1896 N1900 1.427 . S
C1897 H1887 0.929 . S
C1897 C1895 1.433 . S
C1897 N1900 1.384 . S
C1898 H1889 0.929 . S
C1898 C1890 1.378 . S
C1898 C1893 1.350 . S
C1899 H1886 0.929 . S
C1899 C1891 1.433 . S
C1899 N1901 1.384 . S
N1900 C1896 1.427 . S
N1900 C1897 1.384 . S
N1901 C1893 1.427 . S
N1901 C1899 1.384 . S
H1902 C1908 0.930 . S
H1903 C1912 0.930 . S
H1904 C1917 0.929 . S
H1905 C1915 0.929 . S
H1906 C1910 0.929 . S
H1907 C1916 0.929 1_655 S
C1908 H1902 0.930 . S
C1908 C1909 1.367 . S
C1908 C1916 1.378 . S
C1909 C1908 1.367 . S
C1909 C1917 1.433 . S
C1910 H1906 0.929 . S
C1910 C1912 1.378 . S
C1910 C1914 1.350 . S
C1911 C1914 1.463 1_455 S
C1911 C1916 1.350 . S
C1911 N1919 1.427 . S
C1912 H1903 0.930 . S
C1912 C1910 1.378 . S
C1912 C1913 1.367 . S
C1913 C1912 1.367 . S
C1913 C1915 1.433 . S
C1914 C1910 1.350 . S
C1914 C1911 1.463 1_655 S
C1914 N1918 1.427 . S
C1915 H1905 0.929 . S
C1915 C1913 1.433 . S
C1915 N1918 1.384 . S
C1916 H1907 0.929 1_455 S
C1916 C1908 1.378 . S
C1916 C1911 1.350 . S
C1917 H1904 0.929 . S
C1917 C1909 1.433 . S
C1917 N1919 1.384 . S
N1918 C1914 1.427 . S
N1918 C1915 1.384 . S
N1919 C1911 1.427 . S
N1919 C1917 1.384 . S
H1920 C1926 0.930 . S
H1921 C1930 0.930 . S
H1922 C1935 0.929 . S
H1923 C1933 0.929 . S
H1924 C1928 0.929 . S
H1925 C1934 0.929 . S
C1926 H1920 0.930 . S
C1926 C1927 1.367 . S
C1926 C1934 1.378 . S
C1927 C1926 1.367 . S
C1927 C1935 1.433 . S
C1928 H1924 0.929 . S
C1928 C1930 1.378 . S
C1928 C1932 1.350 . S
C1929 C1932 1.463 . S
C1929 C1934 1.350 . S
C1929 N1937 1.427 . S
C1930 H1921 0.930 . S
C1930 C1928 1.378 . S
C1930 C1931 1.367 . S
C1931 C1930 1.367 . S
C1931 C1933 1.433 . S
C1932 C1928 1.350 . S
C1932 C1929 1.463 . S
C1932 N1936 1.427 . S
C1933 H1923 0.929 . S
C1933 C1931 1.433 . S
C1933 N1936 1.384 . S
C1934 H1925 0.929 . S
C1934 C1926 1.378 . S
C1934 C1929 1.350 . S
C1935 H1922 0.929 . S
C1935 C1927 1.433 . S
C1935 N1937 1.384 . S
N1936 C1932 1.427 . S
N1936 C1933 1.384 . S
N1937 C1929 1.427 . S
N1937 C1935 1.384 . S
H1938 C1944 0.930 . S
H1939 C1948 0.930 . S
H1940 C1953 0.929 . S
H1941 C1951 0.929 . S
H1942 C1946 0.929 . S
H1943 C1952 0.929 . S
C1944 H1938 0.930 . S
C1944 C1945 1.367 . S
C1944 C1952 1.378 . S
C1945 C1944 1.367 . S
C1945 C1953 1.433 . S
C1946 H1942 0.929 . S
C1946 C1948 1.378 . S
C1946 C1950 1.350 . S
C1947 C1950 1.463 . S
C1947 C1952 1.350 . S
C1947 N1955 1.427 . S
C1948 H1939 0.930 . S
C1948 C1946 1.378 . S
C1948 C1949 1.367 . S
C1949 C1948 1.367 . S
C1949 C1951 1.433 . S
C1950 C1946 1.350 . S
C1950 C1947 1.463 . S
C1950 N1954 1.427 . S
C1951 H1941 0.929 . S
C1951 C1949 1.433 . S
C1951 N1954 1.384 . S
C1952 H1943 0.929 . S
C1952 C1944 1.378 . S
C1952 C1947 1.350 . S
C1953 H1940 0.929 . S
C1953 C1945 1.433 . S
C1953 N1955 1.384 . S
N1954 C1950 1.427 . S
N1954 C1951 1.384 . S
N1955 C1947 1.427 . S
N1955 C1953 1.384 . S
H1956 C1962 0.930 . S
H1957 C1966 0.930 . S
H1958 C1971 0.929 . S
H1959 C1969 0.929 . S
H1960 C1964 0.929 . S
H1961 C1970 0.929 . S
C1962 H1956 0.930 . S
C1962 C1963 1.367 . S
C1962 C1970 1.378 . S
C1963 C1962 1.367 . S
C1963 C1971 1.433 . S
C1964 H1960 0.929 . S
C1964 C1966 1.378 . S
C1964 C1968 1.350 . S
C1965 C1968 1.463 . S
C1965 C1970 1.350 . S
C1965 N1973 1.427 . S
C1966 H1957 0.930 . S
C1966 C1964 1.378 . S
C1966 C1967 1.367 . S
C1967 C1966 1.367 . S
C1967 C1969 1.433 . S
C1968 C1964 1.350 . S
C1968 C1965 1.463 . S
C1968 N1972 1.427 . S
C1969 H1959 0.929 . S
C1969 C1967 1.433 . S
C1969 N1972 1.384 . S
C1970 H1961 0.929 . S
C1970 C1962 1.378 . S
C1970 C1965 1.350 . S
C1971 H1958 0.929 . S
C1971 C1963 1.433 . S
C1971 N1973 1.384 . S
N1972 C1968 1.427 . S
N1972 C1969 1.384 . S
N1973 C1965 1.427 . S
N1973 C1971 1.384 . S
H1974 C1980 0.930 . S
H1975 C1984 0.930 . S
H1976 C1989 0.929 . S
H1977 C1987 0.929 . S
H1978 C1982 0.929 . S
H1979 C1988 0.929 . S
C1980 H1974 0.930 . S
C1980 C1981 1.367 . S
C1980 C1988 1.378 . S
C1981 C1980 1.367 . S
C1981 C1989 1.433 . S
C1982 H1978 0.929 . S
C1982 C1984 1.378 . S
C1982 C1986 1.350 . S
C1983 C1986 1.463 . S
C1983 C1988 1.350 . S
C1983 N1991 1.427 . S
C1984 H1975 0.930 . S
C1984 C1982 1.378 . S
C1984 C1985 1.367 . S
C1985 C1984 1.367 . S
C1985 C1987 1.433 . S
C1986 C1982 1.350 . S
C1986 C1983 1.463 . S
C1986 N1990 1.427 . S
C1987 H1977 0.929 . S
C1987 C1985 1.433 . S
C1987 N1990 1.384 . S
C1988 H1979 0.929 . S
C1988 C1980 1.378 . S
C1988 C1983 1.350 . S
C1989 H1976 0.929 . S
C1989 C1981 1.433 . S
C1989 N1991 1.384 . S
N1990 C1986 1.427 . S
N1990 C1987 1.384 . S
N1991 C1983 1.427 . S
N1991 C1989 1.384 . S
H1992 C1998 0.930 . S
H1993 C2002 0.930 . S
H1994 C2007 0.929 . S
H1995 C2005 0.929 . S
H1996 C2000 0.929 . S
H1997 C2006 0.929 . S
C1998 H1992 0.930 . S
C1998 C1999 1.367 . S
C1998 C2006 1.378 . S
C1999 C1998 1.367 . S
C1999 C2007 1.433 . S
C2000 H1996 0.929 . S
C2000 C2002 1.378 . S
C2000 C2004 1.350 . S
C2001 C2004 1.463 . S
C2001 C2006 1.350 . S
C2001 N2009 1.427 . S
C2002 H1993 0.930 . S
C2002 C2000 1.378 . S
C2002 C2003 1.367 . S
C2003 C2002 1.367 . S
C2003 C2005 1.433 . S
C2004 C2000 1.350 . S
C2004 C2001 1.463 . S
C2004 N2008 1.427 . S
C2005 H1995 0.929 . S
C2005 C2003 1.433 . S
C2005 N2008 1.384 . S
C2006 H1997 0.929 . S
C2006 C1998 1.378 . S
C2006 C2001 1.350 . S
C2007 H1994 0.929 . S
C2007 C1999 1.433 . S
C2007 N2009 1.384 . S
N2008 C2004 1.427 . S
N2008 C2005 1.384 . S
N2009 C2001 1.427 . S
N2009 C2007 1.384 . S
H2010 C2016 0.930 . S
H2011 C2020 0.930 . S
H2012 C2025 0.929 . S
H2013 C2023 0.929 . S
H2014 C2018 0.929 . S
H2015 C2024 0.929 . S
C2016 H2010 0.930 . S
C2016 C2017 1.367 . S
C2016 C2024 1.378 . S
C2017 C2016 1.367 . S
C2017 C2025 1.433 . S
C2018 H2014 0.929 . S
C2018 C2020 1.378 . S
C2018 C2022 1.350 . S
C2019 C2022 1.463 . S
C2019 C2024 1.350 . S
C2019 N2027 1.427 . S
C2020 H2011 0.930 . S
C2020 C2018 1.378 . S
C2020 C2021 1.367 . S
C2021 C2020 1.367 . S
C2021 C2023 1.433 . S
C2022 C2018 1.350 . S
C2022 C2019 1.463 . S
C2022 N2026 1.427 . S
C2023 H2013 0.929 . S
C2023 C2021 1.433 . S
C2023 N2026 1.384 . S
C2024 H2015 0.929 . S
C2024 C2016 1.378 . S
C2024 C2019 1.350 . S
C2025 H2012 0.929 . S
C2025 C2017 1.433 . S
C2025 N2027 1.384 . S
N2026 C2022 1.427 . S
N2026 C2023 1.384 . S
N2027 C2019 1.427 . S
N2027 C2025 1.384 . S
H2028 C2034 0.930 . S
H2029 C2038 0.930 . S
H2030 C2043 0.929 . S
H2031 C2041 0.929 . S
H2032 C2036 0.929 . S
H2033 C2042 0.929 . S
C2034 H2028 0.930 . S
C2034 C2035 1.367 . S
C2034 C2042 1.378 . S
C2035 C2034 1.367 . S
C2035 C2043 1.433 . S
C2036 H2032 0.929 . S
C2036 C2038 1.378 . S
C2036 C2040 1.350 . S
C2037 C2040 1.463 . S
C2037 C2042 1.350 . S
C2037 N2045 1.427 . S
C2038 H2029 0.930 . S
C2038 C2036 1.378 . S
C2038 C2039 1.367 . S
C2039 C2038 1.367 . S
C2039 C2041 1.433 . S
C2040 C2036 1.350 . S
C2040 C2037 1.463 . S
C2040 N2044 1.427 . S
C2041 H2031 0.929 . S
C2041 C2039 1.433 . S
C2041 N2044 1.384 . S
C2042 H2033 0.929 . S
C2042 C2034 1.378 . S
C2042 C2037 1.350 . S
C2043 H2030 0.929 . S
C2043 C2035 1.433 . S
C2043 N2045 1.384 . S
N2044 C2040 1.427 . S
N2044 C2041 1.384 . S
N2045 C2037 1.427 . S
N2045 C2043 1.384 . S
H2046 C2052 0.930 . S
H2047 C2056 0.930 . S
H2048 C2061 0.929 . S
H2049 C2059 0.929 . S
H2050 C2054 0.929 . S
H2051 C2060 0.929 . S
C2052 H2046 0.930 . S
C2052 C2053 1.367 . S
C2052 C2060 1.378 . S
C2053 C2052 1.367 . S
C2053 C2061 1.433 . S
C2054 H2050 0.929 . S
C2054 C2056 1.378 . S
C2054 C2058 1.350 . S
C2055 C2058 1.463 . S
C2055 C2060 1.350 . S
C2055 N2063 1.427 . S
C2056 H2047 0.930 . S
C2056 C2054 1.378 . S
C2056 C2057 1.367 . S
C2057 C2056 1.367 . S
C2057 C2059 1.433 . S
C2058 C2054 1.350 . S
C2058 C2055 1.463 . S
C2058 N2062 1.427 . S
C2059 H2049 0.929 . S
C2059 C2057 1.433 . S
C2059 N2062 1.384 . S
C2060 H2051 0.929 . S
C2060 C2052 1.378 . S
C2060 C2055 1.350 . S
C2061 H2048 0.929 . S
C2061 C2053 1.433 . S
C2061 N2063 1.384 . S
N2062 C2058 1.427 . S
N2062 C2059 1.384 . S
N2063 C2055 1.427 . S
N2063 C2061 1.384 . S
H2064 C2070 0.930 . S
H2065 C2074 0.930 . S
H2066 C2079 0.929 . S
H2067 C2077 0.929 . S
H2068 C2072 0.929 . S
H2069 C2078 0.929 . S
C2070 H2064 0.930 . S
C2070 C2071 1.367 . S
C2070 C2078 1.378 . S
C2071 C2070 1.367 . S
C2071 C2079 1.433 . S
C2072 H2068 0.929 . S
C2072 C2074 1.378 . S
C2072 C2076 1.350 . S
C2073 C2076 1.463 . S
C2073 C2078 1.350 . S
C2073 N2081 1.427 . S
C2074 H2065 0.930 . S
C2074 C2072 1.378 . S
C2074 C2075 1.367 . S
C2075 C2074 1.367 . S
C2075 C2077 1.433 . S
C2076 C2072 1.350 . S
C2076 C2073 1.463 . S
C2076 N2080 1.427 . S
C2077 H2067 0.929 . S
C2077 C2075 1.433 . S
C2077 N2080 1.384 . S
C2078 H2069 0.929 . S
C2078 C2070 1.378 . S
C2078 C2073 1.350 . S
C2079 H2066 0.929 . S
C2079 C2071 1.433 . S
C2079 N2081 1.384 . S
N2080 C2076 1.427 . S
N2080 C2077 1.384 . S
N2081 C2073 1.427 . S
N2081 C2079 1.384 . S
H2082 C2088 0.930 . S
H2083 C2092 0.930 . S
H2084 C2097 0.929 . S
H2085 C2095 0.929 . S
H2086 C2090 0.929 . S
H2087 C2096 0.929 . S
C2088 H2082 0.930 . S
C2088 C2089 1.367 . S
C2088 C2096 1.378 . S
C2089 C2088 1.367 . S
C2089 C2097 1.433 . S
C2090 H2086 0.929 . S
C2090 C2092 1.378 . S
C2090 C2094 1.350 . S
C2091 C2094 1.463 . S
C2091 C2096 1.350 . S
C2091 N2099 1.427 . S
C2092 H2083 0.930 . S
C2092 C2090 1.378 . S
C2092 C2093 1.367 . S
C2093 C2092 1.367 . S
C2093 C2095 1.433 . S
C2094 C2090 1.350 . S
C2094 C2091 1.463 . S
C2094 N2098 1.427 . S
C2095 H2085 0.929 . S
C2095 C2093 1.433 . S
C2095 N2098 1.384 . S
C2096 H2087 0.929 . S
C2096 C2088 1.378 . S
C2096 C2091 1.350 . S
C2097 H2084 0.929 . S
C2097 C2089 1.433 . S
C2097 N2099 1.384 . S
N2098 C2094 1.427 . S
N2098 C2095 1.384 . S
N2099 C2091 1.427 . S
N2099 C2097 1.384 . S
H2100 C2106 0.930 . S
H2101 C2110 0.930 . S
H2102 C2115 0.929 . S
H2103 C2113 0.929 . S
H2104 C2108 0.929 . S
H2105 C2114 0.929 . S
C2106 H2100 0.930 . S
C2106 C2107 1.367 . S
C2106 C2114 1.378 . S
C2107 C2106 1.367 . S
C2107 C2115 1.433 . S
C2108 H2104 0.929 . S
C2108 C2110 1.378 . S
C2108 C2112 1.350 . S
C2109 C2112 1.463 . S
C2109 C2114 1.350 . S
C2109 N2117 1.427 . S
C2110 H2101 0.930 . S
C2110 C2108 1.378 . S
C2110 C2111 1.367 . S
C2111 C2110 1.367 . S
C2111 C2113 1.433 . S
C2112 C2108 1.350 . S
C2112 C2109 1.463 . S
C2112 N2116 1.427 . S
C2113 H2103 0.929 . S
C2113 C2111 1.433 . S
C2113 N2116 1.384 . S
C2114 H2105 0.929 . S
C2114 C2106 1.378 . S
C2114 C2109 1.350 . S
C2115 H2102 0.929 . S
C2115 C2107 1.433 . S
C2115 N2117 1.384 . S
N2116 C2112 1.427 . S
N2116 C2113 1.384 . S
N2117 C2109 1.427 . S
N2117 C2115 1.384 . S
H2118 C2124 0.930 . S
H2119 C2128 0.930 . S
H2120 C2133 0.929 . S
H2121 C2131 0.929 . S
H2122 C2126 0.929 . S
H2123 C2132 0.929 . S
C2124 H2118 0.930 . S
C2124 C2125 1.367 . S
C2124 C2132 1.378 . S
C2125 C2124 1.367 . S
C2125 C2133 1.433 . S
C2126 H2122 0.929 . S
C2126 C2128 1.378 . S
C2126 C2130 1.350 . S
C2127 C2130 1.463 . S
C2127 C2132 1.350 . S
C2127 N2135 1.427 . S
C2128 H2119 0.930 . S
C2128 C2126 1.378 . S
C2128 C2129 1.367 . S
C2129 C2128 1.367 . S
C2129 C2131 1.433 . S
C2130 C2126 1.350 . S
C2130 C2127 1.463 . S
C2130 N2134 1.427 . S
C2131 H2121 0.929 . S
C2131 C2129 1.433 . S
C2131 N2134 1.384 . S
C2132 H2123 0.929 . S
C2132 C2124 1.378 . S
C2132 C2127 1.350 . S
C2133 H2120 0.929 . S
C2133 C2125 1.433 . S
C2133 N2135 1.384 . S
N2134 C2130 1.427 . S
N2134 C2131 1.384 . S
N2135 C2127 1.427 . S
N2135 C2133 1.384 . S
H2136 C2142 0.930 . S
H2137 C2146 0.930 . S
H2138 C2151 0.929 . S
H2139 C2149 0.929 . S
H2140 C2144 0.929 . S
H2141 C2150 0.929 . S
C2142 H2136 0.930 . S
C2142 C2143 1.367 . S
C2142 C2150 1.378 . S
C2143 C2142 1.367 . S
C2143 C2151 1.433 . S
C2144 H2140 0.929 . S
C2144 C2146 1.378 . S
C2144 C2148 1.350 . S
C2145 C2148 1.463 . S
C2145 C2150 1.350 . S
C2145 N2153 1.427 . S
C2146 H2137 0.930 . S
C2146 C2144 1.378 . S
C2146 C2147 1.367 . S
C2147 C2146 1.367 . S
C2147 C2149 1.433 . S
C2148 C2144 1.350 . S
C2148 C2145 1.463 . S
C2148 N2152 1.427 . S
C2149 H2139 0.929 . S
C2149 C2147 1.433 . S
C2149 N2152 1.384 . S
C2150 H2141 0.929 . S
C2150 C2142 1.378 . S
C2150 C2145 1.350 . S
C2151 H2138 0.929 . S
C2151 C2143 1.433 . S
C2151 N2153 1.384 . S
N2152 C2148 1.427 . S
N2152 C2149 1.384 . S
N2153 C2145 1.427 . S
N2153 C2151 1.384 . S
H2154 C2160 0.930 . S
H2155 C2164 0.930 . S
H2156 C2169 0.929 . S
H2157 C2167 0.929 . S
H2158 C2162 0.929 . S
H2159 C2168 0.929 . S
C2160 H2154 0.930 . S
C2160 C2161 1.367 . S
C2160 C2168 1.378 . S
C2161 C2160 1.367 . S
C2161 C2169 1.433 . S
C2162 H2158 0.929 . S
C2162 C2164 1.378 . S
C2162 C2166 1.350 . S
C2163 C2166 1.463 . S
C2163 C2168 1.350 . S
C2163 N2171 1.427 . S
C2164 H2155 0.930 . S
C2164 C2162 1.378 . S
C2164 C2165 1.367 . S
C2165 C2164 1.367 . S
C2165 C2167 1.433 . S
C2166 C2162 1.350 . S
C2166 C2163 1.463 . S
C2166 N2170 1.427 . S
C2167 H2157 0.929 . S
C2167 C2165 1.433 . S
C2167 N2170 1.384 . S
C2168 H2159 0.929 . S
C2168 C2160 1.378 . S
C2168 C2163 1.350 . S
C2169 H2156 0.929 . S
C2169 C2161 1.433 . S
C2169 N2171 1.384 . S
N2170 C2166 1.427 . S
N2170 C2167 1.384 . S
N2171 C2163 1.427 . S
N2171 C2169 1.384 . S
H2172 C2178 0.930 . S
H2173 C2182 0.930 . S
H2174 C2187 0.929 . S
H2175 C2185 0.929 . S
H2176 C2180 0.929 . S
H2177 C2186 0.929 . S
C2178 H2172 0.930 . S
C2178 C2179 1.367 . S
C2178 C2186 1.378 . S
C2179 C2178 1.367 . S
C2179 C2187 1.433 . S
C2180 H2176 0.929 . S
C2180 C2182 1.378 . S
C2180 C2184 1.350 . S
C2181 C2184 1.463 . S
C2181 C2186 1.350 . S
C2181 N2189 1.427 . S
C2182 H2173 0.930 . S
C2182 C2180 1.378 . S
C2182 C2183 1.367 . S
C2183 C2182 1.367 . S
C2183 C2185 1.433 . S
C2184 C2180 1.350 . S
C2184 C2181 1.463 . S
C2184 N2188 1.427 . S
C2185 H2175 0.929 . S
C2185 C2183 1.433 . S
C2185 N2188 1.384 . S
C2186 H2177 0.929 . S
C2186 C2178 1.378 . S
C2186 C2181 1.350 . S
C2187 H2174 0.929 . S
C2187 C2179 1.433 . S
C2187 N2189 1.384 . S
N2188 C2184 1.427 . S
N2188 C2185 1.384 . S
N2189 C2181 1.427 . S
N2189 C2187 1.384 . S
H2190 C2196 0.930 . S
H2191 C2200 0.930 . S
H2192 C2205 0.929 . S
H2193 C2203 0.929 . S
H2194 C2198 0.929 . S
H2195 C2204 0.929 . S
C2196 H2190 0.930 . S
C2196 C2197 1.367 . S
C2196 C2204 1.378 . S
C2197 C2196 1.367 . S
C2197 C2205 1.433 . S
C2198 H2194 0.929 . S
C2198 C2200 1.378 . S
C2198 C2202 1.350 . S
C2199 C2202 1.463 . S
C2199 C2204 1.350 . S
C2199 N2207 1.427 . S
C2200 H2191 0.930 . S
C2200 C2198 1.378 . S
C2200 C2201 1.367 . S
C2201 C2200 1.367 . S
C2201 C2203 1.433 . S
C2202 C2198 1.350 . S
C2202 C2199 1.463 . S
C2202 N2206 1.427 . S
C2203 H2193 0.929 . S
C2203 C2201 1.433 . S
C2203 N2206 1.384 . S
C2204 H2195 0.929 . S
C2204 C2196 1.378 . S
C2204 C2199 1.350 . S
C2205 H2192 0.929 . S
C2205 C2197 1.433 . S
C2205 N2207 1.384 . S
N2206 C2202 1.427 . S
N2206 C2203 1.384 . S
N2207 C2199 1.427 . S
N2207 C2205 1.384 . S
H2208 C2214 0.930 . S
H2209 C2218 0.930 . S
H2210 C2223 0.929 . S
H2211 C2221 0.929 . S
H2212 C2216 0.929 . S
H2213 C2222 0.929 . S
C2214 H2208 0.930 . S
C2214 C2215 1.367 . S
C2214 C2222 1.378 . S
C2215 C2214 1.367 . S
C2215 C2223 1.433 . S
C2216 H2212 0.929 . S
C2216 C2218 1.378 . S
C2216 C2220 1.350 . S
C2217 C2220 1.463 . S
C2217 C2222 1.350 . S
C2217 N2225 1.427 . S
C2218 H2209 0.930 . S
C2218 C2216 1.378 . S
C2218 C2219 1.367 . S
C2219 C2218 1.367 . S
C2219 C2221 1.433 . S
C2220 C2216 1.350 . S
C2220 C2217 1.463 . S
C2220 N2224 1.427 . S
C2221 H2211 0.929 . S
C2221 C2219 1.433 . S
C2221 N2224 1.384 . S
C2222 H2213 0.929 . S
C2222 C2214 1.378 . S
C2222 C2217 1.350 . S
C2223 H2210 0.929 . S
C2223 C2215 1.433 . S
C2223 N2225 1.384 . S
N2224 C2220 1.427 . S
N2224 C2221 1.384 . S
N2225 C2217 1.427 . S
N2225 C2223 1.384 . S
H2226 C2232 0.930 . S
H2227 C2236 0.930 . S
H2228 C2241 0.929 . S
H2229 C2239 0.929 . S
H2230 C2234 0.929 . S
H2231 C2240 0.929 . S
C2232 H2226 0.930 . S
C2232 C2233 1.367 . S
C2232 C2240 1.378 . S
C2233 C2232 1.367 . S
C2233 C2241 1.433 . S
C2234 H2230 0.929 . S
C2234 C2236 1.378 . S
C2234 C2238 1.350 . S
C2235 C2238 1.463 . S
C2235 C2240 1.350 . S
C2235 N2243 1.427 . S
C2236 H2227 0.930 . S
C2236 C2234 1.378 . S
C2236 C2237 1.367 . S
C2237 C2236 1.367 . S
C2237 C2239 1.433 . S
C2238 C2234 1.350 . S
C2238 C2235 1.463 . S
C2238 N2242 1.427 . S
C2239 H2229 0.929 . S
C2239 C2237 1.433 . S
C2239 N2242 1.384 . S
C2240 H2231 0.929 . S
C2240 C2232 1.378 . S
C2240 C2235 1.350 . S
C2241 H2228 0.929 . S
C2241 C2233 1.433 . S
C2241 N2243 1.384 . S
N2242 C2238 1.427 . S
N2242 C2239 1.384 . S
N2243 C2235 1.427 . S
N2243 C2241 1.384 . S
H2244 C2250 0.930 . S
H2245 C2254 0.930 . S
H2246 C2259 0.929 . S
H2247 C2257 0.929 . S
H2248 C2252 0.929 . S
H2249 C2258 0.929 . S
C2250 H2244 0.930 . S
C2250 C2251 1.367 . S
C2250 C2258 1.378 . S
C2251 C2250 1.367 . S
C2251 C2259 1.433 . S
C2252 H2248 0.929 . S
C2252 C2254 1.378 . S
C2252 C2256 1.350 . S
C2253 C2256 1.463 . S
C2253 C2258 1.350 . S
C2253 N2261 1.427 . S
C2254 H2245 0.930 . S
C2254 C2252 1.378 . S
C2254 C2255 1.367 . S
C2255 C2254 1.367 . S
C2255 C2257 1.433 . S
C2256 C2252 1.350 . S
C2256 C2253 1.463 . S
C2256 N2260 1.427 . S
C2257 H2247 0.929 . S
C2257 C2255 1.433 . S
C2257 N2260 1.384 . S
C2258 H2249 0.929 . S
C2258 C2250 1.378 . S
C2258 C2253 1.350 . S
C2259 H2246 0.929 . S
C2259 C2251 1.433 . S
C2259 N2261 1.384 . S
N2260 C2256 1.427 . S
N2260 C2257 1.384 . S
N2261 C2253 1.427 . S
N2261 C2259 1.384 . S
H2262 C2268 0.930 . S
H2263 C2272 0.930 . S
H2264 C2277 0.929 . S
H2265 C2275 0.929 . S
H2266 C2270 0.929 . S
H2267 C2276 0.929 . S
C2268 H2262 0.930 . S
C2268 C2269 1.367 . S
C2268 C2276 1.378 . S
C2269 C2268 1.367 . S
C2269 C2277 1.433 . S
C2270 H2266 0.929 . S
C2270 C2272 1.378 . S
C2270 C2274 1.350 . S
C2271 C2274 1.463 . S
C2271 C2276 1.350 . S
C2271 N2279 1.427 . S
C2272 H2263 0.930 . S
C2272 C2270 1.378 . S
C2272 C2273 1.367 . S
C2273 C2272 1.367 . S
C2273 C2275 1.433 . S
C2274 C2270 1.350 . S
C2274 C2271 1.463 . S
C2274 N2278 1.427 . S
C2275 H2265 0.929 . S
C2275 C2273 1.433 . S
C2275 N2278 1.384 . S
C2276 H2267 0.929 . S
C2276 C2268 1.378 . S
C2276 C2271 1.350 . S
C2277 H2264 0.929 . S
C2277 C2269 1.433 . S
C2277 N2279 1.384 . S
N2278 C2274 1.427 . S
N2278 C2275 1.384 . S
N2279 C2271 1.427 . S
N2279 C2277 1.384 . S
H2280 C2286 0.930 . S
H2281 C2290 0.930 . S
H2282 C2295 0.929 . S
H2283 C2293 0.929 . S
H2284 C2288 0.929 . S
H2285 C2294 0.929 . S
C2286 H2280 0.930 . S
C2286 C2287 1.367 . S
C2286 C2294 1.378 . S
C2287 C2286 1.367 . S
C2287 C2295 1.433 . S
C2288 H2284 0.929 . S
C2288 C2290 1.378 . S
C2288 C2292 1.350 . S
C2289 C2292 1.463 . S
C2289 C2294 1.350 . S
C2289 N2297 1.427 . S
C2290 H2281 0.930 . S
C2290 C2288 1.378 . S
C2290 C2291 1.367 . S
C2291 C2290 1.367 . S
C2291 C2293 1.433 . S
C2292 C2288 1.350 . S
C2292 C2289 1.463 . S
C2292 N2296 1.427 . S
C2293 H2283 0.929 . S
C2293 C2291 1.433 . S
C2293 N2296 1.384 . S
C2294 H2285 0.929 . S
C2294 C2286 1.378 . S
C2294 C2289 1.350 . S
C2295 H2282 0.929 . S
C2295 C2287 1.433 . S
C2295 N2297 1.384 . S
N2296 C2292 1.427 . S
N2296 C2293 1.384 . S
N2297 C2289 1.427 . S
N2297 C2295 1.384 . S
H2298 C2304 0.930 . S
H2299 C2308 0.930 . S
H2300 C2313 0.929 . S
H2301 C2311 0.929 . S
H2302 C2306 0.929 . S
H2303 C2312 0.929 . S
C2304 H2298 0.930 . S
C2304 C2305 1.367 . S
C2304 C2312 1.378 . S
C2305 C2304 1.367 . S
C2305 C2313 1.433 . S
C2306 H2302 0.929 . S
C2306 C2308 1.378 . S
C2306 C2310 1.350 . S
C2307 C2310 1.463 . S
C2307 C2312 1.350 . S
C2307 N2315 1.427 . S
C2308 H2299 0.930 . S
C2308 C2306 1.378 . S
C2308 C2309 1.367 . S
C2309 C2308 1.367 . S
C2309 C2311 1.433 . S
C2310 C2306 1.350 . S
C2310 C2307 1.463 . S
C2310 N2314 1.427 . S
C2311 H2301 0.929 . S
C2311 C2309 1.433 . S
C2311 N2314 1.384 . S
C2312 H2303 0.929 . S
C2312 C2304 1.378 . S
C2312 C2307 1.350 . S
C2313 H2300 0.929 . S
C2313 C2305 1.433 . S
C2313 N2315 1.384 . S
N2314 C2310 1.427 . S
N2314 C2311 1.384 . S
N2315 C2307 1.427 . S
N2315 C2313 1.384 . S
H2316 C2322 0.930 . S
H2317 C2326 0.930 . S
H2318 C2331 0.929 . S
H2319 C2329 0.929 . S
H2320 C2324 0.929 . S
H2321 C2330 0.929 . S
C2322 H2316 0.930 . S
C2322 C2323 1.367 . S
C2322 C2330 1.378 . S
C2323 C2322 1.367 . S
C2323 C2331 1.433 . S
C2324 H2320 0.929 . S
C2324 C2326 1.378 . S
C2324 C2328 1.350 . S
C2325 C2328 1.463 . S
C2325 C2330 1.350 . S
C2325 N2333 1.427 . S
C2326 H2317 0.930 . S
C2326 C2324 1.378 . S
C2326 C2327 1.367 . S
C2327 C2326 1.367 . S
C2327 C2329 1.433 . S
C2328 C2324 1.350 . S
C2328 C2325 1.463 . S
C2328 N2332 1.427 . S
C2329 H2319 0.929 . S
C2329 C2327 1.433 . S
C2329 N2332 1.384 . S
C2330 H2321 0.929 . S
C2330 C2322 1.378 . S
C2330 C2325 1.350 . S
C2331 H2318 0.929 . S
C2331 C2323 1.433 . S
C2331 N2333 1.384 . S
N2332 C2328 1.427 . S
N2332 C2329 1.384 . S
N2333 C2325 1.427 . S
N2333 C2331 1.384 . S
H2334 C2340 0.930 . S
H2335 C2344 0.930 . S
H2336 C2349 0.929 . S
H2337 C2347 0.929 . S
H2338 C2342 0.929 . S
H2339 C2348 0.929 . S
C2340 H2334 0.930 . S
C2340 C2341 1.367 . S
C2340 C2348 1.378 . S
C2341 C2340 1.367 . S
C2341 C2349 1.433 . S
C2342 H2338 0.929 . S
C2342 C2344 1.378 . S
C2342 C2346 1.350 . S
C2343 C2346 1.463 . S
C2343 C2348 1.350 . S
C2343 N2351 1.427 . S
C2344 H2335 0.930 . S
C2344 C2342 1.378 . S
C2344 C2345 1.367 . S
C2345 C2344 1.367 . S
C2345 C2347 1.433 . S
C2346 C2342 1.350 . S
C2346 C2343 1.463 . S
C2346 N2350 1.427 . S
C2347 H2337 0.929 . S
C2347 C2345 1.433 . S
C2347 N2350 1.384 . S
C2348 H2339 0.929 . S
C2348 C2340 1.378 . S
C2348 C2343 1.350 . S
C2349 H2336 0.929 . S
C2349 C2341 1.433 . S
C2349 N2351 1.384 . S
N2350 C2346 1.427 . S
N2350 C2347 1.384 . S
N2351 C2343 1.427 . S
N2351 C2349 1.384 . S
C631 C122 1.997 . S
C635 C5 2.004 . S
C649 C135 2.000 . S
C653 C18 1.999 . S
C667 C148 2.001 . S
C671 C31 1.998 . S
C685 C109 1.999 . S
C689 C44 2.003 . S
C703 C57 2.002 . S
C707 C200 1.997 . S
C721 C70 2.003 . S
C725 C161 1.999 . S
C739 C83 1.997 . S
C743 C174 2.004 . S
C757 C187 2.003 . S
C761 C96 2.000 . S
C775 C213 2.003 . S
C779 C239 2.000 . S
C793 C226 1.999 . S
C797 C603 2.000 . S
C811 C252 1.999 . S
C815 C616 2.000 . S
C829 C265 1.999 . S
C833 C590 2.000 . S
C847 C278 1.997 . S
C851 C577 2.003 . S
C865 C538 1.997 . S
C869 C291 2.002 . S
C883 C304 2.000 . S
C887 C564 2.002 . S
C901 C434 2.002 . S
C905 C317 2.000 . S
C919 C447 2.002 . S
C923 C330 1.997 . S
C937 C460 1.997 . S
C941 C343 2.003 . S
C955 C421 2.003 . S
C959 C356 1.997 . S
C973 C512 1.998 . S
C977 C369 2.004 . S
C991 C473 1.999 . S
C995 C382 2.003 . S
C1009 C395 1.998 . S
C1013 C486 2.001 . S
C1027 C408 2.002 . S
C1031 C499 2.001 . S
C1045 C525 2.002 . S
C1049 C551 2.000 . S
C1063 C211 1.262 . S
C1067 C10 1.246 . S
C1081 C614 1.256 . S
C1085 C23 1.238 . S
C1099 C36 1.251 . S
C1103 C276 1.258 . S
C1117 C601 1.262 . S
C1121 C49 1.250 . S
C1135 C62 1.238 . S
C1139 C536 1.253 . S
C1153 C549 1.253 . S
C1157 C75 1.237 . S
C1171 C88 1.251 . S
C1175 C562 1.261 . S
C1189 C263 1.261 . S
C1193 C101 1.251 . S
C1207 C114 1.238 . S
C1211 C3 1.253 . S
C1225 C16 1.251 . S
C1229 C127 1.243 . S
C1243 C140 1.251 . S
C1247 C29 1.257 . S
C1261 C42 1.252 . S
C1265 C153 1.246 . S
C1279 C166 1.252 . S
C1283 C55 1.258 . S
C1297 C68 1.254 . S
C1301 C179 1.248 . S
C1315 C192 1.238 . S
C1319 C81 1.252 . S
C1333 C205 1.252 . S
C1337 C94 1.259 . S
C1351 C218 1.242 . S
C1355 C107 1.251 . S
C1369 C231 1.251 . S
C1373 C471 1.257 . S
C1387 C484 1.262 . S
C1391 C244 1.248 . S
C1405 C497 1.252 . S
C1409 C257 1.238 . S
C1423 C198 1.254 . S
C1427 C270 1.249 . S
C1441 C283 1.249 . S
C1445 C133 1.254 . S
C1459 C458 1.256 . S
C1463 C296 1.251 . S
C1477 C309 1.248 . S
C1481 C432 1.253 . S
C1495 C322 1.243 . S
C1499 C523 1.261 . S
C1513 C335 1.241 . S
C1517 C302 1.259 . S
C1531 C348 1.251 . S
C1535 C588 1.257 . S
C1549 C361 1.242 . S
C1553 C289 1.251 . S
C1567 C374 1.252 . S
C1571 C224 1.260 . S
C1585 C387 1.237 . S
C1589 C237 1.254 . S
C1603 C250 1.259 . S
C1607 C400 1.240 . S
C1621 C575 1.254 . S
C1625 C413 1.237 . S
C1639 C315 1.259 . S
C1643 C426 1.240 . S
C1657 C328 1.257 . S
C1661 C439 1.251 . S
C1675 C452 1.238 . S
C1679 C341 1.256 . S
C1693 C354 1.253 . S
C1697 C465 1.247 . S
C1711 C478 1.238 . S
C1715 C367 1.257 . S
C1729 C491 1.237 . S
C1733 C380 1.255 . S
C1747 C504 1.239 . S
C1751 C393 1.257 . S
C1765 C406 1.260 . S
C1769 C517 1.242 . S
C1783 C530 1.251 . S
C1787 C419 1.257 . S
C1801 C543 1.249 . S
C1805 C159 1.262 . S
C1819 C172 1.254 . S
C1823 C556 1.238 . S
C1837 C569 1.242 . S
C1841 C185 1.251 . S
C1855 C582 1.238 . S
C1859 C510 1.256 . S
C1873 C445 1.252 . S
C1877 C595 1.238 . S
C1891 C146 1.260 . S
C1895 C608 1.252 . S
C1909 C120 1.251 . S
C1913 C621 1.241 . S
C1927 C287 1.678 . S
C1931 C1 1.678 . S
C1945 C14 1.672 . S
C1949 C521 1.671 . S
C1963 C27 1.671 . S
C1967 C300 1.671 . S
C1981 C586 1.677 . S
C1985 C40 1.677 . S
C1999 C53 1.678 . S
C2003 C235 1.678 . S
C2017 C248 1.669 . S
C2021 C66 1.669 . S
C2035 C573 1.668 . S
C2039 C79 1.668 . S
C2053 C92 1.675 . S
C2057 C222 1.675 . S
C2071 C170 1.675 . S
C2075 C105 1.675 . S
C2089 C118 1.667 . S
C2093 C183 1.667 . S
C2107 C196 1.672 . S
C2111 C131 1.671 . S
C2125 C144 1.671 . S
C2129 C157 1.672 . S
C2143 C326 1.673 . S
C2147 C209 1.673 . S
C2161 C261 1.677 . S
C2165 C391 1.677 . S
C2179 C274 1.678 . S
C2183 C352 1.678 . S
C2197 C599 1.677 . S
C2201 C313 1.678 . S
C2215 C339 1.677 . S
C2219 C612 1.677 . S
C2233 C365 1.668 . S
C2237 C547 1.668 . S
C2251 C378 1.675 . S
C2255 C560 1.674 . S
C2269 C534 1.667 . S
C2273 C404 1.667 . S
C2287 C482 1.676 . S
C2291 C417 1.677 . S
C2305 C430 1.671 . S
C2309 C495 1.670 . S
C2323 C443 1.675 . S
C2327 C508 1.675 . S
C2341 C469 1.666 . S
C2345 C456 1.666 . S
