# Generated by pormake.
# Topology wfa, (4)-cn, num edge types: 1
# Building blocks:
#     Node 0, Type 0, BuildingBlock: CEKHIL_clean_sbu_0, # of connection points: 4
#     Node 1, Type 0, BuildingBlock: CEKHIL_clean_sbu_0, # of connection points: 4
#     Node 2, Type 0, BuildingBlock: CEKHIL_clean_sbu_0, # of connection points: 4
#     Node 3, Type 0, BuildingBlock: CEKHIL_clean_sbu_0, # of connection points: 4
#     Node 4, Type 0, BuildingBlock: CEKHIL_clean_sbu_0, # of connection points: 4
#     Node 5, Type 0, BuildingBlock: CEKHIL_clean_sbu_0, # of connection points: 4
#     Node 6, Type 0, BuildingBlock: CEKHIL_clean_sbu_0, # of connection points: 4
#     Node 7, Type 0, BuildingBlock: CEKHIL_clean_sbu_0, # of connection points: 4
#     Node 8, Type 0, BuildingBlock: CEKHIL_clean_sbu_0, # of connection points: 4
#     Node 9, Type 0, BuildingBlock: CEKHIL_clean_sbu_0, # of connection points: 4
#     Node 10, Type 0, BuildingBlock: CEKHIL_clean_sbu_0, # of connection points: 4
#     Node 11, Type 0, BuildingBlock: CEKHIL_clean_sbu_0, # of connection points: 4
#     Node 12, Type 0, BuildingBlock: CEKHIL_clean_sbu_0, # of connection points: 4
#     Node 13, Type 0, BuildingBlock: CEKHIL_clean_sbu_0, # of connection points: 4
#     Node 14, Type 0, BuildingBlock: CEKHIL_clean_sbu_0, # of connection points: 4
#     Node 15, Type 0, BuildingBlock: CEKHIL_clean_sbu_0, # of connection points: 4
#     Edge 16, Type (0, 0), BuildingBlock: XIVTED_clean_linker_0, # of connection points: 2
#     Edge 17, Type (0, 0), BuildingBlock: XIVTED_clean_linker_0, # of connection points: 2
#     Edge 18, Type (0, 0), BuildingBlock: XIVTED_clean_linker_0, # of connection points: 2
#     Edge 19, Type (0, 0), BuildingBlock: XIVTED_clean_linker_0, # of connection points: 2
#     Edge 20, Type (0, 0), BuildingBlock: XIVTED_clean_linker_0, # of connection points: 2
#     Edge 21, Type (0, 0), BuildingBlock: XIVTED_clean_linker_0, # of connection points: 2
#     Edge 22, Type (0, 0), BuildingBlock: XIVTED_clean_linker_0, # of connection points: 2
#     Edge 23, Type (0, 0), BuildingBlock: XIVTED_clean_linker_0, # of connection points: 2
#     Edge 24, Type (0, 0), BuildingBlock: XIVTED_clean_linker_0, # of connection points: 2
#     Edge 25, Type (0, 0), BuildingBlock: XIVTED_clean_linker_0, # of connection points: 2
#     Edge 26, Type (0, 0), BuildingBlock: XIVTED_clean_linker_0, # of connection points: 2
#     Edge 27, Type (0, 0), BuildingBlock: XIVTED_clean_linker_0, # of connection points: 2
#     Edge 28, Type (0, 0), BuildingBlock: XIVTED_clean_linker_0, # of connection points: 2
#     Edge 29, Type (0, 0), BuildingBlock: XIVTED_clean_linker_0, # of connection points: 2
#     Edge 30, Type (0, 0), BuildingBlock: XIVTED_clean_linker_0, # of connection points: 2
#     Edge 31, Type (0, 0), BuildingBlock: XIVTED_clean_linker_0, # of connection points: 2
#     Edge 32, Type (0, 0), BuildingBlock: XIVTED_clean_linker_0, # of connection points: 2
#     Edge 33, Type (0, 0), BuildingBlock: XIVTED_clean_linker_0, # of connection points: 2
#     Edge 34, Type (0, 0), BuildingBlock: XIVTED_clean_linker_0, # of connection points: 2
#     Edge 35, Type (0, 0), BuildingBlock: XIVTED_clean_linker_0, # of connection points: 2
#     Edge 36, Type (0, 0), BuildingBlock: XIVTED_clean_linker_0, # of connection points: 2
#     Edge 37, Type (0, 0), BuildingBlock: XIVTED_clean_linker_0, # of connection points: 2
#     Edge 38, Type (0, 0), BuildingBlock: XIVTED_clean_linker_0, # of connection points: 2
#     Edge 39, Type (0, 0), BuildingBlock: XIVTED_clean_linker_0, # of connection points: 2
#     Edge 40, Type (0, 0), BuildingBlock: XIVTED_clean_linker_0, # of connection points: 2
#     Edge 41, Type (0, 0), BuildingBlock: XIVTED_clean_linker_0, # of connection points: 2
#     Edge 42, Type (0, 0), BuildingBlock: XIVTED_clean_linker_0, # of connection points: 2
#     Edge 43, Type (0, 0), BuildingBlock: XIVTED_clean_linker_0, # of connection points: 2
#     Edge 44, Type (0, 0), BuildingBlock: XIVTED_clean_linker_0, # of connection points: 2
#     Edge 45, Type (0, 0), BuildingBlock: XIVTED_clean_linker_0, # of connection points: 2
#     Edge 46, Type (0, 0), BuildingBlock: XIVTED_clean_linker_0, # of connection points: 2
#     Edge 47, Type (0, 0), BuildingBlock: XIVTED_clean_linker_0, # of connection points: 2
# Relax obj value: 0.216
# Max RMSD: 0.275
# Mean RMSD: 0.269
data_MOF--net-wfa--node1-CEKHIL_clean_sbu_0--edge1-XIVTED_clean_linker_0
_symmetry_space_group_name_H-M    P1
_symmetry_Int_Tables_number       1
_symmetry_cell_setting            triclinic
loop_
_symmetry_equiv_pos_as_xyz
'x, y, z'
_cell_length_a     45.81234
_cell_length_b     45.776189
_cell_length_c     23.651184
_cell_angle_alpha  89.674725
_cell_angle_beta   89.690746
_cell_angle_gamma 89.550409
loop_
_atom_site_label
_atom_site_type_symbol
_atom_site_fract_x
_atom_site_fract_y
_atom_site_fract_z
_atom_type_partial_charge
Co0 Co 0.6543 0.97956 0.04369 0.0
O1 O 0.66918 0.95421 0.98538 0.0
O2 O 0.68848 0.99667 0.00859 0.0
C3 C 0.6067 0.97839 0.01946 0.0
O4 O 0.64401 0.01171 0.09965 0.0
Co5 Co 0.61222 0.95243 0.13376 0.0
O6 O 0.61152 0.99309 0.16214 0.0
C7 C 0.6755 0.94628 0.14951 0.0
C8 C 0.68893 0.97382 0.97606 0.0
C9 C 0.62721 0.01388 0.14323 0.0
O10 O 0.67983 0.96073 0.10336 0.0
O11 O 0.65016 0.9385 0.16657 0.0
O12 O 0.62486 0.99502 0.99227 0.0
O13 O 0.61863 0.95998 0.05421 0.0
Co14 Co 0.52217 0.65496 0.04277 0.0
O15 O 0.54921 0.67026 0.98774 0.0
O16 O 0.50533 0.68885 0.00549 0.0
C17 C 0.52484 0.60738 0.0187 0.0
O18 O 0.48862 0.64435 0.09586 0.0
Co19 Co 0.54797 0.61308 0.13491 0.0
O20 O 0.50677 0.61274 0.16081 0.0
C21 C 0.55321 0.67636 0.14976 0.0
C22 C 0.52942 0.68975 0.97609 0.0
C23 C 0.48597 0.62797 0.14002 0.0
O24 O 0.53872 0.6805 0.10388 0.0
O25 O 0.56158 0.65109 0.16685 0.0
O26 O 0.50892 0.62559 0.98984 0.0
O27 O 0.54207 0.61932 0.05494 0.0
Co28 Co 0.84376 0.51633 0.03126 0.0
O29 O 0.82817 0.54441 0.9784 0.0
O30 O 0.80952 0.50065 0.99538 0.0
C31 C 0.89101 0.51872 0.00438 0.0
O32 O 0.8543 0.48182 0.08206 0.0
Co33 Co 0.88757 0.53821 0.12223 0.0
O34 O 0.8917 0.4957 0.13734 0.0
C35 C 0.82441 0.54565 0.14174 0.0
C36 C 0.80851 0.5251 0.96706 0.0
C37 C 0.87406 0.47653 0.11926 0.0
O38 O 0.81914 0.53274 0.09468 0.0
O39 O 0.85016 0.55207 0.15813 0.0
O40 O 0.87266 0.50321 0.97595 0.0
O41 O 0.87943 0.53536 0.04254 0.0
Co42 Co 0.97564 0.84552 0.0404 0.0
O43 O 0.94847 0.82976 0.98694 0.0
O44 O 0.9931 0.81249 1.0018 0.0
C45 C 0.97104 0.8932 0.01694 0.0
O46 O 0.00958 0.85672 0.09094 0.0
Co47 Co 0.95044 0.88633 0.13465 0.0
O48 O 0.99216 0.88844 0.15608 0.0
C49 C 0.94599 0.8228 0.14874 0.0
C50 C 0.96878 0.81107 0.97375 0.0
C51 C 0.01281 0.87352 0.13387 0.0
O52 O 0.96059 0.81909 0.10261 0.0
O53 O 0.93715 0.84784 0.16587 0.0
O54 O 0.98722 0.87579 0.98684 0.0
O55 O 0.9548 0.88039 0.05433 0.0
Co56 Co 0.15422 0.02043 0.46177 0.0
O57 O 0.16825 0.04557 0.5205 0.0
O58 O 0.18832 0.00311 0.49731 0.0
C59 C 0.10638 0.02177 0.48526 0.0
O60 O 0.14467 0.98854 0.40516 0.0
Co61 Co 0.11259 0.04838 0.37174 0.0
O62 O 0.11245 0.00781 0.34289 0.0
C63 C 0.17592 0.05427 0.35694 0.0
C64 C 0.18818 0.02591 0.53 0.0
C65 C 0.12816 0.98676 0.36144 0.0
O66 O 0.18005 0.03934 0.40259 0.0
O67 O 0.15065 0.06248 0.34007 0.0
O68 O 0.12442 0.00495 0.51261 0.0
O69 O 0.11851 0.04023 0.45104 0.0
Co70 Co 0.47774 0.15741 0.47146 0.0
O71 O 0.45118 0.17254 0.52765 0.0
O72 O 0.49393 0.19198 0.50577 0.0
C73 C 0.47629 0.10993 0.49779 0.0
O74 O 0.511 0.14688 0.41774 0.0
Co75 Co 0.45265 0.11444 0.38209 0.0
O76 O 0.49402 0.11305 0.35718 0.0
C77 C 0.44592 0.17758 0.36347 0.0
C78 C 0.47045 0.19251 0.53702 0.0
C79 C 0.51426 0.12924 0.37598 0.0
O80 O 0.45989 0.18238 0.4096 0.0
O81 O 0.4385 0.15203 0.34755 0.0
O82 O 0.49233 0.12831 0.52508 0.0
O83 O 0.45858 0.12162 0.46159 0.0
Co84 Co 0.34443 0.47758 0.46824 0.0
O85 O 0.32917 0.45041 0.52289 0.0
O86 O 0.31057 0.49438 0.50559 0.0
C87 C 0.39187 0.47458 0.49255 0.0
O88 O 0.35516 0.51121 0.41541 0.0
Co89 Co 0.38647 0.4518 0.37631 0.0
O90 O 0.38693 0.49311 0.35073 0.0
C91 C 0.3233 0.4461 0.36168 0.0
C92 C 0.30971 0.47018 0.53477 0.0
C93 C 0.37167 0.51392 0.37146 0.0
O94 O 0.31899 0.46111 0.40688 0.0
O95 O 0.34858 0.43749 0.34528 0.0
O96 O 0.37382 0.49067 0.52141 0.0
O97 O 0.37984 0.45756 0.45612 0.0
Co98 Co 0.01737 0.3429 0.46364 0.0
O99 O 0.04645 0.32739 0.51433 0.0
O100 O 0.00408 0.30646 0.49677 0.0
C101 C 0.01829 0.38933 0.49634 0.0
O102 O 0.98176 0.35331 0.41605 0.0
Co103 Co 0.03375 0.39235 0.3778 0.0
O104 O 0.99069 0.39683 0.3747 0.0
C105 C 0.04321 0.33018 0.34666 0.0
C106 C 0.02833 0.30646 0.5252 0.0
C107 C 0.97357 0.37606 0.38796 0.0
O108 O 0.03446 0.32146 0.39593 0.0
O109 O 0.04581 0.35718 0.33313 0.0
O110 O 0.00345 0.36945 0.52288 0.0
O111 O 0.03451 0.37984 0.45549 0.0
Co112 Co 0.34529 0.01755 0.96574 0.0
O113 O 0.32865 0.04776 0.01265 0.0
O114 O 0.30965 0.00389 1.00084 0.0
C115 C 0.39161 0.02068 0.9981 0.0
O116 O 0.35652 0.9809 0.92204 0.0
Co117 Co 0.39436 0.03217 0.87818 0.0
O118 O 0.39994 0.98915 0.88021 0.0
C119 C 0.332 0.04001 0.84669 0.0
C120 C 0.30855 0.0291 0.02595 0.0
C121 C 0.37934 0.97215 0.89495 0.0
O122 O 0.32343 0.03212 0.89656 0.0
O123 O 0.35893 0.0427 0.83285 0.0
O124 O 0.37212 0.00615 0.02629 0.0
O125 O 0.38176 0.03545 0.95553 0.0
Co126 Co 0.47866 0.34782 0.97123 0.0
O127 O 0.44949 0.33156 0.02096 0.0
O128 O 0.4929 0.31168 0.00431 0.0
C129 C 0.47665 0.39409 0.00439 0.0
O130 O 0.51426 0.35869 0.9236 0.0
Co131 Co 0.46164 0.39728 0.88582 0.0
O132 O 0.5046 0.40222 0.88266 0.0
C133 C 0.45321 0.33515 0.8548 0.0
C134 C 0.46822 0.31093 0.03182 0.0
C135 C 0.5221 0.38147 0.89542 0.0
O136 O 0.46243 0.32647 0.9036 0.0
O137 O 0.45005 0.36213 0.84128 0.0
O138 O 0.4916 0.37413 0.03082 0.0
O139 O 0.46073 0.38468 0.96352 0.0
Co140 Co 0.15318 0.47614 0.97058 0.0
O141 O 0.16846 0.44867 0.02487 0.0
O142 O 0.18691 0.49244 0.00724 0.0
C143 C 0.10568 0.47374 0.99581 0.0
O144 O 0.14271 0.51004 0.91836 0.0
Co145 Co 0.11085 0.45184 0.87909 0.0
O146 O 0.1097 0.49349 0.85569 0.0
C147 C 0.17417 0.44566 0.86215 0.0
C148 C 0.18779 0.46826 0.03646 0.0
C149 C 0.12557 0.51361 0.87593 0.0
O150 O 0.17865 0.45956 0.90845 0.0
O151 O 0.1488 0.43798 0.84569 0.0
O152 O 0.12371 0.48951 0.02442 0.0
O153 O 0.11773 0.45669 0.95887 0.0
Co154 Co 0.01542 0.15372 0.96334 0.0
O155 O 0.04335 0.16882 0.01611 0.0
O156 O 0.00148 0.19044 0.99446 0.0
C157 C 0.01572 0.10727 0.99709 0.0
O158 O 0.98097 0.14397 0.91276 0.0
Co159 Co 0.03342 0.1037 0.88032 0.0
O160 O 0.99045 0.10026 0.87307 0.0
C161 C 0.04415 0.16567 0.84862 0.0
C162 C 0.02511 0.19014 0.02479 0.0
C163 C 0.97325 0.1215 0.88421 0.0
O164 O 0.03409 0.17476 0.89661 0.0
O165 O 0.04706 0.13857 0.83637 0.0
O166 O 0.00015 0.12729 0.02193 0.0
O167 O 0.03273 0.1166 0.95742 0.0
Co168 Co 0.84597 0.98124 0.53624 0.0
O169 O 0.82931 0.95148 0.48924 0.0
O170 O 0.81061 0.99579 0.50119 0.0
C171 C 0.89244 0.97702 0.50403 0.0
O172 O 0.85737 0.01759 0.5802 0.0
Co173 Co 0.89435 0.96518 0.62384 0.0
O174 O 0.90047 0.00804 0.62197 0.0
C175 C 0.83177 0.95856 0.65488 0.0
C176 C 0.80937 0.97058 0.47616 0.0
C177 C 0.88019 0.02566 0.60727 0.0
O178 O 0.8236 0.96704 0.60523 0.0
O179 O 0.85858 0.95512 0.6688 0.0
O180 O 0.87326 0.99207 0.47582 0.0
O181 O 0.88216 0.96241 0.54643 0.0
Co182 Co 0.51838 0.84704 0.5383 0.0
O183 O 0.54731 0.83258 0.48595 0.0
O184 O 0.50392 0.81273 0.50066 0.0
C185 C 0.51999 0.89465 0.51272 0.0
O186 O 0.4832 0.85621 0.58817 0.0
Co187 Co 0.53786 0.89085 0.6313 0.0
O188 O 0.49505 0.89439 0.64319 0.0
C189 C 0.54654 0.82759 0.64983 0.0
C190 C 0.52861 0.81258 0.47314 0.0
C191 C 0.47675 0.87597 0.62466 0.0
O192 O 0.53467 0.82224 0.60176 0.0
O193 O 0.55188 0.85344 0.66725 0.0
O194 O 0.50513 0.87616 0.48336 0.0
O195 O 0.53641 0.88315 0.55132 0.0
Co196 Co 0.65255 0.51673 0.53272 0.0
O197 O 0.6683 0.54489 0.48041 0.0
O198 O 0.68696 0.50077 0.4962 0.0
C199 C 0.60547 0.52006 0.50602 0.0
O200 O 0.64176 0.48212 0.58297 0.0
Co201 Co 0.60829 0.53866 0.6243 0.0
O202 O 0.60331 0.49607 0.63674 0.0
C203 C 0.67138 0.54521 0.64363 0.0
C204 C 0.68801 0.52538 0.46841 0.0
C205 C 0.6213 0.47678 0.61895 0.0
O206 O 0.67688 0.53246 0.59632 0.0
O207 O 0.64553 0.55182 0.66034 0.0
O208 O 0.62392 0.50437 0.47726 0.0
O209 O 0.61687 0.53627 0.54453 0.0
Co210 Co 0.97769 0.6519 0.542 0.0
O211 O 0.94985 0.66732 0.48872 0.0
O212 O 0.99385 0.68547 0.50337 0.0
C213 C 0.97475 0.6043 0.51813 0.0
O214 O 0.0121 0.64129 0.59228 0.0
Co215 Co 0.95453 0.60975 0.63622 0.0
O216 O 0.99658 0.60742 0.65529 0.0
C217 C 0.94826 0.67319 0.6515 0.0
C218 C 0.96949 0.68644 0.47531 0.0
C219 C 0.01637 0.62351 0.63376 0.0
O220 O 0.96184 0.6776 0.60442 0.0
O221 O 0.94082 0.64781 0.66911 0.0
O222 O 0.99031 0.62227 0.48822 0.0
O223 O 0.95819 0.61645 0.55588 0.0
H224 H 0.52569 0.14631 0.26897 0.0
H225 H 0.6416 0.0217 0.25235 0.0
H226 H 0.56529 0.10599 0.41478 0.0
H227 H 0.60803 0.06727 0.1065 0.0
H228 H 0.62542 0.062 0.31227 0.0
H229 H 0.56604 0.12855 0.21029 0.0
C230 C 0.54357 0.13456 0.28882 0.0
C231 C 0.54233 0.12736 0.34638 0.0
C232 C 0.62226 0.06373 0.26703 0.0
C233 C 0.5878 0.1059 0.27954 0.0
C234 C 0.63159 0.04076 0.23288 0.0
C235 C 0.62579 0.04128 0.17483 0.0
C236 C 0.60616 0.08685 0.24303 0.0
C237 C 0.61279 0.06622 0.15127 0.0
C238 C 0.56652 0.12428 0.25536 0.0
C239 C 0.56567 0.11195 0.37041 0.0
N240 N 0.6027 0.08779 0.18574 0.0
N241 N 0.58718 0.10108 0.33655 0.0
H242 H 0.38933 0.56664 0.41235 0.0
H243 H 0.43307 0.61073 0.09937 0.0
H244 H 0.35937 0.52398 0.26179 0.0
H245 H 0.47621 0.64011 0.24985 0.0
H246 H 0.39221 0.5935 0.15811 0.0
H247 H 0.40672 0.60752 0.35377 0.0
C248 C 0.38541 0.5665 0.36722 0.0
C249 C 0.37337 0.54198 0.34144 0.0
C250 C 0.41019 0.60458 0.17811 0.0
C251 C 0.39353 0.58792 0.27441 0.0
C252 C 0.43333 0.61456 0.14453 0.0
C253 C 0.45797 0.62638 0.17022 0.0
C254 C 0.41205 0.6064 0.23743 0.0
C255 C 0.45758 0.6307 0.22883 0.0
C256 C 0.39548 0.58965 0.33373 0.0
C257 C 0.36894 0.54251 0.28287 0.0
N258 N 0.43523 0.62024 0.26065 0.0
N259 N 0.37949 0.56486 0.25113 0.0
H260 H 0.90781 0.42864 0.09805 0.0
H261 H 0.92766 0.41207 0.40995 0.0
H262 H 0.84275 0.46305 0.21211 0.0
H263 H 0.95697 0.34326 0.29955 0.0
H264 H 0.89024 0.42559 0.34108 0.0
H265 H 0.92053 0.39134 0.16866 0.0
C266 C 0.89533 0.42739 0.13703 0.0
C267 C 0.8742 0.44861 0.1496 0.0
C268 C 0.90402 0.40675 0.33272 0.0
C269 C 0.88942 0.4073 0.2313 0.0
C270 C 0.92523 0.39898 0.37225 0.0
C271 C 0.94511 0.37652 0.36018 0.0
C272 C 0.90375 0.39275 0.27994 0.0
C273 C 0.94172 0.36058 0.31027 0.0
C274 C 0.90262 0.40625 0.17747 0.0
C275 C 0.85907 0.44677 0.2011 0.0
N276 N 0.92202 0.36959 0.27097 0.0
N277 N 0.86752 0.42697 0.24085 0.0
H278 H 0.02672 0.85513 0.23878 0.0
H279 H 0.14215 0.97918 0.25166 0.0
H280 H 0.06238 0.89844 0.09217 0.0
H281 H 0.10935 0.93343 0.39803 0.0
H282 H 0.12526 0.93963 0.19157 0.0
H283 H 0.06774 0.8723 0.29482 0.0
C284 C 0.04386 0.86747 0.2181 0.0
C285 C 0.04132 0.87563 0.16118 0.0
C286 C 0.12244 0.93769 0.23692 0.0
C287 C 0.08756 0.89637 0.22515 0.0
C288 C 0.1322 0.9602 0.27118 0.0
C289 C 0.1268 0.95947 0.3295 0.0
C290 C 0.10635 0.91478 0.26115 0.0
C291 C 0.11384 0.93465 0.35308 0.0
C292 C 0.06719 0.8774 0.25007 0.0
C293 C 0.06376 0.89174 0.13606 0.0
N294 N 0.10335 0.91354 0.31859 0.0
N295 N 0.08568 0.9022 0.1686 0.0
H296 H 0.3429 0.95399 0.81354 0.0
H297 H 0.46413 0.84096 0.71278 0.0
H298 H 0.41764 0.92724 0.9112 0.0
H299 H 0.42832 0.90989 0.60904 0.0
H300 H 0.42776 0.85222 0.78616 0.0
H301 H 0.35558 0.91703 0.74252 0.0
C302 C 0.361 0.93917 0.82154 0.0
C303 C 0.37937 0.94347 0.86791 0.0
C304 C 0.427 0.8639 0.74621 0.0
C305 C 0.39385 0.90162 0.7875 0.0
C306 C 0.44753 0.8574 0.7043 0.0
C307 C 0.44895 0.87458 0.65516 0.0
C308 C 0.40783 0.88758 0.73837 0.0
C309 C 0.42763 0.89613 0.64642 0.0
C310 C 0.36831 0.91834 0.78087 0.0
C311 C 0.40299 0.92438 0.87591 0.0
N312 N 0.4081 0.90237 0.68818 0.0
N313 N 0.40985 0.90446 0.83554 0.0
H314 H 0.58598 0.43041 0.60001 0.0
H315 H 0.54155 0.34328 0.81656 0.0
H316 H 0.65325 0.46201 0.70978 0.0
H317 H 0.56489 0.42184 0.90431 0.0
H318 H 0.57764 0.35497 0.74273 0.0
H319 H 0.57276 0.39403 0.67183 0.0
C320 C 0.59892 0.42857 0.63811 0.0
C321 C 0.62087 0.44879 0.64912 0.0
C322 C 0.57556 0.36904 0.77923 0.0
C323 C 0.60529 0.40834 0.73209 0.0
C324 C 0.55534 0.3622 0.82165 0.0
C325 C 0.55038 0.38176 0.86617 0.0
C326 C 0.59085 0.39545 0.7821 0.0
C327 C 0.56821 0.4063 0.87047 0.0
C328 C 0.5914 0.40787 0.67918 0.0
C329 C 0.63642 0.44639 0.6998 0.0
N330 N 0.58748 0.41267 0.82846 0.0
N331 N 0.62769 0.42717 0.74033 0.0
H332 H 0.02992 0.64777 0.73347 0.0
H333 H 0.14812 0.5241 0.7727 0.0
H334 H 0.0657 0.59506 0.5994 0.0
H335 H 0.10016 0.56497 0.90827 0.0
H336 H 0.13309 0.56365 0.70903 0.0
H337 H 0.06982 0.63192 0.79508 0.0
C338 C 0.04696 0.63375 0.71647 0.0
C339 C 0.04474 0.62252 0.66173 0.0
C340 C 0.12659 0.56456 0.75309 0.0
C341 C 0.08959 0.60351 0.73208 0.0
C342 C 0.1353 0.54212 0.78941 0.0
C343 C 0.12512 0.54145 0.84533 0.0
C344 C 0.107 0.58598 0.77273 0.0
C345 C 0.1084 0.56493 0.86527 0.0
C346 C 0.06958 0.62456 0.75165 0.0
C347 C 0.06691 0.60418 0.64147 0.0
N348 N 0.09928 0.58602 0.82856 0.0
N349 N 0.08818 0.5947 0.67713 0.0
H350 H 0.92634 0.08622 0.89821 0.0
H351 H 0.92003 0.06862 0.59158 0.0
H352 H 0.96011 0.15625 0.79535 0.0
H353 H 0.84326 0.04591 0.6875 0.0
H354 H 0.93145 0.10583 0.66182 0.0
H355 H 0.89106 0.07525 0.82402 0.0
C356 C 0.92531 0.10012 0.86103 0.0
C357 C 0.94584 0.12221 0.85267 0.0
C358 C 0.91141 0.09362 0.66634 0.0
C359 C 0.90694 0.10891 0.76674 0.0
C360 C 0.90488 0.07251 0.62612 0.0
C361 C 0.88068 0.05445 0.63397 0.0
C362 C 0.89434 0.09555 0.71575 0.0
C363 C 0.862 0.05971 0.68 0.0
C364 C 0.90531 0.09384 0.8186 0.0
C365 C 0.94431 0.13921 0.80327 0.0
N366 N 0.86977 0.07912 0.72042 0.0
N367 N 0.92585 0.13157 0.76114 0.0
H368 H 0.74258 0.99916 0.96442 0.0
H369 H 0.77185 0.95226 0.64737 0.0
H370 H 0.68305 0.94139 0.88041 0.0
H371 H 0.84154 0.96147 0.76811 0.0
H372 H 0.7364 0.95481 0.72599 0.0
H373 H 0.77707 0.99322 0.88541 0.0
C374 C 0.73678 0.98529 0.92933 0.0
C375 C 0.71007 0.97059 0.92904 0.0
C376 C 0.75953 0.95597 0.73491 0.0
C377 C 0.74901 0.96415 0.8384 0.0
C378 C 0.77972 0.95447 0.69022 0.0
C379 C 0.80976 0.95645 0.70103 0.0
C380 C 0.76948 0.96032 0.79032 0.0
C381 C 0.81868 0.95954 0.75752 0.0
C382 C 0.75644 0.98183 0.88446 0.0
C383 C 0.70358 0.95289 0.88245 0.0
N384 N 0.79867 0.96177 0.7998 0.0
N385 N 0.7228 0.95034 0.83867 0.0
H386 H 0.51344 0.77852 0.65634 0.0
H387 H 0.58084 0.71183 0.93664 0.0
H388 H 0.58409 0.82247 0.73976 0.0
H389 H 0.48799 0.71428 0.90766 0.0
H390 H 0.58795 0.74374 0.85378 0.0
H391 H 0.51025 0.74446 0.73622 0.0
C392 C 0.52885 0.78053 0.69066 0.0
C393 C 0.54912 0.80339 0.69134 0.0
C394 C 0.56607 0.73731 0.86584 0.0
C395 C 0.54536 0.76457 0.78277 0.0
C396 C 0.56197 0.7192 0.91294 0.0
C397 C 0.53376 0.71064 0.92908 0.0
C398 C 0.54186 0.74607 0.83376 0.0
C399 C 0.51005 0.72066 0.89692 0.0
C400 C 0.52671 0.76133 0.73649 0.0
C401 C 0.56816 0.80517 0.73756 0.0
N402 N 0.51466 0.73758 0.8503 0.0
N403 N 0.56586 0.78598 0.78152 0.0
H404 H 0.78659 0.57726 0.92918 0.0
H405 H 0.72075 0.51184 0.64939 0.0
H406 H 0.78349 0.48447 0.8993 0.0
H407 H 0.67571 0.58246 0.7341 0.0
H408 H 0.75448 0.50822 0.72886 0.0
H409 H 0.75463 0.5853 0.84718 0.0
C410 C 0.77905 0.55861 0.9055 0.0
C411 C 0.78746 0.53014 0.92103 0.0
C412 C 0.73744 0.52476 0.7295 0.0
C413 C 0.75205 0.53929 0.8268 0.0
C414 C 0.7184 0.52714 0.68393 0.0
C415 C 0.6953 0.54749 0.68512 0.0
C416 C 0.7338 0.54325 0.77605 0.0
C417 C 0.69316 0.56643 0.73155 0.0
C418 C 0.76093 0.56324 0.85891 0.0
C419 C 0.77724 0.50672 0.88898 0.0
N420 N 0.71221 0.56387 0.77533 0.0
N421 N 0.76034 0.51183 0.84286 0.0
H422 H 0.01087 0.7859 0.90729 0.0
H423 H 0.90852 0.68084 0.7377 0.0
H424 H 0.91758 0.79024 0.93195 0.0
H425 H 0.98434 0.71994 0.66016 0.0
H426 H 0.91225 0.71569 0.81592 0.0
H427 H 0.00336 0.755 0.8242 0.0
C428 C 0.98885 0.78008 0.89556 0.0
C429 C 0.9648 0.79056 0.92646 0.0
C430 C 0.92773 0.71685 0.78122 0.0
C431 C 0.95612 0.75529 0.83199 0.0
C432 C 0.92555 0.69712 0.73653 0.0
C433 C 0.94604 0.69759 0.69217 0.0
C434 C 0.95107 0.73651 0.7823 0.0
C435 C 0.96787 0.71898 0.6931 0.0
C436 C 0.98458 0.76274 0.84794 0.0
C437 C 0.93669 0.78261 0.90913 0.0
N438 N 0.97014 0.73722 0.73798 0.0
N439 N 0.9331 0.76521 0.86329 0.0
H440 H 0.18071 0.05804 0.62583 0.0
H441 H 0.34278 0.03755 0.73339 0.0
H442 H 0.2425 0.00115 0.54203 0.0
H443 H 0.27184 0.04627 0.85336 0.0
H444 H 0.3075 0.0346 0.65715 0.0
H445 H 0.21504 0.06329 0.70442 0.0
C446 C 0.20156 0.04676 0.62386 0.0
C447 C 0.20886 0.02915 0.57732 0.0
C448 C 0.29969 0.03737 0.70011 0.0
C449 C 0.24819 0.0355 0.66643 0.0
C450 C 0.31979 0.03938 0.74383 0.0
C451 C 0.31034 0.04224 0.80025 0.0
C452 C 0.26979 0.03878 0.71231 0.0
C453 C 0.28014 0.04409 0.81064 0.0
C454 C 0.22099 0.04967 0.6688 0.0
C455 C 0.23603 0.01486 0.57713 0.0
N456 N 0.26088 0.04245 0.76699 0.0
N457 N 0.25486 0.0186 0.62076 0.0
H458 H 0.49449 0.24681 0.54681 0.0
H459 H 0.44672 0.27525 0.86296 0.0
H460 H 0.43693 0.18656 0.63193 0.0
H461 H 0.45432 0.34554 0.74128 0.0
H462 H 0.44903 0.2401 0.78459 0.0
H463 H 0.4871 0.28156 0.62445 0.0
C464 C 0.48034 0.24092 0.58184 0.0
C465 C 0.46618 0.21391 0.58292 0.0
C466 C 0.44983 0.26329 0.77538 0.0
C467 C 0.45809 0.25312 0.67196 0.0
C468 C 0.44846 0.28332 0.81994 0.0
C469 C 0.45019 0.31343 0.80883 0.0
C470 C 0.45381 0.27348 0.71974 0.0
C471 C 0.45266 0.32261 0.75211 0.0
C472 C 0.47604 0.26073 0.6259 0.0
C473 C 0.44806 0.20731 0.62934 0.0
N474 N 0.45484 0.30274 0.7099 0.0
N475 N 0.44475 0.22665 0.67239 0.0
H476 H 0.28346 0.5116 0.60101 0.0
H477 H 0.18159 0.40637 0.7757 0.0
H478 H 0.28966 0.41844 0.57659 0.0
H479 H 0.22052 0.48214 0.85154 0.0
H480 H 0.21556 0.41118 0.69547 0.0
H481 H 0.25298 0.50303 0.68515 0.0
C482 C 0.27808 0.4894 0.61296 0.0
C483 C 0.28901 0.46568 0.58197 0.0
C484 C 0.21687 0.4264 0.73025 0.0
C485 C 0.2543 0.45579 0.67753 0.0
C486 C 0.19767 0.42359 0.77608 0.0
C487 C 0.19832 0.44378 0.82053 0.0
C488 C 0.23615 0.45007 0.72819 0.0
C489 C 0.21942 0.46589 0.81856 0.0
C490 C 0.26101 0.48452 0.66116 0.0
C491 C 0.28167 0.4373 0.59954 0.0
N492 N 0.23711 0.46878 0.77262 0.0
N493 N 0.26455 0.4331 0.64597 0.0
H494 H 0.06166 0.3149 0.61864 0.0
H495 H 0.04899 0.15355 0.73615 0.0
H496 H 0.00755 0.25074 0.53835 0.0
H497 H 0.04737 0.22615 0.85216 0.0
H498 H 0.04705 0.1878 0.65724 0.0
H499 H 0.06877 0.28126 0.69876 0.0
C500 C 0.05156 0.2936 0.61757 0.0
C501 C 0.03404 0.2855 0.57174 0.0
C502 C 0.04746 0.19618 0.69998 0.0
C503 C 0.04248 0.24702 0.66262 0.0
C504 C 0.04885 0.1767 0.74531 0.0
C505 C 0.04828 0.18688 0.80138 0.0
C506 C 0.04613 0.22622 0.71025 0.0
C507 C 0.04782 0.21726 0.80984 0.0
C508 C 0.05549 0.2746 0.66341 0.0
C509 C 0.0212 0.25781 0.57282 0.0
N510 N 0.0468 0.23592 0.76467 0.0
N511 N 0.0259 0.23942 0.61735 0.0
H512 H 0.22409 0.01909 0.34949 0.0
H513 H 0.28843 0.08224 0.06244 0.0
H514 H 0.18249 0.09312 0.26854 0.0
H515 H 0.28277 0.98984 0.09704 0.0
H516 H 0.25842 0.09186 0.14705 0.0
H517 H 0.2568 0.01439 0.26806 0.0
C518 C 0.22238 0.03495 0.31548 0.0
C519 C 0.20038 0.05651 0.31586 0.0
C520 C 0.26369 0.06953 0.13575 0.0
C521 C 0.23767 0.05095 0.22241 0.0
C522 C 0.28065 0.064 0.08757 0.0
C523 C 0.28783 0.03518 0.07257 0.0
C524 C 0.25473 0.0461 0.16997 0.0
C525 C 0.27743 0.01234 0.10673 0.0
C526 C 0.2408 0.03194 0.26869 0.0
C527 C 0.19906 0.07614 0.26996 0.0
N528 N 0.26171 0.01831 0.15426 0.0
N529 N 0.21741 0.07286 0.22489 0.0
H530 H 0.48059 0.22549 0.354 0.0
H531 H 0.41567 0.29079 0.07042 0.0
H532 H 0.40754 0.18335 0.2748 0.0
H533 H 0.50832 0.28422 0.0999 0.0
H534 H 0.40702 0.26008 0.15453 0.0
H535 H 0.48481 0.25797 0.27203 0.0
C536 C 0.46486 0.22359 0.32021 0.0
C537 C 0.44367 0.20158 0.32133 0.0
C538 C 0.42919 0.26529 0.1422 0.0
C539 C 0.44864 0.23863 0.22731 0.0
C540 C 0.43417 0.28266 0.09432 0.0
C541 C 0.46277 0.2898 0.07806 0.0
C542 C 0.45295 0.25589 0.17491 0.0
C543 C 0.48596 0.27892 0.11062 0.0
C544 C 0.4676 0.24188 0.27313 0.0
C545 C 0.42421 0.19997 0.27567 0.0
N546 N 0.48053 0.26283 0.15798 0.0
N547 N 0.42716 0.21825 0.23037 0.0
H548 H 0.31598 0.40567 0.27753 0.0
H549 H 0.21392 0.50985 0.10066 0.0
H550 H 0.27646 0.48264 0.35091 0.0
H551 H 0.20748 0.41652 0.08037 0.0
H552 H 0.24418 0.50172 0.18466 0.0
H553 H 0.28174 0.40964 0.19818 0.0
C554 C 0.29973 0.42299 0.27759 0.0
C555 C 0.29903 0.4438 0.32098 0.0
C556 C 0.23614 0.48307 0.16164 0.0
C557 C 0.26087 0.44906 0.22967 0.0
C558 C 0.21919 0.48768 0.1135 0.0
C559 C 0.20827 0.46381 0.08368 0.0
C560 C 0.24274 0.45442 0.17915 0.0
C561 C 0.21548 0.43549 0.10239 0.0
C562 C 0.28036 0.4253 0.23227 0.0
C563 C 0.27766 0.46595 0.31869 0.0
N564 N 0.2325 0.43154 0.14877 0.0
N565 N 0.25982 0.46834 0.27321 0.0
H566 H 0.00266 0.2456 0.0353 0.0
H567 H 0.04858 0.26987 0.35292 0.0
H568 H 0.05849 0.18277 0.11897 0.0
H569 H 0.04318 0.34137 0.23333 0.0
H570 H 0.04626 0.23548 0.27333 0.0
H571 H 0.01027 0.27953 0.11394 0.0
C572 C 0.01655 0.23901 0.0701 0.0
C573 C 0.03014 0.21148 0.07046 0.0
C574 C 0.04594 0.25875 0.26488 0.0
C575 C 0.03835 0.24973 0.16085 0.0
C576 C 0.04733 0.27836 0.31016 0.0
C577 C 0.04623 0.30863 0.30006 0.0
C578 C 0.04257 0.26953 0.20948 0.0
C579 C 0.04435 0.31832 0.24354 0.0
C580 C 0.02094 0.25834 0.1148 0.0
C581 C 0.04785 0.20394 0.11679 0.0
N582 N 0.04213 0.29889 0.20066 0.0
N583 N 0.0512 0.22283 0.16048 0.0
H584 H 0.72386 0.9805 0.15504 0.0
H585 H 0.78857 0.91779 0.44148 0.0
H586 H 0.68164 0.9083 0.23955 0.0
H587 H 0.78382 0.01011 0.4049 0.0
H588 H 0.75802 0.90845 0.35832 0.0
H589 H 0.75674 0.98509 0.23543 0.0
C590 C 0.72201 0.96502 0.18966 0.0
C591 C 0.69982 0.944 0.19051 0.0
C592 C 0.76361 0.93071 0.36886 0.0
C593 C 0.73735 0.94942 0.28278 0.0
C594 C 0.7809 0.93607 0.4162 0.0
C595 C 0.78849 0.96479 0.43023 0.0
C596 C 0.75472 0.95415 0.33446 0.0
C597 C 0.77817 0.98769 0.39594 0.0
C598 C 0.74055 0.96797 0.23584 0.0
C599 C 0.69835 0.92485 0.23715 0.0
N600 N 0.76212 0.98185 0.34919 0.0
N601 N 0.71683 0.92804 0.28158 0.0
H602 H 0.58156 0.79276 0.4352 0.0
H603 H 0.51848 0.7249 0.15452 0.0
H604 H 0.48914 0.78685 0.4038 0.0
H605 H 0.59114 0.68297 0.23866 0.0
H606 H 0.51395 0.75886 0.2334 0.0
H607 H 0.59095 0.76167 0.35243 0.0
C608 C 0.56328 0.78481 0.41101 0.0
C609 C 0.53452 0.79214 0.4264 0.0
C610 C 0.53115 0.74248 0.23402 0.0
C611 C 0.54517 0.75773 0.33127 0.0
C612 C 0.53404 0.7233 0.18874 0.0
C613 C 0.55518 0.70091 0.19003 0.0
C614 C 0.54988 0.7397 0.2804 0.0
C615 C 0.57447 0.69982 0.23604 0.0
C616 C 0.56868 0.76719 0.36396 0.0
C617 C 0.5116 0.78142 0.39364 0.0
N618 N 0.57134 0.71893 0.2796 0.0
N619 N 0.51744 0.76501 0.34716 0.0
H620 H 0.7099 0.57744 0.4315 0.0
H621 H 0.7751 0.5129 0.14795 0.0
H622 H 0.71297 0.48485 0.39888 0.0
H623 H 0.81977 0.5828 0.2325 0.0
H624 H 0.74154 0.50923 0.22828 0.0
H625 H 0.74152 0.58565 0.3486 0.0
C626 C 0.71738 0.55886 0.40705 0.0
C627 C 0.70905 0.5304 0.42206 0.0
C628 C 0.75846 0.52563 0.22871 0.0
C629 C 0.74405 0.53976 0.3268 0.0
C630 C 0.7774 0.52805 0.18264 0.0
C631 C 0.80037 0.54817 0.18354 0.0
C632 C 0.76208 0.54386 0.2755 0.0
C633 C 0.80243 0.56694 0.23017 0.0
C634 C 0.7353 0.56359 0.35993 0.0
C635 C 0.71917 0.50708 0.389 0.0
N636 N 0.78351 0.56433 0.27446 0.0
N637 N 0.73587 0.51231 0.3424 0.0
H638 H 0.90539 0.81372 0.23273 0.0
H639 H 0.01091 0.71252 0.40915 0.0
H640 H 0.98387 0.77698 0.1595 0.0
H641 H 0.91769 0.70571 0.43159 0.0
H642 H 0.00268 0.74271 0.32458 0.0
H643 H 0.90979 0.77903 0.31191 0.0
C644 C 0.92315 0.79796 0.23268 0.0
C645 C 0.94423 0.79817 0.18935 0.0
C646 C 0.98407 0.73458 0.34815 0.0
C647 C 0.94996 0.75946 0.28054 0.0
C648 C 0.98874 0.71767 0.39663 0.0
C649 C 0.96494 0.70671 0.42734 0.0
C650 C 0.95542 0.7411 0.3311 0.0
C651 C 0.93663 0.71375 0.40896 0.0
C652 C 0.92571 0.77833 0.27791 0.0
C653 C 0.96697 0.77743 0.19165 0.0
N654 N 0.93262 0.73074 0.36223 0.0
N655 N 0.96955 0.7593 0.23707 0.0
H656 H 0.41847 0.98263 0.07183 0.0
H657 H 0.57825 0.01635 0.94983 0.0
H658 H 0.43682 0.04651 0.94185 0.0
H659 H 0.56261 0.95269 0.08157 0.0
H660 H 0.52623 0.02728 0.94712 0.0
H661 H 0.47082 0.97161 0.07801 0.0
C662 C 0.43352 0.99453 0.04495 0.0
C663 C 0.42326 0.01551 0.00617 0.0
C664 C 0.53405 0.01087 0.97663 0.0
C665 C 0.48309 0.00282 0.01267 0.0
C666 C 0.56382 0.00453 0.9781 0.0
C667 C 0.57483 0.98354 0.01598 0.0
C668 C 0.51492 0.99615 0.01335 0.0
C669 C 0.55503 0.96898 0.05161 0.0
C670 C 0.46338 0.98813 0.04834 0.0
C671 C 0.44372 0.03014 0.97225 0.0
N672 N 0.526 0.97559 0.0495 0.0
N673 N 0.47258 0.02345 0.97618 0.0
H674 H 0.51586 0.41957 0.07588 0.0
H675 H 0.48883 0.57939 0.94654 0.0
H676 H 0.45157 0.44022 0.9488 0.0
H677 H 0.54785 0.5631 0.08498 0.0
H678 H 0.47651 0.52786 0.94567 0.0
H679 H 0.52859 0.47143 0.08026 0.0
C680 C 0.50423 0.43503 0.04928 0.0
C681 C 0.48265 0.42554 0.01177 0.0
C682 C 0.49221 0.53542 0.97627 0.0
C683 C 0.49735 0.48477 0.01614 0.0
C684 C 0.49937 0.5649 0.97666 0.0
C685 C 0.51942 0.57561 0.01595 0.0
C686 C 0.50515 0.51624 0.01544 0.0
C687 C 0.53234 0.55574 0.05389 0.0
C688 C 0.5116 0.4646 0.05167 0.0
C689 C 0.46839 0.44651 0.97821 0.0
N690 N 0.52494 0.52696 0.05278 0.0
N691 N 0.47608 0.47505 0.98101 0.0
H692 H 0.91963 0.48164 0.93267 0.0
H693 H 0.07665 0.51032 0.06746 0.0
H694 H 0.93469 0.54287 0.06727 0.0
H695 H 0.06233 0.44983 0.93128 0.0
H696 H 0.02463 0.52197 0.06858 0.0
H697 H 0.97172 0.4699 0.93097 0.0
C698 C 0.93394 0.49278 0.96165 0.0
C699 C 0.92279 0.51327 1.00023 0.0
C700 C 0.03279 0.50608 0.03852 0.0
C701 C 0.98248 0.49971 0.99881 0.0
C702 C 0.06251 0.49932 0.03796 0.0
C703 C 0.07386 0.47906 0.99916 0.0
C704 C 0.01415 0.49252 0.99996 0.0
C705 C 0.0545 0.46555 0.96193 0.0
C706 C 0.96368 0.48597 0.96076 0.0
C707 C 0.94234 0.52695 0.03683 0.0
N708 N 0.02558 0.47258 0.96315 0.0
N709 N 0.97122 0.51986 0.03533 0.0
H710 H 0.04464 0.06196 0.94758 0.0
H711 H 0.94515 0.93599 0.08233 0.0
H712 H 0.97394 0.08067 0.06344 0.0
H713 H 0.00742 0.92318 0.94698 0.0
H714 H 0.9562 0.98849 0.08085 0.0
H715 H 0.03297 0.01028 0.95321 0.0
C716 C 0.02672 0.05517 0.97453 0.0
C717 C 0.01016 0.0757 0.00488 0.0
C718 C 0.96731 0.97413 0.05139 0.0
C719 C 0.99647 0.01627 0.01136 0.0
C720 C 0.96095 0.94422 0.0521 0.0
C721 C 0.97537 0.92518 0.01471 0.0
C722 C 0.98834 0.98491 0.01326 0.0
C723 C 0.99574 0.93698 0.9766 0.0
C724 C 0.01997 0.02559 0.97758 0.0
C725 C 0.98727 0.06554 0.03933 0.0
N726 N 0.00166 0.96596 0.97704 0.0
N727 N 0.98101 0.0365 0.04153 0.0
H728 H 0.06303 0.0485 0.42302 0.0
H729 H 0.93695 0.94946 0.55945 0.0
H730 H 0.07737 0.9827 0.55146 0.0
H731 H 0.92011 0.01569 0.43298 0.0
H732 H 0.98885 0.96063 0.55413 0.0
H733 H 0.0108 0.03681 0.42429 0.0
C734 C 0.05518 0.03175 0.45168 0.0
C735 C 0.07456 0.01659 0.48725 0.0
C736 C 0.97388 0.97267 0.52729 0.0
C737 C 0.01505 0.00294 0.48861 0.0
C738 C 0.94421 0.96622 0.53019 0.0
C739 C 0.92416 0.9817 0.49671 0.0
C740 C 0.98369 0.99486 0.49068 0.0
C741 C 0.93484 0.00318 0.45951 0.0
C742 C 0.02541 0.025 0.45224 0.0
C743 C 0.06325 0.99498 0.52334 0.0
N744 N 0.96388 0.00923 0.45767 0.0
N745 N 0.03432 0.98881 0.52302 0.0
H746 H 0.48311 0.92311 0.44028 0.0
H747 H 0.51359 0.08137 0.56894 0.0
H748 H 0.54377 0.93861 0.57557 0.0
H749 H 0.45158 0.06598 0.43593 0.0
H750 H 0.52476 0.02918 0.572 0.0
H751 H 0.47172 0.97531 0.43714 0.0
C752 C 0.49418 0.93753 0.46915 0.0
C753 C 0.51445 0.92647 0.50828 0.0
C754 C 0.50864 0.03715 0.54223 0.0
C755 C 0.50133 0.98634 0.50515 0.0
C756 C 0.50218 0.06697 0.54054 0.0
C757 C 0.48159 0.07807 0.5021 0.0
C758 C 0.49449 0.01816 0.50511 0.0
C759 C 0.46755 0.05837 0.46629 0.0
C760 C 0.48758 0.96735 0.46744 0.0
C761 C 0.52803 0.94618 0.54471 0.0
N762 N 0.47431 0.02937 0.46856 0.0
N763 N 0.52119 0.97514 0.54233 0.0
H764 H 0.56161 0.54501 0.56898 0.0
H765 H 0.43527 0.45007 0.42718 0.0
H766 H 0.57714 0.48343 0.43444 0.0
H767 H 0.42072 0.51081 0.56352 0.0
H768 H 0.48738 0.46181 0.42888 0.0
H769 H 0.50964 0.53333 0.56625 0.0
C770 C 0.55405 0.52919 0.5386 0.0
C771 C 0.57371 0.51515 0.50196 0.0
C772 C 0.47277 0.47249 0.45853 0.0
C773 C 0.51432 0.50147 0.49881 0.0
C774 C 0.44307 0.46569 0.4577 0.0
C775 C 0.42366 0.47947 0.49525 0.0
C776 C 0.48307 0.49322 0.49716 0.0
C777 C 0.4349 0.49966 0.53378 0.0
C778 C 0.52439 0.52243 0.53718 0.0
C779 C 0.56273 0.49478 0.4635 0.0
N780 N 0.46381 0.50596 0.53365 0.0
N781 N 0.53379 0.48849 0.46303 0.0
H782 H 0.01056 0.57559 0.44489 0.0
H783 H 0.979 0.41561 0.56847 0.0
H784 H 0.95079 0.56037 0.58339 0.0
H785 H 0.0442 0.43496 0.44163 0.0
H786 H 0.96747 0.46794 0.57475 0.0
H787 H 0.02154 0.52357 0.44196 0.0
C788 C -0.00041 0.56125 0.4746 0.0
C789 C 0.97971 0.57238 0.51448 0.0
C790 C 0.98438 0.46071 0.54576 0.0
C791 C 0.99238 0.51245 0.51158 0.0
C792 C 0.99104 0.43087 0.54228 0.0
C793 C 0.01256 0.4209 0.50436 0.0
C794 C -0.00071 0.48065 0.51092 0.0
C795 C 0.02739 0.44161 0.47134 0.0
C796 C 0.00597 0.53148 0.47303 0.0
C797 C 0.96621 0.55269 0.55189 0.0
N798 N 0.0204 0.47041 0.47523 0.0
N799 N 0.97282 0.52362 0.54959 0.0
loop_
_geom_bond_atom_site_label_1
_geom_bond_atom_site_label_2
_geom_bond_distance
_geom_bond_site_symmetry_2
_ccdc_geom_bond_type
Co0 O1 2.216 1_545 S
Co0 O2 2.091 . S
Co0 O4 2.004 . S
Co0 O10 2.021 1_545 S
Co0 O12 2.137 1_545 S
Co0 O13 2.244 1_545 S
O1 Co0 2.216 1_565 S
O1 C8 1.247 1_564 S
O2 Co0 2.091 . S
O2 C8 1.261 1_554 S
C3 O12 1.247 . S
C3 O13 1.272 . S
O4 Co0 2.004 . S
O4 C9 1.259 . S
Co5 O6 2.061 1_565 S
Co5 O11 2.052 . S
Co5 O13 2.135 . S
O6 Co5 2.061 1_545 S
O6 C9 1.235 . S
C7 O10 1.238 . S
C7 O11 1.241 . S
C8 O1 1.247 1_546 S
C8 O2 1.261 1_556 S
C9 O4 1.259 . S
C9 O6 1.235 . S
O10 Co0 2.021 1_565 S
O10 C7 1.238 . S
O11 Co5 2.052 . S
O11 C7 1.241 . S
O12 Co0 2.137 1_565 S
O12 C3 1.247 . S
O13 Co0 2.244 1_565 S
O13 C3 1.272 . S
O13 Co5 2.135 . S
Co14 O15 2.216 . S
Co14 O16 2.091 . S
Co14 O18 2.004 . S
Co14 O24 2.021 . S
Co14 O26 2.137 . S
Co14 O27 2.244 . S
O15 Co14 2.216 . S
O15 C22 1.247 1_554 S
O16 Co14 2.091 . S
O16 C22 1.261 1_554 S
C17 O26 1.247 . S
C17 O27 1.272 . S
O18 Co14 2.004 . S
O18 C23 1.259 . S
Co19 O20 2.061 . S
Co19 O25 2.052 . S
Co19 O27 2.135 . S
O20 Co19 2.061 . S
O20 C23 1.235 . S
C21 O24 1.238 . S
C21 O25 1.241 . S
C22 O15 1.247 1_556 S
C22 O16 1.261 1_556 S
C23 O18 1.259 . S
C23 O20 1.235 . S
O24 Co14 2.021 . S
O24 C21 1.238 . S
O25 Co19 2.052 . S
O25 C21 1.241 . S
O26 Co14 2.137 . S
O26 C17 1.247 . S
O27 Co14 2.244 . S
O27 C17 1.272 . S
O27 Co19 2.135 . S
Co28 O29 2.216 . S
Co28 O30 2.091 . S
Co28 O32 2.004 . S
Co28 O38 2.021 . S
Co28 O40 2.137 . S
Co28 O41 2.244 . S
O29 Co28 2.216 . S
O29 C36 1.247 1_554 S
O30 Co28 2.091 . S
O30 C36 1.261 1_554 S
C31 O40 1.247 . S
C31 O41 1.272 . S
O32 Co28 2.004 . S
O32 C37 1.259 . S
Co33 O34 2.061 . S
Co33 O39 2.052 . S
Co33 O41 2.135 . S
O34 Co33 2.061 . S
O34 C37 1.235 . S
C35 O38 1.238 . S
C35 O39 1.241 . S
C36 O29 1.247 1_556 S
C36 O30 1.261 1_556 S
C37 O32 1.259 . S
C37 O34 1.235 . S
O38 Co28 2.021 . S
O38 C35 1.238 . S
O39 Co33 2.052 . S
O39 C35 1.241 . S
O40 Co28 2.137 . S
O40 C31 1.247 . S
O41 Co28 2.244 . S
O41 C31 1.272 . S
O41 Co33 2.135 . S
Co42 O43 2.216 1_455 S
Co42 O44 2.091 . S
Co42 O46 2.004 . S
Co42 O52 2.021 1_455 S
Co42 O54 2.137 1_455 S
Co42 O55 2.244 1_455 S
O43 Co42 2.216 1_655 S
O43 C50 1.247 1_654 S
O44 Co42 2.091 . S
O44 C50 1.261 1_554 S
C45 O54 1.247 . S
C45 O55 1.272 . S
O46 Co42 2.004 . S
O46 C51 1.259 . S
Co47 O48 2.061 1_655 S
Co47 O53 2.052 . S
Co47 O55 2.135 . S
O48 Co47 2.061 1_455 S
O48 C51 1.235 . S
C49 O52 1.238 . S
C49 O53 1.241 . S
C50 O43 1.247 1_456 S
C50 O44 1.261 1_556 S
C51 O46 1.259 . S
C51 O48 1.235 . S
O52 Co42 2.021 1_655 S
O52 C49 1.238 . S
O53 Co47 2.052 . S
O53 C49 1.241 . S
O54 Co42 2.137 1_655 S
O54 C45 1.247 . S
O55 Co42 2.244 1_655 S
O55 C45 1.272 . S
O55 Co47 2.135 . S
Co56 O57 2.216 1_565 S
Co56 O58 2.091 . S
Co56 O60 2.004 . S
Co56 O66 2.021 1_565 S
Co56 O68 2.137 1_565 S
Co56 O69 2.244 1_565 S
O57 Co56 2.216 1_545 S
O57 C64 1.247 1_545 S
O58 Co56 2.091 . S
O58 C64 1.261 . S
C59 O68 1.247 . S
C59 O69 1.272 . S
O60 Co56 2.004 . S
O60 C65 1.259 . S
Co61 O62 2.061 1_545 S
Co61 O67 2.052 . S
Co61 O69 2.135 . S
O62 Co61 2.061 1_565 S
O62 C65 1.235 . S
C63 O66 1.238 . S
C63 O67 1.241 . S
C64 O57 1.247 1_565 S
C64 O58 1.261 . S
C65 O60 1.259 . S
C65 O62 1.235 . S
O66 Co56 2.021 1_545 S
O66 C63 1.238 . S
O67 Co61 2.052 . S
O67 C63 1.241 . S
O68 Co56 2.137 1_545 S
O68 C59 1.247 . S
O69 Co56 2.244 1_545 S
O69 C59 1.272 . S
O69 Co61 2.135 . S
Co70 O71 2.216 . S
Co70 O72 2.091 . S
Co70 O74 2.004 . S
Co70 O80 2.021 . S
Co70 O82 2.137 . S
Co70 O83 2.244 . S
O71 Co70 2.216 . S
O71 C78 1.247 . S
O72 Co70 2.091 . S
O72 C78 1.261 . S
C73 O82 1.247 . S
C73 O83 1.272 . S
O74 Co70 2.004 . S
O74 C79 1.259 . S
Co75 O76 2.061 . S
Co75 O81 2.052 . S
Co75 O83 2.135 . S
O76 Co75 2.061 . S
O76 C79 1.235 . S
C77 O80 1.238 . S
C77 O81 1.241 . S
C78 O71 1.247 . S
C78 O72 1.261 . S
C79 O74 1.259 . S
C79 O76 1.235 . S
O80 Co70 2.021 . S
O80 C77 1.238 . S
O81 Co75 2.052 . S
O81 C77 1.241 . S
O82 Co70 2.137 . S
O82 C73 1.247 . S
O83 Co70 2.244 . S
O83 C73 1.272 . S
O83 Co75 2.135 . S
Co84 O85 2.216 . S
Co84 O86 2.091 . S
Co84 O88 2.004 . S
Co84 O94 2.021 . S
Co84 O96 2.137 . S
Co84 O97 2.244 . S
O85 Co84 2.216 . S
O85 C92 1.247 . S
O86 Co84 2.091 . S
O86 C92 1.261 . S
C87 O96 1.247 . S
C87 O97 1.272 . S
O88 Co84 2.004 . S
O88 C93 1.259 . S
Co89 O90 2.061 . S
Co89 O95 2.052 . S
Co89 O97 2.135 . S
O90 Co89 2.061 . S
O90 C93 1.235 . S
C91 O94 1.238 . S
C91 O95 1.241 . S
C92 O85 1.247 . S
C92 O86 1.261 . S
C93 O88 1.259 . S
C93 O90 1.235 . S
O94 Co84 2.021 . S
O94 C91 1.238 . S
O95 Co89 2.052 . S
O95 C91 1.241 . S
O96 Co84 2.137 . S
O96 C87 1.247 . S
O97 Co84 2.244 . S
O97 C87 1.272 . S
O97 Co89 2.135 . S
Co98 O99 2.216 1_655 S
Co98 O100 2.091 . S
Co98 O102 2.004 . S
Co98 O108 2.021 1_655 S
Co98 O110 2.137 1_655 S
Co98 O111 2.244 1_655 S
O99 Co98 2.216 1_455 S
O99 C106 1.247 1_455 S
O100 Co98 2.091 . S
O100 C106 1.261 . S
C101 O110 1.247 . S
C101 O111 1.272 . S
O102 Co98 2.004 . S
O102 C107 1.259 . S
Co103 O104 2.061 1_455 S
Co103 O109 2.052 . S
Co103 O111 2.135 . S
O104 Co103 2.061 1_655 S
O104 C107 1.235 . S
C105 O108 1.238 . S
C105 O109 1.241 . S
C106 O99 1.247 1_655 S
C106 O100 1.261 . S
C107 O102 1.259 . S
C107 O104 1.235 . S
O108 Co98 2.021 1_455 S
O108 C105 1.238 . S
O109 Co103 2.052 . S
O109 C105 1.241 . S
O110 Co98 2.137 1_455 S
O110 C101 1.247 . S
O111 Co98 2.244 1_455 S
O111 C101 1.272 . S
O111 Co103 2.135 . S
Co112 O113 2.216 1_565 S
Co112 O114 2.091 . S
Co112 O116 2.004 . S
Co112 O122 2.021 1_565 S
Co112 O124 2.137 1_565 S
Co112 O125 2.244 1_565 S
O113 Co112 2.216 1_545 S
O113 C120 1.247 1_546 S
O114 Co112 2.091 . S
O114 C120 1.261 1_556 S
C115 O124 1.247 . S
C115 O125 1.272 . S
O116 Co112 2.004 . S
O116 C121 1.259 . S
Co117 O118 2.061 1_545 S
Co117 O123 2.052 . S
Co117 O125 2.135 . S
O118 Co117 2.061 1_565 S
O118 C121 1.235 . S
C119 O122 1.238 . S
C119 O123 1.241 . S
C120 O113 1.247 1_564 S
C120 O114 1.261 1_554 S
C121 O116 1.259 . S
C121 O118 1.235 . S
O122 Co112 2.021 1_545 S
O122 C119 1.238 . S
O123 Co117 2.052 . S
O123 C119 1.241 . S
O124 Co112 2.137 1_545 S
O124 C115 1.247 . S
O125 Co112 2.244 1_545 S
O125 C115 1.272 . S
O125 Co117 2.135 . S
Co126 O127 2.216 . S
Co126 O128 2.091 . S
Co126 O130 2.004 . S
Co126 O136 2.021 . S
Co126 O138 2.137 . S
Co126 O139 2.244 . S
O127 Co126 2.216 . S
O127 C134 1.247 1_556 S
O128 Co126 2.091 . S
O128 C134 1.261 1_556 S
C129 O138 1.247 . S
C129 O139 1.272 . S
O130 Co126 2.004 . S
O130 C135 1.259 . S
Co131 O132 2.061 . S
Co131 O137 2.052 . S
Co131 O139 2.135 . S
O132 Co131 2.061 . S
O132 C135 1.235 . S
C133 O136 1.238 . S
C133 O137 1.241 . S
C134 O127 1.247 1_554 S
C134 O128 1.261 1_554 S
C135 O130 1.259 . S
C135 O132 1.235 . S
O136 Co126 2.021 . S
O136 C133 1.238 . S
O137 Co131 2.052 . S
O137 C133 1.241 . S
O138 Co126 2.137 . S
O138 C129 1.247 . S
O139 Co126 2.244 . S
O139 C129 1.272 . S
O139 Co131 2.135 . S
Co140 O141 2.216 . S
Co140 O142 2.091 . S
Co140 O144 2.004 . S
Co140 O150 2.021 . S
Co140 O152 2.137 . S
Co140 O153 2.244 . S
O141 Co140 2.216 . S
O141 C148 1.247 1_556 S
O142 Co140 2.091 . S
O142 C148 1.261 1_556 S
C143 O152 1.247 . S
C143 O153 1.272 . S
O144 Co140 2.004 . S
O144 C149 1.259 . S
Co145 O146 2.061 . S
Co145 O151 2.052 . S
Co145 O153 2.135 . S
O146 Co145 2.061 . S
O146 C149 1.235 . S
C147 O150 1.238 . S
C147 O151 1.241 . S
C148 O141 1.247 1_554 S
C148 O142 1.261 1_554 S
C149 O144 1.259 . S
C149 O146 1.235 . S
O150 Co140 2.021 . S
O150 C147 1.238 . S
O151 Co145 2.052 . S
O151 C147 1.241 . S
O152 Co140 2.137 . S
O152 C143 1.247 . S
O153 Co140 2.244 . S
O153 C143 1.272 . S
O153 Co145 2.135 . S
Co154 O155 2.216 1_655 S
Co154 O156 2.091 . S
Co154 O158 2.004 . S
Co154 O164 2.021 1_655 S
Co154 O166 2.137 1_655 S
Co154 O167 2.244 1_655 S
O155 Co154 2.216 1_455 S
O155 C162 1.247 1_456 S
O156 Co154 2.091 . S
O156 C162 1.261 1_556 S
C157 O166 1.247 . S
C157 O167 1.272 . S
O158 Co154 2.004 . S
O158 C163 1.259 . S
Co159 O160 2.061 1_455 S
Co159 O165 2.052 . S
Co159 O167 2.135 . S
O160 Co159 2.061 1_655 S
O160 C163 1.235 . S
C161 O164 1.238 . S
C161 O165 1.241 . S
C162 O155 1.247 1_654 S
C162 O156 1.261 1_554 S
C163 O158 1.259 . S
C163 O160 1.235 . S
O164 Co154 2.021 1_455 S
O164 C161 1.238 . S
O165 Co159 2.052 . S
O165 C161 1.241 . S
O166 Co154 2.137 1_455 S
O166 C157 1.247 . S
O167 Co154 2.244 1_455 S
O167 C157 1.272 . S
O167 Co159 2.135 . S
Co168 O169 2.216 1_545 S
Co168 O170 2.091 . S
Co168 O172 2.004 . S
Co168 O178 2.021 1_545 S
Co168 O180 2.137 1_545 S
Co168 O181 2.244 1_545 S
O169 Co168 2.216 1_565 S
O169 C176 1.247 1_565 S
O170 Co168 2.091 . S
O170 C176 1.261 . S
C171 O180 1.247 . S
C171 O181 1.272 . S
O172 Co168 2.004 . S
O172 C177 1.259 . S
Co173 O174 2.061 1_565 S
Co173 O179 2.052 . S
Co173 O181 2.135 . S
O174 Co173 2.061 1_545 S
O174 C177 1.235 . S
C175 O178 1.238 . S
C175 O179 1.241 . S
C176 O169 1.247 1_545 S
C176 O170 1.261 . S
C177 O172 1.259 . S
C177 O174 1.235 . S
O178 Co168 2.021 1_565 S
O178 C175 1.238 . S
O179 Co173 2.052 . S
O179 C175 1.241 . S
O180 Co168 2.137 1_565 S
O180 C171 1.247 . S
O181 Co168 2.244 1_565 S
O181 C171 1.272 . S
O181 Co173 2.135 . S
Co182 O183 2.216 . S
Co182 O184 2.091 . S
Co182 O186 2.004 . S
Co182 O192 2.021 . S
Co182 O194 2.137 . S
Co182 O195 2.244 . S
O183 Co182 2.216 . S
O183 C190 1.247 . S
O184 Co182 2.091 . S
O184 C190 1.261 . S
C185 O194 1.247 . S
C185 O195 1.272 . S
O186 Co182 2.004 . S
O186 C191 1.259 . S
Co187 O188 2.061 . S
Co187 O193 2.052 . S
Co187 O195 2.135 . S
O188 Co187 2.061 . S
O188 C191 1.235 . S
C189 O192 1.238 . S
C189 O193 1.241 . S
C190 O183 1.247 . S
C190 O184 1.261 . S
C191 O186 1.259 . S
C191 O188 1.235 . S
O192 Co182 2.021 . S
O192 C189 1.238 . S
O193 Co187 2.052 . S
O193 C189 1.241 . S
O194 Co182 2.137 . S
O194 C185 1.247 . S
O195 Co182 2.244 . S
O195 C185 1.272 . S
O195 Co187 2.135 . S
Co196 O197 2.216 . S
Co196 O198 2.091 . S
Co196 O200 2.004 . S
Co196 O206 2.021 . S
Co196 O208 2.137 . S
Co196 O209 2.244 . S
O197 Co196 2.216 . S
O197 C204 1.247 . S
O198 Co196 2.091 . S
O198 C204 1.261 . S
C199 O208 1.247 . S
C199 O209 1.272 . S
O200 Co196 2.004 . S
O200 C205 1.259 . S
Co201 O202 2.061 . S
Co201 O207 2.052 . S
Co201 O209 2.135 . S
O202 Co201 2.061 . S
O202 C205 1.235 . S
C203 O206 1.238 . S
C203 O207 1.241 . S
C204 O197 1.247 . S
C204 O198 1.261 . S
C205 O200 1.259 . S
C205 O202 1.235 . S
O206 Co196 2.021 . S
O206 C203 1.238 . S
O207 Co201 2.052 . S
O207 C203 1.241 . S
O208 Co196 2.137 . S
O208 C199 1.247 . S
O209 Co196 2.244 . S
O209 C199 1.272 . S
O209 Co201 2.135 . S
Co210 O211 2.216 1_455 S
Co210 O212 2.091 . S
Co210 O214 2.004 . S
Co210 O220 2.021 1_455 S
Co210 O222 2.137 1_455 S
Co210 O223 2.244 1_455 S
O211 Co210 2.216 1_655 S
O211 C218 1.247 1_655 S
O212 Co210 2.091 . S
O212 C218 1.261 . S
C213 O222 1.247 . S
C213 O223 1.272 . S
O214 Co210 2.004 . S
O214 C219 1.259 . S
Co215 O216 2.061 1_655 S
Co215 O221 2.052 . S
Co215 O223 2.135 . S
O216 Co215 2.061 1_455 S
O216 C219 1.235 . S
C217 O220 1.238 . S
C217 O221 1.241 . S
C218 O211 1.247 1_455 S
C218 O212 1.261 . S
C219 O214 1.259 . S
C219 O216 1.235 . S
O220 Co210 2.021 1_655 S
O220 C217 1.238 . S
O221 Co215 2.052 . S
O221 C217 1.241 . S
O222 Co210 2.137 1_655 S
O222 C213 1.247 . S
O223 Co210 2.244 1_655 S
O223 C213 1.272 . S
O223 Co215 2.135 . S
H224 C230 0.930 . S
H225 C234 0.930 . S
H226 C239 0.929 . S
H227 C237 0.929 . S
H228 C232 0.929 . S
H229 C238 0.929 . S
C230 H224 0.930 . S
C230 C231 1.367 . S
C230 C238 1.378 . S
C231 C230 1.367 . S
C231 C239 1.433 . S
C232 H228 0.929 . S
C232 C234 1.378 . S
C232 C236 1.350 . S
C233 C236 1.463 . S
C233 C238 1.350 . S
C233 N241 1.427 . S
C234 H225 0.930 . S
C234 C232 1.378 . S
C234 C235 1.367 . S
C235 C234 1.367 . S
C235 C237 1.433 . S
C236 C232 1.350 . S
C236 C233 1.463 . S
C236 N240 1.427 . S
C237 H227 0.929 . S
C237 C235 1.433 . S
C237 N240 1.384 . S
C238 H229 0.929 . S
C238 C230 1.378 . S
C238 C233 1.350 . S
C239 H226 0.929 . S
C239 C231 1.433 . S
C239 N241 1.384 . S
N240 C236 1.427 . S
N240 C237 1.384 . S
N241 C233 1.427 . S
N241 C239 1.384 . S
H242 C248 0.930 . S
H243 C252 0.930 . S
H244 C257 0.929 . S
H245 C255 0.929 . S
H246 C250 0.929 . S
H247 C256 0.929 . S
C248 H242 0.930 . S
C248 C249 1.367 . S
C248 C256 1.378 . S
C249 C248 1.367 . S
C249 C257 1.433 . S
C250 H246 0.929 . S
C250 C252 1.378 . S
C250 C254 1.350 . S
C251 C254 1.463 . S
C251 C256 1.350 . S
C251 N259 1.427 . S
C252 H243 0.930 . S
C252 C250 1.378 . S
C252 C253 1.367 . S
C253 C252 1.367 . S
C253 C255 1.433 . S
C254 C250 1.350 . S
C254 C251 1.463 . S
C254 N258 1.427 . S
C255 H245 0.929 . S
C255 C253 1.433 . S
C255 N258 1.384 . S
C256 H247 0.929 . S
C256 C248 1.378 . S
C256 C251 1.350 . S
C257 H244 0.929 . S
C257 C249 1.433 . S
C257 N259 1.384 . S
N258 C254 1.427 . S
N258 C255 1.384 . S
N259 C251 1.427 . S
N259 C257 1.384 . S
H260 C266 0.930 . S
H261 C270 0.930 . S
H262 C275 0.929 . S
H263 C273 0.929 . S
H264 C268 0.929 . S
H265 C274 0.929 . S
C266 H260 0.930 . S
C266 C267 1.367 . S
C266 C274 1.378 . S
C267 C266 1.367 . S
C267 C275 1.433 . S
C268 H264 0.929 . S
C268 C270 1.378 . S
C268 C272 1.350 . S
C269 C272 1.463 . S
C269 C274 1.350 . S
C269 N277 1.427 . S
C270 H261 0.930 . S
C270 C268 1.378 . S
C270 C271 1.367 . S
C271 C270 1.367 . S
C271 C273 1.433 . S
C272 C268 1.350 . S
C272 C269 1.463 . S
C272 N276 1.427 . S
C273 H263 0.929 . S
C273 C271 1.433 . S
C273 N276 1.384 . S
C274 H265 0.929 . S
C274 C266 1.378 . S
C274 C269 1.350 . S
C275 H262 0.929 . S
C275 C267 1.433 . S
C275 N277 1.384 . S
N276 C272 1.427 . S
N276 C273 1.384 . S
N277 C269 1.427 . S
N277 C275 1.384 . S
H278 C284 0.930 . S
H279 C288 0.930 . S
H280 C293 0.929 . S
H281 C291 0.929 . S
H282 C286 0.929 . S
H283 C292 0.929 . S
C284 H278 0.930 . S
C284 C285 1.367 . S
C284 C292 1.378 . S
C285 C284 1.367 . S
C285 C293 1.433 . S
C286 H282 0.929 . S
C286 C288 1.378 . S
C286 C290 1.350 . S
C287 C290 1.463 . S
C287 C292 1.350 . S
C287 N295 1.427 . S
C288 H279 0.930 . S
C288 C286 1.378 . S
C288 C289 1.367 . S
C289 C288 1.367 . S
C289 C291 1.433 . S
C290 C286 1.350 . S
C290 C287 1.463 . S
C290 N294 1.427 . S
C291 H281 0.929 . S
C291 C289 1.433 . S
C291 N294 1.384 . S
C292 H283 0.929 . S
C292 C284 1.378 . S
C292 C287 1.350 . S
C293 H280 0.929 . S
C293 C285 1.433 . S
C293 N295 1.384 . S
N294 C290 1.427 . S
N294 C291 1.384 . S
N295 C287 1.427 . S
N295 C293 1.384 . S
H296 C302 0.930 . S
H297 C306 0.930 . S
H298 C311 0.929 . S
H299 C309 0.929 . S
H300 C304 0.929 . S
H301 C310 0.929 . S
C302 H296 0.930 . S
C302 C303 1.367 . S
C302 C310 1.378 . S
C303 C302 1.367 . S
C303 C311 1.433 . S
C304 H300 0.929 . S
C304 C306 1.378 . S
C304 C308 1.350 . S
C305 C308 1.463 . S
C305 C310 1.350 . S
C305 N313 1.427 . S
C306 H297 0.930 . S
C306 C304 1.378 . S
C306 C307 1.367 . S
C307 C306 1.367 . S
C307 C309 1.433 . S
C308 C304 1.350 . S
C308 C305 1.463 . S
C308 N312 1.427 . S
C309 H299 0.929 . S
C309 C307 1.433 . S
C309 N312 1.384 . S
C310 H301 0.929 . S
C310 C302 1.378 . S
C310 C305 1.350 . S
C311 H298 0.929 . S
C311 C303 1.433 . S
C311 N313 1.384 . S
N312 C308 1.427 . S
N312 C309 1.384 . S
N313 C305 1.427 . S
N313 C311 1.384 . S
H314 C320 0.930 . S
H315 C324 0.930 . S
H316 C329 0.929 . S
H317 C327 0.929 . S
H318 C322 0.929 . S
H319 C328 0.929 . S
C320 H314 0.930 . S
C320 C321 1.367 . S
C320 C328 1.378 . S
C321 C320 1.367 . S
C321 C329 1.433 . S
C322 H318 0.929 . S
C322 C324 1.378 . S
C322 C326 1.350 . S
C323 C326 1.463 . S
C323 C328 1.350 . S
C323 N331 1.427 . S
C324 H315 0.930 . S
C324 C322 1.378 . S
C324 C325 1.367 . S
C325 C324 1.367 . S
C325 C327 1.433 . S
C326 C322 1.350 . S
C326 C323 1.463 . S
C326 N330 1.427 . S
C327 H317 0.929 . S
C327 C325 1.433 . S
C327 N330 1.384 . S
C328 H319 0.929 . S
C328 C320 1.378 . S
C328 C323 1.350 . S
C329 H316 0.929 . S
C329 C321 1.433 . S
C329 N331 1.384 . S
N330 C326 1.427 . S
N330 C327 1.384 . S
N331 C323 1.427 . S
N331 C329 1.384 . S
H332 C338 0.930 . S
H333 C342 0.930 . S
H334 C347 0.929 . S
H335 C345 0.929 . S
H336 C340 0.929 . S
H337 C346 0.929 . S
C338 H332 0.930 . S
C338 C339 1.367 . S
C338 C346 1.378 . S
C339 C338 1.367 . S
C339 C347 1.433 . S
C340 H336 0.929 . S
C340 C342 1.378 . S
C340 C344 1.350 . S
C341 C344 1.463 . S
C341 C346 1.350 . S
C341 N349 1.427 . S
C342 H333 0.930 . S
C342 C340 1.378 . S
C342 C343 1.367 . S
C343 C342 1.367 . S
C343 C345 1.433 . S
C344 C340 1.350 . S
C344 C341 1.463 . S
C344 N348 1.427 . S
C345 H335 0.929 . S
C345 C343 1.433 . S
C345 N348 1.384 . S
C346 H337 0.929 . S
C346 C338 1.378 . S
C346 C341 1.350 . S
C347 H334 0.929 . S
C347 C339 1.433 . S
C347 N349 1.384 . S
N348 C344 1.427 . S
N348 C345 1.384 . S
N349 C341 1.427 . S
N349 C347 1.384 . S
H350 C356 0.930 . S
H351 C360 0.930 . S
H352 C365 0.929 . S
H353 C363 0.929 . S
H354 C358 0.929 . S
H355 C364 0.929 . S
C356 H350 0.930 . S
C356 C357 1.367 . S
C356 C364 1.378 . S
C357 C356 1.367 . S
C357 C365 1.433 . S
C358 H354 0.929 . S
C358 C360 1.378 . S
C358 C362 1.350 . S
C359 C362 1.463 . S
C359 C364 1.350 . S
C359 N367 1.427 . S
C360 H351 0.930 . S
C360 C358 1.378 . S
C360 C361 1.367 . S
C361 C360 1.367 . S
C361 C363 1.433 . S
C362 C358 1.350 . S
C362 C359 1.463 . S
C362 N366 1.427 . S
C363 H353 0.929 . S
C363 C361 1.433 . S
C363 N366 1.384 . S
C364 H355 0.929 . S
C364 C356 1.378 . S
C364 C359 1.350 . S
C365 H352 0.929 . S
C365 C357 1.433 . S
C365 N367 1.384 . S
N366 C362 1.427 . S
N366 C363 1.384 . S
N367 C359 1.427 . S
N367 C365 1.384 . S
H368 C374 0.930 . S
H369 C378 0.930 . S
H370 C383 0.929 . S
H371 C381 0.929 . S
H372 C376 0.929 . S
H373 C382 0.929 . S
C374 H368 0.930 . S
C374 C375 1.369 . S
C374 C382 1.378 . S
C375 C374 1.369 . S
C375 C383 1.430 1_545 S
C376 H372 0.929 . S
C376 C378 1.378 . S
C376 C380 1.350 . S
C377 C380 1.463 . S
C377 C382 1.350 1_565 S
C377 N385 1.427 . S
C378 H369 0.930 . S
C378 C376 1.378 . S
C378 C379 1.367 . S
C379 C378 1.367 . S
C379 C381 1.433 . S
C380 C376 1.350 . S
C380 C377 1.463 . S
C380 N384 1.427 . S
C381 H371 0.929 . S
C381 C379 1.433 . S
C381 N384 1.384 . S
C382 H373 0.929 . S
C382 C374 1.378 . S
C382 C377 1.350 1_545 S
C383 H370 0.929 . S
C383 C375 1.430 1_565 S
C383 N385 1.384 . S
N384 C380 1.427 . S
N384 C381 1.384 . S
N385 C377 1.427 . S
N385 C383 1.384 . S
H386 C392 0.930 . S
H387 C396 0.930 . S
H388 C401 0.929 . S
H389 C399 0.929 . S
H390 C394 0.929 . S
H391 C400 0.929 . S
C392 H386 0.930 . S
C392 C393 1.367 . S
C392 C400 1.378 . S
C393 C392 1.367 . S
C393 C401 1.433 . S
C394 H390 0.929 . S
C394 C396 1.378 . S
C394 C398 1.350 . S
C395 C398 1.463 . S
C395 C400 1.350 . S
C395 N403 1.427 . S
C396 H387 0.930 . S
C396 C394 1.378 . S
C396 C397 1.367 . S
C397 C396 1.367 . S
C397 C399 1.433 . S
C398 C394 1.350 . S
C398 C395 1.463 . S
C398 N402 1.427 . S
C399 H389 0.929 . S
C399 C397 1.433 . S
C399 N402 1.384 . S
C400 H391 0.929 . S
C400 C392 1.378 . S
C400 C395 1.350 . S
C401 H388 0.929 . S
C401 C393 1.433 . S
C401 N403 1.384 . S
N402 C398 1.427 . S
N402 C399 1.384 . S
N403 C395 1.427 . S
N403 C401 1.384 . S
H404 C410 0.930 . S
H405 C414 0.930 . S
H406 C419 0.929 . S
H407 C417 0.929 . S
H408 C412 0.929 . S
H409 C418 0.929 . S
C410 H404 0.930 . S
C410 C411 1.367 . S
C410 C418 1.378 . S
C411 C410 1.367 . S
C411 C419 1.433 . S
C412 H408 0.929 . S
C412 C414 1.378 . S
C412 C416 1.350 . S
C413 C416 1.463 . S
C413 C418 1.350 . S
C413 N421 1.427 . S
C414 H405 0.930 . S
C414 C412 1.378 . S
C414 C415 1.367 . S
C415 C414 1.367 . S
C415 C417 1.433 . S
C416 C412 1.350 . S
C416 C413 1.463 . S
C416 N420 1.427 . S
C417 H407 0.929 . S
C417 C415 1.433 . S
C417 N420 1.384 . S
C418 H409 0.929 . S
C418 C410 1.378 . S
C418 C413 1.350 . S
C419 H406 0.929 . S
C419 C411 1.433 . S
C419 N421 1.384 . S
N420 C416 1.427 . S
N420 C417 1.384 . S
N421 C413 1.427 . S
N421 C419 1.384 . S
H422 C428 0.930 . S
H423 C432 0.930 . S
H424 C437 0.929 . S
H425 C435 0.929 . S
H426 C430 0.929 . S
H427 C436 0.929 . S
C428 H422 0.930 . S
C428 C429 1.365 1_455 S
C428 C436 1.378 . S
C429 C428 1.365 1_655 S
C429 C437 1.435 . S
C430 H426 0.929 . S
C430 C432 1.378 . S
C430 C434 1.350 . S
C431 C434 1.463 . S
C431 C436 1.350 1_655 S
C431 N439 1.427 . S
C432 H423 0.930 . S
C432 C430 1.378 . S
C432 C433 1.367 . S
C433 C432 1.367 . S
C433 C435 1.433 . S
C434 C430 1.350 . S
C434 C431 1.463 . S
C434 N438 1.427 . S
C435 H425 0.929 . S
C435 C433 1.433 . S
C435 N438 1.384 . S
C436 H427 0.929 . S
C436 C428 1.378 . S
C436 C431 1.350 1_455 S
C437 H424 0.929 . S
C437 C429 1.435 . S
C437 N439 1.384 . S
N438 C434 1.427 . S
N438 C435 1.384 . S
N439 C431 1.427 . S
N439 C437 1.384 . S
H440 C446 0.930 . S
H441 C450 0.931 . S
H442 C455 0.929 . S
H443 C453 0.929 . S
H444 C448 0.929 . S
H445 C454 0.929 . S
C446 H440 0.930 . S
C446 C447 1.395 . S
C446 C454 1.378 . S
C447 C446 1.395 . S
C447 C455 1.411 1_545 S
C448 H444 0.929 . S
C448 C450 1.378 . S
C448 C452 1.350 1_565 S
C449 C452 1.463 . S
C449 C454 1.350 . S
C449 N457 1.427 1_545 S
C450 H441 0.931 . S
C450 C448 1.378 . S
C450 C451 1.366 1_565 S
C451 C450 1.366 1_545 S
C451 C453 1.433 . S
C452 C448 1.350 1_545 S
C452 C449 1.463 . S
C452 N456 1.427 . S
C453 H443 0.929 . S
C453 C451 1.433 . S
C453 N456 1.384 . S
C454 H445 0.929 . S
C454 C446 1.378 . S
C454 C449 1.350 . S
C455 H442 0.929 . S
C455 C447 1.411 1_565 S
C455 N457 1.384 . S
N456 C452 1.427 . S
N456 C453 1.384 . S
N457 C449 1.427 1_565 S
N457 C455 1.384 . S
H458 C464 0.930 . S
H459 C468 0.930 . S
H460 C473 0.929 . S
H461 C471 0.929 . S
H462 C466 0.929 . S
H463 C472 0.929 . S
C464 H458 0.930 . S
C464 C465 1.367 . S
C464 C472 1.378 . S
C465 C464 1.367 . S
C465 C473 1.433 . S
C466 H462 0.929 . S
C466 C468 1.378 . S
C466 C470 1.350 . S
C467 C470 1.463 . S
C467 C472 1.350 . S
C467 N475 1.427 . S
C468 H459 0.930 . S
C468 C466 1.378 . S
C468 C469 1.367 . S
C469 C468 1.367 . S
C469 C471 1.433 . S
C470 C466 1.350 . S
C470 C467 1.463 . S
C470 N474 1.427 . S
C471 H461 0.929 . S
C471 C469 1.433 . S
C471 N474 1.384 . S
C472 H463 0.929 . S
C472 C464 1.378 . S
C472 C467 1.350 . S
C473 H460 0.929 . S
C473 C465 1.433 . S
C473 N475 1.384 . S
N474 C470 1.427 . S
N474 C471 1.384 . S
N475 C467 1.427 . S
N475 C473 1.384 . S
H476 C482 0.930 . S
H477 C486 0.930 . S
H478 C491 0.929 . S
H479 C489 0.929 . S
H480 C484 0.929 . S
H481 C490 0.929 . S
C482 H476 0.930 . S
C482 C483 1.367 . S
C482 C490 1.378 . S
C483 C482 1.367 . S
C483 C491 1.433 . S
C484 H480 0.929 . S
C484 C486 1.378 . S
C484 C488 1.350 . S
C485 C488 1.463 . S
C485 C490 1.350 . S
C485 N493 1.427 . S
C486 H477 0.930 . S
C486 C484 1.378 . S
C486 C487 1.367 . S
C487 C486 1.367 . S
C487 C489 1.433 . S
C488 C484 1.350 . S
C488 C485 1.463 . S
C488 N492 1.427 . S
C489 H479 0.929 . S
C489 C487 1.433 . S
C489 N492 1.384 . S
C490 H481 0.929 . S
C490 C482 1.378 . S
C490 C485 1.350 . S
C491 H478 0.929 . S
C491 C483 1.433 . S
C491 N493 1.384 . S
N492 C488 1.427 . S
N492 C489 1.384 . S
N493 C485 1.427 . S
N493 C491 1.384 . S
H494 C500 0.930 . S
H495 C504 0.930 . S
H496 C509 0.929 . S
H497 C507 0.929 . S
H498 C502 0.929 . S
H499 C508 0.929 . S
C500 H494 0.930 . S
C500 C501 1.366 . S
C500 C508 1.378 . S
C501 C500 1.366 . S
C501 C509 1.433 1_455 S
C502 H498 0.929 . S
C502 C504 1.378 . S
C502 C506 1.350 . S
C503 C506 1.463 . S
C503 C508 1.350 . S
C503 N511 1.427 . S
C504 H495 0.930 . S
C504 C502 1.378 . S
C504 C505 1.367 . S
C505 C504 1.367 . S
C505 C507 1.433 . S
C506 C502 1.350 . S
C506 C503 1.463 . S
C506 N510 1.427 . S
C507 H497 0.929 . S
C507 C505 1.433 . S
C507 N510 1.384 . S
C508 H499 0.929 . S
C508 C500 1.378 . S
C508 C503 1.350 . S
C509 H496 0.929 . S
C509 C501 1.433 1_655 S
C509 N511 1.384 1_655 S
N510 C506 1.427 . S
N510 C507 1.384 . S
N511 C503 1.427 . S
N511 C509 1.384 1_455 S
H512 C518 0.930 . S
H513 C522 0.930 . S
H514 C527 0.929 . S
H515 C525 0.929 . S
H516 C520 0.929 . S
H517 C526 0.929 . S
C518 H512 0.930 . S
C518 C519 1.367 1_565 S
C518 C526 1.378 . S
C519 C518 1.367 1_545 S
C519 C527 1.433 . S
C520 H516 0.929 . S
C520 C522 1.378 . S
C520 C524 1.350 . S
C521 C524 1.463 . S
C521 C526 1.350 1_545 S
C521 N529 1.427 . S
C522 H513 0.930 . S
C522 C520 1.378 . S
C522 C523 1.387 . S
C523 C522 1.387 . S
C523 C525 1.416 1_545 S
C524 C520 1.350 . S
C524 C521 1.463 . S
C524 N528 1.427 1_545 S
C525 H515 0.929 . S
C525 C523 1.416 1_565 S
C525 N528 1.384 . S
C526 H517 0.929 . S
C526 C518 1.378 . S
C526 C521 1.350 1_565 S
C527 H514 0.929 . S
C527 C519 1.433 . S
C527 N529 1.384 . S
N528 C524 1.427 1_565 S
N528 C525 1.384 . S
N529 C521 1.427 . S
N529 C527 1.384 . S
H530 C536 0.930 . S
H531 C540 0.930 . S
H532 C545 0.929 . S
H533 C543 0.929 . S
H534 C538 0.929 . S
H535 C544 0.929 . S
C536 H530 0.930 . S
C536 C537 1.367 . S
C536 C544 1.378 . S
C537 C536 1.367 . S
C537 C545 1.433 . S
C538 H534 0.929 . S
C538 C540 1.378 . S
C538 C542 1.350 . S
C539 C542 1.463 . S
C539 C544 1.350 . S
C539 N547 1.427 . S
C540 H531 0.930 . S
C540 C538 1.378 . S
C540 C541 1.367 . S
C541 C540 1.367 . S
C541 C543 1.433 . S
C542 C538 1.350 . S
C542 C539 1.463 . S
C542 N546 1.427 . S
C543 H533 0.929 . S
C543 C541 1.433 . S
C543 N546 1.384 . S
C544 H535 0.929 . S
C544 C536 1.378 . S
C544 C539 1.350 . S
C545 H532 0.929 . S
C545 C537 1.433 . S
C545 N547 1.384 . S
N546 C542 1.427 . S
N546 C543 1.384 . S
N547 C539 1.427 . S
N547 C545 1.384 . S
H548 C554 0.930 . S
H549 C558 0.930 . S
H550 C563 0.929 . S
H551 C561 0.929 . S
H552 C556 0.929 . S
H553 C562 0.929 . S
C554 H548 0.930 . S
C554 C555 1.367 . S
C554 C562 1.378 . S
C555 C554 1.367 . S
C555 C563 1.433 . S
C556 H552 0.929 . S
C556 C558 1.378 . S
C556 C560 1.350 . S
C557 C560 1.463 . S
C557 C562 1.350 . S
C557 N565 1.427 . S
C558 H549 0.930 . S
C558 C556 1.378 . S
C558 C559 1.367 . S
C559 C558 1.367 . S
C559 C561 1.433 . S
C560 C556 1.350 . S
C560 C557 1.463 . S
C560 N564 1.427 . S
C561 H551 0.929 . S
C561 C559 1.433 . S
C561 N564 1.384 . S
C562 H553 0.929 . S
C562 C554 1.378 . S
C562 C557 1.350 . S
C563 H550 0.929 . S
C563 C555 1.433 . S
C563 N565 1.384 . S
N564 C560 1.427 . S
N564 C561 1.384 . S
N565 C557 1.427 . S
N565 C563 1.384 . S
H566 C572 0.930 . S
H567 C576 0.930 . S
H568 C581 0.929 . S
H569 C579 0.909 1_655 S
H570 C574 0.929 . S
H571 C580 0.929 . S
C572 H566 0.930 . S
C572 C573 1.369 1_655 S
C572 C580 1.378 . S
C573 C572 1.369 1_455 S
C573 C581 1.431 . S
C574 H570 0.929 . S
C574 C576 1.378 . S
C574 C578 1.350 . S
C575 C578 1.463 . S
C575 C580 1.350 1_455 S
C575 N583 1.427 . S
C576 H567 0.930 . S
C576 C574 1.378 . S
C576 C577 1.367 . S
C577 C576 1.367 . S
C577 C579 1.461 . S
C578 C574 1.350 . S
C578 C575 1.463 . S
C578 N582 1.427 1_455 S
C579 H569 0.909 1_455 S
C579 C577 1.461 . S
C579 N582 1.378 1_455 S
C580 H571 0.929 . S
C580 C572 1.378 . S
C580 C575 1.350 1_655 S
C581 H568 0.929 . S
C581 C573 1.431 . S
C581 N583 1.384 . S
N582 C578 1.427 1_655 S
N582 C579 1.378 1_655 S
N583 C575 1.427 . S
N583 C581 1.384 . S
H584 C590 0.930 . S
H585 C594 0.930 . S
H586 C599 0.929 . S
H587 C597 0.929 . S
H588 C592 0.929 . S
H589 C598 0.929 . S
C590 H584 0.930 . S
C590 C591 1.367 1_545 S
C590 C598 1.378 . S
C591 C590 1.367 1_565 S
C591 C599 1.433 . S
C592 H588 0.929 . S
C592 C594 1.378 . S
C592 C596 1.350 . S
C593 C596 1.463 . S
C593 C598 1.350 1_565 S
C593 N601 1.427 . S
C594 H585 0.930 . S
C594 C592 1.378 . S
C594 C595 1.367 . S
C595 C594 1.367 . S
C595 C597 1.433 1_565 S
C596 C592 1.350 . S
C596 C593 1.463 . S
C596 N600 1.427 1_565 S
C597 H587 0.929 . S
C597 C595 1.433 1_545 S
C597 N600 1.384 . S
C598 H589 0.929 . S
C598 C590 1.378 . S
C598 C593 1.350 1_545 S
C599 H586 0.929 . S
C599 C591 1.433 . S
C599 N601 1.384 . S
N600 C596 1.427 1_545 S
N600 C597 1.384 . S
N601 C593 1.427 . S
N601 C599 1.384 . S
H602 C608 0.930 . S
H603 C612 0.930 . S
H604 C617 0.929 . S
H605 C615 0.929 . S
H606 C610 0.929 . S
H607 C616 0.929 . S
C608 H602 0.930 . S
C608 C609 1.367 . S
C608 C616 1.378 . S
C609 C608 1.367 . S
C609 C617 1.433 . S
C610 H606 0.929 . S
C610 C612 1.378 . S
C610 C614 1.350 . S
C611 C614 1.463 . S
C611 C616 1.350 . S
C611 N619 1.427 . S
C612 H603 0.930 . S
C612 C610 1.378 . S
C612 C613 1.367 . S
C613 C612 1.367 . S
C613 C615 1.433 . S
C614 C610 1.350 . S
C614 C611 1.463 . S
C614 N618 1.427 . S
C615 H605 0.929 . S
C615 C613 1.433 . S
C615 N618 1.384 . S
C616 H607 0.929 . S
C616 C608 1.378 . S
C616 C611 1.350 . S
C617 H604 0.929 . S
C617 C609 1.433 . S
C617 N619 1.384 . S
N618 C614 1.427 . S
N618 C615 1.384 . S
N619 C611 1.427 . S
N619 C617 1.384 . S
H620 C626 0.930 . S
H621 C630 0.930 . S
H622 C635 0.929 . S
H623 C633 0.929 . S
H624 C628 0.929 . S
H625 C634 0.929 . S
C626 H620 0.930 . S
C626 C627 1.367 . S
C626 C634 1.378 . S
C627 C626 1.367 . S
C627 C635 1.433 . S
C628 H624 0.929 . S
C628 C630 1.378 . S
C628 C632 1.350 . S
C629 C632 1.463 . S
C629 C634 1.350 . S
C629 N637 1.427 . S
C630 H621 0.930 . S
C630 C628 1.378 . S
C630 C631 1.367 . S
C631 C630 1.367 . S
C631 C633 1.433 . S
C632 C628 1.350 . S
C632 C629 1.463 . S
C632 N636 1.427 . S
C633 H623 0.929 . S
C633 C631 1.433 . S
C633 N636 1.384 . S
C634 H625 0.929 . S
C634 C626 1.378 . S
C634 C629 1.350 . S
C635 H622 0.929 . S
C635 C627 1.433 . S
C635 N637 1.384 . S
N636 C632 1.427 . S
N636 C633 1.384 . S
N637 C629 1.427 . S
N637 C635 1.384 . S
H638 C644 0.930 . S
H639 C648 0.930 . S
H640 C653 0.929 . S
H641 C651 0.929 . S
H642 C646 0.929 . S
H643 C652 0.929 . S
C644 H638 0.930 . S
C644 C645 1.367 . S
C644 C652 1.378 . S
C645 C644 1.367 . S
C645 C653 1.433 1_655 S
C646 H642 0.929 . S
C646 C648 1.378 . S
C646 C650 1.350 1_455 S
C647 C650 1.463 . S
C647 C652 1.350 . S
C647 N655 1.427 1_655 S
C648 H639 0.930 . S
C648 C646 1.378 . S
C648 C649 1.381 . S
C649 C648 1.381 . S
C649 C651 1.416 1_455 S
C650 C646 1.350 1_655 S
C650 C647 1.463 . S
C650 N654 1.427 . S
C651 H641 0.929 . S
C651 C649 1.416 1_655 S
C651 N654 1.384 . S
C652 H643 0.929 . S
C652 C644 1.378 . S
C652 C647 1.350 . S
C653 H640 0.929 . S
C653 C645 1.433 1_455 S
C653 N655 1.384 . S
N654 C650 1.427 . S
N654 C651 1.384 . S
N655 C647 1.427 1_455 S
N655 C653 1.384 . S
H656 C662 0.930 . S
H657 C666 0.930 . S
H658 C671 0.929 . S
H659 C669 0.929 . S
H660 C664 0.931 . S
H661 C670 0.928 . S
C662 H656 0.930 . S
C662 C663 1.367 1_554 S
C662 C670 1.378 . S
C663 C662 1.367 1_556 S
C663 C671 1.433 . S
C664 H660 0.931 . S
C664 C666 1.378 . S
C664 C668 1.350 1_556 S
C665 C668 1.463 1_546 S
C665 C670 1.350 1_556 S
C665 N673 1.427 . S
C666 H657 0.930 . S
C666 C664 1.378 . S
C666 C667 1.367 1_556 S
C667 C666 1.367 1_554 S
C667 C669 1.433 . S
C668 C664 1.350 1_554 S
C668 C665 1.463 1_564 S
C668 N672 1.427 . S
C669 H659 0.929 . S
C669 C667 1.433 . S
C669 N672 1.384 . S
C670 H661 0.928 . S
C670 C662 1.378 . S
C670 C665 1.350 1_554 S
C671 H658 0.929 . S
C671 C663 1.433 . S
C671 N673 1.384 . S
N672 C668 1.427 . S
N672 C669 1.384 . S
N673 C665 1.427 . S
N673 C671 1.384 . S
H674 C680 0.930 . S
H675 C684 0.930 . S
H676 C689 0.929 . S
H677 C687 0.929 . S
H678 C682 0.929 . S
H679 C688 0.929 . S
C680 H674 0.930 . S
C680 C681 1.367 1_554 S
C680 C688 1.378 . S
C681 C680 1.367 1_556 S
C681 C689 1.433 . S
C682 H678 0.929 . S
C682 C684 1.378 . S
C682 C686 1.350 1_556 S
C683 C686 1.463 1_556 S
C683 C688 1.350 1_556 S
C683 N691 1.427 . S
C684 H675 0.930 . S
C684 C682 1.378 . S
C684 C685 1.367 1_556 S
C685 C684 1.367 1_554 S
C685 C687 1.433 . S
C686 C682 1.350 1_554 S
C686 C683 1.463 1_554 S
C686 N690 1.427 . S
C687 H677 0.929 . S
C687 C685 1.433 . S
C687 N690 1.384 . S
C688 H679 0.929 . S
C688 C680 1.378 . S
C688 C683 1.350 1_554 S
C689 H676 0.929 . S
C689 C681 1.433 . S
C689 N691 1.384 . S
N690 C686 1.427 . S
N690 C687 1.384 . S
N691 C683 1.427 . S
N691 C689 1.384 . S
H692 C698 0.930 . S
H693 C702 0.930 . S
H694 C707 0.929 . S
H695 C705 0.929 . S
H696 C700 0.929 . S
H697 C706 0.929 . S
C698 H692 0.930 . S
C698 C699 1.367 . S
C698 C706 1.378 . S
C699 C698 1.367 . S
C699 C707 1.433 . S
C700 H696 0.929 . S
C700 C702 1.378 . S
C700 C704 1.350 . S
C701 C704 1.463 1_654 S
C701 C706 1.350 . S
C701 N709 1.427 . S
C702 H693 0.930 . S
C702 C700 1.378 . S
C702 C703 1.367 . S
C703 C702 1.367 . S
C703 C705 1.433 . S
C704 C700 1.350 . S
C704 C701 1.463 1_456 S
C704 N708 1.427 . S
C705 H695 0.929 . S
C705 C703 1.433 . S
C705 N708 1.384 . S
C706 H697 0.929 . S
C706 C698 1.378 . S
C706 C701 1.350 . S
C707 H694 0.929 . S
C707 C699 1.433 . S
C707 N709 1.384 . S
N708 C704 1.427 . S
N708 C705 1.384 . S
N709 C701 1.427 . S
N709 C707 1.384 . S
H710 C716 0.930 1_554 S
H711 C720 0.930 1_556 S
H712 C725 0.929 . S
H713 C723 0.929 . S
H714 C718 0.929 . S
H715 C724 0.929 . S
C716 H710 0.930 1_556 S
C716 C717 1.367 . S
C716 C724 1.378 1_556 S
C717 C716 1.367 . S
C717 C725 1.433 1_455 S
C718 H714 0.929 . S
C718 C720 1.378 1_556 S
C718 C722 1.350 1_556 S
C719 C722 1.463 1_446 S
C719 C724 1.350 1_556 S
C719 N727 1.427 1_455 S
C720 H711 0.930 1_554 S
C720 C718 1.378 1_554 S
C720 C721 1.367 . S
C721 C720 1.367 . S
C721 C723 1.433 1_655 S
C722 C718 1.350 1_554 S
C722 C719 1.463 1_664 S
C722 N726 1.427 1_655 S
C723 H713 0.929 . S
C723 C721 1.433 1_455 S
C723 N726 1.384 . S
C724 H715 0.929 . S
C724 C716 1.378 1_554 S
C724 C719 1.350 1_554 S
C725 H712 0.929 . S
C725 C717 1.433 1_655 S
C725 N727 1.384 . S
N726 C722 1.427 1_455 S
N726 C723 1.384 . S
N727 C719 1.427 1_655 S
N727 C725 1.384 . S
H728 C734 0.930 . S
H729 C738 0.930 . S
H730 C743 0.929 . S
H731 C741 0.947 . S
H732 C736 0.929 . S
H733 C742 0.929 . S
C734 H728 0.930 . S
C734 C735 1.367 . S
C734 C742 1.378 . S
C735 C734 1.367 . S
C735 C743 1.433 1_545 S
C736 H732 0.929 . S
C736 C738 1.378 . S
C736 C740 1.350 . S
C737 C740 1.463 1_445 S
C737 C742 1.350 . S
C737 N745 1.427 1_545 S
C738 H729 0.930 . S
C738 C736 1.378 . S
C738 C739 1.367 . S
C739 C738 1.367 . S
C739 C741 1.404 1_565 S
C740 C736 1.350 . S
C740 C737 1.463 1_665 S
C740 N744 1.427 1_565 S
C741 H731 0.947 . S
C741 C739 1.404 1_545 S
C741 N744 1.396 . S
C742 H733 0.929 . S
C742 C734 1.378 . S
C742 C737 1.350 . S
C743 H730 0.929 . S
C743 C735 1.433 1_565 S
C743 N745 1.384 . S
N744 C740 1.427 1_545 S
N744 C741 1.396 . S
N745 C737 1.427 1_565 S
N745 C743 1.384 . S
H746 C752 0.930 . S
H747 C756 0.930 . S
H748 C761 0.929 . S
H749 C759 0.929 . S
H750 C754 0.929 . S
H751 C760 0.929 . S
C752 H746 0.930 . S
C752 C753 1.367 . S
C752 C760 1.378 . S
C753 C752 1.367 . S
C753 C761 1.433 . S
C754 H750 0.929 . S
C754 C756 1.378 . S
C754 C758 1.350 . S
C755 C758 1.463 1_565 S
C755 C760 1.350 . S
C755 N763 1.427 . S
C756 H747 0.930 . S
C756 C754 1.378 . S
C756 C757 1.367 . S
C757 C756 1.367 . S
C757 C759 1.433 . S
C758 C754 1.350 . S
C758 C755 1.463 1_545 S
C758 N762 1.427 . S
C759 H749 0.929 . S
C759 C757 1.433 . S
C759 N762 1.384 . S
C760 H751 0.929 . S
C760 C752 1.378 . S
C760 C755 1.350 . S
C761 H748 0.929 . S
C761 C753 1.433 . S
C761 N763 1.384 . S
N762 C758 1.427 . S
N762 C759 1.384 . S
N763 C755 1.427 . S
N763 C761 1.384 . S
H764 C770 0.930 . S
H765 C774 0.930 . S
H766 C779 0.929 . S
H767 C777 0.929 . S
H768 C772 0.929 . S
H769 C778 0.929 . S
C770 H764 0.930 . S
C770 C771 1.367 . S
C770 C778 1.378 . S
C771 C770 1.367 . S
C771 C779 1.433 . S
C772 H768 0.929 . S
C772 C774 1.378 . S
C772 C776 1.350 . S
C773 C776 1.463 . S
C773 C778 1.350 . S
C773 N781 1.427 . S
C774 H765 0.930 . S
C774 C772 1.378 . S
C774 C775 1.367 . S
C775 C774 1.367 . S
C775 C777 1.433 . S
C776 C772 1.350 . S
C776 C773 1.463 . S
C776 N780 1.427 . S
C777 H767 0.929 . S
C777 C775 1.433 . S
C777 N780 1.384 . S
C778 H769 0.929 . S
C778 C770 1.378 . S
C778 C773 1.350 . S
C779 H766 0.929 . S
C779 C771 1.433 . S
C779 N781 1.384 . S
N780 C776 1.427 . S
N780 C777 1.384 . S
N781 C773 1.427 . S
N781 C779 1.384 . S
H782 C788 0.930 . S
H783 C792 0.930 . S
H784 C797 0.929 . S
H785 C795 0.929 . S
H786 C790 0.929 1_655 S
H787 C796 0.929 1_455 S
C788 H782 0.930 . S
C788 C789 1.367 . S
C788 C796 1.378 . S
C789 C788 1.367 . S
C789 C797 1.433 . S
C790 H786 0.929 1_455 S
C790 C792 1.378 . S
C790 C794 1.350 . S
C791 C794 1.463 1_655 S
C791 C796 1.350 . S
C791 N799 1.427 . S
C792 H783 0.930 . S
C792 C790 1.378 . S
C792 C793 1.367 . S
C793 C792 1.367 . S
C793 C795 1.433 . S
C794 C790 1.350 . S
C794 C791 1.463 1_455 S
C794 N798 1.427 . S
C795 H785 0.929 . S
C795 C793 1.433 . S
C795 N798 1.384 . S
C796 H787 0.929 1_655 S
C796 C788 1.378 . S
C796 C791 1.350 . S
C797 H784 0.929 . S
C797 C789 1.433 . S
C797 N799 1.384 . S
N798 C794 1.427 . S
N798 C795 1.384 . S
N799 C791 1.427 . S
N799 C797 1.384 . S
C231 C79 0.375 . S
C235 C9 0.371 . S
C249 C93 0.387 . S
C253 C23 0.422 . S
C267 C37 0.384 . S
C271 C107 0.407 . S
C285 C51 0.394 . S
C289 C65 0.362 . S
C303 C121 0.391 . S
C307 C191 0.351 . S
C321 C205 0.370 . S
C325 C135 0.415 . S
C339 C219 0.384 . S
C343 C149 0.359 . S
C357 C163 0.414 . S
C361 C177 0.398 . S
C375 C8 1.615 . S
C379 C175 1.542 . S
C393 C189 1.571 . S
C397 C22 1.665 . S
C411 C36 1.669 . S
C415 C203 1.592 . S
C429 C50 1.628 1_655 S
C433 C217 1.550 . S
C447 C64 1.623 1_545 S
C451 C119 1.546 . S
C465 C78 1.671 . S
C469 C133 1.601 . S
C483 C92 1.669 . S
C487 C147 1.586 . S
C501 C106 1.612 1_455 S
C505 C161 1.528 . S
C519 C63 1.528 . S
C523 C120 1.609 1_545 S
C537 C77 1.575 . S
C541 C134 1.665 . S
C555 C91 1.597 . S
C559 C148 1.671 . S
C573 C162 1.630 1_455 S
C577 C105 1.562 . S
C591 C7 1.549 . S
C595 C176 1.627 1_565 S
C609 C190 1.668 . S
C613 C21 1.586 . S
C627 C204 1.665 . S
C631 C35 1.572 . S
C645 C49 1.536 . S
C649 C218 1.616 . S
C663 C115 1.542 . S
C667 C3 1.542 . S
C681 C129 1.589 . S
C685 C17 1.589 . S
C699 C31 1.686 . S
C703 C143 1.686 . S
C717 C157 1.620 . S
C721 C45 1.621 . S
C735 C59 1.617 . S
C739 C171 1.618 . S
C753 C185 1.698 . S
C757 C73 1.698 . S
C771 C199 1.594 . S
C775 C87 1.594 . S
C789 C213 1.540 . S
C793 C101 1.541 . S
