# Generated by pormake.
# Topology smm, (6)-cn, num edge types: 1
# Building blocks:
#     Node 0, Type 0, BuildingBlock: BETDIP_clean_sbu_0, # of connection points: 6
#     Node 1, Type 0, BuildingBlock: BETDIP_clean_sbu_0, # of connection points: 6
#     Node 2, Type 0, BuildingBlock: BETDIP_clean_sbu_0, # of connection points: 6
#     Node 3, Type 0, BuildingBlock: BETDIP_clean_sbu_0, # of connection points: 6
#     Node 4, Type 0, BuildingBlock: BETDIP_clean_sbu_0, # of connection points: 6
#     Node 5, Type 0, BuildingBlock: BETDIP_clean_sbu_0, # of connection points: 6
#     Node 6, Type 0, BuildingBlock: BETDIP_clean_sbu_0, # of connection points: 6
#     Node 7, Type 0, BuildingBlock: BETDIP_clean_sbu_0, # of connection points: 6
#     Node 8, Type 0, BuildingBlock: BETDIP_clean_sbu_0, # of connection points: 6
#     Edge 9, Type (0, 0), BuildingBlock: CIFDUS_clean_linker_0, # of connection points: 2
#     Edge 10, Type (0, 0), BuildingBlock: CIFDUS_clean_linker_0, # of connection points: 2
#     Edge 11, Type (0, 0), BuildingBlock: CIFDUS_clean_linker_0, # of connection points: 2
#     Edge 12, Type (0, 0), BuildingBlock: CIFDUS_clean_linker_0, # of connection points: 2
#     Edge 13, Type (0, 0), BuildingBlock: CIFDUS_clean_linker_0, # of connection points: 2
#     Edge 14, Type (0, 0), BuildingBlock: CIFDUS_clean_linker_0, # of connection points: 2
#     Edge 15, Type (0, 0), BuildingBlock: CIFDUS_clean_linker_0, # of connection points: 2
#     Edge 16, Type (0, 0), BuildingBlock: CIFDUS_clean_linker_0, # of connection points: 2
#     Edge 17, Type (0, 0), BuildingBlock: CIFDUS_clean_linker_0, # of connection points: 2
#     Edge 18, Type (0, 0), BuildingBlock: CIFDUS_clean_linker_0, # of connection points: 2
#     Edge 19, Type (0, 0), BuildingBlock: CIFDUS_clean_linker_0, # of connection points: 2
#     Edge 20, Type (0, 0), BuildingBlock: CIFDUS_clean_linker_0, # of connection points: 2
#     Edge 21, Type (0, 0), BuildingBlock: CIFDUS_clean_linker_0, # of connection points: 2
#     Edge 22, Type (0, 0), BuildingBlock: CIFDUS_clean_linker_0, # of connection points: 2
#     Edge 23, Type (0, 0), BuildingBlock: CIFDUS_clean_linker_0, # of connection points: 2
#     Edge 24, Type (0, 0), BuildingBlock: CIFDUS_clean_linker_0, # of connection points: 2
#     Edge 25, Type (0, 0), BuildingBlock: CIFDUS_clean_linker_0, # of connection points: 2
#     Edge 26, Type (0, 0), BuildingBlock: CIFDUS_clean_linker_0, # of connection points: 2
#     Edge 27, Type (0, 0), BuildingBlock: CIFDUS_clean_linker_0, # of connection points: 2
#     Edge 28, Type (0, 0), BuildingBlock: CIFDUS_clean_linker_0, # of connection points: 2
#     Edge 29, Type (0, 0), BuildingBlock: CIFDUS_clean_linker_0, # of connection points: 2
#     Edge 30, Type (0, 0), BuildingBlock: CIFDUS_clean_linker_0, # of connection points: 2
#     Edge 31, Type (0, 0), BuildingBlock: CIFDUS_clean_linker_0, # of connection points: 2
#     Edge 32, Type (0, 0), BuildingBlock: CIFDUS_clean_linker_0, # of connection points: 2
#     Edge 33, Type (0, 0), BuildingBlock: CIFDUS_clean_linker_0, # of connection points: 2
#     Edge 34, Type (0, 0), BuildingBlock: CIFDUS_clean_linker_0, # of connection points: 2
#     Edge 35, Type (0, 0), BuildingBlock: CIFDUS_clean_linker_0, # of connection points: 2
# Relax obj value: 0.034
# Max RMSD: 0.107
# Mean RMSD: 0.107
data_MOF--net-smm--node1-BETDIP_clean_sbu_0--edge1-CIFDUS_clean_linker_0
_symmetry_space_group_name_H-M    P1
_symmetry_Int_Tables_number       1
_symmetry_cell_setting            triclinic
loop_
_symmetry_equiv_pos_as_xyz
'x, y, z'
_cell_length_a     63.797881
_cell_length_b     63.804988
_cell_length_c     12.363559
_cell_angle_alpha  89.793798
_cell_angle_beta   89.891369
_cell_angle_gamma 120.24927
loop_
_atom_site_label
_atom_site_type_symbol
_atom_site_fract_x
_atom_site_fract_y
_atom_site_fract_z
_atom_type_partial_charge
Tb0 Tb 1.02943 0.20977 0.00702 0.0
Tb1 Tb 0.07539 0.20662 0.9834 0.0
C2 C 0.99656 0.21819 0.06635 0.0
C3 C 0.99183 0.23782 0.09675 0.0
C4 C 1.00804 0.25787 0.15914 0.0
C5 C 1.00171 0.27501 0.19268 0.0
C6 C 0.97905 0.27226 0.16476 0.0
C7 C 0.96338 0.25257 0.0992 0.0
C8 C 0.96968 0.23558 0.06592 0.0
C9 C 1.03896 0.20077 0.81145 0.0
C10 C 0.08024 0.25777 0.97036 0.0
C11 C 0.10838 0.19817 0.92535 0.0
C12 C 0.11637 0.18045 0.94491 0.0
C13 C 0.10054 0.15714 0.98617 0.0
C14 C 0.10857 0.14049 0.00043 0.0
C15 C 0.1326 0.14688 0.97413 0.0
C16 C 0.14839 0.17041 0.93419 0.0
C17 C 0.14034 0.18696 0.91977 0.0
C18 C 0.0651 0.21422 0.1805 0.0
C19 C 1.02336 0.15789 0.01005 0.0
O20 O 1.00913 0.21287 0.13324 0.0
O21 O 1.00205 0.21738 0.96506 0.0
O22 O 0.05424 0.21493 0.87878 0.0
O23 O 1.01727 0.19327 0.84798 0.0
O24 O 0.05855 0.24784 0.01674 0.0
O25 O 0.08893 0.24418 0.93301 0.0
O26 O 0.08792 0.19038 0.87363 0.0
O27 O 0.11051 0.21228 0.00612 0.0
O28 O 0.0503 0.2009 0.1102 0.0
O29 O 0.0868 0.22104 0.14684 0.0
O30 O 0.04671 0.16801 0.98397 0.0
O31 O 1.01324 0.17103 0.03449 0.0
H32 H 1.02533 0.26008 0.18338 0.0
H33 H 1.0142 0.28998 0.24296 0.0
H34 H 0.94605 0.25017 0.07399 0.0
H35 H 0.95698 0.22036 0.01727 0.0
H36 H 0.08198 0.15177 0.00667 0.0
H37 H 0.09598 0.12263 0.03238 0.0
H38 H 0.16686 0.17588 0.91144 0.0
H39 H 0.15281 0.20485 0.88758 0.0
Tb40 Tb 0.88158 0.8482 -0.00835 0.0
Tb41 Tb 0.8881 0.89671 0.94292 0.0
C42 C 0.87159 0.80874 0.08236 0.0
C43 C 0.85352 0.78292 0.09899 0.0
C44 C 0.86146 0.76799 0.14421 0.0
C45 C 0.84514 0.74351 0.16467 0.0
C46 C 0.82038 0.73324 0.1399 0.0
C47 C 0.81238 0.74832 0.0946 0.0
C48 C 0.82885 0.77301 0.07417 0.0
C49 C 0.89017 0.86087 0.78438 0.0
C50 C 0.83522 0.85239 0.92947 0.0
C51 C 0.89995 0.93827 0.86997 0.0
C52 C 0.91805 0.96399 0.88939 0.0
C53 C 0.91194 0.98168 0.86438 0.0
C54 C 0.92842 1.00623 0.88248 0.0
C55 C 0.95148 1.01371 0.92611 0.0
C56 C 0.95766 0.99591 0.95064 0.0
C57 C 0.94104 0.97123 0.93289 0.0
C58 C 0.88061 0.88407 0.15089 0.0
C59 C 0.93475 0.89175 0.98434 0.0
O60 O 0.86718 0.82484 0.1256 0.0
O61 O 0.88171 0.81535 0.9868 0.0
O62 O 0.8773 0.86505 0.84829 0.0
O63 O 0.89697 0.84739 0.83406 0.0
O64 O 0.8434 0.83942 0.97887 0.0
O65 O 0.85048 0.87448 0.89254 0.0
O66 O 0.90777 0.9245 0.82962 0.0
O67 O 0.88383 0.92725 0.94632 0.0
O68 O 0.89334 0.88024 0.08493 0.0
O69 O 0.87309 0.89699 0.10233 0.0
O70 O 0.92588 0.9047 0.94167 0.0
O71 O 0.92025 0.8699 0.02511 0.0
H72 H 0.8804 0.77537 0.16479 0.0
H73 H 0.85194 0.73269 0.20163 0.0
H74 H 0.79347 0.741 0.07391 0.0
H75 H 0.82237 0.7843 0.03938 0.0
H76 H 0.89433 0.97648 0.83059 0.0
H77 H 0.92317 1.01941 0.86091 0.0
H78 H 0.97518 1.00101 0.98504 0.0
H79 H 0.94609 0.95785 0.95347 0.0
Tb80 Tb 0.24706 0.0626 -0.00056 0.0
Tb81 Tb 0.19588 1.02012 0.96278 0.0
C82 C 0.28423 0.09809 0.08016 0.0
C83 C 0.3103 0.10815 0.10083 0.0
C84 C 0.32363 0.13187 0.14007 0.0
C85 C 0.34849 0.14255 0.15875 0.0
C86 C 0.36068 0.12973 0.13856 0.0
C87 C 0.34717 0.10566 0.10119 0.0
C88 C 0.32213 0.09495 0.08202 0.0
C89 C 0.23365 0.05332 0.79691 0.0
C90 C 0.24262 1.01367 0.93451 0.0
C91 C 0.15636 0.9849 0.899 0.0
C92 C 0.13014 0.97691 0.90927 0.0
C93 C 0.11768 0.97955 0.82145 0.0
C94 C 0.09285 0.97149 0.82894 0.0
C95 C 0.07976 0.96039 0.92424 0.0
C96 C 0.09223 0.95773 0.01209 0.0
C97 C 0.11709 0.96586 0.00473 0.0
C98 C 0.20974 0.03008 0.16513 0.0
C99 C 0.20043 0.07 0.01054 0.0
O100 O 0.26897 0.07877 0.13522 0.0
O101 O 0.27767 0.09725 0.97933 0.0
O102 O 0.22049 0.05192 0.87571 0.0
O103 O 0.25588 0.06193 0.82886 0.0
O104 O 0.25655 0.03451 0.98436 0.0
O105 O 0.21968 1.00631 0.90898 0.0
O106 O 0.16973 1.00436 0.84041 0.0
O107 O 0.16758 0.98435 0.98667 0.0
O108 O 0.22253 0.03078 0.08629 0.0
O109 O 0.1877 1.02225 0.1331 0.0
O110 O 0.18639 0.04821 0.96947 0.0
O111 O 0.22345 0.07788 0.03645 0.0
H112 H 0.31478 0.14228 0.15582 0.0
H113 H 0.35821 0.16093 0.18928 0.0
H114 H 0.35605 0.09535 0.0844 0.0
H115 H 0.31209 0.07656 0.05177 0.0
H116 H 0.12712 0.9877 0.74634 0.0
H117 H 0.0838 0.97352 0.75909 0.0
H118 H 0.08281 0.9495 0.08708 0.0
H119 H 0.12601 0.96337 0.07392 0.0
Tb120 Tb 0.69645 0.54455 0.29526 0.0
Tb121 Tb 0.7402 0.53714 0.2799 0.0
C122 C 0.66512 0.55584 0.34673 0.0
C123 C 0.66131 0.57597 0.38103 0.0
C124 C 0.66675 0.5856 0.48627 0.0
C125 C 0.65957 0.60199 0.52095 0.0
C126 C 0.64651 0.6088 0.45171 0.0
C127 C 0.64189 0.59981 0.34549 0.0
C128 C 0.64916 0.58361 0.31076 0.0
C129 C 0.7049 0.53251 0.10355 0.0
C130 C 0.74886 0.58964 0.25257 0.0
C131 C 0.77153 0.52593 0.22686 0.0
C132 C 0.78142 0.50999 0.25524 0.0
C133 C 0.78084 0.49373 0.17746 0.0
C134 C 0.79242 0.48039 0.19609 0.0
C135 C 0.80502 0.48303 0.29307 0.0
C136 C 0.80519 0.49897 0.37205 0.0
C137 C 0.79352 0.51231 0.35339 0.0
C138 C 0.73101 0.54758 0.47389 0.0
C139 C 0.68648 0.49104 0.30766 0.0
O140 O 0.67472 0.54741 0.41549 0.0
O141 O 0.67261 0.55645 0.24748 0.0
O142 O 0.72059 0.54636 0.17018 0.0
O143 O 0.68361 0.52717 0.13838 0.0
O144 O 0.72751 0.5819 0.30001 0.0
O145 O 0.75552 0.57413 0.21915 0.0
O146 O 0.74962 0.5156 0.18679 0.0
O147 O 0.77579 0.54367 0.29264 0.0
O148 O 0.71581 0.53475 0.40385 0.0
O149 O 0.7521 0.55175 0.44242 0.0
O150 O 0.70981 0.49946 0.28601 0.0
O151 O 0.67762 0.50561 0.32468 0.0
H152 H 0.67577 0.57988 0.54314 0.0
H153 H 0.66329 0.60847 0.60346 0.0
H154 H 0.63216 0.60493 0.28961 0.0
H155 H 0.64447 0.57635 0.22966 0.0
H156 H 0.77197 0.49184 0.10049 0.0
H157 H 0.79218 0.46861 0.13269 0.0
H158 H 0.81445 0.50125 0.44816 0.0
H159 H 0.79443 0.52477 0.41493 0.0
Tb160 Tb 0.5505 0.18343 0.34263 0.0
Tb161 Tb 0.55114 0.22937 0.29539 0.0
C162 C 0.54388 0.1445 0.42827 0.0
C163 C 0.52551 0.11892 0.45017 0.0
C164 C 0.53348 0.10303 0.48239 0.0
C165 C 0.51684 0.07869 0.5052 0.0
C166 C 0.49171 0.06954 0.49589 0.0
C167 C 0.48373 0.08562 0.46409 0.0
C168 C 0.50051 0.11011 0.44134 0.0
C169 C 0.55782 0.19654 0.13613 0.0
C170 C 0.5008 0.18209 0.28697 0.0
C171 C 0.55898 0.26983 0.22366 0.0
C172 C 0.57697 0.29577 0.23774 0.0
C173 C 0.57271 0.31324 0.19019 0.0
C174 C 0.58925 0.33798 0.20345 0.0
C175 C 0.61052 0.34581 0.26439 0.0
C176 C 0.61478 0.32818 0.31178 0.0
C177 C 0.59807 0.30337 0.29908 0.0
C178 C 0.5448 0.21638 0.50249 0.0
C179 C 0.60136 0.23036 0.33134 0.0
O180 O 0.54176 0.16116 0.48042 0.0
O181 O 0.55047 0.15061 0.32757 0.0
O182 O 0.5435 0.19853 0.20023 0.0
O183 O 0.56728 0.18537 0.18557 0.0
O184 O 0.51134 0.17129 0.33636 0.0
O185 O 0.51394 0.20434 0.24773 0.0
O186 O 0.56653 0.25655 0.17587 0.0
O187 O 0.54522 0.25879 0.30734 0.0
O188 O 0.55896 0.21466 0.43666 0.0
O189 O 0.53476 0.22703 0.454 0.0
O190 O 0.59002 0.2415 0.29455 0.0
O191 O 0.58918 0.20783 0.36842 0.0
H192 H 0.5527 0.10951 0.49051 0.0
H193 H 0.52373 0.0671 0.5315 0.0
H194 H 0.46455 0.07922 0.4553 0.0
H195 H 0.49401 0.12212 0.41689 0.0
H196 H 0.55651 0.30772 0.14265 0.0
H197 H 0.58554 0.35101 0.16465 0.0
H198 H 0.63084 0.33357 0.36002 0.0
H199 H 0.60154 0.29015 0.33754 0.0
Tb200 Tb 0.90939 0.39244 0.33765 0.0
Tb201 Tb 0.86082 0.34512 0.30367 0.0
C202 C 0.94796 0.42585 0.41946 0.0
C203 C 0.97465 0.43676 0.42496 0.0
C204 C 0.98599 0.42283 0.43558 0.0
C205 C 1.01133 0.43425 0.44707 0.0
C206 C 1.0258 0.45979 0.44798 0.0
C207 C 1.01422 0.47349 0.43654 0.0
C208 C 0.98904 0.46213 0.42513 0.0
C209 C 0.89681 0.38023 0.13572 0.0
C210 C 0.90806 0.34138 0.31749 0.0
C211 C 0.82104 0.31125 0.23353 0.0
C212 C 0.79475 0.30135 0.24805 0.0
C213 C 0.77869 0.27809 0.20882 0.0
C214 C 0.75373 0.26739 0.22673 0.0
C215 C 0.74422 0.27972 0.28445 0.0
C216 C 0.76037 0.30333 0.3219 0.0
C217 C 0.78547 0.31402 0.30426 0.0
C218 C 0.87323 0.35817 0.50572 0.0
C219 C 0.86202 0.39583 0.30822 0.0
O220 O 0.93422 0.40471 0.46614 0.0
O221 O 0.93896 0.42803 0.32778 0.0
O222 O 0.89311 0.36616 0.21349 0.0
O223 O 0.91082 0.40243 0.16674 0.0
O224 O 0.92048 0.36453 0.34794 0.0
O225 O 0.88551 0.33142 0.2813 0.0
O226 O 0.83346 0.33245 0.18577 0.0
O227 O 0.83244 0.30912 0.31684 0.0
O228 O 0.87683 0.37182 0.42657 0.0
O229 O 0.85959 0.33592 0.47566 0.0
O230 O 0.85067 0.37281 0.27772 0.0
O231 O 0.88419 0.40638 0.35021 0.0
H232 H 0.9753 0.4032 0.43577 0.0
H233 H 1.01959 0.42308 0.45458 0.0
H234 H 1.02455 0.49312 0.43878 0.0
H235 H 0.98071 0.47326 0.41814 0.0
H236 H 0.78551 0.26803 0.16522 0.0
H237 H 0.74184 0.2494 0.19509 0.0
H238 H 0.75366 0.31327 0.36712 0.0
H239 H 0.79762 0.33197 0.33574 0.0
Tb240 Tb 0.36552 0.87927 0.65681 0.0
Tb241 Tb 0.4073 0.87232 0.61182 0.0
C242 C 0.33672 0.89114 0.73931 0.0
C243 C 0.33187 0.91145 0.75442 0.0
C244 C 0.34001 0.92598 0.84755 0.0
C245 C 0.33231 0.94256 0.87039 0.0
C246 C 0.31609 0.9449 0.80121 0.0
C247 C 0.30855 0.93088 0.70643 0.0
C248 C 0.31626 0.91433 0.68355 0.0
C249 C 0.36964 0.86996 0.45148 0.0
C250 C 0.41691 0.92519 0.59375 0.0
C251 C 0.43671 0.85984 0.54342 0.0
C252 C 0.44379 0.84128 0.56394 0.0
C253 C 0.43966 0.82403 0.4841 0.0
C254 C 0.44807 0.80772 0.49732 0.0
C255 C 0.461 0.80834 0.59057 0.0
C256 C 0.46487 0.82542 0.67121 0.0
C257 C 0.45637 0.84169 0.65812 0.0
C258 C 0.40217 0.88051 0.81811 0.0
C259 C 0.35496 0.82584 0.65462 0.0
O260 O 0.35501 0.89198 0.79116 0.0
O261 O 0.33427 0.88213 0.6422 0.0
O262 O 0.38678 0.88311 0.5145 0.0
O263 O 0.34925 0.863 0.50114 0.0
O264 O 0.39589 0.91729 0.64469 0.0
O265 O 0.42316 0.90966 0.55682 0.0
O266 O 0.41539 0.85249 0.50032 0.0
O267 O 0.44189 0.8762 0.61798 0.0
O268 O 0.38548 0.86758 0.75304 0.0
O269 O 0.42269 0.88794 0.76967 0.0
O270 O 0.37714 0.8346 0.61502 0.0
O271 O 0.34738 0.84042 0.69053 0.0
H272 H 0.35166 0.92395 0.90505 0.0
H273 H 0.33829 0.95282 0.94473 0.0
H274 H 0.29636 0.93243 0.65043 0.0
H275 H 0.30935 0.90323 0.61185 0.0
H276 H 0.43034 0.82349 0.41006 0.0
H277 H 0.44503 0.79507 0.43284 0.0
H278 H 0.4745 0.82623 0.74456 0.0
H279 H 0.46001 0.85482 0.72119 0.0
Tb280 Tb 0.21462 0.51299 0.63958 0.0
Tb281 Tb 0.21758 0.56206 0.61989 0.0
C282 C 0.20706 0.47168 0.69588 0.0
C283 C 0.18827 0.44621 0.72097 0.0
C284 C 0.1816 0.43853 0.82879 0.0
C285 C 0.16744 0.41379 0.85428 0.0
C286 C 0.15986 0.39616 0.77265 0.0
C287 C 0.16562 0.40393 0.66452 0.0
C288 C 0.17968 0.42861 0.63903 0.0
C289 C 0.22432 0.53266 0.44543 0.0
C290 C 0.16636 0.51529 0.60357 0.0
C291 C 0.22715 0.60431 0.56759 0.0
C292 C 0.24624 0.63009 0.58475 0.0
C293 C 0.26441 0.64253 0.50632 0.0
C294 C 0.2812 0.66733 0.5172 0.0
C295 C 0.28022 0.68045 0.60655 0.0
C296 C 0.26219 0.66792 0.68561 0.0
C297 C 0.24539 0.64311 0.67474 0.0
C298 C 0.20903 0.54289 0.81515 0.0
C299 C 0.26631 0.55927 0.64861 0.0
O300 O 0.21039 0.48868 0.76449 0.0
O301 O 0.20933 0.47901 0.59528 0.0
O302 O 0.20982 0.53317 0.51288 0.0
O303 O 0.23184 0.5185 0.48111 0.0
O304 O 0.17629 0.50321 0.64613 0.0
O305 O 0.17992 0.53812 0.57022 0.0
O306 O 0.23287 0.59093 0.50843 0.0
O307 O 0.21362 0.59225 0.65061 0.0
O308 O 0.22291 0.54218 0.74523 0.0
O309 O 0.20194 0.55753 0.78192 0.0
O310 O 0.25631 0.57247 0.62164 0.0
O311 O 0.25303 0.53587 0.67186 0.0
H312 H 0.18821 0.45156 0.89409 0.0
H313 H 0.16348 0.40843 0.93844 0.0
H314 H 0.15975 0.39086 0.59951 0.0
H315 H 0.18464 0.43379 0.55525 0.0
H316 H 0.26537 0.63322 0.43505 0.0
H317 H 0.29455 0.67636 0.45373 0.0
H318 H 0.26101 0.6773 0.75612 0.0
H319 H 0.2315 0.63422 0.73625 0.0
Tb320 Tb 0.57723 0.72696 0.65507 0.0
Tb321 Tb 0.5284 0.68481 0.61008 0.0
C322 C 0.61781 0.75567 0.73924 0.0
C323 C 0.64298 0.76048 0.75529 0.0
C324 C 0.64919 0.7525 0.84976 0.0
C325 C 0.67351 0.76025 0.87347 0.0
C326 C 0.69227 0.77639 0.80387 0.0
C327 C 0.68595 0.78367 0.70757 0.0
C328 C 0.66167 0.77589 0.6838 0.0
C329 C 0.56409 0.72277 0.44922 0.0
C330 C 0.57205 0.67585 0.59396 0.0
C331 C 0.48677 0.65515 0.53848 0.0
C332 C 0.46102 0.64767 0.55542 0.0
C333 C 0.44325 0.62403 0.52756 0.0
C334 C 0.41864 0.61613 0.54221 0.0
C335 C 0.41118 0.63174 0.58505 0.0
C336 C 0.42906 0.65557 0.61252 0.0
C337 C 0.4538 0.66343 0.59838 0.0
C338 C 0.54145 0.69001 0.81681 0.0
C339 C 0.53401 0.73687 0.65005 0.0
O340 O 0.60012 0.7372 0.79047 0.0
O341 O 0.61149 0.7584 0.64189 0.0
O342 O 0.56 0.70567 0.51327 0.0
O343 O 0.57754 0.74318 0.49815 0.0
O344 O 0.58515 0.69694 0.64371 0.0
O345 O 0.55012 0.66927 0.5575 0.0
O346 O 0.50092 0.67665 0.49643 0.0
O347 O 0.4973 0.65016 0.61682 0.0
O348 O 0.54529 0.70666 0.75078 0.0
O349 O 0.52837 0.66947 0.76906 0.0
O350 O 0.52071 0.71466 0.61141 0.0
O351 O 0.55626 0.74478 0.6863 0.0
H352 H 0.63534 0.74097 0.90766 0.0
H353 H 0.67766 0.75444 0.94882 0.0
H354 H 0.69986 0.79578 0.65121 0.0
H355 H 0.65764 0.78266 0.61096 0.0
H356 H 0.44843 0.6116 0.49406 0.0
H357 H 0.40541 0.59781 0.51854 0.0
H358 H 0.42395 0.668 0.64641 0.0
H359 H 0.46724 0.68172 0.62122 0.0
H360 H 0.11844 0.28342 0.83336 0.0
H361 H 0.07207 0.29198 0.06172 0.0
H362 H 0.09266 0.33543 0.02234 0.0
H363 H 0.1232 0.37101 0.91913 0.0
H364 H 0.16891 0.36202 0.68862 0.0
H365 H 0.14908 0.31887 0.73192 0.0
C366 C 0.11295 0.2948 0.87526 0.0
C367 C 0.09376 0.28438 0.95062 0.0
C368 C 0.12462 0.31975 0.851 0.0
C369 C 0.08677 0.29945 0.00322 0.0
C370 C 0.09852 0.32434 0.98068 0.0
C371 C 0.1289 0.35962 0.87888 0.0
C372 C 0.14742 0.36979 0.80011 0.0
C373 C 0.11736 0.33468 0.9041 0.0
C374 C 0.15443 0.35467 0.74814 0.0
C375 C 0.14322 0.32997 0.77342 0.0
H376 H 0.79837 0.80524 0.96013 0.0
H377 H 0.8128 0.87501 0.8408 0.0
H378 H 0.7704 0.85771 0.7914 0.0
H379 H 0.72915 0.82303 0.78088 0.0
H380 H 0.71399 0.75291 0.897 0.0
H381 H 0.75651 0.77012 0.94947 0.0
C382 C 0.79223 0.81668 0.92375 0.0
C383 C 0.80894 0.84144 0.90425 0.0
C384 C 0.76761 0.80656 0.89467 0.0
C385 C 0.80053 0.85591 0.8567 0.0
C386 C 0.7762 0.84603 0.8282 0.0
C387 C 0.73515 0.81139 0.8164 0.0
C388 C 0.71831 0.78663 0.83413 0.0
C389 C 0.75961 0.82138 0.84619 0.0
C390 C 0.72644 0.77204 0.88285 0.0
C391 C 0.75081 0.78187 0.9126 0.0
H392 H 0.28946 1.02342 0.95721 0.0
H393 H 0.21901 0.96874 0.84214 0.0
H394 H 0.2355 0.94311 0.79004 0.0
H395 H 0.26966 0.93576 0.77859 0.0
H396 H 0.34032 0.99042 0.89054 0.0
H397 H 0.32393 1.01626 0.9431 0.0
C398 C 0.27767 1.00589 0.92089 0.0
C399 C 0.25295 0.99812 0.90401 0.0
C400 C 0.2873 0.99113 0.89055 0.0
C401 C 0.23807 0.97532 0.85636 0.0
C402 C 0.2475 0.96058 0.82636 0.0
C403 C 0.2816 0.95346 0.81314 0.0
C404 C 0.30626 0.96107 0.83017 0.0
C405 C 0.27207 0.96829 0.84294 0.0
C406 C 0.32124 0.98391 0.87732 0.0
C407 C 0.31189 0.99877 0.90705 0.0
H408 H 0.47407 0.19829 0.18336 0.0
H409 H 0.46742 0.13521 0.34551 0.0
H410 H 0.42379 0.11305 0.31058 0.0
H411 H 0.38712 0.11185 0.2363 0.0
H412 H 0.39454 0.17537 0.07522 0.0
H413 H 0.43811 0.19698 0.10755 0.0
C414 C 0.46316 0.17969 0.21128 0.0
C415 C 0.47417 0.16851 0.26722 0.0
C416 C 0.43808 0.16707 0.19108 0.0
C417 C 0.45956 0.14436 0.30241 0.0
C418 C 0.43454 0.13163 0.28233 0.0
C419 C 0.39834 0.13033 0.20744 0.0
C420 C 0.38748 0.142 0.15403 0.0
C421 C 0.42356 0.14281 0.22682 0.0
C422 C 0.4023 0.16605 0.11792 0.0
C423 C 0.42727 0.17842 0.13605 0.0
H424 H 0.9561 0.35576 0.27904 0.0
H425 H 0.88578 0.29288 0.34048 0.0
H426 H 0.902 0.26625 0.30622 0.0
H427 H 0.93497 0.26036 0.24586 0.0
H428 H 1.0053 0.32222 0.17583 0.0
H429 H 0.9905 0.34959 0.22812 0.0
C430 C 0.94451 0.33626 0.28671 0.0
C431 C 0.9197 0.32632 0.31164 0.0
C432 C 0.9539 0.32081 0.26449 0.0
C433 C 0.90486 0.301 0.32052 0.0
C434 C 0.91411 0.28571 0.30082 0.0
C435 C 0.9471 0.27985 0.24171 0.0
C436 C 0.9711 0.28919 0.20525 0.0
C437 C 0.93839 0.29536 0.27019 0.0
C438 C 0.98672 0.3145 0.20344 0.0
C439 C 0.97822 0.33017 0.23284 0.0
H440 H 0.82821 0.69554 0.10823 0.0
H441 H 0.77398 0.71168 0.22248 0.0
H442 H 0.74703 0.66884 0.26799 0.0
H443 H 0.7393 0.62677 0.27937 0.0
H444 H 0.79447 0.6116 0.16739 0.0
H445 H 0.82069 0.6541 0.11952 0.0
C446 C 0.81058 0.68979 0.14395 0.0
C447 C 0.80328 0.70695 0.1624 0.0
C448 C 0.79535 0.66524 0.17128 0.0
C449 C 0.78007 0.69892 0.20634 0.0
C450 C 0.7647 0.67442 0.23326 0.0
C451 C 0.75709 0.63277 0.24492 0.0
C452 C 0.76483 0.61587 0.2274 0.0
C453 C 0.77222 0.65742 0.21684 0.0
C454 C 0.78793 0.62406 0.18199 0.0
C455 C 0.803 0.64842 0.1543 0.0
H456 H 0.1403 0.52776 0.46939 0.0
H457 H 0.13216 0.47307 0.69923 0.0
H458 H 0.08837 0.45086 0.6702 0.0
H459 H 0.05207 0.4471 0.5812 0.0
H460 H 0.06053 0.50099 0.3459 0.0
H461 H 0.10422 0.52323 0.37583 0.0
C462 C 0.12895 0.51104 0.51357 0.0
C463 C 0.13961 0.50223 0.58686 0.0
C464 C 0.1037 0.49812 0.49544 0.0
C465 C 0.12455 0.48034 0.64227 0.0
C466 C 0.09943 0.46758 0.6257 0.0
C467 C 0.06346 0.46353 0.53537 0.0
C468 C 0.05278 0.47235 0.46199 0.0
C469 C 0.08877 0.47625 0.55233 0.0
C470 C 0.06801 0.4939 0.40444 0.0
C471 C 0.0931 0.50664 0.42111 0.0
H472 H 0.61782 0.68374 0.63879 0.0
H473 H 0.55013 0.63301 0.48614 0.0
H474 H 0.56711 0.60821 0.43043 0.0
H475 H 0.60107 0.60087 0.42093 0.0
H476 H 0.66897 0.65054 0.57279 0.0
H477 H 0.65199 0.67552 0.63355 0.0
C478 C 0.60677 0.66721 0.59382 0.0
C479 C 0.58271 0.66045 0.56653 0.0
C480 C 0.61668 0.65277 0.5615 0.0
C481 C 0.56869 0.63886 0.50832 0.0
C482 C 0.57839 0.62457 0.47608 0.0
C483 C 0.61226 0.61727 0.4666 0.0
C484 C 0.63635 0.62396 0.49109 0.0
C485 C 0.60238 0.63142 0.50132 0.0
C486 C 0.65036 0.64495 0.55282 0.0
C487 C 0.64067 0.65928 0.58728 0.0
H488 H 0.49614 0.0306 0.44212 0.0
H489 H 0.44769 0.04933 0.60207 0.0
H490 H 0.42007 1.00652 0.64593 0.0
H491 H 0.41017 0.96355 0.64281 0.0
H492 H 0.45991 0.94606 0.48519 0.0
H493 H 0.48652 0.98847 0.43883 0.0
C494 C 0.47966 1.02544 0.48754 0.0
C495 C 0.4742 0.04334 0.51922 0.0
C496 C 0.46405 1.00088 0.5137 0.0
C497 C 0.45237 0.03603 0.57565 0.0
C498 C 0.43661 1.01151 0.60153 0.0
C499 C 0.42684 0.96903 0.59849 0.0
C500 C 0.43291 0.95144 0.56802 0.0
C501 C 0.44233 0.99374 0.57159 0.0
C502 C 0.45463 0.959 0.51021 0.0
C503 C 0.46995 0.98335 0.48331 0.0
H504 H 0.15486 0.06077 0.961 0.0
H505 H 0.22393 0.11706 0.08143 0.0
H506 H 0.20877 0.14537 0.08496 0.0
H507 H 0.17644 0.1547 0.04725 0.0
H508 H 0.10777 0.0986 0.92305 0.0
H509 H 0.12215 0.06969 0.92936 0.0
C510 C 0.16661 0.07918 0.98875 0.0
C511 C 0.19061 0.08671 0.02039 0.0
C512 C 0.15783 0.09547 -0.01004 0.0
C513 C 0.20543 0.11067 0.05635 0.0
C514 C 0.19678 0.12694 0.05823 0.0
C515 C 0.16462 0.13617 0.02122 0.0
C516 C 0.14104 0.12895 0.98435 0.0
C517 C 0.17311 0.11964 0.02392 0.0
C518 C 0.12588 0.10469 0.95292 0.0
C519 C 0.13417 0.08814 0.95575 0.0
H520 H 0.9417 0.04723 0.01049 0.0
H521 H 1.00045 0.03944 0.884 0.0
H522 H 1.02827 0.08309 0.90418 0.0
H523 H 1.03535 0.12392 0.94836 0.0
H524 H 0.97589 0.1311 0.07202 0.0
H525 H 0.94904 0.08741 0.06133 0.0
C526 C 0.96057 0.05506 0.98688 0.0
C527 C 0.96886 0.04003 0.94485 0.0
C528 C 0.97639 0.08017 -0.00229 0.0
C529 C 0.99355 0.05049 0.91712 0.0
C530 C 1.00945 0.07551 0.92801 0.0
C531 C 1.01658 0.11594 0.97386 0.0
C532 C 1.00775 0.13098 0.01047 0.0
C533 C 1.00102 0.0906 0.96699 0.0
C534 C 0.9833 0.12016 0.04303 0.0
C535 C 0.96784 0.09508 0.03693 0.0
H536 H 0.97025 0.93535 0.90411 0.0
H537 H 0.95952 0.87102 0.0705 0.0
H538 H 1.00317 0.88673 0.06864 0.0
H539 H 0.04438 0.91806 0.0147 0.0
H540 H 0.05524 0.98248 0.8493 0.0
H541 H 1.01163 0.96729 0.85525 0.0
C542 C 0.97743 0.92479 0.94061 0.0
C543 C 0.96148 0.90198 0.98733 0.0
C544 C 1.00264 0.93388 0.93882 0.0
C545 C 0.97124 0.88861 0.03388 0.0
C546 C 0.99627 0.89757 0.03279 0.0
C547 C 1.03728 0.92894 0.98107 0.0
C548 C 0.05318 0.95138 0.93126 0.0
C549 C 1.01213 0.92011 0.98487 0.0
C550 C 0.04348 0.965 0.88671 0.0
C551 C 1.01852 0.95638 0.89058 0.0
H552 H 0.79063 0.4363 0.23904 0.0
H553 H 0.84997 0.49993 0.3838 0.0
H554 H 0.87279 0.47877 0.40301 0.0
H555 H 0.87641 0.44234 0.3738 0.0
H556 H 0.81681 0.37923 0.22578 0.0
H557 H 0.79399 0.40017 0.21156 0.0
C558 C 0.80862 0.44564 0.27422 0.0
C559 C 0.81851 0.46974 0.30956 0.0
C560 C 0.82177 0.43347 0.28398 0.0
C561 C 0.8417 0.4813 0.35693 0.0
C562 C 0.85489 0.46926 0.36722 0.0
C563 C 0.85844 0.43317 0.33842 0.0
C564 C 0.84851 0.40919 0.30078 0.0
C565 C 0.84518 0.44536 0.33034 0.0
C566 C 0.8251 0.39765 0.25548 0.0
C567 C 0.81191 0.40961 0.24723 0.0
H568 H 0.69716 0.45472 0.28282 0.0
H569 H 0.63735 0.46701 0.339 0.0
H570 H 0.60895 0.42349 0.33345 0.0
H571 H 0.60067 0.38188 0.30716 0.0
H572 H 0.66013 0.36925 0.25052 0.0
H573 H 0.68895 0.4128 0.26315 0.0
C574 C 0.67793 0.44792 0.29448 0.0
C575 C 0.66952 0.46432 0.31089 0.0
C576 C 0.66154 0.42272 0.29106 0.0
C577 C 0.64448 0.45499 0.3261 0.0
C578 C 0.62814 0.43002 0.32276 0.0
C579 C 0.61994 0.38865 0.29716 0.0
C580 C 0.62816 0.37226 0.27722 0.0
C581 C 0.63641 0.41373 0.30417 0.0
C582 C 0.65326 0.38137 0.26665 0.0
C583 C 0.66976 0.40632 0.27326 0.0
H584 H 0.63141 0.21217 0.36869 0.0
H585 H 0.63223 0.27837 0.28592 0.0
H586 H 0.6763 0.2997 0.26939 0.0
H587 H 0.7147 0.29924 0.26927 0.0
H588 H 0.71378 0.23288 0.34865 0.0
H589 H 0.66989 0.21207 0.37478 0.0
C590 C 0.64121 0.23131 0.34802 0.0
C591 C 0.62836 0.24355 0.32876 0.0
C592 C 0.66666 0.24348 0.33693 0.0
C593 C 0.6415 0.26837 0.30129 0.0
C594 C 0.66679 0.28064 0.29155 0.0
C595 C 0.70494 0.28031 0.29355 0.0
C596 C 0.71759 0.26765 0.30613 0.0
C597 C 0.67957 0.26834 0.30794 0.0
C598 C 0.70452 0.24302 0.33664 0.0
C599 C 0.67939 0.23109 0.35215 0.0
H600 H 0.4888 0.72615 0.58681 0.0
H601 H 0.55546 0.7841 0.71852 0.0
H602 H 0.53855 0.81101 0.71504 0.0
H603 H 0.50533 0.81855 0.66817 0.0
H604 H 0.43866 0.76021 0.53852 0.0
H605 H 0.45517 0.73308 0.54749 0.0
C606 C 0.49965 0.7446 0.6156 0.0
C607 C 0.52343 0.753 0.65288 0.0
C608 C 0.48984 0.76 0.61317 0.0
C609 C 0.53712 0.77706 0.68941 0.0
C610 C 0.52747 0.7925 0.68733 0.0
C611 C 0.49428 0.79982 0.6432 0.0
C612 C 0.47079 0.79155 0.60206 0.0
C613 C 0.5039 0.78423 0.64865 0.0
C614 C 0.45691 0.76724 0.56883 0.0
C615 C 0.4663 0.75165 0.5744 0.0
H616 H 0.27102 0.71577 0.67636 0.0
H617 H 0.32876 0.70541 0.55675 0.0
H618 H 0.35684 0.74909 0.56264 0.0
H619 H 0.36494 0.7904 0.59785 0.0
H620 H 0.3074 0.80081 0.72011 0.0
H621 H 0.27957 0.75702 0.71873 0.0
C622 C 0.28982 0.72298 0.65296 0.0
C623 C 0.29761 0.70714 0.61555 0.0
C624 C 0.30599 0.74822 0.65698 0.0
C625 C 0.32204 0.71705 0.58415 0.0
C626 C 0.3382 0.74208 0.58806 0.0
C627 C 0.34634 0.78315 0.62472 0.0
C628 C 0.33836 0.79905 0.65881 0.0
C629 C 0.33034 0.75787 0.62349 0.0
C630 C 0.31415 0.78914 0.69345 0.0
C631 C 0.29816 0.76404 0.69252 0.0
H632 H 0.37662 0.58821 0.66622 0.0
H633 H 0.38638 0.65551 0.53808 0.0
H634 H 0.34261 0.63972 0.55141 0.0
H635 H 0.30111 0.6057 0.59009 0.0
H636 H 0.29225 0.53842 0.71602 0.0
H637 H 0.33591 0.55526 0.71197 0.0
C638 C 0.36919 0.59943 0.64083 0.0
C639 C 0.38479 0.62293 0.6002 0.0
C640 C 0.34404 0.59018 0.6478 0.0
C641 C 0.37485 0.6374 0.5701 0.0
C642 C 0.34977 0.62831 0.57709 0.0
C643 C 0.30873 0.59478 0.61745 0.0
C644 C 0.29321 0.5707 0.65265 0.0
C645 C 0.33411 0.60457 0.61454 0.0
C646 C 0.30355 0.55692 0.68785 0.0
C647 C 0.32862 0.56653 0.68563 0.0
H648 H 1.03219 0.22456 0.64783 0.0
H649 H 0.05744 0.17499 0.72068 0.0
H650 H 0.06865 0.17534 0.53085 0.0
H651 H 0.07127 0.18998 0.34372 0.0
H652 H 0.04513 0.23876 0.2695 0.0
H653 H 1.03396 0.2385 0.45964 0.0
C654 C 1.0401 0.21385 0.62137 0.0
C655 C 0.04455 0.20016 0.6971 0.0
C656 C 0.04618 0.21397 0.51215 0.0
C657 C 0.05461 0.18618 0.66343 0.0
C658 C 0.06079 0.18623 0.55503 0.0
C659 C 0.06314 0.20051 0.36991 0.0
C660 C 0.05873 0.2142 0.29416 0.0
C661 C 0.05679 0.20017 0.47883 0.0
C662 C 0.04821 0.22781 0.32727 0.0
C663 C 0.04198 0.22775 0.43568 0.0
H664 H 0.86777 0.87953 0.66104 0.0
H665 H 0.91503 0.84968 0.63866 0.0
H666 H 0.91612 0.85368 0.44156 0.0
H667 H 0.90346 0.86555 0.27369 0.0
H668 H 0.85597 0.89514 0.29714 0.0
H669 H 0.85505 0.89124 0.4939 0.0
C670 C 0.87836 0.87398 0.613 0.0
C671 C 0.8913 0.86431 0.66481 0.0
C672 C 0.87878 0.87618 0.49915 0.0
C673 C 0.90489 0.85717 0.60108 0.0
C674 C 0.9055 0.85942 0.48811 0.0
C675 C 0.89286 0.87105 0.32197 0.0
C676 C 0.87981 0.88064 0.27042 0.0
C677 C 0.89245 0.86882 0.43595 0.0
C678 C 0.86621 0.88773 0.33442 0.0
C679 C 0.86569 0.88554 0.44724 0.0
H680 H 0.25848 0.05053 0.62532 0.0
H681 H 0.19068 0.04533 0.71554 0.0
H682 H 0.1772 0.03751 0.52757 0.0
H683 H 0.18492 0.03264 0.33702 0.0
H684 H 0.25243 0.03719 0.24696 0.0
H685 H 0.26597 0.04506 0.43495 0.0
C686 C 0.24077 0.04768 0.60353 0.0
C687 C 0.22553 0.04836 0.68375 0.0
C688 C 0.23319 0.04327 0.49533 0.0
C689 C 0.2026 0.04461 0.65506 0.0
C690 C 0.19494 0.04026 0.54762 0.0
C691 C 0.20258 0.03536 0.35879 0.0
C692 C 0.21782 0.0347 0.27847 0.0
C693 C 0.2101 0.03959 0.46707 0.0
C694 C 0.24059 0.03808 0.30738 0.0
C695 C 0.24827 0.04243 0.41484 0.0
H696 H 0.74209 0.52764 0.63904 0.0
H697 H 0.70628 0.56759 0.56118 0.0
H698 H 0.6933 0.56502 0.74995 0.0
H699 H 0.69284 0.55167 0.93792 0.0
H700 H 0.72929 0.51225 0.01479 0.0
H701 H 0.74163 0.51435 0.82614 0.0
C702 C 0.73154 0.53584 0.66411 0.0
C703 C 0.72462 0.54739 0.5875 0.0
C704 C 0.7244 0.53437 0.77228 0.0
C705 C 0.711 0.55798 0.61931 0.0
C706 C 0.70383 0.55669 0.72701 0.0
C707 C 0.7033 0.5434 0.91254 0.0
C708 C 0.71048 0.53204 0.9892 0.0
C709 C 0.71033 0.5448 0.80407 0.0
C710 C 0.72414 0.52152 0.957 0.0
C711 C 0.73103 0.5226 0.84917 0.0
H712 H 0.57228 0.20345 0.62623 0.0
H713 H 0.51608 0.22198 0.64748 0.0
H714 H 0.51538 0.21818 0.84422 0.0
H715 H 0.53076 0.20969 0.01202 0.0
H716 H 0.58675 0.19088 -0.00839 0.0
H717 H 0.58761 0.1948 0.79459 0.0
C718 C 0.55983 0.20654 0.67402 0.0
C719 C 0.54425 0.21299 0.6219 0.0
C720 C 0.55956 0.2044 0.78796 0.0
C721 C 0.52829 0.21702 0.68526 0.0
C722 C 0.52788 0.21488 0.79806 0.0
C723 C 0.5432 0.20654 0.9644 0.0
C724 C 0.55867 0.2 0.01671 0.0
C725 C 0.54348 0.20866 0.85056 0.0
C726 C 0.57463 0.19592 0.95358 0.0
C727 C 0.57511 0.19813 0.84067 0.0
H728 H 0.86352 0.33 0.6827 0.0
H729 H 0.89652 0.40463 0.57876 0.0
H730 H 0.9067 0.41819 0.76583 0.0
H731 H 0.90615 0.40869 0.95906 0.0
H732 H 0.8726 0.33396 0.06235 0.0
H733 H 0.8624 0.32049 0.87551 0.0
C734 C 0.87294 0.34921 0.70128 0.0
C735 C 0.87946 0.36632 0.61781 0.0
C736 C 0.87849 0.35682 0.80871 0.0
C737 C 0.89156 0.39117 0.64219 0.0
C738 C 0.89729 0.39892 0.74896 0.0
C739 C 0.89657 0.38949 0.94033 0.0
C740 C 0.89013 0.37232 0.02358 0.0
C741 C 0.89084 0.3819 0.83283 0.0
C742 C 0.8777 0.34748 -0.0009 0.0
C743 C 0.87191 0.33977 0.89245 0.0
H744 H 0.41071 0.89319 0.32727 0.0
H745 H 0.33349 0.84435 0.30733 0.0
H746 H 0.33631 0.84351 0.1102 0.0
H747 H 0.3608 0.85686 0.94179 0.0
H748 H 0.43798 0.90588 0.96279 0.0
H749 H 0.43509 0.90658 0.15959 0.0
C750 C 0.39453 0.88229 0.27975 0.0
C751 C 0.37192 0.86885 0.33214 0.0
C752 C 0.39626 0.88203 0.16597 0.0
C753 C 0.35112 0.85489 0.26918 0.0
C754 C 0.35271 0.85442 0.15624 0.0
C755 C 0.37694 0.86775 0.98956 0.0
C756 C 0.39958 0.8813 0.93742 0.0
C757 C 0.37517 0.868 0.10347 0.0
C758 C 0.42033 0.89527 0.00065 0.0
C759 C 0.41871 0.89566 0.11344 0.0
H760 H 0.23224 0.57421 0.97578 0.0
H761 H 0.18626 0.49823 0.9073 0.0
H762 H 0.18756 0.48807 0.09772 0.0
H763 H 0.20154 0.50117 0.28443 0.0
H764 H 0.24816 0.57711 0.35159 0.0
H765 H 0.24684 0.58722 0.16145 0.0
C766 C 0.22252 0.55549 0.00329 0.0
C767 C 0.20937 0.53689 0.92906 0.0
C768 C 0.2234 0.54991 0.11233 0.0
C769 C 0.19682 0.51267 0.96381 0.0
C770 C 0.19746 0.50693 0.0724 0.0
C771 C 0.21142 0.51987 0.25665 0.0
C772 C 0.22453 0.53851 0.33087 0.0
C773 C 0.21072 0.52541 0.14731 0.0
C774 C 0.23741 0.56267 0.29556 0.0
C775 C 0.23681 0.56838 0.18697 0.0
H776 H 0.54591 0.68165 0.32673 0.0
H777 H 0.57487 0.75885 0.30309 0.0
H778 H 0.57102 0.75596 0.10611 0.0
H779 H 0.55953 0.73143 0.93878 0.0
H780 H 0.53081 0.65426 0.96343 0.0
H781 H 0.5346 0.65722 0.16008 0.0
C782 C 0.55129 0.69782 0.27845 0.0
C783 C 0.56067 0.72044 0.32984 0.0
C784 C 0.54919 0.69605 0.16469 0.0
C785 C 0.56761 0.74121 0.26581 0.0
C786 C 0.56545 0.73958 0.15293 0.0
C787 C 0.5542 0.7153 0.98729 0.0
C788 C 0.54489 0.69264 0.93614 0.0
C789 C 0.55634 0.71711 0.10117 0.0
C790 C 0.53801 0.67192 0.00043 0.0
C791 C 0.54013 0.67358 0.11317 0.0
loop_
_geom_bond_atom_site_label_1
_geom_bond_atom_site_label_2
_geom_bond_distance
_geom_bond_site_symmetry_2
_ccdc_geom_bond_type
Tb0 C2 2.809 1_556 S
Tb0 O20 2.484 1_556 S
Tb0 O21 2.440 . S
Tb0 O22 2.658 1_655 S
Tb0 O23 2.409 . S
Tb0 O24 2.378 1_655 S
Tb0 O28 2.325 1_656 S
Tb0 O31 2.341 1_556 S
Tb1 C11 2.809 1_554 S
Tb1 O22 2.325 1_554 S
Tb1 O25 2.341 1_554 S
Tb1 O26 2.484 1_554 S
Tb1 O27 2.440 . S
Tb1 O28 2.658 . S
Tb1 O29 2.409 . S
Tb1 O30 2.378 . S
C2 Tb0 2.809 1_554 S
C2 C3 1.514 . S
C2 O20 1.248 . S
C2 O21 1.266 1_554 S
C3 C2 1.514 . S
C3 C4 1.359 . S
C3 C8 1.348 1_554 S
C4 C3 1.359 . S
C4 C5 1.380 . S
C4 H32 0.929 . S
C5 C4 1.380 . S
C5 C6 1.347 . S
C5 H33 0.931 . S
C6 C5 1.347 . S
C6 C7 1.369 1_554 S
C7 C6 1.369 1_556 S
C7 C8 1.408 . S
C7 H34 0.930 . S
C8 C3 1.348 1_556 S
C8 C7 1.408 . S
C8 H35 0.930 . S
C9 O22 1.281 . S
C9 O23 1.254 1_455 S
C10 O24 1.236 . S
C10 O25 1.266 . S
C11 Tb1 2.809 1_556 S
C11 C12 1.514 . S
C11 O26 1.248 . S
C11 O27 1.266 1_556 S
C12 C11 1.514 . S
C12 C13 1.359 . S
C12 C17 1.348 1_556 S
C13 C12 1.359 . S
C13 C14 1.380 . S
C13 H36 0.929 . S
C14 C13 1.380 . S
C14 C15 1.347 . S
C14 H37 0.931 . S
C15 C14 1.347 . S
C15 C16 1.369 1_556 S
C16 C15 1.369 1_554 S
C16 C17 1.408 . S
C16 H38 0.930 . S
C17 C12 1.348 1_554 S
C17 C16 1.408 . S
C17 H39 0.930 . S
C18 O28 1.281 . S
C18 O29 1.254 . S
C19 O30 1.236 1_655 S
C19 O31 1.266 . S
O20 Tb0 2.484 1_554 S
O20 C2 1.248 . S
O21 Tb0 2.440 . S
O21 C2 1.266 1_556 S
O22 Tb0 2.658 1_455 S
O22 Tb1 2.325 1_556 S
O22 C9 1.281 . S
O23 Tb0 2.409 . S
O23 C9 1.254 1_655 S
O24 Tb0 2.378 1_455 S
O24 C10 1.236 . S
O25 Tb1 2.341 1_556 S
O25 C10 1.266 . S
O26 Tb1 2.484 1_556 S
O26 C11 1.248 . S
O27 Tb1 2.440 . S
O27 C11 1.266 1_554 S
O28 Tb0 2.325 1_454 S
O28 Tb1 2.658 . S
O28 C18 1.281 . S
O29 Tb1 2.409 . S
O29 C18 1.254 . S
O30 Tb1 2.378 . S
O30 C19 1.236 1_455 S
O31 Tb0 2.341 1_554 S
O31 C19 1.266 . S
H32 C4 0.929 . S
H33 C5 0.931 . S
H34 C7 0.930 . S
H35 C8 0.930 . S
H36 C13 0.929 . S
H37 C14 0.931 . S
H38 C16 0.930 . S
H39 C17 0.930 . S
Tb40 C42 2.809 1_556 S
Tb40 O60 2.484 1_556 S
Tb40 O61 2.440 . S
Tb40 O62 2.658 . S
Tb40 O63 2.409 . S
Tb40 O64 2.378 . S
Tb40 O68 2.325 1_556 S
Tb40 O71 2.341 1_556 S
Tb41 C51 2.809 1_554 S
Tb41 O62 2.325 1_554 S
Tb41 O65 2.341 1_554 S
Tb41 O66 2.484 1_554 S
Tb41 O67 2.440 . S
Tb41 O68 2.658 . S
Tb41 O69 2.409 . S
Tb41 O70 2.378 . S
C42 Tb40 2.809 1_554 S
C42 C43 1.514 . S
C42 O60 1.248 . S
C42 O61 1.266 1_554 S
C43 C42 1.514 . S
C43 C44 1.359 . S
C43 C48 1.348 1_554 S
C44 C43 1.359 . S
C44 C45 1.380 . S
C44 H72 0.929 . S
C45 C44 1.380 . S
C45 C46 1.347 . S
C45 H73 0.931 . S
C46 C45 1.347 . S
C46 C47 1.369 1_554 S
C47 C46 1.369 1_556 S
C47 C48 1.408 . S
C47 H74 0.930 . S
C48 C43 1.348 1_556 S
C48 C47 1.408 . S
C48 H75 0.930 . S
C49 O62 1.281 . S
C49 O63 1.254 . S
C50 O64 1.236 . S
C50 O65 1.266 . S
C51 Tb41 2.809 1_556 S
C51 C52 1.514 . S
C51 O66 1.248 . S
C51 O67 1.266 1_556 S
C52 C51 1.514 . S
C52 C53 1.359 . S
C52 C57 1.348 1_556 S
C53 C52 1.359 . S
C53 C54 1.380 . S
C53 H76 0.929 . S
C54 C53 1.380 . S
C54 C55 1.347 . S
C54 H77 0.931 . S
C55 C54 1.347 . S
C55 C56 1.369 1_556 S
C56 C55 1.369 1_554 S
C56 C57 1.408 . S
C56 H78 0.930 . S
C57 C52 1.348 1_554 S
C57 C56 1.408 . S
C57 H79 0.930 . S
C58 O68 1.281 . S
C58 O69 1.254 . S
C59 O70 1.236 . S
C59 O71 1.266 . S
O60 Tb40 2.484 1_554 S
O60 C42 1.248 . S
O61 Tb40 2.440 . S
O61 C42 1.266 1_556 S
O62 Tb40 2.658 . S
O62 Tb41 2.325 1_556 S
O62 C49 1.281 . S
O63 Tb40 2.409 . S
O63 C49 1.254 . S
O64 Tb40 2.378 . S
O64 C50 1.236 . S
O65 Tb41 2.341 1_556 S
O65 C50 1.266 . S
O66 Tb41 2.484 1_556 S
O66 C51 1.248 . S
O67 Tb41 2.440 . S
O67 C51 1.266 1_554 S
O68 Tb40 2.325 1_554 S
O68 Tb41 2.658 . S
O68 C58 1.281 . S
O69 Tb41 2.409 . S
O69 C58 1.254 . S
O70 Tb41 2.378 . S
O70 C59 1.236 . S
O71 Tb40 2.341 1_554 S
O71 C59 1.266 . S
H72 C44 0.929 . S
H73 C45 0.931 . S
H74 C47 0.930 . S
H75 C48 0.930 . S
H76 C53 0.929 . S
H77 C54 0.931 . S
H78 C56 0.930 . S
H79 C57 0.930 . S
Tb80 C82 2.809 1_556 S
Tb80 O100 2.484 1_556 S
Tb80 O101 2.440 . S
Tb80 O102 2.658 . S
Tb80 O103 2.409 . S
Tb80 O104 2.378 . S
Tb80 O108 2.325 1_556 S
Tb80 O111 2.341 1_556 S
Tb81 C91 2.809 1_554 S
Tb81 O102 2.325 1_564 S
Tb81 O105 2.341 1_554 S
Tb81 O106 2.484 1_554 S
Tb81 O107 2.440 . S
Tb81 O108 2.658 1_565 S
Tb81 O109 2.409 . S
Tb81 O110 2.378 1_565 S
C82 Tb80 2.809 1_554 S
C82 C83 1.514 . S
C82 O100 1.248 . S
C82 O101 1.266 1_554 S
C83 C82 1.514 . S
C83 C84 1.359 . S
C83 C88 1.348 1_554 S
C84 C83 1.359 . S
C84 C85 1.380 . S
C84 H112 0.929 . S
C85 C84 1.380 . S
C85 C86 1.347 . S
C85 H113 0.931 . S
C86 C85 1.347 . S
C86 C87 1.369 1_554 S
C87 C86 1.369 1_556 S
C87 C88 1.408 . S
C87 H114 0.930 . S
C88 C83 1.348 1_556 S
C88 C87 1.408 . S
C88 H115 0.930 . S
C89 O102 1.281 . S
C89 O103 1.254 . S
C90 O104 1.236 1_565 S
C90 O105 1.266 . S
C91 Tb81 2.809 1_556 S
C91 C92 1.514 . S
C91 O106 1.248 . S
C91 O107 1.266 1_556 S
C92 C91 1.514 . S
C92 C93 1.359 . S
C92 C97 1.348 1_556 S
C93 C92 1.359 . S
C93 C94 1.380 . S
C93 H116 0.929 . S
C94 C93 1.380 . S
C94 C95 1.347 . S
C94 H117 0.931 . S
C95 C94 1.347 . S
C95 C96 1.369 1_556 S
C96 C95 1.369 1_554 S
C96 C97 1.408 . S
C96 H118 0.930 . S
C97 C92 1.348 1_554 S
C97 C96 1.408 . S
C97 H119 0.930 . S
C98 O108 1.281 . S
C98 O109 1.254 1_545 S
C99 O110 1.236 . S
C99 O111 1.266 . S
O100 Tb80 2.484 1_554 S
O100 C82 1.248 . S
O101 Tb80 2.440 . S
O101 C82 1.266 1_556 S
O102 Tb80 2.658 . S
O102 Tb81 2.325 1_546 S
O102 C89 1.281 . S
O103 Tb80 2.409 . S
O103 C89 1.254 . S
O104 Tb80 2.378 . S
O104 C90 1.236 1_545 S
O105 Tb81 2.341 1_556 S
O105 C90 1.266 . S
O106 Tb81 2.484 1_556 S
O106 C91 1.248 . S
O107 Tb81 2.440 . S
O107 C91 1.266 1_554 S
O108 Tb80 2.325 1_554 S
O108 Tb81 2.658 1_545 S
O108 C98 1.281 . S
O109 Tb81 2.409 . S
O109 C98 1.254 1_565 S
O110 Tb81 2.378 1_545 S
O110 C99 1.236 . S
O111 Tb80 2.341 1_554 S
O111 C99 1.266 . S
H112 C84 0.929 . S
H113 C85 0.931 . S
H114 C87 0.930 . S
H115 C88 0.930 . S
H116 C93 0.929 . S
H117 C94 0.931 . S
H118 C96 0.930 . S
H119 C97 0.930 . S
Tb120 C122 2.809 . S
Tb120 O140 2.484 . S
Tb120 O141 2.440 . S
Tb120 O142 2.658 . S
Tb120 O143 2.409 . S
Tb120 O144 2.378 . S
Tb120 O148 2.325 . S
Tb120 O151 2.341 . S
Tb121 C131 2.809 . S
Tb121 O142 2.325 . S
Tb121 O145 2.341 . S
Tb121 O146 2.484 . S
Tb121 O147 2.440 . S
Tb121 O148 2.658 . S
Tb121 O149 2.409 . S
Tb121 O150 2.378 . S
C122 Tb120 2.809 . S
C122 C123 1.514 . S
C122 O140 1.248 . S
C122 O141 1.266 . S
C123 C122 1.514 . S
C123 C124 1.359 . S
C123 C128 1.348 . S
C124 C123 1.359 . S
C124 C125 1.380 . S
C124 H152 0.929 . S
C125 C124 1.380 . S
C125 C126 1.347 . S
C125 H153 0.931 . S
C126 C125 1.347 . S
C126 C127 1.369 . S
C127 C126 1.369 . S
C127 C128 1.408 . S
C127 H154 0.930 . S
C128 C123 1.348 . S
C128 C127 1.408 . S
C128 H155 0.930 . S
C129 O142 1.281 . S
C129 O143 1.254 . S
C130 O144 1.236 . S
C130 O145 1.266 . S
C131 Tb121 2.809 . S
C131 C132 1.514 . S
C131 O146 1.248 . S
C131 O147 1.266 . S
C132 C131 1.514 . S
C132 C133 1.359 . S
C132 C137 1.348 . S
C133 C132 1.359 . S
C133 C134 1.380 . S
C133 H156 0.929 . S
C134 C133 1.380 . S
C134 C135 1.347 . S
C134 H157 0.931 . S
C135 C134 1.347 . S
C135 C136 1.369 . S
C136 C135 1.369 . S
C136 C137 1.408 . S
C136 H158 0.930 . S
C137 C132 1.348 . S
C137 C136 1.408 . S
C137 H159 0.930 . S
C138 O148 1.281 . S
C138 O149 1.254 . S
C139 O150 1.236 . S
C139 O151 1.266 . S
O140 Tb120 2.484 . S
O140 C122 1.248 . S
O141 Tb120 2.440 . S
O141 C122 1.266 . S
O142 Tb120 2.658 . S
O142 Tb121 2.325 . S
O142 C129 1.281 . S
O143 Tb120 2.409 . S
O143 C129 1.254 . S
O144 Tb120 2.378 . S
O144 C130 1.236 . S
O145 Tb121 2.341 . S
O145 C130 1.266 . S
O146 Tb121 2.484 . S
O146 C131 1.248 . S
O147 Tb121 2.440 . S
O147 C131 1.266 . S
O148 Tb120 2.325 . S
O148 Tb121 2.658 . S
O148 C138 1.281 . S
O149 Tb121 2.409 . S
O149 C138 1.254 . S
O150 Tb121 2.378 . S
O150 C139 1.236 . S
O151 Tb120 2.341 . S
O151 C139 1.266 . S
H152 C124 0.929 . S
H153 C125 0.931 . S
H154 C127 0.930 . S
H155 C128 0.930 . S
H156 C133 0.929 . S
H157 C134 0.931 . S
H158 C136 0.930 . S
H159 C137 0.930 . S
Tb160 C162 2.809 . S
Tb160 O180 2.484 . S
Tb160 O181 2.440 . S
Tb160 O182 2.658 . S
Tb160 O183 2.409 . S
Tb160 O184 2.378 . S
Tb160 O188 2.325 . S
Tb160 O191 2.341 . S
Tb161 C171 2.809 . S
Tb161 O182 2.325 . S
Tb161 O185 2.341 . S
Tb161 O186 2.484 . S
Tb161 O187 2.440 . S
Tb161 O188 2.658 . S
Tb161 O189 2.409 . S
Tb161 O190 2.378 . S
C162 Tb160 2.809 . S
C162 C163 1.514 . S
C162 O180 1.248 . S
C162 O181 1.266 . S
C163 C162 1.514 . S
C163 C164 1.359 . S
C163 C168 1.348 . S
C164 C163 1.359 . S
C164 C165 1.380 . S
C164 H192 0.929 . S
C165 C164 1.380 . S
C165 C166 1.347 . S
C165 H193 0.931 . S
C166 C165 1.347 . S
C166 C167 1.369 . S
C167 C166 1.369 . S
C167 C168 1.408 . S
C167 H194 0.930 . S
C168 C163 1.348 . S
C168 C167 1.408 . S
C168 H195 0.930 . S
C169 O182 1.281 . S
C169 O183 1.254 . S
C170 O184 1.236 . S
C170 O185 1.266 . S
C171 Tb161 2.809 . S
C171 C172 1.514 . S
C171 O186 1.248 . S
C171 O187 1.266 . S
C172 C171 1.514 . S
C172 C173 1.359 . S
C172 C177 1.348 . S
C173 C172 1.359 . S
C173 C174 1.380 . S
C173 H196 0.929 . S
C174 C173 1.380 . S
C174 C175 1.347 . S
C174 H197 0.931 . S
C175 C174 1.347 . S
C175 C176 1.369 . S
C176 C175 1.369 . S
C176 C177 1.408 . S
C176 H198 0.930 . S
C177 C172 1.348 . S
C177 C176 1.408 . S
C177 H199 0.930 . S
C178 O188 1.281 . S
C178 O189 1.254 . S
C179 O190 1.236 . S
C179 O191 1.266 . S
O180 Tb160 2.484 . S
O180 C162 1.248 . S
O181 Tb160 2.440 . S
O181 C162 1.266 . S
O182 Tb160 2.658 . S
O182 Tb161 2.325 . S
O182 C169 1.281 . S
O183 Tb160 2.409 . S
O183 C169 1.254 . S
O184 Tb160 2.378 . S
O184 C170 1.236 . S
O185 Tb161 2.341 . S
O185 C170 1.266 . S
O186 Tb161 2.484 . S
O186 C171 1.248 . S
O187 Tb161 2.440 . S
O187 C171 1.266 . S
O188 Tb160 2.325 . S
O188 Tb161 2.658 . S
O188 C178 1.281 . S
O189 Tb161 2.409 . S
O189 C178 1.254 . S
O190 Tb161 2.378 . S
O190 C179 1.236 . S
O191 Tb160 2.341 . S
O191 C179 1.266 . S
H192 C164 0.929 . S
H193 C165 0.931 . S
H194 C167 0.930 . S
H195 C168 0.930 . S
H196 C173 0.929 . S
H197 C174 0.931 . S
H198 C176 0.930 . S
H199 C177 0.930 . S
Tb200 C202 2.809 . S
Tb200 O220 2.484 . S
Tb200 O221 2.440 . S
Tb200 O222 2.658 . S
Tb200 O223 2.409 . S
Tb200 O224 2.378 . S
Tb200 O228 2.325 . S
Tb200 O231 2.341 . S
Tb201 C211 2.809 . S
Tb201 O222 2.325 . S
Tb201 O225 2.341 . S
Tb201 O226 2.484 . S
Tb201 O227 2.440 . S
Tb201 O228 2.658 . S
Tb201 O229 2.409 . S
Tb201 O230 2.378 . S
C202 Tb200 2.809 . S
C202 C203 1.514 . S
C202 O220 1.248 . S
C202 O221 1.266 . S
C203 C202 1.514 . S
C203 C204 1.359 . S
C203 C208 1.348 . S
C204 C203 1.359 . S
C204 C205 1.380 . S
C204 H232 0.929 . S
C205 C204 1.380 . S
C205 C206 1.347 . S
C205 H233 0.931 . S
C206 C205 1.347 . S
C206 C207 1.369 . S
C207 C206 1.369 . S
C207 C208 1.408 . S
C207 H234 0.930 . S
C208 C203 1.348 . S
C208 C207 1.408 . S
C208 H235 0.930 . S
C209 O222 1.281 . S
C209 O223 1.254 . S
C210 O224 1.236 . S
C210 O225 1.266 . S
C211 Tb201 2.809 . S
C211 C212 1.514 . S
C211 O226 1.248 . S
C211 O227 1.266 . S
C212 C211 1.514 . S
C212 C213 1.359 . S
C212 C217 1.348 . S
C213 C212 1.359 . S
C213 C214 1.380 . S
C213 H236 0.929 . S
C214 C213 1.380 . S
C214 C215 1.347 . S
C214 H237 0.931 . S
C215 C214 1.347 . S
C215 C216 1.369 . S
C216 C215 1.369 . S
C216 C217 1.408 . S
C216 H238 0.930 . S
C217 C212 1.348 . S
C217 C216 1.408 . S
C217 H239 0.930 . S
C218 O228 1.281 . S
C218 O229 1.254 . S
C219 O230 1.236 . S
C219 O231 1.266 . S
O220 Tb200 2.484 . S
O220 C202 1.248 . S
O221 Tb200 2.440 . S
O221 C202 1.266 . S
O222 Tb200 2.658 . S
O222 Tb201 2.325 . S
O222 C209 1.281 . S
O223 Tb200 2.409 . S
O223 C209 1.254 . S
O224 Tb200 2.378 . S
O224 C210 1.236 . S
O225 Tb201 2.341 . S
O225 C210 1.266 . S
O226 Tb201 2.484 . S
O226 C211 1.248 . S
O227 Tb201 2.440 . S
O227 C211 1.266 . S
O228 Tb200 2.325 . S
O228 Tb201 2.658 . S
O228 C218 1.281 . S
O229 Tb201 2.409 . S
O229 C218 1.254 . S
O230 Tb201 2.378 . S
O230 C219 1.236 . S
O231 Tb200 2.341 . S
O231 C219 1.266 . S
H232 C204 0.929 . S
H233 C205 0.931 . S
H234 C207 0.930 . S
H235 C208 0.930 . S
H236 C213 0.929 . S
H237 C214 0.931 . S
H238 C216 0.930 . S
H239 C217 0.930 . S
Tb240 C242 2.809 . S
Tb240 O260 2.484 . S
Tb240 O261 2.440 . S
Tb240 O262 2.658 . S
Tb240 O263 2.409 . S
Tb240 O264 2.378 . S
Tb240 O268 2.325 . S
Tb240 O271 2.341 . S
Tb241 C251 2.809 . S
Tb241 O262 2.325 . S
Tb241 O265 2.341 . S
Tb241 O266 2.484 . S
Tb241 O267 2.440 . S
Tb241 O268 2.658 . S
Tb241 O269 2.409 . S
Tb241 O270 2.378 . S
C242 Tb240 2.809 . S
C242 C243 1.514 . S
C242 O260 1.248 . S
C242 O261 1.266 . S
C243 C242 1.514 . S
C243 C244 1.359 . S
C243 C248 1.348 . S
C244 C243 1.359 . S
C244 C245 1.380 . S
C244 H272 0.929 . S
C245 C244 1.380 . S
C245 C246 1.347 . S
C245 H273 0.931 . S
C246 C245 1.347 . S
C246 C247 1.369 . S
C247 C246 1.369 . S
C247 C248 1.408 . S
C247 H274 0.930 . S
C248 C243 1.348 . S
C248 C247 1.408 . S
C248 H275 0.930 . S
C249 O262 1.281 . S
C249 O263 1.254 . S
C250 O264 1.236 . S
C250 O265 1.266 . S
C251 Tb241 2.809 . S
C251 C252 1.514 . S
C251 O266 1.248 . S
C251 O267 1.266 . S
C252 C251 1.514 . S
C252 C253 1.359 . S
C252 C257 1.348 . S
C253 C252 1.359 . S
C253 C254 1.380 . S
C253 H276 0.929 . S
C254 C253 1.380 . S
C254 C255 1.347 . S
C254 H277 0.931 . S
C255 C254 1.347 . S
C255 C256 1.369 . S
C256 C255 1.369 . S
C256 C257 1.408 . S
C256 H278 0.930 . S
C257 C252 1.348 . S
C257 C256 1.408 . S
C257 H279 0.930 . S
C258 O268 1.281 . S
C258 O269 1.254 . S
C259 O270 1.236 . S
C259 O271 1.266 . S
O260 Tb240 2.484 . S
O260 C242 1.248 . S
O261 Tb240 2.440 . S
O261 C242 1.266 . S
O262 Tb240 2.658 . S
O262 Tb241 2.325 . S
O262 C249 1.281 . S
O263 Tb240 2.409 . S
O263 C249 1.254 . S
O264 Tb240 2.378 . S
O264 C250 1.236 . S
O265 Tb241 2.341 . S
O265 C250 1.266 . S
O266 Tb241 2.484 . S
O266 C251 1.248 . S
O267 Tb241 2.440 . S
O267 C251 1.266 . S
O268 Tb240 2.325 . S
O268 Tb241 2.658 . S
O268 C258 1.281 . S
O269 Tb241 2.409 . S
O269 C258 1.254 . S
O270 Tb241 2.378 . S
O270 C259 1.236 . S
O271 Tb240 2.341 . S
O271 C259 1.266 . S
H272 C244 0.929 . S
H273 C245 0.931 . S
H274 C247 0.930 . S
H275 C248 0.930 . S
H276 C253 0.929 . S
H277 C254 0.931 . S
H278 C256 0.930 . S
H279 C257 0.930 . S
Tb280 C282 2.809 . S
Tb280 O300 2.484 . S
Tb280 O301 2.440 . S
Tb280 O302 2.658 . S
Tb280 O303 2.409 . S
Tb280 O304 2.378 . S
Tb280 O308 2.325 . S
Tb280 O311 2.341 . S
Tb281 C291 2.809 . S
Tb281 O302 2.325 . S
Tb281 O305 2.341 . S
Tb281 O306 2.484 . S
Tb281 O307 2.440 . S
Tb281 O308 2.658 . S
Tb281 O309 2.409 . S
Tb281 O310 2.378 . S
C282 Tb280 2.809 . S
C282 C283 1.514 . S
C282 O300 1.248 . S
C282 O301 1.266 . S
C283 C282 1.514 . S
C283 C284 1.359 . S
C283 C288 1.348 . S
C284 C283 1.359 . S
C284 C285 1.380 . S
C284 H312 0.929 . S
C285 C284 1.380 . S
C285 C286 1.347 . S
C285 H313 0.931 . S
C286 C285 1.347 . S
C286 C287 1.369 . S
C287 C286 1.369 . S
C287 C288 1.408 . S
C287 H314 0.930 . S
C288 C283 1.348 . S
C288 C287 1.408 . S
C288 H315 0.930 . S
C289 O302 1.281 . S
C289 O303 1.254 . S
C290 O304 1.236 . S
C290 O305 1.266 . S
C291 Tb281 2.809 . S
C291 C292 1.514 . S
C291 O306 1.248 . S
C291 O307 1.266 . S
C292 C291 1.514 . S
C292 C293 1.359 . S
C292 C297 1.348 . S
C293 C292 1.359 . S
C293 C294 1.380 . S
C293 H316 0.929 . S
C294 C293 1.380 . S
C294 C295 1.347 . S
C294 H317 0.931 . S
C295 C294 1.347 . S
C295 C296 1.369 . S
C296 C295 1.369 . S
C296 C297 1.408 . S
C296 H318 0.930 . S
C297 C292 1.348 . S
C297 C296 1.408 . S
C297 H319 0.930 . S
C298 O308 1.281 . S
C298 O309 1.254 . S
C299 O310 1.236 . S
C299 O311 1.266 . S
O300 Tb280 2.484 . S
O300 C282 1.248 . S
O301 Tb280 2.440 . S
O301 C282 1.266 . S
O302 Tb280 2.658 . S
O302 Tb281 2.325 . S
O302 C289 1.281 . S
O303 Tb280 2.409 . S
O303 C289 1.254 . S
O304 Tb280 2.378 . S
O304 C290 1.236 . S
O305 Tb281 2.341 . S
O305 C290 1.266 . S
O306 Tb281 2.484 . S
O306 C291 1.248 . S
O307 Tb281 2.440 . S
O307 C291 1.266 . S
O308 Tb280 2.325 . S
O308 Tb281 2.658 . S
O308 C298 1.281 . S
O309 Tb281 2.409 . S
O309 C298 1.254 . S
O310 Tb281 2.378 . S
O310 C299 1.236 . S
O311 Tb280 2.341 . S
O311 C299 1.266 . S
H312 C284 0.929 . S
H313 C285 0.931 . S
H314 C287 0.930 . S
H315 C288 0.930 . S
H316 C293 0.929 . S
H317 C294 0.931 . S
H318 C296 0.930 . S
H319 C297 0.930 . S
Tb320 C322 2.809 . S
Tb320 O340 2.484 . S
Tb320 O341 2.440 . S
Tb320 O342 2.658 . S
Tb320 O343 2.409 . S
Tb320 O344 2.378 . S
Tb320 O348 2.325 . S
Tb320 O351 2.341 . S
Tb321 C331 2.809 . S
Tb321 O342 2.325 . S
Tb321 O345 2.341 . S
Tb321 O346 2.484 . S
Tb321 O347 2.440 . S
Tb321 O348 2.658 . S
Tb321 O349 2.409 . S
Tb321 O350 2.378 . S
C322 Tb320 2.809 . S
C322 C323 1.514 . S
C322 O340 1.248 . S
C322 O341 1.266 . S
C323 C322 1.514 . S
C323 C324 1.359 . S
C323 C328 1.348 . S
C324 C323 1.359 . S
C324 C325 1.380 . S
C324 H352 0.929 . S
C325 C324 1.380 . S
C325 C326 1.347 . S
C325 H353 0.931 . S
C326 C325 1.347 . S
C326 C327 1.369 . S
C327 C326 1.369 . S
C327 C328 1.408 . S
C327 H354 0.930 . S
C328 C323 1.348 . S
C328 C327 1.408 . S
C328 H355 0.930 . S
C329 O342 1.281 . S
C329 O343 1.254 . S
C330 O344 1.236 . S
C330 O345 1.266 . S
C331 Tb321 2.809 . S
C331 C332 1.514 . S
C331 O346 1.248 . S
C331 O347 1.266 . S
C332 C331 1.514 . S
C332 C333 1.359 . S
C332 C337 1.348 . S
C333 C332 1.359 . S
C333 C334 1.380 . S
C333 H356 0.929 . S
C334 C333 1.380 . S
C334 C335 1.347 . S
C334 H357 0.931 . S
C335 C334 1.347 . S
C335 C336 1.369 . S
C336 C335 1.369 . S
C336 C337 1.408 . S
C336 H358 0.930 . S
C337 C332 1.348 . S
C337 C336 1.408 . S
C337 H359 0.930 . S
C338 O348 1.281 . S
C338 O349 1.254 . S
C339 O350 1.236 . S
C339 O351 1.266 . S
O340 Tb320 2.484 . S
O340 C322 1.248 . S
O341 Tb320 2.440 . S
O341 C322 1.266 . S
O342 Tb320 2.658 . S
O342 Tb321 2.325 . S
O342 C329 1.281 . S
O343 Tb320 2.409 . S
O343 C329 1.254 . S
O344 Tb320 2.378 . S
O344 C330 1.236 . S
O345 Tb321 2.341 . S
O345 C330 1.266 . S
O346 Tb321 2.484 . S
O346 C331 1.248 . S
O347 Tb321 2.440 . S
O347 C331 1.266 . S
O348 Tb320 2.325 . S
O348 Tb321 2.658 . S
O348 C338 1.281 . S
O349 Tb321 2.409 . S
O349 C338 1.254 . S
O350 Tb321 2.378 . S
O350 C339 1.236 . S
O351 Tb320 2.341 . S
O351 C339 1.266 . S
H352 C324 0.929 . S
H353 C325 0.931 . S
H354 C327 0.930 . S
H355 C328 0.930 . S
H356 C333 0.929 . S
H357 C334 0.931 . S
H358 C336 0.930 . S
H359 C337 0.930 . S
H360 C366 0.930 . S
H361 C369 0.930 . S
H362 C370 0.930 1_554 S
H363 C371 0.930 . S
H364 C374 0.930 . S
H365 C375 0.930 . S
C366 H360 0.930 . S
C366 C367 1.355 . S
C366 C368 1.415 . S
C367 C366 1.355 . S
C367 C369 1.419 1_556 S
C368 C366 1.415 . S
C368 C373 1.425 . S
C368 C375 1.409 . S
C369 H361 0.930 . S
C369 C367 1.419 1_554 S
C369 C370 1.362 1_554 S
C370 H362 0.930 1_556 S
C370 C369 1.362 1_556 S
C370 C373 1.409 . S
C371 H363 0.930 . S
C371 C372 1.355 . S
C371 C373 1.415 . S
C372 C371 1.355 . S
C372 C374 1.419 . S
C373 C368 1.425 . S
C373 C370 1.409 . S
C373 C371 1.415 . S
C374 H364 0.930 . S
C374 C372 1.419 . S
C374 C375 1.362 . S
C375 H365 0.930 . S
C375 C368 1.409 . S
C375 C374 1.362 . S
H376 C382 0.930 . S
H377 C385 0.930 . S
H378 C386 0.930 . S
H379 C387 0.930 . S
H380 C390 0.930 . S
H381 C391 0.930 . S
C382 H376 0.930 . S
C382 C383 1.355 . S
C382 C384 1.415 . S
C383 C382 1.355 . S
C383 C385 1.419 . S
C384 C382 1.415 . S
C384 C389 1.425 . S
C384 C391 1.409 . S
C385 H377 0.930 . S
C385 C383 1.419 . S
C385 C386 1.362 . S
C386 H378 0.930 . S
C386 C385 1.362 . S
C386 C389 1.409 . S
C387 H379 0.930 . S
C387 C388 1.355 . S
C387 C389 1.415 . S
C388 C387 1.355 . S
C388 C390 1.419 . S
C389 C384 1.425 . S
C389 C386 1.409 . S
C389 C387 1.415 . S
C390 H380 0.930 . S
C390 C388 1.419 . S
C390 C391 1.362 . S
C391 H381 0.930 . S
C391 C384 1.409 . S
C391 C390 1.362 . S
H392 C398 0.930 . S
H393 C401 0.930 . S
H394 C402 0.930 . S
H395 C403 0.930 . S
H396 C406 0.930 . S
H397 C407 0.930 . S
C398 H392 0.930 . S
C398 C399 1.355 . S
C398 C400 1.415 . S
C399 C398 1.355 . S
C399 C401 1.419 . S
C400 C398 1.415 . S
C400 C405 1.425 . S
C400 C407 1.409 . S
C401 H393 0.930 . S
C401 C399 1.419 . S
C401 C402 1.362 . S
C402 H394 0.930 . S
C402 C401 1.362 . S
C402 C405 1.409 . S
C403 H395 0.930 . S
C403 C404 1.355 . S
C403 C405 1.415 . S
C404 C403 1.355 . S
C404 C406 1.419 . S
C405 C400 1.425 . S
C405 C402 1.409 . S
C405 C403 1.415 . S
C406 H396 0.930 . S
C406 C404 1.419 . S
C406 C407 1.362 . S
C407 H397 0.930 . S
C407 C400 1.409 . S
C407 C406 1.362 . S
H408 C414 0.930 . S
H409 C417 0.930 . S
H410 C418 0.930 . S
H411 C419 0.930 . S
H412 C422 0.930 . S
H413 C423 0.930 . S
C414 H408 0.930 . S
C414 C415 1.355 . S
C414 C416 1.415 . S
C415 C414 1.355 . S
C415 C417 1.419 . S
C416 C414 1.415 . S
C416 C421 1.425 . S
C416 C423 1.409 . S
C417 H409 0.930 . S
C417 C415 1.419 . S
C417 C418 1.362 . S
C418 H410 0.930 . S
C418 C417 1.362 . S
C418 C421 1.409 . S
C419 H411 0.930 . S
C419 C420 1.355 . S
C419 C421 1.415 . S
C420 C419 1.355 . S
C420 C422 1.419 . S
C421 C416 1.425 . S
C421 C418 1.409 . S
C421 C419 1.415 . S
C422 H412 0.930 . S
C422 C420 1.419 . S
C422 C423 1.362 . S
C423 H413 0.930 . S
C423 C416 1.409 . S
C423 C422 1.362 . S
H424 C430 0.930 . S
H425 C433 0.930 . S
H426 C434 0.930 . S
H427 C435 0.930 . S
H428 C438 0.930 . S
H429 C439 0.930 . S
C430 H424 0.930 . S
C430 C431 1.355 . S
C430 C432 1.415 . S
C431 C430 1.355 . S
C431 C433 1.419 . S
C432 C430 1.415 . S
C432 C437 1.425 . S
C432 C439 1.409 . S
C433 H425 0.930 . S
C433 C431 1.419 . S
C433 C434 1.362 . S
C434 H426 0.930 . S
C434 C433 1.362 . S
C434 C437 1.409 . S
C435 H427 0.930 . S
C435 C436 1.355 . S
C435 C437 1.415 . S
C436 C435 1.355 . S
C436 C438 1.419 . S
C437 C432 1.425 . S
C437 C434 1.409 . S
C437 C435 1.415 . S
C438 H428 0.930 . S
C438 C436 1.419 . S
C438 C439 1.362 . S
C439 H429 0.930 . S
C439 C432 1.409 . S
C439 C438 1.362 . S
H440 C446 0.930 . S
H441 C449 0.930 1_556 S
H442 C450 0.930 . S
H443 C451 0.930 . S
H444 C454 0.930 . S
H445 C455 0.930 . S
C446 H440 0.930 . S
C446 C447 1.355 . S
C446 C448 1.415 . S
C447 C446 1.355 . S
C447 C449 1.419 . S
C448 C446 1.415 . S
C448 C453 1.425 . S
C448 C455 1.409 . S
C449 H441 0.930 1_554 S
C449 C447 1.419 . S
C449 C450 1.362 . S
C450 H442 0.930 . S
C450 C449 1.362 . S
C450 C453 1.409 . S
C451 H443 0.930 . S
C451 C452 1.355 . S
C451 C453 1.415 . S
C452 C451 1.355 . S
C452 C454 1.419 . S
C453 C448 1.425 . S
C453 C450 1.409 . S
C453 C451 1.415 . S
C454 H444 0.930 . S
C454 C452 1.419 . S
C454 C455 1.362 . S
C455 H445 0.930 . S
C455 C448 1.409 . S
C455 C454 1.362 . S
H456 C462 0.930 . S
H457 C465 0.930 . S
H458 C466 0.930 . S
H459 C467 0.930 . S
H460 C470 0.930 . S
H461 C471 0.930 . S
C462 H456 0.930 . S
C462 C463 1.355 . S
C462 C464 1.415 . S
C463 C462 1.355 . S
C463 C465 1.419 . S
C464 C462 1.415 . S
C464 C469 1.425 . S
C464 C471 1.409 . S
C465 H457 0.930 . S
C465 C463 1.419 . S
C465 C466 1.362 . S
C466 H458 0.930 . S
C466 C465 1.362 . S
C466 C469 1.409 . S
C467 H459 0.930 . S
C467 C468 1.355 . S
C467 C469 1.415 . S
C468 C467 1.355 . S
C468 C470 1.419 . S
C469 C464 1.425 . S
C469 C466 1.409 . S
C469 C467 1.415 . S
C470 H460 0.930 . S
C470 C468 1.419 . S
C470 C471 1.362 . S
C471 H461 0.930 . S
C471 C464 1.409 . S
C471 C470 1.362 . S
H472 C478 0.930 . S
H473 C481 0.930 . S
H474 C482 0.930 . S
H475 C483 0.930 . S
H476 C486 0.930 . S
H477 C487 0.930 . S
C478 H472 0.930 . S
C478 C479 1.355 . S
C478 C480 1.415 . S
C479 C478 1.355 . S
C479 C481 1.419 . S
C480 C478 1.415 . S
C480 C485 1.425 . S
C480 C487 1.409 . S
C481 H473 0.930 . S
C481 C479 1.419 . S
C481 C482 1.362 . S
C482 H474 0.930 . S
C482 C481 1.362 . S
C482 C485 1.409 . S
C483 H475 0.930 . S
C483 C484 1.355 . S
C483 C485 1.415 . S
C484 C483 1.355 . S
C484 C486 1.419 . S
C485 C480 1.425 . S
C485 C482 1.409 . S
C485 C483 1.415 . S
C486 H476 0.930 . S
C486 C484 1.419 . S
C486 C487 1.362 . S
C487 H477 0.930 . S
C487 C480 1.409 . S
C487 C486 1.362 . S
H488 C494 0.930 1_545 S
H489 C497 0.930 . S
H490 C498 0.930 . S
H491 C499 0.930 . S
H492 C502 0.930 . S
H493 C503 0.930 . S
C494 H488 0.930 1_565 S
C494 C495 1.374 . S
C494 C496 1.415 . S
C495 C494 1.374 . S
C495 C497 1.430 . S
C496 C494 1.415 . S
C496 C501 1.425 . S
C496 C503 1.409 . S
C497 H489 0.930 . S
C497 C495 1.430 . S
C497 C498 1.362 . S
C498 H490 0.930 . S
C498 C497 1.362 . S
C498 C501 1.409 . S
C499 H491 0.930 . S
C499 C500 1.355 . S
C499 C501 1.415 . S
C500 C499 1.355 . S
C500 C502 1.419 . S
C501 C496 1.425 . S
C501 C498 1.409 . S
C501 C499 1.415 . S
C502 H492 0.930 . S
C502 C500 1.419 . S
C502 C503 1.362 . S
C503 H493 0.930 . S
C503 C496 1.409 . S
C503 C502 1.362 . S
H504 C510 0.930 . S
H505 C513 0.930 . S
H506 C514 0.930 . S
H507 C515 0.930 1_554 S
H508 C518 0.930 . S
H509 C519 0.930 . S
C510 H504 0.930 . S
C510 C511 1.355 1_556 S
C510 C512 1.415 . S
C511 C510 1.355 1_554 S
C511 C513 1.419 . S
C512 C510 1.415 . S
C512 C517 1.421 1_556 S
C512 C519 1.409 . S
C513 H505 0.930 . S
C513 C511 1.419 . S
C513 C514 1.362 . S
C514 H506 0.930 . S
C514 C513 1.362 . S
C514 C517 1.414 . S
C515 H507 0.930 1_556 S
C515 C516 1.355 . S
C515 C517 1.414 1_556 S
C516 C515 1.355 . S
C516 C518 1.419 . S
C517 C512 1.421 1_554 S
C517 C514 1.414 . S
C517 C515 1.414 1_554 S
C518 H508 0.930 . S
C518 C516 1.419 . S
C518 C519 1.362 . S
C519 H509 0.930 . S
C519 C512 1.409 . S
C519 C518 1.362 . S
H520 C526 0.930 . S
H521 C529 0.930 . S
H522 C530 0.930 . S
H523 C531 0.930 . S
H524 C534 0.930 . S
H525 C535 0.930 . S
C526 H520 0.930 . S
C526 C527 1.355 . S
C526 C528 1.415 . S
C527 C526 1.355 . S
C527 C529 1.419 1_556 S
C528 C526 1.415 . S
C528 C533 1.425 1_556 S
C528 C535 1.409 . S
C529 H521 0.930 . S
C529 C527 1.419 1_554 S
C529 C530 1.362 . S
C530 H522 0.930 . S
C530 C529 1.362 . S
C530 C533 1.409 . S
C531 H523 0.930 . S
C531 C532 1.355 . S
C531 C533 1.415 . S
C532 C531 1.355 . S
C532 C534 1.419 1_554 S
C533 C528 1.425 1_554 S
C533 C530 1.409 . S
C533 C531 1.415 . S
C534 H524 0.930 . S
C534 C532 1.419 1_556 S
C534 C535 1.362 . S
C535 H525 0.930 . S
C535 C528 1.409 . S
C535 C534 1.362 . S
H536 C542 0.930 . S
H537 C545 0.930 . S
H538 C546 0.930 . S
H539 C547 0.930 1_554 S
H540 C550 0.930 1_455 S
H541 C551 0.930 . S
C542 H536 0.930 . S
C542 C543 1.355 1_556 S
C542 C544 1.415 . S
C543 C542 1.355 1_554 S
C543 C545 1.419 . S
C544 C542 1.415 . S
C544 C549 1.425 1_556 S
C544 C551 1.409 . S
C545 H537 0.930 . S
C545 C543 1.419 . S
C545 C546 1.362 . S
C546 H538 0.930 . S
C546 C545 1.362 . S
C546 C549 1.409 . S
C547 H539 0.930 1_556 S
C547 C548 1.355 1_655 S
C547 C549 1.415 1_556 S
C548 C547 1.355 1_455 S
C548 C550 1.419 1_455 S
C549 C544 1.425 1_554 S
C549 C546 1.409 . S
C549 C547 1.415 1_554 S
C550 H540 0.930 1_655 S
C550 C548 1.419 1_655 S
C550 C551 1.362 . S
C551 H541 0.930 . S
C551 C544 1.409 . S
C551 C550 1.362 . S
H552 C558 0.930 . S
H553 C561 0.930 . S
H554 C562 0.930 . S
H555 C563 0.930 . S
H556 C566 0.930 . S
H557 C567 0.930 . S
C558 H552 0.930 . S
C558 C559 1.355 . S
C558 C560 1.415 . S
C559 C558 1.355 . S
C559 C561 1.419 . S
C560 C558 1.415 . S
C560 C565 1.425 . S
C560 C567 1.409 . S
C561 H553 0.930 . S
C561 C559 1.419 . S
C561 C562 1.362 . S
C562 H554 0.930 . S
C562 C561 1.362 . S
C562 C565 1.409 . S
C563 H555 0.930 . S
C563 C564 1.355 . S
C563 C565 1.415 . S
C564 C563 1.355 . S
C564 C566 1.419 . S
C565 C560 1.425 . S
C565 C562 1.409 . S
C565 C563 1.415 . S
C566 H556 0.930 . S
C566 C564 1.419 . S
C566 C567 1.362 . S
C567 H557 0.930 . S
C567 C560 1.409 . S
C567 C566 1.362 . S
H568 C574 0.930 . S
H569 C577 0.930 . S
H570 C578 0.930 . S
H571 C579 0.930 . S
H572 C582 0.930 . S
H573 C583 0.930 . S
C574 H568 0.930 . S
C574 C575 1.355 . S
C574 C576 1.415 . S
C575 C574 1.355 . S
C575 C577 1.419 . S
C576 C574 1.415 . S
C576 C581 1.425 . S
C576 C583 1.409 . S
C577 H569 0.930 . S
C577 C575 1.419 . S
C577 C578 1.362 . S
C578 H570 0.930 . S
C578 C577 1.362 . S
C578 C581 1.409 . S
C579 H571 0.930 . S
C579 C580 1.355 . S
C579 C581 1.415 . S
C580 C579 1.355 . S
C580 C582 1.419 . S
C581 C576 1.425 . S
C581 C578 1.409 . S
C581 C579 1.415 . S
C582 H572 0.930 . S
C582 C580 1.419 . S
C582 C583 1.362 . S
C583 H573 0.930 . S
C583 C576 1.409 . S
C583 C582 1.362 . S
H584 C590 0.930 . S
H585 C593 0.930 . S
H586 C594 0.930 . S
H587 C595 0.930 . S
H588 C598 0.930 . S
H589 C599 0.930 . S
C590 H584 0.930 . S
C590 C591 1.355 . S
C590 C592 1.415 . S
C591 C590 1.355 . S
C591 C593 1.419 . S
C592 C590 1.415 . S
C592 C597 1.425 . S
C592 C599 1.409 . S
C593 H585 0.930 . S
C593 C591 1.419 . S
C593 C594 1.362 . S
C594 H586 0.930 . S
C594 C593 1.362 . S
C594 C597 1.409 . S
C595 H587 0.930 . S
C595 C596 1.355 . S
C595 C597 1.415 . S
C596 C595 1.355 . S
C596 C598 1.419 . S
C597 C592 1.425 . S
C597 C594 1.409 . S
C597 C595 1.415 . S
C598 H588 0.930 . S
C598 C596 1.419 . S
C598 C599 1.362 . S
C599 H589 0.930 . S
C599 C592 1.409 . S
C599 C598 1.362 . S
H600 C606 0.930 . S
H601 C609 0.930 . S
H602 C610 0.930 . S
H603 C611 0.930 . S
H604 C614 0.930 . S
H605 C615 0.930 . S
C606 H600 0.930 . S
C606 C607 1.355 . S
C606 C608 1.415 . S
C607 C606 1.355 . S
C607 C609 1.419 . S
C608 C606 1.415 . S
C608 C613 1.425 . S
C608 C615 1.409 . S
C609 H601 0.930 . S
C609 C607 1.419 . S
C609 C610 1.362 . S
C610 H602 0.930 . S
C610 C609 1.362 . S
C610 C613 1.409 . S
C611 H603 0.930 . S
C611 C612 1.355 . S
C611 C613 1.415 . S
C612 C611 1.355 . S
C612 C614 1.419 . S
C613 C608 1.425 . S
C613 C610 1.409 . S
C613 C611 1.415 . S
C614 H604 0.930 . S
C614 C612 1.419 . S
C614 C615 1.362 . S
C615 H605 0.930 . S
C615 C608 1.409 . S
C615 C614 1.362 . S
H616 C622 0.930 . S
H617 C625 0.930 . S
H618 C626 0.930 . S
H619 C627 0.930 . S
H620 C630 0.930 . S
H621 C631 0.930 . S
C622 H616 0.930 . S
C622 C623 1.355 . S
C622 C624 1.415 . S
C623 C622 1.355 . S
C623 C625 1.419 . S
C624 C622 1.415 . S
C624 C629 1.425 . S
C624 C631 1.409 . S
C625 H617 0.930 . S
C625 C623 1.419 . S
C625 C626 1.362 . S
C626 H618 0.930 . S
C626 C625 1.362 . S
C626 C629 1.409 . S
C627 H619 0.930 . S
C627 C628 1.355 . S
C627 C629 1.415 . S
C628 C627 1.355 . S
C628 C630 1.419 . S
C629 C624 1.425 . S
C629 C626 1.409 . S
C629 C627 1.415 . S
C630 H620 0.930 . S
C630 C628 1.419 . S
C630 C631 1.362 . S
C631 H621 0.930 . S
C631 C624 1.409 . S
C631 C630 1.362 . S
H632 C638 0.930 . S
H633 C641 0.930 . S
H634 C642 0.930 . S
H635 C643 0.930 . S
H636 C646 0.930 . S
H637 C647 0.930 . S
C638 H632 0.930 . S
C638 C639 1.355 . S
C638 C640 1.415 . S
C639 C638 1.355 . S
C639 C641 1.419 . S
C640 C638 1.415 . S
C640 C645 1.425 . S
C640 C647 1.409 . S
C641 H633 0.930 . S
C641 C639 1.419 . S
C641 C642 1.362 . S
C642 H634 0.930 . S
C642 C641 1.362 . S
C642 C645 1.409 . S
C643 H635 0.930 . S
C643 C644 1.355 . S
C643 C645 1.415 . S
C644 C643 1.355 . S
C644 C646 1.419 . S
C645 C640 1.425 . S
C645 C642 1.409 . S
C645 C643 1.415 . S
C646 H636 0.930 . S
C646 C644 1.419 . S
C646 C647 1.362 . S
C647 H637 0.930 . S
C647 C640 1.409 . S
C647 C646 1.362 . S
H648 C654 0.930 . S
H649 C657 0.930 . S
H650 C658 0.930 . S
H651 C659 0.930 . S
H652 C662 0.930 . S
H653 C663 0.930 . S
C654 H648 0.930 . S
C654 C655 1.355 . S
C654 C656 1.415 . S
C655 C654 1.355 . S
C655 C657 1.419 . S
C656 C654 1.415 . S
C656 C661 1.425 . S
C656 C663 1.409 . S
C657 H649 0.930 . S
C657 C655 1.419 . S
C657 C658 1.362 . S
C658 H650 0.930 . S
C658 C657 1.362 . S
C658 C661 1.409 . S
C659 H651 0.930 . S
C659 C660 1.355 . S
C659 C661 1.415 . S
C660 C659 1.355 . S
C660 C662 1.419 . S
C661 C656 1.425 . S
C661 C658 1.409 . S
C661 C659 1.415 . S
C662 H652 0.930 . S
C662 C660 1.419 . S
C662 C663 1.362 . S
C663 H653 0.930 . S
C663 C656 1.409 . S
C663 C662 1.362 . S
H664 C670 0.930 . S
H665 C673 0.930 . S
H666 C674 0.930 . S
H667 C675 0.930 . S
H668 C678 0.930 . S
H669 C679 0.930 . S
C670 H664 0.930 . S
C670 C671 1.355 . S
C670 C672 1.415 . S
C671 C670 1.355 . S
C671 C673 1.419 . S
C672 C670 1.415 . S
C672 C677 1.425 . S
C672 C679 1.409 . S
C673 H665 0.930 . S
C673 C671 1.419 . S
C673 C674 1.362 . S
C674 H666 0.930 . S
C674 C673 1.362 . S
C674 C677 1.409 . S
C675 H667 0.930 . S
C675 C676 1.355 . S
C675 C677 1.415 . S
C676 C675 1.355 . S
C676 C678 1.419 . S
C677 C672 1.425 . S
C677 C674 1.409 . S
C677 C675 1.415 . S
C678 H668 0.930 . S
C678 C676 1.419 . S
C678 C679 1.362 . S
C679 H669 0.930 . S
C679 C672 1.409 . S
C679 C678 1.362 . S
H680 C686 0.930 . S
H681 C689 0.930 . S
H682 C690 0.930 . S
H683 C691 0.930 . S
H684 C694 0.930 . S
H685 C695 0.930 . S
C686 H680 0.930 . S
C686 C687 1.355 1_565 S
C686 C688 1.414 1_565 S
C687 C686 1.355 1_545 S
C687 C689 1.419 . S
C688 C686 1.414 1_545 S
C688 C693 1.429 . S
C688 C695 1.406 1_545 S
C689 H681 0.930 . S
C689 C687 1.419 . S
C689 C690 1.362 . S
C690 H682 0.930 . S
C690 C689 1.362 . S
C690 C693 1.409 . S
C691 H683 0.930 . S
C691 C692 1.355 . S
C691 C693 1.415 . S
C692 C691 1.355 . S
C692 C694 1.419 1_545 S
C693 C688 1.429 . S
C693 C690 1.409 . S
C693 C691 1.415 . S
C694 H684 0.930 . S
C694 C692 1.419 1_565 S
C694 C695 1.362 . S
C695 H685 0.930 . S
C695 C688 1.406 1_565 S
C695 C694 1.362 . S
H696 C702 0.930 . S
H697 C705 0.930 . S
H698 C706 0.930 . S
H699 C707 0.930 1_554 S
H700 C710 0.930 . S
H701 C711 0.930 . S
C702 H696 0.930 . S
C702 C703 1.355 . S
C702 C704 1.415 . S
C703 C702 1.355 . S
C703 C705 1.419 . S
C704 C702 1.415 . S
C704 C709 1.425 . S
C704 C711 1.409 . S
C705 H697 0.930 . S
C705 C703 1.419 . S
C705 C706 1.362 . S
C706 H698 0.930 . S
C706 C705 1.362 . S
C706 C709 1.409 . S
C707 H699 0.930 1_556 S
C707 C708 1.355 1_556 S
C707 C709 1.415 . S
C708 C707 1.355 1_554 S
C708 C710 1.419 . S
C709 C704 1.425 . S
C709 C706 1.409 . S
C709 C707 1.415 . S
C710 H700 0.930 . S
C710 C708 1.419 . S
C710 C711 1.362 1_554 S
C711 H701 0.930 . S
C711 C704 1.409 . S
C711 C710 1.362 1_556 S
H712 C718 0.930 . S
H713 C721 0.930 . S
H714 C722 0.930 . S
H715 C723 0.930 1_554 S
H716 C726 0.930 . S
H717 C727 0.930 . S
C718 H712 0.930 . S
C718 C719 1.355 . S
C718 C720 1.415 . S
C719 C718 1.355 . S
C719 C721 1.419 . S
C720 C718 1.415 . S
C720 C725 1.425 . S
C720 C727 1.409 . S
C721 H713 0.930 . S
C721 C719 1.419 . S
C721 C722 1.362 . S
C722 H714 0.930 . S
C722 C721 1.362 . S
C722 C725 1.409 . S
C723 H715 0.930 1_556 S
C723 C724 1.355 1_556 S
C723 C725 1.415 . S
C724 C723 1.355 1_554 S
C724 C726 1.419 . S
C725 C720 1.425 . S
C725 C722 1.409 . S
C725 C723 1.415 . S
C726 H716 0.930 . S
C726 C724 1.419 . S
C726 C727 1.362 1_554 S
C727 H717 0.930 . S
C727 C720 1.409 . S
C727 C726 1.362 1_556 S
H728 C734 0.930 . S
H729 C737 0.930 . S
H730 C738 0.930 . S
H731 C739 0.930 . S
H732 C742 0.930 . S
H733 C743 0.930 . S
C734 H728 0.930 . S
C734 C735 1.355 . S
C734 C736 1.415 . S
C735 C734 1.355 . S
C735 C737 1.419 . S
C736 C734 1.415 . S
C736 C741 1.425 . S
C736 C743 1.409 . S
C737 H729 0.930 . S
C737 C735 1.419 . S
C737 C738 1.362 . S
C738 H730 0.930 . S
C738 C737 1.362 . S
C738 C741 1.409 . S
C739 H731 0.930 . S
C739 C740 1.355 1_556 S
C739 C741 1.415 . S
C740 C739 1.355 1_554 S
C740 C742 1.419 . S
C741 C736 1.425 . S
C741 C738 1.409 . S
C741 C739 1.415 . S
C742 H732 0.930 . S
C742 C740 1.419 . S
C742 C743 1.362 1_554 S
C743 H733 0.930 . S
C743 C736 1.409 . S
C743 C742 1.362 1_556 S
H744 C750 0.930 . S
H745 C753 0.930 . S
H746 C754 0.930 . S
H747 C755 0.930 . S
H748 C758 0.930 1_556 S
H749 C759 0.930 . S
C750 H744 0.930 . S
C750 C751 1.355 . S
C750 C752 1.415 . S
C751 C750 1.355 . S
C751 C753 1.419 . S
C752 C750 1.415 . S
C752 C757 1.425 . S
C752 C759 1.409 . S
C753 H745 0.930 . S
C753 C751 1.419 . S
C753 C754 1.362 . S
C754 H746 0.930 . S
C754 C753 1.362 . S
C754 C757 1.409 . S
C755 H747 0.930 . S
C755 C756 1.355 1_554 S
C755 C757 1.415 . S
C756 C755 1.355 1_556 S
C756 C758 1.419 1_556 S
C757 C752 1.425 . S
C757 C754 1.409 . S
C757 C755 1.415 . S
C758 H748 0.930 1_554 S
C758 C756 1.419 1_554 S
C758 C759 1.362 . S
C759 H749 0.930 . S
C759 C752 1.409 . S
C759 C758 1.362 . S
H760 C766 0.930 . S
H761 C769 0.930 1_556 S
H762 C770 0.930 . S
H763 C771 0.930 . S
H764 C774 0.930 . S
H765 C775 0.930 . S
C766 H760 0.930 . S
C766 C767 1.355 1_554 S
C766 C768 1.415 . S
C767 C766 1.355 1_556 S
C767 C769 1.419 1_556 S
C768 C766 1.415 . S
C768 C773 1.425 . S
C768 C775 1.409 . S
C769 H761 0.930 1_554 S
C769 C767 1.419 1_554 S
C769 C770 1.362 . S
C770 H762 0.930 . S
C770 C769 1.362 . S
C770 C773 1.409 . S
C771 H763 0.930 . S
C771 C772 1.355 . S
C771 C773 1.415 . S
C772 C771 1.355 . S
C772 C774 1.419 . S
C773 C768 1.425 . S
C773 C770 1.409 . S
C773 C771 1.415 . S
C774 H764 0.930 . S
C774 C772 1.419 . S
C774 C775 1.362 . S
C775 H765 0.930 . S
C775 C768 1.409 . S
C775 C774 1.362 . S
H776 C782 0.930 . S
H777 C785 0.930 . S
H778 C786 0.930 . S
H779 C787 0.930 . S
H780 C790 0.930 1_556 S
H781 C791 0.930 . S
C782 H776 0.930 . S
C782 C783 1.355 . S
C782 C784 1.415 . S
C783 C782 1.355 . S
C783 C785 1.419 . S
C784 C782 1.415 . S
C784 C789 1.425 . S
C784 C791 1.409 . S
C785 H777 0.930 . S
C785 C783 1.419 . S
C785 C786 1.362 . S
C786 H778 0.930 . S
C786 C785 1.362 . S
C786 C789 1.409 . S
C787 H779 0.930 . S
C787 C788 1.355 1_554 S
C787 C789 1.415 . S
C788 C787 1.355 1_556 S
C788 C790 1.419 1_556 S
C789 C784 1.425 . S
C789 C786 1.409 . S
C789 C787 1.415 . S
C790 H780 0.930 1_554 S
C790 C788 1.419 1_554 S
C790 C791 1.362 . S
C791 H781 0.930 . S
C791 C784 1.409 . S
C791 C790 1.362 . S
C367 C10 1.830 . S
C372 C286 1.864 . S
C383 C50 1.774 . S
C388 C326 1.846 . S
C399 C90 1.773 . S
C404 C246 1.846 . S
C415 C170 1.795 . S
C420 C86 1.838 . S
C431 C210 1.792 . S
C436 C6 1.860 . S
C447 C46 1.872 . S
C452 C130 1.831 . S
C463 C290 1.830 . S
C468 C206 1.871 1_455 S
C479 C330 1.771 . S
C484 C126 1.832 . S
C495 C166 1.842 1_565 S
C500 C250 1.828 . S
C511 C99 1.717 . S
C516 C15 1.702 . S
C527 C55 1.700 1_545 S
C532 C19 1.714 . S
C543 C59 1.712 . S
C548 C95 1.711 . S
C559 C135 1.687 . S
C564 C219 1.720 . S
C575 C139 1.717 . S
C580 C175 1.689 . S
C591 C179 1.717 . S
C596 C215 1.704 . S
C607 C339 1.713 . S
C612 C255 1.706 . S
C623 C295 1.707 . S
C628 C259 1.713 . S
C639 C335 1.689 . S
C644 C299 1.717 . S
C655 C9 1.108 . S
C660 C18 1.108 . S
C671 C49 1.098 . S
C676 C58 1.098 . S
C687 C89 1.052 . S
C692 C98 1.052 . S
C703 C138 1.137 . S
C708 C129 1.137 . S
C719 C178 1.112 . S
C724 C169 1.112 . S
C735 C218 1.068 . S
C740 C209 1.068 . S
C751 C249 1.065 . S
C756 C258 1.065 . S
C767 C298 1.137 . S
C772 C289 1.137 . S
C783 C329 1.058 . S
C788 C338 1.058 . S
