# Generated by pormake.
# Topology rob, (6)-cn, num edge types: 1
# Building blocks:
#     Node 0, Type 0, BuildingBlock: VOLQOD_clean_sbu_1, # of connection points: 6
#     Node 1, Type 0, BuildingBlock: VOLQOD_clean_sbu_1, # of connection points: 6
#     Node 2, Type 0, BuildingBlock: VOLQOD_clean_sbu_1, # of connection points: 6
#     Node 3, Type 0, BuildingBlock: VOLQOD_clean_sbu_1, # of connection points: 6
#     Edge 4, Type (0, 0), BuildingBlock: ZUJKAS_clean_linker_0, # of connection points: 2
#     Edge 5, Type (0, 0), BuildingBlock: ZUJKAS_clean_linker_0, # of connection points: 2
#     Edge 6, Type (0, 0), BuildingBlock: ZUJKAS_clean_linker_0, # of connection points: 2
#     Edge 7, Type (0, 0), BuildingBlock: ZUJKAS_clean_linker_0, # of connection points: 2
#     Edge 8, Type (0, 0), BuildingBlock: ZUJKAS_clean_linker_0, # of connection points: 2
#     Edge 9, Type (0, 0), BuildingBlock: ZUJKAS_clean_linker_0, # of connection points: 2
#     Edge 10, Type (0, 0), BuildingBlock: ZUJKAS_clean_linker_0, # of connection points: 2
#     Edge 11, Type (0, 0), BuildingBlock: ZUJKAS_clean_linker_0, # of connection points: 2
#     Edge 12, Type (0, 0), BuildingBlock: ZUJKAS_clean_linker_0, # of connection points: 2
#     Edge 13, Type (0, 0), BuildingBlock: ZUJKAS_clean_linker_0, # of connection points: 2
#     Edge 14, Type (0, 0), BuildingBlock: ZUJKAS_clean_linker_0, # of connection points: 2
#     Edge 15, Type (0, 0), BuildingBlock: ZUJKAS_clean_linker_0, # of connection points: 2
# Relax obj value: 0.389
# Max RMSD: 0.278
# Mean RMSD: 0.278
data_MOF--net-rob--node1-VOLQOD_clean_sbu_1--edge1-ZUJKAS_clean_linker_0
_symmetry_space_group_name_H-M    P1
_symmetry_Int_Tables_number       1
_symmetry_cell_setting            triclinic
loop_
_symmetry_equiv_pos_as_xyz
'x, y, z'
_cell_length_a     22.097461
_cell_length_b     36.957697
_cell_length_c     32.112569
_cell_angle_alpha  90.230745
_cell_angle_beta   89.916268
_cell_angle_gamma 90.072643
loop_
_atom_site_label
_atom_site_type_symbol
_atom_site_fract_x
_atom_site_fract_y
_atom_site_fract_z
_atom_type_partial_charge
O0 O 0.24447 0.34905 0.01896 0.0
Zn1 Zn 0.18757 0.30994 0.03786 0.0
O2 O 0.22331 0.26186 0.02947 0.0
Zn3 Zn 0.17498 0.23415 0.99009 0.0
Zn4 Zn 0.30573 0.26716 0.00831 0.0
Zn5 Zn 0.22491 0.23563 0.08176 0.0
O6 O 0.14679 0.18723 0.0142 0.0
O7 O 0.17438 0.19017 0.08045 0.0
O8 O 0.1094 0.31545 0.00609 0.0
O9 O 0.10107 0.26202 0.9746 0.0
O10 O 0.22133 0.22308 0.93754 0.0
O11 O 0.31134 0.24755 0.95024 0.0
O12 O 0.36678 0.24097 0.0439 0.0
O13 O 0.17191 0.31935 0.0989 0.0
O14 O 0.30901 0.22006 0.09495 0.0
O15 O 0.19788 0.2675 0.12864 0.0
C16 C 0.30022 0.3489 0.00894 0.0
C17 C 0.14808 0.17379 0.05059 0.0
C18 C 0.27509 0.23066 0.92626 0.0
C19 C 0.08073 0.29349 0.98266 0.0
C20 C 0.36055 0.22354 0.07775 0.0
C21 C 0.17884 0.29993 0.13123 0.0
O22 O 0.32993 0.31953 0.00577 0.0
O23 O 0.78603 0.83818 0.04347 0.0
Zn24 Zn 0.72047 0.80249 0.02939 0.0
O25 O 0.74989 0.75289 0.03638 0.0
Zn26 Zn 0.7407 0.72571 0.98494 0.0
Zn27 Zn 0.83499 0.75388 0.05242 0.0
Zn28 Zn 0.70313 0.72853 0.07894 0.0
O29 O 0.67662 0.68708 0.98873 0.0
O30 O 0.65195 0.68871 0.05562 0.0
O31 O 0.69665 0.81183 0.9698 0.0
O32 O 0.71693 0.75923 0.93908 0.0
O33 O 0.81887 0.70186 0.96876 0.0
O34 O 0.88668 0.72855 0.00982 0.0
O35 O 0.84715 0.72747 0.10616 0.0
O36 O 0.65102 0.81365 0.06851 0.0
O37 O 0.75602 0.70633 0.12227 0.0
O38 O 0.64848 0.76383 0.10699 0.0
C39 C 0.84087 0.83549 0.05514 0.0
C40 C 0.64589 0.67531 0.01935 0.0
C41 C 0.87334 0.70707 0.98014 0.0
C42 C 0.69976 0.79206 0.93727 0.0
C43 C 0.81235 0.70905 0.12955 0.0
C44 C 0.63034 0.79578 0.09926 0.0
O45 O 0.86579 0.80475 0.05985 0.0
O46 O 0.21464 0.82854 0.54667 0.0
Zn47 Zn 0.27903 0.79416 0.52761 0.0
O48 O 0.25284 0.74392 0.53252 0.0
Zn49 Zn 0.30312 0.71877 0.57298 0.0
Zn50 Zn 0.16801 0.74367 0.54973 0.0
Zn51 Zn 0.26105 0.71916 0.47925 0.0
O52 O 0.34406 0.67531 0.54783 0.0
O53 O 0.3223 0.67902 0.48064 0.0
O54 O 0.35258 0.80428 0.56227 0.0
O55 O 0.3683 0.75192 0.59426 0.0
O56 O 0.25329 0.70155 0.62167 0.0
O57 O 0.16064 0.71996 0.6053 0.0
O58 O 0.11609 0.71553 0.50979 0.0
O59 O 0.2966 0.80649 0.46798 0.0
O60 O 0.18315 0.69516 0.46369 0.0
O61 O 0.28272 0.75458 0.43417 0.0
C62 C 0.15866 0.82494 0.55488 0.0
C63 C 0.3492 0.66355 0.51069 0.0
C64 C 0.19711 0.70429 0.63 0.0
C65 C 0.38266 0.78475 0.58733 0.0
C66 C 0.12956 0.6965 0.47804 0.0
C67 C 0.29538 0.78824 0.43428 0.0
O68 O 0.13341 0.79397 0.55513 0.0
O69 O 0.70884 0.32718 0.51621 0.0
Zn70 Zn 0.76934 0.29058 0.53473 0.0
O71 O 0.74224 0.2415 0.52145 0.0
Zn72 Zn 0.73985 0.21239 0.57195 0.0
Zn73 Zn 0.66147 0.24364 0.49644 0.0
Zn74 Zn 0.79909 0.21926 0.4828 0.0
O75 O 0.79566 0.1694 0.5692 0.0
O76 O 0.83378 0.17324 0.50544 0.0
O77 O 0.78005 0.29728 0.59623 0.0
O78 O 0.76197 0.24262 0.62194 0.0
O79 O 0.65594 0.19384 0.58209 0.0
O80 O 0.59949 0.21945 0.53313 0.0
O81 O 0.66179 0.21937 0.44018 0.0
O82 O 0.84729 0.30312 0.50573 0.0
O83 O 0.75879 0.20689 0.4287 0.0
O84 O 0.86767 0.25293 0.47023 0.0
C85 C 0.65772 0.32562 0.49818 0.0
C86 C 0.82912 0.15703 0.54018 0.0
C87 C 0.60478 0.19963 0.56526 0.0
C88 C 0.77572 0.27584 0.627 0.0
C89 C 0.7039 0.20726 0.41682 0.0
C90 C 0.88097 0.28514 0.48105 0.0
O91 O 0.6339 0.29537 0.48837 0.0
H92 H 0.60159 0.63015 0.07874 0.0
H93 H 0.53725 0.57725 0.06889 0.0
H94 H 0.52909 0.59859 0.93698 0.0
H95 H 0.59596 0.6509 0.9464 0.0
H96 H 0.42596 0.56949 0.04161 0.0
H97 H 0.58178 0.49507 0.93598 0.0
H98 H 0.6042 0.53566 0.9632 0.0
H99 H 0.55906 0.53847 0.91673 0.0
C100 C 0.58612 0.62364 0.04759 0.0
C101 C 0.60423 0.6445 0.01327 0.0
C102 C 0.54928 0.59339 0.04202 0.0
C103 C 0.52919 0.58357 0.0021 0.0
C104 C 0.54545 0.60506 0.96789 0.0
H105 H 0.25047 0.41396 0.98798 0.0
H106 H 0.30259 0.47207 0.9808 0.0
C107 C 0.5833 0.63505 0.97335 0.0
C108 C 0.49156 0.55065 -0.0031 0.0
H109 H 0.48741 0.46774 0.9498 0.0
C110 C 0.43924 0.54726 0.02143 0.0
C111 C 0.50935 0.52158 0.97081 0.0
C112 C 0.56693 0.52262 0.94547 0.0
C113 C 0.4052 0.51523 0.02164 0.0
C114 C 0.42262 0.48628 -0.00476 0.0
C115 C 0.47393 0.49006 0.96979 0.0
C116 C 0.39115 0.45085 -0.00407 0.0
C117 C 0.35283 0.51223 0.05171 0.0
C118 C 0.42406 0.41931 0.00466 0.0
C119 C 0.39469 0.38599 0.00769 0.0
C120 C 0.33169 0.38367 0.00256 0.0
C121 C 0.29897 0.41507 -0.00731 0.0
C122 C 0.32861 0.44831 0.98884 0.0
H123 H 0.35588 0.53264 0.07712 0.0
H124 H 0.30987 0.51698 0.03477 0.0
H125 H 0.35086 0.48492 0.06595 0.0
H126 H 0.4724 0.42059 0.01011 0.0
H127 H 0.4211 0.36226 0.01534 0.0
H128 H 0.36494 0.62787 0.4364 0.0
H129 H 0.41403 0.5693 0.42505 0.0
H130 H 0.46029 0.56443 0.55529 0.0
H131 H 0.41107 0.62264 0.56715 0.0
H132 H 0.53413 0.54625 0.44082 0.0
H133 H 0.36614 0.46971 0.53392 0.0
H134 H 0.35281 0.51529 0.51609 0.0
H135 H 0.39845 0.50741 0.56149 0.0
C136 C 0.38587 0.61447 0.46262 0.0
C137 C 0.38358 0.62983 0.50279 0.0
C138 C 0.41382 0.58101 0.45604 0.0
C139 C 0.43959 0.5623 0.48949 0.0
C140 C 0.43942 0.57814 0.52925 0.0
H141 H 0.69748 0.39447 0.51252 0.0
H142 H 0.64204 0.45069 0.50329 0.0
C143 C 0.41157 0.61153 0.53589 0.0
C144 C 0.46651 0.52609 0.48318 0.0
H145 H 0.45837 0.43901 0.51754 0.0
C146 C 0.51724 0.52267 0.45717 0.0
C147 C 0.4435 0.49526 0.50383 0.0
C148 C 0.38685 0.49691 0.53007 0.0
C149 C 0.54759 0.48951 0.45304 0.0
C150 C 0.52702 0.45929 0.47601 0.0
C151 C 0.47439 0.4623 0.50025 0.0
C152 C 0.56184 0.42517 0.47804 0.0
C153 C 0.60173 0.48723 0.42448 0.0
C154 C 0.53477 0.39199 0.46751 0.0
C155 C 0.56626 0.35955 0.47309 0.0
C156 C 0.62515 0.3598 0.48968 0.0
C157 C 0.65227 0.3932 0.4996 0.0
C158 C 0.62084 0.42549 0.49399 0.0
H159 H 0.59955 0.50803 0.39963 0.0
H160 H 0.64349 0.4922 0.4428 0.0
H161 H 0.60524 0.4601 0.40971 0.0
H162 H 0.48899 0.39119 0.4555 0.0
H163 H 0.54402 0.33432 0.46519 0.0
H164 H 0.14453 0.13454 0.12302 0.0
H165 H 0.10062 0.07426 0.13318 0.0
H166 H 0.0436 0.0722 0.00484 0.0
H167 H 0.08749 0.13194 -0.00582 0.0
H168 H 0.98032 0.05094 0.12151 0.0
H169 H 0.13832 0.97737 0.01751 0.0
H170 H 0.15355 0.02247 0.0367 0.0
H171 H 0.10431 0.01574 -0.00725 0.0
C172 C 0.12267 0.12124 0.09695 0.0
C173 C 0.11988 0.13799 0.0577 0.0
C174 C 0.0977 0.08683 0.10283 0.0
C175 C 0.07002 0.06859 0.06954 0.0
C176 C 0.06606 0.08552 0.03066 0.0
H177 H 0.80357 0.90549 0.04614 0.0
H178 H 0.86284 0.96044 0.0564 0.0
C179 C 0.09088 0.1198 0.02474 0.0
C180 C 0.04366 0.03217 0.0752 0.0
H181 H 0.04512 0.94705 0.03386 0.0
C182 C -0.005 0.02802 0.10286 0.0
C183 C 0.06371 0.0022 0.05144 0.0
C184 C 0.11827 0.0045 0.02325 0.0
C185 C 0.96347 0.99513 0.10553 0.0
C186 C 0.98061 0.96602 0.07933 0.0
C187 C 0.03156 0.96956 0.05355 0.0
C188 C 0.94402 0.93259 0.07593 0.0
C189 C 0.91166 0.99204 0.13595 0.0
C190 C 0.97043 0.89861 0.08264 0.0
C191 C 0.93681 0.867 0.07636 0.0
C192 C 0.87627 0.86886 0.063 0.0
C193 C 0.84997 0.90302 0.0566 0.0
C194 C 0.88361 0.93453 0.06281 0.0
H195 H 0.91699 0.0113 0.16235 0.0
H196 H 0.86875 0.9987 0.11981 0.0
H197 H 0.90791 0.96418 0.14853 0.0
H198 H 0.01722 0.89657 0.0924 0.0
H199 H 0.95848 0.84115 0.08159 0.0
H200 H 0.85368 0.12294 0.61385 0.0
H201 H 0.91081 0.06689 0.62376 0.0
H202 H 0.93429 0.05714 0.49079 0.0
H203 H 0.87938 0.11359 0.48074 0.0
H204 H 0.89128 0.99898 0.59857 0.0
H205 H 0.10558 0.04762 0.52958 0.0
H206 H 0.04384 0.07772 0.54181 0.0
H207 H 0.04394 0.05227 0.49381 0.0
C208 C 0.87133 0.10893 0.58676 0.0
C209 C 0.86267 0.12292 0.54654 0.0
C210 C 0.90386 0.0769 0.59247 0.0
C211 C 0.92796 0.05826 0.55808 0.0
C212 C 0.91779 0.07166 0.51787 0.0
H213 H 0.03843 0.83495 0.53938 0.0
H214 H 0.98154 0.89147 0.54511 0.0
C215 C 0.88609 0.10386 0.51217 0.0
C216 C 0.96305 0.02453 0.56394 0.0
H217 H 0.09534 0.98344 0.53665 0.0
C218 C 0.93622 0.99565 0.58548 0.0
C219 C 0.02218 0.02048 0.54767 0.0
C220 C 0.0558 0.05133 0.52735 0.0
C221 C 0.96611 0.96238 0.58988 0.0
C222 C 0.02354 0.95756 0.57106 0.0
C223 C 0.05104 0.98688 0.55072 0.0
C224 C 0.05592 0.92239 0.57115 0.0
C225 C 0.93602 0.93301 0.61505 0.0
C226 C 0.11697 0.92099 0.58312 0.0
C227 C 0.14995 0.88904 0.57865 0.0
C228 C 0.12228 0.85769 0.56273 0.0
C229 C 0.06065 0.85865 0.55217 0.0
C230 C 0.02798 0.89089 0.55576 0.0
H231 H 0.90475 0.94462 0.63869 0.0
H232 H 0.90881 0.91557 0.59398 0.0
H233 H 0.96982 0.91588 0.6312 0.0
H234 H 0.13957 0.9449 0.59504 0.0
H235 H 0.19735 0.88899 0.58724 0.0
H236 H 0.59404 0.18563 0.38753 0.0
H237 H 0.56683 0.1722 0.31549 0.0
H238 H 0.75194 0.18893 0.27741 0.0
H239 H 0.77997 0.20197 0.34981 0.0
H240 H 0.66061 0.23338 0.23784 0.0
H241 H 0.60234 0.088 0.23134 0.0
H242 H 0.57329 0.11019 0.27704 0.0
H243 H 0.65379 0.10685 0.26951 0.0
C244 C 0.62923 0.18578 0.364 0.0
C245 C 0.68901 0.19508 0.37423 0.0
C246 C 0.61376 0.17772 0.32294 0.0
C247 C 0.65762 0.17908 0.29136 0.0
C248 C 0.71776 0.18724 0.30155 0.0
H249 H 0.47962 0.22461 0.0522 0.0
H250 H 0.56829 0.20639 0.09295 0.0
C251 C 0.73354 0.19476 0.34284 0.0
C252 C 0.63771 0.1775 0.24758 0.0
H253 H 0.54775 0.12714 0.18378 0.0
C254 C 0.6376 0.2099 0.22506 0.0
C255 C 0.60841 0.14668 0.23117 0.0
C256 C 0.60991 0.11083 0.25335 0.0
C257 C 0.60241 0.2136 0.18904 0.0
C258 C 0.5679 0.18367 0.17487 0.0
C259 C 0.57388 0.15011 0.19484 0.0
C260 C 0.51618 0.1887 0.14626 0.0
C261 C 0.59762 0.25046 0.16919 0.0
C262 C 0.45767 0.18293 0.16182 0.0
C263 C 0.40728 0.19279 0.13863 0.0
C264 C 0.41423 0.20891 0.09935 0.0
C265 C 0.47281 0.21272 0.08262 0.0
C266 C 0.5235 0.20244 0.10587 0.0
H267 H 0.62201 0.27165 0.1872 0.0
H268 H 0.61738 0.24947 0.13743 0.0
H269 H 0.54946 0.25864 0.16641 0.0
H270 H 0.45089 0.17237 0.19293 0.0
H271 H 0.36294 0.18909 0.15239 0.0
H272 H 0.56064 0.85678 0.08756 0.0
H273 H 0.48795 0.88336 0.13732 0.0
H274 H 0.53006 0.79937 0.22543 0.0
H275 H 0.6012 0.77272 0.17666 0.0
H276 H 0.38406 0.84133 0.17783 0.0
H277 H 0.54709 0.89931 0.28986 0.0
H278 H 0.5645 0.89298 0.23522 0.0
H279 H 0.57097 0.8558 0.271 0.0
C280 C 0.55437 0.84416 0.11764 0.0
C281 C 0.58648 0.81259 0.12815 0.0
C282 C 0.51307 0.85938 0.1459 0.0
C283 C 0.50467 0.84356 0.1851 0.0
C284 C 0.53678 0.81225 0.1955 0.0
H285 H 0.30476 0.7573 0.35727 0.0
H286 H 0.33969 0.78544 0.29342 0.0
C287 C 0.5771 0.79689 0.16739 0.0
C288 C 0.46022 0.85742 0.21541 0.0
H289 H 0.45574 0.87232 0.31986 0.0
C290 C 0.39895 0.84962 0.20861 0.0
C291 C 0.47942 0.86917 0.25512 0.0
C292 C 0.54408 0.88019 0.26316 0.0
C293 C 0.35817 0.84818 0.24208 0.0
C294 C 0.38001 0.85392 0.28298 0.0
C295 C 0.43907 0.86708 0.28866 0.0
C296 C 0.34818 0.83926 0.31987 0.0
C297 C 0.29328 0.83794 0.23361 0.0
C298 C 0.34199 0.85995 0.35636 0.0
C299 C 0.32306 0.84365 0.39338 0.0
C300 C 0.31032 0.80632 0.39455 0.0
C301 C 0.3142 0.78607 0.35755 0.0
C302 C 0.33332 0.80231 0.32072 0.0
H303 H 0.27773 0.84999 0.20385 0.0
H304 H 0.2898 0.8081 0.23033 0.0
H305 H 0.26273 0.84696 0.2591 0.0
H306 H 0.35395 0.88838 0.35654 0.0
H307 H 0.32014 0.8601 0.4213 0.0
H308 H 0.66862 0.86213 0.91824 0.0
H309 H 0.63408 0.88506 0.85074 0.0
H310 H 0.65568 0.77856 0.79728 0.0
H311 H 0.69135 0.75577 0.86362 0.0
H312 H 0.6945 0.83362 0.74434 0.0
H313 H 0.46439 0.86117 0.80923 0.0
H314 H 0.52807 0.88391 0.83232 0.0
H315 H 0.51976 0.83586 0.83819 0.0
C316 C 0.66641 0.84371 0.89197 0.0
C317 C 0.682 0.807 0.89645 0.0
C318 C 0.64667 0.85687 0.85349 0.0
C319 C 0.64173 0.8334 0.81921 0.0
C320 C 0.65939 0.79717 0.82334 0.0
H321 H 0.47639 0.74976 0.62416 0.0
H322 H 0.54994 0.77517 0.67263 0.0
C323 C 0.67941 0.78411 0.86145 0.0
C324 C 0.61356 0.84474 0.77966 0.0
H325 H 0.47363 0.85616 0.73727 0.0
C326 C 0.64654 0.83968 0.74268 0.0
C327 C 0.55116 0.8531 0.77759 0.0
C328 C 0.51342 0.85873 0.81631 0.0
C329 C 0.61743 0.83891 0.70396 0.0
C330 C 0.55405 0.84324 0.70245 0.0
C331 C 0.52231 0.85264 0.73875 0.0
C332 C 0.51837 0.83034 0.66654 0.0
C333 C 0.65396 0.83089 0.66534 0.0
C334 C 0.47665 0.85305 0.64676 0.0
C335 C 0.43453 0.83854 0.61882 0.0
C336 C 0.4328 0.80103 0.61119 0.0
C337 C 0.47646 0.77871 0.62963 0.0
C338 C 0.51895 0.79327 0.65696 0.0
H339 H 0.70121 0.84078 0.66868 0.0
H340 H 0.65568 0.80117 0.66038 0.0
H341 H 0.63333 0.84346 0.6374 0.0
H342 H 0.47504 0.88163 0.65428 0.0
H343 H 0.40123 0.85635 0.60512 0.0
H344 H 0.5017 0.23788 0.57724 0.0
H345 H 0.42746 0.22747 0.63224 0.0
H346 H 0.5093 0.1241 0.65855 0.0
H347 H 0.58657 0.13576 0.60545 0.0
H348 H 0.34443 0.18188 0.66123 0.0
H349 H 0.54822 0.17779 0.76287 0.0
H350 H 0.55316 0.18746 0.70815 0.0
H351 H 0.54357 0.14158 0.72573 0.0
C352 C 0.50273 0.21246 0.59392 0.0
C353 C 0.55039 0.18794 0.58791 0.0
C354 C 0.46024 0.20649 0.62536 0.0
C355 C 0.46427 0.1756 0.65054 0.0
C356 C 0.50681 0.14874 0.64052 0.0
H357 H 0.23076 0.17684 0.8757 0.0
H358 H 0.27092 0.15762 0.80784 0.0
C359 C 0.55056 0.15525 0.61002 0.0
C360 C 0.43107 0.17485 0.69068 0.0
H361 H 0.45443 0.17829 0.79562 0.0
C362 C 0.36823 0.18066 0.6907 0.0
C363 C 0.46251 0.17369 0.72912 0.0
C364 C 0.53057 0.17011 0.73167 0.0
C365 C 0.33649 0.18716 0.72795 0.0
C366 C 0.36835 0.18671 0.76611 0.0
C367 C 0.43031 0.17867 0.76621 0.0
C368 C 0.3409 0.19865 0.80593 0.0
C369 C 0.27015 0.19657 0.72591 0.0
C370 C 0.36738 0.2277 0.82753 0.0
C371 C 0.34559 0.23811 0.86643 0.0
C372 C 0.29627 0.21998 0.88441 0.0
C373 C 0.26866 0.19141 0.86241 0.0
C374 C 0.29126 0.18056 0.82357 0.0
H375 H 0.25549 0.20291 0.69367 0.0
H376 H 0.24306 0.17322 0.73704 0.0
H377 H 0.25983 0.22014 0.74624 0.0
H378 H 0.4056 0.24213 0.81442 0.0
H379 H 0.36746 0.26043 0.88243 0.0
H380 H 0.76708 0.65068 0.17167 0.0
H381 H 0.80912 0.62259 0.23437 0.0
H382 H 0.95484 0.70055 0.23398 0.0
H383 H 0.91498 0.72735 0.17071 0.0
H384 H -0.00484 0.63442 0.25054 0.0
H385 H 0.79351 0.66347 0.34965 0.0
H386 H 0.78295 0.63471 0.30502 0.0
H387 H 0.80088 0.68172 0.29794 0.0
C388 C 0.80824 0.66162 0.18502 0.0
C389 C 0.83771 0.6913 0.16655 0.0
C390 C 0.83198 0.64567 0.22087 0.0
C391 C 0.88458 0.6598 0.2392 0.0
C392 C 0.9143 0.68907 0.22028 0.0
H393 H 0.02293 0.72526 0.45437 0.0
H394 H 0.95533 0.70129 0.40107 0.0
C395 C 0.89142 0.70447 0.18416 0.0
C396 C 0.90901 0.64569 0.27878 0.0
H397 H 0.88306 0.64823 0.38342 0.0
C398 C 0.97059 0.63671 0.27972 0.0
C399 C 0.87617 0.64803 0.31654 0.0
C400 C 0.80981 0.65765 0.31757 0.0
C401 C 0.00239 0.6351 0.31732 0.0
C402 C 0.97055 0.64052 0.35523 0.0
C403 C 0.90734 0.64452 0.35433 0.0
C404 C 0.00274 0.6502 0.3942 0.0
C405 C 0.0705 0.63163 0.31536 0.0
C406 C 0.0498 0.62874 0.40991 0.0
C407 C 0.09002 0.64318 0.43912 0.0
C408 C 0.08149 0.6784 0.45453 0.0
C409 C 0.03024 0.69804 0.44276 0.0
C410 C 0.99151 0.68422 0.41242 0.0
H411 H 0.08813 0.63368 0.28303 0.0
H412 H 0.09258 0.65306 0.33433 0.0
H413 H 0.08418 0.60487 0.32767 0.0
H414 H 0.05784 0.60185 0.39766 0.0
H415 H 0.129 0.62744 0.44847 0.0
H416 H 0.90277 0.35789 0.47349 0.0
H417 H 0.97527 0.38636 0.42584 0.0
H418 H 0.04713 0.28133 0.39426 0.0
H419 H 0.97556 0.2528 0.4416 0.0
H420 H 0.13591 0.34135 0.39677 0.0
H421 H 0.92986 0.36819 0.30119 0.0
H422 H 0.9345 0.38579 0.35343 0.0
H423 H 0.92661 0.33798 0.3451 0.0
C424 C 0.93529 0.341 0.45733 0.0
C425 C 0.93273 0.30304 0.46056 0.0
C426 C 0.97654 0.35732 0.43012 0.0
C427 C 0.01576 0.33584 0.4062 0.0
C428 C 0.0171 0.29834 0.41248 0.0
H429 H 0.1899 0.26634 0.20615 0.0
H430 H 0.16172 0.28931 0.27428 0.0
C431 C 0.97586 0.28204 0.43933 0.0
C432 C 0.04814 0.3505 0.36975 0.0
H433 H 0.02211 0.36403 0.26647 0.0
C434 C 0.11137 0.3476 0.36847 0.0
C435 C 0.01604 0.35919 0.33305 0.0
C436 C 0.948 0.36299 0.33286 0.0
C437 C 0.1427 0.34945 0.33054 0.0
C438 C 0.10955 0.35329 0.29317 0.0
C439 C 0.04736 0.36063 0.29513 0.0
C440 C 0.13501 0.34231 0.25238 0.0
C441 C 0.21051 0.345 0.33064 0.0
C442 C 0.12814 0.36413 0.21702 0.0
C443 C 0.14333 0.35073 0.17755 0.0
C444 C 0.16513 0.31517 0.17285 0.0
C445 C 0.17323 0.29381 0.20851 0.0
C446 C 0.15802 0.30716 0.24773 0.0
H447 H 0.23051 0.35776 0.35884 0.0
H448 H 0.22175 0.31576 0.33153 0.0
H449 H 0.23161 0.35711 0.30254 0.0
H450 H 0.10953 0.39113 0.21985 0.0
H451 H 0.13678 0.36794 0.1507 0.0
H452 H 0.78915 0.3464 0.65184 0.0
H453 H 0.8147 0.36869 0.72152 0.0
H454 H 0.81534 0.25915 0.76737 0.0
H455 H 0.78837 0.2367 0.69836 0.0
H456 H 0.76269 0.30894 0.8232 0.0
H457 H 0.98682 0.35649 0.76441 0.0
H458 H 0.92035 0.37505 0.74051 0.0
H459 H 0.9381 0.32802 0.7334 0.0
C460 C 0.79434 0.32707 0.67684 0.0
C461 C 0.78765 0.2897 0.66944 0.0
C462 C 0.80888 0.33989 0.71659 0.0
C463 C 0.81771 0.31552 0.74936 0.0
C464 C 0.80862 0.27841 0.74244 0.0
H465 H 0.99109 0.25069 0.95243 0.0
H466 H 0.91173 0.268 0.90418 0.0
C467 C 0.79358 0.2656 0.7029 0.0
C468 C 0.84157 0.32764 0.79007 0.0
H469 H 0.97367 0.35339 0.83611 0.0
C470 C 0.80832 0.31951 0.82613 0.0
C471 C 0.90077 0.34193 0.79378 0.0
C472 C 0.93895 0.35077 0.7561 0.0
C473 C 0.83462 0.32242 0.86571 0.0
C474 C 0.89571 0.33332 0.86904 0.0
C475 C 0.92678 0.34498 0.8334 0.0
C476 C 0.93226 0.3253 0.90638 0.0
C477 C 0.7979 0.31189 0.90337 0.0
C478 C 0.96957 0.35186 0.92438 0.0
C479 C 0.01544 0.34193 0.95206 0.0
C480 C 0.02514 0.30524 0.96132 0.0
C481 C 0.98496 0.27914 0.94557 0.0
C482 C 0.93897 0.28908 0.91837 0.0
H483 H 0.74928 0.31834 0.89874 0.0
H484 H 0.80153 0.28224 0.9081 0.0
H485 H 0.8142 0.32586 0.93192 0.0
H486 H 0.96553 0.3799 0.9151 0.0
H487 H 0.04585 0.3626 0.96375 0.0
H488 H 0.25149 0.65627 0.6833 0.0
H489 H 0.21001 0.63252 0.74872 0.0
H490 H 0.04916 0.69679 0.73133 0.0
H491 H 0.08886 0.71941 0.66601 0.0
H492 H 0.18152 0.66525 0.8186 0.0
H493 H 0.97373 0.60248 0.76002 0.0
H494 H 0.03461 0.61531 0.7255 0.0
H495 H 0.97649 0.64744 0.73968 0.0
C496 C 0.20699 0.66496 0.69334 0.0
C497 C 0.17319 0.68947 0.66935 0.0
C498 C 0.18335 0.6513 0.73059 0.0
C499 C 0.12571 0.66202 0.74428 0.0
C500 C 0.09263 0.68693 0.72061 0.0
H501 H 0.97979 0.73718 0.95699 0.0
H502 H 0.05155 0.71328 0.90652 0.0
C503 C 0.11572 0.70017 0.68338 0.0
C504 C 0.10099 0.65008 0.78483 0.0
H505 H 0.96452 0.63235 0.82905 0.0
C506 C 0.13457 0.65694 0.82108 0.0
C507 C 0.04084 0.63744 0.7884 0.0
C508 C 0.00483 0.62482 0.75118 0.0
C509 C 0.10692 0.6561 0.86043 0.0
C510 C 0.04376 0.64992 0.86311 0.0
C511 C 0.01251 0.63833 0.82736 0.0
C512 C 0.00743 0.66102 0.89999 0.0
C513 C 0.14543 0.66314 0.89833 0.0
C514 C 0.95786 0.64006 0.91315 0.0
C515 C 0.91504 0.65456 0.94055 0.0
C516 C 0.92214 0.68981 0.9562 0.0
C517 C 0.97381 0.70976 0.94562 0.0
C518 C 0.01543 0.6958 0.91714 0.0
H519 H 0.19013 0.64972 0.89486 0.0
H520 H 0.15411 0.69263 0.90128 0.0
H521 H 0.12359 0.65324 0.9273 0.0
H522 H 0.95047 0.6132 0.9005 0.0
H523 H 0.87556 0.63863 0.9486 0.0
loop_
_geom_bond_atom_site_label_1
_geom_bond_atom_site_label_2
_geom_bond_distance
_geom_bond_site_symmetry_2
_ccdc_geom_bond_type
O0 Zn1 1.953 . S
O0 C16 1.225 . S
Zn1 O0 1.953 . S
Zn1 O2 1.949 . S
Zn1 O8 1.919 1_554 S
Zn1 O13 1.924 . S
O2 Zn1 1.949 . S
O2 Zn3 1.923 1_554 S
O2 Zn4 1.950 . S
O2 Zn5 1.945 . S
Zn3 O2 1.923 1_556 S
Zn3 O6 1.933 1_556 S
Zn3 O9 1.941 . S
Zn3 O10 1.965 . S
Zn4 O2 1.950 . S
Zn4 O11 1.938 1_554 S
Zn4 O12 1.906 . S
Zn4 O22 1.953 . S
Zn5 O2 1.945 . S
Zn5 O7 1.932 . S
Zn5 O14 1.977 . S
Zn5 O15 1.910 . S
O6 Zn3 1.933 1_554 S
O6 C17 1.226 . S
O7 Zn5 1.932 . S
O7 C17 1.307 . S
O8 Zn1 1.919 1_556 S
O8 C19 1.253 . S
O9 Zn3 1.941 . S
O9 C19 1.283 . S
O10 Zn3 1.965 . S
O10 C18 1.303 . S
O11 Zn4 1.938 1_556 S
O11 C18 1.247 . S
O12 Zn4 1.906 . S
O12 C20 1.304 . S
O13 Zn1 1.924 . S
O13 C21 1.311 . S
O14 Zn5 1.977 . S
O14 C20 1.272 . S
O15 Zn5 1.910 . S
O15 C21 1.231 . S
C16 O0 1.225 . S
C16 O22 1.298 . S
C17 O6 1.226 . S
C17 O7 1.307 . S
C18 O10 1.303 . S
C18 O11 1.247 . S
C19 O8 1.253 . S
C19 O9 1.283 . S
C20 O12 1.304 . S
C20 O14 1.272 . S
C21 O13 1.311 . S
C21 O15 1.231 . S
O22 Zn4 1.953 . S
O22 C16 1.298 . S
O23 Zn24 1.953 . S
O23 C39 1.225 . S
Zn24 O23 1.953 . S
Zn24 O25 1.949 . S
Zn24 O31 1.919 1_554 S
Zn24 O36 1.924 . S
O25 Zn24 1.949 . S
O25 Zn26 1.923 1_554 S
O25 Zn27 1.950 . S
O25 Zn28 1.945 . S
Zn26 O25 1.923 1_556 S
Zn26 O29 1.933 1_556 S
Zn26 O32 1.941 . S
Zn26 O33 1.965 . S
Zn27 O25 1.950 . S
Zn27 O34 1.938 1_554 S
Zn27 O35 1.906 . S
Zn27 O45 1.953 . S
Zn28 O25 1.945 . S
Zn28 O30 1.932 . S
Zn28 O37 1.977 . S
Zn28 O38 1.910 . S
O29 Zn26 1.933 1_554 S
O29 C40 1.226 . S
O30 Zn28 1.932 . S
O30 C40 1.307 . S
O31 Zn24 1.919 1_556 S
O31 C42 1.253 . S
O32 Zn26 1.941 . S
O32 C42 1.283 . S
O33 Zn26 1.965 . S
O33 C41 1.303 . S
O34 Zn27 1.938 1_556 S
O34 C41 1.247 . S
O35 Zn27 1.906 . S
O35 C43 1.304 . S
O36 Zn24 1.924 . S
O36 C44 1.311 . S
O37 Zn28 1.977 . S
O37 C43 1.272 . S
O38 Zn28 1.910 . S
O38 C44 1.231 . S
C39 O23 1.225 . S
C39 O45 1.298 . S
C40 O29 1.226 . S
C40 O30 1.307 . S
C41 O33 1.303 . S
C41 O34 1.247 . S
C42 O31 1.253 . S
C42 O32 1.283 . S
C43 O35 1.304 . S
C43 O37 1.272 . S
C44 O36 1.311 . S
C44 O38 1.231 . S
O45 Zn27 1.953 . S
O45 C39 1.298 . S
O46 Zn47 1.953 . S
O46 C62 1.225 . S
Zn47 O46 1.953 . S
Zn47 O48 1.949 . S
Zn47 O54 1.919 . S
Zn47 O59 1.924 . S
O48 Zn47 1.949 . S
O48 Zn49 1.923 . S
O48 Zn50 1.950 . S
O48 Zn51 1.945 . S
Zn49 O48 1.923 . S
Zn49 O52 1.933 . S
Zn49 O55 1.941 . S
Zn49 O56 1.965 . S
Zn50 O48 1.950 . S
Zn50 O57 1.938 . S
Zn50 O58 1.906 . S
Zn50 O68 1.953 . S
Zn51 O48 1.945 . S
Zn51 O53 1.932 . S
Zn51 O60 1.977 . S
Zn51 O61 1.910 . S
O52 Zn49 1.933 . S
O52 C63 1.226 . S
O53 Zn51 1.932 . S
O53 C63 1.307 . S
O54 Zn47 1.919 . S
O54 C65 1.253 . S
O55 Zn49 1.941 . S
O55 C65 1.283 . S
O56 Zn49 1.965 . S
O56 C64 1.303 . S
O57 Zn50 1.938 . S
O57 C64 1.247 . S
O58 Zn50 1.906 . S
O58 C66 1.304 . S
O59 Zn47 1.924 . S
O59 C67 1.311 . S
O60 Zn51 1.977 . S
O60 C66 1.272 . S
O61 Zn51 1.910 . S
O61 C67 1.231 . S
C62 O46 1.225 . S
C62 O68 1.298 . S
C63 O52 1.226 . S
C63 O53 1.307 . S
C64 O56 1.303 . S
C64 O57 1.247 . S
C65 O54 1.253 . S
C65 O55 1.283 . S
C66 O58 1.304 . S
C66 O60 1.272 . S
C67 O59 1.311 . S
C67 O61 1.231 . S
O68 Zn50 1.953 . S
O68 C62 1.298 . S
O69 Zn70 1.953 . S
O69 C85 1.225 . S
Zn70 O69 1.953 . S
Zn70 O71 1.949 . S
Zn70 O77 1.919 . S
Zn70 O82 1.924 . S
O71 Zn70 1.949 . S
O71 Zn72 1.923 . S
O71 Zn73 1.950 . S
O71 Zn74 1.945 . S
Zn72 O71 1.923 . S
Zn72 O75 1.933 . S
Zn72 O78 1.941 . S
Zn72 O79 1.965 . S
Zn73 O71 1.950 . S
Zn73 O80 1.938 . S
Zn73 O81 1.906 . S
Zn73 O91 1.953 . S
Zn74 O71 1.945 . S
Zn74 O76 1.932 . S
Zn74 O83 1.977 . S
Zn74 O84 1.910 . S
O75 Zn72 1.933 . S
O75 C86 1.226 . S
O76 Zn74 1.932 . S
O76 C86 1.307 . S
O77 Zn70 1.919 . S
O77 C88 1.253 . S
O78 Zn72 1.941 . S
O78 C88 1.283 . S
O79 Zn72 1.965 . S
O79 C87 1.303 . S
O80 Zn73 1.938 . S
O80 C87 1.247 . S
O81 Zn73 1.906 . S
O81 C89 1.304 . S
O82 Zn70 1.924 . S
O82 C90 1.311 . S
O83 Zn74 1.977 . S
O83 C89 1.272 . S
O84 Zn74 1.910 . S
O84 C90 1.231 . S
C85 O69 1.225 . S
C85 O91 1.298 . S
C86 O75 1.226 . S
C86 O76 1.307 . S
C87 O79 1.303 . S
C87 O80 1.247 . S
C88 O77 1.253 . S
C88 O78 1.283 . S
C89 O81 1.304 . S
C89 O83 1.272 . S
C90 O82 1.311 . S
C90 O84 1.231 . S
O91 Zn73 1.953 . S
O91 C85 1.298 . S
H92 C100 0.929 . S
H93 C102 0.930 . S
H94 C104 0.930 1_556 S
H95 C107 0.929 1_556 S
H96 C110 0.930 . S
H97 C112 0.960 . S
H98 C112 0.960 . S
H99 C112 0.960 . S
C100 H92 0.929 . S
C100 C101 1.377 . S
C100 C102 1.384 . S
C101 C100 1.377 . S
C101 C107 1.390 . S
C102 H93 0.930 . S
C102 C100 1.384 . S
C102 C103 1.372 . S
C103 C102 1.372 . S
C103 C104 1.400 . S
C103 C108 1.490 . S
C104 H94 0.930 1_554 S
C104 C103 1.400 . S
C104 C107 1.386 . S
H105 C121 0.930 1_556 S
H106 C122 0.931 1_556 S
C107 H95 0.929 1_554 S
C107 C101 1.390 . S
C107 C104 1.386 . S
C108 C103 1.490 . S
C108 C110 1.395 . S
C108 C111 1.403 . S
H109 C115 0.930 1_556 S
C110 H96 0.930 . S
C110 C108 1.395 . S
C110 C113 1.403 . S
C111 C108 1.403 . S
C111 C112 1.524 1_554 S
C111 C115 1.400 . S
C112 H97 0.960 . S
C112 H98 0.960 . S
C112 H99 0.960 . S
C112 C111 1.524 1_556 S
C113 C110 1.403 . S
C113 C114 1.392 . S
C113 C117 1.495 . S
C114 C113 1.392 . S
C114 C115 1.385 . S
C114 C116 1.478 . S
C115 H109 0.930 1_554 S
C115 C111 1.400 . S
C115 C114 1.385 . S
C116 C114 1.478 . S
C116 C118 1.381 . S
C116 C122 1.383 . S
C117 C113 1.495 . S
C117 H123 0.959 . S
C117 H124 0.961 . S
C117 H125 0.960 . S
C118 C116 1.381 . S
C118 C119 1.394 . S
C118 H126 0.930 . S
C119 C118 1.394 . S
C119 C120 1.383 . S
C119 H127 0.929 . S
C120 C119 1.383 . S
C120 C121 1.377 . S
C121 H105 0.930 1_554 S
C121 C120 1.377 . S
C121 C122 1.379 . S
C122 H106 0.931 1_554 S
C122 C116 1.383 . S
C122 C121 1.379 . S
H123 C117 0.959 . S
H124 C117 0.961 . S
H125 C117 0.960 . S
H126 C118 0.930 . S
H127 C119 0.929 . S
H128 C136 0.929 . S
H129 C138 0.930 . S
H130 C140 0.930 . S
H131 C143 0.929 . S
H132 C146 0.930 . S
H133 C148 0.960 . S
H134 C148 0.960 . S
H135 C148 0.960 . S
C136 H128 0.929 . S
C136 C137 1.377 . S
C136 C138 1.384 . S
C137 C136 1.377 . S
C137 C143 1.390 . S
C138 H129 0.930 . S
C138 C136 1.384 . S
C138 C139 1.372 . S
C139 C138 1.372 . S
C139 C140 1.400 . S
C139 C144 1.490 . S
C140 H130 0.930 . S
C140 C139 1.400 . S
C140 C143 1.386 . S
H141 C157 0.930 . S
H142 C158 0.931 . S
C143 H131 0.929 . S
C143 C137 1.390 . S
C143 C140 1.386 . S
C144 C139 1.490 . S
C144 C146 1.395 . S
C144 C147 1.403 . S
H145 C151 0.930 . S
C146 H132 0.930 . S
C146 C144 1.395 . S
C146 C149 1.403 . S
C147 C144 1.403 . S
C147 C148 1.524 . S
C147 C151 1.400 . S
C148 H133 0.960 . S
C148 H134 0.960 . S
C148 H135 0.960 . S
C148 C147 1.524 . S
C149 C146 1.403 . S
C149 C150 1.392 . S
C149 C153 1.495 . S
C150 C149 1.392 . S
C150 C151 1.385 . S
C150 C152 1.478 . S
C151 H145 0.930 . S
C151 C147 1.400 . S
C151 C150 1.385 . S
C152 C150 1.478 . S
C152 C154 1.381 . S
C152 C158 1.383 . S
C153 C149 1.495 . S
C153 H159 0.959 . S
C153 H160 0.961 . S
C153 H161 0.960 . S
C154 C152 1.381 . S
C154 C155 1.394 . S
C154 H162 0.930 . S
C155 C154 1.394 . S
C155 C156 1.383 . S
C155 H163 0.929 . S
C156 C155 1.383 . S
C156 C157 1.377 . S
C157 H141 0.930 . S
C157 C156 1.377 . S
C157 C158 1.379 . S
C158 H142 0.931 . S
C158 C152 1.383 . S
C158 C157 1.379 . S
H159 C153 0.959 . S
H160 C153 0.961 . S
H161 C153 0.960 . S
H162 C154 0.930 . S
H163 C155 0.929 . S
H164 C172 0.929 . S
H165 C174 0.930 . S
H166 C176 0.930 1_556 S
H167 C179 0.929 1_556 S
H168 C182 0.930 . S
H169 C184 0.971 . S
H170 C184 0.943 1_554 S
H171 C184 0.980 1_545 S
C172 H164 0.929 . S
C172 C173 1.377 . S
C172 C174 1.384 . S
C173 C172 1.377 . S
C173 C179 1.390 . S
C174 H165 0.930 . S
C174 C172 1.384 . S
C174 C175 1.372 . S
C175 C174 1.372 . S
C175 C176 1.400 . S
C175 C180 1.490 . S
C176 H166 0.930 1_554 S
C176 C175 1.400 . S
C176 C179 1.386 . S
H177 C193 0.930 1_556 S
H178 C194 0.931 1_556 S
C179 H167 0.929 1_554 S
C179 C173 1.390 . S
C179 C176 1.386 . S
C180 C175 1.490 . S
C180 C182 1.395 1_455 S
C180 C183 1.403 1_545 S
H181 C187 0.930 . S
C182 H168 0.930 . S
C182 C180 1.395 1_655 S
C182 C185 1.403 . S
C183 C180 1.403 1_565 S
C183 C184 1.511 1_554 S
C183 C187 1.400 . S
C184 H169 0.971 . S
C184 H170 0.943 1_556 S
C184 H171 0.980 1_565 S
C184 C183 1.511 1_556 S
C185 C182 1.403 . S
C185 C186 1.392 1_545 S
C185 C189 1.495 . S
C186 C185 1.392 1_565 S
C186 C187 1.385 1_655 S
C186 C188 1.478 . S
C187 H181 0.930 . S
C187 C183 1.400 . S
C187 C186 1.385 1_455 S
C188 C186 1.478 . S
C188 C190 1.381 . S
C188 C194 1.383 . S
C189 C185 1.495 . S
C189 H195 0.959 . S
C189 H196 0.961 . S
C189 H197 0.960 1_545 S
C190 C188 1.381 . S
C190 C191 1.394 . S
C190 H198 0.930 . S
C191 C190 1.394 . S
C191 C192 1.383 . S
C191 H199 0.929 . S
C192 C191 1.383 . S
C192 C193 1.377 . S
C193 H177 0.930 1_554 S
C193 C192 1.377 . S
C193 C194 1.379 . S
C194 H178 0.931 1_554 S
C194 C188 1.383 . S
C194 C193 1.379 . S
H195 C189 0.959 . S
H196 C189 0.961 . S
H197 C189 0.960 1_565 S
H198 C190 0.930 . S
H199 C191 0.929 . S
H200 C208 0.929 . S
H201 C210 0.930 . S
H202 C212 0.930 . S
H203 C215 0.929 . S
H204 C218 0.930 . S
H205 C220 0.960 . S
H206 C220 0.960 . S
H207 C220 0.960 . S
C208 H200 0.929 . S
C208 C209 1.377 . S
C208 C210 1.384 . S
C209 C208 1.377 . S
C209 C215 1.390 . S
C210 H201 0.930 . S
C210 C208 1.384 . S
C210 C211 1.372 . S
C211 C210 1.372 . S
C211 C212 1.400 . S
C211 C216 1.490 . S
C212 H202 0.930 . S
C212 C211 1.400 . S
C212 C215 1.386 . S
H213 C229 0.930 . S
H214 C230 0.931 . S
C215 H203 0.929 . S
C215 C209 1.390 . S
C215 C212 1.386 . S
C216 C211 1.490 . S
C216 C218 1.395 1_545 S
C216 C219 1.403 1_655 S
H217 C223 0.930 . S
C218 H204 0.930 . S
C218 C216 1.395 1_565 S
C218 C221 1.403 . S
C219 C216 1.403 1_455 S
C219 C220 1.524 . S
C219 C223 1.400 1_545 S
C220 H205 0.960 . S
C220 H206 0.960 . S
C220 H207 0.960 . S
C220 C219 1.524 . S
C221 C218 1.403 . S
C221 C222 1.392 1_655 S
C221 C225 1.495 . S
C222 C221 1.392 1_455 S
C222 C223 1.385 . S
C222 C224 1.478 . S
C223 H217 0.930 . S
C223 C219 1.400 1_565 S
C223 C222 1.385 . S
C224 C222 1.478 . S
C224 C226 1.381 . S
C224 C230 1.383 . S
C225 C221 1.495 . S
C225 H231 0.959 . S
C225 H232 0.961 . S
C225 H233 0.960 . S
C226 C224 1.381 . S
C226 C227 1.394 . S
C226 H234 0.930 . S
C227 C226 1.394 . S
C227 C228 1.383 . S
C227 H235 0.929 . S
C228 C227 1.383 . S
C228 C229 1.377 . S
C229 H213 0.930 . S
C229 C228 1.377 . S
C229 C230 1.379 . S
C230 H214 0.931 . S
C230 C224 1.383 . S
C230 C229 1.379 . S
H231 C225 0.959 . S
H232 C225 0.961 . S
H233 C225 0.960 . S
H234 C226 0.930 . S
H235 C227 0.929 . S
H236 C244 0.929 . S
H237 C246 0.930 . S
H238 C248 0.930 . S
H239 C251 0.929 . S
H240 C254 0.930 . S
H241 C256 0.960 . S
H242 C256 0.960 . S
H243 C256 0.960 . S
C244 H236 0.929 . S
C244 C245 1.377 . S
C244 C246 1.384 . S
C245 C244 1.377 . S
C245 C251 1.390 . S
C246 H237 0.930 . S
C246 C244 1.384 . S
C246 C247 1.372 . S
C247 C246 1.372 . S
C247 C248 1.400 . S
C247 C252 1.490 . S
C248 H238 0.930 . S
C248 C247 1.400 . S
C248 C251 1.386 . S
H249 C265 0.930 . S
H250 C266 0.931 . S
C251 H239 0.929 . S
C251 C245 1.390 . S
C251 C248 1.386 . S
C252 C247 1.490 . S
C252 C254 1.395 . S
C252 C255 1.403 . S
H253 C259 0.930 . S
C254 H240 0.930 . S
C254 C252 1.395 . S
C254 C257 1.403 . S
C255 C252 1.403 . S
C255 C256 1.524 . S
C255 C259 1.400 . S
C256 H241 0.960 . S
C256 H242 0.960 . S
C256 H243 0.960 . S
C256 C255 1.524 . S
C257 C254 1.403 . S
C257 C258 1.392 . S
C257 C261 1.495 . S
C258 C257 1.392 . S
C258 C259 1.385 . S
C258 C260 1.478 . S
C259 H253 0.930 . S
C259 C255 1.400 . S
C259 C258 1.385 . S
C260 C258 1.478 . S
C260 C262 1.381 . S
C260 C266 1.383 . S
C261 C257 1.495 . S
C261 H267 0.959 . S
C261 H268 0.961 . S
C261 H269 0.960 . S
C262 C260 1.381 . S
C262 C263 1.394 . S
C262 H270 0.930 . S
C263 C262 1.394 . S
C263 C264 1.383 . S
C263 H271 0.929 . S
C264 C263 1.383 . S
C264 C265 1.377 . S
C265 H249 0.930 . S
C265 C264 1.377 . S
C265 C266 1.379 . S
C266 H250 0.931 . S
C266 C260 1.383 . S
C266 C265 1.379 . S
H267 C261 0.959 . S
H268 C261 0.961 . S
H269 C261 0.960 . S
H270 C262 0.930 . S
H271 C263 0.929 . S
H272 C280 0.929 . S
H273 C282 0.930 . S
H274 C284 0.930 . S
H275 C287 0.929 . S
H276 C290 0.930 . S
H277 C292 0.960 . S
H278 C292 0.960 . S
H279 C292 0.960 . S
C280 H272 0.929 . S
C280 C281 1.377 . S
C280 C282 1.384 . S
C281 C280 1.377 . S
C281 C287 1.390 . S
C282 H273 0.930 . S
C282 C280 1.384 . S
C282 C283 1.372 . S
C283 C282 1.372 . S
C283 C284 1.400 . S
C283 C288 1.490 . S
C284 H274 0.930 . S
C284 C283 1.400 . S
C284 C287 1.386 . S
H285 C301 0.930 . S
H286 C302 0.931 . S
C287 H275 0.929 . S
C287 C281 1.390 . S
C287 C284 1.386 . S
C288 C283 1.490 . S
C288 C290 1.395 . S
C288 C291 1.403 . S
H289 C295 0.930 . S
C290 H276 0.930 . S
C290 C288 1.395 . S
C290 C293 1.403 . S
C291 C288 1.403 . S
C291 C292 1.524 . S
C291 C295 1.400 . S
C292 H277 0.960 . S
C292 H278 0.960 . S
C292 H279 0.960 . S
C292 C291 1.524 . S
C293 C290 1.403 . S
C293 C294 1.392 . S
C293 C297 1.495 . S
C294 C293 1.392 . S
C294 C295 1.385 . S
C294 C296 1.478 . S
C295 H289 0.930 . S
C295 C291 1.400 . S
C295 C294 1.385 . S
C296 C294 1.478 . S
C296 C298 1.381 . S
C296 C302 1.383 . S
C297 C293 1.495 . S
C297 H303 0.959 . S
C297 H304 0.961 . S
C297 H305 0.960 . S
C298 C296 1.381 . S
C298 C299 1.394 . S
C298 H306 0.930 . S
C299 C298 1.394 . S
C299 C300 1.383 . S
C299 H307 0.929 . S
C300 C299 1.383 . S
C300 C301 1.377 . S
C301 H285 0.930 . S
C301 C300 1.377 . S
C301 C302 1.379 . S
C302 H286 0.931 . S
C302 C296 1.383 . S
C302 C301 1.379 . S
H303 C297 0.959 . S
H304 C297 0.961 . S
H305 C297 0.960 . S
H306 C298 0.930 . S
H307 C299 0.929 . S
H308 C316 0.929 . S
H309 C318 0.930 . S
H310 C320 0.930 . S
H311 C323 0.929 . S
H312 C326 0.930 . S
H313 C328 0.960 . S
H314 C328 0.960 . S
H315 C328 0.960 . S
C316 H308 0.929 . S
C316 C317 1.377 . S
C316 C318 1.384 . S
C317 C316 1.377 . S
C317 C323 1.390 . S
C318 H309 0.930 . S
C318 C316 1.384 . S
C318 C319 1.372 . S
C319 C318 1.372 . S
C319 C320 1.400 . S
C319 C324 1.490 . S
C320 H310 0.930 . S
C320 C319 1.400 . S
C320 C323 1.386 . S
H321 C337 0.930 . S
H322 C338 0.931 . S
C323 H311 0.929 . S
C323 C317 1.390 . S
C323 C320 1.386 . S
C324 C319 1.490 . S
C324 C326 1.395 . S
C324 C327 1.403 . S
H325 C331 0.930 . S
C326 H312 0.930 . S
C326 C324 1.395 . S
C326 C329 1.403 . S
C327 C324 1.403 . S
C327 C328 1.524 . S
C327 C331 1.400 . S
C328 H313 0.960 . S
C328 H314 0.960 . S
C328 H315 0.960 . S
C328 C327 1.524 . S
C329 C326 1.403 . S
C329 C330 1.392 . S
C329 C333 1.495 . S
C330 C329 1.392 . S
C330 C331 1.385 . S
C330 C332 1.478 . S
C331 H325 0.930 . S
C331 C327 1.400 . S
C331 C330 1.385 . S
C332 C330 1.478 . S
C332 C334 1.381 . S
C332 C338 1.383 . S
C333 C329 1.495 . S
C333 H339 0.959 . S
C333 H340 0.961 . S
C333 H341 0.960 . S
C334 C332 1.381 . S
C334 C335 1.394 . S
C334 H342 0.930 . S
C335 C334 1.394 . S
C335 C336 1.383 . S
C335 H343 0.929 . S
C336 C335 1.383 . S
C336 C337 1.377 . S
C337 H321 0.930 . S
C337 C336 1.377 . S
C337 C338 1.379 . S
C338 H322 0.931 . S
C338 C332 1.383 . S
C338 C337 1.379 . S
H339 C333 0.959 . S
H340 C333 0.961 . S
H341 C333 0.960 . S
H342 C334 0.930 . S
H343 C335 0.929 . S
H344 C352 0.929 . S
H345 C354 0.930 . S
H346 C356 0.930 . S
H347 C359 0.929 . S
H348 C362 0.930 . S
H349 C364 0.960 . S
H350 C364 0.960 . S
H351 C364 0.960 . S
C352 H344 0.929 . S
C352 C353 1.377 . S
C352 C354 1.384 . S
C353 C352 1.377 . S
C353 C359 1.390 . S
C354 H345 0.930 . S
C354 C352 1.384 . S
C354 C355 1.372 . S
C355 C354 1.372 . S
C355 C356 1.400 . S
C355 C360 1.490 . S
C356 H346 0.930 . S
C356 C355 1.400 . S
C356 C359 1.386 . S
H357 C373 0.930 . S
H358 C374 0.931 . S
C359 H347 0.929 . S
C359 C353 1.390 . S
C359 C356 1.386 . S
C360 C355 1.490 . S
C360 C362 1.395 . S
C360 C363 1.403 . S
H361 C367 0.930 . S
C362 H348 0.930 . S
C362 C360 1.395 . S
C362 C365 1.403 . S
C363 C360 1.403 . S
C363 C364 1.524 . S
C363 C367 1.400 . S
C364 H349 0.960 . S
C364 H350 0.960 . S
C364 H351 0.960 . S
C364 C363 1.524 . S
C365 C362 1.403 . S
C365 C366 1.392 . S
C365 C369 1.495 . S
C366 C365 1.392 . S
C366 C367 1.385 . S
C366 C368 1.478 . S
C367 H361 0.930 . S
C367 C363 1.400 . S
C367 C366 1.385 . S
C368 C366 1.478 . S
C368 C370 1.381 . S
C368 C374 1.383 . S
C369 C365 1.495 . S
C369 H375 0.959 . S
C369 H376 0.961 . S
C369 H377 0.960 . S
C370 C368 1.381 . S
C370 C371 1.394 . S
C370 H378 0.930 . S
C371 C370 1.394 . S
C371 C372 1.383 . S
C371 H379 0.929 . S
C372 C371 1.383 . S
C372 C373 1.377 . S
C373 H357 0.930 . S
C373 C372 1.377 . S
C373 C374 1.379 . S
C374 H358 0.931 . S
C374 C368 1.383 . S
C374 C373 1.379 . S
H375 C369 0.959 . S
H376 C369 0.961 . S
H377 C369 0.960 . S
H378 C370 0.930 . S
H379 C371 0.929 . S
H380 C388 0.929 . S
H381 C390 0.930 . S
H382 C392 0.930 . S
H383 C395 0.929 . S
H384 C398 0.930 . S
H385 C400 0.960 . S
H386 C400 0.960 . S
H387 C400 0.960 . S
C388 H380 0.929 . S
C388 C389 1.377 . S
C388 C390 1.384 . S
C389 C388 1.377 . S
C389 C395 1.390 . S
C390 H381 0.930 . S
C390 C388 1.384 . S
C390 C391 1.372 . S
C391 C390 1.372 . S
C391 C392 1.400 . S
C391 C396 1.490 . S
C392 H382 0.930 . S
C392 C391 1.400 . S
C392 C395 1.386 . S
H393 C409 0.930 . S
H394 C410 0.931 . S
C395 H383 0.929 . S
C395 C389 1.390 . S
C395 C392 1.386 . S
C396 C391 1.490 . S
C396 C398 1.395 1_655 S
C396 C399 1.403 . S
H397 C403 0.930 . S
C398 H384 0.930 . S
C398 C396 1.395 1_455 S
C398 C401 1.403 . S
C399 C396 1.403 . S
C399 C400 1.524 . S
C399 C403 1.400 . S
C400 H385 0.960 . S
C400 H386 0.960 . S
C400 H387 0.960 . S
C400 C399 1.524 . S
C401 C398 1.403 . S
C401 C402 1.392 . S
C401 C405 1.495 . S
C402 C401 1.392 . S
C402 C403 1.385 1_455 S
C402 C404 1.478 . S
C403 H397 0.930 . S
C403 C399 1.400 . S
C403 C402 1.385 1_655 S
C404 C402 1.478 . S
C404 C406 1.381 . S
C404 C410 1.383 . S
C405 C401 1.495 . S
C405 H411 0.959 . S
C405 H412 0.961 . S
C405 H413 0.960 . S
C406 C404 1.381 . S
C406 C407 1.394 . S
C406 H414 0.930 . S
C407 C406 1.394 . S
C407 C408 1.383 . S
C407 H415 0.929 . S
C408 C407 1.383 . S
C408 C409 1.377 . S
C409 H393 0.930 . S
C409 C408 1.377 . S
C409 C410 1.379 . S
C410 H394 0.931 . S
C410 C404 1.383 . S
C410 C409 1.379 . S
H411 C405 0.959 . S
H412 C405 0.961 . S
H413 C405 0.960 . S
H414 C406 0.930 . S
H415 C407 0.929 . S
H416 C424 0.929 . S
H417 C426 0.930 . S
H418 C428 0.930 . S
H419 C431 0.929 . S
H420 C434 0.930 . S
H421 C436 0.960 . S
H422 C436 0.960 . S
H423 C436 0.960 . S
C424 H416 0.929 . S
C424 C425 1.377 . S
C424 C426 1.384 . S
C425 C424 1.377 . S
C425 C431 1.390 . S
C426 H417 0.930 . S
C426 C424 1.384 . S
C426 C427 1.372 . S
C427 C426 1.372 . S
C427 C428 1.400 . S
C427 C432 1.490 . S
C428 H418 0.930 . S
C428 C427 1.400 . S
C428 C431 1.386 . S
H429 C445 0.930 . S
H430 C446 0.931 . S
C431 H419 0.929 . S
C431 C425 1.390 . S
C431 C428 1.386 . S
C432 C427 1.490 . S
C432 C434 1.395 1_655 S
C432 C435 1.403 . S
H433 C439 0.930 . S
C434 H420 0.930 . S
C434 C432 1.395 1_455 S
C434 C437 1.403 . S
C435 C432 1.403 . S
C435 C436 1.524 . S
C435 C439 1.400 . S
C436 H421 0.960 . S
C436 H422 0.960 . S
C436 H423 0.960 . S
C436 C435 1.524 . S
C437 C434 1.403 . S
C437 C438 1.392 . S
C437 C441 1.495 . S
C438 C437 1.392 . S
C438 C439 1.385 1_455 S
C438 C440 1.478 . S
C439 H433 0.930 . S
C439 C435 1.400 . S
C439 C438 1.385 1_655 S
C440 C438 1.478 . S
C440 C442 1.381 . S
C440 C446 1.383 . S
C441 C437 1.495 . S
C441 H447 0.959 . S
C441 H448 0.961 . S
C441 H449 0.960 . S
C442 C440 1.381 . S
C442 C443 1.394 . S
C442 H450 0.930 . S
C443 C442 1.394 . S
C443 C444 1.383 . S
C443 H451 0.929 . S
C444 C443 1.383 . S
C444 C445 1.377 . S
C445 H429 0.930 . S
C445 C444 1.377 . S
C445 C446 1.379 . S
C446 H430 0.931 . S
C446 C440 1.383 . S
C446 C445 1.379 . S
H447 C441 0.959 . S
H448 C441 0.961 . S
H449 C441 0.960 . S
H450 C442 0.930 . S
H451 C443 0.929 . S
H452 C460 0.929 . S
H453 C462 0.930 . S
H454 C464 0.930 . S
H455 C467 0.929 . S
H456 C470 0.930 . S
H457 C472 0.960 . S
H458 C472 0.960 . S
H459 C472 0.960 . S
C460 H452 0.929 . S
C460 C461 1.377 . S
C460 C462 1.384 . S
C461 C460 1.377 . S
C461 C467 1.390 . S
C462 H453 0.930 . S
C462 C460 1.384 . S
C462 C463 1.372 . S
C463 C462 1.372 . S
C463 C464 1.400 . S
C463 C468 1.490 . S
C464 H454 0.930 . S
C464 C463 1.400 . S
C464 C467 1.386 . S
H465 C481 0.930 . S
H466 C482 0.931 . S
C467 H455 0.929 . S
C467 C461 1.390 . S
C467 C464 1.386 . S
C468 C463 1.490 . S
C468 C470 1.395 . S
C468 C471 1.403 1_655 S
H469 C475 0.930 . S
C470 H456 0.930 . S
C470 C468 1.395 . S
C470 C473 1.403 . S
C471 C468 1.403 1_455 S
C471 C472 1.524 . S
C471 C475 1.400 . S
C472 H457 0.960 . S
C472 H458 0.960 . S
C472 H459 0.960 . S
C472 C471 1.524 . S
C473 C470 1.403 . S
C473 C474 1.392 1_655 S
C473 C477 1.495 . S
C474 C473 1.392 1_455 S
C474 C475 1.385 . S
C474 C476 1.478 . S
C475 H469 0.930 . S
C475 C471 1.400 . S
C475 C474 1.385 . S
C476 C474 1.478 . S
C476 C478 1.381 . S
C476 C482 1.383 . S
C477 C473 1.495 . S
C477 H483 0.959 . S
C477 H484 0.961 . S
C477 H485 0.960 . S
C478 C476 1.381 . S
C478 C479 1.394 . S
C478 H486 0.930 . S
C479 C478 1.394 . S
C479 C480 1.383 . S
C479 H487 0.929 . S
C480 C479 1.383 . S
C480 C481 1.377 . S
C481 H465 0.930 . S
C481 C480 1.377 . S
C481 C482 1.379 . S
C482 H466 0.931 . S
C482 C476 1.383 . S
C482 C481 1.379 . S
H483 C477 0.959 . S
H484 C477 0.961 . S
H485 C477 0.960 . S
H486 C478 0.930 . S
H487 C479 0.929 . S
H488 C496 0.929 . S
H489 C498 0.930 . S
H490 C500 0.930 . S
H491 C503 0.929 . S
H492 C506 0.930 . S
H493 C508 0.960 . S
H494 C508 0.960 . S
H495 C508 0.960 . S
C496 H488 0.929 . S
C496 C497 1.377 . S
C496 C498 1.384 . S
C497 C496 1.377 . S
C497 C503 1.390 . S
C498 H489 0.930 . S
C498 C496 1.384 . S
C498 C499 1.372 . S
C499 C498 1.372 . S
C499 C500 1.400 . S
C499 C504 1.490 . S
C500 H490 0.930 . S
C500 C499 1.400 . S
C500 C503 1.386 . S
H501 C517 0.930 . S
H502 C518 0.931 . S
C503 H491 0.929 . S
C503 C497 1.390 . S
C503 C500 1.386 . S
C504 C499 1.490 . S
C504 C506 1.395 . S
C504 C507 1.403 1_455 S
H505 C511 0.930 . S
C506 H492 0.930 . S
C506 C504 1.395 . S
C506 C509 1.403 . S
C507 C504 1.403 1_655 S
C507 C508 1.524 . S
C507 C511 1.400 . S
C508 H493 0.960 . S
C508 H494 0.960 . S
C508 H495 0.960 . S
C508 C507 1.524 . S
C509 C506 1.403 . S
C509 C510 1.392 1_455 S
C509 C513 1.495 . S
C510 C509 1.392 1_655 S
C510 C511 1.385 . S
C510 C512 1.478 . S
C511 H505 0.930 . S
C511 C507 1.400 . S
C511 C510 1.385 . S
C512 C510 1.478 . S
C512 C514 1.381 . S
C512 C518 1.383 . S
C513 C509 1.495 . S
C513 H519 0.959 . S
C513 H520 0.961 . S
C513 H521 0.960 . S
C514 C512 1.381 . S
C514 C515 1.394 . S
C514 H522 0.930 . S
C515 C514 1.394 . S
C515 C516 1.383 . S
C515 H523 0.929 . S
C516 C515 1.383 . S
C516 C517 1.377 . S
C517 H501 0.930 . S
C517 C516 1.377 . S
C517 C518 1.379 . S
C518 H502 0.931 . S
C518 C512 1.383 . S
C518 C517 1.379 . S
H519 C513 0.959 . S
H520 C513 0.961 . S
H521 C513 0.960 . S
H522 C514 0.930 . S
H523 C515 0.929 . S
C101 C40 1.666 . S
C120 C16 1.667 . S
C137 C63 1.665 . S
C156 C85 1.670 . S
C173 C17 1.666 . S
C192 C39 1.669 . S
C209 C86 1.664 . S
C228 C62 1.643 . S
C245 C89 0.733 . S
C264 C20 0.717 . S
C281 C44 0.733 . S
C300 C67 0.675 . S
C317 C42 0.585 . S
C336 C65 0.656 . S
C353 C87 0.642 . S
C372 C18 0.645 . S
C389 C43 0.731 . S
C408 C66 0.744 . S
C425 C90 0.734 . S
C444 C21 0.711 . S
C461 C88 0.602 . S
C480 C19 0.636 . S
C497 C64 0.634 . S
C516 C41 0.647 . S
