# Generated by pormake.
# Topology lcs-a, (4)-cn, num edge types: 1
# Building blocks:
#     Node 0, Type 0, BuildingBlock: CEKHIL_clean_sbu_0, # of connection points: 4
#     Node 1, Type 0, BuildingBlock: CEKHIL_clean_sbu_0, # of connection points: 4
#     Node 2, Type 0, BuildingBlock: CEKHIL_clean_sbu_0, # of connection points: 4
#     Node 3, Type 0, BuildingBlock: CEKHIL_clean_sbu_0, # of connection points: 4
#     Node 4, Type 0, BuildingBlock: CEKHIL_clean_sbu_0, # of connection points: 4
#     Node 5, Type 0, BuildingBlock: CEKHIL_clean_sbu_0, # of connection points: 4
#     Node 6, Type 0, BuildingBlock: CEKHIL_clean_sbu_0, # of connection points: 4
#     Node 7, Type 0, BuildingBlock: CEKHIL_clean_sbu_0, # of connection points: 4
#     Node 8, Type 0, BuildingBlock: CEKHIL_clean_sbu_0, # of connection points: 4
#     Node 9, Type 0, BuildingBlock: CEKHIL_clean_sbu_0, # of connection points: 4
#     Node 10, Type 0, BuildingBlock: CEKHIL_clean_sbu_0, # of connection points: 4
#     Node 11, Type 0, BuildingBlock: CEKHIL_clean_sbu_0, # of connection points: 4
#     Node 12, Type 0, BuildingBlock: CEKHIL_clean_sbu_0, # of connection points: 4
#     Node 13, Type 0, BuildingBlock: CEKHIL_clean_sbu_0, # of connection points: 4
#     Node 14, Type 0, BuildingBlock: CEKHIL_clean_sbu_0, # of connection points: 4
#     Node 15, Type 0, BuildingBlock: CEKHIL_clean_sbu_0, # of connection points: 4
#     Node 16, Type 0, BuildingBlock: CEKHIL_clean_sbu_0, # of connection points: 4
#     Node 17, Type 0, BuildingBlock: CEKHIL_clean_sbu_0, # of connection points: 4
#     Node 18, Type 0, BuildingBlock: CEKHIL_clean_sbu_0, # of connection points: 4
#     Node 19, Type 0, BuildingBlock: CEKHIL_clean_sbu_0, # of connection points: 4
#     Node 20, Type 0, BuildingBlock: CEKHIL_clean_sbu_0, # of connection points: 4
#     Node 21, Type 0, BuildingBlock: CEKHIL_clean_sbu_0, # of connection points: 4
#     Node 22, Type 0, BuildingBlock: CEKHIL_clean_sbu_0, # of connection points: 4
#     Node 23, Type 0, BuildingBlock: CEKHIL_clean_sbu_0, # of connection points: 4
#     Node 24, Type 0, BuildingBlock: CEKHIL_clean_sbu_0, # of connection points: 4
#     Node 25, Type 0, BuildingBlock: CEKHIL_clean_sbu_0, # of connection points: 4
#     Node 26, Type 0, BuildingBlock: CEKHIL_clean_sbu_0, # of connection points: 4
#     Node 27, Type 0, BuildingBlock: CEKHIL_clean_sbu_0, # of connection points: 4
#     Node 28, Type 0, BuildingBlock: CEKHIL_clean_sbu_0, # of connection points: 4
#     Node 29, Type 0, BuildingBlock: CEKHIL_clean_sbu_0, # of connection points: 4
#     Node 30, Type 0, BuildingBlock: CEKHIL_clean_sbu_0, # of connection points: 4
#     Node 31, Type 0, BuildingBlock: CEKHIL_clean_sbu_0, # of connection points: 4
#     Node 32, Type 0, BuildingBlock: CEKHIL_clean_sbu_0, # of connection points: 4
#     Node 33, Type 0, BuildingBlock: CEKHIL_clean_sbu_0, # of connection points: 4
#     Node 34, Type 0, BuildingBlock: CEKHIL_clean_sbu_0, # of connection points: 4
#     Node 35, Type 0, BuildingBlock: CEKHIL_clean_sbu_0, # of connection points: 4
#     Node 36, Type 0, BuildingBlock: CEKHIL_clean_sbu_0, # of connection points: 4
#     Node 37, Type 0, BuildingBlock: CEKHIL_clean_sbu_0, # of connection points: 4
#     Node 38, Type 0, BuildingBlock: CEKHIL_clean_sbu_0, # of connection points: 4
#     Node 39, Type 0, BuildingBlock: CEKHIL_clean_sbu_0, # of connection points: 4
#     Node 40, Type 0, BuildingBlock: CEKHIL_clean_sbu_0, # of connection points: 4
#     Node 41, Type 0, BuildingBlock: CEKHIL_clean_sbu_0, # of connection points: 4
#     Node 42, Type 0, BuildingBlock: CEKHIL_clean_sbu_0, # of connection points: 4
#     Node 43, Type 0, BuildingBlock: CEKHIL_clean_sbu_0, # of connection points: 4
#     Node 44, Type 0, BuildingBlock: CEKHIL_clean_sbu_0, # of connection points: 4
#     Node 45, Type 0, BuildingBlock: CEKHIL_clean_sbu_0, # of connection points: 4
#     Node 46, Type 0, BuildingBlock: CEKHIL_clean_sbu_0, # of connection points: 4
#     Node 47, Type 0, BuildingBlock: CEKHIL_clean_sbu_0, # of connection points: 4
#     Node 48, Type 0, BuildingBlock: CEKHIL_clean_sbu_0, # of connection points: 4
#     Node 49, Type 0, BuildingBlock: CEKHIL_clean_sbu_0, # of connection points: 4
#     Node 50, Type 0, BuildingBlock: CEKHIL_clean_sbu_0, # of connection points: 4
#     Node 51, Type 0, BuildingBlock: CEKHIL_clean_sbu_0, # of connection points: 4
#     Node 52, Type 0, BuildingBlock: CEKHIL_clean_sbu_0, # of connection points: 4
#     Node 53, Type 0, BuildingBlock: CEKHIL_clean_sbu_0, # of connection points: 4
#     Node 54, Type 0, BuildingBlock: CEKHIL_clean_sbu_0, # of connection points: 4
#     Node 55, Type 0, BuildingBlock: CEKHIL_clean_sbu_0, # of connection points: 4
#     Node 56, Type 0, BuildingBlock: CEKHIL_clean_sbu_0, # of connection points: 4
#     Node 57, Type 0, BuildingBlock: CEKHIL_clean_sbu_0, # of connection points: 4
#     Node 58, Type 0, BuildingBlock: CEKHIL_clean_sbu_0, # of connection points: 4
#     Node 59, Type 0, BuildingBlock: CEKHIL_clean_sbu_0, # of connection points: 4
#     Node 60, Type 0, BuildingBlock: CEKHIL_clean_sbu_0, # of connection points: 4
#     Node 61, Type 0, BuildingBlock: CEKHIL_clean_sbu_0, # of connection points: 4
#     Node 62, Type 0, BuildingBlock: CEKHIL_clean_sbu_0, # of connection points: 4
#     Node 63, Type 0, BuildingBlock: CEKHIL_clean_sbu_0, # of connection points: 4
#     Node 64, Type 0, BuildingBlock: CEKHIL_clean_sbu_0, # of connection points: 4
#     Node 65, Type 0, BuildingBlock: CEKHIL_clean_sbu_0, # of connection points: 4
#     Node 66, Type 0, BuildingBlock: CEKHIL_clean_sbu_0, # of connection points: 4
#     Node 67, Type 0, BuildingBlock: CEKHIL_clean_sbu_0, # of connection points: 4
#     Node 68, Type 0, BuildingBlock: CEKHIL_clean_sbu_0, # of connection points: 4
#     Node 69, Type 0, BuildingBlock: CEKHIL_clean_sbu_0, # of connection points: 4
#     Node 70, Type 0, BuildingBlock: CEKHIL_clean_sbu_0, # of connection points: 4
#     Node 71, Type 0, BuildingBlock: CEKHIL_clean_sbu_0, # of connection points: 4
#     Node 72, Type 0, BuildingBlock: CEKHIL_clean_sbu_0, # of connection points: 4
#     Node 73, Type 0, BuildingBlock: CEKHIL_clean_sbu_0, # of connection points: 4
#     Node 74, Type 0, BuildingBlock: CEKHIL_clean_sbu_0, # of connection points: 4
#     Node 75, Type 0, BuildingBlock: CEKHIL_clean_sbu_0, # of connection points: 4
#     Node 76, Type 0, BuildingBlock: CEKHIL_clean_sbu_0, # of connection points: 4
#     Node 77, Type 0, BuildingBlock: CEKHIL_clean_sbu_0, # of connection points: 4
#     Node 78, Type 0, BuildingBlock: CEKHIL_clean_sbu_0, # of connection points: 4
#     Node 79, Type 0, BuildingBlock: CEKHIL_clean_sbu_0, # of connection points: 4
#     Node 80, Type 0, BuildingBlock: CEKHIL_clean_sbu_0, # of connection points: 4
#     Node 81, Type 0, BuildingBlock: CEKHIL_clean_sbu_0, # of connection points: 4
#     Node 82, Type 0, BuildingBlock: CEKHIL_clean_sbu_0, # of connection points: 4
#     Node 83, Type 0, BuildingBlock: CEKHIL_clean_sbu_0, # of connection points: 4
#     Node 84, Type 0, BuildingBlock: CEKHIL_clean_sbu_0, # of connection points: 4
#     Node 85, Type 0, BuildingBlock: CEKHIL_clean_sbu_0, # of connection points: 4
#     Node 86, Type 0, BuildingBlock: CEKHIL_clean_sbu_0, # of connection points: 4
#     Node 87, Type 0, BuildingBlock: CEKHIL_clean_sbu_0, # of connection points: 4
#     Node 88, Type 0, BuildingBlock: CEKHIL_clean_sbu_0, # of connection points: 4
#     Node 89, Type 0, BuildingBlock: CEKHIL_clean_sbu_0, # of connection points: 4
#     Node 90, Type 0, BuildingBlock: CEKHIL_clean_sbu_0, # of connection points: 4
#     Node 91, Type 0, BuildingBlock: CEKHIL_clean_sbu_0, # of connection points: 4
#     Node 92, Type 0, BuildingBlock: CEKHIL_clean_sbu_0, # of connection points: 4
#     Node 93, Type 0, BuildingBlock: CEKHIL_clean_sbu_0, # of connection points: 4
#     Node 94, Type 0, BuildingBlock: CEKHIL_clean_sbu_0, # of connection points: 4
#     Node 95, Type 0, BuildingBlock: CEKHIL_clean_sbu_0, # of connection points: 4
#     Edge 96, Type (0, 0), BuildingBlock: OJICUG_clean_linker_0, # of connection points: 2
#     Edge 97, Type (0, 0), BuildingBlock: OJICUG_clean_linker_0, # of connection points: 2
#     Edge 98, Type (0, 0), BuildingBlock: OJICUG_clean_linker_0, # of connection points: 2
#     Edge 99, Type (0, 0), BuildingBlock: OJICUG_clean_linker_0, # of connection points: 2
#     Edge 100, Type (0, 0), BuildingBlock: OJICUG_clean_linker_0, # of connection points: 2
#     Edge 101, Type (0, 0), BuildingBlock: OJICUG_clean_linker_0, # of connection points: 2
#     Edge 102, Type (0, 0), BuildingBlock: OJICUG_clean_linker_0, # of connection points: 2
#     Edge 103, Type (0, 0), BuildingBlock: OJICUG_clean_linker_0, # of connection points: 2
#     Edge 104, Type (0, 0), BuildingBlock: OJICUG_clean_linker_0, # of connection points: 2
#     Edge 105, Type (0, 0), BuildingBlock: OJICUG_clean_linker_0, # of connection points: 2
#     Edge 106, Type (0, 0), BuildingBlock: OJICUG_clean_linker_0, # of connection points: 2
#     Edge 107, Type (0, 0), BuildingBlock: OJICUG_clean_linker_0, # of connection points: 2
#     Edge 108, Type (0, 0), BuildingBlock: OJICUG_clean_linker_0, # of connection points: 2
#     Edge 109, Type (0, 0), BuildingBlock: OJICUG_clean_linker_0, # of connection points: 2
#     Edge 110, Type (0, 0), BuildingBlock: OJICUG_clean_linker_0, # of connection points: 2
#     Edge 111, Type (0, 0), BuildingBlock: OJICUG_clean_linker_0, # of connection points: 2
#     Edge 112, Type (0, 0), BuildingBlock: OJICUG_clean_linker_0, # of connection points: 2
#     Edge 113, Type (0, 0), BuildingBlock: OJICUG_clean_linker_0, # of connection points: 2
#     Edge 114, Type (0, 0), BuildingBlock: OJICUG_clean_linker_0, # of connection points: 2
#     Edge 115, Type (0, 0), BuildingBlock: OJICUG_clean_linker_0, # of connection points: 2
#     Edge 116, Type (0, 0), BuildingBlock: OJICUG_clean_linker_0, # of connection points: 2
#     Edge 117, Type (0, 0), BuildingBlock: OJICUG_clean_linker_0, # of connection points: 2
#     Edge 118, Type (0, 0), BuildingBlock: OJICUG_clean_linker_0, # of connection points: 2
#     Edge 119, Type (0, 0), BuildingBlock: OJICUG_clean_linker_0, # of connection points: 2
#     Edge 120, Type (0, 0), BuildingBlock: OJICUG_clean_linker_0, # of connection points: 2
#     Edge 121, Type (0, 0), BuildingBlock: OJICUG_clean_linker_0, # of connection points: 2
#     Edge 122, Type (0, 0), BuildingBlock: OJICUG_clean_linker_0, # of connection points: 2
#     Edge 123, Type (0, 0), BuildingBlock: OJICUG_clean_linker_0, # of connection points: 2
#     Edge 124, Type (0, 0), BuildingBlock: OJICUG_clean_linker_0, # of connection points: 2
#     Edge 125, Type (0, 0), BuildingBlock: OJICUG_clean_linker_0, # of connection points: 2
#     Edge 126, Type (0, 0), BuildingBlock: OJICUG_clean_linker_0, # of connection points: 2
#     Edge 127, Type (0, 0), BuildingBlock: OJICUG_clean_linker_0, # of connection points: 2
#     Edge 128, Type (0, 0), BuildingBlock: OJICUG_clean_linker_0, # of connection points: 2
#     Edge 129, Type (0, 0), BuildingBlock: OJICUG_clean_linker_0, # of connection points: 2
#     Edge 130, Type (0, 0), BuildingBlock: OJICUG_clean_linker_0, # of connection points: 2
#     Edge 131, Type (0, 0), BuildingBlock: OJICUG_clean_linker_0, # of connection points: 2
#     Edge 132, Type (0, 0), BuildingBlock: OJICUG_clean_linker_0, # of connection points: 2
#     Edge 133, Type (0, 0), BuildingBlock: OJICUG_clean_linker_0, # of connection points: 2
#     Edge 134, Type (0, 0), BuildingBlock: OJICUG_clean_linker_0, # of connection points: 2
#     Edge 135, Type (0, 0), BuildingBlock: OJICUG_clean_linker_0, # of connection points: 2
#     Edge 136, Type (0, 0), BuildingBlock: OJICUG_clean_linker_0, # of connection points: 2
#     Edge 137, Type (0, 0), BuildingBlock: OJICUG_clean_linker_0, # of connection points: 2
#     Edge 138, Type (0, 0), BuildingBlock: OJICUG_clean_linker_0, # of connection points: 2
#     Edge 139, Type (0, 0), BuildingBlock: OJICUG_clean_linker_0, # of connection points: 2
#     Edge 140, Type (0, 0), BuildingBlock: OJICUG_clean_linker_0, # of connection points: 2
#     Edge 141, Type (0, 0), BuildingBlock: OJICUG_clean_linker_0, # of connection points: 2
#     Edge 142, Type (0, 0), BuildingBlock: OJICUG_clean_linker_0, # of connection points: 2
#     Edge 143, Type (0, 0), BuildingBlock: OJICUG_clean_linker_0, # of connection points: 2
#     Edge 144, Type (0, 0), BuildingBlock: OJICUG_clean_linker_0, # of connection points: 2
#     Edge 145, Type (0, 0), BuildingBlock: OJICUG_clean_linker_0, # of connection points: 2
#     Edge 146, Type (0, 0), BuildingBlock: OJICUG_clean_linker_0, # of connection points: 2
#     Edge 147, Type (0, 0), BuildingBlock: OJICUG_clean_linker_0, # of connection points: 2
#     Edge 148, Type (0, 0), BuildingBlock: OJICUG_clean_linker_0, # of connection points: 2
#     Edge 149, Type (0, 0), BuildingBlock: OJICUG_clean_linker_0, # of connection points: 2
#     Edge 150, Type (0, 0), BuildingBlock: OJICUG_clean_linker_0, # of connection points: 2
#     Edge 151, Type (0, 0), BuildingBlock: OJICUG_clean_linker_0, # of connection points: 2
#     Edge 152, Type (0, 0), BuildingBlock: OJICUG_clean_linker_0, # of connection points: 2
#     Edge 153, Type (0, 0), BuildingBlock: OJICUG_clean_linker_0, # of connection points: 2
#     Edge 154, Type (0, 0), BuildingBlock: OJICUG_clean_linker_0, # of connection points: 2
#     Edge 155, Type (0, 0), BuildingBlock: OJICUG_clean_linker_0, # of connection points: 2
#     Edge 156, Type (0, 0), BuildingBlock: OJICUG_clean_linker_0, # of connection points: 2
#     Edge 157, Type (0, 0), BuildingBlock: OJICUG_clean_linker_0, # of connection points: 2
#     Edge 158, Type (0, 0), BuildingBlock: OJICUG_clean_linker_0, # of connection points: 2
#     Edge 159, Type (0, 0), BuildingBlock: OJICUG_clean_linker_0, # of connection points: 2
#     Edge 160, Type (0, 0), BuildingBlock: OJICUG_clean_linker_0, # of connection points: 2
#     Edge 161, Type (0, 0), BuildingBlock: OJICUG_clean_linker_0, # of connection points: 2
#     Edge 162, Type (0, 0), BuildingBlock: OJICUG_clean_linker_0, # of connection points: 2
#     Edge 163, Type (0, 0), BuildingBlock: OJICUG_clean_linker_0, # of connection points: 2
#     Edge 164, Type (0, 0), BuildingBlock: OJICUG_clean_linker_0, # of connection points: 2
#     Edge 165, Type (0, 0), BuildingBlock: OJICUG_clean_linker_0, # of connection points: 2
#     Edge 166, Type (0, 0), BuildingBlock: OJICUG_clean_linker_0, # of connection points: 2
#     Edge 167, Type (0, 0), BuildingBlock: OJICUG_clean_linker_0, # of connection points: 2
#     Edge 168, Type (0, 0), BuildingBlock: OJICUG_clean_linker_0, # of connection points: 2
#     Edge 169, Type (0, 0), BuildingBlock: OJICUG_clean_linker_0, # of connection points: 2
#     Edge 170, Type (0, 0), BuildingBlock: OJICUG_clean_linker_0, # of connection points: 2
#     Edge 171, Type (0, 0), BuildingBlock: OJICUG_clean_linker_0, # of connection points: 2
#     Edge 172, Type (0, 0), BuildingBlock: OJICUG_clean_linker_0, # of connection points: 2
#     Edge 173, Type (0, 0), BuildingBlock: OJICUG_clean_linker_0, # of connection points: 2
#     Edge 174, Type (0, 0), BuildingBlock: OJICUG_clean_linker_0, # of connection points: 2
#     Edge 175, Type (0, 0), BuildingBlock: OJICUG_clean_linker_0, # of connection points: 2
#     Edge 176, Type (0, 0), BuildingBlock: OJICUG_clean_linker_0, # of connection points: 2
#     Edge 177, Type (0, 0), BuildingBlock: OJICUG_clean_linker_0, # of connection points: 2
#     Edge 178, Type (0, 0), BuildingBlock: OJICUG_clean_linker_0, # of connection points: 2
#     Edge 179, Type (0, 0), BuildingBlock: OJICUG_clean_linker_0, # of connection points: 2
#     Edge 180, Type (0, 0), BuildingBlock: OJICUG_clean_linker_0, # of connection points: 2
#     Edge 181, Type (0, 0), BuildingBlock: OJICUG_clean_linker_0, # of connection points: 2
#     Edge 182, Type (0, 0), BuildingBlock: OJICUG_clean_linker_0, # of connection points: 2
#     Edge 183, Type (0, 0), BuildingBlock: OJICUG_clean_linker_0, # of connection points: 2
#     Edge 184, Type (0, 0), BuildingBlock: OJICUG_clean_linker_0, # of connection points: 2
#     Edge 185, Type (0, 0), BuildingBlock: OJICUG_clean_linker_0, # of connection points: 2
#     Edge 186, Type (0, 0), BuildingBlock: OJICUG_clean_linker_0, # of connection points: 2
#     Edge 187, Type (0, 0), BuildingBlock: OJICUG_clean_linker_0, # of connection points: 2
#     Edge 188, Type (0, 0), BuildingBlock: OJICUG_clean_linker_0, # of connection points: 2
#     Edge 189, Type (0, 0), BuildingBlock: OJICUG_clean_linker_0, # of connection points: 2
#     Edge 190, Type (0, 0), BuildingBlock: OJICUG_clean_linker_0, # of connection points: 2
#     Edge 191, Type (0, 0), BuildingBlock: OJICUG_clean_linker_0, # of connection points: 2
#     Edge 192, Type (0, 0), BuildingBlock: OJICUG_clean_linker_0, # of connection points: 2
#     Edge 193, Type (0, 0), BuildingBlock: OJICUG_clean_linker_0, # of connection points: 2
#     Edge 194, Type (0, 0), BuildingBlock: OJICUG_clean_linker_0, # of connection points: 2
#     Edge 195, Type (0, 0), BuildingBlock: OJICUG_clean_linker_0, # of connection points: 2
#     Edge 196, Type (0, 0), BuildingBlock: OJICUG_clean_linker_0, # of connection points: 2
#     Edge 197, Type (0, 0), BuildingBlock: OJICUG_clean_linker_0, # of connection points: 2
#     Edge 198, Type (0, 0), BuildingBlock: OJICUG_clean_linker_0, # of connection points: 2
#     Edge 199, Type (0, 0), BuildingBlock: OJICUG_clean_linker_0, # of connection points: 2
#     Edge 200, Type (0, 0), BuildingBlock: OJICUG_clean_linker_0, # of connection points: 2
#     Edge 201, Type (0, 0), BuildingBlock: OJICUG_clean_linker_0, # of connection points: 2
#     Edge 202, Type (0, 0), BuildingBlock: OJICUG_clean_linker_0, # of connection points: 2
#     Edge 203, Type (0, 0), BuildingBlock: OJICUG_clean_linker_0, # of connection points: 2
#     Edge 204, Type (0, 0), BuildingBlock: OJICUG_clean_linker_0, # of connection points: 2
#     Edge 205, Type (0, 0), BuildingBlock: OJICUG_clean_linker_0, # of connection points: 2
#     Edge 206, Type (0, 0), BuildingBlock: OJICUG_clean_linker_0, # of connection points: 2
#     Edge 207, Type (0, 0), BuildingBlock: OJICUG_clean_linker_0, # of connection points: 2
#     Edge 208, Type (0, 0), BuildingBlock: OJICUG_clean_linker_0, # of connection points: 2
#     Edge 209, Type (0, 0), BuildingBlock: OJICUG_clean_linker_0, # of connection points: 2
#     Edge 210, Type (0, 0), BuildingBlock: OJICUG_clean_linker_0, # of connection points: 2
#     Edge 211, Type (0, 0), BuildingBlock: OJICUG_clean_linker_0, # of connection points: 2
#     Edge 212, Type (0, 0), BuildingBlock: OJICUG_clean_linker_0, # of connection points: 2
#     Edge 213, Type (0, 0), BuildingBlock: OJICUG_clean_linker_0, # of connection points: 2
#     Edge 214, Type (0, 0), BuildingBlock: OJICUG_clean_linker_0, # of connection points: 2
#     Edge 215, Type (0, 0), BuildingBlock: OJICUG_clean_linker_0, # of connection points: 2
#     Edge 216, Type (0, 0), BuildingBlock: OJICUG_clean_linker_0, # of connection points: 2
#     Edge 217, Type (0, 0), BuildingBlock: OJICUG_clean_linker_0, # of connection points: 2
#     Edge 218, Type (0, 0), BuildingBlock: OJICUG_clean_linker_0, # of connection points: 2
#     Edge 219, Type (0, 0), BuildingBlock: OJICUG_clean_linker_0, # of connection points: 2
#     Edge 220, Type (0, 0), BuildingBlock: OJICUG_clean_linker_0, # of connection points: 2
#     Edge 221, Type (0, 0), BuildingBlock: OJICUG_clean_linker_0, # of connection points: 2
#     Edge 222, Type (0, 0), BuildingBlock: OJICUG_clean_linker_0, # of connection points: 2
#     Edge 223, Type (0, 0), BuildingBlock: OJICUG_clean_linker_0, # of connection points: 2
#     Edge 224, Type (0, 0), BuildingBlock: OJICUG_clean_linker_0, # of connection points: 2
#     Edge 225, Type (0, 0), BuildingBlock: OJICUG_clean_linker_0, # of connection points: 2
#     Edge 226, Type (0, 0), BuildingBlock: OJICUG_clean_linker_0, # of connection points: 2
#     Edge 227, Type (0, 0), BuildingBlock: OJICUG_clean_linker_0, # of connection points: 2
#     Edge 228, Type (0, 0), BuildingBlock: OJICUG_clean_linker_0, # of connection points: 2
#     Edge 229, Type (0, 0), BuildingBlock: OJICUG_clean_linker_0, # of connection points: 2
#     Edge 230, Type (0, 0), BuildingBlock: OJICUG_clean_linker_0, # of connection points: 2
#     Edge 231, Type (0, 0), BuildingBlock: OJICUG_clean_linker_0, # of connection points: 2
#     Edge 232, Type (0, 0), BuildingBlock: OJICUG_clean_linker_0, # of connection points: 2
#     Edge 233, Type (0, 0), BuildingBlock: OJICUG_clean_linker_0, # of connection points: 2
#     Edge 234, Type (0, 0), BuildingBlock: OJICUG_clean_linker_0, # of connection points: 2
#     Edge 235, Type (0, 0), BuildingBlock: OJICUG_clean_linker_0, # of connection points: 2
#     Edge 236, Type (0, 0), BuildingBlock: OJICUG_clean_linker_0, # of connection points: 2
#     Edge 237, Type (0, 0), BuildingBlock: OJICUG_clean_linker_0, # of connection points: 2
#     Edge 238, Type (0, 0), BuildingBlock: OJICUG_clean_linker_0, # of connection points: 2
#     Edge 239, Type (0, 0), BuildingBlock: OJICUG_clean_linker_0, # of connection points: 2
#     Edge 240, Type (0, 0), BuildingBlock: OJICUG_clean_linker_0, # of connection points: 2
#     Edge 241, Type (0, 0), BuildingBlock: OJICUG_clean_linker_0, # of connection points: 2
#     Edge 242, Type (0, 0), BuildingBlock: OJICUG_clean_linker_0, # of connection points: 2
#     Edge 243, Type (0, 0), BuildingBlock: OJICUG_clean_linker_0, # of connection points: 2
#     Edge 244, Type (0, 0), BuildingBlock: OJICUG_clean_linker_0, # of connection points: 2
#     Edge 245, Type (0, 0), BuildingBlock: OJICUG_clean_linker_0, # of connection points: 2
#     Edge 246, Type (0, 0), BuildingBlock: OJICUG_clean_linker_0, # of connection points: 2
#     Edge 247, Type (0, 0), BuildingBlock: OJICUG_clean_linker_0, # of connection points: 2
#     Edge 248, Type (0, 0), BuildingBlock: OJICUG_clean_linker_0, # of connection points: 2
#     Edge 249, Type (0, 0), BuildingBlock: OJICUG_clean_linker_0, # of connection points: 2
#     Edge 250, Type (0, 0), BuildingBlock: OJICUG_clean_linker_0, # of connection points: 2
#     Edge 251, Type (0, 0), BuildingBlock: OJICUG_clean_linker_0, # of connection points: 2
#     Edge 252, Type (0, 0), BuildingBlock: OJICUG_clean_linker_0, # of connection points: 2
#     Edge 253, Type (0, 0), BuildingBlock: OJICUG_clean_linker_0, # of connection points: 2
#     Edge 254, Type (0, 0), BuildingBlock: OJICUG_clean_linker_0, # of connection points: 2
#     Edge 255, Type (0, 0), BuildingBlock: OJICUG_clean_linker_0, # of connection points: 2
#     Edge 256, Type (0, 0), BuildingBlock: OJICUG_clean_linker_0, # of connection points: 2
#     Edge 257, Type (0, 0), BuildingBlock: OJICUG_clean_linker_0, # of connection points: 2
#     Edge 258, Type (0, 0), BuildingBlock: OJICUG_clean_linker_0, # of connection points: 2
#     Edge 259, Type (0, 0), BuildingBlock: OJICUG_clean_linker_0, # of connection points: 2
#     Edge 260, Type (0, 0), BuildingBlock: OJICUG_clean_linker_0, # of connection points: 2
#     Edge 261, Type (0, 0), BuildingBlock: OJICUG_clean_linker_0, # of connection points: 2
#     Edge 262, Type (0, 0), BuildingBlock: OJICUG_clean_linker_0, # of connection points: 2
#     Edge 263, Type (0, 0), BuildingBlock: OJICUG_clean_linker_0, # of connection points: 2
#     Edge 264, Type (0, 0), BuildingBlock: OJICUG_clean_linker_0, # of connection points: 2
#     Edge 265, Type (0, 0), BuildingBlock: OJICUG_clean_linker_0, # of connection points: 2
#     Edge 266, Type (0, 0), BuildingBlock: OJICUG_clean_linker_0, # of connection points: 2
#     Edge 267, Type (0, 0), BuildingBlock: OJICUG_clean_linker_0, # of connection points: 2
#     Edge 268, Type (0, 0), BuildingBlock: OJICUG_clean_linker_0, # of connection points: 2
#     Edge 269, Type (0, 0), BuildingBlock: OJICUG_clean_linker_0, # of connection points: 2
#     Edge 270, Type (0, 0), BuildingBlock: OJICUG_clean_linker_0, # of connection points: 2
#     Edge 271, Type (0, 0), BuildingBlock: OJICUG_clean_linker_0, # of connection points: 2
#     Edge 272, Type (0, 0), BuildingBlock: OJICUG_clean_linker_0, # of connection points: 2
#     Edge 273, Type (0, 0), BuildingBlock: OJICUG_clean_linker_0, # of connection points: 2
#     Edge 274, Type (0, 0), BuildingBlock: OJICUG_clean_linker_0, # of connection points: 2
#     Edge 275, Type (0, 0), BuildingBlock: OJICUG_clean_linker_0, # of connection points: 2
#     Edge 276, Type (0, 0), BuildingBlock: OJICUG_clean_linker_0, # of connection points: 2
#     Edge 277, Type (0, 0), BuildingBlock: OJICUG_clean_linker_0, # of connection points: 2
#     Edge 278, Type (0, 0), BuildingBlock: OJICUG_clean_linker_0, # of connection points: 2
#     Edge 279, Type (0, 0), BuildingBlock: OJICUG_clean_linker_0, # of connection points: 2
#     Edge 280, Type (0, 0), BuildingBlock: OJICUG_clean_linker_0, # of connection points: 2
#     Edge 281, Type (0, 0), BuildingBlock: OJICUG_clean_linker_0, # of connection points: 2
#     Edge 282, Type (0, 0), BuildingBlock: OJICUG_clean_linker_0, # of connection points: 2
#     Edge 283, Type (0, 0), BuildingBlock: OJICUG_clean_linker_0, # of connection points: 2
#     Edge 284, Type (0, 0), BuildingBlock: OJICUG_clean_linker_0, # of connection points: 2
#     Edge 285, Type (0, 0), BuildingBlock: OJICUG_clean_linker_0, # of connection points: 2
#     Edge 286, Type (0, 0), BuildingBlock: OJICUG_clean_linker_0, # of connection points: 2
#     Edge 287, Type (0, 0), BuildingBlock: OJICUG_clean_linker_0, # of connection points: 2
# Relax obj value: 0.773
# Max RMSD: 0.641
# Mean RMSD: 0.640
data_MOF--net-lcs-a--node1-CEKHIL_clean_sbu_0--edge1-OJICUG_clean_linker_0
_symmetry_space_group_name_H-M    P1
_symmetry_Int_Tables_number       1
_symmetry_cell_setting            triclinic
loop_
_symmetry_equiv_pos_as_xyz
'x, y, z'
_cell_length_a     59.679276
_cell_length_b     59.578696
_cell_length_c     59.635099
_cell_angle_alpha  89.955988
_cell_angle_beta   89.986237
_cell_angle_gamma 90.03614
loop_
_atom_site_label
_atom_site_type_symbol
_atom_site_fract_x
_atom_site_fract_y
_atom_site_fract_z
_atom_type_partial_charge
Co0 Co 0.06727 0.30169 0.39263 0.0
O1 O 0.09101 0.32577 0.3941 0.0
O2 O 0.06751 0.32379 0.36727 0.0
C3 C 0.03749 0.32758 0.3961 0.0
O4 O 0.04239 0.27939 0.38759 0.0
Co5 Co 0.07209 0.29452 0.41149 0.0
O6 O 0.04481 0.27758 0.42318 0.0
C7 C 0.10005 0.27613 0.37855 0.0
C8 C 0.0846 0.33406 0.37547 0.0
C9 C 0.03438 0.27186 0.40574 0.0
O10 O 0.08385 0.28578 0.36936 0.0
O11 O 0.10025 0.27733 0.39982 0.0
O12 O 0.04501 0.32061 0.37713 0.0
O13 O 0.04798 0.31983 0.41326 0.0
Co14 Co 0.93935 0.82806 0.63845 0.0
O15 O 0.91587 0.85216 0.64238 0.0
O16 O 0.91508 0.82879 0.61536 0.0
C17 C 0.91329 0.79869 0.64437 0.0
O18 O 0.96049 0.80276 0.6308 0.0
Co19 Co 0.94877 0.83207 0.65666 0.0
O20 O 0.96613 0.80422 0.66603 0.0
C21 C 0.96546 0.85963 0.62237 0.0
C22 C 0.90572 0.84584 0.62466 0.0
C23 C 0.96974 0.79414 0.64782 0.0
O24 O 0.95333 0.84471 0.61394 0.0
O25 O 0.9667 0.85911 0.64364 0.0
O26 O 0.91869 0.80607 0.62483 0.0
O27 O 0.92287 0.80892 0.66071 0.0
Co28 Co 0.41045 0.69618 0.8727 0.0
O29 O 0.38686 0.67217 0.87633 0.0
O30 O 0.41044 0.67164 0.84961 0.0
C31 C 0.44061 0.67117 0.87843 0.0
O32 O 0.43537 0.71838 0.86619 0.0
Co33 Co 0.40529 0.70464 0.8907 0.0
O34 O 0.43106 0.72403 0.90128 0.0
C35 C 0.37906 0.72235 0.85615 0.0
C36 C 0.39358 0.66191 0.85888 0.0
C37 C 0.44215 0.72817 0.88379 0.0
O38 O 0.39398 0.71006 0.84798 0.0
O39 O 0.37889 0.72307 0.87743 0.0
O40 O 0.43293 0.67629 0.85892 0.0
O41 O 0.42984 0.68008 0.89484 0.0
Co42 Co 0.53398 0.16807 0.13633 0.0
O43 O 0.55654 0.143 0.13904 0.0
O44 O 0.55702 0.16641 0.11202 0.0
C45 C 0.56153 0.19624 0.14099 0.0
O46 O 0.51359 0.19428 0.12984 0.0
Co47 Co 0.52537 0.16425 0.15493 0.0
O48 O 0.51059 0.1932 0.1654 0.0
C49 C 0.50631 0.13738 0.12141 0.0
C50 C 0.56605 0.14891 0.12082 0.0
C51 C 0.5062 0.20347 0.14746 0.0
O52 O 0.51822 0.1522 0.11249 0.0
O53 O 0.5061 0.13773 0.14271 0.0
O54 O 0.55487 0.18922 0.12172 0.0
O55 O 0.55233 0.18634 0.15777 0.0
Co56 Co 0.07247 0.69299 0.10133 0.0
O57 O 0.09657 0.66965 0.09699 0.0
O58 O 0.07493 0.66964 0.12539 0.0
C59 C 0.04233 0.66734 0.09933 0.0
O60 O 0.04712 0.71405 0.1089 0.0
Co61 Co 0.07582 0.701 0.08266 0.0
O62 O 0.04813 0.71829 0.07341 0.0
C63 C 0.10389 0.72136 0.11406 0.0
C64 C 0.09152 0.66012 0.11544 0.0
C65 C 0.0379 0.72209 0.0915 0.0
O66 O 0.09038 0.70867 0.12397 0.0
O67 O 0.10226 0.72118 0.09284 0.0
O68 O 0.05182 0.67307 0.11785 0.0
O69 O 0.05172 0.67554 0.0817 0.0
Co70 Co 0.5498 0.81432 0.34594 0.0
O71 O 0.57486 0.83672 0.34195 0.0
O72 O 0.57361 0.81412 0.36965 0.0
C73 C 0.57379 0.78302 0.34181 0.0
O74 O 0.52667 0.79077 0.35347 0.0
Co75 Co 0.54155 0.81879 0.32743 0.0
O76 O 0.52233 0.79221 0.31804 0.0
C77 C 0.52623 0.84848 0.36043 0.0
C78 C 0.58418 0.83031 0.36007 0.0
C79 C 0.51735 0.78268 0.33623 0.0
O80 O 0.5364 0.83255 0.36958 0.0
O81 O 0.52579 0.84772 0.33914 0.0
O82 O 0.56849 0.7915 0.36093 0.0
O83 O 0.56546 0.79338 0.32485 0.0
Co84 Co 0.41096 0.29018 0.61642 0.0
O85 O 0.38908 0.31481 0.60865 0.0
O86 O 0.40997 0.31642 0.63751 0.0
C87 C 0.44322 0.313 0.61246 0.0
O88 O 0.43419 0.26785 0.62699 0.0
Co89 Co 0.40707 0.28103 0.59858 0.0
O90 O 0.43413 0.26174 0.59181 0.0
C91 C 0.37613 0.26693 0.63068 0.0
C92 C 0.39466 0.32613 0.62584 0.0
C93 C 0.44339 0.25813 0.61047 0.0
O94 O 0.39105 0.27852 0.63993 0.0
O95 O 0.3781 0.26521 0.60956 0.0
O96 O 0.43297 0.31005 0.63124 0.0
O97 O 0.43356 0.30368 0.59559 0.0
Co98 Co 0.94267 0.16213 0.86242 0.0
O99 O 0.91872 0.1387 0.85777 0.0
O100 O 0.91871 0.1608 0.88585 0.0
C101 C 0.91808 0.19308 0.85921 0.0
O102 O 0.96419 0.18699 0.87048 0.0
Co103 Co 0.95123 0.1586 0.84395 0.0
O104 O 0.96902 0.18613 0.83509 0.0
C105 C 0.97054 0.13072 0.87619 0.0
C106 C 0.90889 0.1444 0.87586 0.0
C107 C 0.9727 0.19619 0.8533 0.0
O108 O 0.95722 0.14395 0.88561 0.0
O109 O 0.97117 0.13241 0.85498 0.0
O110 O 0.92301 0.18372 0.87803 0.0
O111 O 0.92642 0.18317 0.84198 0.0
Co112 Co 0.4133 0.06012 0.30535 0.0
O113 O 0.40956 0.08302 0.32978 0.0
O114 O 0.38152 0.06926 0.31234 0.0
C115 C 0.39473 0.03149 0.32533 0.0
O116 O 0.41307 0.03763 0.28033 0.0
Co117 Co 0.43352 0.05973 0.30892 0.0
O118 O 0.44839 0.03979 0.28557 0.0
C119 C 0.42357 0.09695 0.28359 0.0
C120 C 0.38844 0.08357 0.32692 0.0
C121 C 0.43245 0.03138 0.27457 0.0
O122 O 0.40784 0.08298 0.28258 0.0
O123 O 0.43983 0.09154 0.29612 0.0
O124 O 0.38461 0.04452 0.3114 0.0
O125 O 0.41561 0.03611 0.32815 0.0
Co126 Co 0.1776 0.13271 0.55592 0.0
O127 O 0.15155 0.13783 0.57669 0.0
O128 O 0.17508 0.11164 0.58256 0.0
C129 C 0.20557 0.14056 0.58248 0.0
O130 O 0.20435 0.1255 0.53649 0.0
Co131 Co 0.17147 0.14938 0.54656 0.0
O132 O 0.19208 0.15506 0.52024 0.0
C133 C 0.14564 0.11362 0.53213 0.0
C134 C 0.15669 0.12105 0.58869 0.0
C135 C 0.20665 0.13978 0.52088 0.0
O136 O 0.16261 0.10662 0.54238 0.0
O137 O 0.14373 0.13481 0.53158 0.0
O138 O 0.19776 0.12068 0.57908 0.0
O139 O 0.19536 0.15608 0.57145 0.0
Co140 Co 0.07173 0.9372 0.81163 0.0
O141 O 0.07386 0.91379 0.8358 0.0
O142 O 0.10281 0.92582 0.81857 0.0
C143 C 0.09219 0.96429 0.83183 0.0
O144 O 0.0733 0.96002 0.78689 0.0
Co145 Co 0.05164 0.93875 0.81534 0.0
O146 O 0.038 0.96036 0.79277 0.0
C147 C 0.05919 0.90148 0.78926 0.0
C148 C 0.09489 0.91185 0.833 0.0
C149 C 0.05433 0.96781 0.78163 0.0
O150 O 0.07581 0.91438 0.78858 0.0
O151 O 0.04323 0.90776 0.80177 0.0
O152 O 0.10141 0.95075 0.81778 0.0
O153 O 0.07105 0.961 0.83471 0.0
Co154 Co 0.30647 0.85792 0.05697 0.0
O155 O 0.33371 0.85471 0.07654 0.0
O156 O 0.30965 0.88056 0.08208 0.0
C157 C 0.28017 0.85065 0.08547 0.0
O158 O 0.27858 0.86372 0.03876 0.0
Co159 Co 0.31239 0.84088 0.04816 0.0
O160 O 0.2913 0.83446 0.0224 0.0
C161 C 0.33662 0.87611 0.03023 0.0
C162 C 0.32869 0.87213 0.08768 0.0
C163 C 0.27626 0.84925 0.02339 0.0
O164 O 0.32015 0.88347 0.04105 0.0
O165 O 0.33895 0.85496 0.0309 0.0
O166 O 0.28715 0.87053 0.08061 0.0
O167 O 0.2902 0.8349 0.07468 0.0
Co168 Co 0.41244 0.93851 0.17175 0.0
O169 O 0.4083 0.91824 0.1453 0.0
O170 O 0.38067 0.92869 0.1655 0.0
C171 C 0.39151 0.96827 0.15606 0.0
O172 O 0.41323 0.95778 0.19942 0.0
Co173 Co 0.43266 0.94106 0.16713 0.0
O174 O 0.44641 0.96442 0.18769 0.0
C175 C 0.42633 0.90148 0.19088 0.0
C176 C 0.38742 0.91638 0.14913 0.0
C177 C 0.43156 0.96808 0.20225 0.0
O178 O 0.40898 0.91326 0.19207 0.0
O179 O 0.44214 0.90972 0.17929 0.0
O180 O 0.38285 0.95343 0.16914 0.0
O181 O 0.41231 0.96499 0.15148 0.0
Co182 Co 0.30999 0.13595 0.42389 0.0
O183 O 0.33541 0.14208 0.40257 0.0
O184 O 0.31295 0.11465 0.3977 0.0
C185 C 0.28118 0.14223 0.39766 0.0
O186 O 0.28396 0.12707 0.44362 0.0
Co187 Co 0.31513 0.15307 0.43309 0.0
O188 O 0.29504 0.15685 0.46019 0.0
C189 C 0.34338 0.11939 0.44761 0.0
C190 C 0.33082 0.12475 0.39108 0.0
C191 C 0.28132 0.14079 0.45961 0.0
O192 O 0.3268 0.11106 0.43766 0.0
O193 O 0.34391 0.14066 0.44776 0.0
O194 O 0.28997 0.12279 0.40111 0.0
O195 O 0.29079 0.15828 0.40842 0.0
Co196 Co 0.07574 0.06354 0.68121 0.0
O197 O 0.07944 0.08401 0.65485 0.0
O198 O 0.10761 0.07171 0.6731 0.0
C199 C 0.09408 0.033 0.66394 0.0
O200 O 0.07525 0.04367 0.70853 0.0
Co201 Co 0.05526 0.06231 0.67761 0.0
O202 O 0.04148 0.0386 0.69772 0.0
C203 C 0.06517 0.1008 0.70191 0.0
C204 C 0.10059 0.08456 0.65725 0.0
C205 C 0.05665 0.03389 0.71163 0.0
O206 O 0.08189 0.08809 0.70169 0.0
O207 O 0.04824 0.0937 0.69118 0.0
O208 O 0.10424 0.04709 0.67674 0.0
O209 O 0.07327 0.03751 0.66054 0.0
Co210 Co 0.17062 0.85418 0.92929 0.0
O211 O 0.14369 0.85039 0.90932 0.0
O212 O 0.16872 0.87513 0.90273 0.0
C213 C 0.19714 0.84423 0.90183 0.0
O214 O 0.19832 0.86071 0.94748 0.0
Co215 Co 0.16425 0.83792 0.93932 0.0
O216 O 0.18487 0.833 0.96585 0.0
C217 C 0.14056 0.87487 0.95416 0.0
C218 C 0.1496 0.86687 0.89714 0.0
C219 C 0.20019 0.84743 0.96395 0.0
O220 O 0.15733 0.88109 0.94306 0.0
O221 O 0.13778 0.85379 0.95504 0.0
O222 O 0.19075 0.86459 0.90527 0.0
O223 O 0.18656 0.82953 0.91357 0.0
Co224 Co 0.31433 0.40363 0.04933 0.0
O225 O 0.33979 0.40953 0.07074 0.0
O226 O 0.34059 0.3826 0.04716 0.0
C227 C 0.33552 0.41078 0.01675 0.0
O228 O 0.29092 0.39486 0.02669 0.0
Co229 Co 0.3056 0.42069 0.05595 0.0
O230 O 0.27715 0.42591 0.03813 0.0
C231 C 0.29609 0.38592 0.08543 0.0
C232 C 0.35054 0.39264 0.06345 0.0
C233 C 0.27555 0.40938 0.02507 0.0
O234 O 0.30397 0.37816 0.06755 0.0
O235 O 0.29531 0.40719 0.08627 0.0
O236 O 0.33328 0.39109 0.02539 0.0
O237 O 0.32629 0.42658 0.0282 0.0
Co238 Co 0.78345 0.11462 0.91675 0.0
O239 O 0.80607 0.10964 0.89205 0.0
O240 O 0.8085 0.13704 0.91478 0.0
C241 C 0.80991 0.10898 0.94569 0.0
O242 O 0.76303 0.12248 0.94263 0.0
Co243 Co 0.77454 0.09677 0.91221 0.0
O244 O 0.75897 0.08701 0.941 0.0
C245 C 0.75899 0.13091 0.88409 0.0
C246 C 0.81702 0.12708 0.89765 0.0
C247 C 0.7551 0.10491 0.95159 0.0
O248 O 0.76961 0.13926 0.90016 0.0
O249 O 0.75814 0.10961 0.88408 0.0
O250 O 0.80497 0.12844 0.93773 0.0
O251 O 0.7999 0.09256 0.93593 0.0
Co252 Co 0.12016 0.53402 0.15662 0.0
O253 O 0.12675 0.55708 0.13264 0.0
O254 O 0.0987 0.55973 0.15459 0.0
C255 C 0.12544 0.55939 0.18677 0.0
O256 O 0.11019 0.51378 0.18198 0.0
Co257 Co 0.13799 0.52446 0.15296 0.0
O258 O 0.14537 0.5083 0.18199 0.0
C259 C 0.10531 0.50877 0.12354 0.0
C260 C 0.10949 0.56842 0.13804 0.0
C261 C 0.12695 0.50544 0.19198 0.0
O262 O 0.09626 0.52074 0.13831 0.0
O263 O 0.12648 0.50732 0.12501 0.0
O264 O 0.10625 0.55556 0.17769 0.0
O265 O 0.14186 0.54927 0.17722 0.0
Co266 Co 0.70055 0.86807 0.41483 0.0
O267 O 0.68187 0.87075 0.3867 0.0
O268 O 0.67923 0.84267 0.40851 0.0
C269 C 0.66959 0.86915 0.43924 0.0
O270 O 0.71712 0.86268 0.44389 0.0
Co271 Co 0.7075 0.88677 0.41112 0.0
O272 O 0.72372 0.89755 0.43896 0.0
C273 C 0.73156 0.85572 0.38611 0.0
C274 C 0.67245 0.85196 0.39025 0.0
C275 C 0.72543 0.88068 0.45161 0.0
O276 O 0.72018 0.84589 0.40078 0.0
O277 O 0.72909 0.87687 0.38561 0.0
O278 O 0.67808 0.85077 0.43173 0.0
O279 O 0.67863 0.88708 0.43119 0.0
Co280 Co 0.85111 0.92123 0.18178 0.0
O281 O 0.84426 0.89757 0.15865 0.0
O282 O 0.87213 0.8948 0.18083 0.0
C283 C 0.84557 0.89752 0.21298 0.0
O284 O 0.86056 0.94295 0.20589 0.0
Co285 Co 0.83375 0.93006 0.1765 0.0
O286 O 0.8289 0.95691 0.19665 0.0
C287 C 0.86697 0.94295 0.14669 0.0
C288 C 0.86131 0.88616 0.16431 0.0
C289 C 0.84583 0.95786 0.20922 0.0
O290 O 0.87562 0.93339 0.16333 0.0
O291 O 0.84573 0.94339 0.14682 0.0
O292 O 0.86478 0.90046 0.20358 0.0
O293 O 0.82925 0.90739 0.20291 0.0
Co294 Co 0.16728 0.58092 0.55552 0.0
O295 O 0.14164 0.58057 0.57751 0.0
O296 O 0.14483 0.60591 0.55238 0.0
C297 C 0.14425 0.57524 0.52404 0.0
O298 O 0.19128 0.58455 0.53213 0.0
Co299 Co 0.17371 0.56295 0.56299 0.0
O300 O 0.2004 0.55225 0.54473 0.0
C301 C 0.18826 0.59776 0.59035 0.0
C302 C 0.13373 0.59868 0.56942 0.0
C303 C 0.20416 0.56776 0.53086 0.0
O304 O 0.18178 0.60546 0.5719 0.0
O305 O 0.18602 0.57669 0.59252 0.0
O306 O 0.15002 0.59482 0.53111 0.0
O307 O 0.15131 0.55888 0.53621 0.0
Co308 Co 0.11578 0.45548 0.32258 0.0
O309 O 0.12161 0.43413 0.34822 0.0
O310 O 0.09446 0.42962 0.32544 0.0
C311 C 0.12229 0.42849 0.2942 0.0
O312 O 0.10693 0.47418 0.29567 0.0
Co313 Co 0.13329 0.46512 0.32682 0.0
O314 O 0.14201 0.48021 0.29759 0.0
C315 C 0.09933 0.4815 0.35423 0.0
C316 C 0.10459 0.42234 0.34304 0.0
C317 C 0.1242 0.48237 0.28639 0.0
O318 O 0.09102 0.4695 0.33906 0.0
O319 O 0.12054 0.48286 0.35392 0.0
O320 O 0.10277 0.43252 0.30248 0.0
O321 O 0.13829 0.43929 0.30377 0.0
Co322 Co 0.36755 0.53412 0.82217 0.0
O323 O 0.36156 0.5573 0.84615 0.0
O324 O 0.38907 0.55989 0.82353 0.0
C325 C 0.36148 0.55935 0.79208 0.0
O326 O 0.37679 0.51379 0.79661 0.0
Co327 Co 0.34982 0.52459 0.82642 0.0
O328 O 0.34162 0.50828 0.7977 0.0
C329 C 0.38324 0.50928 0.85518 0.0
C330 C 0.37868 0.56867 0.84027 0.0
C331 C 0.35972 0.50541 0.78715 0.0
O332 O 0.39192 0.52094 0.83992 0.0
O333 O 0.36203 0.50787 0.85435 0.0
O334 O 0.38091 0.55558 0.80067 0.0
O335 O 0.34531 0.54925 0.8021 0.0
Co336 Co 0.90739 0.69302 0.59005 0.0
O337 O 0.882 0.67094 0.59107 0.0
O338 O 0.90251 0.67726 0.61967 0.0
C339 C 0.89099 0.71808 0.61533 0.0
O340 O 0.93364 0.71407 0.59219 0.0
Co341 Co 0.90221 0.69641 0.57092 0.0
O342 O 0.92645 0.71608 0.55718 0.0
C343 C 0.92567 0.65704 0.57226 0.0
C344 C 0.88699 0.6651 0.61092 0.0
C345 C 0.93881 0.72208 0.57324 0.0
O346 O 0.92929 0.66873 0.58937 0.0
O347 O 0.91193 0.66531 0.55836 0.0
O348 O 0.90444 0.70245 0.62169 0.0
O349 O 0.8862 0.71767 0.59428 0.0
Co350 Co 0.05535 0.18822 0.34426 0.0
O351 O 0.07571 0.16142 0.34438 0.0
O352 O 0.06492 0.17687 0.37477 0.0
C353 C 0.02552 0.16918 0.36141 0.0
O354 O 0.03552 0.21539 0.34703 0.0
Co355 Co 0.05454 0.1867 0.3238 0.0
O356 O 0.03167 0.20904 0.31202 0.0
C357 C 0.0936 0.2084 0.33657 0.0
C358 C 0.07748 0.16196 0.36558 0.0
C359 C 0.02642 0.22097 0.32866 0.0
O360 O 0.07989 0.20803 0.35243 0.0
O361 O 0.08701 0.19887 0.31873 0.0
O362 O 0.03995 0.18066 0.3726 0.0
O363 O 0.02946 0.16808 0.3402 0.0
Co364 Co 0.57306 0.30322 0.08779 0.0
O365 O 0.60012 0.32321 0.08881 0.0
O366 O 0.57982 0.31765 0.11773 0.0
C367 C 0.588 0.27622 0.112 0.0
O368 O 0.54537 0.2841 0.09004 0.0
Co369 Co 0.57762 0.29998 0.06841 0.0
O370 O 0.55235 0.28138 0.05504 0.0
C371 C 0.55761 0.34116 0.07154 0.0
C372 C 0.59608 0.32879 0.10895 0.0
C373 C 0.53973 0.2762 0.0712 0.0
O374 O 0.55313 0.32915 0.08825 0.0
O375 O 0.57045 0.33229 0.05716 0.0
O376 O 0.57594 0.29265 0.11909 0.0
O377 O 0.59238 0.27688 0.09087 0.0
Co378 Co 0.43193 0.81637 0.82907 0.0
O379 O 0.40692 0.83898 0.83043 0.0
O380 O 0.41862 0.82199 0.8597 0.0
C381 C 0.45641 0.8385 0.85038 0.0
O382 O 0.45631 0.79337 0.83138 0.0
Co383 Co 0.43334 0.81984 0.80921 0.0
O384 O 0.45469 0.79669 0.79584 0.0
C385 C 0.39729 0.79229 0.81665 0.0
C386 C 0.40399 0.83538 0.85123 0.0
C387 C 0.46346 0.78707 0.81249 0.0
O388 O 0.41083 0.79156 0.83271 0.0
O389 O 0.40241 0.80577 0.80104 0.0
O390 O 0.44371 0.82342 0.8592 0.0
O391 O 0.45378 0.84101 0.82908 0.0
Co392 Co 0.9321 0.31125 0.90965 0.0
O393 O 0.90415 0.32858 0.90234 0.0
O394 O 0.92771 0.31924 0.87705 0.0
C395 C 0.91981 0.2794 0.88981 0.0
O396 O 0.96088 0.29462 0.9127 0.0
Co397 Co 0.926 0.31045 0.92943 0.0
O398 O 0.94725 0.28854 0.94513 0.0
C399 C 0.94335 0.35239 0.91969 0.0
C400 C 0.90985 0.33029 0.88187 0.0
C401 C 0.96301 0.28509 0.93145 0.0
O402 O 0.95073 0.3379 0.90633 0.0
O403 O 0.92908 0.34521 0.93374 0.0
O404 O 0.93251 0.29441 0.88091 0.0
O405 O 0.91394 0.28358 0.9101 0.0
Co406 Co 0.42293 0.18279 0.66148 0.0
O407 O 0.40242 0.15725 0.65393 0.0
O408 O 0.41486 0.17921 0.62861 0.0
C409 C 0.45348 0.16756 0.64183 0.0
O410 O 0.44324 0.20921 0.66626 0.0
Co411 Co 0.42229 0.17587 0.68085 0.0
O412 O 0.44533 0.1936 0.69851 0.0
C413 C 0.38422 0.20066 0.67194 0.0
C414 C 0.40186 0.16268 0.63339 0.0
C415 C 0.45152 0.20932 0.68579 0.0
O416 O 0.39905 0.20467 0.6576 0.0
O417 O 0.38931 0.18606 0.68655 0.0
O418 O 0.43995 0.18186 0.63299 0.0
O419 O 0.44825 0.1615 0.66187 0.0
Co420 Co 0.56832 0.67533 0.39626 0.0
O421 O 0.5928 0.65228 0.39603 0.0
O422 O 0.57436 0.66024 0.36645 0.0
C423 C 0.587 0.70033 0.37243 0.0
O424 O 0.54322 0.69769 0.39344 0.0
Co425 Co 0.57279 0.67818 0.41575 0.0
O426 O 0.55001 0.69999 0.42853 0.0
C427 C 0.54742 0.63998 0.41232 0.0
C428 C 0.589 0.64738 0.37568 0.0
C429 C 0.53837 0.70648 0.41213 0.0
O430 O 0.54547 0.65198 0.39513 0.0
O431 O 0.56055 0.64753 0.42719 0.0
O432 O 0.57322 0.68544 0.36506 0.0
O433 O 0.59077 0.69922 0.39367 0.0
Co434 Co 0.04898 0.81459 0.14896 0.0
O435 O 0.07017 0.84077 0.1477 0.0
O436 O 0.05677 0.82606 0.118 0.0
C437 C 0.01819 0.83367 0.13395 0.0
O438 O 0.02777 0.78839 0.14725 0.0
Co439 Co 0.05016 0.81608 0.16907 0.0
O440 O 0.03041 0.79205 0.18282 0.0
C441 C 0.08742 0.79348 0.15389 0.0
C442 C 0.07061 0.84029 0.12644 0.0
C443 C 0.02182 0.78171 0.16652 0.0
O444 O 0.07252 0.79409 0.13912 0.0
O445 O 0.08256 0.80339 0.17204 0.0
O446 O 0.03224 0.82283 0.12167 0.0
O447 O 0.02374 0.83484 0.15482 0.0
Co448 Co 0.61912 0.93935 0.66542 0.0
O449 O 0.60626 0.92354 0.6385 0.0
O450 O 0.63466 0.91062 0.65588 0.0
C451 C 0.61269 0.91038 0.69149 0.0
O452 O 0.63375 0.95357 0.69249 0.0
Co453 Co 0.60325 0.95133 0.66382 0.0
O454 O 0.60482 0.97438 0.68856 0.0
C455 C 0.63567 0.96579 0.63397 0.0
C456 C 0.62123 0.90852 0.63917 0.0
C457 C 0.62225 0.96999 0.69961 0.0
O458 O 0.64387 0.95172 0.64731 0.0
O459 O 0.61482 0.96911 0.63638 0.0
O460 O 0.63095 0.91219 0.68008 0.0
O461 O 0.59733 0.92441 0.68561 0.0
Co462 Co 0.81802 0.83613 0.44253 0.0
O463 O 0.84454 0.83985 0.42207 0.0
O464 O 0.8236 0.8675 0.43091 0.0
C465 C 0.83327 0.85832 0.47107 0.0
O466 O 0.79088 0.83595 0.46247 0.0
Co467 Co 0.82307 0.81656 0.44415 0.0
O468 O 0.79903 0.80107 0.4628 0.0
C469 C 0.80166 0.82269 0.40395 0.0
C470 C 0.83996 0.86041 0.4188 0.0
C471 C 0.7861 0.81646 0.46935 0.0
O472 O 0.79736 0.83839 0.41728 0.0
O473 O 0.81501 0.8079 0.4113 0.0
O474 O 0.82035 0.86641 0.4558 0.0
O475 O 0.83808 0.8374 0.46854 0.0
Co476 Co 0.88793 0.04735 0.17237 0.0
O477 O 0.8899 0.07017 0.14783 0.0
O478 O 0.85847 0.05692 0.15847 0.0
C479 C 0.86832 0.07092 0.19714 0.0
O480 O 0.8834 0.02405 0.19662 0.0
Co481 Co 0.90811 0.04942 0.1747 0.0
O482 O 0.91884 0.02891 0.19937 0.0
C483 C 0.90012 0.01928 0.14049 0.0
C484 C 0.86892 0.06967 0.14456 0.0
C485 C 0.90161 0.01887 0.20628 0.0
O486 O 0.8823 0.02341 0.15081 0.0
O487 O 0.91721 0.02977 0.1475 0.0
O488 O 0.85836 0.05707 0.18391 0.0
O489 O 0.88973 0.07174 0.19469 0.0
Co490 Co 0.68064 0.16598 0.93042 0.0
O491 O 0.65416 0.16162 0.90999 0.0
O492 O 0.6737 0.13401 0.92209 0.0
C493 C 0.66436 0.1467 0.96089 0.0
O494 O 0.70806 0.16612 0.9496 0.0
Co495 Co 0.67674 0.18646 0.93196 0.0
O496 O 0.69733 0.19957 0.95602 0.0
C497 C 0.69816 0.17659 0.89182 0.0
C498 C 0.65773 0.14058 0.90921 0.0
C499 C 0.71133 0.18424 0.96001 0.0
O500 O 0.701 0.16091 0.90554 0.0
O501 O 0.68607 0.19268 0.89872 0.0
O502 O 0.67714 0.13707 0.94644 0.0
O503 O 0.66038 0.16753 0.95676 0.0
Co504 Co 0.62814 0.04382 0.81983 0.0
O505 O 0.6179 0.05964 0.84784 0.0
O506 O 0.64525 0.07203 0.82851 0.0
C507 C 0.62078 0.07328 0.79464 0.0
O508 O 0.63993 0.02936 0.79151 0.0
Co509 Co 0.61205 0.03244 0.82274 0.0
O510 O 0.61046 0.00982 0.79767 0.0
C511 C 0.64631 0.01672 0.84976 0.0
C512 C 0.63318 0.07425 0.84621 0.0
C513 C 0.62708 0.01359 0.78521 0.0
O514 O 0.65384 0.03053 0.83576 0.0
O515 O 0.62524 0.01408 0.84908 0.0
O516 O 0.63977 0.07075 0.80463 0.0
O517 O 0.60542 0.05971 0.80157 0.0
Co518 Co 0.67502 0.82369 0.55482 0.0
O519 O 0.64697 0.82434 0.57353 0.0
O520 O 0.66311 0.8544 0.5624 0.0
C521 C 0.6585 0.84053 0.52322 0.0
O522 O 0.70351 0.82683 0.53728 0.0
Co523 Co 0.6739 0.80303 0.55362 0.0
O524 O 0.69873 0.79162 0.53309 0.0
C525 C 0.69174 0.81607 0.59457 0.0
C526 C 0.64744 0.84566 0.57434 0.0
C527 C 0.71054 0.80867 0.52891 0.0
O528 O 0.6928 0.83193 0.58083 0.0
O529 O 0.68272 0.79824 0.58721 0.0
O530 O 0.66875 0.85183 0.53847 0.0
O531 O 0.65703 0.81933 0.52727 0.0
Co532 Co 0.8975 0.93192 0.3182 0.0
O533 O 0.90125 0.90961 0.34301 0.0
O534 O 0.86919 0.92296 0.33443 0.0
C535 C 0.87614 0.90769 0.29551 0.0
O536 O 0.89092 0.95494 0.29428 0.0
Co537 Co 0.91759 0.92987 0.31393 0.0
O538 O 0.92429 0.94599 0.2848 0.0
C539 C 0.9119 0.96019 0.34871 0.0
C540 C 0.88059 0.91063 0.34796 0.0
C541 C 0.90703 0.95743 0.28067 0.0
O542 O 0.89342 0.95615 0.33963 0.0
O543 O 0.92847 0.94973 0.34048 0.0
O544 O 0.86716 0.92184 0.30909 0.0
O545 O 0.89766 0.90705 0.29626 0.0
Co546 Co 0.80443 0.15448 0.05956 0.0
O547 O 0.82927 0.14895 0.08161 0.0
O548 O 0.80869 0.12228 0.06956 0.0
C549 C 0.82145 0.13373 0.0309 0.0
O550 O 0.77903 0.1566 0.03757 0.0
Co551 Co 0.8102 0.17407 0.05949 0.0
O552 O 0.78974 0.19083 0.03799 0.0
C553 C 0.78525 0.16607 0.09739 0.0
C554 C 0.82436 0.12828 0.08309 0.0
C555 C 0.77643 0.17635 0.03024 0.0
O556 O 0.78179 0.1512 0.08291 0.0
O557 O 0.79953 0.18088 0.09205 0.0
O558 O 0.80715 0.12506 0.04456 0.0
O559 O 0.82651 0.15432 0.0351 0.0
Co560 Co 0.66638 0.59237 0.93796 0.0
O561 O 0.64347 0.5914 0.91333 0.0
O562 O 0.65534 0.62242 0.92662 0.0
C563 C 0.69392 0.60926 0.9155 0.0
O564 O 0.68888 0.59619 0.96279 0.0
Co565 Co 0.66721 0.57191 0.93687 0.0
O566 O 0.69311 0.56123 0.95625 0.0
C567 C 0.63027 0.58509 0.9618 0.0
C568 C 0.64156 0.61259 0.91328 0.0
C569 C 0.69923 0.57819 0.96731 0.0
O570 O 0.64387 0.60096 0.95986 0.0
O571 O 0.636 0.56704 0.95209 0.0
O572 O 0.6806 0.62065 0.92806 0.0
O573 O 0.69016 0.58798 0.91542 0.0
Co574 Co 0.17261 0.89742 0.0571 0.0
O575 O 0.14867 0.90149 0.08026 0.0
O576 O 0.15683 0.86921 0.06692 0.0
C577 C 0.19642 0.87668 0.08089 0.0
O578 O 0.19536 0.89011 0.03313 0.0
Co579 Co 0.17716 0.91761 0.05836 0.0
O580 O 0.20285 0.92493 0.03748 0.0
C581 C 0.14147 0.91185 0.02937 0.0
C582 C 0.14362 0.88078 0.07942 0.0
C583 C 0.20714 0.90686 0.02745 0.0
O584 O 0.15012 0.8932 0.0338 0.0
O585 O 0.15039 0.92852 0.03909 0.0
O586 O 0.18233 0.86727 0.06755 0.0
O587 O 0.19555 0.89821 0.08102 0.0
Co588 Co 0.84735 0.41702 0.79738 0.0
O589 O 0.84518 0.39443 0.82214 0.0
O590 O 0.87679 0.40501 0.80928 0.0
C591 C 0.86495 0.44443 0.81955 0.0
O592 O 0.85194 0.43914 0.77209 0.0
Co593 Co 0.82701 0.41863 0.79843 0.0
O594 O 0.81684 0.44352 0.77779 0.0
C595 C 0.83834 0.3818 0.77247 0.0
C596 C 0.86623 0.39172 0.82258 0.0
C597 C 0.83397 0.44924 0.76683 0.0
O598 O 0.85521 0.39382 0.77585 0.0
O599 O 0.82042 0.38876 0.78155 0.0
O600 O 0.87599 0.43048 0.80737 0.0
O601 O 0.84361 0.44129 0.81958 0.0
Co602 Co 0.31561 0.09711 0.55082 0.0
O603 O 0.34005 0.09562 0.57372 0.0
O604 O 0.32896 0.1269 0.56041 0.0
C605 C 0.29044 0.11624 0.57437 0.0
O606 O 0.29151 0.10138 0.52736 0.0
Co607 Co 0.31347 0.07681 0.55274 0.0
O608 O 0.29023 0.06565 0.53079 0.0
C609 C 0.34808 0.08526 0.52333 0.0
C610 C 0.34302 0.11671 0.57317 0.0
C611 C 0.28285 0.08295 0.52119 0.0
O612 O 0.33731 0.10295 0.52703 0.0
O613 O 0.34124 0.06809 0.53384 0.0
O614 O 0.30352 0.1265 0.56059 0.0
O615 O 0.29319 0.09484 0.57507 0.0
Co616 Co 0.119 0.07314 0.80082 0.0
O617 O 0.12999 0.10079 0.81681 0.0
O618 O 0.1013 0.08292 0.82828 0.0
C619 C 0.12424 0.04795 0.8307 0.0
O620 O 0.10641 0.0453 0.78605 0.0
Co621 Co 0.13555 0.07521 0.78987 0.0
O622 O 0.13657 0.05009 0.7672 0.0
C623 C 0.10311 0.10404 0.77341 0.0
C624 C 0.11405 0.10014 0.83077 0.0
C625 C 0.11929 0.03841 0.77057 0.0
O626 O 0.0945 0.09015 0.78668 0.0
O627 O 0.1242 0.10241 0.7714 0.0
O628 O 0.1058 0.05872 0.82743 0.0
O629 O 0.14031 0.05399 0.81754 0.0
Co630 Co 0.79828 0.39681 0.43406 0.0
O631 O 0.81906 0.39913 0.40766 0.0
O632 O 0.8114 0.36762 0.42276 0.0
C633 C 0.77077 0.37695 0.41429 0.0
O634 O 0.77844 0.39132 0.46057 0.0
Co635 Co 0.7958 0.4171 0.43253 0.0
O636 O 0.77048 0.42556 0.45393 0.0
C637 C 0.83617 0.40751 0.45323 0.0
C638 C 0.82337 0.3783 0.40834 0.0
C639 C 0.76684 0.4083 0.46566 0.0
O640 O 0.82305 0.39116 0.45444 0.0
O641 O 0.82866 0.4244 0.44268 0.0
O642 O 0.78608 0.36707 0.42583 0.0
O643 O 0.7726 0.39846 0.4135 0.0
Co644 Co 0.84239 0.54968 0.66676 0.0
O645 O 0.8377 0.57413 0.64413 0.0
O646 O 0.86998 0.56737 0.65785 0.0
C647 C 0.86484 0.52757 0.64333 0.0
O648 O 0.8497 0.5261 0.68993 0.0
Co649 Co 0.82287 0.54596 0.66472 0.0
O650 O 0.81397 0.52402 0.68909 0.0
C651 C 0.82727 0.58207 0.69275 0.0
C652 C 0.85794 0.5804 0.64559 0.0
C653 C 0.83201 0.51725 0.69771 0.0
O654 O 0.84542 0.57166 0.69083 0.0
O655 O 0.81113 0.57419 0.68145 0.0
O656 O 0.87315 0.54207 0.65699 0.0
O657 O 0.84327 0.52747 0.64255 0.0
Co658 Co 0.65745 0.43205 0.17156 0.0
O659 O 0.65728 0.41021 0.14598 0.0
O660 O 0.62717 0.41931 0.16289 0.0
C661 C 0.63677 0.4597 0.15294 0.0
O662 O 0.65477 0.45341 0.19744 0.0
Co663 Co 0.67725 0.43333 0.16827 0.0
O664 O 0.6902 0.4538 0.19212 0.0
C665 C 0.66919 0.39459 0.19179 0.0
C666 C 0.6365 0.40646 0.1483 0.0
C667 C 0.67374 0.46087 0.20329 0.0
O668 O 0.65301 0.40791 0.19329 0.0
O669 O 0.68531 0.40124 0.17966 0.0
O670 O 0.62746 0.44461 0.16527 0.0
O671 O 0.65804 0.45709 0.15028 0.0
Co672 Co 0.56078 0.80572 0.8756 0.0
O673 O 0.58954 0.82304 0.87976 0.0
O674 O 0.56713 0.83008 0.85284 0.0
C675 C 0.53716 0.83683 0.88116 0.0
O676 O 0.53144 0.79021 0.86897 0.0
Co677 Co 0.56516 0.79667 0.89303 0.0
O678 O 0.53957 0.77561 0.90065 0.0
C679 C 0.58989 0.7772 0.85887 0.0
C680 C 0.58609 0.83444 0.86212 0.0
C681 C 0.52574 0.77712 0.88474 0.0
O682 O 0.57402 0.78842 0.85085 0.0
O683 O 0.59145 0.77788 0.88007 0.0
O684 O 0.54432 0.83074 0.86171 0.0
O685 O 0.5453 0.82535 0.89755 0.0
Co686 Co 0.45623 0.33171 0.11715 0.0
O687 O 0.43999 0.36139 0.11607 0.0
O688 O 0.43752 0.33753 0.08966 0.0
C689 C 0.42322 0.31018 0.11798 0.0
O690 O 0.47056 0.30116 0.11537 0.0
Co691 Co 0.46217 0.33687 0.13577 0.0
O692 O 0.47609 0.30916 0.14983 0.0
C693 C 0.48884 0.35815 0.10415 0.0
C694 C 0.43214 0.35719 0.09673 0.0
C695 C 0.47755 0.29478 0.13439 0.0
O696 O 0.47836 0.34219 0.09539 0.0
O697 O 0.48481 0.36119 0.12482 0.0
O698 O 0.43349 0.31536 0.09971 0.0
O699 O 0.43182 0.31891 0.13577 0.0
Co700 Co 0.91379 0.20338 0.38179 0.0
O701 O 0.88715 0.1825 0.38166 0.0
O702 O 0.91187 0.182 0.35585 0.0
C703 C 0.94019 0.17432 0.38567 0.0
O704 O 0.94167 0.22213 0.37867 0.0
Co705 Co 0.90786 0.2102 0.4001 0.0
O706 O 0.93335 0.2289 0.41279 0.0
C707 C 0.88332 0.23114 0.36651 0.0
C708 C 0.89316 0.17404 0.36301 0.0
C709 C 0.94718 0.23132 0.39698 0.0
O710 O 0.90028 0.22187 0.35832 0.0
O711 O 0.88098 0.22853 0.38751 0.0
O712 O 0.93398 0.18218 0.36654 0.0
O713 O 0.92986 0.18286 0.40257 0.0
Co714 Co 0.02916 0.66943 0.61775 0.0
O715 O 0.04578 0.63997 0.61825 0.0
O716 O 0.04999 0.66338 0.59168 0.0
C717 C 0.06149 0.69178 0.62013 0.0
O718 O 0.01418 0.69971 0.61508 0.0
Co719 Co 0.02242 0.66408 0.63589 0.0
O720 O 0.00601 0.69081 0.64883 0.0
C721 C -0.00255 0.64257 0.60314 0.0
C722 C 0.05504 0.64393 0.59953 0.0
C723 C 0.00526 0.7054 0.63353 0.0
O724 O 0.00852 0.65836 0.59477 0.0
O725 O 0.00044 0.63969 0.62401 0.0
O726 O 0.05257 0.68588 0.60137 0.0
O727 O 0.05211 0.68302 0.63753 0.0
Co728 Co 0.56856 0.19456 0.62492 0.0
O729 O 0.59516 0.17494 0.61822 0.0
O730 O 0.57234 0.16702 0.64451 0.0
C731 C 0.54102 0.16736 0.61676 0.0
O732 O 0.54102 0.2124 0.63348 0.0
Co733 Co 0.57377 0.20461 0.60822 0.0
O734 O 0.54576 0.22139 0.59916 0.0
C735 C 0.59977 0.21937 0.64396 0.0
C736 C 0.59054 0.16174 0.63425 0.0
C737 C 0.53339 0.2224 0.61629 0.0
O738 O 0.58385 0.20756 0.65103 0.0
O739 O 0.60067 0.22133 0.62279 0.0
O740 O 0.54936 0.17019 0.63649 0.0
O741 O 0.55063 0.17915 0.60141 0.0
Co742 Co 0.02402 0.32635 0.86809 0.0
O743 O 0.04438 0.35328 0.86673 0.0
O744 O 0.04073 0.33405 0.89653 0.0
C745 C 0.05381 0.30105 0.87441 0.0
O746 O 0.00493 0.29893 0.87257 0.0
Co747 Co 0.02094 0.32906 0.84816 0.0
O748 O 0.009 0.29903 0.8371 0.0
C749 C -0.0046 0.35917 0.87292 0.0
C750 C 0.0499 0.3512 0.88718 0.0
C751 C 0.00194 0.28874 0.85421 0.0
O752 O 0.00162 0.34311 0.88499 0.0
O753 O 0.0021 0.35841 0.85274 0.0
O754 O 0.04224 0.30989 0.89034 0.0
O755 O 0.04834 0.3079 0.85467 0.0
Co756 Co 0.90912 0.77413 0.1081 0.0
O757 O 0.88288 0.79541 0.10852 0.0
O758 O 0.90486 0.79195 0.13641 0.0
C759 C 0.93571 0.80344 0.11054 0.0
O760 O 0.93611 0.75435 0.11128 0.0
Co761 Co 0.90507 0.76995 0.08844 0.0
O762 O 0.93449 0.7578 0.07582 0.0
C763 C 0.87656 0.74628 0.11699 0.0
C764 C 0.88715 0.80138 0.12854 0.0
C765 C 0.9454 0.75086 0.09256 0.0
O766 O 0.89341 0.75307 0.12752 0.0
O767 O 0.87604 0.7517 0.0964 0.0
O768 O 0.92819 0.7928 0.12776 0.0
O769 O 0.92696 0.79729 0.09181 0.0
Co770 Co 0.44685 0.66383 0.36571 0.0
O771 O 0.4274 0.63617 0.36557 0.0
O772 O 0.42592 0.66002 0.39208 0.0
C773 C 0.41681 0.68919 0.36347 0.0
O774 O 0.4647 0.69246 0.3683 0.0
Co775 Co 0.45293 0.65787 0.34748 0.0
O776 O 0.47182 0.68296 0.33449 0.0
C777 C 0.47557 0.63373 0.38009 0.0
C778 C 0.41896 0.64107 0.38447 0.0
C779 C 0.47405 0.69735 0.34983 0.0
O780 O 0.46653 0.65074 0.38849 0.0
O781 O 0.47208 0.63116 0.35927 0.0
O782 O 0.42529 0.68256 0.38219 0.0
O783 O 0.42517 0.67953 0.34605 0.0
Co784 Co 0.88023 0.55736 0.79293 0.0
O785 O 0.88054 0.58341 0.81442 0.0
O786 O 0.8558 0.55764 0.81627 0.0
C787 C 0.88693 0.53003 0.82061 0.0
O788 O 0.87728 0.53012 0.77322 0.0
Co789 Co 0.89751 0.56467 0.78555 0.0
O790 O 0.9089 0.54287 0.76216 0.0
C791 C 0.86187 0.58793 0.76695 0.0
C792 C 0.86285 0.57649 0.82405 0.0
C793 C 0.89427 0.52768 0.76076 0.0
O794 O 0.85502 0.57041 0.77636 0.0
O795 O 0.88278 0.59133 0.76866 0.0
O796 O 0.86713 0.53591 0.81436 0.0
O797 O 0.90284 0.54141 0.81144 0.0
Co798 Co 0.66558 0.64246 0.05018 0.0
O799 O 0.64365 0.64518 0.07571 0.0
O800 O 0.6662 0.61757 0.07292 0.0
C801 C 0.69735 0.64532 0.07357 0.0
O802 O 0.6885 0.63655 0.0262 0.0
Co803 Co 0.66029 0.66116 0.04345 0.0
O804 O 0.6855 0.67209 0.02323 0.0
C805 C 0.63024 0.62851 0.0282 0.0
C806 C 0.65007 0.6266 0.08401 0.0
C807 C 0.69548 0.65447 0.01721 0.0
O808 O 0.64733 0.61928 0.03607 0.0
O809 O 0.63032 0.64981 0.0293 0.0
O810 O 0.68861 0.62648 0.06766 0.0
O811 O 0.6868 0.66272 0.06637 0.0
Co812 Co 0.6122 0.40808 0.28621 0.0
O813 O 0.60615 0.38302 0.30813 0.0
O814 O 0.63365 0.40545 0.31201 0.0
C815 C 0.60672 0.43726 0.31238 0.0
O816 O 0.62075 0.43433 0.26668 0.0
Co817 Co 0.59469 0.40375 0.27682 0.0
O818 O 0.58633 0.43054 0.25777 0.0
C819 C 0.62877 0.37685 0.2597 0.0
C820 C 0.62311 0.38834 0.31988 0.0
C821 C 0.60394 0.44212 0.25628 0.0
O822 O 0.63693 0.3914 0.27248 0.0
O823 O 0.60755 0.3772 0.25835 0.0
O824 O 0.626 0.42849 0.30825 0.0
O825 O 0.5903 0.42765 0.30218 0.0
Co826 Co 0.81329 0.34362 0.53621 0.0
O827 O 0.83929 0.34183 0.55766 0.0
O828 O 0.81593 0.3689 0.55841 0.0
C829 C 0.78591 0.3404 0.5645 0.0
O830 O 0.78665 0.3484 0.51631 0.0
Co831 Co 0.81853 0.32524 0.52918 0.0
O832 O 0.79059 0.31295 0.51378 0.0
C833 C 0.84522 0.35885 0.51031 0.0
C834 C 0.83411 0.36054 0.56644 0.0
C835 C 0.77898 0.32999 0.50912 0.0
O836 O 0.82812 0.36717 0.51908 0.0
O837 O 0.84668 0.33764 0.51202 0.0
O838 O 0.79319 0.35936 0.55716 0.0
O839 O 0.79564 0.32316 0.55585 0.0
Co840 Co 0.89238 0.41742 0.67537 0.0
O841 O 0.89385 0.39238 0.65272 0.0
O842 O 0.86729 0.41642 0.65303 0.0
C843 C 0.89649 0.44605 0.6484 0.0
O844 O 0.88732 0.44336 0.69612 0.0
Co845 Co 0.91071 0.41184 0.68265 0.0
O846 O 0.92081 0.435 0.70556 0.0
C847 C 0.87727 0.38457 0.70049 0.0
C848 C 0.87526 0.39843 0.64417 0.0
C849 C 0.90427 0.4479 0.70796 0.0
O850 O 0.86872 0.40173 0.69189 0.0
O851 O 0.89842 0.38327 0.69857 0.0
O852 O 0.87733 0.43876 0.65513 0.0
O853 O 0.91339 0.43573 0.65692 0.0
Co854 Co 0.8078 0.63116 0.93575 0.0
O855 O 0.83284 0.63226 0.91312 0.0
O856 O 0.80885 0.60573 0.91352 0.0
C857 C 0.77899 0.63465 0.90908 0.0
O858 O 0.78159 0.62728 0.95664 0.0
Co859 Co 0.81412 0.64933 0.94207 0.0
O860 O 0.79098 0.66108 0.96399 0.0
C861 C 0.84072 0.61607 0.96078 0.0
C862 C 0.82679 0.61369 0.90459 0.0
C863 C 0.77733 0.64524 0.96715 0.0
O864 O 0.82322 0.60766 0.95276 0.0
O865 O 0.84255 0.63712 0.9581 0.0
O866 O 0.78654 0.61559 0.91589 0.0
O867 O 0.78958 0.65175 0.91698 0.0
Co868 Co 0.61176 0.57058 0.20097 0.0
O869 O 0.60805 0.59703 0.18029 0.0
O870 O 0.63618 0.57516 0.17817 0.0
C871 C 0.60939 0.54366 0.17195 0.0
O872 O 0.61827 0.54343 0.21993 0.0
Co873 Co 0.59322 0.57436 0.20842 0.0
O874 O 0.58261 0.54457 0.22135 0.0
C875 C 0.62529 0.60185 0.22877 0.0
C876 C 0.62654 0.59291 0.17058 0.0
C877 C 0.60027 0.53391 0.22592 0.0
O878 O 0.63471 0.58636 0.21821 0.0
O879 O 0.60403 0.60172 0.22759 0.0
O880 O 0.62804 0.55179 0.17912 0.0
O881 O 0.59189 0.5523 0.18115 0.0
Co882 Co 0.65686 0.34552 0.44252 0.0
O883 O 0.63268 0.34324 0.41902 0.0
O884 O 0.65455 0.37139 0.42114 0.0
C885 C 0.68657 0.345 0.41641 0.0
O886 O 0.68231 0.3511 0.46393 0.0
Co887 Co 0.6527 0.32642 0.44871 0.0
O888 O 0.67875 0.31566 0.46768 0.0
C889 C 0.62389 0.35663 0.46957 0.0
C890 C 0.63789 0.36229 0.41091 0.0
C891 C 0.68993 0.33304 0.47214 0.0
O892 O 0.63926 0.36714 0.45984 0.0
O893 O 0.62457 0.33549 0.46705 0.0
O894 O 0.67763 0.3632 0.42379 0.0
O895 O 0.6771 0.32692 0.42349 0.0
Co896 Co 0.78271 0.87845 0.57971 0.0
O897 O 0.80386 0.88261 0.60584 0.0
O898 O 0.80704 0.85552 0.58283 0.0
C899 C 0.81123 0.88431 0.55282 0.0
O900 O 0.76388 0.87103 0.55252 0.0
Co901 Co 0.77331 0.89649 0.58338 0.0
O902 O 0.75911 0.90641 0.55394 0.0
C903 C 0.75501 0.86205 0.60961 0.0
C904 C 0.81476 0.86501 0.60059 0.0
C905 C 0.75605 0.88845 0.54324 0.0
O906 O 0.76748 0.85377 0.59492 0.0
O907 O 0.75406 0.88336 0.60948 0.0
O908 O 0.80531 0.86476 0.55985 0.0
O909 O 0.80074 0.90068 0.56209 0.0
Co910 Co 0.30705 0.58257 0.43541 0.0
O911 O 0.33176 0.5811 0.41243 0.0
O912 O 0.33023 0.60711 0.43697 0.0
C913 C 0.3311 0.57711 0.46617 0.0
O914 O 0.284 0.58711 0.45969 0.0
Co915 Co 0.30038 0.56482 0.42828 0.0
O916 O 0.27328 0.55552 0.4466 0.0
C917 C 0.28568 0.59908 0.4006 0.0
C918 C 0.34036 0.59924 0.41964 0.0
C919 C 0.27042 0.57084 0.46087 0.0
O920 O 0.29239 0.60699 0.41889 0.0
O921 O 0.28784 0.57799 0.39867 0.0
O922 O 0.32565 0.59666 0.45873 0.0
O923 O 0.32323 0.56067 0.45463 0.0
Co924 Co 0.66504 0.05773 0.6773 0.0
O925 O 0.66299 0.08512 0.65794 0.0
O926 O 0.63378 0.06805 0.66941 0.0
C927 C 0.64744 0.07478 0.70843 0.0
O928 O 0.66397 0.02974 0.69632 0.0
Co929 Co 0.6856 0.06023 0.67873 0.0
O930 O 0.69787 0.03946 0.70258 0.0
C931 C 0.67491 0.03727 0.63965 0.0
C932 C 0.64173 0.0842 0.65751 0.0
C933 C 0.68213 0.02598 0.70663 0.0
O934 O 0.65792 0.03852 0.65195 0.0
O935 O 0.69237 0.04664 0.64735 0.0
O936 O 0.63672 0.06304 0.69384 0.0
O937 O 0.66841 0.0773 0.70409 0.0
Co938 Co 0.17051 0.39522 0.93167 0.0
O939 O 0.14518 0.39943 0.90979 0.0
O940 O 0.14486 0.37323 0.93413 0.0
C941 C 0.14874 0.40237 0.96381 0.0
O942 O 0.19419 0.38861 0.95484 0.0
Co943 Co 0.17822 0.4124 0.92434 0.0
O944 O 0.2062 0.41987 0.94193 0.0
C945 C 0.19006 0.37717 0.89643 0.0
C946 C 0.13479 0.3825 0.91745 0.0
C947 C 0.20869 0.4041 0.95579 0.0
O948 O 0.18227 0.36965 0.91447 0.0
O949 O 0.18968 0.39839 0.89475 0.0
O950 O 0.15183 0.38255 0.95576 0.0
O951 O 0.15729 0.41822 0.95188 0.0
Co952 Co 0.36754 0.45413 0.65716 0.0
O953 O 0.36216 0.43084 0.63313 0.0
O954 O 0.39012 0.42941 0.65525 0.0
C955 C 0.36286 0.42833 0.68702 0.0
O956 O 0.3764 0.4746 0.68275 0.0
Co957 Co 0.34942 0.46306 0.65325 0.0
O958 O 0.341 0.47835 0.68249 0.0
C959 C 0.38181 0.4795 0.62392 0.0
C960 C 0.37988 0.42025 0.63862 0.0
C961 C 0.35915 0.48194 0.69272 0.0
O962 O 0.39111 0.46832 0.63916 0.0
O963 O 0.36059 0.48023 0.62508 0.0
O964 O 0.38203 0.43305 0.67833 0.0
O965 O 0.34619 0.43791 0.67735 0.0
Co966 Co 0.68953 0.11664 0.07567 0.0
O967 O 0.6668 0.11098 0.10013 0.0
O968 O 0.66537 0.13989 0.07925 0.0
C969 C 0.66349 0.11479 0.04602 0.0
O970 O 0.71014 0.12495 0.05007 0.0
Co971 Co 0.69731 0.09823 0.07937 0.0
O972 O 0.71648 0.08981 0.05268 0.0
C973 C 0.71579 0.12934 0.10881 0.0
C974 C 0.65648 0.12909 0.09568 0.0
C975 C 0.71954 0.10772 0.04184 0.0
O976 O 0.70485 0.1393 0.09388 0.0
O977 O 0.71524 0.10809 0.10753 0.0
O978 O 0.66891 0.13323 0.05589 0.0
O979 O 0.67226 0.09711 0.05483 0.0
Co980 Co 0.66788 0.92541 0.80398 0.0
O981 O 0.66514 0.89876 0.82435 0.0
O982 O 0.63672 0.91822 0.81465 0.0
C983 C 0.64654 0.90885 0.77493 0.0
O984 O 0.66696 0.95297 0.7845 0.0
Co985 Co 0.68814 0.92145 0.80069 0.0
O986 O 0.69929 0.94091 0.77507 0.0
C987 C 0.68242 0.94516 0.84037 0.0
C988 C 0.64416 0.90184 0.82657 0.0
C989 C 0.68411 0.95531 0.77229 0.0
O990 O 0.6646 0.94568 0.82926 0.0
O991 O 0.69831 0.93412 0.83156 0.0
O992 O 0.63796 0.92181 0.78989 0.0
O993 O 0.66756 0.90496 0.77761 0.0
Co994 Co 0.85363 0.05413 0.31216 0.0
O995 O 0.84876 0.07751 0.33608 0.0
O996 O 0.87435 0.0808 0.31134 0.0
C997 C 0.84476 0.0781 0.28202 0.0
O998 O 0.86095 0.03278 0.28707 0.0
Co999 Co 0.83706 0.0448 0.31904 0.0
O1000 O 0.83023 0.01846 0.29871 0.0
C1001 C 0.87357 0.03284 0.34529 0.0
C1002 C 0.86512 0.08915 0.32895 0.0
C1003 C 0.84603 0.01788 0.28472 0.0
O1004 O 0.88014 0.04245 0.32778 0.0
O1005 O 0.85244 0.03175 0.34738 0.0
O1006 O 0.86484 0.07529 0.2894 0.0
O1007 O 0.82963 0.06778 0.29348 0.0
Co1008 Co 0.42536 0.19379 0.07972 0.0
O1009 O 0.39743 0.17497 0.0786 0.0
O1010 O 0.41087 0.18687 0.10955 0.0
C1011 C 0.40761 0.22586 0.09415 0.0
O1012 O 0.45361 0.21164 0.0842 0.0
Co1013 Co 0.42554 0.19395 0.05919 0.0
O1014 O 0.45137 0.21354 0.04853 0.0
C1015 C 0.44255 0.15366 0.075 0.0
C1016 C 0.39613 0.17448 0.09985 0.0
C1017 C 0.46198 0.2188 0.06604 0.0
O1018 O 0.44249 0.16808 0.09026 0.0
O1019 O 0.43481 0.16026 0.05631 0.0
O1020 O 0.41676 0.21089 0.10674 0.0
O1021 O 0.40782 0.22111 0.07308 0.0
Co1022 Co 0.55571 0.68264 0.83462 0.0
O1023 O 0.57667 0.65657 0.83743 0.0
O1024 O 0.56577 0.6753 0.866 0.0
C1025 C 0.5264 0.66489 0.85423 0.0
O1026 O 0.53557 0.70979 0.83521 0.0
Co1027 Co 0.55373 0.67924 0.8142 0.0
O1028 O 0.53099 0.70065 0.80087 0.0
C1029 C 0.59182 0.70462 0.82217 0.0
C1030 C 0.57866 0.65976 0.85842 0.0
C1031 C 0.5262 0.71392 0.81659 0.0
O1032 O 0.58015 0.70358 0.8396 0.0
O1033 O 0.58409 0.69397 0.80548 0.0
O1034 O 0.54068 0.67785 0.8639 0.0
O1035 O 0.5301 0.66161 0.83326 0.0
Co1036 Co 0.05038 0.80804 0.58131 0.0
O1037 O 0.07735 0.82822 0.58044 0.0
O1038 O 0.06405 0.81568 0.61129 0.0
C1039 C 0.06955 0.77694 0.59618 0.0
O1040 O 0.02298 0.78891 0.58559 0.0
Co1041 Co 0.05035 0.8076 0.56073 0.0
O1042 O 0.02523 0.78723 0.54992 0.0
C1043 C 0.03082 0.84698 0.57591 0.0
C1044 C 0.07835 0.82868 0.60171 0.0
C1045 C 0.01485 0.78155 0.56743 0.0
O1046 O 0.03187 0.8329 0.59146 0.0
O1047 O 0.03892 0.84056 0.55732 0.0
O1048 O 0.0594 0.79143 0.60853 0.0
O1049 O 0.06939 0.78159 0.57507 0.0
Co1050 Co 0.92914 0.32202 0.34485 0.0
O1051 O 0.90594 0.34646 0.34491 0.0
O1052 O 0.91478 0.32876 0.37476 0.0
C1053 C 0.9546 0.34176 0.36727 0.0
O1054 O 0.95155 0.29706 0.34829 0.0
Co1055 Co 0.93156 0.32567 0.3251 0.0
O1056 O 0.95305 0.30216 0.31289 0.0
C1057 C 0.89335 0.30078 0.33045 0.0
C1058 C 0.90149 0.34298 0.36545 0.0
C1059 C 0.95991 0.29129 0.32969 0.0
O1060 O 0.90591 0.29908 0.34724 0.0
O1061 O 0.90041 0.3136 0.31505 0.0
O1062 O 0.94 0.32818 0.37558 0.0
O1063 O 0.95293 0.34467 0.34595 0.0
Co1064 Co 0.43763 0.80451 0.40104 0.0
O1065 O 0.41263 0.82708 0.40102 0.0
O1066 O 0.42526 0.81283 0.37065 0.0
C1067 C 0.41582 0.77506 0.38643 0.0
O1068 O 0.46312 0.78282 0.39752 0.0
Co1069 Co 0.43724 0.80446 0.42165 0.0
O1070 O 0.4596 0.78135 0.43309 0.0
C1071 C 0.46019 0.84181 0.40605 0.0
C1072 C 0.4121 0.82728 0.37973 0.0
C1073 C 0.46982 0.77458 0.41588 0.0
O1074 O 0.45855 0.8274 0.39086 0.0
O1075 O 0.45105 0.83656 0.42453 0.0
O1076 O 0.42749 0.7883 0.37398 0.0
O1077 O 0.41611 0.78005 0.40744 0.0
Co1078 Co 0.92659 0.68113 0.15279 0.0
O1079 O 0.90863 0.65292 0.14874 0.0
O1080 O 0.91646 0.67438 0.12117 0.0
C1081 C 0.95704 0.66727 0.13192 0.0
O1082 O 0.94363 0.70992 0.15297 0.0
Co1083 Co 0.92843 0.67637 0.1728 0.0
O1084 O 0.95134 0.69832 0.18585 0.0
C1085 C 0.88634 0.69385 0.16437 0.0
C1086 C 0.90554 0.6571 0.12809 0.0
C1087 C 0.95422 0.71313 0.17099 0.0
O1088 O 0.90004 0.69983 0.14958 0.0
O1089 O 0.89415 0.68066 0.17913 0.0
O1090 O 0.94151 0.67934 0.12307 0.0
O1091 O 0.95407 0.66279 0.15279 0.0
Co1092 Co 0.06344 0.18912 0.91522 0.0
O1093 O 0.08864 0.16673 0.91417 0.0
O1094 O 0.07618 0.18251 0.88453 0.0
C1095 C 0.08402 0.21994 0.90192 0.0
O1096 O 0.03816 0.21126 0.91289 0.0
Co1097 Co 0.06406 0.18758 0.93543 0.0
O1098 O 0.04013 0.20788 0.94853 0.0
C1099 C 0.04123 0.15114 0.91844 0.0
C1100 C 0.08929 0.16758 0.8929 0.0
C1101 C 0.03086 0.2171 0.93194 0.0
O1102 O 0.04267 0.16636 0.90399 0.0
O1103 O 0.0506 0.15536 0.93703 0.0
O1104 O 0.07339 0.20642 0.88884 0.0
O1105 O 0.08414 0.21379 0.92267 0.0
Co1106 Co 0.55438 0.29883 0.67093 0.0
O1107 O 0.57668 0.32355 0.66609 0.0
O1108 O 0.56781 0.30111 0.63975 0.0
C1109 C 0.52779 0.31425 0.64633 0.0
O1110 O 0.53293 0.27303 0.67271 0.0
Co1111 Co 0.5522 0.30629 0.69001 0.0
O1112 O 0.5264 0.28902 0.70413 0.0
C1113 C 0.59076 0.28097 0.68767 0.0
C1114 C 0.5806 0.31723 0.64617 0.0
C1115 C 0.52182 0.27331 0.69074 0.0
O1116 O 0.57784 0.27625 0.67177 0.0
O1117 O 0.58412 0.29653 0.70054 0.0
O1118 O 0.54219 0.29949 0.64001 0.0
O1119 O 0.53 0.32072 0.66677 0.0
Co1120 Co 0.07471 0.43408 0.17604 0.0
O1121 O 0.08468 0.40793 0.15735 0.0
O1122 O 0.10761 0.43323 0.16819 0.0
C1123 C 0.09557 0.42244 0.20751 0.0
O1124 O 0.06855 0.46161 0.19421 0.0
Co1125 Co 0.05568 0.42571 0.17654 0.0
O1126 O 0.03803 0.44369 0.19958 0.0
C1127 C 0.06231 0.44728 0.1361 0.0
C1128 C 0.10457 0.41549 0.15631 0.0
C1129 C 0.04969 0.46085 0.20373 0.0
O1130 O 0.07614 0.45423 0.15036 0.0
O1131 O 0.04944 0.43166 0.14265 0.0
O1132 O 0.1032 0.43658 0.19309 0.0
O1133 O 0.07607 0.41461 0.20288 0.0
Co1134 Co 0.2966 0.35925 0.9136 0.0
O1135 O 0.31817 0.35468 0.88834 0.0
O1136 O 0.30602 0.3872 0.89654 0.0
C1137 C 0.32149 0.38089 0.93525 0.0
O1138 O 0.2745 0.36616 0.93851 0.0
Co1139 Co 0.29872 0.33926 0.91814 0.0
O1140 O 0.28309 0.3324 0.94732 0.0
C1141 C 0.26626 0.34434 0.88527 0.0
C1142 C 0.31811 0.37533 0.88324 0.0
C1143 C 0.27217 0.34984 0.95202 0.0
O1144 O 0.27176 0.3632 0.89278 0.0
O1145 O 0.27668 0.32787 0.89377 0.0
O1146 O 0.30705 0.38971 0.92187 0.0
O1147 O 0.3221 0.35931 0.93482 0.0
Co1148 Co 0.41313 0.55025 0.67583 0.0
O1149 O 0.40276 0.57601 0.65672 0.0
O1150 O 0.38043 0.55 0.66725 0.0
C1151 C 0.39116 0.56181 0.70661 0.0
O1152 O 0.41928 0.52298 0.69435 0.0
Co1153 Co 0.43202 0.55908 0.67692 0.0
O1154 O 0.44865 0.54205 0.70153 0.0
C1155 C 0.42669 0.5378 0.63614 0.0
C1156 C 0.38314 0.56778 0.65532 0.0
C1157 C 0.43736 0.52451 0.70514 0.0
O1158 O 0.41312 0.52998 0.65024 0.0
O1159 O 0.43862 0.55403 0.64294 0.0
O1160 O 0.3843 0.54719 0.69231 0.0
O1161 O 0.41059 0.56998 0.70241 0.0
Co1162 Co 0.18088 0.62198 0.42016 0.0
O1163 O 0.15999 0.62733 0.39441 0.0
O1164 O 0.17001 0.59431 0.4035 0.0
C1165 C 0.15452 0.6025 0.4419 0.0
O1166 O 0.20204 0.61431 0.44565 0.0
Co1167 Co 0.18011 0.64191 0.42335 0.0
O1168 O 0.20221 0.65015 0.44763 0.0
C1169 C 0.21108 0.63393 0.39015 0.0
C1170 C 0.15906 0.60664 0.38963 0.0
C1171 C 0.2095 0.63182 0.45519 0.0
O1172 O 0.20571 0.61597 0.39974 0.0
O1173 O 0.20111 0.65126 0.3973 0.0
O1174 O 0.1684 0.59246 0.42877 0.0
O1175 O 0.15536 0.62408 0.44098 0.0
Co1176 Co 0.07061 0.55352 0.30122 0.0
O1177 O 0.0796 0.57916 0.32111 0.0
O1178 O 0.10273 0.55344 0.31184 0.0
C1179 C 0.0942 0.56526 0.27179 0.0
O1180 O 0.06553 0.52641 0.2822 0.0
Co1181 Co 0.05187 0.56232 0.29939 0.0
O1182 O 0.03575 0.54479 0.27485 0.0
C1183 C 0.05499 0.54048 0.34006 0.0
C1184 C 0.09909 0.57101 0.32381 0.0
C1185 C 0.04747 0.52755 0.27131 0.0
O1186 O 0.06931 0.53296 0.32658 0.0
O1187 O 0.04338 0.55677 0.33287 0.0
O1188 O 0.10037 0.55074 0.28651 0.0
O1189 O 0.07456 0.57338 0.27497 0.0
Co1190 Co 0.19229 0.35889 0.0695 0.0
O1191 O 0.17104 0.35455 0.09509 0.0
O1192 O 0.18134 0.38719 0.08481 0.0
C1193 C 0.166 0.37753 0.04671 0.0
O1194 O 0.21394 0.36577 0.04423 0.0
Co1195 Co 0.19145 0.33852 0.06605 0.0
O1196 O 0.20632 0.33155 0.03645 0.0
C1197 C 0.22335 0.34765 0.09867 0.0
C1198 C 0.17002 0.37546 0.09893 0.0
C1199 C 0.21656 0.34924 0.03108 0.0
O1200 O 0.21679 0.36563 0.08995 0.0
O1201 O 0.21402 0.33007 0.09116 0.0
O1202 O 0.17992 0.38806 0.05939 0.0
O1203 O 0.16679 0.35603 0.04843 0.0
Co1204 Co 0.41232 0.43344 0.80396 0.0
O1205 O 0.4028 0.4076 0.82338 0.0
O1206 O 0.37957 0.43258 0.8125 0.0
C1207 C 0.39085 0.42121 0.77318 0.0
O1208 O 0.418 0.46066 0.78506 0.0
Co1209 Co 0.43138 0.42511 0.80315 0.0
O1210 O 0.44813 0.4424 0.77889 0.0
C1211 C 0.42564 0.44739 0.84331 0.0
C1212 C 0.38289 0.41507 0.82466 0.0
C1213 C 0.43645 0.45954 0.77478 0.0
O1214 O 0.41141 0.454 0.82928 0.0
O1215 O 0.43844 0.43176 0.83673 0.0
O1216 O 0.38348 0.43554 0.78752 0.0
O1217 O 0.41045 0.4135 0.77752 0.0
Co1218 Co 0.29223 0.62334 0.57097 0.0
O1219 O 0.31413 0.62779 0.59602 0.0
O1220 O 0.30355 0.59512 0.58634 0.0
C1221 C 0.31791 0.60435 0.54785 0.0
O1222 O 0.26995 0.6166 0.54616 0.0
Co1223 Co 0.29319 0.6436 0.56755 0.0
O1224 O 0.27798 0.65067 0.53815 0.0
C1225 C 0.26223 0.6346 0.60114 0.0
C1226 C 0.3153 0.60692 0.6 0.0
C1227 C 0.26733 0.63316 0.53298 0.0
O1228 O 0.26823 0.61666 0.59202 0.0
O1229 O 0.27154 0.65214 0.59348 0.0
O1230 O 0.30418 0.59405 0.56095 0.0
O1231 O 0.31726 0.62588 0.5493 0.0
Co1232 Co 0.17419 0.09216 0.43094 0.0
O1233 O 0.14924 0.09115 0.40848 0.0
O1234 O 0.15974 0.12183 0.42383 0.0
C1235 C 0.19806 0.1134 0.40758 0.0
O1236 O 0.19812 0.09668 0.45439 0.0
Co1237 Co 0.17791 0.0718 0.42813 0.0
O1238 O 0.20605 0.06301 0.44504 0.0
C1239 C 0.14303 0.07746 0.4583 0.0
C1240 C 0.14549 0.11201 0.41096 0.0
C1241 C 0.21074 0.07981 0.45695 0.0
O1242 O 0.15283 0.09583 0.45529 0.0
O1243 O 0.15071 0.0611 0.4471 0.0
O1244 O 0.1851 0.12245 0.42224 0.0
O1245 O 0.19619 0.09198 0.40605 0.0
Co1246 Co 0.6707 0.38038 0.56583 0.0
O1247 O 0.64987 0.38049 0.59217 0.0
O1248 O 0.66049 0.34985 0.57733 0.0
C1249 C 0.70037 0.3627 0.58436 0.0
O1250 O 0.6916 0.37818 0.53928 0.0
Co1251 Co 0.67089 0.40043 0.56795 0.0
O1252 O 0.69014 0.41382 0.54351 0.0
C1253 C 0.63273 0.3888 0.54484 0.0
C1254 C 0.6478 0.35935 0.59191 0.0
C1255 C 0.69794 0.39744 0.53271 0.0
O1256 O 0.64628 0.37275 0.54545 0.0
O1257 O 0.63913 0.40638 0.55492 0.0
O1258 O 0.68549 0.35171 0.57323 0.0
O1259 O 0.69637 0.38391 0.58606 0.0
Co1260 Co 0.37397 0.92277 0.29174 0.0
O1261 O 0.36531 0.89395 0.3071 0.0
O1262 O 0.39307 0.91337 0.31835 0.0
C1263 C 0.36777 0.94649 0.32261 0.0
O1264 O 0.38438 0.95185 0.27766 0.0
Co1265 Co 0.35729 0.91999 0.28111 0.0
O1266 O 0.35422 0.94571 0.25925 0.0
C1267 C 0.39104 0.89382 0.26299 0.0
C1268 C 0.3816 0.89524 0.32061 0.0
C1269 C 0.37077 0.95838 0.26267 0.0
O1270 O 0.39912 0.90788 0.2764 0.0
O1271 O 0.36984 0.89412 0.26161 0.0
O1272 O 0.38683 0.93718 0.31851 0.0
O1273 O 0.35183 0.93983 0.30961 0.0
Co1274 Co 0.80622 0.59481 0.05869 0.0
O1275 O 0.83043 0.59306 0.08197 0.0
O1276 O 0.82101 0.62423 0.06719 0.0
C1277 C 0.78163 0.61605 0.08067 0.0
O1278 O 0.78244 0.59927 0.03507 0.0
Co1279 Co 0.80402 0.57493 0.06141 0.0
O1280 O 0.7809 0.56367 0.03924 0.0
C1281 C 0.84024 0.58175 0.03383 0.0
C1282 C 0.83466 0.61384 0.08025 0.0
C1283 C 0.77352 0.58084 0.02935 0.0
O1284 O 0.82832 0.59903 0.03497 0.0
O1285 O 0.83348 0.5653 0.04549 0.0
O1286 O 0.79575 0.62512 0.06708 0.0
O1287 O 0.78343 0.59456 0.08239 0.0
Co1288 Co 0.65655 0.55358 0.30595 0.0
O1289 O 0.65372 0.57186 0.33396 0.0
O1290 O 0.62528 0.56422 0.31375 0.0
C1291 C 0.63564 0.52337 0.31994 0.0
O1292 O 0.65656 0.53618 0.27735 0.0
Co1293 Co 0.67646 0.55191 0.31039 0.0
O1294 O 0.6899 0.5295 0.28841 0.0
C1295 C 0.66791 0.59331 0.29114 0.0
C1296 C 0.63302 0.57519 0.33061 0.0
C1297 C 0.67492 0.5262 0.27387 0.0
O1298 O 0.6524 0.57978 0.28708 0.0
O1299 O 0.68361 0.58563 0.30325 0.0
O1300 O 0.62676 0.53922 0.30831 0.0
O1301 O 0.6566 0.52615 0.3243 0.0
Co1302 Co 0.30534 0.89216 0.92576 0.0
O1303 O 0.32804 0.89513 0.90128 0.0
O1304 O 0.32067 0.86345 0.91634 0.0
C1305 C 0.28053 0.87016 0.90431 0.0
O1306 O 0.2835 0.8865 0.95111 0.0
Co1307 Co 0.30087 0.91218 0.92351 0.0
O1308 O 0.27581 0.92094 0.94443 0.0
C1309 C 0.33719 0.90783 0.95203 0.0
C1310 C 0.33299 0.87445 0.90246 0.0
C1311 C 0.2719 0.90365 0.95593 0.0
O1312 O 0.32885 0.88891 0.9482 0.0
O1313 O 0.32777 0.92405 0.94202 0.0
O1314 O 0.29519 0.86151 0.91755 0.0
O1315 O 0.28135 0.89166 0.90288 0.0
Co1316 Co 0.3652 0.07843 0.18802 0.0
O1317 O 0.35265 0.10582 0.17275 0.0
O1318 O 0.38093 0.08851 0.15953 0.0
C1319 C 0.3587 0.05288 0.15872 0.0
O1320 O 0.37952 0.05093 0.20191 0.0
Co1321 Co 0.34938 0.08005 0.19996 0.0
O1322 O 0.35101 0.05547 0.22316 0.0
C1323 C 0.38205 0.10923 0.21502 0.0
C1324 C 0.36774 0.10548 0.15785 0.0
C1325 C 0.36817 0.04407 0.21856 0.0
O1326 O 0.39006 0.0961 0.20067 0.0
O1327 O 0.3612 0.10695 0.21837 0.0
O1328 O 0.377 0.06422 0.16063 0.0
O1329 O 0.34333 0.05871 0.17275 0.0
Co1330 Co 0.11528 0.92081 0.69215 0.0
O1331 O 0.12565 0.8933 0.67557 0.0
O1332 O 0.09786 0.91253 0.66408 0.0
C1333 C 0.12207 0.94681 0.66329 0.0
O1334 O 0.10314 0.9486 0.70741 0.0
Co1335 Co 0.13145 0.91788 0.70336 0.0
O1336 O 0.1322 0.94179 0.72726 0.0
C1337 C 0.09777 0.89004 0.71881 0.0
C1338 C 0.11002 0.89495 0.66134 0.0
C1339 C 0.11555 0.95429 0.72373 0.0
O1340 O 0.08997 0.90416 0.70529 0.0
O1341 O 0.11884 0.89101 0.72135 0.0
O1342 O 0.10322 0.9365 0.66571 0.0
O1343 O 0.13762 0.93973 0.67653 0.0
C1344 C 0.12308 0.22166 0.36086 0.0
C1345 C 0.11372 0.22233 0.33914 0.0
H1346 H 0.12435 0.23924 0.39223 0.0
C1347 C 0.11269 0.24314 0.32834 0.0
H1348 H 0.12534 0.20563 0.36917 0.0
C1349 C 0.11257 0.26261 0.34142 0.0
C1350 C 0.11411 0.26093 0.36497 0.0
H1351 H 0.10679 0.24424 0.31119 0.0
H1352 H 0.1074 0.27819 0.33359 0.0
C1353 C 0.12223 0.24094 0.37427 0.0
C1354 C 0.00218 0.87832 0.61573 0.0
C1355 C 0.98104 0.87206 0.60765 0.0
H1356 H 0.03724 0.87766 0.6089 0.0
C1357 C 0.978 0.87025 0.58426 0.0
H1358 H 0.00499 0.88059 0.63353 0.0
C1359 C -0.00336 0.86811 0.57023 0.0
C1360 C 0.018 0.8676 0.57985 0.0
H1361 H 0.96162 0.86646 0.57738 0.0
H1362 H -0.00593 0.86199 0.55331 0.0
C1363 C 0.02071 0.87688 0.60142 0.0
C1364 C 0.36567 0.77968 0.83872 0.0
C1365 C 0.37693 0.77862 0.81798 0.0
H1366 H 0.35771 0.76128 0.86851 0.0
C1367 C 0.37734 0.75815 0.80656 0.0
H1368 H 0.36449 0.79554 0.84755 0.0
C1369 C 0.37286 0.73839 0.8184 0.0
C1370 C 0.36842 0.73938 0.84163 0.0
H1371 H 0.38535 0.75692 0.7903 0.0
H1372 H 0.37698 0.72255 0.81049 0.0
C1373 C 0.36192 0.75997 0.85089 0.0
C1374 C 0.4748 0.12952 0.06978 0.0
C1375 C 0.45362 0.13213 0.07943 0.0
H1376 H 0.50984 0.12831 0.07684 0.0
C1377 C 0.45018 0.12358 0.10123 0.0
H1378 H 0.47782 0.13502 0.05272 0.0
C1379 C 0.46856 0.12085 0.11553 0.0
C1380 C 0.4901 0.12516 0.10727 0.0
H1381 H 0.43366 0.1244 0.10874 0.0
H1382 H 0.46561 0.11934 0.1334 0.0
C1383 C 0.49322 0.12603 0.08383 0.0
C1384 C 0.10875 0.75945 0.16195 0.0
C1385 C 0.10721 0.7795 0.14983 0.0
H1386 H 0.11006 0.72375 0.15932 0.0
C1387 C 0.1158 0.78011 0.12784 0.0
H1388 H 0.10271 0.75861 0.17907 0.0
C1389 C 0.11922 0.76007 0.11615 0.0
C1390 C 0.11474 0.73961 0.12686 0.0
H1391 H 0.11534 0.79562 0.11833 0.0
H1392 H 0.12155 0.7608 0.09815 0.0
C1393 C 0.11267 0.73941 0.15043 0.0
C1394 C 0.49543 0.86112 0.4117 0.0
C1395 C 0.47421 0.86158 0.4018 0.0
H1396 H 0.53034 0.85702 0.40507 0.0
C1397 C 0.47234 0.87041 0.37993 0.0
H1398 H 0.49739 0.85539 0.42884 0.0
C1399 C 0.49108 0.87019 0.36581 0.0
C1400 C 0.51164 0.8628 0.37437 0.0
H1401 H 0.45596 0.872 0.37224 0.0
H1402 H 0.48859 0.87199 0.34791 0.0
C1403 C 0.51433 0.86165 0.39785 0.0
C1404 C 0.35354 0.21229 0.64882 0.0
C1405 C 0.36308 0.21308 0.67042 0.0
H1406 H 0.35196 0.22979 0.61742 0.0
C1407 C 0.36366 0.23396 0.68117 0.0
H1408 H 0.35141 0.19623 0.64056 0.0
C1409 C 0.36375 0.25345 0.66805 0.0
C1410 C 0.36223 0.25171 0.64452 0.0
H1411 H 0.36946 0.23514 0.69834 0.0
H1412 H 0.3688 0.26907 0.67585 0.0
C1413 C 0.3542 0.23157 0.63535 0.0
C1414 C 0.00982 0.11767 0.87939 0.0
C1415 C 0.98888 0.1208 0.88957 0.0
H1416 H 0.04485 0.12428 0.88223 0.0
C1417 C 0.98798 0.12314 0.91309 0.0
H1418 H 0.01112 0.11517 0.86145 0.0
C1419 C 0.00739 0.12867 0.92501 0.0
C1420 C 0.02756 0.13133 0.91336 0.0
H1421 H 0.97199 0.12478 0.92156 0.0
H1422 H 0.00576 0.13476 0.94205 0.0
C1423 C 0.02923 0.12284 0.8914 0.0
C1424 C 0.38843 0.12931 0.25102 0.0
C1425 C 0.39706 0.12093 0.23083 0.0
H1426 H 0.39327 0.13063 0.28641 0.0
C1427 C 0.4203 0.11704 0.22923 0.0
H1428 H 0.3708 0.13332 0.25261 0.0
C1429 C 0.43308 0.11527 0.24878 0.0
C1430 C 0.42233 0.11705 0.26956 0.0
H1431 H 0.42774 0.11157 0.21359 0.0
H1432 H 0.44956 0.10772 0.24766 0.0
C1433 C 0.40152 0.1281 0.2704 0.0
C1434 C 0.13663 0.06411 0.49598 0.0
C1435 C 0.12784 0.07562 0.47751 0.0
H1436 H 0.14978 0.06811 0.52902 0.0
C1437 C 0.11486 0.09492 0.48157 0.0
H1438 H 0.1458 0.0486 0.49357 0.0
C1439 C 0.11801 0.10684 0.5015 0.0
C1440 C 0.13261 0.09825 0.51778 0.0
H1441 H 0.10689 0.10354 0.46768 0.0
H1442 H 0.11176 0.12387 0.50266 0.0
C1443 C 0.13937 0.07564 0.51618 0.0
C1444 C 0.05968 0.88355 0.73408 0.0
C1445 C 0.08274 0.87847 0.73471 0.0
H1446 H 0.03152 0.89346 0.75385 0.0
C1447 C 0.09159 0.86884 0.75424 0.0
H1448 H 0.05202 0.89001 0.71892 0.0
C1449 C 0.07919 0.86984 0.7741 0.0
C1450 C 0.05895 0.88194 0.77442 0.0
H1451 H 0.10904 0.86391 0.75507 0.0
H1452 H 0.0878 0.86622 0.7897 0.0
C1453 C 0.04763 0.88508 0.75411 0.0
C1454 C 0.36481 0.89128 0.97699 0.0
C1455 C 0.35152 0.91011 0.97186 0.0
H1456 H 0.36955 0.86439 0.00035 0.0
C1457 C 0.34259 0.92265 0.98958 0.0
H1458 H 0.37265 0.8818 0.96361 0.0
C1459 C 0.3408 0.91272 0.01073 0.0
C1460 C 0.34844 0.89059 0.01401 0.0
H1461 H 0.33292 0.93768 0.98623 0.0
H1462 H 0.3305 0.92094 0.02323 0.0
C1463 C 0.36271 0.88107 -0.00202 0.0
C1464 C 0.40829 0.86985 0.20826 0.0
C1465 C 0.42823 0.88234 0.20619 0.0
H1466 H 0.37894 0.86555 0.22858 0.0
C1467 C 0.4402 0.88706 0.22582 0.0
H1468 H 0.39937 0.86464 0.1933 0.0
C1469 C 0.42864 0.88755 0.24621 0.0
C1470 C 0.40564 0.88219 0.24674 0.0
H1471 H 0.45631 0.89541 0.22486 0.0
H1472 H 0.43672 0.89533 0.2605 0.0
C1473 C 0.39632 0.8708 0.22841 0.0
C1474 C 0.37099 0.11558 0.47863 0.0
C1475 C 0.35733 0.10539 0.46246 0.0
H1476 H 0.38135 0.11454 0.51283 0.0
C1477 C 0.35199 0.08248 0.46487 0.0
H1478 H 0.37613 0.13294 0.47687 0.0
C1479 C 0.35503 0.07197 0.48559 0.0
C1480 C 0.36282 0.08471 0.5037 0.0
H1481 H 0.3423 0.07381 0.45218 0.0
H1482 H 0.34685 0.05597 0.48845 0.0
C1483 C 0.37433 0.10482 0.49917 0.0
C1484 C 0.09836 0.12824 0.73953 0.0
C1485 C 0.08884 0.11698 0.75786 0.0
H1486 H 0.09479 0.13551 0.70471 0.0
C1487 C 0.06554 0.11308 0.75787 0.0
H1488 H 0.11603 0.13238 0.73933 0.0
C1489 C 0.05349 0.1148 0.73784 0.0
C1490 C 0.06517 0.11938 0.71799 0.0
H1491 H 0.05738 0.10544 0.77221 0.0
H1492 H 0.03687 0.10748 0.73717 0.0
C1493 C 0.08593 0.13048 0.71977 0.0
C1494 C 0.13701 0.91293 0.97071 0.0
C1495 C 0.12897 0.89074 0.96915 0.0
H1496 H 0.14568 0.93939 0.99325 0.0
C1497 C 0.11467 0.88266 0.98597 0.0
H1498 H 0.14733 0.92003 0.95754 0.0
C1499 C 0.11301 0.89439 0.00617 0.0
C1500 C 0.12675 0.91325 0.00977 0.0
H1501 H 0.10753 0.86598 0.9849 0.0
H1502 H 0.10519 0.886 0.02029 0.0
C1503 C 0.13566 0.92436 0.9911 0.0
C1504 C 0.24943 0.3683 0.12219 0.0
C1505 C 0.24464 0.34806 0.11096 0.0
H1506 H 0.27012 0.39768 0.1216 0.0
C1507 C 0.2624 0.33641 0.10099 0.0
H1508 H 0.23619 0.37713 0.13095 0.0
C1509 C 0.28202 0.34809 0.09574 0.0
C1510 C 0.28376 0.3711 0.10096 0.0
H1511 H 0.25951 0.32032 0.09304 0.0
H1512 H 0.29397 0.34018 0.08458 0.0
C1513 C 0.26876 0.38028 0.11653 0.0
C1514 C 0.70687 0.15378 0.86002 0.0
C1515 C 0.70946 0.17509 0.87001 0.0
H1516 H 0.72122 0.1207 0.85924 0.0
C1517 C 0.73114 0.184 0.87042 0.0
H1518 H 0.69022 0.14712 0.85733 0.0
C1519 C 0.74925 0.16911 0.87106 0.0
C1520 C 0.7453 0.14579 0.8698 0.0
H1521 H 0.73383 0.20109 0.87602 0.0
H1522 H 0.76544 0.17549 0.87627 0.0
C1523 C 0.72464 0.13843 0.86138 0.0
C1524 C 0.0853 0.45373 0.10407 0.0
C1525 C 0.0637 0.45632 0.11327 0.0
H1526 H 0.1176 0.46952 0.10232 0.0
C1527 C 0.05388 0.47757 0.11134 0.0
H1528 H 0.09278 0.43717 0.10339 0.0
C1529 C 0.06789 0.49639 0.11053 0.0
C1530 C 0.09132 0.49341 0.11005 0.0
H1531 H 0.03658 0.47998 0.1163 0.0
H1532 H 0.06072 0.51271 0.1141 0.0
C1533 C 0.09972 0.47233 0.10378 0.0
C1534 C 0.79011 0.84382 0.37158 0.0
C1535 C 0.79057 0.82261 0.38206 0.0
H1536 H 0.76945 0.8727 0.36592 0.0
C1537 C 0.77125 0.80938 0.38096 0.0
H1538 H 0.80521 0.85393 0.37103 0.0
C1539 C 0.75063 0.81994 0.37756 0.0
C1540 C 0.74984 0.84344 0.37487 0.0
H1541 H 0.77132 0.7925 0.38775 0.0
H1542 H 0.7355 0.8105 0.38106 0.0
C1543 C 0.76954 0.85476 0.36891 0.0
C1544 C 0.90358 0.96047 0.13745 0.0
C1545 C 0.88071 0.95765 0.13225 0.0
H1546 H 0.92966 0.98454 0.14238 0.0
C1547 C 0.87026 0.97357 0.11846 0.0
H1548 H 0.91245 0.94799 0.14725 0.0
C1549 C 0.88069 -0.00573 0.11489 0.0
C1550 C 0.90075 -0.00077 0.12626 0.0
H1551 H 0.85294 0.97153 0.11344 0.0
H1552 H 0.87077 0.00773 0.10773 0.0
C1553 C 0.91373 0.98137 0.13425 0.0
C1554 C 0.22351 0.64637 0.60518 0.0
C1555 C 0.24143 0.63428 0.61426 0.0
H1556 H 0.19126 0.64337 0.58999 0.0
C1557 C 0.23675 0.61392 0.62537 0.0
H1558 H 0.22635 0.66255 0.59735 0.0
C1559 C 0.217 0.60234 0.62034 0.0
C1560 C 0.20157 0.61204 0.60553 0.0
H1561 H 0.25017 0.60471 0.63346 0.0
H1562 H 0.21554 0.58487 0.62517 0.0
C1563 C 0.20352 0.63509 0.60054 0.0
C1564 C 0.09207 0.5179 0.3736 0.0
C1565 C 0.08458 0.49647 0.36732 0.0
H1566 H 0.08369 0.55272 0.37389 0.0
C1567 C 0.06129 0.49254 0.36653 0.0
H1568 H 0.10979 0.52142 0.37533 0.0
C1569 C 0.04658 0.51078 0.36541 0.0
C1570 C 0.05566 0.53236 0.36328 0.0
H1571 H 0.05482 0.47592 0.363 0.0
H1572 H 0.02946 0.50764 0.36025 0.0
C1573 C 0.07688 0.53587 0.37307 0.0
C1574 C 0.43487 0.47821 0.86699 0.0
C1575 C 0.42491 0.45695 0.86594 0.0
H1576 H 0.42811 0.51327 0.86326 0.0
C1577 C 0.40355 0.45471 0.87578 0.0
H1578 H 0.45206 0.4804 0.86156 0.0
C1579 C 0.3892 0.47335 0.87581 0.0
C1580 C 0.39754 0.4942 0.86867 0.0
H1581 H 0.39602 0.4382 0.87719 0.0
H1582 H 0.37136 0.47065 0.87782 0.0
C1583 C 0.42096 0.49709 0.86752 0.0
C1584 C 0.90424 0.76084 0.65827 0.0
C1585 C 0.89768 0.77985 0.64621 0.0
H1586 H 0.90645 0.72509 0.65778 0.0
C1587 C 0.88155 0.77768 0.62917 0.0
H1588 H 0.91637 0.76221 0.67171 0.0
C1589 C 0.87614 0.75653 0.62084 0.0
C1590 C 0.88663 0.73755 0.62984 0.0
H1591 H 0.87588 0.7923 0.61998 0.0
H1592 H 0.86635 0.75538 0.60558 0.0
C1593 C 0.89864 0.73959 0.6501 0.0
C1594 C 0.96663 0.14921 0.3671 0.0
C1595 C 0.9607 0.16095 0.3867 0.0
H1596 H 0.9925 0.14328 0.34294 0.0
C1597 C 0.97758 0.16799 0.40136 0.0
H1598 H 0.95375 0.14326 0.35574 0.0
C1599 C -0.00019 0.16786 0.39409 0.0
C1600 C 0.00506 0.16068 0.3722 0.0
H1601 H 0.97344 0.17696 0.41661 0.0
H1602 H 0.01227 0.17607 0.40444 0.0
C1603 C 0.98875 0.14949 0.35959 0.0
C1604 C 0.57307 0.23351 0.15459 0.0
C1605 C 0.57806 0.21431 0.14211 0.0
H1606 H 0.57321 0.26933 0.1547 0.0
C1607 C 0.59358 0.21574 0.12443 0.0
H1608 H 0.56133 0.23269 0.16842 0.0
C1609 C 0.60008 0.23665 0.11622 0.0
C1610 C 0.59126 0.25611 0.12592 0.0
H1611 H 0.59797 0.20093 0.11484 0.0
H1612 H 0.6094 0.23743 0.10065 0.0
C1613 C 0.57977 0.25448 0.14653 0.0
C1614 C 0.47777 0.8417 0.88587 0.0
C1615 C 0.47427 0.8491 0.86369 0.0
H1616 H 0.50237 0.83318 0.91044 0.0
C1617 C 0.4908 0.86209 0.85325 0.0
H1618 H 0.46495 0.83233 0.89471 0.0
C1619 C 0.51205 0.86349 0.86295 0.0
C1620 C 0.51694 0.85073 0.88224 0.0
H1621 H 0.48831 0.86861 0.83648 0.0
H1622 H 0.52552 0.87061 0.85303 0.0
C1623 C 0.49917 0.8426 0.89523 0.0
C1624 C 0.92104 0.23257 0.84768 0.0
C1625 C 0.90932 0.21599 0.85954 0.0
H1626 H 0.93392 0.26605 0.84848 0.0
C1627 C 0.89632 0.2222 0.87819 0.0
H1628 H 0.93132 0.22815 0.83338 0.0
C1629 C 0.8983 0.24366 0.88727 0.0
C1630 C 0.91289 0.25922 0.87743 0.0
H1631 H 0.88708 0.20961 0.88754 0.0
H1632 H 0.88995 0.24736 0.90297 0.0
C1633 C 0.92289 0.25414 0.85666 0.0
C1634 C 0.4803 0.17118 0.61006 0.0
C1635 C 0.47396 0.16038 0.63009 0.0
H1636 H 0.50759 0.18086 0.58889 0.0
C1637 C 0.48894 0.14545 0.6403 0.0
H1638 H 0.46891 0.18249 0.60156 0.0
C1639 C 0.51097 0.14407 0.63259 0.0
C1640 C 0.51831 0.15806 0.61504 0.0
H1641 H 0.48432 0.13654 0.65546 0.0
H1642 H 0.52297 0.13457 0.64241 0.0
C1643 C 0.50241 0.16993 0.60247 0.0
C1644 C 0.6022 0.75908 0.35914 0.0
C1645 C 0.58738 0.76262 0.34115 0.0
H1646 H 0.61384 0.73566 0.38369 0.0
C1647 C 0.57961 0.7442 0.32891 0.0
H1648 H 0.6088 0.77318 0.36851 0.0
C1649 C 0.58267 0.72261 0.33753 0.0
C1650 C 0.59338 0.7196 0.35839 0.0
H1651 H 0.56842 0.74658 0.31481 0.0
H1652 H 0.57399 0.70882 0.32947 0.0
C1653 C 0.60502 0.7376 0.36793 0.0
C1654 C 0.99056 0.83215 0.103 0.0
C1655 C -0.00476 0.83721 0.12563 0.0
H1656 H 0.9673 0.81694 0.08017 0.0
C1657 C 0.97754 0.83798 0.14101 0.0
H1658 H 0.00389 0.83185 0.09066 0.0
C1659 C 0.9566 0.82962 0.13489 0.0
C1660 C 0.95322 0.82052 0.11337 0.0
H1661 H 0.98055 0.84207 0.15845 0.0
H1662 H 0.94388 0.82791 0.14776 0.0
C1663 C 0.96962 0.82361 0.09691 0.0
C1664 C 0.61128 0.90892 0.75271 0.0
C1665 C 0.63309 0.90051 0.75601 0.0
H1666 H 0.58658 0.91813 0.7284 0.0
C1667 C 0.64294 0.88745 0.73921 0.0
H1668 H 0.60294 0.91847 0.76572 0.0
C1669 C 0.63293 0.88632 0.71811 0.0
C1670 C 0.61369 0.89922 0.71347 0.0
H1671 H 0.65937 0.88012 0.74159 0.0
H1672 H 0.64222 0.87844 0.70463 0.0
C1673 C 0.60162 0.9084 0.73138 0.0
C1674 C 0.84738 0.86041 0.51013 0.0
C1675 C 0.8379 0.87116 0.49157 0.0
H1676 H 0.84706 0.85772 0.54578 0.0
C1677 C 0.82731 0.89211 0.49451 0.0
H1678 H 0.8561 0.84457 0.50828 0.0
C1679 C 0.82195 0.89955 0.51604 0.0
C1680 C 0.82731 0.88605 0.53443 0.0
H1681 H 0.82038 0.90113 0.48034 0.0
H1682 H 0.81072 0.9137 0.51791 0.0
C1683 C 0.84229 0.86805 0.5316 0.0
C1684 C 0.83526 0.07339 0.22228 0.0
C1685 C 0.85621 0.08197 0.21554 0.0
H1686 H 0.81402 0.06626 0.25031 0.0
C1687 C 0.86726 0.09734 0.22939 0.0
H1688 H 0.82606 0.06191 0.21162 0.0
C1689 C 0.85964 0.10068 0.25123 0.0
C1690 C 0.84179 0.08766 0.25956 0.0
H1691 H 0.88306 0.10473 0.22432 0.0
H1692 H 0.87013 0.11022 0.26261 0.0
C1693 C 0.82805 0.07619 0.24439 0.0
C1694 C 0.66296 0.10348 0.00643 0.0
C1695 C 0.65337 0.11609 0.02371 0.0
H1696 H 0.67406 0.10371 0.97243 0.0
C1697 C 0.64156 0.13585 0.01838 0.0
H1698 H 0.6722 0.08826 0.01011 0.0
C1699 C 0.64328 0.14519 -0.003 0.0
C1700 C 0.65623 0.13442 0.98069 0.0
H1701 H 0.6338 0.14572 0.03152 0.0
H1702 H 0.63637 0.16172 -0.00604 0.0
C1703 C 0.6644 0.11265 0.98494 0.0
C1704 C 0.61433 0.07587 0.73372 0.0
C1705 C 0.63618 0.08328 0.72867 0.0
H1706 H 0.59135 0.06738 0.75995 0.0
C1707 C 0.64811 0.09547 0.74476 0.0
H1708 H 0.60442 0.06703 0.72134 0.0
C1709 C 0.63998 0.09669 0.76666 0.0
C1710 C 0.62056 0.08467 0.77276 0.0
H1711 H 0.66463 0.10204 0.74108 0.0
H1712 H 0.65076 0.10388 0.77939 0.0
C1713 C 0.60657 0.07641 0.75582 0.0
C1714 C 0.64268 0.83891 0.48457 0.0
C1715 C 0.65134 0.85151 0.50234 0.0
H1716 H 0.63995 0.83628 0.449 0.0
C1717 C 0.65747 0.87407 0.49862 0.0
H1718 H 0.63731 0.82172 0.48709 0.0
C1719 C 0.65924 0.88234 0.4768 0.0
C1720 C 0.6548 0.86804 0.45878 0.0
H1721 H 0.66363 0.88443 0.5122 0.0
H1722 H 0.66742 0.89836 0.47414 0.0
C1723 C 0.64396 0.84741 0.46281 0.0
C1724 C 0.83226 0.90045 0.25188 0.0
C1725 C 0.84492 0.88876 0.23594 0.0
H1726 H 0.83268 0.91564 0.2843 0.0
C1727 C 0.86368 0.87638 0.24307 0.0
H1728 H 0.81759 0.90991 0.24688 0.0
C1729 C 0.87293 0.88043 0.26415 0.0
C1730 C 0.86275 0.89598 0.27845 0.0
H1731 H 0.87339 0.86674 0.23112 0.0
H1732 H 0.88923 0.87346 0.26809 0.0
C1733 C 0.84119 0.90401 0.27324 0.0
C1734 C 0.83726 0.1258 0.97127 0.0
C1735 C 0.82321 0.10752 0.96623 0.0
H1736 H 0.84768 0.14898 -0.00341 0.0
C1737 C 0.81564 0.09368 0.98358 0.0
H1738 H 0.84366 0.13645 0.95798 0.0
C1739 C 0.81807 0.1008 0.00574 0.0
C1740 C 0.82802 0.12174 0.01041 0.0
H1741 H 0.80498 0.07938 0.98006 0.0
H1742 H 0.80959 0.09137 0.01876 0.0
C1743 C 0.83946 0.13309 0.99335 0.0
C1744 C 0.74086 0.64979 0.90747 0.0
C1745 C 0.75688 0.63523 0.89848 0.0
H1746 H 0.7075 0.65256 0.92003 0.0
C1747 C 0.74972 0.61533 0.88794 0.0
H1748 H 0.74591 0.66527 0.91554 0.0
C1749 C 0.72797 0.60749 0.89137 0.0
C1750 C 0.7131 0.62009 0.9044 0.0
H1751 H 0.76184 0.60404 0.88046 0.0
H1752 H 0.72367 0.59067 0.88598 0.0
C1753 C 0.71892 0.6422 0.91043 0.0
C1754 C 0.25091 0.86666 0.10925 0.0
C1755 C 0.25823 0.84833 0.09634 0.0
H1756 H 0.22485 0.89089 0.1138 0.0
C1757 C 0.24222 0.83478 0.08573 0.0
H1758 H 0.26295 0.87706 0.11804 0.0
C1759 C 0.22027 0.84262 0.08345 0.0
C1760 C 0.21447 0.86391 0.09184 0.0
H1761 H 0.24735 0.82038 0.07591 0.0
H1762 H 0.20899 0.83359 0.07244 0.0
C1763 C 0.22916 0.87478 0.10658 0.0
C1764 C 0.9042 0.49282 0.82351 0.0
C1765 C 0.88951 0.50871 0.83257 0.0
H1766 H 0.90755 0.45897 0.81227 0.0
C1767 C 0.87078 0.50124 0.84484 0.0
H1768 H 0.91886 0.49812 0.81417 0.0
C1769 C 0.86366 0.47903 0.84289 0.0
C1770 C 0.87596 0.46407 0.82966 0.0
H1771 H 0.85947 0.51327 0.85245 0.0
H1772 H 0.8474 0.47436 0.84948 0.0
C1773 C 0.89741 0.47042 0.82207 0.0
C1774 C 0.26546 0.14937 0.57792 0.0
C1775 C 0.27199 0.12804 0.5857 0.0
H1776 H 0.23775 0.17126 0.57177 0.0
C1777 C 0.25801 0.11651 0.60063 0.0
H1778 H 0.27623 0.15894 0.56684 0.0
C1779 C 0.23624 0.12419 0.60427 0.0
C1780 C 0.22812 0.1427 0.59204 0.0
H1781 H 0.26291 0.10037 0.60741 0.0
H1782 H 0.22476 0.11342 0.61338 0.0
C1783 C 0.24346 0.15672 0.58108 0.0
C1784 C 0.13622 0.00847 0.83461 0.0
C1785 C 0.1232 0.02631 0.84255 0.0
H1786 H 0.13627 0.97388 0.82534 0.0
C1787 C 0.10341 0.02148 0.85453 0.0
H1788 H 0.15171 0.01161 0.82566 0.0
C1789 C 0.09399 5e-05 0.85346 0.0
C1790 C 0.10491 0.98322 0.84132 0.0
H1791 H 0.09335 0.03494 0.86146 0.0
H1792 H 0.07717 -0.00252 0.85981 0.0
C1793 C 0.12711 0.98688 0.83412 0.0
C1794 C 0.71283 0.36649 0.39335 0.0
C1795 C 0.70814 0.34638 0.40482 0.0
H1796 H 0.7369 0.39255 0.38777 0.0
C1797 C 0.7259 0.3333 0.41278 0.0
H1798 H 0.69929 0.37671 0.38682 0.0
C1799 C 0.7475 0.34236 0.41323 0.0
C1800 C 0.75127 0.36448 0.40577 0.0
H1801 H 0.72269 0.3178 0.42174 0.0
H1802 H 0.76048 0.33313 0.42196 0.0
C1803 C 0.73429 0.37571 0.39412 0.0
C1804 C 0.87841 0.47101 0.6215 0.0
C1805 C 0.89726 0.46662 0.63498 0.0
H1806 H 0.85252 0.49465 0.61392 0.0
C1807 C 0.90976 0.48467 0.64325 0.0
H1808 H 0.86878 0.45724 0.61453 0.0
C1809 C 0.90053 0.50622 0.64272 0.0
C1810 C 0.87884 0.50953 0.63395 0.0
H1811 H 0.92449 0.48173 0.65345 0.0
H1812 H 0.90888 0.51937 0.65207 0.0
C1813 C 0.86893 0.4924 0.62134 0.0
C1814 C 0.59577 0.50589 0.16145 0.0
C1815 C 0.60978 0.52417 0.15694 0.0
H1816 H 0.59344 0.47016 0.16295 0.0
C1817 C 0.62915 0.52086 0.1439 0.0
H1818 H 0.5807 0.50805 0.17135 0.0
C1819 C 0.63676 0.49919 0.13944 0.0
C1820 C 0.62484 0.48073 0.14774 0.0
H1821 H 0.64005 0.53487 0.13991 0.0
H1822 H 0.65321 0.49705 0.13206 0.0
C1823 C 0.60326 0.48416 0.15678 0.0
C1824 C 0.60196 0.74133 0.80934 0.0
C1825 C 0.60894 0.72223 0.82109 0.0
H1826 H 0.58892 0.7745 0.81322 0.0
C1827 C 0.62048 0.72551 0.84143 0.0
H1828 H 0.59438 0.73965 0.79291 0.0
C1829 C 0.61643 0.74507 0.85377 0.0
C1830 C 0.60297 0.76194 0.84443 0.0
H1831 H 0.62745 0.71119 0.85022 0.0
H1832 H 0.62126 0.74564 0.87127 0.0
C1833 C 0.59824 0.76114 0.82129 0.0
C1834 C 0.52622 0.37672 0.10191 0.0
C1835 C 0.50664 0.36939 0.09123 0.0
H1836 H 0.5619 0.37662 0.1002 0.0
C1837 C 0.50709 0.36601 0.06783 0.0
H1838 H 0.52631 0.38032 0.11971 0.0
C1839 C 0.52763 0.36347 0.05691 0.0
C1840 C 0.54713 0.36332 0.06987 0.0
H1841 H 0.49194 0.36155 0.05884 0.0
H1842 H 0.52768 0.35623 0.04025 0.0
C1843 C 0.54664 0.37491 0.09048 0.0
C1844 C 0.86117 0.26628 0.36248 0.0
C1845 C 0.87045 0.24706 0.35269 0.0
H1846 H 0.85816 0.30181 0.35946 0.0
C1847 C 0.87418 0.24693 0.32934 0.0
H1848 H 0.85731 0.26672 0.38022 0.0
C1849 C 0.87504 0.26723 0.31764 0.0
C1850 C 0.8729 0.2872 0.32973 0.0
H1851 H 0.88025 0.23194 0.32105 0.0
H1852 H 0.88256 0.26734 0.3011 0.0
C1853 C 0.86137 0.2864 0.35035 0.0
C1854 C 0.96084 0.62248 0.6003 0.0
C1855 C 0.97967 0.63179 0.58979 0.0
H1856 H 0.92521 0.62013 0.59925 0.0
C1857 C 0.97846 0.63682 0.56671 0.0
H1858 H 0.9614 0.6176 0.6178 0.0
C1859 C 0.95756 0.63856 0.55632 0.0
C1860 C 0.93833 0.6362 0.56948 0.0
H1861 H 0.99305 0.64289 0.55774 0.0
H1862 H 0.95663 0.64686 0.54016 0.0
C1863 C 0.9401 0.62359 0.58941 0.0
C1864 C 0.62278 0.25337 0.65292 0.0
C1865 C 0.61282 0.23318 0.65988 0.0
H1866 H 0.62808 0.28774 0.66151 0.0
C1867 C 0.60969 0.22963 0.68305 0.0
H1868 H 0.62642 0.25641 0.63538 0.0
C1869 C 0.61052 0.2479 0.69777 0.0
C1870 C 0.61245 0.26947 0.68866 0.0
H1871 H 0.6033 0.21376 0.68926 0.0
H1872 H 0.60384 0.2457 0.71452 0.0
C1873 C 0.62411 0.27127 0.66816 0.0
C1874 C 0.96986 0.38224 0.92173 0.0
C1875 C 0.94831 0.37611 0.91482 0.0
H1876 H 0.00421 0.38122 0.9116 0.0
C1877 C 0.94274 0.38162 0.89246 0.0
H1878 H 0.9744 0.38096 0.93928 0.0
C1879 C 0.95967 0.3801 0.87612 0.0
C1880 C 0.98187 0.37708 0.88322 0.0
H1881 H 0.92552 0.38008 0.88697 0.0
H1882 H 0.95504 0.37736 0.85877 0.0
C1883 C 0.98705 0.38215 0.90574 0.0
C1884 C 0.85674 0.7385 0.152 0.0
C1885 C 0.85969 0.73295 0.12919 0.0
H1886 H 0.8606 0.72629 0.18548 0.0
C1887 C 0.8557 0.71068 0.12269 0.0
H1888 H 0.85848 0.75576 0.15749 0.0
C1889 C 0.85522 0.69396 0.13934 0.0
C1890 C 0.86259 0.69968 0.16111 0.0
H1891 H 0.85688 0.70578 0.10524 0.0
H1892 H 0.85598 0.67663 0.13396 0.0
C1893 C 0.85767 0.72151 0.1682 0.0
C1894 C 0.5302 0.60837 0.39432 0.0
C1895 C 0.53288 0.62031 0.41455 0.0
H1896 H 0.50897 0.60537 0.36543 0.0
C1897 C 0.51375 0.62417 0.4275 0.0
H1898 H 0.54486 0.60365 0.38468 0.0
C1899 C 0.493 0.62497 0.41669 0.0
C1900 C 0.49175 0.62072 0.39346 0.0
H1901 H 0.51523 0.63187 0.44389 0.0
H1902 H 0.47896 0.63233 0.42555 0.0
C1903 C 0.50967 0.60971 0.38305 0.0
C1904 C 0.82441 0.59329 0.74994 0.0
C1905 C 0.84706 0.59991 0.7512 0.0
H1906 H 0.79798 0.58388 0.7277 0.0
C1907 C 0.85627 0.61212 0.73336 0.0
H1908 H 0.81646 0.58475 0.7639 0.0
C1909 C 0.845 0.61251 0.71283 0.0
C1910 C 0.82557 0.59935 0.7101 0.0
H1911 H 0.87338 0.61816 0.73409 0.0
H1912 H 0.85411 0.61836 0.69821 0.0
C1913 C 0.8135 0.59321 0.72924 0.0
C1914 C 0.61393 0.57773 -0.00194 0.0
C1915 C 0.61128 0.58806 0.97717 0.0
H1916 H 0.62223 0.58378 0.03235 0.0
C1917 C 0.602 0.60984 0.97676 0.0
H1918 H 0.61976 0.56054 -0.00093 0.0
C1919 C 0.60469 0.62374 -0.00449 0.0
C1920 C 0.61445 0.61484 0.01491 0.0
H1921 H 0.59843 0.61778 0.9608 0.0
H1922 H 0.60266 0.6417 0.99353 0.0
C1923 C 0.6158 0.59129 0.01709 0.0
C1924 C 0.67917 0.37361 0.22509 0.0
C1925 C 0.66814 0.3735 0.2044 0.0
H1926 H 0.67438 0.37393 0.26055 0.0
C1927 C 0.64738 0.36232 0.20294 0.0
H1928 H 0.69557 0.38127 0.22662 0.0
C1929 C 0.63461 0.3592 0.22236 0.0
C1930 C 0.64348 0.36587 0.24307 0.0
H1931 H 0.63892 0.36112 0.18689 0.0
H1932 H 0.61696 0.35529 0.22067 0.0
C1933 C 0.66675 0.36977 0.24459 0.0
C1934 C 0.86744 0.36755 0.47593 0.0
C1935 C 0.86021 0.37374 0.4974 0.0
H1936 H 0.8699 0.37836 0.44191 0.0
C1937 C 0.85965 0.39681 0.50281 0.0
H1938 H 0.86887 0.35003 0.47133 0.0
C1939 C 0.85926 0.41277 0.48561 0.0
C1940 C 0.85845 0.40518 0.46345 0.0
H1941 H 0.85533 0.40218 0.51963 0.0
H1942 H 0.85387 0.42966 0.48964 0.0
C1943 C 0.86819 0.38402 0.45909 0.0
C1944 C 0.8609 0.35472 0.75239 0.0
C1945 C 0.83972 0.36497 0.7546 0.0
H1946 H 0.89108 0.35462 0.73283 0.0
C1947 C 0.82802 0.37037 0.73501 0.0
H1948 H 0.86984 0.34924 0.76723 0.0
C1949 C 0.84008 0.37332 0.71514 0.0
C1950 C 0.86348 0.37004 0.71501 0.0
H1951 H 0.81123 0.37722 0.73599 0.0
H1952 H 0.8318 0.38146 0.70116 0.0
C1953 C 0.87327 0.35815 0.73274 0.0
C1954 C 0.8692 0.6015 0.01362 0.0
C1955 C 0.85788 0.58097 0.01677 0.0
H1956 H 0.87103 0.63051 0.9924 0.0
C1957 C 0.8526 0.56828 -0.00222 0.0
H1958 H 0.87465 0.61109 0.02807 0.0
C1959 C 0.85072 0.57925 0.97717 0.0
C1960 C 0.85488 0.60252 0.97584 0.0
H1961 H 0.84499 0.55186 -0.00042 0.0
H1962 H 0.84254 0.57051 0.9635 0.0
C1963 C 0.86681 0.61284 0.99322 0.0
C1964 C 0.6448 0.62495 0.28296 0.0
C1965 C 0.66654 0.61576 0.28104 0.0
H1966 H 0.61237 0.62466 0.26717 0.0
C1967 C 0.67639 0.61662 0.25978 0.0
H1968 H 0.63734 0.62677 0.29944 0.0
C1969 C 0.66236 0.61587 0.24099 0.0
C1970 C 0.63888 0.61602 0.24389 0.0
H1971 H 0.6938 0.61192 0.25768 0.0
H1972 H 0.66967 0.61155 0.22493 0.0
C1973 C 0.63028 0.62342 0.26449 0.0
C1974 C 0.61455 0.40123 0.51052 0.0
C1975 C 0.61369 0.38729 0.52938 0.0
H1976 H 0.61786 0.40166 0.47488 0.0
C1977 C 0.60428 0.36573 0.52702 0.0
H1978 H 0.62096 0.4182 0.51191 0.0
C1979 C 0.6034 0.35581 0.50581 0.0
C1980 C 0.61082 0.36807 0.48718 0.0
H1981 H 0.60258 0.35493 0.54157 0.0
H1982 H 0.6007 0.33786 0.50466 0.0
C1983 C 0.61312 0.39154 0.48924 0.0
C1984 C 0.69967 0.84032 0.62591 0.0
C1985 C 0.70284 0.81891 0.61633 0.0
H1986 H 0.71484 0.87274 0.62976 0.0
C1987 C 0.72425 0.80949 0.61761 0.0
H1988 H 0.68302 0.84754 0.62644 0.0
C1989 C 0.74268 0.82379 0.62 0.0
C1990 C 0.73929 0.84717 0.62166 0.0
H1991 H 0.72715 0.79258 0.6116 0.0
H1992 H 0.75921 0.8171 0.61659 0.0
C1993 C 0.71795 0.85497 0.62755 0.0
C1994 C 0.23682 0.61394 0.36577 0.0
C1995 C 0.23174 0.63416 0.37686 0.0
H1996 H 0.25876 0.58551 0.36584 0.0
C1997 C 0.2494 0.64678 0.38576 0.0
H1998 H 0.22356 0.60437 0.35782 0.0
C1999 C 0.26968 0.63604 0.39033 0.0
C2000 C 0.27213 0.61305 0.38538 0.0
H2001 H 0.24619 0.66288 0.39357 0.0
H2002 H 0.28177 0.64463 0.40082 0.0
C2003 C 0.2569 0.60294 0.37065 0.0
C2004 C 0.68579 0.001 0.62535 0.0
C2005 C 0.67442 0.02111 0.62113 0.0
H2006 H 0.68146 0.96628 0.63316 0.0
C2007 C 0.6538 0.01996 0.60973 0.0
H2008 H 0.70222 0.00128 0.6331 0.0
C2009 C 0.64128 0.00014 0.61075 0.0
C2010 C 0.6504 0.98129 0.62145 0.0
H2011 H 0.64515 0.0353 0.60517 0.0
H2012 H 0.6237 0.00065 0.60628 0.0
C2013 C 0.67361 0.98095 0.62585 0.0
C2014 C 0.21807 0.37224 0.86586 0.0
C2015 C 0.20375 0.36262 0.88184 0.0
H2016 H 0.25093 0.3713 0.85185 0.0
C2017 C 0.20746 0.3402 0.88841 0.0
H2018 H 0.21523 0.38915 0.85979 0.0
C2019 C 0.22809 0.33006 0.88395 0.0
C2020 C 0.24484 0.34263 0.87331 0.0
H2021 H 0.19615 0.3319 0.89996 0.0
H2022 H 0.23228 0.31475 0.89283 0.0
C2023 C 0.23845 0.36178 0.86103 0.0
C2024 C 0.43363 0.50872 0.60969 0.0
C2025 C 0.42469 0.53021 0.61282 0.0
H2026 H 0.42551 0.47381 0.61188 0.0
C2027 C 0.40297 0.53393 0.60432 0.0
H2028 H 0.45102 0.50551 0.6138 0.0
C2029 C 0.38776 0.51595 0.60428 0.0
C2030 C 0.39558 0.4944 0.60972 0.0
H2031 H 0.39616 0.55079 0.60426 0.0
H2032 H 0.36996 0.5195 0.60375 0.0
C2033 C 0.41886 0.49048 0.609 0.0
C2034 C 0.7324 0.16566 0.1201 0.0
C2035 C 0.73247 0.14206 0.12196 0.0
H2036 H 0.75249 0.19432 0.11232 0.0
C2037 C 0.75221 0.13146 0.129 0.0
H2038 H 0.71715 0.17453 0.11578 0.0
C2039 C 0.77242 0.14337 0.12816 0.0
C2040 C 0.77269 0.16494 0.11846 0.0
H2041 H 0.75273 0.11344 0.13142 0.0
H2042 H 0.78786 0.13389 0.12947 0.0
C2043 C 0.75273 0.17723 0.11855 0.0
C2044 C 0.65284 0.98218 0.8725 0.0
C2045 C 0.66155 0.00085 0.86113 0.0
H2046 H 0.65633 0.94697 0.87779 0.0
C2047 C 0.68437 0.0007 0.855 0.0
H2048 H 0.63563 0.98205 0.87831 0.0
C2049 C 0.69608 0.98038 0.85457 0.0
C2050 C 0.6845 0.96052 0.85943 0.0
H2051 H 0.692 0.01523 0.84717 0.0
H2052 H 0.71186 0.97977 0.84558 0.0
C2053 C 0.66498 0.96211 0.87259 0.0
C2054 C 0.89402 0.98338 0.37676 0.0
C2055 C 0.91327 0.97973 0.36359 0.0
H2056 H 0.86451 0.00363 0.37988 0.0
C2057 C 0.92414 -0.00154 0.35449 0.0
H2058 H 0.88592 0.96931 0.38498 0.0
C2059 C 0.91203 0.01834 0.35173 0.0
C2060 C 0.88945 0.01934 0.35865 0.0
H2061 H 0.93959 -0.00357 0.34516 0.0
H2062 H 0.91908 0.03131 0.34111 0.0
C2063 C 0.8815 0.00294 0.37352 0.0
C2064 C 0.40599 0.25238 0.12615 0.0
C2065 C 0.40081 0.24763 0.10357 0.0
H2066 H 0.41664 0.27763 0.1493 0.0
C2067 C 0.39414 0.26516 0.08946 0.0
H2068 H 0.41061 0.23907 0.13764 0.0
C2069 C 0.39672 0.2873 0.09659 0.0
C2070 C 0.40684 0.29188 0.11743 0.0
H2071 H 0.38954 0.26193 0.07219 0.0
H2072 H 0.39441 0.30061 0.0844 0.0
C2073 C 0.40906 0.27454 0.13308 0.0
C2074 C 0.46767 0.6455 0.86145 0.0
C2075 C 0.46167 0.65872 0.88004 0.0
H2076 H 0.49365 0.63735 0.83817 0.0
C2077 C 0.47847 0.66684 0.89422 0.0
H2078 H 0.45487 0.63857 0.85057 0.0
C2079 C 0.50075 0.66623 0.88706 0.0
C2080 C 0.50609 0.65722 0.86588 0.0
H2081 H 0.47419 0.67658 0.90893 0.0
H2082 H 0.51319 0.67524 0.89675 0.0
C2083 C 0.48984 0.64499 0.8542 0.0
C2084 C 0.08701 0.7391 0.59231 0.0
C2085 C 0.07798 0.75589 0.60596 0.0
H2086 H 0.09091 0.70381 0.58777 0.0
C2087 C 0.07264 0.7508 0.62843 0.0
H2088 H 0.09185 0.74269 0.57517 0.0
C2089 C 0.0718 0.7285 0.63557 0.0
C2090 C 0.07636 0.71137 0.62021 0.0
H2091 H 0.06623 0.76361 0.63961 0.0
H2092 H 0.06404 0.72474 0.65156 0.0
C2093 C 0.08674 0.71687 0.5997 0.0
C2094 C -0.00059 0.33555 0.40981 0.0
C2095 C 0.01764 0.34195 0.39654 0.0
H2096 H 0.96393 0.33114 0.41074 0.0
C2097 C 0.01402 0.35582 0.3778 0.0
H2098 H 0.00187 0.32504 0.42444 0.0
C2099 C 0.99239 0.35895 0.36961 0.0
C2100 C 0.97436 0.3485 0.3804 0.0
H2101 H 0.02801 0.36128 0.36755 0.0
H2102 H 0.99023 0.3669 0.3534 0.0
C2103 C 0.97769 0.33889 0.40175 0.0
C2104 C 0.39543 0.7388 0.39088 0.0
C2105 C 0.40564 0.75468 0.37694 0.0
H2106 H 0.38891 0.70396 0.39599 0.0
C2107 C 0.41046 0.74891 0.35453 0.0
H2108 H 0.39099 0.74295 0.408 0.0
C2109 C 0.40953 0.72653 0.34772 0.0
C2110 C 0.40374 0.70999 0.36334 0.0
H2111 H 0.41777 0.76106 0.34314 0.0
H2112 H 0.41686 0.72198 0.33173 0.0
C2113 C 0.39399 0.71652 0.38384 0.0
C2114 C 0.99312 0.64648 0.12897 0.0
C2115 C 0.97688 0.66024 0.11907 0.0
H2116 H 0.02747 0.63648 0.12881 0.0
C2117 C 0.98116 0.66974 0.09787 0.0
H2118 H 0.99007 0.63854 0.14503 0.0
C2119 C 0.00259 0.66843 0.08848 0.0
C2120 C 0.01979 0.6577 0.10033 0.0
H2121 H 0.96874 0.68013 0.08966 0.0
H2122 H 0.00634 0.67849 0.0738 0.0
C2123 C 0.01441 0.64498 0.11946 0.0
C2124 C 0.08594 0.24748 0.871 0.0
C2125 C 0.08827 0.24299 0.89412 0.0
H2126 H 0.07248 0.26992 0.84629 0.0
C2127 C 0.08618 0.2607 0.90937 0.0
H2128 H 0.08791 0.23415 0.8588 0.0
C2129 C 0.07753 0.2812 0.90212 0.0
C2130 C 0.07095 0.2841 0.87961 0.0
H2131 H 0.08807 0.25783 0.92721 0.0
H2132 H 0.07359 0.2938 0.91462 0.0
C2133 C 0.07702 0.26793 0.86376 0.0
C2134 C 0.4717 0.33684 0.63001 0.0
C2135 C 0.46611 0.32182 0.61273 0.0
H2136 H 0.49607 0.3461 0.65464 0.0
C2137 C 0.48308 0.30917 0.60257 0.0
H2138 H 0.45882 0.34684 0.63801 0.0
C2139 C 0.50442 0.30863 0.61219 0.0
C2140 C 0.50885 0.32081 0.63194 0.0
H2141 H 0.47913 0.29735 0.58934 0.0
H2142 H 0.51655 0.29681 0.60564 0.0
C2143 C 0.49294 0.33622 0.63972 0.0
C2144 C 0.12777 0.42862 0.2333 0.0
C2145 C 0.10793 0.41695 0.22811 0.0
H2146 H 0.14924 0.44036 0.25951 0.0
C2147 C 0.09836 0.40277 0.24422 0.0
H2148 H 0.13576 0.43936 0.221 0.0
C2149 C 0.10639 0.40307 0.26617 0.0
C2150 C 0.12375 0.41783 0.27216 0.0
H2151 H 0.08337 0.39321 0.2405 0.0
H2152 H 0.09698 0.39423 0.27898 0.0
C2153 C 0.13579 0.4289 0.25529 0.0
C2154 C 0.35593 0.39439 0.9854 0.0
C2155 C 0.34325 0.41256 0.99353 0.0
H2156 H 0.35797 0.36893 0.96016 0.0
C2157 C 0.33009 0.42488 0.97851 0.0
H2158 H 0.36673 0.385 -0.00338 0.0
C2159 C 0.32538 0.41587 0.95741 0.0
C2160 C 0.33382 0.39459 0.95157 0.0
H2161 H 0.32038 0.43912 0.98427 0.0
H2162 H 0.31271 0.42397 0.94723 0.0
C2163 C 0.35071 0.38497 0.96467 0.0
C2164 C 0.35807 0.55611 0.73138 0.0
C2165 C 0.37786 0.56794 0.72639 0.0
H2166 H 0.33576 0.54535 0.75733 0.0
C2167 C 0.38637 0.58329 0.74199 0.0
H2168 H 0.35086 0.54451 0.7194 0.0
C2169 C 0.37742 0.58404 0.76354 0.0
C2170 C 0.36022 0.56913 0.76966 0.0
H2171 H 0.40127 0.59303 0.73833 0.0
H2172 H 0.38608 0.59379 0.77621 0.0
C2173 C 0.34911 0.5569 0.75299 0.0
C2174 C 0.12234 0.59237 0.49421 0.0
C2175 C 0.13415 0.57337 0.50179 0.0
H2176 H 0.12055 0.6176 0.46869 0.0
C2177 C 0.14504 0.55976 0.48612 0.0
H2178 H 0.11328 0.6028 0.50603 0.0
C2179 C 0.14892 0.56808 0.46457 0.0
C2180 C 0.14187 0.58993 0.45891 0.0
H2181 H 0.15399 0.54487 0.49149 0.0
H2182 H 0.16016 0.55883 0.45371 0.0
C2183 C 0.12674 0.60105 0.47295 0.0
C2184 C 0.12764 0.55821 0.24783 0.0
C2185 C 0.10806 0.57063 0.25212 0.0
H2186 H 0.14999 0.54595 0.22259 0.0
C2187 C 0.1 0.58544 0.23575 0.0
H2188 H 0.13446 0.54694 0.26036 0.0
C2189 C 0.10916 0.58507 0.21426 0.0
C2190 C 0.12618 0.56969 0.20898 0.0
H2191 H 0.08524 0.59555 0.2388 0.0
H2192 H 0.10083 0.59444 0.2011 0.0
C2193 C 0.13682 0.5579 0.22629 0.0
C2194 C 0.13636 0.37785 0.01744 0.0
C2195 C 0.15258 0.3894 0.02982 0.0
H2196 H 0.12005 0.37504 0.98578 0.0
C2197 C 0.15931 0.41094 0.02279 0.0
H2198 H 0.13037 0.36155 0.02287 0.0
C2199 C 0.15372 0.41849 0.00133 0.0
C2200 C 0.14136 0.40447 0.98714 0.0
H2201 H 0.17141 0.42049 0.03239 0.0
H2202 H 0.16224 0.43316 -0.00525 0.0
C2203 C 0.13022 0.38578 -0.00366 0.0
C2204 C 0.35815 0.4271 0.74802 0.0
C2205 C 0.37825 0.41571 0.75276 0.0
H2206 H 0.33627 0.43909 0.72225 0.0
C2207 C 0.38795 0.40211 0.73626 0.0
H2208 H 0.35009 0.4374 0.76063 0.0
C2209 C 0.37978 0.40286 0.71439 0.0
C2210 C 0.36207 0.41738 0.70892 0.0
H2211 H 0.40318 0.39281 0.73962 0.0
H2212 H 0.38923 0.39454 0.70129 0.0
C2213 C 0.34997 0.4278 0.72611 0.0
C2214 C 0.32461 0.57006 0.52535 0.0
C2215 C 0.33104 0.59207 0.53105 0.0
H2216 H 0.32101 0.54657 0.49852 0.0
C2217 C 0.34649 0.6034 0.51751 0.0
H2218 H 0.31319 0.56064 0.53589 0.0
C2219 C 0.3519 0.59466 0.49653 0.0
C2220 C 0.34066 0.57544 0.48867 0.0
H2221 H 0.35228 0.62007 0.52191 0.0
H2222 H 0.36122 0.60519 0.485 0.0
C2223 C 0.32949 0.56167 0.50406 0.0
C2224 C 0.22959 0.11581 0.38042 0.0
C2225 C 0.21548 0.12639 0.39592 0.0
H2226 H 0.26265 0.1145 0.36689 0.0
C2227 C 0.22114 0.1479 0.40383 0.0
H2228 H 0.2253 0.09955 0.37354 0.0
C2229 C 0.24264 0.15641 0.40014 0.0
C2230 C 0.25837 0.14331 0.38862 0.0
H2231 H 0.21023 0.15672 0.41536 0.0
H2232 H 0.24787 0.17111 0.40947 0.0
C2233 C 0.25088 0.12458 0.37639 0.0
C2234 C 0.76203 0.35958 0.59204 0.0
C2235 C 0.76641 0.34008 0.57947 0.0
H2236 H 0.73691 0.38234 0.60376 0.0
C2237 C 0.74906 0.3248 0.57557 0.0
H2238 H 0.77533 0.37147 0.59556 0.0
C2239 C 0.72702 0.33092 0.58058 0.0
C2240 C 0.72231 0.35246 0.5892 0.0
H2241 H 0.75205 0.30967 0.56594 0.0
H2242 H 0.71363 0.32 0.57499 0.0
C2243 C 0.74002 0.36587 0.59674 0.0
C2244 C 0.38725 0.97334 0.34705 0.0
C2245 C 0.36758 0.96766 0.33526 0.0
H2246 H 0.41214 -0.0013 0.35241 0.0
C2247 C 0.35334 0.98489 0.32809 0.0
H2248 H 0.39821 0.96032 0.35341 0.0
C2249 C 0.36116 0.00699 0.32797 0.0
C2250 C 0.38326 0.01175 0.33479 0.0
H2251 H 0.33789 0.98108 0.31935 0.0
H2252 H 0.35108 0.01964 0.31968 0.0
C2253 C 0.39537 -0.00469 0.34634 0.0
C2254 C 0.73622 0.65856 0.07841 0.0
C2255 C 0.7185 0.64521 0.086 0.0
H2256 H 0.77127 0.6596 0.07139 0.0
C2257 C 0.72317 0.6261 0.09906 0.0
H2258 H 0.733 0.67344 0.06848 0.0
C2259 C 0.74495 0.61776 0.10026 0.0
C2260 C 0.76217 0.62883 0.08881 0.0
H2261 H 0.70963 0.61577 0.10546 0.0
H2262 H 0.74769 0.60138 0.10766 0.0
C2263 C 0.75812 0.6504 0.07992 0.0
C2264 C 0.63258 0.48607 0.33868 0.0
C2265 C 0.62297 0.50287 0.3254 0.0
H2266 H 0.63315 0.45107 0.34631 0.0
C2267 C 0.60265 0.49846 0.31421 0.0
H2268 H 0.64795 0.48916 0.34783 0.0
C2269 C 0.59418 0.47661 0.31325 0.0
C2270 C 0.60601 0.45914 0.32355 0.0
H2271 H 0.59466 0.51127 0.30408 0.0
H2272 H 0.58048 0.47302 0.30188 0.0
C2273 C 0.62388 0.46435 0.33804 0.0
C2274 C 0.23475 0.82795 0.9027 0.0
C2275 C 0.21882 0.84056 0.89091 0.0
H2276 H 0.26785 0.82799 0.91633 0.0
C2277 C 0.22623 0.85771 0.87647 0.0
H2278 H 0.22954 0.81442 0.91369 0.0
C2279 C 0.24789 0.8662 0.87874 0.0
C2280 C 0.26244 0.85663 0.89447 0.0
H2281 H 0.21425 0.8673 0.86673 0.0
H2282 H 0.25224 0.88168 0.87025 0.0
C2283 C 0.25665 0.83605 0.90452 0.0
C2284 C 0.34756 0.01295 0.15706 0.0
C2285 C 0.35974 0.03078 0.14778 0.0
H2286 H 0.34841 0.97847 0.16682 0.0
C2287 C 0.37889 0.02599 0.13481 0.0
H2288 H 0.33263 0.01607 0.16691 0.0
C2289 C 0.38849 0.00465 0.13554 0.0
C2290 C 0.37845 0.9878 0.14844 0.0
H2291 H 0.38832 0.03943 0.12698 0.0
H2292 H 0.40478 0.00206 0.12795 0.0
C2293 C 0.35688 0.99144 0.1573 0.0
C2294 C 0.10257 0.97532 0.64075 0.0
C2295 C 0.12193 0.96914 0.65278 0.0
H2296 H 0.07775 0.00078 0.63563 0.0
C2297 C 0.13548 0.98602 0.66189 0.0
H2298 H 0.09209 0.96262 0.63303 0.0
C2299 C 0.12738 0.00797 0.66305 0.0
C2300 C 0.10567 0.01301 0.65527 0.0
H2301 H 0.15061 0.98182 0.67101 0.0
H2302 H 0.13695 0.02021 0.67247 0.0
C2303 C 0.09418 -0.00289 0.64242 0.0
C2304 C 0.97297 0.25924 0.41526 0.0
C2305 C 0.96963 0.24124 0.4004 0.0
H2306 H -0.00357 0.28319 0.4286 0.0
C2307 C 0.98825 0.2319 0.38944 0.0
H2308 H 0.95893 0.2665 0.4242 0.0
C2309 C 0.00966 0.24083 0.39272 0.0
C2310 C 0.01278 0.25979 0.40621 0.0
H2311 H 0.98629 0.21757 0.37842 0.0
H2312 H 0.0238 0.23329 0.38426 0.0
C2313 C -0.00561 0.2686 0.41798 0.0
C2314 C 0.97899 0.7317 0.65304 0.0
C2315 C -0.00335 0.72827 0.63782 0.0
H2316 H 0.95667 0.75554 0.66822 0.0
C2317 C 0.00696 0.74701 0.62788 0.0
H2318 H 0.97102 0.71756 0.66124 0.0
C2319 C -0.00072 0.76871 0.63262 0.0
C2320 C 0.9807 0.77199 0.6466 0.0
H2321 H 0.02104 0.7449 0.61661 0.0
H2322 H 0.0074 0.78298 0.62488 0.0
C2323 C 0.97096 0.75339 0.65725 0.0
C2324 C 0.50253 0.74365 0.89498 0.0
C2325 C 0.50412 0.76491 0.88493 0.0
H2326 H 0.48143 0.7155 0.90257 0.0
C2327 C 0.48476 0.77453 0.87553 0.0
H2328 H 0.51707 0.73598 0.9027 0.0
C2329 C 0.46452 0.76255 0.87502 0.0
C2330 C 0.46321 0.74107 0.88446 0.0
H2331 H 0.48526 0.79136 0.86869 0.0
H2332 H 0.4498 0.77014 0.8676 0.0
C2333 C 0.48222 0.73189 0.89483 0.0
C2334 C 0.47328 0.25365 0.12766 0.0
C2335 C 0.48415 0.27129 0.13888 0.0
H2336 H 0.47066 0.21798 0.12321 0.0
C2337 C 0.50044 0.26615 0.15511 0.0
H2338 H 0.46013 0.25708 0.1156 0.0
C2339 C 0.50677 0.2438 0.15894 0.0
C2340 C 0.49663 0.2263 0.14688 0.0
H2341 H 0.50877 0.27944 0.16428 0.0
H2342 H 0.5202 0.24029 0.17064 0.0
C2343 C 0.4792 0.23135 0.13199 0.0
C2344 C 0.00049 0.72488 0.10974 0.0
C2345 C 0.0146 0.73055 0.09179 0.0
H2346 H 0.96728 0.72517 0.1228 0.0
C2347 C 0.00544 0.74192 0.07324 0.0
H2348 H 0.00676 0.71544 0.12395 0.0
C2349 C 0.98271 0.74801 0.073 0.0
C2350 C 0.96872 0.74246 0.09114 0.0
H2351 H 0.01585 0.74616 0.05897 0.0
H2352 H 0.97621 0.75736 0.05885 0.0
C2353 C 0.97781 0.73044 0.10917 0.0
C2354 C 0.50272 0.72129 0.33058 0.0
C2355 C 0.48466 0.71936 0.34559 0.0
H2356 H 0.52726 0.74317 0.31579 0.0
C2357 C 0.47595 0.73887 0.35552 0.0
H2358 H 0.50949 0.70655 0.3224 0.0
C2359 C 0.48559 0.75983 0.35101 0.0
C2360 C 0.50455 0.76153 0.33728 0.0
H2361 H 0.46161 0.73795 0.36663 0.0
H2362 H 0.47867 0.7747 0.35872 0.0
C2363 C 0.51271 0.74221 0.3266 0.0
C2364 C 0.47814 0.24285 0.59261 0.0
C2365 C 0.46573 0.24738 0.6121 0.0
H2366 H 0.50934 0.23196 0.57869 0.0
C2367 C 0.4758 0.24367 0.63303 0.0
H2368 H 0.471 0.24577 0.57616 0.0
C2369 C 0.49779 0.23557 0.63449 0.0
C2370 C 0.51034 0.23154 0.61505 0.0
H2371 H 0.4667 0.24735 0.64818 0.0
H2372 H 0.50515 0.23273 0.65075 0.0
C2373 C 0.50024 0.2352 0.59406 0.0
C2374 C 0.98273 0.25592 0.87191 0.0
C2375 C -0.00618 0.26525 0.8534 0.0
H2376 H 0.9681 0.22675 0.88684 0.0
C2377 C -0.00155 0.25145 0.83486 0.0
H2378 H 0.97819 0.26628 0.88596 0.0
C2379 C 0.99226 0.22874 0.83504 0.0
C2380 C 0.98158 0.21937 0.85388 0.0
H2381 H 0.00707 0.25812 0.82032 0.0
H2382 H -0.00427 0.21856 0.82041 0.0
C2383 C 0.97694 0.23322 0.87234 0.0
C2384 C 0.42646 0.99288 0.26011 0.0
C2385 C 0.43566 0.0143 0.25707 0.0
H2386 H 0.41854 0.96119 0.24505 0.0
C2387 C 0.44585 0.01969 0.23654 0.0
H2388 H 0.41879 0.98833 0.27596 0.0
C2389 C 0.44556 0.00422 0.21879 0.0
C2390 C 0.435 0.98329 0.22146 0.0
H2391 H 0.45304 0.03619 0.23389 0.0
H2392 H 0.45256 0.00901 0.20272 0.0
C2393 C 0.42623 0.97747 0.24248 0.0
C2394 C 0.24034 0.13769 0.46722 0.0
C2395 C 0.26234 0.1394 0.47536 0.0
H2396 H 0.20525 0.13754 0.47541 0.0
C2397 C 0.26592 0.14133 0.49855 0.0
H2398 H 0.23722 0.13644 0.44938 0.0
C2399 C 0.24776 0.14089 0.51343 0.0
C2400 C 0.22575 0.13953 0.50525 0.0
H2401 H 0.28276 0.14291 0.50514 0.0
H2402 H 0.25087 0.14196 0.53127 0.0
C2403 C 0.22213 0.13838 0.48203 0.0
C2404 C 0.04156 0.98126 0.744 0.0
C2405 C 0.052 0.98555 0.76464 0.0
H2406 H 0.03484 0.9935 0.71072 0.0
C2407 C 0.06188 0.00654 0.76841 0.0
H2408 H 0.03382 0.96512 0.74081 0.0
C2409 C 0.06243 0.02265 0.75138 0.0
C2410 C 0.05328 0.01794 0.73025 0.0
H2411 H 0.06975 0.01024 0.78437 0.0
H2412 H 0.07059 0.03859 0.75448 0.0
C2413 C 0.04215 -0.00258 0.72687 0.0
C2414 C 0.24144 0.84761 0.97049 0.0
C2415 C 0.21959 0.84796 0.97919 0.0
H2416 H 0.27666 0.84702 0.97792 0.0
C2417 C 0.21645 0.84851 0.00251 0.0
H2418 H 0.24419 0.84707 0.95255 0.0
C2419 C 0.23495 0.84954 0.01692 0.0
C2420 C 0.2568 0.84898 0.00821 0.0
H2421 H 0.19971 0.84869 0.00953 0.0
H2422 H 0.23221 0.85046 0.03484 0.0
C2423 C 0.25992 0.84758 0.98493 0.0
C2424 C 0.26477 0.40814 0.98481 0.0
C2425 C 0.25836 0.4082 0.00746 0.0
H2426 H 0.25379 0.40745 0.9505 0.0
C2427 C 0.23557 0.40705 0.01303 0.0
H2428 H 0.28229 0.40907 0.98024 0.0
C2429 C 0.21943 0.40494 -0.00388 0.0
C2430 C 0.22584 0.40506 0.97346 0.0
H2431 H 0.23032 0.40719 0.03042 0.0
H2432 H 0.20195 0.40352 0.0007 0.0
C2433 C 0.24856 0.40712 0.96789 0.0
C2434 C 0.72358 0.12394 0.00331 0.0
C2435 C 0.72967 0.10757 0.01914 0.0
H2436 H 0.72553 0.13456 0.96906 0.0
C2437 C 0.74344 0.08969 0.01226 0.0
H2438 H 0.71237 0.13751 0.00783 0.0
C2439 C 0.75127 0.08848 0.99012 0.0
C2440 C 0.74535 0.10503 0.97442 0.0
H2441 H 0.74813 0.07662 0.02398 0.0
H2442 H 0.76222 0.07479 0.98537 0.0
C2443 C 0.73113 0.12242 0.98115 0.0
C2444 C 0.14582 0.49536 0.22807 0.0
C2445 C 0.12593 0.49803 0.21573 0.0
H2446 H 0.16084 0.48917 0.26003 0.0
C2447 C 0.10534 0.49612 0.22702 0.0
H2448 H 0.162 0.49702 0.22001 0.0
C2449 C 0.10466 0.4915 0.25009 0.0
C2450 C 0.12457 0.48917 0.26244 0.0
H2451 H 0.0898 0.49842 0.21804 0.0
H2452 H 0.0886 0.48973 0.25827 0.0
C2453 C 0.14515 0.4912 0.25113 0.0
C2454 C 0.72975 0.87303 0.51453 0.0
C2455 C 0.74699 0.88794 0.52017 0.0
H2456 H 0.71003 0.85825 0.48831 0.0
C2457 C 0.75673 0.90107 0.50319 0.0
H2458 H 0.72137 0.86361 0.52753 0.0
C2459 C 0.74988 0.89861 0.48082 0.0
C2460 C 0.73344 0.88271 0.47503 0.0
H2461 H 0.76997 0.91285 0.50715 0.0
H2462 H 0.75768 0.90887 0.468 0.0
C2463 C 0.7233 0.87007 0.49215 0.0
C2464 C 0.84366 -0.00354 0.22524 0.0
C2465 C 0.8468 0.97335 0.22838 0.0
H2466 H 0.84192 0.02882 0.24091 0.0
C2467 C 0.84924 0.96486 0.25022 0.0
H2468 H 0.8415 0.00329 0.20854 0.0
C2469 C 0.84817 0.97926 0.26872 0.0
C2470 C 0.84589 0.00245 0.26551 0.0
H2471 H 0.85148 0.94705 0.25296 0.0
H2472 H 0.8497 0.97239 0.28548 0.0
C2473 C 0.84374 0.01097 0.24367 0.0
C2474 C 0.23101 0.56488 0.47365 0.0
C2475 C 0.25356 0.56903 0.47883 0.0
H2476 H 0.19749 0.56167 0.4864 0.0
C2477 C 0.26004 0.57106 0.50139 0.0
H2478 H 0.2257 0.56322 0.45636 0.0
C2479 C 0.24413 0.5691 0.51856 0.0
C2480 C 0.22141 0.5661 0.5133 0.0
H2481 H 0.2774 0.57415 0.50571 0.0
H2482 H 0.24937 0.57113 0.53583 0.0
C2483 C 0.21498 0.56383 0.49076 0.0
C2484 C 0.3801 0.49663 0.75119 0.0
C2485 C 0.35996 0.49797 0.76336 0.0
H2486 H 0.39564 0.49062 0.71928 0.0
C2487 C 0.33965 0.4947 0.75187 0.0
H2488 H 0.39596 0.49938 0.75949 0.0
C2489 C 0.33944 0.49047 0.7288 0.0
C2490 C 0.35956 0.48902 0.71661 0.0
H2491 H 0.32378 0.4959 0.7606 0.0
H2492 H 0.32346 0.48793 0.72059 0.0
C2493 C 0.3799 0.49198 0.72812 0.0
C2494 C 0.99134 0.75043 0.55116 0.0
C2495 C -0.00556 0.76744 0.56718 0.0
H2496 H 0.97091 0.72263 0.54046 0.0
C2497 C 0.97813 0.77047 0.58382 0.0
H2498 H 0.00351 0.74793 0.53793 0.0
C2499 C 0.96018 0.75557 0.58588 0.0
C2500 C 0.95748 0.73806 0.57045 0.0
H2501 H 0.97937 0.78439 0.59533 0.0
H2502 H 0.94826 0.75791 0.5994 0.0
C2503 C 0.97281 0.73595 0.55266 0.0
C2504 C 0.99287 0.23998 0.31139 0.0
C2505 C 0.01037 0.23988 0.32718 0.0
H2506 H 0.96308 0.25666 0.29968 0.0
C2507 C 0.01199 0.25774 0.34239 0.0
H2508 H 0.99138 0.22657 0.29923 0.0
C2509 C -0.00456 0.27428 0.34332 0.0
C2510 C 0.97752 0.27398 0.32813 0.0
H2511 H 0.02609 0.25877 0.35366 0.0
H2512 H -0.00322 0.28746 0.35577 0.0
C2513 C 0.97667 0.25708 0.31171 0.0
C2514 C 0.48624 0.24929 0.04962 0.0
C2515 C 0.48274 0.23241 0.06573 0.0
H2516 H 0.50737 0.27647 0.03864 0.0
C2517 C 0.49901 0.22906 0.08235 0.0
H2518 H 0.47411 0.25203 0.03639 0.0
C2519 C 0.51735 0.2435 0.08426 0.0
C2520 C 0.52047 0.26087 0.0687 0.0
H2521 H 0.49749 0.21519 0.09393 0.0
H2522 H 0.52927 0.24089 0.09772 0.0
C2523 C 0.50514 0.26329 0.05096 0.0
C2524 C 0.47789 0.75061 0.79712 0.0
C2525 C 0.48092 0.76965 0.81064 0.0
H2526 H 0.49007 0.71777 0.78839 0.0
C2527 C 0.49993 0.77102 0.82434 0.0
H2528 H 0.46337 0.74924 0.78631 0.0
C2529 C 0.51469 0.75293 0.82611 0.0
C2530 C 0.51114 0.73337 0.81354 0.0
H2531 H 0.50314 0.78605 0.83398 0.0
H2532 H 0.5289 0.75421 0.83735 0.0
C2533 C 0.49304 0.73261 0.79844 0.0
C2534 C 0.01767 0.25531 0.9224 0.0
C2535 C 0.01445 0.23536 0.93441 0.0
H2536 H 0.00456 0.28752 0.91379 0.0
C2537 C -0.00448 0.23312 0.94825 0.0
H2538 H 0.0324 0.25759 0.912 0.0
C2539 C 0.97909 0.24999 0.94859 0.0
C2540 C 0.98178 0.26943 0.93549 0.0
H2541 H 0.99289 0.21789 0.95784 0.0
H2542 H 0.96385 0.24733 0.9581 0.0
C2543 C 0.00177 0.27239 0.92342 0.0
C2544 C 0.50845 0.23414 0.6959 0.0
C2545 C 0.50367 0.25717 0.69475 0.0
H2546 H 0.49516 0.20068 0.69438 0.0
C2547 C 0.48131 0.26435 0.69406 0.0
H2548 H 0.52565 0.22834 0.69628 0.0
C2549 C 0.46396 0.24859 0.6927 0.0
C2550 C 0.46886 0.22556 0.69225 0.0
H2551 H 0.47736 0.28206 0.69295 0.0
H2552 H 0.44688 0.25438 0.6906 0.0
C2553 C 0.49108 0.21839 0.69485 0.0
C2554 C 0.5053 0.75907 0.40039 0.0
C2555 C 0.48835 0.7581 0.41666 0.0
H2556 H 0.53377 0.74294 0.38555 0.0
C2557 C 0.48891 0.74081 0.43269 0.0
H2558 H 0.5061 0.77305 0.38888 0.0
C2559 C 0.50552 0.72415 0.4316 0.0
C2560 C 0.52141 0.72434 0.41419 0.0
H2561 H 0.4762 0.73983 0.44562 0.0
H2562 H 0.5055 0.71073 0.44388 0.0
C2563 C 0.52129 0.74206 0.39873 0.0
C2564 C 0.98395 0.76721 0.15757 0.0
C2565 C 0.00399 0.7649 0.16956 0.0
H2566 H 0.9517 0.75344 0.1504 0.0
C2567 C 0.00653 0.74676 0.18443 0.0
H2568 H 0.98138 0.7814 0.14647 0.0
C2569 C 0.9898 0.73023 0.18597 0.0
C2570 C 0.97018 0.73203 0.17306 0.0
H2571 H 0.02179 0.74489 0.19408 0.0
H2572 H 0.99262 0.71565 0.19646 0.0
C2573 C 0.96702 0.75123 0.15978 0.0
C2574 C 0.62669 0.00465 0.72267 0.0
C2575 C 0.6267 0.98116 0.72117 0.0
H2576 H 0.62896 0.0333 0.74436 0.0
C2577 C 0.62806 0.96839 0.74088 0.0
H2578 H 0.6248 0.01481 0.70773 0.0
C2579 C 0.62834 0.97895 0.76183 0.0
C2580 C 0.62915 0.00242 0.7633 0.0
H2581 H 0.62769 0.95028 0.74009 0.0
H2582 H 0.62763 0.96883 0.7769 0.0
C2583 C 0.6288 0.01519 0.74354 0.0
C2584 C 0.73327 0.7936 0.49658 0.0
C2585 C 0.7311 0.80812 0.51502 0.0
H2586 H 0.75279 0.78475 0.4675 0.0
C2587 C 0.74824 0.82364 0.51936 0.0
H2588 H 0.72039 0.7813 0.49299 0.0
C2589 C 0.76607 0.82627 0.50444 0.0
C2590 C 0.76776 0.81254 0.48546 0.0
H2591 H 0.74756 0.83413 0.53412 0.0
H2592 H 0.77856 0.83906 0.50776 0.0
C2593 C 0.75166 0.79566 0.48198 0.0
C2594 C 0.90879 0.98055 0.22156 0.0
C2595 C 0.90267 0.003 0.22513 0.0
H2596 H 0.91507 0.94837 0.23665 0.0
C2597 C 0.89866 0.01053 0.24703 0.0
H2598 H 0.91222 0.97454 0.20476 0.0
C2599 C 0.90016 -0.00436 0.26513 0.0
C2600 C 0.9059 0.97309 0.26158 0.0
H2601 H 0.89425 0.0279 0.25011 0.0
H2602 H 0.89687 0.00171 0.28193 0.0
C2603 C 0.91052 0.96569 0.23971 0.0
C2604 C 0.72688 0.19795 -0.00319 0.0
C2605 C 0.72962 0.18602 0.97666 0.0
H2606 H 0.73992 0.20426 0.02992 0.0
C2607 C 0.74908 0.17314 0.97359 0.0
H2608 H 0.71204 0.20803 -0.00042 0.0
C2609 C 0.76439 0.17034 0.99102 0.0
C2610 C 0.76106 0.18118 0.01157 0.0
H2611 H 0.75187 0.16425 0.958 0.0
H2612 H 0.77865 0.15934 0.98859 0.0
C2613 C 0.74266 0.19565 0.01416 0.0
C2614 C 0.71798 0.59295 0.00163 0.0
C2615 C 0.71767 0.57751 0.98392 0.0
H2616 H 0.73638 0.60695 0.0292 0.0
C2617 C 0.73546 0.56219 0.98191 0.0
H2618 H 0.70382 0.60387 0.00431 0.0
C2619 C 0.75363 0.56308 -0.00316 0.0
C2620 C 0.75449 0.57963 0.01361 0.0
H2621 H 0.73554 0.54986 0.96857 0.0
H2622 H 0.76726 0.55122 -0.00506 0.0
C2623 C 0.73645 0.59449 0.01596 0.0
C2624 C 0.26252 0.90477 -0.00334 0.0
C2625 C 0.25538 0.90384 0.97425 0.0
H2626 H 0.25255 0.90678 0.03127 0.0
C2627 C 0.23238 0.90402 0.96943 0.0
H2628 H 0.28023 0.90481 0.00066 0.0
C2629 C 0.21665 0.90466 0.98686 0.0
C2630 C 0.22377 0.90571 0.00926 0.0
H2631 H 0.22659 0.90342 0.95222 0.0
H2632 H 0.19894 0.90452 0.98285 0.0
C2633 C 0.24678 0.90596 0.01407 0.0
C2634 C 0.84795 0.48231 0.71439 0.0
C2635 C 0.83236 0.49987 0.71535 0.0
H2636 H 0.85935 0.45154 0.72931 0.0
C2637 C 0.81663 0.50026 0.73287 0.0
H2638 H 0.8597 0.48127 0.70059 0.0
C2639 C 0.81706 0.48378 0.74965 0.0
C2640 C 0.83302 0.46645 0.74895 0.0
H2641 H 0.80427 0.51354 0.7338 0.0
H2642 H 0.8051 0.48472 0.76327 0.0
C2643 C 0.84794 0.46552 0.73084 0.0
C2644 C 0.22497 0.08564 0.49579 0.0
C2645 C 0.22918 0.07969 0.47342 0.0
H2646 H 0.23892 0.09129 0.52853 0.0
C2647 C 0.25111 0.0741 0.46695 0.0
H2648 H 0.20812 0.08974 0.50118 0.0
C2649 C 0.2687 0.07522 0.48251 0.0
C2650 C 0.26451 0.08175 0.50473 0.0
H2651 H 0.25469 0.06939 0.44978 0.0
H2652 H 0.28559 0.07121 0.47717 0.0
C2653 C 0.2425 0.08657 0.51136 0.0
C2654 C 0.1141 0.01647 0.73528 0.0
C2655 C 0.11588 0.01699 0.75874 0.0
H2656 H 0.11061 -0.00409 0.70592 0.0
C2657 C 0.11605 -0.00328 0.77071 0.0
H2658 H 0.11445 0.03192 0.72572 0.0
C2659 C 0.11521 0.9762 0.75934 0.0
C2660 C 0.11303 0.97566 0.73591 0.0
H2661 H 0.11769 -0.00322 0.78876 0.0
H2662 H 0.11658 0.96073 0.7688 0.0
C2663 C 0.11191 -0.00404 0.72401 0.0
C2664 C 0.72996 0.42005 0.48255 0.0
C2665 C 0.74971 0.40726 0.48359 0.0
H2666 H 0.69786 0.42688 0.49752 0.0
C2667 C 0.75252 0.39213 0.50138 0.0
H2668 H 0.72743 0.43203 0.46912 0.0
C2669 C 0.73534 0.38835 0.51683 0.0
C2670 C 0.71536 0.4006 0.51546 0.0
H2671 H 0.76804 0.38304 0.50313 0.0
H2672 H 0.73787 0.37621 0.53015 0.0
C2673 C 0.713 0.41693 0.49859 0.0
C2674 C 0.66554 0.51477 0.23495 0.0
C2675 C 0.67766 0.5108 0.25469 0.0
H2676 H 0.65395 0.50149 0.20361 0.0
C2677 C 0.69045 0.49108 0.25652 0.0
H2678 H 0.65634 0.53024 0.23285 0.0
C2679 C 0.68983 0.47496 0.23939 0.0
C2680 C 0.67609 0.47827 0.22055 0.0
H2681 H 0.70009 0.48771 0.27153 0.0
H2682 H 0.69926 0.45955 0.24128 0.0
C2683 C 0.66427 0.49843 0.21826 0.0
C2684 C 0.89558 0.48605 0.75744 0.0
C2685 C 0.89794 0.50726 0.74742 0.0
H2686 H 0.89711 0.45031 0.75289 0.0
C2687 C 0.90451 0.50874 0.72488 0.0
H2688 H 0.89065 0.48459 0.77485 0.0
C2689 C 0.9075 0.48921 0.71221 0.0
C2690 C 0.90482 0.46802 0.72216 0.0
H2691 H 0.90653 0.52495 0.7169 0.0
H2692 H 0.91134 0.49065 0.69452 0.0
C2693 C 0.89952 0.46653 0.74501 0.0
C2694 C 0.73538 0.66507 0.01056 0.0
C2695 C 0.71567 0.65467 0.00301 0.0
H2696 H 0.77062 0.67014 0.00504 0.0
C2697 C 0.71613 0.64227 0.98309 0.0
H2698 H 0.73535 0.67479 0.0259 0.0
C2699 C 0.73634 0.63875 0.97176 0.0
C2700 C 0.75626 0.64846 0.97969 0.0
H2701 H 0.70093 0.63474 0.97672 0.0
H2702 H 0.73635 0.62854 0.95673 0.0
C2703 C 0.75552 0.66219 -0.00118 0.0
C2704 C 0.61776 0.48154 0.25678 0.0
C2705 C 0.60348 0.46529 0.2475 0.0
H2706 H 0.62618 0.51638 0.25854 0.0
C2707 C 0.5871 0.47205 0.23195 0.0
H2708 H 0.62999 0.47704 0.26944 0.0
C2709 C 0.58551 0.49458 0.22536 0.0
C2710 C 0.60009 0.51069 0.23446 0.0
H2711 H 0.57558 0.45992 0.22487 0.0
H2712 H 0.5732 0.49934 0.2129 0.0
C2713 C 0.61572 0.50404 0.25058 0.0
C2714 C 0.71814 0.31572 0.49822 0.0
C2715 C 0.71264 0.33178 0.48185 0.0
H2716 H 0.74379 0.30266 0.51999 0.0
C2717 C 0.72961 0.34561 0.47318 0.0
H2718 H 0.7054 0.30458 0.50485 0.0
C2719 C 0.75156 0.34369 0.481 0.0
C2720 C 0.75682 0.32873 0.49829 0.0
H2721 H 0.72603 0.35764 0.46002 0.0
H2722 H 0.76446 0.35415 0.4738 0.0
C2723 C 0.74008 0.31438 0.5066 0.0
C2724 C 0.68491 0.9681 0.73248 0.0
C2725 C 0.68562 0.97328 0.75543 0.0
H2726 H 0.68262 0.98103 0.69887 0.0
C2727 C 0.68598 -0.00416 0.76217 0.0
H2728 H 0.68423 0.95078 0.727 0.0
C2729 C 0.68566 0.01302 0.74615 0.0
C2730 C 0.68425 0.00785 0.72324 0.0
H2731 H 0.68622 0.00014 0.77982 0.0
H2732 H 0.68568 0.03035 0.75167 0.0
C2733 C 0.6839 0.9853 0.71648 0.0
C2734 C 0.04318 0.50058 0.21467 0.0
C2735 C 0.0434 0.47774 0.2205 0.0
H2736 H 0.04351 0.53457 0.22663 0.0
C2737 C 0.04155 0.47152 0.2431 0.0
H2738 H 0.04497 0.50566 0.19731 0.0
C2739 C 0.04125 0.48798 0.25981 0.0
C2740 C 0.0422 0.51081 0.25405 0.0
H2741 H 0.04214 0.45399 0.24792 0.0
H2742 H 0.04157 0.48288 0.27725 0.0
C2743 C 0.0423 0.51705 0.23137 0.0
C2744 C 0.23451 0.34857 0.9702 0.0
C2745 C 0.25783 0.35089 0.97211 0.0
H2746 H 0.20309 0.34602 0.9877 0.0
C2747 C 0.26751 0.35273 0.99348 0.0
H2748 H 0.22677 0.34684 0.95386 0.0
C2749 C 0.254 0.35272 0.01271 0.0
C2750 C 0.23069 0.35032 0.01083 0.0
H2751 H 0.28551 0.3543 -0.00473 0.0
H2752 H 0.26177 0.35427 0.02906 0.0
C2753 C 0.22105 0.34803 0.98947 0.0
C2754 C 0.44335 0.49884 0.76234 0.0
C2755 C 0.44212 0.47589 0.75721 0.0
H2756 H 0.44368 0.53251 0.74943 0.0
C2757 C 0.44262 0.46904 0.73473 0.0
H2758 H 0.44261 0.50443 0.77961 0.0
C2759 C 0.44268 0.48503 0.71754 0.0
C2760 C 0.44287 0.50803 0.72266 0.0
H2761 H 0.44124 0.45141 0.73045 0.0
H2762 H 0.44136 0.47948 0.7003 0.0
C2763 C 0.44404 0.51484 0.74514 0.0
C2764 C 0.21849 0.62006 0.49438 0.0
C2765 C 0.2248 0.63117 0.47463 0.0
H2766 H 0.22679 0.6128 0.52875 0.0
C2767 C 0.24497 0.64332 0.47427 0.0
H2768 H 0.20257 0.61137 0.49527 0.0
C2769 C 0.25889 0.64381 0.4932 0.0
C2770 C 0.25278 0.63233 0.51288 0.0
H2771 H 0.24996 0.65239 0.45933 0.0
H2772 H 0.27447 0.65312 0.49243 0.0
C2773 C 0.23228 0.62082 0.51342 0.0
C2774 C 0.37098 0.02107 0.25341 0.0
C2775 C 0.37238 0.02251 0.22995 0.0
H2776 H 0.37059 -0.00059 0.28219 0.0
C2777 C 0.37435 0.00271 0.21736 0.0
H2778 H 0.36902 0.03611 0.26342 0.0
C2779 C 0.37367 0.98175 0.228 0.0
C2780 C 0.37259 0.98035 0.25146 0.0
H2781 H 0.37513 0.00344 0.19926 0.0
H2782 H 0.37393 0.96663 0.21794 0.0
C2783 C 0.37167 0.00016 0.26411 0.0
C2784 C 0.08025 0.3647 0.34815 0.0
C2785 C 0.0915 0.35605 0.36689 0.0
H2786 H 0.07517 0.39254 0.32647 0.0
C2787 C 0.10732 0.36942 0.3781 0.0
H2788 H 0.06789 0.35483 0.33921 0.0
C2789 C 0.11161 0.39132 0.37066 0.0
C2790 C 0.09989 0.39997 0.35215 0.0
H2791 H 0.11607 0.36311 0.39272 0.0
H2792 H 0.12392 0.40144 0.37936 0.0
C2793 C 0.08427 0.38644 0.34098 0.0
C2794 C 0.87064 0.86857 0.63057 0.0
C2795 C 0.88271 0.85216 0.61873 0.0
H2796 H 0.83905 0.88561 0.63421 0.0
C2797 C 0.87191 0.83968 0.60199 0.0
H2798 H 0.8786 0.87822 0.64373 0.0
C2799 C 0.8495 0.8432 0.59728 0.0
C2800 C 0.83738 0.85978 0.60867 0.0
H2801 H 0.88065 0.82679 0.59265 0.0
H2802 H 0.84186 0.83318 0.58418 0.0
C2803 C 0.84804 0.87253 0.6254 0.0
C2804 C 0.36929 0.60326 0.86249 0.0
C2805 C 0.38253 0.5922 0.84645 0.0
H2806 H 0.36222 0.63455 0.87902 0.0
C2807 C 0.3984 0.60447 0.83416 0.0
H2808 H 0.35674 0.59417 0.87196 0.0
C2809 C 0.40097 0.62731 0.83758 0.0
C2810 C 0.38806 0.63845 0.85374 0.0
H2811 H 0.40871 0.59651 0.82148 0.0
H2812 H 0.4135 0.63613 0.82782 0.0
C2813 C 0.37218 0.62631 0.86625 0.0
C2814 C 0.60098 0.12605 0.1263 0.0
C2815 C 0.58849 0.1417 0.11388 0.0
H2816 H 0.63288 0.10975 0.13033 0.0
C2817 C 0.59859 0.15296 0.09586 0.0
H2818 H 0.59356 0.11733 0.14041 0.0
C2819 C 0.6209 0.1493 0.09072 0.0
C2820 C 0.63356 0.13386 0.1031 0.0
H2821 H 0.58943 0.16517 0.086 0.0
H2822 H 0.6281 0.15844 0.07674 0.0
C2823 C 0.62344 0.12199 0.12078 0.0
C2824 C 0.11317 0.62462 0.10836 0.0
C2825 C 0.09854 0.63738 0.12173 0.0
H2826 H 0.12821 0.59222 0.10299 0.0
C2827 C 0.08802 0.62732 0.14019 0.0
H2828 H 0.12131 0.63202 0.0939 0.0
C2829 C 0.09131 0.60481 0.14482 0.0
C2830 C 0.10561 0.59182 0.13143 0.0
H2831 H 0.07661 0.63666 0.15079 0.0
H2832 H 0.08267 0.59766 0.15913 0.0
C2833 C 0.11687 0.6019 0.11334 0.0
C2834 C 0.61898 0.85372 0.35649 0.0
C2835 C 0.60711 0.8361 0.36666 0.0
H2836 H 0.64964 0.87262 0.35592 0.0
C2837 C 0.61772 0.82272 0.38283 0.0
H2838 H 0.61115 0.86408 0.34377 0.0
C2839 C 0.63963 0.82702 0.3891 0.0
C2840 C 0.6513 0.84518 0.37979 0.0
H2841 H 0.60908 0.80886 0.39081 0.0
H2842 H 0.64708 0.81661 0.40202 0.0
C2843 C 0.64099 0.85838 0.36318 0.0
C2844 C 0.40435 0.36274 0.64227 0.0
C2845 C 0.39006 0.35018 0.62848 0.0
H2846 H 0.41301 0.39476 0.65518 0.0
C2847 C 0.37316 0.36116 0.61628 0.0
H2848 H 0.41779 0.35485 0.65159 0.0
C2849 C 0.37019 0.38441 0.61857 0.0
C2850 C 0.38444 0.39678 0.63269 0.0
H2851 H 0.36216 0.35179 0.60527 0.0
H2852 H 0.35656 0.39255 0.60978 0.0
C2853 C 0.40177 0.38574 0.6441 0.0
C2854 C 0.85241 0.14759 0.90269 0.0
C2855 C 0.84007 0.13171 0.89055 0.0
H2856 H 0.88388 0.1632 0.90814 0.0
C2857 C 0.8507 0.11912 0.8737 0.0
H2858 H 0.84477 0.15741 0.91594 0.0
C2859 C 0.87346 0.12262 0.86904 0.0
C2860 C 0.88572 0.13842 0.88149 0.0
H2861 H 0.84152 0.10659 0.86431 0.0
H2862 H 0.88139 0.11314 0.85573 0.0
C2863 C 0.87498 0.15073 0.8984 0.0
C2864 C 0.35045 0.09028 0.34228 0.0
C2865 C 0.37318 0.09623 0.34135 0.0
H2866 H 0.3191 0.09476 0.35906 0.0
C2867 C 0.38138 0.11324 0.35537 0.0
H2868 H 0.34375 0.07721 0.33157 0.0
C2869 C 0.36718 0.1235 0.37085 0.0
C2870 C 0.34478 0.11657 0.37267 0.0
H2871 H 0.39884 0.11816 0.35479 0.0
H2872 H 0.37399 0.13607 0.38208 0.0
C2873 C 0.33637 0.10025 0.35799 0.0
C2874 C 0.1209 0.12076 0.60983 0.0
C2875 C 0.14308 0.11333 0.6076 0.0
H2876 H 0.08987 0.11724 0.62748 0.0
C2877 C 0.15171 0.09761 0.62282 0.0
H2878 H 0.11391 0.13289 0.59823 0.0
C2879 C 0.13807 0.08893 0.63971 0.0
C2880 C 0.11558 0.09561 0.64128 0.0
H2881 H 0.16883 0.09174 0.62143 0.0
H2882 H 0.14489 0.07639 0.65097 0.0
C2883 C 0.10716 0.11181 0.62647 0.0
C2884 C 0.13236 0.90185 0.8478 0.0
C2885 C 0.10917 0.89804 0.84738 0.0
H2886 H 0.16344 0.89483 0.86415 0.0
C2887 C 0.09968 0.88217 0.86196 0.0
H2888 H 0.14006 0.91398 0.83664 0.0
C2889 C 0.11312 0.87102 0.87752 0.0
C2890 C 0.13608 0.87588 0.8788 0.0
H2891 H 0.08183 0.87889 0.8618 0.0
H2892 H 0.10538 0.85941 0.88918 0.0
C2893 C 0.14571 0.89097 0.86353 0.0
C2894 C 0.3805 0.88735 0.12008 0.0
C2895 C 0.37214 0.90375 0.13469 0.0
H2896 H 0.37296 0.86403 0.09387 0.0
C2897 C 0.34914 0.90865 0.1348 0.0
H2898 H 0.39818 0.88325 0.11985 0.0
C2899 C 0.33481 0.89793 0.11979 0.0
C2900 C 0.34326 0.88189 0.10482 0.0
H2901 H 0.34235 0.92127 0.14597 0.0
H2902 H 0.31722 0.90242 0.11966 0.0
C2903 C 0.36609 0.87632 0.10536 0.0
C2904 C 0.40261 0.38664 0.09852 0.0
C2905 C 0.41395 0.36993 0.08643 0.0
H2906 H 0.37307 0.40703 0.10064 0.0
C2907 C 0.40557 0.36279 0.06568 0.0
H2908 H 0.40882 0.39234 0.11461 0.0
C2909 C 0.38522 0.3709 0.05794 0.0
C2910 C 0.37304 0.38638 0.07074 0.0
H2911 H 0.41413 0.35003 0.05599 0.0
H2912 H 0.37869 0.36443 0.04226 0.0
C2913 C 0.38217 0.39488 0.09066 0.0
C2914 C 0.86179 0.83462 0.1277 0.0
C2915 C 0.87756 0.82135 0.13906 0.0
H2916 H 0.84424 0.86603 0.12688 0.0
C2917 C 0.88669 0.82892 0.15935 0.0
H2918 H 0.85461 0.8291 0.11195 0.0
C2919 C 0.88116 0.84999 0.16754 0.0
C2920 C 0.8662 0.86372 0.15574 0.0
H2921 H 0.89888 0.819 0.16845 0.0
H2922 H 0.88891 0.85565 0.18298 0.0
C2923 C 0.85603 0.85573 0.13608 0.0
C2924 C 0.1041 0.62715 0.56428 0.0
C2925 C 0.11268 0.60898 0.57654 0.0
H2926 H 0.07871 0.6522 0.56183 0.0
C2927 C 0.10107 0.60103 0.59538 0.0
H2928 H 0.11264 0.63342 0.54951 0.0
C2929 C 0.08151 0.61177 0.60238 0.0
C2930 C 0.07346 0.63049 0.59056 0.0
H2931 H 0.10735 0.58692 0.60495 0.0
H2932 H 0.07315 0.60589 0.61741 0.0
C2933 C 0.08461 0.6378 0.57122 0.0
C2934 C 0.89118 0.63348 0.63772 0.0
C2935 C 0.87861 0.64436 0.62106 0.0
H2936 H 0.8948 0.60407 0.65808 0.0
C2937 C 0.85955 0.63388 0.6122 0.0
H2938 H 0.9062 0.64112 0.64451 0.0
C2939 C 0.85307 0.61279 0.61992 0.0
C2940 C 0.86583 0.60172 0.63629 0.0
H2941 H 0.84976 0.64189 0.59915 0.0
H2942 H 0.83813 0.6051 0.61302 0.0
C2943 C 0.88493 0.61218 0.64516 0.0
C2944 C 0.11904 0.14396 0.40916 0.0
C2945 C 0.12725 0.12399 0.39982 0.0
H2946 H 0.09615 0.17137 0.40576 0.0
C2947 C 0.118 0.11576 0.37984 0.0
H2948 H 0.12585 0.15045 0.4247 0.0
C2949 C 0.10132 0.12791 0.36882 0.0
C2950 C 0.09332 0.14803 0.37805 0.0
H2951 H 0.1241 0.10034 0.37242 0.0
H2952 H 0.09485 0.12173 0.35302 0.0
C2953 C 0.10197 0.15576 0.39848 0.0
C2954 C 0.62642 0.35718 0.11043 0.0
C2955 C 0.6069 0.34799 0.11977 0.0
H2956 H 0.651 0.38322 0.11215 0.0
C2957 C 0.59658 0.35869 0.13801 0.0
H2958 H 0.63452 0.34932 0.09619 0.0
C2959 C 0.60567 0.37842 0.14674 0.0
C2960 C 0.62533 0.38744 0.13753 0.0
H2961 H 0.58127 0.35208 0.14522 0.0
H2962 H 0.59762 0.38629 0.161 0.0
C2963 C 0.63568 0.37665 0.11938 0.0
C2964 C 0.37846 0.83498 0.88399 0.0
C2965 C 0.38594 0.8455 0.86431 0.0
H2966 H 0.35521 0.8358 0.91132 0.0
C2967 C 0.37563 0.86531 0.85695 0.0
H2968 H 0.38608 0.81953 0.88978 0.0
C2969 C 0.35831 0.87477 0.86942 0.0
C2970 C 0.35073 0.86419 0.88903 0.0
H2971 H 0.38116 0.87361 0.84175 0.0
H2972 H 0.35075 0.89027 0.86366 0.0
C2973 C 0.36076 0.84414 0.89615 0.0
C2974 C 0.9092 0.35232 0.84658 0.0
C2975 C 0.89805 0.34453 0.86579 0.0
H2976 H 0.90791 0.37408 0.81799 0.0
C2977 C 0.8763 0.35201 0.87049 0.0
H2978 H 0.92611 0.34689 0.8428 0.0
C2979 C 0.86583 0.36722 0.8562 0.0
C2980 C 0.87723 0.37555 0.83737 0.0
H2981 H 0.86746 0.34625 0.88529 0.0
H2982 H 0.84902 0.37283 0.86013 0.0
C2983 C 0.89894 0.36798 0.83258 0.0
C2984 C 0.382 0.12838 0.62118 0.0
C2985 C 0.3882 0.15067 0.61695 0.0
H2986 H 0.36307 0.1 0.61023 0.0
C2987 C 0.3802 0.16162 0.59773 0.0
H2988 H 0.38804 0.11963 0.63592 0.0
C2989 C 0.36547 0.15054 0.58327 0.0
C2990 C 0.3591 0.12829 0.58767 0.0
H2991 H 0.38471 0.17891 0.59432 0.0
H2992 H 0.35899 0.15937 0.56877 0.0
C2993 C 0.36777 0.11717 0.60649 0.0
C2994 C 0.61835 0.61803 0.37418 0.0
C2995 C 0.59985 0.62859 0.36425 0.0
H2996 H 0.64329 0.59249 0.37121 0.0
C2997 C 0.5913 0.62044 0.34391 0.0
H2998 H 0.62511 0.62394 0.38997 0.0
C2999 C 0.60139 0.60211 0.33344 0.0
C3000 C 0.62029 0.59201 0.34308 0.0
H3001 H 0.57685 0.62821 0.33612 0.0
H3002 H 0.59492 0.5964 0.31745 0.0
C3003 C 0.62862 0.59998 0.36357 0.0
C3004 C 0.09554 0.84254 0.09339 0.0
C3005 C 0.08751 0.8522 0.11326 0.0
H3006 H 0.12027 0.84382 0.06744 0.0
C3007 C 0.09765 0.87168 0.12171 0.0
H3008 H 0.08814 0.82731 0.08678 0.0
C3009 C 0.11578 0.88131 0.11047 0.0
C3010 C 0.12435 0.8711 0.09111 0.0
H3011 H 0.09176 0.87925 0.13714 0.0
H3012 H 0.12346 0.89632 0.11724 0.0
C3013 C 0.11405 0.85177 0.08254 0.0
C3014 C 0.63505 0.85314 0.61292 0.0
C3015 C 0.63461 0.85904 0.59017 0.0
H3016 H 0.63177 0.86496 0.6467 0.0
C3017 C 0.6267 0.88017 0.58361 0.0
H3018 H 0.64148 0.83697 0.6182 0.0
C3019 C 0.6205 0.89583 0.59979 0.0
C3020 C 0.62314 0.89071 0.62257 0.0
H3021 H 0.62659 0.885 0.56609 0.0
H3022 H 0.61542 0.91248 0.59453 0.0
C3023 C 0.62978 0.86913 0.62912 0.0
C3024 C 0.84017 0.89292 0.39292 0.0
C3025 C 0.8512 0.8742 0.40195 0.0
H3026 H 0.84081 0.91895 0.36818 0.0
C3027 C 0.87216 0.8678 0.3935 0.0
H3028 H 0.82385 0.89797 0.39907 0.0
C3029 C 0.88196 0.87994 0.3761 0.0
C3030 C 0.87062 0.89825 0.36662 0.0
H3031 H 0.88087 0.85333 0.40023 0.0
H3032 H 0.89813 0.8747 0.36973 0.0
C3033 C 0.84973 0.90474 0.37518 0.0
C3034 C 0.82525 0.0932 0.10557 0.0
C3035 C 0.83599 0.11275 0.09804 0.0
H3036 H 0.82731 0.06423 0.12682 0.0
C3037 C 0.85768 0.11779 0.10547 0.0
H3038 H 0.80842 0.08915 0.10009 0.0
C3039 C 0.86858 0.10341 0.12028 0.0
C3040 C 0.85768 0.08413 0.12826 0.0
H3041 H 0.86624 0.1328 0.0998 0.0
H3042 H 0.88534 0.10764 0.12585 0.0
C3043 C 0.83595 0.07908 0.12086 0.0
C3044 C 0.63573 0.08711 0.8854 0.0
C3045 C 0.63618 0.09219 0.86248 0.0
H3046 H 0.64268 0.09898 0.91857 0.0
C3047 C 0.64053 0.11416 0.8553 0.0
H3048 H 0.63234 0.07017 0.89112 0.0
C3049 C 0.64525 0.13082 0.87102 0.0
C3050 C 0.64665 0.12527 0.89381 0.0
H3051 H 0.6407 0.11829 0.8376 0.0
H3052 H 0.64943 0.14756 0.86526 0.0
C3053 C 0.64145 0.1035 0.901 0.0
C3054 C 0.60217 0.65706 0.89249 0.0
C3055 C 0.59429 0.64732 0.87259 0.0
H3056 H 0.62396 0.6537 0.92081 0.0
C3057 C 0.60209 0.62614 0.86603 0.0
H3058 H 0.59646 0.6735 0.89773 0.0
C3059 C 0.61745 0.61468 0.87941 0.0
C3060 C 0.6256 0.6246 0.89911 0.0
H3061 H 0.5962 0.61839 0.85069 0.0
H3062 H 0.62317 0.59822 0.87422 0.0
C3063 C 0.61797 0.64588 0.90554 0.0
C3064 C 0.10205 0.1112 0.869 0.0
C3065 C 0.11074 0.11716 0.84801 0.0
H3066 H 0.08943 0.12303 0.90045 0.0
C3067 C 0.1151 0.13976 0.84304 0.0
H3068 H 0.09868 0.0938 0.87308 0.0
C3069 C 0.10927 0.15642 0.85834 0.0
C3070 C 0.09994 0.15051 0.87906 0.0
H3071 H 0.12177 0.14459 0.82683 0.0
H3072 H 0.11129 0.1739 0.85371 0.0
C3073 C 0.09706 0.12782 0.88466 0.0
C3074 C 0.87115 0.3714 0.36786 0.0
C3075 C 0.88177 0.35233 0.37661 0.0
H3076 H 0.84401 0.39465 0.37121 0.0
C3077 C 0.87236 0.34113 0.39505 0.0
H3078 H 0.87803 0.38014 0.35348 0.0
C3079 C 0.85257 0.34894 0.40467 0.0
C3080 C 0.84224 0.36834 0.39626 0.0
H3081 H 0.8801 0.32614 0.40181 0.0
H3082 H 0.84577 0.34026 0.41912 0.0
C3083 C 0.85164 0.37954 0.37782 0.0
C3084 C 0.60637 0.88579 0.83202 0.0
C3085 C 0.62923 0.88575 0.8375 0.0
H3086 H 0.57484 0.86918 0.83538 0.0
C3087 C 0.63773 0.86929 0.85201 0.0
H3088 H 0.59945 0.89829 0.82077 0.0
C3089 C 0.62353 0.85277 0.8606 0.0
C3090 C 0.60087 0.85237 0.85436 0.0
H3091 H 0.65534 0.869 0.85641 0.0
H3092 H 0.63037 0.83997 0.87156 0.0
C3093 C 0.59234 0.86909 0.84022 0.0
C3094 C 0.86105 0.11998 0.35699 0.0
C3095 C 0.87085 0.11145 0.33736 0.0
H3096 H 0.86033 0.14713 0.3806 0.0
C3097 C 0.8862 0.12455 0.32533 0.0
H3098 H 0.84899 0.11017 0.36638 0.0
C3099 C 0.89237 0.14555 0.33318 0.0
C3100 C 0.88341 0.15376 0.3533 0.0
H3101 H 0.89373 0.11848 0.30994 0.0
H3102 H 0.90474 0.15503 0.32384 0.0
C3103 C 0.86736 0.1411 0.36496 0.0
C3104 C 0.59362 0.1243 0.65214 0.0
C3105 C 0.60317 0.14125 0.63891 0.0
H3106 H 0.59832 0.09244 0.6679 0.0
C3107 C 0.62482 0.13846 0.63021 0.0
H3108 H 0.57682 0.12601 0.65881 0.0
C3109 C 0.63718 0.11934 0.63551 0.0
C3110 C 0.62785 0.10267 0.64926 0.0
H3111 H 0.63243 0.15133 0.61984 0.0
H3112 H 0.65418 0.11783 0.62931 0.0
C3113 C 0.60582 0.10503 0.65714 0.0
C3114 C 0.10255 0.38539 0.89117 0.0
C3115 C 0.11216 0.37618 0.91056 0.0
H3116 H 0.07465 0.38485 0.86862 0.0
C3117 C 0.09993 0.36087 0.92357 0.0
H3118 H 0.11165 0.39743 0.88106 0.0
C3119 C 0.07874 0.35402 0.91676 0.0
C3120 C 0.06962 0.3622 0.89668 0.0
H3121 H 0.10689 0.35383 0.93883 0.0
H3122 H 0.07002 0.3415 0.92663 0.0
C3123 C 0.08138 0.37836 0.88422 0.0
C3124 C 0.39004 0.63731 0.41387 0.0
C3125 C 0.40013 0.62894 0.39438 0.0
H3126 H 0.36298 0.6344 0.43704 0.0
C3127 C 0.39102 0.61008 0.38363 0.0
H3128 H 0.39678 0.65184 0.42244 0.0
C3129 C 0.37158 0.60011 0.39196 0.0
C3130 C 0.36114 0.60896 0.41107 0.0
H3131 H 0.39857 0.60339 0.36853 0.0
H3132 H 0.36454 0.58579 0.38327 0.0
C3133 C 0.37065 0.62741 0.42213 0.0
C3134 C 0.83545 0.57614 0.85505 0.0
C3135 C 0.85356 0.58658 0.84431 0.0
H3136 H 0.81299 0.5765 0.88283 0.0
C3137 C 0.8632 0.60591 0.85366 0.0
H3138 H 0.82782 0.56113 0.84819 0.0
C3139 C 0.85475 0.61468 0.87362 0.0
C3140 C 0.83663 0.60416 0.88431 0.0
H3141 H 0.87727 0.61415 0.84565 0.0
H3142 H 0.86227 0.62969 0.88057 0.0
C3143 C 0.82707 0.58484 0.87492 0.0
C3144 C 0.62614 0.62851 0.11833 0.0
C3145 C 0.64368 0.61854 0.10626 0.0
H3146 H 0.60693 0.62821 0.14874 0.0
C3147 C 0.65621 0.60121 0.11604 0.0
H3148 H 0.61642 0.64206 0.11111 0.0
C3149 C 0.65118 0.59374 0.13746 0.0
C3150 C 0.63332 0.60322 0.1494 0.0
H3151 H 0.67001 0.5934 0.10718 0.0
H3152 H 0.66096 0.58008 0.14441 0.0
C3153 C 0.62089 0.62078 0.13982 0.0
C3154 C 0.64021 0.3939 0.35697 0.0
C3155 C 0.62643 0.38093 0.34304 0.0
H3156 H 0.65362 0.39875 0.38959 0.0
C3157 C 0.6147 0.36259 0.35204 0.0
H3158 H 0.64915 0.4084 0.35061 0.0
C3159 C 0.6174 0.35689 0.37466 0.0
C3160 C 0.63153 0.36978 0.38841 0.0
H3161 H 0.6037 0.35259 0.34161 0.0
H3162 H 0.60893 0.3422 0.38121 0.0
C3163 C 0.64253 0.38854 0.37944 0.0
C3164 C 0.87432 0.36901 0.61441 0.0
C3165 C 0.8652 0.3883 0.62429 0.0
H3166 H 0.87149 0.34491 0.58786 0.0
C3167 C 0.8463 0.39851 0.61478 0.0
H3168 H 0.88897 0.36095 0.6215 0.0
C3169 C 0.83654 0.38957 0.5957 0.0
C3170 C 0.84543 0.37019 0.58586 0.0
H3171 H 0.83902 0.4135 0.62203 0.0
H3172 H 0.82187 0.39776 0.58881 0.0
C3173 C 0.86442 0.35993 0.59523 0.0
C3174 C 0.37825 0.11805 0.11964 0.0
C3175 C 0.37055 0.1232 0.14121 0.0
H3176 H 0.39135 0.13097 0.08883 0.0
C3177 C 0.36774 0.14567 0.14763 0.0
H3178 H 0.38047 0.10075 0.11449 0.0
C3179 C 0.37459 0.16285 0.13331 0.0
C3180 C 0.38336 0.15766 0.11216 0.0
H3181 H 0.3619 0.14988 0.16431 0.0
H3182 H 0.37414 0.18006 0.13916 0.0
C3183 C 0.38421 0.13527 0.10498 0.0
C3184 C 0.08962 0.86784 0.6084 0.0
C3185 C 0.09125 0.84512 0.61429 0.0
H3186 H 0.09388 0.90184 0.61938 0.0
C3187 C 0.10141 0.83889 0.63451 0.0
H3188 H 0.0814 0.87287 0.59299 0.0
C3189 C 0.10909 0.85534 0.6492 0.0
C3190 C 0.10577 0.87808 0.64416 0.0
H3191 H 0.10247 0.82138 0.63934 0.0
H3192 H 0.11615 0.85028 0.66516 0.0
C3193 C 0.09649 0.88432 0.6235 0.0
C3194 C 0.3959 0.8837 0.35791 0.0
C3195 C 0.38662 0.87792 0.33713 0.0
H3196 H 0.41041 0.87159 0.38846 0.0
C3197 C 0.3833 0.85528 0.33161 0.0
H3198 H 0.39847 0.90113 0.36241 0.0
C3199 C 0.39065 0.83851 0.34612 0.0
C3200 C 0.40049 0.84429 0.36663 0.0
H3201 H 0.37621 0.85059 0.31555 0.0
H3202 H 0.3893 0.82109 0.34107 0.0
C3203 C 0.40245 0.86691 0.37281 0.0
C3204 C 0.881 0.62415 0.12166 0.0
C3205 C 0.88918 0.64499 0.11442 0.0
H3206 H 0.8572 0.59786 0.11629 0.0
C3207 C 0.87969 0.65536 0.09553 0.0
H3208 H 0.88801 0.61594 0.13628 0.0
C3209 C 0.86166 0.64535 0.08452 0.0
C3210 C 0.85328 0.62466 0.09199 0.0
H3211 H 0.88559 0.6716 0.08985 0.0
H3212 H 0.85429 0.65376 0.07019 0.0
C3213 C 0.86332 0.61392 0.11035 0.0
C3214 C 0.62345 0.32636 0.60047 0.0
C3215 C 0.63185 0.34755 0.6064 0.0
H3216 H 0.59997 0.3002 0.60836 0.0
C3217 C 0.62347 0.35847 0.62545 0.0
H3218 H 0.62958 0.31777 0.58569 0.0
C3219 C 0.60681 0.34848 0.63835 0.0
C3220 C 0.59795 0.32759 0.63218 0.0
H3221 H 0.62968 0.37485 0.63031 0.0
H3222 H 0.60064 0.35728 0.653 0.0
C3223 C 0.60641 0.31649 0.61322 0.0
C3224 C 0.15648 0.40789 0.12142 0.0
C3225 C 0.15451 0.38527 0.11521 0.0
H3226 H 0.14212 0.43517 0.13987 0.0
C3227 C 0.1367 0.37236 0.12359 0.0
H3228 H 0.1701 0.41812 0.11511 0.0
C3229 C 0.12055 0.38216 0.13729 0.0
C3230 C 0.12231 0.40485 0.1432 0.0
H3231 H 0.13481 0.35488 0.11894 0.0
H3232 H 0.10659 0.37207 0.14308 0.0
C3233 C 0.14058 0.41757 0.13557 0.0
C3234 C 0.3516 0.37228 0.85879 0.0
C3235 C 0.33342 0.385 0.86662 0.0
H3236 H 0.38182 0.37209 0.83948 0.0
C3237 C 0.33096 0.40734 0.85961 0.0
H3238 H 0.35389 0.35502 0.86405 0.0
C3239 C 0.34674 0.41695 0.84524 0.0
C3240 C 0.36536 0.40446 0.83815 0.0
H3241 H 0.31706 0.41743 0.86548 0.0
H3242 H 0.34479 0.43435 0.84031 0.0
C3243 C 0.3676 0.38203 0.84485 0.0
C3244 C 0.34684 0.56505 0.63518 0.0
C3245 C 0.36508 0.57807 0.64233 0.0
H3246 H 0.31663 0.5641 0.61578 0.0
C3247 C 0.36625 0.60082 0.63648 0.0
H3248 H 0.34573 0.54741 0.63947 0.0
C3249 C 0.34946 0.61042 0.62342 0.0
C3250 C 0.33157 0.59725 0.61562 0.0
H3251 H 0.38017 0.61115 0.64192 0.0
H3252 H 0.35087 0.62796 0.61884 0.0
C3253 C 0.33028 0.57454 0.62168 0.0
C3254 C 0.14698 0.57547 0.36455 0.0
C3255 C 0.14471 0.59774 0.3718 0.0
H3256 H 0.13433 0.5496 0.34304 0.0
C3257 C 0.1281 0.61146 0.36234 0.0
H3258 H 0.15973 0.56464 0.37163 0.0
C3259 C 0.11346 0.60282 0.34636 0.0
C3260 C 0.11556 0.58051 0.33927 0.0
H3261 H 0.12602 0.6287 0.36771 0.0
H3262 H 0.10038 0.61353 0.3397 0.0
C3263 C 0.1326 0.56696 0.34818 0.0
loop_
_geom_bond_atom_site_label_1
_geom_bond_atom_site_label_2
_geom_bond_distance
_geom_bond_site_symmetry_2
_ccdc_geom_bond_type
Co0 O1 2.216 . S
Co0 O2 2.091 . S
Co0 O4 2.004 . S
Co0 O10 2.021 . S
Co0 O12 2.137 . S
Co0 O13 2.244 . S
O1 Co0 2.216 . S
O1 C8 1.247 . S
O2 Co0 2.091 . S
O2 C8 1.261 . S
C3 O12 1.247 . S
C3 O13 1.272 . S
O4 Co0 2.004 . S
O4 C9 1.259 . S
Co5 O6 2.061 . S
Co5 O11 2.052 . S
Co5 O13 2.135 . S
O6 Co5 2.061 . S
O6 C9 1.235 . S
C7 O10 1.238 . S
C7 O11 1.241 . S
C8 O1 1.247 . S
C8 O2 1.261 . S
C9 O4 1.259 . S
C9 O6 1.235 . S
O10 Co0 2.021 . S
O10 C7 1.238 . S
O11 Co5 2.052 . S
O11 C7 1.241 . S
O12 Co0 2.137 . S
O12 C3 1.247 . S
O13 Co0 2.244 . S
O13 C3 1.272 . S
O13 Co5 2.135 . S
Co14 O15 2.216 . S
Co14 O16 2.091 . S
Co14 O18 2.004 . S
Co14 O24 2.021 . S
Co14 O26 2.137 . S
Co14 O27 2.244 . S
O15 Co14 2.216 . S
O15 C22 1.247 . S
O16 Co14 2.091 . S
O16 C22 1.261 . S
C17 O26 1.247 . S
C17 O27 1.272 . S
O18 Co14 2.004 . S
O18 C23 1.259 . S
Co19 O20 2.061 . S
Co19 O25 2.052 . S
Co19 O27 2.135 . S
O20 Co19 2.061 . S
O20 C23 1.235 . S
C21 O24 1.238 . S
C21 O25 1.241 . S
C22 O15 1.247 . S
C22 O16 1.261 . S
C23 O18 1.259 . S
C23 O20 1.235 . S
O24 Co14 2.021 . S
O24 C21 1.238 . S
O25 Co19 2.052 . S
O25 C21 1.241 . S
O26 Co14 2.137 . S
O26 C17 1.247 . S
O27 Co14 2.244 . S
O27 C17 1.272 . S
O27 Co19 2.135 . S
Co28 O29 2.216 . S
Co28 O30 2.091 . S
Co28 O32 2.004 . S
Co28 O38 2.021 . S
Co28 O40 2.137 . S
Co28 O41 2.244 . S
O29 Co28 2.216 . S
O29 C36 1.247 . S
O30 Co28 2.091 . S
O30 C36 1.261 . S
C31 O40 1.247 . S
C31 O41 1.272 . S
O32 Co28 2.004 . S
O32 C37 1.259 . S
Co33 O34 2.061 . S
Co33 O39 2.052 . S
Co33 O41 2.135 . S
O34 Co33 2.061 . S
O34 C37 1.235 . S
C35 O38 1.238 . S
C35 O39 1.241 . S
C36 O29 1.247 . S
C36 O30 1.261 . S
C37 O32 1.259 . S
C37 O34 1.235 . S
O38 Co28 2.021 . S
O38 C35 1.238 . S
O39 Co33 2.052 . S
O39 C35 1.241 . S
O40 Co28 2.137 . S
O40 C31 1.247 . S
O41 Co28 2.244 . S
O41 C31 1.272 . S
O41 Co33 2.135 . S
Co42 O43 2.216 . S
Co42 O44 2.091 . S
Co42 O46 2.004 . S
Co42 O52 2.021 . S
Co42 O54 2.137 . S
Co42 O55 2.244 . S
O43 Co42 2.216 . S
O43 C50 1.247 . S
O44 Co42 2.091 . S
O44 C50 1.261 . S
C45 O54 1.247 . S
C45 O55 1.272 . S
O46 Co42 2.004 . S
O46 C51 1.259 . S
Co47 O48 2.061 . S
Co47 O53 2.052 . S
Co47 O55 2.135 . S
O48 Co47 2.061 . S
O48 C51 1.235 . S
C49 O52 1.238 . S
C49 O53 1.241 . S
C50 O43 1.247 . S
C50 O44 1.261 . S
C51 O46 1.259 . S
C51 O48 1.235 . S
O52 Co42 2.021 . S
O52 C49 1.238 . S
O53 Co47 2.052 . S
O53 C49 1.241 . S
O54 Co42 2.137 . S
O54 C45 1.247 . S
O55 Co42 2.244 . S
O55 C45 1.272 . S
O55 Co47 2.135 . S
Co56 O57 2.216 . S
Co56 O58 2.091 . S
Co56 O60 2.004 . S
Co56 O66 2.021 . S
Co56 O68 2.137 . S
Co56 O69 2.244 . S
O57 Co56 2.216 . S
O57 C64 1.247 . S
O58 Co56 2.091 . S
O58 C64 1.261 . S
C59 O68 1.247 . S
C59 O69 1.272 . S
O60 Co56 2.004 . S
O60 C65 1.259 . S
Co61 O62 2.061 . S
Co61 O67 2.052 . S
Co61 O69 2.135 . S
O62 Co61 2.061 . S
O62 C65 1.235 . S
C63 O66 1.238 . S
C63 O67 1.241 . S
C64 O57 1.247 . S
C64 O58 1.261 . S
C65 O60 1.259 . S
C65 O62 1.235 . S
O66 Co56 2.021 . S
O66 C63 1.238 . S
O67 Co61 2.052 . S
O67 C63 1.241 . S
O68 Co56 2.137 . S
O68 C59 1.247 . S
O69 Co56 2.244 . S
O69 C59 1.272 . S
O69 Co61 2.135 . S
Co70 O71 2.216 . S
Co70 O72 2.091 . S
Co70 O74 2.004 . S
Co70 O80 2.021 . S
Co70 O82 2.137 . S
Co70 O83 2.244 . S
O71 Co70 2.216 . S
O71 C78 1.247 . S
O72 Co70 2.091 . S
O72 C78 1.261 . S
C73 O82 1.247 . S
C73 O83 1.272 . S
O74 Co70 2.004 . S
O74 C79 1.259 . S
Co75 O76 2.061 . S
Co75 O81 2.052 . S
Co75 O83 2.135 . S
O76 Co75 2.061 . S
O76 C79 1.235 . S
C77 O80 1.238 . S
C77 O81 1.241 . S
C78 O71 1.247 . S
C78 O72 1.261 . S
C79 O74 1.259 . S
C79 O76 1.235 . S
O80 Co70 2.021 . S
O80 C77 1.238 . S
O81 Co75 2.052 . S
O81 C77 1.241 . S
O82 Co70 2.137 . S
O82 C73 1.247 . S
O83 Co70 2.244 . S
O83 C73 1.272 . S
O83 Co75 2.135 . S
Co84 O85 2.216 . S
Co84 O86 2.091 . S
Co84 O88 2.004 . S
Co84 O94 2.021 . S
Co84 O96 2.137 . S
Co84 O97 2.244 . S
O85 Co84 2.216 . S
O85 C92 1.247 . S
O86 Co84 2.091 . S
O86 C92 1.261 . S
C87 O96 1.247 . S
C87 O97 1.272 . S
O88 Co84 2.004 . S
O88 C93 1.259 . S
Co89 O90 2.061 . S
Co89 O95 2.052 . S
Co89 O97 2.135 . S
O90 Co89 2.061 . S
O90 C93 1.235 . S
C91 O94 1.238 . S
C91 O95 1.241 . S
C92 O85 1.247 . S
C92 O86 1.261 . S
C93 O88 1.259 . S
C93 O90 1.235 . S
O94 Co84 2.021 . S
O94 C91 1.238 . S
O95 Co89 2.052 . S
O95 C91 1.241 . S
O96 Co84 2.137 . S
O96 C87 1.247 . S
O97 Co84 2.244 . S
O97 C87 1.272 . S
O97 Co89 2.135 . S
Co98 O99 2.216 . S
Co98 O100 2.091 . S
Co98 O102 2.004 . S
Co98 O108 2.021 . S
Co98 O110 2.137 . S
Co98 O111 2.244 . S
O99 Co98 2.216 . S
O99 C106 1.247 . S
O100 Co98 2.091 . S
O100 C106 1.261 . S
C101 O110 1.247 . S
C101 O111 1.272 . S
O102 Co98 2.004 . S
O102 C107 1.259 . S
Co103 O104 2.061 . S
Co103 O109 2.052 . S
Co103 O111 2.135 . S
O104 Co103 2.061 . S
O104 C107 1.235 . S
C105 O108 1.238 . S
C105 O109 1.241 . S
C106 O99 1.247 . S
C106 O100 1.261 . S
C107 O102 1.259 . S
C107 O104 1.235 . S
O108 Co98 2.021 . S
O108 C105 1.238 . S
O109 Co103 2.052 . S
O109 C105 1.241 . S
O110 Co98 2.137 . S
O110 C101 1.247 . S
O111 Co98 2.244 . S
O111 C101 1.272 . S
O111 Co103 2.135 . S
Co112 O113 2.216 . S
Co112 O114 2.091 . S
Co112 O116 2.004 . S
Co112 O122 2.021 . S
Co112 O124 2.137 . S
Co112 O125 2.244 . S
O113 Co112 2.216 . S
O113 C120 1.247 . S
O114 Co112 2.091 . S
O114 C120 1.261 . S
C115 O124 1.247 . S
C115 O125 1.272 . S
O116 Co112 2.004 . S
O116 C121 1.259 . S
Co117 O118 2.061 . S
Co117 O123 2.052 . S
Co117 O125 2.135 . S
O118 Co117 2.061 . S
O118 C121 1.235 . S
C119 O122 1.238 . S
C119 O123 1.241 . S
C120 O113 1.247 . S
C120 O114 1.261 . S
C121 O116 1.259 . S
C121 O118 1.235 . S
O122 Co112 2.021 . S
O122 C119 1.238 . S
O123 Co117 2.052 . S
O123 C119 1.241 . S
O124 Co112 2.137 . S
O124 C115 1.247 . S
O125 Co112 2.244 . S
O125 C115 1.272 . S
O125 Co117 2.135 . S
Co126 O127 2.216 . S
Co126 O128 2.091 . S
Co126 O130 2.004 . S
Co126 O136 2.021 . S
Co126 O138 2.137 . S
Co126 O139 2.244 . S
O127 Co126 2.216 . S
O127 C134 1.247 . S
O128 Co126 2.091 . S
O128 C134 1.261 . S
C129 O138 1.247 . S
C129 O139 1.272 . S
O130 Co126 2.004 . S
O130 C135 1.259 . S
Co131 O132 2.061 . S
Co131 O137 2.052 . S
Co131 O139 2.135 . S
O132 Co131 2.061 . S
O132 C135 1.235 . S
C133 O136 1.238 . S
C133 O137 1.241 . S
C134 O127 1.247 . S
C134 O128 1.261 . S
C135 O130 1.259 . S
C135 O132 1.235 . S
O136 Co126 2.021 . S
O136 C133 1.238 . S
O137 Co131 2.052 . S
O137 C133 1.241 . S
O138 Co126 2.137 . S
O138 C129 1.247 . S
O139 Co126 2.244 . S
O139 C129 1.272 . S
O139 Co131 2.135 . S
Co140 O141 2.216 . S
Co140 O142 2.091 . S
Co140 O144 2.004 . S
Co140 O150 2.021 . S
Co140 O152 2.137 . S
Co140 O153 2.244 . S
O141 Co140 2.216 . S
O141 C148 1.247 . S
O142 Co140 2.091 . S
O142 C148 1.261 . S
C143 O152 1.247 . S
C143 O153 1.272 . S
O144 Co140 2.004 . S
O144 C149 1.259 . S
Co145 O146 2.061 . S
Co145 O151 2.052 . S
Co145 O153 2.135 . S
O146 Co145 2.061 . S
O146 C149 1.235 . S
C147 O150 1.238 . S
C147 O151 1.241 . S
C148 O141 1.247 . S
C148 O142 1.261 . S
C149 O144 1.259 . S
C149 O146 1.235 . S
O150 Co140 2.021 . S
O150 C147 1.238 . S
O151 Co145 2.052 . S
O151 C147 1.241 . S
O152 Co140 2.137 . S
O152 C143 1.247 . S
O153 Co140 2.244 . S
O153 C143 1.272 . S
O153 Co145 2.135 . S
Co154 O155 2.216 . S
Co154 O156 2.091 . S
Co154 O158 2.004 . S
Co154 O164 2.021 . S
Co154 O166 2.137 . S
Co154 O167 2.244 . S
O155 Co154 2.216 . S
O155 C162 1.247 . S
O156 Co154 2.091 . S
O156 C162 1.261 . S
C157 O166 1.247 . S
C157 O167 1.272 . S
O158 Co154 2.004 . S
O158 C163 1.259 . S
Co159 O160 2.061 . S
Co159 O165 2.052 . S
Co159 O167 2.135 . S
O160 Co159 2.061 . S
O160 C163 1.235 . S
C161 O164 1.238 . S
C161 O165 1.241 . S
C162 O155 1.247 . S
C162 O156 1.261 . S
C163 O158 1.259 . S
C163 O160 1.235 . S
O164 Co154 2.021 . S
O164 C161 1.238 . S
O165 Co159 2.052 . S
O165 C161 1.241 . S
O166 Co154 2.137 . S
O166 C157 1.247 . S
O167 Co154 2.244 . S
O167 C157 1.272 . S
O167 Co159 2.135 . S
Co168 O169 2.216 . S
Co168 O170 2.091 . S
Co168 O172 2.004 . S
Co168 O178 2.021 . S
Co168 O180 2.137 . S
Co168 O181 2.244 . S
O169 Co168 2.216 . S
O169 C176 1.247 . S
O170 Co168 2.091 . S
O170 C176 1.261 . S
C171 O180 1.247 . S
C171 O181 1.272 . S
O172 Co168 2.004 . S
O172 C177 1.259 . S
Co173 O174 2.061 . S
Co173 O179 2.052 . S
Co173 O181 2.135 . S
O174 Co173 2.061 . S
O174 C177 1.235 . S
C175 O178 1.238 . S
C175 O179 1.241 . S
C176 O169 1.247 . S
C176 O170 1.261 . S
C177 O172 1.259 . S
C177 O174 1.235 . S
O178 Co168 2.021 . S
O178 C175 1.238 . S
O179 Co173 2.052 . S
O179 C175 1.241 . S
O180 Co168 2.137 . S
O180 C171 1.247 . S
O181 Co168 2.244 . S
O181 C171 1.272 . S
O181 Co173 2.135 . S
Co182 O183 2.216 . S
Co182 O184 2.091 . S
Co182 O186 2.004 . S
Co182 O192 2.021 . S
Co182 O194 2.137 . S
Co182 O195 2.244 . S
O183 Co182 2.216 . S
O183 C190 1.247 . S
O184 Co182 2.091 . S
O184 C190 1.261 . S
C185 O194 1.247 . S
C185 O195 1.272 . S
O186 Co182 2.004 . S
O186 C191 1.259 . S
Co187 O188 2.061 . S
Co187 O193 2.052 . S
Co187 O195 2.135 . S
O188 Co187 2.061 . S
O188 C191 1.235 . S
C189 O192 1.238 . S
C189 O193 1.241 . S
C190 O183 1.247 . S
C190 O184 1.261 . S
C191 O186 1.259 . S
C191 O188 1.235 . S
O192 Co182 2.021 . S
O192 C189 1.238 . S
O193 Co187 2.052 . S
O193 C189 1.241 . S
O194 Co182 2.137 . S
O194 C185 1.247 . S
O195 Co182 2.244 . S
O195 C185 1.272 . S
O195 Co187 2.135 . S
Co196 O197 2.216 . S
Co196 O198 2.091 . S
Co196 O200 2.004 . S
Co196 O206 2.021 . S
Co196 O208 2.137 . S
Co196 O209 2.244 . S
O197 Co196 2.216 . S
O197 C204 1.247 . S
O198 Co196 2.091 . S
O198 C204 1.261 . S
C199 O208 1.247 . S
C199 O209 1.272 . S
O200 Co196 2.004 . S
O200 C205 1.259 . S
Co201 O202 2.061 . S
Co201 O207 2.052 . S
Co201 O209 2.135 . S
O202 Co201 2.061 . S
O202 C205 1.235 . S
C203 O206 1.238 . S
C203 O207 1.241 . S
C204 O197 1.247 . S
C204 O198 1.261 . S
C205 O200 1.259 . S
C205 O202 1.235 . S
O206 Co196 2.021 . S
O206 C203 1.238 . S
O207 Co201 2.052 . S
O207 C203 1.241 . S
O208 Co196 2.137 . S
O208 C199 1.247 . S
O209 Co196 2.244 . S
O209 C199 1.272 . S
O209 Co201 2.135 . S
Co210 O211 2.216 . S
Co210 O212 2.091 . S
Co210 O214 2.004 . S
Co210 O220 2.021 . S
Co210 O222 2.137 . S
Co210 O223 2.244 . S
O211 Co210 2.216 . S
O211 C218 1.247 . S
O212 Co210 2.091 . S
O212 C218 1.261 . S
C213 O222 1.247 . S
C213 O223 1.272 . S
O214 Co210 2.004 . S
O214 C219 1.259 . S
Co215 O216 2.061 . S
Co215 O221 2.052 . S
Co215 O223 2.135 . S
O216 Co215 2.061 . S
O216 C219 1.235 . S
C217 O220 1.238 . S
C217 O221 1.241 . S
C218 O211 1.247 . S
C218 O212 1.261 . S
C219 O214 1.259 . S
C219 O216 1.235 . S
O220 Co210 2.021 . S
O220 C217 1.238 . S
O221 Co215 2.052 . S
O221 C217 1.241 . S
O222 Co210 2.137 . S
O222 C213 1.247 . S
O223 Co210 2.244 . S
O223 C213 1.272 . S
O223 Co215 2.135 . S
Co224 O225 2.216 . S
Co224 O226 2.091 . S
Co224 O228 2.004 . S
Co224 O234 2.021 . S
Co224 O236 2.137 . S
Co224 O237 2.244 . S
O225 Co224 2.216 . S
O225 C232 1.247 . S
O226 Co224 2.091 . S
O226 C232 1.261 . S
C227 O236 1.247 . S
C227 O237 1.272 . S
O228 Co224 2.004 . S
O228 C233 1.259 . S
Co229 O230 2.061 . S
Co229 O235 2.052 . S
Co229 O237 2.135 . S
O230 Co229 2.061 . S
O230 C233 1.235 . S
C231 O234 1.238 . S
C231 O235 1.241 . S
C232 O225 1.247 . S
C232 O226 1.261 . S
C233 O228 1.259 . S
C233 O230 1.235 . S
O234 Co224 2.021 . S
O234 C231 1.238 . S
O235 Co229 2.052 . S
O235 C231 1.241 . S
O236 Co224 2.137 . S
O236 C227 1.247 . S
O237 Co224 2.244 . S
O237 C227 1.272 . S
O237 Co229 2.135 . S
Co238 O239 2.216 . S
Co238 O240 2.091 . S
Co238 O242 2.004 . S
Co238 O248 2.021 . S
Co238 O250 2.137 . S
Co238 O251 2.244 . S
O239 Co238 2.216 . S
O239 C246 1.247 . S
O240 Co238 2.091 . S
O240 C246 1.261 . S
C241 O250 1.247 . S
C241 O251 1.272 . S
O242 Co238 2.004 . S
O242 C247 1.259 . S
Co243 O244 2.061 . S
Co243 O249 2.052 . S
Co243 O251 2.135 . S
O244 Co243 2.061 . S
O244 C247 1.235 . S
C245 O248 1.238 . S
C245 O249 1.241 . S
C246 O239 1.247 . S
C246 O240 1.261 . S
C247 O242 1.259 . S
C247 O244 1.235 . S
O248 Co238 2.021 . S
O248 C245 1.238 . S
O249 Co243 2.052 . S
O249 C245 1.241 . S
O250 Co238 2.137 . S
O250 C241 1.247 . S
O251 Co238 2.244 . S
O251 C241 1.272 . S
O251 Co243 2.135 . S
Co252 O253 2.216 . S
Co252 O254 2.091 . S
Co252 O256 2.004 . S
Co252 O262 2.021 . S
Co252 O264 2.137 . S
Co252 O265 2.244 . S
O253 Co252 2.216 . S
O253 C260 1.247 . S
O254 Co252 2.091 . S
O254 C260 1.261 . S
C255 O264 1.247 . S
C255 O265 1.272 . S
O256 Co252 2.004 . S
O256 C261 1.259 . S
Co257 O258 2.061 . S
Co257 O263 2.052 . S
Co257 O265 2.135 . S
O258 Co257 2.061 . S
O258 C261 1.235 . S
C259 O262 1.238 . S
C259 O263 1.241 . S
C260 O253 1.247 . S
C260 O254 1.261 . S
C261 O256 1.259 . S
C261 O258 1.235 . S
O262 Co252 2.021 . S
O262 C259 1.238 . S
O263 Co257 2.052 . S
O263 C259 1.241 . S
O264 Co252 2.137 . S
O264 C255 1.247 . S
O265 Co252 2.244 . S
O265 C255 1.272 . S
O265 Co257 2.135 . S
Co266 O267 2.216 . S
Co266 O268 2.091 . S
Co266 O270 2.004 . S
Co266 O276 2.021 . S
Co266 O278 2.137 . S
Co266 O279 2.244 . S
O267 Co266 2.216 . S
O267 C274 1.247 . S
O268 Co266 2.091 . S
O268 C274 1.261 . S
C269 O278 1.247 . S
C269 O279 1.272 . S
O270 Co266 2.004 . S
O270 C275 1.259 . S
Co271 O272 2.061 . S
Co271 O277 2.052 . S
Co271 O279 2.135 . S
O272 Co271 2.061 . S
O272 C275 1.235 . S
C273 O276 1.238 . S
C273 O277 1.241 . S
C274 O267 1.247 . S
C274 O268 1.261 . S
C275 O270 1.259 . S
C275 O272 1.235 . S
O276 Co266 2.021 . S
O276 C273 1.238 . S
O277 Co271 2.052 . S
O277 C273 1.241 . S
O278 Co266 2.137 . S
O278 C269 1.247 . S
O279 Co266 2.244 . S
O279 C269 1.272 . S
O279 Co271 2.135 . S
Co280 O281 2.216 . S
Co280 O282 2.091 . S
Co280 O284 2.004 . S
Co280 O290 2.021 . S
Co280 O292 2.137 . S
Co280 O293 2.244 . S
O281 Co280 2.216 . S
O281 C288 1.247 . S
O282 Co280 2.091 . S
O282 C288 1.261 . S
C283 O292 1.247 . S
C283 O293 1.272 . S
O284 Co280 2.004 . S
O284 C289 1.259 . S
Co285 O286 2.061 . S
Co285 O291 2.052 . S
Co285 O293 2.135 . S
O286 Co285 2.061 . S
O286 C289 1.235 . S
C287 O290 1.238 . S
C287 O291 1.241 . S
C288 O281 1.247 . S
C288 O282 1.261 . S
C289 O284 1.259 . S
C289 O286 1.235 . S
O290 Co280 2.021 . S
O290 C287 1.238 . S
O291 Co285 2.052 . S
O291 C287 1.241 . S
O292 Co280 2.137 . S
O292 C283 1.247 . S
O293 Co280 2.244 . S
O293 C283 1.272 . S
O293 Co285 2.135 . S
Co294 O295 2.216 . S
Co294 O296 2.091 . S
Co294 O298 2.004 . S
Co294 O304 2.021 . S
Co294 O306 2.137 . S
Co294 O307 2.244 . S
O295 Co294 2.216 . S
O295 C302 1.247 . S
O296 Co294 2.091 . S
O296 C302 1.261 . S
C297 O306 1.247 . S
C297 O307 1.272 . S
O298 Co294 2.004 . S
O298 C303 1.259 . S
Co299 O300 2.061 . S
Co299 O305 2.052 . S
Co299 O307 2.135 . S
O300 Co299 2.061 . S
O300 C303 1.235 . S
C301 O304 1.238 . S
C301 O305 1.241 . S
C302 O295 1.247 . S
C302 O296 1.261 . S
C303 O298 1.259 . S
C303 O300 1.235 . S
O304 Co294 2.021 . S
O304 C301 1.238 . S
O305 Co299 2.052 . S
O305 C301 1.241 . S
O306 Co294 2.137 . S
O306 C297 1.247 . S
O307 Co294 2.244 . S
O307 C297 1.272 . S
O307 Co299 2.135 . S
Co308 O309 2.216 . S
Co308 O310 2.091 . S
Co308 O312 2.004 . S
Co308 O318 2.021 . S
Co308 O320 2.137 . S
Co308 O321 2.244 . S
O309 Co308 2.216 . S
O309 C316 1.247 . S
O310 Co308 2.091 . S
O310 C316 1.261 . S
C311 O320 1.247 . S
C311 O321 1.272 . S
O312 Co308 2.004 . S
O312 C317 1.259 . S
Co313 O314 2.061 . S
Co313 O319 2.052 . S
Co313 O321 2.135 . S
O314 Co313 2.061 . S
O314 C317 1.235 . S
C315 O318 1.238 . S
C315 O319 1.241 . S
C316 O309 1.247 . S
C316 O310 1.261 . S
C317 O312 1.259 . S
C317 O314 1.235 . S
O318 Co308 2.021 . S
O318 C315 1.238 . S
O319 Co313 2.052 . S
O319 C315 1.241 . S
O320 Co308 2.137 . S
O320 C311 1.247 . S
O321 Co308 2.244 . S
O321 C311 1.272 . S
O321 Co313 2.135 . S
Co322 O323 2.216 . S
Co322 O324 2.091 . S
Co322 O326 2.004 . S
Co322 O332 2.021 . S
Co322 O334 2.137 . S
Co322 O335 2.244 . S
O323 Co322 2.216 . S
O323 C330 1.247 . S
O324 Co322 2.091 . S
O324 C330 1.261 . S
C325 O334 1.247 . S
C325 O335 1.272 . S
O326 Co322 2.004 . S
O326 C331 1.259 . S
Co327 O328 2.061 . S
Co327 O333 2.052 . S
Co327 O335 2.135 . S
O328 Co327 2.061 . S
O328 C331 1.235 . S
C329 O332 1.238 . S
C329 O333 1.241 . S
C330 O323 1.247 . S
C330 O324 1.261 . S
C331 O326 1.259 . S
C331 O328 1.235 . S
O332 Co322 2.021 . S
O332 C329 1.238 . S
O333 Co327 2.052 . S
O333 C329 1.241 . S
O334 Co322 2.137 . S
O334 C325 1.247 . S
O335 Co322 2.244 . S
O335 C325 1.272 . S
O335 Co327 2.135 . S
Co336 O337 2.216 . S
Co336 O338 2.091 . S
Co336 O340 2.004 . S
Co336 O346 2.021 . S
Co336 O348 2.137 . S
Co336 O349 2.244 . S
O337 Co336 2.216 . S
O337 C344 1.247 . S
O338 Co336 2.091 . S
O338 C344 1.261 . S
C339 O348 1.247 . S
C339 O349 1.272 . S
O340 Co336 2.004 . S
O340 C345 1.259 . S
Co341 O342 2.061 . S
Co341 O347 2.052 . S
Co341 O349 2.135 . S
O342 Co341 2.061 . S
O342 C345 1.235 . S
C343 O346 1.238 . S
C343 O347 1.241 . S
C344 O337 1.247 . S
C344 O338 1.261 . S
C345 O340 1.259 . S
C345 O342 1.235 . S
O346 Co336 2.021 . S
O346 C343 1.238 . S
O347 Co341 2.052 . S
O347 C343 1.241 . S
O348 Co336 2.137 . S
O348 C339 1.247 . S
O349 Co336 2.244 . S
O349 C339 1.272 . S
O349 Co341 2.135 . S
Co350 O351 2.216 . S
Co350 O352 2.091 . S
Co350 O354 2.004 . S
Co350 O360 2.021 . S
Co350 O362 2.137 . S
Co350 O363 2.244 . S
O351 Co350 2.216 . S
O351 C358 1.247 . S
O352 Co350 2.091 . S
O352 C358 1.261 . S
C353 O362 1.247 . S
C353 O363 1.272 . S
O354 Co350 2.004 . S
O354 C359 1.259 . S
Co355 O356 2.061 . S
Co355 O361 2.052 . S
Co355 O363 2.135 . S
O356 Co355 2.061 . S
O356 C359 1.235 . S
C357 O360 1.238 . S
C357 O361 1.241 . S
C358 O351 1.247 . S
C358 O352 1.261 . S
C359 O354 1.259 . S
C359 O356 1.235 . S
O360 Co350 2.021 . S
O360 C357 1.238 . S
O361 Co355 2.052 . S
O361 C357 1.241 . S
O362 Co350 2.137 . S
O362 C353 1.247 . S
O363 Co350 2.244 . S
O363 C353 1.272 . S
O363 Co355 2.135 . S
Co364 O365 2.216 . S
Co364 O366 2.091 . S
Co364 O368 2.004 . S
Co364 O374 2.021 . S
Co364 O376 2.137 . S
Co364 O377 2.244 . S
O365 Co364 2.216 . S
O365 C372 1.247 . S
O366 Co364 2.091 . S
O366 C372 1.261 . S
C367 O376 1.247 . S
C367 O377 1.272 . S
O368 Co364 2.004 . S
O368 C373 1.259 . S
Co369 O370 2.061 . S
Co369 O375 2.052 . S
Co369 O377 2.135 . S
O370 Co369 2.061 . S
O370 C373 1.235 . S
C371 O374 1.238 . S
C371 O375 1.241 . S
C372 O365 1.247 . S
C372 O366 1.261 . S
C373 O368 1.259 . S
C373 O370 1.235 . S
O374 Co364 2.021 . S
O374 C371 1.238 . S
O375 Co369 2.052 . S
O375 C371 1.241 . S
O376 Co364 2.137 . S
O376 C367 1.247 . S
O377 Co364 2.244 . S
O377 C367 1.272 . S
O377 Co369 2.135 . S
Co378 O379 2.216 . S
Co378 O380 2.091 . S
Co378 O382 2.004 . S
Co378 O388 2.021 . S
Co378 O390 2.137 . S
Co378 O391 2.244 . S
O379 Co378 2.216 . S
O379 C386 1.247 . S
O380 Co378 2.091 . S
O380 C386 1.261 . S
C381 O390 1.247 . S
C381 O391 1.272 . S
O382 Co378 2.004 . S
O382 C387 1.259 . S
Co383 O384 2.061 . S
Co383 O389 2.052 . S
Co383 O391 2.135 . S
O384 Co383 2.061 . S
O384 C387 1.235 . S
C385 O388 1.238 . S
C385 O389 1.241 . S
C386 O379 1.247 . S
C386 O380 1.261 . S
C387 O382 1.259 . S
C387 O384 1.235 . S
O388 Co378 2.021 . S
O388 C385 1.238 . S
O389 Co383 2.052 . S
O389 C385 1.241 . S
O390 Co378 2.137 . S
O390 C381 1.247 . S
O391 Co378 2.244 . S
O391 C381 1.272 . S
O391 Co383 2.135 . S
Co392 O393 2.216 . S
Co392 O394 2.091 . S
Co392 O396 2.004 . S
Co392 O402 2.021 . S
Co392 O404 2.137 . S
Co392 O405 2.244 . S
O393 Co392 2.216 . S
O393 C400 1.247 . S
O394 Co392 2.091 . S
O394 C400 1.261 . S
C395 O404 1.247 . S
C395 O405 1.272 . S
O396 Co392 2.004 . S
O396 C401 1.259 . S
Co397 O398 2.061 . S
Co397 O403 2.052 . S
Co397 O405 2.135 . S
O398 Co397 2.061 . S
O398 C401 1.235 . S
C399 O402 1.238 . S
C399 O403 1.241 . S
C400 O393 1.247 . S
C400 O394 1.261 . S
C401 O396 1.259 . S
C401 O398 1.235 . S
O402 Co392 2.021 . S
O402 C399 1.238 . S
O403 Co397 2.052 . S
O403 C399 1.241 . S
O404 Co392 2.137 . S
O404 C395 1.247 . S
O405 Co392 2.244 . S
O405 C395 1.272 . S
O405 Co397 2.135 . S
Co406 O407 2.216 . S
Co406 O408 2.091 . S
Co406 O410 2.004 . S
Co406 O416 2.021 . S
Co406 O418 2.137 . S
Co406 O419 2.244 . S
O407 Co406 2.216 . S
O407 C414 1.247 . S
O408 Co406 2.091 . S
O408 C414 1.261 . S
C409 O418 1.247 . S
C409 O419 1.272 . S
O410 Co406 2.004 . S
O410 C415 1.259 . S
Co411 O412 2.061 . S
Co411 O417 2.052 . S
Co411 O419 2.135 . S
O412 Co411 2.061 . S
O412 C415 1.235 . S
C413 O416 1.238 . S
C413 O417 1.241 . S
C414 O407 1.247 . S
C414 O408 1.261 . S
C415 O410 1.259 . S
C415 O412 1.235 . S
O416 Co406 2.021 . S
O416 C413 1.238 . S
O417 Co411 2.052 . S
O417 C413 1.241 . S
O418 Co406 2.137 . S
O418 C409 1.247 . S
O419 Co406 2.244 . S
O419 C409 1.272 . S
O419 Co411 2.135 . S
Co420 O421 2.216 . S
Co420 O422 2.091 . S
Co420 O424 2.004 . S
Co420 O430 2.021 . S
Co420 O432 2.137 . S
Co420 O433 2.244 . S
O421 Co420 2.216 . S
O421 C428 1.247 . S
O422 Co420 2.091 . S
O422 C428 1.261 . S
C423 O432 1.247 . S
C423 O433 1.272 . S
O424 Co420 2.004 . S
O424 C429 1.259 . S
Co425 O426 2.061 . S
Co425 O431 2.052 . S
Co425 O433 2.135 . S
O426 Co425 2.061 . S
O426 C429 1.235 . S
C427 O430 1.238 . S
C427 O431 1.241 . S
C428 O421 1.247 . S
C428 O422 1.261 . S
C429 O424 1.259 . S
C429 O426 1.235 . S
O430 Co420 2.021 . S
O430 C427 1.238 . S
O431 Co425 2.052 . S
O431 C427 1.241 . S
O432 Co420 2.137 . S
O432 C423 1.247 . S
O433 Co420 2.244 . S
O433 C423 1.272 . S
O433 Co425 2.135 . S
Co434 O435 2.216 . S
Co434 O436 2.091 . S
Co434 O438 2.004 . S
Co434 O444 2.021 . S
Co434 O446 2.137 . S
Co434 O447 2.244 . S
O435 Co434 2.216 . S
O435 C442 1.247 . S
O436 Co434 2.091 . S
O436 C442 1.261 . S
C437 O446 1.247 . S
C437 O447 1.272 . S
O438 Co434 2.004 . S
O438 C443 1.259 . S
Co439 O440 2.061 . S
Co439 O445 2.052 . S
Co439 O447 2.135 . S
O440 Co439 2.061 . S
O440 C443 1.235 . S
C441 O444 1.238 . S
C441 O445 1.241 . S
C442 O435 1.247 . S
C442 O436 1.261 . S
C443 O438 1.259 . S
C443 O440 1.235 . S
O444 Co434 2.021 . S
O444 C441 1.238 . S
O445 Co439 2.052 . S
O445 C441 1.241 . S
O446 Co434 2.137 . S
O446 C437 1.247 . S
O447 Co434 2.244 . S
O447 C437 1.272 . S
O447 Co439 2.135 . S
Co448 O449 2.216 . S
Co448 O450 2.091 . S
Co448 O452 2.004 . S
Co448 O458 2.021 . S
Co448 O460 2.137 . S
Co448 O461 2.244 . S
O449 Co448 2.216 . S
O449 C456 1.247 . S
O450 Co448 2.091 . S
O450 C456 1.261 . S
C451 O460 1.247 . S
C451 O461 1.272 . S
O452 Co448 2.004 . S
O452 C457 1.259 . S
Co453 O454 2.061 . S
Co453 O459 2.052 . S
Co453 O461 2.135 . S
O454 Co453 2.061 . S
O454 C457 1.235 . S
C455 O458 1.238 . S
C455 O459 1.241 . S
C456 O449 1.247 . S
C456 O450 1.261 . S
C457 O452 1.259 . S
C457 O454 1.235 . S
O458 Co448 2.021 . S
O458 C455 1.238 . S
O459 Co453 2.052 . S
O459 C455 1.241 . S
O460 Co448 2.137 . S
O460 C451 1.247 . S
O461 Co448 2.244 . S
O461 C451 1.272 . S
O461 Co453 2.135 . S
Co462 O463 2.216 . S
Co462 O464 2.091 . S
Co462 O466 2.004 . S
Co462 O472 2.021 . S
Co462 O474 2.137 . S
Co462 O475 2.244 . S
O463 Co462 2.216 . S
O463 C470 1.247 . S
O464 Co462 2.091 . S
O464 C470 1.261 . S
C465 O474 1.247 . S
C465 O475 1.272 . S
O466 Co462 2.004 . S
O466 C471 1.259 . S
Co467 O468 2.061 . S
Co467 O473 2.052 . S
Co467 O475 2.135 . S
O468 Co467 2.061 . S
O468 C471 1.235 . S
C469 O472 1.238 . S
C469 O473 1.241 . S
C470 O463 1.247 . S
C470 O464 1.261 . S
C471 O466 1.259 . S
C471 O468 1.235 . S
O472 Co462 2.021 . S
O472 C469 1.238 . S
O473 Co467 2.052 . S
O473 C469 1.241 . S
O474 Co462 2.137 . S
O474 C465 1.247 . S
O475 Co462 2.244 . S
O475 C465 1.272 . S
O475 Co467 2.135 . S
Co476 O477 2.216 . S
Co476 O478 2.091 . S
Co476 O480 2.004 . S
Co476 O486 2.021 . S
Co476 O488 2.137 . S
Co476 O489 2.244 . S
O477 Co476 2.216 . S
O477 C484 1.247 . S
O478 Co476 2.091 . S
O478 C484 1.261 . S
C479 O488 1.247 . S
C479 O489 1.272 . S
O480 Co476 2.004 . S
O480 C485 1.259 . S
Co481 O482 2.061 . S
Co481 O487 2.052 . S
Co481 O489 2.135 . S
O482 Co481 2.061 . S
O482 C485 1.235 . S
C483 O486 1.238 . S
C483 O487 1.241 . S
C484 O477 1.247 . S
C484 O478 1.261 . S
C485 O480 1.259 . S
C485 O482 1.235 . S
O486 Co476 2.021 . S
O486 C483 1.238 . S
O487 Co481 2.052 . S
O487 C483 1.241 . S
O488 Co476 2.137 . S
O488 C479 1.247 . S
O489 Co476 2.244 . S
O489 C479 1.272 . S
O489 Co481 2.135 . S
Co490 O491 2.216 . S
Co490 O492 2.091 . S
Co490 O494 2.004 . S
Co490 O500 2.021 . S
Co490 O502 2.137 . S
Co490 O503 2.244 . S
O491 Co490 2.216 . S
O491 C498 1.247 . S
O492 Co490 2.091 . S
O492 C498 1.261 . S
C493 O502 1.247 . S
C493 O503 1.272 . S
O494 Co490 2.004 . S
O494 C499 1.259 . S
Co495 O496 2.061 . S
Co495 O501 2.052 . S
Co495 O503 2.135 . S
O496 Co495 2.061 . S
O496 C499 1.235 . S
C497 O500 1.238 . S
C497 O501 1.241 . S
C498 O491 1.247 . S
C498 O492 1.261 . S
C499 O494 1.259 . S
C499 O496 1.235 . S
O500 Co490 2.021 . S
O500 C497 1.238 . S
O501 Co495 2.052 . S
O501 C497 1.241 . S
O502 Co490 2.137 . S
O502 C493 1.247 . S
O503 Co490 2.244 . S
O503 C493 1.272 . S
O503 Co495 2.135 . S
Co504 O505 2.216 . S
Co504 O506 2.091 . S
Co504 O508 2.004 . S
Co504 O514 2.021 . S
Co504 O516 2.137 . S
Co504 O517 2.244 . S
O505 Co504 2.216 . S
O505 C512 1.247 . S
O506 Co504 2.091 . S
O506 C512 1.261 . S
C507 O516 1.247 . S
C507 O517 1.272 . S
O508 Co504 2.004 . S
O508 C513 1.259 . S
Co509 O510 2.061 . S
Co509 O515 2.052 . S
Co509 O517 2.135 . S
O510 Co509 2.061 . S
O510 C513 1.235 . S
C511 O514 1.238 . S
C511 O515 1.241 . S
C512 O505 1.247 . S
C512 O506 1.261 . S
C513 O508 1.259 . S
C513 O510 1.235 . S
O514 Co504 2.021 . S
O514 C511 1.238 . S
O515 Co509 2.052 . S
O515 C511 1.241 . S
O516 Co504 2.137 . S
O516 C507 1.247 . S
O517 Co504 2.244 . S
O517 C507 1.272 . S
O517 Co509 2.135 . S
Co518 O519 2.216 . S
Co518 O520 2.091 . S
Co518 O522 2.004 . S
Co518 O528 2.021 . S
Co518 O530 2.137 . S
Co518 O531 2.244 . S
O519 Co518 2.216 . S
O519 C526 1.247 . S
O520 Co518 2.091 . S
O520 C526 1.261 . S
C521 O530 1.247 . S
C521 O531 1.272 . S
O522 Co518 2.004 . S
O522 C527 1.259 . S
Co523 O524 2.061 . S
Co523 O529 2.052 . S
Co523 O531 2.135 . S
O524 Co523 2.061 . S
O524 C527 1.235 . S
C525 O528 1.238 . S
C525 O529 1.241 . S
C526 O519 1.247 . S
C526 O520 1.261 . S
C527 O522 1.259 . S
C527 O524 1.235 . S
O528 Co518 2.021 . S
O528 C525 1.238 . S
O529 Co523 2.052 . S
O529 C525 1.241 . S
O530 Co518 2.137 . S
O530 C521 1.247 . S
O531 Co518 2.244 . S
O531 C521 1.272 . S
O531 Co523 2.135 . S
Co532 O533 2.216 . S
Co532 O534 2.091 . S
Co532 O536 2.004 . S
Co532 O542 2.021 . S
Co532 O544 2.137 . S
Co532 O545 2.244 . S
O533 Co532 2.216 . S
O533 C540 1.247 . S
O534 Co532 2.091 . S
O534 C540 1.261 . S
C535 O544 1.247 . S
C535 O545 1.272 . S
O536 Co532 2.004 . S
O536 C541 1.259 . S
Co537 O538 2.061 . S
Co537 O543 2.052 . S
Co537 O545 2.135 . S
O538 Co537 2.061 . S
O538 C541 1.235 . S
C539 O542 1.238 . S
C539 O543 1.241 . S
C540 O533 1.247 . S
C540 O534 1.261 . S
C541 O536 1.259 . S
C541 O538 1.235 . S
O542 Co532 2.021 . S
O542 C539 1.238 . S
O543 Co537 2.052 . S
O543 C539 1.241 . S
O544 Co532 2.137 . S
O544 C535 1.247 . S
O545 Co532 2.244 . S
O545 C535 1.272 . S
O545 Co537 2.135 . S
Co546 O547 2.216 . S
Co546 O548 2.091 . S
Co546 O550 2.004 . S
Co546 O556 2.021 . S
Co546 O558 2.137 . S
Co546 O559 2.244 . S
O547 Co546 2.216 . S
O547 C554 1.247 . S
O548 Co546 2.091 . S
O548 C554 1.261 . S
C549 O558 1.247 . S
C549 O559 1.272 . S
O550 Co546 2.004 . S
O550 C555 1.259 . S
Co551 O552 2.061 . S
Co551 O557 2.052 . S
Co551 O559 2.135 . S
O552 Co551 2.061 . S
O552 C555 1.235 . S
C553 O556 1.238 . S
C553 O557 1.241 . S
C554 O547 1.247 . S
C554 O548 1.261 . S
C555 O550 1.259 . S
C555 O552 1.235 . S
O556 Co546 2.021 . S
O556 C553 1.238 . S
O557 Co551 2.052 . S
O557 C553 1.241 . S
O558 Co546 2.137 . S
O558 C549 1.247 . S
O559 Co546 2.244 . S
O559 C549 1.272 . S
O559 Co551 2.135 . S
Co560 O561 2.216 . S
Co560 O562 2.091 . S
Co560 O564 2.004 . S
Co560 O570 2.021 . S
Co560 O572 2.137 . S
Co560 O573 2.244 . S
O561 Co560 2.216 . S
O561 C568 1.247 . S
O562 Co560 2.091 . S
O562 C568 1.261 . S
C563 O572 1.247 . S
C563 O573 1.272 . S
O564 Co560 2.004 . S
O564 C569 1.259 . S
Co565 O566 2.061 . S
Co565 O571 2.052 . S
Co565 O573 2.135 . S
O566 Co565 2.061 . S
O566 C569 1.235 . S
C567 O570 1.238 . S
C567 O571 1.241 . S
C568 O561 1.247 . S
C568 O562 1.261 . S
C569 O564 1.259 . S
C569 O566 1.235 . S
O570 Co560 2.021 . S
O570 C567 1.238 . S
O571 Co565 2.052 . S
O571 C567 1.241 . S
O572 Co560 2.137 . S
O572 C563 1.247 . S
O573 Co560 2.244 . S
O573 C563 1.272 . S
O573 Co565 2.135 . S
Co574 O575 2.216 . S
Co574 O576 2.091 . S
Co574 O578 2.004 . S
Co574 O584 2.021 . S
Co574 O586 2.137 . S
Co574 O587 2.244 . S
O575 Co574 2.216 . S
O575 C582 1.247 . S
O576 Co574 2.091 . S
O576 C582 1.261 . S
C577 O586 1.247 . S
C577 O587 1.272 . S
O578 Co574 2.004 . S
O578 C583 1.259 . S
Co579 O580 2.061 . S
Co579 O585 2.052 . S
Co579 O587 2.135 . S
O580 Co579 2.061 . S
O580 C583 1.235 . S
C581 O584 1.238 . S
C581 O585 1.241 . S
C582 O575 1.247 . S
C582 O576 1.261 . S
C583 O578 1.259 . S
C583 O580 1.235 . S
O584 Co574 2.021 . S
O584 C581 1.238 . S
O585 Co579 2.052 . S
O585 C581 1.241 . S
O586 Co574 2.137 . S
O586 C577 1.247 . S
O587 Co574 2.244 . S
O587 C577 1.272 . S
O587 Co579 2.135 . S
Co588 O589 2.216 . S
Co588 O590 2.091 . S
Co588 O592 2.004 . S
Co588 O598 2.021 . S
Co588 O600 2.137 . S
Co588 O601 2.244 . S
O589 Co588 2.216 . S
O589 C596 1.247 . S
O590 Co588 2.091 . S
O590 C596 1.261 . S
C591 O600 1.247 . S
C591 O601 1.272 . S
O592 Co588 2.004 . S
O592 C597 1.259 . S
Co593 O594 2.061 . S
Co593 O599 2.052 . S
Co593 O601 2.135 . S
O594 Co593 2.061 . S
O594 C597 1.235 . S
C595 O598 1.238 . S
C595 O599 1.241 . S
C596 O589 1.247 . S
C596 O590 1.261 . S
C597 O592 1.259 . S
C597 O594 1.235 . S
O598 Co588 2.021 . S
O598 C595 1.238 . S
O599 Co593 2.052 . S
O599 C595 1.241 . S
O600 Co588 2.137 . S
O600 C591 1.247 . S
O601 Co588 2.244 . S
O601 C591 1.272 . S
O601 Co593 2.135 . S
Co602 O603 2.216 . S
Co602 O604 2.091 . S
Co602 O606 2.004 . S
Co602 O612 2.021 . S
Co602 O614 2.137 . S
Co602 O615 2.244 . S
O603 Co602 2.216 . S
O603 C610 1.247 . S
O604 Co602 2.091 . S
O604 C610 1.261 . S
C605 O614 1.247 . S
C605 O615 1.272 . S
O606 Co602 2.004 . S
O606 C611 1.259 . S
Co607 O608 2.061 . S
Co607 O613 2.052 . S
Co607 O615 2.135 . S
O608 Co607 2.061 . S
O608 C611 1.235 . S
C609 O612 1.238 . S
C609 O613 1.241 . S
C610 O603 1.247 . S
C610 O604 1.261 . S
C611 O606 1.259 . S
C611 O608 1.235 . S
O612 Co602 2.021 . S
O612 C609 1.238 . S
O613 Co607 2.052 . S
O613 C609 1.241 . S
O614 Co602 2.137 . S
O614 C605 1.247 . S
O615 Co602 2.244 . S
O615 C605 1.272 . S
O615 Co607 2.135 . S
Co616 O617 2.216 . S
Co616 O618 2.091 . S
Co616 O620 2.004 . S
Co616 O626 2.021 . S
Co616 O628 2.137 . S
Co616 O629 2.244 . S
O617 Co616 2.216 . S
O617 C624 1.247 . S
O618 Co616 2.091 . S
O618 C624 1.261 . S
C619 O628 1.247 . S
C619 O629 1.272 . S
O620 Co616 2.004 . S
O620 C625 1.259 . S
Co621 O622 2.061 . S
Co621 O627 2.052 . S
Co621 O629 2.135 . S
O622 Co621 2.061 . S
O622 C625 1.235 . S
C623 O626 1.238 . S
C623 O627 1.241 . S
C624 O617 1.247 . S
C624 O618 1.261 . S
C625 O620 1.259 . S
C625 O622 1.235 . S
O626 Co616 2.021 . S
O626 C623 1.238 . S
O627 Co621 2.052 . S
O627 C623 1.241 . S
O628 Co616 2.137 . S
O628 C619 1.247 . S
O629 Co616 2.244 . S
O629 C619 1.272 . S
O629 Co621 2.135 . S
Co630 O631 2.216 . S
Co630 O632 2.091 . S
Co630 O634 2.004 . S
Co630 O640 2.021 . S
Co630 O642 2.137 . S
Co630 O643 2.244 . S
O631 Co630 2.216 . S
O631 C638 1.247 . S
O632 Co630 2.091 . S
O632 C638 1.261 . S
C633 O642 1.247 . S
C633 O643 1.272 . S
O634 Co630 2.004 . S
O634 C639 1.259 . S
Co635 O636 2.061 . S
Co635 O641 2.052 . S
Co635 O643 2.135 . S
O636 Co635 2.061 . S
O636 C639 1.235 . S
C637 O640 1.238 . S
C637 O641 1.241 . S
C638 O631 1.247 . S
C638 O632 1.261 . S
C639 O634 1.259 . S
C639 O636 1.235 . S
O640 Co630 2.021 . S
O640 C637 1.238 . S
O641 Co635 2.052 . S
O641 C637 1.241 . S
O642 Co630 2.137 . S
O642 C633 1.247 . S
O643 Co630 2.244 . S
O643 C633 1.272 . S
O643 Co635 2.135 . S
Co644 O645 2.216 . S
Co644 O646 2.091 . S
Co644 O648 2.004 . S
Co644 O654 2.021 . S
Co644 O656 2.137 . S
Co644 O657 2.244 . S
O645 Co644 2.216 . S
O645 C652 1.247 . S
O646 Co644 2.091 . S
O646 C652 1.261 . S
C647 O656 1.247 . S
C647 O657 1.272 . S
O648 Co644 2.004 . S
O648 C653 1.259 . S
Co649 O650 2.061 . S
Co649 O655 2.052 . S
Co649 O657 2.135 . S
O650 Co649 2.061 . S
O650 C653 1.235 . S
C651 O654 1.238 . S
C651 O655 1.241 . S
C652 O645 1.247 . S
C652 O646 1.261 . S
C653 O648 1.259 . S
C653 O650 1.235 . S
O654 Co644 2.021 . S
O654 C651 1.238 . S
O655 Co649 2.052 . S
O655 C651 1.241 . S
O656 Co644 2.137 . S
O656 C647 1.247 . S
O657 Co644 2.244 . S
O657 C647 1.272 . S
O657 Co649 2.135 . S
Co658 O659 2.216 . S
Co658 O660 2.091 . S
Co658 O662 2.004 . S
Co658 O668 2.021 . S
Co658 O670 2.137 . S
Co658 O671 2.244 . S
O659 Co658 2.216 . S
O659 C666 1.247 . S
O660 Co658 2.091 . S
O660 C666 1.261 . S
C661 O670 1.247 . S
C661 O671 1.272 . S
O662 Co658 2.004 . S
O662 C667 1.259 . S
Co663 O664 2.061 . S
Co663 O669 2.052 . S
Co663 O671 2.135 . S
O664 Co663 2.061 . S
O664 C667 1.235 . S
C665 O668 1.238 . S
C665 O669 1.241 . S
C666 O659 1.247 . S
C666 O660 1.261 . S
C667 O662 1.259 . S
C667 O664 1.235 . S
O668 Co658 2.021 . S
O668 C665 1.238 . S
O669 Co663 2.052 . S
O669 C665 1.241 . S
O670 Co658 2.137 . S
O670 C661 1.247 . S
O671 Co658 2.244 . S
O671 C661 1.272 . S
O671 Co663 2.135 . S
Co672 O673 2.216 . S
Co672 O674 2.091 . S
Co672 O676 2.004 . S
Co672 O682 2.021 . S
Co672 O684 2.137 . S
Co672 O685 2.244 . S
O673 Co672 2.216 . S
O673 C680 1.247 . S
O674 Co672 2.091 . S
O674 C680 1.261 . S
C675 O684 1.247 . S
C675 O685 1.272 . S
O676 Co672 2.004 . S
O676 C681 1.259 . S
Co677 O678 2.061 . S
Co677 O683 2.052 . S
Co677 O685 2.135 . S
O678 Co677 2.061 . S
O678 C681 1.235 . S
C679 O682 1.238 . S
C679 O683 1.241 . S
C680 O673 1.247 . S
C680 O674 1.261 . S
C681 O676 1.259 . S
C681 O678 1.235 . S
O682 Co672 2.021 . S
O682 C679 1.238 . S
O683 Co677 2.052 . S
O683 C679 1.241 . S
O684 Co672 2.137 . S
O684 C675 1.247 . S
O685 Co672 2.244 . S
O685 C675 1.272 . S
O685 Co677 2.135 . S
Co686 O687 2.216 . S
Co686 O688 2.091 . S
Co686 O690 2.004 . S
Co686 O696 2.021 . S
Co686 O698 2.137 . S
Co686 O699 2.244 . S
O687 Co686 2.216 . S
O687 C694 1.247 . S
O688 Co686 2.091 . S
O688 C694 1.261 . S
C689 O698 1.247 . S
C689 O699 1.272 . S
O690 Co686 2.004 . S
O690 C695 1.259 . S
Co691 O692 2.061 . S
Co691 O697 2.052 . S
Co691 O699 2.135 . S
O692 Co691 2.061 . S
O692 C695 1.235 . S
C693 O696 1.238 . S
C693 O697 1.241 . S
C694 O687 1.247 . S
C694 O688 1.261 . S
C695 O690 1.259 . S
C695 O692 1.235 . S
O696 Co686 2.021 . S
O696 C693 1.238 . S
O697 Co691 2.052 . S
O697 C693 1.241 . S
O698 Co686 2.137 . S
O698 C689 1.247 . S
O699 Co686 2.244 . S
O699 C689 1.272 . S
O699 Co691 2.135 . S
Co700 O701 2.216 . S
Co700 O702 2.091 . S
Co700 O704 2.004 . S
Co700 O710 2.021 . S
Co700 O712 2.137 . S
Co700 O713 2.244 . S
O701 Co700 2.216 . S
O701 C708 1.247 . S
O702 Co700 2.091 . S
O702 C708 1.261 . S
C703 O712 1.247 . S
C703 O713 1.272 . S
O704 Co700 2.004 . S
O704 C709 1.259 . S
Co705 O706 2.061 . S
Co705 O711 2.052 . S
Co705 O713 2.135 . S
O706 Co705 2.061 . S
O706 C709 1.235 . S
C707 O710 1.238 . S
C707 O711 1.241 . S
C708 O701 1.247 . S
C708 O702 1.261 . S
C709 O704 1.259 . S
C709 O706 1.235 . S
O710 Co700 2.021 . S
O710 C707 1.238 . S
O711 Co705 2.052 . S
O711 C707 1.241 . S
O712 Co700 2.137 . S
O712 C703 1.247 . S
O713 Co700 2.244 . S
O713 C703 1.272 . S
O713 Co705 2.135 . S
Co714 O715 2.216 . S
Co714 O716 2.091 . S
Co714 O718 2.004 . S
Co714 O724 2.021 . S
Co714 O726 2.137 . S
Co714 O727 2.244 . S
O715 Co714 2.216 . S
O715 C722 1.247 . S
O716 Co714 2.091 . S
O716 C722 1.261 . S
C717 O726 1.247 . S
C717 O727 1.272 . S
O718 Co714 2.004 . S
O718 C723 1.259 . S
Co719 O720 2.061 . S
Co719 O725 2.052 . S
Co719 O727 2.135 . S
O720 Co719 2.061 . S
O720 C723 1.235 . S
C721 O724 1.238 . S
C721 O725 1.241 . S
C722 O715 1.247 . S
C722 O716 1.261 . S
C723 O718 1.259 . S
C723 O720 1.235 . S
O724 Co714 2.021 . S
O724 C721 1.238 . S
O725 Co719 2.052 . S
O725 C721 1.241 . S
O726 Co714 2.137 . S
O726 C717 1.247 . S
O727 Co714 2.244 . S
O727 C717 1.272 . S
O727 Co719 2.135 . S
Co728 O729 2.216 . S
Co728 O730 2.091 . S
Co728 O732 2.004 . S
Co728 O738 2.021 . S
Co728 O740 2.137 . S
Co728 O741 2.244 . S
O729 Co728 2.216 . S
O729 C736 1.247 . S
O730 Co728 2.091 . S
O730 C736 1.261 . S
C731 O740 1.247 . S
C731 O741 1.272 . S
O732 Co728 2.004 . S
O732 C737 1.259 . S
Co733 O734 2.061 . S
Co733 O739 2.052 . S
Co733 O741 2.135 . S
O734 Co733 2.061 . S
O734 C737 1.235 . S
C735 O738 1.238 . S
C735 O739 1.241 . S
C736 O729 1.247 . S
C736 O730 1.261 . S
C737 O732 1.259 . S
C737 O734 1.235 . S
O738 Co728 2.021 . S
O738 C735 1.238 . S
O739 Co733 2.052 . S
O739 C735 1.241 . S
O740 Co728 2.137 . S
O740 C731 1.247 . S
O741 Co728 2.244 . S
O741 C731 1.272 . S
O741 Co733 2.135 . S
Co742 O743 2.216 . S
Co742 O744 2.091 . S
Co742 O746 2.004 . S
Co742 O752 2.021 . S
Co742 O754 2.137 . S
Co742 O755 2.244 . S
O743 Co742 2.216 . S
O743 C750 1.247 . S
O744 Co742 2.091 . S
O744 C750 1.261 . S
C745 O754 1.247 . S
C745 O755 1.272 . S
O746 Co742 2.004 . S
O746 C751 1.259 . S
Co747 O748 2.061 . S
Co747 O753 2.052 . S
Co747 O755 2.135 . S
O748 Co747 2.061 . S
O748 C751 1.235 . S
C749 O752 1.238 . S
C749 O753 1.241 . S
C750 O743 1.247 . S
C750 O744 1.261 . S
C751 O746 1.259 . S
C751 O748 1.235 . S
O752 Co742 2.021 . S
O752 C749 1.238 . S
O753 Co747 2.052 . S
O753 C749 1.241 . S
O754 Co742 2.137 . S
O754 C745 1.247 . S
O755 Co742 2.244 . S
O755 C745 1.272 . S
O755 Co747 2.135 . S
Co756 O757 2.216 . S
Co756 O758 2.091 . S
Co756 O760 2.004 . S
Co756 O766 2.021 . S
Co756 O768 2.137 . S
Co756 O769 2.244 . S
O757 Co756 2.216 . S
O757 C764 1.247 . S
O758 Co756 2.091 . S
O758 C764 1.261 . S
C759 O768 1.247 . S
C759 O769 1.272 . S
O760 Co756 2.004 . S
O760 C765 1.259 . S
Co761 O762 2.061 . S
Co761 O767 2.052 . S
Co761 O769 2.135 . S
O762 Co761 2.061 . S
O762 C765 1.235 . S
C763 O766 1.238 . S
C763 O767 1.241 . S
C764 O757 1.247 . S
C764 O758 1.261 . S
C765 O760 1.259 . S
C765 O762 1.235 . S
O766 Co756 2.021 . S
O766 C763 1.238 . S
O767 Co761 2.052 . S
O767 C763 1.241 . S
O768 Co756 2.137 . S
O768 C759 1.247 . S
O769 Co756 2.244 . S
O769 C759 1.272 . S
O769 Co761 2.135 . S
Co770 O771 2.216 . S
Co770 O772 2.091 . S
Co770 O774 2.004 . S
Co770 O780 2.021 . S
Co770 O782 2.137 . S
Co770 O783 2.244 . S
O771 Co770 2.216 . S
O771 C778 1.247 . S
O772 Co770 2.091 . S
O772 C778 1.261 . S
C773 O782 1.247 . S
C773 O783 1.272 . S
O774 Co770 2.004 . S
O774 C779 1.259 . S
Co775 O776 2.061 . S
Co775 O781 2.052 . S
Co775 O783 2.135 . S
O776 Co775 2.061 . S
O776 C779 1.235 . S
C777 O780 1.238 . S
C777 O781 1.241 . S
C778 O771 1.247 . S
C778 O772 1.261 . S
C779 O774 1.259 . S
C779 O776 1.235 . S
O780 Co770 2.021 . S
O780 C777 1.238 . S
O781 Co775 2.052 . S
O781 C777 1.241 . S
O782 Co770 2.137 . S
O782 C773 1.247 . S
O783 Co770 2.244 . S
O783 C773 1.272 . S
O783 Co775 2.135 . S
Co784 O785 2.216 . S
Co784 O786 2.091 . S
Co784 O788 2.004 . S
Co784 O794 2.021 . S
Co784 O796 2.137 . S
Co784 O797 2.244 . S
O785 Co784 2.216 . S
O785 C792 1.247 . S
O786 Co784 2.091 . S
O786 C792 1.261 . S
C787 O796 1.247 . S
C787 O797 1.272 . S
O788 Co784 2.004 . S
O788 C793 1.259 . S
Co789 O790 2.061 . S
Co789 O795 2.052 . S
Co789 O797 2.135 . S
O790 Co789 2.061 . S
O790 C793 1.235 . S
C791 O794 1.238 . S
C791 O795 1.241 . S
C792 O785 1.247 . S
C792 O786 1.261 . S
C793 O788 1.259 . S
C793 O790 1.235 . S
O794 Co784 2.021 . S
O794 C791 1.238 . S
O795 Co789 2.052 . S
O795 C791 1.241 . S
O796 Co784 2.137 . S
O796 C787 1.247 . S
O797 Co784 2.244 . S
O797 C787 1.272 . S
O797 Co789 2.135 . S
Co798 O799 2.216 . S
Co798 O800 2.091 . S
Co798 O802 2.004 . S
Co798 O808 2.021 . S
Co798 O810 2.137 . S
Co798 O811 2.244 . S
O799 Co798 2.216 . S
O799 C806 1.247 . S
O800 Co798 2.091 . S
O800 C806 1.261 . S
C801 O810 1.247 . S
C801 O811 1.272 . S
O802 Co798 2.004 . S
O802 C807 1.259 . S
Co803 O804 2.061 . S
Co803 O809 2.052 . S
Co803 O811 2.135 . S
O804 Co803 2.061 . S
O804 C807 1.235 . S
C805 O808 1.238 . S
C805 O809 1.241 . S
C806 O799 1.247 . S
C806 O800 1.261 . S
C807 O802 1.259 . S
C807 O804 1.235 . S
O808 Co798 2.021 . S
O808 C805 1.238 . S
O809 Co803 2.052 . S
O809 C805 1.241 . S
O810 Co798 2.137 . S
O810 C801 1.247 . S
O811 Co798 2.244 . S
O811 C801 1.272 . S
O811 Co803 2.135 . S
Co812 O813 2.216 . S
Co812 O814 2.091 . S
Co812 O816 2.004 . S
Co812 O822 2.021 . S
Co812 O824 2.137 . S
Co812 O825 2.244 . S
O813 Co812 2.216 . S
O813 C820 1.247 . S
O814 Co812 2.091 . S
O814 C820 1.261 . S
C815 O824 1.247 . S
C815 O825 1.272 . S
O816 Co812 2.004 . S
O816 C821 1.259 . S
Co817 O818 2.061 . S
Co817 O823 2.052 . S
Co817 O825 2.135 . S
O818 Co817 2.061 . S
O818 C821 1.235 . S
C819 O822 1.238 . S
C819 O823 1.241 . S
C820 O813 1.247 . S
C820 O814 1.261 . S
C821 O816 1.259 . S
C821 O818 1.235 . S
O822 Co812 2.021 . S
O822 C819 1.238 . S
O823 Co817 2.052 . S
O823 C819 1.241 . S
O824 Co812 2.137 . S
O824 C815 1.247 . S
O825 Co812 2.244 . S
O825 C815 1.272 . S
O825 Co817 2.135 . S
Co826 O827 2.216 . S
Co826 O828 2.091 . S
Co826 O830 2.004 . S
Co826 O836 2.021 . S
Co826 O838 2.137 . S
Co826 O839 2.244 . S
O827 Co826 2.216 . S
O827 C834 1.247 . S
O828 Co826 2.091 . S
O828 C834 1.261 . S
C829 O838 1.247 . S
C829 O839 1.272 . S
O830 Co826 2.004 . S
O830 C835 1.259 . S
Co831 O832 2.061 . S
Co831 O837 2.052 . S
Co831 O839 2.135 . S
O832 Co831 2.061 . S
O832 C835 1.235 . S
C833 O836 1.238 . S
C833 O837 1.241 . S
C834 O827 1.247 . S
C834 O828 1.261 . S
C835 O830 1.259 . S
C835 O832 1.235 . S
O836 Co826 2.021 . S
O836 C833 1.238 . S
O837 Co831 2.052 . S
O837 C833 1.241 . S
O838 Co826 2.137 . S
O838 C829 1.247 . S
O839 Co826 2.244 . S
O839 C829 1.272 . S
O839 Co831 2.135 . S
Co840 O841 2.216 . S
Co840 O842 2.091 . S
Co840 O844 2.004 . S
Co840 O850 2.021 . S
Co840 O852 2.137 . S
Co840 O853 2.244 . S
O841 Co840 2.216 . S
O841 C848 1.247 . S
O842 Co840 2.091 . S
O842 C848 1.261 . S
C843 O852 1.247 . S
C843 O853 1.272 . S
O844 Co840 2.004 . S
O844 C849 1.259 . S
Co845 O846 2.061 . S
Co845 O851 2.052 . S
Co845 O853 2.135 . S
O846 Co845 2.061 . S
O846 C849 1.235 . S
C847 O850 1.238 . S
C847 O851 1.241 . S
C848 O841 1.247 . S
C848 O842 1.261 . S
C849 O844 1.259 . S
C849 O846 1.235 . S
O850 Co840 2.021 . S
O850 C847 1.238 . S
O851 Co845 2.052 . S
O851 C847 1.241 . S
O852 Co840 2.137 . S
O852 C843 1.247 . S
O853 Co840 2.244 . S
O853 C843 1.272 . S
O853 Co845 2.135 . S
Co854 O855 2.216 . S
Co854 O856 2.091 . S
Co854 O858 2.004 . S
Co854 O864 2.021 . S
Co854 O866 2.137 . S
Co854 O867 2.244 . S
O855 Co854 2.216 . S
O855 C862 1.247 . S
O856 Co854 2.091 . S
O856 C862 1.261 . S
C857 O866 1.247 . S
C857 O867 1.272 . S
O858 Co854 2.004 . S
O858 C863 1.259 . S
Co859 O860 2.061 . S
Co859 O865 2.052 . S
Co859 O867 2.135 . S
O860 Co859 2.061 . S
O860 C863 1.235 . S
C861 O864 1.238 . S
C861 O865 1.241 . S
C862 O855 1.247 . S
C862 O856 1.261 . S
C863 O858 1.259 . S
C863 O860 1.235 . S
O864 Co854 2.021 . S
O864 C861 1.238 . S
O865 Co859 2.052 . S
O865 C861 1.241 . S
O866 Co854 2.137 . S
O866 C857 1.247 . S
O867 Co854 2.244 . S
O867 C857 1.272 . S
O867 Co859 2.135 . S
Co868 O869 2.216 . S
Co868 O870 2.091 . S
Co868 O872 2.004 . S
Co868 O878 2.021 . S
Co868 O880 2.137 . S
Co868 O881 2.244 . S
O869 Co868 2.216 . S
O869 C876 1.247 . S
O870 Co868 2.091 . S
O870 C876 1.261 . S
C871 O880 1.247 . S
C871 O881 1.272 . S
O872 Co868 2.004 . S
O872 C877 1.259 . S
Co873 O874 2.061 . S
Co873 O879 2.052 . S
Co873 O881 2.135 . S
O874 Co873 2.061 . S
O874 C877 1.235 . S
C875 O878 1.238 . S
C875 O879 1.241 . S
C876 O869 1.247 . S
C876 O870 1.261 . S
C877 O872 1.259 . S
C877 O874 1.235 . S
O878 Co868 2.021 . S
O878 C875 1.238 . S
O879 Co873 2.052 . S
O879 C875 1.241 . S
O880 Co868 2.137 . S
O880 C871 1.247 . S
O881 Co868 2.244 . S
O881 C871 1.272 . S
O881 Co873 2.135 . S
Co882 O883 2.216 . S
Co882 O884 2.091 . S
Co882 O886 2.004 . S
Co882 O892 2.021 . S
Co882 O894 2.137 . S
Co882 O895 2.244 . S
O883 Co882 2.216 . S
O883 C890 1.247 . S
O884 Co882 2.091 . S
O884 C890 1.261 . S
C885 O894 1.247 . S
C885 O895 1.272 . S
O886 Co882 2.004 . S
O886 C891 1.259 . S
Co887 O888 2.061 . S
Co887 O893 2.052 . S
Co887 O895 2.135 . S
O888 Co887 2.061 . S
O888 C891 1.235 . S
C889 O892 1.238 . S
C889 O893 1.241 . S
C890 O883 1.247 . S
C890 O884 1.261 . S
C891 O886 1.259 . S
C891 O888 1.235 . S
O892 Co882 2.021 . S
O892 C889 1.238 . S
O893 Co887 2.052 . S
O893 C889 1.241 . S
O894 Co882 2.137 . S
O894 C885 1.247 . S
O895 Co882 2.244 . S
O895 C885 1.272 . S
O895 Co887 2.135 . S
Co896 O897 2.216 . S
Co896 O898 2.091 . S
Co896 O900 2.004 . S
Co896 O906 2.021 . S
Co896 O908 2.137 . S
Co896 O909 2.244 . S
O897 Co896 2.216 . S
O897 C904 1.247 . S
O898 Co896 2.091 . S
O898 C904 1.261 . S
C899 O908 1.247 . S
C899 O909 1.272 . S
O900 Co896 2.004 . S
O900 C905 1.259 . S
Co901 O902 2.061 . S
Co901 O907 2.052 . S
Co901 O909 2.135 . S
O902 Co901 2.061 . S
O902 C905 1.235 . S
C903 O906 1.238 . S
C903 O907 1.241 . S
C904 O897 1.247 . S
C904 O898 1.261 . S
C905 O900 1.259 . S
C905 O902 1.235 . S
O906 Co896 2.021 . S
O906 C903 1.238 . S
O907 Co901 2.052 . S
O907 C903 1.241 . S
O908 Co896 2.137 . S
O908 C899 1.247 . S
O909 Co896 2.244 . S
O909 C899 1.272 . S
O909 Co901 2.135 . S
Co910 O911 2.216 . S
Co910 O912 2.091 . S
Co910 O914 2.004 . S
Co910 O920 2.021 . S
Co910 O922 2.137 . S
Co910 O923 2.244 . S
O911 Co910 2.216 . S
O911 C918 1.247 . S
O912 Co910 2.091 . S
O912 C918 1.261 . S
C913 O922 1.247 . S
C913 O923 1.272 . S
O914 Co910 2.004 . S
O914 C919 1.259 . S
Co915 O916 2.061 . S
Co915 O921 2.052 . S
Co915 O923 2.135 . S
O916 Co915 2.061 . S
O916 C919 1.235 . S
C917 O920 1.238 . S
C917 O921 1.241 . S
C918 O911 1.247 . S
C918 O912 1.261 . S
C919 O914 1.259 . S
C919 O916 1.235 . S
O920 Co910 2.021 . S
O920 C917 1.238 . S
O921 Co915 2.052 . S
O921 C917 1.241 . S
O922 Co910 2.137 . S
O922 C913 1.247 . S
O923 Co910 2.244 . S
O923 C913 1.272 . S
O923 Co915 2.135 . S
Co924 O925 2.216 . S
Co924 O926 2.091 . S
Co924 O928 2.004 . S
Co924 O934 2.021 . S
Co924 O936 2.137 . S
Co924 O937 2.244 . S
O925 Co924 2.216 . S
O925 C932 1.247 . S
O926 Co924 2.091 . S
O926 C932 1.261 . S
C927 O936 1.247 . S
C927 O937 1.272 . S
O928 Co924 2.004 . S
O928 C933 1.259 . S
Co929 O930 2.061 . S
Co929 O935 2.052 . S
Co929 O937 2.135 . S
O930 Co929 2.061 . S
O930 C933 1.235 . S
C931 O934 1.238 . S
C931 O935 1.241 . S
C932 O925 1.247 . S
C932 O926 1.261 . S
C933 O928 1.259 . S
C933 O930 1.235 . S
O934 Co924 2.021 . S
O934 C931 1.238 . S
O935 Co929 2.052 . S
O935 C931 1.241 . S
O936 Co924 2.137 . S
O936 C927 1.247 . S
O937 Co924 2.244 . S
O937 C927 1.272 . S
O937 Co929 2.135 . S
Co938 O939 2.216 . S
Co938 O940 2.091 . S
Co938 O942 2.004 . S
Co938 O948 2.021 . S
Co938 O950 2.137 . S
Co938 O951 2.244 . S
O939 Co938 2.216 . S
O939 C946 1.247 . S
O940 Co938 2.091 . S
O940 C946 1.261 . S
C941 O950 1.247 . S
C941 O951 1.272 . S
O942 Co938 2.004 . S
O942 C947 1.259 . S
Co943 O944 2.061 . S
Co943 O949 2.052 . S
Co943 O951 2.135 . S
O944 Co943 2.061 . S
O944 C947 1.235 . S
C945 O948 1.238 . S
C945 O949 1.241 . S
C946 O939 1.247 . S
C946 O940 1.261 . S
C947 O942 1.259 . S
C947 O944 1.235 . S
O948 Co938 2.021 . S
O948 C945 1.238 . S
O949 Co943 2.052 . S
O949 C945 1.241 . S
O950 Co938 2.137 . S
O950 C941 1.247 . S
O951 Co938 2.244 . S
O951 C941 1.272 . S
O951 Co943 2.135 . S
Co952 O953 2.216 . S
Co952 O954 2.091 . S
Co952 O956 2.004 . S
Co952 O962 2.021 . S
Co952 O964 2.137 . S
Co952 O965 2.244 . S
O953 Co952 2.216 . S
O953 C960 1.247 . S
O954 Co952 2.091 . S
O954 C960 1.261 . S
C955 O964 1.247 . S
C955 O965 1.272 . S
O956 Co952 2.004 . S
O956 C961 1.259 . S
Co957 O958 2.061 . S
Co957 O963 2.052 . S
Co957 O965 2.135 . S
O958 Co957 2.061 . S
O958 C961 1.235 . S
C959 O962 1.238 . S
C959 O963 1.241 . S
C960 O953 1.247 . S
C960 O954 1.261 . S
C961 O956 1.259 . S
C961 O958 1.235 . S
O962 Co952 2.021 . S
O962 C959 1.238 . S
O963 Co957 2.052 . S
O963 C959 1.241 . S
O964 Co952 2.137 . S
O964 C955 1.247 . S
O965 Co952 2.244 . S
O965 C955 1.272 . S
O965 Co957 2.135 . S
Co966 O967 2.216 . S
Co966 O968 2.091 . S
Co966 O970 2.004 . S
Co966 O976 2.021 . S
Co966 O978 2.137 . S
Co966 O979 2.244 . S
O967 Co966 2.216 . S
O967 C974 1.247 . S
O968 Co966 2.091 . S
O968 C974 1.261 . S
C969 O978 1.247 . S
C969 O979 1.272 . S
O970 Co966 2.004 . S
O970 C975 1.259 . S
Co971 O972 2.061 . S
Co971 O977 2.052 . S
Co971 O979 2.135 . S
O972 Co971 2.061 . S
O972 C975 1.235 . S
C973 O976 1.238 . S
C973 O977 1.241 . S
C974 O967 1.247 . S
C974 O968 1.261 . S
C975 O970 1.259 . S
C975 O972 1.235 . S
O976 Co966 2.021 . S
O976 C973 1.238 . S
O977 Co971 2.052 . S
O977 C973 1.241 . S
O978 Co966 2.137 . S
O978 C969 1.247 . S
O979 Co966 2.244 . S
O979 C969 1.272 . S
O979 Co971 2.135 . S
Co980 O981 2.216 . S
Co980 O982 2.091 . S
Co980 O984 2.004 . S
Co980 O990 2.021 . S
Co980 O992 2.137 . S
Co980 O993 2.244 . S
O981 Co980 2.216 . S
O981 C988 1.247 . S
O982 Co980 2.091 . S
O982 C988 1.261 . S
C983 O992 1.247 . S
C983 O993 1.272 . S
O984 Co980 2.004 . S
O984 C989 1.259 . S
Co985 O986 2.061 . S
Co985 O991 2.052 . S
Co985 O993 2.135 . S
O986 Co985 2.061 . S
O986 C989 1.235 . S
C987 O990 1.238 . S
C987 O991 1.241 . S
C988 O981 1.247 . S
C988 O982 1.261 . S
C989 O984 1.259 . S
C989 O986 1.235 . S
O990 Co980 2.021 . S
O990 C987 1.238 . S
O991 Co985 2.052 . S
O991 C987 1.241 . S
O992 Co980 2.137 . S
O992 C983 1.247 . S
O993 Co980 2.244 . S
O993 C983 1.272 . S
O993 Co985 2.135 . S
Co994 O995 2.216 . S
Co994 O996 2.091 . S
Co994 O998 2.004 . S
Co994 O1004 2.021 . S
Co994 O1006 2.137 . S
Co994 O1007 2.244 . S
O995 Co994 2.216 . S
O995 C1002 1.247 . S
O996 Co994 2.091 . S
O996 C1002 1.261 . S
C997 O1006 1.247 . S
C997 O1007 1.272 . S
O998 Co994 2.004 . S
O998 C1003 1.259 . S
Co999 O1000 2.061 . S
Co999 O1005 2.052 . S
Co999 O1007 2.135 . S
O1000 Co999 2.061 . S
O1000 C1003 1.235 . S
C1001 O1004 1.238 . S
C1001 O1005 1.241 . S
C1002 O995 1.247 . S
C1002 O996 1.261 . S
C1003 O998 1.259 . S
C1003 O1000 1.235 . S
O1004 Co994 2.021 . S
O1004 C1001 1.238 . S
O1005 Co999 2.052 . S
O1005 C1001 1.241 . S
O1006 Co994 2.137 . S
O1006 C997 1.247 . S
O1007 Co994 2.244 . S
O1007 C997 1.272 . S
O1007 Co999 2.135 . S
Co1008 O1009 2.216 . S
Co1008 O1010 2.091 . S
Co1008 O1012 2.004 . S
Co1008 O1018 2.021 . S
Co1008 O1020 2.137 . S
Co1008 O1021 2.244 . S
O1009 Co1008 2.216 . S
O1009 C1016 1.247 . S
O1010 Co1008 2.091 . S
O1010 C1016 1.261 . S
C1011 O1020 1.247 . S
C1011 O1021 1.272 . S
O1012 Co1008 2.004 . S
O1012 C1017 1.259 . S
Co1013 O1014 2.061 . S
Co1013 O1019 2.052 . S
Co1013 O1021 2.135 . S
O1014 Co1013 2.061 . S
O1014 C1017 1.235 . S
C1015 O1018 1.238 . S
C1015 O1019 1.241 . S
C1016 O1009 1.247 . S
C1016 O1010 1.261 . S
C1017 O1012 1.259 . S
C1017 O1014 1.235 . S
O1018 Co1008 2.021 . S
O1018 C1015 1.238 . S
O1019 Co1013 2.052 . S
O1019 C1015 1.241 . S
O1020 Co1008 2.137 . S
O1020 C1011 1.247 . S
O1021 Co1008 2.244 . S
O1021 C1011 1.272 . S
O1021 Co1013 2.135 . S
Co1022 O1023 2.216 . S
Co1022 O1024 2.091 . S
Co1022 O1026 2.004 . S
Co1022 O1032 2.021 . S
Co1022 O1034 2.137 . S
Co1022 O1035 2.244 . S
O1023 Co1022 2.216 . S
O1023 C1030 1.247 . S
O1024 Co1022 2.091 . S
O1024 C1030 1.261 . S
C1025 O1034 1.247 . S
C1025 O1035 1.272 . S
O1026 Co1022 2.004 . S
O1026 C1031 1.259 . S
Co1027 O1028 2.061 . S
Co1027 O1033 2.052 . S
Co1027 O1035 2.135 . S
O1028 Co1027 2.061 . S
O1028 C1031 1.235 . S
C1029 O1032 1.238 . S
C1029 O1033 1.241 . S
C1030 O1023 1.247 . S
C1030 O1024 1.261 . S
C1031 O1026 1.259 . S
C1031 O1028 1.235 . S
O1032 Co1022 2.021 . S
O1032 C1029 1.238 . S
O1033 Co1027 2.052 . S
O1033 C1029 1.241 . S
O1034 Co1022 2.137 . S
O1034 C1025 1.247 . S
O1035 Co1022 2.244 . S
O1035 C1025 1.272 . S
O1035 Co1027 2.135 . S
Co1036 O1037 2.216 . S
Co1036 O1038 2.091 . S
Co1036 O1040 2.004 . S
Co1036 O1046 2.021 . S
Co1036 O1048 2.137 . S
Co1036 O1049 2.244 . S
O1037 Co1036 2.216 . S
O1037 C1044 1.247 . S
O1038 Co1036 2.091 . S
O1038 C1044 1.261 . S
C1039 O1048 1.247 . S
C1039 O1049 1.272 . S
O1040 Co1036 2.004 . S
O1040 C1045 1.259 . S
Co1041 O1042 2.061 . S
Co1041 O1047 2.052 . S
Co1041 O1049 2.135 . S
O1042 Co1041 2.061 . S
O1042 C1045 1.235 . S
C1043 O1046 1.238 . S
C1043 O1047 1.241 . S
C1044 O1037 1.247 . S
C1044 O1038 1.261 . S
C1045 O1040 1.259 . S
C1045 O1042 1.235 . S
O1046 Co1036 2.021 . S
O1046 C1043 1.238 . S
O1047 Co1041 2.052 . S
O1047 C1043 1.241 . S
O1048 Co1036 2.137 . S
O1048 C1039 1.247 . S
O1049 Co1036 2.244 . S
O1049 C1039 1.272 . S
O1049 Co1041 2.135 . S
Co1050 O1051 2.216 . S
Co1050 O1052 2.091 . S
Co1050 O1054 2.004 . S
Co1050 O1060 2.021 . S
Co1050 O1062 2.137 . S
Co1050 O1063 2.244 . S
O1051 Co1050 2.216 . S
O1051 C1058 1.247 . S
O1052 Co1050 2.091 . S
O1052 C1058 1.261 . S
C1053 O1062 1.247 . S
C1053 O1063 1.272 . S
O1054 Co1050 2.004 . S
O1054 C1059 1.259 . S
Co1055 O1056 2.061 . S
Co1055 O1061 2.052 . S
Co1055 O1063 2.135 . S
O1056 Co1055 2.061 . S
O1056 C1059 1.235 . S
C1057 O1060 1.238 . S
C1057 O1061 1.241 . S
C1058 O1051 1.247 . S
C1058 O1052 1.261 . S
C1059 O1054 1.259 . S
C1059 O1056 1.235 . S
O1060 Co1050 2.021 . S
O1060 C1057 1.238 . S
O1061 Co1055 2.052 . S
O1061 C1057 1.241 . S
O1062 Co1050 2.137 . S
O1062 C1053 1.247 . S
O1063 Co1050 2.244 . S
O1063 C1053 1.272 . S
O1063 Co1055 2.135 . S
Co1064 O1065 2.216 . S
Co1064 O1066 2.091 . S
Co1064 O1068 2.004 . S
Co1064 O1074 2.021 . S
Co1064 O1076 2.137 . S
Co1064 O1077 2.244 . S
O1065 Co1064 2.216 . S
O1065 C1072 1.247 . S
O1066 Co1064 2.091 . S
O1066 C1072 1.261 . S
C1067 O1076 1.247 . S
C1067 O1077 1.272 . S
O1068 Co1064 2.004 . S
O1068 C1073 1.259 . S
Co1069 O1070 2.061 . S
Co1069 O1075 2.052 . S
Co1069 O1077 2.135 . S
O1070 Co1069 2.061 . S
O1070 C1073 1.235 . S
C1071 O1074 1.238 . S
C1071 O1075 1.241 . S
C1072 O1065 1.247 . S
C1072 O1066 1.261 . S
C1073 O1068 1.259 . S
C1073 O1070 1.235 . S
O1074 Co1064 2.021 . S
O1074 C1071 1.238 . S
O1075 Co1069 2.052 . S
O1075 C1071 1.241 . S
O1076 Co1064 2.137 . S
O1076 C1067 1.247 . S
O1077 Co1064 2.244 . S
O1077 C1067 1.272 . S
O1077 Co1069 2.135 . S
Co1078 O1079 2.216 . S
Co1078 O1080 2.091 . S
Co1078 O1082 2.004 . S
Co1078 O1088 2.021 . S
Co1078 O1090 2.137 . S
Co1078 O1091 2.244 . S
O1079 Co1078 2.216 . S
O1079 C1086 1.247 . S
O1080 Co1078 2.091 . S
O1080 C1086 1.261 . S
C1081 O1090 1.247 . S
C1081 O1091 1.272 . S
O1082 Co1078 2.004 . S
O1082 C1087 1.259 . S
Co1083 O1084 2.061 . S
Co1083 O1089 2.052 . S
Co1083 O1091 2.135 . S
O1084 Co1083 2.061 . S
O1084 C1087 1.235 . S
C1085 O1088 1.238 . S
C1085 O1089 1.241 . S
C1086 O1079 1.247 . S
C1086 O1080 1.261 . S
C1087 O1082 1.259 . S
C1087 O1084 1.235 . S
O1088 Co1078 2.021 . S
O1088 C1085 1.238 . S
O1089 Co1083 2.052 . S
O1089 C1085 1.241 . S
O1090 Co1078 2.137 . S
O1090 C1081 1.247 . S
O1091 Co1078 2.244 . S
O1091 C1081 1.272 . S
O1091 Co1083 2.135 . S
Co1092 O1093 2.216 . S
Co1092 O1094 2.091 . S
Co1092 O1096 2.004 . S
Co1092 O1102 2.021 . S
Co1092 O1104 2.137 . S
Co1092 O1105 2.244 . S
O1093 Co1092 2.216 . S
O1093 C1100 1.247 . S
O1094 Co1092 2.091 . S
O1094 C1100 1.261 . S
C1095 O1104 1.247 . S
C1095 O1105 1.272 . S
O1096 Co1092 2.004 . S
O1096 C1101 1.259 . S
Co1097 O1098 2.061 . S
Co1097 O1103 2.052 . S
Co1097 O1105 2.135 . S
O1098 Co1097 2.061 . S
O1098 C1101 1.235 . S
C1099 O1102 1.238 . S
C1099 O1103 1.241 . S
C1100 O1093 1.247 . S
C1100 O1094 1.261 . S
C1101 O1096 1.259 . S
C1101 O1098 1.235 . S
O1102 Co1092 2.021 . S
O1102 C1099 1.238 . S
O1103 Co1097 2.052 . S
O1103 C1099 1.241 . S
O1104 Co1092 2.137 . S
O1104 C1095 1.247 . S
O1105 Co1092 2.244 . S
O1105 C1095 1.272 . S
O1105 Co1097 2.135 . S
Co1106 O1107 2.216 . S
Co1106 O1108 2.091 . S
Co1106 O1110 2.004 . S
Co1106 O1116 2.021 . S
Co1106 O1118 2.137 . S
Co1106 O1119 2.244 . S
O1107 Co1106 2.216 . S
O1107 C1114 1.247 . S
O1108 Co1106 2.091 . S
O1108 C1114 1.261 . S
C1109 O1118 1.247 . S
C1109 O1119 1.272 . S
O1110 Co1106 2.004 . S
O1110 C1115 1.259 . S
Co1111 O1112 2.061 . S
Co1111 O1117 2.052 . S
Co1111 O1119 2.135 . S
O1112 Co1111 2.061 . S
O1112 C1115 1.235 . S
C1113 O1116 1.238 . S
C1113 O1117 1.241 . S
C1114 O1107 1.247 . S
C1114 O1108 1.261 . S
C1115 O1110 1.259 . S
C1115 O1112 1.235 . S
O1116 Co1106 2.021 . S
O1116 C1113 1.238 . S
O1117 Co1111 2.052 . S
O1117 C1113 1.241 . S
O1118 Co1106 2.137 . S
O1118 C1109 1.247 . S
O1119 Co1106 2.244 . S
O1119 C1109 1.272 . S
O1119 Co1111 2.135 . S
Co1120 O1121 2.216 . S
Co1120 O1122 2.091 . S
Co1120 O1124 2.004 . S
Co1120 O1130 2.021 . S
Co1120 O1132 2.137 . S
Co1120 O1133 2.244 . S
O1121 Co1120 2.216 . S
O1121 C1128 1.247 . S
O1122 Co1120 2.091 . S
O1122 C1128 1.261 . S
C1123 O1132 1.247 . S
C1123 O1133 1.272 . S
O1124 Co1120 2.004 . S
O1124 C1129 1.259 . S
Co1125 O1126 2.061 . S
Co1125 O1131 2.052 . S
Co1125 O1133 2.135 . S
O1126 Co1125 2.061 . S
O1126 C1129 1.235 . S
C1127 O1130 1.238 . S
C1127 O1131 1.241 . S
C1128 O1121 1.247 . S
C1128 O1122 1.261 . S
C1129 O1124 1.259 . S
C1129 O1126 1.235 . S
O1130 Co1120 2.021 . S
O1130 C1127 1.238 . S
O1131 Co1125 2.052 . S
O1131 C1127 1.241 . S
O1132 Co1120 2.137 . S
O1132 C1123 1.247 . S
O1133 Co1120 2.244 . S
O1133 C1123 1.272 . S
O1133 Co1125 2.135 . S
Co1134 O1135 2.216 . S
Co1134 O1136 2.091 . S
Co1134 O1138 2.004 . S
Co1134 O1144 2.021 . S
Co1134 O1146 2.137 . S
Co1134 O1147 2.244 . S
O1135 Co1134 2.216 . S
O1135 C1142 1.247 . S
O1136 Co1134 2.091 . S
O1136 C1142 1.261 . S
C1137 O1146 1.247 . S
C1137 O1147 1.272 . S
O1138 Co1134 2.004 . S
O1138 C1143 1.259 . S
Co1139 O1140 2.061 . S
Co1139 O1145 2.052 . S
Co1139 O1147 2.135 . S
O1140 Co1139 2.061 . S
O1140 C1143 1.235 . S
C1141 O1144 1.238 . S
C1141 O1145 1.241 . S
C1142 O1135 1.247 . S
C1142 O1136 1.261 . S
C1143 O1138 1.259 . S
C1143 O1140 1.235 . S
O1144 Co1134 2.021 . S
O1144 C1141 1.238 . S
O1145 Co1139 2.052 . S
O1145 C1141 1.241 . S
O1146 Co1134 2.137 . S
O1146 C1137 1.247 . S
O1147 Co1134 2.244 . S
O1147 C1137 1.272 . S
O1147 Co1139 2.135 . S
Co1148 O1149 2.216 . S
Co1148 O1150 2.091 . S
Co1148 O1152 2.004 . S
Co1148 O1158 2.021 . S
Co1148 O1160 2.137 . S
Co1148 O1161 2.244 . S
O1149 Co1148 2.216 . S
O1149 C1156 1.247 . S
O1150 Co1148 2.091 . S
O1150 C1156 1.261 . S
C1151 O1160 1.247 . S
C1151 O1161 1.272 . S
O1152 Co1148 2.004 . S
O1152 C1157 1.259 . S
Co1153 O1154 2.061 . S
Co1153 O1159 2.052 . S
Co1153 O1161 2.135 . S
O1154 Co1153 2.061 . S
O1154 C1157 1.235 . S
C1155 O1158 1.238 . S
C1155 O1159 1.241 . S
C1156 O1149 1.247 . S
C1156 O1150 1.261 . S
C1157 O1152 1.259 . S
C1157 O1154 1.235 . S
O1158 Co1148 2.021 . S
O1158 C1155 1.238 . S
O1159 Co1153 2.052 . S
O1159 C1155 1.241 . S
O1160 Co1148 2.137 . S
O1160 C1151 1.247 . S
O1161 Co1148 2.244 . S
O1161 C1151 1.272 . S
O1161 Co1153 2.135 . S
Co1162 O1163 2.216 . S
Co1162 O1164 2.091 . S
Co1162 O1166 2.004 . S
Co1162 O1172 2.021 . S
Co1162 O1174 2.137 . S
Co1162 O1175 2.244 . S
O1163 Co1162 2.216 . S
O1163 C1170 1.247 . S
O1164 Co1162 2.091 . S
O1164 C1170 1.261 . S
C1165 O1174 1.247 . S
C1165 O1175 1.272 . S
O1166 Co1162 2.004 . S
O1166 C1171 1.259 . S
Co1167 O1168 2.061 . S
Co1167 O1173 2.052 . S
Co1167 O1175 2.135 . S
O1168 Co1167 2.061 . S
O1168 C1171 1.235 . S
C1169 O1172 1.238 . S
C1169 O1173 1.241 . S
C1170 O1163 1.247 . S
C1170 O1164 1.261 . S
C1171 O1166 1.259 . S
C1171 O1168 1.235 . S
O1172 Co1162 2.021 . S
O1172 C1169 1.238 . S
O1173 Co1167 2.052 . S
O1173 C1169 1.241 . S
O1174 Co1162 2.137 . S
O1174 C1165 1.247 . S
O1175 Co1162 2.244 . S
O1175 C1165 1.272 . S
O1175 Co1167 2.135 . S
Co1176 O1177 2.216 . S
Co1176 O1178 2.091 . S
Co1176 O1180 2.004 . S
Co1176 O1186 2.021 . S
Co1176 O1188 2.137 . S
Co1176 O1189 2.244 . S
O1177 Co1176 2.216 . S
O1177 C1184 1.247 . S
O1178 Co1176 2.091 . S
O1178 C1184 1.261 . S
C1179 O1188 1.247 . S
C1179 O1189 1.272 . S
O1180 Co1176 2.004 . S
O1180 C1185 1.259 . S
Co1181 O1182 2.061 . S
Co1181 O1187 2.052 . S
Co1181 O1189 2.135 . S
O1182 Co1181 2.061 . S
O1182 C1185 1.235 . S
C1183 O1186 1.238 . S
C1183 O1187 1.241 . S
C1184 O1177 1.247 . S
C1184 O1178 1.261 . S
C1185 O1180 1.259 . S
C1185 O1182 1.235 . S
O1186 Co1176 2.021 . S
O1186 C1183 1.238 . S
O1187 Co1181 2.052 . S
O1187 C1183 1.241 . S
O1188 Co1176 2.137 . S
O1188 C1179 1.247 . S
O1189 Co1176 2.244 . S
O1189 C1179 1.272 . S
O1189 Co1181 2.135 . S
Co1190 O1191 2.216 . S
Co1190 O1192 2.091 . S
Co1190 O1194 2.004 . S
Co1190 O1200 2.021 . S
Co1190 O1202 2.137 . S
Co1190 O1203 2.244 . S
O1191 Co1190 2.216 . S
O1191 C1198 1.247 . S
O1192 Co1190 2.091 . S
O1192 C1198 1.261 . S
C1193 O1202 1.247 . S
C1193 O1203 1.272 . S
O1194 Co1190 2.004 . S
O1194 C1199 1.259 . S
Co1195 O1196 2.061 . S
Co1195 O1201 2.052 . S
Co1195 O1203 2.135 . S
O1196 Co1195 2.061 . S
O1196 C1199 1.235 . S
C1197 O1200 1.238 . S
C1197 O1201 1.241 . S
C1198 O1191 1.247 . S
C1198 O1192 1.261 . S
C1199 O1194 1.259 . S
C1199 O1196 1.235 . S
O1200 Co1190 2.021 . S
O1200 C1197 1.238 . S
O1201 Co1195 2.052 . S
O1201 C1197 1.241 . S
O1202 Co1190 2.137 . S
O1202 C1193 1.247 . S
O1203 Co1190 2.244 . S
O1203 C1193 1.272 . S
O1203 Co1195 2.135 . S
Co1204 O1205 2.216 . S
Co1204 O1206 2.091 . S
Co1204 O1208 2.004 . S
Co1204 O1214 2.021 . S
Co1204 O1216 2.137 . S
Co1204 O1217 2.244 . S
O1205 Co1204 2.216 . S
O1205 C1212 1.247 . S
O1206 Co1204 2.091 . S
O1206 C1212 1.261 . S
C1207 O1216 1.247 . S
C1207 O1217 1.272 . S
O1208 Co1204 2.004 . S
O1208 C1213 1.259 . S
Co1209 O1210 2.061 . S
Co1209 O1215 2.052 . S
Co1209 O1217 2.135 . S
O1210 Co1209 2.061 . S
O1210 C1213 1.235 . S
C1211 O1214 1.238 . S
C1211 O1215 1.241 . S
C1212 O1205 1.247 . S
C1212 O1206 1.261 . S
C1213 O1208 1.259 . S
C1213 O1210 1.235 . S
O1214 Co1204 2.021 . S
O1214 C1211 1.238 . S
O1215 Co1209 2.052 . S
O1215 C1211 1.241 . S
O1216 Co1204 2.137 . S
O1216 C1207 1.247 . S
O1217 Co1204 2.244 . S
O1217 C1207 1.272 . S
O1217 Co1209 2.135 . S
Co1218 O1219 2.216 . S
Co1218 O1220 2.091 . S
Co1218 O1222 2.004 . S
Co1218 O1228 2.021 . S
Co1218 O1230 2.137 . S
Co1218 O1231 2.244 . S
O1219 Co1218 2.216 . S
O1219 C1226 1.247 . S
O1220 Co1218 2.091 . S
O1220 C1226 1.261 . S
C1221 O1230 1.247 . S
C1221 O1231 1.272 . S
O1222 Co1218 2.004 . S
O1222 C1227 1.259 . S
Co1223 O1224 2.061 . S
Co1223 O1229 2.052 . S
Co1223 O1231 2.135 . S
O1224 Co1223 2.061 . S
O1224 C1227 1.235 . S
C1225 O1228 1.238 . S
C1225 O1229 1.241 . S
C1226 O1219 1.247 . S
C1226 O1220 1.261 . S
C1227 O1222 1.259 . S
C1227 O1224 1.235 . S
O1228 Co1218 2.021 . S
O1228 C1225 1.238 . S
O1229 Co1223 2.052 . S
O1229 C1225 1.241 . S
O1230 Co1218 2.137 . S
O1230 C1221 1.247 . S
O1231 Co1218 2.244 . S
O1231 C1221 1.272 . S
O1231 Co1223 2.135 . S
Co1232 O1233 2.216 . S
Co1232 O1234 2.091 . S
Co1232 O1236 2.004 . S
Co1232 O1242 2.021 . S
Co1232 O1244 2.137 . S
Co1232 O1245 2.244 . S
O1233 Co1232 2.216 . S
O1233 C1240 1.247 . S
O1234 Co1232 2.091 . S
O1234 C1240 1.261 . S
C1235 O1244 1.247 . S
C1235 O1245 1.272 . S
O1236 Co1232 2.004 . S
O1236 C1241 1.259 . S
Co1237 O1238 2.061 . S
Co1237 O1243 2.052 . S
Co1237 O1245 2.135 . S
O1238 Co1237 2.061 . S
O1238 C1241 1.235 . S
C1239 O1242 1.238 . S
C1239 O1243 1.241 . S
C1240 O1233 1.247 . S
C1240 O1234 1.261 . S
C1241 O1236 1.259 . S
C1241 O1238 1.235 . S
O1242 Co1232 2.021 . S
O1242 C1239 1.238 . S
O1243 Co1237 2.052 . S
O1243 C1239 1.241 . S
O1244 Co1232 2.137 . S
O1244 C1235 1.247 . S
O1245 Co1232 2.244 . S
O1245 C1235 1.272 . S
O1245 Co1237 2.135 . S
Co1246 O1247 2.216 . S
Co1246 O1248 2.091 . S
Co1246 O1250 2.004 . S
Co1246 O1256 2.021 . S
Co1246 O1258 2.137 . S
Co1246 O1259 2.244 . S
O1247 Co1246 2.216 . S
O1247 C1254 1.247 . S
O1248 Co1246 2.091 . S
O1248 C1254 1.261 . S
C1249 O1258 1.247 . S
C1249 O1259 1.272 . S
O1250 Co1246 2.004 . S
O1250 C1255 1.259 . S
Co1251 O1252 2.061 . S
Co1251 O1257 2.052 . S
Co1251 O1259 2.135 . S
O1252 Co1251 2.061 . S
O1252 C1255 1.235 . S
C1253 O1256 1.238 . S
C1253 O1257 1.241 . S
C1254 O1247 1.247 . S
C1254 O1248 1.261 . S
C1255 O1250 1.259 . S
C1255 O1252 1.235 . S
O1256 Co1246 2.021 . S
O1256 C1253 1.238 . S
O1257 Co1251 2.052 . S
O1257 C1253 1.241 . S
O1258 Co1246 2.137 . S
O1258 C1249 1.247 . S
O1259 Co1246 2.244 . S
O1259 C1249 1.272 . S
O1259 Co1251 2.135 . S
Co1260 O1261 2.216 . S
Co1260 O1262 2.091 . S
Co1260 O1264 2.004 . S
Co1260 O1270 2.021 . S
Co1260 O1272 2.137 . S
Co1260 O1273 2.244 . S
O1261 Co1260 2.216 . S
O1261 C1268 1.247 . S
O1262 Co1260 2.091 . S
O1262 C1268 1.261 . S
C1263 O1272 1.247 . S
C1263 O1273 1.272 . S
O1264 Co1260 2.004 . S
O1264 C1269 1.259 . S
Co1265 O1266 2.061 . S
Co1265 O1271 2.052 . S
Co1265 O1273 2.135 . S
O1266 Co1265 2.061 . S
O1266 C1269 1.235 . S
C1267 O1270 1.238 . S
C1267 O1271 1.241 . S
C1268 O1261 1.247 . S
C1268 O1262 1.261 . S
C1269 O1264 1.259 . S
C1269 O1266 1.235 . S
O1270 Co1260 2.021 . S
O1270 C1267 1.238 . S
O1271 Co1265 2.052 . S
O1271 C1267 1.241 . S
O1272 Co1260 2.137 . S
O1272 C1263 1.247 . S
O1273 Co1260 2.244 . S
O1273 C1263 1.272 . S
O1273 Co1265 2.135 . S
Co1274 O1275 2.216 . S
Co1274 O1276 2.091 . S
Co1274 O1278 2.004 . S
Co1274 O1284 2.021 . S
Co1274 O1286 2.137 . S
Co1274 O1287 2.244 . S
O1275 Co1274 2.216 . S
O1275 C1282 1.247 . S
O1276 Co1274 2.091 . S
O1276 C1282 1.261 . S
C1277 O1286 1.247 . S
C1277 O1287 1.272 . S
O1278 Co1274 2.004 . S
O1278 C1283 1.259 . S
Co1279 O1280 2.061 . S
Co1279 O1285 2.052 . S
Co1279 O1287 2.135 . S
O1280 Co1279 2.061 . S
O1280 C1283 1.235 . S
C1281 O1284 1.238 . S
C1281 O1285 1.241 . S
C1282 O1275 1.247 . S
C1282 O1276 1.261 . S
C1283 O1278 1.259 . S
C1283 O1280 1.235 . S
O1284 Co1274 2.021 . S
O1284 C1281 1.238 . S
O1285 Co1279 2.052 . S
O1285 C1281 1.241 . S
O1286 Co1274 2.137 . S
O1286 C1277 1.247 . S
O1287 Co1274 2.244 . S
O1287 C1277 1.272 . S
O1287 Co1279 2.135 . S
Co1288 O1289 2.216 . S
Co1288 O1290 2.091 . S
Co1288 O1292 2.004 . S
Co1288 O1298 2.021 . S
Co1288 O1300 2.137 . S
Co1288 O1301 2.244 . S
O1289 Co1288 2.216 . S
O1289 C1296 1.247 . S
O1290 Co1288 2.091 . S
O1290 C1296 1.261 . S
C1291 O1300 1.247 . S
C1291 O1301 1.272 . S
O1292 Co1288 2.004 . S
O1292 C1297 1.259 . S
Co1293 O1294 2.061 . S
Co1293 O1299 2.052 . S
Co1293 O1301 2.135 . S
O1294 Co1293 2.061 . S
O1294 C1297 1.235 . S
C1295 O1298 1.238 . S
C1295 O1299 1.241 . S
C1296 O1289 1.247 . S
C1296 O1290 1.261 . S
C1297 O1292 1.259 . S
C1297 O1294 1.235 . S
O1298 Co1288 2.021 . S
O1298 C1295 1.238 . S
O1299 Co1293 2.052 . S
O1299 C1295 1.241 . S
O1300 Co1288 2.137 . S
O1300 C1291 1.247 . S
O1301 Co1288 2.244 . S
O1301 C1291 1.272 . S
O1301 Co1293 2.135 . S
Co1302 O1303 2.216 . S
Co1302 O1304 2.091 . S
Co1302 O1306 2.004 . S
Co1302 O1312 2.021 . S
Co1302 O1314 2.137 . S
Co1302 O1315 2.244 . S
O1303 Co1302 2.216 . S
O1303 C1310 1.247 . S
O1304 Co1302 2.091 . S
O1304 C1310 1.261 . S
C1305 O1314 1.247 . S
C1305 O1315 1.272 . S
O1306 Co1302 2.004 . S
O1306 C1311 1.259 . S
Co1307 O1308 2.061 . S
Co1307 O1313 2.052 . S
Co1307 O1315 2.135 . S
O1308 Co1307 2.061 . S
O1308 C1311 1.235 . S
C1309 O1312 1.238 . S
C1309 O1313 1.241 . S
C1310 O1303 1.247 . S
C1310 O1304 1.261 . S
C1311 O1306 1.259 . S
C1311 O1308 1.235 . S
O1312 Co1302 2.021 . S
O1312 C1309 1.238 . S
O1313 Co1307 2.052 . S
O1313 C1309 1.241 . S
O1314 Co1302 2.137 . S
O1314 C1305 1.247 . S
O1315 Co1302 2.244 . S
O1315 C1305 1.272 . S
O1315 Co1307 2.135 . S
Co1316 O1317 2.216 . S
Co1316 O1318 2.091 . S
Co1316 O1320 2.004 . S
Co1316 O1326 2.021 . S
Co1316 O1328 2.137 . S
Co1316 O1329 2.244 . S
O1317 Co1316 2.216 . S
O1317 C1324 1.247 . S
O1318 Co1316 2.091 . S
O1318 C1324 1.261 . S
C1319 O1328 1.247 . S
C1319 O1329 1.272 . S
O1320 Co1316 2.004 . S
O1320 C1325 1.259 . S
Co1321 O1322 2.061 . S
Co1321 O1327 2.052 . S
Co1321 O1329 2.135 . S
O1322 Co1321 2.061 . S
O1322 C1325 1.235 . S
C1323 O1326 1.238 . S
C1323 O1327 1.241 . S
C1324 O1317 1.247 . S
C1324 O1318 1.261 . S
C1325 O1320 1.259 . S
C1325 O1322 1.235 . S
O1326 Co1316 2.021 . S
O1326 C1323 1.238 . S
O1327 Co1321 2.052 . S
O1327 C1323 1.241 . S
O1328 Co1316 2.137 . S
O1328 C1319 1.247 . S
O1329 Co1316 2.244 . S
O1329 C1319 1.272 . S
O1329 Co1321 2.135 . S
Co1330 O1331 2.216 . S
Co1330 O1332 2.091 . S
Co1330 O1334 2.004 . S
Co1330 O1340 2.021 . S
Co1330 O1342 2.137 . S
Co1330 O1343 2.244 . S
O1331 Co1330 2.216 . S
O1331 C1338 1.247 . S
O1332 Co1330 2.091 . S
O1332 C1338 1.261 . S
C1333 O1342 1.247 . S
C1333 O1343 1.272 . S
O1334 Co1330 2.004 . S
O1334 C1339 1.259 . S
Co1335 O1336 2.061 . S
Co1335 O1341 2.052 . S
Co1335 O1343 2.135 . S
O1336 Co1335 2.061 . S
O1336 C1339 1.235 . S
C1337 O1340 1.238 . S
C1337 O1341 1.241 . S
C1338 O1331 1.247 . S
C1338 O1332 1.261 . S
C1339 O1334 1.259 . S
C1339 O1336 1.235 . S
O1340 Co1330 2.021 . S
O1340 C1337 1.238 . S
O1341 Co1335 2.052 . S
O1341 C1337 1.241 . S
O1342 Co1330 2.137 . S
O1342 C1333 1.247 . S
O1343 Co1330 2.244 . S
O1343 C1333 1.272 . S
O1343 Co1335 2.135 . S
C1344 C1345 1.387 . S
C1344 H1348 0.950 . S
C1344 C1353 1.390 . S
C1345 C1344 1.387 . S
C1345 C1347 1.387 . S
H1346 C1353 0.950 . S
C1347 C1345 1.387 . S
C1347 C1349 1.390 . S
C1347 H1351 0.950 . S
H1348 C1344 0.950 . S
C1349 C1347 1.390 . S
C1349 C1350 1.387 . S
C1349 H1352 0.950 . S
C1350 C1349 1.387 . S
C1350 C1353 1.387 . S
H1351 C1347 0.950 . S
H1352 C1349 0.950 . S
C1353 C1344 1.390 . S
C1353 H1346 0.950 . S
C1353 C1350 1.387 . S
C1354 C1355 1.387 . S
C1354 H1358 0.950 . S
C1354 C1363 1.390 . S
C1355 C1354 1.387 . S
C1355 C1357 1.387 . S
H1356 C1363 0.950 1_455 S
C1357 C1355 1.387 . S
C1357 C1359 1.390 . S
C1357 H1361 0.950 . S
H1358 C1354 0.950 . S
C1359 C1357 1.390 . S
C1359 C1360 1.387 1_655 S
C1359 H1362 0.948 1_655 S
C1360 C1359 1.387 1_455 S
C1360 C1363 1.387 1_455 S
H1361 C1357 0.950 . S
H1362 C1359 0.948 1_455 S
C1363 C1354 1.390 . S
C1363 H1356 0.950 1_655 S
C1363 C1360 1.387 1_655 S
C1364 C1365 1.387 . S
C1364 H1368 0.950 . S
C1364 C1373 1.390 . S
C1365 C1364 1.387 . S
C1365 C1367 1.387 . S
H1366 C1373 0.950 . S
C1367 C1365 1.387 . S
C1367 C1369 1.390 . S
C1367 H1371 0.950 . S
H1368 C1364 0.950 . S
C1369 C1367 1.390 . S
C1369 C1370 1.387 . S
C1369 H1372 0.950 . S
C1370 C1369 1.387 . S
C1370 C1373 1.387 . S
H1371 C1367 0.950 . S
H1372 C1369 0.950 . S
C1373 C1364 1.390 . S
C1373 H1366 0.950 . S
C1373 C1370 1.387 . S
C1374 C1375 1.387 . S
C1374 H1378 0.950 . S
C1374 C1383 1.390 . S
C1375 C1374 1.387 . S
C1375 C1377 1.387 . S
H1376 C1383 0.950 . S
C1377 C1375 1.387 . S
C1377 C1379 1.390 . S
C1377 H1381 0.950 . S
H1378 C1374 0.950 . S
C1379 C1377 1.390 . S
C1379 C1380 1.387 . S
C1379 H1382 0.950 . S
C1380 C1379 1.387 . S
C1380 C1383 1.387 . S
H1381 C1377 0.950 . S
H1382 C1379 0.950 . S
C1383 C1374 1.390 . S
C1383 H1376 0.950 . S
C1383 C1380 1.387 . S
C1384 C1385 1.387 . S
C1384 H1388 0.950 . S
C1384 C1393 1.390 . S
C1385 C1384 1.387 . S
C1385 C1387 1.387 . S
H1386 C1393 0.950 . S
C1387 C1385 1.387 . S
C1387 C1389 1.390 . S
C1387 H1391 0.950 . S
H1388 C1384 0.950 . S
C1389 C1387 1.390 . S
C1389 C1390 1.387 . S
C1389 H1392 0.950 . S
C1390 C1389 1.387 . S
C1390 C1393 1.387 . S
H1391 C1387 0.950 . S
H1392 C1389 0.950 . S
C1393 C1384 1.390 . S
C1393 H1386 0.950 . S
C1393 C1390 1.387 . S
C1394 C1395 1.387 . S
C1394 H1398 0.950 . S
C1394 C1403 1.390 . S
C1395 C1394 1.387 . S
C1395 C1397 1.387 . S
H1396 C1403 0.950 . S
C1397 C1395 1.387 . S
C1397 C1399 1.390 . S
C1397 H1401 0.950 . S
H1398 C1394 0.950 . S
C1399 C1397 1.390 . S
C1399 C1400 1.387 . S
C1399 H1402 0.950 . S
C1400 C1399 1.387 . S
C1400 C1403 1.387 . S
H1401 C1397 0.950 . S
H1402 C1399 0.950 . S
C1403 C1394 1.390 . S
C1403 H1396 0.950 . S
C1403 C1400 1.387 . S
C1404 C1405 1.387 . S
C1404 H1408 0.950 . S
C1404 C1413 1.390 . S
C1405 C1404 1.387 . S
C1405 C1407 1.387 . S
H1406 C1413 0.950 . S
C1407 C1405 1.387 . S
C1407 C1409 1.390 . S
C1407 H1411 0.950 . S
H1408 C1404 0.950 . S
C1409 C1407 1.390 . S
C1409 C1410 1.387 . S
C1409 H1412 0.950 . S
C1410 C1409 1.387 . S
C1410 C1413 1.387 . S
H1411 C1407 0.950 . S
H1412 C1409 0.950 . S
C1413 C1404 1.390 . S
C1413 H1406 0.950 . S
C1413 C1410 1.387 . S
C1414 C1415 1.387 . S
C1414 H1418 0.950 . S
C1414 C1423 1.390 . S
C1415 C1414 1.387 . S
C1415 C1417 1.387 . S
H1416 C1423 0.951 . S
C1417 C1415 1.387 . S
C1417 C1419 1.390 . S
C1417 H1421 0.950 . S
H1418 C1414 0.950 . S
C1419 C1417 1.390 . S
C1419 C1420 1.387 1_655 S
C1419 H1422 0.950 1_655 S
C1420 C1419 1.387 1_455 S
C1420 C1423 1.387 1_455 S
H1421 C1417 0.950 . S
H1422 C1419 0.950 1_455 S
C1423 C1414 1.390 . S
C1423 H1416 0.951 . S
C1423 C1420 1.387 1_655 S
C1424 C1425 1.387 . S
C1424 H1428 0.950 . S
C1424 C1433 1.390 . S
C1425 C1424 1.387 . S
C1425 C1427 1.387 . S
H1426 C1433 0.950 . S
C1427 C1425 1.387 . S
C1427 C1429 1.390 . S
C1427 H1431 0.950 . S
H1428 C1424 0.950 . S
C1429 C1427 1.390 . S
C1429 C1430 1.387 . S
C1429 H1432 0.950 . S
C1430 C1429 1.387 . S
C1430 C1433 1.387 . S
H1431 C1427 0.950 . S
H1432 C1429 0.950 . S
C1433 C1424 1.390 . S
C1433 H1426 0.950 . S
C1433 C1430 1.387 . S
C1434 C1435 1.387 . S
C1434 H1438 0.950 . S
C1434 C1443 1.390 . S
C1435 C1434 1.387 . S
C1435 C1437 1.387 . S
H1436 C1443 0.950 . S
C1437 C1435 1.387 . S
C1437 C1439 1.390 . S
C1437 H1441 0.950 . S
H1438 C1434 0.950 . S
C1439 C1437 1.390 . S
C1439 C1440 1.387 . S
C1439 H1442 0.950 . S
C1440 C1439 1.387 . S
C1440 C1443 1.387 . S
H1441 C1437 0.950 . S
H1442 C1439 0.950 . S
C1443 C1434 1.390 . S
C1443 H1436 0.950 . S
C1443 C1440 1.387 . S
C1444 C1445 1.387 . S
C1444 H1448 0.950 . S
C1444 C1453 1.390 . S
C1445 C1444 1.387 . S
C1445 C1447 1.387 . S
H1446 C1453 0.950 . S
C1447 C1445 1.387 . S
C1447 C1449 1.390 . S
C1447 H1451 0.950 . S
H1448 C1444 0.950 . S
C1449 C1447 1.390 . S
C1449 C1450 1.387 . S
C1449 H1452 0.950 . S
C1450 C1449 1.387 . S
C1450 C1453 1.387 . S
H1451 C1447 0.950 . S
H1452 C1449 0.950 . S
C1453 C1444 1.390 . S
C1453 H1446 0.950 . S
C1453 C1450 1.387 . S
C1454 C1455 1.387 . S
C1454 H1458 0.950 . S
C1454 C1463 1.390 1_556 S
C1455 C1454 1.387 . S
C1455 C1457 1.387 1_556 S
H1456 C1463 0.950 . S
C1457 C1455 1.387 1_554 S
C1457 C1459 1.390 . S
C1457 H1461 0.950 . S
H1458 C1454 0.950 . S
C1459 C1457 1.390 . S
C1459 C1460 1.387 . S
C1459 H1462 0.950 . S
C1460 C1459 1.387 . S
C1460 C1463 1.387 . S
H1461 C1457 0.950 . S
H1462 C1459 0.950 . S
C1463 C1454 1.390 1_554 S
C1463 H1456 0.950 . S
C1463 C1460 1.387 . S
C1464 C1465 1.387 . S
C1464 H1468 0.950 . S
C1464 C1473 1.390 . S
C1465 C1464 1.387 . S
C1465 C1467 1.387 . S
H1466 C1473 0.950 . S
C1467 C1465 1.387 . S
C1467 C1469 1.390 . S
C1467 H1471 0.950 . S
H1468 C1464 0.950 . S
C1469 C1467 1.390 . S
C1469 C1470 1.387 . S
C1469 H1472 0.950 . S
C1470 C1469 1.387 . S
C1470 C1473 1.387 . S
H1471 C1467 0.950 . S
H1472 C1469 0.950 . S
C1473 C1464 1.390 . S
C1473 H1466 0.950 . S
C1473 C1470 1.387 . S
C1474 C1475 1.387 . S
C1474 H1478 0.950 . S
C1474 C1483 1.390 . S
C1475 C1474 1.387 . S
C1475 C1477 1.387 . S
H1476 C1483 0.950 . S
C1477 C1475 1.387 . S
C1477 C1479 1.390 . S
C1477 H1481 0.950 . S
H1478 C1474 0.950 . S
C1479 C1477 1.390 . S
C1479 C1480 1.387 . S
C1479 H1482 0.950 . S
C1480 C1479 1.387 . S
C1480 C1483 1.387 . S
H1481 C1477 0.950 . S
H1482 C1479 0.950 . S
C1483 C1474 1.390 . S
C1483 H1476 0.950 . S
C1483 C1480 1.387 . S
C1484 C1485 1.387 . S
C1484 H1488 0.950 . S
C1484 C1493 1.390 . S
C1485 C1484 1.387 . S
C1485 C1487 1.387 . S
H1486 C1493 0.950 . S
C1487 C1485 1.387 . S
C1487 C1489 1.390 . S
C1487 H1491 0.950 . S
H1488 C1484 0.950 . S
C1489 C1487 1.390 . S
C1489 C1490 1.387 . S
C1489 H1492 0.950 . S
C1490 C1489 1.387 . S
C1490 C1493 1.387 . S
H1491 C1487 0.950 . S
H1492 C1489 0.950 . S
C1493 C1484 1.390 . S
C1493 H1486 0.950 . S
C1493 C1490 1.387 . S
C1494 C1495 1.387 . S
C1494 H1498 0.950 . S
C1494 C1503 1.390 . S
C1495 C1494 1.387 . S
C1495 C1497 1.387 . S
H1496 C1503 0.950 . S
C1497 C1495 1.387 . S
C1497 C1499 1.390 1_556 S
C1497 H1501 0.950 . S
H1498 C1494 0.950 . S
C1499 C1497 1.390 1_554 S
C1499 C1500 1.387 . S
C1499 H1502 0.950 . S
C1500 C1499 1.387 . S
C1500 C1503 1.387 1_554 S
H1501 C1497 0.950 . S
H1502 C1499 0.950 . S
C1503 C1494 1.390 . S
C1503 H1496 0.950 . S
C1503 C1500 1.387 1_556 S
C1504 C1505 1.387 . S
C1504 H1508 0.950 . S
C1504 C1513 1.390 . S
C1505 C1504 1.387 . S
C1505 C1507 1.387 . S
H1506 C1513 0.950 . S
C1507 C1505 1.387 . S
C1507 C1509 1.390 . S
C1507 H1511 0.950 . S
H1508 C1504 0.950 . S
C1509 C1507 1.390 . S
C1509 C1510 1.387 . S
C1509 H1512 0.950 . S
C1510 C1509 1.387 . S
C1510 C1513 1.387 . S
H1511 C1507 0.950 . S
H1512 C1509 0.950 . S
C1513 C1504 1.390 . S
C1513 H1506 0.950 . S
C1513 C1510 1.387 . S
C1514 C1515 1.387 . S
C1514 H1518 0.950 . S
C1514 C1523 1.390 . S
C1515 C1514 1.387 . S
C1515 C1517 1.387 . S
H1516 C1523 0.950 . S
C1517 C1515 1.387 . S
C1517 C1519 1.390 . S
C1517 H1521 0.950 . S
H1518 C1514 0.950 . S
C1519 C1517 1.390 . S
C1519 C1520 1.387 . S
C1519 H1522 0.950 . S
C1520 C1519 1.387 . S
C1520 C1523 1.387 . S
H1521 C1517 0.950 . S
H1522 C1519 0.950 . S
C1523 C1514 1.390 . S
C1523 H1516 0.950 . S
C1523 C1520 1.387 . S
C1524 C1525 1.387 . S
C1524 H1528 0.950 . S
C1524 C1533 1.390 . S
C1525 C1524 1.387 . S
C1525 C1527 1.387 . S
H1526 C1533 0.950 . S
C1527 C1525 1.387 . S
C1527 C1529 1.390 . S
C1527 H1531 0.950 . S
H1528 C1524 0.950 . S
C1529 C1527 1.390 . S
C1529 C1530 1.387 . S
C1529 H1532 0.950 . S
C1530 C1529 1.387 . S
C1530 C1533 1.387 . S
H1531 C1527 0.950 . S
H1532 C1529 0.950 . S
C1533 C1524 1.390 . S
C1533 H1526 0.950 . S
C1533 C1530 1.387 . S
C1534 C1535 1.387 . S
C1534 H1538 0.950 . S
C1534 C1543 1.390 . S
C1535 C1534 1.387 . S
C1535 C1537 1.387 . S
H1536 C1543 0.950 . S
C1537 C1535 1.387 . S
C1537 C1539 1.390 . S
C1537 H1541 0.950 . S
H1538 C1534 0.950 . S
C1539 C1537 1.390 . S
C1539 C1540 1.387 . S
C1539 H1542 0.950 . S
C1540 C1539 1.387 . S
C1540 C1543 1.387 . S
H1541 C1537 0.950 . S
H1542 C1539 0.950 . S
C1543 C1534 1.390 . S
C1543 H1536 0.950 . S
C1543 C1540 1.387 . S
C1544 C1545 1.387 . S
C1544 H1548 0.950 . S
C1544 C1553 1.390 . S
C1545 C1544 1.387 . S
C1545 C1547 1.387 . S
H1546 C1553 0.950 1_545 S
C1547 C1545 1.387 . S
C1547 C1549 1.390 . S
C1547 H1551 0.950 . S
H1548 C1544 0.950 . S
C1549 C1547 1.390 . S
C1549 C1550 1.387 1_565 S
C1549 H1552 0.950 . S
C1550 C1549 1.387 1_545 S
C1550 C1553 1.387 1_545 S
H1551 C1547 0.950 . S
H1552 C1549 0.950 . S
C1553 C1544 1.390 . S
C1553 H1546 0.950 1_565 S
C1553 C1550 1.387 1_565 S
C1554 C1555 1.387 . S
C1554 H1558 0.950 . S
C1554 C1563 1.390 . S
C1555 C1554 1.387 . S
C1555 C1557 1.387 . S
H1556 C1563 0.950 . S
C1557 C1555 1.387 . S
C1557 C1559 1.390 . S
C1557 H1561 0.950 . S
H1558 C1554 0.950 . S
C1559 C1557 1.390 . S
C1559 C1560 1.387 . S
C1559 H1562 0.950 . S
C1560 C1559 1.387 . S
C1560 C1563 1.387 . S
H1561 C1557 0.950 . S
H1562 C1559 0.950 . S
C1563 C1554 1.390 . S
C1563 H1556 0.950 . S
C1563 C1560 1.387 . S
C1564 C1565 1.387 . S
C1564 H1568 0.950 . S
C1564 C1573 1.390 . S
C1565 C1564 1.387 . S
C1565 C1567 1.387 . S
H1566 C1573 0.950 . S
C1567 C1565 1.387 . S
C1567 C1569 1.390 . S
C1567 H1571 0.950 . S
H1568 C1564 0.950 . S
C1569 C1567 1.390 . S
C1569 C1570 1.387 . S
C1569 H1572 0.950 . S
C1570 C1569 1.387 . S
C1570 C1573 1.387 . S
H1571 C1567 0.950 . S
H1572 C1569 0.950 . S
C1573 C1564 1.390 . S
C1573 H1566 0.950 . S
C1573 C1570 1.387 . S
C1574 C1575 1.387 . S
C1574 H1578 0.950 . S
C1574 C1583 1.390 . S
C1575 C1574 1.387 . S
C1575 C1577 1.387 . S
H1576 C1583 0.950 . S
C1577 C1575 1.387 . S
C1577 C1579 1.390 . S
C1577 H1581 0.950 . S
H1578 C1574 0.950 . S
C1579 C1577 1.390 . S
C1579 C1580 1.387 . S
C1579 H1582 0.950 . S
C1580 C1579 1.387 . S
C1580 C1583 1.387 . S
H1581 C1577 0.950 . S
H1582 C1579 0.950 . S
C1583 C1574 1.390 . S
C1583 H1576 0.950 . S
C1583 C1580 1.387 . S
C1584 C1585 1.387 . S
C1584 H1588 0.950 . S
C1584 C1593 1.390 . S
C1585 C1584 1.387 . S
C1585 C1587 1.387 . S
H1586 C1593 0.950 . S
C1587 C1585 1.387 . S
C1587 C1589 1.390 . S
C1587 H1591 0.950 . S
H1588 C1584 0.950 . S
C1589 C1587 1.390 . S
C1589 C1590 1.387 . S
C1589 H1592 0.950 . S
C1590 C1589 1.387 . S
C1590 C1593 1.387 . S
H1591 C1587 0.950 . S
H1592 C1589 0.950 . S
C1593 C1584 1.390 . S
C1593 H1586 0.950 . S
C1593 C1590 1.387 . S
C1594 C1595 1.387 1_455 S
C1594 H1598 0.950 1_455 S
C1594 C1603 1.390 . S
C1595 C1594 1.387 1_655 S
C1595 C1597 1.387 1_655 S
H1596 C1603 0.950 . S
C1597 C1595 1.387 1_455 S
C1597 C1599 1.390 . S
C1597 H1601 0.954 . S
H1598 C1594 0.950 1_655 S
C1599 C1597 1.390 . S
C1599 C1600 1.387 . S
C1599 H1602 0.950 . S
C1600 C1599 1.387 . S
C1600 C1603 1.387 . S
H1601 C1597 0.954 . S
H1602 C1599 0.950 . S
C1603 C1594 1.390 . S
C1603 H1596 0.950 . S
C1603 C1600 1.387 . S
C1604 C1605 1.387 . S
C1604 H1608 0.950 . S
C1604 C1613 1.390 . S
C1605 C1604 1.387 . S
C1605 C1607 1.387 . S
H1606 C1613 0.950 . S
C1607 C1605 1.387 . S
C1607 C1609 1.390 . S
C1607 H1611 0.950 . S
H1608 C1604 0.950 . S
C1609 C1607 1.390 . S
C1609 C1610 1.387 . S
C1609 H1612 0.950 . S
C1610 C1609 1.387 . S
C1610 C1613 1.387 . S
H1611 C1607 0.950 . S
H1612 C1609 0.950 . S
C1613 C1604 1.390 . S
C1613 H1606 0.950 . S
C1613 C1610 1.387 . S
C1614 C1615 1.387 . S
C1614 H1618 0.950 . S
C1614 C1623 1.390 . S
C1615 C1614 1.387 . S
C1615 C1617 1.387 . S
H1616 C1623 0.950 . S
C1617 C1615 1.387 . S
C1617 C1619 1.390 . S
C1617 H1621 0.950 . S
H1618 C1614 0.950 . S
C1619 C1617 1.390 . S
C1619 C1620 1.387 . S
C1619 H1622 0.950 . S
C1620 C1619 1.387 . S
C1620 C1623 1.387 . S
H1621 C1617 0.950 . S
H1622 C1619 0.950 . S
C1623 C1614 1.390 . S
C1623 H1616 0.950 . S
C1623 C1620 1.387 . S
C1624 C1625 1.387 . S
C1624 H1628 0.950 . S
C1624 C1633 1.390 . S
C1625 C1624 1.387 . S
C1625 C1627 1.387 . S
H1626 C1633 0.950 . S
C1627 C1625 1.387 . S
C1627 C1629 1.390 . S
C1627 H1631 0.950 . S
H1628 C1624 0.950 . S
C1629 C1627 1.390 . S
C1629 C1630 1.387 . S
C1629 H1632 0.950 . S
C1630 C1629 1.387 . S
C1630 C1633 1.387 . S
H1631 C1627 0.950 . S
H1632 C1629 0.950 . S
C1633 C1624 1.390 . S
C1633 H1626 0.950 . S
C1633 C1630 1.387 . S
C1634 C1635 1.387 . S
C1634 H1638 0.950 . S
C1634 C1643 1.390 . S
C1635 C1634 1.387 . S
C1635 C1637 1.387 . S
H1636 C1643 0.950 . S
C1637 C1635 1.387 . S
C1637 C1639 1.390 . S
C1637 H1641 0.950 . S
H1638 C1634 0.950 . S
C1639 C1637 1.390 . S
C1639 C1640 1.387 . S
C1639 H1642 0.950 . S
C1640 C1639 1.387 . S
C1640 C1643 1.387 . S
H1641 C1637 0.950 . S
H1642 C1639 0.950 . S
C1643 C1634 1.390 . S
C1643 H1636 0.950 . S
C1643 C1640 1.387 . S
C1644 C1645 1.387 . S
C1644 H1648 0.950 . S
C1644 C1653 1.390 . S
C1645 C1644 1.387 . S
C1645 C1647 1.387 . S
H1646 C1653 0.950 . S
C1647 C1645 1.387 . S
C1647 C1649 1.390 . S
C1647 H1651 0.950 . S
H1648 C1644 0.950 . S
C1649 C1647 1.390 . S
C1649 C1650 1.387 . S
C1649 H1652 0.950 . S
C1650 C1649 1.387 . S
C1650 C1653 1.387 . S
H1651 C1647 0.950 . S
H1652 C1649 0.950 . S
C1653 C1644 1.390 . S
C1653 H1646 0.950 . S
C1653 C1650 1.387 . S
C1654 C1655 1.387 . S
C1654 H1658 0.950 . S
C1654 C1663 1.390 . S
C1655 C1654 1.387 . S
C1655 C1657 1.387 . S
H1656 C1663 0.950 1_655 S
C1657 C1655 1.387 . S
C1657 C1659 1.390 . S
C1657 H1661 0.950 . S
H1658 C1654 0.950 . S
C1659 C1657 1.390 . S
C1659 C1660 1.387 1_455 S
C1659 H1662 0.950 1_455 S
C1660 C1659 1.387 1_655 S
C1660 C1663 1.387 1_655 S
H1661 C1657 0.950 . S
H1662 C1659 0.950 1_655 S
C1663 C1654 1.390 . S
C1663 H1656 0.950 1_455 S
C1663 C1660 1.387 1_455 S
C1664 C1665 1.387 . S
C1664 H1668 0.950 . S
C1664 C1673 1.390 . S
C1665 C1664 1.387 . S
C1665 C1667 1.387 . S
H1666 C1673 0.950 . S
C1667 C1665 1.387 . S
C1667 C1669 1.390 . S
C1667 H1671 0.950 . S
H1668 C1664 0.950 . S
C1669 C1667 1.390 . S
C1669 C1670 1.387 . S
C1669 H1672 0.950 . S
C1670 C1669 1.387 . S
C1670 C1673 1.387 . S
H1671 C1667 0.950 . S
H1672 C1669 0.950 . S
C1673 C1664 1.390 . S
C1673 H1666 0.950 . S
C1673 C1670 1.387 . S
C1674 C1675 1.387 . S
C1674 H1678 0.950 . S
C1674 C1683 1.390 . S
C1675 C1674 1.387 . S
C1675 C1677 1.387 . S
H1676 C1683 0.950 . S
C1677 C1675 1.387 . S
C1677 C1679 1.390 . S
C1677 H1681 0.950 . S
H1678 C1674 0.950 . S
C1679 C1677 1.390 . S
C1679 C1680 1.387 . S
C1679 H1682 0.950 . S
C1680 C1679 1.387 . S
C1680 C1683 1.387 . S
H1681 C1677 0.950 . S
H1682 C1679 0.950 . S
C1683 C1674 1.390 . S
C1683 H1676 0.950 . S
C1683 C1680 1.387 . S
C1684 C1685 1.387 . S
C1684 H1688 0.950 . S
C1684 C1693 1.390 . S
C1685 C1684 1.387 . S
C1685 C1687 1.387 . S
H1686 C1693 0.950 . S
C1687 C1685 1.387 . S
C1687 C1689 1.390 . S
C1687 H1691 0.950 . S
H1688 C1684 0.950 . S
C1689 C1687 1.390 . S
C1689 C1690 1.387 . S
C1689 H1692 0.950 . S
C1690 C1689 1.387 . S
C1690 C1693 1.387 . S
H1691 C1687 0.950 . S
H1692 C1689 0.950 . S
C1693 C1684 1.390 . S
C1693 H1686 0.950 . S
C1693 C1690 1.387 . S
C1694 C1695 1.387 1_556 S
C1694 H1698 0.950 . S
C1694 C1703 1.390 . S
C1695 C1694 1.387 1_554 S
C1695 C1697 1.387 . S
H1696 C1703 0.950 . S
C1697 C1695 1.387 . S
C1697 C1699 1.390 1_554 S
C1697 H1701 0.950 . S
H1698 C1694 0.950 . S
C1699 C1697 1.390 1_556 S
C1699 C1700 1.387 . S
C1699 H1702 0.950 . S
C1700 C1699 1.387 . S
C1700 C1703 1.387 . S
H1701 C1697 0.950 . S
H1702 C1699 0.950 . S
C1703 C1694 1.390 . S
C1703 H1696 0.950 . S
C1703 C1700 1.387 . S
C1704 C1705 1.387 . S
C1704 H1708 0.950 . S
C1704 C1713 1.390 . S
C1705 C1704 1.387 . S
C1705 C1707 1.387 . S
H1706 C1713 0.950 . S
C1707 C1705 1.387 . S
C1707 C1709 1.390 . S
C1707 H1711 0.950 . S
H1708 C1704 0.950 . S
C1709 C1707 1.390 . S
C1709 C1710 1.387 . S
C1709 H1712 0.950 . S
C1710 C1709 1.387 . S
C1710 C1713 1.387 . S
H1711 C1707 0.950 . S
H1712 C1709 0.950 . S
C1713 C1704 1.390 . S
C1713 H1706 0.950 . S
C1713 C1710 1.387 . S
C1714 C1715 1.387 . S
C1714 H1718 0.950 . S
C1714 C1723 1.390 . S
C1715 C1714 1.387 . S
C1715 C1717 1.387 . S
H1716 C1723 0.950 . S
C1717 C1715 1.387 . S
C1717 C1719 1.390 . S
C1717 H1721 0.950 . S
H1718 C1714 0.950 . S
C1719 C1717 1.390 . S
C1719 C1720 1.387 . S
C1719 H1722 0.950 . S
C1720 C1719 1.387 . S
C1720 C1723 1.387 . S
H1721 C1717 0.950 . S
H1722 C1719 0.950 . S
C1723 C1714 1.390 . S
C1723 H1716 0.950 . S
C1723 C1720 1.387 . S
C1724 C1725 1.387 . S
C1724 H1728 0.950 . S
C1724 C1733 1.390 . S
C1725 C1724 1.387 . S
C1725 C1727 1.387 . S
H1726 C1733 0.950 . S
C1727 C1725 1.387 . S
C1727 C1729 1.390 . S
C1727 H1731 0.950 . S
H1728 C1724 0.950 . S
C1729 C1727 1.390 . S
C1729 C1730 1.387 . S
C1729 H1732 0.950 . S
C1730 C1729 1.387 . S
C1730 C1733 1.387 . S
H1731 C1727 0.950 . S
H1732 C1729 0.950 . S
C1733 C1724 1.390 . S
C1733 H1726 0.950 . S
C1733 C1730 1.387 . S
C1734 C1735 1.389 . S
C1734 H1738 0.955 . S
C1734 C1743 1.383 1_556 S
C1735 C1734 1.389 . S
C1735 C1737 1.387 1_556 S
H1736 C1743 0.950 . S
C1737 C1735 1.387 1_554 S
C1737 C1739 1.390 . S
C1737 H1741 0.950 . S
H1738 C1734 0.955 . S
C1739 C1737 1.390 . S
C1739 C1740 1.387 . S
C1739 H1742 0.950 . S
C1740 C1739 1.387 . S
C1740 C1743 1.387 . S
H1741 C1737 0.950 . S
H1742 C1739 0.950 . S
C1743 C1734 1.383 1_554 S
C1743 H1736 0.950 . S
C1743 C1740 1.387 . S
C1744 C1745 1.387 . S
C1744 H1748 0.950 . S
C1744 C1753 1.390 . S
C1745 C1744 1.387 . S
C1745 C1747 1.387 . S
H1746 C1753 0.950 . S
C1747 C1745 1.387 . S
C1747 C1749 1.390 . S
C1747 H1751 0.950 . S
H1748 C1744 0.950 . S
C1749 C1747 1.390 . S
C1749 C1750 1.387 . S
C1749 H1752 0.950 . S
C1750 C1749 1.387 . S
C1750 C1753 1.387 . S
H1751 C1747 0.950 . S
H1752 C1749 0.950 . S
C1753 C1744 1.390 . S
C1753 H1746 0.950 . S
C1753 C1750 1.387 . S
C1754 C1755 1.387 . S
C1754 H1758 0.950 . S
C1754 C1763 1.390 . S
C1755 C1754 1.387 . S
C1755 C1757 1.387 . S
H1756 C1763 0.950 . S
C1757 C1755 1.387 . S
C1757 C1759 1.390 . S
C1757 H1761 0.950 . S
H1758 C1754 0.950 . S
C1759 C1757 1.390 . S
C1759 C1760 1.387 . S
C1759 H1762 0.950 . S
C1760 C1759 1.387 . S
C1760 C1763 1.387 . S
H1761 C1757 0.950 . S
H1762 C1759 0.950 . S
C1763 C1754 1.390 . S
C1763 H1756 0.950 . S
C1763 C1760 1.387 . S
C1764 C1765 1.387 . S
C1764 H1768 0.950 . S
C1764 C1773 1.390 . S
C1765 C1764 1.387 . S
C1765 C1767 1.387 . S
H1766 C1773 0.950 . S
C1767 C1765 1.387 . S
C1767 C1769 1.390 . S
C1767 H1771 0.950 . S
H1768 C1764 0.950 . S
C1769 C1767 1.390 . S
C1769 C1770 1.387 . S
C1769 H1772 0.950 . S
C1770 C1769 1.387 . S
C1770 C1773 1.387 . S
H1771 C1767 0.950 . S
H1772 C1769 0.950 . S
C1773 C1764 1.390 . S
C1773 H1766 0.950 . S
C1773 C1770 1.387 . S
C1774 C1775 1.387 . S
C1774 H1778 0.950 . S
C1774 C1783 1.390 . S
C1775 C1774 1.387 . S
C1775 C1777 1.387 . S
H1776 C1783 0.950 . S
C1777 C1775 1.387 . S
C1777 C1779 1.390 . S
C1777 H1781 0.950 . S
H1778 C1774 0.950 . S
C1779 C1777 1.390 . S
C1779 C1780 1.387 . S
C1779 H1782 0.950 . S
C1780 C1779 1.387 . S
C1780 C1783 1.387 . S
H1781 C1777 0.950 . S
H1782 C1779 0.950 . S
C1783 C1774 1.390 . S
C1783 H1776 0.950 . S
C1783 C1780 1.387 . S
C1784 C1785 1.387 . S
C1784 H1788 0.950 . S
C1784 C1793 1.402 . S
C1785 C1784 1.387 . S
C1785 C1787 1.387 . S
H1786 C1793 0.942 1_565 S
C1787 C1785 1.387 . S
C1787 C1789 1.390 . S
C1787 H1791 0.950 . S
H1788 C1784 0.950 . S
C1789 C1787 1.390 . S
C1789 C1790 1.387 1_545 S
C1789 H1792 0.950 . S
C1790 C1789 1.387 1_565 S
C1790 C1793 1.384 1_565 S
H1791 C1787 0.950 . S
H1792 C1789 0.950 . S
C1793 C1784 1.402 . S
C1793 H1786 0.942 1_545 S
C1793 C1790 1.384 1_545 S
C1794 C1795 1.387 . S
C1794 H1798 0.950 . S
C1794 C1803 1.390 . S
C1795 C1794 1.387 . S
C1795 C1797 1.387 . S
H1796 C1803 0.950 . S
C1797 C1795 1.387 . S
C1797 C1799 1.390 . S
C1797 H1801 0.950 . S
H1798 C1794 0.950 . S
C1799 C1797 1.390 . S
C1799 C1800 1.387 . S
C1799 H1802 0.950 . S
C1800 C1799 1.387 . S
C1800 C1803 1.387 . S
H1801 C1797 0.950 . S
H1802 C1799 0.950 . S
C1803 C1794 1.390 . S
C1803 H1796 0.950 . S
C1803 C1800 1.387 . S
C1804 C1805 1.387 . S
C1804 H1808 0.950 . S
C1804 C1813 1.390 . S
C1805 C1804 1.387 . S
C1805 C1807 1.387 . S
H1806 C1813 0.950 . S
C1807 C1805 1.387 . S
C1807 C1809 1.390 . S
C1807 H1811 0.950 . S
H1808 C1804 0.950 . S
C1809 C1807 1.390 . S
C1809 C1810 1.387 . S
C1809 H1812 0.950 . S
C1810 C1809 1.387 . S
C1810 C1813 1.387 . S
H1811 C1807 0.950 . S
H1812 C1809 0.950 . S
C1813 C1804 1.390 . S
C1813 H1806 0.950 . S
C1813 C1810 1.387 . S
C1814 C1815 1.387 . S
C1814 H1818 0.950 . S
C1814 C1823 1.390 . S
C1815 C1814 1.387 . S
C1815 C1817 1.387 . S
H1816 C1823 0.950 . S
C1817 C1815 1.387 . S
C1817 C1819 1.390 . S
C1817 H1821 0.950 . S
H1818 C1814 0.950 . S
C1819 C1817 1.390 . S
C1819 C1820 1.387 . S
C1819 H1822 0.950 . S
C1820 C1819 1.387 . S
C1820 C1823 1.387 . S
H1821 C1817 0.950 . S
H1822 C1819 0.950 . S
C1823 C1814 1.390 . S
C1823 H1816 0.950 . S
C1823 C1820 1.387 . S
C1824 C1825 1.387 . S
C1824 H1828 0.950 . S
C1824 C1833 1.390 . S
C1825 C1824 1.387 . S
C1825 C1827 1.387 . S
H1826 C1833 0.950 . S
C1827 C1825 1.387 . S
C1827 C1829 1.390 . S
C1827 H1831 0.950 . S
H1828 C1824 0.950 . S
C1829 C1827 1.390 . S
C1829 C1830 1.387 . S
C1829 H1832 0.950 . S
C1830 C1829 1.387 . S
C1830 C1833 1.387 . S
H1831 C1827 0.950 . S
H1832 C1829 0.950 . S
C1833 C1824 1.390 . S
C1833 H1826 0.950 . S
C1833 C1830 1.387 . S
C1834 C1835 1.387 . S
C1834 H1838 0.950 . S
C1834 C1843 1.390 . S
C1835 C1834 1.387 . S
C1835 C1837 1.387 . S
H1836 C1843 0.950 . S
C1837 C1835 1.387 . S
C1837 C1839 1.390 . S
C1837 H1841 0.950 . S
H1838 C1834 0.950 . S
C1839 C1837 1.390 . S
C1839 C1840 1.387 . S
C1839 H1842 0.950 . S
C1840 C1839 1.387 . S
C1840 C1843 1.387 . S
H1841 C1837 0.950 . S
H1842 C1839 0.950 . S
C1843 C1834 1.390 . S
C1843 H1836 0.950 . S
C1843 C1840 1.387 . S
C1844 C1845 1.387 . S
C1844 H1848 0.950 . S
C1844 C1853 1.390 . S
C1845 C1844 1.387 . S
C1845 C1847 1.387 . S
H1846 C1853 0.950 . S
C1847 C1845 1.387 . S
C1847 C1849 1.390 . S
C1847 H1851 0.950 . S
H1848 C1844 0.950 . S
C1849 C1847 1.390 . S
C1849 C1850 1.387 . S
C1849 H1852 0.950 . S
C1850 C1849 1.387 . S
C1850 C1853 1.387 . S
H1851 C1847 0.950 . S
H1852 C1849 0.950 . S
C1853 C1844 1.390 . S
C1853 H1846 0.950 . S
C1853 C1850 1.387 . S
C1854 C1855 1.387 . S
C1854 H1858 0.950 . S
C1854 C1863 1.390 . S
C1855 C1854 1.387 . S
C1855 C1857 1.387 . S
H1856 C1863 0.948 1_655 S
C1857 C1855 1.387 . S
C1857 C1859 1.390 . S
C1857 H1861 0.950 . S
H1858 C1854 0.950 . S
C1859 C1857 1.390 . S
C1859 C1860 1.387 1_455 S
C1859 H1862 0.950 1_455 S
C1860 C1859 1.387 1_655 S
C1860 C1863 1.387 1_655 S
H1861 C1857 0.950 . S
H1862 C1859 0.950 1_655 S
C1863 C1854 1.390 . S
C1863 H1856 0.948 1_455 S
C1863 C1860 1.387 1_455 S
C1864 C1865 1.387 . S
C1864 H1868 0.950 . S
C1864 C1873 1.390 . S
C1865 C1864 1.387 . S
C1865 C1867 1.387 . S
H1866 C1873 0.950 . S
C1867 C1865 1.387 . S
C1867 C1869 1.390 . S
C1867 H1871 0.950 . S
H1868 C1864 0.950 . S
C1869 C1867 1.390 . S
C1869 C1870 1.387 . S
C1869 H1872 0.950 . S
C1870 C1869 1.387 . S
C1870 C1873 1.387 . S
H1871 C1867 0.950 . S
H1872 C1869 0.950 . S
C1873 C1864 1.390 . S
C1873 H1866 0.950 . S
C1873 C1870 1.387 . S
C1874 C1875 1.387 1_455 S
C1874 H1878 0.950 . S
C1874 C1883 1.390 . S
C1875 C1874 1.387 1_655 S
C1875 C1877 1.387 . S
H1876 C1883 0.950 . S
C1877 C1875 1.387 . S
C1877 C1879 1.390 1_655 S
C1877 H1881 0.950 . S
H1878 C1874 0.950 . S
C1879 C1877 1.390 1_455 S
C1879 C1880 1.387 . S
C1879 H1882 0.950 . S
C1880 C1879 1.387 . S
C1880 C1883 1.387 . S
H1881 C1877 0.950 . S
H1882 C1879 0.950 . S
C1883 C1874 1.390 . S
C1883 H1876 0.950 . S
C1883 C1880 1.387 . S
C1884 C1885 1.387 . S
C1884 H1888 0.950 . S
C1884 C1893 1.390 . S
C1885 C1884 1.387 . S
C1885 C1887 1.387 . S
H1886 C1893 0.950 . S
C1887 C1885 1.387 . S
C1887 C1889 1.390 . S
C1887 H1891 0.950 . S
H1888 C1884 0.950 . S
C1889 C1887 1.390 . S
C1889 C1890 1.387 . S
C1889 H1892 0.950 . S
C1890 C1889 1.387 . S
C1890 C1893 1.387 . S
H1891 C1887 0.950 . S
H1892 C1889 0.950 . S
C1893 C1884 1.390 . S
C1893 H1886 0.950 . S
C1893 C1890 1.387 . S
C1894 C1895 1.387 . S
C1894 H1898 0.950 . S
C1894 C1903 1.390 . S
C1895 C1894 1.387 . S
C1895 C1897 1.387 . S
H1896 C1903 0.950 . S
C1897 C1895 1.387 . S
C1897 C1899 1.390 . S
C1897 H1901 0.950 . S
H1898 C1894 0.950 . S
C1899 C1897 1.390 . S
C1899 C1900 1.387 . S
C1899 H1902 0.950 . S
C1900 C1899 1.387 . S
C1900 C1903 1.387 . S
H1901 C1897 0.950 . S
H1902 C1899 0.950 . S
C1903 C1894 1.390 . S
C1903 H1896 0.950 . S
C1903 C1900 1.387 . S
C1904 C1905 1.387 . S
C1904 H1908 0.950 . S
C1904 C1913 1.390 . S
C1905 C1904 1.387 . S
C1905 C1907 1.387 . S
H1906 C1913 0.950 . S
C1907 C1905 1.387 . S
C1907 C1909 1.390 . S
C1907 H1911 0.950 . S
H1908 C1904 0.950 . S
C1909 C1907 1.390 . S
C1909 C1910 1.387 . S
C1909 H1912 0.950 . S
C1910 C1909 1.387 . S
C1910 C1913 1.387 . S
H1911 C1907 0.950 . S
H1912 C1909 0.950 . S
C1913 C1904 1.390 . S
C1913 H1906 0.950 . S
C1913 C1910 1.387 . S
C1914 C1915 1.387 1_554 S
C1914 H1918 0.950 . S
C1914 C1923 1.390 . S
C1915 C1914 1.387 1_556 S
C1915 C1917 1.387 . S
H1916 C1923 0.950 . S
C1917 C1915 1.387 . S
C1917 C1919 1.390 1_556 S
C1917 H1921 0.950 . S
H1918 C1914 0.950 . S
C1919 C1917 1.390 1_554 S
C1919 C1920 1.387 . S
C1919 H1922 0.950 . S
C1920 C1919 1.387 . S
C1920 C1923 1.387 . S
H1921 C1917 0.950 . S
H1922 C1919 0.950 . S
C1923 C1914 1.390 . S
C1923 H1916 0.950 . S
C1923 C1920 1.387 . S
C1924 C1925 1.387 . S
C1924 H1928 0.950 . S
C1924 C1933 1.390 . S
C1925 C1924 1.387 . S
C1925 C1927 1.387 . S
H1926 C1933 0.950 . S
C1927 C1925 1.387 . S
C1927 C1929 1.390 . S
C1927 H1931 0.950 . S
H1928 C1924 0.950 . S
C1929 C1927 1.390 . S
C1929 C1930 1.387 . S
C1929 H1932 0.950 . S
C1930 C1929 1.387 . S
C1930 C1933 1.387 . S
H1931 C1927 0.950 . S
H1932 C1929 0.950 . S
C1933 C1924 1.390 . S
C1933 H1926 0.950 . S
C1933 C1930 1.387 . S
C1934 C1935 1.387 . S
C1934 H1938 0.950 . S
C1934 C1943 1.390 . S
C1935 C1934 1.387 . S
C1935 C1937 1.387 . S
H1936 C1943 0.950 . S
C1937 C1935 1.387 . S
C1937 C1939 1.390 . S
C1937 H1941 0.950 . S
H1938 C1934 0.950 . S
C1939 C1937 1.390 . S
C1939 C1940 1.387 . S
C1939 H1942 0.950 . S
C1940 C1939 1.387 . S
C1940 C1943 1.387 . S
H1941 C1937 0.950 . S
H1942 C1939 0.950 . S
C1943 C1934 1.390 . S
C1943 H1936 0.950 . S
C1943 C1940 1.387 . S
C1944 C1945 1.387 . S
C1944 H1948 0.950 . S
C1944 C1953 1.390 . S
C1945 C1944 1.387 . S
C1945 C1947 1.387 . S
H1946 C1953 0.950 . S
C1947 C1945 1.387 . S
C1947 C1949 1.390 . S
C1947 H1951 0.950 . S
H1948 C1944 0.950 . S
C1949 C1947 1.390 . S
C1949 C1950 1.387 . S
C1949 H1952 0.950 . S
C1950 C1949 1.387 . S
C1950 C1953 1.387 . S
H1951 C1947 0.950 . S
H1952 C1949 0.950 . S
C1953 C1944 1.390 . S
C1953 H1946 0.950 . S
C1953 C1950 1.387 . S
C1954 C1955 1.387 . S
C1954 H1958 0.950 . S
C1954 C1963 1.390 . S
C1955 C1954 1.387 . S
C1955 C1957 1.387 1_554 S
H1956 C1963 0.950 . S
C1957 C1955 1.387 1_556 S
C1957 C1959 1.390 . S
C1957 H1961 0.950 . S
H1958 C1954 0.950 . S
C1959 C1957 1.390 . S
C1959 C1960 1.387 . S
C1959 H1962 0.950 . S
C1960 C1959 1.387 . S
C1960 C1963 1.387 1_556 S
H1961 C1957 0.950 . S
H1962 C1959 0.950 . S
C1963 C1954 1.390 . S
C1963 H1956 0.950 . S
C1963 C1960 1.387 1_554 S
C1964 C1965 1.387 . S
C1964 H1968 0.950 . S
C1964 C1973 1.390 . S
C1965 C1964 1.387 . S
C1965 C1967 1.387 . S
H1966 C1973 0.950 . S
C1967 C1965 1.387 . S
C1967 C1969 1.390 . S
C1967 H1971 0.950 . S
H1968 C1964 0.950 . S
C1969 C1967 1.390 . S
C1969 C1970 1.387 . S
C1969 H1972 0.950 . S
C1970 C1969 1.387 . S
C1970 C1973 1.387 . S
H1971 C1967 0.950 . S
H1972 C1969 0.950 . S
C1973 C1964 1.390 . S
C1973 H1966 0.950 . S
C1973 C1970 1.387 . S
C1974 C1975 1.387 . S
C1974 H1978 0.950 . S
C1974 C1983 1.390 . S
C1975 C1974 1.387 . S
C1975 C1977 1.387 . S
H1976 C1983 0.950 . S
C1977 C1975 1.387 . S
C1977 C1979 1.390 . S
C1977 H1981 0.950 . S
H1978 C1974 0.950 . S
C1979 C1977 1.390 . S
C1979 C1980 1.387 . S
C1979 H1982 0.950 . S
C1980 C1979 1.387 . S
C1980 C1983 1.387 . S
H1981 C1977 0.950 . S
H1982 C1979 0.950 . S
C1983 C1974 1.390 . S
C1983 H1976 0.950 . S
C1983 C1980 1.387 . S
C1984 C1985 1.387 . S
C1984 H1988 0.950 . S
C1984 C1993 1.390 . S
C1985 C1984 1.387 . S
C1985 C1987 1.387 . S
H1986 C1993 0.950 . S
C1987 C1985 1.387 . S
C1987 C1989 1.390 . S
C1987 H1991 0.950 . S
H1988 C1984 0.950 . S
C1989 C1987 1.390 . S
C1989 C1990 1.387 . S
C1989 H1992 0.950 . S
C1990 C1989 1.387 . S
C1990 C1993 1.387 . S
H1991 C1987 0.950 . S
H1992 C1989 0.950 . S
C1993 C1984 1.390 . S
C1993 H1986 0.950 . S
C1993 C1990 1.387 . S
C1994 C1995 1.387 . S
C1994 H1998 0.950 . S
C1994 C2003 1.390 . S
C1995 C1994 1.387 . S
C1995 C1997 1.387 . S
H1996 C2003 0.950 . S
C1997 C1995 1.387 . S
C1997 C1999 1.390 . S
C1997 H2001 0.950 . S
H1998 C1994 0.950 . S
C1999 C1997 1.390 . S
C1999 C2000 1.387 . S
C1999 H2002 0.950 . S
C2000 C1999 1.387 . S
C2000 C2003 1.387 . S
H2001 C1997 0.950 . S
H2002 C1999 0.950 . S
C2003 C1994 1.390 . S
C2003 H1996 0.950 . S
C2003 C2000 1.387 . S
C2004 C2005 1.387 . S
C2004 H2008 0.950 . S
C2004 C2013 1.391 . S
C2005 C2004 1.387 . S
C2005 C2007 1.387 . S
H2006 C2013 0.949 1_565 S
C2007 C2005 1.387 . S
C2007 C2009 1.390 . S
C2007 H2011 0.950 . S
H2008 C2004 0.950 . S
C2009 C2007 1.390 . S
C2009 C2010 1.387 1_545 S
C2009 H2012 0.950 . S
C2010 C2009 1.387 1_565 S
C2010 C2013 1.387 1_565 S
H2011 C2007 0.950 . S
H2012 C2009 0.950 . S
C2013 C2004 1.391 . S
C2013 H2006 0.949 1_545 S
C2013 C2010 1.387 1_545 S
C2014 C2015 1.387 . S
C2014 H2018 0.950 . S
C2014 C2023 1.390 . S
C2015 C2014 1.387 . S
C2015 C2017 1.387 . S
H2016 C2023 0.950 . S
C2017 C2015 1.387 . S
C2017 C2019 1.390 . S
C2017 H2021 0.950 . S
H2018 C2014 0.950 . S
C2019 C2017 1.390 . S
C2019 C2020 1.387 . S
C2019 H2022 0.950 . S
C2020 C2019 1.387 . S
C2020 C2023 1.387 . S
H2021 C2017 0.950 . S
H2022 C2019 0.950 . S
C2023 C2014 1.390 . S
C2023 H2016 0.950 . S
C2023 C2020 1.387 . S
C2024 C2025 1.387 . S
C2024 H2028 0.950 . S
C2024 C2033 1.390 . S
C2025 C2024 1.387 . S
C2025 C2027 1.387 . S
H2026 C2033 0.950 . S
C2027 C2025 1.387 . S
C2027 C2029 1.390 . S
C2027 H2031 0.950 . S
H2028 C2024 0.950 . S
C2029 C2027 1.390 . S
C2029 C2030 1.387 . S
C2029 H2032 0.950 . S
C2030 C2029 1.387 . S
C2030 C2033 1.387 . S
H2031 C2027 0.950 . S
H2032 C2029 0.950 . S
C2033 C2024 1.390 . S
C2033 H2026 0.950 . S
C2033 C2030 1.387 . S
C2034 C2035 1.387 . S
C2034 H2038 0.950 . S
C2034 C2043 1.390 . S
C2035 C2034 1.387 . S
C2035 C2037 1.387 . S
H2036 C2043 0.950 . S
C2037 C2035 1.387 . S
C2037 C2039 1.390 . S
C2037 H2041 0.950 . S
H2038 C2034 0.950 . S
C2039 C2037 1.390 . S
C2039 C2040 1.387 . S
C2039 H2042 0.950 . S
C2040 C2039 1.387 . S
C2040 C2043 1.387 . S
H2041 C2037 0.950 . S
H2042 C2039 0.950 . S
C2043 C2034 1.390 . S
C2043 H2036 0.950 . S
C2043 C2040 1.387 . S
C2044 C2045 1.387 1_565 S
C2044 H2048 0.953 . S
C2044 C2053 1.390 . S
C2045 C2044 1.387 1_545 S
C2045 C2047 1.387 1_545 S
H2046 C2053 0.950 . S
C2047 C2045 1.387 1_565 S
C2047 C2049 1.390 . S
C2047 H2051 0.950 1_565 S
H2048 C2044 0.953 . S
C2049 C2047 1.390 . S
C2049 C2050 1.387 . S
C2049 H2052 0.950 . S
C2050 C2049 1.387 . S
C2050 C2053 1.387 . S
H2051 C2047 0.950 1_545 S
H2052 C2049 0.950 . S
C2053 C2044 1.390 . S
C2053 H2046 0.950 . S
C2053 C2050 1.387 . S
C2054 C2055 1.387 1_545 S
C2054 H2058 0.958 . S
C2054 C2063 1.390 . S
C2055 C2054 1.387 1_565 S
C2055 C2057 1.387 1_565 S
H2056 C2063 0.950 . S
C2057 C2055 1.387 1_545 S
C2057 C2059 1.390 . S
C2057 H2061 0.950 1_545 S
H2058 C2054 0.958 . S
C2059 C2057 1.390 . S
C2059 C2060 1.387 . S
C2059 H2062 0.950 . S
C2060 C2059 1.387 . S
C2060 C2063 1.387 . S
H2061 C2057 0.950 1_565 S
H2062 C2059 0.950 . S
C2063 C2054 1.390 . S
C2063 H2056 0.950 . S
C2063 C2060 1.387 . S
C2064 C2065 1.387 . S
C2064 H2068 0.950 . S
C2064 C2073 1.390 . S
C2065 C2064 1.387 . S
C2065 C2067 1.387 . S
H2066 C2073 0.950 . S
C2067 C2065 1.387 . S
C2067 C2069 1.390 . S
C2067 H2071 0.950 . S
H2068 C2064 0.950 . S
C2069 C2067 1.390 . S
C2069 C2070 1.387 . S
C2069 H2072 0.950 . S
C2070 C2069 1.387 . S
C2070 C2073 1.387 . S
H2071 C2067 0.950 . S
H2072 C2069 0.950 . S
C2073 C2064 1.390 . S
C2073 H2066 0.950 . S
C2073 C2070 1.387 . S
C2074 C2075 1.387 . S
C2074 H2078 0.950 . S
C2074 C2083 1.390 . S
C2075 C2074 1.387 . S
C2075 C2077 1.387 . S
H2076 C2083 0.950 . S
C2077 C2075 1.387 . S
C2077 C2079 1.390 . S
C2077 H2081 0.950 . S
H2078 C2074 0.950 . S
C2079 C2077 1.390 . S
C2079 C2080 1.387 . S
C2079 H2082 0.950 . S
C2080 C2079 1.387 . S
C2080 C2083 1.387 . S
H2081 C2077 0.950 . S
H2082 C2079 0.950 . S
C2083 C2074 1.390 . S
C2083 H2076 0.950 . S
C2083 C2080 1.387 . S
C2084 C2085 1.387 . S
C2084 H2088 0.950 . S
C2084 C2093 1.390 . S
C2085 C2084 1.387 . S
C2085 C2087 1.387 . S
H2086 C2093 0.950 . S
C2087 C2085 1.387 . S
C2087 C2089 1.390 . S
C2087 H2091 0.950 . S
H2088 C2084 0.950 . S
C2089 C2087 1.390 . S
C2089 C2090 1.387 . S
C2089 H2092 0.950 . S
C2090 C2089 1.387 . S
C2090 C2093 1.387 . S
H2091 C2087 0.950 . S
H2092 C2089 0.950 . S
C2093 C2084 1.390 . S
C2093 H2086 0.950 . S
C2093 C2090 1.387 . S
C2094 C2095 1.387 1_655 S
C2094 H2098 0.950 . S
C2094 C2103 1.390 . S
C2095 C2094 1.387 1_455 S
C2095 C2097 1.391 . S
H2096 C2103 0.950 . S
C2097 C2095 1.391 . S
C2097 C2099 1.374 1_455 S
C2097 H2101 0.964 . S
H2098 C2094 0.950 . S
C2099 C2097 1.374 1_655 S
C2099 C2100 1.387 . S
C2099 H2102 0.950 . S
C2100 C2099 1.387 . S
C2100 C2103 1.387 . S
H2101 C2097 0.964 . S
H2102 C2099 0.950 . S
C2103 C2094 1.390 . S
C2103 H2096 0.950 . S
C2103 C2100 1.387 . S
C2104 C2105 1.387 . S
C2104 H2108 0.950 . S
C2104 C2113 1.390 . S
C2105 C2104 1.387 . S
C2105 C2107 1.387 . S
H2106 C2113 0.950 . S
C2107 C2105 1.387 . S
C2107 C2109 1.390 . S
C2107 H2111 0.950 . S
H2108 C2104 0.950 . S
C2109 C2107 1.390 . S
C2109 C2110 1.387 . S
C2109 H2112 0.950 . S
C2110 C2109 1.387 . S
C2110 C2113 1.387 . S
H2111 C2107 0.950 . S
H2112 C2109 0.950 . S
C2113 C2104 1.390 . S
C2113 H2106 0.950 . S
C2113 C2110 1.387 . S
C2114 C2115 1.387 . S
C2114 H2118 0.950 . S
C2114 C2123 1.390 . S
C2115 C2114 1.387 . S
C2115 C2117 1.387 . S
H2116 C2123 0.945 1_455 S
C2117 C2115 1.387 . S
C2117 C2119 1.390 . S
C2117 H2121 0.950 . S
H2118 C2114 0.950 . S
C2119 C2117 1.390 . S
C2119 C2120 1.387 1_655 S
C2119 H2122 0.950 1_655 S
C2120 C2119 1.387 1_455 S
C2120 C2123 1.387 1_455 S
H2121 C2117 0.950 . S
H2122 C2119 0.950 1_455 S
C2123 C2114 1.390 . S
C2123 H2116 0.945 1_655 S
C2123 C2120 1.387 1_655 S
C2124 C2125 1.387 . S
C2124 H2128 0.950 . S
C2124 C2133 1.390 . S
C2125 C2124 1.387 . S
C2125 C2127 1.387 . S
H2126 C2133 0.950 . S
C2127 C2125 1.387 . S
C2127 C2129 1.390 . S
C2127 H2131 0.950 . S
H2128 C2124 0.950 . S
C2129 C2127 1.390 . S
C2129 C2130 1.387 . S
C2129 H2132 0.950 . S
C2130 C2129 1.387 . S
C2130 C2133 1.387 . S
H2131 C2127 0.950 . S
H2132 C2129 0.950 . S
C2133 C2124 1.390 . S
C2133 H2126 0.950 . S
C2133 C2130 1.387 . S
C2134 C2135 1.387 . S
C2134 H2138 0.950 . S
C2134 C2143 1.390 . S
C2135 C2134 1.387 . S
C2135 C2137 1.387 . S
H2136 C2143 0.950 . S
C2137 C2135 1.387 . S
C2137 C2139 1.390 . S
C2137 H2141 0.950 . S
H2138 C2134 0.950 . S
C2139 C2137 1.390 . S
C2139 C2140 1.387 . S
C2139 H2142 0.950 . S
C2140 C2139 1.387 . S
C2140 C2143 1.387 . S
H2141 C2137 0.950 . S
H2142 C2139 0.950 . S
C2143 C2134 1.390 . S
C2143 H2136 0.950 . S
C2143 C2140 1.387 . S
C2144 C2145 1.387 . S
C2144 H2148 0.950 . S
C2144 C2153 1.390 . S
C2145 C2144 1.387 . S
C2145 C2147 1.387 . S
H2146 C2153 0.950 . S
C2147 C2145 1.387 . S
C2147 C2149 1.390 . S
C2147 H2151 0.950 . S
H2148 C2144 0.950 . S
C2149 C2147 1.390 . S
C2149 C2150 1.387 . S
C2149 H2152 0.950 . S
C2150 C2149 1.387 . S
C2150 C2153 1.387 . S
H2151 C2147 0.950 . S
H2152 C2149 0.950 . S
C2153 C2144 1.390 . S
C2153 H2146 0.950 . S
C2153 C2150 1.387 . S
C2154 C2155 1.387 1_556 S
C2154 H2158 0.950 . S
C2154 C2163 1.390 . S
C2155 C2154 1.387 1_554 S
C2155 C2157 1.384 1_554 S
H2156 C2163 0.950 . S
C2157 C2155 1.384 1_556 S
C2157 C2159 1.400 . S
C2157 H2161 0.943 1_556 S
H2158 C2154 0.950 . S
C2159 C2157 1.400 . S
C2159 C2160 1.387 . S
C2159 H2162 0.950 . S
C2160 C2159 1.387 . S
C2160 C2163 1.387 . S
H2161 C2157 0.943 1_554 S
H2162 C2159 0.950 . S
C2163 C2154 1.390 . S
C2163 H2156 0.950 . S
C2163 C2160 1.387 . S
C2164 C2165 1.387 . S
C2164 H2168 0.950 . S
C2164 C2173 1.390 . S
C2165 C2164 1.387 . S
C2165 C2167 1.387 . S
H2166 C2173 0.950 . S
C2167 C2165 1.387 . S
C2167 C2169 1.390 . S
C2167 H2171 0.950 . S
H2168 C2164 0.950 . S
C2169 C2167 1.390 . S
C2169 C2170 1.387 . S
C2169 H2172 0.950 . S
C2170 C2169 1.387 . S
C2170 C2173 1.387 . S
H2171 C2167 0.950 . S
H2172 C2169 0.950 . S
C2173 C2164 1.390 . S
C2173 H2166 0.950 . S
C2173 C2170 1.387 . S
C2174 C2175 1.387 . S
C2174 H2178 0.950 . S
C2174 C2183 1.390 . S
C2175 C2174 1.387 . S
C2175 C2177 1.387 . S
H2176 C2183 0.950 . S
C2177 C2175 1.387 . S
C2177 C2179 1.390 . S
C2177 H2181 0.950 . S
H2178 C2174 0.950 . S
C2179 C2177 1.390 . S
C2179 C2180 1.387 . S
C2179 H2182 0.950 . S
C2180 C2179 1.387 . S
C2180 C2183 1.387 . S
H2181 C2177 0.950 . S
H2182 C2179 0.950 . S
C2183 C2174 1.390 . S
C2183 H2176 0.950 . S
C2183 C2180 1.387 . S
C2184 C2185 1.387 . S
C2184 H2188 0.950 . S
C2184 C2193 1.390 . S
C2185 C2184 1.387 . S
C2185 C2187 1.387 . S
H2186 C2193 0.950 . S
C2187 C2185 1.387 . S
C2187 C2189 1.390 . S
C2187 H2191 0.950 . S
H2188 C2184 0.950 . S
C2189 C2187 1.390 . S
C2189 C2190 1.387 . S
C2189 H2192 0.950 . S
C2190 C2189 1.387 . S
C2190 C2193 1.387 . S
H2191 C2187 0.950 . S
H2192 C2189 0.950 . S
C2193 C2184 1.390 . S
C2193 H2186 0.950 . S
C2193 C2190 1.387 . S
C2194 C2195 1.387 . S
C2194 H2198 0.950 . S
C2194 C2203 1.390 . S
C2195 C2194 1.387 . S
C2195 C2197 1.387 . S
H2196 C2203 0.956 . S
C2197 C2195 1.387 . S
C2197 C2199 1.390 . S
C2197 H2201 0.950 . S
H2198 C2194 0.950 . S
C2199 C2197 1.390 . S
C2199 C2200 1.387 1_554 S
C2199 H2202 0.950 1_554 S
C2200 C2199 1.387 1_556 S
C2200 C2203 1.387 1_556 S
H2201 C2197 0.950 . S
H2202 C2199 0.950 1_556 S
C2203 C2194 1.390 . S
C2203 H2196 0.956 . S
C2203 C2200 1.387 1_554 S
C2204 C2205 1.387 . S
C2204 H2208 0.950 . S
C2204 C2213 1.390 . S
C2205 C2204 1.387 . S
C2205 C2207 1.387 . S
H2206 C2213 0.950 . S
C2207 C2205 1.387 . S
C2207 C2209 1.390 . S
C2207 H2211 0.950 . S
H2208 C2204 0.950 . S
C2209 C2207 1.390 . S
C2209 C2210 1.387 . S
C2209 H2212 0.950 . S
C2210 C2209 1.387 . S
C2210 C2213 1.387 . S
H2211 C2207 0.950 . S
H2212 C2209 0.950 . S
C2213 C2204 1.390 . S
C2213 H2206 0.950 . S
C2213 C2210 1.387 . S
C2214 C2215 1.387 . S
C2214 H2218 0.950 . S
C2214 C2223 1.390 . S
C2215 C2214 1.387 . S
C2215 C2217 1.387 . S
H2216 C2223 0.950 . S
C2217 C2215 1.387 . S
C2217 C2219 1.390 . S
C2217 H2221 0.950 . S
H2218 C2214 0.950 . S
C2219 C2217 1.390 . S
C2219 C2220 1.387 . S
C2219 H2222 0.950 . S
C2220 C2219 1.387 . S
C2220 C2223 1.387 . S
H2221 C2217 0.950 . S
H2222 C2219 0.950 . S
C2223 C2214 1.390 . S
C2223 H2216 0.950 . S
C2223 C2220 1.387 . S
C2224 C2225 1.387 . S
C2224 H2228 0.950 . S
C2224 C2233 1.390 . S
C2225 C2224 1.387 . S
C2225 C2227 1.387 . S
H2226 C2233 0.950 . S
C2227 C2225 1.387 . S
C2227 C2229 1.390 . S
C2227 H2231 0.950 . S
H2228 C2224 0.950 . S
C2229 C2227 1.390 . S
C2229 C2230 1.387 . S
C2229 H2232 0.950 . S
C2230 C2229 1.387 . S
C2230 C2233 1.387 . S
H2231 C2227 0.950 . S
H2232 C2229 0.950 . S
C2233 C2224 1.390 . S
C2233 H2226 0.950 . S
C2233 C2230 1.387 . S
C2234 C2235 1.387 . S
C2234 H2238 0.950 . S
C2234 C2243 1.390 . S
C2235 C2234 1.387 . S
C2235 C2237 1.387 . S
H2236 C2243 0.950 . S
C2237 C2235 1.387 . S
C2237 C2239 1.390 . S
C2237 H2241 0.950 . S
H2238 C2234 0.950 . S
C2239 C2237 1.390 . S
C2239 C2240 1.387 . S
C2239 H2242 0.950 . S
C2240 C2239 1.387 . S
C2240 C2243 1.387 . S
H2241 C2237 0.950 . S
H2242 C2239 0.950 . S
C2243 C2234 1.390 . S
C2243 H2236 0.950 . S
C2243 C2240 1.387 . S
C2244 C2245 1.387 . S
C2244 H2248 0.950 . S
C2244 C2253 1.390 . S
C2245 C2244 1.387 . S
C2245 C2247 1.387 . S
H2246 C2253 0.950 . S
C2247 C2245 1.387 . S
C2247 C2249 1.390 1_565 S
C2247 H2251 0.950 . S
H2248 C2244 0.950 . S
C2249 C2247 1.390 1_545 S
C2249 C2250 1.387 . S
C2249 H2252 0.950 . S
C2250 C2249 1.387 . S
C2250 C2253 1.387 1_545 S
H2251 C2247 0.950 . S
H2252 C2249 0.950 . S
C2253 C2244 1.390 . S
C2253 H2246 0.950 . S
C2253 C2250 1.387 1_565 S
C2254 C2255 1.387 . S
C2254 H2258 0.950 . S
C2254 C2263 1.390 . S
C2255 C2254 1.387 . S
C2255 C2257 1.387 . S
H2256 C2263 0.950 . S
C2257 C2255 1.387 . S
C2257 C2259 1.390 . S
C2257 H2261 0.950 . S
H2258 C2254 0.950 . S
C2259 C2257 1.390 . S
C2259 C2260 1.387 . S
C2259 H2262 0.950 . S
C2260 C2259 1.387 . S
C2260 C2263 1.387 . S
H2261 C2257 0.950 . S
H2262 C2259 0.950 . S
C2263 C2254 1.390 . S
C2263 H2256 0.950 . S
C2263 C2260 1.387 . S
C2264 C2265 1.387 . S
C2264 H2268 0.950 . S
C2264 C2273 1.390 . S
C2265 C2264 1.387 . S
C2265 C2267 1.387 . S
H2266 C2273 0.950 . S
C2267 C2265 1.387 . S
C2267 C2269 1.390 . S
C2267 H2271 0.950 . S
H2268 C2264 0.950 . S
C2269 C2267 1.390 . S
C2269 C2270 1.387 . S
C2269 H2272 0.950 . S
C2270 C2269 1.387 . S
C2270 C2273 1.387 . S
H2271 C2267 0.950 . S
H2272 C2269 0.950 . S
C2273 C2264 1.390 . S
C2273 H2266 0.950 . S
C2273 C2270 1.387 . S
C2274 C2275 1.387 . S
C2274 H2278 0.950 . S
C2274 C2283 1.390 . S
C2275 C2274 1.387 . S
C2275 C2277 1.387 . S
H2276 C2283 0.950 . S
C2277 C2275 1.387 . S
C2277 C2279 1.390 . S
C2277 H2281 0.950 . S
H2278 C2274 0.950 . S
C2279 C2277 1.390 . S
C2279 C2280 1.387 . S
C2279 H2282 0.950 . S
C2280 C2279 1.387 . S
C2280 C2283 1.387 . S
H2281 C2277 0.950 . S
H2282 C2279 0.950 . S
C2283 C2274 1.390 . S
C2283 H2276 0.950 . S
C2283 C2280 1.387 . S
C2284 C2285 1.387 . S
C2284 H2288 0.950 . S
C2284 C2293 1.405 . S
C2285 C2284 1.387 . S
C2285 C2287 1.387 . S
H2286 C2293 0.941 1_565 S
C2287 C2285 1.387 . S
C2287 C2289 1.390 . S
C2287 H2291 0.950 . S
H2288 C2284 0.950 . S
C2289 C2287 1.390 . S
C2289 C2290 1.387 1_545 S
C2289 H2292 0.950 . S
C2290 C2289 1.387 1_565 S
C2290 C2293 1.383 1_565 S
H2291 C2287 0.950 . S
H2292 C2289 0.950 . S
C2293 C2284 1.405 . S
C2293 H2286 0.941 1_545 S
C2293 C2290 1.383 1_545 S
C2294 C2295 1.387 . S
C2294 H2298 0.950 . S
C2294 C2303 1.390 . S
C2295 C2294 1.387 . S
C2295 C2297 1.387 . S
H2296 C2303 0.956 . S
C2297 C2295 1.387 . S
C2297 C2299 1.390 . S
C2297 H2301 0.950 . S
H2298 C2294 0.950 . S
C2299 C2297 1.390 . S
C2299 C2300 1.387 1_565 S
C2299 H2302 0.950 1_565 S
C2300 C2299 1.387 1_545 S
C2300 C2303 1.387 1_545 S
H2301 C2297 0.950 . S
H2302 C2299 0.950 1_545 S
C2303 C2294 1.390 . S
C2303 H2296 0.956 . S
C2303 C2300 1.387 1_565 S
C2304 C2305 1.387 . S
C2304 H2308 0.950 . S
C2304 C2313 1.390 1_655 S
C2305 C2304 1.387 . S
C2305 C2307 1.387 . S
H2306 C2313 0.950 . S
C2307 C2305 1.387 . S
C2307 C2309 1.390 1_655 S
C2307 H2311 0.950 . S
H2308 C2304 0.950 . S
C2309 C2307 1.390 1_455 S
C2309 C2310 1.387 . S
C2309 H2312 0.950 . S
C2310 C2309 1.387 . S
C2310 C2313 1.387 . S
H2311 C2307 0.950 . S
H2312 C2309 0.950 . S
C2313 C2304 1.390 1_455 S
C2313 H2306 0.950 . S
C2313 C2310 1.387 . S
C2314 C2315 1.387 . S
C2314 H2318 0.950 . S
C2314 C2323 1.390 1_455 S
C2315 C2314 1.387 . S
C2315 C2317 1.387 . S
H2316 C2323 0.950 . S
C2317 C2315 1.387 . S
C2317 C2319 1.390 1_455 S
C2317 H2321 0.950 . S
H2318 C2314 0.950 . S
C2319 C2317 1.390 1_655 S
C2319 C2320 1.387 . S
C2319 H2322 0.950 . S
C2320 C2319 1.387 . S
C2320 C2323 1.387 . S
H2321 C2317 0.950 . S
H2322 C2319 0.950 . S
C2323 C2314 1.390 1_655 S
C2323 H2316 0.950 . S
C2323 C2320 1.387 . S
C2324 C2325 1.387 . S
C2324 H2328 0.950 . S
C2324 C2333 1.390 . S
C2325 C2324 1.387 . S
C2325 C2327 1.387 . S
H2326 C2333 0.950 . S
C2327 C2325 1.387 . S
C2327 C2329 1.390 . S
C2327 H2331 0.950 . S
H2328 C2324 0.950 . S
C2329 C2327 1.390 . S
C2329 C2330 1.387 . S
C2329 H2332 0.950 . S
C2330 C2329 1.387 . S
C2330 C2333 1.387 . S
H2331 C2327 0.950 . S
H2332 C2329 0.950 . S
C2333 C2324 1.390 . S
C2333 H2326 0.950 . S
C2333 C2330 1.387 . S
C2334 C2335 1.387 . S
C2334 H2338 0.950 . S
C2334 C2343 1.390 . S
C2335 C2334 1.387 . S
C2335 C2337 1.387 . S
H2336 C2343 0.950 . S
C2337 C2335 1.387 . S
C2337 C2339 1.390 . S
C2337 H2341 0.950 . S
H2338 C2334 0.950 . S
C2339 C2337 1.390 . S
C2339 C2340 1.387 . S
C2339 H2342 0.950 . S
C2340 C2339 1.387 . S
C2340 C2343 1.387 . S
H2341 C2337 0.950 . S
H2342 C2339 0.950 . S
C2343 C2334 1.390 . S
C2343 H2336 0.950 . S
C2343 C2340 1.387 . S
C2344 C2345 1.387 . S
C2344 H2348 0.950 . S
C2344 C2353 1.390 1_455 S
C2345 C2344 1.387 . S
C2345 C2347 1.387 . S
H2346 C2353 0.950 . S
C2347 C2345 1.387 . S
C2347 C2349 1.390 1_455 S
C2347 H2351 0.950 . S
H2348 C2344 0.950 . S
C2349 C2347 1.390 1_655 S
C2349 C2350 1.387 . S
C2349 H2352 0.950 . S
C2350 C2349 1.387 . S
C2350 C2353 1.387 . S
H2351 C2347 0.950 . S
H2352 C2349 0.950 . S
C2353 C2344 1.390 1_655 S
C2353 H2346 0.950 . S
C2353 C2350 1.387 . S
C2354 C2355 1.387 . S
C2354 H2358 0.950 . S
C2354 C2363 1.390 . S
C2355 C2354 1.387 . S
C2355 C2357 1.387 . S
H2356 C2363 0.950 . S
C2357 C2355 1.387 . S
C2357 C2359 1.390 . S
C2357 H2361 0.950 . S
H2358 C2354 0.950 . S
C2359 C2357 1.390 . S
C2359 C2360 1.387 . S
C2359 H2362 0.950 . S
C2360 C2359 1.387 . S
C2360 C2363 1.387 . S
H2361 C2357 0.950 . S
H2362 C2359 0.950 . S
C2363 C2354 1.390 . S
C2363 H2356 0.950 . S
C2363 C2360 1.387 . S
C2364 C2365 1.387 . S
C2364 H2368 0.950 . S
C2364 C2373 1.390 . S
C2365 C2364 1.387 . S
C2365 C2367 1.387 . S
H2366 C2373 0.950 . S
C2367 C2365 1.387 . S
C2367 C2369 1.390 . S
C2367 H2371 0.950 . S
H2368 C2364 0.950 . S
C2369 C2367 1.390 . S
C2369 C2370 1.387 . S
C2369 H2372 0.950 . S
C2370 C2369 1.387 . S
C2370 C2373 1.387 . S
H2371 C2367 0.950 . S
H2372 C2369 0.950 . S
C2373 C2364 1.390 . S
C2373 H2366 0.950 . S
C2373 C2370 1.387 . S
C2374 C2375 1.387 . S
C2374 H2378 0.950 . S
C2374 C2383 1.390 1_455 S
C2375 C2374 1.387 . S
C2375 C2377 1.387 . S
H2376 C2383 0.950 . S
C2377 C2375 1.387 . S
C2377 C2379 1.390 1_455 S
C2377 H2381 0.950 . S
H2378 C2374 0.950 . S
C2379 C2377 1.390 1_655 S
C2379 C2380 1.387 . S
C2379 H2382 0.950 . S
C2380 C2379 1.387 . S
C2380 C2383 1.387 . S
H2381 C2377 0.950 . S
H2382 C2379 0.950 . S
C2383 C2374 1.390 1_655 S
C2383 H2376 0.950 . S
C2383 C2380 1.387 . S
C2384 C2385 1.387 . S
C2384 H2388 0.950 . S
C2384 C2393 1.390 1_545 S
C2385 C2384 1.387 . S
C2385 C2387 1.387 . S
H2386 C2393 0.950 . S
C2387 C2385 1.387 . S
C2387 C2389 1.390 1_545 S
C2387 H2391 0.950 . S
H2388 C2384 0.950 . S
C2389 C2387 1.390 1_565 S
C2389 C2390 1.387 . S
C2389 H2392 0.950 . S
C2390 C2389 1.387 . S
C2390 C2393 1.387 . S
H2391 C2387 0.950 . S
H2392 C2389 0.950 . S
C2393 C2384 1.390 1_565 S
C2393 H2386 0.950 . S
C2393 C2390 1.387 . S
C2394 C2395 1.387 . S
C2394 H2398 0.950 . S
C2394 C2403 1.390 . S
C2395 C2394 1.387 . S
C2395 C2397 1.387 . S
H2396 C2403 0.950 . S
C2397 C2395 1.387 . S
C2397 C2399 1.390 . S
C2397 H2401 0.950 . S
H2398 C2394 0.950 . S
C2399 C2397 1.390 . S
C2399 C2400 1.387 . S
C2399 H2402 0.950 . S
C2400 C2399 1.387 . S
C2400 C2403 1.387 . S
H2401 C2397 0.950 . S
H2402 C2399 0.950 . S
C2403 C2394 1.390 . S
C2403 H2396 0.950 . S
C2403 C2400 1.387 . S
C2404 C2405 1.387 . S
C2404 H2408 0.950 . S
C2404 C2413 1.390 1_565 S
C2405 C2404 1.387 . S
C2405 C2407 1.387 . S
H2406 C2413 0.950 . S
C2407 C2405 1.387 . S
C2407 C2409 1.390 1_565 S
C2407 H2411 0.950 . S
H2408 C2404 0.950 . S
C2409 C2407 1.390 1_545 S
C2409 C2410 1.387 . S
C2409 H2412 0.950 . S
C2410 C2409 1.387 . S
C2410 C2413 1.387 . S
H2411 C2407 0.950 . S
H2412 C2409 0.950 . S
C2413 C2404 1.390 1_545 S
C2413 H2406 0.950 . S
C2413 C2410 1.387 . S
C2414 C2415 1.387 . S
C2414 H2418 0.950 . S
C2414 C2423 1.390 1_556 S
C2415 C2414 1.387 . S
C2415 C2417 1.387 . S
H2416 C2423 0.950 . S
C2417 C2415 1.387 . S
C2417 C2419 1.390 1_556 S
C2417 H2421 0.950 . S
H2418 C2414 0.950 . S
C2419 C2417 1.390 1_554 S
C2419 C2420 1.387 . S
C2419 H2422 0.950 . S
C2420 C2419 1.387 . S
C2420 C2423 1.387 . S
H2421 C2417 0.950 . S
H2422 C2419 0.950 . S
C2423 C2414 1.390 1_554 S
C2423 H2416 0.950 . S
C2423 C2420 1.387 . S
C2424 C2425 1.387 . S
C2424 H2428 0.950 . S
C2424 C2433 1.390 1_554 S
C2425 C2424 1.387 . S
C2425 C2427 1.387 . S
H2426 C2433 0.950 . S
C2427 C2425 1.387 . S
C2427 C2429 1.390 1_554 S
C2427 H2431 0.950 . S
H2428 C2424 0.950 . S
C2429 C2427 1.390 1_556 S
C2429 C2430 1.387 . S
C2429 H2432 0.950 . S
C2430 C2429 1.387 . S
C2430 C2433 1.387 . S
H2431 C2427 0.950 . S
H2432 C2429 0.950 . S
C2433 C2424 1.390 1_556 S
C2433 H2426 0.950 . S
C2433 C2430 1.387 . S
C2434 C2435 1.387 . S
C2434 H2438 0.950 . S
C2434 C2443 1.390 1_554 S
C2435 C2434 1.387 . S
C2435 C2437 1.387 . S
H2436 C2443 0.950 . S
C2437 C2435 1.387 . S
C2437 C2439 1.390 1_554 S
C2437 H2441 0.950 . S
H2438 C2434 0.950 . S
C2439 C2437 1.390 1_556 S
C2439 C2440 1.387 . S
C2439 H2442 0.950 . S
C2440 C2439 1.387 . S
C2440 C2443 1.387 . S
H2441 C2437 0.950 . S
H2442 C2439 0.950 . S
C2443 C2434 1.390 1_556 S
C2443 H2436 0.950 . S
C2443 C2440 1.387 . S
C2444 C2445 1.387 . S
C2444 H2448 0.950 . S
C2444 C2453 1.390 . S
C2445 C2444 1.387 . S
C2445 C2447 1.387 . S
H2446 C2453 0.950 . S
C2447 C2445 1.387 . S
C2447 C2449 1.390 . S
C2447 H2451 0.950 . S
H2448 C2444 0.950 . S
C2449 C2447 1.390 . S
C2449 C2450 1.387 . S
C2449 H2452 0.950 . S
C2450 C2449 1.387 . S
C2450 C2453 1.387 . S
H2451 C2447 0.950 . S
H2452 C2449 0.950 . S
C2453 C2444 1.390 . S
C2453 H2446 0.950 . S
C2453 C2450 1.387 . S
C2454 C2455 1.387 . S
C2454 H2458 0.950 . S
C2454 C2463 1.390 . S
C2455 C2454 1.387 . S
C2455 C2457 1.387 . S
H2456 C2463 0.950 . S
C2457 C2455 1.387 . S
C2457 C2459 1.390 . S
C2457 H2461 0.950 . S
H2458 C2454 0.950 . S
C2459 C2457 1.390 . S
C2459 C2460 1.387 . S
C2459 H2462 0.950 . S
C2460 C2459 1.387 . S
C2460 C2463 1.387 . S
H2461 C2457 0.950 . S
H2462 C2459 0.950 . S
C2463 C2454 1.390 . S
C2463 H2456 0.950 . S
C2463 C2460 1.387 . S
C2464 C2465 1.387 . S
C2464 H2468 0.950 . S
C2464 C2473 1.390 1_565 S
C2465 C2464 1.387 . S
C2465 C2467 1.387 . S
H2466 C2473 0.950 . S
C2467 C2465 1.387 . S
C2467 C2469 1.390 1_565 S
C2467 H2471 0.950 . S
H2468 C2464 0.950 . S
C2469 C2467 1.390 1_545 S
C2469 C2470 1.387 . S
C2469 H2472 0.950 . S
C2470 C2469 1.387 . S
C2470 C2473 1.387 . S
H2471 C2467 0.950 . S
H2472 C2469 0.950 . S
C2473 C2464 1.390 1_545 S
C2473 H2466 0.950 . S
C2473 C2470 1.387 . S
C2474 C2475 1.387 . S
C2474 H2478 0.950 . S
C2474 C2483 1.390 . S
C2475 C2474 1.387 . S
C2475 C2477 1.387 . S
H2476 C2483 0.950 . S
C2477 C2475 1.387 . S
C2477 C2479 1.390 . S
C2477 H2481 0.950 . S
H2478 C2474 0.950 . S
C2479 C2477 1.390 . S
C2479 C2480 1.387 . S
C2479 H2482 0.950 . S
C2480 C2479 1.387 . S
C2480 C2483 1.387 . S
H2481 C2477 0.950 . S
H2482 C2479 0.950 . S
C2483 C2474 1.390 . S
C2483 H2476 0.950 . S
C2483 C2480 1.387 . S
C2484 C2485 1.387 . S
C2484 H2488 0.950 . S
C2484 C2493 1.390 . S
C2485 C2484 1.387 . S
C2485 C2487 1.387 . S
H2486 C2493 0.950 . S
C2487 C2485 1.387 . S
C2487 C2489 1.390 . S
C2487 H2491 0.950 . S
H2488 C2484 0.950 . S
C2489 C2487 1.390 . S
C2489 C2490 1.387 . S
C2489 H2492 0.950 . S
C2490 C2489 1.387 . S
C2490 C2493 1.387 . S
H2491 C2487 0.950 . S
H2492 C2489 0.950 . S
C2493 C2484 1.390 . S
C2493 H2486 0.950 . S
C2493 C2490 1.387 . S
C2494 C2495 1.387 . S
C2494 H2498 0.950 . S
C2494 C2503 1.390 1_455 S
C2495 C2494 1.387 . S
C2495 C2497 1.387 . S
H2496 C2503 0.950 . S
C2497 C2495 1.387 . S
C2497 C2499 1.390 1_455 S
C2497 H2501 0.950 . S
H2498 C2494 0.950 . S
C2499 C2497 1.390 1_655 S
C2499 C2500 1.387 . S
C2499 H2502 0.950 . S
C2500 C2499 1.387 . S
C2500 C2503 1.387 . S
H2501 C2497 0.950 . S
H2502 C2499 0.950 . S
C2503 C2494 1.390 1_655 S
C2503 H2496 0.950 . S
C2503 C2500 1.387 . S
C2504 C2505 1.387 . S
C2504 H2508 0.950 . S
C2504 C2513 1.390 1_455 S
C2505 C2504 1.387 . S
C2505 C2507 1.387 . S
H2506 C2513 0.950 . S
C2507 C2505 1.387 . S
C2507 C2509 1.390 1_455 S
C2507 H2511 0.950 . S
H2508 C2504 0.950 . S
C2509 C2507 1.390 1_655 S
C2509 C2510 1.387 . S
C2509 H2512 0.950 . S
C2510 C2509 1.387 . S
C2510 C2513 1.387 . S
H2511 C2507 0.950 . S
H2512 C2509 0.950 . S
C2513 C2504 1.390 1_655 S
C2513 H2506 0.950 . S
C2513 C2510 1.387 . S
C2514 C2515 1.387 . S
C2514 H2518 0.950 . S
C2514 C2523 1.390 . S
C2515 C2514 1.387 . S
C2515 C2517 1.387 . S
H2516 C2523 0.950 . S
C2517 C2515 1.387 . S
C2517 C2519 1.390 . S
C2517 H2521 0.950 . S
H2518 C2514 0.950 . S
C2519 C2517 1.390 . S
C2519 C2520 1.387 . S
C2519 H2522 0.950 . S
C2520 C2519 1.387 . S
C2520 C2523 1.387 . S
H2521 C2517 0.950 . S
H2522 C2519 0.950 . S
C2523 C2514 1.390 . S
C2523 H2516 0.950 . S
C2523 C2520 1.387 . S
C2524 C2525 1.387 . S
C2524 H2528 0.950 . S
C2524 C2533 1.390 . S
C2525 C2524 1.387 . S
C2525 C2527 1.387 . S
H2526 C2533 0.950 . S
C2527 C2525 1.387 . S
C2527 C2529 1.390 . S
C2527 H2531 0.950 . S
H2528 C2524 0.950 . S
C2529 C2527 1.390 . S
C2529 C2530 1.387 . S
C2529 H2532 0.950 . S
C2530 C2529 1.387 . S
C2530 C2533 1.387 . S
H2531 C2527 0.950 . S
H2532 C2529 0.950 . S
C2533 C2524 1.390 . S
C2533 H2526 0.950 . S
C2533 C2530 1.387 . S
C2534 C2535 1.387 . S
C2534 H2538 0.950 . S
C2534 C2543 1.390 1_455 S
C2535 C2534 1.387 . S
C2535 C2537 1.387 . S
H2536 C2543 0.950 . S
C2537 C2535 1.387 . S
C2537 C2539 1.390 1_455 S
C2537 H2541 0.950 . S
H2538 C2534 0.950 . S
C2539 C2537 1.390 1_655 S
C2539 C2540 1.387 . S
C2539 H2542 0.950 . S
C2540 C2539 1.387 . S
C2540 C2543 1.387 . S
H2541 C2537 0.950 . S
H2542 C2539 0.950 . S
C2543 C2534 1.390 1_655 S
C2543 H2536 0.950 . S
C2543 C2540 1.387 . S
C2544 C2545 1.387 . S
C2544 H2548 0.950 . S
C2544 C2553 1.390 . S
C2545 C2544 1.387 . S
C2545 C2547 1.387 . S
H2546 C2553 0.950 . S
C2547 C2545 1.387 . S
C2547 C2549 1.390 . S
C2547 H2551 0.950 . S
H2548 C2544 0.950 . S
C2549 C2547 1.390 . S
C2549 C2550 1.387 . S
C2549 H2552 0.950 . S
C2550 C2549 1.387 . S
C2550 C2553 1.387 . S
H2551 C2547 0.950 . S
H2552 C2549 0.950 . S
C2553 C2544 1.390 . S
C2553 H2546 0.950 . S
C2553 C2550 1.387 . S
C2554 C2555 1.387 . S
C2554 H2558 0.950 . S
C2554 C2563 1.390 . S
C2555 C2554 1.387 . S
C2555 C2557 1.387 . S
H2556 C2563 0.950 . S
C2557 C2555 1.387 . S
C2557 C2559 1.390 . S
C2557 H2561 0.950 . S
H2558 C2554 0.950 . S
C2559 C2557 1.390 . S
C2559 C2560 1.387 . S
C2559 H2562 0.950 . S
C2560 C2559 1.387 . S
C2560 C2563 1.387 . S
H2561 C2557 0.950 . S
H2562 C2559 0.950 . S
C2563 C2554 1.390 . S
C2563 H2556 0.950 . S
C2563 C2560 1.387 . S
C2564 C2565 1.387 . S
C2564 H2568 0.950 . S
C2564 C2573 1.390 1_455 S
C2565 C2564 1.387 . S
C2565 C2567 1.387 . S
H2566 C2573 0.950 . S
C2567 C2565 1.387 . S
C2567 C2569 1.390 1_455 S
C2567 H2571 0.950 . S
H2568 C2564 0.950 . S
C2569 C2567 1.390 1_655 S
C2569 C2570 1.387 . S
C2569 H2572 0.950 . S
C2570 C2569 1.387 . S
C2570 C2573 1.387 . S
H2571 C2567 0.950 . S
H2572 C2569 0.950 . S
C2573 C2564 1.390 1_655 S
C2573 H2566 0.950 . S
C2573 C2570 1.387 . S
C2574 C2575 1.387 . S
C2574 H2578 0.950 . S
C2574 C2583 1.390 1_565 S
C2575 C2574 1.387 . S
C2575 C2577 1.387 . S
H2576 C2583 0.950 . S
C2577 C2575 1.387 . S
C2577 C2579 1.390 1_565 S
C2577 H2581 0.950 . S
H2578 C2574 0.950 . S
C2579 C2577 1.390 1_545 S
C2579 C2580 1.387 . S
C2579 H2582 0.950 . S
C2580 C2579 1.387 . S
C2580 C2583 1.387 . S
H2581 C2577 0.950 . S
H2582 C2579 0.950 . S
C2583 C2574 1.390 1_545 S
C2583 H2576 0.950 . S
C2583 C2580 1.387 . S
C2584 C2585 1.387 . S
C2584 H2588 0.950 . S
C2584 C2593 1.390 . S
C2585 C2584 1.387 . S
C2585 C2587 1.387 . S
H2586 C2593 0.950 . S
C2587 C2585 1.387 . S
C2587 C2589 1.390 . S
C2587 H2591 0.950 . S
H2588 C2584 0.950 . S
C2589 C2587 1.390 . S
C2589 C2590 1.387 . S
C2589 H2592 0.950 . S
C2590 C2589 1.387 . S
C2590 C2593 1.387 . S
H2591 C2587 0.950 . S
H2592 C2589 0.950 . S
C2593 C2584 1.390 . S
C2593 H2586 0.950 . S
C2593 C2590 1.387 . S
C2594 C2595 1.387 . S
C2594 H2598 0.950 . S
C2594 C2603 1.390 1_545 S
C2595 C2594 1.387 . S
C2595 C2597 1.387 . S
H2596 C2603 0.950 . S
C2597 C2595 1.387 . S
C2597 C2599 1.390 1_545 S
C2597 H2601 0.950 . S
H2598 C2594 0.950 . S
C2599 C2597 1.390 1_565 S
C2599 C2600 1.387 . S
C2599 H2602 0.950 . S
C2600 C2599 1.387 . S
C2600 C2603 1.387 . S
H2601 C2597 0.950 . S
H2602 C2599 0.950 . S
C2603 C2594 1.390 1_565 S
C2603 H2596 0.950 . S
C2603 C2600 1.387 . S
C2604 C2605 1.387 . S
C2604 H2608 0.950 . S
C2604 C2613 1.390 1_556 S
C2605 C2604 1.387 . S
C2605 C2607 1.387 . S
H2606 C2613 0.950 . S
C2607 C2605 1.387 . S
C2607 C2609 1.390 1_556 S
C2607 H2611 0.950 . S
H2608 C2604 0.950 . S
C2609 C2607 1.390 1_554 S
C2609 C2610 1.387 . S
C2609 H2612 0.950 . S
C2610 C2609 1.387 . S
C2610 C2613 1.387 . S
H2611 C2607 0.950 . S
H2612 C2609 0.950 . S
C2613 C2604 1.390 1_554 S
C2613 H2606 0.950 . S
C2613 C2610 1.387 . S
C2614 C2615 1.387 . S
C2614 H2618 0.950 . S
C2614 C2623 1.390 1_556 S
C2615 C2614 1.387 . S
C2615 C2617 1.387 . S
H2616 C2623 0.950 . S
C2617 C2615 1.387 . S
C2617 C2619 1.390 1_556 S
C2617 H2621 0.950 . S
H2618 C2614 0.950 . S
C2619 C2617 1.390 1_554 S
C2619 C2620 1.387 . S
C2619 H2622 0.950 . S
C2620 C2619 1.387 . S
C2620 C2623 1.387 . S
H2621 C2617 0.950 . S
H2622 C2619 0.950 . S
C2623 C2614 1.390 1_554 S
C2623 H2616 0.950 . S
C2623 C2620 1.387 . S
C2624 C2625 1.387 . S
C2624 H2628 0.950 . S
C2624 C2633 1.390 1_556 S
C2625 C2624 1.387 . S
C2625 C2627 1.387 . S
H2626 C2633 0.950 . S
C2627 C2625 1.387 . S
C2627 C2629 1.390 1_556 S
C2627 H2631 0.950 . S
H2628 C2624 0.950 . S
C2629 C2627 1.390 1_554 S
C2629 C2630 1.387 . S
C2629 H2632 0.950 . S
C2630 C2629 1.387 . S
C2630 C2633 1.387 . S
H2631 C2627 0.950 . S
H2632 C2629 0.950 . S
C2633 C2624 1.390 1_554 S
C2633 H2626 0.950 . S
C2633 C2630 1.387 . S
C2634 C2635 1.387 . S
C2634 H2638 0.950 . S
C2634 C2643 1.390 . S
C2635 C2634 1.387 . S
C2635 C2637 1.387 . S
H2636 C2643 0.950 . S
C2637 C2635 1.387 . S
C2637 C2639 1.390 . S
C2637 H2641 0.950 . S
H2638 C2634 0.950 . S
C2639 C2637 1.390 . S
C2639 C2640 1.387 . S
C2639 H2642 0.950 . S
C2640 C2639 1.387 . S
C2640 C2643 1.387 . S
H2641 C2637 0.950 . S
H2642 C2639 0.950 . S
C2643 C2634 1.390 . S
C2643 H2636 0.950 . S
C2643 C2640 1.387 . S
C2644 C2645 1.387 . S
C2644 H2648 0.950 . S
C2644 C2653 1.390 . S
C2645 C2644 1.387 . S
C2645 C2647 1.387 . S
H2646 C2653 0.950 . S
C2647 C2645 1.387 . S
C2647 C2649 1.390 . S
C2647 H2651 0.950 . S
H2648 C2644 0.950 . S
C2649 C2647 1.390 . S
C2649 C2650 1.387 . S
C2649 H2652 0.950 . S
C2650 C2649 1.387 . S
C2650 C2653 1.387 . S
H2651 C2647 0.950 . S
H2652 C2649 0.950 . S
C2653 C2644 1.390 . S
C2653 H2646 0.950 . S
C2653 C2650 1.387 . S
C2654 C2655 1.387 . S
C2654 H2658 0.950 . S
C2654 C2663 1.390 1_545 S
C2655 C2654 1.387 . S
C2655 C2657 1.387 . S
H2656 C2663 0.950 . S
C2657 C2655 1.387 . S
C2657 C2659 1.390 1_545 S
C2657 H2661 0.950 . S
H2658 C2654 0.950 . S
C2659 C2657 1.390 1_565 S
C2659 C2660 1.387 . S
C2659 H2662 0.950 . S
C2660 C2659 1.387 . S
C2660 C2663 1.387 . S
H2661 C2657 0.950 . S
H2662 C2659 0.950 . S
C2663 C2654 1.390 1_565 S
C2663 H2656 0.950 . S
C2663 C2660 1.387 . S
C2664 C2665 1.387 . S
C2664 H2668 0.950 . S
C2664 C2673 1.390 . S
C2665 C2664 1.387 . S
C2665 C2667 1.387 . S
H2666 C2673 0.950 . S
C2667 C2665 1.387 . S
C2667 C2669 1.390 . S
C2667 H2671 0.950 . S
H2668 C2664 0.950 . S
C2669 C2667 1.390 . S
C2669 C2670 1.387 . S
C2669 H2672 0.950 . S
C2670 C2669 1.387 . S
C2670 C2673 1.387 . S
H2671 C2667 0.950 . S
H2672 C2669 0.950 . S
C2673 C2664 1.390 . S
C2673 H2666 0.950 . S
C2673 C2670 1.387 . S
C2674 C2675 1.387 . S
C2674 H2678 0.950 . S
C2674 C2683 1.390 . S
C2675 C2674 1.387 . S
C2675 C2677 1.387 . S
H2676 C2683 0.950 . S
C2677 C2675 1.387 . S
C2677 C2679 1.390 . S
C2677 H2681 0.950 . S
H2678 C2674 0.950 . S
C2679 C2677 1.390 . S
C2679 C2680 1.387 . S
C2679 H2682 0.950 . S
C2680 C2679 1.387 . S
C2680 C2683 1.387 . S
H2681 C2677 0.950 . S
H2682 C2679 0.950 . S
C2683 C2674 1.390 . S
C2683 H2676 0.950 . S
C2683 C2680 1.387 . S
C2684 C2685 1.387 . S
C2684 H2688 0.950 . S
C2684 C2693 1.390 . S
C2685 C2684 1.387 . S
C2685 C2687 1.387 . S
H2686 C2693 0.950 . S
C2687 C2685 1.387 . S
C2687 C2689 1.390 . S
C2687 H2691 0.950 . S
H2688 C2684 0.950 . S
C2689 C2687 1.390 . S
C2689 C2690 1.387 . S
C2689 H2692 0.950 . S
C2690 C2689 1.387 . S
C2690 C2693 1.387 . S
H2691 C2687 0.950 . S
H2692 C2689 0.950 . S
C2693 C2684 1.390 . S
C2693 H2686 0.950 . S
C2693 C2690 1.387 . S
C2694 C2695 1.387 . S
C2694 H2698 0.950 . S
C2694 C2703 1.390 1_554 S
C2695 C2694 1.387 . S
C2695 C2697 1.387 . S
H2696 C2703 0.950 . S
C2697 C2695 1.387 . S
C2697 C2699 1.390 1_554 S
C2697 H2701 0.950 . S
H2698 C2694 0.950 . S
C2699 C2697 1.390 1_556 S
C2699 C2700 1.387 . S
C2699 H2702 0.950 . S
C2700 C2699 1.387 . S
C2700 C2703 1.387 . S
H2701 C2697 0.950 . S
H2702 C2699 0.950 . S
C2703 C2694 1.390 1_556 S
C2703 H2696 0.950 . S
C2703 C2700 1.387 . S
C2704 C2705 1.387 . S
C2704 H2708 0.950 . S
C2704 C2713 1.390 . S
C2705 C2704 1.387 . S
C2705 C2707 1.387 . S
H2706 C2713 0.950 . S
C2707 C2705 1.387 . S
C2707 C2709 1.390 . S
C2707 H2711 0.950 . S
H2708 C2704 0.950 . S
C2709 C2707 1.390 . S
C2709 C2710 1.387 . S
C2709 H2712 0.950 . S
C2710 C2709 1.387 . S
C2710 C2713 1.387 . S
H2711 C2707 0.950 . S
H2712 C2709 0.950 . S
C2713 C2704 1.390 . S
C2713 H2706 0.950 . S
C2713 C2710 1.387 . S
C2714 C2715 1.387 . S
C2714 H2718 0.950 . S
C2714 C2723 1.390 . S
C2715 C2714 1.387 . S
C2715 C2717 1.387 . S
H2716 C2723 0.950 . S
C2717 C2715 1.387 . S
C2717 C2719 1.390 . S
C2717 H2721 0.950 . S
H2718 C2714 0.950 . S
C2719 C2717 1.390 . S
C2719 C2720 1.387 . S
C2719 H2722 0.950 . S
C2720 C2719 1.387 . S
C2720 C2723 1.387 . S
H2721 C2717 0.950 . S
H2722 C2719 0.950 . S
C2723 C2714 1.390 . S
C2723 H2716 0.950 . S
C2723 C2720 1.387 . S
C2724 C2725 1.387 . S
C2724 H2728 0.950 . S
C2724 C2733 1.390 1_565 S
C2725 C2724 1.387 . S
C2725 C2727 1.387 . S
H2726 C2733 0.950 . S
C2727 C2725 1.387 . S
C2727 C2729 1.390 1_565 S
C2727 H2731 0.950 . S
H2728 C2724 0.950 . S
C2729 C2727 1.390 1_545 S
C2729 C2730 1.387 . S
C2729 H2732 0.950 . S
C2730 C2729 1.387 . S
C2730 C2733 1.387 . S
H2731 C2727 0.950 . S
H2732 C2729 0.950 . S
C2733 C2724 1.390 1_545 S
C2733 H2726 0.950 . S
C2733 C2730 1.387 . S
C2734 C2735 1.387 . S
C2734 H2738 0.950 . S
C2734 C2743 1.390 . S
C2735 C2734 1.387 . S
C2735 C2737 1.387 . S
H2736 C2743 0.950 . S
C2737 C2735 1.387 . S
C2737 C2739 1.390 . S
C2737 H2741 0.950 . S
H2738 C2734 0.950 . S
C2739 C2737 1.390 . S
C2739 C2740 1.387 . S
C2739 H2742 0.950 . S
C2740 C2739 1.387 . S
C2740 C2743 1.387 . S
H2741 C2737 0.950 . S
H2742 C2739 0.950 . S
C2743 C2734 1.390 . S
C2743 H2736 0.950 . S
C2743 C2740 1.387 . S
C2744 C2745 1.387 . S
C2744 H2748 0.950 . S
C2744 C2753 1.390 1_556 S
C2745 C2744 1.387 . S
C2745 C2747 1.387 . S
H2746 C2753 0.950 . S
C2747 C2745 1.387 . S
C2747 C2749 1.390 1_556 S
C2747 H2751 0.950 . S
H2748 C2744 0.950 . S
C2749 C2747 1.390 1_554 S
C2749 C2750 1.387 . S
C2749 H2752 0.950 . S
C2750 C2749 1.387 . S
C2750 C2753 1.387 . S
H2751 C2747 0.950 . S
H2752 C2749 0.950 . S
C2753 C2744 1.390 1_554 S
C2753 H2746 0.950 . S
C2753 C2750 1.387 . S
C2754 C2755 1.387 . S
C2754 H2758 0.950 . S
C2754 C2763 1.390 . S
C2755 C2754 1.387 . S
C2755 C2757 1.387 . S
H2756 C2763 0.950 . S
C2757 C2755 1.387 . S
C2757 C2759 1.390 . S
C2757 H2761 0.950 . S
H2758 C2754 0.950 . S
C2759 C2757 1.390 . S
C2759 C2760 1.387 . S
C2759 H2762 0.950 . S
C2760 C2759 1.387 . S
C2760 C2763 1.387 . S
H2761 C2757 0.950 . S
H2762 C2759 0.950 . S
C2763 C2754 1.390 . S
C2763 H2756 0.950 . S
C2763 C2760 1.387 . S
C2764 C2765 1.387 . S
C2764 H2768 0.950 . S
C2764 C2773 1.390 . S
C2765 C2764 1.387 . S
C2765 C2767 1.387 . S
H2766 C2773 0.950 . S
C2767 C2765 1.387 . S
C2767 C2769 1.390 . S
C2767 H2771 0.950 . S
H2768 C2764 0.950 . S
C2769 C2767 1.390 . S
C2769 C2770 1.387 . S
C2769 H2772 0.950 . S
C2770 C2769 1.387 . S
C2770 C2773 1.387 . S
H2771 C2767 0.950 . S
H2772 C2769 0.950 . S
C2773 C2764 1.390 . S
C2773 H2766 0.950 . S
C2773 C2770 1.387 . S
C2774 C2775 1.387 . S
C2774 H2778 0.950 . S
C2774 C2783 1.390 1_545 S
C2775 C2774 1.387 . S
C2775 C2777 1.387 . S
H2776 C2783 0.950 . S
C2777 C2775 1.387 . S
C2777 C2779 1.390 1_545 S
C2777 H2781 0.950 . S
H2778 C2774 0.950 . S
C2779 C2777 1.390 1_565 S
C2779 C2780 1.387 . S
C2779 H2782 0.950 . S
C2780 C2779 1.387 . S
C2780 C2783 1.387 . S
H2781 C2777 0.950 . S
H2782 C2779 0.950 . S
C2783 C2774 1.390 1_565 S
C2783 H2776 0.950 . S
C2783 C2780 1.387 . S
C2784 C2785 1.387 . S
C2784 H2788 0.950 . S
C2784 C2793 1.390 . S
C2785 C2784 1.387 . S
C2785 C2787 1.387 . S
H2786 C2793 0.950 . S
C2787 C2785 1.387 . S
C2787 C2789 1.390 . S
C2787 H2791 0.950 . S
H2788 C2784 0.950 . S
C2789 C2787 1.390 . S
C2789 C2790 1.387 . S
C2789 H2792 0.950 . S
C2790 C2789 1.387 . S
C2790 C2793 1.387 . S
H2791 C2787 0.950 . S
H2792 C2789 0.950 . S
C2793 C2784 1.390 . S
C2793 H2786 0.950 . S
C2793 C2790 1.387 . S
C2794 C2795 1.387 . S
C2794 H2798 0.950 . S
C2794 C2803 1.390 . S
C2795 C2794 1.387 . S
C2795 C2797 1.387 . S
H2796 C2803 0.950 . S
C2797 C2795 1.387 . S
C2797 C2799 1.390 . S
C2797 H2801 0.950 . S
H2798 C2794 0.950 . S
C2799 C2797 1.390 . S
C2799 C2800 1.387 . S
C2799 H2802 0.950 . S
C2800 C2799 1.387 . S
C2800 C2803 1.387 . S
H2801 C2797 0.950 . S
H2802 C2799 0.950 . S
C2803 C2794 1.390 . S
C2803 H2796 0.950 . S
C2803 C2800 1.387 . S
C2804 C2805 1.387 . S
C2804 H2808 0.950 . S
C2804 C2813 1.390 . S
C2805 C2804 1.387 . S
C2805 C2807 1.387 . S
H2806 C2813 0.950 . S
C2807 C2805 1.387 . S
C2807 C2809 1.390 . S
C2807 H2811 0.950 . S
H2808 C2804 0.950 . S
C2809 C2807 1.390 . S
C2809 C2810 1.387 . S
C2809 H2812 0.950 . S
C2810 C2809 1.387 . S
C2810 C2813 1.387 . S
H2811 C2807 0.950 . S
H2812 C2809 0.950 . S
C2813 C2804 1.390 . S
C2813 H2806 0.950 . S
C2813 C2810 1.387 . S
C2814 C2815 1.387 . S
C2814 H2818 0.950 . S
C2814 C2823 1.390 . S
C2815 C2814 1.387 . S
C2815 C2817 1.387 . S
H2816 C2823 0.950 . S
C2817 C2815 1.387 . S
C2817 C2819 1.390 . S
C2817 H2821 0.950 . S
H2818 C2814 0.950 . S
C2819 C2817 1.390 . S
C2819 C2820 1.387 . S
C2819 H2822 0.950 . S
C2820 C2819 1.387 . S
C2820 C2823 1.387 . S
H2821 C2817 0.950 . S
H2822 C2819 0.950 . S
C2823 C2814 1.390 . S
C2823 H2816 0.950 . S
C2823 C2820 1.387 . S
C2824 C2825 1.387 . S
C2824 H2828 0.950 . S
C2824 C2833 1.390 . S
C2825 C2824 1.387 . S
C2825 C2827 1.387 . S
H2826 C2833 0.950 . S
C2827 C2825 1.387 . S
C2827 C2829 1.390 . S
C2827 H2831 0.950 . S
H2828 C2824 0.950 . S
C2829 C2827 1.390 . S
C2829 C2830 1.387 . S
C2829 H2832 0.950 . S
C2830 C2829 1.387 . S
C2830 C2833 1.387 . S
H2831 C2827 0.950 . S
H2832 C2829 0.950 . S
C2833 C2824 1.390 . S
C2833 H2826 0.950 . S
C2833 C2830 1.387 . S
C2834 C2835 1.387 . S
C2834 H2838 0.950 . S
C2834 C2843 1.390 . S
C2835 C2834 1.387 . S
C2835 C2837 1.387 . S
H2836 C2843 0.950 . S
C2837 C2835 1.387 . S
C2837 C2839 1.390 . S
C2837 H2841 0.950 . S
H2838 C2834 0.950 . S
C2839 C2837 1.390 . S
C2839 C2840 1.387 . S
C2839 H2842 0.950 . S
C2840 C2839 1.387 . S
C2840 C2843 1.387 . S
H2841 C2837 0.950 . S
H2842 C2839 0.950 . S
C2843 C2834 1.390 . S
C2843 H2836 0.950 . S
C2843 C2840 1.387 . S
C2844 C2845 1.387 . S
C2844 H2848 0.950 . S
C2844 C2853 1.390 . S
C2845 C2844 1.387 . S
C2845 C2847 1.387 . S
H2846 C2853 0.950 . S
C2847 C2845 1.387 . S
C2847 C2849 1.390 . S
C2847 H2851 0.950 . S
H2848 C2844 0.950 . S
C2849 C2847 1.390 . S
C2849 C2850 1.387 . S
C2849 H2852 0.950 . S
C2850 C2849 1.387 . S
C2850 C2853 1.387 . S
H2851 C2847 0.950 . S
H2852 C2849 0.950 . S
C2853 C2844 1.390 . S
C2853 H2846 0.950 . S
C2853 C2850 1.387 . S
C2854 C2855 1.387 . S
C2854 H2858 0.950 . S
C2854 C2863 1.390 . S
C2855 C2854 1.387 . S
C2855 C2857 1.387 . S
H2856 C2863 0.950 . S
C2857 C2855 1.387 . S
C2857 C2859 1.390 . S
C2857 H2861 0.950 . S
H2858 C2854 0.950 . S
C2859 C2857 1.390 . S
C2859 C2860 1.387 . S
C2859 H2862 0.950 . S
C2860 C2859 1.387 . S
C2860 C2863 1.387 . S
H2861 C2857 0.950 . S
H2862 C2859 0.950 . S
C2863 C2854 1.390 . S
C2863 H2856 0.950 . S
C2863 C2860 1.387 . S
C2864 C2865 1.387 . S
C2864 H2868 0.950 . S
C2864 C2873 1.390 . S
C2865 C2864 1.387 . S
C2865 C2867 1.387 . S
H2866 C2873 0.950 . S
C2867 C2865 1.387 . S
C2867 C2869 1.390 . S
C2867 H2871 0.950 . S
H2868 C2864 0.950 . S
C2869 C2867 1.390 . S
C2869 C2870 1.387 . S
C2869 H2872 0.950 . S
C2870 C2869 1.387 . S
C2870 C2873 1.387 . S
H2871 C2867 0.950 . S
H2872 C2869 0.950 . S
C2873 C2864 1.390 . S
C2873 H2866 0.950 . S
C2873 C2870 1.387 . S
C2874 C2875 1.387 . S
C2874 H2878 0.950 . S
C2874 C2883 1.390 . S
C2875 C2874 1.387 . S
C2875 C2877 1.387 . S
H2876 C2883 0.950 . S
C2877 C2875 1.387 . S
C2877 C2879 1.390 . S
C2877 H2881 0.950 . S
H2878 C2874 0.950 . S
C2879 C2877 1.390 . S
C2879 C2880 1.387 . S
C2879 H2882 0.950 . S
C2880 C2879 1.387 . S
C2880 C2883 1.387 . S
H2881 C2877 0.950 . S
H2882 C2879 0.950 . S
C2883 C2874 1.390 . S
C2883 H2876 0.950 . S
C2883 C2880 1.387 . S
C2884 C2885 1.387 . S
C2884 H2888 0.950 . S
C2884 C2893 1.390 . S
C2885 C2884 1.387 . S
C2885 C2887 1.387 . S
H2886 C2893 0.950 . S
C2887 C2885 1.387 . S
C2887 C2889 1.390 . S
C2887 H2891 0.950 . S
H2888 C2884 0.950 . S
C2889 C2887 1.390 . S
C2889 C2890 1.387 . S
C2889 H2892 0.950 . S
C2890 C2889 1.387 . S
C2890 C2893 1.387 . S
H2891 C2887 0.950 . S
H2892 C2889 0.950 . S
C2893 C2884 1.390 . S
C2893 H2886 0.950 . S
C2893 C2890 1.387 . S
C2894 C2895 1.387 . S
C2894 H2898 0.950 . S
C2894 C2903 1.390 . S
C2895 C2894 1.387 . S
C2895 C2897 1.387 . S
H2896 C2903 0.950 . S
C2897 C2895 1.387 . S
C2897 C2899 1.390 . S
C2897 H2901 0.950 . S
H2898 C2894 0.950 . S
C2899 C2897 1.390 . S
C2899 C2900 1.387 . S
C2899 H2902 0.950 . S
C2900 C2899 1.387 . S
C2900 C2903 1.387 . S
H2901 C2897 0.950 . S
H2902 C2899 0.950 . S
C2903 C2894 1.390 . S
C2903 H2896 0.950 . S
C2903 C2900 1.387 . S
C2904 C2905 1.387 . S
C2904 H2908 0.950 . S
C2904 C2913 1.390 . S
C2905 C2904 1.387 . S
C2905 C2907 1.387 . S
H2906 C2913 0.950 . S
C2907 C2905 1.387 . S
C2907 C2909 1.390 . S
C2907 H2911 0.950 . S
H2908 C2904 0.950 . S
C2909 C2907 1.390 . S
C2909 C2910 1.387 . S
C2909 H2912 0.950 . S
C2910 C2909 1.387 . S
C2910 C2913 1.387 . S
H2911 C2907 0.950 . S
H2912 C2909 0.950 . S
C2913 C2904 1.390 . S
C2913 H2906 0.950 . S
C2913 C2910 1.387 . S
C2914 C2915 1.387 . S
C2914 H2918 0.950 . S
C2914 C2923 1.390 . S
C2915 C2914 1.387 . S
C2915 C2917 1.387 . S
H2916 C2923 0.950 . S
C2917 C2915 1.387 . S
C2917 C2919 1.390 . S
C2917 H2921 0.950 . S
H2918 C2914 0.950 . S
C2919 C2917 1.390 . S
C2919 C2920 1.387 . S
C2919 H2922 0.950 . S
C2920 C2919 1.387 . S
C2920 C2923 1.387 . S
H2921 C2917 0.950 . S
H2922 C2919 0.950 . S
C2923 C2914 1.390 . S
C2923 H2916 0.950 . S
C2923 C2920 1.387 . S
C2924 C2925 1.387 . S
C2924 H2928 0.950 . S
C2924 C2933 1.390 . S
C2925 C2924 1.387 . S
C2925 C2927 1.387 . S
H2926 C2933 0.950 . S
C2927 C2925 1.387 . S
C2927 C2929 1.390 . S
C2927 H2931 0.950 . S
H2928 C2924 0.950 . S
C2929 C2927 1.390 . S
C2929 C2930 1.387 . S
C2929 H2932 0.950 . S
C2930 C2929 1.387 . S
C2930 C2933 1.387 . S
H2931 C2927 0.950 . S
H2932 C2929 0.950 . S
C2933 C2924 1.390 . S
C2933 H2926 0.950 . S
C2933 C2930 1.387 . S
C2934 C2935 1.387 . S
C2934 H2938 0.950 . S
C2934 C2943 1.390 . S
C2935 C2934 1.387 . S
C2935 C2937 1.387 . S
H2936 C2943 0.950 . S
C2937 C2935 1.387 . S
C2937 C2939 1.390 . S
C2937 H2941 0.950 . S
H2938 C2934 0.950 . S
C2939 C2937 1.390 . S
C2939 C2940 1.387 . S
C2939 H2942 0.950 . S
C2940 C2939 1.387 . S
C2940 C2943 1.387 . S
H2941 C2937 0.950 . S
H2942 C2939 0.950 . S
C2943 C2934 1.390 . S
C2943 H2936 0.950 . S
C2943 C2940 1.387 . S
C2944 C2945 1.387 . S
C2944 H2948 0.950 . S
C2944 C2953 1.390 . S
C2945 C2944 1.387 . S
C2945 C2947 1.387 . S
H2946 C2953 0.950 . S
C2947 C2945 1.387 . S
C2947 C2949 1.390 . S
C2947 H2951 0.950 . S
H2948 C2944 0.950 . S
C2949 C2947 1.390 . S
C2949 C2950 1.387 . S
C2949 H2952 0.950 . S
C2950 C2949 1.387 . S
C2950 C2953 1.387 . S
H2951 C2947 0.950 . S
H2952 C2949 0.950 . S
C2953 C2944 1.390 . S
C2953 H2946 0.950 . S
C2953 C2950 1.387 . S
C2954 C2955 1.387 . S
C2954 H2958 0.950 . S
C2954 C2963 1.390 . S
C2955 C2954 1.387 . S
C2955 C2957 1.387 . S
H2956 C2963 0.950 . S
C2957 C2955 1.387 . S
C2957 C2959 1.390 . S
C2957 H2961 0.950 . S
H2958 C2954 0.950 . S
C2959 C2957 1.390 . S
C2959 C2960 1.387 . S
C2959 H2962 0.950 . S
C2960 C2959 1.387 . S
C2960 C2963 1.387 . S
H2961 C2957 0.950 . S
H2962 C2959 0.950 . S
C2963 C2954 1.390 . S
C2963 H2956 0.950 . S
C2963 C2960 1.387 . S
C2964 C2965 1.387 . S
C2964 H2968 0.950 . S
C2964 C2973 1.390 . S
C2965 C2964 1.387 . S
C2965 C2967 1.387 . S
H2966 C2973 0.950 . S
C2967 C2965 1.387 . S
C2967 C2969 1.390 . S
C2967 H2971 0.950 . S
H2968 C2964 0.950 . S
C2969 C2967 1.390 . S
C2969 C2970 1.387 . S
C2969 H2972 0.950 . S
C2970 C2969 1.387 . S
C2970 C2973 1.387 . S
H2971 C2967 0.950 . S
H2972 C2969 0.950 . S
C2973 C2964 1.390 . S
C2973 H2966 0.950 . S
C2973 C2970 1.387 . S
C2974 C2975 1.387 . S
C2974 H2978 0.950 . S
C2974 C2983 1.390 . S
C2975 C2974 1.387 . S
C2975 C2977 1.387 . S
H2976 C2983 0.950 . S
C2977 C2975 1.387 . S
C2977 C2979 1.390 . S
C2977 H2981 0.950 . S
H2978 C2974 0.950 . S
C2979 C2977 1.390 . S
C2979 C2980 1.387 . S
C2979 H2982 0.950 . S
C2980 C2979 1.387 . S
C2980 C2983 1.387 . S
H2981 C2977 0.950 . S
H2982 C2979 0.950 . S
C2983 C2974 1.390 . S
C2983 H2976 0.950 . S
C2983 C2980 1.387 . S
C2984 C2985 1.387 . S
C2984 H2988 0.950 . S
C2984 C2993 1.390 . S
C2985 C2984 1.387 . S
C2985 C2987 1.387 . S
H2986 C2993 0.950 . S
C2987 C2985 1.387 . S
C2987 C2989 1.390 . S
C2987 H2991 0.950 . S
H2988 C2984 0.950 . S
C2989 C2987 1.390 . S
C2989 C2990 1.387 . S
C2989 H2992 0.950 . S
C2990 C2989 1.387 . S
C2990 C2993 1.387 . S
H2991 C2987 0.950 . S
H2992 C2989 0.950 . S
C2993 C2984 1.390 . S
C2993 H2986 0.950 . S
C2993 C2990 1.387 . S
C2994 C2995 1.387 . S
C2994 H2998 0.950 . S
C2994 C3003 1.390 . S
C2995 C2994 1.387 . S
C2995 C2997 1.387 . S
H2996 C3003 0.950 . S
C2997 C2995 1.387 . S
C2997 C2999 1.390 . S
C2997 H3001 0.950 . S
H2998 C2994 0.950 . S
C2999 C2997 1.390 . S
C2999 C3000 1.387 . S
C2999 H3002 0.950 . S
C3000 C2999 1.387 . S
C3000 C3003 1.387 . S
H3001 C2997 0.950 . S
H3002 C2999 0.950 . S
C3003 C2994 1.390 . S
C3003 H2996 0.950 . S
C3003 C3000 1.387 . S
C3004 C3005 1.387 . S
C3004 H3008 0.950 . S
C3004 C3013 1.390 . S
C3005 C3004 1.387 . S
C3005 C3007 1.387 . S
H3006 C3013 0.950 . S
C3007 C3005 1.387 . S
C3007 C3009 1.390 . S
C3007 H3011 0.950 . S
H3008 C3004 0.950 . S
C3009 C3007 1.390 . S
C3009 C3010 1.387 . S
C3009 H3012 0.950 . S
C3010 C3009 1.387 . S
C3010 C3013 1.387 . S
H3011 C3007 0.950 . S
H3012 C3009 0.950 . S
C3013 C3004 1.390 . S
C3013 H3006 0.950 . S
C3013 C3010 1.387 . S
C3014 C3015 1.387 . S
C3014 H3018 0.950 . S
C3014 C3023 1.390 . S
C3015 C3014 1.387 . S
C3015 C3017 1.387 . S
H3016 C3023 0.950 . S
C3017 C3015 1.387 . S
C3017 C3019 1.390 . S
C3017 H3021 0.950 . S
H3018 C3014 0.950 . S
C3019 C3017 1.390 . S
C3019 C3020 1.387 . S
C3019 H3022 0.950 . S
C3020 C3019 1.387 . S
C3020 C3023 1.387 . S
H3021 C3017 0.950 . S
H3022 C3019 0.950 . S
C3023 C3014 1.390 . S
C3023 H3016 0.950 . S
C3023 C3020 1.387 . S
C3024 C3025 1.387 . S
C3024 H3028 0.950 . S
C3024 C3033 1.390 . S
C3025 C3024 1.387 . S
C3025 C3027 1.387 . S
H3026 C3033 0.950 . S
C3027 C3025 1.387 . S
C3027 C3029 1.390 . S
C3027 H3031 0.950 . S
H3028 C3024 0.950 . S
C3029 C3027 1.390 . S
C3029 C3030 1.387 . S
C3029 H3032 0.950 . S
C3030 C3029 1.387 . S
C3030 C3033 1.387 . S
H3031 C3027 0.950 . S
H3032 C3029 0.950 . S
C3033 C3024 1.390 . S
C3033 H3026 0.950 . S
C3033 C3030 1.387 . S
C3034 C3035 1.387 . S
C3034 H3038 0.950 . S
C3034 C3043 1.390 . S
C3035 C3034 1.387 . S
C3035 C3037 1.387 . S
H3036 C3043 0.950 . S
C3037 C3035 1.387 . S
C3037 C3039 1.390 . S
C3037 H3041 0.950 . S
H3038 C3034 0.950 . S
C3039 C3037 1.390 . S
C3039 C3040 1.387 . S
C3039 H3042 0.950 . S
C3040 C3039 1.387 . S
C3040 C3043 1.387 . S
H3041 C3037 0.950 . S
H3042 C3039 0.950 . S
C3043 C3034 1.390 . S
C3043 H3036 0.950 . S
C3043 C3040 1.387 . S
C3044 C3045 1.387 . S
C3044 H3048 0.950 . S
C3044 C3053 1.390 . S
C3045 C3044 1.387 . S
C3045 C3047 1.387 . S
H3046 C3053 0.950 . S
C3047 C3045 1.387 . S
C3047 C3049 1.390 . S
C3047 H3051 0.950 . S
H3048 C3044 0.950 . S
C3049 C3047 1.390 . S
C3049 C3050 1.387 . S
C3049 H3052 0.950 . S
C3050 C3049 1.387 . S
C3050 C3053 1.387 . S
H3051 C3047 0.950 . S
H3052 C3049 0.950 . S
C3053 C3044 1.390 . S
C3053 H3046 0.950 . S
C3053 C3050 1.387 . S
C3054 C3055 1.387 . S
C3054 H3058 0.950 . S
C3054 C3063 1.390 . S
C3055 C3054 1.387 . S
C3055 C3057 1.387 . S
H3056 C3063 0.950 . S
C3057 C3055 1.387 . S
C3057 C3059 1.390 . S
C3057 H3061 0.950 . S
H3058 C3054 0.950 . S
C3059 C3057 1.390 . S
C3059 C3060 1.387 . S
C3059 H3062 0.950 . S
C3060 C3059 1.387 . S
C3060 C3063 1.387 . S
H3061 C3057 0.950 . S
H3062 C3059 0.950 . S
C3063 C3054 1.390 . S
C3063 H3056 0.950 . S
C3063 C3060 1.387 . S
C3064 C3065 1.387 . S
C3064 H3068 0.950 . S
C3064 C3073 1.390 . S
C3065 C3064 1.387 . S
C3065 C3067 1.387 . S
H3066 C3073 0.950 . S
C3067 C3065 1.387 . S
C3067 C3069 1.390 . S
C3067 H3071 0.950 . S
H3068 C3064 0.950 . S
C3069 C3067 1.390 . S
C3069 C3070 1.387 . S
C3069 H3072 0.950 . S
C3070 C3069 1.387 . S
C3070 C3073 1.387 . S
H3071 C3067 0.950 . S
H3072 C3069 0.950 . S
C3073 C3064 1.390 . S
C3073 H3066 0.950 . S
C3073 C3070 1.387 . S
C3074 C3075 1.387 . S
C3074 H3078 0.950 . S
C3074 C3083 1.390 . S
C3075 C3074 1.387 . S
C3075 C3077 1.387 . S
H3076 C3083 0.950 . S
C3077 C3075 1.387 . S
C3077 C3079 1.390 . S
C3077 H3081 0.950 . S
H3078 C3074 0.950 . S
C3079 C3077 1.390 . S
C3079 C3080 1.387 . S
C3079 H3082 0.950 . S
C3080 C3079 1.387 . S
C3080 C3083 1.387 . S
H3081 C3077 0.950 . S
H3082 C3079 0.950 . S
C3083 C3074 1.390 . S
C3083 H3076 0.950 . S
C3083 C3080 1.387 . S
C3084 C3085 1.387 . S
C3084 H3088 0.950 . S
C3084 C3093 1.390 . S
C3085 C3084 1.387 . S
C3085 C3087 1.387 . S
H3086 C3093 0.950 . S
C3087 C3085 1.387 . S
C3087 C3089 1.390 . S
C3087 H3091 0.950 . S
H3088 C3084 0.950 . S
C3089 C3087 1.390 . S
C3089 C3090 1.387 . S
C3089 H3092 0.950 . S
C3090 C3089 1.387 . S
C3090 C3093 1.387 . S
H3091 C3087 0.950 . S
H3092 C3089 0.950 . S
C3093 C3084 1.390 . S
C3093 H3086 0.950 . S
C3093 C3090 1.387 . S
C3094 C3095 1.387 . S
C3094 H3098 0.950 . S
C3094 C3103 1.390 . S
C3095 C3094 1.387 . S
C3095 C3097 1.387 . S
H3096 C3103 0.950 . S
C3097 C3095 1.387 . S
C3097 C3099 1.390 . S
C3097 H3101 0.950 . S
H3098 C3094 0.950 . S
C3099 C3097 1.390 . S
C3099 C3100 1.387 . S
C3099 H3102 0.950 . S
C3100 C3099 1.387 . S
C3100 C3103 1.387 . S
H3101 C3097 0.950 . S
H3102 C3099 0.950 . S
C3103 C3094 1.390 . S
C3103 H3096 0.950 . S
C3103 C3100 1.387 . S
C3104 C3105 1.387 . S
C3104 H3108 0.950 . S
C3104 C3113 1.390 . S
C3105 C3104 1.387 . S
C3105 C3107 1.387 . S
H3106 C3113 0.950 . S
C3107 C3105 1.387 . S
C3107 C3109 1.390 . S
C3107 H3111 0.950 . S
H3108 C3104 0.950 . S
C3109 C3107 1.390 . S
C3109 C3110 1.387 . S
C3109 H3112 0.950 . S
C3110 C3109 1.387 . S
C3110 C3113 1.387 . S
H3111 C3107 0.950 . S
H3112 C3109 0.950 . S
C3113 C3104 1.390 . S
C3113 H3106 0.950 . S
C3113 C3110 1.387 . S
C3114 C3115 1.387 . S
C3114 H3118 0.950 . S
C3114 C3123 1.390 . S
C3115 C3114 1.387 . S
C3115 C3117 1.387 . S
H3116 C3123 0.950 . S
C3117 C3115 1.387 . S
C3117 C3119 1.390 . S
C3117 H3121 0.950 . S
H3118 C3114 0.950 . S
C3119 C3117 1.390 . S
C3119 C3120 1.387 . S
C3119 H3122 0.950 . S
C3120 C3119 1.387 . S
C3120 C3123 1.387 . S
H3121 C3117 0.950 . S
H3122 C3119 0.950 . S
C3123 C3114 1.390 . S
C3123 H3116 0.950 . S
C3123 C3120 1.387 . S
C3124 C3125 1.387 . S
C3124 H3128 0.950 . S
C3124 C3133 1.390 . S
C3125 C3124 1.387 . S
C3125 C3127 1.387 . S
H3126 C3133 0.950 . S
C3127 C3125 1.387 . S
C3127 C3129 1.390 . S
C3127 H3131 0.950 . S
H3128 C3124 0.950 . S
C3129 C3127 1.390 . S
C3129 C3130 1.387 . S
C3129 H3132 0.950 . S
C3130 C3129 1.387 . S
C3130 C3133 1.387 . S
H3131 C3127 0.950 . S
H3132 C3129 0.950 . S
C3133 C3124 1.390 . S
C3133 H3126 0.950 . S
C3133 C3130 1.387 . S
C3134 C3135 1.387 . S
C3134 H3138 0.950 . S
C3134 C3143 1.390 . S
C3135 C3134 1.387 . S
C3135 C3137 1.387 . S
H3136 C3143 0.950 . S
C3137 C3135 1.387 . S
C3137 C3139 1.390 . S
C3137 H3141 0.950 . S
H3138 C3134 0.950 . S
C3139 C3137 1.390 . S
C3139 C3140 1.387 . S
C3139 H3142 0.950 . S
C3140 C3139 1.387 . S
C3140 C3143 1.387 . S
H3141 C3137 0.950 . S
H3142 C3139 0.950 . S
C3143 C3134 1.390 . S
C3143 H3136 0.950 . S
C3143 C3140 1.387 . S
C3144 C3145 1.387 . S
C3144 H3148 0.950 . S
C3144 C3153 1.390 . S
C3145 C3144 1.387 . S
C3145 C3147 1.387 . S
H3146 C3153 0.950 . S
C3147 C3145 1.387 . S
C3147 C3149 1.390 . S
C3147 H3151 0.950 . S
H3148 C3144 0.950 . S
C3149 C3147 1.390 . S
C3149 C3150 1.387 . S
C3149 H3152 0.950 . S
C3150 C3149 1.387 . S
C3150 C3153 1.387 . S
H3151 C3147 0.950 . S
H3152 C3149 0.950 . S
C3153 C3144 1.390 . S
C3153 H3146 0.950 . S
C3153 C3150 1.387 . S
C3154 C3155 1.387 . S
C3154 H3158 0.950 . S
C3154 C3163 1.390 . S
C3155 C3154 1.387 . S
C3155 C3157 1.387 . S
H3156 C3163 0.950 . S
C3157 C3155 1.387 . S
C3157 C3159 1.390 . S
C3157 H3161 0.950 . S
H3158 C3154 0.950 . S
C3159 C3157 1.390 . S
C3159 C3160 1.387 . S
C3159 H3162 0.950 . S
C3160 C3159 1.387 . S
C3160 C3163 1.387 . S
H3161 C3157 0.950 . S
H3162 C3159 0.950 . S
C3163 C3154 1.390 . S
C3163 H3156 0.950 . S
C3163 C3160 1.387 . S
C3164 C3165 1.387 . S
C3164 H3168 0.950 . S
C3164 C3173 1.390 . S
C3165 C3164 1.387 . S
C3165 C3167 1.387 . S
H3166 C3173 0.950 . S
C3167 C3165 1.387 . S
C3167 C3169 1.390 . S
C3167 H3171 0.950 . S
H3168 C3164 0.950 . S
C3169 C3167 1.390 . S
C3169 C3170 1.387 . S
C3169 H3172 0.950 . S
C3170 C3169 1.387 . S
C3170 C3173 1.387 . S
H3171 C3167 0.950 . S
H3172 C3169 0.950 . S
C3173 C3164 1.390 . S
C3173 H3166 0.950 . S
C3173 C3170 1.387 . S
C3174 C3175 1.387 . S
C3174 H3178 0.950 . S
C3174 C3183 1.390 . S
C3175 C3174 1.387 . S
C3175 C3177 1.387 . S
H3176 C3183 0.950 . S
C3177 C3175 1.387 . S
C3177 C3179 1.390 . S
C3177 H3181 0.950 . S
H3178 C3174 0.950 . S
C3179 C3177 1.390 . S
C3179 C3180 1.387 . S
C3179 H3182 0.950 . S
C3180 C3179 1.387 . S
C3180 C3183 1.387 . S
H3181 C3177 0.950 . S
H3182 C3179 0.950 . S
C3183 C3174 1.390 . S
C3183 H3176 0.950 . S
C3183 C3180 1.387 . S
C3184 C3185 1.387 . S
C3184 H3188 0.950 . S
C3184 C3193 1.390 . S
C3185 C3184 1.387 . S
C3185 C3187 1.387 . S
H3186 C3193 0.950 . S
C3187 C3185 1.387 . S
C3187 C3189 1.390 . S
C3187 H3191 0.950 . S
H3188 C3184 0.950 . S
C3189 C3187 1.390 . S
C3189 C3190 1.387 . S
C3189 H3192 0.950 . S
C3190 C3189 1.387 . S
C3190 C3193 1.387 . S
H3191 C3187 0.950 . S
H3192 C3189 0.950 . S
C3193 C3184 1.390 . S
C3193 H3186 0.950 . S
C3193 C3190 1.387 . S
C3194 C3195 1.387 . S
C3194 H3198 0.950 . S
C3194 C3203 1.390 . S
C3195 C3194 1.387 . S
C3195 C3197 1.387 . S
H3196 C3203 0.950 . S
C3197 C3195 1.387 . S
C3197 C3199 1.390 . S
C3197 H3201 0.950 . S
H3198 C3194 0.950 . S
C3199 C3197 1.390 . S
C3199 C3200 1.387 . S
C3199 H3202 0.950 . S
C3200 C3199 1.387 . S
C3200 C3203 1.387 . S
H3201 C3197 0.950 . S
H3202 C3199 0.950 . S
C3203 C3194 1.390 . S
C3203 H3196 0.950 . S
C3203 C3200 1.387 . S
C3204 C3205 1.387 . S
C3204 H3208 0.950 . S
C3204 C3213 1.390 . S
C3205 C3204 1.387 . S
C3205 C3207 1.387 . S
H3206 C3213 0.950 . S
C3207 C3205 1.387 . S
C3207 C3209 1.390 . S
C3207 H3211 0.950 . S
H3208 C3204 0.950 . S
C3209 C3207 1.390 . S
C3209 C3210 1.387 . S
C3209 H3212 0.950 . S
C3210 C3209 1.387 . S
C3210 C3213 1.387 . S
H3211 C3207 0.950 . S
H3212 C3209 0.950 . S
C3213 C3204 1.390 . S
C3213 H3206 0.950 . S
C3213 C3210 1.387 . S
C3214 C3215 1.387 . S
C3214 H3218 0.950 . S
C3214 C3223 1.390 . S
C3215 C3214 1.387 . S
C3215 C3217 1.387 . S
H3216 C3223 0.950 . S
C3217 C3215 1.387 . S
C3217 C3219 1.390 . S
C3217 H3221 0.950 . S
H3218 C3214 0.950 . S
C3219 C3217 1.390 . S
C3219 C3220 1.387 . S
C3219 H3222 0.950 . S
C3220 C3219 1.387 . S
C3220 C3223 1.387 . S
H3221 C3217 0.950 . S
H3222 C3219 0.950 . S
C3223 C3214 1.390 . S
C3223 H3216 0.950 . S
C3223 C3220 1.387 . S
C3224 C3225 1.387 . S
C3224 H3228 0.950 . S
C3224 C3233 1.390 . S
C3225 C3224 1.387 . S
C3225 C3227 1.387 . S
H3226 C3233 0.950 . S
C3227 C3225 1.387 . S
C3227 C3229 1.390 . S
C3227 H3231 0.950 . S
H3228 C3224 0.950 . S
C3229 C3227 1.390 . S
C3229 C3230 1.387 . S
C3229 H3232 0.950 . S
C3230 C3229 1.387 . S
C3230 C3233 1.387 . S
H3231 C3227 0.950 . S
H3232 C3229 0.950 . S
C3233 C3224 1.390 . S
C3233 H3226 0.950 . S
C3233 C3230 1.387 . S
C3234 C3235 1.387 . S
C3234 H3238 0.950 . S
C3234 C3243 1.390 . S
C3235 C3234 1.387 . S
C3235 C3237 1.387 . S
H3236 C3243 0.950 . S
C3237 C3235 1.387 . S
C3237 C3239 1.390 . S
C3237 H3241 0.950 . S
H3238 C3234 0.950 . S
C3239 C3237 1.390 . S
C3239 C3240 1.387 . S
C3239 H3242 0.950 . S
C3240 C3239 1.387 . S
C3240 C3243 1.387 . S
H3241 C3237 0.950 . S
H3242 C3239 0.950 . S
C3243 C3234 1.390 . S
C3243 H3236 0.950 . S
C3243 C3240 1.387 . S
C3244 C3245 1.387 . S
C3244 H3248 0.950 . S
C3244 C3253 1.390 . S
C3245 C3244 1.387 . S
C3245 C3247 1.387 . S
H3246 C3253 0.950 . S
C3247 C3245 1.387 . S
C3247 C3249 1.390 . S
C3247 H3251 0.950 . S
H3248 C3244 0.950 . S
C3249 C3247 1.390 . S
C3249 C3250 1.387 . S
C3249 H3252 0.950 . S
C3250 C3249 1.387 . S
C3250 C3253 1.387 . S
H3251 C3247 0.950 . S
H3252 C3249 0.950 . S
C3253 C3244 1.390 . S
C3253 H3246 0.950 . S
C3253 C3250 1.387 . S
C3254 C3255 1.387 . S
C3254 H3258 0.950 . S
C3254 C3263 1.390 . S
C3255 C3254 1.387 . S
C3255 C3257 1.387 . S
H3256 C3263 0.950 . S
C3257 C3255 1.387 . S
C3257 C3259 1.390 . S
C3257 H3261 0.950 . S
H3258 C3254 0.950 . S
C3259 C3257 1.390 . S
C3259 C3260 1.387 . S
C3259 H3262 0.950 . S
C3260 C3259 1.387 . S
C3260 C3263 1.387 . S
H3261 C3257 0.950 . S
H3262 C3259 0.950 . S
C3263 C3254 1.390 . S
C3263 H3256 0.950 . S
C3263 C3260 1.387 . S
C1345 C357 2.586 . S
C1350 C7 2.587 . S
C1355 C21 2.586 . S
C1360 C1043 2.585 . S
C1365 C385 2.585 . S
C1370 C35 2.585 . S
C1375 C1015 2.587 . S
C1380 C49 2.587 . S
C1385 C441 2.585 . S
C1390 C63 2.585 . S
C1395 C1071 2.587 . S
C1400 C77 2.587 . S
C1405 C413 2.584 . S
C1410 C91 2.586 . S
C1415 C105 2.585 . S
C1420 C1099 2.585 . S
C1425 C1323 2.585 . S
C1430 C119 2.585 . S
C1435 C1239 2.587 . S
C1440 C133 2.587 . S
C1445 C1337 2.586 . S
C1450 C147 2.587 . S
C1455 C1309 2.586 . S
C1460 C161 2.587 . S
C1465 C175 2.585 . S
C1470 C1267 2.585 . S
C1475 C189 2.586 . S
C1480 C609 2.584 . S
C1485 C623 2.585 . S
C1490 C203 2.585 . S
C1495 C217 2.585 . S
C1500 C581 2.585 . S
C1505 C1197 2.585 . S
C1510 C231 2.585 . S
C1515 C497 2.585 . S
C1520 C245 2.586 . S
C1525 C1127 2.585 . S
C1530 C259 2.585 . S
C1535 C469 2.585 . S
C1540 C273 2.586 . S
C1545 C287 2.587 . S
C1550 C483 2.586 . S
C1555 C1225 2.587 . S
C1560 C301 2.587 . S
C1565 C315 2.585 . S
C1570 C1183 2.585 . S
C1575 C1211 2.586 . S
C1580 C329 2.587 . S
C1585 C17 2.438 . S
C1590 C339 2.442 . S
C1595 C703 2.441 . S
C1600 C353 2.444 . S
C1605 C45 2.441 . S
C1610 C367 2.444 . S
C1615 C381 2.444 . S
C1620 C675 2.441 . S
C1625 C101 2.438 . S
C1630 C395 2.443 . S
C1635 C409 2.444 . S
C1640 C731 2.441 . S
C1645 C73 2.441 . S
C1650 C423 2.444 . S
C1655 C437 2.441 . S
C1660 C759 2.438 . S
C1665 C983 2.441 . S
C1670 C451 2.444 . S
C1675 C465 2.444 . S
C1680 C899 2.441 . S
C1685 C479 2.441 . S
C1690 C997 2.438 . S
C1695 C969 2.441 . S
C1700 C493 2.444 . S
C1705 C927 2.438 . S
C1710 C507 2.441 . S
C1715 C521 2.442 . S
C1720 C269 2.441 . S
C1725 C283 2.438 . S
C1730 C535 2.441 . S
C1735 C241 2.441 . S
C1740 C549 2.443 . S
C1745 C857 2.438 . S
C1750 C563 2.441 . S
C1755 C157 2.439 . S
C1760 C577 2.441 . S
C1765 C787 2.438 . S
C1770 C591 2.441 . S
C1775 C605 2.441 . S
C1780 C129 2.438 . S
C1785 C619 2.441 . S
C1790 C143 2.438 . S
C1795 C885 2.441 . S
C1800 C633 2.444 . S
C1805 C843 2.441 . S
C1810 C647 2.444 . S
C1815 C871 2.438 . S
C1820 C661 2.441 . S
C1825 C1029 2.587 . S
C1830 C679 2.587 . S
C1835 C693 2.585 . S
C1840 C371 2.585 . S
C1845 C707 2.586 . S
C1850 C1057 2.584 . S
C1855 C721 2.585 . S
C1860 C343 2.585 . S
C1865 C735 2.586 . S
C1870 C1113 2.585 . S
C1875 C399 2.585 . S
C1880 C749 2.585 . S
C1885 C763 2.585 . S
C1890 C1085 2.585 . S
C1895 C427 2.586 . S
C1900 C777 2.587 . S
C1905 C791 2.587 . S
C1910 C651 2.586 . S
C1915 C567 2.587 . S
C1920 C805 2.586 . S
C1925 C665 2.586 . S
C1930 C819 2.587 . S
C1935 C833 2.585 . S
C1940 C637 2.585 . S
C1945 C595 2.585 . S
C1950 C847 2.585 . S
C1955 C1281 2.584 . S
C1960 C861 2.587 . S
C1965 C1295 2.585 . S
C1970 C875 2.585 . S
C1975 C1253 2.587 . S
C1980 C889 2.585 . S
C1985 C525 2.585 . S
C1990 C903 2.585 . S
C1995 C1169 2.585 . S
C2000 C917 2.586 . S
C2005 C931 2.587 . S
C2010 C455 2.586 . S
C2015 C945 2.586 . S
C2020 C1141 2.585 . S
C2025 C1155 2.586 . S
C2030 C959 2.587 . S
C2035 C973 2.587 . S
C2040 C553 2.587 . S
C2045 C511 2.585 . S
C2050 C987 2.585 . S
C2055 C539 2.585 . S
C2060 C1001 2.585 . S
C2065 C1011 2.442 . S
C2070 C689 2.438 . S
C2075 C31 2.441 . S
C2080 C1025 2.443 . S
C2085 C1039 2.443 . S
C2090 C717 2.441 . S
C2095 C3 2.441 . S
C2100 C1053 2.444 . S
C2105 C1067 2.441 . S
C2110 C773 2.438 . S
C2115 C1081 2.444 . S
C2120 C59 2.441 . S
C2125 C1095 2.441 . S
C2130 C745 2.438 . S
C2135 C87 2.441 . S
C2140 C1109 2.444 . S
C2145 C1123 2.444 . S
C2150 C311 2.441 . S
C2155 C227 2.441 . S
C2160 C1137 2.444 . S
C2165 C1151 2.441 . S
C2170 C325 2.438 . S
C2175 C297 2.441 . S
C2180 C1165 2.442 . S
C2185 C1179 2.441 . S
C2190 C255 2.438 . S
C2195 C1193 2.444 . S
C2200 C941 2.441 . S
C2205 C1207 2.444 . S
C2210 C955 2.441 . S
C2215 C1221 2.441 . S
C2220 C913 2.438 . S
C2225 C1235 2.444 . S
C2230 C185 2.441 . S
C2235 C829 2.438 . S
C2240 C1249 2.441 . S
C2245 C1263 2.444 . S
C2250 C115 2.441 . S
C2255 C801 2.438 . S
C2260 C1277 2.441 . S
C2265 C1291 2.444 . S
C2270 C815 2.441 . S
C2275 C213 2.438 . S
C2280 C1305 2.441 . S
C2285 C1319 2.441 . S
C2290 C171 2.438 . S
C2295 C1333 2.444 . S
C2300 C199 2.441 . S
C2305 C709 1.029 . S
C2310 C9 1.029 . S
C2315 C723 1.029 . S
C2320 C23 1.029 . S
C2325 C681 1.029 . S
C2330 C37 1.029 . S
C2335 C695 1.029 . S
C2340 C51 1.029 . S
C2345 C65 1.029 . S
C2350 C765 1.029 . S
C2355 C779 1.029 . S
C2360 C79 1.029 . S
C2365 C93 1.029 . S
C2370 C737 1.029 . S
C2375 C751 1.029 . S
C2380 C107 1.029 . S
C2385 C121 1.029 . S
C2390 C177 1.029 . S
C2395 C191 1.029 . S
C2400 C135 1.029 . S
C2405 C149 1.029 . S
C2410 C205 1.029 . S
C2415 C219 1.029 . S
C2420 C163 1.029 . S
C2425 C233 1.029 . S
C2430 C947 1.029 . S
C2435 C975 1.029 . S
C2440 C247 1.029 . S
C2445 C261 1.029 . S
C2450 C317 1.029 . S
C2455 C905 1.029 . S
C2460 C275 1.029 . S
C2465 C289 1.029 . S
C2470 C1003 1.029 . S
C2475 C919 1.029 . S
C2480 C303 1.029 . S
C2485 C331 1.029 . S
C2490 C961 1.029 . S
C2495 C1045 1.004 . S
C2500 C345 1.004 . S
C2505 C359 1.004 . S
C2510 C1059 1.004 . S
C2515 C1017 1.004 . S
C2520 C373 1.004 . S
C2525 C387 1.004 . S
C2530 C1031 1.004 . S
C2535 C1101 1.003 . S
C2540 C401 1.003 . S
C2545 C1115 1.003 . S
C2550 C415 1.003 . S
C2555 C1073 1.003 . S
C2560 C429 1.003 . S
C2565 C443 1.003 . S
C2570 C1087 1.003 . S
C2575 C457 1.004 . S
C2580 C513 1.004 . S
C2585 C527 1.004 . S
C2590 C471 1.004 . S
C2595 C485 1.004 . S
C2600 C541 1.004 . S
C2605 C499 1.003 . S
C2610 C555 1.003 . S
C2615 C569 1.003 . S
C2620 C1283 1.003 . S
C2625 C1311 1.004 . S
C2630 C583 1.004 . S
C2635 C653 1.003 . S
C2640 C597 1.003 . S
C2645 C1241 1.003 . S
C2650 C611 1.003 . S
C2655 C625 1.003 . S
C2660 C1339 1.003 . S
C2665 C639 1.004 . S
C2670 C1255 1.004 . S
C2675 C1297 1.003 . S
C2680 C667 1.003 . S
C2685 C793 1.029 . S
C2690 C849 1.029 . S
C2695 C807 1.029 . S
C2700 C863 1.029 . S
C2705 C821 1.029 . S
C2710 C877 1.029 . S
C2715 C891 1.029 . S
C2720 C835 1.029 . S
C2725 C989 1.029 . S
C2730 C933 1.029 . S
C2735 C1129 1.004 . S
C2740 C1185 1.004 . S
C2745 C1143 1.004 . S
C2750 C1199 1.004 . S
C2755 C1213 1.004 . S
C2760 C1157 1.004 . S
C2765 C1171 1.003 . S
C2770 C1227 1.003 . S
C2775 C1325 1.004 . S
C2780 C1269 1.004 . S
C2785 C8 1.466 . S
C2790 C316 1.465 . S
C2795 C22 1.466 . S
C2800 C904 1.465 . S
C2805 C330 1.466 . S
C2810 C36 1.465 . S
C2815 C50 1.465 . S
C2820 C974 1.466 . S
C2825 C64 1.465 . S
C2830 C260 1.466 . S
C2835 C78 1.465 . S
C2840 C274 1.466 . S
C2845 C92 1.466 . S
C2850 C960 1.465 . S
C2855 C246 1.465 . S
C2860 C106 1.465 . S
C2865 C120 1.465 . S
C2870 C190 1.466 . S
C2875 C134 1.465 . S
C2880 C204 1.466 . S
C2885 C148 1.465 . S
C2890 C218 1.466 . S
C2895 C176 1.465 . S
C2900 C162 1.466 . S
C2905 C694 1.466 . S
C2910 C232 1.465 . S
C2915 C764 1.465 . S
C2920 C288 1.466 . S
C2925 C302 1.465 . S
C2930 C722 1.465 . S
C2935 C344 1.438 . S
C2940 C652 1.438 . S
C2945 C1240 1.438 . S
C2950 C358 1.438 . S
C2955 C372 1.437 . S
C2960 C666 1.437 . S
C2965 C386 1.438 . S
C2970 C1310 1.438 . S
C2975 C400 1.437 . S
C2980 C596 1.437 . S
C2985 C414 1.437 . S
C2990 C610 1.437 . S
C2995 C428 1.437 . S
C3000 C1296 1.437 . S
C3005 C442 1.437 . S
C3010 C582 1.437 . S
C3015 C526 1.438 . S
C3020 C456 1.437 . S
C3025 C470 1.438 . S
C3030 C540 1.438 . S
C3035 C554 1.438 . S
C3040 C484 1.438 . S
C3045 C512 1.437 . S
C3050 C498 1.437 . S
C3055 C1030 1.438 . S
C3060 C568 1.438 . S
C3065 C624 1.437 . S
C3070 C1100 1.438 . S
C3075 C1058 1.437 . S
C3080 C638 1.437 . S
C3085 C988 1.466 . S
C3090 C680 1.465 . S
C3095 C1002 1.465 . S
C3100 C708 1.466 . S
C3105 C736 1.465 . S
C3110 C932 1.465 . S
C3115 C946 1.466 . S
C3120 C750 1.465 . S
C3125 C778 1.465 . S
C3130 C918 1.466 . S
C3135 C792 1.465 . S
C3140 C862 1.466 . S
C3145 C806 1.465 . S
C3150 C876 1.466 . S
C3155 C820 1.465 . S
C3160 C890 1.466 . S
C3165 C848 1.466 . S
C3170 C834 1.465 . S
C3175 C1324 1.438 . S
C3180 C1016 1.438 . S
C3185 C1044 1.438 . S
C3190 C1338 1.437 . S
C3195 C1268 1.438 . S
C3200 C1072 1.438 . S
C3205 C1086 1.437 . S
C3210 C1282 1.437 . S
C3215 C1254 1.438 . S
C3220 C1114 1.438 . S
C3225 C1198 1.437 . S
C3230 C1128 1.437 . S
C3235 C1142 1.437 . S
C3240 C1212 1.438 . S
C3245 C1156 1.438 . S
C3250 C1226 1.438 . S
C3255 C1170 1.438 . S
C3260 C1184 1.438 . S
