# Generated by pormake.
# Topology uke, (4)-cn, num edge types: 1
# Building blocks:
#     Node 0, Type 0, BuildingBlock: QUQFOY_clean_sbu_1, # of connection points: 4
#     Node 1, Type 0, BuildingBlock: QUQFOY_clean_sbu_1, # of connection points: 4
#     Node 2, Type 0, BuildingBlock: QUQFOY_clean_sbu_1, # of connection points: 4
#     Node 3, Type 0, BuildingBlock: QUQFOY_clean_sbu_1, # of connection points: 4
#     Node 4, Type 0, BuildingBlock: QUQFOY_clean_sbu_1, # of connection points: 4
#     Node 5, Type 0, BuildingBlock: QUQFOY_clean_sbu_1, # of connection points: 4
#     Node 6, Type 0, BuildingBlock: QUQFOY_clean_sbu_1, # of connection points: 4
#     Node 7, Type 0, BuildingBlock: QUQFOY_clean_sbu_1, # of connection points: 4
#     Node 8, Type 0, BuildingBlock: QUQFOY_clean_sbu_1, # of connection points: 4
#     Node 9, Type 0, BuildingBlock: QUQFOY_clean_sbu_1, # of connection points: 4
#     Node 10, Type 0, BuildingBlock: QUQFOY_clean_sbu_1, # of connection points: 4
#     Node 11, Type 0, BuildingBlock: QUQFOY_clean_sbu_1, # of connection points: 4
#     Node 12, Type 0, BuildingBlock: QUQFOY_clean_sbu_1, # of connection points: 4
#     Node 13, Type 0, BuildingBlock: QUQFOY_clean_sbu_1, # of connection points: 4
#     Node 14, Type 0, BuildingBlock: QUQFOY_clean_sbu_1, # of connection points: 4
#     Node 15, Type 0, BuildingBlock: QUQFOY_clean_sbu_1, # of connection points: 4
#     Node 16, Type 0, BuildingBlock: QUQFOY_clean_sbu_1, # of connection points: 4
#     Node 17, Type 0, BuildingBlock: QUQFOY_clean_sbu_1, # of connection points: 4
#     Node 18, Type 0, BuildingBlock: QUQFOY_clean_sbu_1, # of connection points: 4
#     Node 19, Type 0, BuildingBlock: QUQFOY_clean_sbu_1, # of connection points: 4
#     Node 20, Type 0, BuildingBlock: QUQFOY_clean_sbu_1, # of connection points: 4
#     Node 21, Type 0, BuildingBlock: QUQFOY_clean_sbu_1, # of connection points: 4
#     Node 22, Type 0, BuildingBlock: QUQFOY_clean_sbu_1, # of connection points: 4
#     Node 23, Type 0, BuildingBlock: QUQFOY_clean_sbu_1, # of connection points: 4
#     Node 24, Type 0, BuildingBlock: QUQFOY_clean_sbu_1, # of connection points: 4
#     Node 25, Type 0, BuildingBlock: QUQFOY_clean_sbu_1, # of connection points: 4
#     Node 26, Type 0, BuildingBlock: QUQFOY_clean_sbu_1, # of connection points: 4
#     Node 27, Type 0, BuildingBlock: QUQFOY_clean_sbu_1, # of connection points: 4
#     Node 28, Type 0, BuildingBlock: QUQFOY_clean_sbu_1, # of connection points: 4
#     Node 29, Type 0, BuildingBlock: QUQFOY_clean_sbu_1, # of connection points: 4
#     Node 30, Type 0, BuildingBlock: QUQFOY_clean_sbu_1, # of connection points: 4
#     Node 31, Type 0, BuildingBlock: QUQFOY_clean_sbu_1, # of connection points: 4
#     Edge 32, Type (0, 0), BuildingBlock: OJICUG_clean_linker_0, # of connection points: 2
#     Edge 33, Type (0, 0), BuildingBlock: OJICUG_clean_linker_0, # of connection points: 2
#     Edge 34, Type (0, 0), BuildingBlock: OJICUG_clean_linker_0, # of connection points: 2
#     Edge 35, Type (0, 0), BuildingBlock: OJICUG_clean_linker_0, # of connection points: 2
#     Edge 36, Type (0, 0), BuildingBlock: OJICUG_clean_linker_0, # of connection points: 2
#     Edge 37, Type (0, 0), BuildingBlock: OJICUG_clean_linker_0, # of connection points: 2
#     Edge 38, Type (0, 0), BuildingBlock: OJICUG_clean_linker_0, # of connection points: 2
#     Edge 39, Type (0, 0), BuildingBlock: OJICUG_clean_linker_0, # of connection points: 2
#     Edge 40, Type (0, 0), BuildingBlock: OJICUG_clean_linker_0, # of connection points: 2
#     Edge 41, Type (0, 0), BuildingBlock: OJICUG_clean_linker_0, # of connection points: 2
#     Edge 42, Type (0, 0), BuildingBlock: OJICUG_clean_linker_0, # of connection points: 2
#     Edge 43, Type (0, 0), BuildingBlock: OJICUG_clean_linker_0, # of connection points: 2
#     Edge 44, Type (0, 0), BuildingBlock: OJICUG_clean_linker_0, # of connection points: 2
#     Edge 45, Type (0, 0), BuildingBlock: OJICUG_clean_linker_0, # of connection points: 2
#     Edge 46, Type (0, 0), BuildingBlock: OJICUG_clean_linker_0, # of connection points: 2
#     Edge 47, Type (0, 0), BuildingBlock: OJICUG_clean_linker_0, # of connection points: 2
#     Edge 48, Type (0, 0), BuildingBlock: OJICUG_clean_linker_0, # of connection points: 2
#     Edge 49, Type (0, 0), BuildingBlock: OJICUG_clean_linker_0, # of connection points: 2
#     Edge 50, Type (0, 0), BuildingBlock: OJICUG_clean_linker_0, # of connection points: 2
#     Edge 51, Type (0, 0), BuildingBlock: OJICUG_clean_linker_0, # of connection points: 2
#     Edge 52, Type (0, 0), BuildingBlock: OJICUG_clean_linker_0, # of connection points: 2
#     Edge 53, Type (0, 0), BuildingBlock: OJICUG_clean_linker_0, # of connection points: 2
#     Edge 54, Type (0, 0), BuildingBlock: OJICUG_clean_linker_0, # of connection points: 2
#     Edge 55, Type (0, 0), BuildingBlock: OJICUG_clean_linker_0, # of connection points: 2
#     Edge 56, Type (0, 0), BuildingBlock: OJICUG_clean_linker_0, # of connection points: 2
#     Edge 57, Type (0, 0), BuildingBlock: OJICUG_clean_linker_0, # of connection points: 2
#     Edge 58, Type (0, 0), BuildingBlock: OJICUG_clean_linker_0, # of connection points: 2
#     Edge 59, Type (0, 0), BuildingBlock: OJICUG_clean_linker_0, # of connection points: 2
#     Edge 60, Type (0, 0), BuildingBlock: OJICUG_clean_linker_0, # of connection points: 2
#     Edge 61, Type (0, 0), BuildingBlock: OJICUG_clean_linker_0, # of connection points: 2
#     Edge 62, Type (0, 0), BuildingBlock: OJICUG_clean_linker_0, # of connection points: 2
#     Edge 63, Type (0, 0), BuildingBlock: OJICUG_clean_linker_0, # of connection points: 2
#     Edge 64, Type (0, 0), BuildingBlock: OJICUG_clean_linker_0, # of connection points: 2
#     Edge 65, Type (0, 0), BuildingBlock: OJICUG_clean_linker_0, # of connection points: 2
#     Edge 66, Type (0, 0), BuildingBlock: OJICUG_clean_linker_0, # of connection points: 2
#     Edge 67, Type (0, 0), BuildingBlock: OJICUG_clean_linker_0, # of connection points: 2
#     Edge 68, Type (0, 0), BuildingBlock: OJICUG_clean_linker_0, # of connection points: 2
#     Edge 69, Type (0, 0), BuildingBlock: OJICUG_clean_linker_0, # of connection points: 2
#     Edge 70, Type (0, 0), BuildingBlock: OJICUG_clean_linker_0, # of connection points: 2
#     Edge 71, Type (0, 0), BuildingBlock: OJICUG_clean_linker_0, # of connection points: 2
#     Edge 72, Type (0, 0), BuildingBlock: OJICUG_clean_linker_0, # of connection points: 2
#     Edge 73, Type (0, 0), BuildingBlock: OJICUG_clean_linker_0, # of connection points: 2
#     Edge 74, Type (0, 0), BuildingBlock: OJICUG_clean_linker_0, # of connection points: 2
#     Edge 75, Type (0, 0), BuildingBlock: OJICUG_clean_linker_0, # of connection points: 2
#     Edge 76, Type (0, 0), BuildingBlock: OJICUG_clean_linker_0, # of connection points: 2
#     Edge 77, Type (0, 0), BuildingBlock: OJICUG_clean_linker_0, # of connection points: 2
#     Edge 78, Type (0, 0), BuildingBlock: OJICUG_clean_linker_0, # of connection points: 2
#     Edge 79, Type (0, 0), BuildingBlock: OJICUG_clean_linker_0, # of connection points: 2
#     Edge 80, Type (0, 0), BuildingBlock: OJICUG_clean_linker_0, # of connection points: 2
#     Edge 81, Type (0, 0), BuildingBlock: OJICUG_clean_linker_0, # of connection points: 2
#     Edge 82, Type (0, 0), BuildingBlock: OJICUG_clean_linker_0, # of connection points: 2
#     Edge 83, Type (0, 0), BuildingBlock: OJICUG_clean_linker_0, # of connection points: 2
#     Edge 84, Type (0, 0), BuildingBlock: OJICUG_clean_linker_0, # of connection points: 2
#     Edge 85, Type (0, 0), BuildingBlock: OJICUG_clean_linker_0, # of connection points: 2
#     Edge 86, Type (0, 0), BuildingBlock: OJICUG_clean_linker_0, # of connection points: 2
#     Edge 87, Type (0, 0), BuildingBlock: OJICUG_clean_linker_0, # of connection points: 2
#     Edge 88, Type (0, 0), BuildingBlock: OJICUG_clean_linker_0, # of connection points: 2
#     Edge 89, Type (0, 0), BuildingBlock: OJICUG_clean_linker_0, # of connection points: 2
#     Edge 90, Type (0, 0), BuildingBlock: OJICUG_clean_linker_0, # of connection points: 2
#     Edge 91, Type (0, 0), BuildingBlock: OJICUG_clean_linker_0, # of connection points: 2
#     Edge 92, Type (0, 0), BuildingBlock: OJICUG_clean_linker_0, # of connection points: 2
#     Edge 93, Type (0, 0), BuildingBlock: OJICUG_clean_linker_0, # of connection points: 2
#     Edge 94, Type (0, 0), BuildingBlock: OJICUG_clean_linker_0, # of connection points: 2
#     Edge 95, Type (0, 0), BuildingBlock: OJICUG_clean_linker_0, # of connection points: 2
# Relax obj value: 0.019
# Max RMSD: 0.075
# Mean RMSD: 0.075
data_MOF--net-uke--node1-QUQFOY_clean_sbu_1--edge1-OJICUG_clean_linker_0
_symmetry_space_group_name_H-M    P1
_symmetry_Int_Tables_number       1
_symmetry_cell_setting            triclinic
loop_
_symmetry_equiv_pos_as_xyz
'x, y, z'
_cell_length_a     19.147479
_cell_length_b     80.927286
_cell_length_c     37.73688
_cell_angle_alpha  89.970876
_cell_angle_beta   89.998444
_cell_angle_gamma 89.998913
loop_
_atom_site_label
_atom_site_type_symbol
_atom_site_fract_x
_atom_site_fract_y
_atom_site_fract_z
_atom_type_partial_charge
O0 O 0.07375 0.1124 0.29948 0.0
Cd1 Cd 0.0491 0.08842 0.28634 0.0
Cd2 Cd 0.18288 0.08652 0.28698 0.0
O3 O 0.17912 0.10703 0.32001 0.0
O4 O 0.95035 0.08459 0.30249 0.0
O5 O 0.04234 0.07381 0.32942 0.0
C6 C 0.97582 0.07647 0.32902 0.0
C7 C 0.22297 0.05967 0.29004 0.0
C8 C 0.12815 0.11702 0.31609 0.0
C9 C 0.12285 0.08632 0.21728 0.0
O10 O 0.17348 0.09205 0.235 0.0
O11 O 0.06737 0.08161 0.23322 0.0
O12 O 0.26657 0.07188 0.28851 0.0
O13 O 0.15773 0.06297 0.29548 0.0
O14 O 0.20813 0.19183 0.29918 0.0
Cd15 Cd 0.23267 0.21583 0.28607 0.0
Cd16 Cd 0.09887 0.21769 0.28659 0.0
O17 O 0.10273 0.19719 0.3197 0.0
O18 O 0.33135 0.21971 0.30229 0.0
O19 O 0.23915 0.2304 0.32919 0.0
C20 C 0.30571 0.22779 0.32881 0.0
C21 C 0.05936 0.24458 0.28965 0.0
C22 C 0.15374 0.1872 0.31581 0.0
C23 C 0.15893 0.21799 0.21697 0.0
O24 O 0.10836 0.21217 0.23462 0.0
O25 O 0.21429 0.22271 0.23298 0.0
O26 O 1.01547 0.23242 0.28814 0.0
O27 O 0.12452 0.24119 0.29505 0.0
O28 O 0.0757 0.1923 0.98286 0.0
Cd29 Cd 0.05174 0.21633 0.99592 0.0
Cd30 Cd 0.18559 0.21801 0.99528 0.0
O31 O 0.18125 0.19748 0.96232 0.0
O32 O 0.95305 0.22022 0.97982 0.0
O33 O 0.04514 0.2309 0.95277 0.0
C34 C 0.97858 0.22828 0.95321 0.0
C35 C 0.22685 0.24476 0.99211 0.0
C36 C 0.12995 0.18758 0.96626 0.0
C37 C 0.12535 0.21834 0.06498 0.0
O38 O 0.17588 0.21254 0.04728 0.0
O39 O 0.07002 0.22312 0.04902 0.0
O40 O 0.26991 0.23244 0.99376 0.0
O41 O 0.16149 0.24161 0.98663 0.0
O42 O 0.20699 0.11262 0.98326 0.0
Cd43 Cd 0.23072 0.08857 0.9963 0.0
Cd44 Cd 0.09687 0.08695 0.99563 0.0
O45 O 0.10154 0.10746 0.96258 0.0
O46 O 0.32935 0.08459 0.98016 0.0
O47 O 0.23702 0.07405 0.95311 0.0
C48 C 0.30363 0.07659 0.95354 0.0
C49 C 0.05611 0.06016 0.99248 0.0
C50 C 0.15286 0.11735 0.96656 0.0
C51 C 0.15683 0.08651 0.06531 0.0
O52 O 0.10647 0.09241 0.04763 0.0
O53 O 0.21209 0.0817 0.04934 0.0
O54 O 1.0128 0.07243 0.99403 0.0
O55 O 0.12143 0.06338 0.98708 0.0
O56 O 0.95378 0.942 0.73292 0.0
Cd57 Cd 0.97787 0.96603 0.74592 0.0
Cd58 Cd 0.84401 0.96772 0.74548 0.0
O59 O 0.84823 0.94721 0.71244 0.0
O60 O 0.07653 0.96995 0.72974 0.0
O61 O 0.9843 0.98057 0.70273 0.0
C62 C 0.05088 0.97799 0.70315 0.0
C63 C 0.80407 0.99457 0.74236 0.0
C64 C 0.89948 0.9373 0.71633 0.0
C65 C 0.90428 0.96811 0.81506 0.0
O66 O 0.85377 0.96223 0.79746 0.0
O67 O 0.95948 0.9729 0.79899 0.0
O68 O 0.76037 0.98238 0.74394 0.0
O69 O 0.86927 0.99124 0.73691 0.0
O70 O 0.82181 0.86237 0.73299 0.0
Cd71 Cd 0.79788 0.83833 0.74606 0.0
Cd72 Cd 0.93169 0.83662 0.74527 0.0
O73 O 0.92721 0.85716 0.7123 0.0
O74 O 0.69923 0.83442 0.72992 0.0
O75 O 0.79144 0.82378 0.70292 0.0
C76 C 0.72487 0.82638 0.70333 0.0
C77 C 0.97324 0.80989 0.74208 0.0
C78 C 0.87598 0.86708 0.7163 0.0
C79 C 0.87171 0.83627 0.81504 0.0
O80 O 0.92218 0.84207 0.79728 0.0
O81 O 0.81628 0.83152 0.79916 0.0
O82 O 1.01616 0.82224 0.74369 0.0
O83 O 0.90783 0.81301 0.73664 0.0
O84 O 0.95615 0.86277 0.04905 0.0
Cd85 Cd 0.98037 0.83875 0.03596 0.0
Cd86 Cd 0.84653 0.83698 0.03666 0.0
O87 O 0.85083 0.85747 0.06974 0.0
O88 O 0.07909 0.83479 0.05207 0.0
O89 O 0.98688 0.82418 0.07912 0.0
C90 C 0.05347 0.82674 0.07865 0.0
C91 C 0.80699 0.8101 0.03975 0.0
C92 C 0.90192 0.86742 0.06575 0.0
C93 C 0.90618 0.83664 0.96698 0.0
O94 O 0.8558 0.84252 0.98468 0.0
O95 O 0.96154 0.83187 0.98293 0.0
O96 O 0.7631 0.82226 0.03833 0.0
O97 O 0.87218 0.81348 0.04507 0.0
O98 O 0.82258 0.94227 0.04934 0.0
Cd99 Cd 0.79801 0.96627 0.03623 0.0
Cd100 Cd 0.9318 0.96814 0.03673 0.0
O101 O 0.92811 0.94759 0.06972 0.0
O102 O 0.69931 0.97006 0.05244 0.0
O103 O 0.79131 0.98085 0.07932 0.0
C104 C 0.7248 0.97817 0.07896 0.0
C105 C 0.9725 0.99493 0.03987 0.0
C106 C 0.87704 0.93762 0.06587 0.0
C107 C 0.8713 0.96839 0.96708 0.0
O108 O 0.92206 0.96267 0.98474 0.0
O109 O 0.81589 0.97308 0.98309 0.0
O110 O 1.01581 0.98267 0.03819 0.0
O111 O 0.90722 0.9917 0.0454 0.0
O112 O 0.07932 0.61268 0.79866 0.0
Cd113 Cd 0.05555 0.58863 0.78572 0.0
Cd114 Cd 0.18941 0.58701 0.78631 0.0
O115 O 0.18481 0.60753 0.8193 0.0
O116 O 0.95692 0.58466 0.8019 0.0
O117 O 0.04926 0.57412 0.82897 0.0
C118 C 0.98266 0.57666 0.82853 0.0
C119 C 0.23001 0.56021 0.7895 0.0
C120 C 0.13349 0.61742 0.81531 0.0
C121 C 0.12933 0.58655 0.71667 0.0
O122 O 0.1797 0.59247 0.73431 0.0
O123 O 0.07412 0.58173 0.73269 0.0
O124 O 0.2734 0.57247 0.78791 0.0
O125 O 0.16472 0.56346 0.79493 0.0
O126 O 0.21062 0.69237 0.79867 0.0
Cd127 Cd 0.23455 0.7164 0.78557 0.0
Cd128 Cd 0.10072 0.71809 0.78625 0.0
O129 O 0.10512 0.69755 0.81924 0.0
O130 O 0.33318 0.7203 0.80176 0.0
O131 O 0.24095 0.73096 0.8287 0.0
C132 C 0.30752 0.72834 0.82833 0.0
C133 C 0.05912 0.74481 0.78939 0.0
C134 C 0.15641 0.68765 0.81531 0.0
C135 C 0.16098 0.71841 0.71652 0.0
O136 O 0.11043 0.71263 0.73425 0.0
O137 O 0.21635 0.72318 0.73245 0.0
O138 O 1.01623 0.73246 0.78775 0.0
O139 O 0.12452 0.7417 0.79488 0.0
O140 O 0.0777 0.69173 0.48242 0.0
Cd141 Cd 0.05321 0.71574 0.49549 0.0
Cd142 Cd 0.18702 0.71757 0.49492 0.0
O143 O 0.18307 0.69708 0.46185 0.0
O144 O 0.95446 0.71964 0.47937 0.0
O145 O 0.04656 0.73031 0.45235 0.0
C146 C 0.97999 0.72772 0.45281 0.0
C147 C 0.22625 0.74449 0.49184 0.0
C148 C 0.13206 0.6871 0.46578 0.0
C149 C 0.12716 0.7179 0.56454 0.0
O150 O 0.17765 0.71204 0.5469 0.0
O151 O 0.07181 0.72264 0.54854 0.0
O152 O 0.27028 0.73235 0.49331 0.0
O153 O 0.16112 0.74106 0.48648 0.0
O154 O 0.21205 0.61231 0.4824 0.0
Cd155 Cd 0.23674 0.58833 0.49562 0.0
Cd156 Cd 0.10297 0.58641 0.49498 0.0
O157 O 0.10666 0.60692 0.46191 0.0
O158 O 0.3355 0.58452 0.47949 0.0
O159 O 0.24356 0.57371 0.45259 0.0
C160 C 0.31007 0.57639 0.45299 0.0
C161 C 0.06277 0.55957 0.49194 0.0
C162 C 0.15763 0.61692 0.46578 0.0
C163 C 0.16307 0.58624 0.56469 0.0
O164 O 0.11238 0.59194 0.54696 0.0
O165 O 0.21857 0.58155 0.54876 0.0
O166 O 0.01923 0.57179 0.49348 0.0
O167 O 0.12802 0.56286 0.4865 0.0
O168 O 0.96366 0.44216 0.23271 0.0
Cd169 Cd 0.98816 0.46615 0.24586 0.0
Cd170 Cd 0.8544 0.46803 0.24512 0.0
O171 O 0.85833 0.44752 0.2121 0.0
O172 O 0.08689 0.46999 0.22972 0.0
O173 O 0.99488 0.48075 0.20277 0.0
C174 C 0.06141 0.47809 0.20317 0.0
C175 C 0.81384 0.49484 0.24202 0.0
C176 C 0.90934 0.43753 0.21605 0.0
C177 C 0.91434 0.46824 0.31486 0.0
O178 O 0.86375 0.46251 0.29711 0.0
O179 O 0.96984 0.47295 0.29896 0.0
O180 O 0.77046 0.48258 0.24356 0.0
O181 O 0.87914 0.4916 0.2366 0.0
O182 O 0.82981 0.36268 0.23257 0.0
Cd183 Cd 0.80539 0.33866 0.24562 0.0
Cd184 Cd 0.93924 0.33686 0.24518 0.0
O185 O 0.93533 0.35738 0.21214 0.0
O186 O 0.70671 0.33476 0.22943 0.0
O187 O 0.79889 0.3241 0.20248 0.0
C188 C 0.73232 0.32669 0.20289 0.0
C189 C 0.97884 0.30998 0.24205 0.0
C190 C 0.88422 0.36734 0.21601 0.0
C191 C 0.87901 0.3365 0.31476 0.0
O192 O 0.9296 0.34234 0.29716 0.0
O193 O 0.82372 0.33177 0.2987 0.0
O194 O 0.02269 0.32214 0.24362 0.0
O195 O 0.91368 0.31336 0.23662 0.0
O196 O 0.96125 0.36219 0.54893 0.0
Cd197 Cd 0.98544 0.33818 0.5359 0.0
Cd198 Cd 0.85162 0.33642 0.53646 0.0
O199 O 0.8557 0.35696 0.56941 0.0
O200 O 0.08412 0.33434 0.55208 0.0
O201 O 0.99205 0.32362 0.57906 0.0
C202 C 0.05858 0.32628 0.57867 0.0
C203 C 0.81043 0.30967 0.53967 0.0
C204 C 0.90693 0.36688 0.56552 0.0
C205 C 0.91208 0.33611 0.46678 0.0
O206 O 0.86143 0.34188 0.48445 0.0
O207 O 0.96743 0.33138 0.48278 0.0
O208 O 0.76735 0.32198 0.53796 0.0
O209 O 0.87576 0.31283 0.54519 0.0
O210 O 0.82957 0.44184 0.54882 0.0
Cd211 Cd 0.80588 0.4659 0.53579 0.0
Cd212 Cd 0.93975 0.46751 0.53649 0.0
O213 O 0.935 0.447 0.56954 0.0
O214 O 0.70724 0.46993 0.55192 0.0
O215 O 0.79962 0.48043 0.57898 0.0
C216 C 0.73299 0.47792 0.57853 0.0
C217 C 0.98015 0.49432 0.53961 0.0
C218 C 0.88369 0.43711 0.56553 0.0
C219 C 0.87998 0.46796 0.46681 0.0
O220 O 0.93026 0.46203 0.4845 0.0
O221 O 0.82472 0.47279 0.48276 0.0
O222 O 0.02364 0.48208 0.53813 0.0
O223 O 0.91487 0.49105 0.54496 0.0
O224 O 0.57372 0.11263 0.79942 0.0
Cd225 Cd 0.54922 0.08863 0.78633 0.0
Cd226 Cd 0.68299 0.08677 0.78689 0.0
O227 O 0.67911 0.10727 0.81996 0.0
O228 O 0.4505 0.08476 0.80249 0.0
O229 O 0.5426 0.07405 0.82946 0.0
C230 C 0.47605 0.07668 0.82905 0.0
C231 C 0.72277 0.0599 0.78997 0.0
C232 C 0.62809 0.11725 0.81606 0.0
C233 C 0.62294 0.0865 0.71725 0.0
O234 O 0.67352 0.0923 0.73491 0.0
O235 O 0.56757 0.08177 0.73325 0.0
O236 O 0.76653 0.07208 0.78845 0.0
O237 O 0.65758 0.06325 0.79539 0.0
O238 O 0.7077 0.19207 0.79953 0.0
Cd239 Cd 0.73221 0.21606 0.78632 0.0
Cd240 Cd 0.59839 0.21791 0.78699 0.0
O241 O 0.60232 0.19742 0.82008 0.0
O242 O 0.83101 0.21993 0.80237 0.0
O243 O 0.73905 0.23067 0.82938 0.0
C244 C 0.80559 0.22804 0.82891 0.0
C245 C 0.55875 0.2448 0.79002 0.0
C246 C 0.65335 0.18744 0.81617 0.0
C247 C 0.65823 0.21816 0.71729 0.0
O248 O 0.60768 0.21238 0.73502 0.0
O249 O 0.71367 0.22288 0.73322 0.0
O250 O 0.51492 0.23262 0.78857 0.0
O251 O 0.62394 0.24143 0.79539 0.0
O252 O 0.57448 0.19205 0.48332 0.0
Cd253 Cd 0.55059 0.21609 0.49629 0.0
Cd254 Cd 0.6844 0.21776 0.49564 0.0
O255 O 0.67992 0.19724 0.46266 0.0
O256 O 0.45201 0.22003 0.48005 0.0
O257 O 0.54436 0.23062 0.45307 0.0
C258 C 0.47777 0.22804 0.45344 0.0
C259 C 0.72562 0.24452 0.49245 0.0
C260 C 0.62866 0.18733 0.46665 0.0
C261 C 0.62424 0.21816 0.56532 0.0
O262 O 0.67469 0.2123 0.54765 0.0
O263 O 0.56895 0.22295 0.54934 0.0
O264 O 0.7687 0.2322 0.49408 0.0
O265 O 0.66027 0.24136 0.48699 0.0
O266 O 0.70616 0.11239 0.4831 0.0
Cd267 Cd 0.73014 0.08835 0.49617 0.0
Cd268 Cd 0.59627 0.08667 0.49558 0.0
O269 O 0.60061 0.1072 0.46259 0.0
O270 O 0.8288 0.08443 0.48002 0.0
O271 O 0.7366 0.07379 0.45304 0.0
C272 C 0.80317 0.07639 0.45345 0.0
C273 C 0.55527 0.0599 0.49243 0.0
C274 C 0.6519 0.11711 0.4665 0.0
C275 C 0.65652 0.08631 0.56526 0.0
O276 O 0.60599 0.09213 0.54757 0.0
O277 O 0.71184 0.08154 0.54928 0.0
O278 O 0.51208 0.07219 0.49406 0.0
O279 O 0.6206 0.06309 0.48696 0.0
O280 O 0.45537 0.9419 0.23304 0.0
Cd281 Cd 0.47922 0.96593 0.24611 0.0
Cd282 Cd 0.34536 0.96759 0.24537 0.0
O283 O 0.35 0.94711 0.21229 0.0
O284 O 0.5779 0.96993 0.23002 0.0
O285 O 0.48562 0.98049 0.20294 0.0
C286 C 0.55223 0.97796 0.20341 0.0
C287 C 0.30518 0.99443 0.24229 0.0
C288 C 0.40124 0.93719 0.2163 0.0
C289 C 0.40501 0.96797 0.31507 0.0
O290 O 0.35473 0.96206 0.29735 0.0
O291 O 0.46032 0.97279 0.29915 0.0
O292 O 0.26159 0.98221 0.24373 0.0
O293 O 0.37045 0.99113 0.23695 0.0
O294 O 0.32332 0.86229 0.2328 0.0
Cd295 Cd 0.2991 0.83827 0.24587 0.0
Cd296 Cd 0.43291 0.83651 0.24534 0.0
O297 O 0.42887 0.85705 0.21236 0.0
O298 O 0.20044 0.83443 0.22968 0.0
O299 O 0.29254 0.8237 0.20275 0.0
C300 C 0.226 0.82637 0.20312 0.0
C301 C 0.47417 0.80976 0.24221 0.0
C302 C 0.37766 0.86698 0.21623 0.0
C303 C 0.37239 0.8362 0.315 0.0
O304 O 0.42306 0.84196 0.29734 0.0
O305 O 0.31706 0.83146 0.29901 0.0
O306 O 0.51722 0.82207 0.24391 0.0
O307 O 0.40883 0.81291 0.23666 0.0
O308 O 0.45458 0.86262 0.54927 0.0
Cd309 Cd 0.47912 0.83862 0.53616 0.0
Cd310 Cd 0.34529 0.83679 0.5366 0.0
O311 O 0.34909 0.85728 0.5697 0.0
O312 O 0.57786 0.83475 0.55233 0.0
O313 O 0.48578 0.82404 0.57929 0.0
C314 C 0.55233 0.82665 0.57887 0.0
C315 C 0.30601 0.80988 0.53964 0.0
C316 C 0.40015 0.86725 0.56584 0.0
C317 C 0.40548 0.83651 0.46703 0.0
O318 O 0.35488 0.84234 0.48464 0.0
O319 O 0.46077 0.83177 0.48308 0.0
O320 O 0.26201 0.82202 0.53813 0.0
O321 O 0.37113 0.8133 0.54507 0.0
O322 O 0.32084 0.94209 0.54913 0.0
Cd323 Cd 0.2965 0.9661 0.53598 0.0
Cd324 Cd 0.43027 0.96793 0.53677 0.0
O325 O 0.42615 0.94741 0.5698 0.0
O326 O 0.1978 0.96997 0.55212 0.0
O327 O 0.28991 0.98068 0.57906 0.0
C328 C 0.22336 0.97805 0.57866 0.0
C329 C 0.47109 0.99472 0.53989 0.0
C330 C 0.37511 0.93744 0.56583 0.0
C331 C 0.37041 0.96819 0.467 0.0
O332 O 0.42094 0.96244 0.48478 0.0
O333 O 0.3149 0.97291 0.48288 0.0
O334 O 0.51435 0.98244 0.53835 0.0
O335 O 0.40576 0.99152 0.54529 0.0
O336 O 0.57935 0.61246 0.29886 0.0
Cd337 Cd 0.55565 0.58841 0.28583 0.0
Cd338 Cd 0.68952 0.58681 0.28646 0.0
O339 O 0.68487 0.60731 0.31948 0.0
O340 O 0.45701 0.58442 0.30195 0.0
O341 O 0.54931 0.57386 0.32901 0.0
C342 C 0.48271 0.5764 0.32856 0.0
C343 C 0.7303 0.56002 0.28959 0.0
C344 C 0.63351 0.6172 0.31551 0.0
C345 C 0.62949 0.58641 0.21678 0.0
O346 O 0.67986 0.5923 0.23447 0.0
O347 O 0.57425 0.58158 0.23276 0.0
O348 O 0.77361 0.57229 0.28804 0.0
O349 O 0.66499 0.56324 0.29501 0.0
O350 O 0.71035 0.69215 0.2987 0.0
Cd351 Cd 0.73421 0.71619 0.28566 0.0
Cd352 Cd 0.60038 0.71786 0.28634 0.0
O353 O 0.60488 0.69732 0.31933 0.0
O354 O 0.83288 0.72009 0.30178 0.0
O355 O 0.74073 0.73072 0.32884 0.0
C356 C 0.8073 0.72811 0.3284 0.0
C357 C 0.55913 0.74461 0.28953 0.0
C358 C 0.65618 0.68743 0.31537 0.0
C359 C 0.66052 0.71826 0.21663 0.0
O360 O 0.61005 0.71242 0.23433 0.0
O361 O 0.71584 0.72303 0.23259 0.0
O362 O 0.51606 0.73229 0.2879 0.0
O363 O 0.62449 0.74145 0.29499 0.0
O364 O 0.57758 0.69201 0.98244 0.0
Cd365 Cd 0.55299 0.716 0.99557 0.0
Cd366 Cd 0.68679 0.71787 0.99501 0.0
O367 O 0.68299 0.69738 0.96194 0.0
O368 O 0.45428 0.71989 0.97937 0.0
O369 O 0.54642 0.7306 0.95246 0.0
C370 C 0.47986 0.72799 0.95286 0.0
C371 C 0.72634 0.74476 0.99197 0.0
C372 C 0.632 0.68738 0.96584 0.0
C373 C 0.62676 0.71811 0.06465 0.0
O374 O 0.67735 0.71232 0.04698 0.0
O375 O 0.57137 0.72284 0.04866 0.0
O376 O 0.77021 0.7326 0.99346 0.0
O377 O 0.66117 0.74138 0.98656 0.0
O378 O 0.71224 0.6126 0.98259 0.0
Cd379 Cd 0.73696 0.58861 0.99573 0.0
Cd380 Cd 0.60319 0.58668 0.99513 0.0
O381 O 0.60687 0.6072 0.96208 0.0
O382 O 0.83569 0.5848 0.97956 0.0
O383 O 0.74369 0.57402 0.95265 0.0
C384 C 0.81021 0.57669 0.95304 0.0
C385 C 0.56316 0.55983 0.99204 0.0
C386 C 0.65782 0.6172 0.96597 0.0
C387 C 0.66329 0.58644 0.0648 0.0
O388 O 0.61263 0.59219 0.04711 0.0
O389 O 0.71876 0.58176 0.04884 0.0
O390 O 0.51953 0.57204 0.9936 0.0
O391 O 0.62838 0.56315 0.9866 0.0
O392 O 0.46243 0.44224 0.73258 0.0
Cd393 Cd 0.48717 0.46622 0.74571 0.0
Cd394 Cd 0.3534 0.46814 0.74518 0.0
O395 O 0.35697 0.44762 0.71217 0.0
O396 O 0.5859 0.46999 0.72952 0.0
O397 O 0.49398 0.48083 0.70263 0.0
C398 C 0.56047 0.47812 0.703 0.0
C399 C 0.313 0.49497 0.74207 0.0
C400 C 0.40796 0.43763 0.71601 0.0
C401 C 0.41379 0.46834 0.81484 0.0
O402 O 0.36303 0.46263 0.79717 0.0
O403 O 0.46923 0.47302 0.79884 0.0
O404 O 0.26955 0.48273 0.74372 0.0
O405 O 0.37824 0.4917 0.73657 0.0
O406 O 0.32845 0.36278 0.73265 0.0
Cd407 Cd 0.3042 0.33877 0.74579 0.0
Cd408 Cd 0.43803 0.33699 0.74511 0.0
O409 O 0.4338 0.35748 0.712 0.0
O410 O 0.20549 0.33481 0.72967 0.0
O411 O 0.29772 0.32419 0.70268 0.0
C412 C 0.23113 0.32674 0.70313 0.0
C413 C 0.47772 0.31011 0.7421 0.0
C414 C 0.38272 0.36744 0.71596 0.0
C415 C 0.37832 0.33666 0.81479 0.0
O416 O 0.42872 0.34253 0.79707 0.0
O417 O 0.32295 0.3319 0.79885 0.0
O418 O 0.52154 0.32229 0.74351 0.0
O419 O 0.41252 0.31347 0.73675 0.0
O420 O 0.46272 0.36237 0.04879 0.0
Cd421 Cd 0.48673 0.33835 0.03569 0.0
Cd422 Cd 0.35294 0.33662 0.03648 0.0
O423 O 0.35737 0.35713 0.06951 0.0
O424 O 0.58541 0.33445 0.05181 0.0
O425 O 0.49327 0.32378 0.07883 0.0
C426 C 0.55983 0.3264 0.07841 0.0
C427 C 0.31179 0.30986 0.0396 0.0
C428 C 0.40857 0.36706 0.06551 0.0
C429 C 0.41284 0.33633 0.96672 0.0
O430 O 0.3624 0.34213 0.98449 0.0
O431 O 0.46825 0.33156 0.98261 0.0
O432 O 0.26868 0.32217 0.03805 0.0
O433 O 0.37716 0.31302 0.04502 0.0
O434 O 0.33091 0.44199 0.04901 0.0
Cd435 Cd 0.30695 0.46603 0.03597 0.0
Cd436 Cd 0.44083 0.46769 0.03647 0.0
O437 O 0.43647 0.44718 0.06951 0.0
O438 O 0.2083 0.46998 0.05213 0.0
O439 O 0.30056 0.48057 0.07914 0.0
C440 C 0.23397 0.47801 0.07872 0.0
C441 C 0.48108 0.49452 0.03959 0.0
C442 C 0.38518 0.43727 0.06561 0.0
C443 C 0.38061 0.46811 0.96686 0.0
O444 O 0.43109 0.46222 0.98449 0.0
O445 O 0.32539 0.4729 0.98289 0.0
O446 O 0.52463 0.4823 0.03802 0.0
O447 O 0.41584 0.49123 0.04503 0.0
C448 C 0.0814 0.08498 0.11926 0.0
C449 C 0.14879 0.08512 0.10417 0.0
H450 H 0.02011 0.08496 0.16688 0.0
C451 C 0.20707 0.0846 0.12655 0.0
H452 H 0.03532 0.08517 0.10261 0.0
C453 C 0.19816 0.0847 0.16331 0.0
C454 C 0.13079 0.08502 0.17842 0.0
H455 H 0.25946 0.08465 0.1157 0.0
H456 H 0.24425 0.08469 0.17997 0.0
C457 C 0.07248 0.08477 0.15603 0.0
C458 C 0.20055 0.21984 0.119 0.0
C459 C 0.13321 0.2196 0.10386 0.0
H460 H 0.26172 0.21977 0.16666 0.0
C461 C 0.07485 0.21988 0.1262 0.0
H462 H 0.24668 0.21982 0.10238 0.0
C463 C 0.08367 0.21963 0.16298 0.0
C464 C 0.15102 0.2194 0.17812 0.0
H465 H 0.0225 0.21975 0.11532 0.0
H466 H 0.03754 0.21947 0.1796 0.0
C467 C 0.20937 0.21989 0.15578 0.0
C468 C 0.82051 0.96987 0.90591 0.0
C469 C 0.87897 0.96967 0.9282 0.0
H470 H 0.78299 0.96942 0.85256 0.0
C471 C 0.94623 0.97 0.91298 0.0
H472 H 0.76821 0.96967 0.91685 0.0
C473 C 0.9549 0.97007 0.87619 0.0
C474 C 0.89647 0.96951 0.85392 0.0
H475 H 0.99243 0.97005 0.92955 0.0
H476 H 1.00721 0.97003 0.86526 0.0
C477 C 0.82919 0.96964 0.86913 0.0
C478 C 0.95622 0.83467 0.90572 0.0
C479 C 0.89801 0.83522 0.92814 0.0
H480 H 0.99322 0.83468 0.85226 0.0
C481 C 0.83057 0.83504 0.9131 0.0
H482 H 1.00864 0.83474 0.91652 0.0
C483 C 0.82153 0.83478 0.87634 0.0
C484 C 0.87977 0.835 0.85391 0.0
H485 H 0.78454 0.83526 0.92979 0.0
H486 H 0.76912 0.83496 0.86553 0.0
C487 C 0.94718 0.83471 0.86895 0.0
C488 C 0.079 0.58458 0.65547 0.0
C489 C 0.13731 0.58514 0.67783 0.0
H490 H 0.04174 0.5846 0.60207 0.0
C491 C 0.20468 0.585 0.6627 0.0
H492 H 0.02663 0.58462 0.66634 0.0
C493 C 0.21354 0.58476 0.62593 0.0
C494 C 0.15519 0.58497 0.60357 0.0
H495 H 0.25079 0.58522 0.67933 0.0
H496 H 0.26589 0.58496 0.61506 0.0
C497 C 0.08785 0.58464 0.6187 0.0
C498 C 0.21143 0.71983 0.65527 0.0
C499 C 0.15309 0.71964 0.67764 0.0
H500 H 0.24865 0.7193 0.60187 0.0
C501 C 0.08574 0.71992 0.66252 0.0
H502 H 0.26379 0.71966 0.66614 0.0
C503 C 0.07687 0.71992 0.62575 0.0
C504 C 0.13517 0.71934 0.60339 0.0
H505 H 0.03964 0.71997 0.67916 0.0
H506 H 0.02449 0.71985 0.61489 0.0
C507 C 0.20254 0.71953 0.6185 0.0
C508 C 0.95555 0.4695 0.41291 0.0
C509 C 0.88813 0.46937 0.42796 0.0
H510 H 1.01697 0.46951 0.36533 0.0
C511 C 0.82991 0.46994 0.40555 0.0
H512 H 1.00159 0.46926 0.42959 0.0
C513 C 0.83891 0.46986 0.36879 0.0
C514 C 0.90632 0.46953 0.35373 0.0
H515 H 0.7775 0.4699 0.41636 0.0
H516 H 0.79287 0.46992 0.3521 0.0
C517 C 0.96457 0.46972 0.37615 0.0
C518 C 0.95411 0.33488 0.36882 0.0
C519 C 0.88681 0.33507 0.35362 0.0
H520 H 1.01512 0.33478 0.41653 0.0
C521 C 0.82839 0.33455 0.37591 0.0
H522 H 1.00029 0.33508 0.35224 0.0
C523 C 0.83709 0.33459 0.41269 0.0
C524 C 0.90436 0.33485 0.4279 0.0
H525 H 0.77608 0.33463 0.36499 0.0
H526 H 0.7909 0.33457 0.42928 0.0
C527 C 0.96281 0.33462 0.4056 0.0
C528 C 0.5725 0.08468 0.65605 0.0
C529 C 0.63086 0.08512 0.67839 0.0
H530 H 0.53519 0.08481 0.60265 0.0
C531 C 0.6982 0.0849 0.66325 0.0
H532 H 0.52015 0.08479 0.66693 0.0
C533 C 0.70702 0.08469 0.62647 0.0
C534 C 0.64866 0.08501 0.60413 0.0
H535 H 0.74433 0.08503 0.67987 0.0
H536 H 0.75937 0.08482 0.61559 0.0
C537 C 0.58132 0.08477 0.61928 0.0
C538 C 0.58284 0.21973 0.66333 0.0
C539 C 0.65022 0.2195 0.67843 0.0
H540 H 0.52154 0.21977 0.61571 0.0
C541 C 0.70851 0.21988 0.65605 0.0
H542 H 0.53675 0.21964 0.67999 0.0
C543 C 0.6996 0.21974 0.61928 0.0
C544 C 0.63222 0.21951 0.60418 0.0
H545 H 0.76089 0.21976 0.66689 0.0
H546 H 0.74568 0.21965 0.60262 0.0
C547 C 0.57392 0.21989 0.62656 0.0
C548 C 0.32028 0.96971 0.4057 0.0
C549 C 0.3785 0.96949 0.42814 0.0
H550 H 0.28334 0.96928 0.35224 0.0
C551 C 0.44593 0.96981 0.41311 0.0
H552 H 0.26786 0.96951 0.41649 0.0
C553 C 0.45499 0.9699 0.37635 0.0
C554 C 0.3968 0.96935 0.35391 0.0
H555 H 0.49194 0.96985 0.42981 0.0
H556 H 0.50742 0.96986 0.36556 0.0
C557 C 0.32935 0.96949 0.36894 0.0
C558 C 0.33037 0.83493 0.41297 0.0
C559 C 0.39766 0.83511 0.42817 0.0
H560 H 0.26936 0.83485 0.36526 0.0
C561 C 0.45608 0.83459 0.40588 0.0
H562 H 0.28418 0.83513 0.42955 0.0
C563 C 0.44738 0.83465 0.36909 0.0
C564 C 0.38011 0.83493 0.35389 0.0
H565 H 0.5084 0.83467 0.4168 0.0
H566 H 0.49357 0.83464 0.35251 0.0
C567 C 0.32166 0.83469 0.37619 0.0
C568 C 0.71372 0.5848 0.12603 0.0
C569 C 0.65538 0.5851 0.10367 0.0
H570 H 0.75095 0.58511 0.17944 0.0
C571 C 0.58803 0.58476 0.11879 0.0
H572 H 0.76608 0.585 0.11517 0.0
C573 C 0.57916 0.58461 0.15556 0.0
C574 C 0.63748 0.58508 0.17793 0.0
H575 H 0.54192 0.58478 0.10215 0.0
H576 H 0.52679 0.58465 0.16642 0.0
C577 C 0.70484 0.58494 0.16281 0.0
C578 C 0.58523 0.71978 0.16264 0.0
C579 C 0.65259 0.71957 0.17776 0.0
H580 H 0.52401 0.71976 0.115 0.0
C581 C 0.71092 0.71992 0.1554 0.0
H582 H 0.53912 0.71971 0.17928 0.0
C583 C 0.70206 0.71973 0.11863 0.0
C584 C 0.6347 0.71948 0.10351 0.0
H585 H 0.76328 0.71981 0.16627 0.0
H586 H 0.74817 0.71962 0.102 0.0
C587 C 0.57637 0.71989 0.12587 0.0
C588 C 0.46449 0.46984 0.87602 0.0
C589 C 0.40606 0.46962 0.85372 0.0
H590 H 0.50194 0.46941 0.92939 0.0
C591 C 0.33878 0.46995 0.86892 0.0
H592 H 0.51681 0.46963 0.8651 0.0
C593 C 0.33006 0.47004 0.9057 0.0
C594 C 0.38846 0.46949 0.928 0.0
H595 H 0.2926 0.46999 0.85233 0.0
H596 H 0.27773 0.47 0.91661 0.0
C597 C 0.45576 0.46962 0.91281 0.0
C598 C 0.45392 0.33505 0.86866 0.0
C599 C 0.38648 0.33525 0.85363 0.0
H600 H 0.51539 0.33496 0.91622 0.0
C601 C 0.32827 0.33475 0.87606 0.0
H602 H 0.49995 0.33524 0.85197 0.0
C603 C 0.33732 0.3348 0.91282 0.0
C604 C 0.40475 0.33506 0.92786 0.0
H605 H 0.27586 0.33484 0.86526 0.0
H606 H 0.2913 0.3348 0.92952 0.0
C607 C 0.46297 0.33481 0.90542 0.0
C608 C 0.2142 1.01449 0.26339 0.0
C609 C 0.28306 1.01139 0.25227 0.0
H610 H 0.14165 0.03195 0.2849 0.0
C611 C 0.33267 1.02414 0.25524 0.0
H612 H 0.17484 1.0049 0.262 0.0
C613 C 0.3139 0.0396 0.26895 0.0
C614 C 0.24503 0.0427 0.28007 0.0
H615 H 0.38644 1.02214 0.24743 0.0
H616 H 0.35326 0.04919 0.27034 0.0
C617 C 0.19542 0.02995 0.2771 0.0
C618 C 0.06926 0.28977 0.26315 0.0
C619 C 1.00051 0.29297 0.25198 0.0
H620 H 0.14132 0.27219 0.28467 0.0
C621 C 0.95059 0.28028 0.25485 0.0
H622 H 0.10884 0.29931 0.26184 0.0
C623 C 0.96895 0.26479 0.26852 0.0
C624 C 0.0377 0.26158 0.2797 0.0
H625 H 0.8969 0.28237 0.247 0.0
H626 H 0.92937 0.25525 0.26984 0.0
C627 C 0.08763 0.27427 0.27682 0.0
C628 C 0.20059 0.27456 1.0049 0.0
C629 C 0.24965 0.26169 1.00202 0.0
H630 H 0.18108 0.29967 0.01986 0.0
C631 C 0.31863 0.26464 1.01315 0.0
H632 H 0.14675 0.27268 0.99708 0.0
C633 C 0.33807 0.28006 0.02678 0.0
C634 C 0.289 0.29293 0.02967 0.0
H635 H 0.35758 0.25495 1.01183 0.0
H636 H 0.39191 0.28194 0.0346 0.0
C637 C 0.22002 0.28999 0.01854 0.0
C638 C 0.08294 0.03038 1.00521 0.0
C639 C 0.03363 0.0432 1.00237 0.0
H640 H 0.10296 1.00528 0.0201 0.0
C641 C 0.96472 0.04017 1.01354 0.0
H642 H 0.13672 0.03233 0.99736 0.0
C643 C 0.94561 1.02472 0.02715 0.0
C644 C 0.99493 1.01189 0.02998 0.0
H645 H 0.9256 0.04982 1.01225 0.0
H646 H 0.89183 1.02277 0.03499 0.0
C647 C 0.06383 1.01492 0.01882 0.0
C648 C 0.69484 0.03019 0.77714 0.0
C649 C 0.74462 0.04291 0.78002 0.0
H650 H 0.67393 1.00515 0.76216 0.0
C651 C 0.8134 0.03976 0.76885 0.0
H652 H 0.64113 0.03224 0.785 0.0
C653 C 0.83195 1.02428 0.75518 0.0
C654 C 0.78218 1.01156 0.7523 0.0
H655 H 0.85288 0.04932 0.77016 0.0
H656 H 0.88567 1.02224 0.74732 0.0
C657 C 0.71339 1.01471 0.76347 0.0
C658 C 0.96706 0.76463 0.76838 0.0
C659 C 0.03609 0.76173 0.77951 0.0
H660 H 0.89354 0.7819 0.74698 0.0
C661 C 0.08496 0.77465 0.77666 0.0
H662 H 0.92826 0.75491 0.76968 0.0
C663 C 0.0653 0.79007 0.76307 0.0
C664 C 0.99627 0.79297 0.75195 0.0
H665 H 0.13882 0.7728 0.78448 0.0
H666 H 0.1041 0.79979 0.76178 0.0
C667 C 0.9474 0.78006 0.75479 0.0
C668 C 0.6981 0.77444 1.00494 0.0
C669 C 0.74802 0.76175 1.00196 0.0
H670 H 0.67691 0.79945 0.02004 0.0
C671 C 0.8168 0.76494 1.01309 0.0
H672 H 0.64438 0.77236 0.99712 0.0
C673 C 0.8352 0.78042 0.0268 0.0
C674 C 0.78528 0.7931 0.02977 0.0
H675 H 0.85639 0.7554 1.0117 0.0
H676 H 0.88892 0.78249 0.03462 0.0
C677 C 0.71649 0.78991 0.01865 0.0
C678 C 0.32121 0.54019 0.76843 0.0
C679 C 0.25234 0.54325 0.77961 0.0
H680 H 0.39394 0.52276 0.74696 0.0
C681 C 0.20292 0.53045 0.77678 0.0
H682 H 0.36042 0.54982 0.76971 0.0
C683 C 0.22188 0.51499 0.76316 0.0
C684 C 0.29074 0.51193 0.75199 0.0
H685 H 0.14915 0.53242 0.78464 0.0
H686 H 0.18265 0.50537 0.76188 0.0
C687 C 0.34017 0.52473 0.75481 0.0
C688 C 0.33462 0.78022 0.52671 0.0
C689 C 0.28455 0.79287 0.52965 0.0
H690 H 0.35614 0.75522 0.51164 0.0
C691 C 0.21583 0.78964 0.51848 0.0
H692 H 0.3883 0.78233 0.53456 0.0
C693 C 0.19765 0.77415 0.50476 0.0
C694 C 0.24773 0.7615 0.50183 0.0
H695 H 0.17613 0.79915 0.51983 0.0
H696 H 0.14398 0.77204 0.49691 0.0
C697 C 0.31645 0.76473 0.51299 0.0
C698 C 0.95286 0.52406 0.52671 0.0
C699 C 1.00239 0.51129 0.52965 0.0
H700 H 0.93243 0.54912 0.51166 0.0
C701 C 0.07128 0.51437 0.51853 0.0
H702 H 0.89908 0.52207 0.53453 0.0
C703 C 0.09015 0.52983 0.50485 0.0
C704 C 0.04061 0.5426 0.50191 0.0
H705 H 0.11056 0.50476 0.5199 0.0
H706 H 0.14393 0.53182 0.49704 0.0
C707 C 0.97173 0.53952 0.51303 0.0
C708 C 0.70343 0.53026 0.27675 0.0
C709 C 0.75277 0.54307 0.27966 0.0
H710 H 0.68336 0.50518 0.26174 0.0
C711 C 0.82169 0.54005 0.26853 0.0
H712 H 0.64962 0.53221 0.28457 0.0
C713 C 0.84079 0.5246 0.25487 0.0
C714 C 0.79144 0.51179 0.25196 0.0
H715 H 0.86084 0.54968 0.26987 0.0
H716 H 0.89459 0.52265 0.24705 0.0
C717 C 0.72252 0.51482 0.26309 0.0
C718 C 0.71872 0.28977 0.51866 0.0
C719 C 0.78768 0.29273 0.52982 0.0
H720 H 0.64551 0.27244 0.49724 0.0
C721 C 0.83674 0.27985 0.52704 0.0
H722 H 0.67978 0.29946 0.5199 0.0
C723 C 0.81734 0.26441 0.51347 0.0
C724 C 0.74839 0.26145 0.50231 0.0
H725 H 0.89056 0.28174 0.5349 0.0
H726 H 0.85629 0.25472 0.51223 0.0
C727 C 0.69933 0.27433 0.50509 0.0
C728 C 0.56833 0.28995 0.76324 0.0
C729 C 0.49952 0.29313 0.75213 0.0
H730 H 0.64056 0.27242 0.7848 0.0
C731 C 0.44967 0.28043 0.75515 0.0
H732 H 0.60787 0.2995 0.76182 0.0
C733 C 0.46816 0.26496 0.7689 0.0
C734 C 0.53697 0.26179 0.78001 0.0
H735 H 0.39593 0.28249 0.74734 0.0
H736 H 0.42862 0.25541 0.77032 0.0
C737 C 0.58683 0.27448 0.77699 0.0
C738 C 0.46371 0.03996 0.51347 0.0
C739 C 0.53266 0.04296 0.50234 0.0
H740 H 0.39064 1.02259 0.53492 0.0
C741 C 0.58187 0.03011 0.50522 0.0
H742 H 0.42466 0.04962 0.51215 0.0
C743 C 0.56262 1.01467 0.51885 0.0
C744 C 0.49367 1.01167 0.52997 0.0
H745 H 0.63569 0.03203 0.49739 0.0
H746 H 0.60168 1.00501 0.52016 0.0
C747 C 0.44446 1.02451 0.52709 0.0
C748 C 0.46736 0.7645 0.26849 0.0
C749 C 0.53632 0.76154 0.27966 0.0
H750 H 0.3941 0.78182 0.24705 0.0
C751 C 0.58535 0.77443 0.27686 0.0
H752 H 0.42843 0.7548 0.26975 0.0
C753 C 0.56592 0.78987 0.26327 0.0
C754 C 0.49696 0.79282 0.2521 0.0
H755 H 0.63917 0.77254 0.28471 0.0
H756 H 0.60484 0.79956 0.26201 0.0
C757 C 0.44792 0.77994 0.2549 0.0
C758 C 0.45356 0.52426 0.02679 0.0
C759 C 0.50317 0.5115 0.02966 0.0
H760 H 0.43293 0.54932 1.01183 0.0
C761 C 0.57201 0.51462 0.0185 0.0
H762 H 0.39981 0.52225 0.03464 0.0
C763 C 0.59075 0.53009 1.00485 0.0
C764 C 0.54113 0.54285 1.00198 0.0
H765 H 0.61136 0.50502 0.01981 0.0
H766 H 0.64449 0.53211 0.997 0.0
C767 C 0.4723 0.53973 1.01314 0.0
C768 C 0.20694 0.15944 0.32701 0.0
C769 C 0.14704 0.16951 0.32542 0.0
H770 H 0.24806 0.13481 0.32618 0.0
C771 C 0.08102 0.16203 0.32738 0.0
H772 H 0.25864 0.16485 0.32587 0.0
C773 C 0.07503 0.14479 0.32721 0.0
C774 C 0.13492 0.13472 0.32558 0.0
H775 H 0.03391 0.16942 0.32625 0.0
H776 H 0.02333 0.13937 0.32621 0.0
C777 C 0.20095 0.1422 0.32735 0.0
C778 C 0.07581 0.15992 0.95508 0.0
C779 C 0.13608 0.16987 0.95676 0.0
H780 H 0.03374 0.13539 0.956 0.0
C781 C 0.20183 0.16225 0.95505 0.0
H782 H 0.02432 0.16546 0.95603 0.0
C783 C 0.20716 0.145 0.95539 0.0
C784 C 0.14686 0.13505 0.95694 0.0
H785 H 0.24921 0.16954 0.95626 0.0
H786 H 0.25864 0.13947 0.95658 0.0
C787 C 0.08114 0.14268 0.95491 0.0
C788 C 0.82742 0.912 0.70497 0.0
C789 C 0.89323 0.9196 0.70678 0.0
H790 H 0.77042 0.88926 0.70632 0.0
C791 C 0.95342 0.90962 0.7051 0.0
H792 H 0.7801 0.91932 0.70617 0.0
C793 C 0.94795 0.89238 0.70484 0.0
C794 C 0.88215 0.88478 0.70675 0.0
H795 H 1.00496 0.91513 0.70613 0.0
H796 H 0.99528 0.88506 0.70593 0.0
C797 C 0.82195 0.89476 0.70521 0.0
C798 C 0.94966 0.9124 0.07707 0.0
C799 C 0.88369 0.91992 0.0754 0.0
H800 H 1.00711 0.88971 0.07557 0.0
C801 C 0.82371 0.90988 0.07715 0.0
H802 H 0.99683 0.91977 0.07581 0.0
C803 C 0.82953 0.89264 0.07737 0.0
C804 C 0.89547 0.88512 0.07532 0.0
H805 H 0.77206 0.91533 0.07623 0.0
H806 H 0.78234 0.88528 0.07634 0.0
C807 C 0.95548 0.89516 0.07678 0.0
C808 C 0.20523 0.64275 0.8268 0.0
C809 C 0.1395 0.63513 0.82485 0.0
H810 H 0.26206 0.66552 0.82555 0.0
C811 C 0.07921 0.64507 0.82639 0.0
H812 H 0.25262 0.63546 0.82571 0.0
C813 C 0.08454 0.66232 0.82665 0.0
C814 C 0.15029 0.66994 0.82487 0.0
H815 H 0.02773 0.63955 0.82526 0.0
H816 H 0.03716 0.66961 0.82544 0.0
C817 C 0.21056 0.66 0.82656 0.0
C818 C 0.07882 0.65933 0.45472 0.0
C819 C 0.13873 0.66941 0.45623 0.0
H820 H 0.0377 0.63471 0.45568 0.0
C821 C 0.20474 0.66192 0.45427 0.0
H822 H 0.02713 0.66475 0.45586 0.0
C823 C 0.21073 0.64469 0.45451 0.0
C824 C 0.15084 0.63461 0.45621 0.0
H825 H 0.25186 0.66931 0.45534 0.0
H826 H 0.26243 0.63927 0.45551 0.0
C827 C 0.08481 0.6421 0.45445 0.0
C828 C 0.9568 0.39255 0.20461 0.0
C829 C 0.89082 0.38504 0.20648 0.0
H830 H 1.01434 0.41523 0.20593 0.0
C831 C 0.83086 0.3951 0.20489 0.0
H832 H 1.00396 0.38518 0.20574 0.0
C833 C 0.83674 0.41233 0.20464 0.0
C834 C 0.90272 0.41984 0.20649 0.0
H835 H 0.7792 0.38966 0.20596 0.0
H836 H 0.78958 0.41971 0.2058 0.0
C837 C 0.96268 0.40979 0.20487 0.0
C838 C 0.96088 0.39454 0.57686 0.0
C839 C 0.90067 0.38458 0.57508 0.0
H840 H 1.00284 0.41909 0.5761 0.0
C841 C 0.83487 0.39219 0.57676 0.0
H842 H 1.01241 0.38903 0.57593 0.0
C843 C 0.82947 0.40943 0.57651 0.0
C844 C 0.88972 0.4194 0.57507 0.0
H845 H 0.78754 0.38488 0.57548 0.0
H846 H 0.77797 0.41495 0.5753 0.0
C847 C 0.95547 0.41179 0.57711 0.0
C848 C 0.57478 0.145 0.82726 0.0
C849 C 0.63473 0.13494 0.82564 0.0
H850 H 0.53355 0.16962 0.8264 0.0
C851 C 0.70072 0.14244 0.82754 0.0
H852 H 0.52311 0.13957 0.82616 0.0
C853 C 0.70663 0.15968 0.82732 0.0
C854 C 0.64669 0.16974 0.82572 0.0
H855 H 0.74786 0.13506 0.82639 0.0
H856 H 0.75831 0.16511 0.82627 0.0
C857 C 0.5807 0.16224 0.82755 0.0
C858 C 0.57453 0.15967 0.45551 0.0
C859 C 0.63477 0.16963 0.45708 0.0
H860 H 0.53258 0.13512 0.45639 0.0
C861 C 0.70054 0.16202 0.45513 0.0
H862 H 0.52302 0.16519 0.45664 0.0
C863 C 0.70594 0.14478 0.45533 0.0
C864 C 0.64571 0.13482 0.45698 0.0
H865 H 0.74789 0.16933 0.45623 0.0
H866 H 0.75746 0.13926 0.45633 0.0
C867 C 0.57993 0.14243 0.45521 0.0
C868 C 0.45531 0.90951 0.20526 0.0
C869 C 0.39511 0.91949 0.20673 0.0
H870 H 0.49713 0.88495 0.20625 0.0
C871 C 0.32932 0.9119 0.20469 0.0
H872 H 0.50684 0.91502 0.20646 0.0
C873 C 0.32382 0.89466 0.20492 0.0
C874 C 0.38399 0.88468 0.20668 0.0
H875 H 0.28199 0.91922 0.20572 0.0
H876 H 0.27227 0.88916 0.20585 0.0
C877 C 0.44982 0.89227 0.20498 0.0
C878 C 0.44761 0.91223 0.57734 0.0
C879 C 0.38165 0.91974 0.57539 0.0
H880 H 0.50513 0.88955 0.57609 0.0
C881 C 0.32167 0.90969 0.57692 0.0
H882 H 0.49478 0.91961 0.57626 0.0
C883 C 0.32752 0.89246 0.57718 0.0
C884 C 0.39351 0.88495 0.5754 0.0
H885 H 0.27002 0.91514 0.57579 0.0
H886 H 0.28037 0.88509 0.57597 0.0
C887 C 0.45347 0.89499 0.57709 0.0
C888 C 0.58444 0.66209 0.32682 0.0
C889 C 0.65016 0.66972 0.32497 0.0
H890 H 0.5277 0.6393 0.32553 0.0
C891 C 0.71047 0.65979 0.32663 0.0
H892 H 0.53704 0.66937 0.32563 0.0
C893 C 0.7052 0.64254 0.32692 0.0
C894 C 0.63949 0.6349 0.32504 0.0
H895 H 0.76194 0.66533 0.32557 0.0
H896 H 0.75261 0.63526 0.32581 0.0
C897 C 0.57917 0.64484 0.32661 0.0
C898 C 0.70482 0.66222 0.95446 0.0
C899 C 0.63877 0.66969 0.95633 0.0
H900 H 0.76259 0.63957 0.95581 0.0
C901 C 0.5789 0.6596 0.95476 0.0
H902 H 0.7519 0.66962 0.95557 0.0
C903 C 0.58496 0.64237 0.95454 0.0
C904 C 0.65101 0.6349 0.9564 0.0
H905 H 0.52719 0.66501 0.95584 0.0
H906 H 0.53788 0.63497 0.95572 0.0
C907 C 0.71087 0.64498 0.95475 0.0
C908 C 0.3352 0.41244 0.70475 0.0
C909 C 0.40121 0.41994 0.70644 0.0
H910 H 0.27763 0.38977 0.70619 0.0
C911 C 0.46114 0.40988 0.70466 0.0
H912 H 0.28808 0.41982 0.70603 0.0
C913 C 0.45523 0.39265 0.7044 0.0
C914 C 0.38926 0.38514 0.70642 0.0
H915 H 0.51282 0.41531 0.7056 0.0
H916 H 0.50238 0.38527 0.70541 0.0
C917 C 0.32929 0.3952 0.70499 0.0
C918 C 0.33115 0.4096 0.07676 0.0
C919 C 0.39136 0.41957 0.07515 0.0
H920 H 0.28926 0.38504 0.07584 0.0
C921 C 0.45715 0.41197 0.07699 0.0
H922 H 0.27963 0.41511 0.07571 0.0
C923 C 0.4626 0.39472 0.07672 0.0
C924 C 0.40238 0.38475 0.07511 0.0
H925 H 0.50449 0.41928 0.07585 0.0
H926 H 0.51412 0.38921 0.07563 0.0
C927 C 0.3366 0.39235 0.077 0.0
C928 C 0.85864 0.0722 0.3576 0.0
C929 C 0.93181 0.07265 0.36041 0.0
H930 H 0.76054 0.07246 0.38496 0.0
C931 C 0.96215 0.07187 0.39434 0.0
H932 H 0.83369 0.0728 0.33187 0.0
C933 C 0.92025 0.07207 0.42482 0.0
C934 C 0.84709 0.0726 0.42202 0.0
H935 H 0.01835 0.0723 0.39746 0.0
H936 H 0.94521 0.07256 0.45056 0.0
C937 C 0.81674 0.07196 0.38808 0.0
C938 C 0.31908 0.23246 0.39412 0.0
C939 C 0.34958 0.23165 0.36022 0.0
H940 H 0.33575 0.23185 0.45035 0.0
C941 C 0.42275 0.2321 0.3575 0.0
H942 H 0.26286 0.23203 0.39717 0.0
C943 C 0.46451 0.23239 0.38802 0.0
C944 C 0.434 0.23179 0.42193 0.0
H945 H 0.44782 0.23148 0.3318 0.0
H946 H 0.52072 0.2319 0.38498 0.0
C947 C 0.36083 0.23231 0.42464 0.0
C948 C 0.81945 0.23271 0.89419 0.0
C949 C 0.84969 0.2319 0.86024 0.0
H950 H 0.83653 0.23209 0.9504 0.0
C951 C 0.92285 0.23235 0.85738 0.0
H952 H 0.76325 0.23227 0.89736 0.0
C953 C 0.96483 0.23264 0.88782 0.0
C954 C 0.93457 0.23204 0.92179 0.0
H955 H 0.94773 0.23173 0.83163 0.0
H956 H 0.02103 0.23215 0.88467 0.0
C957 C 0.86142 0.23255 0.92464 0.0
C958 C 0.42066 0.07227 0.92487 0.0
C959 C 0.3475 0.0728 0.9221 0.0
H960 H 0.51871 0.0725 0.89747 0.0
C961 C 0.31709 0.07216 0.88817 0.0
H962 H 0.44566 0.07275 0.9506 0.0
C963 C 0.35893 0.07241 0.85768 0.0
C964 C 0.4321 0.07285 0.86045 0.0
H965 H 0.26088 0.07266 0.88508 0.0
H966 H 0.33394 0.073 0.83196 0.0
C967 C 0.4625 0.07207 0.89437 0.0
C968 C 0.2098 0.98256 0.64401 0.0
C969 C 0.17941 0.98185 0.61008 0.0
H970 H 0.19294 0.98179 0.70022 0.0
C971 C 0.10624 0.98231 0.6073 0.0
H972 H 0.26601 0.98212 0.6471 0.0
C973 C 0.06439 0.98251 0.63779 0.0
C974 C 0.09479 0.98181 0.67172 0.0
H975 H 0.08126 0.98176 0.58158 0.0
H976 H 1.00818 0.98203 0.63469 0.0
C977 C 0.16795 0.98233 0.6745 0.0
C978 C 0.71135 0.82204 0.63793 0.0
C979 C 0.68097 0.82263 0.67187 0.0
H980 H 0.69445 0.82296 0.58173 0.0
C981 C 0.60781 0.82212 0.67465 0.0
H982 H 0.76755 0.82253 0.63484 0.0
C983 C 0.56594 0.82198 0.64417 0.0
C984 C 0.59631 0.82279 0.61025 0.0
H985 H 0.58283 0.82258 0.70039 0.0
H986 H 0.50973 0.82241 0.64728 0.0
C987 C 0.66948 0.82233 0.60745 0.0
C988 C 0.10893 0.82216 0.17443 0.0
C989 C 0.18209 0.82264 0.17165 0.0
H990 H 1.01086 0.82251 0.14707 0.0
C991 C 0.21247 0.82203 0.13771 0.0
H992 H 0.08395 0.82263 0.20017 0.0
C993 C 0.1706 0.82236 0.10723 0.0
C994 C 0.09744 0.82285 0.11002 0.0
H995 H 0.26868 0.82249 0.13461 0.0
H996 H 0.19558 0.82297 0.0815 0.0
C997 C 0.06706 0.82204 0.14395 0.0
C998 C 0.7112 0.98262 0.14433 0.0
C999 C 0.68084 0.98193 0.11039 0.0
H1000 H 0.6943 0.98179 0.20054 0.0
C1001 C 0.60767 0.98238 0.1076 0.0
H1002 H 0.76741 0.98218 0.14743 0.0
C1003 C 0.56579 0.98254 0.13808 0.0
C1004 C 0.59616 0.98181 0.17202 0.0
H1005 H 0.58271 0.98185 0.08187 0.0
H1006 H 0.50959 0.98205 0.13497 0.0
C1007 C 0.66932 0.98234 0.17481 0.0
C1008 C 0.9692 0.57223 0.89392 0.0
C1009 C 0.93879 0.57286 0.85999 0.0
H1010 H 0.95234 0.57306 0.95013 0.0
C1011 C 0.86563 0.57231 0.85722 0.0
H1012 H 0.02541 0.57275 0.89701 0.0
C1013 C 0.82379 0.5721 0.88772 0.0
C1014 C 0.85418 0.57288 0.92164 0.0
H1015 H 0.84063 0.57279 0.83149 0.0
H1016 H 0.76758 0.57251 0.88462 0.0
C1017 C 0.92736 0.57246 0.92441 0.0
C1018 C 0.42453 0.73259 0.85706 0.0
C1019 C 0.35136 0.73208 0.85981 0.0
H1020 H 0.52257 0.73227 0.88446 0.0
C1021 C 0.32094 0.73266 0.89374 0.0
H1022 H 0.44955 0.73214 0.83133 0.0
C1023 C 0.36276 0.73234 0.92424 0.0
C1024 C 0.43593 0.73188 0.92147 0.0
H1025 H 0.26473 0.73218 0.89682 0.0
H1026 H 0.33775 0.73171 0.94995 0.0
C1027 C 0.46635 0.73271 0.88756 0.0
C1028 C 0.9663 0.73244 0.38753 0.0
C1029 C 0.93597 0.73161 0.42146 0.0
H1030 H 0.94935 0.73188 0.33131 0.0
C1031 C 0.86281 0.73208 0.42428 0.0
H1032 H 0.02251 0.732 0.38439 0.0
C1033 C 0.82091 0.73241 0.39381 0.0
C1034 C 0.85124 0.73183 0.35986 0.0
H1035 H 0.83787 0.73144 0.45001 0.0
H1036 H 0.7647 0.73193 0.39693 0.0
C1037 C 0.9244 0.73233 0.35706 0.0
C1038 C 0.36565 0.57202 0.35719 0.0
C1039 C 0.43881 0.57258 0.35999 0.0
H1040 H 0.26755 0.57221 0.38455 0.0
C1041 C 0.46916 0.57194 0.39394 0.0
H1042 H 0.34069 0.57251 0.33145 0.0
C1043 C 0.42726 0.57216 0.42441 0.0
C1044 C 0.35409 0.57258 0.4216 0.0
H1045 H 0.52536 0.57246 0.39705 0.0
H1046 H 0.45221 0.57276 0.45014 0.0
C1047 C 0.32376 0.5718 0.38767 0.0
C1048 C 0.07503 0.48262 0.13783 0.0
C1049 C 0.10539 0.48188 0.17176 0.0
H1050 H 0.09193 0.48186 0.08161 0.0
C1051 C 0.17856 0.48232 0.17455 0.0
H1052 H 0.01882 0.48219 0.13472 0.0
C1053 C 0.22044 0.48252 0.14407 0.0
C1054 C 0.19006 0.48184 0.11013 0.0
H1055 H 0.20353 0.48176 0.20028 0.0
H1056 H 0.27664 0.48202 0.14718 0.0
C1057 C 0.1169 0.48237 0.10734 0.0
C1058 C 0.61523 0.32233 0.17429 0.0
C1059 C 0.6884 0.32283 0.1715 0.0
H1060 H 0.51717 0.32248 0.14691 0.0
C1061 C 0.71878 0.32205 0.13758 0.0
H1062 H 0.59025 0.32292 0.20001 0.0
C1063 C 0.67693 0.32218 0.10709 0.0
C1064 C 0.60376 0.32266 0.10987 0.0
H1065 H 0.77499 0.32251 0.13447 0.0
H1066 H 0.70191 0.32267 0.08136 0.0
C1067 C 0.57338 0.32202 0.14381 0.0
C1068 C 0.07214 0.32198 0.64409 0.0
C1069 C 0.10251 0.32257 0.61015 0.0
H1070 H 0.08903 0.32295 0.70029 0.0
C1071 C 0.17568 0.32211 0.60737 0.0
H1072 H 1.01593 0.32243 0.64719 0.0
C1073 C 0.21755 0.32201 0.63785 0.0
C1074 C 0.18717 0.32283 0.67177 0.0
H1075 H 0.20065 0.32257 0.58163 0.0
H1076 H 0.27375 0.32248 0.63473 0.0
C1077 C 0.11401 0.32233 0.67457 0.0
C1078 C 0.5741 0.48261 0.63764 0.0
C1079 C 0.60446 0.48188 0.67157 0.0
H1080 H 0.59097 0.48183 0.58142 0.0
C1081 C 0.67764 0.48228 0.67435 0.0
H1082 H 0.51788 0.48221 0.63454 0.0
C1083 C 0.7195 0.48245 0.64387 0.0
C1084 C 0.68911 0.48177 0.60994 0.0
H1085 H 0.7026 0.48172 0.70008 0.0
H1086 H 0.7757 0.48193 0.64698 0.0
C1087 C 0.61596 0.48234 0.60715 0.0
loop_
_geom_bond_atom_site_label_1
_geom_bond_atom_site_label_2
_geom_bond_distance
_geom_bond_site_symmetry_2
_ccdc_geom_bond_type
O0 Cd1 2.223 . S
O0 C8 1.315 . S
Cd1 O0 2.223 . S
Cd1 O4 2.297 1_455 S
Cd1 O5 2.439 . S
Cd1 O11 2.240 . S
Cd2 O3 2.240 . S
Cd2 O10 2.223 . S
Cd2 O12 2.297 . S
Cd2 O13 2.439 . S
O3 Cd2 2.240 . S
O3 C8 1.279 . S
O4 Cd1 2.297 1_655 S
O4 C6 1.247 . S
O5 Cd1 2.439 . S
O5 C6 1.208 1_455 S
C6 O4 1.247 . S
C6 O5 1.208 1_655 S
C7 O12 1.247 . S
C7 O13 1.208 . S
C8 O0 1.315 . S
C8 O3 1.279 . S
C9 O10 1.315 . S
C9 O11 1.279 . S
O10 Cd2 2.223 . S
O10 C9 1.315 . S
O11 Cd1 2.240 . S
O11 C9 1.279 . S
O12 Cd2 2.297 . S
O12 C7 1.247 . S
O13 Cd2 2.439 . S
O13 C7 1.208 . S
O14 Cd15 2.223 . S
O14 C22 1.315 . S
Cd15 O14 2.223 . S
Cd15 O18 2.297 . S
Cd15 O19 2.439 . S
Cd15 O25 2.240 . S
Cd16 O17 2.240 . S
Cd16 O24 2.223 . S
Cd16 O26 2.297 . S
Cd16 O27 2.439 . S
O17 Cd16 2.240 . S
O17 C22 1.279 . S
O18 Cd15 2.297 . S
O18 C20 1.247 . S
O19 Cd15 2.439 . S
O19 C20 1.208 . S
C20 O18 1.247 . S
C20 O19 1.208 . S
C21 O26 1.247 . S
C21 O27 1.208 . S
C22 O14 1.315 . S
C22 O17 1.279 . S
C23 O24 1.315 . S
C23 O25 1.279 . S
O24 Cd16 2.223 . S
O24 C23 1.315 . S
O25 Cd15 2.240 . S
O25 C23 1.279 . S
O26 Cd16 2.297 . S
O26 C21 1.247 . S
O27 Cd16 2.439 . S
O27 C21 1.208 . S
O28 Cd29 2.227 . S
O28 C36 1.315 1_554 S
Cd29 O28 2.227 . S
Cd29 O32 2.275 1_454 S
Cd29 O33 2.414 1_554 S
Cd29 O39 2.257 . S
Cd30 O31 2.240 . S
Cd30 O38 2.223 1_556 S
Cd30 O40 2.297 1_556 S
Cd30 O41 2.439 . S
O31 Cd30 2.240 . S
O31 C36 1.279 . S
O32 Cd29 2.275 1_656 S
O32 C34 1.247 . S
O33 Cd29 2.414 1_556 S
O33 C34 1.208 1_455 S
C34 O32 1.247 . S
C34 O33 1.208 1_655 S
C35 O40 1.247 1_556 S
C35 O41 1.208 . S
C36 O28 1.315 1_556 S
C36 O31 1.279 . S
C37 O38 1.315 . S
C37 O39 1.279 . S
O38 Cd30 2.223 1_554 S
O38 C37 1.315 . S
O39 Cd29 2.257 . S
O39 C37 1.279 . S
O40 Cd30 2.297 1_554 S
O40 C35 1.247 1_554 S
O41 Cd30 2.439 . S
O41 C35 1.208 . S
O42 Cd43 2.226 . S
O42 C50 1.315 1_554 S
Cd43 O42 2.226 . S
Cd43 O46 2.275 1_554 S
Cd43 O47 2.414 1_554 S
Cd43 O53 2.257 . S
Cd44 O45 2.240 . S
Cd44 O52 2.223 1_556 S
Cd44 O54 2.297 1_556 S
Cd44 O55 2.439 . S
O45 Cd44 2.240 . S
O45 C50 1.279 . S
O46 Cd43 2.275 1_556 S
O46 C48 1.247 . S
O47 Cd43 2.414 1_556 S
O47 C48 1.208 . S
C48 O46 1.247 . S
C48 O47 1.208 . S
C49 O54 1.247 1_556 S
C49 O55 1.208 . S
C50 O42 1.315 1_556 S
C50 O45 1.279 . S
C51 O52 1.315 . S
C51 O53 1.279 . S
O52 Cd44 2.223 1_554 S
O52 C51 1.315 . S
O53 Cd43 2.257 . S
O53 C51 1.279 . S
O54 Cd44 2.297 1_554 S
O54 C49 1.247 1_554 S
O55 Cd44 2.439 . S
O55 C49 1.208 . S
O56 Cd57 2.223 . S
O56 C64 1.315 . S
Cd57 O56 2.223 . S
Cd57 O60 2.297 1_655 S
Cd57 O61 2.439 . S
Cd57 O67 2.240 . S
Cd58 O59 2.240 . S
Cd58 O66 2.223 . S
Cd58 O68 2.297 . S
Cd58 O69 2.439 . S
O59 Cd58 2.240 . S
O59 C64 1.279 . S
O60 Cd57 2.297 1_455 S
O60 C62 1.247 . S
O61 Cd57 2.439 . S
O61 C62 1.208 1_655 S
C62 O60 1.247 . S
C62 O61 1.208 1_455 S
C63 O68 1.247 . S
C63 O69 1.208 . S
C64 O56 1.315 . S
C64 O59 1.279 . S
C65 O66 1.315 . S
C65 O67 1.279 . S
O66 Cd58 2.223 . S
O66 C65 1.315 . S
O67 Cd57 2.240 . S
O67 C65 1.279 . S
O68 Cd58 2.297 . S
O68 C63 1.247 . S
O69 Cd58 2.439 . S
O69 C63 1.208 . S
O70 Cd71 2.223 . S
O70 C78 1.315 . S
Cd71 O70 2.223 . S
Cd71 O74 2.297 . S
Cd71 O75 2.439 . S
Cd71 O81 2.240 . S
Cd72 O73 2.240 . S
Cd72 O80 2.223 . S
Cd72 O82 2.297 . S
Cd72 O83 2.439 . S
O73 Cd72 2.240 . S
O73 C78 1.279 . S
O74 Cd71 2.297 . S
O74 C76 1.247 . S
O75 Cd71 2.439 . S
O75 C76 1.208 . S
C76 O74 1.247 . S
C76 O75 1.208 . S
C77 O82 1.247 . S
C77 O83 1.208 . S
C78 O70 1.315 . S
C78 O73 1.279 . S
C79 O80 1.315 . S
C79 O81 1.279 . S
O80 Cd72 2.223 . S
O80 C79 1.315 . S
O81 Cd71 2.240 . S
O81 C79 1.279 . S
O82 Cd72 2.297 . S
O82 C77 1.247 . S
O83 Cd72 2.439 . S
O83 C77 1.208 . S
O84 Cd85 2.227 . S
O84 C92 1.315 1_556 S
Cd85 O84 2.227 . S
Cd85 O88 2.275 1_656 S
Cd85 O89 2.414 1_556 S
Cd85 O95 2.257 . S
Cd86 O87 2.240 . S
Cd86 O94 2.223 1_554 S
Cd86 O96 2.297 1_554 S
Cd86 O97 2.439 . S
O87 Cd86 2.240 . S
O87 C92 1.279 . S
O88 Cd85 2.275 1_454 S
O88 C90 1.247 . S
O89 Cd85 2.414 1_554 S
O89 C90 1.208 1_655 S
C90 O88 1.247 . S
C90 O89 1.208 1_455 S
C91 O96 1.247 1_554 S
C91 O97 1.208 . S
C92 O84 1.315 1_554 S
C92 O87 1.279 . S
C93 O94 1.315 . S
C93 O95 1.279 . S
O94 Cd86 2.223 1_556 S
O94 C93 1.315 . S
O95 Cd85 2.257 . S
O95 C93 1.279 . S
O96 Cd86 2.297 1_556 S
O96 C91 1.247 1_556 S
O97 Cd86 2.439 . S
O97 C91 1.208 . S
O98 Cd99 2.226 . S
O98 C106 1.315 1_556 S
Cd99 O98 2.226 . S
Cd99 O102 2.275 1_556 S
Cd99 O103 2.414 1_556 S
Cd99 O109 2.257 . S
Cd100 O101 2.240 . S
Cd100 O108 2.223 1_554 S
Cd100 O110 2.297 1_554 S
Cd100 O111 2.439 . S
O101 Cd100 2.240 . S
O101 C106 1.279 . S
O102 Cd99 2.275 1_554 S
O102 C104 1.247 . S
O103 Cd99 2.414 1_554 S
O103 C104 1.208 . S
C104 O102 1.247 . S
C104 O103 1.208 . S
C105 O110 1.247 1_554 S
C105 O111 1.208 . S
C106 O98 1.315 1_554 S
C106 O101 1.279 . S
C107 O108 1.315 . S
C107 O109 1.279 . S
O108 Cd100 2.223 1_556 S
O108 C107 1.315 . S
O109 Cd99 2.257 . S
O109 C107 1.279 . S
O110 Cd100 2.297 1_556 S
O110 C105 1.247 1_556 S
O111 Cd100 2.439 . S
O111 C105 1.208 . S
O112 Cd113 2.224 . S
O112 C120 1.315 . S
Cd113 O112 2.224 . S
Cd113 O116 2.297 1_455 S
Cd113 O117 2.439 . S
Cd113 O123 2.241 . S
Cd114 O115 2.240 . S
Cd114 O122 2.223 . S
Cd114 O124 2.297 . S
Cd114 O125 2.439 . S
O115 Cd114 2.240 . S
O115 C120 1.279 . S
O116 Cd113 2.297 1_655 S
O116 C118 1.247 . S
O117 Cd113 2.439 . S
O117 C118 1.208 1_455 S
C118 O116 1.247 . S
C118 O117 1.208 1_655 S
C119 O124 1.247 . S
C119 O125 1.208 . S
C120 O112 1.315 . S
C120 O115 1.279 . S
C121 O122 1.315 . S
C121 O123 1.279 . S
O122 Cd114 2.223 . S
O122 C121 1.315 . S
O123 Cd113 2.241 . S
O123 C121 1.279 . S
O124 Cd114 2.297 . S
O124 C119 1.247 . S
O125 Cd114 2.439 . S
O125 C119 1.208 . S
O126 Cd127 2.223 . S
O126 C134 1.315 . S
Cd127 O126 2.223 . S
Cd127 O130 2.297 . S
Cd127 O131 2.439 . S
Cd127 O137 2.240 . S
Cd128 O129 2.240 . S
Cd128 O136 2.223 . S
Cd128 O138 2.297 . S
Cd128 O139 2.439 . S
O129 Cd128 2.240 . S
O129 C134 1.279 . S
O130 Cd127 2.297 . S
O130 C132 1.247 . S
O131 Cd127 2.439 . S
O131 C132 1.208 . S
C132 O130 1.247 . S
C132 O131 1.208 . S
C133 O138 1.247 . S
C133 O139 1.208 . S
C134 O126 1.315 . S
C134 O129 1.279 . S
C135 O136 1.315 . S
C135 O137 1.279 . S
O136 Cd128 2.223 . S
O136 C135 1.315 . S
O137 Cd127 2.240 . S
O137 C135 1.279 . S
O138 Cd128 2.297 . S
O138 C133 1.247 . S
O139 Cd128 2.439 . S
O139 C133 1.208 . S
O140 Cd141 2.224 . S
O140 C148 1.315 . S
Cd141 O140 2.224 . S
Cd141 O144 2.297 1_455 S
Cd141 O145 2.439 . S
Cd141 O151 2.241 . S
Cd142 O143 2.240 . S
Cd142 O150 2.223 . S
Cd142 O152 2.297 . S
Cd142 O153 2.439 . S
O143 Cd142 2.240 . S
O143 C148 1.279 . S
O144 Cd141 2.297 1_655 S
O144 C146 1.247 . S
O145 Cd141 2.439 . S
O145 C146 1.208 1_455 S
C146 O144 1.247 . S
C146 O145 1.208 1_655 S
C147 O152 1.247 . S
C147 O153 1.208 . S
C148 O140 1.315 . S
C148 O143 1.279 . S
C149 O150 1.315 . S
C149 O151 1.279 . S
O150 Cd142 2.223 . S
O150 C149 1.315 . S
O151 Cd141 2.241 . S
O151 C149 1.279 . S
O152 Cd142 2.297 . S
O152 C147 1.247 . S
O153 Cd142 2.439 . S
O153 C147 1.208 . S
O154 Cd155 2.223 . S
O154 C162 1.315 . S
Cd155 O154 2.223 . S
Cd155 O158 2.297 . S
Cd155 O159 2.439 . S
Cd155 O165 2.240 . S
Cd156 O157 2.240 . S
Cd156 O164 2.223 . S
Cd156 O166 2.297 . S
Cd156 O167 2.439 . S
O157 Cd156 2.240 . S
O157 C162 1.279 . S
O158 Cd155 2.297 . S
O158 C160 1.247 . S
O159 Cd155 2.439 . S
O159 C160 1.208 . S
C160 O158 1.247 . S
C160 O159 1.208 . S
C161 O166 1.247 . S
C161 O167 1.208 . S
C162 O154 1.315 . S
C162 O157 1.279 . S
C163 O164 1.315 . S
C163 O165 1.279 . S
O164 Cd156 2.223 . S
O164 C163 1.315 . S
O165 Cd155 2.240 . S
O165 C163 1.279 . S
O166 Cd156 2.297 . S
O166 C161 1.247 . S
O167 Cd156 2.439 . S
O167 C161 1.208 . S
O168 Cd169 2.224 . S
O168 C176 1.315 . S
Cd169 O168 2.224 . S
Cd169 O172 2.297 1_655 S
Cd169 O173 2.439 . S
Cd169 O179 2.241 . S
Cd170 O171 2.240 . S
Cd170 O178 2.223 . S
Cd170 O180 2.297 . S
Cd170 O181 2.439 . S
O171 Cd170 2.240 . S
O171 C176 1.279 . S
O172 Cd169 2.297 1_455 S
O172 C174 1.247 . S
O173 Cd169 2.439 . S
O173 C174 1.208 1_655 S
C174 O172 1.247 . S
C174 O173 1.208 1_455 S
C175 O180 1.247 . S
C175 O181 1.208 . S
C176 O168 1.315 . S
C176 O171 1.279 . S
C177 O178 1.315 . S
C177 O179 1.279 . S
O178 Cd170 2.223 . S
O178 C177 1.315 . S
O179 Cd169 2.241 . S
O179 C177 1.279 . S
O180 Cd170 2.297 . S
O180 C175 1.247 . S
O181 Cd170 2.439 . S
O181 C175 1.208 . S
O182 Cd183 2.223 . S
O182 C190 1.315 . S
Cd183 O182 2.223 . S
Cd183 O186 2.297 . S
Cd183 O187 2.439 . S
Cd183 O193 2.240 . S
Cd184 O185 2.240 . S
Cd184 O192 2.223 . S
Cd184 O194 2.297 . S
Cd184 O195 2.439 . S
O185 Cd184 2.240 . S
O185 C190 1.279 . S
O186 Cd183 2.297 . S
O186 C188 1.247 . S
O187 Cd183 2.439 . S
O187 C188 1.208 . S
C188 O186 1.247 . S
C188 O187 1.208 . S
C189 O194 1.247 . S
C189 O195 1.208 . S
C190 O182 1.315 . S
C190 O185 1.279 . S
C191 O192 1.315 . S
C191 O193 1.279 . S
O192 Cd184 2.223 . S
O192 C191 1.315 . S
O193 Cd183 2.240 . S
O193 C191 1.279 . S
O194 Cd184 2.297 . S
O194 C189 1.247 . S
O195 Cd184 2.439 . S
O195 C189 1.208 . S
O196 Cd197 2.224 . S
O196 C204 1.315 . S
Cd197 O196 2.224 . S
Cd197 O200 2.297 1_655 S
Cd197 O201 2.439 . S
Cd197 O207 2.241 . S
Cd198 O199 2.240 . S
Cd198 O206 2.223 . S
Cd198 O208 2.297 . S
Cd198 O209 2.439 . S
O199 Cd198 2.240 . S
O199 C204 1.279 . S
O200 Cd197 2.297 1_455 S
O200 C202 1.247 . S
O201 Cd197 2.439 . S
O201 C202 1.208 1_655 S
C202 O200 1.247 . S
C202 O201 1.208 1_455 S
C203 O208 1.247 . S
C203 O209 1.208 . S
C204 O196 1.315 . S
C204 O199 1.279 . S
C205 O206 1.315 . S
C205 O207 1.279 . S
O206 Cd198 2.223 . S
O206 C205 1.315 . S
O207 Cd197 2.241 . S
O207 C205 1.279 . S
O208 Cd198 2.297 . S
O208 C203 1.247 . S
O209 Cd198 2.439 . S
O209 C203 1.208 . S
O210 Cd211 2.223 . S
O210 C218 1.315 . S
Cd211 O210 2.223 . S
Cd211 O214 2.297 . S
Cd211 O215 2.439 . S
Cd211 O221 2.240 . S
Cd212 O213 2.240 . S
Cd212 O220 2.223 . S
Cd212 O222 2.297 . S
Cd212 O223 2.439 . S
O213 Cd212 2.240 . S
O213 C218 1.279 . S
O214 Cd211 2.297 . S
O214 C216 1.247 . S
O215 Cd211 2.439 . S
O215 C216 1.208 . S
C216 O214 1.247 . S
C216 O215 1.208 . S
C217 O222 1.247 . S
C217 O223 1.208 . S
C218 O210 1.315 . S
C218 O213 1.279 . S
C219 O220 1.315 . S
C219 O221 1.279 . S
O220 Cd212 2.223 . S
O220 C219 1.315 . S
O221 Cd211 2.240 . S
O221 C219 1.279 . S
O222 Cd212 2.297 . S
O222 C217 1.247 . S
O223 Cd212 2.439 . S
O223 C217 1.208 . S
O224 Cd225 2.223 . S
O224 C232 1.315 . S
Cd225 O224 2.223 . S
Cd225 O228 2.297 . S
Cd225 O229 2.439 . S
Cd225 O235 2.240 . S
Cd226 O227 2.240 . S
Cd226 O234 2.223 . S
Cd226 O236 2.297 . S
Cd226 O237 2.439 . S
O227 Cd226 2.240 . S
O227 C232 1.279 . S
O228 Cd225 2.297 . S
O228 C230 1.247 . S
O229 Cd225 2.439 . S
O229 C230 1.208 . S
C230 O228 1.247 . S
C230 O229 1.208 . S
C231 O236 1.247 . S
C231 O237 1.208 . S
C232 O224 1.315 . S
C232 O227 1.279 . S
C233 O234 1.315 . S
C233 O235 1.279 . S
O234 Cd226 2.223 . S
O234 C233 1.315 . S
O235 Cd225 2.240 . S
O235 C233 1.279 . S
O236 Cd226 2.297 . S
O236 C231 1.247 . S
O237 Cd226 2.439 . S
O237 C231 1.208 . S
O238 Cd239 2.223 . S
O238 C246 1.315 . S
Cd239 O238 2.223 . S
Cd239 O242 2.297 . S
Cd239 O243 2.439 . S
Cd239 O249 2.240 . S
Cd240 O241 2.240 . S
Cd240 O248 2.223 . S
Cd240 O250 2.297 . S
Cd240 O251 2.439 . S
O241 Cd240 2.240 . S
O241 C246 1.279 . S
O242 Cd239 2.297 . S
O242 C244 1.247 . S
O243 Cd239 2.439 . S
O243 C244 1.208 . S
C244 O242 1.247 . S
C244 O243 1.208 . S
C245 O250 1.247 . S
C245 O251 1.208 . S
C246 O238 1.315 . S
C246 O241 1.279 . S
C247 O248 1.315 . S
C247 O249 1.279 . S
O248 Cd240 2.223 . S
O248 C247 1.315 . S
O249 Cd239 2.240 . S
O249 C247 1.279 . S
O250 Cd240 2.297 . S
O250 C245 1.247 . S
O251 Cd240 2.439 . S
O251 C245 1.208 . S
O252 Cd253 2.223 . S
O252 C260 1.315 . S
Cd253 O252 2.223 . S
Cd253 O256 2.297 . S
Cd253 O257 2.439 . S
Cd253 O263 2.240 . S
Cd254 O255 2.240 . S
Cd254 O262 2.223 . S
Cd254 O264 2.297 . S
Cd254 O265 2.439 . S
O255 Cd254 2.240 . S
O255 C260 1.279 . S
O256 Cd253 2.297 . S
O256 C258 1.247 . S
O257 Cd253 2.439 . S
O257 C258 1.208 . S
C258 O256 1.247 . S
C258 O257 1.208 . S
C259 O264 1.247 . S
C259 O265 1.208 . S
C260 O252 1.315 . S
C260 O255 1.279 . S
C261 O262 1.315 . S
C261 O263 1.279 . S
O262 Cd254 2.223 . S
O262 C261 1.315 . S
O263 Cd253 2.240 . S
O263 C261 1.279 . S
O264 Cd254 2.297 . S
O264 C259 1.247 . S
O265 Cd254 2.439 . S
O265 C259 1.208 . S
O266 Cd267 2.223 . S
O266 C274 1.315 . S
Cd267 O266 2.223 . S
Cd267 O270 2.297 . S
Cd267 O271 2.439 . S
Cd267 O277 2.240 . S
Cd268 O269 2.240 . S
Cd268 O276 2.223 . S
Cd268 O278 2.297 . S
Cd268 O279 2.439 . S
O269 Cd268 2.240 . S
O269 C274 1.279 . S
O270 Cd267 2.297 . S
O270 C272 1.247 . S
O271 Cd267 2.439 . S
O271 C272 1.208 . S
C272 O270 1.247 . S
C272 O271 1.208 . S
C273 O278 1.247 . S
C273 O279 1.208 . S
C274 O266 1.315 . S
C274 O269 1.279 . S
C275 O276 1.315 . S
C275 O277 1.279 . S
O276 Cd268 2.223 . S
O276 C275 1.315 . S
O277 Cd267 2.240 . S
O277 C275 1.279 . S
O278 Cd268 2.297 . S
O278 C273 1.247 . S
O279 Cd268 2.439 . S
O279 C273 1.208 . S
O280 Cd281 2.223 . S
O280 C288 1.315 . S
Cd281 O280 2.223 . S
Cd281 O284 2.297 . S
Cd281 O285 2.439 . S
Cd281 O291 2.240 . S
Cd282 O283 2.240 . S
Cd282 O290 2.223 . S
Cd282 O292 2.297 . S
Cd282 O293 2.439 . S
O283 Cd282 2.240 . S
O283 C288 1.279 . S
O284 Cd281 2.297 . S
O284 C286 1.247 . S
O285 Cd281 2.439 . S
O285 C286 1.208 . S
C286 O284 1.247 . S
C286 O285 1.208 . S
C287 O292 1.247 . S
C287 O293 1.208 . S
C288 O280 1.315 . S
C288 O283 1.279 . S
C289 O290 1.315 . S
C289 O291 1.279 . S
O290 Cd282 2.223 . S
O290 C289 1.315 . S
O291 Cd281 2.240 . S
O291 C289 1.279 . S
O292 Cd282 2.297 . S
O292 C287 1.247 . S
O293 Cd282 2.439 . S
O293 C287 1.208 . S
O294 Cd295 2.223 . S
O294 C302 1.315 . S
Cd295 O294 2.223 . S
Cd295 O298 2.297 . S
Cd295 O299 2.439 . S
Cd295 O305 2.240 . S
Cd296 O297 2.240 . S
Cd296 O304 2.223 . S
Cd296 O306 2.297 . S
Cd296 O307 2.439 . S
O297 Cd296 2.240 . S
O297 C302 1.279 . S
O298 Cd295 2.297 . S
O298 C300 1.247 . S
O299 Cd295 2.439 . S
O299 C300 1.208 . S
C300 O298 1.247 . S
C300 O299 1.208 . S
C301 O306 1.247 . S
C301 O307 1.208 . S
C302 O294 1.315 . S
C302 O297 1.279 . S
C303 O304 1.315 . S
C303 O305 1.279 . S
O304 Cd296 2.223 . S
O304 C303 1.315 . S
O305 Cd295 2.240 . S
O305 C303 1.279 . S
O306 Cd296 2.297 . S
O306 C301 1.247 . S
O307 Cd296 2.439 . S
O307 C301 1.208 . S
O308 Cd309 2.223 . S
O308 C316 1.315 . S
Cd309 O308 2.223 . S
Cd309 O312 2.297 . S
Cd309 O313 2.439 . S
Cd309 O319 2.240 . S
Cd310 O311 2.240 . S
Cd310 O318 2.223 . S
Cd310 O320 2.297 . S
Cd310 O321 2.439 . S
O311 Cd310 2.240 . S
O311 C316 1.279 . S
O312 Cd309 2.297 . S
O312 C314 1.247 . S
O313 Cd309 2.439 . S
O313 C314 1.208 . S
C314 O312 1.247 . S
C314 O313 1.208 . S
C315 O320 1.247 . S
C315 O321 1.208 . S
C316 O308 1.315 . S
C316 O311 1.279 . S
C317 O318 1.315 . S
C317 O319 1.279 . S
O318 Cd310 2.223 . S
O318 C317 1.315 . S
O319 Cd309 2.240 . S
O319 C317 1.279 . S
O320 Cd310 2.297 . S
O320 C315 1.247 . S
O321 Cd310 2.439 . S
O321 C315 1.208 . S
O322 Cd323 2.223 . S
O322 C330 1.315 . S
Cd323 O322 2.223 . S
Cd323 O326 2.297 . S
Cd323 O327 2.439 . S
Cd323 O333 2.240 . S
Cd324 O325 2.240 . S
Cd324 O332 2.223 . S
Cd324 O334 2.297 . S
Cd324 O335 2.439 . S
O325 Cd324 2.240 . S
O325 C330 1.279 . S
O326 Cd323 2.297 . S
O326 C328 1.247 . S
O327 Cd323 2.439 . S
O327 C328 1.208 . S
C328 O326 1.247 . S
C328 O327 1.208 . S
C329 O334 1.247 . S
C329 O335 1.208 . S
C330 O322 1.315 . S
C330 O325 1.279 . S
C331 O332 1.315 . S
C331 O333 1.279 . S
O332 Cd324 2.223 . S
O332 C331 1.315 . S
O333 Cd323 2.240 . S
O333 C331 1.279 . S
O334 Cd324 2.297 . S
O334 C329 1.247 . S
O335 Cd324 2.439 . S
O335 C329 1.208 . S
O336 Cd337 2.223 . S
O336 C344 1.315 . S
Cd337 O336 2.223 . S
Cd337 O340 2.297 . S
Cd337 O341 2.439 . S
Cd337 O347 2.240 . S
Cd338 O339 2.240 . S
Cd338 O346 2.223 . S
Cd338 O348 2.297 . S
Cd338 O349 2.439 . S
O339 Cd338 2.240 . S
O339 C344 1.279 . S
O340 Cd337 2.297 . S
O340 C342 1.247 . S
O341 Cd337 2.439 . S
O341 C342 1.208 . S
C342 O340 1.247 . S
C342 O341 1.208 . S
C343 O348 1.247 . S
C343 O349 1.208 . S
C344 O336 1.315 . S
C344 O339 1.279 . S
C345 O346 1.315 . S
C345 O347 1.279 . S
O346 Cd338 2.223 . S
O346 C345 1.315 . S
O347 Cd337 2.240 . S
O347 C345 1.279 . S
O348 Cd338 2.297 . S
O348 C343 1.247 . S
O349 Cd338 2.439 . S
O349 C343 1.208 . S
O350 Cd351 2.223 . S
O350 C358 1.315 . S
Cd351 O350 2.223 . S
Cd351 O354 2.297 . S
Cd351 O355 2.439 . S
Cd351 O361 2.240 . S
Cd352 O353 2.240 . S
Cd352 O360 2.223 . S
Cd352 O362 2.297 . S
Cd352 O363 2.439 . S
O353 Cd352 2.240 . S
O353 C358 1.279 . S
O354 Cd351 2.297 . S
O354 C356 1.247 . S
O355 Cd351 2.439 . S
O355 C356 1.208 . S
C356 O354 1.247 . S
C356 O355 1.208 . S
C357 O362 1.247 . S
C357 O363 1.208 . S
C358 O350 1.315 . S
C358 O353 1.279 . S
C359 O360 1.315 . S
C359 O361 1.279 . S
O360 Cd352 2.223 . S
O360 C359 1.315 . S
O361 Cd351 2.240 . S
O361 C359 1.279 . S
O362 Cd352 2.297 . S
O362 C357 1.247 . S
O363 Cd352 2.439 . S
O363 C357 1.208 . S
O364 Cd365 2.226 . S
O364 C372 1.315 1_554 S
Cd365 O364 2.226 . S
Cd365 O368 2.275 1_554 S
Cd365 O369 2.414 1_554 S
Cd365 O375 2.257 . S
Cd366 O367 2.240 . S
Cd366 O374 2.223 1_556 S
Cd366 O376 2.297 1_556 S
Cd366 O377 2.439 . S
O367 Cd366 2.240 . S
O367 C372 1.279 . S
O368 Cd365 2.275 1_556 S
O368 C370 1.247 . S
O369 Cd365 2.414 1_556 S
O369 C370 1.208 . S
C370 O368 1.247 . S
C370 O369 1.208 . S
C371 O376 1.247 1_556 S
C371 O377 1.208 . S
C372 O364 1.315 1_556 S
C372 O367 1.279 . S
C373 O374 1.315 . S
C373 O375 1.279 . S
O374 Cd366 2.223 1_554 S
O374 C373 1.315 . S
O375 Cd365 2.257 . S
O375 C373 1.279 . S
O376 Cd366 2.297 1_554 S
O376 C371 1.247 1_554 S
O377 Cd366 2.439 . S
O377 C371 1.208 . S
O378 Cd379 2.226 . S
O378 C386 1.315 1_554 S
Cd379 O378 2.226 . S
Cd379 O382 2.275 1_554 S
Cd379 O383 2.414 1_554 S
Cd379 O389 2.257 . S
Cd380 O381 2.240 . S
Cd380 O388 2.223 1_556 S
Cd380 O390 2.297 1_556 S
Cd380 O391 2.439 . S
O381 Cd380 2.240 . S
O381 C386 1.279 . S
O382 Cd379 2.275 1_556 S
O382 C384 1.247 . S
O383 Cd379 2.414 1_556 S
O383 C384 1.208 . S
C384 O382 1.247 . S
C384 O383 1.208 . S
C385 O390 1.247 1_556 S
C385 O391 1.208 . S
C386 O378 1.315 1_556 S
C386 O381 1.279 . S
C387 O388 1.315 . S
C387 O389 1.279 . S
O388 Cd380 2.223 1_554 S
O388 C387 1.315 . S
O389 Cd379 2.257 . S
O389 C387 1.279 . S
O390 Cd380 2.297 1_554 S
O390 C385 1.247 1_554 S
O391 Cd380 2.439 . S
O391 C385 1.208 . S
O392 Cd393 2.223 . S
O392 C400 1.315 . S
Cd393 O392 2.223 . S
Cd393 O396 2.297 . S
Cd393 O397 2.439 . S
Cd393 O403 2.240 . S
Cd394 O395 2.240 . S
Cd394 O402 2.223 . S
Cd394 O404 2.297 . S
Cd394 O405 2.439 . S
O395 Cd394 2.240 . S
O395 C400 1.279 . S
O396 Cd393 2.297 . S
O396 C398 1.247 . S
O397 Cd393 2.439 . S
O397 C398 1.208 . S
C398 O396 1.247 . S
C398 O397 1.208 . S
C399 O404 1.247 . S
C399 O405 1.208 . S
C400 O392 1.315 . S
C400 O395 1.279 . S
C401 O402 1.315 . S
C401 O403 1.279 . S
O402 Cd394 2.223 . S
O402 C401 1.315 . S
O403 Cd393 2.240 . S
O403 C401 1.279 . S
O404 Cd394 2.297 . S
O404 C399 1.247 . S
O405 Cd394 2.439 . S
O405 C399 1.208 . S
O406 Cd407 2.223 . S
O406 C414 1.315 . S
Cd407 O406 2.223 . S
Cd407 O410 2.297 . S
Cd407 O411 2.439 . S
Cd407 O417 2.240 . S
Cd408 O409 2.240 . S
Cd408 O416 2.223 . S
Cd408 O418 2.297 . S
Cd408 O419 2.439 . S
O409 Cd408 2.240 . S
O409 C414 1.279 . S
O410 Cd407 2.297 . S
O410 C412 1.247 . S
O411 Cd407 2.439 . S
O411 C412 1.208 . S
C412 O410 1.247 . S
C412 O411 1.208 . S
C413 O418 1.247 . S
C413 O419 1.208 . S
C414 O406 1.315 . S
C414 O409 1.279 . S
C415 O416 1.315 . S
C415 O417 1.279 . S
O416 Cd408 2.223 . S
O416 C415 1.315 . S
O417 Cd407 2.240 . S
O417 C415 1.279 . S
O418 Cd408 2.297 . S
O418 C413 1.247 . S
O419 Cd408 2.439 . S
O419 C413 1.208 . S
O420 Cd421 2.226 . S
O420 C428 1.315 1_556 S
Cd421 O420 2.226 . S
Cd421 O424 2.275 1_556 S
Cd421 O425 2.414 1_556 S
Cd421 O431 2.257 . S
Cd422 O423 2.240 . S
Cd422 O430 2.223 1_554 S
Cd422 O432 2.297 1_554 S
Cd422 O433 2.439 . S
O423 Cd422 2.240 . S
O423 C428 1.279 . S
O424 Cd421 2.275 1_554 S
O424 C426 1.247 . S
O425 Cd421 2.414 1_554 S
O425 C426 1.208 . S
C426 O424 1.247 . S
C426 O425 1.208 . S
C427 O432 1.247 1_554 S
C427 O433 1.208 . S
C428 O420 1.315 1_554 S
C428 O423 1.279 . S
C429 O430 1.315 . S
C429 O431 1.279 . S
O430 Cd422 2.223 1_556 S
O430 C429 1.315 . S
O431 Cd421 2.257 . S
O431 C429 1.279 . S
O432 Cd422 2.297 1_556 S
O432 C427 1.247 1_556 S
O433 Cd422 2.439 . S
O433 C427 1.208 . S
O434 Cd435 2.226 . S
O434 C442 1.315 1_556 S
Cd435 O434 2.226 . S
Cd435 O438 2.275 1_556 S
Cd435 O439 2.414 1_556 S
Cd435 O445 2.257 . S
Cd436 O437 2.240 . S
Cd436 O444 2.223 1_554 S
Cd436 O446 2.297 1_554 S
Cd436 O447 2.439 . S
O437 Cd436 2.240 . S
O437 C442 1.279 . S
O438 Cd435 2.275 1_554 S
O438 C440 1.247 . S
O439 Cd435 2.414 1_554 S
O439 C440 1.208 . S
C440 O438 1.247 . S
C440 O439 1.208 . S
C441 O446 1.247 1_554 S
C441 O447 1.208 . S
C442 O434 1.315 1_554 S
C442 O437 1.279 . S
C443 O444 1.315 . S
C443 O445 1.279 . S
O444 Cd436 2.223 1_556 S
O444 C443 1.315 . S
O445 Cd435 2.257 . S
O445 C443 1.279 . S
O446 Cd436 2.297 1_556 S
O446 C441 1.247 1_556 S
O447 Cd436 2.439 . S
O447 C441 1.208 . S
C448 C449 1.387 . S
C448 H452 0.950 . S
C448 C457 1.390 . S
C449 C448 1.387 . S
C449 C451 1.387 . S
H450 C457 0.950 . S
C451 C449 1.387 . S
C451 C453 1.390 . S
C451 H455 0.950 . S
H452 C448 0.950 . S
C453 C451 1.390 . S
C453 C454 1.387 . S
C453 H456 0.950 . S
C454 C453 1.387 . S
C454 C457 1.387 . S
H455 C451 0.950 . S
H456 C453 0.950 . S
C457 C448 1.390 . S
C457 H450 0.950 . S
C457 C454 1.387 . S
C458 C459 1.387 . S
C458 H462 0.950 . S
C458 C467 1.390 . S
C459 C458 1.387 . S
C459 C461 1.387 . S
H460 C467 0.950 . S
C461 C459 1.387 . S
C461 C463 1.390 . S
C461 H465 0.950 . S
H462 C458 0.950 . S
C463 C461 1.390 . S
C463 C464 1.387 . S
C463 H466 0.950 . S
C464 C463 1.387 . S
C464 C467 1.387 . S
H465 C461 0.950 . S
H466 C463 0.950 . S
C467 C458 1.390 . S
C467 H460 0.950 . S
C467 C464 1.387 . S
C468 C469 1.387 . S
C468 H472 0.950 . S
C468 C477 1.390 . S
C469 C468 1.387 . S
C469 C471 1.387 . S
H470 C477 0.950 . S
C471 C469 1.387 . S
C471 C473 1.390 . S
C471 H475 0.950 . S
H472 C468 0.950 . S
C473 C471 1.390 . S
C473 C474 1.387 . S
C473 H476 0.950 . S
C474 C473 1.387 . S
C474 C477 1.387 . S
H475 C471 0.950 . S
H476 C473 0.950 . S
C477 C468 1.390 . S
C477 H470 0.950 . S
C477 C474 1.387 . S
C478 C479 1.387 . S
C478 H482 0.950 . S
C478 C487 1.390 . S
C479 C478 1.387 . S
C479 C481 1.387 . S
H480 C487 0.950 . S
C481 C479 1.387 . S
C481 C483 1.390 . S
C481 H485 0.950 . S
H482 C478 0.950 . S
C483 C481 1.390 . S
C483 C484 1.387 . S
C483 H486 0.950 . S
C484 C483 1.387 . S
C484 C487 1.387 . S
H485 C481 0.950 . S
H486 C483 0.950 . S
C487 C478 1.390 . S
C487 H480 0.950 . S
C487 C484 1.387 . S
C488 C489 1.387 . S
C488 H492 0.950 . S
C488 C497 1.390 . S
C489 C488 1.387 . S
C489 C491 1.387 . S
H490 C497 0.950 . S
C491 C489 1.387 . S
C491 C493 1.390 . S
C491 H495 0.950 . S
H492 C488 0.950 . S
C493 C491 1.390 . S
C493 C494 1.387 . S
C493 H496 0.950 . S
C494 C493 1.387 . S
C494 C497 1.387 . S
H495 C491 0.950 . S
H496 C493 0.950 . S
C497 C488 1.390 . S
C497 H490 0.950 . S
C497 C494 1.387 . S
C498 C499 1.387 . S
C498 H502 0.950 . S
C498 C507 1.390 . S
C499 C498 1.387 . S
C499 C501 1.387 . S
H500 C507 0.950 . S
C501 C499 1.387 . S
C501 C503 1.390 . S
C501 H505 0.950 . S
H502 C498 0.950 . S
C503 C501 1.390 . S
C503 C504 1.387 . S
C503 H506 0.950 . S
C504 C503 1.387 . S
C504 C507 1.387 . S
H505 C501 0.950 . S
H506 C503 0.950 . S
C507 C498 1.390 . S
C507 H500 0.950 . S
C507 C504 1.387 . S
C508 C509 1.387 . S
C508 H512 0.950 . S
C508 C517 1.390 . S
C509 C508 1.387 . S
C509 C511 1.387 . S
H510 C517 0.950 . S
C511 C509 1.387 . S
C511 C513 1.390 . S
C511 H515 0.950 . S
H512 C508 0.950 . S
C513 C511 1.390 . S
C513 C514 1.387 . S
C513 H516 0.950 . S
C514 C513 1.387 . S
C514 C517 1.387 . S
H515 C511 0.950 . S
H516 C513 0.950 . S
C517 C508 1.390 . S
C517 H510 0.950 . S
C517 C514 1.387 . S
C518 C519 1.387 . S
C518 H522 0.950 . S
C518 C527 1.390 . S
C519 C518 1.387 . S
C519 C521 1.387 . S
H520 C527 0.950 . S
C521 C519 1.387 . S
C521 C523 1.390 . S
C521 H525 0.950 . S
H522 C518 0.950 . S
C523 C521 1.390 . S
C523 C524 1.387 . S
C523 H526 0.950 . S
C524 C523 1.387 . S
C524 C527 1.387 . S
H525 C521 0.950 . S
H526 C523 0.950 . S
C527 C518 1.390 . S
C527 H520 0.950 . S
C527 C524 1.387 . S
C528 C529 1.387 . S
C528 H532 0.950 . S
C528 C537 1.390 . S
C529 C528 1.387 . S
C529 C531 1.387 . S
H530 C537 0.950 . S
C531 C529 1.387 . S
C531 C533 1.390 . S
C531 H535 0.950 . S
H532 C528 0.950 . S
C533 C531 1.390 . S
C533 C534 1.387 . S
C533 H536 0.950 . S
C534 C533 1.387 . S
C534 C537 1.387 . S
H535 C531 0.950 . S
H536 C533 0.950 . S
C537 C528 1.390 . S
C537 H530 0.950 . S
C537 C534 1.387 . S
C538 C539 1.387 . S
C538 H542 0.950 . S
C538 C547 1.390 . S
C539 C538 1.387 . S
C539 C541 1.387 . S
H540 C547 0.950 . S
C541 C539 1.387 . S
C541 C543 1.390 . S
C541 H545 0.950 . S
H542 C538 0.950 . S
C543 C541 1.390 . S
C543 C544 1.387 . S
C543 H546 0.950 . S
C544 C543 1.387 . S
C544 C547 1.387 . S
H545 C541 0.950 . S
H546 C543 0.950 . S
C547 C538 1.390 . S
C547 H540 0.950 . S
C547 C544 1.387 . S
C548 C549 1.387 . S
C548 H552 0.950 . S
C548 C557 1.390 . S
C549 C548 1.387 . S
C549 C551 1.387 . S
H550 C557 0.950 . S
C551 C549 1.387 . S
C551 C553 1.390 . S
C551 H555 0.950 . S
H552 C548 0.950 . S
C553 C551 1.390 . S
C553 C554 1.387 . S
C553 H556 0.950 . S
C554 C553 1.387 . S
C554 C557 1.387 . S
H555 C551 0.950 . S
H556 C553 0.950 . S
C557 C548 1.390 . S
C557 H550 0.950 . S
C557 C554 1.387 . S
C558 C559 1.387 . S
C558 H562 0.950 . S
C558 C567 1.390 . S
C559 C558 1.387 . S
C559 C561 1.387 . S
H560 C567 0.950 . S
C561 C559 1.387 . S
C561 C563 1.390 . S
C561 H565 0.950 . S
H562 C558 0.950 . S
C563 C561 1.390 . S
C563 C564 1.387 . S
C563 H566 0.950 . S
C564 C563 1.387 . S
C564 C567 1.387 . S
H565 C561 0.950 . S
H566 C563 0.950 . S
C567 C558 1.390 . S
C567 H560 0.950 . S
C567 C564 1.387 . S
C568 C569 1.387 . S
C568 H572 0.950 . S
C568 C577 1.390 . S
C569 C568 1.387 . S
C569 C571 1.387 . S
H570 C577 0.950 . S
C571 C569 1.387 . S
C571 C573 1.390 . S
C571 H575 0.950 . S
H572 C568 0.950 . S
C573 C571 1.390 . S
C573 C574 1.387 . S
C573 H576 0.950 . S
C574 C573 1.387 . S
C574 C577 1.387 . S
H575 C571 0.950 . S
H576 C573 0.950 . S
C577 C568 1.390 . S
C577 H570 0.950 . S
C577 C574 1.387 . S
C578 C579 1.387 . S
C578 H582 0.950 . S
C578 C587 1.390 . S
C579 C578 1.387 . S
C579 C581 1.387 . S
H580 C587 0.950 . S
C581 C579 1.387 . S
C581 C583 1.390 . S
C581 H585 0.950 . S
H582 C578 0.950 . S
C583 C581 1.390 . S
C583 C584 1.387 . S
C583 H586 0.950 . S
C584 C583 1.387 . S
C584 C587 1.387 . S
H585 C581 0.950 . S
H586 C583 0.950 . S
C587 C578 1.390 . S
C587 H580 0.950 . S
C587 C584 1.387 . S
C588 C589 1.387 . S
C588 H592 0.950 . S
C588 C597 1.390 . S
C589 C588 1.387 . S
C589 C591 1.387 . S
H590 C597 0.950 . S
C591 C589 1.387 . S
C591 C593 1.390 . S
C591 H595 0.950 . S
H592 C588 0.950 . S
C593 C591 1.390 . S
C593 C594 1.387 . S
C593 H596 0.950 . S
C594 C593 1.387 . S
C594 C597 1.387 . S
H595 C591 0.950 . S
H596 C593 0.950 . S
C597 C588 1.390 . S
C597 H590 0.950 . S
C597 C594 1.387 . S
C598 C599 1.387 . S
C598 H602 0.950 . S
C598 C607 1.390 . S
C599 C598 1.387 . S
C599 C601 1.387 . S
H600 C607 0.950 . S
C601 C599 1.387 . S
C601 C603 1.390 . S
C601 H605 0.950 . S
H602 C598 0.950 . S
C603 C601 1.390 . S
C603 C604 1.387 . S
C603 H606 0.950 . S
C604 C603 1.387 . S
C604 C607 1.387 . S
H605 C601 0.950 . S
H606 C603 0.950 . S
C607 C598 1.390 . S
C607 H600 0.950 . S
C607 C604 1.387 . S
C608 C609 1.387 . S
C608 H612 0.950 . S
C608 C617 1.390 1_565 S
C609 C608 1.387 . S
C609 C611 1.387 . S
H610 C617 0.950 . S
C611 C609 1.387 . S
C611 C613 1.390 1_565 S
C611 H615 0.950 . S
H612 C608 0.950 . S
C613 C611 1.390 1_545 S
C613 C614 1.387 . S
C613 H616 0.950 . S
C614 C613 1.387 . S
C614 C617 1.387 . S
H615 C611 0.950 . S
H616 C613 0.950 . S
C617 C608 1.390 1_545 S
C617 H610 0.950 . S
C617 C614 1.387 . S
C618 C619 1.387 1_455 S
C618 H622 0.950 . S
C618 C627 1.390 . S
C619 C618 1.387 1_655 S
C619 C621 1.387 . S
H620 C627 0.950 . S
C621 C619 1.387 . S
C621 C623 1.390 . S
C621 H625 0.950 . S
H622 C618 0.950 . S
C623 C621 1.390 . S
C623 C624 1.387 1_655 S
C623 H626 0.950 . S
C624 C623 1.387 1_455 S
C624 C627 1.387 . S
H625 C621 0.950 . S
H626 C623 0.950 . S
C627 C618 1.390 . S
C627 H620 0.950 . S
C627 C624 1.387 . S
C628 C629 1.387 . S
C628 H632 0.950 . S
C628 C637 1.390 . S
C629 C628 1.387 . S
C629 C631 1.387 1_556 S
H630 C637 0.950 . S
C631 C629 1.387 1_554 S
C631 C633 1.390 . S
C631 H635 0.950 . S
H632 C628 0.950 . S
C633 C631 1.390 . S
C633 C634 1.387 . S
C633 H636 0.950 . S
C634 C633 1.387 . S
C634 C637 1.387 1_554 S
H635 C631 0.950 . S
H636 C633 0.950 . S
C637 C628 1.390 . S
C637 H630 0.950 . S
C637 C634 1.387 1_556 S
C638 C639 1.387 . S
C638 H642 0.950 . S
C638 C647 1.390 1_445 S
C639 C638 1.387 . S
C639 C641 1.387 1_556 S
H640 C647 0.950 . S
C641 C639 1.387 1_554 S
C641 C643 1.390 1_445 S
C641 H645 0.950 . S
H642 C638 0.950 . S
C643 C641 1.390 1_665 S
C643 C644 1.387 . S
C643 H646 0.950 . S
C644 C643 1.387 . S
C644 C647 1.387 1_554 S
H645 C641 0.950 . S
H646 C643 0.950 . S
C647 C638 1.390 1_665 S
C647 H640 0.950 . S
C647 C644 1.387 1_556 S
C648 C649 1.387 . S
C648 H652 0.950 . S
C648 C657 1.390 1_545 S
C649 C648 1.387 . S
C649 C651 1.387 . S
H650 C657 0.950 . S
C651 C649 1.387 . S
C651 C653 1.390 1_545 S
C651 H655 0.950 . S
H652 C648 0.950 . S
C653 C651 1.390 1_565 S
C653 C654 1.387 . S
C653 H656 0.950 . S
C654 C653 1.387 . S
C654 C657 1.387 . S
H655 C651 0.950 . S
H656 C653 0.950 . S
C657 C648 1.390 1_565 S
C657 H650 0.950 . S
C657 C654 1.387 . S
C658 C659 1.387 . S
C658 H662 0.950 . S
C658 C667 1.390 1_455 S
C659 C658 1.387 . S
C659 C661 1.387 . S
H660 C667 0.950 . S
C661 C659 1.387 . S
C661 C663 1.390 1_455 S
C661 H665 0.950 . S
H662 C658 0.950 . S
C663 C661 1.390 1_655 S
C663 C664 1.387 . S
C663 H666 0.950 . S
C664 C663 1.387 . S
C664 C667 1.387 . S
H665 C661 0.950 . S
H666 C663 0.950 . S
C667 C658 1.390 1_655 S
C667 H660 0.950 . S
C667 C664 1.387 . S
C668 C669 1.387 . S
C668 H672 0.950 . S
C668 C677 1.390 . S
C669 C668 1.387 . S
C669 C671 1.387 1_556 S
H670 C677 0.950 . S
C671 C669 1.387 1_554 S
C671 C673 1.390 . S
C671 H675 0.950 . S
H672 C668 0.950 . S
C673 C671 1.390 . S
C673 C674 1.387 . S
C673 H676 0.950 . S
C674 C673 1.387 . S
C674 C677 1.387 1_554 S
H675 C671 0.950 . S
H676 C673 0.950 . S
C677 C668 1.390 . S
C677 H670 0.950 . S
C677 C674 1.387 1_556 S
C678 C679 1.387 . S
C678 H682 0.950 . S
C678 C687 1.390 . S
C679 C678 1.387 . S
C679 C681 1.387 . S
H680 C687 0.950 . S
C681 C679 1.387 . S
C681 C683 1.390 . S
C681 H685 0.950 . S
H682 C678 0.950 . S
C683 C681 1.390 . S
C683 C684 1.387 . S
C683 H686 0.950 . S
C684 C683 1.387 . S
C684 C687 1.387 . S
H685 C681 0.950 . S
H686 C683 0.950 . S
C687 C678 1.390 . S
C687 H680 0.950 . S
C687 C684 1.387 . S
C688 C689 1.387 . S
C688 H692 0.950 . S
C688 C697 1.390 . S
C689 C688 1.387 . S
C689 C691 1.387 . S
H690 C697 0.950 . S
C691 C689 1.387 . S
C691 C693 1.390 . S
C691 H695 0.950 . S
H692 C688 0.950 . S
C693 C691 1.390 . S
C693 C694 1.387 . S
C693 H696 0.950 . S
C694 C693 1.387 . S
C694 C697 1.387 . S
H695 C691 0.950 . S
H696 C693 0.950 . S
C697 C688 1.390 . S
C697 H690 0.950 . S
C697 C694 1.387 . S
C698 C699 1.387 . S
C698 H702 0.950 . S
C698 C707 1.390 . S
C699 C698 1.387 . S
C699 C701 1.387 1_655 S
H700 C707 0.950 . S
C701 C699 1.387 1_455 S
C701 C703 1.390 . S
C701 H705 0.950 . S
H702 C698 0.950 . S
C703 C701 1.390 . S
C703 C704 1.387 . S
C703 H706 0.950 . S
C704 C703 1.387 . S
C704 C707 1.387 1_455 S
H705 C701 0.950 . S
H706 C703 0.950 . S
C707 C698 1.390 . S
C707 H700 0.950 . S
C707 C704 1.387 1_655 S
C708 C709 1.387 . S
C708 H712 0.950 . S
C708 C717 1.390 . S
C709 C708 1.387 . S
C709 C711 1.387 . S
H710 C717 0.950 . S
C711 C709 1.387 . S
C711 C713 1.390 . S
C711 H715 0.950 . S
H712 C708 0.950 . S
C713 C711 1.390 . S
C713 C714 1.387 . S
C713 H716 0.950 . S
C714 C713 1.387 . S
C714 C717 1.387 . S
H715 C711 0.950 . S
H716 C713 0.950 . S
C717 C708 1.390 . S
C717 H710 0.950 . S
C717 C714 1.387 . S
C718 C719 1.387 . S
C718 H722 0.950 . S
C718 C727 1.390 . S
C719 C718 1.387 . S
C719 C721 1.387 . S
H720 C727 0.950 . S
C721 C719 1.387 . S
C721 C723 1.390 . S
C721 H725 0.950 . S
H722 C718 0.950 . S
C723 C721 1.390 . S
C723 C724 1.387 . S
C723 H726 0.950 . S
C724 C723 1.387 . S
C724 C727 1.387 . S
H725 C721 0.950 . S
H726 C723 0.950 . S
C727 C718 1.390 . S
C727 H720 0.950 . S
C727 C724 1.387 . S
C728 C729 1.387 . S
C728 H732 0.950 . S
C728 C737 1.390 . S
C729 C728 1.387 . S
C729 C731 1.387 . S
H730 C737 0.950 . S
C731 C729 1.387 . S
C731 C733 1.390 . S
C731 H735 0.950 . S
H732 C728 0.950 . S
C733 C731 1.390 . S
C733 C734 1.387 . S
C733 H736 0.950 . S
C734 C733 1.387 . S
C734 C737 1.387 . S
H735 C731 0.950 . S
H736 C733 0.950 . S
C737 C728 1.390 . S
C737 H730 0.950 . S
C737 C734 1.387 . S
C738 C739 1.387 . S
C738 H742 0.950 . S
C738 C747 1.390 1_545 S
C739 C738 1.387 . S
C739 C741 1.387 . S
H740 C747 0.950 . S
C741 C739 1.387 . S
C741 C743 1.390 1_545 S
C741 H745 0.950 . S
H742 C738 0.950 . S
C743 C741 1.390 1_565 S
C743 C744 1.387 . S
C743 H746 0.950 . S
C744 C743 1.387 . S
C744 C747 1.387 . S
H745 C741 0.950 . S
H746 C743 0.950 . S
C747 C738 1.390 1_565 S
C747 H740 0.950 . S
C747 C744 1.387 . S
C748 C749 1.387 . S
C748 H752 0.950 . S
C748 C757 1.390 . S
C749 C748 1.387 . S
C749 C751 1.387 . S
H750 C757 0.950 . S
C751 C749 1.387 . S
C751 C753 1.390 . S
C751 H755 0.950 . S
H752 C748 0.950 . S
C753 C751 1.390 . S
C753 C754 1.387 . S
C753 H756 0.950 . S
C754 C753 1.387 . S
C754 C757 1.387 . S
H755 C751 0.950 . S
H756 C753 0.950 . S
C757 C748 1.390 . S
C757 H750 0.950 . S
C757 C754 1.387 . S
C758 C759 1.387 . S
C758 H762 0.950 . S
C758 C767 1.390 . S
C759 C758 1.387 . S
C759 C761 1.387 1_554 S
H760 C767 0.950 . S
C761 C759 1.387 1_556 S
C761 C763 1.390 . S
C761 H765 0.950 . S
H762 C758 0.950 . S
C763 C761 1.390 . S
C763 C764 1.387 . S
C763 H766 0.950 . S
C764 C763 1.387 . S
C764 C767 1.387 1_556 S
H765 C761 0.950 . S
H766 C763 0.950 . S
C767 C758 1.390 . S
C767 H760 0.950 . S
C767 C764 1.387 1_554 S
C768 C769 1.387 . S
C768 H772 0.950 . S
C768 C777 1.390 . S
C769 C768 1.387 . S
C769 C771 1.387 . S
H770 C777 0.950 . S
C771 C769 1.387 . S
C771 C773 1.390 . S
C771 H775 0.950 . S
H772 C768 0.950 . S
C773 C771 1.390 . S
C773 C774 1.387 . S
C773 H776 0.950 . S
C774 C773 1.387 . S
C774 C777 1.387 . S
H775 C771 0.950 . S
H776 C773 0.950 . S
C777 C768 1.390 . S
C777 H770 0.950 . S
C777 C774 1.387 . S
C778 C779 1.387 . S
C778 H782 0.950 . S
C778 C787 1.390 . S
C779 C778 1.387 . S
C779 C781 1.387 1_556 S
H780 C787 0.950 . S
C781 C779 1.387 1_554 S
C781 C783 1.390 . S
C781 H785 0.950 . S
H782 C778 0.950 . S
C783 C781 1.390 . S
C783 C784 1.387 1_554 S
C783 H786 0.950 . S
C784 C783 1.387 1_556 S
C784 C787 1.387 . S
H785 C781 0.950 . S
H786 C783 0.950 . S
C787 C778 1.390 . S
C787 H780 0.950 . S
C787 C784 1.387 . S
C788 C789 1.387 . S
C788 H792 0.950 . S
C788 C797 1.390 . S
C789 C788 1.387 . S
C789 C791 1.387 . S
H790 C797 0.950 . S
C791 C789 1.387 . S
C791 C793 1.390 . S
C791 H795 0.950 . S
H792 C788 0.950 . S
C793 C791 1.390 . S
C793 C794 1.387 . S
C793 H796 0.950 . S
C794 C793 1.387 . S
C794 C797 1.387 . S
H795 C791 0.950 . S
H796 C793 0.950 . S
C797 C788 1.390 . S
C797 H790 0.950 . S
C797 C794 1.387 . S
C798 C799 1.387 1_556 S
C798 H802 0.950 . S
C798 C807 1.390 . S
C799 C798 1.387 1_554 S
C799 C801 1.387 . S
H800 C807 0.950 . S
C801 C799 1.387 . S
C801 C803 1.390 . S
C801 H805 0.950 . S
H802 C798 0.950 . S
C803 C801 1.390 . S
C803 C804 1.387 . S
C803 H806 0.950 . S
C804 C803 1.387 . S
C804 C807 1.387 1_554 S
H805 C801 0.950 . S
H806 C803 0.950 . S
C807 C798 1.390 . S
C807 H800 0.950 . S
C807 C804 1.387 1_556 S
C808 C809 1.387 . S
C808 H812 0.950 . S
C808 C817 1.390 . S
C809 C808 1.387 . S
C809 C811 1.387 . S
H810 C817 0.950 . S
C811 C809 1.387 . S
C811 C813 1.390 . S
C811 H815 0.950 . S
H812 C808 0.950 . S
C813 C811 1.390 . S
C813 C814 1.387 . S
C813 H816 0.950 . S
C814 C813 1.387 . S
C814 C817 1.387 . S
H815 C811 0.950 . S
H816 C813 0.950 . S
C817 C808 1.390 . S
C817 H810 0.950 . S
C817 C814 1.387 . S
C818 C819 1.387 . S
C818 H822 0.950 . S
C818 C827 1.390 . S
C819 C818 1.387 . S
C819 C821 1.387 . S
H820 C827 0.950 . S
C821 C819 1.387 . S
C821 C823 1.390 . S
C821 H825 0.950 . S
H822 C818 0.950 . S
C823 C821 1.390 . S
C823 C824 1.387 . S
C823 H826 0.950 . S
C824 C823 1.387 . S
C824 C827 1.387 . S
H825 C821 0.950 . S
H826 C823 0.950 . S
C827 C818 1.390 . S
C827 H820 0.950 . S
C827 C824 1.387 . S
C828 C829 1.387 . S
C828 H832 0.950 . S
C828 C837 1.390 . S
C829 C828 1.387 . S
C829 C831 1.387 . S
H830 C837 0.950 . S
C831 C829 1.387 . S
C831 C833 1.390 . S
C831 H835 0.950 . S
H832 C828 0.950 . S
C833 C831 1.390 . S
C833 C834 1.387 . S
C833 H836 0.950 . S
C834 C833 1.387 . S
C834 C837 1.387 . S
H835 C831 0.950 . S
H836 C833 0.950 . S
C837 C828 1.390 . S
C837 H830 0.950 . S
C837 C834 1.387 . S
C838 C839 1.387 . S
C838 H842 0.950 . S
C838 C847 1.390 . S
C839 C838 1.387 . S
C839 C841 1.387 . S
H840 C847 0.950 . S
C841 C839 1.387 . S
C841 C843 1.390 . S
C841 H845 0.950 . S
H842 C838 0.950 . S
C843 C841 1.390 . S
C843 C844 1.387 . S
C843 H846 0.950 . S
C844 C843 1.387 . S
C844 C847 1.387 . S
H845 C841 0.950 . S
H846 C843 0.950 . S
C847 C838 1.390 . S
C847 H840 0.950 . S
C847 C844 1.387 . S
C848 C849 1.387 . S
C848 H852 0.950 . S
C848 C857 1.390 . S
C849 C848 1.387 . S
C849 C851 1.387 . S
H850 C857 0.950 . S
C851 C849 1.387 . S
C851 C853 1.390 . S
C851 H855 0.950 . S
H852 C848 0.950 . S
C853 C851 1.390 . S
C853 C854 1.387 . S
C853 H856 0.950 . S
C854 C853 1.387 . S
C854 C857 1.387 . S
H855 C851 0.950 . S
H856 C853 0.950 . S
C857 C848 1.390 . S
C857 H850 0.950 . S
C857 C854 1.387 . S
C858 C859 1.387 . S
C858 H862 0.950 . S
C858 C867 1.390 . S
C859 C858 1.387 . S
C859 C861 1.387 . S
H860 C867 0.950 . S
C861 C859 1.387 . S
C861 C863 1.390 . S
C861 H865 0.950 . S
H862 C858 0.950 . S
C863 C861 1.390 . S
C863 C864 1.387 . S
C863 H866 0.950 . S
C864 C863 1.387 . S
C864 C867 1.387 . S
H865 C861 0.950 . S
H866 C863 0.950 . S
C867 C858 1.390 . S
C867 H860 0.950 . S
C867 C864 1.387 . S
C868 C869 1.387 . S
C868 H872 0.950 . S
C868 C877 1.390 . S
C869 C868 1.387 . S
C869 C871 1.387 . S
H870 C877 0.950 . S
C871 C869 1.387 . S
C871 C873 1.390 . S
C871 H875 0.950 . S
H872 C868 0.950 . S
C873 C871 1.390 . S
C873 C874 1.387 . S
C873 H876 0.950 . S
C874 C873 1.387 . S
C874 C877 1.387 . S
H875 C871 0.950 . S
H876 C873 0.950 . S
C877 C868 1.390 . S
C877 H870 0.950 . S
C877 C874 1.387 . S
C878 C879 1.387 . S
C878 H882 0.950 . S
C878 C887 1.390 . S
C879 C878 1.387 . S
C879 C881 1.387 . S
H880 C887 0.950 . S
C881 C879 1.387 . S
C881 C883 1.390 . S
C881 H885 0.950 . S
H882 C878 0.950 . S
C883 C881 1.390 . S
C883 C884 1.387 . S
C883 H886 0.950 . S
C884 C883 1.387 . S
C884 C887 1.387 . S
H885 C881 0.950 . S
H886 C883 0.950 . S
C887 C878 1.390 . S
C887 H880 0.950 . S
C887 C884 1.387 . S
C888 C889 1.387 . S
C888 H892 0.950 . S
C888 C897 1.390 . S
C889 C888 1.387 . S
C889 C891 1.387 . S
H890 C897 0.950 . S
C891 C889 1.387 . S
C891 C893 1.390 . S
C891 H895 0.950 . S
H892 C888 0.950 . S
C893 C891 1.390 . S
C893 C894 1.387 . S
C893 H896 0.950 . S
C894 C893 1.387 . S
C894 C897 1.387 . S
H895 C891 0.950 . S
H896 C893 0.950 . S
C897 C888 1.390 . S
C897 H890 0.950 . S
C897 C894 1.387 . S
C898 C899 1.387 . S
C898 H902 0.950 . S
C898 C907 1.390 . S
C899 C898 1.387 . S
C899 C901 1.387 1_556 S
H900 C907 0.950 . S
C901 C899 1.387 1_554 S
C901 C903 1.390 . S
C901 H905 0.950 . S
H902 C898 0.950 . S
C903 C901 1.390 . S
C903 C904 1.387 1_554 S
C903 H906 0.950 . S
C904 C903 1.387 1_556 S
C904 C907 1.387 . S
H905 C901 0.950 . S
H906 C903 0.950 . S
C907 C898 1.390 . S
C907 H900 0.950 . S
C907 C904 1.387 . S
C908 C909 1.387 . S
C908 H912 0.950 . S
C908 C917 1.390 . S
C909 C908 1.387 . S
C909 C911 1.387 . S
H910 C917 0.950 . S
C911 C909 1.387 . S
C911 C913 1.390 . S
C911 H915 0.950 . S
H912 C908 0.950 . S
C913 C911 1.390 . S
C913 C914 1.387 . S
C913 H916 0.950 . S
C914 C913 1.387 . S
C914 C917 1.387 . S
H915 C911 0.950 . S
H916 C913 0.950 . S
C917 C908 1.390 . S
C917 H910 0.950 . S
C917 C914 1.387 . S
C918 C919 1.387 1_556 S
C918 H922 0.950 . S
C918 C927 1.390 . S
C919 C918 1.387 1_554 S
C919 C921 1.387 . S
H920 C927 0.950 . S
C921 C919 1.387 . S
C921 C923 1.390 . S
C921 H925 0.950 . S
H922 C918 0.950 . S
C923 C921 1.390 . S
C923 C924 1.387 . S
C923 H926 0.950 . S
C924 C923 1.387 . S
C924 C927 1.387 1_554 S
H925 C921 0.950 . S
H926 C923 0.950 . S
C927 C918 1.390 . S
C927 H920 0.950 . S
C927 C924 1.387 1_556 S
C928 C929 1.387 . S
C928 H932 0.950 . S
C928 C937 1.390 . S
C929 C928 1.387 . S
C929 C931 1.387 . S
H930 C937 0.950 . S
C931 C929 1.387 . S
C931 C933 1.390 . S
C931 H935 0.950 . S
H932 C928 0.950 . S
C933 C931 1.390 . S
C933 C934 1.387 . S
C933 H936 0.950 . S
C934 C933 1.387 . S
C934 C937 1.387 . S
H935 C931 0.950 . S
H936 C933 0.950 . S
C937 C928 1.390 . S
C937 H930 0.950 . S
C937 C934 1.387 . S
C938 C939 1.387 . S
C938 H942 0.950 . S
C938 C947 1.390 . S
C939 C938 1.387 . S
C939 C941 1.387 . S
H940 C947 0.950 . S
C941 C939 1.387 . S
C941 C943 1.390 . S
C941 H945 0.950 . S
H942 C938 0.950 . S
C943 C941 1.390 . S
C943 C944 1.387 . S
C943 H946 0.950 . S
C944 C943 1.387 . S
C944 C947 1.387 . S
H945 C941 0.950 . S
H946 C943 0.950 . S
C947 C938 1.390 . S
C947 H940 0.950 . S
C947 C944 1.387 . S
C948 C949 1.387 . S
C948 H952 0.950 . S
C948 C957 1.390 . S
C949 C948 1.387 . S
C949 C951 1.387 . S
H950 C957 0.950 . S
C951 C949 1.387 . S
C951 C953 1.390 . S
C951 H955 0.950 . S
H952 C948 0.950 . S
C953 C951 1.390 . S
C953 C954 1.387 . S
C953 H956 0.950 . S
C954 C953 1.387 . S
C954 C957 1.387 . S
H955 C951 0.950 . S
H956 C953 0.950 . S
C957 C948 1.390 . S
C957 H950 0.950 . S
C957 C954 1.387 . S
C958 C959 1.387 . S
C958 H962 0.950 . S
C958 C967 1.390 . S
C959 C958 1.387 . S
C959 C961 1.387 . S
H960 C967 0.950 . S
C961 C959 1.387 . S
C961 C963 1.390 . S
C961 H965 0.950 . S
H962 C958 0.950 . S
C963 C961 1.390 . S
C963 C964 1.387 . S
C963 H966 0.950 . S
C964 C963 1.387 . S
C964 C967 1.387 . S
H965 C961 0.950 . S
H966 C963 0.950 . S
C967 C958 1.390 . S
C967 H960 0.950 . S
C967 C964 1.387 . S
C968 C969 1.387 . S
C968 H972 0.950 . S
C968 C977 1.390 . S
C969 C968 1.387 . S
C969 C971 1.387 . S
H970 C977 0.950 . S
C971 C969 1.387 . S
C971 C973 1.390 . S
C971 H975 0.950 . S
H972 C968 0.950 . S
C973 C971 1.390 . S
C973 C974 1.387 . S
C973 H976 0.950 . S
C974 C973 1.387 . S
C974 C977 1.387 . S
H975 C971 0.950 . S
H976 C973 0.950 . S
C977 C968 1.390 . S
C977 H970 0.950 . S
C977 C974 1.387 . S
C978 C979 1.387 . S
C978 H982 0.950 . S
C978 C987 1.390 . S
C979 C978 1.387 . S
C979 C981 1.387 . S
H980 C987 0.950 . S
C981 C979 1.387 . S
C981 C983 1.390 . S
C981 H985 0.950 . S
H982 C978 0.950 . S
C983 C981 1.390 . S
C983 C984 1.387 . S
C983 H986 0.950 . S
C984 C983 1.387 . S
C984 C987 1.387 . S
H985 C981 0.950 . S
H986 C983 0.950 . S
C987 C978 1.390 . S
C987 H980 0.950 . S
C987 C984 1.387 . S
C988 C989 1.387 . S
C988 H992 0.950 . S
C988 C997 1.390 . S
C989 C988 1.387 . S
C989 C991 1.387 . S
H990 C997 0.950 . S
C991 C989 1.387 . S
C991 C993 1.390 . S
C991 H995 0.950 . S
H992 C988 0.950 . S
C993 C991 1.390 . S
C993 C994 1.387 . S
C993 H996 0.950 . S
C994 C993 1.387 . S
C994 C997 1.387 . S
H995 C991 0.950 . S
H996 C993 0.950 . S
C997 C988 1.390 . S
C997 H990 0.950 . S
C997 C994 1.387 . S
C998 C999 1.387 . S
C998 H1002 0.950 . S
C998 C1007 1.390 . S
C999 C998 1.387 . S
C999 C1001 1.387 . S
H1000 C1007 0.950 . S
C1001 C999 1.387 . S
C1001 C1003 1.390 . S
C1001 H1005 0.950 . S
H1002 C998 0.950 . S
C1003 C1001 1.390 . S
C1003 C1004 1.387 . S
C1003 H1006 0.950 . S
C1004 C1003 1.387 . S
C1004 C1007 1.387 . S
H1005 C1001 0.950 . S
H1006 C1003 0.950 . S
C1007 C998 1.390 . S
C1007 H1000 0.950 . S
C1007 C1004 1.387 . S
C1008 C1009 1.387 . S
C1008 H1012 0.950 . S
C1008 C1017 1.390 . S
C1009 C1008 1.387 . S
C1009 C1011 1.387 . S
H1010 C1017 0.950 . S
C1011 C1009 1.387 . S
C1011 C1013 1.390 . S
C1011 H1015 0.950 . S
H1012 C1008 0.950 . S
C1013 C1011 1.390 . S
C1013 C1014 1.387 . S
C1013 H1016 0.950 . S
C1014 C1013 1.387 . S
C1014 C1017 1.387 . S
H1015 C1011 0.950 . S
H1016 C1013 0.950 . S
C1017 C1008 1.390 . S
C1017 H1010 0.950 . S
C1017 C1014 1.387 . S
C1018 C1019 1.387 . S
C1018 H1022 0.950 . S
C1018 C1027 1.390 . S
C1019 C1018 1.387 . S
C1019 C1021 1.387 . S
H1020 C1027 0.950 . S
C1021 C1019 1.387 . S
C1021 C1023 1.390 . S
C1021 H1025 0.950 . S
H1022 C1018 0.950 . S
C1023 C1021 1.390 . S
C1023 C1024 1.387 . S
C1023 H1026 0.950 . S
C1024 C1023 1.387 . S
C1024 C1027 1.387 . S
H1025 C1021 0.950 . S
H1026 C1023 0.950 . S
C1027 C1018 1.390 . S
C1027 H1020 0.950 . S
C1027 C1024 1.387 . S
C1028 C1029 1.387 . S
C1028 H1032 0.950 . S
C1028 C1037 1.390 . S
C1029 C1028 1.387 . S
C1029 C1031 1.387 . S
H1030 C1037 0.950 . S
C1031 C1029 1.387 . S
C1031 C1033 1.390 . S
C1031 H1035 0.950 . S
H1032 C1028 0.950 . S
C1033 C1031 1.390 . S
C1033 C1034 1.387 . S
C1033 H1036 0.950 . S
C1034 C1033 1.387 . S
C1034 C1037 1.387 . S
H1035 C1031 0.950 . S
H1036 C1033 0.950 . S
C1037 C1028 1.390 . S
C1037 H1030 0.950 . S
C1037 C1034 1.387 . S
C1038 C1039 1.387 . S
C1038 H1042 0.950 . S
C1038 C1047 1.390 . S
C1039 C1038 1.387 . S
C1039 C1041 1.387 . S
H1040 C1047 0.950 . S
C1041 C1039 1.387 . S
C1041 C1043 1.390 . S
C1041 H1045 0.950 . S
H1042 C1038 0.950 . S
C1043 C1041 1.390 . S
C1043 C1044 1.387 . S
C1043 H1046 0.950 . S
C1044 C1043 1.387 . S
C1044 C1047 1.387 . S
H1045 C1041 0.950 . S
H1046 C1043 0.950 . S
C1047 C1038 1.390 . S
C1047 H1040 0.950 . S
C1047 C1044 1.387 . S
C1048 C1049 1.387 . S
C1048 H1052 0.950 . S
C1048 C1057 1.390 . S
C1049 C1048 1.387 . S
C1049 C1051 1.387 . S
H1050 C1057 0.950 . S
C1051 C1049 1.387 . S
C1051 C1053 1.390 . S
C1051 H1055 0.950 . S
H1052 C1048 0.950 . S
C1053 C1051 1.390 . S
C1053 C1054 1.387 . S
C1053 H1056 0.950 . S
C1054 C1053 1.387 . S
C1054 C1057 1.387 . S
H1055 C1051 0.950 . S
H1056 C1053 0.950 . S
C1057 C1048 1.390 . S
C1057 H1050 0.950 . S
C1057 C1054 1.387 . S
C1058 C1059 1.387 . S
C1058 H1062 0.950 . S
C1058 C1067 1.390 . S
C1059 C1058 1.387 . S
C1059 C1061 1.387 . S
H1060 C1067 0.950 . S
C1061 C1059 1.387 . S
C1061 C1063 1.390 . S
C1061 H1065 0.950 . S
H1062 C1058 0.950 . S
C1063 C1061 1.390 . S
C1063 C1064 1.387 . S
C1063 H1066 0.950 . S
C1064 C1063 1.387 . S
C1064 C1067 1.387 . S
H1065 C1061 0.950 . S
H1066 C1063 0.950 . S
C1067 C1058 1.390 . S
C1067 H1060 0.950 . S
C1067 C1064 1.387 . S
C1068 C1069 1.387 . S
C1068 H1072 0.950 . S
C1068 C1077 1.390 . S
C1069 C1068 1.387 . S
C1069 C1071 1.387 . S
H1070 C1077 0.950 . S
C1071 C1069 1.387 . S
C1071 C1073 1.390 . S
C1071 H1075 0.950 . S
H1072 C1068 0.950 . S
C1073 C1071 1.390 . S
C1073 C1074 1.387 . S
C1073 H1076 0.950 . S
C1074 C1073 1.387 . S
C1074 C1077 1.387 . S
H1075 C1071 0.950 . S
H1076 C1073 0.950 . S
C1077 C1068 1.390 . S
C1077 H1070 0.950 . S
C1077 C1074 1.387 . S
C1078 C1079 1.387 . S
C1078 H1082 0.950 . S
C1078 C1087 1.390 . S
C1079 C1078 1.387 . S
C1079 C1081 1.387 . S
H1080 C1087 0.950 . S
C1081 C1079 1.387 . S
C1081 C1083 1.390 . S
C1081 H1085 0.950 . S
H1082 C1078 0.950 . S
C1083 C1081 1.390 . S
C1083 C1084 1.387 . S
C1083 H1086 0.950 . S
C1084 C1083 1.387 . S
C1084 C1087 1.387 . S
H1085 C1081 0.950 . S
H1086 C1083 0.950 . S
C1087 C1078 1.390 . S
C1087 H1080 0.950 . S
C1087 C1084 1.387 . S
C449 C51 1.291 . S
C454 C9 1.291 . S
C459 C37 1.288 . S
C464 C23 1.288 . S
C469 C107 1.288 . S
C474 C65 1.288 . S
C479 C93 1.291 . S
C484 C79 1.291 . S
C489 C121 1.292 . S
C494 C163 1.292 . S
C499 C135 1.292 . S
C504 C149 1.292 . S
C509 C219 1.288 . S
C514 C177 1.288 . S
C519 C191 1.288 . S
C524 C205 1.288 . S
C529 C233 1.288 . S
C534 C275 1.288 . S
C539 C247 1.292 . S
C544 C261 1.292 . S
C549 C331 1.288 . S
C554 C289 1.288 . S
C559 C317 1.288 . S
C564 C303 1.288 . S
C569 C387 1.291 . S
C574 C345 1.291 . S
C579 C359 1.288 . S
C584 C373 1.288 . S
C589 C401 1.288 . S
C594 C443 1.288 . S
C599 C415 1.288 . S
C604 C429 1.288 . S
C609 C287 1.468 . S
C614 C7 1.468 . S
C619 C189 1.468 . S
C624 C21 1.468 . S
C629 C35 1.468 . S
C634 C427 1.468 . S
C639 C49 1.468 . S
C644 C105 1.468 . S
C649 C231 1.469 . S
C654 C63 1.469 . S
C659 C133 1.468 . S
C664 C77 1.468 . S
C669 C371 1.467 . S
C674 C91 1.467 . S
C679 C119 1.468 . S
C684 C399 1.468 . S
C689 C315 1.467 . S
C694 C147 1.467 . S
C699 C217 1.468 . S
C704 C161 1.468 . S
C709 C343 1.468 . S
C714 C175 1.468 . S
C719 C203 1.468 . S
C724 C259 1.468 . S
C729 C413 1.468 . S
C734 C245 1.468 . S
C739 C273 1.469 . S
C744 C329 1.469 . S
C749 C357 1.469 . S
C754 C301 1.469 . S
C759 C441 1.469 . S
C764 C385 1.469 . S
C769 C22 1.369 . S
C774 C8 1.369 . S
C779 C36 1.365 . S
C784 C50 1.365 . S
C789 C64 1.369 . S
C794 C78 1.369 . S
C799 C106 1.365 . S
C804 C92 1.365 . S
C809 C120 1.365 . S
C814 C134 1.365 . S
C819 C148 1.369 . S
C824 C162 1.369 . S
C829 C190 1.369 . S
C834 C176 1.369 . S
C839 C204 1.369 . S
C844 C218 1.369 . S
C849 C232 1.369 . S
C854 C246 1.369 . S
C859 C260 1.369 . S
C864 C274 1.369 . S
C869 C288 1.365 . S
C874 C302 1.365 . S
C879 C330 1.365 . S
C884 C316 1.365 . S
C889 C358 1.369 . S
C894 C344 1.369 . S
C899 C372 1.365 . S
C904 C386 1.365 . S
C909 C400 1.366 . S
C914 C414 1.366 . S
C919 C442 1.365 . S
C924 C428 1.365 . S
C929 C6 1.537 . S
C934 C272 1.537 . S
C939 C20 1.538 . S
C944 C258 1.538 . S
C949 C244 1.538 . S
C954 C34 1.538 . S
C959 C48 1.538 . S
C964 C230 1.538 . S
C969 C328 1.538 . S
C974 C62 1.538 . S
C979 C76 1.538 . S
C984 C314 1.538 . S
C989 C300 1.537 . S
C994 C90 1.537 . S
C999 C104 1.538 . S
C1004 C286 1.538 . S
C1009 C118 1.538 . S
C1014 C384 1.538 . S
C1019 C132 1.538 . S
C1024 C370 1.538 . S
C1029 C146 1.538 . S
C1034 C356 1.538 . S
C1039 C342 1.537 . S
C1044 C160 1.537 . S
C1049 C174 1.538 . S
C1054 C440 1.538 . S
C1059 C188 1.538 . S
C1064 C426 1.538 . S
C1069 C202 1.538 . S
C1074 C412 1.538 . S
C1079 C398 1.538 . S
C1084 C216 1.538 . S
