# Generated by pormake.
# Topology smu, (6)-cn, num edge types: 1
# Building blocks:
#     Node 0, Type 0, BuildingBlock: NUHQIS_clean_sbu_0, # of connection points: 6
#     Node 1, Type 0, BuildingBlock: NUHQIS_clean_sbu_0, # of connection points: 6
#     Node 2, Type 0, BuildingBlock: NUHQIS_clean_sbu_0, # of connection points: 6
#     Node 3, Type 0, BuildingBlock: NUHQIS_clean_sbu_0, # of connection points: 6
#     Node 4, Type 0, BuildingBlock: NUHQIS_clean_sbu_0, # of connection points: 6
#     Node 5, Type 0, BuildingBlock: NUHQIS_clean_sbu_0, # of connection points: 6
#     Edge 6, Type (0, 0), BuildingBlock: EZIPEK_clean_linker_0, # of connection points: 2
#     Edge 7, Type (0, 0), BuildingBlock: EZIPEK_clean_linker_0, # of connection points: 2
#     Edge 8, Type (0, 0), BuildingBlock: EZIPEK_clean_linker_0, # of connection points: 2
#     Edge 9, Type (0, 0), BuildingBlock: EZIPEK_clean_linker_0, # of connection points: 2
#     Edge 10, Type (0, 0), BuildingBlock: EZIPEK_clean_linker_0, # of connection points: 2
#     Edge 11, Type (0, 0), BuildingBlock: EZIPEK_clean_linker_0, # of connection points: 2
#     Edge 12, Type (0, 0), BuildingBlock: EZIPEK_clean_linker_0, # of connection points: 2
#     Edge 13, Type (0, 0), BuildingBlock: EZIPEK_clean_linker_0, # of connection points: 2
#     Edge 14, Type (0, 0), BuildingBlock: EZIPEK_clean_linker_0, # of connection points: 2
#     Edge 15, Type (0, 0), BuildingBlock: EZIPEK_clean_linker_0, # of connection points: 2
#     Edge 16, Type (0, 0), BuildingBlock: EZIPEK_clean_linker_0, # of connection points: 2
#     Edge 17, Type (0, 0), BuildingBlock: EZIPEK_clean_linker_0, # of connection points: 2
#     Edge 18, Type (0, 0), BuildingBlock: EZIPEK_clean_linker_0, # of connection points: 2
#     Edge 19, Type (0, 0), BuildingBlock: EZIPEK_clean_linker_0, # of connection points: 2
#     Edge 20, Type (0, 0), BuildingBlock: EZIPEK_clean_linker_0, # of connection points: 2
#     Edge 21, Type (0, 0), BuildingBlock: EZIPEK_clean_linker_0, # of connection points: 2
#     Edge 22, Type (0, 0), BuildingBlock: EZIPEK_clean_linker_0, # of connection points: 2
#     Edge 23, Type (0, 0), BuildingBlock: EZIPEK_clean_linker_0, # of connection points: 2
# Relax obj value: 0.233
# Max RMSD: 0.336
# Mean RMSD: 0.336
data_MOF--net-smu--node1-NUHQIS_clean_sbu_0--edge1-EZIPEK_clean_linker_0
_symmetry_space_group_name_H-M    P1
_symmetry_Int_Tables_number       1
_symmetry_cell_setting            triclinic
loop_
_symmetry_equiv_pos_as_xyz
'x, y, z'
_cell_length_a     31.346439
_cell_length_b     31.314892
_cell_length_c     20.244094
_cell_angle_alpha  89.779509
_cell_angle_beta   90.388595
_cell_angle_gamma 119.97764
loop_
_atom_site_label
_atom_site_type_symbol
_atom_site_fract_x
_atom_site_fract_y
_atom_site_fract_z
_atom_type_partial_charge
Tb0 Tb 0.31481 0.11632 0.25559 0.0
Eu1 Eu 0.41128 0.09586 0.25805 0.0
C2 C 0.34265 0.07802 0.38354 0.0
C3 C 0.42462 0.20554 0.26243 0.0
C4 C 0.23138 0.17382 0.26124 0.0
C5 C 0.24786 0.25868 0.25754 0.0
C6 C 0.26443 0.22451 0.25245 0.0
C7 C 0.18215 0.15813 0.2766 0.0
C8 C 0.16565 0.19202 0.28133 0.0
C9 C 0.19802 0.24246 0.2708 0.0
C10 C 0.24535 0.13573 0.25001 0.0
O11 O 0.31326 0.0788 0.16397 0.0
O12 O 0.3955 0.10612 0.15235 0.0
O13 O 0.34147 1.01836 0.25386 0.0
O14 O 0.27786 0.03665 0.25843 0.0
C15 C 0.35042 0.08342 0.12867 0.0
O16 O 0.46397 0.07874 0.21093 0.0
O17 O 0.47213 0.09808 0.31448 0.0
O18 O 0.36875 0.06361 0.35011 0.0
O19 O 0.33139 0.11058 0.35991 0.0
O20 O 0.37988 0.18773 0.23872 0.0
O21 O 0.4413 0.17666 0.28284 0.0
C22 C 0.29392 1.00504 0.25664 0.0
O23 O 0.27517 0.14251 0.2014 0.0
O24 O 0.25473 0.11666 0.30152 0.0
C25 C 0.54621 0.11666 0.25733 0.0
C26 C 0.65054 0.16211 0.24748 0.0
C27 C 0.62106 0.15163 0.19043 0.0
C28 C 0.56948 0.12902 0.19524 0.0
C29 C 0.57604 0.12795 0.31425 0.0
C30 C 0.62746 0.15047 0.3094 0.0
C31 C 0.49132 0.08827 0.26383 0.0
H32 H 0.27352 0.29749 0.24966 0.0
H33 H 0.30261 0.2375 0.24047 0.0
H34 H 0.156 0.11927 0.28336 0.0
H35 H 0.12718 0.17872 0.29193 0.0
H36 H 0.63795 0.16019 0.14209 0.0
H37 H 0.54786 0.12045 0.15026 0.0
H38 H 0.55947 0.11838 0.36277 0.0
H39 H 0.64927 0.15801 0.3541 0.0
Tb40 Tb 0.85294 0.7482 0.2708 0.0
Eu41 Eu 0.73442 0.65709 0.2564 0.0
C42 C 0.77806 0.70913 0.39125 0.0
C43 C 0.82614 0.63711 0.25946 0.0
C44 C 0.99513 0.82922 0.2836 0.0
C45 C 0.06289 0.81544 0.25539 0.0
C46 C 1.01197 0.7984 0.25881 0.0
C47 C 1.02964 0.87644 0.3063 0.0
C48 C 0.08013 0.89347 0.30253 0.0
C49 C 0.09738 0.86361 0.27607 0.0
C50 C 0.94247 0.81502 0.28483 0.0
O51 O 0.83466 0.73739 0.16421 0.0
O52 O 0.75041 0.70381 0.16743 0.0
O53 O 0.73173 0.72955 0.26162 0.0
O54 O 0.81499 0.7897 0.26438 0.0
C55 C 0.79253 0.72898 0.13722 0.0
O56 O 0.67751 0.59835 0.19576 0.0
O57 O 0.66114 0.60725 0.29693 0.0
O58 O 0.75435 0.66562 0.36362 0.0
O59 O 0.81373 0.74732 0.36058 0.0
O60 O 0.85346 0.67983 0.28832 0.0
O61 O 0.78365 0.62549 0.23186 0.0
C62 C 0.768 0.77637 0.26238 0.0
O63 O 0.9153 0.78644 0.33235 0.0
O64 O 0.91842 0.80467 0.22901 0.0
C65 C 0.61681 0.52532 0.25016 0.0
C66 C 0.54922 0.42115 0.2612 0.0
C67 C 0.56334 0.44532 0.19911 0.0
C68 C 0.59493 0.49638 0.19396 0.0
C69 C 0.60935 0.50108 0.31109 0.0
C70 C 0.57753 0.44976 0.31605 0.0
C71 C 0.64557 0.58017 0.24359 0.0
H72 H 0.07541 0.79177 0.23478 0.0
H73 H 0.98597 0.76178 0.24116 0.0
H74 H 1.01749 0.90076 0.32579 0.0
H75 H 0.10592 0.93061 0.31882 0.0
H76 H 0.55031 0.42532 0.15325 0.0
H77 H 0.6019 0.51335 0.14553 0.0
H78 H 0.62801 0.52169 0.35511 0.0
H79 H 0.57643 0.43341 0.36337 0.0
Tb80 Tb 0.94922 0.21672 0.25368 0.0
Eu81 Eu 0.97378 0.33273 0.26217 0.0
C82 C 0.97457 0.27399 0.38935 0.0
C83 C 0.86397 0.24183 0.24589 0.0
C84 C 0.88591 0.07588 0.23458 0.0
C85 C 0.80468 1.00652 0.25995 0.0
C86 C 0.83848 0.05741 0.26106 0.0
C87 C 0.89752 0.0433 0.20273 0.0
C88 C 0.864 0.99266 0.20192 0.0
C89 C 0.81817 0.97364 0.23294 0.0
C90 C 0.92622 0.12681 0.24708 0.0
O91 O 0.96006 0.2449 0.15141 0.0
O92 O 1.01058 0.32738 0.17124 0.0
O93 O 0.04879 0.33798 0.27976 0.0
O94 O 1.02916 0.25751 0.25496 0.0
C95 C 0.9953 0.28898 0.13268 0.0
O96 O 0.98316 0.39854 0.21192 0.0
O97 O 0.98347 0.39695 0.31865 0.0
O98 O 0.95481 0.29868 0.36384 0.0
O99 O 0.98238 0.24477 0.35101 0.0
O100 O 0.87916 0.21345 0.27231 0.0
O101 O 0.89564 0.28593 0.22386 0.0
C102 C 0.06125 0.30375 0.26936 0.0
O103 O 0.92429 0.14855 0.30078 0.0
O104 O 0.94292 0.15717 0.19737 0.0
C105 C 0.95338 0.44629 0.26611 0.0
C106 C 0.90617 0.50379 0.26403 0.0
C107 C 0.91239 0.48366 0.2055 0.0
C108 C 0.93573 0.45536 0.20646 0.0
C109 C 0.94615 0.46572 0.32491 0.0
C110 C 0.92267 0.49401 0.32389 0.0
C111 C 0.98326 0.42108 0.26598 0.0
H112 H 0.76956 0.99251 0.28442 0.0
H113 H 0.82857 0.08182 0.28575 0.0
H114 H 0.93381 0.05667 0.18199 0.0
H115 H 0.87517 0.96797 0.181 0.0
H116 H 0.90014 0.49083 0.15874 0.0
H117 H 0.94103 0.44164 0.16001 0.0
H118 H 0.95975 0.46009 0.37156 0.0
H119 H 0.91848 0.50933 0.36963 0.0
Tb120 Tb 0.14118 0.31625 0.75951 0.0
Eu121 Eu 0.1057 0.39877 0.76141 0.0
C122 C 0.08893 0.33269 0.63318 0.0
C123 C 0.21718 0.42725 0.76198 0.0
C124 C 0.21085 0.23899 0.75393 0.0
C125 C 0.28707 0.23866 0.7321 0.0
C126 C 0.25984 0.26296 0.73159 0.0
C127 C 0.18963 0.19022 0.77682 0.0
C128 C 0.2168 0.16577 0.77682 0.0
C129 C 0.26566 0.18981 0.7544 0.0
C130 C 0.18346 0.26609 0.75669 0.0
O131 O 0.11167 0.31158 0.85869 0.0
O132 O 0.12432 0.38951 0.86607 0.0
O133 O 1.0357 0.32384 0.77964 0.0
O134 O 0.06248 0.26929 0.74985 0.0
C135 C 0.11298 0.34736 0.89423 0.0
O136 O 0.08585 0.44755 0.81398 0.0
O137 O 0.09462 0.45317 0.70793 0.0
O138 O 0.0727 0.35623 0.66905 0.0
O139 O 0.12347 0.32355 0.65523 0.0
O140 O 0.20127 0.38622 0.79485 0.0
O141 O 0.18567 0.43559 0.73007 0.0
C142 C 1.02755 0.27866 0.767 0.0
O143 O 0.1973 0.30593 0.72184 0.0
O144 O 0.1438 0.25266 0.7914 0.0
C145 C 0.11655 0.52797 0.7649 0.0
C146 C 0.16484 0.63259 0.77003 0.0
C147 C 0.15747 0.60488 0.82797 0.0
C148 C 0.13354 0.55311 0.8255 0.0
C149 C 0.12433 0.55606 0.70708 0.0
C150 C 0.14832 0.60767 0.70958 0.0
C151 C 0.0887 0.47293 0.76114 0.0
H152 H 0.32474 0.25779 0.71474 0.0
H153 H 0.2774 0.30079 0.71448 0.0
H154 H 0.15214 0.17105 0.79481 0.0
H155 H 0.19972 0.12804 0.79424 0.0
H156 H 0.1698 0.62334 0.87519 0.0
H157 H 0.12793 0.53283 0.87111 0.0
H158 H 0.1113 0.53803 0.6597 0.0
H159 H 0.1534 0.62822 0.66434 0.0
Tb160 Tb 0.23021 0.93319 0.76113 0.0
Eu161 Eu 0.34472 0.95545 0.75245 0.0
C162 C 0.28986 0.96689 0.62851 0.0
C163 C 0.25249 0.84675 0.76386 0.0
C164 C 0.09037 0.86839 0.78303 0.0
C165 C 1.01392 0.79842 0.74323 0.0
C166 C 0.06501 0.82921 0.73828 0.0
C167 C 0.06451 0.87298 0.83641 0.0
C168 C 1.01353 0.84221 0.84135 0.0
C169 C 0.98761 0.80652 0.79278 0.0
C170 C 0.14048 0.90957 0.76865 0.0
O171 O 0.25756 0.93753 0.8626 0.0
O172 O 0.33978 0.99013 0.84577 0.0
O173 O 0.35265 0.03245 0.74481 0.0
O174 O 0.27192 1.01327 0.76587 0.0
C175 C 0.30095 0.97274 0.88348 0.0
O176 O 0.40931 0.9607 0.80214 0.0
O177 O 0.40775 0.96385 0.69564 0.0
O178 O 0.31279 0.94379 0.64906 0.0
O179 O 0.25945 0.97177 0.6679 0.0
O180 O 0.22631 0.86379 0.73565 0.0
O181 O 0.29618 0.87712 0.78817 0.0
C182 C 0.31882 0.04538 0.75565 0.0
O183 O 0.16174 0.90778 0.71443 0.0
O184 O 0.17157 0.92782 0.81762 0.0
C185 C 0.45236 0.92766 0.74408 0.0
C186 C 0.50075 0.87179 0.73761 0.0
C187 C 0.49648 0.89112 0.798 0.0
C188 C 0.47271 0.91887 0.80119 0.0
C189 C 0.45571 0.9072 0.68378 0.0
C190 C 0.47962 0.87947 0.68064 0.0
C191 C 0.43105 0.96081 0.74742 0.0
H192 H 0.99442 0.77143 0.70486 0.0
H193 H 0.08383 0.82461 0.69661 0.0
H194 H 0.08305 0.90292 0.87141 0.0
H195 H 0.9938 0.84938 0.87943 0.0
H196 H 0.5128 0.88588 0.84242 0.0
H197 H 0.47125 0.93444 0.84825 0.0
H198 H 0.44085 0.91346 0.6387 0.0
H199 H 0.48278 0.8651 0.63348 0.0
Tb200 Tb 0.73881 0.82963 0.75891 0.0
Eu201 Eu 0.66261 0.71151 0.77925 0.0
C202 C 0.71969 0.74908 0.64542 0.0
C203 C 0.62719 0.78652 0.75359 0.0
C204 C 0.81738 0.97372 0.75603 0.0
C205 C 0.83105 0.05344 0.79486 0.0
C206 C 0.80063 1.00239 0.78822 0.0
C207 C 0.86592 0.9974 0.73204 0.0
C208 C 0.89652 0.0486 0.73908 0.0
C209 C 0.87898 0.07711 0.76954 0.0
C210 C 0.78122 0.92187 0.73794 0.0
O211 O 0.75741 0.81526 0.8582 0.0
O212 O 0.68136 0.75002 0.87846 0.0
O213 O 0.74173 0.72186 0.78132 0.0
O214 O 0.79165 0.80732 0.7824 0.0
C215 C 0.72693 0.77945 0.89758 0.0
O216 O 0.60933 0.65417 0.8458 0.0
O217 O 0.61441 0.63616 0.74467 0.0
O218 O 0.69882 0.71198 0.68612 0.0
O219 O 0.72597 0.79331 0.66029 0.0
O220 O 0.66623 0.81466 0.78858 0.0
O221 O 0.62257 0.74604 0.72903 0.0
C222 C 0.78605 0.76277 0.78214 0.0
O223 O 0.79556 0.89312 0.71176 0.0
O224 O 0.7433 0.89761 0.77616 0.0
C225 C 0.5346 0.59681 0.79241 0.0
C226 C 0.43055 0.54766 0.77908 0.0
C227 C 0.45291 0.5327 0.82722 0.0
C228 C 0.50441 0.55701 0.83376 0.0
C229 C 0.51215 0.61232 0.74491 0.0
C230 C 0.46064 0.58784 0.73815 0.0
C231 C 0.58913 0.62147 0.79906 0.0
H232 H 0.81674 0.07473 0.81827 0.0
H233 H 0.76312 0.98567 0.80589 0.0
H234 H 0.87968 0.97673 0.70576 0.0
H235 H 0.93339 0.06623 0.71898 0.0
H236 H 0.43046 0.50173 0.85916 0.0
H237 H 0.52072 0.54443 0.87085 0.0
H238 H 0.53446 0.64313 0.71265 0.0
H239 H 0.44423 0.6 0.70068 0.0
C240 C 0.286 1.0238 0.96633 0.0
C241 C 0.30812 0.99506 0.95031 0.0
C242 C 0.357 1.02262 0.05258 0.0
C243 C 0.33915 0.0558 0.06483 0.0
N244 N 0.293 0.09382 0.02679 0.0
N245 N 0.36753 0.96977 0.97549 0.0
C246 C 0.305 0.05762 0.02014 0.0
C247 C 0.34476 0.9957 0.99243 0.0
N248 N 0.24776 1.02001 0.92914 0.0
N249 N 0.38144 1.01271 0.10094 0.0
H250 H 0.3556 0.94461 0.93653 0.0
H251 H 0.39967 0.97491 0.99828 0.0
H252 H 0.38704 0.02731 0.14811 0.0
H253 H 0.39055 0.98506 0.0975 0.0
H254 H 0.22637 0.03539 0.94278 0.0
H255 H 0.23484 0.99848 0.8869 0.0
H256 H 0.27179 0.10015 0.99269 0.0
H257 H 0.30865 0.12122 0.06279 0.0
C258 C 0.70806 0.73689 0.52194 0.0
C259 C 0.73449 0.73877 0.57992 0.0
C260 C 0.79026 0.72258 0.51328 0.0
C261 C 0.76157 0.71666 0.45657 0.0
N262 N 0.68485 0.70464 0.41093 0.0
N263 N 0.78739 0.71139 0.63045 0.0
C264 C 0.71766 0.71932 0.46219 0.0
C265 C 0.77182 0.72533 0.57579 0.0
N266 N 0.67326 0.75096 0.52384 0.0
N267 N 0.83455 0.72433 0.5082 0.0
H268 H 0.77154 0.70728 0.67629 0.0
H269 H 0.81149 0.69757 0.62848 0.0
H270 H 0.8483 0.71986 0.46355 0.0
H271 H 0.85909 0.73395 0.54783 0.0
H272 H 0.65683 0.75547 0.4815 0.0
H273 H 0.66325 0.76144 0.56725 0.0
H274 H 0.65029 0.70159 0.41444 0.0
H275 H 0.69015 0.69089 0.36702 0.0
C276 C 1.0289 0.3399 0.03146 0.0
C277 C 1.02107 0.29788 0.06776 0.0
C278 C 0.08261 0.29276 0.99748 0.0
C279 C 0.09126 0.33626 0.96312 0.0
N280 N 0.09011 0.41258 0.97589 0.0
N281 N 0.04677 0.23851 0.0921 0.0
C282 C 0.06956 0.3633 0.98817 0.0
C283 C 0.04922 0.27494 0.05217 0.0
N284 N 0.99758 0.35798 0.03881 0.0
N285 N 0.10799 0.26969 0.97981 0.0
H286 H 1.02265 0.22393 0.13159 0.0
H287 H 0.07059 0.22451 0.08889 0.0
H288 H 0.13971 0.28695 0.95106 0.0
H289 H 0.09815 0.234 0.99428 0.0
H290 H 0.99954 0.38632 1.0094 0.0
H291 H 0.96659 0.34099 0.06905 0.0
H292 H 0.07667 0.43402 0.99635 0.0
H293 H 0.12517 0.43353 0.95591 0.0
C294 C 0.36567 0.06034 0.4934 0.0
C295 C 0.32799 0.0565 0.45075 0.0
C296 C 0.26559 0.99263 0.52279 0.0
C297 C 0.30336 0.99473 0.56437 0.0
N298 N 0.39072 0.02966 0.58629 0.0
N299 N 0.24047 1.01883 0.42685 0.0
C300 C 0.35376 0.02758 0.54798 0.0
C301 C 0.27787 1.02346 0.46633 0.0
N302 N 0.41286 0.09811 0.48413 0.0
N303 N 0.21729 0.95907 0.5348 0.0
H304 H 0.24539 0.03932 0.38402 0.0
H305 H 0.24539 0.03932 0.38402 0.0
H306 H 0.2061 0.93224 0.57157 0.0
H307 H 0.18851 0.95668 0.50578 0.0
H308 H 0.44178 0.10692 0.51694 0.0
H309 H 0.42226 0.12415 0.4465 0.0
H310 H 0.42697 0.04485 0.57042 0.0
H311 H 0.3855 1.01692 0.63448 0.0
C312 C 0.77961 0.80469 1.00182 0.0
C313 C 0.7469 0.76671 0.95791 0.0
C314 C 0.75607 0.70565 0.0254 0.0
C315 C 0.78859 0.74364 0.06847 0.0
N316 N 0.8388 0.82988 0.09253 0.0
N317 N 0.70919 0.6807 0.92421 0.0
C318 C 0.80319 0.79344 0.0544 0.0
C319 C 0.73641 0.71706 0.96884 0.0
N320 N 0.78514 0.85075 0.99647 0.0
N321 N 0.7432 0.65796 0.04012 0.0
H322 H 0.69583 0.68624 0.88028 0.0
H323 H 0.70365 0.64512 0.92627 0.0
H324 H 0.76143 0.64916 0.07635 0.0
H325 H 0.7135 0.62699 0.01923 0.0
H326 H 0.80444 0.87892 0.03041 0.0
H327 H 0.76618 0.85967 0.96166 0.0
H328 H 0.85454 0.8673 0.08216 0.0
H329 H 0.85585 0.82246 0.13174 0.0
C330 C 1.00496 0.25047 0.49311 0.0
C331 C 0.99715 0.2857 0.45807 0.0
C332 C 0.05977 0.35113 0.52818 0.0
C333 C 0.06535 0.31627 0.56637 0.0
N334 N 0.03895 0.23099 0.58944 0.0
N335 N 1.00256 0.36566 0.46638 0.0
C336 C 1.03719 0.26539 0.54956 0.0
C337 C 1.02021 0.33493 0.4824 0.0
N338 N 0.98012 0.20223 0.47384 0.0
N339 N 0.09246 0.40026 0.53595 0.0
H340 H 0.96835 0.3534 0.44435 0.0
H341 H 1.01716 0.40099 0.486 0.0
H342 H 0.12255 0.41331 0.56816 0.0
H343 H 0.09275 0.42718 0.50515 0.0
H344 H 0.98921 0.17608 0.48959 0.0
H345 H 0.95004 0.18835 0.4416 0.0
H346 H 1.01453 0.19328 0.58577 0.0
H347 H 0.06345 0.24016 0.62883 0.0
C348 C 0.73763 0.23324 0.26334 0.0
C349 C 0.70545 0.18388 0.24285 0.0
C350 C 0.77756 0.17619 0.2138 0.0
C351 C 0.80959 0.22326 0.24195 0.0
N352 N 0.81877 0.29319 0.30396 0.0
N353 N 0.69494 0.1056 0.20803 0.0
C354 C 0.78931 0.25109 0.26915 0.0
C355 C 0.72549 0.15462 0.22053 0.0
N356 N 0.71891 0.26347 0.27611 0.0
N357 N 0.79677 0.15275 0.17831 0.0
H358 H 0.65674 0.08833 0.21227 0.0
H359 H 0.70767 0.08116 0.19911 0.0
H360 H 0.83444 0.16791 0.17024 0.0
H361 H 0.77526 0.12075 0.15116 0.0
H362 H 0.74087 0.30122 0.28429 0.0
H363 H 0.68142 0.25171 0.27248 0.0
H364 H 0.80518 0.31209 0.33082 0.0
H365 H 0.85631 0.30686 0.31151 0.0
C366 C 0.48034 0.33987 0.21043 0.0
C367 C 0.50912 0.3662 0.26631 0.0
C368 C 0.47594 0.28631 0.32459 0.0
C369 C 0.45687 0.26065 0.26395 0.0
N370 N 0.4466 0.26522 0.14616 0.0
N371 N 0.49606 0.36078 0.38381 0.0
C372 C 0.46073 0.28812 0.2061 0.0
C373 C 0.4973 0.33879 0.3264 0.0
N374 N 0.46416 0.36233 0.16728 0.0
N375 N 0.47242 0.26093 0.38118 0.0
H376 H 0.49829 0.39517 0.38378 0.0
H377 H 0.48396 0.34206 0.42853 0.0
H378 H 0.45389 0.22258 0.38379 0.0
H379 H 0.49079 0.27839 0.42465 0.0
H380 H 0.43932 0.34349 0.1291 0.0
H381 H 0.46961 0.39753 0.17627 0.0
H382 H 0.45259 0.28479 0.10212 0.0
H383 H 0.43385 0.22768 0.13987 0.0
C384 C 0.8355 0.52 0.28206 0.0
C385 C 0.8848 0.5373 0.26189 0.0
C386 C 0.89224 0.61683 0.23075 0.0
C387 C 0.84493 0.60152 0.25755 0.0
N388 N 0.77433 0.54074 0.31804 0.0
N389 N 0.9629 0.60489 0.22671 0.0
C390 C 0.81713 0.55354 0.28541 0.0
C391 C 0.91393 0.58651 0.23892 0.0
N392 N 0.80583 0.4712 0.2967 0.0
N393 N 0.91569 0.6595 0.19493 0.0
H394 H 0.98016 0.58392 0.23171 0.0
H395 H 0.9873 0.64201 0.21725 0.0
H396 H 0.90048 0.68197 0.18604 0.0
H397 H 0.94785 0.67013 0.16846 0.0
H398 H 0.7681 0.45509 0.30455 0.0
H399 H 0.81819 0.44584 0.29566 0.0
H400 H 0.7552 0.50847 0.34549 0.0
H401 H 0.75997 0.56427 0.32264 0.0
C402 C 0.23796 0.7177 0.75102 0.0
C403 C 0.18857 0.68769 0.77233 0.0
C404 C 0.18436 0.76234 0.79757 0.0
C405 C 0.23158 0.79214 0.76894 0.0
N406 N 0.3004 0.79724 0.70915 0.0
N407 N 0.11212 0.68108 0.8073 0.0
C408 C 0.25781 0.76961 0.74355 0.0
C409 C 0.16106 0.70995 0.79333 0.0
N410 N 0.26624 0.69664 0.73899 0.0
N411 N 0.16255 0.78402 0.83137 0.0
H412 H 0.09382 0.64266 0.80568 0.0
H413 H 0.08874 0.69521 0.81522 0.0
H414 H 0.17896 0.82207 0.83758 0.0
H415 H 0.13058 0.76427 0.85895 0.0
H416 H 0.30398 0.71697 0.73036 0.0
H417 H 0.25282 0.65883 0.74338 0.0
H418 H 0.31839 0.78212 0.68351 0.0
H419 H 0.31561 0.83496 0.70094 0.0
C420 C 0.51069 0.79731 0.75597 0.0
C421 C 0.5306 0.84672 0.73368 0.0
C422 C 0.60844 0.84963 0.7079 0.0
C423 C 0.59123 0.80338 0.73944 0.0
N424 N 0.52676 0.73355 0.79683 0.0
N425 N 0.60013 0.92199 0.69404 0.0
C426 C 0.54227 0.7769 0.76364 0.0
C427 C 0.57985 0.87334 0.71066 0.0
N428 N 0.46148 0.76987 0.76912 0.0
N429 N 0.65168 0.87027 0.67364 0.0
H430 H 0.58042 0.94072 0.69455 0.0
H431 H 0.63749 0.94487 0.68465 0.0
H432 H 0.67275 0.85312 0.66898 0.0
H433 H 0.66405 0.90161 0.6443 0.0
H434 H 0.44354 0.73225 0.7792 0.0
H435 H 0.43765 0.78396 0.76449 0.0
H436 H 0.49348 0.71509 0.82197 0.0
H437 H 0.54865 0.7174 0.80292 0.0
C438 C 0.30134 0.45077 0.72011 0.0
C439 C 0.27135 0.46255 0.75949 0.0
C440 C 0.34576 0.5351 0.80317 0.0
C441 C 0.37566 0.51977 0.76992 0.0
N442 N 0.38233 0.46133 0.69984 0.0
N443 N 0.26397 0.51425 0.84088 0.0
C444 C 0.35351 0.4772 0.72901 0.0
C445 C 0.29329 0.5046 0.80123 0.0
N446 N 0.27982 0.41514 0.67268 0.0
N447 N 0.36762 0.57908 0.83613 0.0
H448 H 0.22558 0.49368 0.83903 0.0
H449 H 0.27738 0.54075 0.87802 0.0
H450 H 0.40576 0.6015 0.84004 0.0
H451 H 0.34833 0.59513 0.85563 0.0
H452 H 0.29949 0.40761 0.63794 0.0
H453 H 0.24191 0.39609 0.66395 0.0
H454 H 0.36831 0.42743 0.67622 0.0
H455 H 0.4207 0.48073 0.70277 0.0
C456 C 0.16668 0.2933 0.21297 0.0
C457 C 0.17812 0.27703 0.27271 0.0
C458 C 0.1292 0.30453 0.33504 0.0
C459 C 0.1131 0.31472 0.27468 0.0
N460 N 0.13072 0.33854 0.16157 0.0
N461 N 0.18246 0.27987 0.39139 0.0
C462 C 0.13711 0.31602 0.21542 0.0
C463 C 0.16365 0.28732 0.33425 0.0
N464 N 0.18095 0.28389 0.15374 0.0
N465 N 0.10961 0.30944 0.39247 0.0
H466 H 0.20802 0.26775 0.39141 0.0
H467 H 0.17575 0.28882 0.43813 0.0
H468 H 0.08755 0.32566 0.39298 0.0
H469 H 0.11501 0.29798 0.43849 0.0
H470 H 0.1689 0.28971 0.10832 0.0
H471 H 0.20295 0.26775 0.14993 0.0
H472 H 0.15009 0.34461 0.1177 0.0
H473 H 0.10932 0.3555 0.16391 0.0
C474 C 0.17262 0.904 0.20369 0.0
C475 C 0.15172 0.88524 0.26666 0.0
C476 C 0.23471 0.92832 0.31688 0.0
C477 C 0.25383 0.95238 0.25604 0.0
N478 N 0.24704 0.9493 0.13871 0.0
N479 N 0.16246 0.87247 0.38144 0.0
C480 C 0.22449 0.93518 0.19842 0.0
C481 C 0.18296 0.89448 0.32262 0.0
N482 N 0.14271 0.89511 0.14992 0.0
N483 N 0.26651 0.93846 0.36856 0.0
H484 H 0.12512 0.84645 0.38576 0.0
H485 H 0.1818 0.87942 0.42571 0.0
H486 H 0.30431 0.96229 0.36327 0.0
H487 H 0.25658 0.92176 0.41469 0.0
H488 H 0.15515 0.91251 0.1045 0.0
H489 H 0.10464 0.87205 0.15135 0.0
H490 H 0.22937 0.93628 0.09344 0.0
H491 H 0.2852 0.9701 0.13621 0.0
C492 C 0.79619 0.90222 0.30872 0.0
C493 C 0.78937 0.91964 0.24696 0.0
C494 C 0.74712 0.83475 0.20347 0.0
C495 C 0.75854 0.81859 0.26307 0.0
N496 N 0.77773 0.83223 0.37841 0.0
N497 N 0.7501 0.90291 0.14041 0.0
C498 C 0.77727 0.85096 0.31776 0.0
C499 C 0.76153 0.88574 0.196 0.0
N500 N 0.8242 0.9349 0.35704 0.0
N501 N 0.72414 0.80152 0.15378 0.0
H502 H 0.76017 0.93992 0.13478 0.0
H503 H 0.72877 0.88082 0.10152 0.0
H504 H 0.71176 0.76406 0.15996 0.0
H505 H 0.71667 0.8103 0.1072 0.0
H506 H 0.83607 0.92494 0.39948 0.0
H507 H 0.83855 0.97284 0.3533 0.0
H508 H 0.78615 0.85219 0.42225 0.0
H509 H 0.76462 0.79486 0.38478 0.0
C510 C 0.30027 0.14457 0.69236 0.0
C511 C 0.29393 0.1632 0.7531 0.0
C512 C 0.33112 0.12114 0.81265 0.0
C513 C 0.33078 0.09765 0.75319 0.0
N514 N 0.33906 0.10459 0.63649 0.0
N515 N 0.31086 0.1771 0.86978 0.0
C516 C 0.323 0.11518 0.69287 0.0
C517 C 0.31254 0.15455 0.81297 0.0
N518 N 0.28211 0.15244 0.63487 0.0
N519 N 0.35022 0.11167 0.8678 0.0
H520 H 0.29873 0.20265 0.87058 0.0
H521 H 0.32164 0.17122 0.91597 0.0
H522 H 0.3652 0.08847 0.86607 0.0
H523 H 0.3545 0.12877 0.91318 0.0
H524 H 0.28092 0.13509 0.59055 0.0
H525 H 0.26514 0.17378 0.63221 0.0
H526 H 0.33774 0.11842 0.59012 0.0
H527 H 0.36016 0.08747 0.63948 0.0
C528 C 0.91973 0.81442 0.74053 0.0
C529 C 0.93408 0.78816 0.78375 0.0
C530 C 0.84778 0.73532 0.81771 0.0
C531 C 0.83369 0.76255 0.77523 0.0
N532 N 0.85443 0.81592 0.67956 0.0
N533 N 0.91226 0.71845 0.85429 0.0
C534 C 0.86917 0.79806 0.73129 0.0
C535 C 0.89814 0.74683 0.81947 0.0
N536 N 0.95452 0.85687 0.71066 0.0
N537 N 0.81363 0.69956 0.85745 0.0
H538 H 0.94885 0.72661 0.85672 0.0
H539 H 0.88776 0.68526 0.87686 0.0
H540 H 0.77621 0.68603 0.85102 0.0
H541 H 0.82221 0.68338 0.89646 0.0
H542 H 0.94613 0.88115 0.6863 0.0
H543 H 0.99231 0.87042 0.7146 0.0
H544 H 0.87778 0.83698 0.6415 0.0
H545 H 0.8178 0.80529 0.67036 0.0
C546 C 0.94992 0.2125 0.71572 0.0
C547 C 0.97776 0.23447 0.77353 0.0
C548 C 0.93415 0.1555 0.83232 0.0
C549 C 0.91004 0.13206 0.77237 0.0
N550 N 0.89079 0.13767 0.65823 0.0
N551 N 0.9854 0.23252 0.89089 0.0
C552 C 0.91619 0.16062 0.71453 0.0
C553 C 0.96613 0.20758 0.83328 0.0
N554 N 0.95547 0.24202 0.66285 0.0
N555 N 0.92867 0.12763 0.88718 0.0
H556 H 1.00682 0.27086 0.89172 0.0
H557 H 0.9762 0.2165 0.93754 0.0
H558 H 0.90548 0.0895 0.88845 0.0
H559 H 0.94916 0.14157 0.93036 0.0
H560 H 0.9355 0.23001 0.61903 0.0
H561 H 0.97846 0.28019 0.66502 0.0
H562 H 0.89621 0.15484 0.61256 0.0
H563 H 0.86429 0.10032 0.65671 0.0
loop_
_geom_bond_atom_site_label_1
_geom_bond_atom_site_label_2
_geom_bond_distance
_geom_bond_site_symmetry_2
_ccdc_geom_bond_type
Tb0 C10 2.825 . S
Tb0 O11 2.347 . S
Tb0 O14 2.366 . S
Tb0 O19 2.418 . S
Tb0 O20 2.384 . S
Tb0 O23 2.479 . S
Tb0 O24 2.471 . S
Eu1 O12 2.418 . S
Eu1 O13 2.384 . S
Eu1 O16 2.479 . S
Eu1 O17 2.471 . S
Eu1 O18 2.347 . S
Eu1 O21 2.366 . S
Eu1 C31 2.825 . S
C2 O18 1.259 . S
C2 O19 1.265 . S
C3 O20 1.255 . S
C3 O21 1.265 . S
C4 C6 1.380 . S
C4 C7 1.374 . S
C4 C10 1.507 . S
C5 C6 1.384 . S
C5 C9 1.387 . S
C5 H32 0.930 . S
C6 C4 1.380 . S
C6 C5 1.384 . S
C6 H33 0.931 . S
C7 C4 1.374 . S
C7 C8 1.390 . S
C7 H34 0.930 . S
C8 C7 1.390 . S
C8 C9 1.391 . S
C8 H35 0.930 . S
C9 C5 1.387 . S
C9 C8 1.391 . S
C10 Tb0 2.825 . S
C10 C4 1.507 . S
C10 O23 1.238 . S
C10 O24 1.247 . S
O11 Tb0 2.347 . S
O11 C15 1.259 . S
O12 Eu1 2.418 . S
O12 C15 1.265 . S
O13 Eu1 2.384 . S
O13 C22 1.255 . S
O14 Tb0 2.366 . S
O14 C22 1.265 . S
C15 O11 1.259 . S
C15 O12 1.265 . S
O16 Eu1 2.479 . S
O16 C31 1.238 . S
O17 Eu1 2.471 . S
O17 C31 1.247 . S
O18 Eu1 2.347 . S
O18 C2 1.259 . S
O19 Tb0 2.418 . S
O19 C2 1.265 . S
O20 Tb0 2.384 . S
O20 C3 1.255 . S
O21 Eu1 2.366 . S
O21 C3 1.265 . S
C22 O13 1.255 . S
C22 O14 1.265 . S
O23 Tb0 2.479 . S
O23 C10 1.238 . S
O24 Tb0 2.471 . S
O24 C10 1.247 . S
C25 C28 1.380 . S
C25 C29 1.374 . S
C25 C31 1.507 . S
C26 C27 1.387 . S
C26 C30 1.391 . S
C27 C26 1.387 . S
C27 C28 1.384 . S
C27 H36 0.930 . S
C28 C25 1.380 . S
C28 C27 1.384 . S
C28 H37 0.931 . S
C29 C25 1.374 . S
C29 C30 1.390 . S
C29 H38 0.930 . S
C30 C26 1.391 . S
C30 C29 1.390 . S
C30 H39 0.930 . S
C31 Eu1 2.825 . S
C31 O16 1.238 . S
C31 O17 1.247 . S
C31 C25 1.507 . S
H32 C5 0.930 . S
H33 C6 0.931 . S
H34 C7 0.930 . S
H35 C8 0.930 . S
H36 C27 0.930 . S
H37 C28 0.931 . S
H38 C29 0.930 . S
H39 C30 0.930 . S
Tb40 C50 2.825 . S
Tb40 O51 2.347 . S
Tb40 O54 2.366 . S
Tb40 O59 2.418 . S
Tb40 O60 2.384 . S
Tb40 O63 2.479 . S
Tb40 O64 2.471 . S
Eu41 O52 2.418 . S
Eu41 O53 2.384 . S
Eu41 O56 2.479 . S
Eu41 O57 2.471 . S
Eu41 O58 2.347 . S
Eu41 O61 2.366 . S
Eu41 C71 2.825 . S
C42 O58 1.259 . S
C42 O59 1.265 . S
C43 O60 1.255 . S
C43 O61 1.265 . S
C44 C46 1.380 1_655 S
C44 C47 1.374 . S
C44 C50 1.507 . S
C45 C46 1.384 . S
C45 C49 1.387 . S
C45 H72 0.930 . S
C46 C44 1.380 1_455 S
C46 C45 1.384 . S
C46 H73 0.933 1_455 S
C47 C44 1.374 . S
C47 C48 1.390 1_655 S
C47 H74 0.930 . S
C48 C47 1.390 1_455 S
C48 C49 1.391 . S
C48 H75 0.930 . S
C49 C45 1.387 . S
C49 C48 1.391 . S
C50 Tb40 2.825 . S
C50 C44 1.507 . S
C50 O63 1.238 . S
C50 O64 1.247 . S
O51 Tb40 2.347 . S
O51 C55 1.259 . S
O52 Eu41 2.418 . S
O52 C55 1.265 . S
O53 Eu41 2.384 . S
O53 C62 1.255 . S
O54 Tb40 2.366 . S
O54 C62 1.265 . S
C55 O51 1.259 . S
C55 O52 1.265 . S
O56 Eu41 2.479 . S
O56 C71 1.238 . S
O57 Eu41 2.471 . S
O57 C71 1.247 . S
O58 Eu41 2.347 . S
O58 C42 1.259 . S
O59 Tb40 2.418 . S
O59 C42 1.265 . S
O60 Tb40 2.384 . S
O60 C43 1.255 . S
O61 Eu41 2.366 . S
O61 C43 1.265 . S
C62 O53 1.255 . S
C62 O54 1.265 . S
O63 Tb40 2.479 . S
O63 C50 1.238 . S
O64 Tb40 2.471 . S
O64 C50 1.247 . S
C65 C68 1.380 . S
C65 C69 1.374 . S
C65 C71 1.507 . S
C66 C67 1.387 . S
C66 C70 1.391 . S
C67 C66 1.387 . S
C67 C68 1.384 . S
C67 H76 0.930 . S
C68 C65 1.380 . S
C68 C67 1.384 . S
C68 H77 0.931 . S
C69 C65 1.374 . S
C69 C70 1.390 . S
C69 H78 0.930 . S
C70 C66 1.391 . S
C70 C69 1.390 . S
C70 H79 0.930 . S
C71 Eu41 2.825 . S
C71 O56 1.238 . S
C71 O57 1.247 . S
C71 C65 1.507 . S
H72 C45 0.930 . S
H73 C46 0.933 1_655 S
H74 C47 0.930 . S
H75 C48 0.930 . S
H76 C67 0.930 . S
H77 C68 0.931 . S
H78 C69 0.930 . S
H79 C70 0.930 . S
Tb80 C90 2.825 . S
Tb80 O91 2.347 . S
Tb80 O94 2.366 . S
Tb80 O99 2.418 . S
Tb80 O100 2.384 . S
Tb80 O103 2.479 . S
Tb80 O104 2.471 . S
Eu81 O92 2.418 . S
Eu81 O93 2.384 . S
Eu81 O96 2.479 . S
Eu81 O97 2.471 . S
Eu81 O98 2.347 . S
Eu81 O101 2.366 . S
Eu81 C111 2.825 . S
C82 O98 1.259 . S
C82 O99 1.265 . S
C83 O100 1.255 . S
C83 O101 1.265 . S
C84 C86 1.380 1_545 S
C84 C87 1.374 . S
C84 C90 1.507 . S
C85 C86 1.384 . S
C85 C89 1.387 . S
C85 H112 0.930 . S
C86 C84 1.380 1_565 S
C86 C85 1.384 . S
C86 H113 0.927 1_565 S
C87 C84 1.374 . S
C87 C88 1.390 1_545 S
C87 H114 0.930 . S
C88 C87 1.390 1_565 S
C88 C89 1.391 . S
C88 H115 0.930 . S
C89 C85 1.387 . S
C89 C88 1.391 . S
C90 Tb80 2.825 . S
C90 C84 1.507 . S
C90 O103 1.238 . S
C90 O104 1.247 . S
O91 Tb80 2.347 . S
O91 C95 1.259 . S
O92 Eu81 2.418 . S
O92 C95 1.265 . S
O93 Eu81 2.384 . S
O93 C102 1.255 . S
O94 Tb80 2.366 . S
O94 C102 1.265 . S
C95 O91 1.259 . S
C95 O92 1.265 . S
O96 Eu81 2.479 . S
O96 C111 1.238 . S
O97 Eu81 2.471 . S
O97 C111 1.247 . S
O98 Eu81 2.347 . S
O98 C82 1.259 . S
O99 Tb80 2.418 . S
O99 C82 1.265 . S
O100 Tb80 2.384 . S
O100 C83 1.255 . S
O101 Eu81 2.366 . S
O101 C83 1.265 . S
C102 O93 1.255 . S
C102 O94 1.265 . S
O103 Tb80 2.479 . S
O103 C90 1.238 . S
O104 Tb80 2.471 . S
O104 C90 1.247 . S
C105 C108 1.380 . S
C105 C109 1.374 . S
C105 C111 1.507 . S
C106 C107 1.387 . S
C106 C110 1.391 . S
C107 C106 1.387 . S
C107 C108 1.384 . S
C107 H116 0.930 . S
C108 C105 1.380 . S
C108 C107 1.384 . S
C108 H117 0.931 . S
C109 C105 1.374 . S
C109 C110 1.390 . S
C109 H118 0.930 . S
C110 C106 1.391 . S
C110 C109 1.390 . S
C110 H119 0.930 . S
C111 Eu81 2.825 . S
C111 O96 1.238 . S
C111 O97 1.247 . S
C111 C105 1.507 . S
H112 C85 0.930 . S
H113 C86 0.927 1_545 S
H114 C87 0.930 . S
H115 C88 0.930 . S
H116 C107 0.930 . S
H117 C108 0.931 . S
H118 C109 0.930 . S
H119 C110 0.930 . S
Tb120 C130 2.825 . S
Tb120 O131 2.347 . S
Tb120 O134 2.366 . S
Tb120 O139 2.418 . S
Tb120 O140 2.384 . S
Tb120 O143 2.479 . S
Tb120 O144 2.471 . S
Eu121 O132 2.418 . S
Eu121 O133 2.384 . S
Eu121 O136 2.479 . S
Eu121 O137 2.471 . S
Eu121 O138 2.347 . S
Eu121 O141 2.366 . S
Eu121 C151 2.825 . S
C122 O138 1.259 . S
C122 O139 1.265 . S
C123 O140 1.255 . S
C123 O141 1.265 . S
C124 C126 1.380 . S
C124 C127 1.374 . S
C124 C130 1.507 . S
C125 C126 1.384 . S
C125 C129 1.387 . S
C125 H152 0.930 . S
C126 C124 1.380 . S
C126 C125 1.384 . S
C126 H153 0.931 . S
C127 C124 1.374 . S
C127 C128 1.390 . S
C127 H154 0.930 . S
C128 C127 1.390 . S
C128 C129 1.391 . S
C128 H155 0.930 . S
C129 C125 1.387 . S
C129 C128 1.391 . S
C130 Tb120 2.825 . S
C130 C124 1.507 . S
C130 O143 1.238 . S
C130 O144 1.247 . S
O131 Tb120 2.347 . S
O131 C135 1.259 . S
O132 Eu121 2.418 . S
O132 C135 1.265 . S
O133 Eu121 2.384 . S
O133 C142 1.255 . S
O134 Tb120 2.366 . S
O134 C142 1.265 . S
C135 O131 1.259 . S
C135 O132 1.265 . S
O136 Eu121 2.479 . S
O136 C151 1.238 . S
O137 Eu121 2.471 . S
O137 C151 1.247 . S
O138 Eu121 2.347 . S
O138 C122 1.259 . S
O139 Tb120 2.418 . S
O139 C122 1.265 . S
O140 Tb120 2.384 . S
O140 C123 1.255 . S
O141 Eu121 2.366 . S
O141 C123 1.265 . S
C142 O133 1.255 . S
C142 O134 1.265 . S
O143 Tb120 2.479 . S
O143 C130 1.238 . S
O144 Tb120 2.471 . S
O144 C130 1.247 . S
C145 C148 1.380 . S
C145 C149 1.374 . S
C145 C151 1.507 . S
C146 C147 1.387 . S
C146 C150 1.391 . S
C147 C146 1.387 . S
C147 C148 1.384 . S
C147 H156 0.930 . S
C148 C145 1.380 . S
C148 C147 1.384 . S
C148 H157 0.931 . S
C149 C145 1.374 . S
C149 C150 1.390 . S
C149 H158 0.930 . S
C150 C146 1.391 . S
C150 C149 1.390 . S
C150 H159 0.930 . S
C151 Eu121 2.825 . S
C151 O136 1.238 . S
C151 O137 1.247 . S
C151 C145 1.507 . S
H152 C125 0.930 . S
H153 C126 0.931 . S
H154 C127 0.930 . S
H155 C128 0.930 . S
H156 C147 0.930 . S
H157 C148 0.931 . S
H158 C149 0.930 . S
H159 C150 0.930 . S
Tb160 C170 2.825 . S
Tb160 O171 2.347 . S
Tb160 O174 2.366 . S
Tb160 O179 2.418 . S
Tb160 O180 2.384 . S
Tb160 O183 2.479 . S
Tb160 O184 2.471 . S
Eu161 O172 2.418 . S
Eu161 O173 2.384 . S
Eu161 O176 2.479 . S
Eu161 O177 2.471 . S
Eu161 O178 2.347 . S
Eu161 O181 2.366 . S
Eu161 C191 2.825 . S
C162 O178 1.259 . S
C162 O179 1.265 . S
C163 O180 1.255 . S
C163 O181 1.265 . S
C164 C166 1.380 1_455 S
C164 C167 1.374 . S
C164 C170 1.507 . S
C165 C166 1.384 . S
C165 C169 1.387 . S
C165 H192 0.930 . S
C166 C164 1.380 1_655 S
C166 C165 1.384 . S
C166 H193 0.927 1_655 S
C167 C164 1.374 . S
C167 C168 1.390 1_455 S
C167 H194 0.930 . S
C168 C167 1.390 1_655 S
C168 C169 1.391 . S
C168 H195 0.930 . S
C169 C165 1.387 . S
C169 C168 1.391 . S
C170 Tb160 2.825 . S
C170 C164 1.507 . S
C170 O183 1.238 . S
C170 O184 1.247 . S
O171 Tb160 2.347 . S
O171 C175 1.259 . S
O172 Eu161 2.418 . S
O172 C175 1.265 . S
O173 Eu161 2.384 . S
O173 C182 1.255 . S
O174 Tb160 2.366 . S
O174 C182 1.265 . S
C175 O171 1.259 . S
C175 O172 1.265 . S
O176 Eu161 2.479 . S
O176 C191 1.238 . S
O177 Eu161 2.471 . S
O177 C191 1.247 . S
O178 Eu161 2.347 . S
O178 C162 1.259 . S
O179 Tb160 2.418 . S
O179 C162 1.265 . S
O180 Tb160 2.384 . S
O180 C163 1.255 . S
O181 Eu161 2.366 . S
O181 C163 1.265 . S
C182 O173 1.255 . S
C182 O174 1.265 . S
O183 Tb160 2.479 . S
O183 C170 1.238 . S
O184 Tb160 2.471 . S
O184 C170 1.247 . S
C185 C188 1.380 . S
C185 C189 1.374 . S
C185 C191 1.507 . S
C186 C187 1.387 . S
C186 C190 1.391 . S
C187 C186 1.387 . S
C187 C188 1.384 . S
C187 H196 0.930 . S
C188 C185 1.380 . S
C188 C187 1.384 . S
C188 H197 0.931 . S
C189 C185 1.374 . S
C189 C190 1.390 . S
C189 H198 0.930 . S
C190 C186 1.391 . S
C190 C189 1.390 . S
C190 H199 0.930 . S
C191 Eu161 2.825 . S
C191 O176 1.238 . S
C191 O177 1.247 . S
C191 C185 1.507 . S
H192 C165 0.930 . S
H193 C166 0.927 1_455 S
H194 C167 0.930 . S
H195 C168 0.930 . S
H196 C187 0.930 . S
H197 C188 0.931 . S
H198 C189 0.930 . S
H199 C190 0.930 . S
Tb200 C210 2.825 . S
Tb200 O211 2.347 . S
Tb200 O214 2.366 . S
Tb200 O219 2.418 . S
Tb200 O220 2.384 . S
Tb200 O223 2.479 . S
Tb200 O224 2.471 . S
Eu201 O212 2.418 . S
Eu201 O213 2.384 . S
Eu201 O216 2.479 . S
Eu201 O217 2.471 . S
Eu201 O218 2.347 . S
Eu201 O221 2.366 . S
Eu201 C231 2.825 . S
C202 O218 1.259 . S
C202 O219 1.265 . S
C203 O220 1.255 . S
C203 O221 1.265 . S
C204 C206 1.380 1_565 S
C204 C207 1.374 . S
C204 C210 1.507 . S
C205 C206 1.384 . S
C205 C209 1.387 . S
C205 H232 0.930 . S
C206 C204 1.380 1_545 S
C206 C205 1.384 . S
C206 H233 0.933 1_545 S
C207 C204 1.374 . S
C207 C208 1.390 1_565 S
C207 H234 0.930 . S
C208 C207 1.390 1_545 S
C208 C209 1.391 . S
C208 H235 0.930 . S
C209 C205 1.387 . S
C209 C208 1.391 . S
C210 Tb200 2.825 . S
C210 C204 1.507 . S
C210 O223 1.238 . S
C210 O224 1.247 . S
O211 Tb200 2.347 . S
O211 C215 1.259 . S
O212 Eu201 2.418 . S
O212 C215 1.265 . S
O213 Eu201 2.384 . S
O213 C222 1.255 . S
O214 Tb200 2.366 . S
O214 C222 1.265 . S
C215 O211 1.259 . S
C215 O212 1.265 . S
O216 Eu201 2.479 . S
O216 C231 1.238 . S
O217 Eu201 2.471 . S
O217 C231 1.247 . S
O218 Eu201 2.347 . S
O218 C202 1.259 . S
O219 Tb200 2.418 . S
O219 C202 1.265 . S
O220 Tb200 2.384 . S
O220 C203 1.255 . S
O221 Eu201 2.366 . S
O221 C203 1.265 . S
C222 O213 1.255 . S
C222 O214 1.265 . S
O223 Tb200 2.479 . S
O223 C210 1.238 . S
O224 Tb200 2.471 . S
O224 C210 1.247 . S
C225 C228 1.380 . S
C225 C229 1.374 . S
C225 C231 1.507 . S
C226 C227 1.387 . S
C226 C230 1.391 . S
C227 C226 1.387 . S
C227 C228 1.384 . S
C227 H236 0.930 . S
C228 C225 1.380 . S
C228 C227 1.384 . S
C228 H237 0.931 . S
C229 C225 1.374 . S
C229 C230 1.390 . S
C229 H238 0.930 . S
C230 C226 1.391 . S
C230 C229 1.390 . S
C230 H239 0.930 . S
C231 Eu201 2.825 . S
C231 O216 1.238 . S
C231 O217 1.247 . S
C231 C225 1.507 . S
H232 C205 0.930 . S
H233 C206 0.933 1_565 S
H234 C207 0.930 . S
H235 C208 0.930 . S
H236 C227 0.930 . S
H237 C228 0.931 . S
H238 C229 0.930 . S
H239 C230 0.930 . S
C240 C241 1.363 . S
C240 C246 1.379 1_565 S
C240 N248 1.356 . S
C241 C240 1.363 . S
C241 C247 1.363 1_556 S
C242 C243 1.363 . S
C242 C247 1.379 1_545 S
C242 N249 1.356 . S
C243 C242 1.363 . S
C243 C246 1.363 1_554 S
N244 C246 1.356 . S
N244 H256 0.984 . S
N244 H257 0.985 1_556 S
N245 C247 1.356 . S
N245 H250 0.984 1_554 S
N245 H251 0.985 . S
C246 C240 1.379 1_545 S
C246 C243 1.363 1_556 S
C246 N244 1.356 . S
C247 C241 1.363 1_554 S
C247 C242 1.379 1_565 S
C247 N245 1.356 . S
N248 C240 1.356 . S
N248 H254 0.984 1_565 S
N248 H255 0.984 . S
N249 C242 1.356 . S
N249 H252 0.984 . S
N249 H253 0.985 1_545 S
H250 N245 0.984 1_556 S
H251 N245 0.985 . S
H252 N249 0.984 . S
H253 N249 0.985 1_565 S
H254 N248 0.984 1_545 S
H255 N248 0.984 . S
H256 N244 0.984 . S
H257 N244 0.985 1_554 S
C258 C259 1.363 . S
C258 C264 1.379 . S
C258 N266 1.356 . S
C259 C258 1.363 . S
C259 C265 1.363 . S
C260 C261 1.363 . S
C260 C265 1.379 . S
C260 N267 1.356 . S
C261 C260 1.363 . S
C261 C264 1.363 . S
N262 C264 1.356 . S
N262 H274 0.984 . S
N262 H275 0.985 . S
N263 C265 1.356 . S
N263 H268 0.984 . S
N263 H269 0.985 . S
C264 C258 1.379 . S
C264 C261 1.363 . S
C264 N262 1.356 . S
C265 C259 1.363 . S
C265 C260 1.379 . S
C265 N263 1.356 . S
N266 C258 1.356 . S
N266 H272 0.984 . S
N266 H273 0.984 . S
N267 C260 1.356 . S
N267 H270 0.984 . S
N267 H271 0.985 . S
H268 N263 0.984 . S
H269 N263 0.985 . S
H270 N267 0.984 . S
H271 N267 0.985 . S
H272 N266 0.984 . S
H273 N266 0.984 . S
H274 N262 0.984 . S
H275 N262 0.985 . S
C276 C277 1.363 . S
C276 C282 1.379 1_654 S
C276 N284 1.356 . S
C277 C276 1.363 . S
C277 C283 1.363 . S
C278 C279 1.363 . S
C278 C283 1.379 1_456 S
C278 N285 1.356 . S
C279 C278 1.363 . S
C279 C282 1.363 . S
N280 C282 1.356 . S
N280 H292 0.984 1_556 S
N280 H293 0.985 . S
N281 C283 1.356 . S
N281 H286 0.984 . S
N281 H287 0.985 1_554 S
C282 C276 1.379 1_456 S
C282 C279 1.363 . S
C282 N280 1.356 . S
C283 C277 1.363 . S
C283 C278 1.379 1_654 S
C283 N281 1.356 . S
N284 C276 1.356 . S
N284 H290 0.984 . S
N284 H291 0.984 . S
N285 C278 1.356 . S
N285 H288 0.984 . S
N285 H289 0.985 . S
H286 N281 0.984 . S
H287 N281 0.985 1_556 S
H288 N285 0.984 . S
H289 N285 0.985 . S
H290 N284 0.984 . S
H291 N284 0.984 . S
H292 N280 0.984 1_554 S
H293 N280 0.985 . S
C294 C295 1.363 . S
C294 C300 1.379 1_545 S
C294 N302 1.356 . S
C295 C294 1.363 . S
C295 C301 1.363 . S
C296 C297 1.363 . S
C296 C301 1.379 1_565 S
C296 N303 1.356 . S
C297 C296 1.363 . S
C297 C300 1.363 . S
N298 C300 1.356 . S
N298 H310 0.981 1_565 S
N298 H311 0.985 . S
N299 C301 1.356 . S
N299 H304 0.984 . S
N299 H305 0.981 1_545 S
C300 C294 1.379 1_565 S
C300 C297 1.363 . S
C300 N298 1.356 . S
C301 C295 1.363 . S
C301 C296 1.379 1_545 S
C301 N299 1.356 . S
N302 C294 1.356 . S
N302 H308 0.984 . S
N302 H309 0.984 . S
N303 C296 1.356 . S
N303 H306 0.984 . S
N303 H307 0.985 . S
H304 N299 0.984 . S
H305 N299 0.981 1_565 S
H306 N303 0.984 . S
H307 N303 0.985 . S
H308 N302 0.984 . S
H309 N302 0.984 . S
H310 N298 0.981 1_545 S
H311 N298 0.985 . S
C312 C313 1.363 1_554 S
C312 C318 1.379 . S
C312 N320 1.356 . S
C313 C312 1.363 1_556 S
C313 C319 1.363 . S
C314 C315 1.363 1_556 S
C314 C319 1.379 . S
C314 N321 1.356 . S
C315 C314 1.363 1_554 S
C315 C318 1.363 . S
N316 C318 1.356 . S
N316 H328 0.984 . S
N316 H329 0.985 . S
N317 C319 1.356 . S
N317 H322 0.984 . S
N317 H323 0.985 . S
C318 C312 1.379 . S
C318 C315 1.363 . S
C318 N316 1.356 . S
C319 C313 1.363 . S
C319 C314 1.379 . S
C319 N317 1.356 . S
N320 C312 1.356 . S
N320 H326 0.984 . S
N320 H327 0.984 1_554 S
N321 C314 1.356 . S
N321 H324 0.984 1_556 S
N321 H325 0.985 . S
H322 N317 0.984 . S
H323 N317 0.985 . S
H324 N321 0.984 1_554 S
H325 N321 0.985 . S
H326 N320 0.984 . S
H327 N320 0.984 1_556 S
H328 N316 0.984 . S
H329 N316 0.985 . S
C330 C331 1.363 . S
C330 C336 1.379 1_655 S
C330 N338 1.356 . S
C331 C330 1.363 . S
C331 C337 1.363 . S
C332 C333 1.363 . S
C332 C337 1.379 1_455 S
C332 N339 1.356 . S
C333 C332 1.363 . S
C333 C336 1.363 . S
N334 C336 1.356 . S
N334 H346 0.984 . S
N334 H347 0.985 . S
N335 C337 1.356 . S
N335 H340 0.984 . S
N335 H341 0.985 . S
C336 C330 1.379 1_455 S
C336 C333 1.363 . S
C336 N334 1.356 . S
C337 C331 1.363 . S
C337 C332 1.379 1_655 S
C337 N335 1.356 . S
N338 C330 1.356 . S
N338 H344 0.984 . S
N338 H345 0.984 . S
N339 C332 1.356 . S
N339 H342 0.984 . S
N339 H343 0.985 . S
H340 N335 0.984 . S
H341 N335 0.985 . S
H342 N339 0.984 . S
H343 N339 0.985 . S
H344 N338 0.984 . S
H345 N338 0.984 . S
H346 N334 0.984 . S
H347 N334 0.985 . S
C348 C349 1.363 . S
C348 C354 1.379 . S
C348 N356 1.356 . S
C349 C348 1.363 . S
C349 C355 1.363 . S
C350 C351 1.363 . S
C350 C355 1.379 . S
C350 N357 1.356 . S
C351 C350 1.363 . S
C351 C354 1.363 . S
N352 C354 1.356 . S
N352 H364 0.984 . S
N352 H365 0.985 . S
N353 C355 1.356 . S
N353 H358 0.984 . S
N353 H359 0.985 . S
C354 C348 1.379 . S
C354 C351 1.363 . S
C354 N352 1.356 . S
C355 C349 1.363 . S
C355 C350 1.379 . S
C355 N353 1.356 . S
N356 C348 1.356 . S
N356 H362 0.984 . S
N356 H363 0.984 . S
N357 C350 1.356 . S
N357 H360 0.984 . S
N357 H361 0.985 . S
H358 N353 0.984 . S
H359 N353 0.985 . S
H360 N357 0.984 . S
H361 N357 0.985 . S
H362 N356 0.984 . S
H363 N356 0.984 . S
H364 N352 0.984 . S
H365 N352 0.985 . S
C366 C367 1.363 . S
C366 C372 1.379 . S
C366 N374 1.356 . S
C367 C366 1.363 . S
C367 C373 1.363 . S
C368 C369 1.363 . S
C368 C373 1.379 . S
C368 N375 1.356 . S
C369 C368 1.363 . S
C369 C372 1.363 . S
N370 C372 1.356 . S
N370 H382 0.984 . S
N370 H383 0.985 . S
N371 C373 1.356 . S
N371 H376 0.984 . S
N371 H377 0.985 . S
C372 C366 1.379 . S
C372 C369 1.363 . S
C372 N370 1.356 . S
C373 C367 1.363 . S
C373 C368 1.379 . S
C373 N371 1.356 . S
N374 C366 1.356 . S
N374 H380 0.984 . S
N374 H381 0.984 . S
N375 C368 1.356 . S
N375 H378 0.984 . S
N375 H379 0.985 . S
H376 N371 0.984 . S
H377 N371 0.985 . S
H378 N375 0.984 . S
H379 N375 0.985 . S
H380 N374 0.984 . S
H381 N374 0.984 . S
H382 N370 0.984 . S
H383 N370 0.985 . S
C384 C385 1.363 . S
C384 C390 1.379 . S
C384 N392 1.356 . S
C385 C384 1.363 . S
C385 C391 1.363 . S
C386 C387 1.363 . S
C386 C391 1.379 . S
C386 N393 1.356 . S
C387 C386 1.363 . S
C387 C390 1.363 . S
N388 C390 1.356 . S
N388 H400 0.984 . S
N388 H401 0.985 . S
N389 C391 1.356 . S
N389 H394 0.984 . S
N389 H395 0.985 . S
C390 C384 1.379 . S
C390 C387 1.363 . S
C390 N388 1.356 . S
C391 C385 1.363 . S
C391 C386 1.379 . S
C391 N389 1.356 . S
N392 C384 1.356 . S
N392 H398 0.984 . S
N392 H399 0.984 . S
N393 C386 1.356 . S
N393 H396 0.984 . S
N393 H397 0.985 . S
H394 N389 0.984 . S
H395 N389 0.985 . S
H396 N393 0.984 . S
H397 N393 0.985 . S
H398 N392 0.984 . S
H399 N392 0.984 . S
H400 N388 0.984 . S
H401 N388 0.985 . S
C402 C403 1.363 . S
C402 C408 1.379 . S
C402 N410 1.356 . S
C403 C402 1.363 . S
C403 C409 1.363 . S
C404 C405 1.363 . S
C404 C409 1.379 . S
C404 N411 1.356 . S
C405 C404 1.363 . S
C405 C408 1.363 . S
N406 C408 1.356 . S
N406 H418 0.984 . S
N406 H419 0.985 . S
N407 C409 1.356 . S
N407 H412 0.984 . S
N407 H413 0.985 . S
C408 C402 1.379 . S
C408 C405 1.363 . S
C408 N406 1.356 . S
C409 C403 1.363 . S
C409 C404 1.379 . S
C409 N407 1.356 . S
N410 C402 1.356 . S
N410 H416 0.984 . S
N410 H417 0.984 . S
N411 C404 1.356 . S
N411 H414 0.984 . S
N411 H415 0.985 . S
H412 N407 0.984 . S
H413 N407 0.985 . S
H414 N411 0.984 . S
H415 N411 0.985 . S
H416 N410 0.984 . S
H417 N410 0.984 . S
H418 N406 0.984 . S
H419 N406 0.985 . S
C420 C421 1.363 . S
C420 C426 1.379 . S
C420 N428 1.356 . S
C421 C420 1.363 . S
C421 C427 1.363 . S
C422 C423 1.363 . S
C422 C427 1.379 . S
C422 N429 1.356 . S
C423 C422 1.363 . S
C423 C426 1.363 . S
N424 C426 1.356 . S
N424 H436 0.984 . S
N424 H437 0.985 . S
N425 C427 1.356 . S
N425 H430 0.984 . S
N425 H431 0.985 . S
C426 C420 1.379 . S
C426 C423 1.363 . S
C426 N424 1.356 . S
C427 C421 1.363 . S
C427 C422 1.379 . S
C427 N425 1.356 . S
N428 C420 1.356 . S
N428 H434 0.984 . S
N428 H435 0.984 . S
N429 C422 1.356 . S
N429 H432 0.984 . S
N429 H433 0.985 . S
H430 N425 0.984 . S
H431 N425 0.985 . S
H432 N429 0.984 . S
H433 N429 0.985 . S
H434 N428 0.984 . S
H435 N428 0.984 . S
H436 N424 0.984 . S
H437 N424 0.985 . S
C438 C439 1.363 . S
C438 C444 1.379 . S
C438 N446 1.356 . S
C439 C438 1.363 . S
C439 C445 1.363 . S
C440 C441 1.363 . S
C440 C445 1.379 . S
C440 N447 1.356 . S
C441 C440 1.363 . S
C441 C444 1.363 . S
N442 C444 1.356 . S
N442 H454 0.984 . S
N442 H455 0.985 . S
N443 C445 1.356 . S
N443 H448 0.984 . S
N443 H449 0.985 . S
C444 C438 1.379 . S
C444 C441 1.363 . S
C444 N442 1.356 . S
C445 C439 1.363 . S
C445 C440 1.379 . S
C445 N443 1.356 . S
N446 C438 1.356 . S
N446 H452 0.984 . S
N446 H453 0.984 . S
N447 C440 1.356 . S
N447 H450 0.984 . S
N447 H451 0.985 . S
H448 N443 0.984 . S
H449 N443 0.985 . S
H450 N447 0.984 . S
H451 N447 0.985 . S
H452 N446 0.984 . S
H453 N446 0.984 . S
H454 N442 0.984 . S
H455 N442 0.985 . S
C456 C457 1.363 . S
C456 C462 1.379 . S
C456 N464 1.356 . S
C457 C456 1.363 . S
C457 C463 1.366 . S
C458 C459 1.363 1_655 S
C458 C463 1.375 1_655 S
C458 N465 1.356 . S
C459 C458 1.363 1_455 S
C459 C462 1.363 . S
N460 C462 1.356 . S
N460 H472 0.984 . S
N460 H473 0.985 . S
N461 C463 1.358 1_655 S
N461 H466 0.984 1_655 S
N461 H467 0.985 . S
C462 C456 1.379 . S
C462 C459 1.363 . S
C462 N460 1.356 . S
C463 C457 1.366 . S
C463 C458 1.375 1_455 S
C463 N461 1.358 1_455 S
N464 C456 1.356 . S
N464 H470 0.984 . S
N464 H471 0.984 . S
N465 C458 1.356 . S
N465 H468 0.984 . S
N465 H469 0.985 . S
H466 N461 0.984 1_455 S
H467 N461 0.985 . S
H468 N465 0.984 . S
H469 N465 0.985 . S
H470 N464 0.984 . S
H471 N464 0.984 . S
H472 N460 0.984 . S
H473 N460 0.985 . S
C474 C475 1.363 . S
C474 C480 1.379 . S
C474 N482 1.356 . S
C475 C474 1.363 . S
C475 C481 1.363 . S
C476 C477 1.363 . S
C476 C481 1.379 . S
C476 N483 1.356 . S
C477 C476 1.363 . S
C477 C480 1.363 . S
N478 C480 1.356 1_545 S
N478 H490 0.984 . S
N478 H491 0.985 . S
N479 C481 1.356 . S
N479 H484 0.984 . S
N479 H485 0.985 . S
C480 C474 1.379 . S
C480 C477 1.363 . S
C480 N478 1.356 1_565 S
C481 C475 1.363 . S
C481 C476 1.379 . S
C481 N479 1.356 . S
N482 C474 1.356 . S
N482 H488 0.984 . S
N482 H489 0.984 . S
N483 C476 1.356 . S
N483 H486 0.984 . S
N483 H487 0.985 . S
H484 N479 0.984 . S
H485 N479 0.985 . S
H486 N483 0.984 . S
H487 N483 0.985 . S
H488 N482 0.984 . S
H489 N482 0.984 . S
H490 N478 0.984 . S
H491 N478 0.985 . S
C492 C493 1.363 . S
C492 C498 1.379 . S
C492 N500 1.356 . S
C493 C492 1.363 . S
C493 C499 1.363 . S
C494 C495 1.363 . S
C494 C499 1.379 . S
C494 N501 1.356 . S
C495 C494 1.363 . S
C495 C498 1.363 . S
N496 C498 1.356 . S
N496 H508 0.984 . S
N496 H509 0.985 . S
N497 C499 1.356 . S
N497 H502 0.984 . S
N497 H503 0.985 . S
C498 C492 1.379 . S
C498 C495 1.363 . S
C498 N496 1.356 . S
C499 C493 1.363 . S
C499 C494 1.379 . S
C499 N497 1.356 . S
N500 C492 1.356 . S
N500 H506 0.984 . S
N500 H507 0.984 . S
N501 C494 1.356 . S
N501 H504 0.984 . S
N501 H505 0.985 . S
H502 N497 0.984 . S
H503 N497 0.985 . S
H504 N501 0.984 . S
H505 N501 0.985 . S
H506 N500 0.984 . S
H507 N500 0.984 . S
H508 N496 0.984 . S
H509 N496 0.985 . S
C510 C511 1.363 1_565 S
C510 C516 1.379 . S
C510 N518 1.356 . S
C511 C510 1.363 1_545 S
C511 C517 1.363 . S
C512 C513 1.363 . S
C512 C517 1.379 . S
C512 N519 1.356 . S
C513 C512 1.363 . S
C513 C516 1.363 1_545 S
N514 C516 1.356 . S
N514 H526 0.984 . S
N514 H527 0.985 . S
N515 C517 1.356 . S
N515 H520 0.984 . S
N515 H521 0.985 . S
C516 C510 1.379 . S
C516 C513 1.363 1_565 S
C516 N514 1.356 . S
C517 C511 1.363 . S
C517 C512 1.379 . S
C517 N515 1.356 . S
N518 C510 1.356 . S
N518 H524 0.984 . S
N518 H525 0.984 . S
N519 C512 1.356 . S
N519 H522 0.984 . S
N519 H523 0.985 . S
H520 N515 0.984 . S
H521 N515 0.985 . S
H522 N519 0.984 . S
H523 N519 0.985 . S
H524 N518 0.984 . S
H525 N518 0.984 . S
H526 N514 0.984 . S
H527 N514 0.985 . S
C528 C529 1.363 . S
C528 C534 1.379 . S
C528 N536 1.356 . S
C529 C528 1.363 . S
C529 C535 1.363 . S
C530 C531 1.363 . S
C530 C535 1.379 . S
C530 N537 1.356 . S
C531 C530 1.363 . S
C531 C534 1.363 . S
N532 C534 1.356 . S
N532 H544 0.984 . S
N532 H545 0.985 . S
N533 C535 1.356 . S
N533 H538 0.984 . S
N533 H539 0.985 . S
C534 C528 1.379 . S
C534 C531 1.363 . S
C534 N532 1.356 . S
C535 C529 1.363 . S
C535 C530 1.379 . S
C535 N533 1.356 . S
N536 C528 1.356 . S
N536 H542 0.984 . S
N536 H543 0.984 . S
N537 C530 1.356 . S
N537 H540 0.984 . S
N537 H541 0.985 . S
H538 N533 0.984 . S
H539 N533 0.985 . S
H540 N537 0.984 . S
H541 N537 0.985 . S
H542 N536 0.984 . S
H543 N536 0.984 . S
H544 N532 0.984 . S
H545 N532 0.985 . S
C546 C547 1.363 . S
C546 C552 1.379 . S
C546 N554 1.356 . S
C547 C546 1.363 . S
C547 C553 1.363 1_655 S
C548 C549 1.361 1_455 S
C548 C553 1.374 . S
C548 N555 1.363 . S
C549 C548 1.361 1_655 S
C549 C552 1.363 . S
N550 C552 1.356 . S
N550 H562 0.984 . S
N550 H563 0.985 . S
N551 C553 1.356 . S
N551 H556 0.984 . S
N551 H557 0.985 . S
C552 C546 1.379 . S
C552 C549 1.363 . S
C552 N550 1.356 . S
C553 C547 1.363 1_455 S
C553 C548 1.374 . S
C553 N551 1.356 . S
N554 C546 1.356 . S
N554 H560 0.984 . S
N554 H561 0.984 . S
N555 C548 1.363 . S
N555 H558 0.984 1_455 S
N555 H559 0.985 . S
H556 N551 0.984 . S
H557 N551 0.985 . S
H558 N555 0.984 1_655 S
H559 N555 0.985 . S
H560 N554 0.984 . S
H561 N554 0.984 . S
H562 N550 0.984 . S
H563 N550 0.985 . S
C241 C175 2.480 . S
C243 C15 2.480 . S
C259 C202 2.555 . S
C261 C42 2.555 . S
C277 C95 2.480 . S
C279 C135 2.480 . S
C295 C2 2.555 . S
C297 C162 2.555 . S
C313 C215 2.480 . S
C315 C55 2.480 . S
C331 C82 2.555 . S
C333 C122 2.555 . S
C349 C26 1.982 . S
C351 C83 1.910 . S
C367 C66 1.982 . S
C369 C3 1.910 . S
C385 C106 1.982 . S
C387 C43 1.910 . S
C403 C146 1.982 . S
C405 C163 1.910 . S
C421 C186 1.982 . S
C423 C203 1.910 . S
C439 C123 1.910 . S
C441 C226 1.982 . S
C457 C9 1.396 . S
C459 C102 1.517 1_455 S
C475 C49 1.396 . S
C477 C22 1.517 1_565 S
C493 C89 1.396 . S
C495 C62 1.517 . S
C511 C129 1.396 . S
C513 C182 1.517 1_545 S
C529 C169 1.396 . S
C531 C222 1.517 . S
C547 C142 1.517 1_655 S
C549 C209 1.396 . S
