# Generated by pormake.
# Topology whz, (6)-cn, num edge types: 1
# Building blocks:
#     Node 0, Type 0, BuildingBlock: VOLQOD_clean_sbu_1, # of connection points: 6
#     Node 1, Type 0, BuildingBlock: VOLQOD_clean_sbu_1, # of connection points: 6
#     Node 2, Type 0, BuildingBlock: VOLQOD_clean_sbu_1, # of connection points: 6
#     Node 3, Type 0, BuildingBlock: VOLQOD_clean_sbu_1, # of connection points: 6
#     Node 4, Type 0, BuildingBlock: VOLQOD_clean_sbu_1, # of connection points: 6
#     Node 5, Type 0, BuildingBlock: VOLQOD_clean_sbu_1, # of connection points: 6
#     Node 6, Type 0, BuildingBlock: VOLQOD_clean_sbu_1, # of connection points: 6
#     Node 7, Type 0, BuildingBlock: VOLQOD_clean_sbu_1, # of connection points: 6
#     Node 8, Type 0, BuildingBlock: VOLQOD_clean_sbu_1, # of connection points: 6
#     Node 9, Type 0, BuildingBlock: VOLQOD_clean_sbu_1, # of connection points: 6
#     Node 10, Type 0, BuildingBlock: VOLQOD_clean_sbu_1, # of connection points: 6
#     Node 11, Type 0, BuildingBlock: VOLQOD_clean_sbu_1, # of connection points: 6
#     Node 12, Type 0, BuildingBlock: VOLQOD_clean_sbu_1, # of connection points: 6
#     Node 13, Type 0, BuildingBlock: VOLQOD_clean_sbu_1, # of connection points: 6
#     Node 14, Type 0, BuildingBlock: VOLQOD_clean_sbu_1, # of connection points: 6
#     Node 15, Type 0, BuildingBlock: VOLQOD_clean_sbu_1, # of connection points: 6
#     Edge 16, Type (0, 0), BuildingBlock: XIVTED_clean_linker_0, # of connection points: 2
#     Edge 17, Type (0, 0), BuildingBlock: XIVTED_clean_linker_0, # of connection points: 2
#     Edge 18, Type (0, 0), BuildingBlock: XIVTED_clean_linker_0, # of connection points: 2
#     Edge 19, Type (0, 0), BuildingBlock: XIVTED_clean_linker_0, # of connection points: 2
#     Edge 20, Type (0, 0), BuildingBlock: XIVTED_clean_linker_0, # of connection points: 2
#     Edge 21, Type (0, 0), BuildingBlock: XIVTED_clean_linker_0, # of connection points: 2
#     Edge 22, Type (0, 0), BuildingBlock: XIVTED_clean_linker_0, # of connection points: 2
#     Edge 23, Type (0, 0), BuildingBlock: XIVTED_clean_linker_0, # of connection points: 2
#     Edge 24, Type (0, 0), BuildingBlock: XIVTED_clean_linker_0, # of connection points: 2
#     Edge 25, Type (0, 0), BuildingBlock: XIVTED_clean_linker_0, # of connection points: 2
#     Edge 26, Type (0, 0), BuildingBlock: XIVTED_clean_linker_0, # of connection points: 2
#     Edge 27, Type (0, 0), BuildingBlock: XIVTED_clean_linker_0, # of connection points: 2
#     Edge 28, Type (0, 0), BuildingBlock: XIVTED_clean_linker_0, # of connection points: 2
#     Edge 29, Type (0, 0), BuildingBlock: XIVTED_clean_linker_0, # of connection points: 2
#     Edge 30, Type (0, 0), BuildingBlock: XIVTED_clean_linker_0, # of connection points: 2
#     Edge 31, Type (0, 0), BuildingBlock: XIVTED_clean_linker_0, # of connection points: 2
#     Edge 32, Type (0, 0), BuildingBlock: XIVTED_clean_linker_0, # of connection points: 2
#     Edge 33, Type (0, 0), BuildingBlock: XIVTED_clean_linker_0, # of connection points: 2
#     Edge 34, Type (0, 0), BuildingBlock: XIVTED_clean_linker_0, # of connection points: 2
#     Edge 35, Type (0, 0), BuildingBlock: XIVTED_clean_linker_0, # of connection points: 2
#     Edge 36, Type (0, 0), BuildingBlock: XIVTED_clean_linker_0, # of connection points: 2
#     Edge 37, Type (0, 0), BuildingBlock: XIVTED_clean_linker_0, # of connection points: 2
#     Edge 38, Type (0, 0), BuildingBlock: XIVTED_clean_linker_0, # of connection points: 2
#     Edge 39, Type (0, 0), BuildingBlock: XIVTED_clean_linker_0, # of connection points: 2
#     Edge 40, Type (0, 0), BuildingBlock: XIVTED_clean_linker_0, # of connection points: 2
#     Edge 41, Type (0, 0), BuildingBlock: XIVTED_clean_linker_0, # of connection points: 2
#     Edge 42, Type (0, 0), BuildingBlock: XIVTED_clean_linker_0, # of connection points: 2
#     Edge 43, Type (0, 0), BuildingBlock: XIVTED_clean_linker_0, # of connection points: 2
#     Edge 44, Type (0, 0), BuildingBlock: XIVTED_clean_linker_0, # of connection points: 2
#     Edge 45, Type (0, 0), BuildingBlock: XIVTED_clean_linker_0, # of connection points: 2
#     Edge 46, Type (0, 0), BuildingBlock: XIVTED_clean_linker_0, # of connection points: 2
#     Edge 47, Type (0, 0), BuildingBlock: XIVTED_clean_linker_0, # of connection points: 2
#     Edge 48, Type (0, 0), BuildingBlock: XIVTED_clean_linker_0, # of connection points: 2
#     Edge 49, Type (0, 0), BuildingBlock: XIVTED_clean_linker_0, # of connection points: 2
#     Edge 50, Type (0, 0), BuildingBlock: XIVTED_clean_linker_0, # of connection points: 2
#     Edge 51, Type (0, 0), BuildingBlock: XIVTED_clean_linker_0, # of connection points: 2
#     Edge 52, Type (0, 0), BuildingBlock: XIVTED_clean_linker_0, # of connection points: 2
#     Edge 53, Type (0, 0), BuildingBlock: XIVTED_clean_linker_0, # of connection points: 2
#     Edge 54, Type (0, 0), BuildingBlock: XIVTED_clean_linker_0, # of connection points: 2
#     Edge 55, Type (0, 0), BuildingBlock: XIVTED_clean_linker_0, # of connection points: 2
#     Edge 56, Type (0, 0), BuildingBlock: XIVTED_clean_linker_0, # of connection points: 2
#     Edge 57, Type (0, 0), BuildingBlock: XIVTED_clean_linker_0, # of connection points: 2
#     Edge 58, Type (0, 0), BuildingBlock: XIVTED_clean_linker_0, # of connection points: 2
#     Edge 59, Type (0, 0), BuildingBlock: XIVTED_clean_linker_0, # of connection points: 2
#     Edge 60, Type (0, 0), BuildingBlock: XIVTED_clean_linker_0, # of connection points: 2
#     Edge 61, Type (0, 0), BuildingBlock: XIVTED_clean_linker_0, # of connection points: 2
#     Edge 62, Type (0, 0), BuildingBlock: XIVTED_clean_linker_0, # of connection points: 2
#     Edge 63, Type (0, 0), BuildingBlock: XIVTED_clean_linker_0, # of connection points: 2
# Relax obj value: 0.426
# Max RMSD: 0.199
# Mean RMSD: 0.199
data_MOF--net-whz--node1-VOLQOD_clean_sbu_1--edge1-XIVTED_clean_linker_0
_symmetry_space_group_name_H-M    P1
_symmetry_Int_Tables_number       1
_symmetry_cell_setting            triclinic
loop_
_symmetry_equiv_pos_as_xyz
'x, y, z'
_cell_length_a     37.104493
_cell_length_b     37.129048
_cell_length_c     55.022171
_cell_angle_alpha  90.073064
_cell_angle_beta   90.087055
_cell_angle_gamma 89.916137
loop_
_atom_site_label
_atom_site_type_symbol
_atom_site_fract_x
_atom_site_fract_y
_atom_site_fract_z
_atom_type_partial_charge
O0 O 0.25257 0.17418 0.15643 0.0
Zn1 Zn 0.25192 0.15349 0.12313 0.0
O2 O 0.29635 0.12845 0.11632 0.0
Zn3 Zn 0.28482 0.07933 0.10554 0.0
Zn4 Zn 0.32724 0.12873 0.14486 0.0
Zn5 Zn 0.32001 0.15565 0.0911 0.0
O6 O 0.29531 0.07433 0.06902 0.0
O7 O 0.31549 0.12912 0.05983 0.0
O8 O 0.20982 0.12143 0.12204 0.0
O9 O 0.23166 0.0685 0.11064 0.0
O10 O 0.30951 0.04278 0.12755 0.0
O11 O 0.33487 0.0779 0.1557 0.0
O12 O 0.37517 0.15216 0.13804 0.0
O13 O 0.24307 0.19484 0.10119 0.0
O14 O 0.37166 0.16464 0.09868 0.0
O15 O 0.29797 0.20511 0.08712 0.0
C16 C 0.27458 0.17329 0.17412 0.0
C17 C 0.30605 0.09753 0.05343 0.0
C18 C 0.32699 0.04684 0.14739 0.0
C19 C 0.20541 0.08831 0.1173 0.0
C20 C 0.38917 0.1642 0.11856 0.0
C21 C 0.2655 0.21495 0.09035 0.0
O22 O 0.30442 0.15646 0.17253 0.0
O23 O 0.5707 0.49835 0.41349 0.0
Zn24 Zn 0.58546 0.49522 0.3792 0.0
O25 O 0.60697 0.53956 0.36843 0.0
Zn26 Zn 0.65573 0.52844 0.35633 0.0
Zn27 Zn 0.60816 0.5741 0.3954 0.0
Zn28 Zn 0.57616 0.55879 0.34305 0.0
O29 O 0.65941 0.54214 0.32027 0.0
O30 O 0.60335 0.55993 0.31193 0.0
O31 O 0.61794 0.45385 0.37649 0.0
O32 O 0.6676 0.47493 0.35942 0.0
O33 O 0.6929 0.5518 0.37846 0.0
O34 O 0.65946 0.58218 0.40521 0.0
O35 O 0.58367 0.62128 0.38699 0.0
O36 O 0.54094 0.48301 0.36141 0.0
O37 O 0.55918 0.60794 0.35123 0.0
O38 O 0.53026 0.5306 0.33833 0.0
C39 C 0.56977 0.52303 0.42943 0.0
C40 C 0.63553 0.55332 0.30522 0.0
C41 C 0.68996 0.57158 0.39734 0.0
C42 C 0.64947 0.44901 0.36833 0.0
C43 C 0.56397 0.62952 0.36885 0.0
C44 C 0.52107 0.50005 0.34661 0.0
O45 O 0.58226 0.55431 0.42508 0.0
O46 O 0.23775 0.80737 0.65398 0.0
Zn47 Zn 0.23838 0.82948 0.62117 0.0
O48 O 0.19338 0.85333 0.6145 0.0
Zn49 Zn 0.20374 0.90225 0.60289 0.0
Zn50 Zn 0.163 0.85322 0.64326 0.0
Zn51 Zn 0.17037 0.82438 0.59002 0.0
O52 O 0.19156 0.90585 0.56644 0.0
O53 O 0.17225 0.85024 0.55858 0.0
O54 O 0.27893 0.86326 0.62153 0.0
O55 O 0.25664 0.91488 0.60807 0.0
O56 O 0.17882 0.9388 0.62468 0.0
O57 O 0.15601 0.90421 0.65403 0.0
O58 O 0.11458 0.83023 0.63686 0.0
O59 O 0.24945 0.78948 0.59842 0.0
O60 O 0.11937 0.81436 0.59813 0.0
O61 O 0.19418 0.77568 0.58656 0.0
C62 C 0.21599 0.80796 0.67176 0.0
C63 C 0.18021 0.88188 0.55152 0.0
C64 C 0.16278 0.93509 0.64505 0.0
C65 C 0.28285 0.89621 0.61618 0.0
C66 C 0.10121 0.81655 0.61763 0.0
C67 C 0.22732 0.7676 0.58886 0.0
O68 O 0.18626 0.82508 0.67056 0.0
O69 O 0.89495 0.47973 0.92694 0.0
Zn70 Zn 0.8892 0.48599 0.89167 0.0
O71 O 0.87369 0.44269 0.87544 0.0
Zn72 Zn 0.82628 0.45153 0.86088 0.0
Zn73 Zn 0.87278 0.40484 0.89994 0.0
Zn74 Zn 0.9079 0.42997 0.85033 0.0
O75 O 0.82642 0.44098 0.82435 0.0
O76 O 0.8852 0.43472 0.81758 0.0
O77 O 0.8553 0.52635 0.88758 0.0
O78 O 0.81191 0.50394 0.86428 0.0
O79 O 0.78851 0.42524 0.88065 0.0
O80 O 0.82117 0.39386 0.90737 0.0
O81 O 0.89975 0.36081 0.88891 0.0
O82 O 0.93821 0.49997 0.88103 0.0
O83 O 0.92485 0.37915 0.85447 0.0
O84 O 0.95253 0.46072 0.85214 0.0
C85 C 0.9007 0.45233 0.94008 0.0
C86 C 0.85298 0.43741 0.80975 0.0
C87 C 0.79087 0.40407 0.89885 0.0
C88 C 0.82574 0.52983 0.87624 0.0
C89 C 0.91991 0.35511 0.87058 0.0
C90 C 0.96047 0.48731 0.86572 0.0
O91 O 0.89634 0.42065 0.93171 0.0
O92 O 0.73182 0.84769 0.82256 0.0
Zn93 Zn 0.73678 0.85108 0.85811 0.0
O94 O 0.6944 0.87035 0.87335 0.0
Zn95 Zn 0.70658 0.91751 0.88734 0.0
Zn96 Zn 0.65696 0.87303 0.84849 0.0
Zn97 Zn 0.67911 0.8373 0.89843 0.0
O98 O 0.69735 0.9178 0.92424 0.0
O99 O 0.68482 0.86002 0.93082 0.0
O100 O 0.78014 0.88012 0.86403 0.0
O101 O 0.75956 0.92939 0.88205 0.0
O102 O 0.68076 0.95633 0.86812 0.0
O103 O 0.64775 0.92509 0.84151 0.0
O104 O 0.61155 0.84753 0.8587 0.0
O105 O 0.74552 0.80073 0.8679 0.0
O106 O 0.62744 0.82407 0.89423 0.0
O107 O 0.70616 0.79014 0.89729 0.0
C108 C 0.70461 0.84403 0.80883 0.0
C109 C 0.69066 0.8917 0.93874 0.0
C110 C 0.65905 0.95489 0.85013 0.0
C111 C 0.78529 0.91134 0.87272 0.0
C112 C 0.60425 0.82902 0.87753 0.0
C113 C 0.73142 0.77973 0.88334 0.0
O114 O 0.67288 0.84984 0.81672 0.0
O115 O 0.4243 0.48618 0.59466 0.0
Zn116 Zn 0.40013 0.48784 0.62681 0.0
O117 O 0.37672 0.44271 0.63352 0.0
Zn118 Zn 0.32757 0.45278 0.64469 0.0
Zn119 Zn 0.3776 0.41201 0.60503 0.0
Zn120 Zn 0.40563 0.42036 0.65827 0.0
O121 O 0.32428 0.44349 0.68152 0.0
O122 O 0.37981 0.42399 0.68972 0.0
O123 O 0.36537 0.52775 0.62465 0.0
O124 O 0.31395 0.50489 0.63791 0.0
O125 O 0.29158 0.426 0.62342 0.0
O126 O 0.32687 0.4044 0.59392 0.0
O127 O 0.40084 0.364 0.61192 0.0
O128 O 0.43877 0.50009 0.6505 0.0
O129 O 0.41637 0.36908 0.65071 0.0
O130 O 0.45395 0.4448 0.66141 0.0
C131 C 0.42424 0.46408 0.57704 0.0
C132 C 0.34834 0.43297 0.69668 0.0
C133 C 0.2958 0.41017 0.60298 0.0
C134 C 0.33207 0.53104 0.62931 0.0
C135 C 0.41459 0.35084 0.63118 0.0
C136 C 0.46131 0.47812 0.65958 0.0
O137 O 0.40663 0.43468 0.57806 0.0
O138 O 0.74703 0.15609 0.33261 0.0
Zn139 Zn 0.74484 0.13619 0.36569 0.0
O140 O 0.79144 0.11895 0.37597 0.0
Zn141 Zn 0.7858 0.06984 0.38835 0.0
Zn142 Zn 0.8251 0.12206 0.34898 0.0
Zn143 Zn 0.80792 0.1508 0.40115 0.0
O144 O 0.79669 0.06801 0.4249 0.0
O145 O 0.80416 0.12626 0.43309 0.0
O146 O 0.70829 0.09789 0.36483 0.0
O147 O 0.7343 0.0525 0.38437 0.0
O148 O 0.81394 0.03537 0.3667 0.0
O149 O 0.83631 0.07178 0.33813 0.0
O150 O 0.8708 0.14778 0.35846 0.0
O151 O 0.72732 0.17782 0.38537 0.0
O152 O 0.85868 0.16599 0.39597 0.0
O153 O 0.77875 0.19639 0.40154 0.0
C154 C 0.77173 0.16142 0.31716 0.0
C155 C 0.80105 0.09375 0.44012 0.0
C156 C 0.83096 0.04041 0.34681 0.0
C157 C 0.70738 0.06624 0.3734 0.0
C158 C 0.87992 0.16397 0.37792 0.0
C159 C 0.74596 0.20194 0.39592 0.0
O160 O 0.80386 0.15059 0.32089 0.0
O161 O 0.06554 0.49025 0.09671 0.0
Zn162 Zn 0.09164 0.4915 0.12815 0.0
O163 O 0.11372 0.53778 0.13285 0.0
Zn164 Zn 0.16341 0.53009 0.14348 0.0
Zn165 Zn 0.11003 0.56656 0.1037 0.0
Zn166 Zn 0.08488 0.56026 0.15735 0.0
O167 O 0.16693 0.54 0.18027 0.0
O168 O 0.11064 0.55682 0.18886 0.0
O169 O 0.12763 0.45285 0.12607 0.0
O170 O 0.17915 0.47846 0.1367 0.0
O171 O 0.19714 0.55857 0.1217 0.0
O172 O 0.16014 0.57544 0.09165 0.0
O173 O 0.08632 0.61448 0.11035 0.0
O174 O 0.05461 0.47978 0.15305 0.0
O175 O 0.07445 0.61157 0.14979 0.0
O176 O 0.03657 0.53567 0.15933 0.0
C177 C 0.06308 0.51127 0.07861 0.0
C178 C 0.14264 0.54933 0.1956 0.0
C179 C 0.19164 0.5725 0.10078 0.0
C180 C 0.16141 0.45115 0.12941 0.0
C181 C 0.07447 0.62874 0.12982 0.0
C182 C 0.03016 0.50204 0.15907 0.0
O183 O 0.07936 0.54149 0.07825 0.0
O184 O 0.74175 0.67753 0.65339 0.0
Zn185 Zn 0.74188 0.64978 0.62252 0.0
O186 O 0.78775 0.62653 0.6179 0.0
Zn187 Zn 0.77921 0.57633 0.60863 0.0
Zn188 Zn 0.81725 0.63111 0.64676 0.0
Zn189 Zn 0.81035 0.65358 0.5925 0.0
O190 O 0.78895 0.57039 0.57191 0.0
O191 O 0.807 0.62564 0.56185 0.0
O192 O 0.70259 0.61463 0.62551 0.0
O193 O 0.72718 0.56228 0.61554 0.0
O194 O 0.8072 0.54321 0.63145 0.0
O195 O 0.82622 0.58174 0.65997 0.0
O196 O 0.86505 0.65434 0.6395 0.0
O197 O 0.73005 0.68568 0.59682 0.0
O198 O 0.86154 0.6648 0.59991 0.0
O199 O 0.78593 0.70174 0.58839 0.0
C200 C 0.76325 0.68014 0.67128 0.0
C201 C 0.79885 0.59348 0.55595 0.0
C202 C 0.82225 0.54978 0.6519 0.0
C203 C 0.70023 0.58083 0.62259 0.0
C204 C 0.87895 0.66566 0.61981 0.0
C205 C 0.75238 0.70869 0.58884 0.0
O206 O 0.79305 0.66302 0.67173 0.0
O207 O 0.06406 0.00066 0.90184 0.0
Zn208 Zn 0.08873 -0.00078 0.86991 0.0
O209 O 0.11282 0.0441 0.86375 0.0
Zn210 Zn 0.16212 0.03347 0.8533 0.0
Zn211 Zn 0.11121 0.0747 0.89222 0.0
Zn212 Zn 0.08471 0.06666 0.83867 0.0
O213 O 0.16641 0.04291 0.81659 0.0
O214 O 0.11077 0.06116 0.80735 0.0
O215 O 0.12253 0.95863 0.87181 0.0
O216 O 0.17477 0.98097 0.85969 0.0
O217 O 0.19776 0.05945 0.8753 0.0
O218 O 0.16167 0.0815 0.90419 0.0
O219 O 0.08898 0.12299 0.88468 0.0
O220 O 0.05054 0.9878 0.84581 0.0
O221 O 0.07569 0.11863 0.84546 0.0
O222 O 0.03547 0.04361 0.83626 0.0
C223 C 0.06347 0.02271 0.91948 0.0
C224 C 0.1426 0.05241 0.80096 0.0
C225 C 0.19302 0.07519 0.89572 0.0
C226 C 0.15587 0.95484 0.86751 0.0
C227 C 0.07682 0.13667 0.8651 0.0
C228 C 0.02774 0.01033 0.83772 0.0
O229 O 0.08094 0.05222 0.91873 0.0
O230 O 0.73826 0.34271 0.17211 0.0
Zn231 Zn 0.73982 0.34506 0.1363 0.0
O232 O 0.69639 0.36436 0.12252 0.0
Zn233 Zn 0.70718 0.41212 0.10927 0.0
Zn234 Zn 0.66079 0.36545 0.14838 0.0
Zn235 Zn 0.67996 0.3318 0.09743 0.0
O236 O 0.69574 0.41335 0.07262 0.0
O237 O 0.68353 0.3556 0.06538 0.0
O238 O 0.7829 0.37333 0.12824 0.0
O239 O 0.76044 0.42407 0.11336 0.0
O240 O 0.68173 0.44989 0.12983 0.0
O241 O 0.65131 0.41703 0.15688 0.0
O242 O 0.6149 0.34004 0.13899 0.0
O243 O 0.7468 0.29424 0.12676 0.0
O244 O 0.6287 0.31811 0.10265 0.0
O245 O 0.70697 0.28453 0.09742 0.0
C246 C 0.71179 0.33585 0.18587 0.0
C247 C 0.68843 0.38763 0.05788 0.0
C248 C 0.66126 0.44737 0.14839 0.0
C249 C 0.78712 0.40523 0.12057 0.0
C250 C 0.60654 0.32219 0.12003 0.0
C251 C 0.73216 0.27358 0.11127 0.0
O252 O 0.6795 0.34012 0.17853 0.0
O253 O 0.39008 0.97563 0.42124 0.0
Zn254 Zn 0.38664 0.98104 0.3858 0.0
O255 O 0.36706 0.9388 0.37051 0.0
Zn256 Zn 0.31991 0.95124 0.35661 0.0
Zn257 Zn 0.36345 0.90123 0.39522 0.0
Zn258 Zn 0.40034 0.92357 0.34537 0.0
O259 O 0.3196 0.94215 0.31984 0.0
O260 O 0.37693 0.92767 0.31285 0.0
O261 O 0.35732 0.02447 0.38039 0.0
O262 O 0.30814 0.00407 0.36216 0.0
O263 O 0.28064 0.92584 0.37548 0.0
O264 O 0.31128 0.89245 0.40211 0.0
O265 O 0.38862 0.8556 0.38491 0.0
O266 O 0.43706 0.98986 0.37592 0.0
O267 O 0.41631 0.87296 0.35109 0.0
O268 O 0.44666 0.95176 0.3456 0.0
C269 C 0.39272 0.94852 0.4351 0.0
C270 C 0.34522 0.93438 0.30517 0.0
C271 C 0.28164 0.90414 0.39343 0.0
C272 C 0.32604 0.02966 0.37174 0.0
C273 C 0.40983 0.84937 0.36723 0.0
C274 C 0.45753 0.97646 0.35983 0.0
O275 O 0.38638 0.91684 0.42727 0.0
O276 O 0.23152 0.30986 0.34204 0.0
Zn277 Zn 0.23434 0.33221 0.37469 0.0
O278 O 0.19026 0.35679 0.38239 0.0
Zn279 Zn 0.20231 0.4053 0.39405 0.0
Zn280 Zn 0.15883 0.35758 0.35415 0.0
Zn281 Zn 0.16794 0.32795 0.4072 0.0
O282 O 0.19303 0.40839 0.43083 0.0
O283 O 0.17296 0.35314 0.43894 0.0
O284 O 0.27544 0.3651 0.37333 0.0
O285 O 0.25507 0.41698 0.38768 0.0
O286 O 0.17683 0.44265 0.37324 0.0
O287 O 0.15209 0.40886 0.34405 0.0
O288 O 0.11066 0.33502 0.3614 0.0
O289 O 0.24617 0.29254 0.39735 0.0
O290 O 0.11618 0.31884 0.40004 0.0
O291 O 0.19114 0.27871 0.40951 0.0
C292 C 0.20935 0.3113 0.32447 0.0
C293 C 0.1825 0.38443 0.44596 0.0
C294 C 0.15972 0.43947 0.3532 0.0
C295 C 0.28037 0.39787 0.37881 0.0
C296 C 0.09761 0.32132 0.38067 0.0
C297 C 0.22419 0.27054 0.40683 0.0
O298 O 0.18029 0.32947 0.32605 0.0
O299 O 0.9131 0.9835 0.08128 0.0
Zn300 Zn 0.89561 0.98616 0.11505 0.0
O301 O 0.87821 0.94005 0.12595 0.0
Zn302 Zn 0.82977 0.94682 0.13958 0.0
Zn303 Zn 0.87877 0.90636 0.0987 0.0
Zn304 Zn 0.91108 0.92271 0.1504 0.0
O305 O 0.82908 0.93433 0.1759 0.0
O306 O 0.88729 0.92382 0.18274 0.0
O307 O 0.85776 0.02348 0.11533 0.0
O308 O 0.81365 -0.00116 0.13679 0.0
O309 O 0.79327 0.92091 0.11817 0.0
O310 O 0.82776 0.89657 0.08926 0.0
O311 O 0.90466 0.86014 0.10698 0.0
O312 O 0.9384 0.00295 0.13372 0.0
O313 O 0.9267 0.87249 0.14355 0.0
O314 O 0.95624 0.95256 0.15164 0.0
C315 C 0.91579 0.95901 0.06531 0.0
C316 C 0.85517 0.92756 0.19045 0.0
C317 C 0.7969 0.90358 0.09824 0.0
C318 C 0.82695 0.02529 0.12518 0.0
C319 C 0.92284 0.85114 0.12566 0.0
C320 C 0.96193 0.98502 0.14538 0.0
O321 O 0.90425 0.92728 0.06929 0.0
O322 O 0.25364 0.66928 0.83949 0.0
Zn323 Zn 0.25144 0.64974 0.87277 0.0
O324 O 0.29705 0.62934 0.88229 0.0
Zn325 Zn 0.28823 0.58094 0.89515 0.0
Zn326 Zn 0.32944 0.62901 0.85444 0.0
Zn327 Zn 0.31698 0.66028 0.90706 0.0
O328 O 0.30136 0.57837 0.93119 0.0
O329 O 0.31447 0.63566 0.9392 0.0
O330 O 0.21236 0.61389 0.87243 0.0
O331 O 0.23542 0.56753 0.89256 0.0
O332 O 0.31224 0.54396 0.87328 0.0
O333 O 0.33775 0.57776 0.84453 0.0
O334 O 0.37649 0.65366 0.86214 0.0
O335 O 0.23715 0.6915 0.89325 0.0
O336 O 0.36791 0.67326 0.89983 0.0
O337 O 0.28982 0.70724 0.90902 0.0
C338 C 0.27708 0.67008 0.82275 0.0
C339 C 0.30915 0.60345 0.94626 0.0
C340 C 0.32967 0.54713 0.85341 0.0
C341 C 0.20931 0.58277 0.88161 0.0
C342 C 0.38764 0.67001 0.88107 0.0
C343 C 0.25699 0.71415 0.90424 0.0
O344 O 0.30792 0.65557 0.82559 0.0
O345 O 0.5537 0.98927 0.59284 0.0
Zn346 Zn 0.5803 0.99007 0.62414 0.0
O347 O 0.60316 0.036 0.62887 0.0
Zn348 Zn 0.65309 0.02748 0.63899 0.0
Zn349 Zn 0.59934 0.0652 0.59975 0.0
Zn350 Zn 0.5753 0.05891 0.65378 0.0
O351 O 0.65866 0.04028 0.67527 0.0
O352 O 0.60285 0.05771 0.68458 0.0
O353 O 0.61555 0.95072 0.62218 0.0
O354 O 0.66735 0.97497 0.63363 0.0
O355 O 0.68676 0.05356 0.61587 0.0
O356 O 0.64921 0.0726 0.58676 0.0
O357 O 0.57657 0.11372 0.6065 0.0
O358 O 0.5436 0.97862 0.64929 0.0
O359 O 0.56404 0.10966 0.64577 0.0
O360 O 0.52725 0.03442 0.65779 0.0
C361 C 0.55105 0.01068 0.57495 0.0
C362 C 0.63522 0.05093 0.69079 0.0
C363 C 0.68096 0.06794 0.59513 0.0
C364 C 0.64909 0.94805 0.62623 0.0
C365 C 0.56439 0.12741 0.62606 0.0
C366 C 0.52036 0.00091 0.65713 0.0
O367 O 0.56762 0.04074 0.57469 0.0
H368 H 0.31391 0.17874 0.21628 0.0
H369 H 0.16943 0.30594 0.28244 0.0
H370 H 0.21364 0.21243 0.18331 0.0
H371 H 0.26914 0.27059 0.3154 0.0
H372 H 0.185 0.27184 0.24584 0.0
H373 H 0.29771 0.21224 0.25291 0.0
C374 C 0.28849 0.19311 0.21674 0.0
C375 C 0.26515 0.19277 0.19667 0.0
C376 C 0.20343 0.27159 0.26111 0.0
C377 C 0.24645 0.23122 0.2385 0.0
C378 C 0.19455 0.29107 0.282 0.0
C379 C 0.21798 0.29117 0.30203 0.0
C380 C 0.23594 0.25213 0.26029 0.0
C381 C 0.2502 0.27136 0.30043 0.0
C382 C 0.27924 0.21226 0.23766 0.0
C383 C 0.23252 0.21191 0.19832 0.0
N384 N 0.2582 0.25269 0.27994 0.0
N385 N 0.22418 0.23038 0.21885 0.0
H386 H 0.43812 0.42095 0.53769 0.0
H387 H 0.55407 0.56927 0.46723 0.0
H388 H 0.46 0.52669 0.56701 0.0
H389 H 0.54389 0.45828 0.44455 0.0
H390 H 0.51922 0.55508 0.50381 0.0
H391 H 0.47558 0.43533 0.50264 0.0
C392 C 0.45069 0.44722 0.53673 0.0
C393 C 0.4459 0.47262 0.55532 0.0
C394 C 0.52486 0.53387 0.49083 0.0
C395 C 0.48894 0.48926 0.5153 0.0
C396 C 0.54481 0.54194 0.47001 0.0
C397 C 0.55171 0.51503 0.4527 0.0
C398 C 0.51171 0.49874 0.49423 0.0
C399 C 0.53904 0.48003 0.45725 0.0
C400 C 0.47222 0.45539 0.51677 0.0
C401 C 0.46298 0.50623 0.55313 0.0
N402 N 0.51952 0.473 0.47746 0.0
N403 N 0.48371 0.5136 0.53345 0.0
H404 H 0.27825 0.77087 0.681 0.0
H405 H 0.21375 0.7035 0.81153 0.0
H406 H 0.17576 0.79886 0.71311 0.0
H407 H 0.3194 0.68075 0.78229 0.0
H408 H 0.19906 0.73688 0.77494 0.0
H409 H 0.29341 0.73664 0.71735 0.0
C410 C 0.2589 0.76989 0.6957 0.0
C411 C 0.2256 0.7878 0.69397 0.0
C412 C 0.22546 0.7246 0.77646 0.0
C413 C 0.24291 0.74849 0.73565 0.0
C414 C 0.23393 0.70541 0.79738 0.0
C415 C 0.26798 0.68928 0.80005 0.0
C416 C 0.25113 0.72777 0.75794 0.0
C417 C 0.29286 0.69274 0.78103 0.0
C418 C 0.26764 0.7503 0.71646 0.0
C419 C 0.20171 0.78553 0.71363 0.0
N420 N 0.28393 0.71168 0.76075 0.0
N421 N 0.21083 0.76618 0.73364 0.0
H422 H 0.90446 0.51549 0.96503 0.0
H423 H 0.03758 0.4441 0.06789 0.0
H424 H 0.93648 0.40378 0.96936 0.0
H425 H 0.03303 0.55469 0.04385 0.0
H426 H -0.00609 0.42794 0.03637 0.0
H427 H 0.94291 0.52894 -0.00034 0.0
C428 C 0.91919 0.49361 0.97348 0.0
C429 C 0.91767 0.45848 0.96402 0.0
C430 C 0.0026 0.45567 0.03799 0.0
C431 C 0.96204 0.47396 0.00365 0.0
C432 C 0.02752 0.46497 0.05591 0.0
C433 C 0.039 0.50084 0.05845 0.0
C434 C 0.98868 0.48253 0.02276 0.0
C435 C 0.02512 0.52671 0.04244 0.0
C436 C 0.94134 0.50143 0.99316 0.0
C437 C 0.93699 0.43123 0.97599 0.0
N438 N 0.00048 0.51707 0.02537 0.0
N439 N 0.95873 0.43961 0.99512 0.0
H440 H 0.65484 0.81333 0.77793 0.0
H441 H 0.80785 0.70754 0.70635 0.0
H442 H 0.76851 0.83592 0.78527 0.0
H443 H 0.69762 0.71043 0.68107 0.0
H444 H 0.79254 0.75208 0.73735 0.0
H445 H 0.66847 0.77482 0.74284 0.0
C446 C 0.6825 0.81083 0.77189 0.0
C447 C 0.71061 0.82743 0.78477 0.0
C448 C 0.77172 0.74302 0.72496 0.0
C449 C 0.72636 0.78299 0.74522 0.0
C450 C 0.78039 0.71735 0.70742 0.0
C451 C 0.75399 0.70524 0.69113 0.0
C452 C 0.73632 0.75636 0.72641 0.0
C453 C 0.71885 0.71911 0.69325 0.0
C454 C 0.69028 0.78868 0.75199 0.0
C455 C 0.74599 0.8232 0.77616 0.0
N456 N 0.71097 0.74384 0.71066 0.0
N457 N 0.75289 0.801 0.75717 0.0
H458 H 0.7766 0.32849 0.20884 0.0
H459 H 0.70524 0.17595 0.29868 0.0
H460 H 0.66479 0.29729 0.21411 0.0
H461 H 0.81796 0.20034 0.2885 0.0
H462 H 0.68974 0.22159 0.26872 0.0
H463 H 0.79156 0.2852 0.24051 0.0
C464 C 0.75505 0.31297 0.21696 0.0
C465 C 0.71939 0.31626 0.20862 0.0
C466 C 0.71788 0.21686 0.2729 0.0
C467 C 0.73654 0.26618 0.24461 0.0
C468 C 0.7268 0.19065 0.28991 0.0
C469 C 0.76299 0.18443 0.29615 0.0
C470 C 0.74529 0.23722 0.26209 0.0
C471 C 0.78975 0.20415 0.28414 0.0
C472 C 0.76371 0.28803 0.2349 0.0
C473 C 0.69262 0.29563 0.21994 0.0
N474 N 0.78033 0.22992 0.26778 0.0
N475 N 0.70182 0.27115 0.2372 0.0
H476 H 0.93254 0.91413 0.027 0.0
H477 H 0.0488 0.06502 0.95918 0.0
H478 H 0.94244 0.02423 0.05166 0.0
H479 H 0.02769 0.95988 0.92862 0.0
H480 H 0.01108 0.04956 0.99394 0.0
H481 H 0.96795 0.92964 0.99095 0.0
C482 C 0.9419 0.94155 0.02478 0.0
C483 C 0.93464 0.96783 0.04245 0.0
C484 C 0.01467 0.02989 0.9796 0.0
C485 C 0.9753 0.98564 0.0015 0.0
C486 C 0.03633 0.03868 0.9598 0.0
C487 C 0.04144 0.01375 0.94096 0.0
C488 C -0.00184 -0.00413 0.98064 0.0
C489 C 0.02448 0.98001 0.94271 0.0
C490 C 0.96215 0.95037 0.00425 0.0
C491 C 0.94748 0.00296 0.03862 0.0
N492 N 0.00365 0.97204 0.96221 0.0
N493 N 0.96729 0.01075 0.01866 0.0
H494 H 0.4242 0.89926 0.46604 0.0
H495 H 0.52313 0.05462 0.53973 0.0
H496 H 0.39795 0.01217 0.45922 0.0
H497 H 0.52297 0.94434 0.56461 0.0
H498 H 0.47988 0.03819 0.50813 0.0
H499 H 0.46131 0.91365 0.50174 0.0
C500 C 0.42559 0.92688 0.47233 0.0
C501 C 0.40841 0.95461 0.45943 0.0
C502 C 0.48925 0.0176 0.52056 0.0
C503 C 0.45124 0.97125 0.49964 0.0
C504 C 0.51419 0.02692 0.53845 0.0
C505 C 0.52668 0.00084 0.5548 0.0
C506 C 0.47705 0.98186 0.51882 0.0
C507 C 0.51395 0.96535 0.5524 0.0
C508 C 0.44695 0.93511 0.49256 0.0
C509 C 0.41121 0.98997 0.46835 0.0
N510 N 0.48993 0.95683 0.53466 0.0
N511 N 0.43264 -0.00268 0.48765 0.0
H512 H 0.24531 0.02653 0.90689 0.0
H513 H 0.28798 0.03387 0.03037 0.0
H514 H 0.20809 0.13372 0.92371 0.0
H515 H 0.31595 0.14476 0.01609 0.0
H516 H 0.27176 0.02686 0.98735 0.0
H517 H 0.28402 0.02818 0.94323 0.0
C518 C 0.24636 0.0509 0.91773 0.0
C519 C 0.22363 0.08011 0.91241 0.0
C520 C 0.28248 0.05236 0.99359 0.0
C521 C 0.26704 0.08189 0.95382 0.0
C522 C 0.29153 0.05644 0.01816 0.0
C523 C 0.30292 0.09005 0.027 0.0
C524 C 0.28429 0.08226 0.97799 0.0
C525 C 0.30698 0.11839 0.01026 0.0
C526 C 0.26795 0.05156 0.93859 0.0
C527 C 0.22532 0.11074 0.92724 0.0
N528 N 0.29678 0.1141 0.98675 0.0
N529 N 0.24658 0.11081 0.94734 0.0
H530 H 0.59188 0.57846 0.26893 0.0
H531 H 0.59843 0.46851 0.16945 0.0
H532 H 0.69602 0.52936 0.28089 0.0
H533 H 0.71107 0.49539 0.16416 0.0
H534 H 0.59321 0.50839 0.20466 0.0
H535 H 0.59755 0.56594 0.22559 0.0
C536 C 0.61629 0.56562 0.26245 0.0
C537 C 0.6431 0.55395 0.27876 0.0
C538 C 0.61877 0.50674 0.19525 0.0
C539 C 0.64944 0.53951 0.22912 0.0
C540 C 0.62168 0.48402 0.17515 0.0
C541 C 0.65508 0.4791 0.16383 0.0
C542 C 0.64978 0.52362 0.20451 0.0
C543 C 0.68472 0.49902 0.17224 0.0
C544 C 0.61934 0.55842 0.2377 0.0
C545 C 0.67441 0.53823 0.2691 0.0
N546 N 0.68167 0.5196 0.19261 0.0
N547 N 0.67649 0.53095 0.24488 0.0
H548 H 0.16034 0.83527 0.51553 0.0
H549 H 0.23536 0.95645 0.40785 0.0
H550 H 0.19951 0.94361 0.52666 0.0
H551 H 0.25749 0.843 0.41541 0.0
H552 H 0.19758 0.9539 0.4444 0.0
H553 H 0.17146 0.84149 0.47216 0.0
C554 C 0.17061 0.86071 0.50888 0.0
C555 C 0.17988 0.88872 0.52497 0.0
C556 C 0.20971 0.92939 0.43749 0.0
C557 C 0.19198 0.8959 0.47511 0.0
C558 C 0.23082 0.93065 0.41651 0.0
C559 C 0.24948 0.89981 0.40871 0.0
C560 C 0.2067 0.8969 0.45024 0.0
C561 C 0.24346 0.86728 0.42088 0.0
C562 C 0.17684 0.86412 0.48407 0.0
C563 C 0.19251 0.92114 0.51503 0.0
N564 N 0.22278 0.86671 0.44122 0.0
N565 N 0.19867 0.9237 0.49069 0.0
H566 H 0.88494 0.53826 0.67614 0.0
H567 H 0.78927 0.44614 0.78436 0.0
H568 H 0.77749 0.49647 0.66709 0.0
H569 H 0.90436 0.43696 0.77424 0.0
H570 H 0.78319 0.46266 0.74138 0.0
H571 H 0.89297 0.4996 0.71172 0.0
C572 C 0.86348 0.52004 0.68127 0.0
C573 C 0.8307 0.52014 0.66866 0.0
C574 C 0.80964 0.45626 0.74854 0.0
C575 C 0.83891 0.47723 0.70989 0.0
C576 C 0.81315 0.44692 0.77308 0.0
C577 C 0.84744 0.44077 0.78312 0.0
C578 C 0.84066 0.46006 0.73415 0.0
C579 C 0.8774 0.44198 0.7675 0.0
C580 C 0.86795 0.49811 0.7016 0.0
C581 C 0.80336 0.49664 0.67624 0.0
N582 N 0.87339 0.45219 0.74398 0.0
N583 N 0.80772 0.4767 0.69678 0.0
H584 H 0.74401 0.95222 0.08838 0.0
H585 H 0.70513 0.95368 0.96492 0.0
H586 H 0.78111 0.8456 0.06985 0.0
H587 H 0.68201 0.84042 0.97368 0.0
H588 H 0.71856 0.9573 0.00853 0.0
H589 H 0.70639 0.95247 0.05161 0.0
C590 C 0.74308 0.9283 0.0771 0.0
C591 C 0.76569 0.89883 0.08202 0.0
C592 C 0.7095 0.93195 0.00096 0.0
C593 C 0.72371 0.89934 0.03993 0.0
C594 C 0.70211 0.92981 0.97603 0.0
C595 C 0.69296 0.89661 0.96547 0.0
C596 C 0.70812 0.90057 0.01524 0.0
C597 C 0.68943 0.86655 0.98084 0.0
C598 C 0.72217 0.92877 0.05593 0.0
C599 C 0.76406 0.86881 0.06662 0.0
N600 N 0.69783 0.86908 0.00477 0.0
N601 N 0.74362 0.86992 0.04615 0.0
H602 H 0.27778 0.4997 0.84014 0.0
H603 H 0.39595 0.41746 0.73307 0.0
H604 H 0.38959 0.52588 0.82867 0.0
H605 H 0.28704 0.45499 0.72119 0.0
H606 H 0.39089 0.43405 0.77573 0.0
H607 H 0.2795 0.46046 0.8041 0.0
C608 C 0.30308 0.49591 0.83065 0.0
C609 C 0.33372 0.51576 0.83734 0.0
C610 C 0.3679 0.43789 0.76385 0.0
C611 C 0.33573 0.4713 0.79649 0.0
C612 C 0.37062 0.42846 0.73944 0.0
C613 C 0.34208 0.4356 0.72326 0.0
C614 C 0.33626 0.45401 0.77235 0.0
C615 C 0.30987 0.44947 0.73288 0.0
C616 C 0.30386 0.47395 0.81001 0.0
C617 C 0.36555 0.51079 0.82412 0.0
N618 N 0.30794 0.45866 0.75683 0.0
N619 N 0.36573 0.4891 0.80423 0.0
H620 H 0.79002 0.02941 0.46417 0.0
H621 H 0.73801 0.0236 0.58614 0.0
H622 H 0.80295 0.14361 0.47656 0.0
H623 H 0.69117 0.12535 0.56534 0.0
H624 H 0.77884 0.0273 0.55102 0.0
H625 H 0.77158 0.02256 0.50671 0.0
C626 C 0.78989 0.05285 0.47591 0.0
C627 C 0.7975 0.0872 0.46659 0.0
C628 C 0.76006 0.04905 0.55448 0.0
C629 C 0.77635 0.07956 0.51507 0.0
C630 C 0.73718 0.04725 0.57462 0.0
C631 C 0.71127 0.07424 0.57847 0.0
C632 C 0.7572 0.07836 0.53851 0.0
C633 C 0.71076 0.10401 0.56289 0.0
C634 C 0.77955 0.04888 0.50022 0.0
C635 C 0.79687 0.11663 0.48273 0.0
N636 N 0.73336 0.10526 0.54353 0.0
N637 N 0.78553 0.11226 0.50596 0.0
H638 H 0.09886 0.46176 0.33008 0.0
H639 H 0.20455 0.52783 0.21961 0.0
H640 H 0.2118 0.48556 0.33857 0.0
H641 H 0.09609 0.5659 0.2323 0.0
H642 H 0.20954 0.51339 0.26303 0.0
H643 H 0.09694 0.50122 0.29447 0.0
C644 C 0.1229 0.4764 0.3249 0.0
C645 C 0.15538 0.4709 0.3373 0.0
C646 C 0.18502 0.5257 0.25628 0.0
C647 C 0.15398 0.51428 0.29602 0.0
C648 C 0.18212 0.53387 0.23152 0.0
C649 C 0.1496 0.54736 0.22212 0.0
C650 C 0.15499 0.53048 0.27151 0.0
C651 C 0.12148 0.55484 0.23853 0.0
C652 C 0.12191 0.49871 0.30455 0.0
C653 C 0.18612 0.48969 0.32961 0.0
N654 N 0.12452 0.54552 0.26226 0.0
N655 N 0.18496 0.50983 0.30898 0.0
H656 H 0.7753 0.53109 0.53342 0.0
H657 H 0.71311 0.63279 0.41969 0.0
H658 H 0.81676 0.63735 0.51812 0.0
H659 H 0.73412 0.51891 0.41406 0.0
H660 H 0.7517 0.6353 0.4558 0.0
H661 H 0.76053 0.52431 0.49011 0.0
C662 C 0.78201 0.55264 0.52098 0.0
C663 C 0.79662 0.58511 0.5296 0.0
C664 C 0.74873 0.60994 0.44626 0.0
C665 C 0.77931 0.57771 0.48033 0.0
C666 C 0.72691 0.6086 0.42562 0.0
C667 C 0.72088 0.57573 0.41384 0.0
C668 C 0.7633 0.57791 0.4557 0.0
C669 C 0.73865 0.54488 0.42251 0.0
C670 C 0.77363 0.54872 0.49628 0.0
C671 C 0.80487 0.61206 0.51251 0.0
N672 N 0.75832 0.54648 0.44338 0.0
N673 N 0.79535 0.60809 0.48886 0.0
H674 H 0.20606 0.03375 0.77787 0.0
H675 H 0.21186 0.98736 0.65514 0.0
H676 H 0.09499 0.06197 0.76368 0.0
H677 H 0.10449 0.95184 0.67278 0.0
H678 H 0.21077 0.0274 0.69078 0.0
H679 H 0.21257 0.01667 0.735 0.0
C680 C 0.18334 0.03718 0.7657 0.0
C681 C 0.14981 0.04882 0.77455 0.0
C682 C 0.18723 0.01141 0.68646 0.0
C683 C 0.15703 0.02926 0.7257 0.0
C684 C 0.18757 0.98905 0.66599 0.0
C685 C 0.15816 0.96638 0.66115 0.0
C686 C 0.15702 0.01133 0.70177 0.0
C687 C 0.12763 0.96896 0.67597 0.0
C688 C 0.18714 0.02765 0.74121 0.0
C689 C 0.12129 0.05274 0.75786 0.0
N690 N 0.12788 0.99095 0.6957 0.0
N691 N 0.1253 0.04209 0.73444 0.0
H692 H 0.70502 0.44945 0.03227 0.0
H693 H 0.7701 0.34245 0.92166 0.0
H694 H 0.67337 0.33843 0.02246 0.0
H695 H 0.74254 0.45455 0.91321 0.0
H696 H 0.73184 0.33984 0.95778 0.0
H697 H 0.71653 0.45339 0.98843 0.0
C698 C 0.69982 0.42618 0.02092 0.0
C699 C 0.68901 0.39336 0.03121 0.0
C700 C 0.73322 0.36475 0.9476 0.0
C701 C 0.70244 0.39759 0.9813 0.0
C702 C 0.75484 0.36611 0.92692 0.0
C703 C 0.75924 0.39866 0.91447 0.0
C704 C 0.71714 0.3965 0.95635 0.0
C705 C 0.73947 0.42883 0.92224 0.0
C706 C 0.70626 0.42847 0.9959 0.0
C707 C 0.68243 0.36413 0.01551 0.0
N708 N 0.72009 0.42736 0.94317 0.0
N709 N 0.69002 0.3667 0.99148 0.0
H710 H 0.27962 -0.00721 0.15736 0.0
H711 H 0.28222 0.94738 0.27984 0.0
H712 H 0.38525 0.03261 0.1759 0.0
H713 H 0.39621 0.92916 0.26961 0.0
H714 H 0.27714 0.96305 0.23671 0.0
H715 H 0.28138 0.95373 0.19338 0.0
C716 C 0.3037 -0.00768 0.16852 0.0
C717 C 0.33232 0.01599 0.16381 0.0
C718 C 0.30301 0.95454 0.2438 0.0
C719 C 0.33415 0.97225 0.205 0.0
C720 C 0.30598 0.94585 0.26848 0.0
C721 C 0.33976 0.93739 0.27852 0.0
C722 C 0.33413 0.95523 0.22925 0.0
C723 C 0.36964 0.93585 0.26284 0.0
C724 C 0.3044 0.97053 0.18924 0.0
C725 C 0.36263 0.01481 0.17901 0.0
N726 N 0.36627 0.94554 0.23918 0.0
N727 N 0.36267 -0.00654 0.19902 0.0
H728 H 0.24672 0.46008 0.58887 0.0
H729 H 0.17089 0.33599 0.48241 0.0
H730 H 0.27695 0.34893 0.57898 0.0
H731 H 0.20163 0.44675 0.47035 0.0
H732 H 0.18729 0.34233 0.52506 0.0
H733 H 0.20791 0.45592 0.55267 0.0
C734 C 0.2439 0.4344 0.57969 0.0
C735 C 0.2647 0.40466 0.58688 0.0
C736 C 0.18972 0.36539 0.51313 0.0
C737 C 0.22084 0.39987 0.54582 0.0
C738 C 0.18037 0.36194 0.48874 0.0
C739 C 0.18558 0.39074 0.47253 0.0
C740 C 0.20385 0.398 0.52159 0.0
C741 C 0.19764 0.42371 0.48206 0.0
C742 C 0.2222 0.43222 0.55895 0.0
C743 C 0.26105 0.37229 0.57405 0.0
N744 N 0.20675 0.42636 0.506 0.0
N745 N 0.23962 0.37076 0.55404 0.0
H746 H 0.90398 0.9108 0.22592 0.0
H747 H 0.89326 0.02626 0.32269 0.0
H748 H 0.79444 0.94765 0.21611 0.0
H749 H 0.78499 0.98742 0.33298 0.0
H750 H 0.8997 0.98601 0.28772 0.0
H751 H 0.90026 0.9266 0.26887 0.0
C752 C 0.87887 0.92164 0.23282 0.0
C753 C 0.84976 0.92886 0.21715 0.0
C754 C 0.87498 0.98527 0.29814 0.0
C755 C 0.84564 0.94709 0.26635 0.0
C756 C 0.87137 0.0082 0.31807 0.0
C757 C 0.83879 0.00965 0.33081 0.0
C758 C 0.84535 0.9646 0.29046 0.0
C759 C 0.81077 0.98647 0.32379 0.0
C760 C 0.87693 0.93074 0.25734 0.0
C761 C 0.81774 0.94218 0.22739 0.0
N762 N 0.81429 0.96558 0.30359 0.0
N763 N 0.81669 0.95137 0.25135 0.0
H764 H 0.25021 0.53018 0.09201 0.0
H765 H 0.29999 0.53887 0.97022 0.0
H766 H 0.20111 0.63125 0.07212 0.0
H767 H 0.31156 0.65314 0.98284 0.0
H768 H 0.28305 0.53136 0.01296 0.0
H769 H 0.2913 0.53576 0.05715 0.0
C770 C 0.24899 0.55412 0.08079 0.0
C771 C 0.22232 0.58032 0.08476 0.0
C772 C 0.29044 0.55786 0.00648 0.0
C773 C 0.26851 0.58656 0.04508 0.0
C774 C 0.29989 0.56221 0.98205 0.0
C775 C 0.3067 0.59674 0.97277 0.0
C776 C 0.28724 0.58835 0.0215 0.0
C777 C 0.30618 0.62602 0.98902 0.0
C778 C 0.27202 0.557 0.06079 0.0
C779 C 0.22131 0.61051 0.06956 0.0
N780 N 0.29561 0.62128 0.01239 0.0
N781 N 0.24401 0.61276 0.0503 0.0
H782 H 0.69795 0.03061 0.71429 0.0
H783 H 0.59703 0.97953 0.82946 0.0
H784 H 0.59148 0.07354 0.72758 0.0
H785 H 0.71121 -0.0004 0.83386 0.0
H786 H 0.59404 0.01708 0.79301 0.0
H787 H 0.7052 0.02154 0.75821 0.0
C788 C 0.67645 0.03883 0.72639 0.0
C789 C 0.64374 0.05202 0.71712 0.0
C790 C 0.61957 0.01429 0.8024 0.0
C791 C 0.65171 0.04136 0.76712 0.0
C792 C 0.62116 -0.0069 0.82327 0.0
C793 C 0.65432 0.98676 0.83465 0.0
C794 C 0.6516 0.02786 0.79237 0.0
C795 C 0.68506 0.00426 0.82568 0.0
C796 C 0.68064 0.03376 0.75144 0.0
C797 C 0.61689 0.06248 0.73375 0.0
N798 N 0.68322 0.02314 0.80455 0.0
N799 N 0.62113 0.05613 0.75785 0.0
H800 H 0.42659 0.18685 0.15878 0.0
H801 H 0.57521 0.29041 0.08059 0.0
H802 H 0.43104 0.18502 0.08034 0.0
H803 H 0.56099 0.30647 0.15775 0.0
H804 H 0.52402 0.24946 0.08051 0.0
H805 H 0.47915 0.22652 0.15927 0.0
C806 C 0.43896 0.19427 0.14168 0.0
C807 C 0.42427 0.18277 0.11947 0.0
C808 C 0.53191 0.2621 0.09744 0.0
C809 C 0.48392 0.22852 0.11992 0.0
C810 C 0.56106 0.28564 0.09749 0.0
C811 C 0.57244 0.30185 0.11922 0.0
C812 C 0.51412 0.25445 0.11932 0.0
C813 C 0.55303 0.29468 0.14055 0.0
C814 C 0.46871 0.21722 0.14198 0.0
C815 C 0.44129 0.19342 0.09789 0.0
N816 N 0.52494 0.27125 0.14011 0.0
N817 N 0.47009 0.21583 0.09866 0.0
H818 H 0.58389 0.69706 0.38417 0.0
H819 H 0.38922 0.78182 0.38153 0.0
H820 H 0.4945 0.6364 0.35516 0.0
H821 H 0.47953 0.84197 0.3536 0.0
H822 H 0.42758 0.72763 0.38286 0.0
H823 H 0.54554 0.75145 0.38416 0.0
C824 C 0.55625 0.69527 0.37791 0.0
C825 C 0.54229 0.66259 0.36937 0.0
C826 C 0.43875 0.75282 0.37645 0.0
C827 C 0.49861 0.72353 0.37006 0.0
C828 C 0.41701 0.78351 0.37564 0.0
C829 C 0.43122 0.81605 0.36712 0.0
C830 C 0.47504 0.75528 0.3695 0.0
C831 C 0.46748 0.81713 0.35989 0.0
C832 C 0.53456 0.72607 0.37787 0.0
C833 C 0.5063 0.66135 0.36154 0.0
N834 N 0.48835 0.7872 0.36148 0.0
N835 N 0.48551 0.69137 0.36227 0.0
H836 H 0.91843 0.68649 0.65968 0.0
H837 H 0.05997 0.7959 0.57914 0.0
H838 H 0.91859 0.68879 0.58118 0.0
H839 H 0.06235 0.7956 0.65762 0.0
H840 H 0.00673 0.75792 0.58007 0.0
H841 H 0.97148 0.72558 0.65979 0.0
C842 C 0.92989 0.69476 0.64248 0.0
C843 C 0.91394 0.68448 0.62038 0.0
C844 C 0.01869 0.76628 0.59713 0.0
C845 C 0.97408 0.72958 0.62042 0.0
C846 C 0.04902 0.78816 0.59661 0.0
C847 C 0.06576 0.79874 0.61834 0.0
C848 C 0.00497 0.75466 0.61954 0.0
C849 C 0.05024 0.78808 0.64044 0.0
C850 C 0.95996 0.71732 0.64258 0.0
C851 C 0.92982 0.69616 0.59866 0.0
N852 N 0.02081 0.7663 0.64048 0.0
N853 N 0.95886 0.71821 0.59925 0.0
H854 H 0.9307 0.30515 0.90643 0.0
H855 H 0.05835 0.17944 0.82662 0.0
H856 H 0.95871 0.32932 0.83205 0.0
H857 H 0.05343 0.17408 0.90495 0.0
H858 H 0.01989 0.23283 0.82766 0.0
H859 H 0.97187 0.2538 0.90535 0.0
C860 C 0.94516 0.29943 0.88978 0.0
C861 C 0.94126 0.32159 0.86929 0.0
C862 C 0.02755 0.22018 0.84463 0.0
C863 C 0.98869 0.26316 0.86807 0.0
C864 C 0.04959 0.18979 0.84406 0.0
C865 C 0.05899 0.17219 0.86573 0.0
C866 C 0.01441 0.23277 0.86698 0.0
C867 C 0.04692 0.18682 0.88781 0.0
C868 C 0.96893 0.27034 0.88927 0.0
C869 C 0.96093 0.31301 0.84828 0.0
N870 N 0.02488 0.21605 0.88785 0.0
N871 N 0.98379 0.28445 0.84821 0.0
H872 H 0.57343 0.79884 0.91761 0.0
H873 H 0.4278 0.68829 0.84121 0.0
H874 H 0.55798 0.81241 0.84036 0.0
H875 H 0.4254 0.69751 0.91945 0.0
H876 H 0.47984 0.72863 0.84038 0.0
H877 H 0.52183 0.75823 0.91853 0.0
C878 C 0.5589 0.79361 0.90088 0.0
C879 C 0.57002 0.80901 0.87887 0.0
C880 C 0.46797 0.72165 0.85772 0.0
C881 C 0.51141 0.76201 0.87973 0.0
C882 C 0.43854 0.69832 0.85823 0.0
C883 C 0.42217 0.68963 0.88043 0.0
C884 C 0.48125 0.73607 0.87956 0.0
C885 C 0.43706 0.70364 0.90191 0.0
C886 C 0.52954 0.77032 0.90141 0.0
C887 C 0.5502 0.80128 0.85775 0.0
N888 N 0.46571 0.72623 0.90093 0.0
N889 N 0.52202 0.77801 0.85866 0.0
H890 H 0.43953 0.31128 0.66938 0.0
H891 H 0.54162 0.16648 0.58648 0.0
H892 H 0.43272 0.31082 0.591 0.0
H893 H 0.54483 0.16835 0.66495 0.0
H894 H 0.50335 0.22031 0.58719 0.0
H895 H 0.47775 0.25815 0.66762 0.0
C896 C 0.44576 0.29976 0.65178 0.0
C897 C 0.43302 0.31563 0.6303 0.0
C898 C 0.51266 0.20899 0.60421 0.0
C899 C 0.47737 0.25494 0.62812 0.0
C900 C 0.53477 0.1785 0.60382 0.0
C901 C 0.54626 0.16279 0.62569 0.0
C902 C 0.50215 0.22377 0.62664 0.0
C903 C 0.53638 0.17935 0.64763 0.0
C904 C 0.46779 0.26949 0.65077 0.0
C905 C 0.4419 0.29941 0.60802 0.0
N906 N 0.51478 0.20878 0.64753 0.0
N907 N 0.46379 0.27003 0.60749 0.0
H908 H 0.05799 0.30255 0.34052 0.0
H909 H 0.9125 0.19326 0.41779 0.0
H910 H 0.05738 0.29777 0.41896 0.0
H911 H 0.92372 0.18295 0.33996 0.0
H912 H 0.96353 0.23441 0.41832 0.0
H913 H 0.00504 0.26343 0.33969 0.0
C914 C 0.04637 0.29381 0.35757 0.0
C915 C 0.06226 0.30325 0.37985 0.0
C916 C 0.955 0.22299 0.40113 0.0
C917 C 0.00218 0.25812 0.37898 0.0
C918 C 0.92595 0.19935 0.40082 0.0
C919 C 0.91379 0.18466 0.37878 0.0
C920 C 0.97193 0.23227 0.37924 0.0
C921 C 0.93229 0.19352 0.35738 0.0
C922 C 0.0164 0.27117 0.35706 0.0
C923 C 0.04618 0.29096 0.40136 0.0
N924 N 0.96033 0.21699 0.35811 0.0
N925 N 0.01715 0.26888 0.40038 0.0
H926 H 0.05633 0.67199 0.16799 0.0
H927 H 0.93619 0.8052 0.08755 0.0
H928 H 0.05039 0.66541 0.08971 0.0
H929 H 0.95602 0.81939 0.16435 0.0
H930 H 0.97548 0.75216 0.08798 0.0
H931 H 0.01874 0.72573 0.16683 0.0
C932 C 0.04744 0.6821 0.15051 0.0
C933 C 0.05639 0.66411 0.12892 0.0
C934 C 0.9711 0.76689 0.10472 0.0
C935 C 0.0128 0.72537 0.12748 0.0
C936 C 0.94844 0.79694 0.10454 0.0
C937 C 0.94288 0.8168 0.12594 0.0
C938 C 0.98808 0.7566 0.12647 0.0
C939 C 0.95964 0.80503 0.14739 0.0
C940 C 0.02585 0.71274 0.14987 0.0
C941 C 0.0442 0.6785 0.1068 0.0
N942 N 0.9815 0.77576 0.14709 0.0
N943 N 0.0227 0.70816 0.10666 0.0
H944 H 0.20019 0.23902 0.07556 0.0
H945 H 0.23457 0.43716 0.12734 0.0
H946 H 0.30562 0.2757 0.09736 0.0
H947 H 0.13045 0.38912 0.11369 0.0
H948 H 0.26331 0.38242 0.11117 0.0
H949 H 0.17687 0.29969 0.08145 0.0
C950 C 0.21861 0.26022 0.08095 0.0
C951 C 0.25469 0.25246 0.08621 0.0
C952 C 0.23418 0.38412 0.11172 0.0
C953 C 0.22803 0.32158 0.09406 0.0
C954 C 0.2178 0.41513 0.12114 0.0
C955 C 0.18004 0.4177 0.12202 0.0
C956 C 0.21256 0.35582 0.10302 0.0
C957 C 0.15962 0.3885 0.11349 0.0
C958 C 0.20527 0.29477 0.08459 0.0
C959 C 0.27757 0.28077 0.0931 0.0
N960 N 0.17613 0.35896 0.10437 0.0
N961 N 0.26366 0.3141 0.09738 0.0
H962 H 0.34171 0.36213 0.36699 0.0
H963 H 0.45854 0.53851 0.34203 0.0
H964 H 0.29903 0.46965 0.37592 0.0
H965 H 0.50071 0.43022 0.34382 0.0
H966 H 0.39755 0.51428 0.34749 0.0
H967 H 0.39813 0.38737 0.35314 0.0
C968 C 0.34426 0.39117 0.36618 0.0
C969 C 0.31559 0.41384 0.37275 0.0
C970 C 0.42012 0.49586 0.34621 0.0
C971 C 0.38053 0.44305 0.35663 0.0
C972 C 0.45479 0.5096 0.34276 0.0
C973 C 0.48452 0.48622 0.34265 0.0
C974 C 0.41552 0.45862 0.34938 0.0
C975 C 0.47842 0.44909 0.344 0.0
C976 C 0.37655 0.40558 0.35813 0.0
C977 C 0.32059 0.45124 0.37126 0.0
N978 N 0.44465 0.43647 0.34755 0.0
N979 N 0.35257 0.46476 0.36334 0.0
H980 H 0.29438 0.7446 0.57677 0.0
H981 H 0.25935 0.54676 0.62838 0.0
H982 H 0.18829 0.70593 0.59508 0.0
H983 H 0.36395 0.59217 0.61283 0.0
H984 H 0.23122 0.60181 0.61243 0.0
H985 H 0.31847 0.68446 0.58362 0.0
C986 C 0.27603 0.72312 0.58164 0.0
C987 C 0.23944 0.73021 0.58562 0.0
C988 C 0.26032 0.59953 0.61251 0.0
C989 C 0.26691 0.6616 0.59442 0.0
C990 C 0.27638 0.56833 0.62183 0.0
C991 C 0.31408 0.5649 0.62208 0.0
C992 C 0.28219 0.62727 0.60338 0.0
C993 C 0.33481 0.59351 0.61309 0.0
C994 C 0.2898 0.68885 0.5858 0.0
C995 C 0.21672 0.70147 0.59183 0.0
N996 N 0.3186 0.62335 0.60414 0.0
N997 N 0.23097 0.66844 0.59655 0.0
H998 H 0.0098 0.48966 0.82862 0.0
H999 H 0.17477 0.53937 0.91421 0.0
H1000 H -0.004 0.51369 0.90484 0.0
H1001 H 0.16593 0.58389 0.84205 0.0
H1002 H 0.11421 0.51327 0.90946 0.0
H1003 H 0.07302 0.50936 0.83178 0.0
C1004 C 0.02007 0.49915 0.84592 0.0
C1005 C -0.00228 0.50061 0.86641 0.0
C1006 C 0.12587 0.52851 0.89465 0.0
C1007 C 0.06946 0.52157 0.87029 0.0
C1008 C 0.16025 0.54316 0.89731 0.0
C1009 C 0.17486 0.56401 0.87859 0.0
C1010 C 0.10676 0.53407 0.87292 0.0
C1011 C 0.15518 0.56831 0.85699 0.0
C1012 C 0.05593 0.51022 0.84771 0.0
C1013 C 0.01223 0.51277 0.88851 0.0
N1014 N 0.12204 0.55336 0.85468 0.0
N1015 N 0.04733 0.52252 0.88993 0.0
H1016 H 0.75495 0.74195 0.84439 0.0
H1017 H 0.82397 0.57414 0.91531 0.0
H1018 H 0.73138 0.73098 0.92084 0.0
H1019 H 0.78446 0.56364 0.84184 0.0
H1020 H 0.79592 0.63366 0.91795 0.0
H1021 H 0.77235 0.6786 0.84297 0.0
C1022 C 0.75364 0.72619 0.86093 0.0
C1023 C 0.74216 0.74167 0.88287 0.0
C1024 C 0.79308 0.61812 0.90138 0.0
C1025 C 0.76198 0.66946 0.88127 0.0
C1026 C 0.80924 0.58441 0.89977 0.0
C1027 C 0.80672 0.56434 0.87822 0.0
C1028 C 0.77516 0.63213 0.88108 0.0
C1029 C 0.78701 0.57846 0.85871 0.0
C1030 C 0.76316 0.69003 0.86 0.0
C1031 C 0.7403 0.71997 0.90364 0.0
N1032 N 0.77244 0.61196 0.86044 0.0
N1033 N 0.75069 0.68488 0.90243 0.0
H1034 H 0.68476 0.50818 0.62516 0.0
H1035 H 0.48356 0.54608 0.67007 0.0
H1036 H 0.63829 0.61351 0.63711 0.0
H1037 H 0.5236 0.43908 0.65542 0.0
H1038 H 0.54404 0.56976 0.66428 0.0
H1039 H 0.62875 0.48098 0.64016 0.0
C1040 C 0.66281 0.52555 0.63076 0.0
C1041 C 0.66619 0.56318 0.62972 0.0
C1042 C 0.53984 0.541 0.66265 0.0
C1043 C 0.60266 0.53238 0.64728 0.0
C1044 C 0.50533 0.52748 0.66617 0.0
C1045 C 0.49857 0.4907 0.66292 0.0
C1046 C 0.5677 0.51765 0.65545 0.0
C1047 C 0.52774 0.46768 0.65803 0.0
C1048 C 0.63103 0.51003 0.63952 0.0
C1049 C 0.63703 0.58439 0.63747 0.0
N1050 N 0.56104 0.48165 0.65395 0.0
N1051 N 0.60663 0.5687 0.64588 0.0
H1052 H 0.6754 0.22216 0.39333 0.0
H1053 H 0.72113 0.42952 0.36964 0.0
H1054 H 0.78289 0.26543 0.40021 0.0
H1055 H 0.6134 0.3862 0.37395 0.0
H1056 H 0.74518 0.36955 0.37944 0.0
H1057 H 0.6525 0.2828 0.38664 0.0
C1058 C 0.6941 0.24453 0.39387 0.0
C1059 C 0.7311 0.23873 0.39722 0.0
C1060 C 0.7163 0.3733 0.37818 0.0
C1061 C 0.70523 0.30823 0.38898 0.0
C1062 C 0.70263 0.40735 0.37232 0.0
C1063 C 0.66526 0.4128 0.37104 0.0
C1064 C 0.69234 0.34472 0.38257 0.0
C1065 C 0.64241 0.38328 0.37491 0.0
C1066 C 0.68107 0.27917 0.38989 0.0
C1067 C 0.75412 0.26873 0.39776 0.0
N1068 N 0.6563 0.35062 0.38052 0.0
N1069 N 0.74086 0.30223 0.39334 0.0
H1070 H 0.80515 0.4771 0.12208 0.0
H1071 H 0.00689 0.4329 0.16428 0.0
H1072 H 0.85076 0.37028 0.12709 0.0
H1073 H 0.96814 0.54148 0.1537 0.0
H1074 H 0.94711 0.41026 0.15454 0.0
H1075 H 0.86334 0.50216 0.13488 0.0
C1076 C 0.82752 0.45899 0.12543 0.0
C1077 C 0.82307 0.42155 0.12362 0.0
C1078 C 0.9515 0.43908 0.15456 0.0
C1079 C 0.88909 0.44984 0.1388 0.0
C1080 C 0.98559 0.45204 0.16037 0.0
C1081 C -0.00738 0.48909 0.15955 0.0
C1082 C 0.92421 0.46331 0.14773 0.0
C1083 C 0.96391 0.51266 0.1545 0.0
C1084 C 0.86055 0.47326 0.13301 0.0
C1085 C 0.85285 0.3993 0.12841 0.0
N1086 N 0.93099 0.49934 0.14844 0.0
N1087 N 0.88443 0.41377 0.13591 0.0
H1088 H 0.68433 0.73132 0.57842 0.0
H1089 H 0.72186 0.93258 0.62374 0.0
H1090 H 0.79128 0.77088 0.59379 0.0
H1091 H 0.61659 0.88538 0.61326 0.0
H1092 H 0.74919 0.8763 0.60904 0.0
H1093 H 0.66053 0.79165 0.58494 0.0
C1094 C 0.70291 0.75294 0.58264 0.0
C1095 C 0.73971 0.74603 0.58587 0.0
C1096 C 0.72012 0.87846 0.60998 0.0
C1097 C 0.71259 0.81501 0.59416 0.0
C1098 C 0.70454 0.91039 0.61857 0.0
C1099 C 0.66689 0.9137 0.61982 0.0
C1100 C 0.6978 0.8499 0.60256 0.0
C1101 C 0.64573 0.88421 0.61264 0.0
C1102 C 0.6893 0.78736 0.5866 0.0
C1103 C 0.76266 0.77508 0.59119 0.0
N1104 N 0.66147 0.85372 0.60433 0.0
N1105 N 0.74862 0.80828 0.59563 0.0
H1106 H 0.80404 0.98305 0.87494 0.0
H1107 H 0.00387 0.9428 0.82767 0.0
H1108 H 0.84751 0.87716 0.86065 0.0
H1109 H 0.96631 0.05003 0.84442 0.0
H1110 H 0.94365 0.91973 0.83538 0.0
H1111 H 0.86161 0.00936 0.86208 0.0
C1112 C 0.8258 0.96535 0.86947 0.0
C1113 C 0.82096 0.92787 0.86885 0.0
C1114 C 0.94833 0.9484 0.8371 0.0
C1115 C 0.88622 0.95768 0.85362 0.0
C1116 C 0.98266 0.9616 0.83244 0.0
C1117 C 0.9901 -0.00172 0.83561 0.0
C1118 C 0.92128 0.97198 0.84527 0.0
C1119 C 0.96163 0.02152 0.84174 0.0
C1120 C 0.85844 0.98038 0.86186 0.0
C1121 C 0.8499 0.9062 0.86133 0.0
N1122 N 0.92848 0.00788 0.84678 0.0
N1123 N 0.88113 0.92143 0.85395 0.0
H1124 H 0.78149 0.05739 0.15783 0.0
H1125 H 0.73344 0.22523 0.07343 0.0
H1126 H 0.82558 0.06874 0.08572 0.0
H1127 H 0.75169 0.23485 0.15066 0.0
H1128 H 0.75066 0.16117 0.07589 0.0
H1129 H 0.75257 0.11671 0.15339 0.0
C1130 C 0.78457 0.07215 0.14099 0.0
C1131 C 0.80626 0.05871 0.12225 0.0
C1132 C 0.7506 0.17748 0.09223 0.0
C1133 C 0.77309 0.12543 0.11693 0.0
C1134 C 0.74091 0.2138 0.09083 0.0
C1135 C 0.74186 0.23525 0.11178 0.0
C1136 C 0.76011 0.16268 0.11483 0.0
C1137 C 0.75136 0.21929 0.134 0.0
C1138 C 0.76825 0.10583 0.13849 0.0
C1139 C 0.80949 0.07865 0.10072 0.0
N1140 N 0.76002 0.18388 0.13497 0.0
N1141 N 0.79309 0.11114 0.09862 0.0
H1142 H 0.50535 0.97716 0.32179 0.0
H1143 H 0.67499 0.0208 0.40571 0.0
H1144 H 0.49673 -0.00288 0.39889 0.0
H1145 H 0.6645 0.06519 0.33362 0.0
H1146 H 0.6149 -0.00641 0.40127 0.0
H1147 H 0.56979 -0.00716 0.32399 0.0
C1148 C 0.51704 0.98481 0.3391 0.0
C1149 C 0.49578 0.98652 0.3601 0.0
C1150 C 0.62617 0.00888 0.38635 0.0
C1151 C 0.56882 0.0029 0.36286 0.0
C1152 C 0.6603 0.02416 0.38883 0.0
C1153 C 0.67416 0.04551 0.37012 0.0
C1154 C 0.60653 0.01444 0.36483 0.0
C1155 C 0.65428 0.04926 0.34856 0.0
C1156 C 0.55359 -0.00644 0.34035 0.0
C1157 C 0.5121 -0.00382 0.38218 0.0
N1158 N 0.6213 0.0339 0.34648 0.0
N1159 N 0.54775 0.00385 0.38302 0.0
H1160 H 0.29156 0.24736 0.41789 0.0
H1161 H 0.25423 0.04805 0.36901 0.0
H1162 H 0.18494 0.20898 0.40041 0.0
H1163 H 0.35941 0.09159 0.38538 0.0
H1164 H 0.22705 0.105 0.3824 0.0
H1165 H 0.31536 0.18722 0.41063 0.0
C1166 C 0.27305 0.22594 0.41309 0.0
C1167 C 0.23635 0.23309 0.40956 0.0
C1168 C 0.25607 0.10198 0.38298 0.0
C1169 C 0.26347 0.16445 0.40033 0.0
C1170 C 0.2716 0.0697 0.37507 0.0
C1171 C 0.30914 0.06507 0.37606 0.0
C1172 C 0.27831 0.12963 0.3919 0.0
C1173 C 0.33035 0.09384 0.38435 0.0
C1174 C 0.28665 0.19168 0.40868 0.0
C1175 C 0.21344 0.20446 0.40338 0.0
N1176 N 0.31463 0.12475 0.39199 0.0
N1177 N 0.22749 0.17138 0.39851 0.0
H1178 H 0.02571 0.94922 0.15251 0.0
H1179 H 0.14232 0.1245 0.12329 0.0
H1180 H 0.98116 0.05566 0.14238 0.0
H1181 H 0.18672 0.0169 0.12192 0.0
H1182 H 0.08413 0.0998 0.1344 0.0
H1183 H 0.08622 0.97408 0.147 0.0
C1184 C 0.02869 0.97793 0.1497 0.0
C1185 C -0.00164 0.0004 0.14767 0.0
C1186 C 0.1065 0.08149 0.13163 0.0
C1187 C 0.06722 0.02873 0.14096 0.0
C1188 C 0.13978 0.09557 0.12518 0.0
C1189 C 0.16945 0.0727 0.12161 0.0
C1190 C 0.10266 0.0442 0.13463 0.0
C1191 C 0.16447 0.03546 0.12432 0.0
C1192 C 0.06318 -0.008 0.14628 0.0
C1193 C 0.00377 0.03732 0.14385 0.0
N1194 N 0.13163 0.02232 0.13075 0.0
N1195 N 0.0375 0.05026 0.14042 0.0
H1196 H 0.22815 0.93807 0.87098 0.0
H1197 H 0.18717 0.73489 0.90942 0.0
H1198 H 0.12177 0.89264 0.87941 0.0
H1199 H 0.29512 0.77713 0.90387 0.0
H1200 H 0.16331 0.79519 0.90296 0.0
H1201 H 0.25406 0.88103 0.88534 0.0
C1202 C 0.21029 0.91609 0.87563 0.0
C1203 C 0.17275 0.9201 0.87389 0.0
C1204 C 0.19225 0.7915 0.90348 0.0
C1205 C 0.20203 0.85536 0.8907 0.0
C1206 C 0.20585 0.75709 0.90736 0.0
C1207 C 0.2431 0.75105 0.90694 0.0
C1208 C 0.21607 0.82002 0.89875 0.0
C1209 C 0.26617 0.78073 0.90432 0.0
C1210 C 0.22505 0.88373 0.88406 0.0
C1211 C 0.15086 0.89088 0.88043 0.0
N1212 N 0.25225 0.81396 0.89986 0.0
N1213 N 0.16582 0.85988 0.88851 0.0
H1214 H 0.34558 0.86217 0.62711 0.0
H1215 H 0.45823 0.04047 0.65302 0.0
H1216 H 0.29933 0.96847 0.61991 0.0
H1217 H 0.49732 0.93237 0.66502 0.0
H1218 H 0.39827 0.01605 0.64449 0.0
H1219 H 0.40066 0.88872 0.64238 0.0
C1220 C 0.34709 0.89123 0.62856 0.0
C1221 C 0.31771 0.91313 0.6222 0.0
C1222 C 0.41984 -0.00221 0.64943 0.0
C1223 C 0.38107 0.94389 0.64008 0.0
C1224 C 0.45397 0.01171 0.6546 0.0
C1225 C 0.4829 0.9883 0.65939 0.0
C1226 C 0.41485 0.96032 0.6491 0.0
C1227 C 0.4759 0.95133 0.66108 0.0
C1228 C 0.37858 0.9064 0.63749 0.0
C1229 C 0.32142 0.95062 0.62444 0.0
N1230 N 0.44272 0.93847 0.6556 0.0
N1231 N 0.35261 0.96489 0.63325 0.0
loop_
_geom_bond_atom_site_label_1
_geom_bond_atom_site_label_2
_geom_bond_distance
_geom_bond_site_symmetry_2
_ccdc_geom_bond_type
O0 Zn1 1.953 . S
O0 C16 1.225 . S
Zn1 O0 1.953 . S
Zn1 O2 1.949 . S
Zn1 O8 1.919 . S
Zn1 O13 1.924 . S
O2 Zn1 1.949 . S
O2 Zn3 1.923 . S
O2 Zn4 1.950 . S
O2 Zn5 1.945 . S
Zn3 O2 1.923 . S
Zn3 O6 1.933 . S
Zn3 O9 1.941 . S
Zn3 O10 1.965 . S
Zn4 O2 1.950 . S
Zn4 O11 1.938 . S
Zn4 O12 1.906 . S
Zn4 O22 1.953 . S
Zn5 O2 1.945 . S
Zn5 O7 1.932 . S
Zn5 O14 1.977 . S
Zn5 O15 1.910 . S
O6 Zn3 1.933 . S
O6 C17 1.226 . S
O7 Zn5 1.932 . S
O7 C17 1.307 . S
O8 Zn1 1.919 . S
O8 C19 1.253 . S
O9 Zn3 1.941 . S
O9 C19 1.283 . S
O10 Zn3 1.965 . S
O10 C18 1.303 . S
O11 Zn4 1.938 . S
O11 C18 1.247 . S
O12 Zn4 1.906 . S
O12 C20 1.304 . S
O13 Zn1 1.924 . S
O13 C21 1.311 . S
O14 Zn5 1.977 . S
O14 C20 1.272 . S
O15 Zn5 1.910 . S
O15 C21 1.231 . S
C16 O0 1.225 . S
C16 O22 1.298 . S
C17 O6 1.226 . S
C17 O7 1.307 . S
C18 O10 1.303 . S
C18 O11 1.247 . S
C19 O8 1.253 . S
C19 O9 1.283 . S
C20 O12 1.304 . S
C20 O14 1.272 . S
C21 O13 1.311 . S
C21 O15 1.231 . S
O22 Zn4 1.953 . S
O22 C16 1.298 . S
O23 Zn24 1.953 . S
O23 C39 1.225 . S
Zn24 O23 1.953 . S
Zn24 O25 1.949 . S
Zn24 O31 1.919 . S
Zn24 O36 1.924 . S
O25 Zn24 1.949 . S
O25 Zn26 1.923 . S
O25 Zn27 1.950 . S
O25 Zn28 1.945 . S
Zn26 O25 1.923 . S
Zn26 O29 1.933 . S
Zn26 O32 1.941 . S
Zn26 O33 1.965 . S
Zn27 O25 1.950 . S
Zn27 O34 1.938 . S
Zn27 O35 1.906 . S
Zn27 O45 1.953 . S
Zn28 O25 1.945 . S
Zn28 O30 1.932 . S
Zn28 O37 1.977 . S
Zn28 O38 1.910 . S
O29 Zn26 1.933 . S
O29 C40 1.226 . S
O30 Zn28 1.932 . S
O30 C40 1.307 . S
O31 Zn24 1.919 . S
O31 C42 1.253 . S
O32 Zn26 1.941 . S
O32 C42 1.283 . S
O33 Zn26 1.965 . S
O33 C41 1.303 . S
O34 Zn27 1.938 . S
O34 C41 1.247 . S
O35 Zn27 1.906 . S
O35 C43 1.304 . S
O36 Zn24 1.924 . S
O36 C44 1.311 . S
O37 Zn28 1.977 . S
O37 C43 1.272 . S
O38 Zn28 1.910 . S
O38 C44 1.231 . S
C39 O23 1.225 . S
C39 O45 1.298 . S
C40 O29 1.226 . S
C40 O30 1.307 . S
C41 O33 1.303 . S
C41 O34 1.247 . S
C42 O31 1.253 . S
C42 O32 1.283 . S
C43 O35 1.304 . S
C43 O37 1.272 . S
C44 O36 1.311 . S
C44 O38 1.231 . S
O45 Zn27 1.953 . S
O45 C39 1.298 . S
O46 Zn47 1.953 . S
O46 C62 1.225 . S
Zn47 O46 1.953 . S
Zn47 O48 1.949 . S
Zn47 O54 1.919 . S
Zn47 O59 1.924 . S
O48 Zn47 1.949 . S
O48 Zn49 1.923 . S
O48 Zn50 1.950 . S
O48 Zn51 1.945 . S
Zn49 O48 1.923 . S
Zn49 O52 1.933 . S
Zn49 O55 1.941 . S
Zn49 O56 1.965 . S
Zn50 O48 1.950 . S
Zn50 O57 1.938 . S
Zn50 O58 1.906 . S
Zn50 O68 1.953 . S
Zn51 O48 1.945 . S
Zn51 O53 1.932 . S
Zn51 O60 1.977 . S
Zn51 O61 1.910 . S
O52 Zn49 1.933 . S
O52 C63 1.226 . S
O53 Zn51 1.932 . S
O53 C63 1.307 . S
O54 Zn47 1.919 . S
O54 C65 1.253 . S
O55 Zn49 1.941 . S
O55 C65 1.283 . S
O56 Zn49 1.965 . S
O56 C64 1.303 . S
O57 Zn50 1.938 . S
O57 C64 1.247 . S
O58 Zn50 1.906 . S
O58 C66 1.304 . S
O59 Zn47 1.924 . S
O59 C67 1.311 . S
O60 Zn51 1.977 . S
O60 C66 1.272 . S
O61 Zn51 1.910 . S
O61 C67 1.231 . S
C62 O46 1.225 . S
C62 O68 1.298 . S
C63 O52 1.226 . S
C63 O53 1.307 . S
C64 O56 1.303 . S
C64 O57 1.247 . S
C65 O54 1.253 . S
C65 O55 1.283 . S
C66 O58 1.304 . S
C66 O60 1.272 . S
C67 O59 1.311 . S
C67 O61 1.231 . S
O68 Zn50 1.953 . S
O68 C62 1.298 . S
O69 Zn70 1.953 . S
O69 C85 1.225 . S
Zn70 O69 1.953 . S
Zn70 O71 1.949 . S
Zn70 O77 1.919 . S
Zn70 O82 1.924 . S
O71 Zn70 1.949 . S
O71 Zn72 1.923 . S
O71 Zn73 1.950 . S
O71 Zn74 1.945 . S
Zn72 O71 1.923 . S
Zn72 O75 1.933 . S
Zn72 O78 1.941 . S
Zn72 O79 1.965 . S
Zn73 O71 1.950 . S
Zn73 O80 1.938 . S
Zn73 O81 1.906 . S
Zn73 O91 1.953 . S
Zn74 O71 1.945 . S
Zn74 O76 1.932 . S
Zn74 O83 1.977 . S
Zn74 O84 1.910 . S
O75 Zn72 1.933 . S
O75 C86 1.226 . S
O76 Zn74 1.932 . S
O76 C86 1.307 . S
O77 Zn70 1.919 . S
O77 C88 1.253 . S
O78 Zn72 1.941 . S
O78 C88 1.283 . S
O79 Zn72 1.965 . S
O79 C87 1.303 . S
O80 Zn73 1.938 . S
O80 C87 1.247 . S
O81 Zn73 1.906 . S
O81 C89 1.304 . S
O82 Zn70 1.924 . S
O82 C90 1.311 . S
O83 Zn74 1.977 . S
O83 C89 1.272 . S
O84 Zn74 1.910 . S
O84 C90 1.231 . S
C85 O69 1.225 . S
C85 O91 1.298 . S
C86 O75 1.226 . S
C86 O76 1.307 . S
C87 O79 1.303 . S
C87 O80 1.247 . S
C88 O77 1.253 . S
C88 O78 1.283 . S
C89 O81 1.304 . S
C89 O83 1.272 . S
C90 O82 1.311 . S
C90 O84 1.231 . S
O91 Zn73 1.953 . S
O91 C85 1.298 . S
O92 Zn93 1.953 . S
O92 C108 1.225 . S
Zn93 O92 1.953 . S
Zn93 O94 1.949 . S
Zn93 O100 1.919 . S
Zn93 O105 1.924 . S
O94 Zn93 1.949 . S
O94 Zn95 1.923 . S
O94 Zn96 1.950 . S
O94 Zn97 1.945 . S
Zn95 O94 1.923 . S
Zn95 O98 1.933 . S
Zn95 O101 1.941 . S
Zn95 O102 1.965 . S
Zn96 O94 1.950 . S
Zn96 O103 1.938 . S
Zn96 O104 1.906 . S
Zn96 O114 1.953 . S
Zn97 O94 1.945 . S
Zn97 O99 1.932 . S
Zn97 O106 1.977 . S
Zn97 O107 1.910 . S
O98 Zn95 1.933 . S
O98 C109 1.226 . S
O99 Zn97 1.932 . S
O99 C109 1.307 . S
O100 Zn93 1.919 . S
O100 C111 1.253 . S
O101 Zn95 1.941 . S
O101 C111 1.283 . S
O102 Zn95 1.965 . S
O102 C110 1.303 . S
O103 Zn96 1.938 . S
O103 C110 1.247 . S
O104 Zn96 1.906 . S
O104 C112 1.304 . S
O105 Zn93 1.924 . S
O105 C113 1.311 . S
O106 Zn97 1.977 . S
O106 C112 1.272 . S
O107 Zn97 1.910 . S
O107 C113 1.231 . S
C108 O92 1.225 . S
C108 O114 1.298 . S
C109 O98 1.226 . S
C109 O99 1.307 . S
C110 O102 1.303 . S
C110 O103 1.247 . S
C111 O100 1.253 . S
C111 O101 1.283 . S
C112 O104 1.304 . S
C112 O106 1.272 . S
C113 O105 1.311 . S
C113 O107 1.231 . S
O114 Zn96 1.953 . S
O114 C108 1.298 . S
O115 Zn116 1.953 . S
O115 C131 1.225 . S
Zn116 O115 1.953 . S
Zn116 O117 1.949 . S
Zn116 O123 1.919 . S
Zn116 O128 1.924 . S
O117 Zn116 1.949 . S
O117 Zn118 1.923 . S
O117 Zn119 1.950 . S
O117 Zn120 1.945 . S
Zn118 O117 1.923 . S
Zn118 O121 1.933 . S
Zn118 O124 1.941 . S
Zn118 O125 1.965 . S
Zn119 O117 1.950 . S
Zn119 O126 1.938 . S
Zn119 O127 1.906 . S
Zn119 O137 1.953 . S
Zn120 O117 1.945 . S
Zn120 O122 1.932 . S
Zn120 O129 1.977 . S
Zn120 O130 1.910 . S
O121 Zn118 1.933 . S
O121 C132 1.226 . S
O122 Zn120 1.932 . S
O122 C132 1.307 . S
O123 Zn116 1.919 . S
O123 C134 1.253 . S
O124 Zn118 1.941 . S
O124 C134 1.283 . S
O125 Zn118 1.965 . S
O125 C133 1.303 . S
O126 Zn119 1.938 . S
O126 C133 1.247 . S
O127 Zn119 1.906 . S
O127 C135 1.304 . S
O128 Zn116 1.924 . S
O128 C136 1.311 . S
O129 Zn120 1.977 . S
O129 C135 1.272 . S
O130 Zn120 1.910 . S
O130 C136 1.231 . S
C131 O115 1.225 . S
C131 O137 1.298 . S
C132 O121 1.226 . S
C132 O122 1.307 . S
C133 O125 1.303 . S
C133 O126 1.247 . S
C134 O123 1.253 . S
C134 O124 1.283 . S
C135 O127 1.304 . S
C135 O129 1.272 . S
C136 O128 1.311 . S
C136 O130 1.231 . S
O137 Zn119 1.953 . S
O137 C131 1.298 . S
O138 Zn139 1.953 . S
O138 C154 1.225 . S
Zn139 O138 1.953 . S
Zn139 O140 1.949 . S
Zn139 O146 1.919 . S
Zn139 O151 1.924 . S
O140 Zn139 1.949 . S
O140 Zn141 1.923 . S
O140 Zn142 1.950 . S
O140 Zn143 1.945 . S
Zn141 O140 1.923 . S
Zn141 O144 1.933 . S
Zn141 O147 1.941 . S
Zn141 O148 1.965 . S
Zn142 O140 1.950 . S
Zn142 O149 1.938 . S
Zn142 O150 1.906 . S
Zn142 O160 1.953 . S
Zn143 O140 1.945 . S
Zn143 O145 1.932 . S
Zn143 O152 1.977 . S
Zn143 O153 1.910 . S
O144 Zn141 1.933 . S
O144 C155 1.226 . S
O145 Zn143 1.932 . S
O145 C155 1.307 . S
O146 Zn139 1.919 . S
O146 C157 1.253 . S
O147 Zn141 1.941 . S
O147 C157 1.283 . S
O148 Zn141 1.965 . S
O148 C156 1.303 . S
O149 Zn142 1.938 . S
O149 C156 1.247 . S
O150 Zn142 1.906 . S
O150 C158 1.304 . S
O151 Zn139 1.924 . S
O151 C159 1.311 . S
O152 Zn143 1.977 . S
O152 C158 1.272 . S
O153 Zn143 1.910 . S
O153 C159 1.231 . S
C154 O138 1.225 . S
C154 O160 1.298 . S
C155 O144 1.226 . S
C155 O145 1.307 . S
C156 O148 1.303 . S
C156 O149 1.247 . S
C157 O146 1.253 . S
C157 O147 1.283 . S
C158 O150 1.304 . S
C158 O152 1.272 . S
C159 O151 1.311 . S
C159 O153 1.231 . S
O160 Zn142 1.953 . S
O160 C154 1.298 . S
O161 Zn162 1.953 . S
O161 C177 1.225 . S
Zn162 O161 1.953 . S
Zn162 O163 1.949 . S
Zn162 O169 1.919 . S
Zn162 O174 1.924 . S
O163 Zn162 1.949 . S
O163 Zn164 1.923 . S
O163 Zn165 1.950 . S
O163 Zn166 1.945 . S
Zn164 O163 1.923 . S
Zn164 O167 1.933 . S
Zn164 O170 1.941 . S
Zn164 O171 1.965 . S
Zn165 O163 1.950 . S
Zn165 O172 1.938 . S
Zn165 O173 1.906 . S
Zn165 O183 1.953 . S
Zn166 O163 1.945 . S
Zn166 O168 1.932 . S
Zn166 O175 1.977 . S
Zn166 O176 1.910 . S
O167 Zn164 1.933 . S
O167 C178 1.226 . S
O168 Zn166 1.932 . S
O168 C178 1.307 . S
O169 Zn162 1.919 . S
O169 C180 1.253 . S
O170 Zn164 1.941 . S
O170 C180 1.283 . S
O171 Zn164 1.965 . S
O171 C179 1.303 . S
O172 Zn165 1.938 . S
O172 C179 1.247 . S
O173 Zn165 1.906 . S
O173 C181 1.304 . S
O174 Zn162 1.924 . S
O174 C182 1.311 . S
O175 Zn166 1.977 . S
O175 C181 1.272 . S
O176 Zn166 1.910 . S
O176 C182 1.231 . S
C177 O161 1.225 . S
C177 O183 1.298 . S
C178 O167 1.226 . S
C178 O168 1.307 . S
C179 O171 1.303 . S
C179 O172 1.247 . S
C180 O169 1.253 . S
C180 O170 1.283 . S
C181 O173 1.304 . S
C181 O175 1.272 . S
C182 O174 1.311 . S
C182 O176 1.231 . S
O183 Zn165 1.953 . S
O183 C177 1.298 . S
O184 Zn185 1.953 . S
O184 C200 1.225 . S
Zn185 O184 1.953 . S
Zn185 O186 1.949 . S
Zn185 O192 1.919 . S
Zn185 O197 1.924 . S
O186 Zn185 1.949 . S
O186 Zn187 1.923 . S
O186 Zn188 1.950 . S
O186 Zn189 1.945 . S
Zn187 O186 1.923 . S
Zn187 O190 1.933 . S
Zn187 O193 1.941 . S
Zn187 O194 1.965 . S
Zn188 O186 1.950 . S
Zn188 O195 1.938 . S
Zn188 O196 1.906 . S
Zn188 O206 1.953 . S
Zn189 O186 1.945 . S
Zn189 O191 1.932 . S
Zn189 O198 1.977 . S
Zn189 O199 1.910 . S
O190 Zn187 1.933 . S
O190 C201 1.226 . S
O191 Zn189 1.932 . S
O191 C201 1.307 . S
O192 Zn185 1.919 . S
O192 C203 1.253 . S
O193 Zn187 1.941 . S
O193 C203 1.283 . S
O194 Zn187 1.965 . S
O194 C202 1.303 . S
O195 Zn188 1.938 . S
O195 C202 1.247 . S
O196 Zn188 1.906 . S
O196 C204 1.304 . S
O197 Zn185 1.924 . S
O197 C205 1.311 . S
O198 Zn189 1.977 . S
O198 C204 1.272 . S
O199 Zn189 1.910 . S
O199 C205 1.231 . S
C200 O184 1.225 . S
C200 O206 1.298 . S
C201 O190 1.226 . S
C201 O191 1.307 . S
C202 O194 1.303 . S
C202 O195 1.247 . S
C203 O192 1.253 . S
C203 O193 1.283 . S
C204 O196 1.304 . S
C204 O198 1.272 . S
C205 O197 1.311 . S
C205 O199 1.231 . S
O206 Zn188 1.953 . S
O206 C200 1.298 . S
O207 Zn208 1.953 . S
O207 C223 1.225 . S
Zn208 O207 1.953 . S
Zn208 O209 1.949 . S
Zn208 O215 1.919 1_545 S
Zn208 O220 1.924 1_545 S
O209 Zn208 1.949 . S
O209 Zn210 1.923 . S
O209 Zn211 1.950 . S
O209 Zn212 1.945 . S
Zn210 O209 1.923 . S
Zn210 O213 1.933 . S
Zn210 O216 1.941 1_545 S
Zn210 O217 1.965 . S
Zn211 O209 1.950 . S
Zn211 O218 1.938 . S
Zn211 O219 1.906 . S
Zn211 O229 1.953 . S
Zn212 O209 1.945 . S
Zn212 O214 1.932 . S
Zn212 O221 1.977 . S
Zn212 O222 1.910 . S
O213 Zn210 1.933 . S
O213 C224 1.226 . S
O214 Zn212 1.932 . S
O214 C224 1.307 . S
O215 Zn208 1.919 1_565 S
O215 C226 1.253 . S
O216 Zn210 1.941 1_565 S
O216 C226 1.283 . S
O217 Zn210 1.965 . S
O217 C225 1.303 . S
O218 Zn211 1.938 . S
O218 C225 1.247 . S
O219 Zn211 1.906 . S
O219 C227 1.304 . S
O220 Zn208 1.924 1_565 S
O220 C228 1.311 1_565 S
O221 Zn212 1.977 . S
O221 C227 1.272 . S
O222 Zn212 1.910 . S
O222 C228 1.231 . S
C223 O207 1.225 . S
C223 O229 1.298 . S
C224 O213 1.226 . S
C224 O214 1.307 . S
C225 O217 1.303 . S
C225 O218 1.247 . S
C226 O215 1.253 . S
C226 O216 1.283 . S
C227 O219 1.304 . S
C227 O221 1.272 . S
C228 O220 1.311 1_545 S
C228 O222 1.231 . S
O229 Zn211 1.953 . S
O229 C223 1.298 . S
O230 Zn231 1.953 . S
O230 C246 1.225 . S
Zn231 O230 1.953 . S
Zn231 O232 1.949 . S
Zn231 O238 1.919 . S
Zn231 O243 1.924 . S
O232 Zn231 1.949 . S
O232 Zn233 1.923 . S
O232 Zn234 1.950 . S
O232 Zn235 1.945 . S
Zn233 O232 1.923 . S
Zn233 O236 1.933 . S
Zn233 O239 1.941 . S
Zn233 O240 1.965 . S
Zn234 O232 1.950 . S
Zn234 O241 1.938 . S
Zn234 O242 1.906 . S
Zn234 O252 1.953 . S
Zn235 O232 1.945 . S
Zn235 O237 1.932 . S
Zn235 O244 1.977 . S
Zn235 O245 1.910 . S
O236 Zn233 1.933 . S
O236 C247 1.226 . S
O237 Zn235 1.932 . S
O237 C247 1.307 . S
O238 Zn231 1.919 . S
O238 C249 1.253 . S
O239 Zn233 1.941 . S
O239 C249 1.283 . S
O240 Zn233 1.965 . S
O240 C248 1.303 . S
O241 Zn234 1.938 . S
O241 C248 1.247 . S
O242 Zn234 1.906 . S
O242 C250 1.304 . S
O243 Zn231 1.924 . S
O243 C251 1.311 . S
O244 Zn235 1.977 . S
O244 C250 1.272 . S
O245 Zn235 1.910 . S
O245 C251 1.231 . S
C246 O230 1.225 . S
C246 O252 1.298 . S
C247 O236 1.226 . S
C247 O237 1.307 . S
C248 O240 1.303 . S
C248 O241 1.247 . S
C249 O238 1.253 . S
C249 O239 1.283 . S
C250 O242 1.304 . S
C250 O244 1.272 . S
C251 O243 1.311 . S
C251 O245 1.231 . S
O252 Zn234 1.953 . S
O252 C246 1.298 . S
O253 Zn254 1.953 . S
O253 C269 1.225 . S
Zn254 O253 1.953 . S
Zn254 O255 1.949 . S
Zn254 O261 1.919 1_565 S
Zn254 O266 1.924 1_565 S
O255 Zn254 1.949 . S
O255 Zn256 1.923 . S
O255 Zn257 1.950 . S
O255 Zn258 1.945 . S
Zn256 O255 1.923 . S
Zn256 O259 1.933 . S
Zn256 O262 1.941 1_565 S
Zn256 O263 1.965 . S
Zn257 O255 1.950 . S
Zn257 O264 1.938 . S
Zn257 O265 1.906 . S
Zn257 O275 1.953 . S
Zn258 O255 1.945 . S
Zn258 O260 1.932 . S
Zn258 O267 1.977 . S
Zn258 O268 1.910 . S
O259 Zn256 1.933 . S
O259 C270 1.226 . S
O260 Zn258 1.932 . S
O260 C270 1.307 . S
O261 Zn254 1.919 1_545 S
O261 C272 1.253 . S
O262 Zn256 1.941 1_545 S
O262 C272 1.283 . S
O263 Zn256 1.965 . S
O263 C271 1.303 . S
O264 Zn257 1.938 . S
O264 C271 1.247 . S
O265 Zn257 1.906 . S
O265 C273 1.304 . S
O266 Zn254 1.924 1_545 S
O266 C274 1.311 1_545 S
O267 Zn258 1.977 . S
O267 C273 1.272 . S
O268 Zn258 1.910 . S
O268 C274 1.231 . S
C269 O253 1.225 . S
C269 O275 1.298 . S
C270 O259 1.226 . S
C270 O260 1.307 . S
C271 O263 1.303 . S
C271 O264 1.247 . S
C272 O261 1.253 . S
C272 O262 1.283 . S
C273 O265 1.304 . S
C273 O267 1.272 . S
C274 O266 1.311 1_565 S
C274 O268 1.231 . S
O275 Zn257 1.953 . S
O275 C269 1.298 . S
O276 Zn277 1.953 . S
O276 C292 1.225 . S
Zn277 O276 1.953 . S
Zn277 O278 1.949 . S
Zn277 O284 1.919 . S
Zn277 O289 1.924 . S
O278 Zn277 1.949 . S
O278 Zn279 1.923 . S
O278 Zn280 1.950 . S
O278 Zn281 1.945 . S
Zn279 O278 1.923 . S
Zn279 O282 1.933 . S
Zn279 O285 1.941 . S
Zn279 O286 1.965 . S
Zn280 O278 1.950 . S
Zn280 O287 1.938 . S
Zn280 O288 1.906 . S
Zn280 O298 1.953 . S
Zn281 O278 1.945 . S
Zn281 O283 1.932 . S
Zn281 O290 1.977 . S
Zn281 O291 1.910 . S
O282 Zn279 1.933 . S
O282 C293 1.226 . S
O283 Zn281 1.932 . S
O283 C293 1.307 . S
O284 Zn277 1.919 . S
O284 C295 1.253 . S
O285 Zn279 1.941 . S
O285 C295 1.283 . S
O286 Zn279 1.965 . S
O286 C294 1.303 . S
O287 Zn280 1.938 . S
O287 C294 1.247 . S
O288 Zn280 1.906 . S
O288 C296 1.304 . S
O289 Zn277 1.924 . S
O289 C297 1.311 . S
O290 Zn281 1.977 . S
O290 C296 1.272 . S
O291 Zn281 1.910 . S
O291 C297 1.231 . S
C292 O276 1.225 . S
C292 O298 1.298 . S
C293 O282 1.226 . S
C293 O283 1.307 . S
C294 O286 1.303 . S
C294 O287 1.247 . S
C295 O284 1.253 . S
C295 O285 1.283 . S
C296 O288 1.304 . S
C296 O290 1.272 . S
C297 O289 1.311 . S
C297 O291 1.231 . S
O298 Zn280 1.953 . S
O298 C292 1.298 . S
O299 Zn300 1.953 . S
O299 C315 1.225 . S
Zn300 O299 1.953 . S
Zn300 O301 1.949 . S
Zn300 O307 1.919 1_565 S
Zn300 O312 1.924 1_565 S
O301 Zn300 1.949 . S
O301 Zn302 1.923 . S
O301 Zn303 1.950 . S
O301 Zn304 1.945 . S
Zn302 O301 1.923 . S
Zn302 O305 1.933 . S
Zn302 O308 1.941 1_565 S
Zn302 O309 1.965 . S
Zn303 O301 1.950 . S
Zn303 O310 1.938 . S
Zn303 O311 1.906 . S
Zn303 O321 1.953 . S
Zn304 O301 1.945 . S
Zn304 O306 1.932 . S
Zn304 O313 1.977 . S
Zn304 O314 1.910 . S
O305 Zn302 1.933 . S
O305 C316 1.226 . S
O306 Zn304 1.932 . S
O306 C316 1.307 . S
O307 Zn300 1.919 1_545 S
O307 C318 1.253 . S
O308 Zn302 1.941 1_545 S
O308 C318 1.283 . S
O309 Zn302 1.965 . S
O309 C317 1.303 . S
O310 Zn303 1.938 . S
O310 C317 1.247 . S
O311 Zn303 1.906 . S
O311 C319 1.304 . S
O312 Zn300 1.924 1_545 S
O312 C320 1.311 1_545 S
O313 Zn304 1.977 . S
O313 C319 1.272 . S
O314 Zn304 1.910 . S
O314 C320 1.231 . S
C315 O299 1.225 . S
C315 O321 1.298 . S
C316 O305 1.226 . S
C316 O306 1.307 . S
C317 O309 1.303 . S
C317 O310 1.247 . S
C318 O307 1.253 . S
C318 O308 1.283 . S
C319 O311 1.304 . S
C319 O313 1.272 . S
C320 O312 1.311 1_565 S
C320 O314 1.231 . S
O321 Zn303 1.953 . S
O321 C315 1.298 . S
O322 Zn323 1.953 . S
O322 C338 1.225 . S
Zn323 O322 1.953 . S
Zn323 O324 1.949 . S
Zn323 O330 1.919 . S
Zn323 O335 1.924 . S
O324 Zn323 1.949 . S
O324 Zn325 1.923 . S
O324 Zn326 1.950 . S
O324 Zn327 1.945 . S
Zn325 O324 1.923 . S
Zn325 O328 1.933 . S
Zn325 O331 1.941 . S
Zn325 O332 1.965 . S
Zn326 O324 1.950 . S
Zn326 O333 1.938 . S
Zn326 O334 1.906 . S
Zn326 O344 1.953 . S
Zn327 O324 1.945 . S
Zn327 O329 1.932 . S
Zn327 O336 1.977 . S
Zn327 O337 1.910 . S
O328 Zn325 1.933 . S
O328 C339 1.226 . S
O329 Zn327 1.932 . S
O329 C339 1.307 . S
O330 Zn323 1.919 . S
O330 C341 1.253 . S
O331 Zn325 1.941 . S
O331 C341 1.283 . S
O332 Zn325 1.965 . S
O332 C340 1.303 . S
O333 Zn326 1.938 . S
O333 C340 1.247 . S
O334 Zn326 1.906 . S
O334 C342 1.304 . S
O335 Zn323 1.924 . S
O335 C343 1.311 . S
O336 Zn327 1.977 . S
O336 C342 1.272 . S
O337 Zn327 1.910 . S
O337 C343 1.231 . S
C338 O322 1.225 . S
C338 O344 1.298 . S
C339 O328 1.226 . S
C339 O329 1.307 . S
C340 O332 1.303 . S
C340 O333 1.247 . S
C341 O330 1.253 . S
C341 O331 1.283 . S
C342 O334 1.304 . S
C342 O336 1.272 . S
C343 O335 1.311 . S
C343 O337 1.231 . S
O344 Zn326 1.953 . S
O344 C338 1.298 . S
O345 Zn346 1.953 . S
O345 C361 1.225 . S
Zn346 O345 1.953 . S
Zn346 O347 1.949 . S
Zn346 O353 1.919 1_545 S
Zn346 O358 1.924 1_545 S
O347 Zn346 1.949 . S
O347 Zn348 1.923 . S
O347 Zn349 1.950 . S
O347 Zn350 1.945 . S
Zn348 O347 1.923 . S
Zn348 O351 1.933 . S
Zn348 O354 1.941 1_545 S
Zn348 O355 1.965 . S
Zn349 O347 1.950 . S
Zn349 O356 1.938 . S
Zn349 O357 1.906 . S
Zn349 O367 1.953 . S
Zn350 O347 1.945 . S
Zn350 O352 1.932 . S
Zn350 O359 1.977 . S
Zn350 O360 1.910 . S
O351 Zn348 1.933 . S
O351 C362 1.226 . S
O352 Zn350 1.932 . S
O352 C362 1.307 . S
O353 Zn346 1.919 1_565 S
O353 C364 1.253 . S
O354 Zn348 1.941 1_565 S
O354 C364 1.283 . S
O355 Zn348 1.965 . S
O355 C363 1.303 . S
O356 Zn349 1.938 . S
O356 C363 1.247 . S
O357 Zn349 1.906 . S
O357 C365 1.304 . S
O358 Zn346 1.924 1_565 S
O358 C366 1.311 1_565 S
O359 Zn350 1.977 . S
O359 C365 1.272 . S
O360 Zn350 1.910 . S
O360 C366 1.231 . S
C361 O345 1.225 . S
C361 O367 1.298 . S
C362 O351 1.226 . S
C362 O352 1.307 . S
C363 O355 1.303 . S
C363 O356 1.247 . S
C364 O353 1.253 . S
C364 O354 1.283 . S
C365 O357 1.304 . S
C365 O359 1.272 . S
C366 O358 1.311 1_545 S
C366 O360 1.231 . S
O367 Zn349 1.953 . S
O367 C361 1.298 . S
H368 C374 0.930 . S
H369 C378 0.930 . S
H370 C383 0.929 . S
H371 C381 0.929 . S
H372 C376 0.929 . S
H373 C382 0.929 . S
C374 H368 0.930 . S
C374 C375 1.367 . S
C374 C382 1.378 . S
C375 C374 1.367 . S
C375 C383 1.433 . S
C376 H372 0.929 . S
C376 C378 1.378 . S
C376 C380 1.350 . S
C377 C380 1.463 . S
C377 C382 1.350 . S
C377 N385 1.427 . S
C378 H369 0.930 . S
C378 C376 1.378 . S
C378 C379 1.367 . S
C379 C378 1.367 . S
C379 C381 1.433 . S
C380 C376 1.350 . S
C380 C377 1.463 . S
C380 N384 1.427 . S
C381 H371 0.929 . S
C381 C379 1.433 . S
C381 N384 1.384 . S
C382 H373 0.929 . S
C382 C374 1.378 . S
C382 C377 1.350 . S
C383 H370 0.929 . S
C383 C375 1.433 . S
C383 N385 1.384 . S
N384 C380 1.427 . S
N384 C381 1.384 . S
N385 C377 1.427 . S
N385 C383 1.384 . S
H386 C392 0.930 . S
H387 C396 0.930 . S
H388 C401 0.929 . S
H389 C399 0.929 . S
H390 C394 0.929 . S
H391 C400 0.929 . S
C392 H386 0.930 . S
C392 C393 1.367 . S
C392 C400 1.378 . S
C393 C392 1.367 . S
C393 C401 1.433 . S
C394 H390 0.929 . S
C394 C396 1.378 . S
C394 C398 1.350 . S
C395 C398 1.463 . S
C395 C400 1.350 . S
C395 N403 1.427 . S
C396 H387 0.930 . S
C396 C394 1.378 . S
C396 C397 1.367 . S
C397 C396 1.367 . S
C397 C399 1.433 . S
C398 C394 1.350 . S
C398 C395 1.463 . S
C398 N402 1.427 . S
C399 H389 0.929 . S
C399 C397 1.433 . S
C399 N402 1.384 . S
C400 H391 0.929 . S
C400 C392 1.378 . S
C400 C395 1.350 . S
C401 H388 0.929 . S
C401 C393 1.433 . S
C401 N403 1.384 . S
N402 C398 1.427 . S
N402 C399 1.384 . S
N403 C395 1.427 . S
N403 C401 1.384 . S
H404 C410 0.930 . S
H405 C414 0.930 . S
H406 C419 0.929 . S
H407 C417 0.929 . S
H408 C412 0.929 . S
H409 C418 0.929 . S
C410 H404 0.930 . S
C410 C411 1.367 . S
C410 C418 1.378 . S
C411 C410 1.367 . S
C411 C419 1.433 . S
C412 H408 0.929 . S
C412 C414 1.378 . S
C412 C416 1.350 . S
C413 C416 1.463 . S
C413 C418 1.350 . S
C413 N421 1.427 . S
C414 H405 0.930 . S
C414 C412 1.378 . S
C414 C415 1.367 . S
C415 C414 1.367 . S
C415 C417 1.433 . S
C416 C412 1.350 . S
C416 C413 1.463 . S
C416 N420 1.427 . S
C417 H407 0.929 . S
C417 C415 1.433 . S
C417 N420 1.384 . S
C418 H409 0.929 . S
C418 C410 1.378 . S
C418 C413 1.350 . S
C419 H406 0.929 . S
C419 C411 1.433 . S
C419 N421 1.384 . S
N420 C416 1.427 . S
N420 C417 1.384 . S
N421 C413 1.427 . S
N421 C419 1.384 . S
H422 C428 0.930 . S
H423 C432 0.930 . S
H424 C437 0.929 . S
H425 C435 0.929 . S
H426 C430 0.929 . S
H427 C436 0.929 . S
C428 H422 0.930 . S
C428 C429 1.367 . S
C428 C436 1.378 . S
C429 C428 1.367 . S
C429 C437 1.433 . S
C430 H426 0.929 . S
C430 C432 1.378 . S
C430 C434 1.350 . S
C431 C434 1.463 1_656 S
C431 C436 1.350 . S
C431 N439 1.427 1_655 S
C432 H423 0.930 . S
C432 C430 1.378 . S
C432 C433 1.367 . S
C433 C432 1.367 . S
C433 C435 1.433 . S
C434 C430 1.350 . S
C434 C431 1.463 1_454 S
C434 N438 1.427 1_455 S
C435 H425 0.929 . S
C435 C433 1.433 . S
C435 N438 1.384 1_455 S
C436 H427 0.929 . S
C436 C428 1.378 . S
C436 C431 1.350 . S
C437 H424 0.929 . S
C437 C429 1.433 . S
C437 N439 1.384 1_655 S
N438 C434 1.427 1_655 S
N438 C435 1.384 1_655 S
N439 C431 1.427 1_455 S
N439 C437 1.384 1_455 S
H440 C446 0.930 . S
H441 C450 0.930 . S
H442 C455 0.929 . S
H443 C453 0.929 . S
H444 C448 0.929 . S
H445 C454 0.929 . S
C446 H440 0.930 . S
C446 C447 1.367 . S
C446 C454 1.378 . S
C447 C446 1.367 . S
C447 C455 1.433 . S
C448 H444 0.929 . S
C448 C450 1.378 . S
C448 C452 1.350 . S
C449 C452 1.463 . S
C449 C454 1.350 . S
C449 N457 1.427 . S
C450 H441 0.930 . S
C450 C448 1.378 . S
C450 C451 1.367 . S
C451 C450 1.367 . S
C451 C453 1.433 . S
C452 C448 1.350 . S
C452 C449 1.463 . S
C452 N456 1.427 . S
C453 H443 0.929 . S
C453 C451 1.433 . S
C453 N456 1.384 . S
C454 H445 0.929 . S
C454 C446 1.378 . S
C454 C449 1.350 . S
C455 H442 0.929 . S
C455 C447 1.433 . S
C455 N457 1.384 . S
N456 C452 1.427 . S
N456 C453 1.384 . S
N457 C449 1.427 . S
N457 C455 1.384 . S
H458 C464 0.930 . S
H459 C468 0.930 . S
H460 C473 0.929 . S
H461 C471 0.929 . S
H462 C466 0.929 . S
H463 C472 0.929 . S
C464 H458 0.930 . S
C464 C465 1.367 . S
C464 C472 1.378 . S
C465 C464 1.367 . S
C465 C473 1.433 . S
C466 H462 0.929 . S
C466 C468 1.378 . S
C466 C470 1.350 . S
C467 C470 1.463 . S
C467 C472 1.350 . S
C467 N475 1.427 . S
C468 H459 0.930 . S
C468 C466 1.378 . S
C468 C469 1.367 . S
C469 C468 1.367 . S
C469 C471 1.433 . S
C470 C466 1.350 . S
C470 C467 1.463 . S
C470 N474 1.427 . S
C471 H461 0.929 . S
C471 C469 1.433 . S
C471 N474 1.384 . S
C472 H463 0.929 . S
C472 C464 1.378 . S
C472 C467 1.350 . S
C473 H460 0.929 . S
C473 C465 1.433 . S
C473 N475 1.384 . S
N474 C470 1.427 . S
N474 C471 1.384 . S
N475 C467 1.427 . S
N475 C473 1.384 . S
H476 C482 0.930 . S
H477 C486 0.930 . S
H478 C491 0.929 . S
H479 C489 0.929 . S
H480 C484 0.929 1_655 S
H481 C490 0.929 1_455 S
C482 H476 0.930 . S
C482 C483 1.367 . S
C482 C490 1.378 . S
C483 C482 1.367 . S
C483 C491 1.433 1_565 S
C484 H480 0.929 1_455 S
C484 C486 1.378 . S
C484 C488 1.350 . S
C485 C488 1.463 1_664 S
C485 C490 1.350 . S
C485 N493 1.427 1_565 S
C486 H477 0.930 . S
C486 C484 1.378 . S
C486 C487 1.367 . S
C487 C486 1.367 . S
C487 C489 1.433 1_545 S
C488 C484 1.350 . S
C488 C485 1.463 1_446 S
C488 N492 1.427 1_545 S
C489 H479 0.929 . S
C489 C487 1.433 1_565 S
C489 N492 1.384 . S
C490 H481 0.929 1_655 S
C490 C482 1.378 . S
C490 C485 1.350 . S
C491 H478 0.929 . S
C491 C483 1.433 1_545 S
C491 N493 1.384 . S
N492 C488 1.427 1_565 S
N492 C489 1.384 . S
N493 C485 1.427 1_545 S
N493 C491 1.384 . S
H494 C500 0.930 . S
H495 C504 0.930 . S
H496 C509 0.929 . S
H497 C507 0.929 . S
H498 C502 0.924 1_565 S
H499 C508 0.924 1_545 S
C500 H494 0.930 . S
C500 C501 1.367 . S
C500 C508 1.378 . S
C501 C500 1.367 . S
C501 C509 1.433 . S
C502 H498 0.924 1_545 S
C502 C504 1.378 . S
C502 C506 1.350 . S
C503 C506 1.463 1_565 S
C503 C508 1.350 . S
C503 N511 1.427 . S
C504 H495 0.930 . S
C504 C502 1.378 . S
C504 C505 1.367 . S
C505 C504 1.367 . S
C505 C507 1.433 . S
C506 C502 1.350 . S
C506 C503 1.463 1_545 S
C506 N510 1.427 . S
C507 H497 0.929 . S
C507 C505 1.433 . S
C507 N510 1.384 . S
C508 H499 0.924 1_565 S
C508 C500 1.378 . S
C508 C503 1.350 . S
C509 H496 0.929 . S
C509 C501 1.433 . S
C509 N511 1.384 . S
N510 C506 1.427 . S
N510 C507 1.384 . S
N511 C503 1.427 . S
N511 C509 1.384 . S
H512 C518 0.930 . S
H513 C522 0.930 . S
H514 C527 0.929 . S
H515 C525 0.929 . S
H516 C520 0.929 . S
H517 C526 0.929 . S
C518 H512 0.930 . S
C518 C519 1.367 . S
C518 C526 1.378 . S
C519 C518 1.367 . S
C519 C527 1.433 . S
C520 H516 0.929 . S
C520 C522 1.378 . S
C520 C524 1.350 1_554 S
C521 C524 1.463 . S
C521 C526 1.350 . S
C521 N529 1.427 . S
C522 H513 0.930 . S
C522 C520 1.378 . S
C522 C523 1.367 . S
C523 C522 1.367 . S
C523 C525 1.433 . S
C524 C520 1.350 1_556 S
C524 C521 1.463 . S
C524 N528 1.427 1_556 S
C525 H515 0.929 . S
C525 C523 1.433 . S
C525 N528 1.384 . S
C526 H517 0.929 . S
C526 C518 1.378 . S
C526 C521 1.350 . S
C527 H514 0.929 . S
C527 C519 1.433 . S
C527 N529 1.384 . S
N528 C524 1.427 1_554 S
N528 C525 1.384 . S
N529 C521 1.427 . S
N529 C527 1.384 . S
H530 C536 0.930 . S
H531 C540 0.930 . S
H532 C545 0.929 . S
H533 C543 0.929 . S
H534 C538 0.929 . S
H535 C544 0.929 . S
C536 H530 0.930 . S
C536 C537 1.367 . S
C536 C544 1.378 . S
C537 C536 1.367 . S
C537 C545 1.433 . S
C538 H534 0.929 . S
C538 C540 1.378 . S
C538 C542 1.350 . S
C539 C542 1.463 . S
C539 C544 1.350 . S
C539 N547 1.427 . S
C540 H531 0.930 . S
C540 C538 1.378 . S
C540 C541 1.367 . S
C541 C540 1.367 . S
C541 C543 1.433 . S
C542 C538 1.350 . S
C542 C539 1.463 . S
C542 N546 1.427 . S
C543 H533 0.929 . S
C543 C541 1.433 . S
C543 N546 1.384 . S
C544 H535 0.929 . S
C544 C536 1.378 . S
C544 C539 1.350 . S
C545 H532 0.929 . S
C545 C537 1.433 . S
C545 N547 1.384 . S
N546 C542 1.427 . S
N546 C543 1.384 . S
N547 C539 1.427 . S
N547 C545 1.384 . S
H548 C554 0.930 . S
H549 C558 0.930 . S
H550 C563 0.929 . S
H551 C561 0.929 . S
H552 C556 0.929 . S
H553 C562 0.929 . S
C554 H548 0.930 . S
C554 C555 1.367 . S
C554 C562 1.378 . S
C555 C554 1.367 . S
C555 C563 1.433 . S
C556 H552 0.929 . S
C556 C558 1.378 . S
C556 C560 1.350 . S
C557 C560 1.463 . S
C557 C562 1.350 . S
C557 N565 1.427 . S
C558 H549 0.930 . S
C558 C556 1.378 . S
C558 C559 1.367 . S
C559 C558 1.367 . S
C559 C561 1.433 . S
C560 C556 1.350 . S
C560 C557 1.463 . S
C560 N564 1.427 . S
C561 H551 0.929 . S
C561 C559 1.433 . S
C561 N564 1.384 . S
C562 H553 0.929 . S
C562 C554 1.378 . S
C562 C557 1.350 . S
C563 H550 0.929 . S
C563 C555 1.433 . S
C563 N565 1.384 . S
N564 C560 1.427 . S
N564 C561 1.384 . S
N565 C557 1.427 . S
N565 C563 1.384 . S
H566 C572 0.930 . S
H567 C576 0.930 . S
H568 C581 0.929 . S
H569 C579 0.929 . S
H570 C574 0.929 . S
H571 C580 0.929 . S
C572 H566 0.930 . S
C572 C573 1.367 . S
C572 C580 1.378 . S
C573 C572 1.367 . S
C573 C581 1.433 . S
C574 H570 0.929 . S
C574 C576 1.378 . S
C574 C578 1.350 . S
C575 C578 1.463 . S
C575 C580 1.350 . S
C575 N583 1.427 . S
C576 H567 0.930 . S
C576 C574 1.378 . S
C576 C577 1.367 . S
C577 C576 1.367 . S
C577 C579 1.433 . S
C578 C574 1.350 . S
C578 C575 1.463 . S
C578 N582 1.427 . S
C579 H569 0.929 . S
C579 C577 1.433 . S
C579 N582 1.384 . S
C580 H571 0.929 . S
C580 C572 1.378 . S
C580 C575 1.350 . S
C581 H568 0.929 . S
C581 C573 1.433 . S
C581 N583 1.384 . S
N582 C578 1.427 . S
N582 C579 1.384 . S
N583 C575 1.427 . S
N583 C581 1.384 . S
H584 C590 0.930 . S
H585 C594 0.930 . S
H586 C599 0.929 . S
H587 C597 0.929 . S
H588 C592 0.929 . S
H589 C598 0.929 . S
C590 H584 0.930 . S
C590 C591 1.367 . S
C590 C598 1.378 . S
C591 C590 1.367 . S
C591 C599 1.433 . S
C592 H588 0.929 . S
C592 C594 1.378 . S
C592 C596 1.350 1_556 S
C593 C596 1.463 . S
C593 C598 1.350 . S
C593 N601 1.427 . S
C594 H585 0.930 . S
C594 C592 1.378 . S
C594 C595 1.367 . S
C595 C594 1.367 . S
C595 C597 1.433 . S
C596 C592 1.350 1_554 S
C596 C593 1.463 . S
C596 N600 1.427 . S
C597 H587 0.929 . S
C597 C595 1.433 . S
C597 N600 1.384 1_556 S
C598 H589 0.929 . S
C598 C590 1.378 . S
C598 C593 1.350 . S
C599 H586 0.929 . S
C599 C591 1.433 . S
C599 N601 1.384 . S
N600 C596 1.427 . S
N600 C597 1.384 1_554 S
N601 C593 1.427 . S
N601 C599 1.384 . S
H602 C608 0.930 . S
H603 C612 0.930 . S
H604 C617 0.929 . S
H605 C615 0.929 . S
H606 C610 0.929 . S
H607 C616 0.929 . S
C608 H602 0.930 . S
C608 C609 1.367 . S
C608 C616 1.378 . S
C609 C608 1.367 . S
C609 C617 1.433 . S
C610 H606 0.929 . S
C610 C612 1.378 . S
C610 C614 1.350 . S
C611 C614 1.463 . S
C611 C616 1.350 . S
C611 N619 1.427 . S
C612 H603 0.930 . S
C612 C610 1.378 . S
C612 C613 1.367 . S
C613 C612 1.367 . S
C613 C615 1.433 . S
C614 C610 1.350 . S
C614 C611 1.463 . S
C614 N618 1.427 . S
C615 H605 0.929 . S
C615 C613 1.433 . S
C615 N618 1.384 . S
C616 H607 0.929 . S
C616 C608 1.378 . S
C616 C611 1.350 . S
C617 H604 0.929 . S
C617 C609 1.433 . S
C617 N619 1.384 . S
N618 C614 1.427 . S
N618 C615 1.384 . S
N619 C611 1.427 . S
N619 C617 1.384 . S
H620 C626 0.930 . S
H621 C630 0.930 . S
H622 C635 0.929 . S
H623 C633 0.929 . S
H624 C628 0.929 . S
H625 C634 0.929 . S
C626 H620 0.930 . S
C626 C627 1.367 . S
C626 C634 1.378 . S
C627 C626 1.367 . S
C627 C635 1.433 . S
C628 H624 0.929 . S
C628 C630 1.378 . S
C628 C632 1.350 . S
C629 C632 1.463 . S
C629 C634 1.350 . S
C629 N637 1.427 . S
C630 H621 0.930 . S
C630 C628 1.378 . S
C630 C631 1.367 . S
C631 C630 1.367 . S
C631 C633 1.433 . S
C632 C628 1.350 . S
C632 C629 1.463 . S
C632 N636 1.427 . S
C633 H623 0.929 . S
C633 C631 1.433 . S
C633 N636 1.384 . S
C634 H625 0.929 . S
C634 C626 1.378 . S
C634 C629 1.350 . S
C635 H622 0.929 . S
C635 C627 1.433 . S
C635 N637 1.384 . S
N636 C632 1.427 . S
N636 C633 1.384 . S
N637 C629 1.427 . S
N637 C635 1.384 . S
H638 C644 0.930 . S
H639 C648 0.930 . S
H640 C653 0.929 . S
H641 C651 0.929 . S
H642 C646 0.929 . S
H643 C652 0.929 . S
C644 H638 0.930 . S
C644 C645 1.367 . S
C644 C652 1.378 . S
C645 C644 1.367 . S
C645 C653 1.433 . S
C646 H642 0.929 . S
C646 C648 1.378 . S
C646 C650 1.350 . S
C647 C650 1.463 . S
C647 C652 1.350 . S
C647 N655 1.427 . S
C648 H639 0.930 . S
C648 C646 1.378 . S
C648 C649 1.367 . S
C649 C648 1.367 . S
C649 C651 1.433 . S
C650 C646 1.350 . S
C650 C647 1.463 . S
C650 N654 1.427 . S
C651 H641 0.929 . S
C651 C649 1.433 . S
C651 N654 1.384 . S
C652 H643 0.929 . S
C652 C644 1.378 . S
C652 C647 1.350 . S
C653 H640 0.929 . S
C653 C645 1.433 . S
C653 N655 1.384 . S
N654 C650 1.427 . S
N654 C651 1.384 . S
N655 C647 1.427 . S
N655 C653 1.384 . S
H656 C662 0.930 . S
H657 C666 0.930 . S
H658 C671 0.929 . S
H659 C669 0.929 . S
H660 C664 0.929 . S
H661 C670 0.929 . S
C662 H656 0.930 . S
C662 C663 1.367 . S
C662 C670 1.378 . S
C663 C662 1.367 . S
C663 C671 1.433 . S
C664 H660 0.929 . S
C664 C666 1.378 . S
C664 C668 1.350 . S
C665 C668 1.463 . S
C665 C670 1.350 . S
C665 N673 1.427 . S
C666 H657 0.930 . S
C666 C664 1.378 . S
C666 C667 1.367 . S
C667 C666 1.367 . S
C667 C669 1.433 . S
C668 C664 1.350 . S
C668 C665 1.463 . S
C668 N672 1.427 . S
C669 H659 0.929 . S
C669 C667 1.433 . S
C669 N672 1.384 . S
C670 H661 0.929 . S
C670 C662 1.378 . S
C670 C665 1.350 . S
C671 H658 0.929 . S
C671 C663 1.433 . S
C671 N673 1.384 . S
N672 C668 1.427 . S
N672 C669 1.384 . S
N673 C665 1.427 . S
N673 C671 1.384 . S
H674 C680 0.930 1_565 S
H675 C684 0.930 . S
H676 C689 0.929 . S
H677 C687 0.929 . S
H678 C682 0.929 1_545 S
H679 C688 0.929 . S
C680 H674 0.930 1_545 S
C680 C681 1.367 . S
C680 C688 1.378 1_545 S
C681 C680 1.367 . S
C681 C689 1.433 . S
C682 H678 0.929 1_565 S
C682 C684 1.378 . S
C682 C686 1.350 . S
C683 C686 1.463 1_545 S
C683 C688 1.350 1_545 S
C683 N691 1.427 . S
C684 H675 0.930 . S
C684 C682 1.378 . S
C684 C685 1.367 . S
C685 C684 1.367 . S
C685 C687 1.433 . S
C686 C682 1.350 . S
C686 C683 1.463 1_565 S
C686 N690 1.427 . S
C687 H677 0.929 . S
C687 C685 1.433 . S
C687 N690 1.384 . S
C688 H679 0.929 . S
C688 C680 1.378 1_565 S
C688 C683 1.350 1_565 S
C689 H676 0.929 . S
C689 C681 1.433 . S
C689 N691 1.384 . S
N690 C686 1.427 . S
N690 C687 1.384 . S
N691 C683 1.427 . S
N691 C689 1.384 . S
H692 C698 0.930 . S
H693 C702 0.930 . S
H694 C707 0.929 . S
H695 C705 0.929 . S
H696 C700 0.929 . S
H697 C706 0.929 . S
C698 H692 0.930 . S
C698 C699 1.367 . S
C698 C706 1.378 . S
C699 C698 1.367 . S
C699 C707 1.433 . S
C700 H696 0.929 . S
C700 C702 1.378 . S
C700 C704 1.350 . S
C701 C704 1.463 . S
C701 C706 1.350 1_556 S
C701 N709 1.427 . S
C702 H693 0.930 . S
C702 C700 1.378 . S
C702 C703 1.367 . S
C703 C702 1.367 . S
C703 C705 1.433 . S
C704 C700 1.350 . S
C704 C701 1.463 . S
C704 N708 1.427 . S
C705 H695 0.929 . S
C705 C703 1.433 . S
C705 N708 1.384 . S
C706 H697 0.929 . S
C706 C698 1.378 . S
C706 C701 1.350 1_554 S
C707 H694 0.929 . S
C707 C699 1.433 . S
C707 N709 1.384 1_554 S
N708 C704 1.427 . S
N708 C705 1.384 . S
N709 C701 1.427 . S
N709 C707 1.384 1_556 S
H710 C716 0.930 . S
H711 C720 0.930 1_545 S
H712 C725 0.929 . S
H713 C723 0.929 . S
H714 C718 0.929 . S
H715 C724 0.929 . S
C716 H710 0.930 . S
C716 C717 1.367 . S
C716 C724 1.378 1_545 S
C717 C716 1.367 . S
C717 C725 1.433 . S
C718 H714 0.929 . S
C718 C720 1.378 1_545 S
C718 C722 1.350 1_545 S
C719 C722 1.463 1_545 S
C719 C724 1.350 1_545 S
C719 N727 1.427 . S
C720 H711 0.930 1_565 S
C720 C718 1.378 1_565 S
C720 C721 1.367 . S
C721 C720 1.367 . S
C721 C723 1.433 . S
C722 C718 1.350 1_565 S
C722 C719 1.463 1_565 S
C722 N726 1.427 . S
C723 H713 0.929 . S
C723 C721 1.433 . S
C723 N726 1.384 . S
C724 H715 0.929 . S
C724 C716 1.378 1_565 S
C724 C719 1.350 1_565 S
C725 H712 0.929 . S
C725 C717 1.433 . S
C725 N727 1.384 . S
N726 C722 1.427 . S
N726 C723 1.384 . S
N727 C719 1.427 . S
N727 C725 1.384 . S
H728 C734 0.930 . S
H729 C738 0.930 . S
H730 C743 0.929 . S
H731 C741 0.929 . S
H732 C736 0.929 . S
H733 C742 0.929 . S
C734 H728 0.930 . S
C734 C735 1.367 . S
C734 C742 1.378 . S
C735 C734 1.367 . S
C735 C743 1.433 . S
C736 H732 0.929 . S
C736 C738 1.378 . S
C736 C740 1.350 . S
C737 C740 1.463 . S
C737 C742 1.350 . S
C737 N745 1.427 . S
C738 H729 0.930 . S
C738 C736 1.378 . S
C738 C739 1.367 . S
C739 C738 1.367 . S
C739 C741 1.433 . S
C740 C736 1.350 . S
C740 C737 1.463 . S
C740 N744 1.427 . S
C741 H731 0.929 . S
C741 C739 1.433 . S
C741 N744 1.384 . S
C742 H733 0.929 . S
C742 C734 1.378 . S
C742 C737 1.350 . S
C743 H730 0.929 . S
C743 C735 1.433 . S
C743 N745 1.384 . S
N744 C740 1.427 . S
N744 C741 1.384 . S
N745 C737 1.427 . S
N745 C743 1.384 . S
H746 C752 0.930 . S
H747 C756 0.930 . S
H748 C761 0.928 . S
H749 C759 0.929 . S
H750 C754 0.929 . S
H751 C760 0.929 . S
C752 H746 0.930 . S
C752 C753 1.367 . S
C752 C760 1.378 . S
C753 C752 1.367 . S
C753 C761 1.433 . S
C754 H750 0.929 . S
C754 C756 1.378 . S
C754 C758 1.350 . S
C755 C758 1.463 1_565 S
C755 C760 1.350 . S
C755 N763 1.427 1_565 S
C756 H747 0.930 . S
C756 C754 1.378 . S
C756 C757 1.367 . S
C757 C756 1.367 . S
C757 C759 1.433 . S
C758 C754 1.350 . S
C758 C755 1.463 1_545 S
C758 N762 1.427 . S
C759 H749 0.929 . S
C759 C757 1.433 . S
C759 N762 1.384 . S
C760 H751 0.929 . S
C760 C752 1.378 . S
C760 C755 1.350 . S
C761 H748 0.928 . S
C761 C753 1.433 . S
C761 N763 1.384 1_565 S
N762 C758 1.427 . S
N762 C759 1.384 . S
N763 C755 1.427 1_545 S
N763 C761 1.384 1_545 S
H764 C770 0.930 . S
H765 C774 0.930 . S
H766 C779 0.929 . S
H767 C777 0.929 . S
H768 C772 0.929 . S
H769 C778 0.929 . S
C770 H764 0.930 . S
C770 C771 1.367 . S
C770 C778 1.378 . S
C771 C770 1.367 . S
C771 C779 1.433 . S
C772 H768 0.929 . S
C772 C774 1.378 . S
C772 C776 1.350 1_556 S
C773 C776 1.463 . S
C773 C778 1.350 . S
C773 N781 1.427 . S
C774 H765 0.930 . S
C774 C772 1.378 . S
C774 C775 1.367 . S
C775 C774 1.367 . S
C775 C777 1.433 . S
C776 C772 1.350 1_554 S
C776 C773 1.463 . S
C776 N780 1.427 . S
C777 H767 0.929 . S
C777 C775 1.433 . S
C777 N780 1.384 1_556 S
C778 H769 0.929 . S
C778 C770 1.378 . S
C778 C773 1.350 . S
C779 H766 0.929 . S
C779 C771 1.433 . S
C779 N781 1.384 . S
N780 C776 1.427 . S
N780 C777 1.384 1_554 S
N781 C773 1.427 . S
N781 C779 1.384 . S
H782 C788 0.939 . S
H783 C792 0.930 . S
H784 C797 0.929 . S
H785 C795 0.929 . S
H786 C790 0.929 1_545 S
H787 C796 0.929 . S
C788 H782 0.939 . S
C788 C789 1.367 . S
C788 C796 1.378 1_545 S
C789 C788 1.367 . S
C789 C797 1.433 . S
C790 H786 0.929 1_565 S
C790 C792 1.378 . S
C790 C794 1.350 . S
C791 C794 1.463 1_545 S
C791 C796 1.350 1_545 S
C791 N799 1.427 . S
C792 H783 0.930 . S
C792 C790 1.378 . S
C792 C793 1.367 . S
C793 C792 1.367 . S
C793 C795 1.433 . S
C794 C790 1.350 . S
C794 C791 1.463 1_565 S
C794 N798 1.427 . S
C795 H785 0.929 . S
C795 C793 1.433 . S
C795 N798 1.384 . S
C796 H787 0.929 . S
C796 C788 1.378 1_565 S
C796 C791 1.350 1_565 S
C797 H784 0.929 . S
C797 C789 1.433 . S
C797 N799 1.384 . S
N798 C794 1.427 . S
N798 C795 1.384 . S
N799 C791 1.427 . S
N799 C797 1.384 . S
H800 C806 0.930 . S
H801 C810 0.930 . S
H802 C815 0.929 . S
H803 C813 0.929 . S
H804 C808 0.929 . S
H805 C814 0.929 . S
C806 H800 0.930 . S
C806 C807 1.367 . S
C806 C814 1.378 . S
C807 C806 1.367 . S
C807 C815 1.433 . S
C808 H804 0.929 . S
C808 C810 1.378 . S
C808 C812 1.350 . S
C809 C812 1.463 . S
C809 C814 1.350 . S
C809 N817 1.427 . S
C810 H801 0.930 . S
C810 C808 1.378 . S
C810 C811 1.367 . S
C811 C810 1.367 . S
C811 C813 1.433 . S
C812 C808 1.350 . S
C812 C809 1.463 . S
C812 N816 1.427 . S
C813 H803 0.929 . S
C813 C811 1.433 . S
C813 N816 1.384 . S
C814 H805 0.929 . S
C814 C806 1.378 . S
C814 C809 1.350 . S
C815 H802 0.929 . S
C815 C807 1.433 . S
C815 N817 1.384 . S
N816 C812 1.427 . S
N816 C813 1.384 . S
N817 C809 1.427 . S
N817 C815 1.384 . S
H818 C824 0.930 . S
H819 C828 0.930 . S
H820 C833 0.929 . S
H821 C831 0.929 . S
H822 C826 0.929 . S
H823 C832 0.929 . S
C824 H818 0.930 . S
C824 C825 1.367 . S
C824 C832 1.378 . S
C825 C824 1.367 . S
C825 C833 1.433 . S
C826 H822 0.929 . S
C826 C828 1.378 . S
C826 C830 1.350 . S
C827 C830 1.463 . S
C827 C832 1.350 . S
C827 N835 1.427 . S
C828 H819 0.930 . S
C828 C826 1.378 . S
C828 C829 1.367 . S
C829 C828 1.367 . S
C829 C831 1.433 . S
C830 C826 1.350 . S
C830 C827 1.463 . S
C830 N834 1.427 . S
C831 H821 0.929 . S
C831 C829 1.433 . S
C831 N834 1.384 . S
C832 H823 0.929 . S
C832 C824 1.378 . S
C832 C827 1.350 . S
C833 H820 0.929 . S
C833 C825 1.433 . S
C833 N835 1.384 . S
N834 C830 1.427 . S
N834 C831 1.384 . S
N835 C827 1.427 . S
N835 C833 1.384 . S
H836 C842 0.930 . S
H837 C846 0.930 . S
H838 C851 0.929 . S
H839 C849 0.929 . S
H840 C844 0.929 . S
H841 C850 0.929 . S
C842 H836 0.930 . S
C842 C843 1.367 . S
C842 C850 1.378 . S
C843 C842 1.367 . S
C843 C851 1.433 . S
C844 H840 0.929 . S
C844 C846 1.378 . S
C844 C848 1.350 . S
C845 C848 1.463 1_655 S
C845 C850 1.350 . S
C845 N853 1.427 . S
C846 H837 0.930 . S
C846 C844 1.378 . S
C846 C847 1.367 . S
C847 C846 1.367 . S
C847 C849 1.433 . S
C848 C844 1.350 . S
C848 C845 1.463 1_455 S
C848 N852 1.427 . S
C849 H839 0.929 . S
C849 C847 1.433 . S
C849 N852 1.384 . S
C850 H841 0.929 . S
C850 C842 1.378 . S
C850 C845 1.350 . S
C851 H838 0.929 . S
C851 C843 1.433 . S
C851 N853 1.384 . S
N852 C848 1.427 . S
N852 C849 1.384 . S
N853 C845 1.427 . S
N853 C851 1.384 . S
H854 C860 0.930 . S
H855 C864 0.930 . S
H856 C869 0.929 . S
H857 C867 0.929 . S
H858 C862 0.929 . S
H859 C868 0.929 . S
C860 H854 0.930 . S
C860 C861 1.367 . S
C860 C868 1.378 . S
C861 C860 1.367 . S
C861 C869 1.433 . S
C862 H858 0.929 . S
C862 C864 1.378 . S
C862 C866 1.350 . S
C863 C866 1.463 1_655 S
C863 C868 1.350 . S
C863 N871 1.427 . S
C864 H855 0.930 . S
C864 C862 1.378 . S
C864 C865 1.367 . S
C865 C864 1.367 . S
C865 C867 1.433 . S
C866 C862 1.350 . S
C866 C863 1.463 1_455 S
C866 N870 1.427 . S
C867 H857 0.929 . S
C867 C865 1.433 . S
C867 N870 1.384 . S
C868 H859 0.929 . S
C868 C860 1.378 . S
C868 C863 1.350 . S
C869 H856 0.929 . S
C869 C861 1.433 . S
C869 N871 1.384 . S
N870 C866 1.427 . S
N870 C867 1.384 . S
N871 C863 1.427 . S
N871 C869 1.384 . S
H872 C878 0.930 . S
H873 C882 0.930 . S
H874 C887 0.929 . S
H875 C885 0.929 . S
H876 C880 0.929 . S
H877 C886 0.929 . S
C878 H872 0.930 . S
C878 C879 1.367 . S
C878 C886 1.378 . S
C879 C878 1.367 . S
C879 C887 1.433 . S
C880 H876 0.929 . S
C880 C882 1.378 . S
C880 C884 1.350 . S
C881 C884 1.463 . S
C881 C886 1.350 . S
C881 N889 1.427 . S
C882 H873 0.930 . S
C882 C880 1.378 . S
C882 C883 1.367 . S
C883 C882 1.367 . S
C883 C885 1.433 . S
C884 C880 1.350 . S
C884 C881 1.463 . S
C884 N888 1.427 . S
C885 H875 0.929 . S
C885 C883 1.433 . S
C885 N888 1.384 . S
C886 H877 0.929 . S
C886 C878 1.378 . S
C886 C881 1.350 . S
C887 H874 0.929 . S
C887 C879 1.433 . S
C887 N889 1.384 . S
N888 C884 1.427 . S
N888 C885 1.384 . S
N889 C881 1.427 . S
N889 C887 1.384 . S
H890 C896 0.930 . S
H891 C900 0.930 . S
H892 C905 0.929 . S
H893 C903 0.929 . S
H894 C898 0.929 . S
H895 C904 0.929 . S
C896 H890 0.930 . S
C896 C897 1.367 . S
C896 C904 1.378 . S
C897 C896 1.367 . S
C897 C905 1.433 . S
C898 H894 0.929 . S
C898 C900 1.378 . S
C898 C902 1.350 . S
C899 C902 1.463 . S
C899 C904 1.350 . S
C899 N907 1.427 . S
C900 H891 0.930 . S
C900 C898 1.378 . S
C900 C901 1.367 . S
C901 C900 1.367 . S
C901 C903 1.433 . S
C902 C898 1.350 . S
C902 C899 1.463 . S
C902 N906 1.427 . S
C903 H893 0.929 . S
C903 C901 1.433 . S
C903 N906 1.384 . S
C904 H895 0.929 . S
C904 C896 1.378 . S
C904 C899 1.350 . S
C905 H892 0.929 . S
C905 C897 1.433 . S
C905 N907 1.384 . S
N906 C902 1.427 . S
N906 C903 1.384 . S
N907 C899 1.427 . S
N907 C905 1.384 . S
H908 C914 0.930 . S
H909 C918 0.930 . S
H910 C923 0.929 . S
H911 C921 0.929 . S
H912 C916 0.929 . S
H913 C922 0.929 . S
C914 H908 0.930 . S
C914 C915 1.367 . S
C914 C922 1.378 . S
C915 C914 1.367 . S
C915 C923 1.433 . S
C916 H912 0.929 . S
C916 C918 1.378 . S
C916 C920 1.350 . S
C917 C920 1.463 1_455 S
C917 C922 1.350 . S
C917 N925 1.427 . S
C918 H909 0.930 . S
C918 C916 1.378 . S
C918 C919 1.367 . S
C919 C918 1.367 . S
C919 C921 1.433 . S
C920 C916 1.350 . S
C920 C917 1.463 1_655 S
C920 N924 1.427 . S
C921 H911 0.929 . S
C921 C919 1.433 . S
C921 N924 1.384 . S
C922 H913 0.929 . S
C922 C914 1.378 . S
C922 C917 1.350 . S
C923 H910 0.929 . S
C923 C915 1.433 . S
C923 N925 1.384 . S
N924 C920 1.427 . S
N924 C921 1.384 . S
N925 C917 1.427 . S
N925 C923 1.384 . S
H926 C932 0.930 . S
H927 C936 0.930 . S
H928 C941 0.929 . S
H929 C939 0.929 . S
H930 C934 0.929 . S
H931 C940 0.929 . S
C932 H926 0.930 . S
C932 C933 1.367 . S
C932 C940 1.378 . S
C933 C932 1.367 . S
C933 C941 1.433 . S
C934 H930 0.929 . S
C934 C936 1.378 . S
C934 C938 1.350 . S
C935 C938 1.463 1_455 S
C935 C940 1.350 . S
C935 N943 1.427 . S
C936 H927 0.930 . S
C936 C934 1.378 . S
C936 C937 1.367 . S
C937 C936 1.367 . S
C937 C939 1.433 . S
C938 C934 1.350 . S
C938 C935 1.463 1_655 S
C938 N942 1.427 . S
C939 H929 0.929 . S
C939 C937 1.433 . S
C939 N942 1.384 . S
C940 H931 0.929 . S
C940 C932 1.378 . S
C940 C935 1.350 . S
C941 H928 0.929 . S
C941 C933 1.433 . S
C941 N943 1.384 . S
N942 C938 1.427 . S
N942 C939 1.384 . S
N943 C935 1.427 . S
N943 C941 1.384 . S
H944 C950 0.930 . S
H945 C954 0.930 . S
H946 C959 0.929 . S
H947 C957 0.929 . S
H948 C952 0.929 . S
H949 C958 0.929 . S
C950 H944 0.930 . S
C950 C951 1.367 . S
C950 C958 1.378 . S
C951 C950 1.367 . S
C951 C959 1.433 . S
C952 H948 0.929 . S
C952 C954 1.378 . S
C952 C956 1.350 . S
C953 C956 1.463 . S
C953 C958 1.350 . S
C953 N961 1.427 . S
C954 H945 0.930 . S
C954 C952 1.378 . S
C954 C955 1.367 . S
C955 C954 1.367 . S
C955 C957 1.433 . S
C956 C952 1.350 . S
C956 C953 1.463 . S
C956 N960 1.427 . S
C957 H947 0.929 . S
C957 C955 1.433 . S
C957 N960 1.384 . S
C958 H949 0.929 . S
C958 C950 1.378 . S
C958 C953 1.350 . S
C959 H946 0.929 . S
C959 C951 1.433 . S
C959 N961 1.384 . S
N960 C956 1.427 . S
N960 C957 1.384 . S
N961 C953 1.427 . S
N961 C959 1.384 . S
H962 C968 0.930 . S
H963 C972 0.930 . S
H964 C977 0.929 . S
H965 C975 0.929 . S
H966 C970 0.929 . S
H967 C976 0.929 . S
C968 H962 0.930 . S
C968 C969 1.367 . S
C968 C976 1.378 . S
C969 C968 1.367 . S
C969 C977 1.433 . S
C970 H966 0.929 . S
C970 C972 1.378 . S
C970 C974 1.350 . S
C971 C974 1.463 . S
C971 C976 1.350 . S
C971 N979 1.427 . S
C972 H963 0.930 . S
C972 C970 1.378 . S
C972 C973 1.367 . S
C973 C972 1.367 . S
C973 C975 1.433 . S
C974 C970 1.350 . S
C974 C971 1.463 . S
C974 N978 1.427 . S
C975 H965 0.929 . S
C975 C973 1.433 . S
C975 N978 1.384 . S
C976 H967 0.929 . S
C976 C968 1.378 . S
C976 C971 1.350 . S
C977 H964 0.929 . S
C977 C969 1.433 . S
C977 N979 1.384 . S
N978 C974 1.427 . S
N978 C975 1.384 . S
N979 C971 1.427 . S
N979 C977 1.384 . S
H980 C986 0.930 . S
H981 C990 0.930 . S
H982 C995 0.929 . S
H983 C993 0.929 . S
H984 C988 0.929 . S
H985 C994 0.929 . S
C986 H980 0.930 . S
C986 C987 1.367 . S
C986 C994 1.378 . S
C987 C986 1.367 . S
C987 C995 1.433 . S
C988 H984 0.929 . S
C988 C990 1.378 . S
C988 C992 1.350 . S
C989 C992 1.463 . S
C989 C994 1.350 . S
C989 N997 1.427 . S
C990 H981 0.930 . S
C990 C988 1.378 . S
C990 C991 1.367 . S
C991 C990 1.367 . S
C991 C993 1.433 . S
C992 C988 1.350 . S
C992 C989 1.463 . S
C992 N996 1.427 . S
C993 H983 0.929 . S
C993 C991 1.433 . S
C993 N996 1.384 . S
C994 H985 0.929 . S
C994 C986 1.378 . S
C994 C989 1.350 . S
C995 H982 0.929 . S
C995 C987 1.433 . S
C995 N997 1.384 . S
N996 C992 1.427 . S
N996 C993 1.384 . S
N997 C989 1.427 . S
N997 C995 1.384 . S
H998 C1004 0.930 . S
H999 C1008 0.930 . S
H1000 C1013 0.929 . S
H1001 C1011 0.929 . S
H1002 C1006 0.929 . S
H1003 C1012 0.929 . S
C1004 H998 0.930 . S
C1004 C1005 1.367 . S
C1004 C1012 1.378 . S
C1005 C1004 1.367 . S
C1005 C1013 1.433 . S
C1006 H1002 0.929 . S
C1006 C1008 1.378 . S
C1006 C1010 1.350 . S
C1007 C1010 1.463 . S
C1007 C1012 1.350 . S
C1007 N1015 1.427 . S
C1008 H999 0.930 . S
C1008 C1006 1.378 . S
C1008 C1009 1.367 . S
C1009 C1008 1.367 . S
C1009 C1011 1.433 . S
C1010 C1006 1.350 . S
C1010 C1007 1.463 . S
C1010 N1014 1.427 . S
C1011 H1001 0.929 . S
C1011 C1009 1.433 . S
C1011 N1014 1.384 . S
C1012 H1003 0.929 . S
C1012 C1004 1.378 . S
C1012 C1007 1.350 . S
C1013 H1000 0.929 . S
C1013 C1005 1.433 . S
C1013 N1015 1.384 . S
N1014 C1010 1.427 . S
N1014 C1011 1.384 . S
N1015 C1007 1.427 . S
N1015 C1013 1.384 . S
H1016 C1022 0.930 . S
H1017 C1026 0.930 . S
H1018 C1031 0.929 . S
H1019 C1029 0.929 . S
H1020 C1024 0.929 . S
H1021 C1030 0.929 . S
C1022 H1016 0.930 . S
C1022 C1023 1.367 . S
C1022 C1030 1.378 . S
C1023 C1022 1.367 . S
C1023 C1031 1.433 . S
C1024 H1020 0.929 . S
C1024 C1026 1.378 . S
C1024 C1028 1.350 . S
C1025 C1028 1.463 . S
C1025 C1030 1.350 . S
C1025 N1033 1.427 . S
C1026 H1017 0.930 . S
C1026 C1024 1.378 . S
C1026 C1027 1.367 . S
C1027 C1026 1.367 . S
C1027 C1029 1.433 . S
C1028 C1024 1.350 . S
C1028 C1025 1.463 . S
C1028 N1032 1.427 . S
C1029 H1019 0.929 . S
C1029 C1027 1.433 . S
C1029 N1032 1.384 . S
C1030 H1021 0.929 . S
C1030 C1022 1.378 . S
C1030 C1025 1.350 . S
C1031 H1018 0.929 . S
C1031 C1023 1.433 . S
C1031 N1033 1.384 . S
N1032 C1028 1.427 . S
N1032 C1029 1.384 . S
N1033 C1025 1.427 . S
N1033 C1031 1.384 . S
H1034 C1040 0.930 . S
H1035 C1044 0.930 . S
H1036 C1049 0.929 . S
H1037 C1047 0.929 . S
H1038 C1042 0.929 . S
H1039 C1048 0.929 . S
C1040 H1034 0.930 . S
C1040 C1041 1.367 . S
C1040 C1048 1.378 . S
C1041 C1040 1.367 . S
C1041 C1049 1.433 . S
C1042 H1038 0.929 . S
C1042 C1044 1.378 . S
C1042 C1046 1.350 . S
C1043 C1046 1.463 . S
C1043 C1048 1.350 . S
C1043 N1051 1.427 . S
C1044 H1035 0.930 . S
C1044 C1042 1.378 . S
C1044 C1045 1.367 . S
C1045 C1044 1.367 . S
C1045 C1047 1.433 . S
C1046 C1042 1.350 . S
C1046 C1043 1.463 . S
C1046 N1050 1.427 . S
C1047 H1037 0.929 . S
C1047 C1045 1.433 . S
C1047 N1050 1.384 . S
C1048 H1039 0.929 . S
C1048 C1040 1.378 . S
C1048 C1043 1.350 . S
C1049 H1036 0.929 . S
C1049 C1041 1.433 . S
C1049 N1051 1.384 . S
N1050 C1046 1.427 . S
N1050 C1047 1.384 . S
N1051 C1043 1.427 . S
N1051 C1049 1.384 . S
H1052 C1058 0.930 . S
H1053 C1062 0.930 . S
H1054 C1067 0.929 . S
H1055 C1065 0.929 . S
H1056 C1060 0.929 . S
H1057 C1066 0.929 . S
C1058 H1052 0.930 . S
C1058 C1059 1.367 . S
C1058 C1066 1.378 . S
C1059 C1058 1.367 . S
C1059 C1067 1.433 . S
C1060 H1056 0.929 . S
C1060 C1062 1.378 . S
C1060 C1064 1.350 . S
C1061 C1064 1.463 . S
C1061 C1066 1.350 . S
C1061 N1069 1.427 . S
C1062 H1053 0.930 . S
C1062 C1060 1.378 . S
C1062 C1063 1.367 . S
C1063 C1062 1.367 . S
C1063 C1065 1.433 . S
C1064 C1060 1.350 . S
C1064 C1061 1.463 . S
C1064 N1068 1.427 . S
C1065 H1055 0.929 . S
C1065 C1063 1.433 . S
C1065 N1068 1.384 . S
C1066 H1057 0.929 . S
C1066 C1058 1.378 . S
C1066 C1061 1.350 . S
C1067 H1054 0.929 . S
C1067 C1059 1.433 . S
C1067 N1069 1.384 . S
N1068 C1064 1.427 . S
N1068 C1065 1.384 . S
N1069 C1061 1.427 . S
N1069 C1067 1.384 . S
H1070 C1076 0.930 . S
H1071 C1080 0.930 . S
H1072 C1085 0.929 . S
H1073 C1083 0.929 . S
H1074 C1078 0.929 . S
H1075 C1084 0.929 . S
C1076 H1070 0.930 . S
C1076 C1077 1.367 . S
C1076 C1084 1.378 . S
C1077 C1076 1.367 . S
C1077 C1085 1.433 . S
C1078 H1074 0.929 . S
C1078 C1080 1.378 . S
C1078 C1082 1.350 . S
C1079 C1082 1.463 . S
C1079 C1084 1.350 . S
C1079 N1087 1.427 . S
C1080 H1071 0.930 . S
C1080 C1078 1.378 . S
C1080 C1081 1.367 . S
C1081 C1080 1.367 . S
C1081 C1083 1.433 . S
C1082 C1078 1.350 . S
C1082 C1079 1.463 . S
C1082 N1086 1.427 . S
C1083 H1073 0.929 . S
C1083 C1081 1.433 . S
C1083 N1086 1.384 . S
C1084 H1075 0.929 . S
C1084 C1076 1.378 . S
C1084 C1079 1.350 . S
C1085 H1072 0.929 . S
C1085 C1077 1.433 . S
C1085 N1087 1.384 . S
N1086 C1082 1.427 . S
N1086 C1083 1.384 . S
N1087 C1079 1.427 . S
N1087 C1085 1.384 . S
H1088 C1094 0.930 . S
H1089 C1098 0.930 . S
H1090 C1103 0.929 . S
H1091 C1101 0.929 . S
H1092 C1096 0.929 . S
H1093 C1102 0.929 . S
C1094 H1088 0.930 . S
C1094 C1095 1.367 . S
C1094 C1102 1.378 . S
C1095 C1094 1.367 . S
C1095 C1103 1.433 . S
C1096 H1092 0.929 . S
C1096 C1098 1.378 . S
C1096 C1100 1.350 . S
C1097 C1100 1.463 . S
C1097 C1102 1.350 . S
C1097 N1105 1.427 . S
C1098 H1089 0.930 . S
C1098 C1096 1.378 . S
C1098 C1099 1.367 . S
C1099 C1098 1.367 . S
C1099 C1101 1.433 . S
C1100 C1096 1.350 . S
C1100 C1097 1.463 . S
C1100 N1104 1.427 . S
C1101 H1091 0.929 . S
C1101 C1099 1.433 . S
C1101 N1104 1.384 . S
C1102 H1093 0.929 . S
C1102 C1094 1.378 . S
C1102 C1097 1.350 . S
C1103 H1090 0.929 . S
C1103 C1095 1.433 . S
C1103 N1105 1.384 . S
N1104 C1100 1.427 . S
N1104 C1101 1.384 . S
N1105 C1097 1.427 . S
N1105 C1103 1.384 . S
H1106 C1112 0.930 . S
H1107 C1116 0.930 1_455 S
H1108 C1121 0.929 . S
H1109 C1119 0.929 . S
H1110 C1114 0.929 . S
H1111 C1120 0.929 . S
C1112 H1106 0.930 . S
C1112 C1113 1.367 . S
C1112 C1120 1.378 . S
C1113 C1112 1.367 . S
C1113 C1121 1.433 . S
C1114 H1110 0.929 . S
C1114 C1116 1.378 . S
C1114 C1118 1.350 . S
C1115 C1118 1.463 . S
C1115 C1120 1.350 . S
C1115 N1123 1.427 . S
C1116 H1107 0.930 1_655 S
C1116 C1114 1.378 . S
C1116 C1117 1.367 . S
C1117 C1116 1.367 . S
C1117 C1119 1.433 1_565 S
C1118 C1114 1.350 . S
C1118 C1115 1.463 . S
C1118 N1122 1.427 . S
C1119 H1109 0.929 . S
C1119 C1117 1.433 1_545 S
C1119 N1122 1.384 1_545 S
C1120 H1111 0.929 . S
C1120 C1112 1.378 . S
C1120 C1115 1.350 . S
C1121 H1108 0.929 . S
C1121 C1113 1.433 . S
C1121 N1123 1.384 . S
N1122 C1118 1.427 . S
N1122 C1119 1.384 1_565 S
N1123 C1115 1.427 . S
N1123 C1121 1.384 . S
H1124 C1130 0.930 . S
H1125 C1134 0.930 . S
H1126 C1139 0.929 . S
H1127 C1137 0.929 . S
H1128 C1132 0.929 . S
H1129 C1138 0.929 . S
C1130 H1124 0.930 . S
C1130 C1131 1.367 . S
C1130 C1138 1.378 . S
C1131 C1130 1.367 . S
C1131 C1139 1.433 . S
C1132 H1128 0.929 . S
C1132 C1134 1.378 . S
C1132 C1136 1.350 . S
C1133 C1136 1.463 . S
C1133 C1138 1.350 . S
C1133 N1141 1.427 . S
C1134 H1125 0.930 . S
C1134 C1132 1.378 . S
C1134 C1135 1.367 . S
C1135 C1134 1.367 . S
C1135 C1137 1.433 . S
C1136 C1132 1.350 . S
C1136 C1133 1.463 . S
C1136 N1140 1.427 . S
C1137 H1127 0.929 . S
C1137 C1135 1.433 . S
C1137 N1140 1.384 . S
C1138 H1129 0.929 . S
C1138 C1130 1.378 . S
C1138 C1133 1.350 . S
C1139 H1126 0.929 . S
C1139 C1131 1.433 . S
C1139 N1141 1.384 . S
N1140 C1136 1.427 . S
N1140 C1137 1.384 . S
N1141 C1133 1.427 . S
N1141 C1139 1.384 . S
H1142 C1148 0.930 . S
H1143 C1152 0.930 . S
H1144 C1157 0.946 . S
H1145 C1155 0.929 . S
H1146 C1150 0.929 . S
H1147 C1156 0.929 . S
C1148 H1142 0.930 . S
C1148 C1149 1.367 . S
C1148 C1156 1.378 . S
C1149 C1148 1.367 . S
C1149 C1157 1.429 1_545 S
C1150 H1146 0.929 . S
C1150 C1152 1.378 . S
C1150 C1154 1.350 . S
C1151 C1154 1.463 . S
C1151 C1156 1.350 . S
C1151 N1159 1.427 . S
C1152 H1143 0.930 . S
C1152 C1150 1.378 . S
C1152 C1153 1.367 . S
C1153 C1152 1.367 . S
C1153 C1155 1.433 . S
C1154 C1150 1.350 . S
C1154 C1151 1.463 . S
C1154 N1158 1.427 . S
C1155 H1145 0.929 . S
C1155 C1153 1.433 . S
C1155 N1158 1.384 . S
C1156 H1147 0.929 . S
C1156 C1148 1.378 . S
C1156 C1151 1.350 . S
C1157 H1144 0.946 . S
C1157 C1149 1.429 1_565 S
C1157 N1159 1.372 1_565 S
N1158 C1154 1.427 . S
N1158 C1155 1.384 . S
N1159 C1151 1.427 . S
N1159 C1157 1.372 1_545 S
H1160 C1166 0.930 . S
H1161 C1170 0.930 . S
H1162 C1175 0.929 . S
H1163 C1173 0.929 . S
H1164 C1168 0.929 . S
H1165 C1174 0.929 . S
C1166 H1160 0.930 . S
C1166 C1167 1.367 . S
C1166 C1174 1.378 . S
C1167 C1166 1.367 . S
C1167 C1175 1.433 . S
C1168 H1164 0.929 . S
C1168 C1170 1.378 . S
C1168 C1172 1.350 . S
C1169 C1172 1.463 . S
C1169 C1174 1.350 . S
C1169 N1177 1.427 . S
C1170 H1161 0.930 . S
C1170 C1168 1.378 . S
C1170 C1171 1.367 . S
C1171 C1170 1.367 . S
C1171 C1173 1.433 . S
C1172 C1168 1.350 . S
C1172 C1169 1.463 . S
C1172 N1176 1.427 . S
C1173 H1163 0.929 . S
C1173 C1171 1.433 . S
C1173 N1176 1.384 . S
C1174 H1165 0.929 . S
C1174 C1166 1.378 . S
C1174 C1169 1.350 . S
C1175 H1162 0.929 . S
C1175 C1167 1.433 . S
C1175 N1177 1.384 . S
N1176 C1172 1.427 . S
N1176 C1173 1.384 . S
N1177 C1169 1.427 . S
N1177 C1175 1.384 . S
H1178 C1184 0.946 . S
H1179 C1188 0.930 . S
H1180 C1193 0.929 . S
H1181 C1191 0.929 . S
H1182 C1186 0.929 . S
H1183 C1192 0.929 . S
C1184 H1178 0.946 . S
C1184 C1185 1.363 1_565 S
C1184 C1192 1.366 1_565 S
C1185 C1184 1.363 1_545 S
C1185 C1193 1.433 . S
C1186 H1182 0.929 . S
C1186 C1188 1.378 . S
C1186 C1190 1.350 . S
C1187 C1190 1.463 . S
C1187 C1192 1.350 . S
C1187 N1195 1.427 . S
C1188 H1179 0.930 . S
C1188 C1186 1.378 . S
C1188 C1189 1.367 . S
C1189 C1188 1.367 . S
C1189 C1191 1.433 . S
C1190 C1186 1.350 . S
C1190 C1187 1.463 . S
C1190 N1194 1.427 . S
C1191 H1181 0.929 . S
C1191 C1189 1.433 . S
C1191 N1194 1.384 . S
C1192 H1183 0.929 . S
C1192 C1184 1.366 1_545 S
C1192 C1187 1.350 . S
C1193 H1180 0.929 . S
C1193 C1185 1.433 . S
C1193 N1195 1.384 . S
N1194 C1190 1.427 . S
N1194 C1191 1.384 . S
N1195 C1187 1.427 . S
N1195 C1193 1.384 . S
H1196 C1202 0.930 . S
H1197 C1206 0.930 . S
H1198 C1211 0.929 . S
H1199 C1209 0.929 . S
H1200 C1204 0.929 . S
H1201 C1210 0.929 . S
C1202 H1196 0.930 . S
C1202 C1203 1.367 . S
C1202 C1210 1.378 . S
C1203 C1202 1.367 . S
C1203 C1211 1.433 . S
C1204 H1200 0.929 . S
C1204 C1206 1.378 . S
C1204 C1208 1.350 . S
C1205 C1208 1.463 . S
C1205 C1210 1.350 . S
C1205 N1213 1.427 . S
C1206 H1197 0.930 . S
C1206 C1204 1.378 . S
C1206 C1207 1.367 . S
C1207 C1206 1.367 . S
C1207 C1209 1.433 . S
C1208 C1204 1.350 . S
C1208 C1205 1.463 . S
C1208 N1212 1.427 . S
C1209 H1199 0.929 . S
C1209 C1207 1.433 . S
C1209 N1212 1.384 . S
C1210 H1201 0.929 . S
C1210 C1202 1.378 . S
C1210 C1205 1.350 . S
C1211 H1198 0.929 . S
C1211 C1203 1.433 . S
C1211 N1213 1.384 . S
N1212 C1208 1.427 . S
N1212 C1209 1.384 . S
N1213 C1205 1.427 . S
N1213 C1211 1.384 . S
H1214 C1220 0.930 . S
H1215 C1224 0.930 . S
H1216 C1229 0.929 . S
H1217 C1227 0.929 . S
H1218 C1222 0.929 1_545 S
H1219 C1228 0.929 . S
C1220 H1214 0.930 . S
C1220 C1221 1.367 . S
C1220 C1228 1.378 . S
C1221 C1220 1.367 . S
C1221 C1229 1.433 . S
C1222 H1218 0.929 1_565 S
C1222 C1224 1.378 1_565 S
C1222 C1226 1.350 . S
C1223 C1226 1.463 . S
C1223 C1228 1.350 . S
C1223 N1231 1.427 . S
C1224 H1215 0.930 . S
C1224 C1222 1.378 1_545 S
C1224 C1225 1.367 1_545 S
C1225 C1224 1.367 1_565 S
C1225 C1227 1.433 . S
C1226 C1222 1.350 . S
C1226 C1223 1.463 . S
C1226 N1230 1.427 . S
C1227 H1217 0.929 . S
C1227 C1225 1.433 . S
C1227 N1230 1.384 . S
C1228 H1219 0.929 . S
C1228 C1220 1.378 . S
C1228 C1223 1.350 . S
C1229 H1216 0.929 . S
C1229 C1221 1.433 . S
C1229 N1231 1.384 . S
N1230 C1226 1.427 . S
N1230 C1227 1.384 . S
N1231 C1223 1.427 . S
N1231 C1229 1.384 . S
C375 C16 0.980 . S
C379 C292 0.980 . S
C393 C131 0.992 . S
C397 C39 0.992 . S
C411 C62 0.979 . S
C415 C338 0.979 . S
C429 C85 0.981 . S
C433 C177 0.981 . S
C447 C108 0.992 . S
C451 C200 0.992 . S
C465 C246 0.977 . S
C469 C154 0.977 . S
C483 C315 0.992 . S
C487 C223 0.992 . S
C501 C269 0.981 . S
C505 C361 0.981 . S
C519 C225 1.606 . S
C523 C17 1.533 . S
C537 C40 1.545 . S
C541 C248 1.601 . S
C555 C63 1.537 . S
C559 C271 1.603 . S
C573 C202 1.604 . S
C577 C86 1.544 . S
C591 C317 1.606 . S
C595 C109 1.537 . S
C609 C340 1.604 . S
C613 C132 1.537 . S
C627 C155 1.533 . S
C631 C363 1.607 . S
C645 C294 1.606 . S
C649 C178 1.539 . S
C663 C201 1.545 . S
C667 C41 1.604 . S
C681 C224 1.532 . S
C685 C64 1.606 . S
C699 C247 1.538 . S
C703 C87 1.606 . S
C717 C18 1.607 . S
C721 C270 1.535 . S
C735 C133 1.602 . S
C739 C293 1.541 . S
C753 C316 1.548 . S
C757 C156 1.601 . S
C771 C179 1.607 . S
C775 C339 1.534 . S
C789 C362 1.538 . S
C793 C110 1.606 . S
C807 C20 1.371 . S
C811 C250 1.381 . S
C825 C43 1.377 . S
C829 C273 1.382 . S
C843 C204 1.372 . S
C847 C66 1.381 . S
C861 C89 1.374 . S
C865 C227 1.382 . S
C879 C112 1.381 . S
C883 C342 1.370 . S
C897 C135 1.377 . S
C901 C365 1.367 . S
C915 C296 1.364 . S
C919 C158 1.372 . S
C933 C181 1.382 . S
C937 C319 1.373 . S
C951 C21 1.268 . S
C955 C180 1.245 . S
C969 C295 1.250 . S
C973 C44 1.274 . S
C987 C67 1.271 . S
C991 C134 1.250 . S
C1005 C90 1.274 1_455 S
C1009 C341 1.251 . S
C1023 C113 1.268 . S
C1027 C88 1.236 . S
C1041 C203 1.250 . S
C1045 C136 1.271 . S
C1059 C159 1.268 . S
C1063 C42 1.236 . S
C1077 C249 1.249 . S
C1081 C182 1.270 1_655 S
C1095 C205 1.270 . S
C1099 C364 1.249 . S
C1113 C111 1.242 . S
C1117 C228 1.267 1_665 S
C1131 C318 1.251 . S
C1135 C251 1.274 . S
C1149 C274 1.271 1_545 S
C1153 C157 1.251 . S
C1167 C297 1.268 . S
C1171 C272 1.237 . S
C1185 C320 1.275 1_445 S
C1189 C19 1.250 . S
C1203 C226 1.248 . S
C1207 C343 1.269 . S
C1221 C65 1.239 . S
C1225 C366 1.272 1_565 S
