# Generated by pormake.
# Topology qtz-x, (6)-cn, num edge types: 1
# Building blocks:
#     Node 0, Type 0, BuildingBlock: BETGAK_clean_sbu_0, # of connection points: 6
#     Node 1, Type 0, BuildingBlock: BETGAK_clean_sbu_0, # of connection points: 6
#     Node 2, Type 0, BuildingBlock: BETGAK_clean_sbu_0, # of connection points: 6
#     Edge 3, Type (0, 0), BuildingBlock: ZUJKAS_clean_linker_0, # of connection points: 2
#     Edge 4, Type (0, 0), BuildingBlock: ZUJKAS_clean_linker_0, # of connection points: 2
#     Edge 5, Type (0, 0), BuildingBlock: ZUJKAS_clean_linker_0, # of connection points: 2
#     Edge 6, Type (0, 0), BuildingBlock: ZUJKAS_clean_linker_0, # of connection points: 2
#     Edge 7, Type (0, 0), BuildingBlock: ZUJKAS_clean_linker_0, # of connection points: 2
#     Edge 8, Type (0, 0), BuildingBlock: ZUJKAS_clean_linker_0, # of connection points: 2
#     Edge 9, Type (0, 0), BuildingBlock: ZUJKAS_clean_linker_0, # of connection points: 2
#     Edge 10, Type (0, 0), BuildingBlock: ZUJKAS_clean_linker_0, # of connection points: 2
#     Edge 11, Type (0, 0), BuildingBlock: ZUJKAS_clean_linker_0, # of connection points: 2
# Relax obj value: 0.182
# Max RMSD: 0.239
# Mean RMSD: 0.221
data_MOF--net-qtz-x--node1-BETGAK_clean_sbu_0--edge1-ZUJKAS_clean_linker_0
_symmetry_space_group_name_H-M    P1
_symmetry_Int_Tables_number       1
_symmetry_cell_setting            triclinic
loop_
_symmetry_equiv_pos_as_xyz
'x, y, z'
_cell_length_a     18.941264
_cell_length_b     18.982305
_cell_length_c     65.68134
_cell_angle_alpha  72.084178
_cell_angle_beta   110.3643
_cell_angle_gamma 120.8018
loop_
_atom_site_label
_atom_site_type_symbol
_atom_site_fract_x
_atom_site_fract_y
_atom_site_fract_z
_atom_type_partial_charge
La0 La 1.01749 0.5966 0.1981 0.0
La1 La 0.18594 0.70907 0.1895 0.0
C2 C 0.89741 0.47951 0.21478 0.0
C3 C 0.88208 0.44958 0.23723 0.0
C4 C 0.80775 0.43887 0.24059 0.0
C5 C 0.79296 0.41305 0.26174 0.0
C6 C 0.85212 0.39693 0.28006 0.0
C7 C 0.92648 0.40738 0.2766 0.0
C8 C 0.94137 0.43353 0.25545 0.0
C9 C 0.0517 0.75506 0.18821 0.0
C10 C 0.17818 0.66901 0.23775 0.0
C11 C 0.3079 0.81913 0.1727 0.0
C12 C 0.33133 0.82099 0.15333 0.0
C13 C 0.30559 0.74623 0.14662 0.0
C14 C 0.32586 0.74713 0.12802 0.0
C15 C 0.37124 0.82281 0.11557 0.0
C16 C 0.39582 0.89772 0.12211 0.0
C17 C 0.37622 0.89675 0.14092 0.0
C18 C 0.14882 0.54934 0.19829 0.0
C19 C 1.02552 0.64551 0.14917 0.0
O20 O 0.90051 0.55223 0.2054 0.0
O21 O 0.95643 0.47053 0.21145 0.0
O22 O 0.97807 0.69425 0.1823 0.0
O23 O 0.10224 0.72595 0.2002 0.0
O24 O 0.1024 0.60777 0.23142 0.0
O25 O 0.21901 0.72744 0.22308 0.0
O26 O 0.31397 0.76189 0.18947 0.0
O27 O 0.23694 0.82256 0.1686 0.0
O28 O 0.22289 0.60896 0.20423 0.0
O29 O 0.1001 0.5807 0.18672 0.0
O30 O 0.10368 0.70117 0.1563 0.0
O31 O 0.97974 0.58816 0.16315 0.0
H32 H 0.76131 0.45131 0.22683 0.0
H33 H 0.73565 0.40708 0.26374 0.0
H34 H 0.97303 0.39458 0.2902 0.0
H35 H 0.99951 0.44143 0.25343 0.0
H36 H 0.26938 0.68698 0.15573 0.0
H37 H 0.30484 0.68852 0.12318 0.0
H38 H 0.43099 0.95691 0.11282 0.0
H39 H 0.39576 0.95501 0.14573 0.0
La40 La 0.77144 0.14017 0.54833 0.0
La41 La 0.70559 0.96738 0.54269 0.0
C42 C 0.80366 0.26995 0.56015 0.0
C43 C 0.81316 0.2932 0.58075 0.0
C44 C 0.888 0.36087 0.58872 0.0
C45 C 0.90048 0.38303 0.60854 0.0
C46 C 0.83792 0.33836 0.62069 0.0
C47 C 0.76249 0.27095 0.61262 0.0
C48 C 0.75036 0.24817 0.59287 0.0
C49 C 0.88478 0.10599 0.54463 0.0
C50 C 0.75291 -0.00391 0.59023 0.0
C51 C 0.67479 0.83991 0.52988 0.0
C52 C 0.64365 0.81581 0.50785 0.0
C53 C 0.57319 0.73906 0.50402 0.0
C54 C 0.53668 0.71914 0.48274 0.0
C55 C 0.56961 0.77587 0.46477 0.0
C56 C 0.64213 0.85157 0.46883 0.0
C57 C 0.67891 0.87114 0.49012 0.0
C58 C 0.59158 0.00126 0.54609 0.0
C59 C 0.72287 0.11344 0.5005 0.0
O60 O 0.8616 0.25182 0.5602 0.0
O61 O 0.7279 0.21878 0.55063 0.0
O62 O 0.88116 0.17569 0.53644 0.0
O63 O 0.82837 0.05913 0.5554 0.0
O64 O 0.75259 0.06852 0.58101 0.0
O65 O 0.74845 0.94821 0.57838 0.0
O66 O 0.62071 0.84531 0.53661 0.0
O67 O 0.75046 0.90198 0.53413 0.0
O68 O 0.59431 0.93104 0.55402 0.0
O69 O 0.64862 0.04821 0.53553 0.0
O70 O 0.71287 0.03681 0.50907 0.0
O71 O 0.73754 0.16501 0.51279 0.0
H72 H 0.93722 0.39641 0.57965 0.0
H73 H 0.95877 0.43584 0.61423 0.0
H74 H 0.71352 0.23513 0.62176 0.0
H75 H 0.69224 0.19517 0.5872 0.0
H76 H 0.54507 0.69525 0.51743 0.0
H77 H 0.48203 0.65955 0.48036 0.0
H78 H 0.66889 0.89734 0.45546 0.0
H79 H 0.73338 0.93082 0.49255 0.0
La80 La 0.74331 0.78925 0.86448 0.0
La81 La 0.87307 0.73344 0.87209 0.0
C82 C 0.62069 0.80221 0.86689 0.0
C83 C 0.58874 0.79498 0.88535 0.0
C84 C 0.57575 0.8599 0.88649 0.0
C85 C 0.5525 0.85802 0.90471 0.0
C86 C 0.54125 0.79078 0.92218 0.0
C87 C 0.55249 0.72481 0.92074 0.0
C88 C 0.57624 0.72698 0.90255 0.0
C89 C 0.8961 0.90957 0.86277 0.0
C90 C 0.83801 0.73981 0.91368 0.0
C91 C 0.99509 0.72118 0.86911 0.0
C92 C 1.00916 0.70462 0.85066 0.0
C93 C 1.0186 0.63343 0.85327 0.0
C94 C 1.01647 0.60842 0.83505 0.0
C95 C 1.00467 0.65417 0.81388 0.0
C96 C 1.00066 0.72824 0.81152 0.0
C97 C 1.00293 0.75329 0.82971 0.0
C98 C 0.72 0.61277 0.87349 0.0
C99 C 0.77674 0.78092 0.82252 0.0
O100 O 0.69446 0.8654 0.86535 0.0
O101 O 0.61397 0.73417 0.86357 0.0
O102 O 0.82729 0.91301 0.85045 0.0
O103 O 0.878 0.84261 0.87624 0.0
O104 O 0.76978 0.74616 0.90032 0.0
O105 O 0.89691 0.74623 0.90584 0.0
O106 O 0.93283 0.65955 0.87756 0.0
O107 O 0.99501 0.79244 0.86649 0.0
O108 O 0.78867 0.60852 0.88557 0.0
O109 O 0.73868 0.68025 0.86027 0.0
O110 O 0.83964 0.76504 0.83594 0.0
O111 O 0.72335 0.78567 0.8301 0.0
H112 H 0.58565 0.91323 0.87348 0.0
H113 H 0.54574 0.91053 0.90536 0.0
H114 H 0.54328 0.6715 0.93371 0.0
H115 H 0.58622 0.6761 0.90218 0.0
H116 H 1.02344 0.59491 0.86925 0.0
H117 H 1.01952 0.55093 0.83737 0.0
H118 H 0.99298 0.76549 0.79545 0.0
H119 H 0.99589 0.80876 0.82711 0.0
H120 H 0.93961 0.81854 0.16737 0.0
H121 H 0.95621 0.95423 0.16836 0.0
H122 H 0.20826 0.01726 0.20903 0.0
H123 H 0.19236 0.88188 0.20782 0.0
H124 H 0.98493 0.01655 0.2048 0.0
H125 H 0.24532 0.2223 0.16175 0.0
H126 H 0.18527 0.11207 0.16108 0.0
H127 H 0.26839 0.15019 0.18471 0.0
C128 C 0.99896 0.86172 0.17631 0.0
C129 C 0.06474 0.83964 0.1875 0.0
C130 C 1.00827 0.93918 0.17691 0.0
C131 C 0.08373 -0.00354 0.18859 0.0
C132 C 0.15001 0.97489 0.19956 0.0
H133 H 0.25815 0.48256 0.21845 0.0
H134 H 0.23878 0.34687 0.21647 0.0
C135 C 0.14076 0.89735 0.19894 0.0
C136 C 0.09145 0.07707 0.19003 0.0
H137 H 0.20896 0.28773 0.17926 0.0
C138 C 1.03363 0.07588 0.1991 0.0
C139 C 0.155 0.15454 0.1826 0.0
C140 C 0.21659 0.16024 0.1718 0.0
C141 C 1.03873 0.14977 0.2014 0.0
C142 C 0.10257 0.22722 0.19408 0.0
C143 C 0.16014 0.22841 0.18491 0.0
C144 C 0.11172 0.30785 0.19603 0.0
C145 C 0.97707 0.14414 0.21217 0.0
C146 C 0.04661 0.33123 0.18526 0.0
C147 C 0.05747 0.40886 0.18644 0.0
C148 C 0.13393 0.46474 0.19826 0.0
C149 C 0.19851 0.44082 0.20922 0.0
C150 C 0.18761 0.36335 0.20806 0.0
H151 H 0.947 0.0816 0.22187 0.0
H152 H 1.00881 0.19131 0.2232 0.0
H153 H 0.92629 0.15597 0.19926 0.0
H154 H 0.98806 0.29023 0.17554 0.0
H155 H 1.00681 0.42584 0.17772 0.0
H156 H 0.46697 0.90036 0.56802 0.0
H157 H 0.3479 0.91856 0.56768 0.0
H158 H 0.43791 0.15248 0.52429 0.0
H159 H 0.55843 0.13469 0.52471 0.0
H160 H 0.3859 0.158 0.55885 0.0
H161 H 0.13999 0.8885 0.51706 0.0
H162 H 0.20938 0.86308 0.54135 0.0
H163 H 0.25076 0.93188 0.51796 0.0
C164 C 0.46152 0.95574 0.55836 0.0
C165 C 0.52181 0.01581 0.54624 0.0
C166 C 0.39299 0.96581 0.55809 0.0
C167 C 0.3826 0.03598 0.54558 0.0
C168 C 0.44405 0.09739 0.53391 0.0
H169 H 1.00979 0.20758 0.52282 0.0
H170 H 0.12939 0.18999 0.52328 0.0
C171 C 0.51293 0.08728 0.53417 0.0
C172 C 0.30805 0.04509 0.54498 0.0
H173 H 0.09162 0.9506 0.53207 0.0
C174 C 0.3216 0.11297 0.55286 0.0
C175 C 0.22389 -0.01393 0.53729 0.0
C176 C 0.20484 0.91366 0.52774 0.0
C177 C 0.25362 0.12256 0.55363 0.0
C178 C 0.16945 0.06352 0.54594 0.0
C179 C 0.15592 -0.00434 0.53807 0.0
C180 C 0.09484 0.07252 0.54535 0.0
C181 C 0.27265 0.19495 0.56318 0.0
C182 C 1.03335 0.01091 0.55699 0.0
C183 C 0.96417 0.02066 0.55666 0.0
C184 C 0.955 0.09197 0.54455 0.0
C185 C 1.01541 0.1523 0.53249 0.0
C186 C 0.08427 0.14259 0.53284 0.0
H187 H 0.33752 0.22016 0.57385 0.0
H188 H 0.26805 0.24551 0.54957 0.0
H189 H 0.22675 0.17671 0.57297 0.0
H190 H 1.03962 0.95588 0.56661 0.0
H191 H 0.91853 0.973 0.56605 0.0
H192 H 0.0445 0.9212 0.89189 0.0
H193 H 0.18463 0.04195 0.89371 0.0
H194 H 0.08005 0.17709 0.83689 0.0
H195 H 0.94012 0.05724 0.83513 0.0
H196 H 0.28249 0.1267 0.86217 0.0
H197 H 0.19907 0.33485 0.88203 0.0
H198 H 0.13324 0.22395 0.88412 0.0
H199 H 0.1308 0.28967 0.85774 0.0
C200 C 0.0516 0.97668 0.87979 0.0
C201 C 0.98147 0.9802 0.86347 0.0
C202 C 0.13152 0.04555 0.88085 0.0
C203 C 0.14241 0.11907 0.8657 0.0
C204 C 0.07274 0.12176 0.84906 0.0
H205 H 0.57247 0.60135 0.84389 0.0
H206 H 0.43191 0.48118 0.84196 0.0
C207 C 0.99296 0.05307 0.848 0.0
C208 C 0.22675 0.19272 0.8671 0.0
H209 H 0.33296 0.39681 0.87365 0.0
C210 C 0.2937 0.18565 0.8648 0.0
C211 C 0.2411 0.26966 0.87045 0.0
C212 C 0.17253 0.28012 0.87393 0.0
C213 C 0.37431 0.25383 0.86538 0.0
C214 C 0.38866 0.33074 0.86875 0.0
C215 C 0.32171 0.33786 0.87102 0.0
C216 C 0.4731 0.40419 0.87025 0.0
C217 C 0.44296 0.24342 0.86193 0.0
C218 C 0.5423 0.40135 0.88707 0.0
C219 C 0.62227 0.46976 0.88822 0.0
C220 C 0.63442 0.54247 0.87265 0.0
C221 C 0.56479 0.5461 0.85612 0.0
C222 C 0.48464 0.47754 0.85498 0.0
H223 H 0.41652 0.18851 0.85391 0.0
H224 H 0.48205 0.2995 0.85168 0.0
H225 H 0.48487 0.23427 0.87812 0.0
H226 H 0.53447 0.34609 0.8993 0.0
H227 H 0.67474 0.46552 0.90124 0.0
H228 H 0.60048 0.73679 0.96538 0.0
H229 H 0.56778 0.73913 0.99792 0.0
H230 H 0.40712 0.85255 0.95681 0.0
H231 H 0.43549 0.84608 0.92409 0.0
H232 H 0.59992 0.86949 1.01366 0.0
H233 H 0.25387 0.66819 0.9946 0.0
H234 H 0.32193 0.67636 0.97953 0.0
H235 H 0.2873 0.7547 0.97315 0.0
C236 C 0.55662 0.7605 0.96317 0.0
C237 C 0.52016 0.7907 0.94203 0.0
C238 C 0.53864 0.76252 0.98185 0.0
C239 C 0.48392 0.79479 0.97982 0.0
C240 C 0.44793 0.82554 0.95878 0.0
H241 H 0.35209 0.91526 0.07472 0.0
H242 H 0.38168 0.91068 0.04171 0.0
C243 C 0.46526 0.8229 0.94008 0.0
C244 C 0.46728 0.79928 0.99976 0.0
H245 H 0.30952 0.74379 1.0242 0.0
C246 C 0.53643 0.84155 1.016 0.0
C247 C 0.38436 0.76266 1.00285 0.0
C248 C 0.3077 0.71222 0.98671 0.0
C249 C 0.52481 0.84914 1.03506 0.0
C250 C 0.44205 0.81373 0.03791 0.0
C251 C 0.37286 0.77146 1.02177 0.0
C252 C 0.42627 0.81812 0.05789 0.0
C253 C 0.60081 0.89554 0.05199 0.0
C254 C 0.44157 0.76749 0.07778 0.0
C255 C 0.42443 0.76967 0.09656 0.0
C256 C 0.39213 0.82293 0.09578 0.0
C257 C 0.37777 0.8743 0.07585 0.0
C258 C 0.39416 0.87145 0.057 0.0
H259 H 0.65986 0.92879 0.04601 0.0
H260 H 0.5913 0.94117 0.0566 0.0
H261 H 0.60871 0.85092 0.06708 0.0
H262 H 0.46604 0.72573 0.07871 0.0
H263 H 0.43667 0.72984 0.11173 0.0
H264 H 0.66309 0.0207 0.46815 0.0
H265 H 0.68135 0.07018 0.43041 0.0
H266 H 0.80298 0.32358 0.44137 0.0
H267 H 0.78534 0.27442 0.47923 0.0
H268 H 0.6869 0.29597 0.40019 0.0
H269 H 0.91157 0.16971 0.41552 0.0
H270 H 0.81198 0.0947 0.42229 0.0
H271 H 0.88221 0.17946 0.43752 0.0
C272 C 0.69388 0.0869 0.46257 0.0
C273 C 0.72405 0.14346 0.47685 0.0
C274 C 0.70428 0.11514 0.44097 0.0
C275 C 0.74525 0.20059 0.43321 0.0
C276 C 0.77176 0.25734 0.44707 0.0
H277 H 0.96683 0.44029 0.31913 0.0
H278 H 0.94059 0.39397 0.35606 0.0
C279 C 0.76136 0.2291 0.46869 0.0
C280 C 0.76212 0.23073 0.41084 0.0
H281 H 0.86708 0.22565 0.37862 0.0
C282 C 0.7263 0.28066 0.39546 0.0
C283 C 0.81458 0.21169 0.4048 0.0
C284 C 0.85803 0.16159 0.42092 0.0
C285 C 0.74021 0.31067 0.37408 0.0
C286 C 0.79073 0.28969 0.36787 0.0
C287 C 0.82779 0.24107 0.38337 0.0
C288 C 0.80616 0.31784 0.34538 0.0
C289 C 0.70175 0.36558 0.35835 0.0
C290 C 0.73945 0.28953 0.32714 0.0
C291 C 0.75432 0.31502 0.30601 0.0
C292 C 0.83634 0.36952 0.30264 0.0
C293 C 0.90308 0.39746 0.32105 0.0
C294 C 0.88816 0.37151 0.34219 0.0
H295 H 0.68075 0.39087 0.36702 0.0
H296 H 0.74761 0.41821 0.34902 0.0
H297 H 0.64586 0.32877 0.34634 0.0
H298 H 0.67593 0.24683 0.32929 0.0
H299 H 0.7016 0.29084 0.29236 0.0
H300 H 0.83635 0.72861 0.8007 0.0
H301 H 0.83112 0.75995 0.76127 0.0
H302 H 0.69035 0.89394 0.75023 0.0
H303 H 0.69576 0.86326 0.78973 0.0
H304 H 0.67417 0.72756 0.72293 0.0
H305 H 0.91188 0.05908 0.72489 0.0
H306 H 0.90419 0.9806 0.74919 0.0
H307 H 0.82737 0.01932 0.73829 0.0
C308 C 0.80447 0.76492 0.78991 0.0
C309 C 0.76737 0.79428 0.79841 0.0
C310 C 0.80105 0.78226 0.76736 0.0
C311 C 0.76106 0.82988 0.75287 0.0
C312 C 0.72209 0.85758 0.76118 0.0
H313 H 0.72469 0.06075 0.61663 0.0
H314 H 0.72567 0.01581 0.65562 0.0
C315 C 0.72487 0.83966 0.78373 0.0
C316 C 0.76178 0.85222 0.72916 0.0
H317 H 0.8473 0.01577 0.6902 0.0
C318 C 0.71207 0.79045 0.71571 0.0
C319 C 0.81137 0.93424 0.71986 0.0
C320 C 0.86733 0.00238 0.73373 0.0
C321 C 0.70866 0.8091 0.693 0.0
C322 C 0.75845 0.8914 0.68362 0.0
C323 C 0.80908 0.95274 0.69727 0.0
C324 C 0.7567 0.91656 0.65961 0.0
C325 C 0.64939 0.74099 0.67923 0.0
C326 C 0.77442 0.87636 0.64864 0.0
C327 C 0.77276 0.90139 0.62607 0.0
C328 C 0.75513 0.9683 0.61413 0.0
C329 C 0.73884 0.00916 0.62526 0.0
C330 C 0.73936 -0.01653 0.64764 0.0
H331 H 0.59903 0.68961 0.68745 0.0
H332 H 0.61902 0.76515 0.66287 0.0
H333 H 0.68561 0.71462 0.6767 0.0
H334 H 0.79042 0.82616 0.65755 0.0
H335 H 0.78631 0.86907 0.61806 0.0
H336 H 0.96691 0.71993 0.94648 0.0
H337 H 0.98152 0.69328 0.98623 0.0
H338 H 0.74575 0.69742 0.97562 0.0
H339 H 0.73119 0.7253 0.93585 0.0
H340 H 0.86977 0.7891 1.00709 0.0
H341 H 0.85547 0.47814 1.02446 0.0
H342 H 0.93475 0.55541 1.00976 0.0
H343 H 0.825 0.52743 0.99695 0.0
C344 C 0.91796 0.71499 0.95255 0.0
C345 C 0.84768 0.72452 0.93788 0.0
C346 C 0.92608 0.699 0.97533 0.0
C347 C 0.86389 0.69159 0.98395 0.0
C348 C 0.79419 0.70208 0.96937 0.0
H349 H 0.87446 0.53489 0.12627 0.0
H350 H 0.82426 0.54128 0.08607 0.0
C351 C 0.786 0.71808 0.9466 0.0
C352 C 0.87359 0.67651 1.00819 0.0
H353 H 0.90747 0.5465 0.0556 0.0
C354 C 0.87703 0.73554 1.01765 0.0
C355 C 0.88158 0.60588 1.022 0.0
C356 C 0.87315 0.53763 1.01278 0.0
C357 C 0.89232 0.72794 0.04057 0.0
C358 C 0.90553 0.66004 0.05444 0.0
C359 C 0.89805 0.5989 0.04496 0.0
C360 C 0.93393 0.65536 0.07875 0.0
C361 C 0.89526 0.79332 0.04977 0.0
C362 C 1.01247 0.71654 0.08794 0.0
C363 C 1.04123 0.71294 0.1107 0.0
C364 C 0.99224 0.64783 0.12498 0.0
C365 C 0.91352 0.58607 0.11578 0.0
C366 C 0.88485 0.58957 0.09283 0.0
H367 H 0.86042 0.82658 0.03735 0.0
H368 H 0.86803 0.76546 0.06449 0.0
H369 H 0.96204 0.83975 0.05475 0.0
H370 H 0.05215 0.76697 0.07744 0.0
H371 H 0.1024 0.76152 0.11707 0.0
H372 H 0.0999 0.58576 0.27214 0.0
H373 H 0.16194 0.6011 0.31101 0.0
H374 H 0.40341 0.77911 0.2958 0.0
H375 H 0.34147 0.766 0.25697 0.0
H376 H 0.28765 0.5723 0.3407 0.0
H377 H 0.37768 0.90677 0.32897 0.0
H378 H 0.30948 0.84493 0.30738 0.0
H379 H 0.42252 0.88679 0.31273 0.0
C380 C 0.16618 0.62824 0.27708 0.0
C381 C 0.21556 0.67527 0.26143 0.0
C382 C 0.20156 0.63701 0.29931 0.0
C383 C 0.28694 0.69277 0.30629 0.0
C384 C 0.3368 0.73773 0.29075 0.0
H385 H 0.64231 0.81462 0.4306 0.0
H386 H 0.57097 0.79177 0.39251 0.0
C387 C 0.30136 0.72972 0.26855 0.0
C388 C 0.32458 0.70309 0.32983 0.0
H389 H 0.4388 0.84907 0.36396 0.0
C390 C 0.31999 0.6327 0.3458 0.0
C391 C 0.36641 0.78192 0.33654 0.0
C392 C 0.36859 0.85921 0.32053 0.0
C393 C 0.35827 0.63945 0.36815 0.0
C394 C 0.40217 0.7185 0.37466 0.0
C395 C 0.40579 0.78866 0.35882 0.0
C396 C 0.44483 0.72983 0.3979 0.0
C397 C 0.35323 0.56243 0.38464 0.0
C398 C 0.39736 0.70291 0.41348 0.0
C399 C 0.43781 0.71685 0.43521 0.0
C400 C 0.5267 0.75782 0.44182 0.0
C401 C 0.5739 0.7839 0.42611 0.0
C402 C 0.5333 0.77047 0.40435 0.0
H403 H 0.32796 0.50793 0.37656 0.0
H404 H 0.41666 0.57336 0.39547 0.0
H405 H 0.31106 0.54732 0.39522 0.0
H406 H 0.32893 0.67249 0.40872 0.0
H407 H 0.3992 0.69737 0.44666 0.0
H408 H 0.8832 0.64695 0.77596 0.0
H409 H 0.85394 0.58823 0.74396 0.0
H410 H 0.06249 0.52849 0.77516 0.0
H411 H 0.09157 0.58654 0.80742 0.0
H412 H 0.95076 0.63197 0.71597 0.0
H413 H 0.87275 0.30783 0.75826 0.0
H414 H 0.88239 0.3852 0.77094 0.0
H415 H 0.97535 0.38267 0.77038 0.0
C416 C 0.92334 0.62199 0.77593 0.0
C417 C 0.98984 0.6215 0.79418 0.0
C418 C 0.9062 0.58798 0.75769 0.0
C419 C 0.95506 0.55266 0.75732 0.0
C420 C 1.02257 0.55345 0.77533 0.0
H421 H 0.9782 0.3738 0.65459 0.0
H422 H 1.00437 0.42328 0.68812 0.0
C423 C 1.03942 0.58699 0.79369 0.0
C424 C 0.93613 0.51679 0.73782 0.0
H425 H 0.88564 0.3391 0.72134 0.0
C426 C 0.93612 0.56784 0.71715 0.0
C427 C 0.91661 0.43289 0.73937 0.0
C428 C 0.91088 0.37367 0.76089 0.0
C429 C 0.9184 0.53762 0.69805 0.0
C430 C 0.90013 0.45432 0.69969 0.0
C431 C 0.89998 0.40308 0.72027 0.0
C432 C 0.88202 0.41995 0.6801 0.0
C433 C 0.92027 0.59499 0.67624 0.0
C434 C 0.804 0.40053 0.66478 0.0
C435 C 0.78871 0.37192 0.6457 0.0
C436 C 0.85159 0.36306 0.64159 0.0
C437 C 0.92903 0.381 0.65724 0.0
C438 C 0.94393 0.40882 0.67639 0.0
H439 H 0.94545 0.66046 0.67813 0.0
H440 H 0.95967 0.59223 0.66761 0.0
H441 H 0.85521 0.57446 0.66567 0.0
H442 H 0.75549 0.40865 0.66747 0.0
H443 H 0.72871 0.35905 0.63386 0.0
loop_
_geom_bond_atom_site_label_1
_geom_bond_atom_site_label_2
_geom_bond_distance
_geom_bond_site_symmetry_2
_ccdc_geom_bond_type
La0 C2 2.928 . S
La0 O20 2.521 . S
La0 O21 2.628 . S
La0 O22 2.554 . S
La0 O23 2.757 1_655 S
La0 O24 2.470 1_655 S
La0 O29 2.482 . S
La0 O31 2.503 . S
La1 C11 2.928 . S
La1 O23 2.482 . S
La1 O25 2.503 . S
La1 O26 2.521 . S
La1 O27 2.628 . S
La1 O28 2.554 . S
La1 O29 2.757 1_455 S
La1 O30 2.470 1_455 S
C2 La0 2.928 . S
C2 C3 1.503 . S
C2 O20 1.261 . S
C2 O21 1.243 . S
C3 C2 1.503 . S
C3 C4 1.394 . S
C3 C8 1.373 . S
C4 C3 1.394 . S
C4 C5 1.380 . S
C4 H32 0.930 . S
C5 C4 1.380 . S
C5 C6 1.376 . S
C5 H33 0.930 . S
C6 C5 1.376 . S
C6 C7 1.370 . S
C7 C6 1.370 . S
C7 C8 1.396 . S
C7 H34 0.929 . S
C8 C3 1.373 . S
C8 C7 1.396 . S
C8 H35 0.929 . S
C9 O22 1.240 . S
C9 O23 1.289 1_655 S
C10 O24 1.258 . S
C10 O25 1.256 . S
C11 La1 2.928 . S
C11 C12 1.503 . S
C11 O26 1.261 . S
C11 O27 1.243 . S
C12 C11 1.503 . S
C12 C13 1.394 . S
C12 C17 1.373 . S
C13 C12 1.394 . S
C13 C14 1.380 . S
C13 H36 0.930 . S
C14 C13 1.380 . S
C14 C15 1.376 . S
C14 H37 0.930 . S
C15 C14 1.376 . S
C15 C16 1.370 . S
C16 C15 1.370 . S
C16 C17 1.396 . S
C16 H38 0.929 . S
C17 C12 1.373 . S
C17 C16 1.396 . S
C17 H39 0.929 . S
C18 O28 1.240 . S
C18 O29 1.289 1_455 S
C19 O30 1.258 . S
C19 O31 1.256 . S
O20 La0 2.521 . S
O20 C2 1.261 . S
O21 La0 2.628 . S
O21 C2 1.243 . S
O22 La0 2.554 . S
O22 C9 1.240 . S
O23 La0 2.757 1_455 S
O23 La1 2.482 . S
O23 C9 1.289 1_455 S
O24 La0 2.470 1_455 S
O24 C10 1.258 . S
O25 La1 2.503 . S
O25 C10 1.256 . S
O26 La1 2.521 . S
O26 C11 1.261 . S
O27 La1 2.628 . S
O27 C11 1.243 . S
O28 La1 2.554 . S
O28 C18 1.240 . S
O29 La0 2.482 . S
O29 La1 2.757 1_655 S
O29 C18 1.289 1_655 S
O30 La1 2.470 1_655 S
O30 C19 1.258 . S
O31 La0 2.503 . S
O31 C19 1.256 . S
H32 C4 0.930 . S
H33 C5 0.930 . S
H34 C7 0.929 . S
H35 C8 0.929 . S
H36 C13 0.930 . S
H37 C14 0.930 . S
H38 C16 0.929 . S
H39 C17 0.929 . S
La40 C42 2.928 . S
La40 O60 2.521 . S
La40 O61 2.628 . S
La40 O62 2.554 . S
La40 O63 2.757 1_545 S
La40 O64 2.470 1_545 S
La40 O69 2.482 . S
La40 O71 2.503 . S
La41 C51 2.928 . S
La41 O63 2.482 . S
La41 O65 2.503 . S
La41 O66 2.521 . S
La41 O67 2.628 . S
La41 O68 2.554 . S
La41 O69 2.757 1_565 S
La41 O70 2.470 1_565 S
C42 La40 2.928 . S
C42 C43 1.503 . S
C42 O60 1.261 . S
C42 O61 1.243 . S
C43 C42 1.503 . S
C43 C44 1.394 . S
C43 C48 1.373 . S
C44 C43 1.394 . S
C44 C45 1.380 . S
C44 H72 0.930 . S
C45 C44 1.380 . S
C45 C46 1.376 . S
C45 H73 0.930 . S
C46 C45 1.376 . S
C46 C47 1.370 . S
C47 C46 1.370 . S
C47 C48 1.396 . S
C47 H74 0.929 . S
C48 C43 1.373 . S
C48 C47 1.396 . S
C48 H75 0.929 . S
C49 O62 1.240 . S
C49 O63 1.289 1_545 S
C50 O64 1.258 . S
C50 O65 1.256 . S
C51 La41 2.928 . S
C51 C52 1.503 . S
C51 O66 1.261 . S
C51 O67 1.243 . S
C52 C51 1.503 . S
C52 C53 1.394 . S
C52 C57 1.373 . S
C53 C52 1.394 . S
C53 C54 1.380 . S
C53 H76 0.930 . S
C54 C53 1.380 . S
C54 C55 1.376 . S
C54 H77 0.930 . S
C55 C54 1.376 . S
C55 C56 1.370 . S
C56 C55 1.370 . S
C56 C57 1.396 . S
C56 H78 0.929 . S
C57 C52 1.373 . S
C57 C56 1.396 . S
C57 H79 0.929 . S
C58 O68 1.240 . S
C58 O69 1.289 1_565 S
C59 O70 1.258 . S
C59 O71 1.256 . S
O60 La40 2.521 . S
O60 C42 1.261 . S
O61 La40 2.628 . S
O61 C42 1.243 . S
O62 La40 2.554 . S
O62 C49 1.240 . S
O63 La40 2.757 1_565 S
O63 La41 2.482 . S
O63 C49 1.289 1_565 S
O64 La40 2.470 1_565 S
O64 C50 1.258 . S
O65 La41 2.503 . S
O65 C50 1.256 . S
O66 La41 2.521 . S
O66 C51 1.261 . S
O67 La41 2.628 . S
O67 C51 1.243 . S
O68 La41 2.554 . S
O68 C58 1.240 . S
O69 La40 2.482 . S
O69 La41 2.757 1_545 S
O69 C58 1.289 1_545 S
O70 La41 2.470 1_545 S
O70 C59 1.258 . S
O71 La40 2.503 . S
O71 C59 1.256 . S
H72 C44 0.930 . S
H73 C45 0.930 . S
H74 C47 0.929 . S
H75 C48 0.929 . S
H76 C53 0.930 . S
H77 C54 0.930 . S
H78 C56 0.929 . S
H79 C57 0.929 . S
La80 C82 2.928 . S
La80 O100 2.521 . S
La80 O101 2.628 . S
La80 O102 2.554 1_565 S
La80 O103 2.757 . S
La80 O104 2.470 . S
La80 O109 2.482 . S
La80 O111 2.503 . S
La81 C91 2.928 . S
La81 O103 2.482 . S
La81 O105 2.503 . S
La81 O106 2.521 . S
La81 O107 2.628 . S
La81 O108 2.554 . S
La81 O109 2.757 . S
La81 O110 2.470 . S
C82 La80 2.928 . S
C82 C83 1.503 . S
C82 O100 1.261 . S
C82 O101 1.243 . S
C83 C82 1.503 . S
C83 C84 1.394 1_565 S
C83 C88 1.373 . S
C84 C83 1.394 1_545 S
C84 C85 1.380 . S
C84 H112 0.930 . S
C85 C84 1.380 . S
C85 C86 1.376 1_545 S
C85 H113 0.930 . S
C86 C85 1.376 1_565 S
C86 C87 1.370 . S
C87 C86 1.370 . S
C87 C88 1.396 . S
C87 H114 0.929 . S
C88 C83 1.373 . S
C88 C87 1.396 . S
C88 H115 0.929 . S
C89 O102 1.240 1_565 S
C89 O103 1.289 . S
C90 O104 1.258 . S
C90 O105 1.256 . S
C91 La81 2.928 . S
C91 C92 1.503 . S
C91 O106 1.261 . S
C91 O107 1.243 . S
C92 C91 1.503 . S
C92 C93 1.394 . S
C92 C97 1.373 . S
C93 C92 1.394 . S
C93 C94 1.380 . S
C93 H116 0.930 . S
C94 C93 1.380 . S
C94 C95 1.376 . S
C94 H117 0.930 . S
C95 C94 1.376 . S
C95 C96 1.370 . S
C96 C95 1.370 . S
C96 C97 1.396 . S
C96 H118 0.929 1_655 S
C97 C92 1.373 . S
C97 C96 1.396 . S
C97 H119 0.929 . S
C98 O108 1.240 . S
C98 O109 1.289 . S
C99 O110 1.258 . S
C99 O111 1.256 . S
O100 La80 2.521 . S
O100 C82 1.261 . S
O101 La80 2.628 . S
O101 C82 1.243 . S
O102 La80 2.554 1_545 S
O102 C89 1.240 1_545 S
O103 La80 2.757 . S
O103 La81 2.482 . S
O103 C89 1.289 . S
O104 La80 2.470 . S
O104 C90 1.258 . S
O105 La81 2.503 . S
O105 C90 1.256 . S
O106 La81 2.521 . S
O106 C91 1.261 . S
O107 La81 2.628 . S
O107 C91 1.243 . S
O108 La81 2.554 . S
O108 C98 1.240 . S
O109 La80 2.482 . S
O109 La81 2.757 . S
O109 C98 1.289 . S
O110 La81 2.470 . S
O110 C99 1.258 . S
O111 La80 2.503 . S
O111 C99 1.256 . S
H112 C84 0.930 . S
H113 C85 0.930 . S
H114 C87 0.929 . S
H115 C88 0.929 . S
H116 C93 0.930 . S
H117 C94 0.930 . S
H118 C96 0.929 1_455 S
H119 C97 0.929 . S
H120 C128 0.929 . S
H121 C130 0.930 . S
H122 C132 0.930 1_545 S
H123 C135 0.929 . S
H124 C138 0.930 . S
H125 C140 0.960 . S
H126 C140 0.960 . S
H127 C140 0.960 . S
C128 H120 0.929 . S
C128 C129 1.377 1_655 S
C128 C130 1.384 . S
C129 C128 1.377 1_455 S
C129 C135 1.390 . S
C130 H121 0.930 . S
C130 C128 1.384 . S
C130 C131 1.372 . S
C131 C130 1.372 . S
C131 C132 1.400 1_655 S
C131 C136 1.490 1_565 S
C132 H122 0.930 1_565 S
C132 C131 1.400 1_455 S
C132 C135 1.386 . S
H133 C149 0.930 . S
H134 C150 0.931 . S
C135 H123 0.929 . S
C135 C129 1.390 . S
C135 C132 1.386 . S
C136 C131 1.490 1_545 S
C136 C138 1.395 . S
C136 C139 1.403 1_655 S
H137 C143 0.930 . S
C138 H124 0.930 . S
C138 C136 1.395 . S
C138 C141 1.403 . S
C139 C136 1.403 1_455 S
C139 C140 1.524 . S
C139 C143 1.400 . S
C140 H125 0.960 . S
C140 H126 0.960 . S
C140 H127 0.960 . S
C140 C139 1.524 . S
C141 C138 1.403 . S
C141 C142 1.392 . S
C141 C145 1.495 . S
C142 C141 1.392 . S
C142 C143 1.385 1_655 S
C142 C144 1.478 . S
C143 H137 0.930 . S
C143 C139 1.400 . S
C143 C142 1.385 1_455 S
C144 C142 1.478 . S
C144 C146 1.381 . S
C144 C150 1.383 1_655 S
C145 C141 1.495 . S
C145 H151 0.959 . S
C145 H152 0.961 . S
C145 H153 0.960 . S
C146 C144 1.381 . S
C146 C147 1.394 . S
C146 H154 0.930 . S
C147 C146 1.394 . S
C147 C148 1.383 . S
C147 H155 0.929 . S
C148 C147 1.383 . S
C148 C149 1.377 1_655 S
C149 H133 0.930 . S
C149 C148 1.377 1_455 S
C149 C150 1.379 . S
C150 H134 0.931 . S
C150 C144 1.383 1_455 S
C150 C149 1.379 . S
H151 C145 0.959 . S
H152 C145 0.961 . S
H153 C145 0.960 . S
H154 C146 0.930 . S
H155 C147 0.929 . S
H156 C164 0.929 . S
H157 C166 0.930 . S
H158 C168 0.930 . S
H159 C171 0.929 . S
H160 C174 0.930 . S
H161 C176 0.960 . S
H162 C176 0.960 . S
H163 C176 0.960 . S
C164 H156 0.929 . S
C164 C165 1.377 . S
C164 C166 1.384 . S
C165 C164 1.377 . S
C165 C171 1.390 1_545 S
C166 H157 0.930 . S
C166 C164 1.384 . S
C166 C167 1.372 . S
C167 C166 1.372 . S
C167 C168 1.400 1_545 S
C167 C172 1.490 . S
C168 H158 0.930 . S
C168 C167 1.400 1_565 S
C168 C171 1.386 . S
H169 C185 0.930 . S
H170 C186 0.931 . S
C171 H159 0.929 . S
C171 C165 1.390 1_565 S
C171 C168 1.386 . S
C172 C167 1.490 . S
C172 C174 1.395 . S
C172 C175 1.403 1_545 S
H173 C179 0.930 . S
C174 H160 0.930 . S
C174 C172 1.395 . S
C174 C177 1.403 . S
C175 C172 1.403 1_565 S
C175 C176 1.524 . S
C175 C179 1.400 . S
C176 H161 0.960 . S
C176 H162 0.960 . S
C176 H163 0.960 . S
C176 C175 1.524 . S
C177 C174 1.403 . S
C177 C178 1.392 . S
C177 C181 1.495 . S
C178 C177 1.392 . S
C178 C179 1.385 1_545 S
C178 C180 1.478 . S
C179 H173 0.930 . S
C179 C175 1.400 . S
C179 C178 1.385 1_565 S
C180 C178 1.478 . S
C180 C182 1.381 . S
C180 C186 1.383 1_455 S
C181 C177 1.495 . S
C181 H187 0.959 . S
C181 H188 0.961 . S
C181 H189 0.960 . S
C182 C180 1.381 . S
C182 C183 1.394 1_455 S
C182 H190 0.930 . S
C183 C182 1.394 1_655 S
C183 C184 1.383 . S
C183 H191 0.929 . S
C184 C183 1.383 . S
C184 C185 1.377 . S
C185 H169 0.930 . S
C185 C184 1.377 . S
C185 C186 1.379 . S
C186 H170 0.931 . S
C186 C180 1.383 1_655 S
C186 C185 1.379 . S
H187 C181 0.959 . S
H188 C181 0.961 . S
H189 C181 0.960 . S
H190 C182 0.930 . S
H191 C183 0.929 . S
H192 C200 0.929 . S
H193 C202 0.930 . S
H194 C204 0.930 . S
H195 C207 0.929 . S
H196 C210 0.930 . S
H197 C212 0.960 . S
H198 C212 0.960 . S
H199 C212 0.960 . S
C200 H192 0.929 . S
C200 C201 1.377 1_455 S
C200 C202 1.384 . S
C201 C200 1.377 1_655 S
C201 C207 1.390 1_655 S
C202 H193 0.930 . S
C202 C200 1.384 . S
C202 C203 1.372 . S
C203 C202 1.372 . S
C203 C204 1.400 . S
C203 C208 1.490 . S
C204 H194 0.930 . S
C204 C203 1.400 . S
C204 C207 1.386 . S
H205 C221 0.930 . S
H206 C222 0.931 . S
C207 H195 0.929 . S
C207 C201 1.390 1_455 S
C207 C204 1.386 . S
C208 C203 1.490 . S
C208 C210 1.395 . S
C208 C211 1.403 . S
H209 C215 0.930 . S
C210 H196 0.930 . S
C210 C208 1.395 . S
C210 C213 1.403 . S
C211 C208 1.403 . S
C211 C212 1.524 . S
C211 C215 1.400 . S
C212 H197 0.960 . S
C212 H198 0.960 . S
C212 H199 0.960 . S
C212 C211 1.524 . S
C213 C210 1.403 . S
C213 C214 1.392 . S
C213 C217 1.495 . S
C214 C213 1.392 . S
C214 C215 1.385 . S
C214 C216 1.478 . S
C215 H209 0.930 . S
C215 C211 1.400 . S
C215 C214 1.385 . S
C216 C214 1.478 . S
C216 C218 1.381 . S
C216 C222 1.383 . S
C217 C213 1.495 . S
C217 H223 0.959 . S
C217 H224 0.961 . S
C217 H225 0.960 . S
C218 C216 1.381 . S
C218 C219 1.394 . S
C218 H226 0.930 . S
C219 C218 1.394 . S
C219 C220 1.383 . S
C219 H227 0.929 . S
C220 C219 1.383 . S
C220 C221 1.377 . S
C221 H205 0.930 . S
C221 C220 1.377 . S
C221 C222 1.379 . S
C222 H206 0.931 . S
C222 C216 1.383 . S
C222 C221 1.379 . S
H223 C217 0.959 . S
H224 C217 0.961 . S
H225 C217 0.960 . S
H226 C218 0.930 . S
H227 C219 0.929 . S
H228 C236 0.929 . S
H229 C238 0.930 . S
H230 C240 0.930 1_545 S
H231 C243 0.929 1_545 S
H232 C246 0.930 1_545 S
H233 C248 0.960 . S
H234 C248 0.960 . S
H235 C248 0.960 . S
C236 H228 0.929 . S
C236 C237 1.377 . S
C236 C238 1.384 . S
C237 C236 1.377 . S
C237 C243 1.390 . S
C238 H229 0.930 . S
C238 C236 1.384 . S
C238 C239 1.372 . S
C239 C238 1.372 . S
C239 C240 1.400 . S
C239 C244 1.490 . S
C240 H230 0.930 1_565 S
C240 C239 1.400 . S
C240 C243 1.386 . S
H241 C257 0.930 . S
H242 C258 0.916 1_556 S
C243 H231 0.929 1_565 S
C243 C237 1.390 . S
C243 C240 1.386 . S
C244 C239 1.490 . S
C244 C246 1.395 . S
C244 C247 1.403 . S
H245 C251 0.930 . S
C246 H232 0.930 1_565 S
C246 C244 1.395 . S
C246 C249 1.403 1_556 S
C247 C244 1.403 . S
C247 C248 1.524 . S
C247 C251 1.400 . S
C248 H233 0.960 . S
C248 H234 0.960 . S
C248 H235 0.960 . S
C248 C247 1.524 . S
C249 C246 1.403 1_554 S
C249 C250 1.392 . S
C249 C253 1.495 1_565 S
C250 C249 1.392 . S
C250 C251 1.385 1_554 S
C250 C252 1.478 . S
C251 H245 0.930 . S
C251 C247 1.400 . S
C251 C250 1.385 1_556 S
C252 C250 1.478 . S
C252 C254 1.381 . S
C252 C258 1.383 . S
C253 C249 1.495 1_545 S
C253 H259 0.959 . S
C253 H260 0.961 . S
C253 H261 0.960 1_545 S
C254 C252 1.381 . S
C254 C255 1.394 . S
C254 H262 0.930 . S
C255 C254 1.394 . S
C255 C256 1.383 . S
C255 H263 0.929 . S
C256 C255 1.383 . S
C256 C257 1.377 . S
C257 H241 0.930 . S
C257 C256 1.377 . S
C257 C258 1.379 . S
C258 H242 0.916 1_554 S
C258 C252 1.383 . S
C258 C257 1.379 . S
H259 C253 0.959 . S
H260 C253 0.961 . S
H261 C253 0.960 1_565 S
H262 C254 0.930 . S
H263 C255 0.929 . S
H264 C272 0.929 . S
H265 C274 0.930 . S
H266 C276 0.930 . S
H267 C279 0.929 . S
H268 C282 0.930 . S
H269 C284 0.960 . S
H270 C284 0.960 . S
H271 C284 0.960 . S
C272 H264 0.929 . S
C272 C273 1.377 . S
C272 C274 1.384 . S
C273 C272 1.377 . S
C273 C279 1.390 . S
C274 H265 0.930 . S
C274 C272 1.384 . S
C274 C275 1.372 . S
C275 C274 1.372 . S
C275 C276 1.400 . S
C275 C280 1.490 . S
C276 H266 0.930 . S
C276 C275 1.400 . S
C276 C279 1.386 . S
H277 C293 0.930 . S
H278 C294 0.931 . S
C279 H267 0.929 . S
C279 C273 1.390 . S
C279 C276 1.386 . S
C280 C275 1.490 . S
C280 C282 1.395 . S
C280 C283 1.403 . S
H281 C287 0.930 . S
C282 H268 0.930 . S
C282 C280 1.395 . S
C282 C285 1.403 . S
C283 C280 1.403 . S
C283 C284 1.524 . S
C283 C287 1.400 . S
C284 H269 0.960 . S
C284 H270 0.960 . S
C284 H271 0.960 . S
C284 C283 1.524 . S
C285 C282 1.403 . S
C285 C286 1.392 . S
C285 C289 1.495 . S
C286 C285 1.392 . S
C286 C287 1.385 . S
C286 C288 1.478 . S
C287 H281 0.930 . S
C287 C283 1.400 . S
C287 C286 1.385 . S
C288 C286 1.478 . S
C288 C290 1.381 . S
C288 C294 1.383 . S
C289 C285 1.495 . S
C289 H295 0.959 . S
C289 H296 0.961 . S
C289 H297 0.960 . S
C290 C288 1.381 . S
C290 C291 1.394 . S
C290 H298 0.930 . S
C291 C290 1.394 . S
C291 C292 1.383 . S
C291 H299 0.929 . S
C292 C291 1.383 . S
C292 C293 1.377 . S
C293 H277 0.930 . S
C293 C292 1.377 . S
C293 C294 1.379 . S
C294 H278 0.931 . S
C294 C288 1.383 . S
C294 C293 1.379 . S
H295 C289 0.959 . S
H296 C289 0.961 . S
H297 C289 0.960 . S
H298 C290 0.930 . S
H299 C291 0.929 . S
H300 C308 0.929 . S
H301 C310 0.930 . S
H302 C312 0.930 . S
H303 C315 0.929 . S
H304 C318 0.930 . S
H305 C320 0.960 . S
H306 C320 0.960 . S
H307 C320 0.960 1_565 S
C308 H300 0.929 . S
C308 C309 1.377 . S
C308 C310 1.384 . S
C309 C308 1.377 . S
C309 C315 1.390 . S
C310 H301 0.930 . S
C310 C308 1.384 . S
C310 C311 1.372 . S
C311 C310 1.372 . S
C311 C312 1.400 . S
C311 C316 1.490 . S
C312 H302 0.930 . S
C312 C311 1.400 . S
C312 C315 1.386 . S
H313 C329 0.930 . S
H314 C330 0.931 . S
C315 H303 0.929 . S
C315 C309 1.390 . S
C315 C312 1.386 . S
C316 C311 1.490 . S
C316 C318 1.395 . S
C316 C319 1.403 . S
H317 C323 0.930 . S
C318 H304 0.930 . S
C318 C316 1.395 . S
C318 C321 1.403 . S
C319 C316 1.403 . S
C319 C320 1.524 1_565 S
C319 C323 1.400 . S
C320 H305 0.960 . S
C320 H306 0.960 . S
C320 H307 0.960 1_545 S
C320 C319 1.524 1_545 S
C321 C318 1.403 . S
C321 C322 1.392 . S
C321 C325 1.495 . S
C322 C321 1.392 . S
C322 C323 1.385 . S
C322 C324 1.478 . S
C323 H317 0.930 . S
C323 C319 1.400 . S
C323 C322 1.385 . S
C324 C322 1.478 . S
C324 C326 1.381 . S
C324 C330 1.383 . S
C325 C321 1.495 . S
C325 H331 0.959 . S
C325 H332 0.961 . S
C325 H333 0.960 . S
C326 C324 1.381 . S
C326 C327 1.394 . S
C326 H334 0.930 . S
C327 C326 1.394 . S
C327 C328 1.383 . S
C327 H335 0.929 . S
C328 C327 1.383 . S
C328 C329 1.377 . S
C329 H313 0.930 . S
C329 C328 1.377 . S
C329 C330 1.379 . S
C330 H314 0.931 . S
C330 C324 1.383 . S
C330 C329 1.379 . S
H331 C325 0.959 . S
H332 C325 0.961 . S
H333 C325 0.960 . S
H334 C326 0.930 . S
H335 C327 0.929 . S
H336 C344 0.929 . S
H337 C346 0.930 . S
H338 C348 0.930 . S
H339 C351 0.929 . S
H340 C354 0.930 . S
H341 C356 0.960 . S
H342 C356 0.960 . S
H343 C356 0.960 . S
C344 H336 0.929 . S
C344 C345 1.377 . S
C344 C346 1.384 . S
C345 C344 1.377 . S
C345 C351 1.390 . S
C346 H337 0.930 . S
C346 C344 1.384 . S
C346 C347 1.372 . S
C347 C346 1.372 . S
C347 C348 1.400 . S
C347 C352 1.490 . S
C348 H338 0.930 . S
C348 C347 1.400 . S
C348 C351 1.386 . S
H349 C365 0.930 . S
H350 C366 0.931 . S
C351 H339 0.929 . S
C351 C345 1.390 . S
C351 C348 1.386 . S
C352 C347 1.490 . S
C352 C354 1.395 . S
C352 C355 1.403 . S
H353 C359 0.930 . S
C354 H340 0.930 . S
C354 C352 1.395 . S
C354 C357 1.403 1_556 S
C355 C352 1.403 . S
C355 C356 1.524 . S
C355 C359 1.400 1_556 S
C356 H341 0.960 . S
C356 H342 0.960 . S
C356 H343 0.960 . S
C356 C355 1.524 . S
C357 C354 1.403 1_554 S
C357 C358 1.392 . S
C357 C361 1.495 . S
C358 C357 1.392 . S
C358 C359 1.385 . S
C358 C360 1.478 . S
C359 H353 0.930 . S
C359 C355 1.400 1_554 S
C359 C358 1.385 . S
C360 C358 1.478 . S
C360 C362 1.381 . S
C360 C366 1.383 . S
C361 C357 1.495 . S
C361 H367 0.959 . S
C361 H368 0.961 . S
C361 H369 0.960 . S
C362 C360 1.381 . S
C362 C363 1.394 . S
C362 H370 0.930 1_655 S
C363 C362 1.394 . S
C363 C364 1.383 . S
C363 H371 0.929 1_655 S
C364 C363 1.383 . S
C364 C365 1.377 . S
C365 H349 0.930 . S
C365 C364 1.377 . S
C365 C366 1.379 . S
C366 H350 0.931 . S
C366 C360 1.383 . S
C366 C365 1.379 . S
H367 C361 0.959 . S
H368 C361 0.961 . S
H369 C361 0.960 . S
H370 C362 0.930 1_455 S
H371 C363 0.929 1_455 S
H372 C380 0.929 . S
H373 C382 0.930 . S
H374 C384 0.930 . S
H375 C387 0.929 . S
H376 C390 0.930 . S
H377 C392 0.960 . S
H378 C392 0.960 . S
H379 C392 0.960 . S
C380 H372 0.929 . S
C380 C381 1.377 . S
C380 C382 1.384 . S
C381 C380 1.377 . S
C381 C387 1.390 . S
C382 H373 0.930 . S
C382 C380 1.384 . S
C382 C383 1.372 . S
C383 C382 1.372 . S
C383 C384 1.400 . S
C383 C388 1.490 . S
C384 H374 0.930 . S
C384 C383 1.400 . S
C384 C387 1.386 . S
H385 C401 0.930 . S
H386 C402 0.931 . S
C387 H375 0.929 . S
C387 C381 1.390 . S
C387 C384 1.386 . S
C388 C383 1.490 . S
C388 C390 1.395 . S
C388 C391 1.403 . S
H389 C395 0.930 . S
C390 H376 0.930 . S
C390 C388 1.395 . S
C390 C393 1.403 . S
C391 C388 1.403 . S
C391 C392 1.524 . S
C391 C395 1.400 . S
C392 H377 0.960 . S
C392 H378 0.960 . S
C392 H379 0.960 . S
C392 C391 1.524 . S
C393 C390 1.403 . S
C393 C394 1.392 . S
C393 C397 1.495 . S
C394 C393 1.392 . S
C394 C395 1.385 . S
C394 C396 1.478 . S
C395 H389 0.930 . S
C395 C391 1.400 . S
C395 C394 1.385 . S
C396 C394 1.478 . S
C396 C398 1.381 . S
C396 C402 1.383 . S
C397 C393 1.495 . S
C397 H403 0.959 . S
C397 H404 0.961 . S
C397 H405 0.960 . S
C398 C396 1.381 . S
C398 C399 1.394 . S
C398 H406 0.930 . S
C399 C398 1.394 . S
C399 C400 1.383 . S
C399 H407 0.929 . S
C400 C399 1.383 . S
C400 C401 1.377 . S
C401 H385 0.930 . S
C401 C400 1.377 . S
C401 C402 1.379 . S
C402 H386 0.931 . S
C402 C396 1.383 . S
C402 C401 1.379 . S
H403 C397 0.959 . S
H404 C397 0.961 . S
H405 C397 0.960 . S
H406 C398 0.930 . S
H407 C399 0.929 . S
H408 C416 0.929 . S
H409 C418 0.930 . S
H410 C420 0.930 1_455 S
H411 C423 0.929 . S
H412 C426 0.930 . S
H413 C428 0.960 . S
H414 C428 0.960 . S
H415 C428 0.960 . S
C416 H408 0.929 . S
C416 C417 1.377 . S
C416 C418 1.384 . S
C417 C416 1.377 . S
C417 C423 1.390 1_655 S
C418 H409 0.930 . S
C418 C416 1.384 . S
C418 C419 1.372 . S
C419 C418 1.372 . S
C419 C420 1.400 . S
C419 C424 1.490 . S
C420 H410 0.930 1_655 S
C420 C419 1.400 . S
C420 C423 1.386 1_655 S
H421 C437 0.930 . S
H422 C438 0.931 1_455 S
C423 H411 0.929 . S
C423 C417 1.390 1_455 S
C423 C420 1.386 1_455 S
C424 C419 1.490 . S
C424 C426 1.395 . S
C424 C427 1.403 . S
H425 C431 0.930 . S
C426 H412 0.930 . S
C426 C424 1.395 . S
C426 C429 1.403 . S
C427 C424 1.403 . S
C427 C428 1.524 . S
C427 C431 1.400 . S
C428 H413 0.960 . S
C428 H414 0.960 . S
C428 H415 0.960 . S
C428 C427 1.524 . S
C429 C426 1.403 . S
C429 C430 1.392 . S
C429 C433 1.495 . S
C430 C429 1.392 . S
C430 C431 1.385 . S
C430 C432 1.478 . S
C431 H425 0.930 . S
C431 C427 1.400 . S
C431 C430 1.385 . S
C432 C430 1.478 . S
C432 C434 1.381 . S
C432 C438 1.383 . S
C433 C429 1.495 . S
C433 H439 0.959 . S
C433 H440 0.961 1_655 S
C433 H441 0.960 . S
C434 C432 1.381 . S
C434 C435 1.394 . S
C434 H442 0.930 . S
C435 C434 1.394 . S
C435 C436 1.383 . S
C435 H443 0.929 . S
C436 C435 1.383 . S
C436 C437 1.377 . S
C437 H421 0.930 . S
C437 C436 1.377 . S
C437 C438 1.379 . S
C438 H422 0.931 1_655 S
C438 C432 1.383 . S
C438 C437 1.379 . S
H439 C433 0.959 . S
H440 C433 0.961 1_455 S
H441 C433 0.960 . S
H442 C434 0.930 . S
H443 C435 0.929 . S
C129 C9 1.337 1_455 S
C148 C18 1.366 1_655 S
C165 C58 1.412 1_545 S
C184 C49 1.387 . S
C201 C89 1.183 1_545 S
C220 C98 1.164 . S
C237 C86 0.882 . S
C256 C15 0.890 . S
C273 C59 1.804 . S
C292 C6 1.789 . S
C309 C99 2.263 . S
C328 C50 2.257 . S
C345 C90 2.186 . S
C364 C19 2.169 . S
C381 C10 1.482 . S
C400 C55 1.455 . S
C417 C95 0.870 . S
C436 C46 0.870 . S
