# Generated by pormake.
# Topology sml, (6)-cn, num edge types: 1
# Building blocks:
#     Node 0, Type 0, BuildingBlock: KUMBUR_clean_sbu_1, # of connection points: 6
#     Node 1, Type 0, BuildingBlock: KUMBUR_clean_sbu_1, # of connection points: 6
#     Node 2, Type 0, BuildingBlock: KUMBUR_clean_sbu_1, # of connection points: 6
#     Node 3, Type 0, BuildingBlock: KUMBUR_clean_sbu_1, # of connection points: 6
#     Node 4, Type 0, BuildingBlock: KUMBUR_clean_sbu_1, # of connection points: 6
#     Node 5, Type 0, BuildingBlock: KUMBUR_clean_sbu_1, # of connection points: 6
#     Edge 6, Type (0, 0), BuildingBlock: ZUJKAS_clean_linker_0, # of connection points: 2
#     Edge 7, Type (0, 0), BuildingBlock: ZUJKAS_clean_linker_0, # of connection points: 2
#     Edge 8, Type (0, 0), BuildingBlock: ZUJKAS_clean_linker_0, # of connection points: 2
#     Edge 9, Type (0, 0), BuildingBlock: ZUJKAS_clean_linker_0, # of connection points: 2
#     Edge 10, Type (0, 0), BuildingBlock: ZUJKAS_clean_linker_0, # of connection points: 2
#     Edge 11, Type (0, 0), BuildingBlock: ZUJKAS_clean_linker_0, # of connection points: 2
#     Edge 12, Type (0, 0), BuildingBlock: ZUJKAS_clean_linker_0, # of connection points: 2
#     Edge 13, Type (0, 0), BuildingBlock: ZUJKAS_clean_linker_0, # of connection points: 2
#     Edge 14, Type (0, 0), BuildingBlock: ZUJKAS_clean_linker_0, # of connection points: 2
#     Edge 15, Type (0, 0), BuildingBlock: ZUJKAS_clean_linker_0, # of connection points: 2
#     Edge 16, Type (0, 0), BuildingBlock: ZUJKAS_clean_linker_0, # of connection points: 2
#     Edge 17, Type (0, 0), BuildingBlock: ZUJKAS_clean_linker_0, # of connection points: 2
#     Edge 18, Type (0, 0), BuildingBlock: ZUJKAS_clean_linker_0, # of connection points: 2
#     Edge 19, Type (0, 0), BuildingBlock: ZUJKAS_clean_linker_0, # of connection points: 2
#     Edge 20, Type (0, 0), BuildingBlock: ZUJKAS_clean_linker_0, # of connection points: 2
#     Edge 21, Type (0, 0), BuildingBlock: ZUJKAS_clean_linker_0, # of connection points: 2
#     Edge 22, Type (0, 0), BuildingBlock: ZUJKAS_clean_linker_0, # of connection points: 2
#     Edge 23, Type (0, 0), BuildingBlock: ZUJKAS_clean_linker_0, # of connection points: 2
# Relax obj value: 0.053
# Max RMSD: 0.161
# Mean RMSD: 0.161
data_MOF--net-sml--node1-KUMBUR_clean_sbu_1--edge1-ZUJKAS_clean_linker_0
_symmetry_space_group_name_H-M    P1
_symmetry_Int_Tables_number       1
_symmetry_cell_setting            triclinic
loop_
_symmetry_equiv_pos_as_xyz
'x, y, z'
_cell_length_a     44.812015
_cell_length_b     44.824539
_cell_length_c     28.771205
_cell_angle_alpha  89.832988
_cell_angle_beta   90.028427
_cell_angle_gamma 120.03712
loop_
_atom_site_label
_atom_site_type_symbol
_atom_site_fract_x
_atom_site_fract_y
_atom_site_fract_z
_atom_type_partial_charge
Tb0 Tb 0.18176 0.43166 0.94372 0.0
C1 C 0.30748 0.45055 0.0673 0.0
N2 N 0.27939 0.4202 0.05522 0.0
C3 C 0.31558 0.39643 0.03768 0.0
C4 C 0.34097 0.45531 0.06406 0.0
C5 C 0.28291 0.39307 0.04131 0.0
C6 C 0.34479 0.42777 0.04885 0.0
C7 C 0.33097 0.50922 0.09426 0.0
C8 C 0.30248 0.47721 0.08163 0.0
C9 C 0.36446 0.51424 0.09083 0.0
C10 C 0.36945 0.48736 0.07572 0.0
Tb11 Tb 0.2273 0.41763 0.06043 0.0
N12 N 0.26966 0.47157 0.08345 0.0
C13 C 0.32489 0.53502 0.1107 0.0
C14 C 0.26367 0.49575 0.10325 0.0
C15 C 0.29105 0.528 0.11602 0.0
H16 H 0.26045 0.36858 0.03416 0.0
H17 H 0.28597 0.54718 0.13089 0.0
H18 H 0.15029 0.48127 0.97546 0.0
H19 H 0.12046 0.30065 0.87799 0.0
H20 H 0.2381 0.4902 0.11138 0.0
H21 H 0.34604 0.55996 0.12086 0.0
H22 H 0.16938 0.35643 0.89916 0.0
H23 H 0.31819 0.37481 0.02651 0.0
H24 H 0.38665 0.53873 0.10015 0.0
H25 H 0.39542 0.49158 0.07333 0.0
H26 H 0.09313 0.47663 0.98114 0.0
H27 H 0.37009 0.43036 0.0459 0.0
H28 H 0.06112 0.2907 0.88333 0.0
N29 N 0.13049 0.43043 0.94968 0.0
C30 C 0.10215 0.40077 0.93613 0.0
C31 C 0.0953 0.45507 0.96855 0.0
C32 C 0.06901 0.39696 0.93873 0.0
C33 C 0.12761 0.45753 0.96566 0.0
C34 C 0.06585 0.42465 0.95504 0.0
N35 N 0.13876 0.37794 0.92156 0.0
C36 C 0.14398 0.35252 0.90434 0.0
C37 C 0.07746 0.34202 0.90875 0.0
C38 C 0.10638 0.37357 0.92184 0.0
C39 C 0.08264 0.31533 0.89375 0.0
C40 C 0.11608 0.32077 0.89102 0.0
H41 H 0.04083 0.42275 0.95757 0.0
H42 H 0.01446 0.36209 0.92763 0.0
H43 H 0.02187 0.31407 0.90105 0.0
O44 O 0.19662 0.43449 0.87257 0.0
O45 O 0.14754 0.40143 1.00077 0.0
O46 O 0.17758 0.37781 0.03289 0.0
O47 O 0.18018 0.46884 0.90123 0.0
O48 O 0.21347 0.40732 0.93511 0.0
O49 O 0.21145 0.3793 1.00435 0.0
O50 O 0.21321 0.41517 0.13184 0.0
O51 O 0.26192 0.44813 1.00312 0.0
O52 O 0.23064 0.47074 0.97317 0.0
O53 O 0.22868 0.38022 0.10279 0.0
O54 O 0.19525 0.442 0.06889 0.0
O55 O 0.19881 0.47018 0.99936 0.0
C56 C 0.14968 0.38026 0.03032 0.0
C57 C 0.1966 0.47815 0.82006 0.0
C58 C 0.2055 0.48229 0.73569 0.0
C59 C 0.20911 0.51532 0.7367 0.0
C60 C 0.20029 0.51118 0.81978 0.0
C61 C 0.20649 0.52955 0.7784 0.0
C62 C 0.1991 0.46365 0.77774 0.0
C63 C 0.21895 0.38554 0.95961 0.0
C64 C 0.19099 0.4599 0.86497 0.0
C65 C 0.04016 0.36554 0.92586 0.0
C66 C 0.04437 0.33816 0.91086 0.0
C67 C 0.25883 0.46894 0.97391 0.0
C68 C 0.21332 0.37166 0.18445 0.0
C69 C 0.20438 0.36778 0.26883 0.0
C70 C 0.20149 0.33506 0.26822 0.0
C71 C 0.21039 0.33895 0.18515 0.0
C72 C 0.21046 0.38615 0.22659 0.0
C73 C 0.20453 0.32086 0.22674 0.0
C74 C 0.19122 0.46466 0.04413 0.0
C75 C 0.21856 0.38958 0.13932 0.0
H76 H 0.21348 0.53004 0.70498 0.0
H77 H 0.19869 0.52303 0.85174 0.0
H78 H 0.20926 0.55496 0.77863 0.0
H79 H 0.19641 0.43824 0.77757 0.0
H80 H 0.19737 0.32057 0.3001 0.0
H81 H 0.21235 0.32711 0.15339 0.0
H82 H 0.2126 0.41133 0.22649 0.0
H83 H 0.20234 0.29569 0.22682 0.0
Tb84 Tb 0.8361 0.25002 0.42558 0.0
C85 C 0.71133 0.11788 0.31939 0.0
N86 N 0.74587 0.13067 0.32053 0.0
C87 C 0.73702 0.07342 0.32587 0.0
C88 C 0.68804 0.08221 0.32247 0.0
C89 C 0.75906 0.10907 0.32251 0.0
C90 C 0.70133 0.05994 0.32623 0.0
C91 C 0.66395 0.12842 0.3068 0.0
C92 C 0.69947 0.14054 0.31167 0.0
C93 C 0.64039 0.09304 0.31212 0.0
C94 C 0.65243 0.06996 0.31992 0.0
Tb95 Tb 0.77951 0.18896 0.31434 0.0
N96 N 0.72309 0.17439 0.30605 0.0
C97 C 0.65336 0.15205 0.2951 0.0
C98 C 0.71311 0.19717 0.29139 0.0
C99 C 0.67809 0.18648 0.28671 0.0
H100 H 0.78664 0.11944 0.32129 0.0
H101 H 0.67021 0.20474 0.27632 0.0
H102 H 0.88212 0.33079 0.39235 0.0
H103 H 0.87431 0.1574 0.47973 0.0
H104 H 0.73218 0.2237 0.28435 0.0
H105 H 0.62627 0.14378 0.29105 0.0
H106 H 0.83601 0.18147 0.47709 0.0
H107 H 0.74755 0.05637 0.32788 0.0
H108 H 0.61293 0.08318 0.30892 0.0
H109 H 0.63407 0.04263 0.32261 0.0
H110 H 0.94266 0.37141 0.37001 0.0
H111 H 0.68429 0.0323 0.32819 0.0
H112 H 0.93318 0.19028 0.44721 0.0
N113 N 0.89112 0.28922 0.40515 0.0
C114 C 0.91447 0.27842 0.4071 0.0
C115 C 0.93504 0.34531 0.38026 0.0
C116 C 0.94909 0.30048 0.3942 0.0
C117 C 0.90089 0.32236 0.39303 0.0
C118 C 0.9592 0.33424 0.38045 0.0
N119 N 0.86987 0.22504 0.43542 0.0
C120 C 0.86027 0.19501 0.45904 0.0
C121 C 0.92701 0.23306 0.42503 0.0
C122 C 0.90333 0.24502 0.42182 0.0
C123 C 0.91583 0.20043 0.4441 0.0
C124 C 0.88255 0.1817 0.46221 0.0
H125 H 0.98557 0.35198 0.37023 0.0
H126 H 0.9991 0.30472 0.38577 0.0
H127 H 0.97981 0.24566 0.41278 0.0
O128 O 0.84687 0.25297 0.49794 0.0
O129 O 0.85638 0.25735 0.35454 0.0
O130 O 0.83163 0.20159 0.33248 0.0
O131 O 0.84213 0.29323 0.46249 0.0
O132 O 0.7981 0.19576 0.43865 0.0
O133 O 0.80294 0.17429 0.36944 0.0
O134 O 0.79857 0.21671 0.2515 0.0
O135 O 0.74785 0.19639 0.36651 0.0
O136 O 0.78098 0.23163 0.42867 0.0
O137 O 0.77733 0.16199 0.25362 0.0
O138 O 0.79338 0.2432 0.31211 0.0
O139 O 0.81783 0.27666 0.37959 0.0
C140 C 0.85645 0.23354 0.32842 0.0
C141 C 0.85471 0.30177 0.54514 0.0
C142 C 0.85144 0.30391 0.62989 0.0
C143 C 0.8647 0.33968 0.62686 0.0
C144 C 0.86783 0.3375 0.54317 0.0
C145 C 0.873 0.35631 0.58384 0.0
C146 C 0.84701 0.28506 0.58877 0.0
C147 C 0.79027 0.16935 0.41155 0.0
C148 C 0.84765 0.2822 0.50142 0.0
C149 C 0.97239 0.28821 0.39567 0.0
C150 C 0.96136 0.25454 0.41091 0.0
C151 C 0.75174 0.21307 0.40593 0.0
C152 C 0.76783 0.18501 0.18518 0.0
C153 C 0.76354 0.19531 0.10247 0.0
C154 C 0.72742 0.17738 0.10664 0.0
C155 C 0.73169 0.16654 0.18788 0.0
C156 C 0.78376 0.19909 0.1421 0.0
C157 C 0.71169 0.16304 0.14901 0.0
C158 C 0.80488 0.2717 0.33696 0.0
C159 C 0.78873 0.18896 0.22698 0.0
H160 H 0.86872 0.35485 0.65792 0.0
H161 H 0.87402 0.35093 0.5101 0.0
H162 H 0.88318 0.38386 0.58197 0.0
H163 H 0.83636 0.2574 0.5906 0.0
H164 H 0.71124 0.17373 0.07674 0.0
H165 H 0.71875 0.15436 0.21983 0.0
H166 H 0.81163 0.213 0.13947 0.0
H167 H 0.68385 0.1488 0.15162 0.0
Tb168 Tb 0.5792 0.75113 0.60688 0.0
C169 C 0.57328 0.87115 0.71867 0.0
N170 N 0.6006 0.86607 0.71437 0.0
C171 C 0.63868 0.92689 0.70564 0.0
C172 C 0.57752 0.90443 0.71589 0.0
C173 C 0.63313 0.89335 0.7087 0.0
C174 C 0.61072 0.93246 0.70879 0.0
C175 C 0.51209 0.84687 0.73294 0.0
C176 C 0.54107 0.84283 0.72733 0.0
C177 C 0.51602 0.87993 0.72953 0.0
C178 C 0.54865 0.90864 0.72101 0.0
Tb179 Tb 0.58845 0.81036 0.72004 0.0
N180 N 0.53821 0.81115 0.72922 0.0
C181 C 0.48011 0.81755 0.74185 0.0
C182 C 0.50736 0.78265 0.73954 0.0
C183 C 0.47781 0.78535 0.74549 0.0
H184 H 0.6549 0.88925 0.70768 0.0
H185 H 0.4533 0.76262 0.7531 0.0
H186 H 0.52973 0.66944 0.63655 0.0
H187 H 0.71339 0.82504 0.55376 0.0
H188 H 0.50535 0.75782 0.74326 0.0
H189 H 0.45717 0.81952 0.74642 0.0
H190 H 0.65575 0.81594 0.5679 0.0
H191 H 0.66456 0.94842 0.70143 0.0
H192 H 0.49403 0.88359 0.73364 0.0
H193 H 0.55134 0.93401 0.71887 0.0
H194 H 0.53568 0.61778 0.64438 0.0
H195 H 0.61513 0.9585 0.70655 0.0
H196 H 0.72495 0.77696 0.56348 0.0
N197 N 0.58189 0.70215 0.61626 0.0
C198 C 0.61277 0.70475 0.60657 0.0
C199 C 0.55758 0.64211 0.63384 0.0
C200 C 0.6173 0.67591 0.61036 0.0
C201 C 0.55436 0.67146 0.62974 0.0
C202 C 0.58917 0.64431 0.62407 0.0
N203 N 0.6348 0.76417 0.59206 0.0
C204 C 0.66036 0.79518 0.57566 0.0
C205 C 0.67274 0.7406 0.58479 0.0
C206 C 0.64016 0.73682 0.59444 0.0
C207 C 0.69955 0.77298 0.57125 0.0
C208 C 0.69318 0.80024 0.56609 0.0
H209 H 0.5916 0.62154 0.62741 0.0
H210 H 0.65379 0.65782 0.60387 0.0
H211 H 0.70228 0.71439 0.58115 0.0
O212 O 0.58141 0.76345 0.5357 0.0
O213 O 0.60394 0.74547 0.66937 0.0
O214 O 0.6292 0.79962 0.70008 0.0
O215 O 0.54582 0.71263 0.56045 0.0
O216 O 0.60181 0.80715 0.59828 0.0
O217 O 0.62927 0.82954 0.6678 0.0
O218 O 0.57976 0.79023 0.7882 0.0
O219 O 0.5572 0.8115 0.66111 0.0
O220 O 0.53656 0.75867 0.62654 0.0
O221 O 0.61983 0.84209 0.77407 0.0
O222 O 0.55911 0.75406 0.72865 0.0
O223 O 0.53663 0.72726 0.65736 0.0
C224 C 0.62507 0.76852 0.69909 0.0
C225 C 0.56852 0.71741 0.48464 0.0
C226 C 0.57741 0.71565 0.40099 0.0
C227 C 0.58596 0.68983 0.40883 0.0
C228 C 0.57663 0.69123 0.49139 0.0
C229 C 0.58554 0.67776 0.45372 0.0
C230 C 0.56898 0.72954 0.43934 0.0
C231 C 0.62323 0.83343 0.62414 0.0
C232 C 0.55903 0.73204 0.52404 0.0
C233 C 0.64976 0.67967 0.60111 0.0
C234 C 0.6774 0.71192 0.58835 0.0
C235 C 0.53717 0.78803 0.63074 0.0
C236 C 0.59219 0.83143 0.84721 0.0
C237 C 0.58402 0.83092 0.93135 0.0
C238 C 0.57288 0.85499 0.92559 0.0
C239 C 0.58141 0.85577 0.8426 0.0
C240 C 0.59333 0.81893 0.89173 0.0
C241 C 0.57159 0.86725 0.88149 0.0
C242 C 0.53771 0.72721 0.70341 0.0
C243 C 0.6029 0.81936 0.80618 0.0
H244 H 0.59317 0.67904 0.38026 0.0
H245 H 0.57584 0.68088 0.52558 0.0
H246 H 0.59198 0.65776 0.45931 0.0
H247 H 0.56208 0.74928 0.43396 0.0
H248 H 0.56496 0.86423 0.95521 0.0
H249 H 0.58085 0.86624 0.80913 0.0
H250 H 0.60215 0.80052 0.89555 0.0
H251 H 0.56314 0.8859 0.87747 0.0
Tb252 Tb 0.74894 0.57361 0.09968 0.0
C253 C 0.86783 0.56794 0.98334 0.0
N254 N 0.86449 0.59585 0.99254 0.0
C255 C 0.92516 0.62987 1.00712 0.0
C256 C 0.90012 0.56984 0.9861 0.0
C257 C 0.89259 0.62675 1.00356 0.0
C258 C 0.92895 0.60127 0.99847 0.0
C259 C 0.84085 0.50773 0.96146 0.0
C260 C 0.8386 0.53733 0.97111 0.0
C261 C 0.873 0.50946 0.96405 0.0
C262 C 0.90255 0.54042 0.97637 0.0
Tb263 Tb 0.81028 0.58768 0.98532 0.0
N264 N 0.80774 0.53638 0.97057 0.0
C265 C 0.81068 0.47728 0.9498 0.0
C266 C 0.77844 0.50704 0.95784 0.0
C267 C 0.7794 0.47701 0.94774 0.0
H268 H 0.89 0.6492 1.00853 0.0
H269 H 0.75602 0.45372 0.93807 0.0
H270 H 0.66792 0.52519 0.06612 0.0
H271 H 0.8199 0.70413 0.16696 0.0
H272 H 0.75435 0.50659 0.95488 0.0
H273 H 0.81129 0.45395 0.94207 0.0
H274 H 0.81255 0.64846 0.14459 0.0
H275 H 0.94737 0.65439 0.01609 0.0
H276 H 0.87526 0.48698 0.95674 0.0
H277 H 0.92714 0.54135 0.97827 0.0
H278 H 0.61568 0.53033 0.06156 0.0
H279 H 0.95424 0.6038 1.00103 0.0
H280 H 0.77069 0.7144 0.16295 0.0
N281 N 0.69931 0.57553 0.09343 0.0
C282 C 0.70091 0.60506 0.10805 0.0
C283 C 0.63951 0.55158 0.07458 0.0
C284 C 0.6717 0.60911 0.10617 0.0
C285 C 0.66923 0.54886 0.07682 0.0
C286 C 0.64072 0.58182 0.08935 0.0
N287 N 0.76041 0.62745 0.12217 0.0
C288 C 0.79118 0.65258 0.13963 0.0
C289 C 0.73537 0.66342 0.13671 0.0
C290 C 0.7325 0.63196 0.12263 0.0
C291 C 0.7674 0.68986 0.15182 0.0
C292 C 0.7953 0.68425 0.15377 0.0
H293 H 0.6177 0.58392 0.08735 0.0
H294 H 0.65235 0.64401 0.11899 0.0
H295 H 0.70803 0.69148 0.14604 0.0
O296 O 0.7602 0.57078 0.17104 0.0
O297 O 0.74538 0.60363 0.04181 0.0
O298 O 0.79917 0.6276 1.00879 0.0
O299 O 0.70946 0.53677 0.14187 0.0
O300 O 0.80495 0.59701 0.10928 0.0
O301 O 0.8287 0.62625 0.04065 0.0
O302 O 0.795 0.5829 0.91498 0.0
O303 O 0.81198 0.55523 0.0423 0.0
O304 O 0.75805 0.53389 0.07164 0.0
O305 O 0.84469 0.62349 0.93673 0.0
O306 O 0.75414 0.56113 0.97462 0.0
O307 O 0.72648 0.53479 0.0441 0.0
C308 C 0.76847 0.62448 0.01161 0.0
C309 C 0.71584 0.5283 0.22373 0.0
C310 C 0.72169 0.52409 0.30782 0.0
C311 C 0.6902 0.49277 0.308 0.0
C312 C 0.68447 0.49696 0.22513 0.0
C313 C 0.67181 0.4794 0.26698 0.0
C314 C 0.7344 0.54192 0.26535 0.0
C315 C 0.83162 0.61908 0.08424 0.0
C316 C 0.72889 0.54582 0.17848 0.0
C317 C 0.67451 0.64039 0.12017 0.0
C318 C 0.70625 0.66746 0.13543 0.0
C319 C 0.78771 0.53507 0.07166 0.0
C320 C 0.84082 0.60152 0.8607 0.0
C321 C 0.84414 0.59608 0.7764 0.0
C322 C 0.87305 0.59209 0.78291 0.0
C323 C 0.87 0.59786 0.86598 0.0
C324 C 0.82775 0.60029 0.81567 0.0
C325 C 0.88574 0.59286 0.82739 0.0
C326 C 0.72662 0.53899 0.9984 0.0
C327 C 0.82477 0.60806 0.90145 0.0
H328 H 0.67952 0.47874 0.3401 0.0
H329 H 0.66973 0.4858 0.19374 0.0
H330 H 0.64759 0.45529 0.26764 0.0
H331 H 0.75872 0.56598 0.26464 0.0
H332 H 0.88584 0.58829 0.75347 0.0
H333 H 0.8811 0.59941 0.89976 0.0
H334 H 0.80555 0.60358 0.81114 0.0
H335 H 0.90813 0.58995 0.83193 0.0
Tb336 Tb 0.24575 0.82775 0.28357 0.0
C337 C 0.1269 0.69814 0.3938 0.0
N338 N 0.13332 0.73113 0.39182 0.0
C339 C 0.07281 0.71085 0.38526 0.0
C340 C 0.09304 0.67004 0.39069 0.0
C341 C 0.10687 0.73789 0.38887 0.0
C342 C 0.06587 0.67677 0.38584 0.0
C343 C 0.14904 0.65886 0.40231 0.0
C344 C 0.15444 0.69258 0.39961 0.0
C345 C 0.11538 0.6307 0.39864 0.0
C346 C 0.08745 0.63627 0.39282 0.0
Tb347 Tb 0.18992 0.77283 0.39567 0.0
N348 N 0.18676 0.72048 0.40137 0.0
C349 C 0.17764 0.65454 0.40859 0.0
C350 C 0.21458 0.7165 0.4098 0.0
C351 C 0.21049 0.68349 0.41282 0.0
H352 H 0.11208 0.76416 0.38978 0.0
H353 H 0.23267 0.6804 0.41851 0.0
H354 H 0.32759 0.86602 0.31453 0.0
H355 H 0.16017 0.8778 0.24525 0.0
H356 H 0.23996 0.73861 0.41366 0.0
H357 H 0.17461 0.62903 0.41077 0.0
H358 H 0.17752 0.83403 0.2455 0.0
H359 H 0.05193 0.71631 0.38232 0.0
H360 H 0.11066 0.60454 0.40044 0.0
H361 H 0.06162 0.61431 0.39032 0.0
H362 H 0.37359 0.92497 0.33458 0.0
H363 H 0.03946 0.65589 0.3832 0.0
H364 H 0.20105 0.93715 0.27094 0.0
N365 N 0.29013 0.88094 0.30185 0.0
C366 C 0.28318 0.90716 0.2998 0.0
C367 C 0.34824 0.92027 0.32498 0.0
C368 C 0.30848 0.94106 0.31143 0.0
C369 C 0.32217 0.88695 0.31372 0.0
C370 C 0.34135 0.94743 0.32399 0.0
N371 N 0.22601 0.86611 0.27825 0.0
C372 C 0.1948 0.85877 0.26035 0.0
C373 C 0.24161 0.92585 0.28675 0.0
C374 C 0.24995 0.89942 0.28828 0.0
C375 C 0.20849 0.91759 0.27266 0.0
C376 C 0.18523 0.88405 0.25854 0.0
H377 H 0.36153 0.97315 0.33314 0.0
H378 H 0.31906 0.9935 0.31988 0.0
H379 H 0.26064 0.98028 0.29782 0.0
O380 O 0.23755 0.83065 0.21196 0.0
O381 O 0.2523 0.85031 0.35302 0.0
O382 O 0.19764 0.82417 0.38193 0.0
O383 O 0.28655 0.84024 0.23691 0.0
O384 O 0.19051 0.79102 0.27559 0.0
O385 O 0.16915 0.79469 0.34636 0.0
O386 O 0.21544 0.78828 0.46012 0.0
O387 O 0.19142 0.74227 0.33709 0.0
O388 O 0.23678 0.77515 0.28564 0.0
O389 O 0.16021 0.76365 0.45612 0.0
O390 O 0.24618 0.79641 0.39852 0.0
O391 O 0.27253 0.80727 0.32511 0.0
C392 C 0.22877 0.85096 0.37926 0.0
C393 C 0.26792 0.81253 0.16407 0.0
C394 C 0.25896 0.79356 0.08293 0.0
C395 C 0.26598 0.76728 0.09531 0.0
C396 C 0.27496 0.78618 0.17536 0.0
C397 C 0.27387 0.76367 0.14118 0.0
C398 C 0.25996 0.81613 0.1178 0.0
C399 C 0.16446 0.7848 0.30283 0.0
C400 C 0.26771 0.83564 0.20039 0.0
C401 C 0.30002 0.96728 0.31085 0.0
C402 C 0.26669 0.95971 0.29851 0.0
C403 C 0.21224 0.74562 0.30264 0.0
C404 C 0.18731 0.80275 0.51754 0.0
C405 C 0.19662 0.82371 0.59761 0.0
C406 C 0.18682 0.84785 0.58444 0.0
C407 C 0.17723 0.82669 0.50534 0.0
C408 C 0.19702 0.80135 0.56358 0.0
C409 C 0.17724 0.84929 0.53861 0.0
C410 C 0.27224 0.80292 0.37066 0.0
C411 C 0.18697 0.77839 0.48315 0.0
H412 H 0.26596 0.7498 0.06939 0.0
H413 H 0.28134 0.78304 0.21061 0.0
H414 H 0.27932 0.74342 0.15023 0.0
H415 H 0.25408 0.83619 0.10921 0.0
H416 H 0.18581 0.86516 0.60976 0.0
H417 H 0.16899 0.82758 0.47026 0.0
H418 H 0.2048 0.78277 0.57284 0.0
H419 H 0.16942 0.86774 0.52898 0.0
Tb420 Tb 0.4181 0.17466 0.74953 0.0
C421 C 0.40214 0.29213 0.63931 0.0
N422 N 0.38607 0.25745 0.63484 0.0
C423 C 0.33149 0.25487 0.62863 0.0
C424 C 0.38342 0.30966 0.64049 0.0
C425 C 0.35138 0.23876 0.62746 0.0
C426 C 0.3475 0.2904 0.63618 0.0
C427 C 0.45578 0.34644 0.63753 0.0
C428 C 0.43761 0.31015 0.63803 0.0
C429 C 0.43748 0.36421 0.64198 0.0
C430 C 0.4013 0.34581 0.64354 0.0
Tb431 Tb 0.42031 0.23334 0.63698 0.0
N432 N 0.45403 0.29195 0.63273 0.0
C433 C 0.49148 0.36359 0.6303 0.0
C434 C 0.48834 0.3084 0.62174 0.0
C435 C 0.50773 0.34445 0.62147 0.0
H436 H 0.33895 0.21124 0.62215 0.0
H437 H 0.53512 0.35743 0.61438 0.0
H438 H 0.44741 0.12333 0.72087 0.0
H439 H 0.28881 0.14514 0.79966 0.0
H440 H 0.50086 0.29358 0.61496 0.0
H441 H 0.50646 0.39148 0.62968 0.0
H442 H 0.35184 0.17901 0.80081 0.0
H443 H 0.30384 0.23985 0.62404 0.0
H444 H 0.45096 0.39212 0.64237 0.0
H445 H 0.38743 0.35982 0.64513 0.0
H446 H 0.42354 0.06287 0.69532 0.0
H447 H 0.33209 0.30284 0.63692 0.0
H448 H 0.25933 0.08769 0.76272 0.0
N449 N 0.39825 0.11887 0.72903 0.0
C450 C 0.3636 0.09788 0.728 0.0
C451 C 0.40639 0.07244 0.70423 0.0
C452 C 0.34877 0.06342 0.71318 0.0
C453 C 0.41983 0.10657 0.71872 0.0
C454 C 0.37068 0.05086 0.70091 0.0
N455 N 0.35882 0.14432 0.75739 0.0
C456 C 0.33973 0.15539 0.78122 0.0
C457 C 0.30697 0.09002 0.7425 0.0
C458 C 0.34314 0.11124 0.74187 0.0
C459 C 0.28719 0.10312 0.7615 0.0
C460 C 0.30373 0.13561 0.78211 0.0
H461 H 0.36033 0.02453 0.68929 0.0
H462 H 0.30078 0.01634 0.69938 0.0
H463 H 0.2641 0.03952 0.72555 0.0
O464 O 0.40726 0.15977 0.82039 0.0
O465 O 0.40845 0.1576 0.67697 0.0
O466 O 0.37759 0.18174 0.65099 0.0
O467 O 0.45507 0.16912 0.78836 0.0
O468 O 0.40411 0.21435 0.76062 0.0
O469 O 0.38021 0.21135 0.68994 0.0
O470 O 0.4267 0.20597 0.58197 0.0
O471 O 0.45948 0.26267 0.69005 0.0
O472 O 0.45465 0.22983 0.75689 0.0
O473 O 0.41414 0.24544 0.56824 0.0
O474 O 0.46488 0.22596 0.64383 0.0
O475 O 0.4619 0.18787 0.70315 0.0
C476 C 0.38317 0.15578 0.65197 0.0
C477 C 0.44736 0.15229 0.87009 0.0
C478 C 0.44554 0.14804 0.95511 0.0
C479 C 0.46797 0.13467 0.95301 0.0
C480 C 0.47005 0.13928 0.86915 0.0
C481 C 0.48018 0.13047 0.91037 0.0
C482 C 0.43527 0.15689 0.91332 0.0
C483 C 0.38692 0.22331 0.73241 0.0
C484 C 0.4364 0.16063 0.82578 0.0
C485 C 0.31273 0.04276 0.71128 0.0
C486 C 0.29186 0.05603 0.72594 0.0
C487 C 0.46859 0.25879 0.73243 0.0
C488 C 0.39272 0.19918 0.51577 0.0
C489 C 0.37747 0.17776 0.43612 0.0
C490 C 0.34306 0.15688 0.4505 0.0
C491 C 0.35818 0.17851 0.529 0.0
C492 C 0.4023 0.199 0.46918 0.0
C493 C 0.33355 0.15737 0.49657 0.0
C494 C 0.47639 0.20781 0.66621 0.0
C495 C 0.41863 0.22143 0.5502 0.0
H496 H 0.47647 0.1279 0.98454 0.0
H497 H 0.47969 0.13554 0.83644 0.0
H498 H 0.49759 0.12033 0.90927 0.0
H499 H 0.41787 0.16708 0.91447 0.0
H500 H 0.32333 0.14056 0.42588 0.0
H501 H 0.35028 0.1789 0.56436 0.0
H502 H 0.42898 0.21515 0.45879 0.0
H503 H 0.30693 0.14142 0.50714 0.0
H504 H 0.32261 0.21229 0.71232 0.0
H505 H 0.29384 0.24129 0.74602 0.0
H506 H 0.38034 0.29752 0.83806 0.0
H507 H 0.41044 0.271 0.80105 0.0
H508 H 0.27099 0.23935 0.82772 0.0
H509 H 0.36945 0.37506 0.79423 0.0
H510 H 0.37174 0.3397 0.76834 0.0
H511 H 0.38739 0.3536 0.82657 0.0
C512 C 0.33608 0.23204 0.73818 0.0
C513 C 0.36935 0.24065 0.75254 0.0
C514 C 0.31935 0.2481 0.75817 0.0
C515 C 0.33524 0.27239 0.79385 0.0
C516 C 0.36803 0.27997 0.80941 0.0
H517 H 0.21922 0.32659 0.98642 0.0
H518 H 0.24751 0.29921 0.947 0.0
C519 C 0.38506 0.2645 0.78864 0.0
C520 C 0.31682 0.28848 0.81621 0.0
H521 H 0.32649 0.36554 0.85095 0.0
C522 C 0.28301 0.26701 0.83234 0.0
C523 C 0.33215 0.32459 0.82159 0.0
C524 C 0.36701 0.34954 0.80127 0.0
C525 C 0.26431 0.28052 0.85413 0.0
C526 C 0.28044 0.31647 0.86214 0.0
C527 C 0.31413 0.33795 0.8455 0.0
C528 C 0.26284 0.33267 0.88656 0.0
C529 C 0.22719 0.25608 0.867 0.0
C530 C 0.2629 0.36138 0.86678 0.0
C531 C 0.24833 0.37814 0.8904 0.0
C532 C 0.2329 0.36637 0.93424 0.0
C533 C 0.23171 0.3369 0.95333 0.0
C534 C 0.24726 0.32074 0.93028 0.0
H535 H 0.21574 0.23276 0.84467 0.0
H536 H 0.22591 0.24739 0.90346 0.0
H537 H 0.21124 0.26856 0.86375 0.0
H538 H 0.27459 0.37112 0.83308 0.0
H539 H 0.24964 0.40068 0.87442 0.0
H540 H 0.14375 0.33478 0.09912 0.0
H541 H 0.09395 0.30097 0.1501 0.0
H542 H 0.0383 0.34362 0.08081 0.0
H543 H 0.08737 0.3772 0.03029 0.0
H544 H 0.06281 0.32596 0.21089 0.0
H545 H 0.96889 0.24037 0.07953 0.0
H546 H 0.01475 0.26432 0.06861 0.0
H547 H 0.98928 0.28496 0.06314 0.0
C548 C 0.12072 0.33659 0.09438 0.0
C549 C 0.11944 0.35838 0.0601 0.0
C550 C 0.09233 0.3173 0.12356 0.0
C551 C 0.06215 0.31922 0.11856 0.0
C552 C 0.06093 0.34098 0.08448 0.0
H553 H 0.90351 0.29778 0.29842 0.0
H554 H 0.95427 0.31457 0.25029 0.0
C555 C 0.08919 0.36031 0.05561 0.0
C556 C 0.03244 0.30031 0.15047 0.0
H557 H 0.94508 0.24694 0.15131 0.0
C558 C 0.03717 0.30822 0.19802 0.0
C559 C 0.99904 0.27682 0.13376 0.0
C560 C 0.99269 0.26582 0.08353 0.0
C561 C 0.00905 0.29483 0.22879 0.0
C562 C 0.97539 0.27332 0.2114 0.0
C563 C 0.97088 0.26377 0.16443 0.0
C564 C 0.94446 0.26256 0.24074 0.0
C565 C 0.01543 0.30412 0.27959 0.0
C566 C 0.92148 0.22761 0.25021 0.0
C567 C 0.89237 0.21789 0.27808 0.0
C568 C 0.88577 0.24303 0.29656 0.0
C569 C 0.90828 0.27786 0.28564 0.0
C570 C 0.93735 0.28752 0.25816 0.0
H571 H 0.04269 0.31344 0.28935 0.0
H572 H 0.00963 0.32496 0.28711 0.0
H573 H 0.9984 0.28155 0.30166 0.0
H574 H 0.92634 0.20793 0.23658 0.0
H575 H 0.87542 0.19084 0.28577 0.0
H576 H 0.80931 0.12055 0.40598 0.0
H577 H 0.78089 0.06331 0.44224 0.0
H578 H 0.70359 0.08296 0.50024 0.0
H579 H 0.73263 0.14063 0.46488 0.0
H580 H 0.72644 0.05497 0.56379 0.0
H581 H 0.69389 0.97821 0.40176 0.0
H582 H 0.73871 0.01024 0.40619 0.0
H583 H 0.70679 0.02328 0.40252 0.0
C584 C 0.78603 0.11238 0.42608 0.0
C585 C 0.77274 0.13457 0.43219 0.0
C586 C 0.76974 0.07968 0.44662 0.0
C587 C 0.73965 0.06848 0.47319 0.0
C588 C 0.72663 0.09092 0.47968 0.0
H589 H 0.59727 0.85851 0.55973 0.0
H590 H 0.62556 0.91615 0.52481 0.0
C591 C 0.74315 0.12378 0.45952 0.0
C592 C 0.72237 0.03383 0.49541 0.0
H593 H 0.68585 0.94782 0.47242 0.0
C594 C 0.71754 0.03154 0.5438 0.0
C595 C 0.71024 0.00319 0.46928 0.0
C596 C 0.71234 0.00365 0.41699 0.0
C597 C 0.70132 0.99952 0.56675 0.0
C598 C 0.69033 0.96905 0.54075 0.0
C599 C 0.69476 0.97128 0.49236 0.0
C600 C 0.67326 0.93444 0.5628 0.0
C601 C 0.69498 0.99842 0.61835 0.0
C602 C 0.69088 0.92544 0.59522 0.0
C603 C 0.67478 0.89248 0.6151 0.0
C604 C 0.64085 0.86805 0.60279 0.0
C605 C 0.62348 0.8769 0.56976 0.0
C606 C 0.63954 0.90981 0.54997 0.0
H607 H 0.69917 0.02347 0.63169 0.0
H608 H 0.66817 0.97813 0.62658 0.0
H609 H 0.71281 0.99209 0.63695 0.0
H610 H 0.71721 0.94376 0.60475 0.0
H611 H 0.68889 0.88602 0.63988 0.0
H612 H 0.62795 0.70921 0.699 0.0
H613 H 0.65809 0.69165 0.75243 0.0
H614 H 0.6952 0.7866 0.82821 0.0
H615 H 0.66636 0.80548 0.77253 0.0
H616 H 0.7447 0.76758 0.82055 0.0
H617 H 0.62175 0.65667 0.88061 0.0
H618 H 0.62707 0.65565 0.81902 0.0
H619 H 0.62328 0.69031 0.84441 0.0
C620 C 0.64298 0.72681 0.72628 0.0
C621 C 0.64482 0.7589 0.73111 0.0
C622 C 0.65992 0.71647 0.75732 0.0
C623 C 0.67825 0.73742 0.79497 0.0
C624 C 0.68101 0.76993 0.79948 0.0
H625 H 0.72141 0.64458 0.02979 0.0
H626 H 0.70362 0.6765 0.9799 0.0
C627 C 0.66447 0.78064 0.76771 0.0
C628 C 0.69341 0.72456 0.83009 0.0
H629 H 0.67294 0.65593 0.90115 0.0
C630 C 0.72904 0.74335 0.83861 0.0
C631 C 0.67286 0.69321 0.85419 0.0
C632 C 0.63409 0.673 0.84949 0.0
C633 C 0.74478 0.73112 0.86969 0.0
C634 C 0.72442 0.69883 0.89184 0.0
C635 C 0.6887 0.68052 0.88393 0.0
C636 C 0.73899 0.68344 0.92415 0.0
C637 C 0.78288 0.75315 0.87895 0.0
C638 C 0.76541 0.67716 0.91013 0.0
C639 C 0.77623 0.65935 0.93945 0.0
C640 C 0.76018 0.64677 0.98273 0.0
C641 C 0.73427 0.6537 0.99684 0.0
C642 C 0.72401 0.67202 0.96815 0.0
H643 H 0.79221 0.78074 0.87122 0.0
H644 H 0.78912 0.75082 0.91565 0.0
H645 H 0.79716 0.74466 0.85613 0.0
H646 H 0.77681 0.68486 0.8759 0.0
H647 H 0.79603 0.65412 0.92738 0.0
H648 H 0.13738 0.73311 0.23993 0.0
H649 H 0.08028 0.7066 0.20393 0.0
H650 H 0.05667 0.77417 0.2823 0.0
H651 H 0.11366 0.80022 0.31918 0.0
H652 H 0.00317 0.70933 0.28206 0.0
H653 H 0.05066 0.74775 0.10196 0.0
H654 H 0.06767 0.72329 0.12891 0.0
H655 H 0.07855 0.76487 0.15184 0.0
C656 C 0.11997 0.74231 0.2493 0.0
C657 C 0.12974 0.76863 0.28222 0.0
C658 C 0.08747 0.72731 0.22857 0.0
C659 C 0.06446 0.73891 0.23961 0.0
C660 C 0.07407 0.76494 0.27305 0.0
H661 H 0.88187 0.68628 0.07221 0.0
H662 H 0.93797 0.71673 0.1114 0.0
C663 C 0.1065 0.77973 0.29416 0.0
C664 C 0.03024 0.72355 0.21668 0.0
H665 H 0.99106 0.70558 0.11044 0.0
C666 C 0.00051 0.70874 0.24454 0.0
C667 C 0.02677 0.72333 0.16773 0.0
C668 C 0.05762 0.74099 0.13589 0.0
C669 C 0.96742 0.69292 0.2248 0.0
C670 C 0.96395 0.69102 0.1758 0.0
C671 C 0.99369 0.70664 0.14797 0.0
C672 C 0.92977 0.67274 0.15264 0.0
C673 C 0.93658 0.67887 0.25673 0.0
C674 C 0.90671 0.63784 0.16233 0.0
C675 C 0.87465 0.62062 0.14036 0.0
C676 C 0.86539 0.63775 0.1075 0.0
C677 C 0.88857 0.67251 0.09727 0.0
C678 C 0.92053 0.68986 0.11964 0.0
H679 H 0.94352 0.69182 0.29112 0.0
H680 H 0.91558 0.68206 0.24145 0.0
H681 H 0.92664 0.65099 0.26266 0.0
H682 H 0.91363 0.62378 0.18657 0.0
H683 H 0.85734 0.59367 0.1484 0.0
H684 H 0.40356 0.11294 0.61604 0.0
H685 H 0.36921 0.06061 0.57064 0.0
H686 H 0.28262 0.07746 0.57553 0.0
H687 H 0.31669 0.1296 0.62241 0.0
H688 H 0.29338 0.0012 0.60263 0.0
H689 H 0.31078 0.06508 0.43015 0.0
H690 H 0.34085 0.08589 0.47721 0.0
H691 H 0.29875 0.08121 0.47981 0.0
C692 C 0.37719 0.1055 0.60752 0.0
C693 C 0.36277 0.12533 0.6225 0.0
C694 C 0.35767 0.07568 0.58158 0.0
C695 C 0.32354 0.06539 0.56978 0.0
C696 C 0.30903 0.0852 0.58428 0.0
H697 H 0.18786 0.87527 0.4135 0.0
H698 H 0.20621 0.92687 0.4618 0.0
C699 C 0.32851 0.11497 0.6107 0.0
C700 C 0.30335 0.03361 0.54257 0.0
H701 H 0.28172 0.00434 0.43132 0.0
C702 C 0.2903 0.00177 0.56529 0.0
C703 C 0.29961 0.03469 0.49395 0.0
C704 C 0.31329 0.06847 0.46846 0.0
C705 C 0.27434 0.97082 0.5402 0.0
C706 C 0.27163 0.97196 0.49141 0.0
C707 C 0.28373 0.00373 0.46885 0.0
C708 C 0.25989 0.94075 0.46293 0.0
C709 C 0.26115 0.93703 0.56552 0.0
C710 C 0.28407 0.93181 0.44791 0.0
C711 C 0.27369 0.9024 0.42111 0.0
C712 C 0.23891 0.88146 0.40866 0.0
C713 C 0.21469 0.89063 0.42338 0.0
C714 C 0.22513 0.92012 0.45055 0.0
H715 H 0.26452 0.94041 0.60376 0.0
H716 H 0.23336 0.92019 0.55777 0.0
H717 H 0.27481 0.92367 0.55296 0.0
H718 H 0.31102 0.94758 0.45709 0.0
H719 H 0.29295 0.89599 0.4103 0.0
H720 H 0.16213 0.41795 0.70023 0.0
H721 H 0.16229 0.39756 0.62106 0.0
H722 H 0.25351 0.49425 0.58896 0.0
H723 H 0.25385 0.51441 0.66784 0.0
H724 H 0.15677 0.42901 0.53929 0.0
H725 H 0.27797 0.42411 0.53874 0.0
H726 H 0.25735 0.42589 0.59173 0.0
H727 H 0.28334 0.46446 0.55852 0.0
C728 C 0.18266 0.43448 0.67659 0.0
C729 C 0.20792 0.46781 0.69024 0.0
C730 C 0.18259 0.42293 0.63129 0.0
C731 C 0.20805 0.44429 0.5991 0.0
C732 C 0.23391 0.47709 0.61326 0.0
H733 H 0.24718 0.43226 0.30423 0.0
H734 H 0.24671 0.45254 0.38338 0.0
C735 C 0.23391 0.48868 0.6583 0.0
C736 C 0.20641 0.43345 0.54988 0.0
H737 H 0.25228 0.42078 0.46506 0.0
C738 C 0.17753 0.42693 0.52314 0.0
C739 C 0.23363 0.43107 0.52868 0.0
C740 C 0.2647 0.43643 0.55595 0.0
C741 C 0.1754 0.41869 0.47567 0.0
C742 C 0.20266 0.41636 0.45446 0.0
C743 C 0.23152 0.42285 0.4812 0.0
C744 C 0.20109 0.40563 0.40519 0.0
C745 C 0.1443 0.41323 0.44841 0.0
C746 C 0.17538 0.37277 0.39096 0.0
C747 C 0.17559 0.36124 0.34594 0.0
C748 C 0.2016 0.38224 0.3141 0.0
C749 C 0.22664 0.41564 0.3278 0.0
C750 C 0.22653 0.42713 0.37308 0.0
H751 H 0.1309 0.42539 0.46571 0.0
H752 H 0.15165 0.4239 0.41268 0.0
H753 H 0.12578 0.38519 0.44568 0.0
H754 H 0.15579 0.35552 0.4152 0.0
H755 H 0.15583 0.33545 0.33635 0.0
H756 H 0.81254 0.18674 0.05707 0.0
H757 H 0.83097 0.2013 0.97573 0.0
H758 H 0.76769 0.24828 0.96199 0.0
H759 H 0.74895 0.23341 0.04266 0.0
H760 H 0.75532 0.20099 0.89346 0.0
H761 H 0.89623 0.29172 0.91028 0.0
H762 H 0.88018 0.25092 0.93918 0.0
H763 H 0.86698 0.28056 0.95882 0.0
C764 C 0.80326 0.2009 0.03692 0.0
C765 C 0.77924 0.20886 0.05612 0.0
C766 C 0.81378 0.20919 0.99045 0.0
C767 C 0.80079 0.22599 0.9627 0.0
C768 C 0.77795 0.23519 0.98258 0.0
H769 H 0.81158 0.31073 0.69537 0.0
H770 H 0.79892 0.28701 0.77416 0.0
C771 C 0.7673 0.22674 0.02871 0.0
C772 C 0.80885 0.2321 0.91219 0.0
H773 H 0.87382 0.27734 0.8342 0.0
C774 C 0.78129 0.21754 0.88055 0.0
C775 C 0.84276 0.25337 0.89521 0.0
C776 C 0.87328 0.27031 0.92754 0.0
C777 C 0.78655 0.22446 0.83271 0.0
C778 C 0.82022 0.24678 0.81597 0.0
C779 C 0.84802 0.2602 0.8472 0.0
C780 C 0.82654 0.25916 0.76708 0.0
C781 C 0.75594 0.20823 0.80044 0.0
C782 C 0.84624 0.25132 0.73684 0.0
C783 C 0.85336 0.26473 0.69146 0.0
C784 C 0.84143 0.28674 0.6761 0.0
C785 C 0.82131 0.29405 0.70636 0.0
C786 C 0.81391 0.28038 0.75129 0.0
H787 H 0.73388 0.18501 0.81623 0.0
H788 H 0.74744 0.22713 0.79286 0.0
H789 H 0.76281 0.20087 0.76699 0.0
H790 H 0.85633 0.23508 0.74847 0.0
H791 H 0.8691 0.25887 0.66896 0.0
H792 H 0.60172 0.7819 0.37017 0.0
H793 H 0.6023 0.80125 0.2902 0.0
H794 H 0.55398 0.69605 0.24288 0.0
H795 H 0.55238 0.67644 0.32261 0.0
H796 H 0.63484 0.79171 0.21285 0.0
H797 H 0.49383 0.73093 0.18452 0.0
H798 H 0.51251 0.7363 0.24164 0.0
H799 H 0.50734 0.70164 0.2049 0.0
C800 C 0.59074 0.76286 0.34283 0.0
C801 C 0.57702 0.72762 0.3528 0.0
C802 C 0.59129 0.77397 0.29714 0.0
C803 C 0.57783 0.75005 0.26068 0.0
C804 C 0.56399 0.7149 0.27055 0.0
H805 H 0.56288 0.76489 0.96031 0.0
H806 H 0.56332 0.7451 0.03983 0.0
C807 C 0.56347 0.70379 0.31611 0.0
C808 C 0.5794 0.76186 0.21204 0.0
H809 H 0.52956 0.75407 0.11787 0.0
C810 C 0.61183 0.78366 0.19213 0.0
C811 C 0.54934 0.75117 0.18505 0.0
C812 C 0.51375 0.72898 0.20516 0.0
C813 C 0.61505 0.79462 0.14569 0.0
C814 C 0.58499 0.78388 0.11869 0.0
C815 C 0.55257 0.76207 0.13857 0.0
C816 C 0.58652 0.79597 0.07024 0.0
C817 C 0.6506 0.81711 0.12564 0.0
C818 C 0.59944 0.83107 0.06105 0.0
C819 C 0.59929 0.84239 0.01583 0.0
C820 C 0.58603 0.81883 0.97882 0.0
C821 C 0.57356 0.7837 0.98798 0.0
C822 C 0.5736 0.77235 0.03338 0.0
H823 H 0.67067 0.81551 0.14641 0.0
H824 H 0.65196 0.80975 0.08921 0.0
H825 H 0.65665 0.84433 0.12568 0.0
H826 H 0.60906 0.84967 0.08904 0.0
H827 H 0.60939 0.86966 1.00987 0.0
H828 H 0.88259 0.63311 0.70214 0.0
H829 H 0.86442 0.62886 0.62115 0.0
H830 H 0.76035 0.55393 0.66051 0.0
H831 H 0.7784 0.55879 0.74201 0.0
H832 H 0.84079 0.5738 0.56805 0.0
H833 H 0.74262 0.61414 0.57424 0.0
H834 H 0.77157 0.62128 0.62199 0.0
H835 H 0.73342 0.57987 0.61434 0.0
C836 C 0.85572 0.61609 0.69359 0.0
C837 C 0.83192 0.59618 0.72836 0.0
C838 C 0.84535 0.6137 0.64728 0.0
C839 C 0.81095 0.59129 0.63455 0.0
C840 C 0.78687 0.57202 0.66945 0.0
H841 H 0.73437 0.48856 0.3745 0.0
H842 H 0.75889 0.50834 0.45166 0.0
C843 C 0.7972 0.57469 0.71602 0.0
C844 C 0.80118 0.58601 0.58446 0.0
H845 H 0.74329 0.58427 0.50549 0.0
C846 C 0.81968 0.57647 0.55438 0.0
C847 C 0.77399 0.58995 0.5662 0.0
C848 C 0.7545 0.60223 0.59578 0.0
C849 C 0.81105 0.56965 0.50716 0.0
C850 C 0.78263 0.57167 0.48955 0.0
C851 C 0.76489 0.58242 0.51909 0.0
C852 C 0.76966 0.56066 0.44145 0.0
C853 C 0.83247 0.56031 0.47657 0.0
C854 C 0.76736 0.58343 0.40992 0.0
C855 C 0.75315 0.57209 0.36559 0.0
C856 C 0.74055 0.53763 0.35238 0.0
C857 C 0.74361 0.51518 0.38375 0.0
C858 C 0.75789 0.52653 0.42778 0.0
H859 H 0.85881 0.57031 0.49091 0.0
H860 H 0.82003 0.53184 0.47453 0.0
H861 H 0.83469 0.5706 0.4408 0.0
H862 H 0.77617 0.60985 0.41982 0.0
H863 H 0.75084 0.58988 0.34236 0.0
H864 H 0.23472 0.87636 0.65844 0.0
H865 H 0.24628 0.87185 0.74061 0.0
H866 H 0.18929 0.76101 0.73082 0.0
H867 H 0.17749 0.76526 0.64886 0.0
H868 H 0.19877 0.84058 0.81204 0.0
H869 H 0.27881 0.77892 0.79208 0.0
H870 H 0.26952 0.79905 0.74413 0.0
H871 H 0.23795 0.75644 0.76303 0.0
C872 C 0.22466 0.85101 0.67376 0.0
C873 C 0.20524 0.82116 0.64697 0.0
C874 C 0.2314 0.84849 0.72069 0.0
C875 C 0.21905 0.81611 0.74174 0.0
C876 C 0.19978 0.78628 0.71509 0.0
H877 H 0.21924 0.74259 0.02083 0.0
H878 H 0.2092 0.74888 0.93877 0.0
C879 C 0.19305 0.78876 0.66818 0.0
C880 C 0.22509 0.8135 0.79203 0.0
H881 H 0.2599 0.78094 0.86863 0.0
C882 C 0.21235 0.82776 0.82442 0.0
C883 C 0.24273 0.79666 0.80815 0.0
C884 C 0.25834 0.78216 0.77507 0.0
C885 C 0.21614 0.82503 0.8725 0.0
C886 C 0.23358 0.80803 0.88859 0.0
C887 C 0.24644 0.79388 0.85621 0.0
C888 C 0.23879 0.80457 0.93888 0.0
C889 C 0.20068 0.8396 0.90571 0.0
C890 C 0.25882 0.83382 0.96625 0.0
C891 C 0.26483 0.83032 0.01319 0.0
C892 C 0.25106 0.79747 0.03365 0.0
C893 C 0.23067 0.76826 1.00613 0.0
C894 C 0.22475 0.77179 0.95924 0.0
H895 H 0.18122 0.84429 0.88841 0.0
H896 H 0.18829 0.82193 0.93564 0.0
H897 H 0.22141 0.86454 0.9194 0.0
H898 H 0.27044 0.85935 0.95106 0.0
H899 H 0.28107 0.85334 0.03307 0.0
H900 H 0.35935 0.12184 0.38081 0.0
H901 H 0.37102 0.12111 0.29791 0.0
H902 H 0.42689 0.23228 0.29564 0.0
H903 H 0.41597 0.23306 0.37901 0.0
H904 H 0.35109 0.14455 0.22623 0.0
H905 H 0.49409 0.21337 0.22909 0.0
H906 H 0.46857 0.19805 0.28139 0.0
H907 H 0.47612 0.23747 0.25429 0.0
C908 C 0.37438 0.14613 0.36271 0.0
C909 C 0.38684 0.17751 0.38649 0.0
C910 C 0.38104 0.1457 0.31528 0.0
C911 C 0.40019 0.17662 0.29036 0.0
C912 C 0.41281 0.20804 0.31413 0.0
H913 H 0.44907 0.20648 0.99054 0.0
H914 H 0.43608 0.21571 0.07064 0.0
C915 C 0.40649 0.20848 0.3618 0.0
C916 C 0.40561 0.17562 0.2393 0.0
H917 H 0.46754 0.20062 0.155 0.0
C918 C 0.3766 0.15687 0.21077 0.0
C919 C 0.43887 0.19181 0.2188 0.0
C920 C 0.47122 0.21104 0.24748 0.0
C921 C 0.37993 0.15351 0.16275 0.0
C922 C 0.41311 0.16924 0.14253 0.0
C923 C 0.4421 0.18876 0.1706 0.0
C924 C 0.41842 0.16338 0.09313 0.0
C925 C 0.34795 0.13293 0.13388 0.0
C926 C 0.41251 0.1309 0.07921 0.0
C927 C 0.42015 0.1257 0.03386 0.0
C928 C 0.4336 0.15281 1.0013 0.0
C929 C 0.4384 0.18506 0.01478 0.0
C930 C 0.43119 0.1904 0.06051 0.0
H931 H 0.32436 0.12876 0.15227 0.0
H932 H 0.35007 0.14611 0.10027 0.0
H933 H 0.34504 0.10737 0.12614 0.0
H934 H 0.40293 0.10978 0.10388 0.0
H935 H 0.41616 0.10058 0.02443 0.0
H936 H 0.1627 0.45662 0.13038 0.0
H937 H 0.15925 0.50045 0.17691 0.0
H938 H 0.20274 0.5727 0.06328 0.0
H939 H 0.20623 0.52915 0.01659 0.0
H940 H 0.21586 0.56274 0.2022 0.0
H941 H 0.12175 0.58427 0.1041 0.0
H942 H 0.1261 0.54671 0.09558 0.0
H943 H 0.15601 0.58706 0.06862 0.0
C944 C 0.17099 0.48167 0.11505 0.0
C945 C 0.18476 0.48943 0.06982 0.0
C946 C 0.16902 0.50666 0.14167 0.0
C947 C 0.18045 0.5397 0.1234 0.0
C948 C 0.19313 0.54715 0.07773 0.0
H949 H 0.2605 0.73482 0.26049 0.0
H950 H 0.25104 0.68314 0.2193 0.0
C951 C 0.19515 0.52221 0.0511 0.0
C952 C 0.1819 0.56725 0.15327 0.0
H953 H 0.15637 0.6272 0.16008 0.0
C954 C 0.20255 0.57659 0.1933 0.0
C955 C 0.16431 0.58508 0.14176 0.0
C956 C 0.14052 0.57509 0.10042 0.0
C957 C 0.20696 0.60406 0.22134 0.0
C958 C 0.19065 0.62291 0.2086 0.0
C959 C 0.16908 0.61285 0.16949 0.0
C960 C 0.19645 0.65378 0.23465 0.0
C961 C 0.22908 0.61274 0.26429 0.0
C962 C 0.16881 0.65452 0.25637 0.0
C963 C 0.17408 0.6842 0.27931 0.0
C964 C 0.20705 0.71371 0.28052 0.0
C965 C 0.23473 0.71272 0.25926 0.0
C966 C 0.22945 0.68306 0.23631 0.0
H967 H 0.232 0.59067 0.27588 0.0
H968 H 0.25514 0.63469 0.25648 0.0
H969 H 0.21801 0.62042 0.2933 0.0
H970 H 0.14313 0.63219 0.2553 0.0
H971 H 0.1522 0.68432 0.2951 0.0
H972 H 0.74818 0.26037 0.46047 0.0
H973 H 0.69913 0.2536 0.50556 0.0
H974 H 0.6362 0.15131 0.4502 0.0
H975 H 0.68547 0.15814 0.40425 0.0
H976 H 0.60168 0.18748 0.45387 0.0
H977 H 0.66405 0.19642 0.6231 0.0
H978 H 0.69035 0.23282 0.58668 0.0
H979 H 0.68081 0.19041 0.56909 0.0
C980 C 0.72388 0.23643 0.45773 0.0
C981 C 0.72072 0.20969 0.42901 0.0
C982 C 0.69592 0.23252 0.48379 0.0
C983 C 0.66429 0.20158 0.48237 0.0
C984 C 0.66052 0.17527 0.45223 0.0
H985 H 0.50307 0.16561 0.68644 0.0
H986 H 0.54709 0.16041 0.64266 0.0
C987 C 0.68857 0.17929 0.42572 0.0
C988 C 0.63538 0.19727 0.51228 0.0
H989 H 0.61568 0.20586 0.62438 0.0
C990 C 0.60456 0.19105 0.49121 0.0
C991 C 0.6388 0.20114 0.56119 0.0
C992 C 0.67015 0.20518 0.58639 0.0
C993 C 0.57787 0.19055 0.51741 0.0
C994 C 0.58246 0.1972 0.56576 0.0
C995 C 0.61244 0.20143 0.58721 0.0
C996 C 0.55711 0.20135 0.59411 0.0
C997 C 0.54505 0.18309 0.49297 0.0
C998 C 0.54919 0.22701 0.5826 0.0
C999 C 0.52413 0.23007 0.60743 0.0
C1000 C 0.50651 0.20769 0.64475 0.0
C1001 C 0.51588 0.18319 0.65786 0.0
C1002 C 0.54098 0.18008 0.63275 0.0
H1003 H 0.54123 0.1682 0.46054 0.0
H1004 H 0.52223 0.16841 0.51577 0.0
H1005 H 0.54654 0.20779 0.48331 0.0
H1006 H 0.56209 0.24444 0.55384 0.0
H1007 H 0.51804 0.24953 0.59646 0.0
H1008 H 0.32336 0.4762 0.9696 0.0
H1009 H 0.37243 0.5177 0.9227 0.0
H1010 H 0.30998 0.55689 0.86483 0.0
H1011 H 0.26111 0.51607 0.91177 0.0
H1012 H 0.37781 0.52824 0.82266 0.0
H1013 H 0.39515 0.64261 0.92016 0.0
H1014 H 0.37028 0.59926 0.94263 0.0
H1015 H 0.35206 0.61464 0.89962 0.0
C1016 C 0.32011 0.49374 0.94706 0.0
C1017 C 0.28847 0.49318 0.945 0.0
C1018 C 0.34811 0.5173 0.92013 0.0
C1019 C 0.3449 0.54063 0.89086 0.0
C1020 C 0.31312 0.53948 0.88783 0.0
H1021 H 0.47682 0.67396 0.67015 0.0
H1022 H 0.43109 0.62663 0.71498 0.0
C1023 C 0.2852 0.51606 0.91469 0.0
C1024 C 0.37481 0.56666 0.86389 0.0
H1025 H 0.42703 0.65343 0.85028 0.0
C1026 C 0.38876 0.55562 0.82876 0.0
C1027 C 0.38917 0.6023 0.87234 0.0
C1028 C 0.37616 0.61553 0.91099 0.0
C1029 C 0.41636 0.57945 0.80111 0.0
C1030 C 0.42997 0.61513 0.80861 0.0
C1031 C 0.41638 0.62605 0.84436 0.0
C1032 C 0.4586 0.64182 0.78036 0.0
C1033 C 0.43096 0.56629 0.76453 0.0
C1034 C 0.48913 0.66613 0.80224 0.0
C1035 C 0.51513 0.69325 0.77687 0.0
C1036 C 0.51112 0.69673 0.72901 0.0
C1037 C 0.48085 0.67187 0.70685 0.0
C1038 C 0.45473 0.64472 0.73239 0.0
H1039 H 0.42377 0.53905 0.77105 0.0
H1040 H 0.4206 0.56764 0.73004 0.0
H1041 H 0.4595 0.58228 0.76308 0.0
H1042 H 0.49262 0.6644 0.83922 0.0
H1043 H 0.5382 0.71177 0.79502 0.0
H1044 H 0.81499 0.33253 0.37495 0.0
H1045 H 0.81352 0.38004 0.33432 0.0
H1046 H 0.79413 0.32521 0.20482 0.0
H1047 H 0.79465 0.27772 0.24465 0.0
H1048 H 0.85244 0.42232 0.26187 0.0
H1049 H 0.71571 0.34506 0.20918 0.0
H1050 H 0.73472 0.33003 0.25183 0.0
H1051 H 0.74045 0.32583 0.19071 0.0
C1052 C 0.81024 0.33054 0.33786 0.0
C1053 C 0.80443 0.30097 0.31333 0.0
C1054 C 0.80951 0.35774 0.31469 0.0
C1055 C 0.803 0.35584 0.26669 0.0
C1056 C 0.79824 0.32685 0.24206 0.0
H1057 H 0.83986 0.51947 0.07055 0.0
H1058 H 0.84503 0.47762 0.11982 0.0
C1059 C 0.79864 0.29967 0.26507 0.0
C1060 C 0.80105 0.38388 0.24183 0.0
H1061 H 0.74938 0.39862 0.16959 0.0
C1062 C 0.82981 0.4173 0.24204 0.0
C1063 C 0.77134 0.3774 0.21648 0.0
C1064 C 0.73869 0.34272 0.21738 0.0
C1065 C 0.82996 0.44421 0.21652 0.0
C1066 C 0.80087 0.43723 0.18923 0.0
C1067 C 0.77188 0.40396 0.19001 0.0
C1068 C 0.7992 0.46396 0.16043 0.0
C1069 C 0.86105 0.47988 0.21967 0.0
C1070 C 0.77136 0.46968 0.16595 0.0
C1071 C 0.76784 0.49273 0.13704 0.0
C1072 C 0.79229 0.511 0.10215 0.0
C1073 C 0.82057 0.50581 0.09705 0.0
C1074 C 0.82377 0.48217 0.1256 0.0
H1075 H 0.87604 0.48307 0.25189 0.0
H1076 H 0.87827 0.48418 0.18961 0.0
H1077 H 0.85345 0.49995 0.21895 0.0
H1078 H 0.75203 0.45596 0.19245 0.0
H1079 H 0.74576 0.49607 0.14205 0.0
H1080 H 0.32376 0.79385 0.33369 0.0
H1081 H 0.37267 0.7961 0.37588 0.0
H1082 H 0.34081 0.82531 0.50088 0.0
H1083 H 0.29215 0.82278 0.45963 0.0
H1084 H 0.42838 0.84972 0.43189 0.0
H1085 H 0.33818 0.73421 0.53464 0.0
H1086 H 0.32532 0.74683 0.48211 0.0
H1087 H 0.32865 0.76863 0.53586 0.0
C1088 C 0.32748 0.80107 0.37003 0.0
C1089 C 0.30375 0.80741 0.39359 0.0
C1090 C 0.35537 0.8024 0.39402 0.0
C1091 C 0.35987 0.81024 0.44167 0.0
C1092 C 0.33735 0.81852 0.46438 0.0
H1093 H 0.52999 0.84551 0.62625 0.0
H1094 H 0.48802 0.85281 0.58016 0.0
C1095 C 0.30949 0.81694 0.44071 0.0
C1096 C 0.38663 0.80775 0.46877 0.0
H1097 H 0.39658 0.76344 0.55835 0.0
C1098 C 0.42155 0.83083 0.45945 0.0
C1099 C 0.37751 0.7829 0.50447 0.0
C1100 C 0.3404 0.75651 0.51472 0.0
C1101 C 0.44769 0.8299 0.48541 0.0
C1102 C 0.43848 0.80553 0.5218 0.0
C1103 C 0.40355 0.78233 0.53074 0.0
C1104 C 0.46449 0.80201 0.54939 0.0
C1105 C 0.48487 0.85447 0.47316 0.0
C1106 C 0.46465 0.77085 0.54815 0.0
C1107 C 0.48814 0.76643 0.57479 0.0
C1108 C 0.51197 0.79308 0.60354 0.0
C1109 C 0.5118 0.82437 0.60484 0.0
C1110 C 0.48811 0.82874 0.5781 0.0
H1111 H 0.48752 0.86637 0.43836 0.0
H1112 H 0.49616 0.87543 0.49928 0.0
H1113 H 0.50005 0.84106 0.47364 0.0
H1114 H 0.44657 0.74986 0.52636 0.0
H1115 H 0.48753 0.74201 0.57269 0.0
H1116 H 0.71359 0.54228 0.90631 0.0
H1117 H 0.66787 0.49757 0.85907 0.0
H1118 H 0.6267 0.43271 0.98023 0.0
H1119 H 0.67249 0.47716 0.02788 0.0
H1120 H 0.65733 0.43004 0.84866 0.0
H1121 H 0.54116 0.42878 0.91854 0.0
H1122 H 0.58428 0.46455 0.92711 0.0
H1123 H 0.56881 0.42616 0.96166 0.0
C1124 C 0.69462 0.51868 0.92314 0.0
C1125 C 0.69673 0.51337 0.97099 0.0
C1126 C 0.6685 0.49318 0.89603 0.0
C1127 C 0.64377 0.46199 0.91622 0.0
C1128 C 0.64521 0.45687 0.96413 0.0
H1129 H 0.51474 0.26199 0.79656 0.0
H1130 H 0.5579 0.31282 0.83858 0.0
C1131 C 0.67143 0.48234 0.99132 0.0
C1132 C 0.618 0.43394 0.88658 0.0
H1133 H 0.53153 0.38268 0.86826 0.0
C1134 C 0.62983 0.41982 0.85272 0.0
C1135 C 0.58219 0.4209 0.89175 0.0
C1136 C 0.56823 0.43601 0.92644 0.0
C1137 C 0.60672 0.39234 0.82468 0.0
C1138 C 0.57091 0.37859 0.83087 0.0
C1139 C 0.55905 0.39326 0.86385 0.0
C1140 C 0.5454 0.34821 0.80441 0.0
C1141 C 0.62067 0.37811 0.78865 0.0
C1142 C 0.52397 0.35136 0.77156 0.0
C1143 C 0.49939 0.32239 0.74736 0.0
C1144 C 0.49568 0.28981 0.75599 0.0
C1145 C 0.5171 0.28679 0.78909 0.0
C1146 C 0.54182 0.31577 0.81296 0.0
H1147 H 0.64848 0.39593 0.78164 0.0
H1148 H 0.61753 0.35328 0.80129 0.0
H1149 H 0.60617 0.37307 0.75556 0.0
H1150 H 0.5262 0.37619 0.76482 0.0
H1151 H 0.48266 0.32532 0.72298 0.0
loop_
_geom_bond_atom_site_label_1
_geom_bond_atom_site_label_2
_geom_bond_distance
_geom_bond_site_symmetry_2
_ccdc_geom_bond_type
Tb0 N29 2.617 . S
Tb0 N35 2.572 . S
Tb0 O44 2.465 . S
Tb0 O45 2.387 1_556 S
Tb0 O47 2.428 . S
Tb0 O48 2.308 . S
Tb0 O52 2.349 . S
Tb0 O55 2.393 . S
Tb0 C64 2.802 . S
C1 N2 1.379 . S
C1 C4 1.416 . S
C1 C8 1.424 . S
N2 C1 1.379 . S
N2 C5 1.334 . S
N2 Tb11 2.617 . S
C3 C5 1.390 . S
C3 C6 1.339 . S
C3 H23 0.930 . S
C4 C1 1.416 . S
C4 C6 1.416 . S
C4 C10 1.448 . S
C5 N2 1.334 . S
C5 C3 1.390 . S
C5 H16 0.930 . S
C6 C3 1.339 . S
C6 C4 1.416 . S
C6 H27 0.930 . S
C7 C8 1.413 . S
C7 C9 1.427 . S
C7 C13 1.416 . S
C8 C1 1.424 . S
C8 C7 1.413 . S
C8 N12 1.361 . S
C9 C7 1.427 . S
C9 C10 1.328 . S
C9 H24 0.929 . S
C10 C4 1.448 . S
C10 C9 1.328 . S
C10 H25 0.930 . S
Tb11 N2 2.617 . S
Tb11 N12 2.572 . S
Tb11 O46 2.349 . S
Tb11 O49 2.393 . S
Tb11 O50 2.465 . S
Tb11 O51 2.387 1_554 S
Tb11 O53 2.428 . S
Tb11 O54 2.308 . S
Tb11 C75 2.802 . S
N12 C8 1.361 . S
N12 Tb11 2.572 . S
N12 C14 1.340 . S
C13 C7 1.416 . S
C13 C15 1.332 . S
C13 H21 0.931 . S
C14 N12 1.340 . S
C14 C15 1.407 . S
C14 H20 0.930 . S
C15 C13 1.332 . S
C15 C14 1.407 . S
C15 H17 0.929 . S
H16 C5 0.930 . S
H17 C15 0.929 . S
H18 C33 0.930 . S
H19 C40 0.929 . S
H20 C14 0.930 . S
H21 C13 0.931 . S
H22 C36 0.930 . S
H23 C3 0.930 . S
H24 C9 0.929 . S
H25 C10 0.930 . S
H26 C31 0.930 . S
H27 C6 0.930 . S
H28 C39 0.931 . S
N29 Tb0 2.617 . S
N29 C30 1.379 . S
N29 C33 1.334 . S
C30 N29 1.379 . S
C30 C32 1.416 . S
C30 C38 1.424 . S
C31 H26 0.930 . S
C31 C33 1.390 . S
C31 C34 1.339 . S
C32 C30 1.416 . S
C32 C34 1.416 . S
C32 C65 1.448 . S
C33 H18 0.930 . S
C33 N29 1.334 . S
C33 C31 1.390 . S
C34 C31 1.339 . S
C34 C32 1.416 . S
C34 H41 0.930 . S
N35 Tb0 2.572 . S
N35 C36 1.340 . S
N35 C38 1.361 . S
C36 H22 0.930 . S
C36 N35 1.340 . S
C36 C40 1.407 . S
C37 C38 1.413 . S
C37 C39 1.416 . S
C37 C66 1.427 . S
C38 C30 1.424 . S
C38 N35 1.361 . S
C38 C37 1.413 . S
C39 H28 0.931 . S
C39 C37 1.416 . S
C39 C40 1.332 . S
C40 H19 0.929 . S
C40 C36 1.407 . S
C40 C39 1.332 . S
H41 C34 0.930 . S
H42 C65 0.930 . S
H43 C66 0.929 . S
O44 Tb0 2.465 . S
O44 C64 1.264 . S
O45 Tb0 2.387 1_554 S
O45 C56 1.264 . S
O46 Tb11 2.349 . S
O46 C56 1.243 . S
O47 Tb0 2.428 . S
O47 C64 1.256 . S
O48 Tb0 2.308 . S
O48 C63 1.266 . S
O49 Tb11 2.393 . S
O49 C63 1.248 1_554 S
O50 Tb11 2.465 . S
O50 C75 1.264 . S
O51 Tb11 2.387 1_556 S
O51 C67 1.264 . S
O52 Tb0 2.349 . S
O52 C67 1.243 . S
O53 Tb11 2.428 . S
O53 C75 1.256 . S
O54 Tb11 2.308 . S
O54 C74 1.266 . S
O55 Tb0 2.393 . S
O55 C74 1.248 1_556 S
C56 O45 1.264 . S
C56 O46 1.243 . S
C57 C60 1.399 . S
C57 C62 1.383 . S
C57 C64 1.496 . S
C58 C59 1.399 . S
C58 C62 1.389 . S
C59 C58 1.399 . S
C59 C61 1.380 . S
C59 H76 0.929 . S
C60 C57 1.399 . S
C60 C61 1.392 . S
C60 H77 0.929 . S
C61 C59 1.380 . S
C61 C60 1.392 . S
C61 H78 0.929 . S
C62 C57 1.383 . S
C62 C58 1.389 . S
C62 H79 0.931 . S
C63 O48 1.266 . S
C63 O49 1.248 1_556 S
C64 Tb0 2.802 . S
C64 O44 1.264 . S
C64 O47 1.256 . S
C64 C57 1.496 . S
C65 C32 1.448 . S
C65 H42 0.930 . S
C65 C66 1.328 . S
C66 C37 1.427 . S
C66 H43 0.929 . S
C66 C65 1.328 . S
C67 O51 1.264 . S
C67 O52 1.243 . S
C68 C71 1.399 . S
C68 C72 1.383 . S
C68 C75 1.496 . S
C69 C70 1.399 . S
C69 C72 1.389 . S
C70 C69 1.399 . S
C70 C73 1.380 . S
C70 H80 0.929 . S
C71 C68 1.399 . S
C71 C73 1.392 . S
C71 H81 0.929 . S
C72 C68 1.383 . S
C72 C69 1.389 . S
C72 H82 0.931 . S
C73 C70 1.380 . S
C73 C71 1.392 . S
C73 H83 0.929 . S
C74 O54 1.266 . S
C74 O55 1.248 1_554 S
C75 Tb11 2.802 . S
C75 O50 1.264 . S
C75 O53 1.256 . S
C75 C68 1.496 . S
H76 C59 0.929 . S
H77 C60 0.929 . S
H78 C61 0.929 . S
H79 C62 0.931 . S
H80 C70 0.929 . S
H81 C71 0.929 . S
H82 C72 0.931 . S
H83 C73 0.929 . S
Tb84 N113 2.617 . S
Tb84 N119 2.572 . S
Tb84 O128 2.465 . S
Tb84 O129 2.387 . S
Tb84 O131 2.428 . S
Tb84 O132 2.308 . S
Tb84 O136 2.349 . S
Tb84 O139 2.393 . S
Tb84 C148 2.802 . S
C85 N86 1.379 . S
C85 C88 1.416 . S
C85 C92 1.424 . S
N86 C85 1.379 . S
N86 C89 1.334 . S
N86 Tb95 2.617 . S
C87 C89 1.390 . S
C87 C90 1.339 . S
C87 H107 0.930 . S
C88 C85 1.416 . S
C88 C90 1.416 . S
C88 C94 1.448 . S
C89 N86 1.334 . S
C89 C87 1.390 . S
C89 H100 0.930 . S
C90 C87 1.339 . S
C90 C88 1.416 . S
C90 H111 0.930 . S
C91 C92 1.413 . S
C91 C93 1.427 . S
C91 C97 1.416 . S
C92 C85 1.424 . S
C92 C91 1.413 . S
C92 N96 1.361 . S
C93 C91 1.427 . S
C93 C94 1.328 . S
C93 H108 0.929 . S
C94 C88 1.448 . S
C94 C93 1.328 . S
C94 H109 0.930 . S
Tb95 N86 2.617 . S
Tb95 N96 2.572 . S
Tb95 O130 2.349 . S
Tb95 O133 2.393 . S
Tb95 O134 2.465 . S
Tb95 O135 2.387 . S
Tb95 O137 2.428 . S
Tb95 O138 2.308 . S
Tb95 C159 2.802 . S
N96 C92 1.361 . S
N96 Tb95 2.572 . S
N96 C98 1.340 . S
C97 C91 1.416 . S
C97 C99 1.332 . S
C97 H105 0.931 . S
C98 N96 1.340 . S
C98 C99 1.407 . S
C98 H104 0.930 . S
C99 C97 1.332 . S
C99 C98 1.407 . S
C99 H101 0.929 . S
H100 C89 0.930 . S
H101 C99 0.929 . S
H102 C117 0.930 . S
H103 C124 0.929 . S
H104 C98 0.930 . S
H105 C97 0.931 . S
H106 C120 0.930 . S
H107 C87 0.930 . S
H108 C93 0.929 . S
H109 C94 0.930 . S
H110 C115 0.930 . S
H111 C90 0.930 . S
H112 C123 0.931 . S
N113 Tb84 2.617 . S
N113 C114 1.379 . S
N113 C117 1.334 . S
C114 N113 1.379 . S
C114 C116 1.416 . S
C114 C122 1.424 . S
C115 H110 0.930 . S
C115 C117 1.390 . S
C115 C118 1.339 . S
C116 C114 1.416 . S
C116 C118 1.416 . S
C116 C149 1.448 . S
C117 H102 0.930 . S
C117 N113 1.334 . S
C117 C115 1.390 . S
C118 C115 1.339 . S
C118 C116 1.416 . S
C118 H125 0.930 . S
N119 Tb84 2.572 . S
N119 C120 1.340 . S
N119 C122 1.361 . S
C120 H106 0.930 . S
C120 N119 1.340 . S
C120 C124 1.407 . S
C121 C122 1.413 . S
C121 C123 1.416 . S
C121 C150 1.427 . S
C122 C114 1.424 . S
C122 N119 1.361 . S
C122 C121 1.413 . S
C123 H112 0.931 . S
C123 C121 1.416 . S
C123 C124 1.332 . S
C124 H103 0.929 . S
C124 C120 1.407 . S
C124 C123 1.332 . S
H125 C118 0.930 . S
H126 C149 0.930 . S
H127 C150 0.929 . S
O128 Tb84 2.465 . S
O128 C148 1.264 . S
O129 Tb84 2.387 . S
O129 C140 1.264 . S
O130 Tb95 2.349 . S
O130 C140 1.243 . S
O131 Tb84 2.428 . S
O131 C148 1.256 . S
O132 Tb84 2.308 . S
O132 C147 1.266 . S
O133 Tb95 2.393 . S
O133 C147 1.248 . S
O134 Tb95 2.465 . S
O134 C159 1.264 . S
O135 Tb95 2.387 . S
O135 C151 1.264 . S
O136 Tb84 2.349 . S
O136 C151 1.243 . S
O137 Tb95 2.428 . S
O137 C159 1.256 . S
O138 Tb95 2.308 . S
O138 C158 1.266 . S
O139 Tb84 2.393 . S
O139 C158 1.248 . S
C140 O129 1.264 . S
C140 O130 1.243 . S
C141 C144 1.399 . S
C141 C146 1.383 . S
C141 C148 1.496 . S
C142 C143 1.399 . S
C142 C146 1.389 . S
C143 C142 1.399 . S
C143 C145 1.380 . S
C143 H160 0.929 . S
C144 C141 1.399 . S
C144 C145 1.392 . S
C144 H161 0.929 . S
C145 C143 1.380 . S
C145 C144 1.392 . S
C145 H162 0.929 . S
C146 C141 1.383 . S
C146 C142 1.389 . S
C146 H163 0.931 . S
C147 O132 1.266 . S
C147 O133 1.248 . S
C148 Tb84 2.802 . S
C148 O128 1.264 . S
C148 O131 1.256 . S
C148 C141 1.496 . S
C149 C116 1.448 . S
C149 H126 0.930 . S
C149 C150 1.328 . S
C150 C121 1.427 . S
C150 H127 0.929 . S
C150 C149 1.328 . S
C151 O135 1.264 . S
C151 O136 1.243 . S
C152 C155 1.399 . S
C152 C156 1.383 . S
C152 C159 1.496 . S
C153 C154 1.399 . S
C153 C156 1.389 . S
C154 C153 1.399 . S
C154 C157 1.380 . S
C154 H164 0.929 . S
C155 C152 1.399 . S
C155 C157 1.392 . S
C155 H165 0.929 . S
C156 C152 1.383 . S
C156 C153 1.389 . S
C156 H166 0.931 . S
C157 C154 1.380 . S
C157 C155 1.392 . S
C157 H167 0.929 . S
C158 O138 1.266 . S
C158 O139 1.248 . S
C159 Tb95 2.802 . S
C159 O134 1.264 . S
C159 O137 1.256 . S
C159 C152 1.496 . S
H160 C143 0.929 . S
H161 C144 0.929 . S
H162 C145 0.929 . S
H163 C146 0.931 . S
H164 C154 0.929 . S
H165 C155 0.929 . S
H166 C156 0.931 . S
H167 C157 0.929 . S
Tb168 N197 2.617 . S
Tb168 N203 2.572 . S
Tb168 O212 2.465 . S
Tb168 O213 2.387 . S
Tb168 O215 2.428 . S
Tb168 O216 2.308 . S
Tb168 O220 2.349 . S
Tb168 O223 2.393 . S
Tb168 C232 2.802 . S
C169 N170 1.379 . S
C169 C172 1.416 . S
C169 C176 1.424 . S
N170 C169 1.379 . S
N170 C173 1.334 . S
N170 Tb179 2.617 . S
C171 C173 1.390 . S
C171 C174 1.339 . S
C171 H191 0.930 . S
C172 C169 1.416 . S
C172 C174 1.416 . S
C172 C178 1.448 . S
C173 N170 1.334 . S
C173 C171 1.390 . S
C173 H184 0.930 . S
C174 C171 1.339 . S
C174 C172 1.416 . S
C174 H195 0.930 . S
C175 C176 1.413 . S
C175 C177 1.427 . S
C175 C181 1.416 . S
C176 C169 1.424 . S
C176 C175 1.413 . S
C176 N180 1.361 . S
C177 C175 1.427 . S
C177 C178 1.328 . S
C177 H192 0.929 . S
C178 C172 1.448 . S
C178 C177 1.328 . S
C178 H193 0.930 . S
Tb179 N170 2.617 . S
Tb179 N180 2.572 . S
Tb179 O214 2.349 . S
Tb179 O217 2.393 . S
Tb179 O218 2.465 . S
Tb179 O219 2.387 . S
Tb179 O221 2.428 . S
Tb179 O222 2.308 . S
Tb179 C243 2.802 . S
N180 C176 1.361 . S
N180 Tb179 2.572 . S
N180 C182 1.340 . S
C181 C175 1.416 . S
C181 C183 1.332 . S
C181 H189 0.931 . S
C182 N180 1.340 . S
C182 C183 1.407 . S
C182 H188 0.930 . S
C183 C181 1.332 . S
C183 C182 1.407 . S
C183 H185 0.929 . S
H184 C173 0.930 . S
H185 C183 0.929 . S
H186 C201 0.930 . S
H187 C208 0.929 . S
H188 C182 0.930 . S
H189 C181 0.931 . S
H190 C204 0.930 . S
H191 C171 0.930 . S
H192 C177 0.929 . S
H193 C178 0.930 . S
H194 C199 0.930 . S
H195 C174 0.930 . S
H196 C207 0.931 . S
N197 Tb168 2.617 . S
N197 C198 1.379 . S
N197 C201 1.334 . S
C198 N197 1.379 . S
C198 C200 1.416 . S
C198 C206 1.424 . S
C199 H194 0.930 . S
C199 C201 1.390 . S
C199 C202 1.339 . S
C200 C198 1.416 . S
C200 C202 1.416 . S
C200 C233 1.448 . S
C201 H186 0.930 . S
C201 N197 1.334 . S
C201 C199 1.390 . S
C202 C199 1.339 . S
C202 C200 1.416 . S
C202 H209 0.930 . S
N203 Tb168 2.572 . S
N203 C204 1.340 . S
N203 C206 1.361 . S
C204 H190 0.930 . S
C204 N203 1.340 . S
C204 C208 1.407 . S
C205 C206 1.413 . S
C205 C207 1.416 . S
C205 C234 1.427 . S
C206 C198 1.424 . S
C206 N203 1.361 . S
C206 C205 1.413 . S
C207 H196 0.931 . S
C207 C205 1.416 . S
C207 C208 1.332 . S
C208 H187 0.929 . S
C208 C204 1.407 . S
C208 C207 1.332 . S
H209 C202 0.930 . S
H210 C233 0.930 . S
H211 C234 0.929 . S
O212 Tb168 2.465 . S
O212 C232 1.264 . S
O213 Tb168 2.387 . S
O213 C224 1.264 . S
O214 Tb179 2.349 . S
O214 C224 1.243 . S
O215 Tb168 2.428 . S
O215 C232 1.256 . S
O216 Tb168 2.308 . S
O216 C231 1.266 . S
O217 Tb179 2.393 . S
O217 C231 1.248 . S
O218 Tb179 2.465 . S
O218 C243 1.264 . S
O219 Tb179 2.387 . S
O219 C235 1.264 . S
O220 Tb168 2.349 . S
O220 C235 1.243 . S
O221 Tb179 2.428 . S
O221 C243 1.256 . S
O222 Tb179 2.308 . S
O222 C242 1.266 . S
O223 Tb168 2.393 . S
O223 C242 1.248 . S
C224 O213 1.264 . S
C224 O214 1.243 . S
C225 C228 1.399 . S
C225 C230 1.383 . S
C225 C232 1.496 . S
C226 C227 1.399 . S
C226 C230 1.389 . S
C227 C226 1.399 . S
C227 C229 1.380 . S
C227 H244 0.929 . S
C228 C225 1.399 . S
C228 C229 1.392 . S
C228 H245 0.929 . S
C229 C227 1.380 . S
C229 C228 1.392 . S
C229 H246 0.929 . S
C230 C225 1.383 . S
C230 C226 1.389 . S
C230 H247 0.931 . S
C231 O216 1.266 . S
C231 O217 1.248 . S
C232 Tb168 2.802 . S
C232 O212 1.264 . S
C232 O215 1.256 . S
C232 C225 1.496 . S
C233 C200 1.448 . S
C233 H210 0.930 . S
C233 C234 1.328 . S
C234 C205 1.427 . S
C234 H211 0.929 . S
C234 C233 1.328 . S
C235 O219 1.264 . S
C235 O220 1.243 . S
C236 C239 1.399 . S
C236 C240 1.383 . S
C236 C243 1.496 . S
C237 C238 1.399 . S
C237 C240 1.389 . S
C238 C237 1.399 . S
C238 C241 1.380 . S
C238 H248 0.929 . S
C239 C236 1.399 . S
C239 C241 1.392 . S
C239 H249 0.929 . S
C240 C236 1.383 . S
C240 C237 1.389 . S
C240 H250 0.931 . S
C241 C238 1.380 . S
C241 C239 1.392 . S
C241 H251 0.929 . S
C242 O222 1.266 . S
C242 O223 1.248 . S
C243 Tb179 2.802 . S
C243 O218 1.264 . S
C243 O221 1.256 . S
C243 C236 1.496 . S
H244 C227 0.929 . S
H245 C228 0.929 . S
H246 C229 0.929 . S
H247 C230 0.931 . S
H248 C238 0.929 . S
H249 C239 0.929 . S
H250 C240 0.931 . S
H251 C241 0.929 . S
Tb252 N281 2.617 . S
Tb252 N287 2.572 . S
Tb252 O296 2.465 . S
Tb252 O297 2.387 . S
Tb252 O299 2.428 . S
Tb252 O300 2.308 . S
Tb252 O304 2.349 . S
Tb252 O307 2.393 . S
Tb252 C316 2.802 . S
C253 N254 1.379 . S
C253 C256 1.416 . S
C253 C260 1.424 . S
N254 C253 1.379 . S
N254 C257 1.334 . S
N254 Tb263 2.617 . S
C255 C257 1.390 . S
C255 C258 1.339 . S
C255 H275 0.930 . S
C256 C253 1.416 . S
C256 C258 1.416 . S
C256 C262 1.448 . S
C257 N254 1.334 . S
C257 C255 1.390 . S
C257 H268 0.930 . S
C258 C255 1.339 . S
C258 C256 1.416 . S
C258 H279 0.930 . S
C259 C260 1.413 . S
C259 C261 1.427 . S
C259 C265 1.416 . S
C260 C253 1.424 . S
C260 C259 1.413 . S
C260 N264 1.361 . S
C261 C259 1.427 . S
C261 C262 1.328 . S
C261 H276 0.929 . S
C262 C256 1.448 . S
C262 C261 1.328 . S
C262 H277 0.930 . S
Tb263 N254 2.617 . S
Tb263 N264 2.572 . S
Tb263 O298 2.349 . S
Tb263 O301 2.393 1_556 S
Tb263 O302 2.465 . S
Tb263 O303 2.387 1_556 S
Tb263 O305 2.428 . S
Tb263 O306 2.308 . S
Tb263 C327 2.802 . S
N264 C260 1.361 . S
N264 Tb263 2.572 . S
N264 C266 1.340 . S
C265 C259 1.416 . S
C265 C267 1.332 . S
C265 H273 0.931 . S
C266 N264 1.340 . S
C266 C267 1.407 . S
C266 H272 0.930 . S
C267 C265 1.332 . S
C267 C266 1.407 . S
C267 H269 0.929 . S
H268 C257 0.930 . S
H269 C267 0.929 . S
H270 C285 0.930 . S
H271 C292 0.929 . S
H272 C266 0.930 . S
H273 C265 0.931 . S
H274 C288 0.930 . S
H275 C255 0.930 . S
H276 C261 0.929 . S
H277 C262 0.930 . S
H278 C283 0.930 . S
H279 C258 0.930 . S
H280 C291 0.931 . S
N281 Tb252 2.617 . S
N281 C282 1.379 . S
N281 C285 1.334 . S
C282 N281 1.379 . S
C282 C284 1.416 . S
C282 C290 1.424 . S
C283 H278 0.930 . S
C283 C285 1.390 . S
C283 C286 1.339 . S
C284 C282 1.416 . S
C284 C286 1.416 . S
C284 C317 1.448 . S
C285 H270 0.930 . S
C285 N281 1.334 . S
C285 C283 1.390 . S
C286 C283 1.339 . S
C286 C284 1.416 . S
C286 H293 0.930 . S
N287 Tb252 2.572 . S
N287 C288 1.340 . S
N287 C290 1.361 . S
C288 H274 0.930 . S
C288 N287 1.340 . S
C288 C292 1.407 . S
C289 C290 1.413 . S
C289 C291 1.416 . S
C289 C318 1.427 . S
C290 C282 1.424 . S
C290 N287 1.361 . S
C290 C289 1.413 . S
C291 H280 0.931 . S
C291 C289 1.416 . S
C291 C292 1.332 . S
C292 H271 0.929 . S
C292 C288 1.407 . S
C292 C291 1.332 . S
H293 C286 0.930 . S
H294 C317 0.930 . S
H295 C318 0.929 . S
O296 Tb252 2.465 . S
O296 C316 1.264 . S
O297 Tb252 2.387 . S
O297 C308 1.264 1_554 S
O298 Tb263 2.349 . S
O298 C308 1.243 . S
O299 Tb252 2.428 . S
O299 C316 1.256 . S
O300 Tb252 2.308 . S
O300 C315 1.266 . S
O301 Tb263 2.393 1_554 S
O301 C315 1.248 . S
O302 Tb263 2.465 . S
O302 C327 1.264 . S
O303 Tb263 2.387 1_554 S
O303 C319 1.264 . S
O304 Tb252 2.349 . S
O304 C319 1.243 . S
O305 Tb263 2.428 . S
O305 C327 1.256 . S
O306 Tb263 2.308 . S
O306 C326 1.266 . S
O307 Tb252 2.393 . S
O307 C326 1.248 1_554 S
C308 O297 1.264 1_556 S
C308 O298 1.243 . S
C309 C312 1.399 . S
C309 C314 1.383 . S
C309 C316 1.496 . S
C310 C311 1.399 . S
C310 C314 1.389 . S
C311 C310 1.399 . S
C311 C313 1.380 . S
C311 H328 0.929 . S
C312 C309 1.399 . S
C312 C313 1.392 . S
C312 H329 0.929 . S
C313 C311 1.380 . S
C313 C312 1.392 . S
C313 H330 0.929 . S
C314 C309 1.383 . S
C314 C310 1.389 . S
C314 H331 0.931 . S
C315 O300 1.266 . S
C315 O301 1.248 . S
C316 Tb252 2.802 . S
C316 O296 1.264 . S
C316 O299 1.256 . S
C316 C309 1.496 . S
C317 C284 1.448 . S
C317 H294 0.930 . S
C317 C318 1.328 . S
C318 C289 1.427 . S
C318 H295 0.929 . S
C318 C317 1.328 . S
C319 O303 1.264 . S
C319 O304 1.243 . S
C320 C323 1.399 . S
C320 C324 1.383 . S
C320 C327 1.496 . S
C321 C322 1.399 . S
C321 C324 1.389 . S
C322 C321 1.399 . S
C322 C325 1.380 . S
C322 H332 0.929 . S
C323 C320 1.399 . S
C323 C325 1.392 . S
C323 H333 0.929 . S
C324 C320 1.383 . S
C324 C321 1.389 . S
C324 H334 0.931 . S
C325 C322 1.380 . S
C325 C323 1.392 . S
C325 H335 0.929 . S
C326 O306 1.266 . S
C326 O307 1.248 1_556 S
C327 Tb263 2.802 . S
C327 O302 1.264 . S
C327 O305 1.256 . S
C327 C320 1.496 . S
H328 C311 0.929 . S
H329 C312 0.929 . S
H330 C313 0.929 . S
H331 C314 0.931 . S
H332 C322 0.929 . S
H333 C323 0.929 . S
H334 C324 0.931 . S
H335 C325 0.929 . S
Tb336 N365 2.617 . S
Tb336 N371 2.572 . S
Tb336 O380 2.465 . S
Tb336 O381 2.387 . S
Tb336 O383 2.428 . S
Tb336 O384 2.308 . S
Tb336 O388 2.349 . S
Tb336 O391 2.393 . S
Tb336 C400 2.802 . S
C337 N338 1.379 . S
C337 C340 1.416 . S
C337 C344 1.424 . S
N338 C337 1.379 . S
N338 C341 1.334 . S
N338 Tb347 2.617 . S
C339 C341 1.390 . S
C339 C342 1.339 . S
C339 H359 0.930 . S
C340 C337 1.416 . S
C340 C342 1.416 . S
C340 C346 1.448 . S
C341 N338 1.334 . S
C341 C339 1.390 . S
C341 H352 0.930 . S
C342 C339 1.339 . S
C342 C340 1.416 . S
C342 H363 0.930 . S
C343 C344 1.413 . S
C343 C345 1.427 . S
C343 C349 1.416 . S
C344 C337 1.424 . S
C344 C343 1.413 . S
C344 N348 1.361 . S
C345 C343 1.427 . S
C345 C346 1.328 . S
C345 H360 0.929 . S
C346 C340 1.448 . S
C346 C345 1.328 . S
C346 H361 0.930 . S
Tb347 N338 2.617 . S
Tb347 N348 2.572 . S
Tb347 O382 2.349 . S
Tb347 O385 2.393 . S
Tb347 O386 2.465 . S
Tb347 O387 2.387 . S
Tb347 O389 2.428 . S
Tb347 O390 2.308 . S
Tb347 C411 2.802 . S
N348 C344 1.361 . S
N348 Tb347 2.572 . S
N348 C350 1.340 . S
C349 C343 1.416 . S
C349 C351 1.332 . S
C349 H357 0.931 . S
C350 N348 1.340 . S
C350 C351 1.407 . S
C350 H356 0.930 . S
C351 C349 1.332 . S
C351 C350 1.407 . S
C351 H353 0.929 . S
H352 C341 0.930 . S
H353 C351 0.929 . S
H354 C369 0.930 . S
H355 C376 0.929 . S
H356 C350 0.930 . S
H357 C349 0.931 . S
H358 C372 0.930 . S
H359 C339 0.930 . S
H360 C345 0.929 . S
H361 C346 0.930 . S
H362 C367 0.930 . S
H363 C342 0.930 . S
H364 C375 0.931 . S
N365 Tb336 2.617 . S
N365 C366 1.379 . S
N365 C369 1.334 . S
C366 N365 1.379 . S
C366 C368 1.416 . S
C366 C374 1.424 . S
C367 H362 0.930 . S
C367 C369 1.390 . S
C367 C370 1.339 . S
C368 C366 1.416 . S
C368 C370 1.416 . S
C368 C401 1.448 . S
C369 H354 0.930 . S
C369 N365 1.334 . S
C369 C367 1.390 . S
C370 C367 1.339 . S
C370 C368 1.416 . S
C370 H377 0.930 . S
N371 Tb336 2.572 . S
N371 C372 1.340 . S
N371 C374 1.361 . S
C372 H358 0.930 . S
C372 N371 1.340 . S
C372 C376 1.407 . S
C373 C374 1.413 . S
C373 C375 1.416 . S
C373 C402 1.427 . S
C374 C366 1.424 . S
C374 N371 1.361 . S
C374 C373 1.413 . S
C375 H364 0.931 . S
C375 C373 1.416 . S
C375 C376 1.332 . S
C376 H355 0.929 . S
C376 C372 1.407 . S
C376 C375 1.332 . S
H377 C370 0.930 . S
H378 C401 0.930 . S
H379 C402 0.929 . S
O380 Tb336 2.465 . S
O380 C400 1.264 . S
O381 Tb336 2.387 . S
O381 C392 1.264 . S
O382 Tb347 2.349 . S
O382 C392 1.243 . S
O383 Tb336 2.428 . S
O383 C400 1.256 . S
O384 Tb336 2.308 . S
O384 C399 1.266 . S
O385 Tb347 2.393 . S
O385 C399 1.248 . S
O386 Tb347 2.465 . S
O386 C411 1.264 . S
O387 Tb347 2.387 . S
O387 C403 1.264 . S
O388 Tb336 2.349 . S
O388 C403 1.243 . S
O389 Tb347 2.428 . S
O389 C411 1.256 . S
O390 Tb347 2.308 . S
O390 C410 1.266 . S
O391 Tb336 2.393 . S
O391 C410 1.248 . S
C392 O381 1.264 . S
C392 O382 1.243 . S
C393 C396 1.399 . S
C393 C398 1.383 . S
C393 C400 1.496 . S
C394 C395 1.399 . S
C394 C398 1.389 . S
C395 C394 1.399 . S
C395 C397 1.380 . S
C395 H412 0.929 . S
C396 C393 1.399 . S
C396 C397 1.392 . S
C396 H413 0.929 . S
C397 C395 1.380 . S
C397 C396 1.392 . S
C397 H414 0.929 . S
C398 C393 1.383 . S
C398 C394 1.389 . S
C398 H415 0.931 . S
C399 O384 1.266 . S
C399 O385 1.248 . S
C400 Tb336 2.802 . S
C400 O380 1.264 . S
C400 O383 1.256 . S
C400 C393 1.496 . S
C401 C368 1.448 . S
C401 H378 0.930 . S
C401 C402 1.328 . S
C402 C373 1.427 . S
C402 H379 0.929 . S
C402 C401 1.328 . S
C403 O387 1.264 . S
C403 O388 1.243 . S
C404 C407 1.399 . S
C404 C408 1.383 . S
C404 C411 1.496 . S
C405 C406 1.399 . S
C405 C408 1.389 . S
C406 C405 1.399 . S
C406 C409 1.380 . S
C406 H416 0.929 . S
C407 C404 1.399 . S
C407 C409 1.392 . S
C407 H417 0.929 . S
C408 C404 1.383 . S
C408 C405 1.389 . S
C408 H418 0.931 . S
C409 C406 1.380 . S
C409 C407 1.392 . S
C409 H419 0.929 . S
C410 O390 1.266 . S
C410 O391 1.248 . S
C411 Tb347 2.802 . S
C411 O386 1.264 . S
C411 O389 1.256 . S
C411 C404 1.496 . S
H412 C395 0.929 . S
H413 C396 0.929 . S
H414 C397 0.929 . S
H415 C398 0.931 . S
H416 C406 0.929 . S
H417 C407 0.929 . S
H418 C408 0.931 . S
H419 C409 0.929 . S
Tb420 N449 2.617 . S
Tb420 N455 2.572 . S
Tb420 O464 2.465 . S
Tb420 O465 2.387 . S
Tb420 O467 2.428 . S
Tb420 O468 2.308 . S
Tb420 O472 2.349 . S
Tb420 O475 2.393 . S
Tb420 C484 2.802 . S
C421 N422 1.379 . S
C421 C424 1.416 . S
C421 C428 1.424 . S
N422 C421 1.379 . S
N422 C425 1.334 . S
N422 Tb431 2.617 . S
C423 C425 1.390 . S
C423 C426 1.339 . S
C423 H443 0.930 . S
C424 C421 1.416 . S
C424 C426 1.416 . S
C424 C430 1.448 . S
C425 N422 1.334 . S
C425 C423 1.390 . S
C425 H436 0.930 . S
C426 C423 1.339 . S
C426 C424 1.416 . S
C426 H447 0.930 . S
C427 C428 1.413 . S
C427 C429 1.427 . S
C427 C433 1.416 . S
C428 C421 1.424 . S
C428 C427 1.413 . S
C428 N432 1.361 . S
C429 C427 1.427 . S
C429 C430 1.328 . S
C429 H444 0.929 . S
C430 C424 1.448 . S
C430 C429 1.328 . S
C430 H445 0.930 . S
Tb431 N422 2.617 . S
Tb431 N432 2.572 . S
Tb431 O466 2.349 . S
Tb431 O469 2.393 . S
Tb431 O470 2.465 . S
Tb431 O471 2.387 . S
Tb431 O473 2.428 . S
Tb431 O474 2.308 . S
Tb431 C495 2.802 . S
N432 C428 1.361 . S
N432 Tb431 2.572 . S
N432 C434 1.340 . S
C433 C427 1.416 . S
C433 C435 1.332 . S
C433 H441 0.931 . S
C434 N432 1.340 . S
C434 C435 1.407 . S
C434 H440 0.930 . S
C435 C433 1.332 . S
C435 C434 1.407 . S
C435 H437 0.929 . S
H436 C425 0.930 . S
H437 C435 0.929 . S
H438 C453 0.930 . S
H439 C460 0.929 . S
H440 C434 0.930 . S
H441 C433 0.931 . S
H442 C456 0.930 . S
H443 C423 0.930 . S
H444 C429 0.929 . S
H445 C430 0.930 . S
H446 C451 0.930 . S
H447 C426 0.930 . S
H448 C459 0.931 . S
N449 Tb420 2.617 . S
N449 C450 1.379 . S
N449 C453 1.334 . S
C450 N449 1.379 . S
C450 C452 1.416 . S
C450 C458 1.424 . S
C451 H446 0.930 . S
C451 C453 1.390 . S
C451 C454 1.339 . S
C452 C450 1.416 . S
C452 C454 1.416 . S
C452 C485 1.448 . S
C453 H438 0.930 . S
C453 N449 1.334 . S
C453 C451 1.390 . S
C454 C451 1.339 . S
C454 C452 1.416 . S
C454 H461 0.930 . S
N455 Tb420 2.572 . S
N455 C456 1.340 . S
N455 C458 1.361 . S
C456 H442 0.930 . S
C456 N455 1.340 . S
C456 C460 1.407 . S
C457 C458 1.413 . S
C457 C459 1.416 . S
C457 C486 1.427 . S
C458 C450 1.424 . S
C458 N455 1.361 . S
C458 C457 1.413 . S
C459 H448 0.931 . S
C459 C457 1.416 . S
C459 C460 1.332 . S
C460 H439 0.929 . S
C460 C456 1.407 . S
C460 C459 1.332 . S
H461 C454 0.930 . S
H462 C485 0.930 . S
H463 C486 0.929 . S
O464 Tb420 2.465 . S
O464 C484 1.264 . S
O465 Tb420 2.387 . S
O465 C476 1.264 . S
O466 Tb431 2.349 . S
O466 C476 1.243 . S
O467 Tb420 2.428 . S
O467 C484 1.256 . S
O468 Tb420 2.308 . S
O468 C483 1.266 . S
O469 Tb431 2.393 . S
O469 C483 1.248 . S
O470 Tb431 2.465 . S
O470 C495 1.264 . S
O471 Tb431 2.387 . S
O471 C487 1.264 . S
O472 Tb420 2.349 . S
O472 C487 1.243 . S
O473 Tb431 2.428 . S
O473 C495 1.256 . S
O474 Tb431 2.308 . S
O474 C494 1.266 . S
O475 Tb420 2.393 . S
O475 C494 1.248 . S
C476 O465 1.264 . S
C476 O466 1.243 . S
C477 C480 1.399 . S
C477 C482 1.383 . S
C477 C484 1.496 . S
C478 C479 1.399 . S
C478 C482 1.389 . S
C479 C478 1.399 . S
C479 C481 1.380 . S
C479 H496 0.929 1_556 S
C480 C477 1.399 . S
C480 C481 1.392 . S
C480 H497 0.929 . S
C481 C479 1.380 . S
C481 C480 1.392 . S
C481 H498 0.929 . S
C482 C477 1.383 . S
C482 C478 1.389 . S
C482 H499 0.931 . S
C483 O468 1.266 . S
C483 O469 1.248 . S
C484 Tb420 2.802 . S
C484 O464 1.264 . S
C484 O467 1.256 . S
C484 C477 1.496 . S
C485 C452 1.448 . S
C485 H462 0.930 . S
C485 C486 1.328 . S
C486 C457 1.427 . S
C486 H463 0.929 . S
C486 C485 1.328 . S
C487 O471 1.264 . S
C487 O472 1.243 . S
C488 C491 1.399 . S
C488 C492 1.383 . S
C488 C495 1.496 . S
C489 C490 1.399 . S
C489 C492 1.389 . S
C490 C489 1.399 . S
C490 C493 1.380 . S
C490 H500 0.929 . S
C491 C488 1.399 . S
C491 C493 1.392 . S
C491 H501 0.929 . S
C492 C488 1.383 . S
C492 C489 1.389 . S
C492 H502 0.931 . S
C493 C490 1.380 . S
C493 C491 1.392 . S
C493 H503 0.929 . S
C494 O474 1.266 . S
C494 O475 1.248 . S
C495 Tb431 2.802 . S
C495 O470 1.264 . S
C495 O473 1.256 . S
C495 C488 1.496 . S
H496 C479 0.929 1_554 S
H497 C480 0.929 . S
H498 C481 0.929 . S
H499 C482 0.931 . S
H500 C490 0.929 . S
H501 C491 0.929 . S
H502 C492 0.931 . S
H503 C493 0.929 . S
H504 C512 0.929 . S
H505 C514 0.930 . S
H506 C516 0.930 . S
H507 C519 0.929 . S
H508 C522 0.930 . S
H509 C524 0.960 . S
H510 C524 0.960 . S
H511 C524 0.960 . S
C512 H504 0.929 . S
C512 C513 1.377 . S
C512 C514 1.384 . S
C513 C512 1.377 . S
C513 C519 1.390 . S
C514 H505 0.930 . S
C514 C512 1.384 . S
C514 C515 1.372 . S
C515 C514 1.372 . S
C515 C516 1.400 . S
C515 C520 1.490 . S
C516 H506 0.930 . S
C516 C515 1.400 . S
C516 C519 1.386 . S
H517 C533 0.930 . S
H518 C534 0.931 . S
C519 H507 0.929 . S
C519 C513 1.390 . S
C519 C516 1.386 . S
C520 C515 1.490 . S
C520 C522 1.395 . S
C520 C523 1.403 . S
H521 C527 0.930 . S
C522 H508 0.930 . S
C522 C520 1.395 . S
C522 C525 1.403 . S
C523 C520 1.403 . S
C523 C524 1.524 . S
C523 C527 1.400 . S
C524 H509 0.960 . S
C524 H510 0.960 . S
C524 H511 0.960 . S
C524 C523 1.524 . S
C525 C522 1.403 . S
C525 C526 1.392 . S
C525 C529 1.495 . S
C526 C525 1.392 . S
C526 C527 1.385 . S
C526 C528 1.478 . S
C527 H521 0.930 . S
C527 C523 1.400 . S
C527 C526 1.385 . S
C528 C526 1.478 . S
C528 C530 1.381 . S
C528 C534 1.383 . S
C529 C525 1.495 . S
C529 H535 0.959 . S
C529 H536 0.961 . S
C529 H537 0.960 . S
C530 C528 1.381 . S
C530 C531 1.394 . S
C530 H538 0.930 . S
C531 C530 1.394 . S
C531 C532 1.383 . S
C531 H539 0.929 . S
C532 C531 1.383 . S
C532 C533 1.377 . S
C533 H517 0.930 . S
C533 C532 1.377 . S
C533 C534 1.379 . S
C534 H518 0.931 . S
C534 C528 1.383 . S
C534 C533 1.379 . S
H535 C529 0.959 . S
H536 C529 0.961 . S
H537 C529 0.960 . S
H538 C530 0.930 . S
H539 C531 0.929 . S
H540 C548 0.929 . S
H541 C550 0.930 . S
H542 C552 0.930 . S
H543 C555 0.929 . S
H544 C558 0.930 . S
H545 C560 0.960 . S
H546 C560 0.955 1_455 S
H547 C560 0.960 . S
C548 H540 0.929 . S
C548 C549 1.377 . S
C548 C550 1.384 . S
C549 C548 1.377 . S
C549 C555 1.390 . S
C550 H541 0.930 . S
C550 C548 1.384 . S
C550 C551 1.372 . S
C551 C550 1.372 . S
C551 C552 1.400 . S
C551 C556 1.490 . S
C552 H542 0.930 . S
C552 C551 1.400 . S
C552 C555 1.386 . S
H553 C569 0.930 . S
H554 C570 0.931 . S
C555 H543 0.929 . S
C555 C549 1.390 . S
C555 C552 1.386 . S
C556 C551 1.490 . S
C556 C558 1.395 . S
C556 C559 1.403 1_455 S
H557 C563 0.930 . S
C558 H544 0.930 . S
C558 C556 1.395 . S
C558 C561 1.403 . S
C559 C556 1.403 1_655 S
C559 C560 1.524 . S
C559 C563 1.400 . S
C560 H545 0.960 . S
C560 H546 0.955 1_655 S
C560 H547 0.960 . S
C560 C559 1.524 . S
C561 C558 1.403 . S
C561 C562 1.392 1_455 S
C561 C565 1.495 . S
C562 C561 1.392 1_655 S
C562 C563 1.385 . S
C562 C564 1.478 . S
C563 H557 0.930 . S
C563 C559 1.400 . S
C563 C562 1.385 . S
C564 C562 1.478 . S
C564 C566 1.381 . S
C564 C570 1.383 . S
C565 C561 1.495 . S
C565 H571 0.959 . S
C565 H572 0.961 . S
C565 H573 0.960 . S
C566 C564 1.381 . S
C566 C567 1.394 . S
C566 H574 0.930 . S
C567 C566 1.394 . S
C567 C568 1.383 . S
C567 H575 0.929 . S
C568 C567 1.383 . S
C568 C569 1.377 . S
C569 H553 0.930 . S
C569 C568 1.377 . S
C569 C570 1.379 . S
C570 H554 0.931 . S
C570 C564 1.383 . S
C570 C569 1.379 . S
H571 C565 0.959 . S
H572 C565 0.961 . S
H573 C565 0.960 . S
H574 C566 0.930 . S
H575 C567 0.929 . S
H576 C584 0.929 . S
H577 C586 0.930 . S
H578 C588 0.930 . S
H579 C591 0.929 . S
H580 C594 0.930 . S
H581 C596 0.960 1_565 S
H582 C596 0.960 . S
H583 C596 0.960 . S
C584 H576 0.929 . S
C584 C585 1.377 . S
C584 C586 1.384 . S
C585 C584 1.377 . S
C585 C591 1.390 . S
C586 H577 0.930 . S
C586 C584 1.384 . S
C586 C587 1.372 . S
C587 C586 1.372 . S
C587 C588 1.400 . S
C587 C592 1.490 . S
C588 H578 0.930 . S
C588 C587 1.400 . S
C588 C591 1.386 . S
H589 C605 0.930 . S
H590 C606 0.931 . S
C591 H579 0.929 . S
C591 C585 1.390 . S
C591 C588 1.386 . S
C592 C587 1.490 . S
C592 C594 1.395 . S
C592 C595 1.403 . S
H593 C599 0.930 . S
C594 H580 0.930 . S
C594 C592 1.395 . S
C594 C597 1.403 1_545 S
C595 C592 1.403 . S
C595 C596 1.524 . S
C595 C599 1.400 1_545 S
C596 H581 0.960 1_545 S
C596 H582 0.960 . S
C596 H583 0.960 . S
C596 C595 1.524 . S
C597 C594 1.403 1_565 S
C597 C598 1.392 . S
C597 C601 1.495 . S
C598 C597 1.392 . S
C598 C599 1.385 . S
C598 C600 1.478 . S
C599 H593 0.930 . S
C599 C595 1.400 1_565 S
C599 C598 1.385 . S
C600 C598 1.478 . S
C600 C602 1.381 . S
C600 C606 1.383 . S
C601 C597 1.495 . S
C601 H607 0.959 1_565 S
C601 H608 0.961 . S
C601 H609 0.960 . S
C602 C600 1.381 . S
C602 C603 1.394 . S
C602 H610 0.930 . S
C603 C602 1.394 . S
C603 C604 1.383 . S
C603 H611 0.929 . S
C604 C603 1.383 . S
C604 C605 1.377 . S
C605 H589 0.930 . S
C605 C604 1.377 . S
C605 C606 1.379 . S
C606 H590 0.931 . S
C606 C600 1.383 . S
C606 C605 1.379 . S
H607 C601 0.959 1_545 S
H608 C601 0.961 . S
H609 C601 0.960 . S
H610 C602 0.930 . S
H611 C603 0.929 . S
H612 C620 0.929 . S
H613 C622 0.930 . S
H614 C624 0.930 . S
H615 C627 0.929 . S
H616 C630 0.930 . S
H617 C632 0.960 . S
H618 C632 0.960 . S
H619 C632 0.960 . S
C620 H612 0.929 . S
C620 C621 1.377 . S
C620 C622 1.384 . S
C621 C620 1.377 . S
C621 C627 1.390 . S
C622 H613 0.930 . S
C622 C620 1.384 . S
C622 C623 1.372 . S
C623 C622 1.372 . S
C623 C624 1.400 . S
C623 C628 1.490 . S
C624 H614 0.930 . S
C624 C623 1.400 . S
C624 C627 1.386 . S
H625 C641 0.930 . S
H626 C642 0.931 . S
C627 H615 0.929 . S
C627 C621 1.390 . S
C627 C624 1.386 . S
C628 C623 1.490 . S
C628 C630 1.395 . S
C628 C631 1.403 . S
H629 C635 0.930 . S
C630 H616 0.930 . S
C630 C628 1.395 . S
C630 C633 1.403 . S
C631 C628 1.403 . S
C631 C632 1.524 . S
C631 C635 1.400 . S
C632 H617 0.960 . S
C632 H618 0.960 . S
C632 H619 0.960 . S
C632 C631 1.524 . S
C633 C630 1.403 . S
C633 C634 1.392 . S
C633 C637 1.495 . S
C634 C633 1.392 . S
C634 C635 1.385 . S
C634 C636 1.478 . S
C635 H629 0.930 . S
C635 C631 1.400 . S
C635 C634 1.385 . S
C636 C634 1.478 . S
C636 C638 1.381 . S
C636 C642 1.383 . S
C637 C633 1.495 . S
C637 H643 0.959 . S
C637 H644 0.961 . S
C637 H645 0.960 . S
C638 C636 1.381 . S
C638 C639 1.394 . S
C638 H646 0.930 . S
C639 C638 1.394 . S
C639 C640 1.383 . S
C639 H647 0.929 . S
C640 C639 1.383 . S
C640 C641 1.377 . S
C641 H625 0.930 . S
C641 C640 1.377 . S
C641 C642 1.379 . S
C642 H626 0.931 . S
C642 C636 1.383 . S
C642 C641 1.379 . S
H643 C637 0.959 . S
H644 C637 0.961 . S
H645 C637 0.960 . S
H646 C638 0.930 . S
H647 C639 0.929 . S
H648 C656 0.929 . S
H649 C658 0.930 . S
H650 C660 0.930 . S
H651 C663 0.929 . S
H652 C666 0.930 . S
H653 C668 0.960 . S
H654 C668 0.960 . S
H655 C668 0.960 . S
C656 H648 0.929 . S
C656 C657 1.377 . S
C656 C658 1.384 . S
C657 C656 1.377 . S
C657 C663 1.390 . S
C658 H649 0.930 . S
C658 C656 1.384 . S
C658 C659 1.372 . S
C659 C658 1.372 . S
C659 C660 1.400 . S
C659 C664 1.490 . S
C660 H650 0.930 . S
C660 C659 1.400 . S
C660 C663 1.386 . S
H661 C677 0.930 . S
H662 C678 0.931 . S
C663 H651 0.929 . S
C663 C657 1.390 . S
C663 C660 1.386 . S
C664 C659 1.490 . S
C664 C666 1.395 . S
C664 C667 1.403 . S
H665 C671 0.930 . S
C666 H652 0.930 . S
C666 C664 1.395 . S
C666 C669 1.403 1_455 S
C667 C664 1.403 . S
C667 C668 1.524 . S
C667 C671 1.400 1_455 S
C668 H653 0.960 . S
C668 H654 0.960 . S
C668 H655 0.960 . S
C668 C667 1.524 . S
C669 C666 1.403 1_655 S
C669 C670 1.392 . S
C669 C673 1.495 . S
C670 C669 1.392 . S
C670 C671 1.385 . S
C670 C672 1.478 . S
C671 H665 0.930 . S
C671 C667 1.400 1_655 S
C671 C670 1.385 . S
C672 C670 1.478 . S
C672 C674 1.381 . S
C672 C678 1.383 . S
C673 C669 1.495 . S
C673 H679 0.959 . S
C673 H680 0.961 . S
C673 H681 0.960 . S
C674 C672 1.381 . S
C674 C675 1.394 . S
C674 H682 0.930 . S
C675 C674 1.394 . S
C675 C676 1.383 . S
C675 H683 0.929 . S
C676 C675 1.383 . S
C676 C677 1.377 . S
C677 H661 0.930 . S
C677 C676 1.377 . S
C677 C678 1.379 . S
C678 H662 0.931 . S
C678 C672 1.383 . S
C678 C677 1.379 . S
H679 C673 0.959 . S
H680 C673 0.961 . S
H681 C673 0.960 . S
H682 C674 0.930 . S
H683 C675 0.929 . S
H684 C692 0.929 . S
H685 C694 0.930 . S
H686 C696 0.930 . S
H687 C699 0.929 . S
H688 C702 0.930 . S
H689 C704 0.960 . S
H690 C704 0.960 . S
H691 C704 0.960 . S
C692 H684 0.929 . S
C692 C693 1.377 . S
C692 C694 1.384 . S
C693 C692 1.377 . S
C693 C699 1.390 . S
C694 H685 0.930 . S
C694 C692 1.384 . S
C694 C695 1.372 . S
C695 C694 1.372 . S
C695 C696 1.400 . S
C695 C700 1.490 . S
C696 H686 0.930 . S
C696 C695 1.400 . S
C696 C699 1.386 . S
H697 C713 0.930 . S
H698 C714 0.931 . S
C699 H687 0.929 . S
C699 C693 1.390 . S
C699 C696 1.386 . S
C700 C695 1.490 . S
C700 C702 1.395 . S
C700 C703 1.403 . S
H701 C707 0.930 . S
C702 H688 0.930 . S
C702 C700 1.395 . S
C702 C705 1.403 1_545 S
C703 C700 1.403 . S
C703 C704 1.524 . S
C703 C707 1.400 1_545 S
C704 H689 0.960 . S
C704 H690 0.960 . S
C704 H691 0.960 . S
C704 C703 1.524 . S
C705 C702 1.403 1_565 S
C705 C706 1.392 . S
C705 C709 1.495 . S
C706 C705 1.392 . S
C706 C707 1.385 . S
C706 C708 1.478 . S
C707 H701 0.930 . S
C707 C703 1.400 1_565 S
C707 C706 1.385 . S
C708 C706 1.478 . S
C708 C710 1.381 . S
C708 C714 1.383 . S
C709 C705 1.495 . S
C709 H715 0.959 . S
C709 H716 0.961 . S
C709 H717 0.960 . S
C710 C708 1.381 . S
C710 C711 1.394 . S
C710 H718 0.930 . S
C711 C710 1.394 . S
C711 C712 1.383 . S
C711 H719 0.929 . S
C712 C711 1.383 . S
C712 C713 1.377 . S
C713 H697 0.930 . S
C713 C712 1.377 . S
C713 C714 1.379 . S
C714 H698 0.931 . S
C714 C708 1.383 . S
C714 C713 1.379 . S
H715 C709 0.959 . S
H716 C709 0.961 . S
H717 C709 0.960 . S
H718 C710 0.930 . S
H719 C711 0.929 . S
H720 C728 0.929 . S
H721 C730 0.930 . S
H722 C732 0.930 . S
H723 C735 0.929 . S
H724 C738 0.930 . S
H725 C740 0.960 . S
H726 C740 0.960 . S
H727 C740 0.960 . S
C728 H720 0.929 . S
C728 C729 1.377 . S
C728 C730 1.384 . S
C729 C728 1.377 . S
C729 C735 1.390 . S
C730 H721 0.930 . S
C730 C728 1.384 . S
C730 C731 1.372 . S
C731 C730 1.372 . S
C731 C732 1.400 . S
C731 C736 1.490 . S
C732 H722 0.930 . S
C732 C731 1.400 . S
C732 C735 1.386 . S
H733 C749 0.930 . S
H734 C750 0.931 . S
C735 H723 0.929 . S
C735 C729 1.390 . S
C735 C732 1.386 . S
C736 C731 1.490 . S
C736 C738 1.395 . S
C736 C739 1.403 . S
H737 C743 0.930 . S
C738 H724 0.930 . S
C738 C736 1.395 . S
C738 C741 1.403 . S
C739 C736 1.403 . S
C739 C740 1.524 . S
C739 C743 1.400 . S
C740 H725 0.960 . S
C740 H726 0.960 . S
C740 H727 0.960 . S
C740 C739 1.524 . S
C741 C738 1.403 . S
C741 C742 1.392 . S
C741 C745 1.495 . S
C742 C741 1.392 . S
C742 C743 1.385 . S
C742 C744 1.478 . S
C743 H737 0.930 . S
C743 C739 1.400 . S
C743 C742 1.385 . S
C744 C742 1.478 . S
C744 C746 1.381 . S
C744 C750 1.383 . S
C745 C741 1.495 . S
C745 H751 0.959 . S
C745 H752 0.961 . S
C745 H753 0.960 . S
C746 C744 1.381 . S
C746 C747 1.394 . S
C746 H754 0.930 . S
C747 C746 1.394 . S
C747 C748 1.383 . S
C747 H755 0.929 . S
C748 C747 1.383 . S
C748 C749 1.377 . S
C749 H733 0.930 . S
C749 C748 1.377 . S
C749 C750 1.379 . S
C750 H734 0.931 . S
C750 C744 1.383 . S
C750 C749 1.379 . S
H751 C745 0.959 . S
H752 C745 0.961 . S
H753 C745 0.960 . S
H754 C746 0.930 . S
H755 C747 0.929 . S
H756 C764 0.929 . S
H757 C766 0.930 . S
H758 C768 0.930 . S
H759 C771 0.929 . S
H760 C774 0.930 . S
H761 C776 0.960 . S
H762 C776 0.960 . S
H763 C776 0.960 . S
C764 H756 0.929 . S
C764 C765 1.377 . S
C764 C766 1.384 1_554 S
C765 C764 1.377 . S
C765 C771 1.390 . S
C766 H757 0.930 . S
C766 C764 1.384 1_556 S
C766 C767 1.372 . S
C767 C766 1.372 . S
C767 C768 1.400 . S
C767 C772 1.490 . S
C768 H758 0.930 . S
C768 C767 1.400 . S
C768 C771 1.386 1_556 S
H769 C785 0.930 . S
H770 C786 0.931 . S
C771 H759 0.929 . S
C771 C765 1.390 . S
C771 C768 1.386 1_554 S
C772 C767 1.490 . S
C772 C774 1.395 . S
C772 C775 1.403 . S
H773 C779 0.930 . S
C774 H760 0.930 . S
C774 C772 1.395 . S
C774 C777 1.403 . S
C775 C772 1.403 . S
C775 C776 1.524 . S
C775 C779 1.400 . S
C776 H761 0.960 . S
C776 H762 0.960 . S
C776 H763 0.960 . S
C776 C775 1.524 . S
C777 C774 1.403 . S
C777 C778 1.392 . S
C777 C781 1.495 . S
C778 C777 1.392 . S
C778 C779 1.385 . S
C778 C780 1.478 . S
C779 H773 0.930 . S
C779 C775 1.400 . S
C779 C778 1.385 . S
C780 C778 1.478 . S
C780 C782 1.381 . S
C780 C786 1.383 . S
C781 C777 1.495 . S
C781 H787 0.959 . S
C781 H788 0.961 . S
C781 H789 0.960 . S
C782 C780 1.381 . S
C782 C783 1.394 . S
C782 H790 0.930 . S
C783 C782 1.394 . S
C783 C784 1.383 . S
C783 H791 0.929 . S
C784 C783 1.383 . S
C784 C785 1.377 . S
C785 H769 0.930 . S
C785 C784 1.377 . S
C785 C786 1.379 . S
C786 H770 0.931 . S
C786 C780 1.383 . S
C786 C785 1.379 . S
H787 C781 0.959 . S
H788 C781 0.961 . S
H789 C781 0.960 . S
H790 C782 0.930 . S
H791 C783 0.929 . S
H792 C800 0.929 . S
H793 C802 0.930 . S
H794 C804 0.930 . S
H795 C807 0.929 . S
H796 C810 0.930 . S
H797 C812 0.960 . S
H798 C812 0.960 . S
H799 C812 0.960 . S
C800 H792 0.929 . S
C800 C801 1.377 . S
C800 C802 1.384 . S
C801 C800 1.377 . S
C801 C807 1.390 . S
C802 H793 0.930 . S
C802 C800 1.384 . S
C802 C803 1.372 . S
C803 C802 1.372 . S
C803 C804 1.400 . S
C803 C808 1.490 . S
C804 H794 0.930 . S
C804 C803 1.400 . S
C804 C807 1.386 . S
H805 C821 0.930 . S
H806 C822 0.931 . S
C807 H795 0.929 . S
C807 C801 1.390 . S
C807 C804 1.386 . S
C808 C803 1.490 . S
C808 C810 1.395 . S
C808 C811 1.403 . S
H809 C815 0.930 . S
C810 H796 0.930 . S
C810 C808 1.395 . S
C810 C813 1.403 . S
C811 C808 1.403 . S
C811 C812 1.524 . S
C811 C815 1.400 . S
C812 H797 0.960 . S
C812 H798 0.960 . S
C812 H799 0.960 . S
C812 C811 1.524 . S
C813 C810 1.403 . S
C813 C814 1.392 . S
C813 C817 1.495 . S
C814 C813 1.392 . S
C814 C815 1.385 . S
C814 C816 1.478 . S
C815 H809 0.930 . S
C815 C811 1.400 . S
C815 C814 1.385 . S
C816 C814 1.478 . S
C816 C818 1.381 . S
C816 C822 1.383 . S
C817 C813 1.495 . S
C817 H823 0.959 . S
C817 H824 0.961 . S
C817 H825 0.960 . S
C818 C816 1.381 . S
C818 C819 1.375 1_554 S
C818 H826 0.930 . S
C819 C818 1.375 1_556 S
C819 C820 1.393 . S
C819 H827 0.938 . S
C820 C819 1.393 . S
C820 C821 1.377 . S
C821 H805 0.930 . S
C821 C820 1.377 . S
C821 C822 1.379 1_556 S
C822 H806 0.931 . S
C822 C816 1.383 . S
C822 C821 1.379 1_554 S
H823 C817 0.959 . S
H824 C817 0.961 . S
H825 C817 0.960 . S
H826 C818 0.930 . S
H827 C819 0.938 . S
H828 C836 0.929 . S
H829 C838 0.930 . S
H830 C840 0.930 . S
H831 C843 0.929 . S
H832 C846 0.930 . S
H833 C848 0.960 . S
H834 C848 0.960 . S
H835 C848 0.960 . S
C836 H828 0.929 . S
C836 C837 1.377 . S
C836 C838 1.384 . S
C837 C836 1.377 . S
C837 C843 1.390 . S
C838 H829 0.930 . S
C838 C836 1.384 . S
C838 C839 1.372 . S
C839 C838 1.372 . S
C839 C840 1.400 . S
C839 C844 1.490 . S
C840 H830 0.930 . S
C840 C839 1.400 . S
C840 C843 1.386 . S
H841 C857 0.930 . S
H842 C858 0.931 . S
C843 H831 0.929 . S
C843 C837 1.390 . S
C843 C840 1.386 . S
C844 C839 1.490 . S
C844 C846 1.395 . S
C844 C847 1.403 . S
H845 C851 0.930 . S
C846 H832 0.930 . S
C846 C844 1.395 . S
C846 C849 1.403 . S
C847 C844 1.403 . S
C847 C848 1.524 . S
C847 C851 1.400 . S
C848 H833 0.960 . S
C848 H834 0.960 . S
C848 H835 0.960 . S
C848 C847 1.524 . S
C849 C846 1.403 . S
C849 C850 1.392 . S
C849 C853 1.495 . S
C850 C849 1.392 . S
C850 C851 1.385 . S
C850 C852 1.478 . S
C851 H845 0.930 . S
C851 C847 1.400 . S
C851 C850 1.385 . S
C852 C850 1.478 . S
C852 C854 1.381 . S
C852 C858 1.383 . S
C853 C849 1.495 . S
C853 H859 0.959 . S
C853 H860 0.961 . S
C853 H861 0.960 . S
C854 C852 1.381 . S
C854 C855 1.394 . S
C854 H862 0.930 . S
C855 C854 1.394 . S
C855 C856 1.383 . S
C855 H863 0.929 . S
C856 C855 1.383 . S
C856 C857 1.377 . S
C857 H841 0.930 . S
C857 C856 1.377 . S
C857 C858 1.379 . S
C858 H842 0.931 . S
C858 C852 1.383 . S
C858 C857 1.379 . S
H859 C853 0.959 . S
H860 C853 0.961 . S
H861 C853 0.960 . S
H862 C854 0.930 . S
H863 C855 0.929 . S
H864 C872 0.929 . S
H865 C874 0.930 . S
H866 C876 0.930 . S
H867 C879 0.929 . S
H868 C882 0.930 . S
H869 C884 0.960 . S
H870 C884 0.960 . S
H871 C884 0.960 . S
C872 H864 0.929 . S
C872 C873 1.377 . S
C872 C874 1.384 . S
C873 C872 1.377 . S
C873 C879 1.390 . S
C874 H865 0.930 . S
C874 C872 1.384 . S
C874 C875 1.372 . S
C875 C874 1.372 . S
C875 C876 1.400 . S
C875 C880 1.490 . S
C876 H866 0.930 . S
C876 C875 1.400 . S
C876 C879 1.386 . S
H877 C893 0.930 . S
H878 C894 0.931 . S
C879 H867 0.929 . S
C879 C873 1.390 . S
C879 C876 1.386 . S
C880 C875 1.490 . S
C880 C882 1.395 . S
C880 C883 1.403 . S
H881 C887 0.930 . S
C882 H868 0.930 . S
C882 C880 1.395 . S
C882 C885 1.403 . S
C883 C880 1.403 . S
C883 C884 1.524 . S
C883 C887 1.400 . S
C884 H869 0.960 . S
C884 H870 0.960 . S
C884 H871 0.960 . S
C884 C883 1.524 . S
C885 C882 1.403 . S
C885 C886 1.392 . S
C885 C889 1.495 . S
C886 C885 1.392 . S
C886 C887 1.385 . S
C886 C888 1.478 . S
C887 H881 0.930 . S
C887 C883 1.400 . S
C887 C886 1.385 . S
C888 C886 1.478 . S
C888 C890 1.381 . S
C888 C894 1.383 . S
C889 C885 1.495 . S
C889 H895 0.959 . S
C889 H896 0.961 . S
C889 H897 0.960 . S
C890 C888 1.381 . S
C890 C891 1.394 1_556 S
C890 H898 0.930 . S
C891 C890 1.394 1_554 S
C891 C892 1.383 . S
C891 H899 0.929 . S
C892 C891 1.383 . S
C892 C893 1.377 . S
C893 H877 0.930 . S
C893 C892 1.377 . S
C893 C894 1.379 1_554 S
C894 H878 0.931 . S
C894 C888 1.383 . S
C894 C893 1.379 1_556 S
H895 C889 0.959 . S
H896 C889 0.961 . S
H897 C889 0.960 . S
H898 C890 0.930 . S
H899 C891 0.929 . S
H900 C908 0.929 . S
H901 C910 0.930 . S
H902 C912 0.930 . S
H903 C915 0.929 . S
H904 C918 0.930 . S
H905 C920 0.960 . S
H906 C920 0.960 . S
H907 C920 0.960 . S
C908 H900 0.929 . S
C908 C909 1.377 . S
C908 C910 1.384 . S
C909 C908 1.377 . S
C909 C915 1.390 . S
C910 H901 0.930 . S
C910 C908 1.384 . S
C910 C911 1.372 . S
C911 C910 1.372 . S
C911 C912 1.400 . S
C911 C916 1.490 . S
C912 H902 0.930 . S
C912 C911 1.400 . S
C912 C915 1.386 . S
H913 C929 0.930 1_556 S
H914 C930 0.931 . S
C915 H903 0.929 . S
C915 C909 1.390 . S
C915 C912 1.386 . S
C916 C911 1.490 . S
C916 C918 1.395 . S
C916 C919 1.403 . S
H917 C923 0.930 . S
C918 H904 0.930 . S
C918 C916 1.395 . S
C918 C921 1.403 . S
C919 C916 1.403 . S
C919 C920 1.524 . S
C919 C923 1.400 . S
C920 H905 0.960 . S
C920 H906 0.960 . S
C920 H907 0.960 . S
C920 C919 1.524 . S
C921 C918 1.403 . S
C921 C922 1.392 . S
C921 C925 1.495 . S
C922 C921 1.392 . S
C922 C923 1.385 . S
C922 C924 1.478 . S
C923 H917 0.930 . S
C923 C919 1.400 . S
C923 C922 1.385 . S
C924 C922 1.478 . S
C924 C926 1.381 . S
C924 C930 1.383 . S
C925 C921 1.495 . S
C925 H931 0.959 . S
C925 H932 0.961 . S
C925 H933 0.960 . S
C926 C924 1.381 . S
C926 C927 1.394 . S
C926 H934 0.930 . S
C927 C926 1.394 . S
C927 C928 1.383 1_554 S
C927 H935 0.929 1_554 S
C928 C927 1.383 1_556 S
C928 C929 1.377 1_556 S
C929 H913 0.930 1_554 S
C929 C928 1.377 1_554 S
C929 C930 1.379 . S
C930 H914 0.931 . S
C930 C924 1.383 . S
C930 C929 1.379 . S
H931 C925 0.959 . S
H932 C925 0.961 . S
H933 C925 0.960 . S
H934 C926 0.930 . S
H935 C927 0.929 1_556 S
H936 C944 0.929 . S
H937 C946 0.930 . S
H938 C948 0.930 . S
H939 C951 0.929 . S
H940 C954 0.930 . S
H941 C956 0.960 . S
H942 C956 0.960 . S
H943 C956 0.960 . S
C944 H936 0.929 . S
C944 C945 1.377 . S
C944 C946 1.384 . S
C945 C944 1.377 . S
C945 C951 1.390 . S
C946 H937 0.930 . S
C946 C944 1.384 . S
C946 C947 1.372 . S
C947 C946 1.372 . S
C947 C948 1.400 . S
C947 C952 1.490 . S
C948 H938 0.930 . S
C948 C947 1.400 . S
C948 C951 1.386 . S
H949 C965 0.930 . S
H950 C966 0.931 . S
C951 H939 0.929 . S
C951 C945 1.390 . S
C951 C948 1.386 . S
C952 C947 1.490 . S
C952 C954 1.395 . S
C952 C955 1.403 . S
H953 C959 0.930 . S
C954 H940 0.930 . S
C954 C952 1.395 . S
C954 C957 1.403 . S
C955 C952 1.403 . S
C955 C956 1.524 . S
C955 C959 1.400 . S
C956 H941 0.960 . S
C956 H942 0.960 . S
C956 H943 0.960 . S
C956 C955 1.524 . S
C957 C954 1.403 . S
C957 C958 1.392 . S
C957 C961 1.495 . S
C958 C957 1.392 . S
C958 C959 1.385 . S
C958 C960 1.478 . S
C959 H953 0.930 . S
C959 C955 1.400 . S
C959 C958 1.385 . S
C960 C958 1.478 . S
C960 C962 1.381 . S
C960 C966 1.383 . S
C961 C957 1.495 . S
C961 H967 0.959 . S
C961 H968 0.961 . S
C961 H969 0.960 . S
C962 C960 1.381 . S
C962 C963 1.394 . S
C962 H970 0.930 . S
C963 C962 1.394 . S
C963 C964 1.383 . S
C963 H971 0.929 . S
C964 C963 1.383 . S
C964 C965 1.377 . S
C965 H949 0.930 . S
C965 C964 1.377 . S
C965 C966 1.379 . S
C966 H950 0.931 . S
C966 C960 1.383 . S
C966 C965 1.379 . S
H967 C961 0.959 . S
H968 C961 0.961 . S
H969 C961 0.960 . S
H970 C962 0.930 . S
H971 C963 0.929 . S
H972 C980 0.929 . S
H973 C982 0.930 . S
H974 C984 0.930 . S
H975 C987 0.929 . S
H976 C990 0.930 . S
H977 C992 0.960 . S
H978 C992 0.960 . S
H979 C992 0.960 . S
C980 H972 0.929 . S
C980 C981 1.377 . S
C980 C982 1.384 . S
C981 C980 1.377 . S
C981 C987 1.390 . S
C982 H973 0.930 . S
C982 C980 1.384 . S
C982 C983 1.372 . S
C983 C982 1.372 . S
C983 C984 1.400 . S
C983 C988 1.490 . S
C984 H974 0.930 . S
C984 C983 1.400 . S
C984 C987 1.386 . S
H985 C1001 0.930 . S
H986 C1002 0.931 . S
C987 H975 0.929 . S
C987 C981 1.390 . S
C987 C984 1.386 . S
C988 C983 1.490 . S
C988 C990 1.395 . S
C988 C991 1.403 . S
H989 C995 0.930 . S
C990 H976 0.930 . S
C990 C988 1.395 . S
C990 C993 1.403 . S
C991 C988 1.403 . S
C991 C992 1.524 . S
C991 C995 1.400 . S
C992 H977 0.960 . S
C992 H978 0.960 . S
C992 H979 0.960 . S
C992 C991 1.524 . S
C993 C990 1.403 . S
C993 C994 1.392 . S
C993 C997 1.495 . S
C994 C993 1.392 . S
C994 C995 1.385 . S
C994 C996 1.478 . S
C995 H989 0.930 . S
C995 C991 1.400 . S
C995 C994 1.385 . S
C996 C994 1.478 . S
C996 C998 1.381 . S
C996 C1002 1.383 . S
C997 C993 1.495 . S
C997 H1003 0.959 . S
C997 H1004 0.961 . S
C997 H1005 0.960 . S
C998 C996 1.381 . S
C998 C999 1.394 . S
C998 H1006 0.930 . S
C999 C998 1.394 . S
C999 C1000 1.383 . S
C999 H1007 0.929 . S
C1000 C999 1.383 . S
C1000 C1001 1.377 . S
C1001 H985 0.930 . S
C1001 C1000 1.377 . S
C1001 C1002 1.379 . S
C1002 H986 0.931 . S
C1002 C996 1.383 . S
C1002 C1001 1.379 . S
H1003 C997 0.959 . S
H1004 C997 0.961 . S
H1005 C997 0.960 . S
H1006 C998 0.930 . S
H1007 C999 0.929 . S
H1008 C1016 0.929 . S
H1009 C1018 0.930 . S
H1010 C1020 0.930 . S
H1011 C1023 0.929 . S
H1012 C1026 0.930 . S
H1013 C1028 0.960 . S
H1014 C1028 0.960 . S
H1015 C1028 0.960 . S
C1016 H1008 0.929 . S
C1016 C1017 1.377 . S
C1016 C1018 1.384 . S
C1017 C1016 1.377 . S
C1017 C1023 1.390 . S
C1018 H1009 0.930 . S
C1018 C1016 1.384 . S
C1018 C1019 1.372 . S
C1019 C1018 1.372 . S
C1019 C1020 1.400 . S
C1019 C1024 1.490 . S
C1020 H1010 0.930 . S
C1020 C1019 1.400 . S
C1020 C1023 1.386 . S
H1021 C1037 0.930 . S
H1022 C1038 0.931 . S
C1023 H1011 0.929 . S
C1023 C1017 1.390 . S
C1023 C1020 1.386 . S
C1024 C1019 1.490 . S
C1024 C1026 1.395 . S
C1024 C1027 1.403 . S
H1025 C1031 0.930 . S
C1026 H1012 0.930 . S
C1026 C1024 1.395 . S
C1026 C1029 1.403 . S
C1027 C1024 1.403 . S
C1027 C1028 1.524 . S
C1027 C1031 1.400 . S
C1028 H1013 0.960 . S
C1028 H1014 0.960 . S
C1028 H1015 0.960 . S
C1028 C1027 1.524 . S
C1029 C1026 1.403 . S
C1029 C1030 1.392 . S
C1029 C1033 1.495 . S
C1030 C1029 1.392 . S
C1030 C1031 1.385 . S
C1030 C1032 1.478 . S
C1031 H1025 0.930 . S
C1031 C1027 1.400 . S
C1031 C1030 1.385 . S
C1032 C1030 1.478 . S
C1032 C1034 1.381 . S
C1032 C1038 1.383 . S
C1033 C1029 1.495 . S
C1033 H1039 0.959 . S
C1033 H1040 0.961 . S
C1033 H1041 0.960 . S
C1034 C1032 1.381 . S
C1034 C1035 1.394 . S
C1034 H1042 0.930 . S
C1035 C1034 1.394 . S
C1035 C1036 1.383 . S
C1035 H1043 0.929 . S
C1036 C1035 1.383 . S
C1036 C1037 1.377 . S
C1037 H1021 0.930 . S
C1037 C1036 1.377 . S
C1037 C1038 1.379 . S
C1038 H1022 0.931 . S
C1038 C1032 1.383 . S
C1038 C1037 1.379 . S
H1039 C1033 0.959 . S
H1040 C1033 0.961 . S
H1041 C1033 0.960 . S
H1042 C1034 0.930 . S
H1043 C1035 0.929 . S
H1044 C1052 0.929 . S
H1045 C1054 0.930 . S
H1046 C1056 0.930 . S
H1047 C1059 0.929 . S
H1048 C1062 0.930 . S
H1049 C1064 0.960 . S
H1050 C1064 0.960 . S
H1051 C1064 0.960 . S
C1052 H1044 0.929 . S
C1052 C1053 1.377 . S
C1052 C1054 1.384 . S
C1053 C1052 1.377 . S
C1053 C1059 1.390 . S
C1054 H1045 0.930 . S
C1054 C1052 1.384 . S
C1054 C1055 1.372 . S
C1055 C1054 1.372 . S
C1055 C1056 1.400 . S
C1055 C1060 1.490 . S
C1056 H1046 0.930 . S
C1056 C1055 1.400 . S
C1056 C1059 1.386 . S
H1057 C1073 0.930 . S
H1058 C1074 0.931 . S
C1059 H1047 0.929 . S
C1059 C1053 1.390 . S
C1059 C1056 1.386 . S
C1060 C1055 1.490 . S
C1060 C1062 1.395 . S
C1060 C1063 1.403 . S
H1061 C1067 0.930 . S
C1062 H1048 0.930 . S
C1062 C1060 1.395 . S
C1062 C1065 1.403 . S
C1063 C1060 1.403 . S
C1063 C1064 1.524 . S
C1063 C1067 1.400 . S
C1064 H1049 0.960 . S
C1064 H1050 0.960 . S
C1064 H1051 0.960 . S
C1064 C1063 1.524 . S
C1065 C1062 1.403 . S
C1065 C1066 1.392 . S
C1065 C1069 1.495 . S
C1066 C1065 1.392 . S
C1066 C1067 1.385 . S
C1066 C1068 1.478 . S
C1067 H1061 0.930 . S
C1067 C1063 1.400 . S
C1067 C1066 1.385 . S
C1068 C1066 1.478 . S
C1068 C1070 1.381 . S
C1068 C1074 1.383 . S
C1069 C1065 1.495 . S
C1069 H1075 0.959 . S
C1069 H1076 0.961 . S
C1069 H1077 0.960 . S
C1070 C1068 1.381 . S
C1070 C1071 1.394 . S
C1070 H1078 0.930 . S
C1071 C1070 1.394 . S
C1071 C1072 1.383 . S
C1071 H1079 0.929 . S
C1072 C1071 1.383 . S
C1072 C1073 1.377 . S
C1073 H1057 0.930 . S
C1073 C1072 1.377 . S
C1073 C1074 1.379 . S
C1074 H1058 0.931 . S
C1074 C1068 1.383 . S
C1074 C1073 1.379 . S
H1075 C1069 0.959 . S
H1076 C1069 0.961 . S
H1077 C1069 0.960 . S
H1078 C1070 0.930 . S
H1079 C1071 0.929 . S
H1080 C1088 0.929 . S
H1081 C1090 0.930 . S
H1082 C1092 0.930 . S
H1083 C1095 0.929 . S
H1084 C1098 0.930 . S
H1085 C1100 0.960 . S
H1086 C1100 0.960 . S
H1087 C1100 0.960 . S
C1088 H1080 0.929 . S
C1088 C1089 1.377 . S
C1088 C1090 1.384 . S
C1089 C1088 1.377 . S
C1089 C1095 1.390 . S
C1090 H1081 0.930 . S
C1090 C1088 1.384 . S
C1090 C1091 1.372 . S
C1091 C1090 1.372 . S
C1091 C1092 1.400 . S
C1091 C1096 1.490 . S
C1092 H1082 0.930 . S
C1092 C1091 1.400 . S
C1092 C1095 1.386 . S
H1093 C1109 0.930 . S
H1094 C1110 0.931 . S
C1095 H1083 0.929 . S
C1095 C1089 1.390 . S
C1095 C1092 1.386 . S
C1096 C1091 1.490 . S
C1096 C1098 1.395 . S
C1096 C1099 1.403 . S
H1097 C1103 0.930 . S
C1098 H1084 0.930 . S
C1098 C1096 1.395 . S
C1098 C1101 1.403 . S
C1099 C1096 1.403 . S
C1099 C1100 1.524 . S
C1099 C1103 1.400 . S
C1100 H1085 0.960 . S
C1100 H1086 0.960 . S
C1100 H1087 0.960 . S
C1100 C1099 1.524 . S
C1101 C1098 1.403 . S
C1101 C1102 1.392 . S
C1101 C1105 1.495 . S
C1102 C1101 1.392 . S
C1102 C1103 1.385 . S
C1102 C1104 1.478 . S
C1103 H1097 0.930 . S
C1103 C1099 1.400 . S
C1103 C1102 1.385 . S
C1104 C1102 1.478 . S
C1104 C1106 1.381 . S
C1104 C1110 1.383 . S
C1105 C1101 1.495 . S
C1105 H1111 0.959 . S
C1105 H1112 0.961 . S
C1105 H1113 0.960 . S
C1106 C1104 1.381 . S
C1106 C1107 1.394 . S
C1106 H1114 0.930 . S
C1107 C1106 1.394 . S
C1107 C1108 1.383 . S
C1107 H1115 0.929 . S
C1108 C1107 1.383 . S
C1108 C1109 1.377 . S
C1109 H1093 0.930 . S
C1109 C1108 1.377 . S
C1109 C1110 1.379 . S
C1110 H1094 0.931 . S
C1110 C1104 1.383 . S
C1110 C1109 1.379 . S
H1111 C1105 0.959 . S
H1112 C1105 0.961 . S
H1113 C1105 0.960 . S
H1114 C1106 0.930 . S
H1115 C1107 0.929 . S
H1116 C1124 0.929 . S
H1117 C1126 0.930 . S
H1118 C1128 0.930 . S
H1119 C1131 0.929 . S
H1120 C1134 0.930 . S
H1121 C1136 0.960 . S
H1122 C1136 0.960 . S
H1123 C1136 0.960 . S
C1124 H1116 0.929 . S
C1124 C1125 1.377 . S
C1124 C1126 1.384 . S
C1125 C1124 1.377 . S
C1125 C1131 1.390 . S
C1126 H1117 0.930 . S
C1126 C1124 1.384 . S
C1126 C1127 1.372 . S
C1127 C1126 1.372 . S
C1127 C1128 1.400 . S
C1127 C1132 1.490 . S
C1128 H1118 0.930 . S
C1128 C1127 1.400 . S
C1128 C1131 1.386 . S
H1129 C1145 0.930 . S
H1130 C1146 0.931 . S
C1131 H1119 0.929 . S
C1131 C1125 1.390 . S
C1131 C1128 1.386 . S
C1132 C1127 1.490 . S
C1132 C1134 1.395 . S
C1132 C1135 1.403 . S
H1133 C1139 0.930 . S
C1134 H1120 0.930 . S
C1134 C1132 1.395 . S
C1134 C1137 1.403 . S
C1135 C1132 1.403 . S
C1135 C1136 1.524 . S
C1135 C1139 1.400 . S
C1136 H1121 0.960 . S
C1136 H1122 0.960 . S
C1136 H1123 0.960 . S
C1136 C1135 1.524 . S
C1137 C1134 1.403 . S
C1137 C1138 1.392 . S
C1137 C1141 1.495 . S
C1138 C1137 1.392 . S
C1138 C1139 1.385 . S
C1138 C1140 1.478 . S
C1139 H1133 0.930 . S
C1139 C1135 1.400 . S
C1139 C1138 1.385 . S
C1140 C1138 1.478 . S
C1140 C1142 1.381 . S
C1140 C1146 1.383 . S
C1141 C1137 1.495 . S
C1141 H1147 0.959 . S
C1141 H1148 0.961 . S
C1141 H1149 0.960 . S
C1142 C1140 1.381 . S
C1142 C1143 1.394 . S
C1142 H1150 0.930 . S
C1143 C1142 1.394 . S
C1143 C1144 1.383 . S
C1143 H1151 0.929 . S
C1144 C1143 1.383 . S
C1144 C1145 1.377 . S
C1145 H1129 0.930 . S
C1145 C1144 1.377 . S
C1145 C1146 1.379 . S
C1146 H1130 0.931 . S
C1146 C1140 1.383 . S
C1146 C1145 1.379 . S
H1147 C1141 0.959 . S
H1148 C1141 0.961 . S
H1149 C1141 0.960 . S
H1150 C1142 0.930 . S
H1151 C1143 0.929 . S
C513 C483 1.278 . S
C532 C63 1.292 . S
C549 C56 1.254 . S
C568 C140 1.249 . S
C585 C147 1.280 . S
C604 C231 1.278 . S
C621 C224 1.244 . S
C640 C308 1.264 . S
C657 C399 1.285 . S
C676 C315 1.273 . S
C693 C476 1.245 . S
C712 C392 1.219 . S
C729 C58 1.123 . S
C748 C69 1.151 . S
C765 C153 1.111 . S
C784 C142 1.145 . S
C801 C226 1.122 . S
C820 C237 1.104 . S
C837 C321 1.111 . S
C856 C310 1.146 . S
C873 C405 1.119 . S
C892 C394 1.161 . S
C909 C489 1.124 . S
C928 C478 1.128 . S
C945 C74 1.588 . S
C964 C403 1.600 . S
C981 C151 1.600 . S
C1000 C494 1.596 . S
C1017 C67 1.601 . S
C1036 C242 1.575 . S
C1053 C158 1.582 . S
C1072 C319 1.597 . S
C1089 C410 1.584 . S
C1108 C235 1.590 . S
C1125 C326 1.587 . S
C1144 C487 1.603 . S
