# Generated by pormake.
# Topology wlr, (5)-cn, num edge types: 1
# Building blocks:
#     Node 0, Type 0, BuildingBlock: XOMCOT_clean_sbu_1, # of connection points: 5
#     Node 1, Type 0, BuildingBlock: XOMCOT_clean_sbu_1, # of connection points: 5
#     Node 2, Type 0, BuildingBlock: XOMCOT_clean_sbu_1, # of connection points: 5
#     Node 3, Type 0, BuildingBlock: XOMCOT_clean_sbu_1, # of connection points: 5
#     Node 4, Type 0, BuildingBlock: XOMCOT_clean_sbu_1, # of connection points: 5
#     Node 5, Type 0, BuildingBlock: XOMCOT_clean_sbu_1, # of connection points: 5
#     Node 6, Type 0, BuildingBlock: XOMCOT_clean_sbu_1, # of connection points: 5
#     Node 7, Type 0, BuildingBlock: XOMCOT_clean_sbu_1, # of connection points: 5
#     Node 8, Type 0, BuildingBlock: XOMCOT_clean_sbu_1, # of connection points: 5
#     Node 9, Type 0, BuildingBlock: XOMCOT_clean_sbu_1, # of connection points: 5
#     Node 10, Type 0, BuildingBlock: XOMCOT_clean_sbu_1, # of connection points: 5
#     Node 11, Type 0, BuildingBlock: XOMCOT_clean_sbu_1, # of connection points: 5
#     Node 12, Type 0, BuildingBlock: XOMCOT_clean_sbu_1, # of connection points: 5
#     Node 13, Type 0, BuildingBlock: XOMCOT_clean_sbu_1, # of connection points: 5
#     Node 14, Type 0, BuildingBlock: XOMCOT_clean_sbu_1, # of connection points: 5
#     Node 15, Type 0, BuildingBlock: XOMCOT_clean_sbu_1, # of connection points: 5
#     Node 16, Type 0, BuildingBlock: XOMCOT_clean_sbu_1, # of connection points: 5
#     Node 17, Type 0, BuildingBlock: XOMCOT_clean_sbu_1, # of connection points: 5
#     Node 18, Type 0, BuildingBlock: XOMCOT_clean_sbu_1, # of connection points: 5
#     Node 19, Type 0, BuildingBlock: XOMCOT_clean_sbu_1, # of connection points: 5
#     Node 20, Type 0, BuildingBlock: XOMCOT_clean_sbu_1, # of connection points: 5
#     Node 21, Type 0, BuildingBlock: XOMCOT_clean_sbu_1, # of connection points: 5
#     Node 22, Type 0, BuildingBlock: XOMCOT_clean_sbu_1, # of connection points: 5
#     Node 23, Type 0, BuildingBlock: XOMCOT_clean_sbu_1, # of connection points: 5
#     Node 24, Type 0, BuildingBlock: XOMCOT_clean_sbu_1, # of connection points: 5
#     Node 25, Type 0, BuildingBlock: XOMCOT_clean_sbu_1, # of connection points: 5
#     Node 26, Type 0, BuildingBlock: XOMCOT_clean_sbu_1, # of connection points: 5
#     Node 27, Type 0, BuildingBlock: XOMCOT_clean_sbu_1, # of connection points: 5
#     Node 28, Type 0, BuildingBlock: XOMCOT_clean_sbu_1, # of connection points: 5
#     Node 29, Type 0, BuildingBlock: XOMCOT_clean_sbu_1, # of connection points: 5
#     Node 30, Type 0, BuildingBlock: XOMCOT_clean_sbu_1, # of connection points: 5
#     Node 31, Type 0, BuildingBlock: XOMCOT_clean_sbu_1, # of connection points: 5
#     Node 32, Type 0, BuildingBlock: XOMCOT_clean_sbu_1, # of connection points: 5
#     Node 33, Type 0, BuildingBlock: XOMCOT_clean_sbu_1, # of connection points: 5
#     Node 34, Type 0, BuildingBlock: XOMCOT_clean_sbu_1, # of connection points: 5
#     Node 35, Type 0, BuildingBlock: XOMCOT_clean_sbu_1, # of connection points: 5
#     Edge 36, Type (0, 0), BuildingBlock: AJUNOK_clean_linker_0, # of connection points: 2
#     Edge 37, Type (0, 0), BuildingBlock: AJUNOK_clean_linker_0, # of connection points: 2
#     Edge 38, Type (0, 0), BuildingBlock: AJUNOK_clean_linker_0, # of connection points: 2
#     Edge 39, Type (0, 0), BuildingBlock: AJUNOK_clean_linker_0, # of connection points: 2
#     Edge 40, Type (0, 0), BuildingBlock: AJUNOK_clean_linker_0, # of connection points: 2
#     Edge 41, Type (0, 0), BuildingBlock: AJUNOK_clean_linker_0, # of connection points: 2
#     Edge 42, Type (0, 0), BuildingBlock: AJUNOK_clean_linker_0, # of connection points: 2
#     Edge 43, Type (0, 0), BuildingBlock: AJUNOK_clean_linker_0, # of connection points: 2
#     Edge 44, Type (0, 0), BuildingBlock: AJUNOK_clean_linker_0, # of connection points: 2
#     Edge 45, Type (0, 0), BuildingBlock: AJUNOK_clean_linker_0, # of connection points: 2
#     Edge 46, Type (0, 0), BuildingBlock: AJUNOK_clean_linker_0, # of connection points: 2
#     Edge 47, Type (0, 0), BuildingBlock: AJUNOK_clean_linker_0, # of connection points: 2
#     Edge 48, Type (0, 0), BuildingBlock: AJUNOK_clean_linker_0, # of connection points: 2
#     Edge 49, Type (0, 0), BuildingBlock: AJUNOK_clean_linker_0, # of connection points: 2
#     Edge 50, Type (0, 0), BuildingBlock: AJUNOK_clean_linker_0, # of connection points: 2
#     Edge 51, Type (0, 0), BuildingBlock: AJUNOK_clean_linker_0, # of connection points: 2
#     Edge 52, Type (0, 0), BuildingBlock: AJUNOK_clean_linker_0, # of connection points: 2
#     Edge 53, Type (0, 0), BuildingBlock: AJUNOK_clean_linker_0, # of connection points: 2
#     Edge 54, Type (0, 0), BuildingBlock: AJUNOK_clean_linker_0, # of connection points: 2
#     Edge 55, Type (0, 0), BuildingBlock: AJUNOK_clean_linker_0, # of connection points: 2
#     Edge 56, Type (0, 0), BuildingBlock: AJUNOK_clean_linker_0, # of connection points: 2
#     Edge 57, Type (0, 0), BuildingBlock: AJUNOK_clean_linker_0, # of connection points: 2
#     Edge 58, Type (0, 0), BuildingBlock: AJUNOK_clean_linker_0, # of connection points: 2
#     Edge 59, Type (0, 0), BuildingBlock: AJUNOK_clean_linker_0, # of connection points: 2
#     Edge 60, Type (0, 0), BuildingBlock: AJUNOK_clean_linker_0, # of connection points: 2
#     Edge 61, Type (0, 0), BuildingBlock: AJUNOK_clean_linker_0, # of connection points: 2
#     Edge 62, Type (0, 0), BuildingBlock: AJUNOK_clean_linker_0, # of connection points: 2
#     Edge 63, Type (0, 0), BuildingBlock: AJUNOK_clean_linker_0, # of connection points: 2
#     Edge 64, Type (0, 0), BuildingBlock: AJUNOK_clean_linker_0, # of connection points: 2
#     Edge 65, Type (0, 0), BuildingBlock: AJUNOK_clean_linker_0, # of connection points: 2
#     Edge 66, Type (0, 0), BuildingBlock: AJUNOK_clean_linker_0, # of connection points: 2
#     Edge 67, Type (0, 0), BuildingBlock: AJUNOK_clean_linker_0, # of connection points: 2
#     Edge 68, Type (0, 0), BuildingBlock: AJUNOK_clean_linker_0, # of connection points: 2
#     Edge 69, Type (0, 0), BuildingBlock: AJUNOK_clean_linker_0, # of connection points: 2
#     Edge 70, Type (0, 0), BuildingBlock: AJUNOK_clean_linker_0, # of connection points: 2
#     Edge 71, Type (0, 0), BuildingBlock: AJUNOK_clean_linker_0, # of connection points: 2
#     Edge 72, Type (0, 0), BuildingBlock: AJUNOK_clean_linker_0, # of connection points: 2
#     Edge 73, Type (0, 0), BuildingBlock: AJUNOK_clean_linker_0, # of connection points: 2
#     Edge 74, Type (0, 0), BuildingBlock: AJUNOK_clean_linker_0, # of connection points: 2
#     Edge 75, Type (0, 0), BuildingBlock: AJUNOK_clean_linker_0, # of connection points: 2
#     Edge 76, Type (0, 0), BuildingBlock: AJUNOK_clean_linker_0, # of connection points: 2
#     Edge 77, Type (0, 0), BuildingBlock: AJUNOK_clean_linker_0, # of connection points: 2
#     Edge 78, Type (0, 0), BuildingBlock: AJUNOK_clean_linker_0, # of connection points: 2
#     Edge 79, Type (0, 0), BuildingBlock: AJUNOK_clean_linker_0, # of connection points: 2
#     Edge 80, Type (0, 0), BuildingBlock: AJUNOK_clean_linker_0, # of connection points: 2
#     Edge 81, Type (0, 0), BuildingBlock: AJUNOK_clean_linker_0, # of connection points: 2
#     Edge 82, Type (0, 0), BuildingBlock: AJUNOK_clean_linker_0, # of connection points: 2
#     Edge 83, Type (0, 0), BuildingBlock: AJUNOK_clean_linker_0, # of connection points: 2
#     Edge 84, Type (0, 0), BuildingBlock: AJUNOK_clean_linker_0, # of connection points: 2
#     Edge 85, Type (0, 0), BuildingBlock: AJUNOK_clean_linker_0, # of connection points: 2
#     Edge 86, Type (0, 0), BuildingBlock: AJUNOK_clean_linker_0, # of connection points: 2
#     Edge 87, Type (0, 0), BuildingBlock: AJUNOK_clean_linker_0, # of connection points: 2
#     Edge 88, Type (0, 0), BuildingBlock: AJUNOK_clean_linker_0, # of connection points: 2
#     Edge 89, Type (0, 0), BuildingBlock: AJUNOK_clean_linker_0, # of connection points: 2
#     Edge 90, Type (0, 0), BuildingBlock: AJUNOK_clean_linker_0, # of connection points: 2
#     Edge 91, Type (0, 0), BuildingBlock: AJUNOK_clean_linker_0, # of connection points: 2
#     Edge 92, Type (0, 0), BuildingBlock: AJUNOK_clean_linker_0, # of connection points: 2
#     Edge 93, Type (0, 0), BuildingBlock: AJUNOK_clean_linker_0, # of connection points: 2
#     Edge 94, Type (0, 0), BuildingBlock: AJUNOK_clean_linker_0, # of connection points: 2
#     Edge 95, Type (0, 0), BuildingBlock: AJUNOK_clean_linker_0, # of connection points: 2
#     Edge 96, Type (0, 0), BuildingBlock: AJUNOK_clean_linker_0, # of connection points: 2
#     Edge 97, Type (0, 0), BuildingBlock: AJUNOK_clean_linker_0, # of connection points: 2
#     Edge 98, Type (0, 0), BuildingBlock: AJUNOK_clean_linker_0, # of connection points: 2
#     Edge 99, Type (0, 0), BuildingBlock: AJUNOK_clean_linker_0, # of connection points: 2
#     Edge 100, Type (0, 0), BuildingBlock: AJUNOK_clean_linker_0, # of connection points: 2
#     Edge 101, Type (0, 0), BuildingBlock: AJUNOK_clean_linker_0, # of connection points: 2
#     Edge 102, Type (0, 0), BuildingBlock: AJUNOK_clean_linker_0, # of connection points: 2
#     Edge 103, Type (0, 0), BuildingBlock: AJUNOK_clean_linker_0, # of connection points: 2
#     Edge 104, Type (0, 0), BuildingBlock: AJUNOK_clean_linker_0, # of connection points: 2
#     Edge 105, Type (0, 0), BuildingBlock: AJUNOK_clean_linker_0, # of connection points: 2
#     Edge 106, Type (0, 0), BuildingBlock: AJUNOK_clean_linker_0, # of connection points: 2
#     Edge 107, Type (0, 0), BuildingBlock: AJUNOK_clean_linker_0, # of connection points: 2
#     Edge 108, Type (0, 0), BuildingBlock: AJUNOK_clean_linker_0, # of connection points: 2
#     Edge 109, Type (0, 0), BuildingBlock: AJUNOK_clean_linker_0, # of connection points: 2
#     Edge 110, Type (0, 0), BuildingBlock: AJUNOK_clean_linker_0, # of connection points: 2
#     Edge 111, Type (0, 0), BuildingBlock: AJUNOK_clean_linker_0, # of connection points: 2
#     Edge 112, Type (0, 0), BuildingBlock: AJUNOK_clean_linker_0, # of connection points: 2
#     Edge 113, Type (0, 0), BuildingBlock: AJUNOK_clean_linker_0, # of connection points: 2
#     Edge 114, Type (0, 0), BuildingBlock: AJUNOK_clean_linker_0, # of connection points: 2
#     Edge 115, Type (0, 0), BuildingBlock: AJUNOK_clean_linker_0, # of connection points: 2
#     Edge 116, Type (0, 0), BuildingBlock: AJUNOK_clean_linker_0, # of connection points: 2
#     Edge 117, Type (0, 0), BuildingBlock: AJUNOK_clean_linker_0, # of connection points: 2
#     Edge 118, Type (0, 0), BuildingBlock: AJUNOK_clean_linker_0, # of connection points: 2
#     Edge 119, Type (0, 0), BuildingBlock: AJUNOK_clean_linker_0, # of connection points: 2
#     Edge 120, Type (0, 0), BuildingBlock: AJUNOK_clean_linker_0, # of connection points: 2
#     Edge 121, Type (0, 0), BuildingBlock: AJUNOK_clean_linker_0, # of connection points: 2
#     Edge 122, Type (0, 0), BuildingBlock: AJUNOK_clean_linker_0, # of connection points: 2
#     Edge 123, Type (0, 0), BuildingBlock: AJUNOK_clean_linker_0, # of connection points: 2
#     Edge 124, Type (0, 0), BuildingBlock: AJUNOK_clean_linker_0, # of connection points: 2
#     Edge 125, Type (0, 0), BuildingBlock: AJUNOK_clean_linker_0, # of connection points: 2
# Relax obj value: 0.185
# Max RMSD: 0.139
# Mean RMSD: 0.139
data_MOF--net-wlr--node1-XOMCOT_clean_sbu_1--edge1-AJUNOK_clean_linker_0
_symmetry_space_group_name_H-M    P1
_symmetry_Int_Tables_number       1
_symmetry_cell_setting            triclinic
loop_
_symmetry_equiv_pos_as_xyz
'x, y, z'
_cell_length_a     60.716891
_cell_length_b     60.642081
_cell_length_c     25.715069
_cell_angle_alpha  89.843243
_cell_angle_beta   89.975053
_cell_angle_gamma 120.01801
loop_
_atom_site_label
_atom_site_type_symbol
_atom_site_fract_x
_atom_site_fract_y
_atom_site_fract_z
_atom_type_partial_charge
C0 C 0.27548 0.19206 0.17782 0.0
C1 C 0.29262 0.18641 0.19981 0.0
N2 N 0.3118 0.19307 0.16592 0.0
N3 N 0.28398 0.20272 0.13062 0.0
C4 C 0.30627 0.20314 0.12438 0.0
H5 H 0.25723 0.18727 0.19414 0.0
Co6 Co 0.26364 0.20833 0.08506 0.0
C7 C 0.29731 0.23381 0.98872 0.0
O8 O 0.27739 0.22082 0.95908 0.0
N9 N 0.24072 0.21285 0.0399 0.0
C10 C 0.20993 0.20343 0.98166 0.0
C11 C 0.22833 0.19828 0.9982 0.0
C12 C 0.22894 0.22671 0.04763 0.0
N13 N 0.20996 0.22109 1.01309 0.0
O14 O 0.2688 0.23701 0.12957 0.0
H15 H 0.23157 0.18389 0.98118 0.0
H16 H 0.23358 0.24021 0.0788 0.0
O17 O 0.2947 0.23121 0.03871 0.0
C18 C 0.25114 0.22947 0.16408 0.0
O19 O 0.23113 0.20666 0.15902 0.0
N20 N 0.25692 0.17806 0.05024 0.0
C21 C 0.24515 0.12819 0.02514 0.0
C22 C 0.26737 0.14955 1.00614 0.0
C23 C 0.27326 0.17419 0.02032 0.0
C24 C 0.23493 0.15768 0.06787 0.0
C25 C 0.22876 0.13269 0.05617 0.0
H26 H 0.29169 0.18971 1.00993 0.0
H27 H 0.22274 0.16085 0.09377 0.0
H28 H 0.31763 0.20962 0.0893 0.0
H29 H 0.29035 0.17662 0.23642 0.0
H30 H 0.19651 0.19378 0.95054 0.0
H31 H 0.28086 0.14729 0.98245 0.0
H32 H 0.21201 0.11716 0.07399 0.0
C33 C 0.83868 0.09105 0.17221 0.0
C34 C 0.84498 0.11345 0.19686 0.0
N35 N 0.83324 0.12426 0.17214 0.0
N36 N 0.82297 0.08762 0.13209 0.0
C37 C 0.82006 0.10828 0.13292 0.0
H38 H 0.84619 0.0787 0.18147 0.0
Co39 Co 0.81258 0.06074 0.08578 0.0
C40 C 0.77263 0.06339 1.01682 0.0
O41 O 0.75736 0.03866 0.02058 0.0
N42 N 0.8031 0.03304 0.04025 0.0
C43 C 0.79569 0.00899 0.96982 0.0
C44 C 0.802 0.03286 0.98779 0.0
C45 C 0.79805 0.00923 0.05301 0.0
N46 N 0.79321 0.99415 1.011 0.0
O47 O 0.78311 0.04011 0.13123 0.0
H48 H 0.80602 0.04917 0.96395 0.0
H49 H 0.79812 1.00294 0.09228 0.0
O50 O 0.79367 0.07372 0.04228 0.0
C51 C 0.78928 0.03032 0.16891 0.0
O52 O 0.81205 0.03284 0.16853 0.0
N53 N 0.84292 0.08087 0.04772 0.0
C54 C 0.89299 0.11877 0.02571 0.0
C55 C 0.87239 0.11892 1.00128 0.0
C56 C 0.8474 0.09983 1.01303 0.0
C57 C 0.86278 0.07925 0.06812 0.0
C58 C 0.88794 0.09814 0.05817 0.0
H59 H 0.83194 0.10137 0.99645 0.0
H60 H 0.85902 0.06435 0.09595 0.0
H61 H 0.80907 0.11193 0.10483 0.0
H62 H 0.85834 0.12184 0.22858 0.0
H63 H 0.79393 1.00326 0.9295 0.0
H64 H 0.8755 0.13453 0.97596 0.0
H65 H 0.9033 0.09721 0.07752 0.0
C66 C 0.9232 0.75507 0.16206 0.0
C67 C 0.90119 0.73856 0.18754 0.0
N68 N 0.89358 0.71494 0.17024 0.0
N69 N 0.92962 0.74202 0.12879 0.0
C70 C 0.91107 0.71749 0.1345 0.0
H71 H 0.93338 0.77555 0.16605 0.0
Co72 Co 0.95766 0.75917 0.08508 0.0
C73 C 0.95707 0.71725 1.01403 0.0
O74 O 0.98201 0.72845 1.013 0.0
N75 N 0.98668 0.77869 0.0426 0.0
C76 C 0.01192 0.79934 0.97544 0.0
C77 C 0.98843 0.7795 0.99027 0.0
C78 C 1.00924 0.79858 0.05846 0.0
N79 N 0.02512 0.81148 0.01841 0.0
O80 O 0.97788 0.75146 0.13473 0.0
H81 H 0.97323 0.76709 0.96436 0.0
H82 H 0.01335 0.80448 0.09852 0.0
O83 O 0.94656 0.72703 0.04215 0.0
C84 C 0.98452 0.76674 0.17366 0.0
O85 O 0.97972 0.78556 0.17153 0.0
N86 N 0.9378 0.76824 0.04304 0.0
C87 C 0.89976 0.77985 0.01902 0.0
C88 C 0.89788 0.75704 1.00198 0.0
C89 C 0.91704 0.75144 1.01477 0.0
C90 C 0.94099 0.79148 0.05565 0.0
C91 C 0.92208 0.79757 0.04451 0.0
H92 H 0.91387 0.73276 1.00554 0.0
H93 H 0.95711 0.80434 0.07914 0.0
H94 H 0.9101 0.70187 0.11257 0.0
H95 H 0.89083 0.74367 0.2146 0.0
H96 H 0.01854 0.8047 0.93584 0.0
H97 H 0.88084 0.74278 0.98262 0.0
H98 H 0.92423 0.8154 0.05837 0.0
C99 C 0.17821 0.25699 0.37725 0.0
C100 C 0.17061 0.27231 0.35366 0.0
N101 N 0.18388 0.29566 0.37454 0.0
N102 N 0.19651 0.27059 0.41236 0.0
C103 C 0.19988 0.29436 0.40938 0.0
H104 H 0.16979 0.23673 0.37131 0.0
Co105 Co 0.20699 0.25349 0.45697 0.0
C106 C 0.2309 0.2907 0.54795 0.0
O107 O 0.21602 0.27217 0.57936 0.0
N108 N 0.21641 0.23338 0.50028 0.0
C109 C 0.21502 0.20661 0.56211 0.0
C110 C 0.20813 0.22425 0.5489 0.0
C111 C 0.2277 0.21991 0.48457 0.0
N112 N 0.22721 0.20371 0.52156 0.0
O113 O 0.2347 0.26083 0.40706 0.0
H114 H 0.19543 0.22777 0.57208 0.0
H115 H 0.23512 0.22088 0.44597 0.0
O116 O 0.22966 0.28622 0.49851 0.0
C117 C 0.22695 0.24524 0.36867 0.0
O118 O 0.20426 0.22492 0.3719 0.0
N119 N 0.1779 0.24532 0.49881 0.0
C120 C 0.12733 0.23193 0.5207 0.0
C121 C 0.14708 0.25732 0.52402 0.0
C122 C 0.17217 0.26358 0.51347 0.0
C123 C 0.15923 0.22036 0.49875 0.0
C124 C 0.1341 0.2132 0.51161 0.0
H125 H 0.1864 0.28349 0.51176 0.0
H126 H 0.16346 0.20598 0.48536 0.0
H127 H 0.21229 0.30981 0.43481 0.0
H128 H 0.15583 0.26648 0.32464 0.0
H129 H 0.2096 0.1952 0.59727 0.0
H130 H 0.14308 0.2726 0.53066 0.0
H131 H 0.11993 0.19317 0.51127 0.0
C132 C 0.75326 0.92404 0.36549 0.0
C133 C 0.73796 0.90176 0.33985 0.0
N134 N 0.71505 0.8903 0.36325 0.0
N135 N 0.74013 0.92666 0.4049 0.0
C136 C 0.71674 0.90588 0.40246 0.0
H137 H 0.77309 0.93718 0.35721 0.0
Co138 Co 0.75685 0.95354 0.44973 0.0
C139 C 0.72391 0.94172 0.54461 0.0
O140 O 0.745 0.94854 0.57047 0.0
N141 N 0.77575 0.98254 0.49175 0.0
C142 C 0.7871 0.01969 0.53007 0.0
C143 C 0.76699 0.9965 0.51575 0.0
C144 C 0.80131 0.99836 0.49001 0.0
N145 N 0.80863 0.02079 0.51382 0.0
O146 O 0.7489 0.97412 0.40236 0.0
H147 H 0.74723 0.99135 0.51824 0.0
H148 H 0.81409 0.99479 0.46703 0.0
O149 O 0.72498 0.94272 0.49427 0.0
C150 C 0.76657 0.9868 0.36907 0.0
O151 O 0.78816 0.98692 0.37379 0.0
N152 N 0.76575 0.93237 0.49033 0.0
C153 C 0.77678 0.89355 0.51369 0.0
C154 C 0.75223 0.8896 0.52006 0.0
C155 C 0.74706 0.909 0.50781 0.0
C156 C 0.79011 0.93685 0.48618 0.0
C157 C 0.7961 0.91781 0.49829 0.0
H158 H 0.72735 0.90394 0.50754 0.0
H159 H 0.80458 0.95422 0.46849 0.0
H160 H 0.70188 0.90149 0.43069 0.0
H161 H 0.74345 0.89418 0.30745 0.0
H162 H 0.78588 0.03545 0.5466 0.0
H163 H 0.73669 0.87096 0.53078 0.0
H164 H 0.81522 0.92137 0.49155 0.0
C165 C 0.0934 0.8313 0.36096 0.0
C166 C 0.11499 0.83586 0.33535 0.0
N167 N 0.12613 0.82524 0.36289 0.0
N168 N 0.0906 0.81767 0.40444 0.0
C169 C 0.11102 0.81437 0.40492 0.0
H170 H 0.08152 0.83916 0.35038 0.0
Co171 Co 0.06553 0.81274 0.45162 0.0
C172 C 0.07561 0.78806 0.54784 0.0
O173 O 0.07236 0.80351 0.57797 0.0
N174 N 0.039 0.80936 0.49769 0.0
C175 C 0.01922 0.81874 0.5596 0.0
C176 C 0.04199 0.82184 0.54298 0.0
C177 C 0.01384 0.79963 0.48702 0.0
N178 N 1.00143 0.8055 0.52351 0.0
O179 O 0.04105 0.78371 0.40862 0.0
H180 H 0.05989 0.83423 0.56179 0.0
H181 H 1.00494 0.7898 0.45155 0.0
O182 O 0.07342 0.78932 0.4979 0.0
C183 C 0.03175 0.79066 0.37129 0.0
O184 O 0.03557 0.81397 0.37168 0.0
N185 N 0.08997 0.84288 0.48552 0.0
C186 C 0.12997 0.89232 0.50714 0.0
C187 C 0.13122 0.87064 0.5222 0.0
C188 C 0.11148 0.84624 0.50961 0.0
C189 C 0.08792 0.86358 0.47225 0.0
C190 C 0.10766 0.88838 0.4823 0.0
H191 H 0.11452 0.83043 0.51606 0.0
H192 H 0.07149 0.86085 0.45052 0.0
H193 H 0.1155 0.80553 0.43666 0.0
H194 H 0.12294 0.84787 0.30137 0.0
H195 H 0.01653 0.82642 0.59532 0.0
H196 H 0.14795 0.87245 0.54119 0.0
H197 H 0.10596 0.90419 0.46763 0.0
C198 C 0.75045 0.83134 0.86193 0.0
C199 C 0.73257 0.83486 0.83696 0.0
N200 N 0.71054 0.82202 0.86329 0.0
N201 N 0.73986 0.81622 0.90376 0.0
C202 C 0.71541 0.81082 0.90379 0.0
H203 H 0.77041 0.84063 0.85206 0.0
Co204 Co 0.76026 0.81101 0.94967 0.0
C205 C 0.72677 0.78832 0.04608 0.0
O206 O 0.74577 0.80541 0.07363 0.0
N207 N 0.78342 0.80677 0.99455 0.0
C208 C 0.81438 0.81579 0.05207 0.0
C209 C 0.79519 0.82024 0.03775 0.0
C210 C 0.79621 0.79415 0.98391 0.0
N211 N 0.81538 0.7996 0.01784 0.0
O212 O 0.75524 0.78228 0.90561 0.0
H213 H 0.79148 0.83395 0.05651 0.0
H214 H 0.7921 0.78167 0.9511 0.0
O215 O 0.72964 0.78781 0.99631 0.0
C216 C 0.77133 0.78999 0.86794 0.0
O217 O 0.79053 0.81344 0.86935 0.0
N218 N 0.76624 0.84125 0.98466 0.0
C219 C 0.77525 0.89071 1.00333 0.0
C220 C 0.75131 0.86938 1.01301 0.0
C221 C 0.74713 0.84488 1.00312 0.0
C222 C 0.78979 0.86186 0.97584 0.0
C223 C 0.79484 0.88669 0.98595 0.0
H224 H 0.72795 0.82914 1.00652 0.0
H225 H 0.80441 0.85913 0.95814 0.0
H226 H 0.70187 0.80017 0.93424 0.0
H227 H 0.73601 0.84753 0.80436 0.0
H228 H 0.82767 0.82513 0.08352 0.0
H229 H 0.73559 0.8717 0.02586 0.0
H230 H 0.81347 0.90268 0.97706 0.0
C231 C 0.18137 0.92635 0.8636 0.0
C232 C 0.17357 0.90345 0.83954 0.0
N233 N 0.18443 0.89173 0.86424 0.0
N234 N 0.19712 0.92905 0.90304 0.0
C235 C 0.19902 0.90784 0.902 0.0
H236 H 0.17545 0.93996 0.85394 0.0
Co237 Co 0.20907 0.95643 0.94729 0.0
C238 C 0.22886 0.94218 0.04154 0.0
O239 O 0.21533 0.94952 0.06865 0.0
N240 N 0.22156 0.98604 0.98936 0.0
C241 C 0.2503 0.02123 0.02958 0.0
C242 C 0.24417 0.99729 1.01422 0.0
C243 C 0.21512 1.00454 0.98781 0.0
N244 N 0.2324 0.02631 1.01209 0.0
O245 O 0.2378 0.9754 0.89903 0.0
H246 H 0.25695 0.98982 1.01697 0.0
H247 H 0.19956 1.00294 0.96459 0.0
O248 O 0.22869 0.94372 0.99127 0.0
C249 C 0.23399 0.9889 0.86559 0.0
O250 O 0.21349 0.99081 0.87041 0.0
N251 N 0.17864 0.93681 0.98859 0.0
C252 C 0.12771 0.9 1.01315 0.0
C253 C 0.14751 0.8947 0.01915 0.0
C254 C 0.17246 0.91299 1.00616 0.0
C255 C 0.15973 0.94272 0.98422 0.0
C256 C 0.1342 0.92464 0.99621 0.0
H257 H 0.18617 0.90668 1.00566 0.0
H258 H 0.16392 0.96068 0.96707 0.0
H259 H 0.20976 0.90363 0.92991 0.0
H260 H 0.16069 0.8959 0.80687 0.0
H261 H 0.26767 0.03445 0.04932 0.0
H262 H 0.14354 0.87577 0.02978 0.0
H263 H 0.11953 0.92955 0.99006 0.0
C264 C 0.09022 0.26565 0.84816 0.0
C265 C 0.1133 0.28192 0.82589 0.0
N266 N 0.12662 0.301 0.85942 0.0
N267 N 0.08866 0.27465 0.89513 0.0
C268 C 0.11126 0.29618 0.90102 0.0
H269 H 0.07615 0.24765 0.83204 0.0
Co270 Co 0.06264 0.25615 0.94235 0.0
C271 C 0.06364 0.29379 0.02465 0.0
O272 O 0.04023 0.27788 0.03955 0.0
N273 N 0.03551 0.23529 0.98904 0.0
C274 C 0.01432 0.20889 0.05455 0.0
C275 C 0.03766 0.22802 0.03762 0.0
C276 C 1.01036 0.22038 0.97807 0.0
N277 N 0.99707 0.20374 1.01674 0.0
O278 O 0.03979 0.26226 0.89762 0.0
H279 H 0.05525 0.23538 0.05901 0.0
H280 H 1.00184 0.22143 0.9422 0.0
O281 O 0.07312 0.2878 0.98593 0.0
C282 C 0.02957 0.24515 0.86221 0.0
O283 O 0.03192 0.22481 0.86581 0.0
N284 N 0.08546 0.24904 0.97899 0.0
C285 C 0.1257 0.24044 1.00135 0.0
C286 C 0.12472 0.261 0.02377 0.0
C287 C 0.10447 0.2651 1.01188 0.0
C288 C 0.08533 0.22809 0.95966 0.0
C289 C 0.10528 0.22349 0.97013 0.0
H290 H 0.10519 0.28206 0.02669 0.0
H291 H 0.07053 0.21586 0.93281 0.0
H292 H 0.11676 0.30736 0.93597 0.0
H293 H 0.12029 0.2792 0.78911 0.0
H294 H 1.01067 0.19873 0.09108 0.0
H295 H 0.14023 0.27469 0.04762 0.0
H296 H 0.10524 0.20732 0.95221 0.0
C297 C 0.84196 0.75596 0.66609 0.0
C298 C 0.84819 0.7405 0.69339 0.0
N299 N 0.83449 0.71674 0.67454 0.0
N300 N 0.82417 0.74217 0.63024 0.0
C301 C 0.81974 0.71813 0.63655 0.0
H302 H 0.85094 0.77639 0.67015 0.0
Co303 Co 0.8148 0.75936 0.583 0.0
C304 C 0.79432 0.72219 0.49116 0.0
O305 O 0.81309 0.73946 0.46331 0.0
N306 N 0.80613 0.77931 0.53743 0.0
C307 C 0.80601 0.80391 0.47237 0.0
C308 C 0.81284 0.78639 0.48721 0.0
C309 C 0.79584 0.79382 0.55218 0.0
N310 N 0.79543 0.8087 0.51334 0.0
O311 O 0.7862 0.75218 0.62991 0.0
H312 H 0.82466 0.78181 0.46378 0.0
H313 H 0.78969 0.7945 0.59119 0.0
O314 O 0.79275 0.72676 0.53986 0.0
C315 C 0.79335 0.76791 0.66804 0.0
O316 O 0.81625 0.78799 0.66651 0.0
N317 N 0.84483 0.7677 0.54416 0.0
C318 C 0.89577 0.7825 0.52184 0.0
C319 C 0.87696 0.7567 0.52434 0.0
C320 C 0.85173 0.74974 0.53499 0.0
C321 C 0.86259 0.79289 0.53951 0.0
C322 C 0.88784 0.80063 0.52628 0.0
H323 H 0.83812 0.72975 0.53968 0.0
H324 H 0.85758 0.80721 0.54885 0.0
H325 H 0.8076 0.70254 0.61114 0.0
H326 H 0.86261 0.74652 0.72327 0.0
H327 H 0.81044 0.81396 0.43555 0.0
H328 H 0.88181 0.74182 0.52149 0.0
H329 H 0.90114 0.82078 0.52207 0.0
C330 C 0.27065 0.09228 0.65974 0.0
C331 C 0.28565 0.11442 0.68616 0.0
N332 N 0.30959 0.12445 0.66819 0.0
N333 N 0.28498 0.08837 0.62507 0.0
C334 C 0.30878 0.10817 0.63139 0.0
H335 H 0.25029 0.08025 0.66387 0.0
Co336 Co 0.26961 0.06157 0.57904 0.0
C337 C 0.30516 0.07725 0.48707 0.0
O338 O 0.2849 0.07191 0.45938 0.0
N339 N 0.25218 0.03261 0.53543 0.0
C340 C 0.24371 0.99776 0.49111 0.0
C341 C 0.26237 0.02142 0.50637 0.0
C342 C 0.22722 0.01445 0.53918 0.0
N343 N 0.22145 0.9929 0.5125 0.0
O344 O 0.27699 0.04106 0.62803 0.0
H345 H 0.28241 0.0286 0.50033 0.0
H346 H 0.21422 0.01616 0.56525 0.0
O347 O 0.30272 0.07366 0.537 0.0
C348 C 0.25903 0.02975 0.66157 0.0
O349 O 0.23828 0.0311 0.65551 0.0
N350 N 0.26077 0.08249 0.53738 0.0
C351 C 0.24833 0.12043 0.51509 0.0
C352 C 0.27352 0.12582 0.5133 0.0
C353 C 0.27935 0.10685 0.52504 0.0
C354 C 0.23586 0.07649 0.53608 0.0
C355 C 0.2292 0.09517 0.52468 0.0
H356 H 0.2992 0.11277 0.52916 0.0
H357 H 0.22117 0.05789 0.54878 0.0
H358 H 0.32474 0.11148 0.60718 0.0
H359 H 0.27932 0.12294 0.71515 0.0
H360 H 0.24686 0.98459 0.46847 0.0
H361 H 0.28886 0.14514 0.50694 0.0
H362 H 0.20949 0.09038 0.52747 0.0
C363 C 0.92412 0.17185 0.65758 0.0
C364 C 0.90161 0.16478 0.68226 0.0
N365 N 0.89145 0.17792 0.66096 0.0
N366 N 0.92861 0.18979 0.62144 0.0
C367 C 0.90836 0.19334 0.62465 0.0
H368 H 0.93582 0.1633 0.66368 0.0
Co369 Co 0.95587 0.19958 0.57628 0.0
C370 C 0.94144 0.22321 0.48434 0.0
O371 O 0.94185 0.20647 0.45308 0.0
N372 N 0.98475 0.20802 0.53254 0.0
C373 C 1.0086 0.2064 0.4682 0.0
C374 C 0.98487 0.2015 0.48233 0.0
C375 C 1.009 0.21583 0.54834 0.0
N376 N 0.02376 0.21455 0.51019 0.0
O377 O 0.97697 0.22774 0.62432 0.0
H378 H 0.96842 0.1905 0.45858 0.0
H379 H 0.01531 0.22044 0.58807 0.0
O380 O 0.94615 0.22254 0.53336 0.0
C381 C 0.98479 0.22013 0.66308 0.0
O382 O 0.9815 0.19703 0.66164 0.0
N383 N 0.93473 0.17018 0.53649 0.0
C384 C 0.89827 0.11991 0.51232 0.0
C385 C 0.89283 0.13965 0.50644 0.0
C386 C 0.91109 0.16452 0.5197 0.0
C387 C 0.94068 0.15131 0.54041 0.0
C388 C 0.92272 0.12601 0.52859 0.0
H389 H 0.9053 0.17867 0.52061 0.0
H390 H 0.9588 0.15555 0.55674 0.0
H391 H 0.9052 0.20556 0.59871 0.0
H392 H 0.89304 0.15054 0.71258 0.0
H393 H 0.01364 0.20275 0.43017 0.0
H394 H 0.87391 0.1356 0.49579 0.0
H395 H 0.92746 0.11119 0.53457 0.0
C396 C 0.92841 0.50831 0.49825 0.0
C397 C 0.94414 0.50058 0.51954 0.0
N398 N 0.96673 0.51299 0.49499 0.0
N399 N 0.94093 0.5255 0.46034 0.0
C400 C 0.96433 0.52805 0.45916 0.0
H401 H 0.90875 0.50128 0.50867 0.0
Co402 Co 0.92419 0.53791 0.42024 0.0
C403 C 0.95863 0.56246 0.32582 0.0
O404 O 0.9382 0.55104 0.29659 0.0
N405 N 0.90554 0.55013 0.38257 0.0
C406 C 0.89515 0.57767 0.34875 0.0
C407 C 0.91487 0.57366 0.36173 0.0
C408 C 0.87996 0.5407 0.38361 0.0
N409 N 0.87323 0.55691 0.36249 0.0
O410 O 0.93367 0.56525 0.47132 0.0
H411 H 0.93481 0.58792 0.35988 0.0
H412 H 0.86662 0.52327 0.40314 0.0
O413 O 0.95604 0.5594 0.37577 0.0
C414 C 0.91664 0.5587 0.50683 0.0
O415 O 0.89533 0.53696 0.50166 0.0
N416 N 0.91333 0.50883 0.37653 0.0
C417 C 0.89958 0.45829 0.35333 0.0
C418 C 0.92345 0.47845 0.33917 0.0
C419 C 0.93016 0.50347 0.35195 0.0
C420 C 0.88945 0.48935 0.38798 0.0
C421 C 0.88219 0.46396 0.37676 0.0
H422 H 0.94988 0.5177 0.34762 0.0
H423 H 0.87697 0.49293 0.4118 0.0
H424 H 0.97884 0.53971 0.4311 0.0
H425 H 0.93925 0.48667 0.55032 0.0
H426 H 0.89684 0.59515 0.33373 0.0
H427 H 0.93774 0.47471 0.32297 0.0
H428 H 0.86389 0.44878 0.39006 0.0
C429 C 0.50053 0.42175 0.50333 0.0
C430 C 0.50742 0.4439 0.52952 0.0
N431 N 0.49655 0.45582 0.50563 0.0
N432 N 0.48521 0.41952 0.46336 0.0
C433 C 0.48272 0.4404 0.46619 0.0
H434 H 0.50693 0.4084 0.51186 0.0
Co435 Co 0.47496 0.39281 0.41727 0.0
C436 C 0.45503 0.40779 0.32369 0.0
O437 O 0.47048 0.40307 0.29629 0.0
N438 N 0.46462 0.36401 0.3735 0.0
C439 C 0.43987 0.32882 0.32792 0.0
C440 C 0.44322 0.35185 0.34453 0.0
C441 C 0.47316 0.34715 0.37573 0.0
N442 N 0.45857 0.32576 0.34806 0.0
O443 O 0.44653 0.37188 0.46471 0.0
H444 H 0.42952 0.35804 0.3392 0.0
H445 H 0.48873 0.34959 0.40004 0.0
O446 O 0.45393 0.40434 0.37364 0.0
C447 C 0.4525 0.35943 0.49673 0.0
O448 O 0.47415 0.35992 0.48974 0.0
N449 N 0.50527 0.41396 0.37738 0.0
C450 C 0.556 0.45119 0.35379 0.0
C451 C 0.53618 0.45666 0.35018 0.0
C452 C 0.51123 0.43806 0.36251 0.0
C453 C 0.52419 0.408 0.37917 0.0
C454 C 0.54951 0.42612 0.36679 0.0
H455 H 0.49722 0.44398 0.36412 0.0
H456 H 0.52033 0.38986 0.39441 0.0
H457 H 0.4722 0.44495 0.43836 0.0
H458 H 0.51984 0.45093 0.56297 0.0
H459 H 0.42381 0.31452 0.30619 0.0
H460 H 0.5401 0.47577 0.34142 0.0
H461 H 0.564 0.42075 0.36963 0.0
C462 C 0.59557 0.08713 0.50416 0.0
C463 C 0.57242 0.07118 0.52659 0.0
N464 N 0.56106 0.04937 0.49925 0.0
N465 N 0.59893 0.07552 0.46284 0.0
C466 C 0.57761 0.05244 0.4608 0.0
H467 H 0.60888 0.10633 0.51632 0.0
Co468 Co 0.62734 0.09269 0.4207 0.0
C469 C 0.61747 0.05837 0.32756 0.0
O470 O 0.62558 0.0788 0.2983 0.0
N471 N 0.6576 0.11165 0.38104 0.0
C472 C 0.6958 0.12205 0.34894 0.0
C473 C 0.67211 0.10231 0.36221 0.0
C474 C 0.67346 0.13732 0.38017 0.0
N475 N 0.69659 0.14404 0.36012 0.0
O476 O 0.64638 0.08428 0.47063 0.0
H477 H 0.66679 0.08243 0.36261 0.0
H478 H 0.66922 0.15077 0.39847 0.0
O479 O 0.61732 0.06081 0.37752 0.0
C480 C 0.65815 0.10213 0.50383 0.0
O481 O 0.65812 0.12359 0.49727 0.0
N482 N 0.60785 0.10236 0.37765 0.0
C483 C 0.56981 0.1145 0.3554 0.0
C484 C 0.56623 0.09039 0.34397 0.0
C485 C 0.58529 0.08463 0.35564 0.0
C486 C 0.61207 0.12639 0.38641 0.0
C487 C 0.59347 0.13298 0.37487 0.0
H488 H 0.58029 0.06499 0.35236 0.0
H489 H 0.6286 0.13977 0.40796 0.0
H490 H 0.57376 0.03877 0.43025 0.0
H491 H 0.56441 0.07547 0.56004 0.0
H492 H 0.71185 0.12038 0.33581 0.0
H493 H 0.54806 0.07548 0.32969 0.0
H494 H 0.59673 0.15166 0.3854 0.0
C495 C 0.85355 0.59907 0.7033 0.0
C496 C 0.84601 0.61494 0.68204 0.0
N497 N 0.85468 0.63556 0.71254 0.0
N498 N 0.86721 0.60969 0.74673 0.0
C499 C 0.86778 0.63218 0.75126 0.0
H500 H 0.8479 0.58014 0.68975 0.0
Co501 Co 0.87396 0.58988 0.79171 0.0
C502 C 0.89975 0.62386 0.88716 0.0
O503 O 0.88684 0.60398 0.91724 0.0
N504 N 0.87924 0.56701 0.83585 0.0
C505 C 0.86925 0.53488 0.89138 0.0
C506 C 0.86515 0.55445 0.8781 0.0
C507 C 0.89192 0.5543 0.82481 0.0
N508 N 0.88582 0.53436 0.85742 0.0
O509 O 0.90263 0.59589 0.74605 0.0
H510 H 0.85139 0.55806 0.89702 0.0
H511 H 0.90483 0.559 0.79249 0.0
O512 O 0.8969 0.62114 0.83727 0.0
C513 C 0.89592 0.57915 0.70992 0.0
O514 O 0.87332 0.55869 0.7129 0.0
N515 N 0.84386 0.58273 0.82808 0.0
C516 C 0.79415 0.57258 0.84895 0.0
C517 C 0.81549 0.59471 0.8678 0.0
C518 C 0.84009 0.59974 0.85589 0.0
C519 C 0.82342 0.56056 0.81159 0.0
C520 C 0.79849 0.55516 0.82127 0.0
H521 H 0.85571 0.61824 0.86544 0.0
H522 H 0.82652 0.54783 0.78726 0.0
H523 H 0.87581 0.64484 0.78415 0.0
H524 H 0.83424 0.61121 0.6479 0.0
H525 H 0.85938 0.52102 0.92184 0.0
H526 H 0.81328 0.60886 0.8891 0.0
H527 H 0.78294 0.53831 0.80402 0.0
C528 C 0.42922 0.25927 0.70683 0.0
C529 C 0.41445 0.23577 0.68515 0.0
N530 N 0.39172 0.22469 0.70909 0.0
N531 N 0.41584 0.26321 0.74392 0.0
C532 C 0.39286 0.2418 0.74406 0.0
H533 H 0.44905 0.27207 0.69809 0.0
Co534 Co 0.43185 0.29092 0.78801 0.0
C535 C 0.3898 0.28941 0.85848 0.0
O536 O 0.40052 0.31433 0.85701 0.0
N537 N 0.45034 0.31966 0.83092 0.0
C538 C 0.47038 0.34491 0.89812 0.0
C539 C 0.4513 0.32104 0.8833 0.0
C540 C 0.46932 0.34279 0.81502 0.0
N541 N 0.48177 0.35866 0.85502 0.0
O542 O 0.42261 0.3105 0.73965 0.0
H543 H 0.43954 0.3054 0.90914 0.0
H544 H 0.47501 0.34743 0.77494 0.0
O545 O 0.39966 0.27865 0.83142 0.0
C546 C 0.4377 0.31931 0.70035 0.0
O547 O 0.45815 0.31714 0.7003 0.0
N548 N 0.44203 0.27144 0.82897 0.0
C549 C 0.45333 0.23279 0.85071 0.0
C550 C 0.43154 0.23191 0.87165 0.0
C551 C 0.42612 0.25135 0.86013 0.0
C552 C 0.46444 0.27377 0.81243 0.0
C553 C 0.47034 0.25455 0.82234 0.0
H554 H 0.40812 0.24887 0.87293 0.0
H555 H 0.47662 0.28937 0.78686 0.0
H556 H 0.37777 0.23818 0.77085 0.0
H557 H 0.42019 0.22722 0.65505 0.0
H558 H 0.47576 0.35143 0.93768 0.0
H559 H 0.41775 0.21536 0.89328 0.0
H560 H 0.48738 0.25603 0.80549 0.0
C561 C 0.76198 0.17275 0.70992 0.0
C562 C 0.78446 0.17888 0.68611 0.0
N563 N 0.79367 0.16512 0.70847 0.0
N564 N 0.75677 0.15506 0.74709 0.0
C565 C 0.77651 0.15069 0.74539 0.0
H566 H 0.75077 0.18174 0.7025 0.0
Co567 Co 0.7295 0.14663 0.79114 0.0
C568 C 0.73943 0.12124 0.88567 0.0
O569 O 0.73478 0.13546 0.91674 0.0
N570 N 0.70064 0.13972 0.83374 0.0
C571 C 0.67674 0.14503 0.89281 0.0
C572 C 0.70073 0.14995 0.88044 0.0
C573 C 0.67602 0.12945 0.81804 0.0
N574 N 0.66099 0.13245 0.85313 0.0
O575 O 0.7081 0.11832 0.74415 0.0
H576 H 0.71746 0.16246 0.90265 0.0
H577 H 0.66971 0.1219 0.77972 0.0
O578 O 0.73798 0.12343 0.83586 0.0
C579 C 0.7003 0.12563 0.7049 0.0
O580 O 0.70391 0.14886 0.70484 0.0
N581 N 0.75127 0.17612 0.82984 0.0
C582 C 0.79073 0.22582 0.85043 0.0
C583 C 0.79265 0.2045 0.86505 0.0
C584 C 0.77322 0.18 0.85272 0.0
C585 C 0.74819 0.19642 0.81873 0.0
C586 C 0.76773 0.22142 0.82815 0.0
H587 H 0.77719 0.16468 0.85698 0.0
H588 H 0.73144 0.19335 0.79778 0.0
H589 H 0.7791 0.13855 0.77266 0.0
H590 H 0.79377 0.19298 0.65574 0.0
H591 H 0.67179 0.15164 0.9275 0.0
H592 H 0.80989 0.20671 0.88237 0.0
H593 H 0.76543 0.23699 0.81424 0.0
C594 C 0.42584 0.16798 0.18523 0.0
C595 C 0.40928 0.17397 0.16167 0.0
N596 N 0.38915 0.16655 0.19331 0.0
N597 N 0.41612 0.15646 0.23129 0.0
C598 C 0.39382 0.1562 0.23555 0.0
H599 H 0.44444 0.17298 0.17066 0.0
Co600 Co 0.4343 0.14807 0.27754 0.0
C601 C 0.39495 0.1091 0.35262 0.0
O602 O 0.40635 0.09554 0.35224 0.0
N603 N 0.4543 0.14068 0.32312 0.0
C604 C 0.47343 0.13663 0.39359 0.0
C605 C 0.45504 0.14176 0.37563 0.0
C606 C 0.47299 0.1356 0.31026 0.0
N607 N 0.48472 0.13281 0.35229 0.0
O608 O 0.42553 0.11785 0.2349 0.0
H609 H 0.4432 0.14633 0.39947 0.0
H610 H 0.47826 0.13413 0.27093 0.0
O611 O 0.40339 0.12884 0.32308 0.0
C612 C 0.44087 0.12254 0.19669 0.0
O613 O 0.46157 0.14497 0.19416 0.0
N614 N 0.44386 0.17881 0.31313 0.0
C615 C 0.45471 0.22844 0.33559 0.0
C616 C 0.43509 0.20743 0.3618 0.0
C617 C 0.42984 0.1827 0.34984 0.0
C618 C 0.46412 0.1991 0.29012 0.0
C619 C 0.46975 0.22404 0.30043 0.0
H620 H 0.41358 0.16689 0.36806 0.0
H621 H 0.47479 0.19577 0.26053 0.0
H622 H 0.3817 0.1495 0.26956 0.0
H623 H 0.41248 0.18436 0.12554 0.0
H624 H 0.47862 0.13649 0.43381 0.0
H625 H 0.42282 0.20994 0.38878 0.0
H626 H 0.48508 0.2397 0.27937 0.0
C627 C 0.84951 0.26014 0.20175 0.0
C628 C 0.84219 0.23695 0.17947 0.0
N629 N 0.85291 0.22573 0.2065 0.0
N630 N 0.8649 0.26361 0.24237 0.0
C631 C 0.86692 0.24245 0.24405 0.0
H632 H 0.84339 0.27339 0.19017 0.0
Co633 Co 0.87618 0.29172 0.28468 0.0
C634 C 0.89797 0.27992 0.38008 0.0
O635 O 0.88531 0.2881 0.40775 0.0
N636 N 0.88762 0.3218 0.3248 0.0
C637 C 0.91437 0.35836 0.36398 0.0
C638 C 0.91057 0.3351 0.34805 0.0
C639 C 0.87848 0.3382 0.32493 0.0
N640 N 0.8942 0.36038 0.34933 0.0
O641 O 0.90458 0.31061 0.23583 0.0
H642 H 0.92468 0.32923 0.34987 0.0
H643 H 0.86158 0.33486 0.3044 0.0
O644 O 0.89667 0.28047 0.32985 0.0
C645 C 0.90041 0.32383 0.20237 0.0
O646 O 0.87991 0.3257 0.20785 0.0
N647 N 0.84616 0.2723 0.32634 0.0
C648 C 0.79545 0.23541 0.35076 0.0
C649 C 0.81556 0.2309 0.36054 0.0
C650 C 0.84051 0.24926 0.34751 0.0
C651 C 0.82691 0.27745 0.3187 0.0
C652 C 0.80156 0.25949 0.33124 0.0
H653 H 0.85458 0.24345 0.34962 0.0
H654 H 0.83059 0.29446 0.2981 0.0
H655 H 0.87791 0.2391 0.27285 0.0
H656 H 0.82913 0.2285 0.14729 0.0
H657 H 0.93156 0.37345 0.38132 0.0
H658 H 0.81187 0.21244 0.37421 0.0
H659 H 0.78675 0.26399 0.32311 0.0
C660 C 0.75988 0.59279 0.20914 0.0
C661 C 0.78337 0.60813 0.18737 0.0
N662 N 0.79442 0.63057 0.21253 0.0
N663 N 0.75604 0.60548 0.24769 0.0
C664 C 0.77731 0.62859 0.24867 0.0
H665 H 0.74659 0.57331 0.19851 0.0
Co666 Co 0.72714 0.58949 0.28834 0.0
C667 C 0.73733 0.62362 0.38206 0.0
O668 O 0.72727 0.60288 0.41083 0.0
N669 N 0.69636 0.57176 0.3267 0.0
C670 C 0.65802 0.56347 0.35373 0.0
C671 C 0.68236 0.5823 0.34193 0.0
C672 C 0.67969 0.54627 0.32878 0.0
N673 N 0.65635 0.54082 0.34553 0.0
O674 O 0.70977 0.59975 0.23738 0.0
H675 H 0.68862 0.60239 0.33971 0.0
H676 H 0.68356 0.53206 0.31308 0.0
O677 O 0.73836 0.6214 0.33219 0.0
C678 C 0.69626 0.58232 0.20445 0.0
O679 O 0.69349 0.55959 0.21097 0.0
N680 N 0.74508 0.57815 0.33221 0.0
C681 C 0.78161 0.5639 0.35599 0.0
C682 C 0.78567 0.58807 0.3689 0.0
C683 C 0.76753 0.59497 0.35591 0.0
C684 C 0.74021 0.554 0.32214 0.0
C685 C 0.75807 0.54643 0.33403 0.0
H686 H 0.77332 0.61481 0.35955 0.0
H687 H 0.72377 0.54133 0.29945 0.0
H688 H 0.78025 0.64349 0.27557 0.0
H689 H 0.79199 0.60292 0.15646 0.0
H690 H 0.64221 0.56618 0.36376 0.0
H691 H 0.80378 0.60243 0.38453 0.0
H692 H 0.75409 0.52756 0.32314 0.0
C693 C 0.50327 0.08478 0.9941 0.0
C694 C 0.5099 0.06941 0.02081 0.0
N695 N 0.49765 0.04615 0.99924 0.0
N696 N 0.48683 0.07136 0.95587 0.0
C697 C 0.48369 0.04772 0.95991 0.0
H698 H 0.51077 0.10487 1.00079 0.0
Co699 Co 0.47579 0.08804 0.91143 0.0
C700 C 0.45535 0.0544 0.81725 0.0
O701 O 0.46984 0.07543 0.79106 0.0
N702 N 0.46483 0.10703 0.87028 0.0
C703 C 0.43989 0.11842 0.8279 0.0
C704 C 0.44349 0.09844 0.84128 0.0
C705 C 0.47297 0.13226 0.87601 0.0
N706 N 0.45833 0.13965 0.85019 0.0
O707 O 0.44791 0.07976 0.96031 0.0
H708 H 0.43 0.07866 0.83374 0.0
H709 H 0.48833 0.14474 0.90148 0.0
O710 O 0.45462 0.05583 0.86744 0.0
C711 C 0.4545 0.09727 0.9946 0.0
O712 O 0.47641 0.11832 0.98879 0.0
N713 N 0.50543 0.0975 0.86926 0.0
C714 C 0.55586 0.11098 0.84353 0.0
C715 C 0.53624 0.0855 0.84324 0.0
C716 C 0.51136 0.07924 0.85558 0.0
C717 C 0.52402 0.12251 0.86748 0.0
C718 C 0.54914 0.12966 0.85382 0.0
H719 H 0.49747 0.05929 0.85901 0.0
H720 H 0.52015 0.13704 0.88086 0.0
H721 H 0.47227 0.03229 0.93351 0.0
H722 H 0.52382 0.07525 0.05167 0.0
H723 H 0.42383 0.11712 0.80686 0.0
H724 H 0.54018 0.07012 0.8379 0.0
H725 H 0.56348 0.14965 0.85455 0.0
C726 C 0.93193 0.42262 0.99724 0.0
C727 C 0.9464 0.44471 0.02414 0.0
N728 N 0.97005 0.4561 1.00424 0.0
N729 N 0.94635 0.42015 0.96044 0.0
C730 C 0.96964 0.44078 0.96575 0.0
H731 H 0.91181 0.4096 1.00264 0.0
Co732 Co 0.9314 0.39372 0.91424 0.0
C733 C 0.96715 0.40969 0.82188 0.0
O734 O 0.94697 0.40432 0.79388 0.0
N735 N 0.91414 0.36506 0.87032 0.0
C736 C 0.90489 0.33034 0.82487 0.0
C737 C 0.92393 0.3538 0.84037 0.0
C738 C 0.88913 0.34724 0.8743 0.0
N739 N 0.88285 0.32577 0.84697 0.0
O740 O 0.93956 0.37347 0.96225 0.0
H741 H 0.94389 0.3608 0.83374 0.0
H742 H 0.87646 0.34905 0.90112 0.0
O743 O 0.96451 0.40634 0.87184 0.0
C744 C 0.9218 0.36122 0.99574 0.0
O745 O 0.9003 0.36117 0.99004 0.0
N746 N 0.92179 0.41432 0.87389 0.0
C747 C 0.90781 0.45129 0.85315 0.0
C748 C 0.93293 0.45692 0.8468 0.0
C749 C 0.93963 0.43851 0.85854 0.0
C750 C 0.89691 0.40821 0.87776 0.0
C751 C 0.88954 0.42643 0.86787 0.0
H752 H 0.95965 0.44479 0.86002 0.0
H753 H 0.88303 0.39 0.89368 0.0
H754 H 0.98545 0.44527 0.93997 0.0
H755 H 0.93988 0.45225 0.05486 0.0
H756 H 0.90764 0.31708 0.80161 0.0
H757 H 0.94772 0.47612 0.83723 0.0
H758 H 0.86999 0.42154 0.87451 0.0
C759 C 0.59573 0.51615 1.00415 0.0
C760 C 0.5737 0.50959 0.0307 0.0
N761 N 0.5626 0.52166 1.00832 0.0
N762 N 0.59851 0.5322 0.96513 0.0
C763 C 0.57813 0.53542 0.96877 0.0
H764 H 0.60859 0.50905 1.01173 0.0
Co765 Co 0.62526 0.54341 0.91895 0.0
C766 C 0.60957 0.56358 0.82662 0.0
O767 O 0.61577 0.5496 0.79787 0.0
N768 N 0.6542 0.55493 0.87498 0.0
C769 C 0.68924 0.58166 0.83119 0.0
C770 C 0.66554 0.57659 0.84653 0.0
C771 C 0.67224 0.54796 0.87816 0.0
N772 N 0.69389 0.56395 0.85181 0.0
O773 O 0.64541 0.5718 0.96651 0.0
H774 H 0.6584 0.58953 0.8411 0.0
H775 H 0.67048 0.53305 0.90385 0.0
O776 O 0.61264 0.56373 0.87652 0.0
C777 C 0.65783 0.56619 0.99925 0.0
O778 O 0.65768 0.54463 0.9933 0.0
N779 N 0.60482 0.51324 0.87866 0.0
C780 C 0.56802 0.46234 0.85589 0.0
C781 C 0.56233 0.48198 0.85166 0.0
C782 C 0.5807 0.50701 0.86369 0.0
C783 C 0.61102 0.49449 0.88117 0.0
C784 C 0.59297 0.46898 0.86989 0.0
H785 H 0.57443 0.52076 0.86561 0.0
H786 H 0.62927 0.49873 0.89643 0.0
H787 H 0.574 0.54635 0.94119 0.0
H788 H 0.56607 0.49643 0.06311 0.0
H789 H 0.70262 0.59823 0.80917 0.0
H790 H 0.54316 0.47782 0.84318 0.0
H791 H 0.59817 0.45441 0.87451 0.0
C792 C 0.59462 0.84432 0.83762 0.0
C793 C 0.60912 0.83528 0.85978 0.0
N794 N 0.63093 0.84469 0.83261 0.0
N795 N 0.60732 0.85952 0.79704 0.0
C796 C 0.62958 0.85964 0.79519 0.0
H797 H 0.57557 0.83942 0.84916 0.0
Co798 Co 0.59223 0.87273 0.75471 0.0
C799 C 0.62668 0.89525 0.66133 0.0
O800 O 0.60589 0.88373 0.63312 0.0
N801 N 0.57545 0.88618 0.71472 0.0
C802 C 0.56805 0.91509 0.67724 0.0
C803 C 0.58645 0.91002 0.69466 0.0
C804 C 0.55014 0.87775 0.7115 0.0
N805 N 0.54524 0.89482 0.68805 0.0
O806 O 0.60218 0.90035 0.80497 0.0
H807 H 0.60658 0.92369 0.69583 0.0
H808 H 0.53557 0.86028 0.72899 0.0
O809 O 0.62462 0.89302 0.71147 0.0
C810 C 0.58449 0.89557 0.83796 0.0
O811 O 0.56206 0.87538 0.8305 0.0
N812 N 0.58104 0.84331 0.71136 0.0
C813 C 0.56618 0.79258 0.68535 0.0
C814 C 0.59093 0.81246 0.67562 0.0
C815 C 0.59805 0.83739 0.68952 0.0
C816 C 0.55648 0.82432 0.71887 0.0
C817 C 0.54858 0.79893 0.70566 0.0
H818 H 0.61805 0.85108 0.68772 0.0
H819 H 0.54347 0.8282 0.74004 0.0
H820 H 0.64417 0.86986 0.76626 0.0
H821 H 0.60364 0.82193 0.89184 0.0
H822 H 0.57114 0.93296 0.6613 0.0
H823 H 0.60544 0.80854 0.66148 0.0
H824 H 0.52921 0.78426 0.71392 0.0
C825 C 0.17321 0.75807 0.8368 0.0
C826 C 0.18008 0.78118 0.85876 0.0
N827 N 0.16748 0.79106 0.83398 0.0
N828 N 0.15634 0.75333 0.79829 0.0
C829 C 0.15313 0.77378 0.79765 0.0
H830 H 0.18106 0.74608 0.84672 0.0
Co831 Co 0.14543 0.72585 0.75369 0.0
C832 C 0.105 0.7285 0.6842 0.0
O833 O 0.08923 0.70387 0.688 0.0
N834 N 0.13556 0.69767 0.70971 0.0
C835 C 0.12777 0.67281 0.64052 0.0
C836 C 0.13299 0.69649 0.65745 0.0
C837 C 0.13254 0.67471 0.72333 0.0
N838 N 0.12774 0.65923 0.68202 0.0
O839 O 0.11661 0.70566 0.80165 0.0
H840 H 0.13548 0.71208 0.6329 0.0
H841 H 0.13415 0.66943 0.76267 0.0
O842 O 0.12599 0.73838 0.70988 0.0
C843 C 0.12371 0.69691 0.83984 0.0
O844 O 0.14666 0.6999 0.83833 0.0
N845 N 0.1752 0.74548 0.71371 0.0
C846 C 0.22485 0.78376 0.68877 0.0
C847 C 0.20369 0.78258 0.6637 0.0
C848 C 0.17898 0.76339 0.67697 0.0
C849 C 0.19549 0.74471 0.73417 0.0
C850 C 0.2204 0.76374 0.72274 0.0
H851 H 0.16316 0.76391 0.65937 0.0
H852 H 0.1923 0.7305 0.7633 0.0
H853 H 0.14161 0.77663 0.76957 0.0
H854 H 0.19384 0.79038 0.88953 0.0
H855 H 0.12514 0.66637 0.60058 0.0
H856 H 0.20608 0.79685 0.63538 0.0
H857 H 0.23594 0.76356 0.74303 0.0
C858 C 0.26347 0.41865 0.83289 0.0
C859 C 0.24089 0.4023 0.85687 0.0
N860 N 0.2291 0.38095 0.82827 0.0
N861 N 0.26594 0.40761 0.78957 0.0
C862 C 0.24459 0.38462 0.78749 0.0
H863 H 0.27708 0.43769 0.84551 0.0
Co864 Co 0.29366 0.4249 0.74664 0.0
C865 C 0.28286 0.3914 0.65138 0.0
O866 O 0.29099 0.41219 0.6233 0.0
N867 N 0.3234 0.44407 0.70583 0.0
C868 C 0.36047 0.45487 0.6677 0.0
C869 C 0.33744 0.43498 0.68369 0.0
C870 C 0.33903 0.46976 0.70477 0.0
N871 N 0.36155 0.4768 0.68115 0.0
O872 O 0.31307 0.41575 0.79453 0.0
H873 H 0.33226 0.41514 0.68292 0.0
H874 H 0.33488 0.48304 0.72422 0.0
O875 O 0.28285 0.3933 0.70152 0.0
C876 C 0.32601 0.43341 0.82748 0.0
O877 O 0.32732 0.45554 0.82134 0.0
N878 N 0.27385 0.4353 0.70644 0.0
C879 C 0.23652 0.44873 0.68567 0.0
C880 C 0.23316 0.42519 0.66988 0.0
C881 C 0.25166 0.41858 0.68174 0.0
C882 C 0.27777 0.45876 0.72009 0.0
C883 C 0.25938 0.46582 0.71025 0.0
H884 H 0.24651 0.39903 0.67575 0.0
H885 H 0.29396 0.4711 0.7438 0.0
H886 H 0.2402 0.37107 0.75637 0.0
H887 H 0.23322 0.4062 0.8914 0.0
H888 H 0.37607 0.4533 0.65138 0.0
H889 H 0.21537 0.41112 0.65251 0.0
H890 H 0.2624 0.48394 0.72432 0.0
C891 C 0.52298 0.93307 0.03628 0.0
C892 C 0.51609 0.94881 1.01209 0.0
N893 N 0.52503 0.97023 0.04026 0.0
N894 N 0.5366 0.9445 0.07923 0.0
C895 C 0.53769 0.96732 0.08067 0.0
H896 H 0.517 0.91374 0.02496 0.0
Co897 Co 0.54352 0.92522 0.12533 0.0
C898 C 0.5701 0.95883 0.21911 0.0
O899 O 0.55817 0.93833 0.24785 0.0
N900 N 0.54903 0.90264 0.17016 0.0
C901 C 0.53999 0.87084 0.22606 0.0
C902 C 0.53467 0.88946 0.21173 0.0
C903 C 0.56299 0.89112 0.1604 0.0
N904 N 0.55753 0.87148 0.19328 0.0
O905 O 0.5717 0.93057 0.07917 0.0
H906 H 0.5203 0.89232 0.23008 0.0
H907 H 0.57637 0.89635 0.12877 0.0
O908 O 0.56675 0.95666 0.16929 0.0
C909 C 0.56525 0.91329 0.04435 0.0
O910 O 0.54304 0.89242 0.0487 0.0
N911 N 0.51414 0.9193 0.16307 0.0
C912 C 0.4656 0.91164 0.18455 0.0
C913 C 0.48736 0.93457 0.1977 0.0
C914 C 0.51147 0.93807 0.1866 0.0
C915 C 0.49307 0.89655 0.1516 0.0
C916 C 0.46862 0.89215 0.16287 0.0
H917 H 0.52756 0.95679 0.19261 0.0
H918 H 0.49521 0.88229 0.1306 0.0
H919 H 0.54648 0.9809 0.11183 0.0
H920 H 0.50396 0.94416 0.97827 0.0
H921 H 0.53043 0.85679 0.25639 0.0
H922 H 0.48572 0.95019 0.21371 0.0
H923 H 0.4522 0.87433 0.15134 0.0
C924 C 0.08705 0.59187 0.03589 0.0
C925 C 0.07105 0.56905 1.01302 0.0
N926 N 0.04953 0.55757 0.0412 0.0
N927 N 0.07558 0.59501 0.07787 0.0
C928 C 0.05245 0.5738 0.0799 0.0
H929 H 0.10662 0.60437 0.02492 0.0
Co930 Co 0.09462 0.6208 0.12393 0.0
C931 C 0.05868 0.60838 0.21917 0.0
O932 O 0.07688 0.6101 0.24895 0.0
N933 N 0.11672 0.64825 0.16899 0.0
C934 C 0.1446 0.66961 0.23188 0.0
C935 C 0.12528 0.64642 0.21642 0.0
C936 C 0.13254 0.67308 0.1558 0.0
N937 N 0.15008 0.68643 0.19293 0.0
O938 O 0.0886 0.64399 0.07896 0.0
H939 H 0.12018 0.629 0.23698 0.0
H940 H 0.13259 0.68093 0.11814 0.0
O941 O 0.06272 0.6117 0.16945 0.0
C942 C 0.10416 0.65321 0.04038 0.0
O943 O 0.12417 0.65029 0.04003 0.0
N944 N 0.10183 0.59764 0.15976 0.0
C945 C 0.11385 0.55943 0.1804 0.0
C946 C 0.08985 0.5559 0.19307 0.0
C947 C 0.08402 0.57501 0.18149 0.0
C948 C 0.12559 0.60167 0.14898 0.0
C949 C 0.13198 0.58281 0.15882 0.0
H950 H 0.06461 0.5706 0.18639 0.0
H951 H 0.13915 0.61901 0.12929 0.0
H952 H 0.039 0.5693 0.11135 0.0
H953 H 0.0754 0.56083 0.98002 0.0
H954 H 0.15431 0.67309 0.26867 0.0
H955 H 0.0751 0.5378 0.20826 0.0
H956 H 0.15058 0.58607 0.14763 0.0
C957 C 0.425 0.50073 0.02706 0.0
C958 C 0.44888 0.50916 1.00741 0.0
N959 N 0.4609 0.50102 0.0392 0.0
N960 N 0.42176 0.48694 0.07061 0.0
C961 C 0.44406 0.48739 0.07697 0.0
H962 H 0.41156 0.50587 1.01217 0.0
Co963 Co 0.39446 0.47746 0.11521 0.0
C964 C 0.395 0.43778 0.18977 0.0
O965 O 0.37006 0.42398 0.18995 0.0
N966 N 0.36641 0.46921 0.15933 0.0
C967 C 0.3428 0.46569 0.22859 0.0
C968 C 0.36608 0.46968 0.21178 0.0
C969 C 0.3432 0.46537 0.14536 0.0
N970 N 0.32846 0.46331 0.18663 0.0
O971 O 0.37368 0.44809 0.06976 0.0
H972 H 0.38197 0.47326 0.23639 0.0
H973 H 0.3374 0.46517 0.10567 0.0
O974 O 0.40588 0.45762 0.16035 0.0
C975 C 0.36408 0.45417 0.03159 0.0
O976 O 0.36641 0.47688 0.03149 0.0
N977 N 0.41498 0.5076 0.15292 0.0
C978 C 0.45494 0.55718 0.17079 0.0
C979 C 0.45423 0.53621 0.1959 0.0
C980 C 0.43413 0.51152 0.1863 0.0
C981 C 0.4141 0.52787 0.13225 0.0
C982 C 0.43389 0.5528 0.14057 0.0
H983 H 0.4352 0.49574 0.20292 0.0
H984 H 0.39915 0.52452 0.10507 0.0
H985 H 0.44858 0.47951 0.11034 0.0
H986 H 0.45704 0.521 0.97327 0.0
H987 H 0.33703 0.46468 0.26873 0.0
H988 H 0.46966 0.53874 0.22091 0.0
H989 H 0.43351 0.56834 0.1205 0.0
C990 C 0.08811 0.49972 0.5228 0.0
C991 C 0.07172 0.50614 0.49995 0.0
N992 N 0.05041 0.49618 0.52881 0.0
N993 N 0.07715 0.48543 0.56555 0.0
C994 C 0.05395 0.48341 0.56808 0.0
H995 H 0.10749 0.50651 0.51067 0.0
Co996 Co 0.09631 0.47813 0.61147 0.0
C997 C 0.06007 0.44169 0.69559 0.0
O998 O 0.07549 0.43306 0.70678 0.0
N999 N 0.11789 0.4722 0.6564 0.0
C1000 C 0.14459 0.4775 0.72091 0.0
C1001 C 0.12466 0.48072 0.70551 0.0
C1002 C 0.13396 0.46358 0.64338 0.0
N1003 N 0.15078 0.46692 0.68158 0.0
O1004 O 0.08921 0.4486 0.56785 0.0
H1005 H 0.11639 0.48977 0.72817 0.0
H1006 H 0.13352 0.45526 0.60628 0.0
O1007 O 0.06562 0.45748 0.65757 0.0
C1008 C 0.10471 0.45471 0.52939 0.0
O1009 O 0.12475 0.47766 0.52833 0.0
N1010 N 0.104 0.50836 0.64776 0.0
C1011 C 0.11401 0.55759 0.67122 0.0
C1012 C 0.09066 0.53627 0.68447 0.0
C1013 C 0.08605 0.51181 0.67277 0.0
C1014 C 0.12729 0.52883 0.63677 0.0
C1015 C 0.1328 0.55365 0.64865 0.0
H1016 H 0.06728 0.49601 0.68045 0.0
H1017 H 0.14109 0.52602 0.6156 0.0
H1018 H 0.0407 0.47442 0.59984 0.0
H1019 H 0.07554 0.51802 0.46583 0.0
H1020 H 0.15449 0.48368 0.75763 0.0
H1021 H 0.07566 0.53858 0.70176 0.0
H1022 H 0.15098 0.56967 0.63725 0.0
C1023 C 0.51013 0.59032 0.539 0.0
C1024 C 0.50193 0.56656 0.51885 0.0
N1025 N 0.51322 0.55581 0.54551 0.0
N1026 N 0.52644 0.59452 0.57827 0.0
C1027 C 0.52802 0.57315 0.58146 0.0
H1028 H 0.50421 0.60361 0.5266 0.0
Co1029 Co 0.53917 0.62385 0.61701 0.0
C1030 C 0.56297 0.61536 0.7131 0.0
O1031 O 0.55251 0.62631 0.73942 0.0
N1032 N 0.55186 0.65495 0.65346 0.0
C1033 C 0.58077 0.69371 0.68062 0.0
C1034 C 0.57639 0.66983 0.66788 0.0
C1035 C 0.5419 0.67059 0.6568 0.0
N1036 N 0.55905 0.69411 0.6738 0.0
O1037 O 0.56708 0.64065 0.56655 0.0
H1038 H 0.59078 0.66435 0.66529 0.0
H1039 H 0.52327 0.66576 0.64272 0.0
O1040 O 0.55956 0.61305 0.66331 0.0
C1041 C 0.5626 0.65307 0.53175 0.0
O1042 O 0.54221 0.65516 0.53687 0.0
N1043 N 0.50962 0.60661 0.65988 0.0
C1044 C 0.45864 0.57013 0.68034 0.0
C1045 C 0.47843 0.56696 0.6995 0.0
C1046 C 0.50371 0.58507 0.68796 0.0
C1047 C 0.49045 0.61061 0.64375 0.0
C1048 C 0.46486 0.59262 0.65345 0.0
H1049 H 0.51779 0.57974 0.69624 0.0
H1050 H 0.49466 0.6261 0.61734 0.0
H1051 H 0.53895 0.56996 0.61068 0.0
H1052 H 0.48866 0.55781 0.48712 0.0
H1053 H 0.59892 0.71005 0.69069 0.0
H1054 H 0.47432 0.54935 0.71863 0.0
H1055 H 0.45004 0.5953 0.63644 0.0
C1056 C 0.42251 0.9325 0.51789 0.0
C1057 C 0.44567 0.94868 0.49584 0.0
N1058 N 0.45891 0.96776 0.52938 0.0
N1059 N 0.42085 0.94148 0.56483 0.0
C1060 C 0.44348 0.9631 0.57082 0.0
H1061 H 0.40834 0.91461 0.50151 0.0
Co1062 Co 0.39433 0.92236 0.611 0.0
C1063 C 0.3963 0.95876 0.69744 0.0
O1064 O 0.37403 0.9418 0.71612 0.0
N1065 N 0.36673 0.9009 0.65664 0.0
C1066 C 0.34543 0.8725 0.71951 0.0
C1067 C 0.36881 0.89196 0.70368 0.0
C1068 C 0.34147 0.88664 0.64566 0.0
N1069 N 0.32828 0.86923 0.68299 0.0
O1070 O 0.37212 0.9296 0.56731 0.0
H1071 H 0.38639 0.89827 0.72455 0.0
H1072 H 0.33285 0.88764 0.60976 0.0
O1073 O 0.40495 0.95349 0.65632 0.0
C1074 C 0.36178 0.91272 0.53159 0.0
O1075 O 0.36382 0.89218 0.53466 0.0
N1076 N 0.41637 0.91398 0.64633 0.0
C1077 C 0.45439 0.90229 0.66898 0.0
C1078 C 0.45454 0.92326 0.69231 0.0
C1079 C 0.43544 0.929 0.68005 0.0
C1080 C 0.4151 0.89263 0.62609 0.0
C1081 C 0.43396 0.88647 0.63671 0.0
H1082 H 0.43698 0.94625 0.69541 0.0
H1083 H 0.40021 0.88124 0.59866 0.0
H1084 H 0.44927 0.97423 0.60608 0.0
H1085 H 0.45251 0.94627 0.4586 0.0
H1086 H 0.34148 0.86093 0.75417 0.0
H1087 H 0.47016 0.93602 0.7171 0.0
H1088 H 0.4332 0.87012 0.61801 0.0
C1089 C 0.17436 0.41802 0.32415 0.0
C1090 C 0.18193 0.40284 0.34866 0.0
N1091 N 0.1679 0.37908 0.33005 0.0
N1092 N 0.15573 0.40399 0.29001 0.0
C1093 C 0.15197 0.38016 0.29467 0.0
H1094 H 0.18259 0.43833 0.32937 0.0
Co1095 Co 0.14371 0.41998 0.24659 0.0
C1096 C 0.1238 0.38654 0.15201 0.0
O1097 O 0.13791 0.40774 0.126 0.0
N1098 N 0.13175 0.43807 0.20584 0.0
C1099 C 0.10562 0.4479 0.16362 0.0
C1100 C 0.10997 0.42854 0.17798 0.0
C1101 C 0.13936 0.46321 0.21017 0.0
N1102 N 0.12404 0.46965 0.1842 0.0
O1103 O 0.11578 0.41096 0.29581 0.0
H1104 H 0.09672 0.40856 0.17194 0.0
H1105 H 0.15473 0.47628 0.23496 0.0
O1106 O 0.12311 0.38771 0.20227 0.0
C1107 C 0.12252 0.42841 0.33033 0.0
O1108 O 0.14466 0.44925 0.32501 0.0
N1109 N 0.17354 0.4305 0.20451 0.0
C1110 C 0.22473 0.44536 0.18397 0.0
C1111 C 0.20541 0.41998 0.17828 0.0
C1112 C 0.18015 0.41293 0.18912 0.0
C1113 C 0.19192 0.4556 0.20675 0.0
C1114 C 0.2175 0.46346 0.19596 0.0
H1115 H 0.16653 0.39283 0.1905 0.0
H1116 H 0.18745 0.46943 0.2219 0.0
H1117 H 0.13897 0.36436 0.27061 0.0
H1118 H 0.19697 0.40889 0.37715 0.0
H1119 H 0.0891 0.44585 0.14322 0.0
H1120 H 0.20997 0.40522 0.16986 0.0
H1121 H 0.23166 0.48339 0.20001 0.0
C1122 C 0.59952 0.75223 0.33666 0.0
C1123 C 0.61479 0.77545 0.35902 0.0
N1124 N 0.63546 0.78825 0.32878 0.0
N1125 N 0.61065 0.75018 0.2929 0.0
C1126 C 0.63271 0.77253 0.28917 0.0
H1127 H 0.58068 0.73846 0.34991 0.0
Co1128 Co 0.59334 0.72404 0.24592 0.0
C1129 C 0.6331 0.7253 0.16966 0.0
O1130 O 0.61978 0.70058 0.16255 0.0
N1131 N 0.5739 0.6969 0.19936 0.0
C1132 C 0.55168 0.67507 0.12987 0.0
C1133 C 0.57049 0.69843 0.14775 0.0
C1134 C 0.55684 0.67235 0.21165 0.0
N1135 N 0.54328 0.65879 0.17027 0.0
O1136 O 0.60037 0.70194 0.2911 0.0
H1137 H 0.58034 0.71568 0.12484 0.0
H1138 H 0.55336 0.66451 0.2504 0.0
O1139 O 0.62532 0.7357 0.20307 0.0
C1140 C 0.58366 0.69158 0.32739 0.0
O1141 O 0.56317 0.69366 0.32516 0.0
N1142 N 0.58521 0.74601 0.20871 0.0
C1143 C 0.5762 0.78644 0.19104 0.0
C1144 C 0.59704 0.78626 0.16781 0.0
C1145 C 0.60135 0.7659 0.17739 0.0
C1146 C 0.56378 0.74494 0.22797 0.0
C1147 C 0.55902 0.765 0.21997 0.0
H1148 H 0.61865 0.76731 0.16264 0.0
H1149 H 0.5515 0.72945 0.25367 0.0
H1150 H 0.64557 0.77794 0.25639 0.0
H1151 H 0.61064 0.78275 0.39377 0.0
H1152 H 0.54407 0.67064 0.09082 0.0
H1153 H 0.61085 0.80251 0.14549 0.0
H1154 H 0.54263 0.76431 0.23839 0.0
C1155 C 0.26102 0.84261 0.32432 0.0
C1156 C 0.23853 0.83582 0.34907 0.0
N1157 N 0.22851 0.84895 0.3272 0.0
N1158 N 0.26542 0.86021 0.28742 0.0
C1159 C 0.24524 0.86384 0.29023 0.0
H1160 H 0.2727 0.83405 0.33074 0.0
Co1161 Co 0.29285 0.87088 0.24237 0.0
C1162 C 0.27949 0.89371 0.15037 0.0
O1163 O 0.28388 0.87902 0.12016 0.0
N1164 N 0.32228 0.88083 0.19879 0.0
C1165 C 0.34871 0.88048 0.13832 0.0
C1166 C 0.32379 0.8721 0.15114 0.0
C1167 C 0.34703 0.89399 0.21426 0.0
N1168 N 0.36328 0.89419 0.17814 0.0
O1169 O 0.31289 0.89881 0.29131 0.0
H1170 H 0.30791 0.85832 0.12851 0.0
H1171 H 0.35322 0.90205 0.25242 0.0
O1172 O 0.28231 0.89281 0.20007 0.0
C1173 C 0.32103 0.89111 0.32933 0.0
O1174 O 0.31902 0.86858 0.32584 0.0
N1175 N 0.27219 0.84159 0.2014 0.0
C1176 C 0.23531 0.79079 0.18097 0.0
C1177 C 0.22938 0.81034 0.1775 0.0
C1178 C 0.24809 0.83555 0.18715 0.0
C1179 C 0.27875 0.82312 0.20168 0.0
C1180 C 0.26094 0.79789 0.18928 0.0
H1181 H 0.24222 0.84963 0.1886 0.0
H1182 H 0.29747 0.82762 0.21474 0.0
H1183 H 0.24211 0.87594 0.26393 0.0
H1184 H 0.22931 0.82106 0.37825 0.0
H1185 H 0.35542 0.87499 0.10446 0.0
H1186 H 0.21002 0.80614 0.1714 0.0
H1187 H 0.26706 0.78393 0.18937 0.0
C1188 C 0.36167 0.1823 0.22739 0.0
C1189 C 0.36906 0.17225 0.1862 0.0
C1190 C 0.34332 0.18956 0.22006 0.0
C1191 C 0.33175 0.18702 0.17134 0.0
H1192 H 0.37054 0.18505 0.26517 0.0
H1193 H 0.33819 0.19737 0.25264 0.0
S1194 S 0.3427 0.15923 0.0526 0.0
N1195 N 0.36243 0.15862 0.09603 0.0
N1196 N 0.32768 0.172 0.08237 0.0
C1197 C 0.33865 0.17654 0.1301 0.0
C1198 C 0.35737 0.1692 0.13755 0.0
C1199 C 0.84048 0.16563 0.13962 0.0
C1200 C 0.83713 0.14932 0.18153 0.0
C1201 C 0.84591 0.19067 0.14814 0.0
C1202 C 0.84822 0.20026 0.19883 0.0
H1203 H 0.83949 0.15918 0.10002 0.0
H1204 H 0.84864 0.20276 0.11484 0.0
S1205 S 0.83851 0.16428 0.32163 0.0
N1206 N 0.8348 0.14386 0.27538 0.0
N1207 N 0.84488 0.1909 0.29142 0.0
C1208 C 0.84438 0.18396 0.24105 0.0
C1209 C 0.83885 0.15848 0.23238 0.0
C1210 C 0.82947 0.65699 0.15205 0.0
C1211 C 0.81965 0.65159 0.20306 0.0
C1212 C 0.85402 0.67719 0.14174 0.0
C1213 C 0.8696 0.6927 0.18202 0.0
H1214 H 0.81788 0.64583 0.11971 0.0
H1215 H 0.86055 0.68132 0.10186 0.0
S1216 S 0.85406 0.68523 0.32267 0.0
N1217 N 0.82828 0.66235 0.29466 0.0
N1218 N 0.8743 0.70056 0.27497 0.0
C1219 C 0.86031 0.68721 0.23325 0.0
C1220 C 0.83536 0.66661 0.24385 0.0
C1221 C 0.1962 0.36177 0.34856 0.0
C1222 C 0.17148 0.35791 0.34191 0.0
C1223 C 0.20016 0.34142 0.36021 0.0
C1224 C 0.17954 0.31657 0.36542 0.0
H1225 H 0.21261 0.3806 0.34381 0.0
H1226 H 0.21944 0.34501 0.36403 0.0
S1227 S 0.11109 0.29702 0.35845 0.0
N1228 N 0.12616 0.32786 0.3456 0.0
N1229 N 0.13348 0.28957 0.36794 0.0
C1230 C 0.15471 0.3126 0.36048 0.0
C1231 C 0.15072 0.33329 0.34849 0.0
C1232 C 0.6807 0.82081 0.33002 0.0
C1233 C 0.65514 0.81419 0.33517 0.0
C1234 C 0.70017 0.84579 0.339 0.0
C1235 C 0.69468 0.86496 0.35304 0.0
H1236 H 0.68559 0.80642 0.32034 0.0
H1237 H 0.71968 0.84999 0.33603 0.0
S1238 S 0.63062 0.85781 0.3649 0.0
N1239 N 0.62515 0.82895 0.35077 0.0
N1240 N 0.66187 0.87605 0.36743 0.0
C1241 C 0.66915 0.8587 0.3567 0.0
C1242 C 0.64933 0.83326 0.3477 0.0
C1243 C 0.16835 0.83517 0.39527 0.0
C1244 C 0.15135 0.82957 0.35368 0.0
C1245 C 0.19375 0.84199 0.38621 0.0
C1246 C 0.203 0.84374 0.33536 0.0
H1247 H 0.16216 0.8349 0.43487 0.0
H1248 H 0.20637 0.84614 0.41906 0.0
S1249 S 0.16559 0.82828 0.21373 0.0
N1250 N 0.14506 0.82417 0.26015 0.0
N1251 N 0.19295 0.83751 0.24336 0.0
C1252 C 0.18613 0.8377 0.29361 0.0
C1253 C 0.16024 0.83046 0.30275 0.0
C1254 C 0.67727 0.82988 0.89791 0.0
C1255 C 0.68872 0.82492 0.85548 0.0
C1256 C 0.65828 0.83624 0.89013 0.0
C1257 C 0.65029 0.838 0.83973 0.0
H1258 H 0.68372 0.82981 0.93713 0.0
H1259 H 0.65021 0.84046 0.92361 0.0
S1260 S 0.67203 0.82357 0.71642 0.0
N1261 N 0.68918 0.81993 0.76186 0.0
N1262 N 0.65348 0.83192 0.74728 0.0
C1263 C 0.66092 0.83216 0.79719 0.0
C1264 C 0.68013 0.82558 0.80509 0.0
C1265 C 0.19575 0.83668 0.85162 0.0
C1266 C 0.17129 0.81624 0.8407 0.0
C1267 C 0.19992 0.86132 0.85894 0.0
C1268 C 0.17981 0.8664 0.85535 0.0
H1269 H 0.21183 0.83363 0.854 0.0
H1270 H 0.21902 0.87658 0.86704 0.0
S1271 S 0.11195 0.8192 0.83126 0.0
N1272 N 0.12657 0.80245 0.8289 0.0
N1273 N 0.13436 0.84884 0.84275 0.0
C1274 C 0.15524 0.84613 0.84474 0.0
C1275 C 0.151 0.82102 0.83732 0.0
C1276 C 0.16138 0.33142 0.80294 0.0
C1277 C 0.15253 0.32104 0.85274 0.0
C1278 C 0.18662 0.35059 0.79494 0.0
C1279 C 0.20381 0.36013 0.83653 0.0
H1280 H 0.14857 0.3249 0.77003 0.0
H1281 H 0.19258 0.35848 0.75626 0.0
S1282 S 0.19108 0.33785 0.97334 0.0
N1283 N 0.16364 0.32046 0.94348 0.0
N1284 N 0.21097 0.35699 0.92843 0.0
C1285 C 0.19543 0.3497 0.8863 0.0
C1286 C 0.16979 0.33004 0.89445 0.0
C1287 C 0.86854 0.68113 0.70815 0.0
C1288 C 0.84894 0.65569 0.70676 0.0
C1289 C 0.86361 0.70092 0.69779 0.0
C1290 C 0.83882 0.69597 0.68621 0.0
H1291 H 0.88791 0.68563 0.71559 0.0
H1292 H 0.87948 0.72023 0.69754 0.0
S1293 S 0.78046 0.63252 0.68451 0.0
N1294 N 0.80359 0.62646 0.69721 0.0
N1295 N 0.79423 0.66377 0.67833 0.0
C1296 C 0.81892 0.67059 0.68651 0.0
C1297 C 0.824 0.65042 0.69678 0.0
C1298 C 0.32603 0.1697 0.68855 0.0
C1299 C 0.33045 0.14928 0.68027 0.0
C1300 C 0.34609 0.19423 0.699 0.0
C1301 C 0.37123 0.19917 0.70128 0.0
H1302 H 0.30698 0.16679 0.68581 0.0
H1303 H 0.34203 0.20957 0.704 0.0
S1304 S 0.3925 0.15172 0.68942 0.0
N1305 N 0.36148 0.13519 0.67961 0.0
N1306 N 0.3993 0.18135 0.69947 0.0
C1307 C 0.37584 0.1788 0.69484 0.0
C1308 C 0.35542 0.15383 0.68418 0.0
C1309 C 0.83923 0.19224 0.68814 0.0
C1310 C 0.81817 0.1679 0.69794 0.0
C1311 C 0.86306 0.19538 0.67531 0.0
C1312 C 0.86665 0.17431 0.672 0.0
H1313 H 0.83728 0.20899 0.69085 0.0
H1314 H 0.87889 0.21441 0.66877 0.0
S1315 S 0.81698 0.10643 0.68885 0.0
N1316 N 0.80203 0.12238 0.70038 0.0
N1317 N 0.84674 0.12811 0.67574 0.0
C1318 C 0.84562 0.14982 0.68076 0.0
C1319 C 0.8214 0.14667 0.694 0.0
C1320 C 0.98399 0.48483 0.5163 0.0
C1321 C 0.98806 0.50923 0.50355 0.0
C1322 C 1.00443 0.48074 0.52553 0.0
C1323 C 0.02961 0.50085 0.52195 0.0
H1324 H 0.96486 0.46871 0.51841 0.0
H1325 H 1.00059 0.46167 0.5344 0.0
S1326 S 0.05048 0.56872 0.49568 0.0
N1327 N 0.01915 0.55403 0.49182 0.0
N1328 N 0.05757 0.54632 0.50888 0.0
C1329 C 0.03395 0.52541 0.51044 0.0
C1330 C 0.01317 0.52959 0.50118 0.0
C1331 C 0.4809 0.48607 0.51418 0.0
C1332 C 0.501 0.48094 0.51667 0.0
C1333 C 0.48496 0.5105 0.52452 0.0
C1334 C 0.50929 0.53064 0.53753 0.0
H1335 H 0.4619 0.47102 0.5046 0.0
H1336 H 0.46895 0.51367 0.52254 0.0
S1337 S 0.56866 0.52761 0.54447 0.0
N1338 N 0.54638 0.4983 0.52999 0.0
N1339 N 0.55393 0.54418 0.54958 0.0
C1340 C 0.52957 0.52581 0.53971 0.0
C1341 C 0.52546 0.50097 0.52915 0.0
C1342 C 0.49159 0.01306 0.53473 0.0
C1343 C 0.48482 0.98785 0.52334 0.0
C1344 C 0.5165 0.03303 0.52664 0.0
C1345 C 0.53559 0.02845 0.50726 0.0
H1346 H 0.47735 0.01737 0.5487 0.0
H1347 H 0.52071 0.05226 0.53473 0.0
S1348 S 0.52785 0.96529 0.47623 0.0
N1349 N 0.49924 0.95902 0.4947 0.0
N1350 N 0.54618 0.9965 0.4802 0.0
C1351 C 0.5291 1.00318 0.49685 0.0
C1352 C 0.50369 0.98289 0.5048 0.0
C1353 C 0.51698 0.99699 0.97992 0.0
C1354 C 0.51873 0.98986 0.03128 0.0
C1355 C 0.50914 0.0147 0.96952 0.0
C1356 C 0.50286 0.02598 1.01014 0.0
H1357 H 0.5219 0.9889 0.94754 0.0
H1358 H 0.50866 0.02017 0.92959 0.0
S1359 S 0.50197 0.0123 0.1509 0.0
N1360 N 0.51178 0.99425 0.12289 0.0
N1361 N 0.49755 0.02799 0.10324 0.0
C1362 C 0.50413 0.0188 0.06155 0.0
C1363 C 0.51198 1.00066 0.07218 0.0
C1364 C 0.98471 0.50082 0.02599 0.0
C1365 C 0.99019 0.4812 1.01642 0.0
C1366 C 1.00419 0.52573 0.03564 0.0
C1367 C 0.02966 0.53171 0.0357 0.0
H1368 H 0.96529 0.49701 0.02453 0.0
H1369 H 0.99946 0.54056 0.04144 0.0
S1370 S 0.05367 0.48664 0.0202 0.0
N1371 N 0.02257 0.46894 1.01259 0.0
N1372 N 0.0593 0.51586 0.03083 0.0
C1373 C 0.03532 0.51212 0.02833 0.0
C1374 C 0.01553 0.48681 0.01853 0.0
C1375 C 0.49316 0.48793 0.04232 0.0
C1376 C 0.48689 0.50706 0.03515 0.0
C1377 C 0.51806 0.49297 0.03437 0.0
C1378 C 0.53755 0.51739 0.01938 0.0
H1379 H 0.47851 0.46876 0.05238 0.0
H1380 H 0.52188 0.47743 0.03839 0.0
S1381 S 0.53145 0.57484 1.00297 0.0
N1382 N 0.50239 0.55185 0.01725 0.0
N1383 N 0.54933 0.56141 1.00267 0.0
C1384 C 0.5317 0.53694 1.01432 0.0
C1385 C 0.50632 0.53177 0.02221 0.0
C1386 C 0.26184 0.09779 0.02012 0.0
C1387 C 0.24091 0.10175 0.01787 0.0
C1388 C 0.25882 0.0734 1.01676 0.0
C1389 C 0.23463 0.05136 1.01222 0.0
H1390 H 0.2809 0.11363 0.02582 0.0
H1391 H 0.2759 0.07204 0.01796 0.0
S1392 S 0.17342 0.05094 1.00182 0.0
N1393 N 0.195 0.0814 1.00699 0.0
N1394 N 0.18921 0.03534 1.0042 0.0
C1395 C 0.21344 0.05493 1.00902 0.0
C1396 C 0.21659 0.08004 1.01133 0.0
C1397 C 0.93258 0.15357 0.06687 0.0
C1398 C 0.91936 0.14098 0.02153 0.0
C1399 C 0.95754 0.17431 0.06469 0.0
C1400 C 0.97065 0.18329 0.01708 0.0
H1401 H 0.92345 0.1474 0.10451 0.0
H1402 H 0.96665 0.18338 0.10082 0.0
S1403 S 0.94456 0.15595 0.88695 0.0
N1404 N 0.92102 0.13871 0.92762 0.0
N1405 N 0.96821 0.17693 0.92317 0.0
C1406 C 0.95752 0.17076 0.97125 0.0
C1407 C 0.93187 0.14983 0.97358 0.0
C1408 C 0.86723 0.7871 0.06325 0.0
C1409 C 0.8774 0.78378 1.01675 0.0
C1410 C 0.84645 0.79121 0.06308 0.0
C1411 C 0.83498 0.79251 1.01637 0.0
H1412 H 0.87543 0.78646 0.10026 0.0
H1413 H 0.83943 0.79362 0.10008 0.0
S1414 S 0.85494 0.78547 0.88362 0.0
N1415 N 0.87444 0.78173 0.92266 0.0
N1416 N 0.83594 0.79037 0.92184 0.0
C1417 C 0.84482 0.7889 0.96941 0.0
C1418 C 0.86588 0.78434 0.96974 0.0
C1419 C 0.06687 0.23502 0.55015 0.0
C1420 C 0.04897 0.21747 0.51491 0.0
C1421 C 0.09179 0.239 0.55312 0.0
C1422 C 0.10001 0.22569 0.5208 0.0
H1423 H 0.06176 0.2462 0.57486 0.0
H1424 H 0.1048 0.25286 0.58069 0.0
S1425 S 0.06 0.17626 0.42402 0.0
N1426 N 0.04072 0.18486 0.45046 0.0
N1427 N 0.0877 0.19399 0.45242 0.0
C1428 C 0.08207 0.20773 0.48608 0.0
C1429 C 0.0566 0.20324 0.48399 0.0
C1430 C 0.79624 0.86902 0.5533 0.0
C1431 C 0.781 0.87137 0.51492 0.0
C1432 C 0.80002 0.84786 0.55415 0.0
C1433 C 0.78911 0.8287 0.51603 0.0
H1434 H 0.80524 0.88358 0.58275 0.0
H1435 H 0.81219 0.84687 0.58371 0.0
S1436 S 0.74748 0.82589 0.40788 0.0
N1437 N 0.75457 0.85248 0.43876 0.0
N1438 N 0.76222 0.81332 0.4397 0.0
C1439 C 0.77379 0.83086 0.47782 0.0
C1440 C 0.76959 0.85203 0.47744 0.0
C1441 C 0.17728 0.92178 0.50239 0.0
C1442 C 0.15296 0.91848 0.51168 0.0
C1443 C 0.19921 0.94584 0.50373 0.0
C1444 C 0.19816 0.96821 0.51325 0.0
H1445 H 0.17956 0.90565 0.49286 0.0
H1446 H 0.21718 0.94664 0.49722 0.0
S1447 S 0.13924 0.97039 0.54146 0.0
N1448 N 0.12926 0.9398 0.53361 0.0
N1449 N 0.17034 0.98527 0.53254 0.0
C1450 C 0.17398 0.96531 0.52294 0.0
C1451 C 0.1515 0.94053 0.52272 0.0
C1452 C 0.79827 0.93557 0.03822 0.0
C1453 C 0.77911 0.91699 1.00648 0.0
C1454 C 0.80241 0.96058 0.04048 0.0
C1455 C 0.78798 0.96811 1.01008 0.0
H1456 H 0.81007 0.93069 0.06157 0.0
H1457 H 0.8174 0.97432 0.06523 0.0
S1458 S 0.73556 0.92673 0.92071 0.0
N1459 N 0.74546 0.90786 0.94441 0.0
N1460 N 0.75354 0.9548 0.94801 0.0
C1461 C 0.7688 0.94971 0.97826 0.0
C1462 C 0.76429 0.92419 0.97665 0.0
C1463 C 0.08282 0.8742 0.97875 0.0
C1464 C 0.10052 0.87884 0.01863 0.0
C1465 C 0.05828 0.85249 0.9794 0.0
C1466 C 0.05013 0.8344 0.02014 0.0
H1467 H 0.08827 0.88696 0.94563 0.0
H1468 H 0.04563 0.84981 0.94737 0.0
S1469 S 0.08866 0.83832 0.13567 0.0
N1470 N 0.10758 0.86408 0.10156 0.0
N1471 N 0.06191 0.82327 0.10235 0.0
C1472 C 0.06739 0.83922 0.06109 0.0
C1473 C 0.0924 0.86134 0.06037 0.0
C1474 C 0.18118 0.2312 0.96385 0.0
C1475 C 0.19114 0.22913 1.01193 0.0
C1476 C 0.16044 0.23532 0.96106 0.0
C1477 C 0.14873 0.23771 1.00624 0.0
H1478 H 0.18922 0.22909 0.9279 0.0
H1479 H 0.15331 0.23638 0.92306 0.0
S1480 S 0.16737 0.23415 0.14193 0.0
N1481 N 0.18757 0.22999 0.10602 0.0
N1482 N 0.14893 0.23833 0.10064 0.0
C1483 C 0.15895 0.23659 0.05463 0.0
C1484 C 0.18004 0.23218 0.05752 0.0
C1485 C 0.93139 0.77535 0.491 0.0
C1486 C 0.92343 0.79004 0.51944 0.0
C1487 C 0.95673 0.78056 0.49228 0.0
C1488 C 0.97551 0.80095 0.52142 0.0
H1489 H 0.91787 0.75944 0.4678 0.0
H1490 H 0.96145 0.76814 0.47089 0.0
S1491 S 0.9653 0.84668 0.59979 0.0
N1492 N 0.93684 0.82612 0.57764 0.0
N1493 N 0.98452 0.83748 0.57557 0.0
C1494 C 0.96805 0.81652 0.54817 0.0
C1495 C 0.94211 0.81074 0.54816 0.0
C1496 C 0.22975 0.14584 0.47529 0.0
C1497 C 0.24305 0.14195 0.51582 0.0
C1498 C 0.22559 0.16679 0.4759 0.0
C1499 C 0.23424 0.18424 0.51748 0.0
H1500 H 0.22263 0.1327 0.44295 0.0
H1501 H 0.21488 0.16893 0.44459 0.0
S1502 S 0.27033 0.18267 0.63225 0.0
N1503 N 0.26523 0.1576 0.59784 0.0
N1504 N 0.25704 0.19638 0.59931 0.0
C1505 C 0.24766 0.18054 0.5578 0.0
C1506 C 0.25216 0.15957 0.55689 0.0
C1507 C 0.87117 0.07682 0.55232 0.0
C1508 C 0.87738 0.09299 0.50866 0.0
C1509 C 0.84911 0.05267 0.55306 0.0
C1510 C 0.83287 0.04372 0.50989 0.0
H1511 H 0.88272 0.08341 0.5871 0.0
H1512 H 0.84423 0.04121 0.5881 0.0
S1513 S 0.84123 0.07765 0.38514 0.0
N1514 N 0.86591 0.09769 0.42044 0.0
N1515 N 0.82477 0.0521 0.42185 0.0
C1516 C 0.83935 0.05915 0.46537 0.0
C1517 C 0.86155 0.08384 0.46475 0.0
C1518 C 0.88648 0.39292 0.30757 0.0
C1519 C 0.8925 0.38331 0.352 0.0
C1520 C 0.88805 0.41695 0.3082 0.0
C1521 C 0.89521 0.43187 0.35357 0.0
H1522 H 0.88163 0.38231 0.27156 0.0
H1523 H 0.88422 0.42415 0.2728 0.0
S1524 S 0.91144 0.41479 0.48065 0.0
N1525 N 0.90492 0.39029 0.44284 0.0
N1526 N 0.90751 0.43502 0.44416 0.0
C1527 C 0.90041 0.42208 0.3985 0.0
C1528 C 0.89913 0.39791 0.3977 0.0
C1529 C 0.5897 0.49112 0.30938 0.0
C1530 C 0.58314 0.47226 0.34806 0.0
C1531 C 0.61401 0.51297 0.30746 0.0
C1532 C 0.63293 0.51673 0.34358 0.0
H1533 H 0.5757 0.48934 0.28106 0.0
H1534 H 0.61792 0.5274 0.2783 0.0
S1535 S 0.62635 0.47374 0.45218 0.0
N1536 N 0.59824 0.45932 0.42358 0.0
N1537 N 0.64401 0.50002 0.41832 0.0
C1538 C 0.62716 0.49782 0.38115 0.0
C1539 C 0.6023 0.47567 0.38372 0.0
C1540 C 0.54787 0.13765 0.32146 0.0
C1541 C 0.54783 0.119 0.3542 0.0
C1542 C 0.52699 0.14179 0.3203 0.0
C1543 C 0.50569 0.12789 0.35281 0.0
H1544 H 0.56402 0.14892 0.29632 0.0
H1545 H 0.52768 0.15627 0.29453 0.0
S1546 S 0.49642 0.07707 0.44571 0.0
N1547 N 0.52463 0.08648 0.41963 0.0
N1548 N 0.48586 0.09466 0.41819 0.0
C1549 C 0.50557 0.10936 0.38588 0.0
C1550 C 0.52652 0.10481 0.38637 0.0
C1551 C 0.76504 0.59084 0.84487 0.0
C1552 C 0.76804 0.56949 0.85257 0.0
C1553 C 0.74102 0.58881 0.84542 0.0
C1554 C 0.71849 0.56523 0.85277 0.0
H1555 H 0.7814 0.60941 0.83726 0.0
H1556 H 0.74035 0.60615 0.84016 0.0
S1557 S 0.71555 0.50327 0.87553 0.0
N1558 N 0.74625 0.52393 0.86996 0.0
N1559 N 0.70096 0.51985 0.8679 0.0
C1560 C 0.72111 0.54362 0.8607 0.0
C1561 C 0.7458 0.54579 0.86106 0.0
C1562 C 0.45943 0.19944 0.80584 0.0
C1563 C 0.4566 0.2099 0.85259 0.0
C1564 C 0.46045 0.17677 0.8055 0.0
C1565 C 0.45933 0.16395 0.85192 0.0
H1566 H 0.46 0.20842 0.76898 0.0
H1567 H 0.46189 0.169 0.76862 0.0
S1568 S 0.45197 0.18305 0.98468 0.0
N1569 N 0.45255 0.20536 0.94663 0.0
N1570 N 0.45513 0.16314 0.94581 0.0
C1571 C 0.45696 0.17433 0.89897 0.0
C1572 C 0.45539 0.19716 0.89933 0.0
C1573 C 0.85979 0.27876 0.83777 0.0
C1574 C 0.85934 0.30132 0.84848 0.0
C1575 C 0.8377 0.25486 0.83871 0.0
C1576 C 0.81385 0.25193 0.8517 0.0
H1577 H 0.87741 0.27924 0.82878 0.0
H1578 H 0.83947 0.23853 0.82827 0.0
S1579 S 0.80162 0.30456 0.88389 0.0
N1580 N 0.83241 0.31904 0.87134 0.0
N1581 N 0.79114 0.27383 0.87684 0.0
C1582 C 0.81294 0.2742 0.8632 0.0
C1583 C 0.83554 0.29884 0.861 0.0
C1584 C 0.45789 0.29079 0.29797 0.0
C1585 C 0.4599 0.30266 0.346 0.0
C1586 C 0.45707 0.26725 0.29507 0.0
C1587 C 0.45764 0.25433 0.34024 0.0
H1588 H 0.45671 0.29974 0.2624 0.0
H1589 H 0.45515 0.2587 0.25719 0.0
S1590 S 0.46237 0.27717 0.47572 0.0
N1591 N 0.46243 0.29983 0.43978 0.0
N1592 N 0.46045 0.25538 0.43458 0.0
C1593 C 0.45972 0.26606 0.38858 0.0
C1594 C 0.46101 0.29028 0.39141 0.0
C1595 C 0.76105 0.19738 0.39919 0.0
C1596 C 0.76845 0.21401 0.35595 0.0
C1597 C 0.737 0.17514 0.40156 0.0
C1598 C 0.71934 0.1687 0.36101 0.0
H1599 H 0.77422 0.20122 0.43088 0.0
H1600 H 0.73243 0.1624 0.4345 0.0
S1601 S 0.72865 0.20505 0.23939 0.0
N1602 N 0.75555 0.22194 0.27149 0.0
N1603 N 0.71042 0.1804 0.27698 0.0
C1604 C 0.72601 0.1853 0.31844 0.0
C1605 C 0.7505 0.20791 0.31572 0.0
C1606 C 0.84048 0.56303 0.40655 0.0
C1607 C 0.8486 0.55502 0.36297 0.0
C1608 C 0.81822 0.56483 0.40485 0.0
C1609 C 0.80315 0.55853 0.35954 0.0
H1610 H 0.85197 0.56881 0.44147 0.0
H1611 H 0.81308 0.57179 0.43884 0.0
S1612 S 0.81678 0.53677 0.23496 0.0
N1613 N 0.84021 0.54079 0.27369 0.0
N1614 N 0.79845 0.54399 0.26995 0.0
C1615 C 0.81093 0.54991 0.31616 0.0
C1616 C 0.83365 0.54827 0.31797 0.0
C1617 C 0.6012 0.1362 0.87425 0.0
C1618 C 0.58326 0.11758 0.8407 0.0
C1619 C 0.62632 0.14111 0.8771 0.0
C1620 C 0.63494 0.12735 0.84732 0.0
H1621 H 0.5957 0.14672 0.9 0.0
H1622 H 0.63897 0.15591 0.9034 0.0
S1623 S 0.59603 0.07746 0.75037 0.0
N1624 N 0.57655 0.08665 0.77348 0.0
N1625 N 0.62312 0.09447 0.78162 0.0
C1626 C 0.61734 0.10894 0.81266 0.0
C1627 C 0.59175 0.10436 0.80885 0.0
C1628 C 0.89247 0.50148 0.90051 0.0
C1629 C 0.89256 0.51447 0.85476 0.0
C1630 C 0.89683 0.4808 0.89928 0.0
C1631 C 0.90178 0.47229 0.85233 0.0
H1632 H 0.88902 0.50736 0.93788 0.0
H1633 H 0.8967 0.4716 0.93556 0.0
S1634 S 0.9038 0.49872 0.72124 0.0
N1635 N 0.89733 0.51627 0.76048 0.0
N1636 N 0.90666 0.47819 0.75894 0.0
C1637 C 0.90231 0.4851 0.80634 0.0
C1638 C 0.89746 0.50598 0.80734 0.0
C1639 C 0.52259 0.39267 0.89187 0.0
C1640 C 0.50386 0.38415 0.85269 0.0
C1641 C 0.54376 0.41751 0.89135 0.0
C1642 C 0.54714 0.43508 0.85182 0.0
H1643 H 0.52086 0.38005 0.9234 0.0
H1644 H 0.55717 0.42325 0.92321 0.0
S1645 S 0.50429 0.42233 0.73906 0.0
N1646 N 0.49054 0.39546 0.77261 0.0
N1647 N 0.53043 0.44175 0.77117 0.0
C1648 C 0.5289 0.42665 0.81177 0.0
C1649 C 0.50732 0.40135 0.81225 0.0
C1650 C 0.56764 0.73447 0.63292 0.0
C1651 C 0.55686 0.71669 0.6736 0.0
C1652 C 0.56919 0.75838 0.63565 0.0
C1653 C 0.56023 0.76554 0.67946 0.0
H1654 H 0.57566 0.73011 0.59956 0.0
H1655 H 0.57826 0.7717 0.60389 0.0
S1656 S 0.53038 0.72529 0.7964 0.0
N1657 N 0.53672 0.70729 0.7582 0.0
N1658 N 0.53996 0.75227 0.76445 0.0
C1659 C 0.54871 0.74744 0.71976 0.0
C1660 C 0.54702 0.72305 0.71662 0.0
C1661 C 0.29745 0.82312 0.68004 0.0
C1662 C 0.30244 0.84838 0.68028 0.0
C1663 C 0.2724 0.80245 0.6806 0.0
C1664 C 0.25124 0.80617 0.6824 0.0
H1665 H 0.31312 0.81938 0.67968 0.0
H1666 H 0.26963 0.78338 0.68027 0.0
S1667 S 0.25467 0.86916 0.68583 0.0
N1668 N 0.28469 0.87627 0.6823 0.0
N1669 N 0.23757 0.83773 0.68584 0.0
C1670 C 0.25617 0.83157 0.68231 0.0
C1671 C 0.28175 0.85257 0.68074 0.0
C1672 C 0.20323 0.45525 0.72905 0.0
C1673 C 0.21492 0.45385 0.683 0.0
C1674 C 0.18218 0.45901 0.72799 0.0
C1675 C 0.17199 0.46197 0.6808 0.0
H1676 H 0.21018 0.45299 0.76634 0.0
H1677 H 0.17373 0.45938 0.76477 0.0
S1678 S 0.19697 0.46094 0.54896 0.0
N1679 N 0.21521 0.45577 0.58892 0.0
N1680 N 0.17662 0.46416 0.58627 0.0
C1681 C 0.18385 0.46083 0.63424 0.0
C1682 C 0.20504 0.45648 0.63553 0.0
C1683 C 0.39567 0.88601 0.2168 0.0
C1684 C 0.38944 0.90105 0.18516 0.0
C1685 C 0.42053 0.88984 0.21751 0.0
C1686 C 0.44 0.90914 0.18731 0.0
H1687 H 0.38095 0.87053 0.23932 0.0
H1688 H 0.42446 0.87737 0.24106 0.0
S1689 S 0.43331 0.95387 0.0989 0.0
N1690 N 0.40449 0.93586 0.12339 0.0
N1691 N 0.45134 0.94367 0.12566 0.0
C1692 C 0.43407 0.92476 0.15678 0.0
C1693 C 0.40873 0.92053 0.15542 0.0
C1694 C 0.12555 0.50608 0.13814 0.0
C1695 C 0.12421 0.49349 0.18501 0.0
C1696 C 0.1232 0.52799 0.13739 0.0
C1697 C 0.11873 0.53771 0.1834 0.0
H1698 H 0.12809 0.49864 0.10178 0.0
H1699 H 0.12397 0.53688 0.10031 0.0
S1700 S 0.1131 0.51125 0.31608 0.0
N1701 N 0.11828 0.49224 0.27847 0.0
N1702 N 0.11304 0.53295 0.27709 0.0
C1703 C 0.11739 0.52528 0.23055 0.0
C1704 C 0.12036 0.5033 0.23137 0.0
C1705 C 0.47568 0.60491 0.18017 0.0
C1706 C 0.47809 0.58316 0.17283 0.0
C1707 C 0.49707 0.62959 0.17945 0.0
C1708 C 0.52162 0.63343 0.17113 0.0
H1709 H 0.45711 0.60286 0.18659 0.0
H1710 H 0.49448 0.64583 0.18526 0.0
S1711 S 0.53866 0.58364 0.14808 0.0
N1712 N 0.50743 0.56764 0.15536 0.0
N1713 N 0.54737 0.61401 0.15499 0.0
C1714 C 0.52444 0.61211 0.16382 0.0
C1715 C 0.50275 0.58698 0.16447 0.0
C1716 C 0.10458 0.6146 0.65181 0.0
C1717 C 0.12425 0.63385 0.68141 0.0
C1718 C 0.10116 0.58992 0.64964 0.0
C1719 C 0.11765 0.58368 0.67606 0.0
H1720 H 0.09166 0.61867 0.63043 0.0
H1721 H 0.08577 0.5757 0.62628 0.0
S1722 S 0.17251 0.62734 0.75779 0.0
N1723 N 0.16054 0.64503 0.7374 0.0
N1724 N 0.15445 0.59881 0.73238 0.0
C1725 C 0.1375 0.60278 0.70546 0.0
C1726 C 0.14069 0.6278 0.70847 0.0
C1727 C 0.41702 0.53964 0.72409 0.0
C1728 C 0.43233 0.54794 0.67912 0.0
C1729 C 0.39315 0.51702 0.72391 0.0
C1730 C 0.38412 0.50172 0.67908 0.0
H1731 H 0.4238 0.55039 0.75981 0.0
H1732 H 0.38224 0.51084 0.75963 0.0
S1733 S 0.41687 0.51544 0.55143 0.0
N1734 N 0.43649 0.53951 0.58854 0.0
N1735 N 0.3921 0.49699 0.58847 0.0
C1736 C 0.39912 0.51017 0.63382 0.0
C1737 C 0.4231 0.53326 0.63379 0.0
C1738 C 0.48476 0.89452 0.72221 0.0
C1739 C 0.47673 0.89854 0.6735 0.0
C1740 C 0.50654 0.89199 0.72664 0.0
C1741 C 0.52122 0.89397 0.68264 0.0
H1742 H 0.47424 0.89349 0.75704 0.0
H1743 H 0.51251 0.88944 0.76477 0.0
S1744 S 0.50848 0.90449 0.54679 0.0
N1745 N 0.48512 0.90407 0.58056 0.0
N1746 N 0.52624 0.9 0.58936 0.0
C1747 C 0.51332 0.89785 0.63396 0.0
C1748 C 0.49102 0.89995 0.62926 0.0
C1749 C 0.26094 0.4417 0.14456 0.0
C1750 C 0.25208 0.45198 0.18293 0.0
C1751 C 0.28589 0.44576 0.14564 0.0
C1752 C 0.30308 0.46009 0.18539 0.0
H1753 H 0.24839 0.43019 0.1136 0.0
H1754 H 0.29156 0.43707 0.11571 0.0
S1755 S 0.28977 0.49186 0.29438 0.0
N1756 N 0.26279 0.47733 0.26177 0.0
N1757 N 0.30969 0.48565 0.26273 0.0
C1758 C 0.29465 0.47092 0.22339 0.0
C1759 C 0.26924 0.46675 0.22235 0.0
C1760 C 0.56724 0.84105 0.23742 0.0
C1761 C 0.56529 0.85241 0.19107 0.0
C1762 C 0.57119 0.82013 0.23682 0.0
C1763 C 0.57352 0.80963 0.18981 0.0
H1764 H 0.56522 0.84814 0.27466 0.0
H1765 H 0.57222 0.81194 0.27361 0.0
S1766 S 0.57019 0.83212 0.0574 0.0
N1767 N 0.56615 0.85139 0.09652 0.0
N1768 N 0.5742 0.81246 0.0956 0.0
C1769 C 0.57249 0.82123 0.14312 0.0
C1770 C 0.56824 0.84249 0.14368 0.0
C1771 C 0.17167 0.73007 0.15463 0.0
C1772 C 0.172 0.71201 0.18878 0.0
C1773 C 0.19243 0.75506 0.15088 0.0
C1774 C 0.21443 0.76337 0.18166 0.0
H1775 H 0.15506 0.72506 0.13108 0.0
H1776 H 0.19104 0.76802 0.12383 0.0
S1777 S 0.22574 0.72344 0.27588 0.0
N1778 N 0.19763 0.70398 0.25075 0.0
N1779 N 0.23496 0.75121 0.24803 0.0
C1780 C 0.2151 0.74544 0.21566 0.0
C1781 C 0.19436 0.7198 0.21824 0.0
C1782 C 0.2329 0.24891 0.22249 0.0
C1783 C 0.25267 0.24377 0.21245 0.0
C1784 C 0.22674 0.25241 0.27345 0.0
C1785 C 0.23997 0.25082 0.317 0.0
H1786 H 0.22067 0.24808 0.19105 0.0
H1787 H 0.21006 0.25428 0.27911 0.0
S1788 S 0.29467 0.23974 0.31218 0.0
N1789 N 0.2868 0.23927 0.25049 0.0
N1790 N 0.27497 0.24546 0.34626 0.0
C1791 C 0.26101 0.24761 0.30745 0.0
C1792 C 0.26742 0.24421 0.25523 0.0
C1793 C 0.7817 0.03498 0.26222 0.0
C1794 C 0.77398 0.01969 0.21724 0.0
C1795 C 0.77625 0.02417 0.31255 0.0
C1796 C 0.76266 0.99761 0.3201 0.0
H1797 H 0.79421 0.05538 0.25853 0.0
H1798 H 0.78464 0.03662 0.34562 0.0
S1799 S 0.73664 0.94917 0.2156 0.0
N1800 N 0.75082 0.97661 0.18392 0.0
N1801 N 0.74014 0.95638 0.27811 0.0
C1802 C 0.7531 0.98222 0.27558 0.0
C1803 C 0.75888 0.99322 0.22431 0.0
C1804 C 0.99209 0.76711 0.3192 0.0
C1805 C 0.01787 0.77448 0.32566 0.0
C1806 C 0.98056 0.76135 0.26976 0.0
C1807 C 0.99428 0.76288 0.22428 0.0
H1808 H 0.98133 0.768 0.35196 0.0
H1809 H 0.96126 0.75785 0.26657 0.0
S1810 S 0.0619 0.77961 0.22012 0.0
N1811 N 0.05635 0.78131 0.2825 0.0
N1812 N 0.03476 0.77078 0.1897 0.0
C1813 C 0.01954 0.7684 0.23055 0.0
C1814 C 0.0313 0.77415 0.28115 0.0
C1815 C 0.76159 0.78503 0.77328 0.0
C1816 C 0.76736 0.77569 0.81848 0.0
C1817 C 0.76688 0.7795 0.72311 0.0
C1818 C 0.77803 0.76422 0.71589 0.0
H1819 H 0.75506 0.79864 0.77682 0.0
H1820 H 0.7644 0.78917 0.69007 0.0
S1821 S 0.79514 0.73346 0.82083 0.0
N1822 N 0.78341 0.74906 0.85225 0.0
N1823 N 0.79311 0.73848 0.75826 0.0
C1824 C 0.7821 0.7532 0.76051 0.0
C1825 C 0.77683 0.75896 0.81169 0.0
C1826 C 0.26843 0.03566 0.75647 0.0
C1827 C 0.26208 0.01975 0.71256 0.0
C1828 C 0.26191 0.02555 0.80733 0.0
C1829 C 0.24911 0.9991 0.81669 0.0
H1830 H 0.27631 0.05598 0.75115 0.0
H1831 H 0.26508 0.03847 0.83918 0.0
S1832 S 0.22928 0.94921 0.71569 0.0
N1833 N 0.24306 0.97618 0.68235 0.0
N1834 N 0.23155 0.9573 0.77761 0.0
C1835 C 0.24431 0.9831 0.7735 0.0
C1836 C 0.25059 0.99338 0.72161 0.0
C1837 C 0.9906 0.22906 0.8082 0.0
C1838 C 0.0164 0.24733 0.81522 0.0
C1839 C 0.97964 0.22273 0.75832 0.0
C1840 C 0.994 0.23425 0.71305 0.0
H1841 H 0.97937 0.21789 0.84111 0.0
H1842 H 0.9603 0.20703 0.75485 0.0
S1843 S 0.06194 0.28442 0.70999 0.0
N1844 N 0.05557 0.27817 0.77257 0.0
N1845 N 0.03507 0.26594 0.67891 0.0
C1846 C 0.01929 0.25385 0.71964 0.0
C1847 C 0.03045 0.26047 0.77067 0.0
C1848 C 0.92566 0.56098 0.60182 0.0
C1849 C 0.9211 0.57198 0.55774 0.0
C1850 C 0.92064 0.56611 0.65261 0.0
C1851 C 0.91097 0.58257 0.66163 0.0
H1852 H 0.93099 0.54652 0.59678 0.0
H1853 H 0.92231 0.55545 0.6847 0.0
S1854 S 0.89714 0.61743 0.55996 0.0
N1855 N 0.90752 0.60108 0.52689 0.0
N1856 N 0.89857 0.61107 0.622 0.0
C1857 C 0.90814 0.59513 0.61817 0.0
C1858 C 0.91304 0.58973 0.56638 0.0
C1859 C 0.43091 0.32179 0.55544 0.0
C1860 C 0.43846 0.34749 0.54594 0.0
C1861 C 0.42726 0.31191 0.60636 0.0
C1862 C 0.43124 0.3273 0.65031 0.0
H1863 H 0.43002 0.30976 0.52347 0.0
H1864 H 0.42362 0.29261 0.61149 0.0
S1865 S 0.44941 0.39544 0.6469 0.0
N1866 N 0.44798 0.38769 0.58493 0.0
N1867 N 0.44159 0.36925 0.68054 0.0
C1868 C 0.43698 0.35253 0.64136 0.0
C1869 C 0.44045 0.36257 0.58925 0.0
C1870 C 0.66312 0.09727 0.64895 0.0
C1871 C 0.68961 0.11036 0.65684 0.0
C1872 C 0.65268 0.09141 0.59841 0.0
C1873 C 0.66833 0.09862 0.55383 0.0
H1874 H 0.65047 0.09361 0.68165 0.0
H1875 H 0.63233 0.08338 0.59407 0.0
S1876 S 0.73875 0.13198 0.55347 0.0
N1877 N 0.7311 0.12887 0.6158 0.0
N1878 N 0.71156 0.11834 0.52133 0.0
C1879 C 0.69471 0.11019 0.56144 0.0
C1880 C 0.70531 0.11592 0.61278 0.0
C1881 C 0.45031 0.095 0.1402 0.0
C1882 C 0.43492 0.10577 0.15048 0.0
C1883 C 0.4536 0.08862 0.08922 0.0
C1884 C 0.44195 0.09311 0.04624 0.0
H1885 H 0.46179 0.09374 0.17104 0.0
H1886 H 0.46744 0.0826 0.08284 0.0
S1887 S 0.39837 0.11922 0.05241 0.0
N1888 N 0.40624 0.11861 0.1137 0.0
N1889 N 0.41311 0.10747 0.018 0.0
C1890 C 0.42507 0.10209 0.05641 0.0
C1891 C 0.42139 0.10819 0.10848 0.0
C1892 C 0.92731 0.35958 0.14132 0.0
C1893 C 0.91478 0.3333 0.15246 0.0
C1894 C 0.93297 0.36884 0.08973 0.0
C1895 C 0.9259 0.35219 0.04692 0.0
H1896 H 0.93093 0.373 0.17239 0.0
H1897 H 0.94067 0.38904 0.08311 0.0
S1898 S 0.89355 0.28176 0.05484 0.0
N1899 N 0.89685 0.29089 0.11621 0.0
N1900 N 0.90659 0.30816 0.01963 0.0
C1901 C 0.9147 0.326 0.05771 0.0
C1902 C 0.90938 0.3166 0.11031 0.0
C1903 C 0.6514 0.5717 0.09303 0.0
C1904 C 0.66779 0.57966 0.04959 0.0
C1905 C 0.66091 0.57528 0.14431 0.0
C1906 C 0.68722 0.58742 0.15434 0.0
H1907 H 0.63102 0.56037 0.08728 0.0
H1908 H 0.64751 0.56667 0.17609 0.0
S1909 S 0.73823 0.61315 0.05463 0.0
N1910 N 0.71168 0.60116 0.02046 0.0
N1911 N 0.72948 0.60865 0.11639 0.0
C1912 C 0.70381 0.59715 0.11145 0.0
C1913 C 0.69412 0.59308 0.05926 0.0
C1914 C 0.58834 0.89962 0.98401 0.0
C1915 C 0.57986 0.91683 0.99543 0.0
C1916 C 0.59317 0.8953 0.93247 0.0
C1917 C 0.58938 0.90778 0.89006 0.0
H1918 H 0.58931 0.88789 1.01471 0.0
H1919 H 0.59763 0.88036 0.92548 0.0
S1920 S 0.56888 0.95585 0.89891 0.0
N1921 N 0.56976 0.94785 0.96004 0.0
N1922 N 0.57796 0.93912 0.86335 0.0
C1923 C 0.58251 0.92624 0.90116 0.0
C1924 C 0.57802 0.93094 0.95377 0.0
C1925 C 0.09042 0.64918 0.94761 0.0
C1926 C 0.09958 0.66443 0.99258 0.0
C1927 C 0.09517 0.65998 0.89713 0.0
C1928 C 0.10917 0.68654 0.88937 0.0
H1929 H 0.08164 0.62868 0.95117 0.0
H1930 H 0.08998 0.64739 0.86393 0.0
S1931 S 0.13612 0.73498 0.9939 0.0
N1932 N 0.12223 0.70756 0.02563 0.0
N1933 N 0.13078 0.72777 0.93154 0.0
C1934 C 0.11675 0.70196 0.93416 0.0
C1935 C 0.11209 0.69097 0.98545 0.0
C1936 C 0.36213 0.44377 0.88756 0.0
C1937 C 0.33589 0.42915 0.87734 0.0
C1938 C 0.37158 0.44864 0.93884 0.0
C1939 C 0.35519 0.43947 0.98226 0.0
H1940 H 0.37528 0.4534 0.85583 0.0
H1941 H 0.39167 0.46185 0.94452 0.0
S1942 S 0.28503 0.39895 0.97692 0.0
N1943 N 0.29385 0.4039 0.9152 0.0
N1944 N 0.31151 0.41384 1.01127 0.0
C1945 C 0.32912 0.42339 0.97258 0.0
C1946 C 0.31951 0.41803 0.92025 0.0
C1947 C 0.09063 0.44449 0.43733 0.0
C1948 C 0.09991 0.43861 0.48243 0.0
C1949 C 0.09505 0.43799 0.38726 0.0
C1950 C 0.10875 0.42513 0.38023 0.0
H1951 H 0.08203 0.45638 0.44038 0.0
H1952 H 0.08976 0.44515 0.35371 0.0
S1953 S 0.1359 0.40412 0.48545 0.0
N1954 N 0.12239 0.4181 0.51659 0.0
N1955 N 0.1303 0.40555 0.42301 0.0
C1956 C 0.11647 0.41753 0.42518 0.0
C1957 C 0.11217 0.42434 0.4761 0.0
C1958 C 0.59772 0.69722 0.41971 0.0
C1959 C 0.58771 0.68096 0.37641 0.0
C1960 C 0.59209 0.6877 0.47112 0.0
C1961 C 0.57659 0.66149 0.48136 0.0
H1962 H 0.60777 0.71767 0.41396 0.0
H1963 H 0.59809 0.70116 0.50293 0.0
S1964 S 0.54721 0.6107 0.38202 0.0
N1965 N 0.56266 0.63722 0.34759 0.0
N1966 N 0.5528 0.61933 0.44368 0.0
C1967 C 0.56822 0.64491 0.43847 0.0
C1968 C 0.57361 0.65462 0.3862 0.0
C1969 C 0.31381 0.8913 0.42424 0.0
C1970 C 0.32885 0.90417 0.38057 0.0
C1971 C 0.32377 0.89679 0.47498 0.0
C1972 C 0.34918 0.91554 0.48443 0.0
H1973 H 0.29483 0.87523 0.41877 0.0
H1974 H 0.31218 0.88463 0.50654 0.0
S1975 S 0.39598 0.95627 0.3842 0.0
N1976 N 0.36997 0.93776 0.35059 0.0
N1977 N 0.38859 0.9484 0.44597 0.0
C1978 C 0.36378 0.93006 0.4416 0.0
C1979 C 0.35366 0.92429 0.38967 0.0
C1980 C 0.33927 0.27376 0.96605 0.0
C1981 C 0.32282 0.2473 0.96176 0.0
C1982 C 0.36078 0.28697 0.93301 0.0
C1983 C 0.36715 0.27438 0.89441 0.0
H1984 H 0.3349 0.28453 0.99356 0.0
H1985 H 0.37237 0.3074 0.9375 0.0
S1986 S 0.33095 0.20471 0.86972 0.0
N1987 N 0.31488 0.20887 0.91673 0.0
N1988 N 0.3553 0.23323 0.85692 0.0
C1989 C 0.35129 0.24774 0.89143 0.0
C1990 C 0.32921 0.23441 0.92429 0.0
C1991 C 0.74517 0.06623 0.94494 0.0
C1992 C 0.7659 0.07867 0.97986 0.0
C1993 C 0.73775 0.07989 0.91115 0.0
C1994 C 0.75068 0.10669 0.91069 0.0
H1995 H 0.73415 0.04563 0.94426 0.0
H1996 H 0.72104 0.06938 0.88713 0.0
S1997 S 0.80682 0.14889 0.99164 0.0
N1998 N 0.79981 0.11987 1.00899 0.0
N1999 N 0.78572 0.14516 0.94699 0.0
C2000 C 0.77179 0.11934 0.94414 0.0
C2001 C 0.77946 0.10552 0.97812 0.0
C2002 C 0.94007 0.66587 0.90783 0.0
C2003 C 0.91368 0.64948 0.91361 0.0
C2004 C 0.95369 0.68758 0.94005 0.0
C2005 C 0.94162 0.69422 0.97937 0.0
H2006 H 0.95048 0.66135 0.87969 0.0
H2007 H 0.97404 0.69913 0.9343 0.0
S2008 S 0.87229 0.65821 1.00793 0.0
N2009 N 0.87586 0.6419 0.96066 0.0
N2010 N 0.90095 0.68256 0.01932 0.0
C2011 C 0.91503 0.67835 0.98397 0.0
C2012 C 0.9013 0.65612 0.95181 0.0
C2013 C 0.24761 0.31918 0.62693 0.0
C2014 C 0.24646 0.31681 0.57197 0.0
C2015 C 0.25975 0.34303 0.65211 0.0
C2016 C 0.27152 0.36599 0.62386 0.0
H2017 H 0.23861 0.30234 0.65131 0.0
H2018 H 0.25944 0.34338 0.69421 0.0
S2019 S 0.27535 0.37093 0.47907 0.0
N2020 N 0.25923 0.33997 0.49032 0.0
N2021 N 0.28209 0.38463 0.53678 0.0
C2022 C 0.27119 0.36398 0.56875 0.0
C2023 C 0.25875 0.33957 0.54313 0.0
C2024 C 0.65259 0.90937 0.57808 0.0
C2025 C 0.65191 0.90851 0.63321 0.0
C2026 C 0.67565 0.92042 0.54974 0.0
C2027 C 0.69934 0.93126 0.57498 0.0
H2028 H 0.63505 0.90112 0.55614 0.0
H2029 H 0.67482 0.92008 0.50766 0.0
S2030 S 0.70852 0.93489 0.71889 0.0
N2031 N 0.67736 0.92016 0.71166 0.0
N2032 N 0.72046 0.94097 0.65947 0.0
C2033 C 0.69896 0.93095 0.63025 0.0
C2034 C 0.67543 0.91962 0.65899 0.0
C2035 C 0.07213 0.74602 0.57544 0.0
C2036 C 0.08588 0.77282 0.57408 0.0
C2037 C 0.07859 0.73203 0.61057 0.0
C2038 C 0.09912 0.74411 0.64611 0.0
H2039 H 0.05551 0.73579 0.55105 0.0
H2040 H 0.06699 0.71147 0.6104 0.0
S2041 S 0.14186 0.81416 0.65636 0.0
N2042 N 0.12146 0.81087 0.61044 0.0
N2043 N 0.13368 0.78498 0.67497 0.0
C2044 C 0.11346 0.77092 0.64359 0.0
C2045 C 0.1068 0.78508 0.6082 0.0
C2046 C 0.69772 0.78015 0.12313 0.0
C2047 C 0.70187 0.77199 0.07433 0.0
C2048 C 0.67555 0.76531 0.153 0.0
C2049 C 0.65639 0.74117 0.13636 0.0
H2050 H 0.71184 0.79836 0.1388 0.0
H2051 H 0.6737 0.77269 0.19003 0.0
S2052 S 0.65686 0.71102 1.01062 0.0
N2053 N 0.684 0.73835 1.01005 0.0
N2054 N 0.64272 0.71022 0.06608 0.0
C2055 C 0.66003 0.73284 0.08725 0.0
C2056 C 0.68253 0.74825 0.05635 0.0
C2057 C 0.26796 0.90964 0.06982 0.0
C2058 C 0.26843 0.90844 0.12488 0.0
C2059 C 0.25572 0.92089 0.04328 0.0
C2060 C 0.24322 0.93158 0.0703 0.0
H2061 H 0.27684 0.90139 0.04646 0.0
H2062 H 0.25569 0.92075 1.00116 0.0
S2063 S 0.23975 0.9348 0.21478 0.0
N2064 N 0.25599 0.92 0.20525 0.0
N2065 N 0.23308 0.94113 0.1563 0.0
C2066 C 0.24411 0.93117 0.12551 0.0
C2067 C 0.25667 0.9197 0.15248 0.0
C2068 C 0.07213 0.31941 0.10817 0.0
C2069 C 0.07952 0.31749 0.05677 0.0
C2070 C 0.08671 0.34114 0.13965 0.0
C2071 C 0.10931 0.3622 0.12115 0.0
H2072 H 0.05487 0.30388 0.12454 0.0
H2073 H 0.07987 0.34163 0.17829 0.0
S2074 S 0.13775 0.36694 0.99019 0.0
N2075 N 0.11139 0.33899 0.98978 0.0
N2076 N 0.13883 0.37909 0.0481 0.0
C2077 C 0.1171 0.36034 0.07015 0.0
C2078 C 0.10228 0.33829 0.03832 0.0
C2079 C 0.7513 0.65048 0.46436 0.0
C2080 C 0.74989 0.64913 0.40923 0.0
C2081 C 0.76447 0.67395 0.49123 0.0
C2082 C 0.77691 0.69729 0.46428 0.0
H2083 H 0.74268 0.63315 0.4873 0.0
H2084 H 0.76572 0.6737 0.53323 0.0
S2085 S 0.77702 0.70486 0.32025 0.0
N2086 N 0.76085 0.67375 0.32938 0.0
N2087 N 0.78509 0.71745 0.37881 0.0
C2088 C 0.77469 0.69623 0.40925 0.0
C2089 C 0.76139 0.67238 0.38208 0.0
C2090 C 0.35452 0.10873 0.37849 0.0
C2091 C 0.37321 0.10222 0.38982 0.0
C2092 C 0.33332 0.1013 0.41133 0.0
C2093 C 0.32991 0.08747 0.45794 0.0
H2094 H 0.35582 0.11902 0.34306 0.0
H2095 H 0.31917 0.1062 0.39951 0.0
S2096 S 0.37454 0.06768 0.50864 0.0
N2097 N 0.38761 0.08228 0.45325 0.0
N2098 N 0.3481 0.06893 0.51502 0.0
C2099 C 0.34902 0.08184 0.4711 0.0
C2100 C 0.37047 0.08899 0.43708 0.0
C2101 C 0.92203 0.25567 0.38009 0.0
C2102 C 0.91119 0.26778 0.40805 0.0
C2103 C 0.93256 0.24246 0.40556 0.0
C2104 C 0.9329 0.2405 0.46053 0.0
H2105 H 0.92188 0.25585 0.33797 0.0
H2106 H 0.94011 0.23318 0.38138 0.0
S2107 S 0.90832 0.26993 0.55283 0.0
N2108 N 0.90264 0.27789 0.49497 0.0
N2109 N 0.92226 0.25297 0.54194 0.0
C2110 C 0.92295 0.25323 0.48915 0.0
C2111 C 0.91215 0.26677 0.46323 0.0
C2112 C 1.01003 0.58658 0.21793 0.0
C2113 C 0.03316 0.59946 0.24521 0.0
C2114 C 0.98628 0.5753 0.2442 0.0
C2115 C 0.98436 0.57623 0.29914 0.0
H2116 H 1.01022 0.58439 0.17617 0.0
H2117 H 0.96922 0.56518 0.221 0.0
S2118 S 0.03906 0.60965 0.38881 0.0
N2119 N 0.05227 0.61402 0.33079 0.0
N2120 N 1.0081 0.59263 0.37906 0.0
C2121 C 1.0073 0.58979 0.32658 0.0
C2122 C 0.03144 0.6014 0.29999 0.0
C2123 C 0.43591 0.43885 0.21589 0.0
C2124 C 0.41029 0.43111 0.22655 0.0
C2125 C 0.45015 0.43185 0.24852 0.0
C2126 C 0.43984 0.41728 0.2944 0.0
H2127 H 0.44491 0.44983 0.18117 0.0
H2128 H 0.46952 0.43776 0.23723 0.0
S2129 S 0.37425 0.39365 0.34284 0.0
N2130 N 0.37556 0.4088 0.28839 0.0
N2131 N 0.40255 0.39634 0.34971 0.0
C2132 C 0.4146 0.41026 0.30676 0.0
C2133 C 0.39984 0.41694 0.27293 0.0
C2134 C 0.59295 1.00744 0.21971 0.0
C2135 C 0.58392 0.98426 0.24673 0.0
C2136 C 0.60402 0.03104 0.24612 0.0
C2137 C 0.60655 0.03279 0.30103 0.0
H2138 H 0.59106 1.00739 0.17783 0.0
H2139 H 0.61028 0.0481 0.22297 0.0
S2140 S 0.58699 0.97806 0.3907 0.0
N2141 N 0.57933 0.96499 0.33249 0.0
N2142 N 0.59957 0.00896 0.38106 0.0
C2143 C 0.59798 0.00985 0.32846 0.0
C2144 C 0.58688 0.98582 0.30169 0.0
C2145 C 0.40705 0.98474 0.78072 0.0
C2146 C 0.41184 0.98325 0.72724 0.0
C2147 C 0.42124 1.00736 0.80993 0.0
C2148 C 0.44076 0.0298 0.78701 0.0
H2149 H 0.39224 0.96816 0.80055 0.0
H2150 H 0.41663 1.00729 0.85064 0.0
S2151 S 0.46097 0.0363 0.64804 0.0
N2152 N 0.43763 1.00654 0.65295 0.0
N2153 N 0.46416 0.04862 0.70657 0.0
C2154 C 0.44577 0.02846 0.73347 0.0
C2155 C 0.43143 1.00541 0.70404 0.0
C2156 C 0.01639 0.43641 0.71129 0.0
C2157 C 0.03702 0.43417 0.72961 0.0
C2158 C 0.99448 0.42896 0.74197 0.0
C2159 C 0.99202 0.41923 0.79312 0.0
H2160 H 0.0169 0.44353 0.67239 0.0
H2161 H 0.97914 0.43078 0.72497 0.0
S2162 S 0.04127 0.41121 0.86175 0.0
N2163 N 0.05394 0.42247 0.80401 0.0
N2164 N 0.01301 0.40894 0.8613 0.0
C2165 C 0.01281 0.41764 0.8127 0.0
C2166 C 0.03511 0.42491 0.78113 0.0
C2167 C 0.58498 0.58904 0.717 0.0
C2168 C 0.57588 0.60335 0.74277 0.0
C2169 C 0.59597 0.57674 0.7445 0.0
C2170 C 0.59848 0.57797 0.79942 0.0
H2171 H 0.58338 0.58703 0.67512 0.0
H2172 H 0.60237 0.56592 0.72207 0.0
S2173 S 0.57812 0.61322 0.88629 0.0
N2174 N 0.57063 0.61827 0.82746 0.0
N2175 N 0.59101 0.5951 0.87825 0.0
C2176 C 0.58971 0.59239 0.82573 0.0
C2177 C 0.57853 0.60502 0.79776 0.0
loop_
_geom_bond_atom_site_label_1
_geom_bond_atom_site_label_2
_geom_bond_distance
_geom_bond_site_symmetry_2
_ccdc_geom_bond_type
C0 C1 1.351 . S
C0 N3 1.368 . S
C0 H5 0.931 . S
C1 C0 1.351 . S
C1 N2 1.373 . S
C1 H29 0.930 . S
N2 C1 1.373 . S
N2 C4 1.340 . S
N3 C0 1.368 . S
N3 C4 1.321 . S
N3 Co6 2.135 . S
C4 N2 1.340 . S
C4 N3 1.321 . S
C4 H28 0.930 . S
H5 C0 0.931 . S
Co6 N3 2.135 . S
Co6 N9 2.121 . S
Co6 O14 2.055 . S
Co6 O17 2.039 . S
Co6 N20 2.140 . S
C7 O8 1.227 . S
C7 O17 1.265 1_556 S
O8 C7 1.227 . S
N9 Co6 2.121 . S
N9 C11 1.375 1_554 S
N9 C12 1.313 . S
C10 C11 1.338 . S
C10 N13 1.377 . S
C10 H30 0.930 . S
C11 N9 1.375 1_556 S
C11 C10 1.338 . S
C11 H15 0.931 . S
C12 N9 1.313 . S
C12 N13 1.344 1_554 S
C12 H16 0.930 . S
N13 C10 1.377 . S
N13 C12 1.344 1_556 S
O14 Co6 2.055 . S
O14 C18 1.253 . S
H15 C11 0.931 . S
H16 C12 0.930 . S
O17 Co6 2.039 . S
O17 C7 1.265 1_554 S
C18 O14 1.253 . S
C18 O19 1.227 . S
O19 C18 1.227 . S
N20 Co6 2.140 . S
N20 C23 1.346 . S
N20 C24 1.345 . S
C21 C22 1.387 . S
C21 C25 1.391 . S
C22 C21 1.387 . S
C22 C23 1.369 . S
C22 H31 0.929 . S
C23 N20 1.346 . S
C23 C22 1.369 . S
C23 H26 0.928 . S
C24 N20 1.345 . S
C24 C25 1.371 . S
C24 H27 0.931 . S
C25 C21 1.391 . S
C25 C24 1.371 . S
C25 H32 0.930 . S
H26 C23 0.928 . S
H27 C24 0.931 . S
H28 C4 0.930 . S
H29 C1 0.930 . S
H30 C10 0.930 . S
H31 C22 0.929 . S
H32 C25 0.930 . S
C33 C34 1.351 . S
C33 N36 1.368 . S
C33 H38 0.931 . S
C34 C33 1.351 . S
C34 N35 1.373 . S
C34 H62 0.930 . S
N35 C34 1.373 . S
N35 C37 1.340 . S
N36 C33 1.368 . S
N36 C37 1.321 . S
N36 Co39 2.135 . S
C37 N35 1.340 . S
C37 N36 1.321 . S
C37 H61 0.930 . S
H38 C33 0.931 . S
Co39 N36 2.135 . S
Co39 N42 2.121 . S
Co39 O47 2.055 . S
Co39 O50 2.039 . S
Co39 N53 2.140 . S
C40 O41 1.227 . S
C40 O50 1.265 1_556 S
O41 C40 1.227 . S
N42 Co39 2.121 . S
N42 C44 1.375 1_554 S
N42 C45 1.313 . S
C43 C44 1.338 . S
C43 N46 1.377 1_545 S
C43 H63 0.930 . S
C44 N42 1.375 1_556 S
C44 C43 1.338 . S
C44 H48 0.931 . S
C45 N42 1.313 . S
C45 N46 1.344 1_544 S
C45 H49 0.930 . S
N46 C43 1.377 1_565 S
N46 C45 1.344 1_566 S
O47 Co39 2.055 . S
O47 C51 1.253 . S
H48 C44 0.931 . S
H49 C45 0.930 . S
O50 Co39 2.039 . S
O50 C40 1.265 1_554 S
C51 O47 1.253 . S
C51 O52 1.227 . S
O52 C51 1.227 . S
N53 Co39 2.140 . S
N53 C56 1.346 . S
N53 C57 1.345 . S
C54 C55 1.387 . S
C54 C58 1.391 . S
C55 C54 1.387 . S
C55 C56 1.369 . S
C55 H64 0.929 . S
C56 N53 1.346 . S
C56 C55 1.369 . S
C56 H59 0.928 . S
C57 N53 1.345 . S
C57 C58 1.371 . S
C57 H60 0.931 . S
C58 C54 1.391 . S
C58 C57 1.371 . S
C58 H65 0.930 . S
H59 C56 0.928 . S
H60 C57 0.931 . S
H61 C37 0.930 . S
H62 C34 0.930 . S
H63 C43 0.930 . S
H64 C55 0.929 . S
H65 C58 0.930 . S
C66 C67 1.351 . S
C66 N69 1.368 . S
C66 H71 0.931 . S
C67 C66 1.351 . S
C67 N68 1.373 . S
C67 H95 0.930 . S
N68 C67 1.373 . S
N68 C70 1.340 . S
N69 C66 1.368 . S
N69 C70 1.321 . S
N69 Co72 2.135 . S
C70 N68 1.340 . S
C70 N69 1.321 . S
C70 H94 0.930 . S
H71 C66 0.931 . S
Co72 N69 2.135 . S
Co72 N75 2.121 . S
Co72 O80 2.055 . S
Co72 O83 2.039 . S
Co72 N86 2.140 . S
C73 O74 1.227 . S
C73 O83 1.265 1_556 S
O74 C73 1.227 . S
N75 Co72 2.121 . S
N75 C77 1.375 1_554 S
N75 C78 1.313 . S
C76 C77 1.338 . S
C76 N79 1.377 1_655 S
C76 H96 0.930 . S
C77 N75 1.375 1_556 S
C77 C76 1.338 . S
C77 H81 0.931 . S
C78 N75 1.313 . S
C78 N79 1.344 1_654 S
C78 H82 0.930 . S
N79 C76 1.377 1_455 S
N79 C78 1.344 1_456 S
O80 Co72 2.055 . S
O80 C84 1.253 . S
H81 C77 0.931 . S
H82 C78 0.930 . S
O83 Co72 2.039 . S
O83 C73 1.265 1_554 S
C84 O80 1.253 . S
C84 O85 1.227 . S
O85 C84 1.227 . S
N86 Co72 2.140 . S
N86 C89 1.346 . S
N86 C90 1.345 . S
C87 C88 1.387 . S
C87 C91 1.391 . S
C88 C87 1.387 . S
C88 C89 1.369 . S
C88 H97 0.929 . S
C89 N86 1.346 . S
C89 C88 1.369 . S
C89 H92 0.928 . S
C90 N86 1.345 . S
C90 C91 1.371 . S
C90 H93 0.931 . S
C91 C87 1.391 . S
C91 C90 1.371 . S
C91 H98 0.930 . S
H92 C89 0.928 . S
H93 C90 0.931 . S
H94 C70 0.930 . S
H95 C67 0.930 . S
H96 C76 0.930 . S
H97 C88 0.929 . S
H98 C91 0.930 . S
C99 C100 1.351 . S
C99 N102 1.368 . S
C99 H104 0.931 . S
C100 C99 1.351 . S
C100 N101 1.373 . S
C100 H128 0.930 . S
N101 C100 1.373 . S
N101 C103 1.340 . S
N102 C99 1.368 . S
N102 C103 1.321 . S
N102 Co105 2.135 . S
C103 N101 1.340 . S
C103 N102 1.321 . S
C103 H127 0.930 . S
H104 C99 0.931 . S
Co105 N102 2.135 . S
Co105 N108 2.121 . S
Co105 O113 2.055 . S
Co105 O116 2.039 . S
Co105 N119 2.140 . S
C106 O107 1.227 . S
C106 O116 1.265 . S
O107 C106 1.227 . S
N108 Co105 2.121 . S
N108 C110 1.375 . S
N108 C111 1.313 . S
C109 C110 1.338 . S
C109 N112 1.377 . S
C109 H129 0.930 . S
C110 N108 1.375 . S
C110 C109 1.338 . S
C110 H114 0.931 . S
C111 N108 1.313 . S
C111 N112 1.344 . S
C111 H115 0.930 . S
N112 C109 1.377 . S
N112 C111 1.344 . S
O113 Co105 2.055 . S
O113 C117 1.253 . S
H114 C110 0.931 . S
H115 C111 0.930 . S
O116 Co105 2.039 . S
O116 C106 1.265 . S
C117 O113 1.253 . S
C117 O118 1.227 . S
O118 C117 1.227 . S
N119 Co105 2.140 . S
N119 C122 1.346 . S
N119 C123 1.345 . S
C120 C121 1.387 . S
C120 C124 1.391 . S
C121 C120 1.387 . S
C121 C122 1.369 . S
C121 H130 0.929 . S
C122 N119 1.346 . S
C122 C121 1.369 . S
C122 H125 0.928 . S
C123 N119 1.345 . S
C123 C124 1.371 . S
C123 H126 0.931 . S
C124 C120 1.391 . S
C124 C123 1.371 . S
C124 H131 0.930 . S
H125 C122 0.928 . S
H126 C123 0.931 . S
H127 C103 0.930 . S
H128 C100 0.930 . S
H129 C109 0.930 . S
H130 C121 0.929 . S
H131 C124 0.930 . S
C132 C133 1.351 . S
C132 N135 1.368 . S
C132 H137 0.931 . S
C133 C132 1.351 . S
C133 N134 1.373 . S
C133 H161 0.930 . S
N134 C133 1.373 . S
N134 C136 1.340 . S
N135 C132 1.368 . S
N135 C136 1.321 . S
N135 Co138 2.135 . S
C136 N134 1.340 . S
C136 N135 1.321 . S
C136 H160 0.930 . S
H137 C132 0.931 . S
Co138 N135 2.135 . S
Co138 N141 2.121 . S
Co138 O146 2.055 . S
Co138 O149 2.039 . S
Co138 N152 2.140 . S
C139 O140 1.227 . S
C139 O149 1.265 . S
O140 C139 1.227 . S
N141 Co138 2.121 . S
N141 C143 1.375 . S
N141 C144 1.313 . S
C142 C143 1.338 . S
C142 N145 1.377 1_565 S
C142 H162 0.930 . S
C143 N141 1.375 . S
C143 C142 1.338 . S
C143 H147 0.931 . S
C144 N141 1.313 . S
C144 N145 1.344 1_565 S
C144 H148 0.930 . S
N145 C142 1.377 1_545 S
N145 C144 1.344 1_545 S
O146 Co138 2.055 . S
O146 C150 1.253 . S
H147 C143 0.931 . S
H148 C144 0.930 . S
O149 Co138 2.039 . S
O149 C139 1.265 . S
C150 O146 1.253 . S
C150 O151 1.227 . S
O151 C150 1.227 . S
N152 Co138 2.140 . S
N152 C155 1.346 . S
N152 C156 1.345 . S
C153 C154 1.387 . S
C153 C157 1.391 . S
C154 C153 1.387 . S
C154 C155 1.369 . S
C154 H163 0.929 . S
C155 N152 1.346 . S
C155 C154 1.369 . S
C155 H158 0.928 . S
C156 N152 1.345 . S
C156 C157 1.371 . S
C156 H159 0.931 . S
C157 C153 1.391 . S
C157 C156 1.371 . S
C157 H164 0.930 . S
H158 C155 0.928 . S
H159 C156 0.931 . S
H160 C136 0.930 . S
H161 C133 0.930 . S
H162 C142 0.930 . S
H163 C154 0.929 . S
H164 C157 0.930 . S
C165 C166 1.351 . S
C165 N168 1.368 . S
C165 H170 0.931 . S
C166 C165 1.351 . S
C166 N167 1.373 . S
C166 H194 0.930 . S
N167 C166 1.373 . S
N167 C169 1.340 . S
N168 C165 1.368 . S
N168 C169 1.321 . S
N168 Co171 2.135 . S
C169 N167 1.340 . S
C169 N168 1.321 . S
C169 H193 0.930 . S
H170 C165 0.931 . S
Co171 N168 2.135 . S
Co171 N174 2.121 . S
Co171 O179 2.055 . S
Co171 O182 2.039 . S
Co171 N185 2.140 . S
C172 O173 1.227 . S
C172 O182 1.265 . S
O173 C172 1.227 . S
N174 Co171 2.121 . S
N174 C176 1.375 . S
N174 C177 1.313 . S
C175 C176 1.338 . S
C175 N178 1.377 1_455 S
C175 H195 0.930 . S
C176 N174 1.375 . S
C176 C175 1.338 . S
C176 H180 0.931 . S
C177 N174 1.313 . S
C177 N178 1.344 1_455 S
C177 H181 0.930 . S
N178 C175 1.377 1_655 S
N178 C177 1.344 1_655 S
O179 Co171 2.055 . S
O179 C183 1.253 . S
H180 C176 0.931 . S
H181 C177 0.930 . S
O182 Co171 2.039 . S
O182 C172 1.265 . S
C183 O179 1.253 . S
C183 O184 1.227 . S
O184 C183 1.227 . S
N185 Co171 2.140 . S
N185 C188 1.346 . S
N185 C189 1.345 . S
C186 C187 1.387 . S
C186 C190 1.391 . S
C187 C186 1.387 . S
C187 C188 1.369 . S
C187 H196 0.929 . S
C188 N185 1.346 . S
C188 C187 1.369 . S
C188 H191 0.928 . S
C189 N185 1.345 . S
C189 C190 1.371 . S
C189 H192 0.931 . S
C190 C186 1.391 . S
C190 C189 1.371 . S
C190 H197 0.930 . S
H191 C188 0.928 . S
H192 C189 0.931 . S
H193 C169 0.930 . S
H194 C166 0.930 . S
H195 C175 0.930 . S
H196 C187 0.929 . S
H197 C190 0.930 . S
C198 C199 1.351 . S
C198 N201 1.368 . S
C198 H203 0.931 . S
C199 C198 1.351 . S
C199 N200 1.373 . S
C199 H227 0.930 . S
N200 C199 1.373 . S
N200 C202 1.340 . S
N201 C198 1.368 . S
N201 C202 1.321 . S
N201 Co204 2.135 . S
C202 N200 1.340 . S
C202 N201 1.321 . S
C202 H226 0.930 . S
H203 C198 0.931 . S
Co204 N201 2.135 . S
Co204 N207 2.121 . S
Co204 O212 2.055 . S
Co204 O215 2.039 . S
Co204 N218 2.140 . S
C205 O206 1.227 . S
C205 O215 1.265 1_554 S
O206 C205 1.227 . S
N207 Co204 2.121 . S
N207 C209 1.375 1_556 S
N207 C210 1.313 . S
C208 C209 1.338 . S
C208 N211 1.377 . S
C208 H228 0.930 . S
C209 N207 1.375 1_554 S
C209 C208 1.338 . S
C209 H213 0.931 . S
C210 N207 1.313 . S
C210 N211 1.344 1_556 S
C210 H214 0.930 . S
N211 C208 1.377 . S
N211 C210 1.344 1_554 S
O212 Co204 2.055 . S
O212 C216 1.253 . S
H213 C209 0.931 . S
H214 C210 0.930 . S
O215 Co204 2.039 . S
O215 C205 1.265 1_556 S
C216 O212 1.253 . S
C216 O217 1.227 . S
O217 C216 1.227 . S
N218 Co204 2.140 . S
N218 C221 1.346 . S
N218 C222 1.345 . S
C219 C220 1.387 . S
C219 C223 1.391 . S
C220 C219 1.387 . S
C220 C221 1.369 . S
C220 H229 0.929 . S
C221 N218 1.346 . S
C221 C220 1.369 . S
C221 H224 0.928 . S
C222 N218 1.345 . S
C222 C223 1.371 . S
C222 H225 0.931 . S
C223 C219 1.391 . S
C223 C222 1.371 . S
C223 H230 0.930 . S
H224 C221 0.928 . S
H225 C222 0.931 . S
H226 C202 0.930 . S
H227 C199 0.930 . S
H228 C208 0.930 . S
H229 C220 0.929 . S
H230 C223 0.930 . S
C231 C232 1.351 . S
C231 N234 1.368 . S
C231 H236 0.931 . S
C232 C231 1.351 . S
C232 N233 1.373 . S
C232 H260 0.930 . S
N233 C232 1.373 . S
N233 C235 1.340 . S
N234 C231 1.368 . S
N234 C235 1.321 . S
N234 Co237 2.135 . S
C235 N233 1.340 . S
C235 N234 1.321 . S
C235 H259 0.930 . S
H236 C231 0.931 . S
Co237 N234 2.135 . S
Co237 N240 2.121 . S
Co237 O245 2.055 . S
Co237 O248 2.039 . S
Co237 N251 2.140 . S
C238 O239 1.227 . S
C238 O248 1.265 1_554 S
O239 C238 1.227 . S
N240 Co237 2.121 . S
N240 C242 1.375 1_556 S
N240 C243 1.313 . S
C241 C242 1.338 . S
C241 N244 1.377 1_565 S
C241 H261 0.930 . S
C242 N240 1.375 1_554 S
C242 C241 1.338 . S
C242 H246 0.931 . S
C243 N240 1.313 . S
C243 N244 1.344 1_566 S
C243 H247 0.930 . S
N244 C241 1.377 1_545 S
N244 C243 1.344 1_544 S
O245 Co237 2.055 . S
O245 C249 1.253 . S
H246 C242 0.931 . S
H247 C243 0.930 . S
O248 Co237 2.039 . S
O248 C238 1.265 1_556 S
C249 O245 1.253 . S
C249 O250 1.227 . S
O250 C249 1.227 . S
N251 Co237 2.140 . S
N251 C254 1.346 . S
N251 C255 1.345 . S
C252 C253 1.387 . S
C252 C256 1.391 . S
C253 C252 1.387 . S
C253 C254 1.369 . S
C253 H262 0.929 . S
C254 N251 1.346 . S
C254 C253 1.369 . S
C254 H257 0.928 . S
C255 N251 1.345 . S
C255 C256 1.371 . S
C255 H258 0.931 . S
C256 C252 1.391 . S
C256 C255 1.371 . S
C256 H263 0.930 . S
H257 C254 0.928 . S
H258 C255 0.931 . S
H259 C235 0.930 . S
H260 C232 0.930 . S
H261 C241 0.930 . S
H262 C253 0.929 . S
H263 C256 0.930 . S
C264 C265 1.351 . S
C264 N267 1.368 . S
C264 H269 0.931 . S
C265 C264 1.351 . S
C265 N266 1.373 . S
C265 H293 0.930 . S
N266 C265 1.373 . S
N266 C268 1.340 . S
N267 C264 1.368 . S
N267 C268 1.321 . S
N267 Co270 2.135 . S
C268 N266 1.340 . S
C268 N267 1.321 . S
C268 H292 0.930 . S
H269 C264 0.931 . S
Co270 N267 2.135 . S
Co270 N273 2.121 . S
Co270 O278 2.055 . S
Co270 O281 2.039 . S
Co270 N284 2.140 . S
C271 O272 1.227 . S
C271 O281 1.265 1_554 S
O272 C271 1.227 . S
N273 Co270 2.121 . S
N273 C275 1.375 1_556 S
N273 C276 1.313 . S
C274 C275 1.338 . S
C274 N277 1.377 1_455 S
C274 H294 0.930 . S
C275 N273 1.375 1_554 S
C275 C274 1.338 . S
C275 H279 0.931 . S
C276 N273 1.313 . S
C276 N277 1.344 1_456 S
C276 H280 0.930 . S
N277 C274 1.377 1_655 S
N277 C276 1.344 1_654 S
O278 Co270 2.055 . S
O278 C282 1.253 . S
H279 C275 0.931 . S
H280 C276 0.930 . S
O281 Co270 2.039 . S
O281 C271 1.265 1_556 S
C282 O278 1.253 . S
C282 O283 1.227 . S
O283 C282 1.227 . S
N284 Co270 2.140 . S
N284 C287 1.346 . S
N284 C288 1.345 . S
C285 C286 1.387 . S
C285 C289 1.391 . S
C286 C285 1.387 . S
C286 C287 1.369 . S
C286 H295 0.929 . S
C287 N284 1.346 . S
C287 C286 1.369 . S
C287 H290 0.928 . S
C288 N284 1.345 . S
C288 C289 1.371 . S
C288 H291 0.931 . S
C289 C285 1.391 . S
C289 C288 1.371 . S
C289 H296 0.930 . S
H290 C287 0.928 . S
H291 C288 0.931 . S
H292 C268 0.930 . S
H293 C265 0.930 . S
H294 C274 0.930 . S
H295 C286 0.929 . S
H296 C289 0.930 . S
C297 C298 1.351 . S
C297 N300 1.368 . S
C297 H302 0.931 . S
C298 C297 1.351 . S
C298 N299 1.373 . S
C298 H326 0.930 . S
N299 C298 1.373 . S
N299 C301 1.340 . S
N300 C297 1.368 . S
N300 C301 1.321 . S
N300 Co303 2.135 . S
C301 N299 1.340 . S
C301 N300 1.321 . S
C301 H325 0.930 . S
H302 C297 0.931 . S
Co303 N300 2.135 . S
Co303 N306 2.121 . S
Co303 O311 2.055 . S
Co303 O314 2.039 . S
Co303 N317 2.140 . S
C304 O305 1.227 . S
C304 O314 1.265 . S
O305 C304 1.227 . S
N306 Co303 2.121 . S
N306 C308 1.375 . S
N306 C309 1.313 . S
C307 C308 1.338 . S
C307 N310 1.377 . S
C307 H327 0.930 . S
C308 N306 1.375 . S
C308 C307 1.338 . S
C308 H312 0.931 . S
C309 N306 1.313 . S
C309 N310 1.344 . S
C309 H313 0.930 . S
N310 C307 1.377 . S
N310 C309 1.344 . S
O311 Co303 2.055 . S
O311 C315 1.253 . S
H312 C308 0.931 . S
H313 C309 0.930 . S
O314 Co303 2.039 . S
O314 C304 1.265 . S
C315 O311 1.253 . S
C315 O316 1.227 . S
O316 C315 1.227 . S
N317 Co303 2.140 . S
N317 C320 1.346 . S
N317 C321 1.345 . S
C318 C319 1.387 . S
C318 C322 1.391 . S
C319 C318 1.387 . S
C319 C320 1.369 . S
C319 H328 0.929 . S
C320 N317 1.346 . S
C320 C319 1.369 . S
C320 H323 0.928 . S
C321 N317 1.345 . S
C321 C322 1.371 . S
C321 H324 0.931 . S
C322 C318 1.391 . S
C322 C321 1.371 . S
C322 H329 0.930 . S
H323 C320 0.928 . S
H324 C321 0.931 . S
H325 C301 0.930 . S
H326 C298 0.930 . S
H327 C307 0.930 . S
H328 C319 0.929 . S
H329 C322 0.930 . S
C330 C331 1.351 . S
C330 N333 1.368 . S
C330 H335 0.931 . S
C331 C330 1.351 . S
C331 N332 1.373 . S
C331 H359 0.930 . S
N332 C331 1.373 . S
N332 C334 1.340 . S
N333 C330 1.368 . S
N333 C334 1.321 . S
N333 Co336 2.135 . S
C334 N332 1.340 . S
C334 N333 1.321 . S
C334 H358 0.930 . S
H335 C330 0.931 . S
Co336 N333 2.135 . S
Co336 N339 2.121 . S
Co336 O344 2.055 . S
Co336 O347 2.039 . S
Co336 N350 2.140 . S
C337 O338 1.227 . S
C337 O347 1.265 . S
O338 C337 1.227 . S
N339 Co336 2.121 . S
N339 C341 1.375 . S
N339 C342 1.313 . S
C340 C341 1.338 . S
C340 N343 1.377 1_545 S
C340 H360 0.930 . S
C341 N339 1.375 . S
C341 C340 1.338 . S
C341 H345 0.931 . S
C342 N339 1.313 . S
C342 N343 1.344 1_545 S
C342 H346 0.930 . S
N343 C340 1.377 1_565 S
N343 C342 1.344 1_565 S
O344 Co336 2.055 . S
O344 C348 1.253 . S
H345 C341 0.931 . S
H346 C342 0.930 . S
O347 Co336 2.039 . S
O347 C337 1.265 . S
C348 O344 1.253 . S
C348 O349 1.227 . S
O349 C348 1.227 . S
N350 Co336 2.140 . S
N350 C353 1.346 . S
N350 C354 1.345 . S
C351 C352 1.387 . S
C351 C355 1.391 . S
C352 C351 1.387 . S
C352 C353 1.369 . S
C352 H361 0.929 . S
C353 N350 1.346 . S
C353 C352 1.369 . S
C353 H356 0.928 . S
C354 N350 1.345 . S
C354 C355 1.371 . S
C354 H357 0.931 . S
C355 C351 1.391 . S
C355 C354 1.371 . S
C355 H362 0.930 . S
H356 C353 0.928 . S
H357 C354 0.931 . S
H358 C334 0.930 . S
H359 C331 0.930 . S
H360 C340 0.930 . S
H361 C352 0.929 . S
H362 C355 0.930 . S
C363 C364 1.351 . S
C363 N366 1.368 . S
C363 H368 0.931 . S
C364 C363 1.351 . S
C364 N365 1.373 . S
C364 H392 0.930 . S
N365 C364 1.373 . S
N365 C367 1.340 . S
N366 C363 1.368 . S
N366 C367 1.321 . S
N366 Co369 2.135 . S
C367 N365 1.340 . S
C367 N366 1.321 . S
C367 H391 0.930 . S
H368 C363 0.931 . S
Co369 N366 2.135 . S
Co369 N372 2.121 . S
Co369 O377 2.055 . S
Co369 O380 2.039 . S
Co369 N383 2.140 . S
C370 O371 1.227 . S
C370 O380 1.265 . S
O371 C370 1.227 . S
N372 Co369 2.121 . S
N372 C374 1.375 . S
N372 C375 1.313 . S
C373 C374 1.338 . S
C373 N376 1.377 1_655 S
C373 H393 0.930 . S
C374 N372 1.375 . S
C374 C373 1.338 . S
C374 H378 0.931 . S
C375 N372 1.313 . S
C375 N376 1.344 1_655 S
C375 H379 0.930 . S
N376 C373 1.377 1_455 S
N376 C375 1.344 1_455 S
O377 Co369 2.055 . S
O377 C381 1.253 . S
H378 C374 0.931 . S
H379 C375 0.930 . S
O380 Co369 2.039 . S
O380 C370 1.265 . S
C381 O377 1.253 . S
C381 O382 1.227 . S
O382 C381 1.227 . S
N383 Co369 2.140 . S
N383 C386 1.346 . S
N383 C387 1.345 . S
C384 C385 1.387 . S
C384 C388 1.391 . S
C385 C384 1.387 . S
C385 C386 1.369 . S
C385 H394 0.929 . S
C386 N383 1.346 . S
C386 C385 1.369 . S
C386 H389 0.928 . S
C387 N383 1.345 . S
C387 C388 1.371 . S
C387 H390 0.931 . S
C388 C384 1.391 . S
C388 C387 1.371 . S
C388 H395 0.930 . S
H389 C386 0.928 . S
H390 C387 0.931 . S
H391 C367 0.930 . S
H392 C364 0.930 . S
H393 C373 0.930 . S
H394 C385 0.929 . S
H395 C388 0.930 . S
C396 C397 1.351 . S
C396 N399 1.368 . S
C396 H401 0.931 . S
C397 C396 1.351 . S
C397 N398 1.373 . S
C397 H425 0.930 . S
N398 C397 1.373 . S
N398 C400 1.340 . S
N399 C396 1.368 . S
N399 C400 1.321 . S
N399 Co402 2.135 . S
C400 N398 1.340 . S
C400 N399 1.321 . S
C400 H424 0.930 . S
H401 C396 0.931 . S
Co402 N399 2.135 . S
Co402 N405 2.121 . S
Co402 O410 2.055 . S
Co402 O413 2.039 . S
Co402 N416 2.140 . S
C403 O404 1.227 . S
C403 O413 1.265 . S
O404 C403 1.227 . S
N405 Co402 2.121 . S
N405 C407 1.375 . S
N405 C408 1.313 . S
C406 C407 1.338 . S
C406 N409 1.377 . S
C406 H426 0.930 . S
C407 N405 1.375 . S
C407 C406 1.338 . S
C407 H411 0.931 . S
C408 N405 1.313 . S
C408 N409 1.344 . S
C408 H412 0.930 . S
N409 C406 1.377 . S
N409 C408 1.344 . S
O410 Co402 2.055 . S
O410 C414 1.253 . S
H411 C407 0.931 . S
H412 C408 0.930 . S
O413 Co402 2.039 . S
O413 C403 1.265 . S
C414 O410 1.253 . S
C414 O415 1.227 . S
O415 C414 1.227 . S
N416 Co402 2.140 . S
N416 C419 1.346 . S
N416 C420 1.345 . S
C417 C418 1.387 . S
C417 C421 1.391 . S
C418 C417 1.387 . S
C418 C419 1.369 . S
C418 H427 0.929 . S
C419 N416 1.346 . S
C419 C418 1.369 . S
C419 H422 0.928 . S
C420 N416 1.345 . S
C420 C421 1.371 . S
C420 H423 0.931 . S
C421 C417 1.391 . S
C421 C420 1.371 . S
C421 H428 0.930 . S
H422 C419 0.928 . S
H423 C420 0.931 . S
H424 C400 0.930 . S
H425 C397 0.930 . S
H426 C406 0.930 . S
H427 C418 0.929 . S
H428 C421 0.930 . S
C429 C430 1.351 . S
C429 N432 1.368 . S
C429 H434 0.931 . S
C430 C429 1.351 . S
C430 N431 1.373 . S
C430 H458 0.930 . S
N431 C430 1.373 . S
N431 C433 1.340 . S
N432 C429 1.368 . S
N432 C433 1.321 . S
N432 Co435 2.135 . S
C433 N431 1.340 . S
C433 N432 1.321 . S
C433 H457 0.930 . S
H434 C429 0.931 . S
Co435 N432 2.135 . S
Co435 N438 2.121 . S
Co435 O443 2.055 . S
Co435 O446 2.039 . S
Co435 N449 2.140 . S
C436 O437 1.227 . S
C436 O446 1.265 . S
O437 C436 1.227 . S
N438 Co435 2.121 . S
N438 C440 1.375 . S
N438 C441 1.313 . S
C439 C440 1.338 . S
C439 N442 1.377 . S
C439 H459 0.930 . S
C440 N438 1.375 . S
C440 C439 1.338 . S
C440 H444 0.931 . S
C441 N438 1.313 . S
C441 N442 1.344 . S
C441 H445 0.930 . S
N442 C439 1.377 . S
N442 C441 1.344 . S
O443 Co435 2.055 . S
O443 C447 1.253 . S
H444 C440 0.931 . S
H445 C441 0.930 . S
O446 Co435 2.039 . S
O446 C436 1.265 . S
C447 O443 1.253 . S
C447 O448 1.227 . S
O448 C447 1.227 . S
N449 Co435 2.140 . S
N449 C452 1.346 . S
N449 C453 1.345 . S
C450 C451 1.387 . S
C450 C454 1.391 . S
C451 C450 1.387 . S
C451 C452 1.369 . S
C451 H460 0.929 . S
C452 N449 1.346 . S
C452 C451 1.369 . S
C452 H455 0.928 . S
C453 N449 1.345 . S
C453 C454 1.371 . S
C453 H456 0.931 . S
C454 C450 1.391 . S
C454 C453 1.371 . S
C454 H461 0.930 . S
H455 C452 0.928 . S
H456 C453 0.931 . S
H457 C433 0.930 . S
H458 C430 0.930 . S
H459 C439 0.930 . S
H460 C451 0.929 . S
H461 C454 0.930 . S
C462 C463 1.351 . S
C462 N465 1.368 . S
C462 H467 0.931 . S
C463 C462 1.351 . S
C463 N464 1.373 . S
C463 H491 0.930 . S
N464 C463 1.373 . S
N464 C466 1.340 . S
N465 C462 1.368 . S
N465 C466 1.321 . S
N465 Co468 2.135 . S
C466 N464 1.340 . S
C466 N465 1.321 . S
C466 H490 0.930 . S
H467 C462 0.931 . S
Co468 N465 2.135 . S
Co468 N471 2.121 . S
Co468 O476 2.055 . S
Co468 O479 2.039 . S
Co468 N482 2.140 . S
C469 O470 1.227 . S
C469 O479 1.265 . S
O470 C469 1.227 . S
N471 Co468 2.121 . S
N471 C473 1.375 . S
N471 C474 1.313 . S
C472 C473 1.338 . S
C472 N475 1.377 . S
C472 H492 0.930 . S
C473 N471 1.375 . S
C473 C472 1.338 . S
C473 H477 0.931 . S
C474 N471 1.313 . S
C474 N475 1.344 . S
C474 H478 0.930 . S
N475 C472 1.377 . S
N475 C474 1.344 . S
O476 Co468 2.055 . S
O476 C480 1.253 . S
H477 C473 0.931 . S
H478 C474 0.930 . S
O479 Co468 2.039 . S
O479 C469 1.265 . S
C480 O476 1.253 . S
C480 O481 1.227 . S
O481 C480 1.227 . S
N482 Co468 2.140 . S
N482 C485 1.346 . S
N482 C486 1.345 . S
C483 C484 1.387 . S
C483 C487 1.391 . S
C484 C483 1.387 . S
C484 C485 1.369 . S
C484 H493 0.929 . S
C485 N482 1.346 . S
C485 C484 1.369 . S
C485 H488 0.928 . S
C486 N482 1.345 . S
C486 C487 1.371 . S
C486 H489 0.931 . S
C487 C483 1.391 . S
C487 C486 1.371 . S
C487 H494 0.930 . S
H488 C485 0.928 . S
H489 C486 0.931 . S
H490 C466 0.930 . S
H491 C463 0.930 . S
H492 C472 0.930 . S
H493 C484 0.929 . S
H494 C487 0.930 . S
C495 C496 1.351 . S
C495 N498 1.368 . S
C495 H500 0.931 . S
C496 C495 1.351 . S
C496 N497 1.373 . S
C496 H524 0.930 . S
N497 C496 1.373 . S
N497 C499 1.340 . S
N498 C495 1.368 . S
N498 C499 1.321 . S
N498 Co501 2.135 . S
C499 N497 1.340 . S
C499 N498 1.321 . S
C499 H523 0.930 . S
H500 C495 0.931 . S
Co501 N498 2.135 . S
Co501 N504 2.121 . S
Co501 O509 2.055 . S
Co501 O512 2.039 . S
Co501 N515 2.140 . S
C502 O503 1.227 . S
C502 O512 1.265 . S
O503 C502 1.227 . S
N504 Co501 2.121 . S
N504 C506 1.375 . S
N504 C507 1.313 . S
C505 C506 1.338 . S
C505 N508 1.377 . S
C505 H525 0.930 . S
C506 N504 1.375 . S
C506 C505 1.338 . S
C506 H510 0.931 . S
C507 N504 1.313 . S
C507 N508 1.344 . S
C507 H511 0.930 . S
N508 C505 1.377 . S
N508 C507 1.344 . S
O509 Co501 2.055 . S
O509 C513 1.253 . S
H510 C506 0.931 . S
H511 C507 0.930 . S
O512 Co501 2.039 . S
O512 C502 1.265 . S
C513 O509 1.253 . S
C513 O514 1.227 . S
O514 C513 1.227 . S
N515 Co501 2.140 . S
N515 C518 1.346 . S
N515 C519 1.345 . S
C516 C517 1.387 . S
C516 C520 1.391 . S
C517 C516 1.387 . S
C517 C518 1.369 . S
C517 H526 0.929 . S
C518 N515 1.346 . S
C518 C517 1.369 . S
C518 H521 0.928 . S
C519 N515 1.345 . S
C519 C520 1.371 . S
C519 H522 0.931 . S
C520 C516 1.391 . S
C520 C519 1.371 . S
C520 H527 0.930 . S
H521 C518 0.928 . S
H522 C519 0.931 . S
H523 C499 0.930 . S
H524 C496 0.930 . S
H525 C505 0.930 . S
H526 C517 0.929 . S
H527 C520 0.930 . S
C528 C529 1.351 . S
C528 N531 1.368 . S
C528 H533 0.931 . S
C529 C528 1.351 . S
C529 N530 1.373 . S
C529 H557 0.930 . S
N530 C529 1.373 . S
N530 C532 1.340 . S
N531 C528 1.368 . S
N531 C532 1.321 . S
N531 Co534 2.135 . S
C532 N530 1.340 . S
C532 N531 1.321 . S
C532 H556 0.930 . S
H533 C528 0.931 . S
Co534 N531 2.135 . S
Co534 N537 2.121 . S
Co534 O542 2.055 . S
Co534 O545 2.039 . S
Co534 N548 2.140 . S
C535 O536 1.227 . S
C535 O545 1.265 . S
O536 C535 1.227 . S
N537 Co534 2.121 . S
N537 C539 1.375 . S
N537 C540 1.313 . S
C538 C539 1.338 . S
C538 N541 1.377 . S
C538 H558 0.930 . S
C539 N537 1.375 . S
C539 C538 1.338 . S
C539 H543 0.931 . S
C540 N537 1.313 . S
C540 N541 1.344 . S
C540 H544 0.930 . S
N541 C538 1.377 . S
N541 C540 1.344 . S
O542 Co534 2.055 . S
O542 C546 1.253 . S
H543 C539 0.931 . S
H544 C540 0.930 . S
O545 Co534 2.039 . S
O545 C535 1.265 . S
C546 O542 1.253 . S
C546 O547 1.227 . S
O547 C546 1.227 . S
N548 Co534 2.140 . S
N548 C551 1.346 . S
N548 C552 1.345 . S
C549 C550 1.387 . S
C549 C553 1.391 . S
C550 C549 1.387 . S
C550 C551 1.369 . S
C550 H559 0.929 . S
C551 N548 1.346 . S
C551 C550 1.369 . S
C551 H554 0.928 . S
C552 N548 1.345 . S
C552 C553 1.371 . S
C552 H555 0.931 . S
C553 C549 1.391 . S
C553 C552 1.371 . S
C553 H560 0.930 . S
H554 C551 0.928 . S
H555 C552 0.931 . S
H556 C532 0.930 . S
H557 C529 0.930 . S
H558 C538 0.930 . S
H559 C550 0.929 . S
H560 C553 0.930 . S
C561 C562 1.351 . S
C561 N564 1.368 . S
C561 H566 0.931 . S
C562 C561 1.351 . S
C562 N563 1.373 . S
C562 H590 0.930 . S
N563 C562 1.373 . S
N563 C565 1.340 . S
N564 C561 1.368 . S
N564 C565 1.321 . S
N564 Co567 2.135 . S
C565 N563 1.340 . S
C565 N564 1.321 . S
C565 H589 0.930 . S
H566 C561 0.931 . S
Co567 N564 2.135 . S
Co567 N570 2.121 . S
Co567 O575 2.055 . S
Co567 O578 2.039 . S
Co567 N581 2.140 . S
C568 O569 1.227 . S
C568 O578 1.265 . S
O569 C568 1.227 . S
N570 Co567 2.121 . S
N570 C572 1.375 . S
N570 C573 1.313 . S
C571 C572 1.338 . S
C571 N574 1.377 . S
C571 H591 0.930 . S
C572 N570 1.375 . S
C572 C571 1.338 . S
C572 H576 0.931 . S
C573 N570 1.313 . S
C573 N574 1.344 . S
C573 H577 0.930 . S
N574 C571 1.377 . S
N574 C573 1.344 . S
O575 Co567 2.055 . S
O575 C579 1.253 . S
H576 C572 0.931 . S
H577 C573 0.930 . S
O578 Co567 2.039 . S
O578 C568 1.265 . S
C579 O575 1.253 . S
C579 O580 1.227 . S
O580 C579 1.227 . S
N581 Co567 2.140 . S
N581 C584 1.346 . S
N581 C585 1.345 . S
C582 C583 1.387 . S
C582 C586 1.391 . S
C583 C582 1.387 . S
C583 C584 1.369 . S
C583 H592 0.929 . S
C584 N581 1.346 . S
C584 C583 1.369 . S
C584 H587 0.928 . S
C585 N581 1.345 . S
C585 C586 1.371 . S
C585 H588 0.931 . S
C586 C582 1.391 . S
C586 C585 1.371 . S
C586 H593 0.930 . S
H587 C584 0.928 . S
H588 C585 0.931 . S
H589 C565 0.930 . S
H590 C562 0.930 . S
H591 C571 0.930 . S
H592 C583 0.929 . S
H593 C586 0.930 . S
C594 C595 1.351 . S
C594 N597 1.368 . S
C594 H599 0.931 . S
C595 C594 1.351 . S
C595 N596 1.373 . S
C595 H623 0.930 . S
N596 C595 1.373 . S
N596 C598 1.340 . S
N597 C594 1.368 . S
N597 C598 1.321 . S
N597 Co600 2.135 . S
C598 N596 1.340 . S
C598 N597 1.321 . S
C598 H622 0.930 . S
H599 C594 0.931 . S
Co600 N597 2.135 . S
Co600 N603 2.121 . S
Co600 O608 2.055 . S
Co600 O611 2.039 . S
Co600 N614 2.140 . S
C601 O602 1.227 . S
C601 O611 1.265 . S
O602 C601 1.227 . S
N603 Co600 2.121 . S
N603 C605 1.375 . S
N603 C606 1.313 . S
C604 C605 1.338 . S
C604 N607 1.377 . S
C604 H624 0.930 . S
C605 N603 1.375 . S
C605 C604 1.338 . S
C605 H609 0.931 . S
C606 N603 1.313 . S
C606 N607 1.344 . S
C606 H610 0.930 . S
N607 C604 1.377 . S
N607 C606 1.344 . S
O608 Co600 2.055 . S
O608 C612 1.253 . S
H609 C605 0.931 . S
H610 C606 0.930 . S
O611 Co600 2.039 . S
O611 C601 1.265 . S
C612 O608 1.253 . S
C612 O613 1.227 . S
O613 C612 1.227 . S
N614 Co600 2.140 . S
N614 C617 1.346 . S
N614 C618 1.345 . S
C615 C616 1.387 . S
C615 C619 1.391 . S
C616 C615 1.387 . S
C616 C617 1.369 . S
C616 H625 0.929 . S
C617 N614 1.346 . S
C617 C616 1.369 . S
C617 H620 0.928 . S
C618 N614 1.345 . S
C618 C619 1.371 . S
C618 H621 0.931 . S
C619 C615 1.391 . S
C619 C618 1.371 . S
C619 H626 0.930 . S
H620 C617 0.928 . S
H621 C618 0.931 . S
H622 C598 0.930 . S
H623 C595 0.930 . S
H624 C604 0.930 . S
H625 C616 0.929 . S
H626 C619 0.930 . S
C627 C628 1.351 . S
C627 N630 1.368 . S
C627 H632 0.931 . S
C628 C627 1.351 . S
C628 N629 1.373 . S
C628 H656 0.930 . S
N629 C628 1.373 . S
N629 C631 1.340 . S
N630 C627 1.368 . S
N630 C631 1.321 . S
N630 Co633 2.135 . S
C631 N629 1.340 . S
C631 N630 1.321 . S
C631 H655 0.930 . S
H632 C627 0.931 . S
Co633 N630 2.135 . S
Co633 N636 2.121 . S
Co633 O641 2.055 . S
Co633 O644 2.039 . S
Co633 N647 2.140 . S
C634 O635 1.227 . S
C634 O644 1.265 . S
O635 C634 1.227 . S
N636 Co633 2.121 . S
N636 C638 1.375 . S
N636 C639 1.313 . S
C637 C638 1.338 . S
C637 N640 1.377 . S
C637 H657 0.930 . S
C638 N636 1.375 . S
C638 C637 1.338 . S
C638 H642 0.931 . S
C639 N636 1.313 . S
C639 N640 1.344 . S
C639 H643 0.930 . S
N640 C637 1.377 . S
N640 C639 1.344 . S
O641 Co633 2.055 . S
O641 C645 1.253 . S
H642 C638 0.931 . S
H643 C639 0.930 . S
O644 Co633 2.039 . S
O644 C634 1.265 . S
C645 O641 1.253 . S
C645 O646 1.227 . S
O646 C645 1.227 . S
N647 Co633 2.140 . S
N647 C650 1.346 . S
N647 C651 1.345 . S
C648 C649 1.387 . S
C648 C652 1.391 . S
C649 C648 1.387 . S
C649 C650 1.369 . S
C649 H658 0.929 . S
C650 N647 1.346 . S
C650 C649 1.369 . S
C650 H653 0.928 . S
C651 N647 1.345 . S
C651 C652 1.371 . S
C651 H654 0.931 . S
C652 C648 1.391 . S
C652 C651 1.371 . S
C652 H659 0.930 . S
H653 C650 0.928 . S
H654 C651 0.931 . S
H655 C631 0.930 . S
H656 C628 0.930 . S
H657 C637 0.930 . S
H658 C649 0.929 . S
H659 C652 0.930 . S
C660 C661 1.351 . S
C660 N663 1.368 . S
C660 H665 0.931 . S
C661 C660 1.351 . S
C661 N662 1.373 . S
C661 H689 0.930 . S
N662 C661 1.373 . S
N662 C664 1.340 . S
N663 C660 1.368 . S
N663 C664 1.321 . S
N663 Co666 2.135 . S
C664 N662 1.340 . S
C664 N663 1.321 . S
C664 H688 0.930 . S
H665 C660 0.931 . S
Co666 N663 2.135 . S
Co666 N669 2.121 . S
Co666 O674 2.055 . S
Co666 O677 2.039 . S
Co666 N680 2.140 . S
C667 O668 1.227 . S
C667 O677 1.265 . S
O668 C667 1.227 . S
N669 Co666 2.121 . S
N669 C671 1.375 . S
N669 C672 1.313 . S
C670 C671 1.338 . S
C670 N673 1.377 . S
C670 H690 0.930 . S
C671 N669 1.375 . S
C671 C670 1.338 . S
C671 H675 0.931 . S
C672 N669 1.313 . S
C672 N673 1.344 . S
C672 H676 0.930 . S
N673 C670 1.377 . S
N673 C672 1.344 . S
O674 Co666 2.055 . S
O674 C678 1.253 . S
H675 C671 0.931 . S
H676 C672 0.930 . S
O677 Co666 2.039 . S
O677 C667 1.265 . S
C678 O674 1.253 . S
C678 O679 1.227 . S
O679 C678 1.227 . S
N680 Co666 2.140 . S
N680 C683 1.346 . S
N680 C684 1.345 . S
C681 C682 1.387 . S
C681 C685 1.391 . S
C682 C681 1.387 . S
C682 C683 1.369 . S
C682 H691 0.929 . S
C683 N680 1.346 . S
C683 C682 1.369 . S
C683 H686 0.928 . S
C684 N680 1.345 . S
C684 C685 1.371 . S
C684 H687 0.931 . S
C685 C681 1.391 . S
C685 C684 1.371 . S
C685 H692 0.930 . S
H686 C683 0.928 . S
H687 C684 0.931 . S
H688 C664 0.930 . S
H689 C661 0.930 . S
H690 C670 0.930 . S
H691 C682 0.929 . S
H692 C685 0.930 . S
C693 C694 1.351 1_556 S
C693 N696 1.368 . S
C693 H698 0.931 1_556 S
C694 C693 1.351 1_554 S
C694 N695 1.373 1_554 S
C694 H722 0.930 . S
N695 C694 1.373 1_556 S
N695 C697 1.340 . S
N696 C693 1.368 . S
N696 C697 1.321 . S
N696 Co699 2.135 . S
C697 N695 1.340 . S
C697 N696 1.321 . S
C697 H721 0.930 . S
H698 C693 0.931 1_554 S
Co699 N696 2.135 . S
Co699 N702 2.121 . S
Co699 O707 2.055 . S
Co699 O710 2.039 . S
Co699 N713 2.140 . S
C700 O701 1.227 . S
C700 O710 1.265 . S
O701 C700 1.227 . S
N702 Co699 2.121 . S
N702 C704 1.375 . S
N702 C705 1.313 . S
C703 C704 1.338 . S
C703 N706 1.377 . S
C703 H723 0.930 . S
C704 N702 1.375 . S
C704 C703 1.338 . S
C704 H708 0.931 . S
C705 N702 1.313 . S
C705 N706 1.344 . S
C705 H709 0.930 . S
N706 C703 1.377 . S
N706 C705 1.344 . S
O707 Co699 2.055 . S
O707 C711 1.253 . S
H708 C704 0.931 . S
H709 C705 0.930 . S
O710 Co699 2.039 . S
O710 C700 1.265 . S
C711 O707 1.253 . S
C711 O712 1.227 . S
O712 C711 1.227 . S
N713 Co699 2.140 . S
N713 C716 1.346 . S
N713 C717 1.345 . S
C714 C715 1.387 . S
C714 C718 1.391 . S
C715 C714 1.387 . S
C715 C716 1.369 . S
C715 H724 0.929 . S
C716 N713 1.346 . S
C716 C715 1.369 . S
C716 H719 0.928 . S
C717 N713 1.345 . S
C717 C718 1.371 . S
C717 H720 0.931 . S
C718 C714 1.391 . S
C718 C717 1.371 . S
C718 H725 0.930 . S
H719 C716 0.928 . S
H720 C717 0.931 . S
H721 C697 0.930 . S
H722 C694 0.930 . S
H723 C703 0.930 . S
H724 C715 0.929 . S
H725 C718 0.930 . S
C726 C727 1.351 1_556 S
C726 N729 1.368 . S
C726 H731 0.931 1_556 S
C727 C726 1.351 1_554 S
C727 N728 1.373 1_554 S
C727 H755 0.930 . S
N728 C727 1.373 1_556 S
N728 C730 1.340 . S
N729 C726 1.368 . S
N729 C730 1.321 . S
N729 Co732 2.135 . S
C730 N728 1.340 . S
C730 N729 1.321 . S
C730 H754 0.930 . S
H731 C726 0.931 1_554 S
Co732 N729 2.135 . S
Co732 N735 2.121 . S
Co732 O740 2.055 . S
Co732 O743 2.039 . S
Co732 N746 2.140 . S
C733 O734 1.227 . S
C733 O743 1.265 . S
O734 C733 1.227 . S
N735 Co732 2.121 . S
N735 C737 1.375 . S
N735 C738 1.313 . S
C736 C737 1.338 . S
C736 N739 1.377 . S
C736 H756 0.930 . S
C737 N735 1.375 . S
C737 C736 1.338 . S
C737 H741 0.931 . S
C738 N735 1.313 . S
C738 N739 1.344 . S
C738 H742 0.930 . S
N739 C736 1.377 . S
N739 C738 1.344 . S
O740 Co732 2.055 . S
O740 C744 1.253 . S
H741 C737 0.931 . S
H742 C738 0.930 . S
O743 Co732 2.039 . S
O743 C733 1.265 . S
C744 O740 1.253 . S
C744 O745 1.227 . S
O745 C744 1.227 . S
N746 Co732 2.140 . S
N746 C749 1.346 . S
N746 C750 1.345 . S
C747 C748 1.387 . S
C747 C751 1.391 . S
C748 C747 1.387 . S
C748 C749 1.369 . S
C748 H757 0.929 . S
C749 N746 1.346 . S
C749 C748 1.369 . S
C749 H752 0.928 . S
C750 N746 1.345 . S
C750 C751 1.371 . S
C750 H753 0.931 . S
C751 C747 1.391 . S
C751 C750 1.371 . S
C751 H758 0.930 . S
H752 C749 0.928 . S
H753 C750 0.931 . S
H754 C730 0.930 . S
H755 C727 0.930 . S
H756 C736 0.930 . S
H757 C748 0.929 . S
H758 C751 0.930 . S
C759 C760 1.351 1_556 S
C759 N762 1.368 . S
C759 H764 0.931 1_556 S
C760 C759 1.351 1_554 S
C760 N761 1.373 1_554 S
C760 H788 0.930 . S
N761 C760 1.373 1_556 S
N761 C763 1.340 . S
N762 C759 1.368 . S
N762 C763 1.321 . S
N762 Co765 2.135 . S
C763 N761 1.340 . S
C763 N762 1.321 . S
C763 H787 0.930 . S
H764 C759 0.931 1_554 S
Co765 N762 2.135 . S
Co765 N768 2.121 . S
Co765 O773 2.055 . S
Co765 O776 2.039 . S
Co765 N779 2.140 . S
C766 O767 1.227 . S
C766 O776 1.265 . S
O767 C766 1.227 . S
N768 Co765 2.121 . S
N768 C770 1.375 . S
N768 C771 1.313 . S
C769 C770 1.338 . S
C769 N772 1.377 . S
C769 H789 0.930 . S
C770 N768 1.375 . S
C770 C769 1.338 . S
C770 H774 0.931 . S
C771 N768 1.313 . S
C771 N772 1.344 . S
C771 H775 0.930 . S
N772 C769 1.377 . S
N772 C771 1.344 . S
O773 Co765 2.055 . S
O773 C777 1.253 . S
H774 C770 0.931 . S
H775 C771 0.930 . S
O776 Co765 2.039 . S
O776 C766 1.265 . S
C777 O773 1.253 . S
C777 O778 1.227 . S
O778 C777 1.227 . S
N779 Co765 2.140 . S
N779 C782 1.346 . S
N779 C783 1.345 . S
C780 C781 1.387 . S
C780 C784 1.391 . S
C781 C780 1.387 . S
C781 C782 1.369 . S
C781 H790 0.929 . S
C782 N779 1.346 . S
C782 C781 1.369 . S
C782 H785 0.928 . S
C783 N779 1.345 . S
C783 C784 1.371 . S
C783 H786 0.931 . S
C784 C780 1.391 . S
C784 C783 1.371 . S
C784 H791 0.930 . S
H785 C782 0.928 . S
H786 C783 0.931 . S
H787 C763 0.930 . S
H788 C760 0.930 . S
H789 C769 0.930 . S
H790 C781 0.929 . S
H791 C784 0.930 . S
C792 C793 1.351 . S
C792 N795 1.368 . S
C792 H797 0.931 . S
C793 C792 1.351 . S
C793 N794 1.373 . S
C793 H821 0.930 . S
N794 C793 1.373 . S
N794 C796 1.340 . S
N795 C792 1.368 . S
N795 C796 1.321 . S
N795 Co798 2.135 . S
C796 N794 1.340 . S
C796 N795 1.321 . S
C796 H820 0.930 . S
H797 C792 0.931 . S
Co798 N795 2.135 . S
Co798 N801 2.121 . S
Co798 O806 2.055 . S
Co798 O809 2.039 . S
Co798 N812 2.140 . S
C799 O800 1.227 . S
C799 O809 1.265 . S
O800 C799 1.227 . S
N801 Co798 2.121 . S
N801 C803 1.375 . S
N801 C804 1.313 . S
C802 C803 1.338 . S
C802 N805 1.377 . S
C802 H822 0.930 . S
C803 N801 1.375 . S
C803 C802 1.338 . S
C803 H807 0.931 . S
C804 N801 1.313 . S
C804 N805 1.344 . S
C804 H808 0.930 . S
N805 C802 1.377 . S
N805 C804 1.344 . S
O806 Co798 2.055 . S
O806 C810 1.253 . S
H807 C803 0.931 . S
H808 C804 0.930 . S
O809 Co798 2.039 . S
O809 C799 1.265 . S
C810 O806 1.253 . S
C810 O811 1.227 . S
O811 C810 1.227 . S
N812 Co798 2.140 . S
N812 C815 1.346 . S
N812 C816 1.345 . S
C813 C814 1.387 . S
C813 C817 1.391 . S
C814 C813 1.387 . S
C814 C815 1.369 . S
C814 H823 0.929 . S
C815 N812 1.346 . S
C815 C814 1.369 . S
C815 H818 0.928 . S
C816 N812 1.345 . S
C816 C817 1.371 . S
C816 H819 0.931 . S
C817 C813 1.391 . S
C817 C816 1.371 . S
C817 H824 0.930 . S
H818 C815 0.928 . S
H819 C816 0.931 . S
H820 C796 0.930 . S
H821 C793 0.930 . S
H822 C802 0.930 . S
H823 C814 0.929 . S
H824 C817 0.930 . S
C825 C826 1.351 . S
C825 N828 1.368 . S
C825 H830 0.931 . S
C826 C825 1.351 . S
C826 N827 1.373 . S
C826 H854 0.930 . S
N827 C826 1.373 . S
N827 C829 1.340 . S
N828 C825 1.368 . S
N828 C829 1.321 . S
N828 Co831 2.135 . S
C829 N827 1.340 . S
C829 N828 1.321 . S
C829 H853 0.930 . S
H830 C825 0.931 . S
Co831 N828 2.135 . S
Co831 N834 2.121 . S
Co831 O839 2.055 . S
Co831 O842 2.039 . S
Co831 N845 2.140 . S
C832 O833 1.227 . S
C832 O842 1.265 . S
O833 C832 1.227 . S
N834 Co831 2.121 . S
N834 C836 1.375 . S
N834 C837 1.313 . S
C835 C836 1.338 . S
C835 N838 1.377 . S
C835 H855 0.930 . S
C836 N834 1.375 . S
C836 C835 1.338 . S
C836 H840 0.931 . S
C837 N834 1.313 . S
C837 N838 1.344 . S
C837 H841 0.930 . S
N838 C835 1.377 . S
N838 C837 1.344 . S
O839 Co831 2.055 . S
O839 C843 1.253 . S
H840 C836 0.931 . S
H841 C837 0.930 . S
O842 Co831 2.039 . S
O842 C832 1.265 . S
C843 O839 1.253 . S
C843 O844 1.227 . S
O844 C843 1.227 . S
N845 Co831 2.140 . S
N845 C848 1.346 . S
N845 C849 1.345 . S
C846 C847 1.387 . S
C846 C850 1.391 . S
C847 C846 1.387 . S
C847 C848 1.369 . S
C847 H856 0.929 . S
C848 N845 1.346 . S
C848 C847 1.369 . S
C848 H851 0.928 . S
C849 N845 1.345 . S
C849 C850 1.371 . S
C849 H852 0.931 . S
C850 C846 1.391 . S
C850 C849 1.371 . S
C850 H857 0.930 . S
H851 C848 0.928 . S
H852 C849 0.931 . S
H853 C829 0.930 . S
H854 C826 0.930 . S
H855 C835 0.930 . S
H856 C847 0.929 . S
H857 C850 0.930 . S
C858 C859 1.351 . S
C858 N861 1.368 . S
C858 H863 0.931 . S
C859 C858 1.351 . S
C859 N860 1.373 . S
C859 H887 0.930 . S
N860 C859 1.373 . S
N860 C862 1.340 . S
N861 C858 1.368 . S
N861 C862 1.321 . S
N861 Co864 2.135 . S
C862 N860 1.340 . S
C862 N861 1.321 . S
C862 H886 0.930 . S
H863 C858 0.931 . S
Co864 N861 2.135 . S
Co864 N867 2.121 . S
Co864 O872 2.055 . S
Co864 O875 2.039 . S
Co864 N878 2.140 . S
C865 O866 1.227 . S
C865 O875 1.265 . S
O866 C865 1.227 . S
N867 Co864 2.121 . S
N867 C869 1.375 . S
N867 C870 1.313 . S
C868 C869 1.338 . S
C868 N871 1.377 . S
C868 H888 0.930 . S
C869 N867 1.375 . S
C869 C868 1.338 . S
C869 H873 0.931 . S
C870 N867 1.313 . S
C870 N871 1.344 . S
C870 H874 0.930 . S
N871 C868 1.377 . S
N871 C870 1.344 . S
O872 Co864 2.055 . S
O872 C876 1.253 . S
H873 C869 0.931 . S
H874 C870 0.930 . S
O875 Co864 2.039 . S
O875 C865 1.265 . S
C876 O872 1.253 . S
C876 O877 1.227 . S
O877 C876 1.227 . S
N878 Co864 2.140 . S
N878 C881 1.346 . S
N878 C882 1.345 . S
C879 C880 1.387 . S
C879 C883 1.391 . S
C880 C879 1.387 . S
C880 C881 1.369 . S
C880 H889 0.929 . S
C881 N878 1.346 . S
C881 C880 1.369 . S
C881 H884 0.928 . S
C882 N878 1.345 . S
C882 C883 1.371 . S
C882 H885 0.931 . S
C883 C879 1.391 . S
C883 C882 1.371 . S
C883 H890 0.930 . S
H884 C881 0.928 . S
H885 C882 0.931 . S
H886 C862 0.930 . S
H887 C859 0.930 . S
H888 C868 0.930 . S
H889 C880 0.929 . S
H890 C883 0.930 . S
C891 C892 1.351 1_554 S
C891 N894 1.368 . S
C891 H896 0.931 1_554 S
C892 C891 1.351 1_556 S
C892 N893 1.373 1_556 S
C892 H920 0.930 . S
N893 C892 1.373 1_554 S
N893 C895 1.340 . S
N894 C891 1.368 . S
N894 C895 1.321 . S
N894 Co897 2.135 . S
C895 N893 1.340 . S
C895 N894 1.321 . S
C895 H919 0.930 . S
H896 C891 0.931 1_556 S
Co897 N894 2.135 . S
Co897 N900 2.121 . S
Co897 O905 2.055 . S
Co897 O908 2.039 . S
Co897 N911 2.140 . S
C898 O899 1.227 . S
C898 O908 1.265 . S
O899 C898 1.227 . S
N900 Co897 2.121 . S
N900 C902 1.375 . S
N900 C903 1.313 . S
C901 C902 1.338 . S
C901 N904 1.377 . S
C901 H921 0.930 . S
C902 N900 1.375 . S
C902 C901 1.338 . S
C902 H906 0.931 . S
C903 N900 1.313 . S
C903 N904 1.344 . S
C903 H907 0.930 . S
N904 C901 1.377 . S
N904 C903 1.344 . S
O905 Co897 2.055 . S
O905 C909 1.253 . S
H906 C902 0.931 . S
H907 C903 0.930 . S
O908 Co897 2.039 . S
O908 C898 1.265 . S
C909 O905 1.253 . S
C909 O910 1.227 . S
O910 C909 1.227 . S
N911 Co897 2.140 . S
N911 C914 1.346 . S
N911 C915 1.345 . S
C912 C913 1.387 . S
C912 C916 1.391 . S
C913 C912 1.387 . S
C913 C914 1.369 . S
C913 H922 0.929 . S
C914 N911 1.346 . S
C914 C913 1.369 . S
C914 H917 0.928 . S
C915 N911 1.345 . S
C915 C916 1.371 . S
C915 H918 0.931 . S
C916 C912 1.391 . S
C916 C915 1.371 . S
C916 H923 0.930 . S
H917 C914 0.928 . S
H918 C915 0.931 . S
H919 C895 0.930 . S
H920 C892 0.930 . S
H921 C901 0.930 . S
H922 C913 0.929 . S
H923 C916 0.930 . S
C924 C925 1.351 1_554 S
C924 N927 1.368 . S
C924 H929 0.931 1_554 S
C925 C924 1.351 1_556 S
C925 N926 1.373 1_556 S
C925 H953 0.930 . S
N926 C925 1.373 1_554 S
N926 C928 1.340 . S
N927 C924 1.368 . S
N927 C928 1.321 . S
N927 Co930 2.135 . S
C928 N926 1.340 . S
C928 N927 1.321 . S
C928 H952 0.930 . S
H929 C924 0.931 1_556 S
Co930 N927 2.135 . S
Co930 N933 2.121 . S
Co930 O938 2.055 . S
Co930 O941 2.039 . S
Co930 N944 2.140 . S
C931 O932 1.227 . S
C931 O941 1.265 . S
O932 C931 1.227 . S
N933 Co930 2.121 . S
N933 C935 1.375 . S
N933 C936 1.313 . S
C934 C935 1.338 . S
C934 N937 1.377 . S
C934 H954 0.930 . S
C935 N933 1.375 . S
C935 C934 1.338 . S
C935 H939 0.931 . S
C936 N933 1.313 . S
C936 N937 1.344 . S
C936 H940 0.930 . S
N937 C934 1.377 . S
N937 C936 1.344 . S
O938 Co930 2.055 . S
O938 C942 1.253 . S
H939 C935 0.931 . S
H940 C936 0.930 . S
O941 Co930 2.039 . S
O941 C931 1.265 . S
C942 O938 1.253 . S
C942 O943 1.227 . S
O943 C942 1.227 . S
N944 Co930 2.140 . S
N944 C947 1.346 . S
N944 C948 1.345 . S
C945 C946 1.387 . S
C945 C949 1.391 . S
C946 C945 1.387 . S
C946 C947 1.369 . S
C946 H955 0.929 . S
C947 N944 1.346 . S
C947 C946 1.369 . S
C947 H950 0.928 . S
C948 N944 1.345 . S
C948 C949 1.371 . S
C948 H951 0.931 . S
C949 C945 1.391 . S
C949 C948 1.371 . S
C949 H956 0.930 . S
H950 C947 0.928 . S
H951 C948 0.931 . S
H952 C928 0.930 . S
H953 C925 0.930 . S
H954 C934 0.930 . S
H955 C946 0.929 . S
H956 C949 0.930 . S
C957 C958 1.351 1_554 S
C957 N960 1.368 . S
C957 H962 0.931 1_554 S
C958 C957 1.351 1_556 S
C958 N959 1.373 1_556 S
C958 H986 0.930 . S
N959 C958 1.373 1_554 S
N959 C961 1.340 . S
N960 C957 1.368 . S
N960 C961 1.321 . S
N960 Co963 2.135 . S
C961 N959 1.340 . S
C961 N960 1.321 . S
C961 H985 0.930 . S
H962 C957 0.931 1_556 S
Co963 N960 2.135 . S
Co963 N966 2.121 . S
Co963 O971 2.055 . S
Co963 O974 2.039 . S
Co963 N977 2.140 . S
C964 O965 1.227 . S
C964 O974 1.265 . S
O965 C964 1.227 . S
N966 Co963 2.121 . S
N966 C968 1.375 . S
N966 C969 1.313 . S
C967 C968 1.338 . S
C967 N970 1.377 . S
C967 H987 0.930 . S
C968 N966 1.375 . S
C968 C967 1.338 . S
C968 H972 0.931 . S
C969 N966 1.313 . S
C969 N970 1.344 . S
C969 H973 0.930 . S
N970 C967 1.377 . S
N970 C969 1.344 . S
O971 Co963 2.055 . S
O971 C975 1.253 . S
H972 C968 0.931 . S
H973 C969 0.930 . S
O974 Co963 2.039 . S
O974 C964 1.265 . S
C975 O971 1.253 . S
C975 O976 1.227 . S
O976 C975 1.227 . S
N977 Co963 2.140 . S
N977 C980 1.346 . S
N977 C981 1.345 . S
C978 C979 1.387 . S
C978 C982 1.391 . S
C979 C978 1.387 . S
C979 C980 1.369 . S
C979 H988 0.929 . S
C980 N977 1.346 . S
C980 C979 1.369 . S
C980 H983 0.928 . S
C981 N977 1.345 . S
C981 C982 1.371 . S
C981 H984 0.931 . S
C982 C978 1.391 . S
C982 C981 1.371 . S
C982 H989 0.930 . S
H983 C980 0.928 . S
H984 C981 0.931 . S
H985 C961 0.930 . S
H986 C958 0.930 . S
H987 C967 0.930 . S
H988 C979 0.929 . S
H989 C982 0.930 . S
C990 C991 1.351 . S
C990 N993 1.368 . S
C990 H995 0.931 . S
C991 C990 1.351 . S
C991 N992 1.373 . S
C991 H1019 0.930 . S
N992 C991 1.373 . S
N992 C994 1.340 . S
N993 C990 1.368 . S
N993 C994 1.321 . S
N993 Co996 2.135 . S
C994 N992 1.340 . S
C994 N993 1.321 . S
C994 H1018 0.930 . S
H995 C990 0.931 . S
Co996 N993 2.135 . S
Co996 N999 2.121 . S
Co996 O1004 2.055 . S
Co996 O1007 2.039 . S
Co996 N1010 2.140 . S
C997 O998 1.227 . S
C997 O1007 1.265 . S
O998 C997 1.227 . S
N999 Co996 2.121 . S
N999 C1001 1.375 . S
N999 C1002 1.313 . S
C1000 C1001 1.338 . S
C1000 N1003 1.377 . S
C1000 H1020 0.930 . S
C1001 N999 1.375 . S
C1001 C1000 1.338 . S
C1001 H1005 0.931 . S
C1002 N999 1.313 . S
C1002 N1003 1.344 . S
C1002 H1006 0.930 . S
N1003 C1000 1.377 . S
N1003 C1002 1.344 . S
O1004 Co996 2.055 . S
O1004 C1008 1.253 . S
H1005 C1001 0.931 . S
H1006 C1002 0.930 . S
O1007 Co996 2.039 . S
O1007 C997 1.265 . S
C1008 O1004 1.253 . S
C1008 O1009 1.227 . S
O1009 C1008 1.227 . S
N1010 Co996 2.140 . S
N1010 C1013 1.346 . S
N1010 C1014 1.345 . S
C1011 C1012 1.387 . S
C1011 C1015 1.391 . S
C1012 C1011 1.387 . S
C1012 C1013 1.369 . S
C1012 H1021 0.929 . S
C1013 N1010 1.346 . S
C1013 C1012 1.369 . S
C1013 H1016 0.928 . S
C1014 N1010 1.345 . S
C1014 C1015 1.371 . S
C1014 H1017 0.931 . S
C1015 C1011 1.391 . S
C1015 C1014 1.371 . S
C1015 H1022 0.930 . S
H1016 C1013 0.928 . S
H1017 C1014 0.931 . S
H1018 C994 0.930 . S
H1019 C991 0.930 . S
H1020 C1000 0.930 . S
H1021 C1012 0.929 . S
H1022 C1015 0.930 . S
C1023 C1024 1.351 . S
C1023 N1026 1.368 . S
C1023 H1028 0.931 . S
C1024 C1023 1.351 . S
C1024 N1025 1.373 . S
C1024 H1052 0.930 . S
N1025 C1024 1.373 . S
N1025 C1027 1.340 . S
N1026 C1023 1.368 . S
N1026 C1027 1.321 . S
N1026 Co1029 2.135 . S
C1027 N1025 1.340 . S
C1027 N1026 1.321 . S
C1027 H1051 0.930 . S
H1028 C1023 0.931 . S
Co1029 N1026 2.135 . S
Co1029 N1032 2.121 . S
Co1029 O1037 2.055 . S
Co1029 O1040 2.039 . S
Co1029 N1043 2.140 . S
C1030 O1031 1.227 . S
C1030 O1040 1.265 . S
O1031 C1030 1.227 . S
N1032 Co1029 2.121 . S
N1032 C1034 1.375 . S
N1032 C1035 1.313 . S
C1033 C1034 1.338 . S
C1033 N1036 1.377 . S
C1033 H1053 0.930 . S
C1034 N1032 1.375 . S
C1034 C1033 1.338 . S
C1034 H1038 0.931 . S
C1035 N1032 1.313 . S
C1035 N1036 1.344 . S
C1035 H1039 0.930 . S
N1036 C1033 1.377 . S
N1036 C1035 1.344 . S
O1037 Co1029 2.055 . S
O1037 C1041 1.253 . S
H1038 C1034 0.931 . S
H1039 C1035 0.930 . S
O1040 Co1029 2.039 . S
O1040 C1030 1.265 . S
C1041 O1037 1.253 . S
C1041 O1042 1.227 . S
O1042 C1041 1.227 . S
N1043 Co1029 2.140 . S
N1043 C1046 1.346 . S
N1043 C1047 1.345 . S
C1044 C1045 1.387 . S
C1044 C1048 1.391 . S
C1045 C1044 1.387 . S
C1045 C1046 1.369 . S
C1045 H1054 0.929 . S
C1046 N1043 1.346 . S
C1046 C1045 1.369 . S
C1046 H1049 0.928 . S
C1047 N1043 1.345 . S
C1047 C1048 1.371 . S
C1047 H1050 0.931 . S
C1048 C1044 1.391 . S
C1048 C1047 1.371 . S
C1048 H1055 0.930 . S
H1049 C1046 0.928 . S
H1050 C1047 0.931 . S
H1051 C1027 0.930 . S
H1052 C1024 0.930 . S
H1053 C1033 0.930 . S
H1054 C1045 0.929 . S
H1055 C1048 0.930 . S
C1056 C1057 1.351 . S
C1056 N1059 1.368 . S
C1056 H1061 0.931 . S
C1057 C1056 1.351 . S
C1057 N1058 1.373 . S
C1057 H1085 0.930 . S
N1058 C1057 1.373 . S
N1058 C1060 1.340 . S
N1059 C1056 1.368 . S
N1059 C1060 1.321 . S
N1059 Co1062 2.135 . S
C1060 N1058 1.340 . S
C1060 N1059 1.321 . S
C1060 H1084 0.930 . S
H1061 C1056 0.931 . S
Co1062 N1059 2.135 . S
Co1062 N1065 2.121 . S
Co1062 O1070 2.055 . S
Co1062 O1073 2.039 . S
Co1062 N1076 2.140 . S
C1063 O1064 1.227 . S
C1063 O1073 1.265 . S
O1064 C1063 1.227 . S
N1065 Co1062 2.121 . S
N1065 C1067 1.375 . S
N1065 C1068 1.313 . S
C1066 C1067 1.338 . S
C1066 N1069 1.377 . S
C1066 H1086 0.930 . S
C1067 N1065 1.375 . S
C1067 C1066 1.338 . S
C1067 H1071 0.931 . S
C1068 N1065 1.313 . S
C1068 N1069 1.344 . S
C1068 H1072 0.930 . S
N1069 C1066 1.377 . S
N1069 C1068 1.344 . S
O1070 Co1062 2.055 . S
O1070 C1074 1.253 . S
H1071 C1067 0.931 . S
H1072 C1068 0.930 . S
O1073 Co1062 2.039 . S
O1073 C1063 1.265 . S
C1074 O1070 1.253 . S
C1074 O1075 1.227 . S
O1075 C1074 1.227 . S
N1076 Co1062 2.140 . S
N1076 C1079 1.346 . S
N1076 C1080 1.345 . S
C1077 C1078 1.387 . S
C1077 C1081 1.391 . S
C1078 C1077 1.387 . S
C1078 C1079 1.369 . S
C1078 H1087 0.929 . S
C1079 N1076 1.346 . S
C1079 C1078 1.369 . S
C1079 H1082 0.928 . S
C1080 N1076 1.345 . S
C1080 C1081 1.371 . S
C1080 H1083 0.931 . S
C1081 C1077 1.391 . S
C1081 C1080 1.371 . S
C1081 H1088 0.930 . S
H1082 C1079 0.928 . S
H1083 C1080 0.931 . S
H1084 C1060 0.930 . S
H1085 C1057 0.930 . S
H1086 C1066 0.930 . S
H1087 C1078 0.929 . S
H1088 C1081 0.930 . S
C1089 C1090 1.351 . S
C1089 N1092 1.368 . S
C1089 H1094 0.931 . S
C1090 C1089 1.351 . S
C1090 N1091 1.373 . S
C1090 H1118 0.930 . S
N1091 C1090 1.373 . S
N1091 C1093 1.340 . S
N1092 C1089 1.368 . S
N1092 C1093 1.321 . S
N1092 Co1095 2.135 . S
C1093 N1091 1.340 . S
C1093 N1092 1.321 . S
C1093 H1117 0.930 . S
H1094 C1089 0.931 . S
Co1095 N1092 2.135 . S
Co1095 N1098 2.121 . S
Co1095 O1103 2.055 . S
Co1095 O1106 2.039 . S
Co1095 N1109 2.140 . S
C1096 O1097 1.227 . S
C1096 O1106 1.265 . S
O1097 C1096 1.227 . S
N1098 Co1095 2.121 . S
N1098 C1100 1.375 . S
N1098 C1101 1.313 . S
C1099 C1100 1.338 . S
C1099 N1102 1.377 . S
C1099 H1119 0.930 . S
C1100 N1098 1.375 . S
C1100 C1099 1.338 . S
C1100 H1104 0.931 . S
C1101 N1098 1.313 . S
C1101 N1102 1.344 . S
C1101 H1105 0.930 . S
N1102 C1099 1.377 . S
N1102 C1101 1.344 . S
O1103 Co1095 2.055 . S
O1103 C1107 1.253 . S
H1104 C1100 0.931 . S
H1105 C1101 0.930 . S
O1106 Co1095 2.039 . S
O1106 C1096 1.265 . S
C1107 O1103 1.253 . S
C1107 O1108 1.227 . S
O1108 C1107 1.227 . S
N1109 Co1095 2.140 . S
N1109 C1112 1.346 . S
N1109 C1113 1.345 . S
C1110 C1111 1.387 . S
C1110 C1114 1.391 . S
C1111 C1110 1.387 . S
C1111 C1112 1.369 . S
C1111 H1120 0.929 . S
C1112 N1109 1.346 . S
C1112 C1111 1.369 . S
C1112 H1115 0.928 . S
C1113 N1109 1.345 . S
C1113 C1114 1.371 . S
C1113 H1116 0.931 . S
C1114 C1110 1.391 . S
C1114 C1113 1.371 . S
C1114 H1121 0.930 . S
H1115 C1112 0.928 . S
H1116 C1113 0.931 . S
H1117 C1093 0.930 . S
H1118 C1090 0.930 . S
H1119 C1099 0.930 . S
H1120 C1111 0.929 . S
H1121 C1114 0.930 . S
C1122 C1123 1.351 . S
C1122 N1125 1.368 . S
C1122 H1127 0.931 . S
C1123 C1122 1.351 . S
C1123 N1124 1.373 . S
C1123 H1151 0.930 . S
N1124 C1123 1.373 . S
N1124 C1126 1.340 . S
N1125 C1122 1.368 . S
N1125 C1126 1.321 . S
N1125 Co1128 2.135 . S
C1126 N1124 1.340 . S
C1126 N1125 1.321 . S
C1126 H1150 0.930 . S
H1127 C1122 0.931 . S
Co1128 N1125 2.135 . S
Co1128 N1131 2.121 . S
Co1128 O1136 2.055 . S
Co1128 O1139 2.039 . S
Co1128 N1142 2.140 . S
C1129 O1130 1.227 . S
C1129 O1139 1.265 . S
O1130 C1129 1.227 . S
N1131 Co1128 2.121 . S
N1131 C1133 1.375 . S
N1131 C1134 1.313 . S
C1132 C1133 1.338 . S
C1132 N1135 1.377 . S
C1132 H1152 0.930 . S
C1133 N1131 1.375 . S
C1133 C1132 1.338 . S
C1133 H1137 0.931 . S
C1134 N1131 1.313 . S
C1134 N1135 1.344 . S
C1134 H1138 0.930 . S
N1135 C1132 1.377 . S
N1135 C1134 1.344 . S
O1136 Co1128 2.055 . S
O1136 C1140 1.253 . S
H1137 C1133 0.931 . S
H1138 C1134 0.930 . S
O1139 Co1128 2.039 . S
O1139 C1129 1.265 . S
C1140 O1136 1.253 . S
C1140 O1141 1.227 . S
O1141 C1140 1.227 . S
N1142 Co1128 2.140 . S
N1142 C1145 1.346 . S
N1142 C1146 1.345 . S
C1143 C1144 1.387 . S
C1143 C1147 1.391 . S
C1144 C1143 1.387 . S
C1144 C1145 1.369 . S
C1144 H1153 0.929 . S
C1145 N1142 1.346 . S
C1145 C1144 1.369 . S
C1145 H1148 0.928 . S
C1146 N1142 1.345 . S
C1146 C1147 1.371 . S
C1146 H1149 0.931 . S
C1147 C1143 1.391 . S
C1147 C1146 1.371 . S
C1147 H1154 0.930 . S
H1148 C1145 0.928 . S
H1149 C1146 0.931 . S
H1150 C1126 0.930 . S
H1151 C1123 0.930 . S
H1152 C1132 0.930 . S
H1153 C1144 0.929 . S
H1154 C1147 0.930 . S
C1155 C1156 1.351 . S
C1155 N1158 1.368 . S
C1155 H1160 0.931 . S
C1156 C1155 1.351 . S
C1156 N1157 1.373 . S
C1156 H1184 0.930 . S
N1157 C1156 1.373 . S
N1157 C1159 1.340 . S
N1158 C1155 1.368 . S
N1158 C1159 1.321 . S
N1158 Co1161 2.135 . S
C1159 N1157 1.340 . S
C1159 N1158 1.321 . S
C1159 H1183 0.930 . S
H1160 C1155 0.931 . S
Co1161 N1158 2.135 . S
Co1161 N1164 2.121 . S
Co1161 O1169 2.055 . S
Co1161 O1172 2.039 . S
Co1161 N1175 2.140 . S
C1162 O1163 1.227 . S
C1162 O1172 1.265 . S
O1163 C1162 1.227 . S
N1164 Co1161 2.121 . S
N1164 C1166 1.375 . S
N1164 C1167 1.313 . S
C1165 C1166 1.338 . S
C1165 N1168 1.377 . S
C1165 H1185 0.930 . S
C1166 N1164 1.375 . S
C1166 C1165 1.338 . S
C1166 H1170 0.931 . S
C1167 N1164 1.313 . S
C1167 N1168 1.344 . S
C1167 H1171 0.930 . S
N1168 C1165 1.377 . S
N1168 C1167 1.344 . S
O1169 Co1161 2.055 . S
O1169 C1173 1.253 . S
H1170 C1166 0.931 . S
H1171 C1167 0.930 . S
O1172 Co1161 2.039 . S
O1172 C1162 1.265 . S
C1173 O1169 1.253 . S
C1173 O1174 1.227 . S
O1174 C1173 1.227 . S
N1175 Co1161 2.140 . S
N1175 C1178 1.346 . S
N1175 C1179 1.345 . S
C1176 C1177 1.387 . S
C1176 C1180 1.391 . S
C1177 C1176 1.387 . S
C1177 C1178 1.369 . S
C1177 H1186 0.929 . S
C1178 N1175 1.346 . S
C1178 C1177 1.369 . S
C1178 H1181 0.928 . S
C1179 N1175 1.345 . S
C1179 C1180 1.371 . S
C1179 H1182 0.931 . S
C1180 C1176 1.391 . S
C1180 C1179 1.371 . S
C1180 H1187 0.930 . S
H1181 C1178 0.928 . S
H1182 C1179 0.931 . S
H1183 C1159 0.930 . S
H1184 C1156 0.930 . S
H1185 C1165 0.930 . S
H1186 C1177 0.929 . S
H1187 C1180 0.930 . S
C1188 C1189 1.369 . S
C1188 C1190 1.419 . S
C1188 H1192 0.930 . S
C1189 C1188 1.369 . S
C1189 C1198 1.429 . S
C1190 C1188 1.419 . S
C1190 C1191 1.363 . S
C1190 H1193 0.929 . S
C1191 C1190 1.363 . S
C1191 C1197 1.428 . S
H1192 C1188 0.930 . S
H1193 C1190 0.929 . S
S1194 N1195 1.613 . S
S1194 N1196 1.610 . S
N1195 S1194 1.613 . S
N1195 C1198 1.350 . S
N1196 S1194 1.610 . S
N1196 C1197 1.351 . S
C1197 C1191 1.428 . S
C1197 N1196 1.351 . S
C1197 C1198 1.434 . S
C1198 C1189 1.429 . S
C1198 N1195 1.350 . S
C1198 C1197 1.434 . S
C1199 C1200 1.369 . S
C1199 C1201 1.419 . S
C1199 H1203 0.930 . S
C1200 C1199 1.369 . S
C1200 C1209 1.429 . S
C1201 C1199 1.419 . S
C1201 C1202 1.363 . S
C1201 H1204 0.929 . S
C1202 C1201 1.363 . S
C1202 C1208 1.428 . S
H1203 C1199 0.930 . S
H1204 C1201 0.929 . S
S1205 N1206 1.613 . S
S1205 N1207 1.610 . S
N1206 S1205 1.613 . S
N1206 C1209 1.350 . S
N1207 S1205 1.610 . S
N1207 C1208 1.351 . S
C1208 C1202 1.428 . S
C1208 N1207 1.351 . S
C1208 C1209 1.434 . S
C1209 C1200 1.429 . S
C1209 N1206 1.350 . S
C1209 C1208 1.434 . S
C1210 C1211 1.369 . S
C1210 C1212 1.419 . S
C1210 H1214 0.930 . S
C1211 C1210 1.369 . S
C1211 C1220 1.429 . S
C1212 C1210 1.419 . S
C1212 C1213 1.363 . S
C1212 H1215 0.929 . S
C1213 C1212 1.363 . S
C1213 C1219 1.428 . S
H1214 C1210 0.930 . S
H1215 C1212 0.929 . S
S1216 N1217 1.613 . S
S1216 N1218 1.610 . S
N1217 S1216 1.613 . S
N1217 C1220 1.350 . S
N1218 S1216 1.610 . S
N1218 C1219 1.351 . S
C1219 C1213 1.428 . S
C1219 N1218 1.351 . S
C1219 C1220 1.434 . S
C1220 C1211 1.429 . S
C1220 N1217 1.350 . S
C1220 C1219 1.434 . S
C1221 C1222 1.369 . S
C1221 C1223 1.419 . S
C1221 H1225 0.930 . S
C1222 C1221 1.369 . S
C1222 C1231 1.429 . S
C1223 C1221 1.419 . S
C1223 C1224 1.363 . S
C1223 H1226 0.929 . S
C1224 C1223 1.363 . S
C1224 C1230 1.428 . S
H1225 C1221 0.930 . S
H1226 C1223 0.929 . S
S1227 N1228 1.613 . S
S1227 N1229 1.610 . S
N1228 S1227 1.613 . S
N1228 C1231 1.350 . S
N1229 S1227 1.610 . S
N1229 C1230 1.351 . S
C1230 C1224 1.428 . S
C1230 N1229 1.351 . S
C1230 C1231 1.434 . S
C1231 C1222 1.429 . S
C1231 N1228 1.350 . S
C1231 C1230 1.434 . S
C1232 C1233 1.369 . S
C1232 C1234 1.419 . S
C1232 H1236 0.930 . S
C1233 C1232 1.369 . S
C1233 C1242 1.429 . S
C1234 C1232 1.419 . S
C1234 C1235 1.363 . S
C1234 H1237 0.929 . S
C1235 C1234 1.363 . S
C1235 C1241 1.428 . S
H1236 C1232 0.930 . S
H1237 C1234 0.929 . S
S1238 N1239 1.613 . S
S1238 N1240 1.610 . S
N1239 S1238 1.613 . S
N1239 C1242 1.350 . S
N1240 S1238 1.610 . S
N1240 C1241 1.351 . S
C1241 C1235 1.428 . S
C1241 N1240 1.351 . S
C1241 C1242 1.434 . S
C1242 C1233 1.429 . S
C1242 N1239 1.350 . S
C1242 C1241 1.434 . S
C1243 C1244 1.369 . S
C1243 C1245 1.419 . S
C1243 H1247 0.930 . S
C1244 C1243 1.369 . S
C1244 C1253 1.429 . S
C1245 C1243 1.419 . S
C1245 C1246 1.363 . S
C1245 H1248 0.929 . S
C1246 C1245 1.363 . S
C1246 C1252 1.428 . S
H1247 C1243 0.930 . S
H1248 C1245 0.929 . S
S1249 N1250 1.613 . S
S1249 N1251 1.610 . S
N1250 S1249 1.613 . S
N1250 C1253 1.350 . S
N1251 S1249 1.610 . S
N1251 C1252 1.351 . S
C1252 C1246 1.428 . S
C1252 N1251 1.351 . S
C1252 C1253 1.434 . S
C1253 C1244 1.429 . S
C1253 N1250 1.350 . S
C1253 C1252 1.434 . S
C1254 C1255 1.369 . S
C1254 C1256 1.419 . S
C1254 H1258 0.930 . S
C1255 C1254 1.369 . S
C1255 C1264 1.429 . S
C1256 C1254 1.419 . S
C1256 C1257 1.363 . S
C1256 H1259 0.929 . S
C1257 C1256 1.363 . S
C1257 C1263 1.428 . S
H1258 C1254 0.930 . S
H1259 C1256 0.929 . S
S1260 N1261 1.613 . S
S1260 N1262 1.610 . S
N1261 S1260 1.613 . S
N1261 C1264 1.350 . S
N1262 S1260 1.610 . S
N1262 C1263 1.351 . S
C1263 C1257 1.428 . S
C1263 N1262 1.351 . S
C1263 C1264 1.434 . S
C1264 C1255 1.429 . S
C1264 N1261 1.350 . S
C1264 C1263 1.434 . S
C1265 C1266 1.369 . S
C1265 C1267 1.419 . S
C1265 H1269 0.930 . S
C1266 C1265 1.369 . S
C1266 C1275 1.429 . S
C1267 C1265 1.419 . S
C1267 C1268 1.363 . S
C1267 H1270 0.929 . S
C1268 C1267 1.363 . S
C1268 C1274 1.428 . S
H1269 C1265 0.930 . S
H1270 C1267 0.929 . S
S1271 N1272 1.613 . S
S1271 N1273 1.610 . S
N1272 S1271 1.613 . S
N1272 C1275 1.350 . S
N1273 S1271 1.610 . S
N1273 C1274 1.351 . S
C1274 C1268 1.428 . S
C1274 N1273 1.351 . S
C1274 C1275 1.434 . S
C1275 C1266 1.429 . S
C1275 N1272 1.350 . S
C1275 C1274 1.434 . S
C1276 C1277 1.369 . S
C1276 C1278 1.419 . S
C1276 H1280 0.930 . S
C1277 C1276 1.369 . S
C1277 C1286 1.429 . S
C1278 C1276 1.419 . S
C1278 C1279 1.363 . S
C1278 H1281 0.929 . S
C1279 C1278 1.363 . S
C1279 C1285 1.428 . S
H1280 C1276 0.930 . S
H1281 C1278 0.929 . S
S1282 N1283 1.613 . S
S1282 N1284 1.610 . S
N1283 S1282 1.613 . S
N1283 C1286 1.350 . S
N1284 S1282 1.610 . S
N1284 C1285 1.351 . S
C1285 C1279 1.428 . S
C1285 N1284 1.351 . S
C1285 C1286 1.434 . S
C1286 C1277 1.429 . S
C1286 N1283 1.350 . S
C1286 C1285 1.434 . S
C1287 C1288 1.369 . S
C1287 C1289 1.419 . S
C1287 H1291 0.930 . S
C1288 C1287 1.369 . S
C1288 C1297 1.429 . S
C1289 C1287 1.419 . S
C1289 C1290 1.363 . S
C1289 H1292 0.929 . S
C1290 C1289 1.363 . S
C1290 C1296 1.428 . S
H1291 C1287 0.930 . S
H1292 C1289 0.929 . S
S1293 N1294 1.613 . S
S1293 N1295 1.610 . S
N1294 S1293 1.613 . S
N1294 C1297 1.350 . S
N1295 S1293 1.610 . S
N1295 C1296 1.351 . S
C1296 C1290 1.428 . S
C1296 N1295 1.351 . S
C1296 C1297 1.434 . S
C1297 C1288 1.429 . S
C1297 N1294 1.350 . S
C1297 C1296 1.434 . S
C1298 C1299 1.369 . S
C1298 C1300 1.419 . S
C1298 H1302 0.930 . S
C1299 C1298 1.369 . S
C1299 C1308 1.429 . S
C1300 C1298 1.419 . S
C1300 C1301 1.363 . S
C1300 H1303 0.929 . S
C1301 C1300 1.363 . S
C1301 C1307 1.428 . S
H1302 C1298 0.930 . S
H1303 C1300 0.929 . S
S1304 N1305 1.613 . S
S1304 N1306 1.610 . S
N1305 S1304 1.613 . S
N1305 C1308 1.350 . S
N1306 S1304 1.610 . S
N1306 C1307 1.351 . S
C1307 C1301 1.428 . S
C1307 N1306 1.351 . S
C1307 C1308 1.434 . S
C1308 C1299 1.429 . S
C1308 N1305 1.350 . S
C1308 C1307 1.434 . S
C1309 C1310 1.369 . S
C1309 C1311 1.419 . S
C1309 H1313 0.930 . S
C1310 C1309 1.369 . S
C1310 C1319 1.429 . S
C1311 C1309 1.419 . S
C1311 C1312 1.363 . S
C1311 H1314 0.929 . S
C1312 C1311 1.363 . S
C1312 C1318 1.428 . S
H1313 C1309 0.930 . S
H1314 C1311 0.929 . S
S1315 N1316 1.613 . S
S1315 N1317 1.610 . S
N1316 S1315 1.613 . S
N1316 C1319 1.350 . S
N1317 S1315 1.610 . S
N1317 C1318 1.351 . S
C1318 C1312 1.428 . S
C1318 N1317 1.351 . S
C1318 C1319 1.434 . S
C1319 C1310 1.429 . S
C1319 N1316 1.350 . S
C1319 C1318 1.434 . S
C1320 C1321 1.369 . S
C1320 C1322 1.419 . S
C1320 H1324 0.930 . S
C1321 C1320 1.369 . S
C1321 C1330 1.429 1_655 S
C1322 C1320 1.419 . S
C1322 C1323 1.363 1_655 S
C1322 H1325 0.929 . S
C1323 C1322 1.363 1_455 S
C1323 C1329 1.428 . S
H1324 C1320 0.930 . S
H1325 C1322 0.929 . S
S1326 N1327 1.613 . S
S1326 N1328 1.610 . S
N1327 S1326 1.613 . S
N1327 C1330 1.350 . S
N1328 S1326 1.610 . S
N1328 C1329 1.351 . S
C1329 C1323 1.428 . S
C1329 N1328 1.351 . S
C1329 C1330 1.434 . S
C1330 C1321 1.429 1_455 S
C1330 N1327 1.350 . S
C1330 C1329 1.434 . S
C1331 C1332 1.369 . S
C1331 C1333 1.419 . S
C1331 H1335 0.930 . S
C1332 C1331 1.369 . S
C1332 C1341 1.429 . S
C1333 C1331 1.419 . S
C1333 C1334 1.363 . S
C1333 H1336 0.929 . S
C1334 C1333 1.363 . S
C1334 C1340 1.428 . S
H1335 C1331 0.930 . S
H1336 C1333 0.929 . S
S1337 N1338 1.613 . S
S1337 N1339 1.610 . S
N1338 S1337 1.613 . S
N1338 C1341 1.350 . S
N1339 S1337 1.610 . S
N1339 C1340 1.351 . S
C1340 C1334 1.428 . S
C1340 N1339 1.351 . S
C1340 C1341 1.434 . S
C1341 C1332 1.429 . S
C1341 N1338 1.350 . S
C1341 C1340 1.434 . S
C1342 C1343 1.369 1_545 S
C1342 C1344 1.419 . S
C1342 H1346 0.930 . S
C1343 C1342 1.369 1_565 S
C1343 C1352 1.429 . S
C1344 C1342 1.419 . S
C1344 C1345 1.363 . S
C1344 H1347 0.929 . S
C1345 C1344 1.363 . S
C1345 C1351 1.428 1_545 S
H1346 C1342 0.930 . S
H1347 C1344 0.929 . S
S1348 N1349 1.613 . S
S1348 N1350 1.610 . S
N1349 S1348 1.613 . S
N1349 C1352 1.350 . S
N1350 S1348 1.610 . S
N1350 C1351 1.351 . S
C1351 C1345 1.428 1_565 S
C1351 N1350 1.351 . S
C1351 C1352 1.434 . S
C1352 C1343 1.429 . S
C1352 N1349 1.350 . S
C1352 C1351 1.434 . S
C1353 C1354 1.369 1_556 S
C1353 C1355 1.419 1_565 S
C1353 H1357 0.930 . S
C1354 C1353 1.369 1_554 S
C1354 C1363 1.429 . S
C1355 C1353 1.419 1_545 S
C1355 C1356 1.363 . S
C1355 H1358 0.929 . S
C1356 C1355 1.363 . S
C1356 C1362 1.428 1_556 S
H1357 C1353 0.930 . S
H1358 C1355 0.929 . S
S1359 N1360 1.613 . S
S1359 N1361 1.610 1_565 S
N1360 S1359 1.613 . S
N1360 C1363 1.350 . S
N1361 S1359 1.610 1_545 S
N1361 C1362 1.351 . S
C1362 C1356 1.428 1_554 S
C1362 N1361 1.351 . S
C1362 C1363 1.434 1_545 S
C1363 C1354 1.429 . S
C1363 N1360 1.350 . S
C1363 C1362 1.434 1_565 S
C1364 C1365 1.369 . S
C1364 C1366 1.419 . S
C1364 H1368 0.930 . S
C1365 C1364 1.369 . S
C1365 C1374 1.429 1_656 S
C1366 C1364 1.419 . S
C1366 C1367 1.363 1_656 S
C1366 H1369 0.929 . S
C1367 C1366 1.363 1_454 S
C1367 C1373 1.428 . S
H1368 C1364 0.930 . S
H1369 C1366 0.929 . S
S1370 N1371 1.613 . S
S1370 N1372 1.610 . S
N1371 S1370 1.613 . S
N1371 C1374 1.350 . S
N1372 S1370 1.610 . S
N1372 C1373 1.351 . S
C1373 C1367 1.428 . S
C1373 N1372 1.351 . S
C1373 C1374 1.434 . S
C1374 C1365 1.429 1_454 S
C1374 N1371 1.350 . S
C1374 C1373 1.434 . S
C1375 C1376 1.369 . S
C1375 C1377 1.425 . S
C1375 H1379 0.930 . S
C1376 C1375 1.369 . S
C1376 C1385 1.429 1_554 S
C1377 C1375 1.425 . S
C1377 C1378 1.356 1_554 S
C1377 H1380 0.930 . S
C1378 C1377 1.356 1_556 S
C1378 C1384 1.428 . S
H1379 C1375 0.930 . S
H1380 C1377 0.930 . S
S1381 N1382 1.613 . S
S1381 N1383 1.610 . S
N1382 S1381 1.613 . S
N1382 C1385 1.350 . S
N1383 S1381 1.610 . S
N1383 C1384 1.351 . S
C1384 C1378 1.428 . S
C1384 N1383 1.351 . S
C1384 C1385 1.434 . S
C1385 C1376 1.429 1_556 S
C1385 N1382 1.350 . S
C1385 C1384 1.434 . S
C1386 C1387 1.369 . S
C1386 C1388 1.419 . S
C1386 H1390 0.930 . S
C1387 C1386 1.369 . S
C1387 C1396 1.429 1_554 S
C1388 C1386 1.419 . S
C1388 C1389 1.363 . S
C1388 H1391 0.929 . S
C1389 C1388 1.363 . S
C1389 C1395 1.428 1_554 S
H1390 C1386 0.930 . S
H1391 C1388 0.929 . S
S1392 N1393 1.613 . S
S1392 N1394 1.610 . S
N1393 S1392 1.613 . S
N1393 C1396 1.350 . S
N1394 S1392 1.610 . S
N1394 C1395 1.351 . S
C1395 C1389 1.428 1_556 S
C1395 N1394 1.351 . S
C1395 C1396 1.434 . S
C1396 C1387 1.429 1_556 S
C1396 N1393 1.350 . S
C1396 C1395 1.434 . S
C1397 C1398 1.369 . S
C1397 C1399 1.419 . S
C1397 H1401 0.930 . S
C1398 C1397 1.369 . S
C1398 C1407 1.429 1_554 S
C1399 C1397 1.419 . S
C1399 C1400 1.363 . S
C1399 H1402 0.929 . S
C1400 C1399 1.363 . S
C1400 C1406 1.428 1_554 S
H1401 C1397 0.930 . S
H1402 C1399 0.929 . S
S1403 N1404 1.613 . S
S1403 N1405 1.610 . S
N1404 S1403 1.613 . S
N1404 C1407 1.350 . S
N1405 S1403 1.610 . S
N1405 C1406 1.351 . S
C1406 C1400 1.428 1_556 S
C1406 N1405 1.351 . S
C1406 C1407 1.434 . S
C1407 C1398 1.429 1_556 S
C1407 N1404 1.350 . S
C1407 C1406 1.434 . S
C1408 C1409 1.369 . S
C1408 C1410 1.419 . S
C1408 H1412 0.930 . S
C1409 C1408 1.369 . S
C1409 C1418 1.429 1_554 S
C1410 C1408 1.419 . S
C1410 C1411 1.363 . S
C1410 H1413 0.929 . S
C1411 C1410 1.363 . S
C1411 C1417 1.428 1_554 S
H1412 C1408 0.930 . S
H1413 C1410 0.929 . S
S1414 N1415 1.613 . S
S1414 N1416 1.610 . S
N1415 S1414 1.613 . S
N1415 C1418 1.350 . S
N1416 S1414 1.610 . S
N1416 C1417 1.351 . S
C1417 C1411 1.428 1_556 S
C1417 N1416 1.351 . S
C1417 C1418 1.434 . S
C1418 C1409 1.429 1_556 S
C1418 N1415 1.350 . S
C1418 C1417 1.434 . S
C1419 C1420 1.369 . S
C1419 C1421 1.419 . S
C1419 H1423 0.930 . S
C1420 C1419 1.369 . S
C1420 C1429 1.429 . S
C1421 C1419 1.419 . S
C1421 C1422 1.363 . S
C1421 H1424 0.929 . S
C1422 C1421 1.363 . S
C1422 C1428 1.428 . S
H1423 C1419 0.930 . S
H1424 C1421 0.929 . S
S1425 N1426 1.613 . S
S1425 N1427 1.610 . S
N1426 S1425 1.613 . S
N1426 C1429 1.350 . S
N1427 S1425 1.610 . S
N1427 C1428 1.351 . S
C1428 C1422 1.428 . S
C1428 N1427 1.351 . S
C1428 C1429 1.434 . S
C1429 C1420 1.429 . S
C1429 N1426 1.350 . S
C1429 C1428 1.434 . S
C1430 C1431 1.369 . S
C1430 C1432 1.419 . S
C1430 H1434 0.930 . S
C1431 C1430 1.369 . S
C1431 C1440 1.429 . S
C1432 C1430 1.419 . S
C1432 C1433 1.363 . S
C1432 H1435 0.929 . S
C1433 C1432 1.363 . S
C1433 C1439 1.428 . S
H1434 C1430 0.930 . S
H1435 C1432 0.929 . S
S1436 N1437 1.613 . S
S1436 N1438 1.610 . S
N1437 S1436 1.613 . S
N1437 C1440 1.350 . S
N1438 S1436 1.610 . S
N1438 C1439 1.351 . S
C1439 C1433 1.428 . S
C1439 N1438 1.351 . S
C1439 C1440 1.434 . S
C1440 C1431 1.429 . S
C1440 N1437 1.350 . S
C1440 C1439 1.434 . S
C1441 C1442 1.369 . S
C1441 C1443 1.419 . S
C1441 H1445 0.930 . S
C1442 C1441 1.369 . S
C1442 C1451 1.429 . S
C1443 C1441 1.419 . S
C1443 C1444 1.363 . S
C1443 H1446 0.929 . S
C1444 C1443 1.363 . S
C1444 C1450 1.428 . S
H1445 C1441 0.930 . S
H1446 C1443 0.929 . S
S1447 N1448 1.613 . S
S1447 N1449 1.610 . S
N1448 S1447 1.613 . S
N1448 C1451 1.350 . S
N1449 S1447 1.610 . S
N1449 C1450 1.351 . S
C1450 C1444 1.428 . S
C1450 N1449 1.351 . S
C1450 C1451 1.434 . S
C1451 C1442 1.429 . S
C1451 N1448 1.350 . S
C1451 C1450 1.434 . S
C1452 C1453 1.369 . S
C1452 C1454 1.419 . S
C1452 H1456 0.930 . S
C1453 C1452 1.369 . S
C1453 C1462 1.429 . S
C1454 C1452 1.419 . S
C1454 C1455 1.363 . S
C1454 H1457 0.929 . S
C1455 C1454 1.363 . S
C1455 C1461 1.428 . S
H1456 C1452 0.930 . S
H1457 C1454 0.929 . S
S1458 N1459 1.613 . S
S1458 N1460 1.610 . S
N1459 S1458 1.613 . S
N1459 C1462 1.350 . S
N1460 S1458 1.610 . S
N1460 C1461 1.351 . S
C1461 C1455 1.428 . S
C1461 N1460 1.351 . S
C1461 C1462 1.434 . S
C1462 C1453 1.429 . S
C1462 N1459 1.350 . S
C1462 C1461 1.434 . S
C1463 C1464 1.369 . S
C1463 C1465 1.419 . S
C1463 H1467 0.930 . S
C1464 C1463 1.369 . S
C1464 C1473 1.429 . S
C1465 C1463 1.419 . S
C1465 C1466 1.363 . S
C1465 H1468 0.929 . S
C1466 C1465 1.363 . S
C1466 C1472 1.428 . S
H1467 C1463 0.930 . S
H1468 C1465 0.929 . S
S1469 N1470 1.613 . S
S1469 N1471 1.610 . S
N1470 S1469 1.613 . S
N1470 C1473 1.350 1_554 S
N1471 S1469 1.610 . S
N1471 C1472 1.351 1_554 S
C1472 C1466 1.428 . S
C1472 N1471 1.351 1_556 S
C1472 C1473 1.434 . S
C1473 C1464 1.429 . S
C1473 N1470 1.350 1_556 S
C1473 C1472 1.434 . S
C1474 C1475 1.369 . S
C1474 C1476 1.419 . S
C1474 H1478 0.930 . S
C1475 C1474 1.369 . S
C1475 C1484 1.429 1_556 S
C1476 C1474 1.419 . S
C1476 C1477 1.363 . S
C1476 H1479 0.929 . S
C1477 C1476 1.363 . S
C1477 C1483 1.428 1_556 S
H1478 C1474 0.930 . S
H1479 C1476 0.929 . S
S1480 N1481 1.613 . S
S1480 N1482 1.610 . S
N1481 S1480 1.613 . S
N1481 C1484 1.350 . S
N1482 S1480 1.610 . S
N1482 C1483 1.351 . S
C1483 C1477 1.428 1_554 S
C1483 N1482 1.351 . S
C1483 C1484 1.434 . S
C1484 C1475 1.429 1_554 S
C1484 N1481 1.350 . S
C1484 C1483 1.434 . S
C1485 C1486 1.369 . S
C1485 C1487 1.419 . S
C1485 H1489 0.930 . S
C1486 C1485 1.369 . S
C1486 C1495 1.429 . S
C1487 C1485 1.419 . S
C1487 C1488 1.363 . S
C1487 H1490 0.929 . S
C1488 C1487 1.363 . S
C1488 C1494 1.428 . S
H1489 C1485 0.930 . S
H1490 C1487 0.929 . S
S1491 N1492 1.613 . S
S1491 N1493 1.610 . S
N1492 S1491 1.613 . S
N1492 C1495 1.350 . S
N1493 S1491 1.610 . S
N1493 C1494 1.351 . S
C1494 C1488 1.428 . S
C1494 N1493 1.351 . S
C1494 C1495 1.434 . S
C1495 C1486 1.429 . S
C1495 N1492 1.350 . S
C1495 C1494 1.434 . S
C1496 C1497 1.369 . S
C1496 C1498 1.419 . S
C1496 H1500 0.930 . S
C1497 C1496 1.369 . S
C1497 C1506 1.429 . S
C1498 C1496 1.419 . S
C1498 C1499 1.363 . S
C1498 H1501 0.929 . S
C1499 C1498 1.363 . S
C1499 C1505 1.428 . S
H1500 C1496 0.930 . S
H1501 C1498 0.929 . S
S1502 N1503 1.613 . S
S1502 N1504 1.610 . S
N1503 S1502 1.613 . S
N1503 C1506 1.350 . S
N1504 S1502 1.610 . S
N1504 C1505 1.351 . S
C1505 C1499 1.428 . S
C1505 N1504 1.351 . S
C1505 C1506 1.434 . S
C1506 C1497 1.429 . S
C1506 N1503 1.350 . S
C1506 C1505 1.434 . S
C1507 C1508 1.369 . S
C1507 C1509 1.419 . S
C1507 H1511 0.930 . S
C1508 C1507 1.369 . S
C1508 C1517 1.429 . S
C1509 C1507 1.419 . S
C1509 C1510 1.363 . S
C1509 H1512 0.929 . S
C1510 C1509 1.363 . S
C1510 C1516 1.428 . S
H1511 C1507 0.930 . S
H1512 C1509 0.929 . S
S1513 N1514 1.613 . S
S1513 N1515 1.610 . S
N1514 S1513 1.613 . S
N1514 C1517 1.350 . S
N1515 S1513 1.610 . S
N1515 C1516 1.351 . S
C1516 C1510 1.428 . S
C1516 N1515 1.351 . S
C1516 C1517 1.434 . S
C1517 C1508 1.429 . S
C1517 N1514 1.350 . S
C1517 C1516 1.434 . S
C1518 C1519 1.369 . S
C1518 C1520 1.419 . S
C1518 H1522 0.930 . S
C1519 C1518 1.369 . S
C1519 C1528 1.429 . S
C1520 C1518 1.419 . S
C1520 C1521 1.363 . S
C1520 H1523 0.929 . S
C1521 C1520 1.363 . S
C1521 C1527 1.428 . S
H1522 C1518 0.930 . S
H1523 C1520 0.929 . S
S1524 N1525 1.613 . S
S1524 N1526 1.610 . S
N1525 S1524 1.613 . S
N1525 C1528 1.350 . S
N1526 S1524 1.610 . S
N1526 C1527 1.351 . S
C1527 C1521 1.428 . S
C1527 N1526 1.351 . S
C1527 C1528 1.434 . S
C1528 C1519 1.429 . S
C1528 N1525 1.350 . S
C1528 C1527 1.434 . S
C1529 C1530 1.369 . S
C1529 C1531 1.419 . S
C1529 H1533 0.930 . S
C1530 C1529 1.369 . S
C1530 C1539 1.429 . S
C1531 C1529 1.419 . S
C1531 C1532 1.363 . S
C1531 H1534 0.929 . S
C1532 C1531 1.363 . S
C1532 C1538 1.428 . S
H1533 C1529 0.930 . S
H1534 C1531 0.929 . S
S1535 N1536 1.613 . S
S1535 N1537 1.610 . S
N1536 S1535 1.613 . S
N1536 C1539 1.350 . S
N1537 S1535 1.610 . S
N1537 C1538 1.351 . S
C1538 C1532 1.428 . S
C1538 N1537 1.351 . S
C1538 C1539 1.434 . S
C1539 C1530 1.429 . S
C1539 N1536 1.350 . S
C1539 C1538 1.434 . S
C1540 C1541 1.369 . S
C1540 C1542 1.419 . S
C1540 H1544 0.930 . S
C1541 C1540 1.369 . S
C1541 C1550 1.429 . S
C1542 C1540 1.419 . S
C1542 C1543 1.363 . S
C1542 H1545 0.929 . S
C1543 C1542 1.363 . S
C1543 C1549 1.428 . S
H1544 C1540 0.930 . S
H1545 C1542 0.929 . S
S1546 N1547 1.613 . S
S1546 N1548 1.610 . S
N1547 S1546 1.613 . S
N1547 C1550 1.350 . S
N1548 S1546 1.610 . S
N1548 C1549 1.351 . S
C1549 C1543 1.428 . S
C1549 N1548 1.351 . S
C1549 C1550 1.434 . S
C1550 C1541 1.429 . S
C1550 N1547 1.350 . S
C1550 C1549 1.434 . S
C1551 C1552 1.369 . S
C1551 C1553 1.419 . S
C1551 H1555 0.930 . S
C1552 C1551 1.369 . S
C1552 C1561 1.429 . S
C1553 C1551 1.419 . S
C1553 C1554 1.363 . S
C1553 H1556 0.929 . S
C1554 C1553 1.363 . S
C1554 C1560 1.428 . S
H1555 C1551 0.930 . S
H1556 C1553 0.929 . S
S1557 N1558 1.613 . S
S1557 N1559 1.610 . S
N1558 S1557 1.613 . S
N1558 C1561 1.350 . S
N1559 S1557 1.610 . S
N1559 C1560 1.351 . S
C1560 C1554 1.428 . S
C1560 N1559 1.351 . S
C1560 C1561 1.434 . S
C1561 C1552 1.429 . S
C1561 N1558 1.350 . S
C1561 C1560 1.434 . S
C1562 C1563 1.369 . S
C1562 C1564 1.419 . S
C1562 H1566 0.930 . S
C1563 C1562 1.369 . S
C1563 C1572 1.429 . S
C1564 C1562 1.419 . S
C1564 C1565 1.363 . S
C1564 H1567 0.929 . S
C1565 C1564 1.363 . S
C1565 C1571 1.428 . S
H1566 C1562 0.930 . S
H1567 C1564 0.929 . S
S1568 N1569 1.613 . S
S1568 N1570 1.610 . S
N1569 S1568 1.613 . S
N1569 C1572 1.350 . S
N1570 S1568 1.610 . S
N1570 C1571 1.351 . S
C1571 C1565 1.428 . S
C1571 N1570 1.351 . S
C1571 C1572 1.434 . S
C1572 C1563 1.429 . S
C1572 N1569 1.350 . S
C1572 C1571 1.434 . S
C1573 C1574 1.369 . S
C1573 C1575 1.419 . S
C1573 H1577 0.930 . S
C1574 C1573 1.369 . S
C1574 C1583 1.429 . S
C1575 C1573 1.419 . S
C1575 C1576 1.363 . S
C1575 H1578 0.929 . S
C1576 C1575 1.363 . S
C1576 C1582 1.428 . S
H1577 C1573 0.930 . S
H1578 C1575 0.929 . S
S1579 N1580 1.613 . S
S1579 N1581 1.610 . S
N1580 S1579 1.613 . S
N1580 C1583 1.350 . S
N1581 S1579 1.610 . S
N1581 C1582 1.351 . S
C1582 C1576 1.428 . S
C1582 N1581 1.351 . S
C1582 C1583 1.434 . S
C1583 C1574 1.429 . S
C1583 N1580 1.350 . S
C1583 C1582 1.434 . S
C1584 C1585 1.369 . S
C1584 C1586 1.419 . S
C1584 H1588 0.930 . S
C1585 C1584 1.369 . S
C1585 C1594 1.429 . S
C1586 C1584 1.419 . S
C1586 C1587 1.363 . S
C1586 H1589 0.929 . S
C1587 C1586 1.363 . S
C1587 C1593 1.428 . S
H1588 C1584 0.930 . S
H1589 C1586 0.929 . S
S1590 N1591 1.613 . S
S1590 N1592 1.610 . S
N1591 S1590 1.613 . S
N1591 C1594 1.350 . S
N1592 S1590 1.610 . S
N1592 C1593 1.351 . S
C1593 C1587 1.428 . S
C1593 N1592 1.351 . S
C1593 C1594 1.434 . S
C1594 C1585 1.429 . S
C1594 N1591 1.350 . S
C1594 C1593 1.434 . S
C1595 C1596 1.369 . S
C1595 C1597 1.419 . S
C1595 H1599 0.930 . S
C1596 C1595 1.369 . S
C1596 C1605 1.429 . S
C1597 C1595 1.419 . S
C1597 C1598 1.363 . S
C1597 H1600 0.929 . S
C1598 C1597 1.363 . S
C1598 C1604 1.428 . S
H1599 C1595 0.930 . S
H1600 C1597 0.929 . S
S1601 N1602 1.613 . S
S1601 N1603 1.610 . S
N1602 S1601 1.613 . S
N1602 C1605 1.350 . S
N1603 S1601 1.610 . S
N1603 C1604 1.351 . S
C1604 C1598 1.428 . S
C1604 N1603 1.351 . S
C1604 C1605 1.434 . S
C1605 C1596 1.429 . S
C1605 N1602 1.350 . S
C1605 C1604 1.434 . S
C1606 C1607 1.369 . S
C1606 C1608 1.419 . S
C1606 H1610 0.930 . S
C1607 C1606 1.369 . S
C1607 C1616 1.429 . S
C1608 C1606 1.419 . S
C1608 C1609 1.363 . S
C1608 H1611 0.929 . S
C1609 C1608 1.363 . S
C1609 C1615 1.428 . S
H1610 C1606 0.930 . S
H1611 C1608 0.929 . S
S1612 N1613 1.613 . S
S1612 N1614 1.610 . S
N1613 S1612 1.613 . S
N1613 C1616 1.350 . S
N1614 S1612 1.610 . S
N1614 C1615 1.351 . S
C1615 C1609 1.428 . S
C1615 N1614 1.351 . S
C1615 C1616 1.434 . S
C1616 C1607 1.429 . S
C1616 N1613 1.350 . S
C1616 C1615 1.434 . S
C1617 C1618 1.369 . S
C1617 C1619 1.419 . S
C1617 H1621 0.930 . S
C1618 C1617 1.369 . S
C1618 C1627 1.429 . S
C1619 C1617 1.419 . S
C1619 C1620 1.363 . S
C1619 H1622 0.929 . S
C1620 C1619 1.363 . S
C1620 C1626 1.428 . S
H1621 C1617 0.930 . S
H1622 C1619 0.929 . S
S1623 N1624 1.613 . S
S1623 N1625 1.610 . S
N1624 S1623 1.613 . S
N1624 C1627 1.350 . S
N1625 S1623 1.610 . S
N1625 C1626 1.351 . S
C1626 C1620 1.428 . S
C1626 N1625 1.351 . S
C1626 C1627 1.434 . S
C1627 C1618 1.429 . S
C1627 N1624 1.350 . S
C1627 C1626 1.434 . S
C1628 C1629 1.369 . S
C1628 C1630 1.419 . S
C1628 H1632 0.930 . S
C1629 C1628 1.369 . S
C1629 C1638 1.429 . S
C1630 C1628 1.419 . S
C1630 C1631 1.363 . S
C1630 H1633 0.929 . S
C1631 C1630 1.363 . S
C1631 C1637 1.428 . S
H1632 C1628 0.930 . S
H1633 C1630 0.929 . S
S1634 N1635 1.613 . S
S1634 N1636 1.610 . S
N1635 S1634 1.613 . S
N1635 C1638 1.350 . S
N1636 S1634 1.610 . S
N1636 C1637 1.351 . S
C1637 C1631 1.428 . S
C1637 N1636 1.351 . S
C1637 C1638 1.434 . S
C1638 C1629 1.429 . S
C1638 N1635 1.350 . S
C1638 C1637 1.434 . S
C1639 C1640 1.369 . S
C1639 C1641 1.419 . S
C1639 H1643 0.930 . S
C1640 C1639 1.369 . S
C1640 C1649 1.429 . S
C1641 C1639 1.419 . S
C1641 C1642 1.363 . S
C1641 H1644 0.929 . S
C1642 C1641 1.363 . S
C1642 C1648 1.428 . S
H1643 C1639 0.930 . S
H1644 C1641 0.929 . S
S1645 N1646 1.613 . S
S1645 N1647 1.610 . S
N1646 S1645 1.613 . S
N1646 C1649 1.350 . S
N1647 S1645 1.610 . S
N1647 C1648 1.351 . S
C1648 C1642 1.428 . S
C1648 N1647 1.351 . S
C1648 C1649 1.434 . S
C1649 C1640 1.429 . S
C1649 N1646 1.350 . S
C1649 C1648 1.434 . S
C1650 C1651 1.369 . S
C1650 C1652 1.419 . S
C1650 H1654 0.930 . S
C1651 C1650 1.369 . S
C1651 C1660 1.429 . S
C1652 C1650 1.419 . S
C1652 C1653 1.363 . S
C1652 H1655 0.929 . S
C1653 C1652 1.363 . S
C1653 C1659 1.428 . S
H1654 C1650 0.930 . S
H1655 C1652 0.929 . S
S1656 N1657 1.613 . S
S1656 N1658 1.610 . S
N1657 S1656 1.613 . S
N1657 C1660 1.350 . S
N1658 S1656 1.610 . S
N1658 C1659 1.351 . S
C1659 C1653 1.428 . S
C1659 N1658 1.351 . S
C1659 C1660 1.434 . S
C1660 C1651 1.429 . S
C1660 N1657 1.350 . S
C1660 C1659 1.434 . S
C1661 C1662 1.369 . S
C1661 C1663 1.419 . S
C1661 H1665 0.930 . S
C1662 C1661 1.369 . S
C1662 C1671 1.429 . S
C1663 C1661 1.419 . S
C1663 C1664 1.363 . S
C1663 H1666 0.929 . S
C1664 C1663 1.363 . S
C1664 C1670 1.428 . S
H1665 C1661 0.930 . S
H1666 C1663 0.929 . S
S1667 N1668 1.613 . S
S1667 N1669 1.610 . S
N1668 S1667 1.613 . S
N1668 C1671 1.350 . S
N1669 S1667 1.610 . S
N1669 C1670 1.351 . S
C1670 C1664 1.428 . S
C1670 N1669 1.351 . S
C1670 C1671 1.434 . S
C1671 C1662 1.429 . S
C1671 N1668 1.350 . S
C1671 C1670 1.434 . S
C1672 C1673 1.369 . S
C1672 C1674 1.419 . S
C1672 H1676 0.930 . S
C1673 C1672 1.369 . S
C1673 C1682 1.429 . S
C1674 C1672 1.419 . S
C1674 C1675 1.363 . S
C1674 H1677 0.929 . S
C1675 C1674 1.363 . S
C1675 C1681 1.428 . S
H1676 C1672 0.930 . S
H1677 C1674 0.929 . S
S1678 N1679 1.613 . S
S1678 N1680 1.610 . S
N1679 S1678 1.613 . S
N1679 C1682 1.350 . S
N1680 S1678 1.610 . S
N1680 C1681 1.351 . S
C1681 C1675 1.428 . S
C1681 N1680 1.351 . S
C1681 C1682 1.434 . S
C1682 C1673 1.429 . S
C1682 N1679 1.350 . S
C1682 C1681 1.434 . S
C1683 C1684 1.369 . S
C1683 C1685 1.419 . S
C1683 H1687 0.930 . S
C1684 C1683 1.369 . S
C1684 C1693 1.429 . S
C1685 C1683 1.419 . S
C1685 C1686 1.363 . S
C1685 H1688 0.929 . S
C1686 C1685 1.363 . S
C1686 C1692 1.428 . S
H1687 C1683 0.930 . S
H1688 C1685 0.929 . S
S1689 N1690 1.613 . S
S1689 N1691 1.610 . S
N1690 S1689 1.613 . S
N1690 C1693 1.350 . S
N1691 S1689 1.610 . S
N1691 C1692 1.351 . S
C1692 C1686 1.428 . S
C1692 N1691 1.351 . S
C1692 C1693 1.434 . S
C1693 C1684 1.429 . S
C1693 N1690 1.350 . S
C1693 C1692 1.434 . S
C1694 C1695 1.369 . S
C1694 C1696 1.419 . S
C1694 H1698 0.930 . S
C1695 C1694 1.369 . S
C1695 C1704 1.429 . S
C1696 C1694 1.419 . S
C1696 C1697 1.363 . S
C1696 H1699 0.929 . S
C1697 C1696 1.363 . S
C1697 C1703 1.428 . S
H1698 C1694 0.930 . S
H1699 C1696 0.929 . S
S1700 N1701 1.613 . S
S1700 N1702 1.610 . S
N1701 S1700 1.613 . S
N1701 C1704 1.350 . S
N1702 S1700 1.610 . S
N1702 C1703 1.351 . S
C1703 C1697 1.428 . S
C1703 N1702 1.351 . S
C1703 C1704 1.434 . S
C1704 C1695 1.429 . S
C1704 N1701 1.350 . S
C1704 C1703 1.434 . S
C1705 C1706 1.369 . S
C1705 C1707 1.419 . S
C1705 H1709 0.930 . S
C1706 C1705 1.369 . S
C1706 C1715 1.429 . S
C1707 C1705 1.419 . S
C1707 C1708 1.363 . S
C1707 H1710 0.929 . S
C1708 C1707 1.363 . S
C1708 C1714 1.428 . S
H1709 C1705 0.930 . S
H1710 C1707 0.929 . S
S1711 N1712 1.613 . S
S1711 N1713 1.610 . S
N1712 S1711 1.613 . S
N1712 C1715 1.350 . S
N1713 S1711 1.610 . S
N1713 C1714 1.351 . S
C1714 C1708 1.428 . S
C1714 N1713 1.351 . S
C1714 C1715 1.434 . S
C1715 C1706 1.429 . S
C1715 N1712 1.350 . S
C1715 C1714 1.434 . S
C1716 C1717 1.369 . S
C1716 C1718 1.419 . S
C1716 H1720 0.930 . S
C1717 C1716 1.369 . S
C1717 C1726 1.429 . S
C1718 C1716 1.419 . S
C1718 C1719 1.363 . S
C1718 H1721 0.929 . S
C1719 C1718 1.363 . S
C1719 C1725 1.428 . S
H1720 C1716 0.930 . S
H1721 C1718 0.929 . S
S1722 N1723 1.613 . S
S1722 N1724 1.610 . S
N1723 S1722 1.613 . S
N1723 C1726 1.350 . S
N1724 S1722 1.610 . S
N1724 C1725 1.351 . S
C1725 C1719 1.428 . S
C1725 N1724 1.351 . S
C1725 C1726 1.434 . S
C1726 C1717 1.429 . S
C1726 N1723 1.350 . S
C1726 C1725 1.434 . S
C1727 C1728 1.369 . S
C1727 C1729 1.419 . S
C1727 H1731 0.930 . S
C1728 C1727 1.369 . S
C1728 C1737 1.429 . S
C1729 C1727 1.419 . S
C1729 C1730 1.363 . S
C1729 H1732 0.929 . S
C1730 C1729 1.363 . S
C1730 C1736 1.428 . S
H1731 C1727 0.930 . S
H1732 C1729 0.929 . S
S1733 N1734 1.613 . S
S1733 N1735 1.610 . S
N1734 S1733 1.613 . S
N1734 C1737 1.350 . S
N1735 S1733 1.610 . S
N1735 C1736 1.351 . S
C1736 C1730 1.428 . S
C1736 N1735 1.351 . S
C1736 C1737 1.434 . S
C1737 C1728 1.429 . S
C1737 N1734 1.350 . S
C1737 C1736 1.434 . S
C1738 C1739 1.369 . S
C1738 C1740 1.419 . S
C1738 H1742 0.930 . S
C1739 C1738 1.369 . S
C1739 C1748 1.429 . S
C1740 C1738 1.419 . S
C1740 C1741 1.363 . S
C1740 H1743 0.929 . S
C1741 C1740 1.363 . S
C1741 C1747 1.428 . S
H1742 C1738 0.930 . S
H1743 C1740 0.929 . S
S1744 N1745 1.613 . S
S1744 N1746 1.610 . S
N1745 S1744 1.613 . S
N1745 C1748 1.350 . S
N1746 S1744 1.610 . S
N1746 C1747 1.351 . S
C1747 C1741 1.428 . S
C1747 N1746 1.351 . S
C1747 C1748 1.434 . S
C1748 C1739 1.429 . S
C1748 N1745 1.350 . S
C1748 C1747 1.434 . S
C1749 C1750 1.369 . S
C1749 C1751 1.419 . S
C1749 H1753 0.930 . S
C1750 C1749 1.369 . S
C1750 C1759 1.429 . S
C1751 C1749 1.419 . S
C1751 C1752 1.363 . S
C1751 H1754 0.929 . S
C1752 C1751 1.363 . S
C1752 C1758 1.428 . S
H1753 C1749 0.930 . S
H1754 C1751 0.929 . S
S1755 N1756 1.613 . S
S1755 N1757 1.610 . S
N1756 S1755 1.613 . S
N1756 C1759 1.350 . S
N1757 S1755 1.610 . S
N1757 C1758 1.351 . S
C1758 C1752 1.428 . S
C1758 N1757 1.351 . S
C1758 C1759 1.434 . S
C1759 C1750 1.429 . S
C1759 N1756 1.350 . S
C1759 C1758 1.434 . S
C1760 C1761 1.369 . S
C1760 C1762 1.419 . S
C1760 H1764 0.930 . S
C1761 C1760 1.369 . S
C1761 C1770 1.429 . S
C1762 C1760 1.419 . S
C1762 C1763 1.363 . S
C1762 H1765 0.929 . S
C1763 C1762 1.363 . S
C1763 C1769 1.428 . S
H1764 C1760 0.930 . S
H1765 C1762 0.929 . S
S1766 N1767 1.613 . S
S1766 N1768 1.610 . S
N1767 S1766 1.613 . S
N1767 C1770 1.350 . S
N1768 S1766 1.610 . S
N1768 C1769 1.351 . S
C1769 C1763 1.428 . S
C1769 N1768 1.351 . S
C1769 C1770 1.434 . S
C1770 C1761 1.429 . S
C1770 N1767 1.350 . S
C1770 C1769 1.434 . S
C1771 C1772 1.369 . S
C1771 C1773 1.419 . S
C1771 H1775 0.930 . S
C1772 C1771 1.369 . S
C1772 C1781 1.429 . S
C1773 C1771 1.419 . S
C1773 C1774 1.363 . S
C1773 H1776 0.929 . S
C1774 C1773 1.363 . S
C1774 C1780 1.428 . S
H1775 C1771 0.930 . S
H1776 C1773 0.929 . S
S1777 N1778 1.613 . S
S1777 N1779 1.610 . S
N1778 S1777 1.613 . S
N1778 C1781 1.350 . S
N1779 S1777 1.610 . S
N1779 C1780 1.351 . S
C1780 C1774 1.428 . S
C1780 N1779 1.351 . S
C1780 C1781 1.434 . S
C1781 C1772 1.429 . S
C1781 N1778 1.350 . S
C1781 C1780 1.434 . S
C1782 C1783 1.369 . S
C1782 C1784 1.419 . S
C1782 H1786 0.930 . S
C1783 C1782 1.369 . S
C1783 C1792 1.429 . S
C1784 C1782 1.419 . S
C1784 C1785 1.363 . S
C1784 H1787 0.929 . S
C1785 C1784 1.363 . S
C1785 C1791 1.428 . S
H1786 C1782 0.930 . S
H1787 C1784 0.929 . S
S1788 N1789 1.613 . S
S1788 N1790 1.610 . S
N1789 S1788 1.613 . S
N1789 C1792 1.350 . S
N1790 S1788 1.610 . S
N1790 C1791 1.351 . S
C1791 C1785 1.428 . S
C1791 N1790 1.351 . S
C1791 C1792 1.434 . S
C1792 C1783 1.429 . S
C1792 N1789 1.350 . S
C1792 C1791 1.434 . S
C1793 C1794 1.369 . S
C1793 C1795 1.419 . S
C1793 H1797 0.930 . S
C1794 C1793 1.369 . S
C1794 C1803 1.429 1_545 S
C1795 C1793 1.419 . S
C1795 C1796 1.363 1_545 S
C1795 H1798 0.929 . S
C1796 C1795 1.363 1_565 S
C1796 C1802 1.428 . S
H1797 C1793 0.930 . S
H1798 C1795 0.929 . S
S1799 N1800 1.613 . S
S1799 N1801 1.610 . S
N1800 S1799 1.613 . S
N1800 C1803 1.350 . S
N1801 S1799 1.610 . S
N1801 C1802 1.351 . S
C1802 C1796 1.428 . S
C1802 N1801 1.351 . S
C1802 C1803 1.434 . S
C1803 C1794 1.429 1_565 S
C1803 N1800 1.350 . S
C1803 C1802 1.434 . S
C1804 C1805 1.369 1_655 S
C1804 C1806 1.419 . S
C1804 H1808 0.930 . S
C1805 C1804 1.369 1_455 S
C1805 C1814 1.429 . S
C1806 C1804 1.419 . S
C1806 C1807 1.363 . S
C1806 H1809 0.929 . S
C1807 C1806 1.363 . S
C1807 C1813 1.428 1_655 S
H1808 C1804 0.930 . S
H1809 C1806 0.929 . S
S1810 N1811 1.613 . S
S1810 N1812 1.610 . S
N1811 S1810 1.613 . S
N1811 C1814 1.350 . S
N1812 S1810 1.610 . S
N1812 C1813 1.351 . S
C1813 C1807 1.428 1_455 S
C1813 N1812 1.351 . S
C1813 C1814 1.434 . S
C1814 C1805 1.429 . S
C1814 N1811 1.350 . S
C1814 C1813 1.434 . S
C1815 C1816 1.369 . S
C1815 C1817 1.419 . S
C1815 H1819 0.930 . S
C1816 C1815 1.369 . S
C1816 C1825 1.429 . S
C1817 C1815 1.419 . S
C1817 C1818 1.363 . S
C1817 H1820 0.929 . S
C1818 C1817 1.363 . S
C1818 C1824 1.428 . S
H1819 C1815 0.930 . S
H1820 C1817 0.929 . S
S1821 N1822 1.613 . S
S1821 N1823 1.610 . S
N1822 S1821 1.613 . S
N1822 C1825 1.350 . S
N1823 S1821 1.610 . S
N1823 C1824 1.351 . S
C1824 C1818 1.428 . S
C1824 N1823 1.351 . S
C1824 C1825 1.434 . S
C1825 C1816 1.429 . S
C1825 N1822 1.350 . S
C1825 C1824 1.434 . S
C1826 C1827 1.369 . S
C1826 C1828 1.419 . S
C1826 H1830 0.930 . S
C1827 C1826 1.369 . S
C1827 C1836 1.429 1_545 S
C1828 C1826 1.419 . S
C1828 C1829 1.363 1_545 S
C1828 H1831 0.929 . S
C1829 C1828 1.363 1_565 S
C1829 C1835 1.428 . S
H1830 C1826 0.930 . S
H1831 C1828 0.929 . S
S1832 N1833 1.613 . S
S1832 N1834 1.610 . S
N1833 S1832 1.613 . S
N1833 C1836 1.350 . S
N1834 S1832 1.610 . S
N1834 C1835 1.351 . S
C1835 C1829 1.428 . S
C1835 N1834 1.351 . S
C1835 C1836 1.434 . S
C1836 C1827 1.429 1_565 S
C1836 N1833 1.350 . S
C1836 C1835 1.434 . S
C1837 C1838 1.369 1_655 S
C1837 C1839 1.419 . S
C1837 H1841 0.930 . S
C1838 C1837 1.369 1_455 S
C1838 C1847 1.429 . S
C1839 C1837 1.419 . S
C1839 C1840 1.363 . S
C1839 H1842 0.929 . S
C1840 C1839 1.363 . S
C1840 C1846 1.428 1_655 S
H1841 C1837 0.930 . S
H1842 C1839 0.929 . S
S1843 N1844 1.613 . S
S1843 N1845 1.610 . S
N1844 S1843 1.613 . S
N1844 C1847 1.350 . S
N1845 S1843 1.610 . S
N1845 C1846 1.351 . S
C1846 C1840 1.428 1_455 S
C1846 N1845 1.351 . S
C1846 C1847 1.434 . S
C1847 C1838 1.429 . S
C1847 N1844 1.350 . S
C1847 C1846 1.434 . S
C1848 C1849 1.369 . S
C1848 C1850 1.419 . S
C1848 H1852 0.930 . S
C1849 C1848 1.369 . S
C1849 C1858 1.429 . S
C1850 C1848 1.419 . S
C1850 C1851 1.363 . S
C1850 H1853 0.929 . S
C1851 C1850 1.363 . S
C1851 C1857 1.428 . S
H1852 C1848 0.930 . S
H1853 C1850 0.929 . S
S1854 N1855 1.613 . S
S1854 N1856 1.610 . S
N1855 S1854 1.613 . S
N1855 C1858 1.350 . S
N1856 S1854 1.610 . S
N1856 C1857 1.351 . S
C1857 C1851 1.428 . S
C1857 N1856 1.351 . S
C1857 C1858 1.434 . S
C1858 C1849 1.429 . S
C1858 N1855 1.350 . S
C1858 C1857 1.434 . S
C1859 C1860 1.369 . S
C1859 C1861 1.419 . S
C1859 H1863 0.930 . S
C1860 C1859 1.369 . S
C1860 C1869 1.429 . S
C1861 C1859 1.419 . S
C1861 C1862 1.363 . S
C1861 H1864 0.929 . S
C1862 C1861 1.363 . S
C1862 C1868 1.428 . S
H1863 C1859 0.930 . S
H1864 C1861 0.929 . S
S1865 N1866 1.613 . S
S1865 N1867 1.610 . S
N1866 S1865 1.613 . S
N1866 C1869 1.350 . S
N1867 S1865 1.610 . S
N1867 C1868 1.351 . S
C1868 C1862 1.428 . S
C1868 N1867 1.351 . S
C1868 C1869 1.434 . S
C1869 C1860 1.429 . S
C1869 N1866 1.350 . S
C1869 C1868 1.434 . S
C1870 C1871 1.369 . S
C1870 C1872 1.419 . S
C1870 H1874 0.930 . S
C1871 C1870 1.369 . S
C1871 C1880 1.429 . S
C1872 C1870 1.419 . S
C1872 C1873 1.363 . S
C1872 H1875 0.929 . S
C1873 C1872 1.363 . S
C1873 C1879 1.428 . S
H1874 C1870 0.930 . S
H1875 C1872 0.929 . S
S1876 N1877 1.613 . S
S1876 N1878 1.610 . S
N1877 S1876 1.613 . S
N1877 C1880 1.350 . S
N1878 S1876 1.610 . S
N1878 C1879 1.351 . S
C1879 C1873 1.428 . S
C1879 N1878 1.351 . S
C1879 C1880 1.434 . S
C1880 C1871 1.429 . S
C1880 N1877 1.350 . S
C1880 C1879 1.434 . S
C1881 C1882 1.369 . S
C1881 C1883 1.419 . S
C1881 H1885 0.930 . S
C1882 C1881 1.369 . S
C1882 C1891 1.429 . S
C1883 C1881 1.419 . S
C1883 C1884 1.363 . S
C1883 H1886 0.929 . S
C1884 C1883 1.363 . S
C1884 C1890 1.428 . S
H1885 C1881 0.930 . S
H1886 C1883 0.929 . S
S1887 N1888 1.613 . S
S1887 N1889 1.610 1_554 S
N1888 S1887 1.613 . S
N1888 C1891 1.350 . S
N1889 S1887 1.610 1_556 S
N1889 C1890 1.351 1_556 S
C1890 C1884 1.428 . S
C1890 N1889 1.351 1_554 S
C1890 C1891 1.434 . S
C1891 C1882 1.429 . S
C1891 N1888 1.350 . S
C1891 C1890 1.434 . S
C1892 C1893 1.369 . S
C1892 C1894 1.419 . S
C1892 H1896 0.930 . S
C1893 C1892 1.369 . S
C1893 C1902 1.429 . S
C1894 C1892 1.419 . S
C1894 C1895 1.363 . S
C1894 H1897 0.929 . S
C1895 C1894 1.363 . S
C1895 C1901 1.428 . S
H1896 C1892 0.930 . S
H1897 C1894 0.929 . S
S1898 N1899 1.613 . S
S1898 N1900 1.610 1_554 S
N1899 S1898 1.613 . S
N1899 C1902 1.350 . S
N1900 S1898 1.610 1_556 S
N1900 C1901 1.351 1_556 S
C1901 C1895 1.428 . S
C1901 N1900 1.351 1_554 S
C1901 C1902 1.434 . S
C1902 C1893 1.429 . S
C1902 N1899 1.350 . S
C1902 C1901 1.434 . S
C1903 C1904 1.369 . S
C1903 C1905 1.419 . S
C1903 H1907 0.930 . S
C1904 C1903 1.369 . S
C1904 C1913 1.429 . S
C1905 C1903 1.419 . S
C1905 C1906 1.363 . S
C1905 H1908 0.929 . S
C1906 C1905 1.363 . S
C1906 C1912 1.428 . S
H1907 C1903 0.930 . S
H1908 C1905 0.929 . S
S1909 N1910 1.613 . S
S1909 N1911 1.610 . S
N1910 S1909 1.613 . S
N1910 C1913 1.350 . S
N1911 S1909 1.610 . S
N1911 C1912 1.351 . S
C1912 C1906 1.428 . S
C1912 N1911 1.351 . S
C1912 C1913 1.434 . S
C1913 C1904 1.429 . S
C1913 N1910 1.350 . S
C1913 C1912 1.434 . S
C1914 C1915 1.369 . S
C1914 C1916 1.419 . S
C1914 H1918 0.930 . S
C1915 C1914 1.369 . S
C1915 C1924 1.429 . S
C1916 C1914 1.419 . S
C1916 C1917 1.363 . S
C1916 H1919 0.929 . S
C1917 C1916 1.363 . S
C1917 C1923 1.428 . S
H1918 C1914 0.930 . S
H1919 C1916 0.929 . S
S1920 N1921 1.613 . S
S1920 N1922 1.610 . S
N1921 S1920 1.613 . S
N1921 C1924 1.350 . S
N1922 S1920 1.610 . S
N1922 C1923 1.351 . S
C1923 C1917 1.428 . S
C1923 N1922 1.351 . S
C1923 C1924 1.434 . S
C1924 C1915 1.429 . S
C1924 N1921 1.350 . S
C1924 C1923 1.434 . S
C1925 C1926 1.369 . S
C1925 C1927 1.419 . S
C1925 H1929 0.930 . S
C1926 C1925 1.369 . S
C1926 C1935 1.429 . S
C1927 C1925 1.419 . S
C1927 C1928 1.363 . S
C1927 H1930 0.929 . S
C1928 C1927 1.363 . S
C1928 C1934 1.428 . S
H1929 C1925 0.930 . S
H1930 C1927 0.929 . S
S1931 N1932 1.613 . S
S1931 N1933 1.610 . S
N1932 S1931 1.613 . S
N1932 C1935 1.350 . S
N1933 S1931 1.610 . S
N1933 C1934 1.351 . S
C1934 C1928 1.428 . S
C1934 N1933 1.351 . S
C1934 C1935 1.434 . S
C1935 C1926 1.429 . S
C1935 N1932 1.350 . S
C1935 C1934 1.434 . S
C1936 C1937 1.369 . S
C1936 C1938 1.419 . S
C1936 H1940 0.930 . S
C1937 C1936 1.369 . S
C1937 C1946 1.429 . S
C1938 C1936 1.419 . S
C1938 C1939 1.363 . S
C1938 H1941 0.929 . S
C1939 C1938 1.363 . S
C1939 C1945 1.428 . S
H1940 C1936 0.930 . S
H1941 C1938 0.929 . S
S1942 N1943 1.613 . S
S1942 N1944 1.610 . S
N1943 S1942 1.613 . S
N1943 C1946 1.350 . S
N1944 S1942 1.610 . S
N1944 C1945 1.351 . S
C1945 C1939 1.428 . S
C1945 N1944 1.351 . S
C1945 C1946 1.434 . S
C1946 C1937 1.429 . S
C1946 N1943 1.350 . S
C1946 C1945 1.434 . S
C1947 C1948 1.369 . S
C1947 C1949 1.419 . S
C1947 H1951 0.930 . S
C1948 C1947 1.369 . S
C1948 C1957 1.429 . S
C1949 C1947 1.419 . S
C1949 C1950 1.363 . S
C1949 H1952 0.929 . S
C1950 C1949 1.363 . S
C1950 C1956 1.428 . S
H1951 C1947 0.930 . S
H1952 C1949 0.929 . S
S1953 N1954 1.613 . S
S1953 N1955 1.610 . S
N1954 S1953 1.613 . S
N1954 C1957 1.350 . S
N1955 S1953 1.610 . S
N1955 C1956 1.351 . S
C1956 C1950 1.428 . S
C1956 N1955 1.351 . S
C1956 C1957 1.434 . S
C1957 C1948 1.429 . S
C1957 N1954 1.350 . S
C1957 C1956 1.434 . S
C1958 C1959 1.369 . S
C1958 C1960 1.419 . S
C1958 H1962 0.930 . S
C1959 C1958 1.369 . S
C1959 C1968 1.429 . S
C1960 C1958 1.419 . S
C1960 C1961 1.363 . S
C1960 H1963 0.929 . S
C1961 C1960 1.363 . S
C1961 C1967 1.428 . S
H1962 C1958 0.930 . S
H1963 C1960 0.929 . S
S1964 N1965 1.613 . S
S1964 N1966 1.610 . S
N1965 S1964 1.613 . S
N1965 C1968 1.350 . S
N1966 S1964 1.610 . S
N1966 C1967 1.351 . S
C1967 C1961 1.428 . S
C1967 N1966 1.351 . S
C1967 C1968 1.434 . S
C1968 C1959 1.429 . S
C1968 N1965 1.350 . S
C1968 C1967 1.434 . S
C1969 C1970 1.369 . S
C1969 C1971 1.419 . S
C1969 H1973 0.930 . S
C1970 C1969 1.369 . S
C1970 C1979 1.429 . S
C1971 C1969 1.419 . S
C1971 C1972 1.363 . S
C1971 H1974 0.929 . S
C1972 C1971 1.363 . S
C1972 C1978 1.428 . S
H1973 C1969 0.930 . S
H1974 C1971 0.929 . S
S1975 N1976 1.613 . S
S1975 N1977 1.610 . S
N1976 S1975 1.613 . S
N1976 C1979 1.350 . S
N1977 S1975 1.610 . S
N1977 C1978 1.351 . S
C1978 C1972 1.428 . S
C1978 N1977 1.351 . S
C1978 C1979 1.434 . S
C1979 C1970 1.429 . S
C1979 N1976 1.350 . S
C1979 C1978 1.434 . S
C1980 C1981 1.369 . S
C1980 C1982 1.419 . S
C1980 H1984 0.930 . S
C1981 C1980 1.369 . S
C1981 C1990 1.429 . S
C1982 C1980 1.419 . S
C1982 C1983 1.363 . S
C1982 H1985 0.929 . S
C1983 C1982 1.363 . S
C1983 C1989 1.428 . S
H1984 C1980 0.930 . S
H1985 C1982 0.929 . S
S1986 N1987 1.613 . S
S1986 N1988 1.610 . S
N1987 S1986 1.613 . S
N1987 C1990 1.350 . S
N1988 S1986 1.610 . S
N1988 C1989 1.351 . S
C1989 C1983 1.428 . S
C1989 N1988 1.351 . S
C1989 C1990 1.434 . S
C1990 C1981 1.429 . S
C1990 N1987 1.350 . S
C1990 C1989 1.434 . S
C1991 C1992 1.369 . S
C1991 C1993 1.419 . S
C1991 H1995 0.930 . S
C1992 C1991 1.369 . S
C1992 C2001 1.429 . S
C1993 C1991 1.419 . S
C1993 C1994 1.363 . S
C1993 H1996 0.929 . S
C1994 C1993 1.363 . S
C1994 C2000 1.428 . S
H1995 C1991 0.930 . S
H1996 C1993 0.929 . S
S1997 N1998 1.613 . S
S1997 N1999 1.610 . S
N1998 S1997 1.613 . S
N1998 C2001 1.350 . S
N1999 S1997 1.610 . S
N1999 C2000 1.351 . S
C2000 C1994 1.428 . S
C2000 N1999 1.351 . S
C2000 C2001 1.434 . S
C2001 C1992 1.429 . S
C2001 N1998 1.350 . S
C2001 C2000 1.434 . S
C2002 C2003 1.369 . S
C2002 C2004 1.419 . S
C2002 H2006 0.930 . S
C2003 C2002 1.369 . S
C2003 C2012 1.429 . S
C2004 C2002 1.419 . S
C2004 C2005 1.363 . S
C2004 H2007 0.929 . S
C2005 C2004 1.363 . S
C2005 C2011 1.428 . S
H2006 C2002 0.930 . S
H2007 C2004 0.929 . S
S2008 N2009 1.613 . S
S2008 N2010 1.610 . S
N2009 S2008 1.613 . S
N2009 C2012 1.350 . S
N2010 S2008 1.610 . S
N2010 C2011 1.351 . S
C2011 C2005 1.428 . S
C2011 N2010 1.351 . S
C2011 C2012 1.434 . S
C2012 C2003 1.429 . S
C2012 N2009 1.350 . S
C2012 C2011 1.434 . S
C2013 C2014 1.369 . S
C2013 C2015 1.419 . S
C2013 H2017 0.930 . S
C2014 C2013 1.369 . S
C2014 C2023 1.429 . S
C2015 C2013 1.419 . S
C2015 C2016 1.363 . S
C2015 H2018 0.929 . S
C2016 C2015 1.363 . S
C2016 C2022 1.428 . S
H2017 C2013 0.930 . S
H2018 C2015 0.929 . S
S2019 N2020 1.613 . S
S2019 N2021 1.610 . S
N2020 S2019 1.613 . S
N2020 C2023 1.350 . S
N2021 S2019 1.610 . S
N2021 C2022 1.351 . S
C2022 C2016 1.428 . S
C2022 N2021 1.351 . S
C2022 C2023 1.434 . S
C2023 C2014 1.429 . S
C2023 N2020 1.350 . S
C2023 C2022 1.434 . S
C2024 C2025 1.369 . S
C2024 C2026 1.419 . S
C2024 H2028 0.930 . S
C2025 C2024 1.369 . S
C2025 C2034 1.429 . S
C2026 C2024 1.419 . S
C2026 C2027 1.363 . S
C2026 H2029 0.929 . S
C2027 C2026 1.363 . S
C2027 C2033 1.428 . S
H2028 C2024 0.930 . S
H2029 C2026 0.929 . S
S2030 N2031 1.613 . S
S2030 N2032 1.610 . S
N2031 S2030 1.613 . S
N2031 C2034 1.350 . S
N2032 S2030 1.610 . S
N2032 C2033 1.351 . S
C2033 C2027 1.428 . S
C2033 N2032 1.351 . S
C2033 C2034 1.434 . S
C2034 C2025 1.429 . S
C2034 N2031 1.350 . S
C2034 C2033 1.434 . S
C2035 C2036 1.369 . S
C2035 C2037 1.419 . S
C2035 H2039 0.930 . S
C2036 C2035 1.369 . S
C2036 C2045 1.429 . S
C2037 C2035 1.419 . S
C2037 C2038 1.363 . S
C2037 H2040 0.929 . S
C2038 C2037 1.363 . S
C2038 C2044 1.428 . S
H2039 C2035 0.930 . S
H2040 C2037 0.929 . S
S2041 N2042 1.613 . S
S2041 N2043 1.610 . S
N2042 S2041 1.613 . S
N2042 C2045 1.350 . S
N2043 S2041 1.610 . S
N2043 C2044 1.351 . S
C2044 C2038 1.428 . S
C2044 N2043 1.351 . S
C2044 C2045 1.434 . S
C2045 C2036 1.429 . S
C2045 N2042 1.350 . S
C2045 C2044 1.434 . S
C2046 C2047 1.369 . S
C2046 C2048 1.419 . S
C2046 H2050 0.930 . S
C2047 C2046 1.369 . S
C2047 C2056 1.429 . S
C2048 C2046 1.419 . S
C2048 C2049 1.363 . S
C2048 H2051 0.929 . S
C2049 C2048 1.363 . S
C2049 C2055 1.428 . S
H2050 C2046 0.930 . S
H2051 C2048 0.929 . S
S2052 N2053 1.613 . S
S2052 N2054 1.610 1_556 S
N2053 S2052 1.613 . S
N2053 C2056 1.350 1_556 S
N2054 S2052 1.610 1_554 S
N2054 C2055 1.351 . S
C2055 C2049 1.428 . S
C2055 N2054 1.351 . S
C2055 C2056 1.434 . S
C2056 C2047 1.429 . S
C2056 N2053 1.350 1_554 S
C2056 C2055 1.434 . S
C2057 C2058 1.369 . S
C2057 C2059 1.419 . S
C2057 H2061 0.930 . S
C2058 C2057 1.369 . S
C2058 C2067 1.429 . S
C2059 C2057 1.419 . S
C2059 C2060 1.363 . S
C2059 H2062 0.929 . S
C2060 C2059 1.363 . S
C2060 C2066 1.428 . S
H2061 C2057 0.930 . S
H2062 C2059 0.929 . S
S2063 N2064 1.613 . S
S2063 N2065 1.610 . S
N2064 S2063 1.613 . S
N2064 C2067 1.350 . S
N2065 S2063 1.610 . S
N2065 C2066 1.351 . S
C2066 C2060 1.428 . S
C2066 N2065 1.351 . S
C2066 C2067 1.434 . S
C2067 C2058 1.429 . S
C2067 N2064 1.350 . S
C2067 C2066 1.434 . S
C2068 C2069 1.369 . S
C2068 C2070 1.419 . S
C2068 H2072 0.930 . S
C2069 C2068 1.369 . S
C2069 C2078 1.429 . S
C2070 C2068 1.419 . S
C2070 C2071 1.363 . S
C2070 H2073 0.929 . S
C2071 C2070 1.363 . S
C2071 C2077 1.428 . S
H2072 C2068 0.930 . S
H2073 C2070 0.929 . S
S2074 N2075 1.613 . S
S2074 N2076 1.610 1_556 S
N2075 S2074 1.613 . S
N2075 C2078 1.350 1_556 S
N2076 S2074 1.610 1_554 S
N2076 C2077 1.351 . S
C2077 C2071 1.428 . S
C2077 N2076 1.351 . S
C2077 C2078 1.434 . S
C2078 C2069 1.429 . S
C2078 N2075 1.350 1_554 S
C2078 C2077 1.434 . S
C2079 C2080 1.369 . S
C2079 C2081 1.419 . S
C2079 H2083 0.930 . S
C2080 C2079 1.369 . S
C2080 C2089 1.429 . S
C2081 C2079 1.419 . S
C2081 C2082 1.363 . S
C2081 H2084 0.929 . S
C2082 C2081 1.363 . S
C2082 C2088 1.428 . S
H2083 C2079 0.930 . S
H2084 C2081 0.929 . S
S2085 N2086 1.613 . S
S2085 N2087 1.610 . S
N2086 S2085 1.613 . S
N2086 C2089 1.350 . S
N2087 S2085 1.610 . S
N2087 C2088 1.351 . S
C2088 C2082 1.428 . S
C2088 N2087 1.351 . S
C2088 C2089 1.434 . S
C2089 C2080 1.429 . S
C2089 N2086 1.350 . S
C2089 C2088 1.434 . S
C2090 C2091 1.369 . S
C2090 C2092 1.419 . S
C2090 H2094 0.930 . S
C2091 C2090 1.369 . S
C2091 C2100 1.429 . S
C2092 C2090 1.419 . S
C2092 C2093 1.363 . S
C2092 H2095 0.929 . S
C2093 C2092 1.363 . S
C2093 C2099 1.428 . S
H2094 C2090 0.930 . S
H2095 C2092 0.929 . S
S2096 N2097 1.613 . S
S2096 N2098 1.610 . S
N2097 S2096 1.613 . S
N2097 C2100 1.350 . S
N2098 S2096 1.610 . S
N2098 C2099 1.351 . S
C2099 C2093 1.428 . S
C2099 N2098 1.351 . S
C2099 C2100 1.434 . S
C2100 C2091 1.429 . S
C2100 N2097 1.350 . S
C2100 C2099 1.434 . S
C2101 C2102 1.369 . S
C2101 C2103 1.419 . S
C2101 H2105 0.930 . S
C2102 C2101 1.369 . S
C2102 C2111 1.429 . S
C2103 C2101 1.419 . S
C2103 C2104 1.363 . S
C2103 H2106 0.929 . S
C2104 C2103 1.363 . S
C2104 C2110 1.428 . S
H2105 C2101 0.930 . S
H2106 C2103 0.929 . S
S2107 N2108 1.613 . S
S2107 N2109 1.610 . S
N2108 S2107 1.613 . S
N2108 C2111 1.350 . S
N2109 S2107 1.610 . S
N2109 C2110 1.351 . S
C2110 C2104 1.428 . S
C2110 N2109 1.351 . S
C2110 C2111 1.434 . S
C2111 C2102 1.429 . S
C2111 N2108 1.350 . S
C2111 C2110 1.434 . S
C2112 C2113 1.366 1_655 S
C2112 C2114 1.423 . S
C2112 H2116 0.929 . S
C2113 C2112 1.366 1_455 S
C2113 C2122 1.429 . S
C2114 C2112 1.423 . S
C2114 C2115 1.363 . S
C2114 H2117 0.929 . S
C2115 C2114 1.363 . S
C2115 C2121 1.428 1_655 S
H2116 C2112 0.929 . S
H2117 C2114 0.929 . S
S2118 N2119 1.613 . S
S2118 N2120 1.610 . S
N2119 S2118 1.613 . S
N2119 C2122 1.350 . S
N2120 S2118 1.610 . S
N2120 C2121 1.351 . S
C2121 C2115 1.428 1_455 S
C2121 N2120 1.351 . S
C2121 C2122 1.434 . S
C2122 C2113 1.429 . S
C2122 N2119 1.350 . S
C2122 C2121 1.434 . S
C2123 C2124 1.369 . S
C2123 C2125 1.419 . S
C2123 H2127 0.930 . S
C2124 C2123 1.369 . S
C2124 C2133 1.429 . S
C2125 C2123 1.419 . S
C2125 C2126 1.363 . S
C2125 H2128 0.929 . S
C2126 C2125 1.363 . S
C2126 C2132 1.428 . S
H2127 C2123 0.930 . S
H2128 C2125 0.929 . S
S2129 N2130 1.613 . S
S2129 N2131 1.610 . S
N2130 S2129 1.613 . S
N2130 C2133 1.350 . S
N2131 S2129 1.610 . S
N2131 C2132 1.351 . S
C2132 C2126 1.428 . S
C2132 N2131 1.351 . S
C2132 C2133 1.434 . S
C2133 C2124 1.429 . S
C2133 N2130 1.350 . S
C2133 C2132 1.434 . S
C2134 C2135 1.369 1_545 S
C2134 C2136 1.419 . S
C2134 H2138 0.930 . S
C2135 C2134 1.369 1_565 S
C2135 C2144 1.429 . S
C2136 C2134 1.419 . S
C2136 C2137 1.363 . S
C2136 H2139 0.929 . S
C2137 C2136 1.363 . S
C2137 C2143 1.428 1_545 S
H2138 C2134 0.930 . S
H2139 C2136 0.929 . S
S2140 N2141 1.613 . S
S2140 N2142 1.610 . S
N2141 S2140 1.613 . S
N2141 C2144 1.350 . S
N2142 S2140 1.610 . S
N2142 C2143 1.351 . S
C2143 C2137 1.428 1_565 S
C2143 N2142 1.351 . S
C2143 C2144 1.434 . S
C2144 C2135 1.429 . S
C2144 N2141 1.350 . S
C2144 C2143 1.434 . S
C2145 C2146 1.369 . S
C2145 C2147 1.422 1_565 S
C2145 H2149 0.930 . S
C2146 C2145 1.369 . S
C2146 C2155 1.429 1_565 S
C2147 C2145 1.422 1_545 S
C2147 C2148 1.358 . S
C2147 H2150 0.931 1_545 S
C2148 C2147 1.358 . S
C2148 C2154 1.428 . S
H2149 C2145 0.930 . S
H2150 C2147 0.931 1_565 S
S2151 N2152 1.613 . S
S2151 N2153 1.610 . S
N2152 S2151 1.613 . S
N2152 C2155 1.350 . S
N2153 S2151 1.610 . S
N2153 C2154 1.351 . S
C2154 C2148 1.428 . S
C2154 N2153 1.351 . S
C2154 C2155 1.434 . S
C2155 C2146 1.429 1_545 S
C2155 N2152 1.350 . S
C2155 C2154 1.434 . S
C2156 C2157 1.369 . S
C2156 C2158 1.419 1_455 S
C2156 H2160 0.930 . S
C2157 C2156 1.369 . S
C2157 C2166 1.429 . S
C2158 C2156 1.419 1_655 S
C2158 C2159 1.363 . S
C2158 H2161 0.929 . S
C2159 C2158 1.363 . S
C2159 C2165 1.428 . S
H2160 C2156 0.930 . S
H2161 C2158 0.929 . S
S2162 N2163 1.613 . S
S2162 N2164 1.610 1_455 S
N2163 S2162 1.613 . S
N2163 C2166 1.350 . S
N2164 S2162 1.610 1_655 S
N2164 C2165 1.351 . S
C2165 C2159 1.428 . S
C2165 N2164 1.351 . S
C2165 C2166 1.434 1_655 S
C2166 C2157 1.429 . S
C2166 N2163 1.350 . S
C2166 C2165 1.434 1_455 S
C2167 C2168 1.369 . S
C2167 C2169 1.419 . S
C2167 H2171 0.930 . S
C2168 C2167 1.369 . S
C2168 C2177 1.429 . S
C2169 C2167 1.419 . S
C2169 C2170 1.363 . S
C2169 H2172 0.929 . S
C2170 C2169 1.363 . S
C2170 C2176 1.428 . S
H2171 C2167 0.930 . S
H2172 C2169 0.929 . S
S2173 N2174 1.613 . S
S2173 N2175 1.610 . S
N2174 S2173 1.613 . S
N2174 C2177 1.350 . S
N2175 S2173 1.610 . S
N2175 C2176 1.351 . S
C2176 C2170 1.428 . S
C2176 N2175 1.351 . S
C2176 C2177 1.434 . S
C2177 C2168 1.429 . S
C2177 N2174 1.350 . S
C2177 C2176 1.434 . S
C1189 N596 0.866 . S
C1191 N2 0.875 . S
C1200 N35 0.867 . S
C1202 N629 0.874 . S
C1211 N662 0.876 . S
C1213 N68 0.868 . S
C1222 N1091 0.874 . S
C1224 N101 0.868 . S
C1233 N1124 0.869 . S
C1235 N134 0.873 . S
C1244 N167 0.871 . S
C1246 N1157 0.872 . S
C1255 N200 0.866 . S
C1257 N794 0.875 . S
C1266 N827 0.875 . S
C1268 N233 0.868 . S
C1277 N266 0.877 . S
C1279 N860 0.867 . S
C1288 N497 0.868 . S
C1290 N299 0.873 . S
C1299 N332 0.874 . S
C1301 N530 0.869 . S
C1310 N563 0.873 . S
C1312 N365 0.870 . S
C1321 N398 0.876 . S
C1323 N992 0.868 . S
C1332 N431 0.866 . S
C1334 N1025 0.875 . S
C1343 N1058 0.869 . S
C1345 N464 0.874 . S
C1354 N893 0.873 . S
C1356 N695 0.869 . S
C1365 N728 0.870 . S
C1367 N926 0.872 . S
C1376 N959 0.866 . S
C1378 N761 0.875 . S
C1387 C21 1.286 . S
C1389 N244 1.324 . S
C1398 C54 1.284 . S
C1400 N277 1.325 . S
C1409 C87 1.286 . S
C1411 N211 1.324 . S
C1420 N376 1.324 . S
C1422 C120 1.285 . S
C1431 C153 1.276 . S
C1433 N310 1.324 . S
C1442 C186 1.286 . S
C1444 N343 1.324 . S
C1453 C219 1.276 . S
C1455 N46 1.325 . S
C1464 C252 1.276 . S
C1466 N79 1.325 . S
C1475 N13 1.324 . S
C1477 C285 1.284 . S
C1486 C318 1.286 . S
C1488 N178 1.324 . S
C1497 C351 1.276 . S
C1499 N112 1.324 . S
C1508 C384 1.278 . S
C1510 N145 1.325 . S
C1519 N640 1.323 . S
C1521 C417 1.282 . S
C1530 C450 1.281 . S
C1532 N673 1.324 . S
C1541 C483 1.276 . S
C1543 N607 1.325 . S
C1552 C516 1.286 . S
C1554 N772 1.324 . S
C1563 C549 1.277 . S
C1565 N706 1.325 . S
C1574 N739 1.324 . S
C1576 C582 1.285 . S
C1585 N442 1.325 . S
C1587 C615 1.278 . S
C1596 C648 1.284 . S
C1598 N475 1.324 . S
C1607 N409 1.323 . S
C1609 C681 1.282 . S
C1618 C714 1.276 . S
C1620 N574 1.325 . S
C1629 N508 1.324 . S
C1631 C747 1.285 . S
C1640 N541 1.325 . S
C1642 C780 1.278 . S
C1651 N1036 1.323 . S
C1653 C813 1.281 . S
C1662 N1069 1.325 . S
C1664 C846 1.278 . S
C1673 C879 1.285 . S
C1675 N1003 1.323 . S
C1684 N1168 1.324 . S
C1686 C912 1.278 . S
C1695 N1102 1.325 . S
C1697 C945 1.280 . S
C1706 C978 1.277 . S
C1708 N1135 1.325 . S
C1717 N838 1.323 . S
C1719 C1011 1.285 . S
C1728 C1044 1.283 . S
C1730 N871 1.324 . S
C1739 C1077 1.282 . S
C1741 N805 1.323 . S
C1750 C1110 1.285 . S
C1752 N970 1.323 . S
C1761 N904 1.325 . S
C1763 C1143 1.280 . S
C1772 N937 1.323 . S
C1774 C1176 1.283 . S
C1783 C18 1.699 . S
C1785 C117 1.700 . S
C1794 C51 1.700 . S
C1796 C150 1.699 . S
C1805 C183 1.699 . S
C1807 C84 1.700 . S
C1816 C216 1.699 . S
C1818 C315 1.699 . S
C1827 C348 1.699 . S
C1829 C249 1.699 . S
C1838 C282 1.700 . S
C1840 C381 1.700 . S
C1849 C414 1.699 . S
C1851 C513 1.699 . S
C1860 C447 1.698 . S
C1862 C546 1.699 . S
C1871 C579 1.698 . S
C1873 C480 1.699 . S
C1882 C612 1.699 . S
C1884 C711 1.699 1_554 S
C1893 C645 1.699 . S
C1895 C744 1.700 1_554 S
C1904 C777 1.699 1_554 S
C1906 C678 1.699 . S
C1915 C909 1.699 1_556 S
C1917 C810 1.699 . S
C1926 C942 1.700 1_556 S
C1928 C843 1.699 . S
C1937 C876 1.699 . S
C1939 C975 1.699 1_556 S
C1948 C1008 1.699 . S
C1950 C1107 1.699 . S
C1959 C1140 1.700 . S
C1961 C1041 1.699 . S
C1970 C1173 1.699 . S
C1972 C1074 1.699 . S
C1981 C7 1.911 . S
C1983 C535 1.912 . S
C1992 C40 1.912 . S
C1994 C568 1.913 . S
C2003 C502 1.911 . S
C2005 C73 1.912 . S
C2014 C106 1.912 . S
C2016 C865 1.914 . S
C2025 C799 1.913 . S
C2027 C139 1.915 . S
C2036 C172 1.911 . S
C2038 C832 1.912 . S
C2047 C205 1.911 . S
C2049 C1129 1.913 . S
C2058 C1162 1.911 . S
C2060 C238 1.912 . S
C2069 C271 1.912 . S
C2071 C1096 1.914 . S
C2080 C667 1.911 . S
C2082 C304 1.913 . S
C2091 C601 1.917 . S
C2093 C337 1.916 . S
C2102 C634 1.916 . S
C2104 C370 1.914 . S
C2113 C931 1.915 . S
C2115 C403 1.913 . S
C2124 C964 1.916 . S
C2126 C436 1.914 . S
C2135 C898 1.915 . S
C2137 C469 1.913 . S
C2146 C1063 1.913 . S
C2148 C700 1.915 . S
C2157 C997 1.917 . S
C2159 C733 1.916 . S
C2168 C1030 1.917 . S
C2170 C766 1.915 . S
