# Generated by pormake.
# Topology lcv-f, (3)-cn, num edge types: 1
# Building blocks:
#     Node 0, Type 0, BuildingBlock: OLANEW_clean_sbu_2, # of connection points: 3
#     Node 1, Type 0, BuildingBlock: OLANEW_clean_sbu_2, # of connection points: 3
#     Node 2, Type 0, BuildingBlock: OLANEW_clean_sbu_2, # of connection points: 3
#     Node 3, Type 0, BuildingBlock: OLANEW_clean_sbu_2, # of connection points: 3
#     Node 4, Type 0, BuildingBlock: OLANEW_clean_sbu_2, # of connection points: 3
#     Node 5, Type 0, BuildingBlock: OLANEW_clean_sbu_2, # of connection points: 3
#     Node 6, Type 0, BuildingBlock: OLANEW_clean_sbu_2, # of connection points: 3
#     Node 7, Type 0, BuildingBlock: OLANEW_clean_sbu_2, # of connection points: 3
#     Node 8, Type 0, BuildingBlock: OLANEW_clean_sbu_2, # of connection points: 3
#     Node 9, Type 0, BuildingBlock: OLANEW_clean_sbu_2, # of connection points: 3
#     Node 10, Type 0, BuildingBlock: OLANEW_clean_sbu_2, # of connection points: 3
#     Node 11, Type 0, BuildingBlock: OLANEW_clean_sbu_2, # of connection points: 3
#     Node 12, Type 0, BuildingBlock: OLANEW_clean_sbu_2, # of connection points: 3
#     Node 13, Type 0, BuildingBlock: OLANEW_clean_sbu_2, # of connection points: 3
#     Node 14, Type 0, BuildingBlock: OLANEW_clean_sbu_2, # of connection points: 3
#     Node 15, Type 0, BuildingBlock: OLANEW_clean_sbu_2, # of connection points: 3
#     Node 16, Type 0, BuildingBlock: OLANEW_clean_sbu_2, # of connection points: 3
#     Node 17, Type 0, BuildingBlock: OLANEW_clean_sbu_2, # of connection points: 3
#     Node 18, Type 0, BuildingBlock: OLANEW_clean_sbu_2, # of connection points: 3
#     Node 19, Type 0, BuildingBlock: OLANEW_clean_sbu_2, # of connection points: 3
#     Node 20, Type 0, BuildingBlock: OLANEW_clean_sbu_2, # of connection points: 3
#     Node 21, Type 0, BuildingBlock: OLANEW_clean_sbu_2, # of connection points: 3
#     Node 22, Type 0, BuildingBlock: OLANEW_clean_sbu_2, # of connection points: 3
#     Node 23, Type 0, BuildingBlock: OLANEW_clean_sbu_2, # of connection points: 3
#     Node 24, Type 0, BuildingBlock: OLANEW_clean_sbu_2, # of connection points: 3
#     Node 25, Type 0, BuildingBlock: OLANEW_clean_sbu_2, # of connection points: 3
#     Node 26, Type 0, BuildingBlock: OLANEW_clean_sbu_2, # of connection points: 3
#     Node 27, Type 0, BuildingBlock: OLANEW_clean_sbu_2, # of connection points: 3
#     Node 28, Type 0, BuildingBlock: OLANEW_clean_sbu_2, # of connection points: 3
#     Node 29, Type 0, BuildingBlock: OLANEW_clean_sbu_2, # of connection points: 3
#     Node 30, Type 0, BuildingBlock: OLANEW_clean_sbu_2, # of connection points: 3
#     Node 31, Type 0, BuildingBlock: OLANEW_clean_sbu_2, # of connection points: 3
#     Node 32, Type 0, BuildingBlock: OLANEW_clean_sbu_2, # of connection points: 3
#     Node 33, Type 0, BuildingBlock: OLANEW_clean_sbu_2, # of connection points: 3
#     Node 34, Type 0, BuildingBlock: OLANEW_clean_sbu_2, # of connection points: 3
#     Node 35, Type 0, BuildingBlock: OLANEW_clean_sbu_2, # of connection points: 3
#     Node 36, Type 0, BuildingBlock: OLANEW_clean_sbu_2, # of connection points: 3
#     Node 37, Type 0, BuildingBlock: OLANEW_clean_sbu_2, # of connection points: 3
#     Node 38, Type 0, BuildingBlock: OLANEW_clean_sbu_2, # of connection points: 3
#     Node 39, Type 0, BuildingBlock: OLANEW_clean_sbu_2, # of connection points: 3
#     Node 40, Type 0, BuildingBlock: OLANEW_clean_sbu_2, # of connection points: 3
#     Node 41, Type 0, BuildingBlock: OLANEW_clean_sbu_2, # of connection points: 3
#     Node 42, Type 0, BuildingBlock: OLANEW_clean_sbu_2, # of connection points: 3
#     Node 43, Type 0, BuildingBlock: OLANEW_clean_sbu_2, # of connection points: 3
#     Node 44, Type 0, BuildingBlock: OLANEW_clean_sbu_2, # of connection points: 3
#     Node 45, Type 0, BuildingBlock: OLANEW_clean_sbu_2, # of connection points: 3
#     Node 46, Type 0, BuildingBlock: OLANEW_clean_sbu_2, # of connection points: 3
#     Node 47, Type 0, BuildingBlock: OLANEW_clean_sbu_2, # of connection points: 3
#     Edge 48, Type (0, 0), None
#     Edge 49, Type (0, 0), None
#     Edge 50, Type (0, 0), None
#     Edge 51, Type (0, 0), None
#     Edge 52, Type (0, 0), None
#     Edge 53, Type (0, 0), None
#     Edge 54, Type (0, 0), None
#     Edge 55, Type (0, 0), None
#     Edge 56, Type (0, 0), None
#     Edge 57, Type (0, 0), None
#     Edge 58, Type (0, 0), None
#     Edge 59, Type (0, 0), None
#     Edge 60, Type (0, 0), None
#     Edge 61, Type (0, 0), None
#     Edge 62, Type (0, 0), None
#     Edge 63, Type (0, 0), None
#     Edge 64, Type (0, 0), None
#     Edge 65, Type (0, 0), None
#     Edge 66, Type (0, 0), None
#     Edge 67, Type (0, 0), None
#     Edge 68, Type (0, 0), None
#     Edge 69, Type (0, 0), None
#     Edge 70, Type (0, 0), None
#     Edge 71, Type (0, 0), None
#     Edge 72, Type (0, 0), None
#     Edge 73, Type (0, 0), None
#     Edge 74, Type (0, 0), None
#     Edge 75, Type (0, 0), None
#     Edge 76, Type (0, 0), None
#     Edge 77, Type (0, 0), None
#     Edge 78, Type (0, 0), None
#     Edge 79, Type (0, 0), None
#     Edge 80, Type (0, 0), None
#     Edge 81, Type (0, 0), None
#     Edge 82, Type (0, 0), None
#     Edge 83, Type (0, 0), None
#     Edge 84, Type (0, 0), None
#     Edge 85, Type (0, 0), None
#     Edge 86, Type (0, 0), None
#     Edge 87, Type (0, 0), None
#     Edge 88, Type (0, 0), None
#     Edge 89, Type (0, 0), None
#     Edge 90, Type (0, 0), None
#     Edge 91, Type (0, 0), None
#     Edge 92, Type (0, 0), None
#     Edge 93, Type (0, 0), None
#     Edge 94, Type (0, 0), None
#     Edge 95, Type (0, 0), None
#     Edge 96, Type (0, 0), None
#     Edge 97, Type (0, 0), None
#     Edge 98, Type (0, 0), None
#     Edge 99, Type (0, 0), None
#     Edge 100, Type (0, 0), None
#     Edge 101, Type (0, 0), None
#     Edge 102, Type (0, 0), None
#     Edge 103, Type (0, 0), None
#     Edge 104, Type (0, 0), None
#     Edge 105, Type (0, 0), None
#     Edge 106, Type (0, 0), None
#     Edge 107, Type (0, 0), None
#     Edge 108, Type (0, 0), None
#     Edge 109, Type (0, 0), None
#     Edge 110, Type (0, 0), None
#     Edge 111, Type (0, 0), None
#     Edge 112, Type (0, 0), None
#     Edge 113, Type (0, 0), None
#     Edge 114, Type (0, 0), None
#     Edge 115, Type (0, 0), None
#     Edge 116, Type (0, 0), None
#     Edge 117, Type (0, 0), None
#     Edge 118, Type (0, 0), None
#     Edge 119, Type (0, 0), None
# Relax obj value: 0.021
# Max RMSD: 0.058
# Mean RMSD: 0.053
data_MOF--net-lcv-f--node1-OLANEW_clean_sbu_2--edge1-none
_symmetry_space_group_name_H-M    P1
_symmetry_Int_Tables_number       1
_symmetry_cell_setting            triclinic
loop_
_symmetry_equiv_pos_as_xyz
'x, y, z'
_cell_length_a     54.668958
_cell_length_b     54.700781
_cell_length_c     54.697031
_cell_angle_alpha  90.059015
_cell_angle_beta   89.981795
_cell_angle_gamma 89.997738
loop_
_atom_site_label
_atom_site_type_symbol
_atom_site_fract_x
_atom_site_fract_y
_atom_site_fract_z
_atom_type_partial_charge
O0 O 0.17357 0.08677 0.25857 0.0
Cd1 Cd 0.13404 0.08955 0.27951 0.0
O2 O 0.15877 0.07364 0.22346 0.0
Cd3 Cd 0.12357 0.06439 0.23972 0.0
O4 O 0.1104 0.03124 0.25754 0.0
C5 C 0.10799 0.01215 0.2445 0.0
O6 O 0.11075 0.01376 0.2207 0.0
C7 C 0.17677 0.08077 0.23633 0.0
C8 C 0.10522 0.12878 0.2645 0.0
O9 O 0.1218 0.13168 0.28078 0.0
O10 O 0.10235 0.10753 0.25511 0.0
O11 O 0.20476 0.79605 0.43181 0.0
Cd12 Cd 0.18657 0.75665 0.44254 0.0
O13 O 0.24042 0.78083 0.42084 0.0
Cd14 Cd 0.23157 0.74576 0.43768 0.0
O15 O 0.23079 0.73303 0.47553 0.0
C16 C 0.25099 0.73062 0.48677 0.0
O17 O 0.27157 0.73321 0.47466 0.0
C18 C 0.22609 0.79902 0.42304 0.0
C19 C 0.14807 0.74368 0.41188 0.0
O20 O 0.1445 0.75753 0.43044 0.0
O21 O 0.16981 0.73602 0.40764 0.0
O22 O 0.33028 0.91201 0.75706 0.0
Cd23 Cd 0.37023 0.90979 0.77729 0.0
O24 O 0.34427 0.92686 0.72233 0.0
Cd25 Cd 0.37944 0.93659 0.73835 0.0
O26 O 0.39218 0.96979 0.75643 0.0
C27 C 0.39422 0.989 0.74353 0.0
O28 O 0.39139 0.98749 0.71974 0.0
C29 C 0.32663 0.91874 0.73513 0.0
C30 C 0.40058 0.87243 0.76045 0.0
O31 O 0.38453 0.86826 0.777 0.0
O32 O 0.40212 0.89404 0.75161 0.0
O33 O 0.29492 0.20443 0.93146 0.0
Cd34 Cd 0.31281 0.24398 0.94219 0.0
O35 O 0.25917 0.21936 0.92044 0.0
Cd36 Cd 0.26796 0.25454 0.93716 0.0
O37 O 0.26989 0.26723 0.975 0.0
C38 C 0.25006 0.26949 0.98691 0.0
O39 O 0.22911 0.26678 0.97547 0.0
C40 C 0.27362 0.20128 0.92268 0.0
C41 C 0.35109 0.2572 0.91138 0.0
O42 O 0.35483 0.24345 0.92995 0.0
O43 O 0.32927 0.26465 0.9072 0.0
O44 O 0.17334 0.91307 0.24235 0.0
Cd45 Cd 0.13383 0.9103 0.22138 0.0
O46 O 0.15854 0.92651 0.27735 0.0
Cd47 Cd 0.12337 0.93576 0.26102 0.0
O48 O 0.11032 0.96895 0.24317 0.0
C49 C 0.10794 0.98804 0.25622 0.0
O50 O 0.11065 0.98643 0.28002 0.0
C51 C 0.17653 0.91922 0.26454 0.0
C52 C 0.10476 0.87131 0.23655 0.0
O53 O 0.12139 0.86822 0.22034 0.0
O54 O 0.10199 0.89264 0.24582 0.0
O55 O 0.29791 0.79526 0.56919 0.0
Cd56 Cd 0.31586 0.75567 0.55862 0.0
O57 O 0.26204 0.78022 0.57971 0.0
Cd58 Cd 0.27079 0.74511 0.56281 0.0
O59 O 0.27151 0.73263 0.52486 0.0
C60 C 0.25129 0.73052 0.51359 0.0
O61 O 0.23073 0.73324 0.52572 0.0
C62 C 0.27649 0.79833 0.57773 0.0
C63 C 0.35479 0.74293 0.58883 0.0
O64 O 0.35816 0.75638 0.56997 0.0
O65 O 0.33305 0.73558 0.5936 0.0
O66 O 0.32721 0.08651 0.74193 0.0
Cd67 Cd 0.36663 0.08968 0.72081 0.0
O68 O 0.34225 0.07385 0.77708 0.0
Cd69 Cd 0.37751 0.06497 0.76074 0.0
O70 O 0.39112 0.03215 0.74258 0.0
C71 C 0.3939 0.01302 0.75545 0.0
O72 O 0.39124 0.01444 0.77928 0.0
C73 C 0.32413 0.08064 0.7642 0.0
C74 C 0.39532 0.12902 0.73586 0.0
O75 O 0.37861 0.13189 0.7197 0.0
O76 O 0.39837 0.10775 0.7451 0.0
O77 O 0.2059 0.20441 0.06919 0.0
Cd78 Cd 0.18791 0.2439 0.05849 0.0
O79 O 0.24162 0.21946 0.08019 0.0
Cd80 Cd 0.23275 0.25458 0.06347 0.0
O81 O 0.23079 0.2672 0.02563 0.0
C82 C 0.25063 0.26951 0.01373 0.0
O83 O 0.27158 0.26688 0.02516 0.0
C84 C 0.22722 0.20133 0.07796 0.0
C85 C 0.14959 0.25704 0.0893 0.0
O86 O 0.14588 0.24328 0.0707 0.0
O87 O 0.17139 0.26455 0.0935 0.0
O88 O 0.25891 0.17324 0.08712 0.0
Cd89 Cd 0.2799 0.13376 0.08985 0.0
O90 O 0.22381 0.15842 0.07396 0.0
Cd91 Cd 0.24009 0.12324 0.0647 0.0
O92 O 0.25783 0.11008 0.03146 0.0
C93 C 0.24471 0.10766 0.01243 0.0
O94 O 0.22091 0.11038 0.01416 0.0
C95 C 0.23667 0.17642 0.08111 0.0
C96 C 0.26484 0.10487 0.12899 0.0
O97 O 0.2811 0.12147 0.13195 0.0
O98 O 0.2555 0.10203 0.10771 0.0
O99 O 0.20455 0.93119 0.29528 0.0
Cd100 Cd 0.2441 0.94182 0.31325 0.0
O101 O 0.21959 0.9201 0.25958 0.0
Cd102 Cd 0.25474 0.93688 0.26838 0.0
O103 O 0.26742 0.97472 0.27011 0.0
C104 C 0.26974 0.98649 0.25022 0.0
O105 O 0.26708 0.97491 0.22934 0.0
C106 C 0.20146 0.92237 0.27399 0.0
C107 C 0.25708 0.91101 0.35156 0.0
O108 O 0.24341 0.92966 0.35526 0.0
O109 O 0.26459 0.90675 0.32977 0.0
O110 O 0.24467 0.82634 0.58669 0.0
Cd111 Cd 0.22338 0.86568 0.58939 0.0
O112 O 0.27984 0.84126 0.57383 0.0
Cd113 Cd 0.26337 0.87635 0.5646 0.0
O114 O 0.24491 0.88954 0.5318 0.0
C115 C 0.2576 0.89203 0.51249 0.0
O116 O 0.28144 0.88931 0.51365 0.0
C117 C 0.26697 0.82323 0.58086 0.0
C118 C 0.23801 0.89463 0.62869 0.0
O119 O 0.22191 0.87785 0.63154 0.0
O120 O 0.24738 0.89763 0.60745 0.0
O121 O 0.29631 0.06872 0.79514 0.0
Cd122 Cd 0.2569 0.05779 0.81323 0.0
O123 O 0.28111 0.07888 0.75926 0.0
Cd124 Cd 0.24628 0.06154 0.76825 0.0
O125 O 0.23431 0.02347 0.77014 0.0
C126 C 0.23215 0.01157 0.75029 0.0
O127 O 0.2345 0.0231 0.72937 0.0
C128 C 0.29926 0.07721 0.7737 0.0
C129 C 0.24365 0.0887 0.85144 0.0
O130 O 0.25751 0.0702 0.85519 0.0
O131 O 0.23609 0.09276 0.82965 0.0
O132 O 0.25794 0.82691 0.41382 0.0
Cd133 Cd 0.27921 0.86625 0.41108 0.0
O134 O 0.22297 0.84195 0.42709 0.0
Cd135 Cd 0.2396 0.87697 0.43634 0.0
O136 O 0.25811 0.88986 0.46926 0.0
C137 C 0.24542 0.89215 0.4886 0.0
O138 O 0.22158 0.88944 0.48741 0.0
C139 C 0.23569 0.82388 0.41987 0.0
C140 C 0.26436 0.8952 0.37192 0.0
O141 O 0.28053 0.87851 0.36898 0.0
O142 O 0.255 0.89811 0.39318 0.0
O143 O 0.298 0.93078 0.70503 0.0
Cd144 Cd 0.25811 0.94107 0.68763 0.0
O145 O 0.28362 0.91878 0.74068 0.0
Cd146 Cd 0.24817 0.93525 0.73254 0.0
O147 O 0.23496 0.97293 0.7309 0.0
C148 C 0.23259 0.98475 0.75078 0.0
O149 O 0.23553 0.97331 0.77167 0.0
C150 C 0.30152 0.92161 0.72609 0.0
C151 C 0.2452 0.9104 0.64914 0.0
O152 O 0.25865 0.92922 0.64552 0.0
O153 O 0.23787 0.90592 0.67093 0.0
O154 O 0.24199 0.17309 0.91353 0.0
Cd155 Cd 0.2211 0.13355 0.91085 0.0
O156 O 0.27712 0.15839 0.92673 0.0
Cd157 Cd 0.26093 0.12319 0.93601 0.0
O158 O 0.24322 0.11004 0.96924 0.0
C159 C 0.25634 0.10765 0.98826 0.0
O160 O 0.28015 0.1104 0.98654 0.0
C161 C 0.26422 0.17634 0.91954 0.0
C162 C 0.23623 0.10455 0.87175 0.0
O163 O 0.21991 0.12108 0.86877 0.0
O164 O 0.24561 0.10183 0.89302 0.0
O165 O 0.20481 0.0689 0.20555 0.0
Cd166 Cd 0.24437 0.05825 0.18758 0.0
O167 O 0.21982 0.07977 0.24132 0.0
Cd168 Cd 0.25495 0.06296 0.23249 0.0
O169 O 0.26754 0.02509 0.23075 0.0
C170 C 0.26978 0.01331 0.25064 0.0
O171 O 0.26711 0.02489 0.27152 0.0
C172 C 0.20171 0.07761 0.22689 0.0
C173 C 0.25748 0.08908 0.14933 0.0
O174 O 0.24375 0.07047 0.14559 0.0
O175 O 0.26496 0.09329 0.17113 0.0
O176 O 0.08729 0.25848 0.17347 0.0
Cd177 Cd 0.09001 0.27945 0.134 0.0
O178 O 0.07414 0.22339 0.15863 0.0
Cd179 Cd 0.06486 0.23968 0.12348 0.0
O180 O 0.03167 0.25754 0.11041 0.0
C181 C 0.01257 0.24451 0.10804 0.0
O182 O 0.01419 0.22072 0.11077 0.0
C183 C 0.0813 0.23625 0.17663 0.0
C184 C 0.12921 0.26441 0.10508 0.0
O185 O 0.13215 0.28068 0.12169 0.0
O186 O 0.10794 0.25505 0.10225 0.0
O187 O 0.58691 0.24034 0.82751 0.0
Cd188 Cd 0.58948 0.21952 0.86707 0.0
O189 O 0.57392 0.27557 0.84215 0.0
Cd190 Cd 0.56458 0.25957 0.87741 0.0
O191 O 0.53116 0.24218 0.89056 0.0
C192 C 0.51223 0.25546 0.89288 0.0
O193 O 0.51416 0.27922 0.89008 0.0
C194 C 0.58103 0.26257 0.82422 0.0
C195 C 0.62873 0.23442 0.89596 0.0
O196 O 0.6316 0.21813 0.87937 0.0
O197 O 0.60749 0.24388 0.89879 0.0
O198 O 0.93137 0.29526 0.20495 0.0
Cd199 Cd 0.9419 0.31323 0.24454 0.0
O200 O 0.92079 0.25941 0.21991 0.0
Cd201 Cd 0.93748 0.2683 0.25507 0.0
O202 O 0.97536 0.27003 0.26767 0.0
C203 C 0.98716 0.25014 0.26988 0.0
O204 O 0.97558 0.22927 0.26718 0.0
C205 C 0.92283 0.27387 0.20183 0.0
C206 C 0.91098 0.35145 0.25773 0.0
O207 O 0.92964 0.35523 0.24407 0.0
O208 O 0.90676 0.32963 0.2651 0.0
O209 O 0.91202 0.75819 0.32754 0.0
Cd210 Cd 0.90816 0.77905 0.36698 0.0
O211 O 0.92462 0.72315 0.34289 0.0
Cd212 Cd 0.93296 0.7397 0.37821 0.0
O213 O 0.96638 0.75741 0.39104 0.0
C214 C 0.98548 0.74432 0.39304 0.0
O215 O 0.98376 0.72055 0.39008 0.0
C216 C 0.91804 0.73592 0.32463 0.0
C217 C 0.866 0.76657 0.39275 0.0
O218 O 0.86546 0.78315 0.37624 0.0
O219 O 0.8863 0.75567 0.39697 0.0
O220 O 0.0694 0.20549 0.20461 0.0
Cd221 Cd 0.0587 0.18752 0.24411 0.0
O222 O 0.08037 0.24121 0.21967 0.0
Cd223 Cd 0.06364 0.23238 0.25481 0.0
O224 O 0.02578 0.23065 0.26751 0.0
C225 C 0.01399 0.25054 0.26984 0.0
O226 O 0.02556 0.27142 0.26721 0.0
C227 C 0.07816 0.2268 0.20154 0.0
C228 C 0.08946 0.14917 0.25716 0.0
O229 O 0.07085 0.1455 0.24342 0.0
O230 O 0.09371 0.17095 0.26469 0.0
O231 O 0.41905 0.74349 0.67116 0.0
Cd232 Cd 0.4151 0.72094 0.63266 0.0
O233 O 0.43421 0.77686 0.65446 0.0
Cd234 Cd 0.4425 0.75817 0.62018 0.0
O235 O 0.47365 0.73731 0.60634 0.0
C236 C 0.49322 0.7486 0.60089 0.0
O237 O 0.4934 0.77261 0.60118 0.0
C238 C 0.4263 0.76549 0.67312 0.0
C239 C 0.37545 0.73572 0.6043 0.0
O240 O 0.37271 0.71991 0.62134 0.0
O241 O 0.39678 0.74474 0.60074 0.0
O242 O 0.93058 0.70496 0.29709 0.0
Cd243 Cd 0.94199 0.68664 0.25792 0.0
O244 O 0.91997 0.74057 0.2816 0.0
Cd245 Cd 0.93735 0.7315 0.2468 0.0
O246 O 0.97526 0.72988 0.23426 0.0
C247 C 0.98691 0.74981 0.23157 0.0
O248 O 0.97518 0.77065 0.23379 0.0
C249 C 0.92179 0.72631 0.29985 0.0
C250 C 0.91102 0.64855 0.24453 0.0
O251 O 0.92929 0.64479 0.25869 0.0
O252 O 0.90723 0.67029 0.23671 0.0
O253 O 0.56926 0.29322 0.79606 0.0
Cd254 Cd 0.55877 0.31097 0.75641 0.0
O255 O 0.58021 0.25741 0.7812 0.0
Cd256 Cd 0.56365 0.26619 0.74596 0.0
O257 O 0.52586 0.26861 0.73321 0.0
C258 C 0.5137 0.24894 0.7309 0.0
O259 O 0.52486 0.22786 0.7336 0.0
C260 C 0.57796 0.27191 0.79925 0.0
C261 C 0.58978 0.34907 0.74324 0.0
O262 O 0.57103 0.35295 0.75676 0.0
O263 O 0.59403 0.3272 0.73599 0.0
O264 O 0.6654 0.58473 0.76321 0.0
Cd265 Cd 0.62435 0.58857 0.78066 0.0
O266 O 0.65354 0.57175 0.72694 0.0
Cd267 Cd 0.6172 0.56255 0.74053 0.0
O268 O 0.60444 0.52866 0.75722 0.0
C269 C 0.60392 0.50968 0.74382 0.0
O270 O 0.60815 0.51182 0.72028 0.0
C271 C 0.67043 0.57872 0.74132 0.0
C272 C 0.59858 0.62836 0.7621 0.0
O273 O 0.61394 0.63116 0.77956 0.0
O274 O 0.59541 0.60689 0.75331 0.0
O275 O 0.70537 0.29425 0.93209 0.0
Cd276 Cd 0.68747 0.25467 0.94259 0.0
O277 O 0.74118 0.2794 0.92108 0.0
Cd278 Cd 0.73244 0.24424 0.93779 0.0
O279 O 0.73073 0.23185 0.97572 0.0
C280 C 0.75063 0.22985 0.98755 0.0
O281 O 0.77151 0.23262 0.97599 0.0
C282 C 0.72669 0.29745 0.92335 0.0
C283 C 0.64912 0.24171 0.91176 0.0
O284 O 0.64544 0.25539 0.93042 0.0
O285 O 0.67091 0.23419 0.9075 0.0
O286 O 0.82695 0.41395 0.25909 0.0
Cd287 Cd 0.86623 0.41087 0.28043 0.0
O288 O 0.8423 0.42746 0.22439 0.0
Cd289 Cd 0.87716 0.43671 0.24136 0.0
O290 O 0.88945 0.47001 0.25961 0.0
C291 C 0.89169 0.48917 0.24668 0.0
O292 O 0.88933 0.48756 0.22284 0.0
C293 C 0.82409 0.42018 0.2369 0.0
C294 C 0.89517 0.37178 0.26518 0.0
O295 O 0.87845 0.36873 0.28131 0.0
O296 O 0.8981 0.39312 0.25604 0.0
O297 O 0.78302 0.71177 0.42329 0.0
Cd298 Cd 0.80258 0.75036 0.43471 0.0
O299 O 0.74686 0.72754 0.41515 0.0
Cd300 Cd 0.7574 0.76127 0.43364 0.0
O301 O 0.76251 0.7709 0.47209 0.0
C302 C 0.74459 0.76667 0.48628 0.0
O303 O 0.72381 0.75903 0.47697 0.0
C304 C 0.76119 0.70924 0.41565 0.0
C305 C 0.84402 0.76061 0.4069 0.0
O306 O 0.84536 0.74683 0.42578 0.0
O307 O 0.82314 0.76944 0.40098 0.0
O308 O 0.6738 0.41151 0.74292 0.0
Cd309 Cd 0.63491 0.40827 0.72088 0.0
O310 O 0.65781 0.42533 0.77725 0.0
Cd311 Cd 0.62294 0.43401 0.75999 0.0
O312 O 0.60891 0.46675 0.74207 0.0
C313 C 0.60453 0.48542 0.7552 0.0
O314 O 0.60586 0.48356 0.7791 0.0
C315 C 0.67624 0.41799 0.76511 0.0
C316 C 0.60569 0.36932 0.73587 0.0
O317 O 0.62266 0.36613 0.72003 0.0
O318 O 0.60263 0.39074 0.74483 0.0
O319 O 0.79525 0.29554 0.06973 0.0
Cd320 Cd 0.81316 0.256 0.05898 0.0
O321 O 0.75949 0.2806 0.08073 0.0
Cd322 Cd 0.76825 0.24544 0.06395 0.0
O323 O 0.77006 0.23257 0.02616 0.0
C324 C 0.75018 0.23004 0.01437 0.0
O325 O 0.72926 0.2326 0.0259 0.0
C326 C 0.77395 0.29868 0.07852 0.0
C327 C 0.85163 0.24304 0.08963 0.0
O328 O 0.85524 0.25673 0.07099 0.0
O329 O 0.82987 0.2355 0.09395 0.0
O330 O 0.82576 0.58769 0.24196 0.0
Cd331 Cd 0.86592 0.58931 0.2221 0.0
O332 O 0.83914 0.57558 0.27797 0.0
Cd333 Cd 0.87467 0.56537 0.26301 0.0
O334 O 0.88854 0.53231 0.24546 0.0
C335 C 0.89109 0.51325 0.25848 0.0
O336 O 0.88801 0.51479 0.28225 0.0
C337 C 0.8217 0.58252 0.26425 0.0
C338 C 0.89511 0.6283 0.23711 0.0
O339 O 0.87894 0.63119 0.22042 0.0
O340 O 0.89738 0.60717 0.2469 0.0
O341 O 0.72956 0.69293 0.57555 0.0
Cd342 Cd 0.70364 0.7207 0.55194 0.0
O343 O 0.75292 0.72196 0.59091 0.0
Cd344 Cd 0.73844 0.74822 0.56451 0.0
O345 O 0.7311 0.75846 0.52657 0.0
C346 C 0.74825 0.76605 0.51284 0.0
O347 O 0.77016 0.76952 0.52205 0.0
C348 C 0.74673 0.69957 0.58975 0.0
C349 C 0.66303 0.73665 0.57841 0.0
O350 O 0.66203 0.71713 0.56548 0.0
O351 O 0.68316 0.74862 0.57898 0.0
O352 O 0.77342 0.68761 0.62183 0.0
Cd353 Cd 0.80031 0.65718 0.64047 0.0
O354 O 0.76045 0.65892 0.59693 0.0
Cd355 Cd 0.74267 0.6476 0.56283 0.0
O356 O 0.73468 0.6488 0.5237 0.0
C357 C 0.73805 0.63093 0.50923 0.0
O358 O 0.74568 0.60987 0.51783 0.0
C359 C 0.76028 0.68115 0.60381 0.0
C360 C 0.77597 0.61905 0.66362 0.0
O361 O 0.78342 0.63764 0.6758 0.0
O362 O 0.77966 0.61858 0.6405 0.0
O363 O 0.70313 0.43068 0.79655 0.0
Cd364 Cd 0.7419 0.44213 0.81569 0.0
O365 O 0.71948 0.41885 0.76167 0.0
Cd366 Cd 0.75423 0.43562 0.77193 0.0
O367 O 0.76551 0.47365 0.77656 0.0
C368 C 0.76778 0.48679 0.75756 0.0
O369 O 0.76607 0.47651 0.73591 0.0
C370 C 0.70083 0.42141 0.77534 0.0
C371 C 0.75559 0.41069 0.85319 0.0
O372 O 0.74126 0.42877 0.8573 0.0
O373 O 0.76337 0.40727 0.83136 0.0
O374 O 0.74233 0.32687 0.08774 0.0
Cd375 Cd 0.72139 0.3664 0.09043 0.0
O376 O 0.77747 0.34157 0.07454 0.0
Cd377 Cd 0.76125 0.37677 0.06534 0.0
O378 O 0.74319 0.38976 0.03226 0.0
C379 C 0.75614 0.39197 0.01309 0.0
O380 O 0.77995 0.38916 0.01461 0.0
C381 C 0.76457 0.32362 0.08171 0.0
C382 C 0.73665 0.39566 0.12927 0.0
O383 O 0.72037 0.37912 0.13244 0.0
O384 O 0.74593 0.39825 0.10794 0.0
O385 O 0.79236 0.57238 0.29447 0.0
Cd386 Cd 0.75189 0.56267 0.31094 0.0
O387 O 0.77891 0.58134 0.25759 0.0
Cd388 Cd 0.74341 0.56488 0.26554 0.0
O389 O 0.7311 0.52693 0.26758 0.0
C390 C 0.72972 0.51472 0.24784 0.0
O391 O 0.73305 0.52591 0.22687 0.0
C392 C 0.79639 0.57995 0.27286 0.0
C393 C 0.73613 0.59529 0.34675 0.0
O394 O 0.74972 0.57702 0.35225 0.0
O395 O 0.73013 0.59839 0.32432 0.0
O396 O 0.75825 0.32572 0.91426 0.0
Cd397 Cd 0.77901 0.36533 0.91175 0.0
O398 O 0.72311 0.34031 0.92761 0.0
Cd399 Cd 0.73922 0.37552 0.93702 0.0
O400 O 0.75724 0.38905 0.96993 0.0
C401 C 0.7443 0.39175 0.98904 0.0
O402 O 0.72047 0.38909 0.98757 0.0
C403 C 0.73604 0.32241 0.92031 0.0
C404 C 0.7633 0.39465 0.87319 0.0
O405 O 0.77977 0.37832 0.86984 0.0
O406 O 0.75407 0.39702 0.89458 0.0
O407 O 0.79657 0.43222 0.20576 0.0
Cd408 Cd 0.7573 0.443 0.1873 0.0
O409 O 0.78097 0.42126 0.24124 0.0
Cd410 Cd 0.74599 0.43806 0.23186 0.0
O411 O 0.73309 0.47578 0.22917 0.0
C412 C 0.72998 0.48791 0.24875 0.0
O413 O 0.73199 0.47678 0.26992 0.0
C414 C 0.79932 0.42343 0.2271 0.0
C415 C 0.74409 0.41168 0.14943 0.0
O416 O 0.758 0.43011 0.14549 0.0
O417 O 0.73648 0.40787 0.17126 0.0
O418 O 0.72902 0.68165 0.40628 0.0
Cd419 Cd 0.7086 0.64189 0.40271 0.0
O420 O 0.76394 0.66642 0.41935 0.0
Cd421 Cd 0.74792 0.63171 0.4304 0.0
O422 O 0.743 0.61852 0.46774 0.0
C423 C 0.73675 0.63512 0.48278 0.0
O424 O 0.73216 0.6572 0.47455 0.0
C425 C 0.75131 0.68454 0.41221 0.0
C426 C 0.72712 0.61183 0.36584 0.0
O427 O 0.71111 0.62822 0.361 0.0
O428 O 0.73462 0.60977 0.38791 0.0
O429 O 0.70112 0.56721 0.71295 0.0
Cd430 Cd 0.74286 0.55872 0.69944 0.0
O431 O 0.71292 0.57866 0.74975 0.0
Cd432 Cd 0.74937 0.56335 0.74401 0.0
O433 O 0.7641 0.52639 0.74055 0.0
C434 C 0.76653 0.5135 0.75971 0.0
O435 O 0.76277 0.52355 0.7812 0.0
C436 C 0.69607 0.57585 0.73395 0.0
C437 C 0.76409 0.59848 0.67597 0.0
O438 O 0.75384 0.5814 0.66363 0.0
O439 O 0.76424 0.59689 0.69933 0.0
O440 O 0.59564 0.74829 0.65797 0.0
Cd441 Cd 0.59996 0.76283 0.61581 0.0
O442 O 0.57757 0.71402 0.64694 0.0
Cd443 Cd 0.56953 0.72751 0.6103 0.0
O444 O 0.5365 0.74679 0.59875 0.0
C445 C 0.51641 0.73513 0.59983 0.0
O446 O 0.51674 0.71169 0.605 0.0
C447 C 0.58667 0.72757 0.6635 0.0
C448 C 0.64145 0.74537 0.59179 0.0
O449 O 0.64225 0.76523 0.6042 0.0
O450 O 0.62123 0.73355 0.59094 0.0
O451 O 0.08591 0.74222 0.32786 0.0
Cd452 Cd 0.08829 0.72143 0.36742 0.0
O453 O 0.07184 0.77702 0.34254 0.0
Cd454 Cd 0.06209 0.76059 0.37753 0.0
O455 O 0.02869 0.74289 0.39041 0.0
C456 C 0.00965 0.75597 0.39299 0.0
O457 O 0.01134 0.77979 0.39051 0.0
C458 C 0.07958 0.76434 0.32464 0.0
C459 C 0.12761 0.73637 0.39618 0.0
O460 O 0.13039 0.71991 0.37973 0.0
O461 O 0.10642 0.74596 0.39893 0.0
O462 O 0.43925 0.79738 0.69939 0.0
Cd463 Cd 0.45028 0.81705 0.73804 0.0
O464 O 0.42734 0.76286 0.71635 0.0
Cd465 Cd 0.44504 0.77305 0.75065 0.0
O466 O 0.48373 0.7742 0.76058 0.0
C467 C 0.49509 0.75399 0.76212 0.0
O468 O 0.48274 0.73346 0.76049 0.0
C469 C 0.42987 0.77619 0.69748 0.0
C470 C 0.41732 0.85313 0.7523 0.0
O471 O 0.43505 0.85806 0.73781 0.0
O472 O 0.41493 0.83113 0.75996 0.0
O473 O 0.41331 0.25884 0.82716 0.0
Cd474 Cd 0.4106 0.27974 0.86671 0.0
O475 O 0.42636 0.22369 0.84187 0.0
Cd476 Cd 0.43569 0.23984 0.8771 0.0
O477 O 0.46904 0.25731 0.89033 0.0
C478 C 0.48796 0.24404 0.89285 0.0
O479 O 0.48604 0.22025 0.89017 0.0
C480 C 0.41925 0.2366 0.82391 0.0
C481 C 0.37144 0.26461 0.8956 0.0
O482 O 0.36847 0.28089 0.87905 0.0
O483 O 0.39274 0.25528 0.8984 0.0
O484 O 0.57113 0.70159 0.69433 0.0
Cd485 Cd 0.55776 0.68854 0.73496 0.0
O486 O 0.58672 0.73688 0.7059 0.0
Cd487 Cd 0.56973 0.73288 0.74185 0.0
O488 O 0.53276 0.73327 0.7571 0.0
C489 C 0.52185 0.75357 0.76012 0.0
O490 O 0.53386 0.77403 0.75648 0.0
C491 C 0.58254 0.72119 0.68924 0.0
C492 C 0.58469 0.64919 0.75259 0.0
O493 O 0.56654 0.64582 0.73817 0.0
O494 O 0.59026 0.67112 0.75867 0.0
O495 O 0.91398 0.24211 0.17369 0.0
Cd496 Cd 0.9114 0.22106 0.13421 0.0
O497 O 0.9268 0.27732 0.15891 0.0
Cd498 Cd 0.93619 0.26107 0.12374 0.0
O499 O 0.96936 0.24322 0.11054 0.0
C500 C 0.98844 0.25624 0.10809 0.0
O501 O 0.98683 0.28005 0.11082 0.0
C502 C 0.91977 0.2644 0.17689 0.0
C503 C 0.87208 0.2358 0.10536 0.0
O504 O 0.86926 0.21956 0.12198 0.0
O505 O 0.8933 0.24527 0.10247 0.0
O506 O 0.43104 0.20583 0.79583 0.0
Cd507 Cd 0.4417 0.18789 0.75627 0.0
O508 O 0.42019 0.24161 0.78089 0.0
Cd509 Cd 0.43686 0.23266 0.74572 0.0
O510 O 0.4747 0.23021 0.73311 0.0
C511 C 0.48688 0.24987 0.73085 0.0
O512 O 0.4757 0.27097 0.73349 0.0
C513 C 0.42236 0.22717 0.79897 0.0
C514 C 0.41102 0.14946 0.74321 0.0
O515 O 0.4297 0.14584 0.75687 0.0
O516 O 0.40667 0.17124 0.73577 0.0
O517 O 0.06782 0.79504 0.29654 0.0
Cd518 Cd 0.05764 0.81302 0.2569 0.0
O519 O 0.07953 0.75951 0.28158 0.0
Cd520 Cd 0.06325 0.76826 0.24622 0.0
O521 O 0.0254 0.76961 0.23348 0.0
C522 C 0.01375 0.74959 0.23159 0.0
O523 O 0.02546 0.72886 0.23468 0.0
C524 C 0.07679 0.77383 0.29971 0.0
C525 C 0.08882 0.85107 0.24392 0.0
O526 O 0.07016 0.85494 0.25754 0.0
O527 O 0.09294 0.82922 0.2365 0.0
loop_
_geom_bond_atom_site_label_1
_geom_bond_atom_site_label_2
_geom_bond_distance
_geom_bond_site_symmetry_2
_ccdc_geom_bond_type
O0 Cd1 2.300 . S
O0 C7 1.275 . S
Cd1 O0 2.300 . S
Cd1 O9 2.381 . S
Cd1 O10 2.378 . S
O2 Cd3 2.385 . S
O2 C7 1.255 . S
Cd3 O2 2.385 . S
Cd3 O4 2.317 . S
O4 Cd3 2.317 . S
O4 C5 1.232 . S
C5 O4 1.232 . S
C5 O6 1.218 1_545 S
O6 C5 1.218 1_565 S
C7 O0 1.275 . S
C7 O2 1.255 . S
C8 O9 1.258 . S
C8 O10 1.256 . S
O9 Cd1 2.381 . S
O9 C8 1.258 . S
O10 Cd1 2.378 . S
O10 C8 1.256 . S
O11 Cd12 2.300 . S
O11 C18 1.275 . S
Cd12 O11 2.300 . S
Cd12 O20 2.381 . S
Cd12 O21 2.378 . S
O13 Cd14 2.385 . S
O13 C18 1.255 . S
Cd14 O13 2.385 . S
Cd14 O15 2.317 . S
O15 Cd14 2.317 . S
O15 C16 1.232 . S
C16 O15 1.232 . S
C16 O17 1.218 . S
O17 C16 1.218 . S
C18 O11 1.275 . S
C18 O13 1.255 . S
C19 O20 1.258 . S
C19 O21 1.256 . S
O20 Cd12 2.381 . S
O20 C19 1.258 . S
O21 Cd12 2.378 . S
O21 C19 1.256 . S
O22 Cd23 2.300 . S
O22 C29 1.275 . S
Cd23 O22 2.300 . S
Cd23 O31 2.381 . S
Cd23 O32 2.378 . S
O24 Cd25 2.385 . S
O24 C29 1.255 . S
Cd25 O24 2.385 . S
Cd25 O26 2.317 . S
O26 Cd25 2.317 . S
O26 C27 1.232 . S
C27 O26 1.232 . S
C27 O28 1.218 1_565 S
O28 C27 1.218 1_545 S
C29 O22 1.275 . S
C29 O24 1.255 . S
C30 O31 1.258 . S
C30 O32 1.256 . S
O31 Cd23 2.381 . S
O31 C30 1.258 . S
O32 Cd23 2.378 . S
O32 C30 1.256 . S
O33 Cd34 2.300 . S
O33 C40 1.275 . S
Cd34 O33 2.300 . S
Cd34 O42 2.381 . S
Cd34 O43 2.378 . S
O35 Cd36 2.385 . S
O35 C40 1.255 . S
Cd36 O35 2.385 . S
Cd36 O37 2.317 . S
O37 Cd36 2.317 . S
O37 C38 1.232 . S
C38 O37 1.232 . S
C38 O39 1.218 . S
O39 C38 1.218 . S
C40 O33 1.275 . S
C40 O35 1.255 . S
C41 O42 1.258 . S
C41 O43 1.256 . S
O42 Cd34 2.381 . S
O42 C41 1.258 . S
O43 Cd34 2.378 . S
O43 C41 1.256 . S
O44 Cd45 2.300 . S
O44 C51 1.275 . S
Cd45 O44 2.300 . S
Cd45 O53 2.381 . S
Cd45 O54 2.378 . S
O46 Cd47 2.385 . S
O46 C51 1.255 . S
Cd47 O46 2.385 . S
Cd47 O48 2.317 . S
O48 Cd47 2.317 . S
O48 C49 1.232 . S
C49 O48 1.232 . S
C49 O50 1.218 1_565 S
O50 C49 1.218 1_545 S
C51 O44 1.275 . S
C51 O46 1.255 . S
C52 O53 1.258 . S
C52 O54 1.256 . S
O53 Cd45 2.381 . S
O53 C52 1.258 . S
O54 Cd45 2.378 . S
O54 C52 1.256 . S
O55 Cd56 2.300 . S
O55 C62 1.275 . S
Cd56 O55 2.300 . S
Cd56 O64 2.381 . S
Cd56 O65 2.378 . S
O57 Cd58 2.385 . S
O57 C62 1.255 . S
Cd58 O57 2.385 . S
Cd58 O59 2.317 . S
O59 Cd58 2.317 . S
O59 C60 1.232 . S
C60 O59 1.232 . S
C60 O61 1.218 . S
O61 C60 1.218 . S
C62 O55 1.275 . S
C62 O57 1.255 . S
C63 O64 1.258 . S
C63 O65 1.256 . S
O64 Cd56 2.381 . S
O64 C63 1.258 . S
O65 Cd56 2.378 . S
O65 C63 1.256 . S
O66 Cd67 2.300 . S
O66 C73 1.275 . S
Cd67 O66 2.300 . S
Cd67 O75 2.381 . S
Cd67 O76 2.378 . S
O68 Cd69 2.385 . S
O68 C73 1.255 . S
Cd69 O68 2.385 . S
Cd69 O70 2.317 . S
O70 Cd69 2.317 . S
O70 C71 1.232 . S
C71 O70 1.232 . S
C71 O72 1.218 1_545 S
O72 C71 1.218 1_565 S
C73 O66 1.275 . S
C73 O68 1.255 . S
C74 O75 1.258 . S
C74 O76 1.256 . S
O75 Cd67 2.381 . S
O75 C74 1.258 . S
O76 Cd67 2.378 . S
O76 C74 1.256 . S
O77 Cd78 2.300 . S
O77 C84 1.275 . S
Cd78 O77 2.300 . S
Cd78 O86 2.381 . S
Cd78 O87 2.378 . S
O79 Cd80 2.385 . S
O79 C84 1.255 . S
Cd80 O79 2.385 . S
Cd80 O81 2.317 . S
O81 Cd80 2.317 . S
O81 C82 1.232 . S
C82 O81 1.232 . S
C82 O83 1.218 . S
O83 C82 1.218 . S
C84 O77 1.275 . S
C84 O79 1.255 . S
C85 O86 1.258 . S
C85 O87 1.256 . S
O86 Cd78 2.381 . S
O86 C85 1.258 . S
O87 Cd78 2.378 . S
O87 C85 1.256 . S
O88 Cd89 2.300 . S
O88 C95 1.275 . S
Cd89 O88 2.300 . S
Cd89 O97 2.381 . S
Cd89 O98 2.378 . S
O90 Cd91 2.385 . S
O90 C95 1.255 . S
Cd91 O90 2.385 . S
Cd91 O92 2.317 . S
O92 Cd91 2.317 . S
O92 C93 1.232 . S
C93 O92 1.232 . S
C93 O94 1.218 1_554 S
O94 C93 1.218 1_556 S
C95 O88 1.275 . S
C95 O90 1.255 . S
C96 O97 1.258 . S
C96 O98 1.256 . S
O97 Cd89 2.381 . S
O97 C96 1.258 . S
O98 Cd89 2.378 . S
O98 C96 1.256 . S
O99 Cd100 2.300 . S
O99 C106 1.275 . S
Cd100 O99 2.300 . S
Cd100 O108 2.381 . S
Cd100 O109 2.378 . S
O101 Cd102 2.385 . S
O101 C106 1.255 . S
Cd102 O101 2.385 . S
Cd102 O103 2.317 . S
O103 Cd102 2.317 . S
O103 C104 1.232 . S
C104 O103 1.232 . S
C104 O105 1.218 . S
O105 C104 1.218 . S
C106 O99 1.275 . S
C106 O101 1.255 . S
C107 O108 1.258 . S
C107 O109 1.256 . S
O108 Cd100 2.381 . S
O108 C107 1.258 . S
O109 Cd100 2.378 . S
O109 C107 1.256 . S
O110 Cd111 2.300 . S
O110 C117 1.275 . S
Cd111 O110 2.300 . S
Cd111 O119 2.381 . S
Cd111 O120 2.378 . S
O112 Cd113 2.385 . S
O112 C117 1.255 . S
Cd113 O112 2.385 . S
Cd113 O114 2.317 . S
O114 Cd113 2.317 . S
O114 C115 1.232 . S
C115 O114 1.232 . S
C115 O116 1.218 . S
O116 C115 1.218 . S
C117 O110 1.275 . S
C117 O112 1.255 . S
C118 O119 1.258 . S
C118 O120 1.256 . S
O119 Cd111 2.381 . S
O119 C118 1.258 . S
O120 Cd111 2.378 . S
O120 C118 1.256 . S
O121 Cd122 2.300 . S
O121 C128 1.275 . S
Cd122 O121 2.300 . S
Cd122 O130 2.381 . S
Cd122 O131 2.378 . S
O123 Cd124 2.385 . S
O123 C128 1.255 . S
Cd124 O123 2.385 . S
Cd124 O125 2.317 . S
O125 Cd124 2.317 . S
O125 C126 1.232 . S
C126 O125 1.232 . S
C126 O127 1.218 . S
O127 C126 1.218 . S
C128 O121 1.275 . S
C128 O123 1.255 . S
C129 O130 1.258 . S
C129 O131 1.256 . S
O130 Cd122 2.381 . S
O130 C129 1.258 . S
O131 Cd122 2.378 . S
O131 C129 1.256 . S
O132 Cd133 2.300 . S
O132 C139 1.275 . S
Cd133 O132 2.300 . S
Cd133 O141 2.381 . S
Cd133 O142 2.378 . S
O134 Cd135 2.385 . S
O134 C139 1.255 . S
Cd135 O134 2.385 . S
Cd135 O136 2.317 . S
O136 Cd135 2.317 . S
O136 C137 1.232 . S
C137 O136 1.232 . S
C137 O138 1.218 . S
O138 C137 1.218 . S
C139 O132 1.275 . S
C139 O134 1.255 . S
C140 O141 1.258 . S
C140 O142 1.256 . S
O141 Cd133 2.381 . S
O141 C140 1.258 . S
O142 Cd133 2.378 . S
O142 C140 1.256 . S
O143 Cd144 2.300 . S
O143 C150 1.275 . S
Cd144 O143 2.300 . S
Cd144 O152 2.381 . S
Cd144 O153 2.378 . S
O145 Cd146 2.385 . S
O145 C150 1.255 . S
Cd146 O145 2.385 . S
Cd146 O147 2.317 . S
O147 Cd146 2.317 . S
O147 C148 1.232 . S
C148 O147 1.232 . S
C148 O149 1.218 . S
O149 C148 1.218 . S
C150 O143 1.275 . S
C150 O145 1.255 . S
C151 O152 1.258 . S
C151 O153 1.256 . S
O152 Cd144 2.381 . S
O152 C151 1.258 . S
O153 Cd144 2.378 . S
O153 C151 1.256 . S
O154 Cd155 2.300 . S
O154 C161 1.275 . S
Cd155 O154 2.300 . S
Cd155 O163 2.381 . S
Cd155 O164 2.378 . S
O156 Cd157 2.385 . S
O156 C161 1.255 . S
Cd157 O156 2.385 . S
Cd157 O158 2.317 . S
O158 Cd157 2.317 . S
O158 C159 1.232 . S
C159 O158 1.232 . S
C159 O160 1.218 1_556 S
O160 C159 1.218 1_554 S
C161 O154 1.275 . S
C161 O156 1.255 . S
C162 O163 1.258 . S
C162 O164 1.256 . S
O163 Cd155 2.381 . S
O163 C162 1.258 . S
O164 Cd155 2.378 . S
O164 C162 1.256 . S
O165 Cd166 2.300 . S
O165 C172 1.275 . S
Cd166 O165 2.300 . S
Cd166 O174 2.381 . S
Cd166 O175 2.378 . S
O167 Cd168 2.385 . S
O167 C172 1.255 . S
Cd168 O167 2.385 . S
Cd168 O169 2.317 . S
O169 Cd168 2.317 . S
O169 C170 1.232 . S
C170 O169 1.232 . S
C170 O171 1.218 . S
O171 C170 1.218 . S
C172 O165 1.275 . S
C172 O167 1.255 . S
C173 O174 1.258 . S
C173 O175 1.256 . S
O174 Cd166 2.381 . S
O174 C173 1.258 . S
O175 Cd166 2.378 . S
O175 C173 1.256 . S
O176 Cd177 2.300 . S
O176 C183 1.275 . S
Cd177 O176 2.300 . S
Cd177 O185 2.381 . S
Cd177 O186 2.378 . S
O178 Cd179 2.385 . S
O178 C183 1.255 . S
Cd179 O178 2.385 . S
Cd179 O180 2.317 . S
O180 Cd179 2.317 . S
O180 C181 1.232 . S
C181 O180 1.232 . S
C181 O182 1.218 1_455 S
O182 C181 1.218 1_655 S
C183 O176 1.275 . S
C183 O178 1.255 . S
C184 O185 1.258 . S
C184 O186 1.256 . S
O185 Cd177 2.381 . S
O185 C184 1.258 . S
O186 Cd177 2.378 . S
O186 C184 1.256 . S
O187 Cd188 2.300 . S
O187 C194 1.275 . S
Cd188 O187 2.300 . S
Cd188 O196 2.381 . S
Cd188 O197 2.378 . S
O189 Cd190 2.385 . S
O189 C194 1.255 . S
Cd190 O189 2.385 . S
Cd190 O191 2.317 . S
O191 Cd190 2.317 . S
O191 C192 1.232 . S
C192 O191 1.232 . S
C192 O193 1.218 . S
O193 C192 1.218 . S
C194 O187 1.275 . S
C194 O189 1.255 . S
C195 O196 1.258 . S
C195 O197 1.256 . S
O196 Cd188 2.381 . S
O196 C195 1.258 . S
O197 Cd188 2.378 . S
O197 C195 1.256 . S
O198 Cd199 2.300 . S
O198 C205 1.275 . S
Cd199 O198 2.300 . S
Cd199 O207 2.381 . S
Cd199 O208 2.378 . S
O200 Cd201 2.385 . S
O200 C205 1.255 . S
Cd201 O200 2.385 . S
Cd201 O202 2.317 . S
O202 Cd201 2.317 . S
O202 C203 1.232 . S
C203 O202 1.232 . S
C203 O204 1.218 . S
O204 C203 1.218 . S
C205 O198 1.275 . S
C205 O200 1.255 . S
C206 O207 1.258 . S
C206 O208 1.256 . S
O207 Cd199 2.381 . S
O207 C206 1.258 . S
O208 Cd199 2.378 . S
O208 C206 1.256 . S
O209 Cd210 2.300 . S
O209 C216 1.275 . S
Cd210 O209 2.300 . S
Cd210 O218 2.381 . S
Cd210 O219 2.378 . S
O211 Cd212 2.385 . S
O211 C216 1.255 . S
Cd212 O211 2.385 . S
Cd212 O213 2.317 . S
O213 Cd212 2.317 . S
O213 C214 1.232 . S
C214 O213 1.232 . S
C214 O215 1.218 1_655 S
O215 C214 1.218 1_455 S
C216 O209 1.275 . S
C216 O211 1.255 . S
C217 O218 1.258 . S
C217 O219 1.256 . S
O218 Cd210 2.381 . S
O218 C217 1.258 . S
O219 Cd210 2.378 . S
O219 C217 1.256 . S
O220 Cd221 2.300 . S
O220 C227 1.275 . S
Cd221 O220 2.300 . S
Cd221 O229 2.381 . S
Cd221 O230 2.378 . S
O222 Cd223 2.385 . S
O222 C227 1.255 . S
Cd223 O222 2.385 . S
Cd223 O224 2.317 . S
O224 Cd223 2.317 . S
O224 C225 1.232 . S
C225 O224 1.232 . S
C225 O226 1.218 . S
O226 C225 1.218 . S
C227 O220 1.275 . S
C227 O222 1.255 . S
C228 O229 1.258 . S
C228 O230 1.256 . S
O229 Cd221 2.381 . S
O229 C228 1.258 . S
O230 Cd221 2.378 . S
O230 C228 1.256 . S
O231 Cd232 2.300 . S
O231 C238 1.275 . S
Cd232 O231 2.300 . S
Cd232 O240 2.381 . S
Cd232 O241 2.378 . S
O233 Cd234 2.385 . S
O233 C238 1.255 . S
Cd234 O233 2.385 . S
Cd234 O235 2.317 . S
O235 Cd234 2.317 . S
O235 C236 1.232 . S
C236 O235 1.232 . S
C236 O237 1.218 . S
O237 C236 1.218 . S
C238 O231 1.275 . S
C238 O233 1.255 . S
C239 O240 1.258 . S
C239 O241 1.256 . S
O240 Cd232 2.381 . S
O240 C239 1.258 . S
O241 Cd232 2.378 . S
O241 C239 1.256 . S
O242 Cd243 2.300 . S
O242 C249 1.275 . S
Cd243 O242 2.300 . S
Cd243 O251 2.381 . S
Cd243 O252 2.378 . S
O244 Cd245 2.385 . S
O244 C249 1.255 . S
Cd245 O244 2.385 . S
Cd245 O246 2.317 . S
O246 Cd245 2.317 . S
O246 C247 1.232 . S
C247 O246 1.232 . S
C247 O248 1.218 . S
O248 C247 1.218 . S
C249 O242 1.275 . S
C249 O244 1.255 . S
C250 O251 1.258 . S
C250 O252 1.256 . S
O251 Cd243 2.381 . S
O251 C250 1.258 . S
O252 Cd243 2.378 . S
O252 C250 1.256 . S
O253 Cd254 2.300 . S
O253 C260 1.275 . S
Cd254 O253 2.300 . S
Cd254 O262 2.381 . S
Cd254 O263 2.378 . S
O255 Cd256 2.385 . S
O255 C260 1.255 . S
Cd256 O255 2.385 . S
Cd256 O257 2.317 . S
O257 Cd256 2.317 . S
O257 C258 1.232 . S
C258 O257 1.232 . S
C258 O259 1.218 . S
O259 C258 1.218 . S
C260 O253 1.275 . S
C260 O255 1.255 . S
C261 O262 1.258 . S
C261 O263 1.256 . S
O262 Cd254 2.381 . S
O262 C261 1.258 . S
O263 Cd254 2.378 . S
O263 C261 1.256 . S
O264 Cd265 2.300 . S
O264 C271 1.275 . S
Cd265 O264 2.300 . S
Cd265 O273 2.381 . S
Cd265 O274 2.378 . S
O266 Cd267 2.385 . S
O266 C271 1.255 . S
Cd267 O266 2.385 . S
Cd267 O268 2.317 . S
O268 Cd267 2.317 . S
O268 C269 1.232 . S
C269 O268 1.232 . S
C269 O270 1.218 . S
O270 C269 1.218 . S
C271 O264 1.275 . S
C271 O266 1.255 . S
C272 O273 1.258 . S
C272 O274 1.256 . S
O273 Cd265 2.381 . S
O273 C272 1.258 . S
O274 Cd265 2.378 . S
O274 C272 1.256 . S
O275 Cd276 2.300 . S
O275 C282 1.275 . S
Cd276 O275 2.300 . S
Cd276 O284 2.381 . S
Cd276 O285 2.378 . S
O277 Cd278 2.385 . S
O277 C282 1.255 . S
Cd278 O277 2.385 . S
Cd278 O279 2.317 . S
O279 Cd278 2.317 . S
O279 C280 1.232 . S
C280 O279 1.232 . S
C280 O281 1.218 . S
O281 C280 1.218 . S
C282 O275 1.275 . S
C282 O277 1.255 . S
C283 O284 1.258 . S
C283 O285 1.256 . S
O284 Cd276 2.381 . S
O284 C283 1.258 . S
O285 Cd276 2.378 . S
O285 C283 1.256 . S
O286 Cd287 2.300 . S
O286 C293 1.275 . S
Cd287 O286 2.300 . S
Cd287 O295 2.381 . S
Cd287 O296 2.378 . S
O288 Cd289 2.385 . S
O288 C293 1.255 . S
Cd289 O288 2.385 . S
Cd289 O290 2.317 . S
O290 Cd289 2.317 . S
O290 C291 1.232 . S
C291 O290 1.232 . S
C291 O292 1.218 . S
O292 C291 1.218 . S
C293 O286 1.275 . S
C293 O288 1.255 . S
C294 O295 1.258 . S
C294 O296 1.256 . S
O295 Cd287 2.381 . S
O295 C294 1.258 . S
O296 Cd287 2.378 . S
O296 C294 1.256 . S
O297 Cd298 2.300 . S
O297 C304 1.275 . S
Cd298 O297 2.300 . S
Cd298 O306 2.381 . S
Cd298 O307 2.378 . S
O299 Cd300 2.385 . S
O299 C304 1.255 . S
Cd300 O299 2.385 . S
Cd300 O301 2.317 . S
O301 Cd300 2.317 . S
O301 C302 1.232 . S
C302 O301 1.232 . S
C302 O303 1.218 . S
O303 C302 1.218 . S
C304 O297 1.275 . S
C304 O299 1.255 . S
C305 O306 1.258 . S
C305 O307 1.256 . S
O306 Cd298 2.381 . S
O306 C305 1.258 . S
O307 Cd298 2.378 . S
O307 C305 1.256 . S
O308 Cd309 2.300 . S
O308 C315 1.275 . S
Cd309 O308 2.300 . S
Cd309 O317 2.381 . S
Cd309 O318 2.378 . S
O310 Cd311 2.385 . S
O310 C315 1.255 . S
Cd311 O310 2.385 . S
Cd311 O312 2.317 . S
O312 Cd311 2.317 . S
O312 C313 1.232 . S
C313 O312 1.232 . S
C313 O314 1.218 . S
O314 C313 1.218 . S
C315 O308 1.275 . S
C315 O310 1.255 . S
C316 O317 1.258 . S
C316 O318 1.256 . S
O317 Cd309 2.381 . S
O317 C316 1.258 . S
O318 Cd309 2.378 . S
O318 C316 1.256 . S
O319 Cd320 2.300 . S
O319 C326 1.275 . S
Cd320 O319 2.300 . S
Cd320 O328 2.381 . S
Cd320 O329 2.378 . S
O321 Cd322 2.385 . S
O321 C326 1.255 . S
Cd322 O321 2.385 . S
Cd322 O323 2.317 . S
O323 Cd322 2.317 . S
O323 C324 1.232 . S
C324 O323 1.232 . S
C324 O325 1.218 . S
O325 C324 1.218 . S
C326 O319 1.275 . S
C326 O321 1.255 . S
C327 O328 1.258 . S
C327 O329 1.256 . S
O328 Cd320 2.381 . S
O328 C327 1.258 . S
O329 Cd320 2.378 . S
O329 C327 1.256 . S
O330 Cd331 2.300 . S
O330 C337 1.275 . S
Cd331 O330 2.300 . S
Cd331 O339 2.381 . S
Cd331 O340 2.378 . S
O332 Cd333 2.385 . S
O332 C337 1.255 . S
Cd333 O332 2.385 . S
Cd333 O334 2.317 . S
O334 Cd333 2.317 . S
O334 C335 1.232 . S
C335 O334 1.232 . S
C335 O336 1.218 . S
O336 C335 1.218 . S
C337 O330 1.275 . S
C337 O332 1.255 . S
C338 O339 1.258 . S
C338 O340 1.256 . S
O339 Cd331 2.381 . S
O339 C338 1.258 . S
O340 Cd331 2.378 . S
O340 C338 1.256 . S
O341 Cd342 2.300 . S
O341 C348 1.275 . S
Cd342 O341 2.300 . S
Cd342 O350 2.381 . S
Cd342 O351 2.378 . S
O343 Cd344 2.385 . S
O343 C348 1.255 . S
Cd344 O343 2.385 . S
Cd344 O345 2.317 . S
O345 Cd344 2.317 . S
O345 C346 1.232 . S
C346 O345 1.232 . S
C346 O347 1.218 . S
O347 C346 1.218 . S
C348 O341 1.275 . S
C348 O343 1.255 . S
C349 O350 1.258 . S
C349 O351 1.256 . S
O350 Cd342 2.381 . S
O350 C349 1.258 . S
O351 Cd342 2.378 . S
O351 C349 1.256 . S
O352 Cd353 2.300 . S
O352 C359 1.275 . S
Cd353 O352 2.300 . S
Cd353 O361 2.381 . S
Cd353 O362 2.378 . S
O354 Cd355 2.385 . S
O354 C359 1.255 . S
Cd355 O354 2.385 . S
Cd355 O356 2.317 . S
O356 Cd355 2.317 . S
O356 C357 1.232 . S
C357 O356 1.232 . S
C357 O358 1.218 . S
O358 C357 1.218 . S
C359 O352 1.275 . S
C359 O354 1.255 . S
C360 O361 1.258 . S
C360 O362 1.256 . S
O361 Cd353 2.381 . S
O361 C360 1.258 . S
O362 Cd353 2.378 . S
O362 C360 1.256 . S
O363 Cd364 2.300 . S
O363 C370 1.275 . S
Cd364 O363 2.300 . S
Cd364 O372 2.381 . S
Cd364 O373 2.378 . S
O365 Cd366 2.385 . S
O365 C370 1.255 . S
Cd366 O365 2.385 . S
Cd366 O367 2.317 . S
O367 Cd366 2.317 . S
O367 C368 1.232 . S
C368 O367 1.232 . S
C368 O369 1.218 . S
O369 C368 1.218 . S
C370 O363 1.275 . S
C370 O365 1.255 . S
C371 O372 1.258 . S
C371 O373 1.256 . S
O372 Cd364 2.381 . S
O372 C371 1.258 . S
O373 Cd364 2.378 . S
O373 C371 1.256 . S
O374 Cd375 2.300 . S
O374 C381 1.275 . S
Cd375 O374 2.300 . S
Cd375 O383 2.381 . S
Cd375 O384 2.378 . S
O376 Cd377 2.385 . S
O376 C381 1.255 . S
Cd377 O376 2.385 . S
Cd377 O378 2.317 . S
O378 Cd377 2.317 . S
O378 C379 1.232 . S
C379 O378 1.232 . S
C379 O380 1.218 1_554 S
O380 C379 1.218 1_556 S
C381 O374 1.275 . S
C381 O376 1.255 . S
C382 O383 1.258 . S
C382 O384 1.256 . S
O383 Cd375 2.381 . S
O383 C382 1.258 . S
O384 Cd375 2.378 . S
O384 C382 1.256 . S
O385 Cd386 2.300 . S
O385 C392 1.275 . S
Cd386 O385 2.300 . S
Cd386 O394 2.381 . S
Cd386 O395 2.378 . S
O387 Cd388 2.385 . S
O387 C392 1.255 . S
Cd388 O387 2.385 . S
Cd388 O389 2.317 . S
O389 Cd388 2.317 . S
O389 C390 1.232 . S
C390 O389 1.232 . S
C390 O391 1.218 . S
O391 C390 1.218 . S
C392 O385 1.275 . S
C392 O387 1.255 . S
C393 O394 1.258 . S
C393 O395 1.256 . S
O394 Cd386 2.381 . S
O394 C393 1.258 . S
O395 Cd386 2.378 . S
O395 C393 1.256 . S
O396 Cd397 2.300 . S
O396 C403 1.275 . S
Cd397 O396 2.300 . S
Cd397 O405 2.381 . S
Cd397 O406 2.378 . S
O398 Cd399 2.385 . S
O398 C403 1.255 . S
Cd399 O398 2.385 . S
Cd399 O400 2.317 . S
O400 Cd399 2.317 . S
O400 C401 1.232 . S
C401 O400 1.232 . S
C401 O402 1.218 1_556 S
O402 C401 1.218 1_554 S
C403 O396 1.275 . S
C403 O398 1.255 . S
C404 O405 1.258 . S
C404 O406 1.256 . S
O405 Cd397 2.381 . S
O405 C404 1.258 . S
O406 Cd397 2.378 . S
O406 C404 1.256 . S
O407 Cd408 2.300 . S
O407 C414 1.275 . S
Cd408 O407 2.300 . S
Cd408 O416 2.381 . S
Cd408 O417 2.378 . S
O409 Cd410 2.385 . S
O409 C414 1.255 . S
Cd410 O409 2.385 . S
Cd410 O411 2.317 . S
O411 Cd410 2.317 . S
O411 C412 1.232 . S
C412 O411 1.232 . S
C412 O413 1.218 . S
O413 C412 1.218 . S
C414 O407 1.275 . S
C414 O409 1.255 . S
C415 O416 1.258 . S
C415 O417 1.256 . S
O416 Cd408 2.381 . S
O416 C415 1.258 . S
O417 Cd408 2.378 . S
O417 C415 1.256 . S
O418 Cd419 2.300 . S
O418 C425 1.275 . S
Cd419 O418 2.300 . S
Cd419 O427 2.381 . S
Cd419 O428 2.378 . S
O420 Cd421 2.385 . S
O420 C425 1.255 . S
Cd421 O420 2.385 . S
Cd421 O422 2.317 . S
O422 Cd421 2.317 . S
O422 C423 1.232 . S
C423 O422 1.232 . S
C423 O424 1.218 . S
O424 C423 1.218 . S
C425 O418 1.275 . S
C425 O420 1.255 . S
C426 O427 1.258 . S
C426 O428 1.256 . S
O427 Cd419 2.381 . S
O427 C426 1.258 . S
O428 Cd419 2.378 . S
O428 C426 1.256 . S
O429 Cd430 2.300 . S
O429 C436 1.275 . S
Cd430 O429 2.300 . S
Cd430 O438 2.381 . S
Cd430 O439 2.378 . S
O431 Cd432 2.385 . S
O431 C436 1.255 . S
Cd432 O431 2.385 . S
Cd432 O433 2.317 . S
O433 Cd432 2.317 . S
O433 C434 1.232 . S
C434 O433 1.232 . S
C434 O435 1.218 . S
O435 C434 1.218 . S
C436 O429 1.275 . S
C436 O431 1.255 . S
C437 O438 1.258 . S
C437 O439 1.256 . S
O438 Cd430 2.381 . S
O438 C437 1.258 . S
O439 Cd430 2.378 . S
O439 C437 1.256 . S
O440 Cd441 2.300 . S
O440 C447 1.275 . S
Cd441 O440 2.300 . S
Cd441 O449 2.381 . S
Cd441 O450 2.378 . S
O442 Cd443 2.385 . S
O442 C447 1.255 . S
Cd443 O442 2.385 . S
Cd443 O444 2.317 . S
O444 Cd443 2.317 . S
O444 C445 1.232 . S
C445 O444 1.232 . S
C445 O446 1.218 . S
O446 C445 1.218 . S
C447 O440 1.275 . S
C447 O442 1.255 . S
C448 O449 1.258 . S
C448 O450 1.256 . S
O449 Cd441 2.381 . S
O449 C448 1.258 . S
O450 Cd441 2.378 . S
O450 C448 1.256 . S
O451 Cd452 2.300 . S
O451 C458 1.275 . S
Cd452 O451 2.300 . S
Cd452 O460 2.381 . S
Cd452 O461 2.378 . S
O453 Cd454 2.385 . S
O453 C458 1.255 . S
Cd454 O453 2.385 . S
Cd454 O455 2.317 . S
O455 Cd454 2.317 . S
O455 C456 1.232 . S
C456 O455 1.232 . S
C456 O457 1.218 1_455 S
O457 C456 1.218 1_655 S
C458 O451 1.275 . S
C458 O453 1.255 . S
C459 O460 1.258 . S
C459 O461 1.256 . S
O460 Cd452 2.381 . S
O460 C459 1.258 . S
O461 Cd452 2.378 . S
O461 C459 1.256 . S
O462 Cd463 2.300 . S
O462 C469 1.275 . S
Cd463 O462 2.300 . S
Cd463 O471 2.381 . S
Cd463 O472 2.378 . S
O464 Cd465 2.385 . S
O464 C469 1.255 . S
Cd465 O464 2.385 . S
Cd465 O466 2.317 . S
O466 Cd465 2.317 . S
O466 C467 1.232 . S
C467 O466 1.232 . S
C467 O468 1.218 . S
O468 C467 1.218 . S
C469 O462 1.275 . S
C469 O464 1.255 . S
C470 O471 1.258 . S
C470 O472 1.256 . S
O471 Cd463 2.381 . S
O471 C470 1.258 . S
O472 Cd463 2.378 . S
O472 C470 1.256 . S
O473 Cd474 2.300 . S
O473 C480 1.275 . S
Cd474 O473 2.300 . S
Cd474 O482 2.381 . S
Cd474 O483 2.378 . S
O475 Cd476 2.385 . S
O475 C480 1.255 . S
Cd476 O475 2.385 . S
Cd476 O477 2.317 . S
O477 Cd476 2.317 . S
O477 C478 1.232 . S
C478 O477 1.232 . S
C478 O479 1.218 . S
O479 C478 1.218 . S
C480 O473 1.275 . S
C480 O475 1.255 . S
C481 O482 1.258 . S
C481 O483 1.256 . S
O482 Cd474 2.381 . S
O482 C481 1.258 . S
O483 Cd474 2.378 . S
O483 C481 1.256 . S
O484 Cd485 2.300 . S
O484 C491 1.275 . S
Cd485 O484 2.300 . S
Cd485 O493 2.381 . S
Cd485 O494 2.378 . S
O486 Cd487 2.385 . S
O486 C491 1.255 . S
Cd487 O486 2.385 . S
Cd487 O488 2.317 . S
O488 Cd487 2.317 . S
O488 C489 1.232 . S
C489 O488 1.232 . S
C489 O490 1.218 . S
O490 C489 1.218 . S
C491 O484 1.275 . S
C491 O486 1.255 . S
C492 O493 1.258 . S
C492 O494 1.256 . S
O493 Cd485 2.381 . S
O493 C492 1.258 . S
O494 Cd485 2.378 . S
O494 C492 1.256 . S
O495 Cd496 2.300 . S
O495 C502 1.275 . S
Cd496 O495 2.300 . S
Cd496 O504 2.381 . S
Cd496 O505 2.378 . S
O497 Cd498 2.385 . S
O497 C502 1.255 . S
Cd498 O497 2.385 . S
Cd498 O499 2.317 . S
O499 Cd498 2.317 . S
O499 C500 1.232 . S
C500 O499 1.232 . S
C500 O501 1.218 1_655 S
O501 C500 1.218 1_455 S
C502 O495 1.275 . S
C502 O497 1.255 . S
C503 O504 1.258 . S
C503 O505 1.256 . S
O504 Cd496 2.381 . S
O504 C503 1.258 . S
O505 Cd496 2.378 . S
O505 C503 1.256 . S
O506 Cd507 2.300 . S
O506 C513 1.275 . S
Cd507 O506 2.300 . S
Cd507 O515 2.381 . S
Cd507 O516 2.378 . S
O508 Cd509 2.385 . S
O508 C513 1.255 . S
Cd509 O508 2.385 . S
Cd509 O510 2.317 . S
O510 Cd509 2.317 . S
O510 C511 1.232 . S
C511 O510 1.232 . S
C511 O512 1.218 . S
O512 C511 1.218 . S
C513 O506 1.275 . S
C513 O508 1.255 . S
C514 O515 1.258 . S
C514 O516 1.256 . S
O515 Cd507 2.381 . S
O515 C514 1.258 . S
O516 Cd507 2.378 . S
O516 C514 1.256 . S
O517 Cd518 2.300 . S
O517 C524 1.275 . S
Cd518 O517 2.300 . S
Cd518 O526 2.381 . S
Cd518 O527 2.378 . S
O519 Cd520 2.385 . S
O519 C524 1.255 . S
Cd520 O519 2.385 . S
Cd520 O521 2.317 . S
O521 Cd520 2.317 . S
O521 C522 1.232 . S
C522 O521 1.232 . S
C522 O523 1.218 . S
O523 C522 1.218 . S
C524 O517 1.275 . S
C524 O519 1.255 . S
C525 O526 1.258 . S
C525 O527 1.256 . S
O526 Cd518 2.381 . S
O526 C525 1.258 . S
O527 Cd518 2.378 . S
O527 C525 1.256 . S
C5 C49 0.554 1_545 S
C16 C60 2.342 . S
C71 C27 0.554 1_545 S
C82 C38 2.343 1_554 S
C93 C159 0.554 1_554 S
C104 C170 2.343 1_565 S
C137 C115 0.554 . S
C126 C148 2.342 1_545 S
C181 C500 0.554 1_455 S
C192 C478 0.554 . S
C203 C225 2.343 1_655 S
C456 C214 0.554 1_455 S
C445 C236 0.554 . S
C247 C522 2.342 1_655 S
C511 C258 2.342 . S
C269 C313 0.554 . S
C324 C280 2.342 1_554 S
C291 C335 0.554 . S
C302 C346 2.342 . S
C357 C423 0.554 . S
C434 C368 2.342 . S
C401 C379 0.554 1_556 S
C390 C412 2.342 . S
C489 C467 2.342 . S
C172 C7 1.675 . S
C18 C139 1.675 . S
C150 C29 1.675 . S
C161 C40 1.675 . S
C51 C106 1.675 . S
C117 C62 1.674 . S
C128 C73 1.675 . S
C95 C84 1.675 . S
C227 C183 1.675 . S
C194 C260 1.674 . S
C205 C502 1.675 . S
C249 C216 1.675 . S
C238 C469 1.674 . S
C436 C271 1.675 . S
C403 C282 1.675 . S
C414 C293 1.676 . S
C425 C304 1.674 . S
C315 C370 1.674 . S
C326 C381 1.674 . S
C337 C392 1.674 . S
C359 C348 1.675 . S
C491 C447 1.675 . S
C524 C458 1.674 . S
C513 C480 1.675 . S
C8 C228 1.833 . S
C459 C19 1.833 . S
C470 C30 1.832 . S
C481 C41 1.833 . S
C52 C525 1.833 . S
C63 C239 1.832 . S
C74 C514 1.834 . S
C184 C85 1.833 . S
C96 C173 1.832 . S
C107 C140 1.833 . S
C118 C151 1.833 . S
C129 C162 1.832 . S
C283 C195 1.833 . S
C206 C294 1.833 . S
C217 C305 1.832 . S
C338 C250 1.834 . S
C261 C316 1.832 . S
C272 C492 1.833 . S
C503 C327 1.832 . S
C349 C448 1.833 . S
C360 C437 1.833 . S
C371 C404 1.832 . S
C382 C415 1.833 . S
C426 C393 1.832 . S
