# Generated by pormake.
# Topology yfz, (5)-cn, num edge types: 1
# Building blocks:
#     Node 0, Type 0, BuildingBlock: BEQFEK_clean_sbu_0, # of connection points: 5
#     Node 1, Type 0, BuildingBlock: BEQFEK_clean_sbu_0, # of connection points: 5
#     Node 2, Type 0, BuildingBlock: BEQFEK_clean_sbu_0, # of connection points: 5
#     Node 3, Type 0, BuildingBlock: BEQFEK_clean_sbu_0, # of connection points: 5
#     Node 4, Type 0, BuildingBlock: BEQFEK_clean_sbu_0, # of connection points: 5
#     Node 5, Type 0, BuildingBlock: BEQFEK_clean_sbu_0, # of connection points: 5
#     Node 6, Type 0, BuildingBlock: BEQFEK_clean_sbu_0, # of connection points: 5
#     Node 7, Type 0, BuildingBlock: BEQFEK_clean_sbu_0, # of connection points: 5
#     Edge 8, Type (0, 0), BuildingBlock: AJUNOK_clean_linker_0, # of connection points: 2
#     Edge 9, Type (0, 0), BuildingBlock: AJUNOK_clean_linker_0, # of connection points: 2
#     Edge 10, Type (0, 0), BuildingBlock: AJUNOK_clean_linker_0, # of connection points: 2
#     Edge 11, Type (0, 0), BuildingBlock: AJUNOK_clean_linker_0, # of connection points: 2
#     Edge 12, Type (0, 0), BuildingBlock: AJUNOK_clean_linker_0, # of connection points: 2
#     Edge 13, Type (0, 0), BuildingBlock: AJUNOK_clean_linker_0, # of connection points: 2
#     Edge 14, Type (0, 0), BuildingBlock: AJUNOK_clean_linker_0, # of connection points: 2
#     Edge 15, Type (0, 0), BuildingBlock: AJUNOK_clean_linker_0, # of connection points: 2
#     Edge 16, Type (0, 0), BuildingBlock: AJUNOK_clean_linker_0, # of connection points: 2
#     Edge 17, Type (0, 0), BuildingBlock: AJUNOK_clean_linker_0, # of connection points: 2
#     Edge 18, Type (0, 0), BuildingBlock: AJUNOK_clean_linker_0, # of connection points: 2
#     Edge 19, Type (0, 0), BuildingBlock: AJUNOK_clean_linker_0, # of connection points: 2
#     Edge 20, Type (0, 0), BuildingBlock: AJUNOK_clean_linker_0, # of connection points: 2
#     Edge 21, Type (0, 0), BuildingBlock: AJUNOK_clean_linker_0, # of connection points: 2
#     Edge 22, Type (0, 0), BuildingBlock: AJUNOK_clean_linker_0, # of connection points: 2
#     Edge 23, Type (0, 0), BuildingBlock: AJUNOK_clean_linker_0, # of connection points: 2
#     Edge 24, Type (0, 0), BuildingBlock: AJUNOK_clean_linker_0, # of connection points: 2
#     Edge 25, Type (0, 0), BuildingBlock: AJUNOK_clean_linker_0, # of connection points: 2
#     Edge 26, Type (0, 0), BuildingBlock: AJUNOK_clean_linker_0, # of connection points: 2
#     Edge 27, Type (0, 0), BuildingBlock: AJUNOK_clean_linker_0, # of connection points: 2
# Relax obj value: 0.214
# Max RMSD: 0.182
# Mean RMSD: 0.182
data_MOF--net-yfz--node1-BEQFEK_clean_sbu_0--edge1-AJUNOK_clean_linker_0
_symmetry_space_group_name_H-M    P1
_symmetry_Int_Tables_number       1
_symmetry_cell_setting            triclinic
loop_
_symmetry_equiv_pos_as_xyz
'x, y, z'
_cell_length_a     38.587811
_cell_length_b     38.585209
_cell_length_c     14.910908
_cell_angle_alpha  90.017998
_cell_angle_beta   89.995537
_cell_angle_gamma 90.007933
loop_
_atom_site_label
_atom_site_type_symbol
_atom_site_fract_x
_atom_site_fract_y
_atom_site_fract_z
_atom_type_partial_charge
Co0 Co 0.60462 0.10467 0.24087 0.0
Co1 Co 0.62327 0.12499 0.4383 0.0
C2 C 0.67787 0.10125 0.31159 0.0
O3 O 0.65511 0.09826 0.25055 0.0
O4 O 0.6695 0.11064 0.39072 0.0
C5 C 0.61321 0.07417 0.06863 0.0
O6 O 0.63794 0.05615 0.10698 0.0
C7 C 0.64024 0.11596 0.6299 0.0
C8 C 0.60876 0.15792 0.68936 0.0
C9 C 0.62913 0.12963 0.71127 0.0
N10 N 0.62605 0.13475 0.5634 0.0
N11 N 0.60801 0.16029 0.59949 0.0
C12 C 0.66423 0.08603 0.61447 0.0
H13 H 0.69025 0.09641 0.59772 0.0
H14 H 0.65541 0.07054 0.55605 0.0
H15 H 0.66681 0.06943 0.6747 0.0
C16 C 0.55487 0.05803 0.3355 0.0
N17 N 0.58047 0.08182 0.33452 0.0
N18 N 0.58815 0.09057 0.41763 0.0
C19 C 0.56739 0.07268 0.47398 0.0
C20 C 0.54554 0.05169 0.42402 0.0
C21 C 0.53919 0.0426 0.25297 0.0
H22 H 0.53452 0.06325 0.20265 0.0
H23 H 0.55779 0.02389 0.22333 0.0
H24 H 0.51454 0.029 0.2683 0.0
O25 O 0.59518 0.15479 0.24355 0.0
O26 O 0.61024 0.16972 0.38124 0.0
H27 H 0.56623 0.10101 0.59752 0.0
H28 H 0.5501 0.05735 0.60737 0.0
C29 C 0.56964 0.07398 0.57418 0.0
H30 H 0.59534 0.06439 0.59516 0.0
H31 H 0.59357 0.17819 0.56274 0.0
O32 O 0.59204 0.09099 0.11739 0.0
C33 C 0.59925 0.1778 0.30353 0.0
Co34 Co 0.39588 0.60495 0.73984 0.0
Co35 Co 0.3732 0.62237 0.93672 0.0
C36 C 0.39746 0.67769 0.81097 0.0
O37 O 0.40145 0.65526 0.74967 0.0
O38 O 0.38743 0.66882 0.88914 0.0
C39 C 0.42722 0.61459 0.56959 0.0
O40 O 0.443 0.6403 0.61032 0.0
C41 C 0.38688 0.63613 0.12651 0.0
C42 C 0.34105 0.61198 0.18977 0.0
C43 C 0.37302 0.62661 0.20893 0.0
N44 N 0.36447 0.62658 0.06198 0.0
N45 N 0.3367 0.61315 0.10037 0.0
C46 C 0.42249 0.64975 0.10779 0.0
H47 H 0.43084 0.6425 0.03906 0.0
H48 H 0.4414 0.63997 0.15784 0.0
H49 H 0.42197 0.67845 0.11192 0.0
C50 C 0.44335 0.55678 0.83635 0.0
N51 N 0.41854 0.58138 0.83454 0.0
N52 N 0.40753 0.58716 0.91693 0.0
C53 C 0.42421 0.56533 0.97305 0.0
C54 C 0.44777 0.54609 0.92437 0.0
C55 C 0.46174 0.54354 0.7551 0.0
H56 H 0.44304 0.52918 0.71246 0.0
H57 H 0.47157 0.56574 0.71519 0.0
H58 H 0.48349 0.52611 0.77356 0.0
O59 O 0.34563 0.59512 0.74158 0.0
O60 O 0.32887 0.60896 0.87901 0.0
H61 H 0.38782 0.56376 0.08219 0.0
H62 H 0.42278 0.53321 0.09153 0.0
C63 C 0.41582 0.55986 0.07007 0.0
H64 H 0.43116 0.57805 0.11154 0.0
H65 H 0.31588 0.60248 0.06525 0.0
O66 O 0.41085 0.59246 0.61669 0.0
C67 C 0.32188 0.59841 0.80011 0.0
Co68 Co 0.89389 0.39513 0.23288 0.0
Co69 Co 0.87649 0.3745 0.42992 0.0
C70 C 0.82144 0.39928 0.30264 0.0
O71 O 0.84363 0.40278 0.24045 0.0
O72 O 0.83052 0.3891 0.38055 0.0
C73 C 0.88833 0.42806 0.06349 0.0
O74 O 0.86502 0.44764 0.10271 0.0
C75 C 0.86182 0.3894 0.61925 0.0
C76 C 0.88723 0.3447 0.68434 0.0
C77 C 0.87165 0.37633 0.70244 0.0
N78 N 0.87258 0.36714 0.55559 0.0
N79 N 0.88696 0.34011 0.59509 0.0
C80 C 0.842 0.42183 0.59926 0.0
H81 H 0.82286 0.41667 0.54553 0.0
H82 H 0.8599 0.44204 0.57374 0.0
H83 H 0.82829 0.4315 0.65974 0.0
C84 C 0.94299 0.4428 0.32702 0.0
N85 N 0.91815 0.41818 0.32589 0.0
N86 N 0.91217 0.40779 0.4086 0.0
C87 C 0.93408 0.42452 0.46422 0.0
C88 C 0.95352 0.44772 0.41512 0.0
C89 C 0.95619 0.46094 0.24536 0.0
H90 H 0.93398 0.47111 0.20606 0.0
H91 H 0.97401 0.48245 0.26325 0.0
H92 H 0.97005 0.442 0.20236 0.0
O93 O 0.90234 0.3444 0.23633 0.0
O94 O 0.88932 0.32959 0.37581 0.0
H95 H 0.96562 0.42451 0.58399 0.0
H96 H 0.92022 0.43045 0.60144 0.0
C97 C 0.93951 0.41624 0.56115 0.0
H98 H 0.93688 0.38805 0.57269 0.0
H99 H 0.89839 0.31949 0.56093 0.0
O100 O 0.90754 0.40864 0.111 0.0
C101 C 0.89926 0.32151 0.29721 0.0
Co102 Co 0.10285 0.8959 0.72681 0.0
Co103 Co 0.12379 0.87489 0.92314 0.0
C104 C 0.10067 0.82197 0.78864 0.0
O105 O 0.09701 0.84559 0.7303 0.0
O106 O 0.10993 0.82929 0.86866 0.0
C107 C 0.07121 0.88998 0.55469 0.0
O108 O 0.05136 0.86663 0.5928 0.0
C109 C 0.11038 0.85954 0.11457 0.0
C110 C 0.15774 0.8813 0.1757 0.0
C111 C 0.1256 0.86748 0.19681 0.0
N112 N 0.13219 0.86936 0.04873 0.0
N113 N 0.16076 0.88153 0.086 0.0
C114 C 0.07607 0.84257 0.09798 0.0
H115 H 0.07774 0.8257 0.03785 0.0
H116 H 0.05604 0.86245 0.08438 0.0
H117 H 0.06794 0.827 0.15694 0.0
C118 C 0.05414 0.94204 0.82814 0.0
N119 N 0.07922 0.91772 0.82353 0.0
N120 N 0.08996 0.91052 0.90539 0.0
C121 C 0.07329 0.93136 0.96387 0.0
C122 C 0.04933 0.95104 0.91752 0.0
C123 C 0.03555 0.95641 0.7485 0.0
H124 H 0.03181 0.93582 0.69745 0.0
H125 H 0.01014 0.96757 0.76811 0.0
H126 H 0.05162 0.97717 0.71815 0.0
O127 O 0.15339 0.90541 0.73176 0.0
O128 O 0.16832 0.88922 0.86901 0.0
H129 H 0.07782 0.96431 0.08029 0.0
H130 H 0.06931 0.91984 0.10428 0.0
C131 C 0.08387 0.93736 0.05935 0.0
H132 H 0.11204 0.93312 0.06759 0.0
H133 H 0.18153 0.89186 0.05022 0.0
O134 O 0.08926 0.91001 0.6039 0.0
C135 C 0.1763 0.90108 0.79214 0.0
Co136 Co 0.60217 0.39777 0.27281 0.0
Co137 Co 0.62112 0.37622 0.07602 0.0
C138 C 0.67519 0.4013 0.20586 0.0
O139 O 0.65221 0.40503 0.26584 0.0
O140 O 0.66704 0.39133 0.12699 0.0
C141 C 0.60761 0.43008 0.44464 0.0
O142 O 0.63328 0.44719 0.40745 0.0
C143 C 0.63331 0.39101 0.88551 0.0
C144 C 0.61246 0.34332 0.82374 0.0
C145 C 0.62374 0.37655 0.80389 0.0
N146 N 0.62636 0.36789 0.95064 0.0
N147 N 0.61509 0.33903 0.91291 0.0
C148 C 0.64479 0.42746 0.90289 0.0
H149 H 0.63967 0.43481 0.97364 0.0
H150 H 0.63173 0.4458 0.85662 0.0
H151 H 0.6731 0.42925 0.89061 0.0
C152 C 0.5532 0.44415 0.17589 0.0
N153 N 0.57841 0.41999 0.17764 0.0
N154 N 0.58417 0.40883 0.09545 0.0
C155 C 0.56113 0.42409 0.03974 0.0
C156 C 0.54143 0.44754 0.08828 0.0
C157 C 0.53986 0.46238 0.25738 0.0
H158 H 0.5309 0.44289 0.30695 0.0
H159 H 0.56133 0.47717 0.28886 0.0
H160 H 0.51822 0.48019 0.24075 0.0
O161 O 0.59424 0.34695 0.27004 0.0
O162 O 0.60845 0.33146 0.13153 0.0
H163 H 0.56304 0.3879 0.93026 0.0
H164 H 0.52945 0.41941 0.92032 0.0
C165 C 0.55648 0.41536 0.94256 0.0
H166 H 0.57297 0.43254 0.90127 0.0
H167 H 0.60661 0.31736 0.94851 0.0
O168 O 0.58782 0.41197 0.39498 0.0
C169 C 0.59802 0.32379 0.21002 0.0
Co170 Co 0.10295 0.60391 0.75807 0.0
Co171 Co 0.12509 0.62076 0.56075 0.0
C172 C 0.10083 0.67649 0.68415 0.0
O173 O 0.09705 0.65426 0.74606 0.0
O174 O 0.11078 0.66737 0.60611 0.0
C175 C 0.07217 0.61388 0.92994 0.0
O176 O 0.05851 0.64143 0.8923 0.0
C177 C 0.11424 0.63488 0.3696 0.0
C178 C 0.15755 0.6051 0.31073 0.0
C179 C 0.12726 0.62245 0.289 0.0
N180 N 0.13504 0.6238 0.43601 0.0
N181 N 0.16155 0.60716 0.40007 0.0
C182 C 0.08046 0.65306 0.3848 0.0
H183 H 0.07143 0.64909 0.45473 0.0
H184 H 0.06049 0.64388 0.33675 0.0
H185 H 0.08425 0.68124 0.37373 0.0
C186 C 0.05639 0.55417 0.66356 0.0
N187 N 0.08062 0.57935 0.66408 0.0
N188 N 0.09078 0.58545 0.58118 0.0
C189 C 0.07393 0.56346 0.52562 0.0
C190 C 0.05136 0.54325 0.57564 0.0
C191 C 0.03965 0.54006 0.7463 0.0
H192 H 0.05984 0.53412 0.79699 0.0
H193 H 0.02238 0.56014 0.77529 0.0
H194 H 0.02436 0.51635 0.73165 0.0
O195 O 0.15334 0.59439 0.75835 0.0
O196 O 0.16919 0.60772 0.6198 0.0
H197 H 0.10687 0.56248 0.40998 0.0
H198 H 0.06766 0.53834 0.39553 0.0
C199 C 0.07891 0.56188 0.42607 0.0
H200 H 0.06569 0.5842 0.39482 0.0
H201 H 0.18085 0.59477 0.43699 0.0
O202 O 0.08753 0.5917 0.8808 0.0
C203 C 0.17665 0.59751 0.6986 0.0
Co204 Co 0.89715 0.10262 0.26685 0.0
Co205 Co 0.87606 0.12196 0.07097 0.0
C206 C 0.82275 0.09959 0.20104 0.0
O207 O 0.8466 0.09679 0.25928 0.0
O208 O 0.8298 0.10812 0.1203 0.0
C209 C 0.88977 0.07194 0.43856 0.0
O210 O 0.86628 0.0521 0.40087 0.0
C211 C 0.85822 0.11568 0.87792 0.0
C212 C 0.89785 0.15093 0.82199 0.0
C213 C 0.87343 0.12634 0.79771 0.0
N214 N 0.87448 0.13193 0.94587 0.0
N215 N 0.89728 0.15374 0.91164 0.0
C216 C 0.82836 0.09138 0.8908 0.0
H217 H 0.80981 0.10286 0.9393 0.0
H218 H 0.83756 0.06667 0.92029 0.0
H219 H 0.81482 0.08625 0.82648 0.0
C220 C 0.94596 0.05564 0.17128 0.0
N221 N 0.92032 0.07937 0.17326 0.0
N222 N 0.91102 0.08702 0.09065 0.0
C223 C 0.93038 0.06797 0.03351 0.0
C224 C 0.95325 0.0477 0.08229 0.0
C225 C 0.96376 0.0421 0.25313 0.0
H226 H 0.96798 0.06353 0.30157 0.0
H227 H 0.9468 0.02264 0.28593 0.0
H228 H 0.98892 0.02982 0.23603 0.0
O229 O 0.90675 0.15234 0.26348 0.0
O230 O 0.8892 0.16701 0.12775 0.0
H231 H 0.93324 0.09217 0.9048 0.0
H232 H 0.9406 0.04607 0.90162 0.0
C233 C 0.92546 0.06698 0.93411 0.0
H234 H 0.89789 0.06207 0.91977 0.0
H235 H 0.91416 0.16886 0.94988 0.0
O236 O 0.91029 0.08935 0.38943 0.0
C237 C 0.90123 0.17528 0.20433 0.0
Co238 Co 0.39567 0.89676 0.7665 0.0
Co239 Co 0.37564 0.87611 0.57045 0.0
C240 C 0.39821 0.82284 0.70349 0.0
O241 O 0.40159 0.84652 0.76181 0.0
O242 O 0.38923 0.83012 0.62324 0.0
C243 C 0.42772 0.89068 0.93681 0.0
O244 O 0.44798 0.86795 0.89755 0.0
C245 C 0.38837 0.85957 0.37994 0.0
C246 C 0.34531 0.88845 0.31726 0.0
C247 C 0.3756 0.87071 0.29728 0.0
N248 N 0.36741 0.87183 0.44481 0.0
N249 N 0.34122 0.88816 0.40664 0.0
C250 C 0.419 0.83686 0.39842 0.0
H251 H 0.41232 0.81793 0.45168 0.0
H252 H 0.44077 0.85278 0.4241 0.0
H253 H 0.42718 0.82267 0.33723 0.0
C254 C 0.44392 0.9441 0.6703 0.0
N255 N 0.41946 0.91915 0.67236 0.0
N256 N 0.41001 0.91154 0.58974 0.0
C257 C 0.42763 0.9323 0.53282 0.0
C258 C 0.45004 0.95296 0.5815 0.0
C259 C 0.46068 0.9591 0.75192 0.0
H260 H 0.46781 0.93796 0.79884 0.0
H261 H 0.48403 0.97446 0.73423 0.0
H262 H 0.44179 0.97612 0.7867 0.0
O263 O 0.34562 0.90637 0.76093 0.0
O264 O 0.33055 0.88996 0.6243 0.0
H265 H 0.43075 0.96048 0.40751 0.0
H266 H 0.43383 0.91432 0.399 0.0
C267 C 0.42068 0.93565 0.43458 0.0
H268 H 0.39249 0.93456 0.42167 0.0
H269 H 0.32174 0.90105 0.44186 0.0
O270 O 0.4088 0.91033 0.88904 0.0
C271 C 0.32256 0.90171 0.70136 0.0
C272 C 0.50026 0.96765 0.4835 0.0
C273 C 0.47448 0.97861 0.54393 0.0
C274 C 0.52252 0.99159 0.4423 0.0
C275 C 0.51939 0.02722 0.45956 0.0
H276 H 0.5033 0.94035 0.46844 0.0
H277 H 0.54275 0.98213 0.39822 0.0
S278 S 0.45363 0.06922 0.60474 0.0
N279 N 0.44559 0.02733 0.61445 0.0
N280 N 0.48687 0.07252 0.5354 0.0
C281 C 0.49286 0.03853 0.51723 0.0
C282 C 0.47058 0.01415 0.56011 0.0
C283 C 0.48647 0.46185 0.0069 0.0
C284 C 0.51672 0.47303 0.05099 0.0
C285 C 0.46479 0.48551 0.96258 0.0
C286 C 0.47262 0.52102 0.96194 0.0
H287 H 0.47965 0.43462 0.00632 0.0
H288 H 0.44152 0.47612 0.93001 0.0
S289 S 0.54761 0.56359 0.07081 0.0
N290 N 0.55291 0.52194 0.09259 0.0
N291 N 0.5115 0.56653 0.01175 0.0
C292 C 0.50223 0.5326 0.00747 0.0
C293 C 0.52443 0.50855 0.0517 0.0
C294 C 0.01399 0.46778 0.44394 0.0
C295 C 0.97819 0.47301 0.45277 0.0
C296 C 0.03761 0.48965 0.48778 0.0
C297 C 0.02613 0.51779 0.54012 0.0
H298 H 0.02371 0.44633 0.40434 0.0
H299 H 0.0651 0.48488 0.47958 0.0
S300 S 0.93481 0.54117 0.58698 0.0
N301 N 0.9322 0.50679 0.52125 0.0
N302 N 0.97661 0.54892 0.60022 0.0
C303 C 0.99036 0.52278 0.5506 0.0
C304 C 0.96637 0.50019 0.50735 0.0
C305 C 0.00233 0.03409 0.9784 0.0
C306 C 0.9789 0.02301 0.04501 0.0
C307 C 0.02447 0.01057 0.9351 0.0
C308 C 0.02417 0.97532 0.95801 0.0
H309 H 0.00319 0.06112 0.95889 0.0
H310 H 0.04226 0.02006 0.88455 0.0
S311 S 0.96758 0.93307 0.12664 0.0
N312 N 0.95639 0.97437 0.13023 0.0
N313 N 0.99863 0.93029 0.05073 0.0
C314 C 0.00118 0.96398 0.02501 0.0
C315 C 0.97845 0.98782 0.06834 0.0
C316 C 0.60061 0.24073 0.34517 0.0
C317 C 0.59401 0.21495 0.28044 0.0
C318 C 0.60016 0.27598 0.3227 0.0
C319 C 0.59342 0.2869 0.23442 0.0
H320 H 0.6073 0.23371 0.41333 0.0
H321 H 0.60671 0.29471 0.37415 0.0
S322 S 0.56938 0.23059 0.04267 0.0
N323 N 0.57654 0.20338 0.12607 0.0
N324 N 0.57633 0.26963 0.08415 0.0
C325 C 0.58491 0.26168 0.17013 0.0
C326 C 0.58499 0.22574 0.19307 0.0
C327 C 0.22363 0.59589 0.81401 0.0
C328 C 0.2135 0.59253 0.72375 0.0
C329 C 0.25869 0.59626 0.83848 0.0
C330 C 0.28509 0.59299 0.77382 0.0
H331 H 0.20443 0.59986 0.86602 0.0
H332 H 0.26505 0.60028 0.90848 0.0
S333 S 0.27202 0.5785 0.52951 0.0
N334 N 0.23248 0.58231 0.57054 0.0
N335 N 0.29832 0.58272 0.61609 0.0
C336 C 0.27521 0.58737 0.68387 0.0
C337 C 0.23947 0.58726 0.65897 0.0
C338 C 0.90174 0.23819 0.16194 0.0
C339 C 0.9056 0.21246 0.22813 0.0
C340 C 0.90138 0.27348 0.18441 0.0
C341 C 0.90449 0.28448 0.2741 0.0
H342 H 0.89797 0.23106 0.09234 0.0
H343 H 0.89715 0.29216 0.1313 0.0
S344 S 0.9189 0.22794 0.47204 0.0
N345 N 0.91552 0.20085 0.38687 0.0
N346 N 0.91455 0.26702 0.42859 0.0
C347 C 0.91005 0.25919 0.34044 0.0
C348 C 0.91073 0.22326 0.3176 0.0
C349 C 0.25978 0.90402 0.6581 0.0
C350 C 0.28545 0.90682 0.72488 0.0
C351 C 0.22445 0.90413 0.68002 0.0
C352 C 0.21333 0.90661 0.7697 0.0
H353 H 0.26697 0.90065 0.5884 0.0
H354 H 0.20581 0.90061 0.62649 0.0
S355 S 0.26965 0.91872 0.96907 0.0
N356 N 0.29689 0.91546 0.88419 0.0
N357 N 0.23059 0.91535 0.92484 0.0
C358 C 0.23856 0.91133 0.83664 0.0
C359 C 0.27455 0.91155 0.81439 0.0
C360 C 0.40245 0.75935 0.66899 0.0
C361 C 0.40179 0.78614 0.73276 0.0
C362 C 0.40246 0.72449 0.69533 0.0
C363 C 0.40144 0.71485 0.78666 0.0
H364 H 0.40226 0.76526 0.59796 0.0
H365 H 0.40207 0.70498 0.64309 0.0
S366 S 0.40194 0.77493 0.98099 0.0
N367 N 0.40205 0.8005 0.89232 0.0
N368 N 0.40189 0.73504 0.94104 0.0
C369 C 0.40202 0.74131 0.8513 0.0
C370 C 0.40227 0.77688 0.8246 0.0
C371 C 0.77354 0.40487 0.18986 0.0
C372 C 0.78417 0.40402 0.28042 0.0
C373 C 0.73835 0.4052 0.16617 0.0
C374 C 0.71226 0.40509 0.23198 0.0
H375 H 0.7925 0.404 0.13632 0.0
H376 H 0.73161 0.40472 0.09565 0.0
S377 S 0.72634 0.40584 0.47914 0.0
N378 N 0.7657 0.40527 0.43612 0.0
N379 N 0.69977 0.40601 0.39248 0.0
C380 C 0.72258 0.40583 0.32297 0.0
C381 C 0.75842 0.40524 0.34692 0.0
C382 C 0.09588 0.75865 0.8242 0.0
C383 C 0.09695 0.78523 0.7599 0.0
C384 C 0.09568 0.72371 0.79861 0.0
C385 C 0.09689 0.71375 0.70754 0.0
H386 H 0.0959 0.7648 0.8951 0.0
H387 H 0.09579 0.70439 0.85128 0.0
S388 S 0.09772 0.77322 0.512 0.0
N389 N 0.09743 0.79908 0.60015 0.0
N390 N 0.09723 0.73346 0.55273 0.0
C391 C 0.09675 0.74002 0.64233 0.0
C392 C 0.09671 0.77568 0.66829 0.0
C393 C 0.75909 0.09573 0.16773 0.0
C394 C 0.78609 0.09605 0.23096 0.0
C395 C 0.72428 0.09598 0.19475 0.0
C396 C 0.71491 0.09685 0.28627 0.0
H397 H 0.7648 0.09608 0.09659 0.0
H398 H 0.70462 0.09669 0.14294 0.0
S399 S 0.77556 0.09554 0.47939 0.0
N400 N 0.80085 0.09544 0.39021 0.0
N401 N 0.73558 0.09589 0.44019 0.0
C402 C 0.74158 0.09588 0.35033 0.0
C403 C 0.77707 0.09546 0.32294 0.0
C404 C 0.62019 0.0793 0.81526 0.0
C405 C 0.6301 0.11411 0.80181 0.0
C406 C 0.61529 0.06596 0.90207 0.0
C407 C 0.61936 0.0873 0.9775 0.0
H408 H 0.61467 0.06269 0.75854 0.0
H409 H 0.60721 0.03926 0.91009 0.0
S410 S 0.64761 0.17913 0.97896 0.0
N411 N 0.64573 0.16877 0.87159 0.0
N412 N 0.63608 0.14391 0.03431 0.0
C413 C 0.63016 0.12173 0.96509 0.0
C414 C 0.63549 0.13513 0.87727 0.0
C415 C 0.40343 0.58865 0.4291 0.0
C416 C 0.41946 0.61686 0.47219 0.0
C417 C 0.38936 0.592 0.34303 0.0
C418 C 0.39087 0.6236 0.2963 0.0
H419 H 0.40052 0.56407 0.4634 0.0
H420 H 0.37658 0.56975 0.31345 0.0
S421 S 0.43087 0.70517 0.37659 0.0
N422 N 0.43717 0.67736 0.45915 0.0
N423 N 0.41024 0.6834 0.2976 0.0
C424 C 0.40798 0.65165 0.33649 0.0
C425 C 0.42247 0.64831 0.42432 0.0
C426 C 0.87249 0.38269 0.95439 0.0
C427 C 0.88222 0.41718 0.97057 0.0
C428 C 0.86713 0.37062 0.86725 0.0
C429 C 0.87149 0.39248 0.79268 0.0
H430 H 0.86925 0.36476 0.00972 0.0
H431 H 0.86036 0.34359 0.85809 0.0
S432 S 0.89744 0.48533 0.80098 0.0
N433 N 0.89539 0.47343 0.90725 0.0
N434 N 0.88689 0.45065 0.74208 0.0
C435 C 0.88069 0.42741 0.8084 0.0
C436 C 0.88564 0.43979 0.89786 0.0
C437 C 0.07547 0.87887 0.30156 0.0
C438 C 0.11022 0.86868 0.2881 0.0
C439 C 0.06251 0.8854 0.3882 0.0
C440 C 0.08415 0.88281 0.46358 0.0
H441 H 0.05849 0.88329 0.24503 0.0
H442 H 0.03581 0.89353 0.396 0.0
S443 S 0.17569 0.85368 0.46624 0.0
N444 N 0.16487 0.85352 0.35911 0.0
N445 N 0.14084 0.86678 0.52073 0.0
C446 C 0.11844 0.87162 0.45143 0.0
C447 C 0.13141 0.8644 0.364 0.0
C448 C 0.6391 0.4287 0.59166 0.0
C449 C 0.60845 0.42276 0.54235 0.0
C450 C 0.64364 0.41472 0.67781 0.0
C451 C 0.61763 0.39448 0.71763 0.0
H452 H 0.66057 0.44261 0.5618 0.0
H453 H 0.66821 0.41843 0.71158 0.0
S454 S 0.53009 0.37705 0.62501 0.0
N455 N 0.54994 0.39932 0.54567 0.0
N456 N 0.55843 0.3733 0.70735 0.0
C457 C 0.58593 0.39062 0.67216 0.0
C458 C 0.58129 0.40482 0.58475 0.0
C459 C 0.08017 0.64598 0.0743 0.0
C460 C 0.07968 0.61421 0.02735 0.0
C461 C 0.09459 0.64843 0.16047 0.0
C462 C 0.10893 0.61923 0.20243 0.0
H463 H 0.07121 0.66957 0.04251 0.0
H464 H 0.09592 0.67357 0.19265 0.0
S465 S 0.10833 0.52908 0.11574 0.0
N466 N 0.09073 0.55225 0.03459 0.0
N467 N 0.11765 0.55686 0.19643 0.0
C468 C 0.10639 0.58696 0.15908 0.0
C469 C 0.0917 0.58443 0.07166 0.0
C470 C 0.88304 0.1202 0.54696 0.0
C471 C 0.88386 0.08432 0.53074 0.0
C472 C 0.87711 0.13328 0.63295 0.0
C473 C 0.87201 0.11108 0.70652 0.0
H474 H 0.88702 0.13842 0.49262 0.0
H475 H 0.87756 0.16113 0.64238 0.0
S476 S 0.87239 0.01474 0.69865 0.0
N477 N 0.87833 0.02666 0.59339 0.0
N478 N 0.86904 0.05101 0.75682 0.0
C479 C 0.87222 0.075 0.6908 0.0
C480 C 0.87766 0.0617 0.60237 0.0
C481 C 0.36902 0.87052 0.13196 0.0
C482 C 0.39144 0.87084 0.20638 0.0
C483 C 0.38118 0.8771 0.04538 0.0
C484 C 0.41637 0.88392 0.02931 0.0
H485 H 0.3415 0.86611 0.14095 0.0
H486 H 0.36278 0.87691 0.99042 0.0
S487 S 0.48636 0.88779 0.19823 0.0
N488 N 0.45106 0.87923 0.25674 0.0
N489 N 0.47388 0.88968 0.09242 0.0
C490 C 0.43947 0.88309 0.10157 0.0
C491 C 0.42703 0.87704 0.19061 0.0
loop_
_geom_bond_atom_site_label_1
_geom_bond_atom_site_label_2
_geom_bond_distance
_geom_bond_site_symmetry_2
_ccdc_geom_bond_type
Co0 O3 1.970 . S
Co0 N17 1.989 . S
Co0 O25 1.967 . S
Co0 O32 1.920 . S
Co1 O4 1.966 . S
Co1 N10 2.022 . S
Co1 N18 1.993 . S
Co1 O26 1.941 . S
C2 O3 1.258 . S
C2 O4 1.263 . S
O3 Co0 1.970 . S
O3 C2 1.258 . S
O4 Co1 1.966 . S
O4 C2 1.263 . S
C5 O6 1.235 . S
C5 O32 1.289 . S
O6 C5 1.235 . S
C7 C9 1.400 . S
C7 N10 1.351 . S
C7 C12 1.501 . S
C8 C9 1.387 . S
C8 N11 1.341 . S
C9 C7 1.400 . S
C9 C8 1.387 . S
N10 Co1 2.022 . S
N10 C7 1.351 . S
N10 N11 1.365 . S
N11 C8 1.341 . S
N11 N10 1.365 . S
N11 H31 0.862 . S
C12 C7 1.501 . S
C12 H13 0.961 . S
C12 H14 0.961 . S
C12 H15 0.960 . S
H13 C12 0.961 . S
H14 C12 0.961 . S
H15 C12 0.960 . S
C16 N17 1.342 . S
C16 C20 1.401 . S
C16 C21 1.499 . S
N17 Co0 1.989 . S
N17 C16 1.342 . S
N17 N18 1.388 . S
N18 Co1 1.993 . S
N18 N17 1.388 . S
N18 C19 1.346 . S
C19 N18 1.346 . S
C19 C20 1.396 . S
C19 C29 1.510 . S
C20 C16 1.401 . S
C20 C19 1.396 . S
C21 C16 1.499 . S
C21 H22 0.959 . S
C21 H23 0.960 . S
C21 H24 0.961 . S
H22 C21 0.959 . S
H23 C21 0.960 . S
H24 C21 0.961 . S
O25 Co0 1.967 . S
O25 C33 1.258 . S
O26 Co1 1.941 . S
O26 C33 1.266 . S
H27 C29 0.959 . S
H28 C29 0.961 . S
C29 C19 1.510 . S
C29 H27 0.959 . S
C29 H28 0.961 . S
C29 H30 0.960 . S
H30 C29 0.960 . S
H31 N11 0.862 . S
O32 Co0 1.920 . S
O32 C5 1.289 . S
C33 O25 1.258 . S
C33 O26 1.266 . S
Co34 O37 1.970 . S
Co34 N51 1.989 . S
Co34 O59 1.967 . S
Co34 O66 1.920 . S
Co35 O38 1.966 . S
Co35 N44 2.022 1_556 S
Co35 N52 1.993 . S
Co35 O60 1.941 . S
C36 O37 1.258 . S
C36 O38 1.263 . S
O37 Co34 1.970 . S
O37 C36 1.258 . S
O38 Co35 1.966 . S
O38 C36 1.263 . S
C39 O40 1.235 . S
C39 O66 1.289 . S
O40 C39 1.235 . S
C41 C43 1.400 . S
C41 N44 1.351 . S
C41 C46 1.501 . S
C42 C43 1.387 . S
C42 N45 1.341 . S
C43 C41 1.400 . S
C43 C42 1.387 . S
N44 Co35 2.022 1_554 S
N44 C41 1.351 . S
N44 N45 1.365 . S
N45 C42 1.341 . S
N45 N44 1.365 . S
N45 H65 0.862 . S
C46 C41 1.501 . S
C46 H47 0.961 . S
C46 H48 0.961 . S
C46 H49 0.960 . S
H47 C46 0.961 . S
H48 C46 0.961 . S
H49 C46 0.960 . S
C50 N51 1.342 . S
C50 C54 1.401 . S
C50 C55 1.499 . S
N51 Co34 1.989 . S
N51 C50 1.342 . S
N51 N52 1.388 . S
N52 Co35 1.993 . S
N52 N51 1.388 . S
N52 C53 1.346 . S
C53 N52 1.346 . S
C53 C54 1.396 . S
C53 C63 1.510 1_556 S
C54 C50 1.401 . S
C54 C53 1.396 . S
C55 C50 1.499 . S
C55 H56 0.959 . S
C55 H57 0.960 . S
C55 H58 0.961 . S
H56 C55 0.959 . S
H57 C55 0.960 . S
H58 C55 0.961 . S
O59 Co34 1.967 . S
O59 C67 1.258 . S
O60 Co35 1.941 . S
O60 C67 1.266 . S
H61 C63 0.959 . S
H62 C63 0.961 . S
C63 C53 1.510 1_554 S
C63 H61 0.959 . S
C63 H62 0.961 . S
C63 H64 0.960 . S
H64 C63 0.960 . S
H65 N45 0.862 . S
O66 Co34 1.920 . S
O66 C39 1.289 . S
C67 O59 1.258 . S
C67 O60 1.266 . S
Co68 O71 1.970 . S
Co68 N85 1.989 . S
Co68 O93 1.967 . S
Co68 O100 1.920 . S
Co69 O72 1.966 . S
Co69 N78 2.022 . S
Co69 N86 1.993 . S
Co69 O94 1.941 . S
C70 O71 1.258 . S
C70 O72 1.263 . S
O71 Co68 1.970 . S
O71 C70 1.258 . S
O72 Co69 1.966 . S
O72 C70 1.263 . S
C73 O74 1.235 . S
C73 O100 1.289 . S
O74 C73 1.235 . S
C75 C77 1.400 . S
C75 N78 1.351 . S
C75 C80 1.501 . S
C76 C77 1.387 . S
C76 N79 1.341 . S
C77 C75 1.400 . S
C77 C76 1.387 . S
N78 Co69 2.022 . S
N78 C75 1.351 . S
N78 N79 1.365 . S
N79 C76 1.341 . S
N79 N78 1.365 . S
N79 H99 0.862 . S
C80 C75 1.501 . S
C80 H81 0.961 . S
C80 H82 0.961 . S
C80 H83 0.960 . S
H81 C80 0.961 . S
H82 C80 0.961 . S
H83 C80 0.960 . S
C84 N85 1.342 . S
C84 C88 1.401 . S
C84 C89 1.499 . S
N85 Co68 1.989 . S
N85 C84 1.342 . S
N85 N86 1.388 . S
N86 Co69 1.993 . S
N86 N85 1.388 . S
N86 C87 1.346 . S
C87 N86 1.346 . S
C87 C88 1.396 . S
C87 C97 1.510 . S
C88 C84 1.401 . S
C88 C87 1.396 . S
C89 C84 1.499 . S
C89 H90 0.959 . S
C89 H91 0.960 . S
C89 H92 0.961 . S
H90 C89 0.959 . S
H91 C89 0.960 . S
H92 C89 0.961 . S
O93 Co68 1.967 . S
O93 C101 1.258 . S
O94 Co69 1.941 . S
O94 C101 1.266 . S
H95 C97 0.959 . S
H96 C97 0.961 . S
C97 C87 1.510 . S
C97 H95 0.959 . S
C97 H96 0.961 . S
C97 H98 0.960 . S
H98 C97 0.960 . S
H99 N79 0.862 . S
O100 Co68 1.920 . S
O100 C73 1.289 . S
C101 O93 1.258 . S
C101 O94 1.266 . S
Co102 O105 1.970 . S
Co102 N119 1.989 . S
Co102 O127 1.967 . S
Co102 O134 1.920 . S
Co103 O106 1.966 . S
Co103 N112 2.022 1_556 S
Co103 N120 1.993 . S
Co103 O128 1.941 . S
C104 O105 1.258 . S
C104 O106 1.263 . S
O105 Co102 1.970 . S
O105 C104 1.258 . S
O106 Co103 1.966 . S
O106 C104 1.263 . S
C107 O108 1.235 . S
C107 O134 1.289 . S
O108 C107 1.235 . S
C109 C111 1.400 . S
C109 N112 1.351 . S
C109 C114 1.501 . S
C110 C111 1.387 . S
C110 N113 1.341 . S
C111 C109 1.400 . S
C111 C110 1.387 . S
N112 Co103 2.022 1_554 S
N112 C109 1.351 . S
N112 N113 1.365 . S
N113 C110 1.341 . S
N113 N112 1.365 . S
N113 H133 0.862 . S
C114 C109 1.501 . S
C114 H115 0.961 . S
C114 H116 0.961 . S
C114 H117 0.960 . S
H115 C114 0.961 . S
H116 C114 0.961 . S
H117 C114 0.960 . S
C118 N119 1.342 . S
C118 C122 1.401 . S
C118 C123 1.499 . S
N119 Co102 1.989 . S
N119 C118 1.342 . S
N119 N120 1.388 . S
N120 Co103 1.993 . S
N120 N119 1.388 . S
N120 C121 1.346 . S
C121 N120 1.346 . S
C121 C122 1.396 . S
C121 C131 1.510 1_556 S
C122 C118 1.401 . S
C122 C121 1.396 . S
C123 C118 1.499 . S
C123 H124 0.959 . S
C123 H125 0.960 . S
C123 H126 0.961 . S
H124 C123 0.959 . S
H125 C123 0.960 . S
H126 C123 0.961 . S
O127 Co102 1.967 . S
O127 C135 1.258 . S
O128 Co103 1.941 . S
O128 C135 1.266 . S
H129 C131 0.959 . S
H130 C131 0.961 . S
C131 C121 1.510 1_554 S
C131 H129 0.959 . S
C131 H130 0.961 . S
C131 H132 0.960 . S
H132 C131 0.960 . S
H133 N113 0.862 . S
O134 Co102 1.920 . S
O134 C107 1.289 . S
C135 O127 1.258 . S
C135 O128 1.266 . S
Co136 O139 1.970 . S
Co136 N153 1.989 . S
Co136 O161 1.967 . S
Co136 O168 1.920 . S
Co137 O140 1.966 . S
Co137 N146 2.022 1_554 S
Co137 N154 1.993 . S
Co137 O162 1.941 . S
C138 O139 1.258 . S
C138 O140 1.263 . S
O139 Co136 1.970 . S
O139 C138 1.258 . S
O140 Co137 1.966 . S
O140 C138 1.263 . S
C141 O142 1.235 . S
C141 O168 1.289 . S
O142 C141 1.235 . S
C143 C145 1.400 . S
C143 N146 1.351 . S
C143 C148 1.501 . S
C144 C145 1.387 . S
C144 N147 1.341 . S
C145 C143 1.400 . S
C145 C144 1.387 . S
N146 Co137 2.022 1_556 S
N146 C143 1.351 . S
N146 N147 1.365 . S
N147 C144 1.341 . S
N147 N146 1.365 . S
N147 H167 0.862 . S
C148 C143 1.501 . S
C148 H149 0.961 . S
C148 H150 0.961 . S
C148 H151 0.960 . S
H149 C148 0.961 . S
H150 C148 0.961 . S
H151 C148 0.960 . S
C152 N153 1.342 . S
C152 C156 1.401 . S
C152 C157 1.499 . S
N153 Co136 1.989 . S
N153 C152 1.342 . S
N153 N154 1.388 . S
N154 Co137 1.993 . S
N154 N153 1.388 . S
N154 C155 1.346 . S
C155 N154 1.346 . S
C155 C156 1.396 . S
C155 C165 1.510 1_554 S
C156 C152 1.401 . S
C156 C155 1.396 . S
C157 C152 1.499 . S
C157 H158 0.959 . S
C157 H159 0.960 . S
C157 H160 0.961 . S
H158 C157 0.959 . S
H159 C157 0.960 . S
H160 C157 0.961 . S
O161 Co136 1.967 . S
O161 C169 1.258 . S
O162 Co137 1.941 . S
O162 C169 1.266 . S
H163 C165 0.959 . S
H164 C165 0.961 . S
C165 C155 1.510 1_556 S
C165 H163 0.959 . S
C165 H164 0.961 . S
C165 H166 0.960 . S
H166 C165 0.960 . S
H167 N147 0.862 . S
O168 Co136 1.920 . S
O168 C141 1.289 . S
C169 O161 1.258 . S
C169 O162 1.266 . S
Co170 O173 1.970 . S
Co170 N187 1.989 . S
Co170 O195 1.967 . S
Co170 O202 1.920 . S
Co171 O174 1.966 . S
Co171 N180 2.022 . S
Co171 N188 1.993 . S
Co171 O196 1.941 . S
C172 O173 1.258 . S
C172 O174 1.263 . S
O173 Co170 1.970 . S
O173 C172 1.258 . S
O174 Co171 1.966 . S
O174 C172 1.263 . S
C175 O176 1.235 . S
C175 O202 1.289 . S
O176 C175 1.235 . S
C177 C179 1.400 . S
C177 N180 1.351 . S
C177 C182 1.501 . S
C178 C179 1.387 . S
C178 N181 1.341 . S
C179 C177 1.400 . S
C179 C178 1.387 . S
N180 Co171 2.022 . S
N180 C177 1.351 . S
N180 N181 1.365 . S
N181 C178 1.341 . S
N181 N180 1.365 . S
N181 H201 0.862 . S
C182 C177 1.501 . S
C182 H183 0.961 . S
C182 H184 0.961 . S
C182 H185 0.960 . S
H183 C182 0.961 . S
H184 C182 0.961 . S
H185 C182 0.960 . S
C186 N187 1.342 . S
C186 C190 1.401 . S
C186 C191 1.499 . S
N187 Co170 1.989 . S
N187 C186 1.342 . S
N187 N188 1.388 . S
N188 Co171 1.993 . S
N188 N187 1.388 . S
N188 C189 1.346 . S
C189 N188 1.346 . S
C189 C190 1.396 . S
C189 C199 1.510 . S
C190 C186 1.401 . S
C190 C189 1.396 . S
C191 C186 1.499 . S
C191 H192 0.959 . S
C191 H193 0.960 . S
C191 H194 0.961 . S
H192 C191 0.959 . S
H193 C191 0.960 . S
H194 C191 0.961 . S
O195 Co170 1.967 . S
O195 C203 1.258 . S
O196 Co171 1.941 . S
O196 C203 1.266 . S
H197 C199 0.959 . S
H198 C199 0.961 . S
C199 C189 1.510 . S
C199 H197 0.959 . S
C199 H198 0.961 . S
C199 H200 0.960 . S
H200 C199 0.960 . S
H201 N181 0.862 . S
O202 Co170 1.920 . S
O202 C175 1.289 . S
C203 O195 1.258 . S
C203 O196 1.266 . S
Co204 O207 1.970 . S
Co204 N221 1.989 . S
Co204 O229 1.967 . S
Co204 O236 1.920 . S
Co205 O208 1.966 . S
Co205 N214 2.022 1_554 S
Co205 N222 1.993 . S
Co205 O230 1.941 . S
C206 O207 1.258 . S
C206 O208 1.263 . S
O207 Co204 1.970 . S
O207 C206 1.258 . S
O208 Co205 1.966 . S
O208 C206 1.263 . S
C209 O210 1.235 . S
C209 O236 1.289 . S
O210 C209 1.235 . S
C211 C213 1.400 . S
C211 N214 1.351 . S
C211 C216 1.501 . S
C212 C213 1.387 . S
C212 N215 1.341 . S
C213 C211 1.400 . S
C213 C212 1.387 . S
N214 Co205 2.022 1_556 S
N214 C211 1.351 . S
N214 N215 1.365 . S
N215 C212 1.341 . S
N215 N214 1.365 . S
N215 H235 0.862 . S
C216 C211 1.501 . S
C216 H217 0.961 . S
C216 H218 0.961 . S
C216 H219 0.960 . S
H217 C216 0.961 . S
H218 C216 0.961 . S
H219 C216 0.960 . S
C220 N221 1.342 . S
C220 C224 1.401 . S
C220 C225 1.499 . S
N221 Co204 1.989 . S
N221 C220 1.342 . S
N221 N222 1.388 . S
N222 Co205 1.993 . S
N222 N221 1.388 . S
N222 C223 1.346 . S
C223 N222 1.346 . S
C223 C224 1.396 . S
C223 C233 1.510 1_554 S
C224 C220 1.401 . S
C224 C223 1.396 . S
C225 C220 1.499 . S
C225 H226 0.959 . S
C225 H227 0.960 . S
C225 H228 0.961 . S
H226 C225 0.959 . S
H227 C225 0.960 . S
H228 C225 0.961 . S
O229 Co204 1.967 . S
O229 C237 1.258 . S
O230 Co205 1.941 . S
O230 C237 1.266 . S
H231 C233 0.959 . S
H232 C233 0.961 . S
C233 C223 1.510 1_556 S
C233 H231 0.959 . S
C233 H232 0.961 . S
C233 H234 0.960 . S
H234 C233 0.960 . S
H235 N215 0.862 . S
O236 Co204 1.920 . S
O236 C209 1.289 . S
C237 O229 1.258 . S
C237 O230 1.266 . S
Co238 O241 1.970 . S
Co238 N255 1.989 . S
Co238 O263 1.967 . S
Co238 O270 1.920 . S
Co239 O242 1.966 . S
Co239 N248 2.022 . S
Co239 N256 1.993 . S
Co239 O264 1.941 . S
C240 O241 1.258 . S
C240 O242 1.263 . S
O241 Co238 1.970 . S
O241 C240 1.258 . S
O242 Co239 1.966 . S
O242 C240 1.263 . S
C243 O244 1.235 . S
C243 O270 1.289 . S
O244 C243 1.235 . S
C245 C247 1.400 . S
C245 N248 1.351 . S
C245 C250 1.501 . S
C246 C247 1.387 . S
C246 N249 1.341 . S
C247 C245 1.400 . S
C247 C246 1.387 . S
N248 Co239 2.022 . S
N248 C245 1.351 . S
N248 N249 1.365 . S
N249 C246 1.341 . S
N249 N248 1.365 . S
N249 H269 0.862 . S
C250 C245 1.501 . S
C250 H251 0.961 . S
C250 H252 0.961 . S
C250 H253 0.960 . S
H251 C250 0.961 . S
H252 C250 0.961 . S
H253 C250 0.960 . S
C254 N255 1.342 . S
C254 C258 1.401 . S
C254 C259 1.499 . S
N255 Co238 1.989 . S
N255 C254 1.342 . S
N255 N256 1.388 . S
N256 Co239 1.993 . S
N256 N255 1.388 . S
N256 C257 1.346 . S
C257 N256 1.346 . S
C257 C258 1.396 . S
C257 C267 1.510 . S
C258 C254 1.401 . S
C258 C257 1.396 . S
C259 C254 1.499 . S
C259 H260 0.959 . S
C259 H261 0.960 . S
C259 H262 0.961 . S
H260 C259 0.959 . S
H261 C259 0.960 . S
H262 C259 0.961 . S
O263 Co238 1.967 . S
O263 C271 1.258 . S
O264 Co239 1.941 . S
O264 C271 1.266 . S
H265 C267 0.959 . S
H266 C267 0.961 . S
C267 C257 1.510 . S
C267 H265 0.959 . S
C267 H266 0.961 . S
C267 H268 0.960 . S
H268 C267 0.960 . S
H269 N249 0.862 . S
O270 Co238 1.920 . S
O270 C243 1.289 . S
C271 O263 1.258 . S
C271 O264 1.266 . S
C272 C273 1.369 . S
C272 C274 1.419 1_565 S
C272 H276 0.930 . S
C273 C272 1.369 . S
C273 C282 1.429 1_565 S
C274 C272 1.419 1_545 S
C274 C275 1.361 . S
C274 H277 0.930 1_545 S
C275 C274 1.361 . S
C275 C281 1.428 . S
H276 C272 0.930 . S
H277 C274 0.930 1_565 S
S278 N279 1.613 . S
S278 N280 1.610 . S
N279 S278 1.613 . S
N279 C282 1.350 . S
N280 S278 1.610 . S
N280 C281 1.351 . S
C281 C275 1.428 . S
C281 N280 1.351 . S
C281 C282 1.434 . S
C282 C273 1.429 1_545 S
C282 N279 1.350 . S
C282 C281 1.434 . S
C283 C284 1.369 . S
C283 C285 1.419 1_554 S
C283 H287 0.930 . S
C284 C283 1.369 . S
C284 C293 1.429 . S
C285 C283 1.419 1_556 S
C285 C286 1.363 . S
C285 H288 0.929 . S
C286 C285 1.363 . S
C286 C292 1.428 . S
H287 C283 0.930 . S
H288 C285 0.929 . S
S289 N290 1.613 . S
S289 N291 1.610 1_554 S
N290 S289 1.613 . S
N290 C293 1.350 . S
N291 S289 1.610 1_556 S
N291 C292 1.351 . S
C292 C286 1.428 . S
C292 N291 1.351 . S
C292 C293 1.434 1_556 S
C293 C284 1.429 . S
C293 N290 1.350 . S
C293 C292 1.434 1_554 S
C294 C295 1.369 1_455 S
C294 C296 1.419 . S
C294 H298 0.930 . S
C295 C294 1.369 1_655 S
C295 C304 1.429 . S
C296 C294 1.419 . S
C296 C297 1.363 . S
C296 H299 0.929 . S
C297 C296 1.363 . S
C297 C303 1.428 . S
H298 C294 0.930 . S
H299 C296 0.929 . S
S300 N301 1.613 . S
S300 N302 1.610 . S
N301 S300 1.613 . S
N301 C304 1.350 . S
N302 S300 1.610 . S
N302 C303 1.351 1_655 S
C303 C297 1.428 . S
C303 N302 1.351 1_455 S
C303 C304 1.434 1_455 S
C304 C295 1.429 . S
C304 N301 1.350 . S
C304 C303 1.434 1_655 S
C305 C306 1.369 1_456 S
C305 C307 1.419 . S
C305 H309 0.930 . S
C306 C305 1.369 1_654 S
C306 C315 1.429 1_645 S
C307 C305 1.419 . S
C307 C308 1.363 1_545 S
C307 H310 0.929 . S
C308 C307 1.363 1_565 S
C308 C314 1.428 1_556 S
H309 C305 0.930 . S
H310 C307 0.929 . S
S311 N312 1.613 1_455 S
S311 N313 1.610 . S
N312 S311 1.613 1_655 S
N312 C315 1.350 1_655 S
N313 S311 1.610 . S
N313 C314 1.351 . S
C314 C308 1.428 1_554 S
C314 N313 1.351 . S
C314 C315 1.434 . S
C315 C306 1.429 1_465 S
C315 N312 1.350 1_455 S
C315 C314 1.434 . S
C316 C317 1.369 . S
C316 C318 1.419 . S
C316 H320 0.930 . S
C317 C316 1.369 . S
C317 C326 1.429 . S
C318 C316 1.419 . S
C318 C319 1.363 . S
C318 H321 0.929 . S
C319 C318 1.363 . S
C319 C325 1.428 . S
H320 C316 0.930 . S
H321 C318 0.929 . S
S322 N323 1.613 . S
S322 N324 1.610 . S
N323 S322 1.613 . S
N323 C326 1.350 . S
N324 S322 1.610 . S
N324 C325 1.351 . S
C325 C319 1.428 . S
C325 N324 1.351 . S
C325 C326 1.434 . S
C326 C317 1.429 . S
C326 N323 1.350 . S
C326 C325 1.434 . S
C327 C328 1.369 . S
C327 C329 1.419 . S
C327 H331 0.930 . S
C328 C327 1.369 . S
C328 C337 1.429 . S
C329 C327 1.419 . S
C329 C330 1.363 . S
C329 H332 0.929 . S
C330 C329 1.363 . S
C330 C336 1.428 . S
H331 C327 0.930 . S
H332 C329 0.929 . S
S333 N334 1.613 . S
S333 N335 1.610 . S
N334 S333 1.613 . S
N334 C337 1.350 . S
N335 S333 1.610 . S
N335 C336 1.351 . S
C336 C330 1.428 . S
C336 N335 1.351 . S
C336 C337 1.434 . S
C337 C328 1.429 . S
C337 N334 1.350 . S
C337 C336 1.434 . S
C338 C339 1.369 . S
C338 C340 1.419 . S
C338 H342 0.930 . S
C339 C338 1.369 . S
C339 C348 1.429 . S
C340 C338 1.419 . S
C340 C341 1.363 . S
C340 H343 0.929 . S
C341 C340 1.363 . S
C341 C347 1.428 . S
H342 C338 0.930 . S
H343 C340 0.929 . S
S344 N345 1.613 . S
S344 N346 1.610 . S
N345 S344 1.613 . S
N345 C348 1.350 . S
N346 S344 1.610 . S
N346 C347 1.351 . S
C347 C341 1.428 . S
C347 N346 1.351 . S
C347 C348 1.434 . S
C348 C339 1.429 . S
C348 N345 1.350 . S
C348 C347 1.434 . S
C349 C350 1.369 . S
C349 C351 1.419 . S
C349 H353 0.930 . S
C350 C349 1.369 . S
C350 C359 1.429 . S
C351 C349 1.419 . S
C351 C352 1.363 . S
C351 H354 0.929 . S
C352 C351 1.363 . S
C352 C358 1.428 . S
H353 C349 0.930 . S
H354 C351 0.929 . S
S355 N356 1.613 . S
S355 N357 1.610 . S
N356 S355 1.613 . S
N356 C359 1.350 . S
N357 S355 1.610 . S
N357 C358 1.351 . S
C358 C352 1.428 . S
C358 N357 1.351 . S
C358 C359 1.434 . S
C359 C350 1.429 . S
C359 N356 1.350 . S
C359 C358 1.434 . S
C360 C361 1.369 . S
C360 C362 1.419 . S
C360 H364 0.930 . S
C361 C360 1.369 . S
C361 C370 1.429 . S
C362 C360 1.419 . S
C362 C363 1.363 . S
C362 H365 0.929 . S
C363 C362 1.363 . S
C363 C369 1.428 . S
H364 C360 0.930 . S
H365 C362 0.929 . S
S366 N367 1.613 . S
S366 N368 1.610 . S
N367 S366 1.613 . S
N367 C370 1.350 . S
N368 S366 1.610 . S
N368 C369 1.351 . S
C369 C363 1.428 . S
C369 N368 1.351 . S
C369 C370 1.434 . S
C370 C361 1.429 . S
C370 N367 1.350 . S
C370 C369 1.434 . S
C371 C372 1.369 . S
C371 C373 1.419 . S
C371 H375 0.930 . S
C372 C371 1.369 . S
C372 C381 1.429 . S
C373 C371 1.419 . S
C373 C374 1.363 . S
C373 H376 0.929 . S
C374 C373 1.363 . S
C374 C380 1.428 . S
H375 C371 0.930 . S
H376 C373 0.929 . S
S377 N378 1.613 . S
S377 N379 1.610 . S
N378 S377 1.613 . S
N378 C381 1.350 . S
N379 S377 1.610 . S
N379 C380 1.351 . S
C380 C374 1.428 . S
C380 N379 1.351 . S
C380 C381 1.434 . S
C381 C372 1.429 . S
C381 N378 1.350 . S
C381 C380 1.434 . S
C382 C383 1.369 . S
C382 C384 1.419 . S
C382 H386 0.930 . S
C383 C382 1.369 . S
C383 C392 1.429 . S
C384 C382 1.419 . S
C384 C385 1.363 . S
C384 H387 0.929 . S
C385 C384 1.363 . S
C385 C391 1.428 . S
H386 C382 0.930 . S
H387 C384 0.929 . S
S388 N389 1.613 . S
S388 N390 1.610 . S
N389 S388 1.613 . S
N389 C392 1.350 . S
N390 S388 1.610 . S
N390 C391 1.351 . S
C391 C385 1.428 . S
C391 N390 1.351 . S
C391 C392 1.434 . S
C392 C383 1.429 . S
C392 N389 1.350 . S
C392 C391 1.434 . S
C393 C394 1.369 . S
C393 C395 1.419 . S
C393 H397 0.930 . S
C394 C393 1.369 . S
C394 C403 1.429 . S
C395 C393 1.419 . S
C395 C396 1.363 . S
C395 H398 0.929 . S
C396 C395 1.363 . S
C396 C402 1.428 . S
H397 C393 0.930 . S
H398 C395 0.929 . S
S399 N400 1.613 . S
S399 N401 1.610 . S
N400 S399 1.613 . S
N400 C403 1.350 . S
N401 S399 1.610 . S
N401 C402 1.351 . S
C402 C396 1.428 . S
C402 N401 1.351 . S
C402 C403 1.434 . S
C403 C394 1.429 . S
C403 N400 1.350 . S
C403 C402 1.434 . S
C404 C405 1.369 . S
C404 C406 1.419 . S
C404 H408 0.930 . S
C405 C404 1.369 . S
C405 C414 1.429 . S
C406 C404 1.419 . S
C406 C407 1.363 . S
C406 H409 0.929 . S
C407 C406 1.363 . S
C407 C413 1.428 . S
H408 C404 0.930 . S
H409 C406 0.929 . S
S410 N411 1.613 . S
S410 N412 1.610 . S
N411 S410 1.613 . S
N411 C414 1.350 . S
N412 S410 1.610 . S
N412 C413 1.351 . S
C413 C407 1.428 . S
C413 N412 1.351 . S
C413 C414 1.434 . S
C414 C405 1.429 . S
C414 N411 1.350 . S
C414 C413 1.434 . S
C415 C416 1.369 . S
C415 C417 1.419 . S
C415 H419 0.930 . S
C416 C415 1.369 . S
C416 C425 1.429 . S
C417 C415 1.419 . S
C417 C418 1.363 . S
C417 H420 0.929 . S
C418 C417 1.363 . S
C418 C424 1.428 . S
H419 C415 0.930 . S
H420 C417 0.929 . S
S421 N422 1.613 . S
S421 N423 1.610 . S
N422 S421 1.613 . S
N422 C425 1.350 . S
N423 S421 1.610 . S
N423 C424 1.351 . S
C424 C418 1.428 . S
C424 N423 1.351 . S
C424 C425 1.434 . S
C425 C416 1.429 . S
C425 N422 1.350 . S
C425 C424 1.434 . S
C426 C427 1.369 . S
C426 C428 1.419 . S
C426 H430 0.930 1_556 S
C427 C426 1.369 . S
C427 C436 1.429 . S
C428 C426 1.419 . S
C428 C429 1.363 . S
C428 H431 0.929 . S
C429 C428 1.363 . S
C429 C435 1.428 . S
H430 C426 0.930 1_554 S
H431 C428 0.929 . S
S432 N433 1.613 . S
S432 N434 1.610 . S
N433 S432 1.613 . S
N433 C436 1.350 . S
N434 S432 1.610 . S
N434 C435 1.351 . S
C435 C429 1.428 . S
C435 N434 1.351 . S
C435 C436 1.434 . S
C436 C427 1.429 . S
C436 N433 1.350 . S
C436 C435 1.434 . S
C437 C438 1.369 . S
C437 C439 1.419 . S
C437 H441 0.930 . S
C438 C437 1.369 . S
C438 C447 1.429 . S
C439 C437 1.419 . S
C439 C440 1.363 . S
C439 H442 0.929 . S
C440 C439 1.363 . S
C440 C446 1.428 . S
H441 C437 0.930 . S
H442 C439 0.929 . S
S443 N444 1.613 . S
S443 N445 1.610 . S
N444 S443 1.613 . S
N444 C447 1.350 . S
N445 S443 1.610 . S
N445 C446 1.351 . S
C446 C440 1.428 . S
C446 N445 1.351 . S
C446 C447 1.434 . S
C447 C438 1.429 . S
C447 N444 1.350 . S
C447 C446 1.434 . S
C448 C449 1.369 . S
C448 C450 1.419 . S
C448 H452 0.930 . S
C449 C448 1.369 . S
C449 C458 1.429 . S
C450 C448 1.419 . S
C450 C451 1.363 . S
C450 H453 0.929 . S
C451 C450 1.363 . S
C451 C457 1.428 . S
H452 C448 0.930 . S
H453 C450 0.929 . S
S454 N455 1.613 . S
S454 N456 1.610 . S
N455 S454 1.613 . S
N455 C458 1.350 . S
N456 S454 1.610 . S
N456 C457 1.351 . S
C457 C451 1.428 . S
C457 N456 1.351 . S
C457 C458 1.434 . S
C458 C449 1.429 . S
C458 N455 1.350 . S
C458 C457 1.434 . S
C459 C460 1.369 . S
C459 C461 1.419 . S
C459 H463 0.930 . S
C460 C459 1.369 . S
C460 C469 1.429 . S
C461 C459 1.419 . S
C461 C462 1.363 . S
C461 H464 0.929 . S
C462 C461 1.363 . S
C462 C468 1.428 . S
H463 C459 0.930 . S
H464 C461 0.929 . S
S465 N466 1.613 . S
S465 N467 1.610 . S
N466 S465 1.613 . S
N466 C469 1.350 . S
N467 S465 1.610 . S
N467 C468 1.351 . S
C468 C462 1.428 . S
C468 N467 1.351 . S
C468 C469 1.434 . S
C469 C460 1.429 . S
C469 N466 1.350 . S
C469 C468 1.434 . S
C470 C471 1.369 . S
C470 C472 1.419 . S
C470 H474 0.930 . S
C471 C470 1.369 . S
C471 C480 1.429 . S
C472 C470 1.419 . S
C472 C473 1.363 . S
C472 H475 0.929 . S
C473 C472 1.363 . S
C473 C479 1.428 . S
H474 C470 0.930 . S
H475 C472 0.929 . S
S476 N477 1.613 . S
S476 N478 1.610 . S
N477 S476 1.613 . S
N477 C480 1.350 . S
N478 S476 1.610 . S
N478 C479 1.351 . S
C479 C473 1.428 . S
C479 N478 1.351 . S
C479 C480 1.434 . S
C480 C471 1.429 . S
C480 N477 1.350 . S
C480 C479 1.434 . S
C481 C482 1.369 . S
C481 C483 1.419 . S
C481 H485 0.930 . S
C482 C481 1.369 . S
C482 C491 1.429 . S
C483 C481 1.419 . S
C483 C484 1.363 . S
C483 H486 0.929 . S
C484 C483 1.363 . S
C484 C490 1.428 . S
H485 C481 0.930 . S
H486 C483 0.929 . S
S487 N488 1.613 . S
S487 N489 1.610 . S
N488 S487 1.613 . S
N488 C491 1.350 . S
N489 S487 1.610 . S
N489 C490 1.351 . S
C490 C484 1.428 . S
C490 N489 1.351 . S
C490 C491 1.434 . S
C491 C482 1.429 . S
C491 N488 1.350 . S
C491 C490 1.434 . S
C273 C258 1.630 . S
C275 C20 1.628 . S
C284 C156 1.628 . S
C286 C54 1.625 . S
C295 C88 1.624 . S
C297 C190 1.629 . S
C306 C224 1.630 . S
C308 C122 1.625 . S
C317 C33 1.277 . S
C319 C169 1.280 . S
C328 C203 1.280 . S
C330 C67 1.280 . S
C339 C237 1.277 . S
C341 C101 1.280 . S
C350 C271 1.278 . S
C352 C135 1.280 . S
C361 C240 1.643 . S
C363 C36 1.648 . S
C372 C70 1.649 . S
C374 C138 1.645 . S
C383 C104 1.647 . S
C385 C172 1.646 . S
C394 C206 1.643 . S
C396 C2 1.648 . S
C405 C9 1.259 . S
C407 C5 1.327 1_556 S
C416 C39 1.321 . S
C418 C43 1.269 . S
C427 C73 1.329 1_556 S
C429 C77 1.266 . S
C438 C111 1.262 . S
C440 C107 1.326 . S
C449 C141 1.332 . S
C451 C145 1.259 . S
C460 C175 1.332 1_554 S
C462 C179 1.259 . S
C471 C209 1.329 . S
C473 C213 1.266 . S
C482 C247 1.267 . S
C484 C243 1.328 1_554 S
