# Generated by pormake.
# Topology upb, (4)-cn, num edge types: 1
# Building blocks:
#     Node 0, Type 0, BuildingBlock: ICAMEG_clean_sbu_1, # of connection points: 4
#     Node 1, Type 0, BuildingBlock: ICAMEG_clean_sbu_1, # of connection points: 4
#     Node 2, Type 0, BuildingBlock: ICAMEG_clean_sbu_1, # of connection points: 4
#     Node 3, Type 0, BuildingBlock: ICAMEG_clean_sbu_1, # of connection points: 4
#     Node 4, Type 0, BuildingBlock: ICAMEG_clean_sbu_1, # of connection points: 4
#     Node 5, Type 0, BuildingBlock: ICAMEG_clean_sbu_1, # of connection points: 4
#     Node 6, Type 0, BuildingBlock: ICAMEG_clean_sbu_1, # of connection points: 4
#     Node 7, Type 0, BuildingBlock: ICAMEG_clean_sbu_1, # of connection points: 4
#     Node 8, Type 0, BuildingBlock: ICAMEG_clean_sbu_1, # of connection points: 4
#     Node 9, Type 0, BuildingBlock: ICAMEG_clean_sbu_1, # of connection points: 4
#     Node 10, Type 0, BuildingBlock: ICAMEG_clean_sbu_1, # of connection points: 4
#     Node 11, Type 0, BuildingBlock: ICAMEG_clean_sbu_1, # of connection points: 4
#     Node 12, Type 0, BuildingBlock: ICAMEG_clean_sbu_1, # of connection points: 4
#     Node 13, Type 0, BuildingBlock: ICAMEG_clean_sbu_1, # of connection points: 4
#     Node 14, Type 0, BuildingBlock: ICAMEG_clean_sbu_1, # of connection points: 4
#     Node 15, Type 0, BuildingBlock: ICAMEG_clean_sbu_1, # of connection points: 4
#     Edge 16, Type (0, 0), BuildingBlock: XIVTED_clean_linker_0, # of connection points: 2
#     Edge 17, Type (0, 0), BuildingBlock: XIVTED_clean_linker_0, # of connection points: 2
#     Edge 18, Type (0, 0), BuildingBlock: XIVTED_clean_linker_0, # of connection points: 2
#     Edge 19, Type (0, 0), BuildingBlock: XIVTED_clean_linker_0, # of connection points: 2
#     Edge 20, Type (0, 0), BuildingBlock: XIVTED_clean_linker_0, # of connection points: 2
#     Edge 21, Type (0, 0), BuildingBlock: XIVTED_clean_linker_0, # of connection points: 2
#     Edge 22, Type (0, 0), BuildingBlock: XIVTED_clean_linker_0, # of connection points: 2
#     Edge 23, Type (0, 0), BuildingBlock: XIVTED_clean_linker_0, # of connection points: 2
#     Edge 24, Type (0, 0), BuildingBlock: XIVTED_clean_linker_0, # of connection points: 2
#     Edge 25, Type (0, 0), BuildingBlock: XIVTED_clean_linker_0, # of connection points: 2
#     Edge 26, Type (0, 0), BuildingBlock: XIVTED_clean_linker_0, # of connection points: 2
#     Edge 27, Type (0, 0), BuildingBlock: XIVTED_clean_linker_0, # of connection points: 2
#     Edge 28, Type (0, 0), BuildingBlock: XIVTED_clean_linker_0, # of connection points: 2
#     Edge 29, Type (0, 0), BuildingBlock: XIVTED_clean_linker_0, # of connection points: 2
#     Edge 30, Type (0, 0), BuildingBlock: XIVTED_clean_linker_0, # of connection points: 2
#     Edge 31, Type (0, 0), BuildingBlock: XIVTED_clean_linker_0, # of connection points: 2
#     Edge 32, Type (0, 0), BuildingBlock: XIVTED_clean_linker_0, # of connection points: 2
#     Edge 33, Type (0, 0), BuildingBlock: XIVTED_clean_linker_0, # of connection points: 2
#     Edge 34, Type (0, 0), BuildingBlock: XIVTED_clean_linker_0, # of connection points: 2
#     Edge 35, Type (0, 0), BuildingBlock: XIVTED_clean_linker_0, # of connection points: 2
#     Edge 36, Type (0, 0), BuildingBlock: XIVTED_clean_linker_0, # of connection points: 2
#     Edge 37, Type (0, 0), BuildingBlock: XIVTED_clean_linker_0, # of connection points: 2
#     Edge 38, Type (0, 0), BuildingBlock: XIVTED_clean_linker_0, # of connection points: 2
#     Edge 39, Type (0, 0), BuildingBlock: XIVTED_clean_linker_0, # of connection points: 2
#     Edge 40, Type (0, 0), BuildingBlock: XIVTED_clean_linker_0, # of connection points: 2
#     Edge 41, Type (0, 0), BuildingBlock: XIVTED_clean_linker_0, # of connection points: 2
#     Edge 42, Type (0, 0), BuildingBlock: XIVTED_clean_linker_0, # of connection points: 2
#     Edge 43, Type (0, 0), BuildingBlock: XIVTED_clean_linker_0, # of connection points: 2
#     Edge 44, Type (0, 0), BuildingBlock: XIVTED_clean_linker_0, # of connection points: 2
#     Edge 45, Type (0, 0), BuildingBlock: XIVTED_clean_linker_0, # of connection points: 2
#     Edge 46, Type (0, 0), BuildingBlock: XIVTED_clean_linker_0, # of connection points: 2
#     Edge 47, Type (0, 0), BuildingBlock: XIVTED_clean_linker_0, # of connection points: 2
# Relax obj value: 0.189
# Max RMSD: 0.052
# Mean RMSD: 0.052
data_MOF--net-upb--node1-ICAMEG_clean_sbu_1--edge1-XIVTED_clean_linker_0
_symmetry_space_group_name_H-M    P1
_symmetry_Int_Tables_number       1
_symmetry_cell_setting            triclinic
loop_
_symmetry_equiv_pos_as_xyz
'x, y, z'
_cell_length_a     50.08324
_cell_length_b     50.081199
_cell_length_c     24.184017
_cell_angle_alpha  90.020319
_cell_angle_beta   89.96691
_cell_angle_gamma 89.997521
loop_
_atom_site_label
_atom_site_type_symbol
_atom_site_fract_x
_atom_site_fract_y
_atom_site_fract_z
_atom_type_partial_charge
Co0 Co 0.06539 0.18095 0.23759 0.0
Co1 Co 0.03751 0.24192 0.20261 0.0
O2 O 0.06711 0.2161 0.20293 0.0
C3 C 0.08042 0.14855 0.13854 0.0
O4 O 0.0553 0.14675 0.1238 0.0
C5 C 0.08225 0.26985 0.25557 0.0
O6 O 0.08545 0.24818 0.28528 0.0
O7 O 0.03075 0.23703 0.28359 0.0
O8 O 0.04455 0.19533 0.30097 0.0
H9 H 0.94479 0.27471 0.24375 0.0
H10 H 0.11801 0.20282 0.20461 0.0
O11 O 0.08745 0.16517 0.17581 0.0
H12 H 0.12446 0.18782 0.40567 0.0
H13 H 0.1021 0.09172 0.29678 0.0
H14 H 0.02233 0.14938 0.29054 0.0
H15 H 0.08316 0.17665 0.3553 0.0
H16 H 0.10462 0.13691 0.25686 0.0
O17 O 0.06341 0.27125 0.22034 0.0
H18 H 0.98188 0.24227 0.24452 0.0
H19 H 0.03157 0.29737 0.15946 0.0
H20 H 0.019 0.10445 0.33168 0.0
H21 H 0.15984 0.2139 0.25324 0.0
H22 H 0.05906 0.07524 0.33481 0.0
H23 H 0.16321 0.20652 0.35454 0.0
O24 O 0.03145 0.17334 0.19806 0.0
H25 H 0.09465 0.25844 0.03519 0.0
H26 H 0.0028 0.24364 0.10213 0.0
H27 H 0.01082 0.25122 0.00252 0.0
H28 H 0.05692 0.25849 0.96854 0.0
H29 H 0.08581 0.25125 0.13441 0.0
H30 H 0.99512 0.3305 0.15822 0.0
H31 H 0.95131 0.31918 0.20034 0.0
O32 O 0.0112 0.21293 0.18458 0.0
C33 C 0.03347 0.21707 0.31579 0.0
C34 C 0.96376 0.27984 0.2251 0.0
C35 C 0.99202 0.31117 0.17717 0.0
N36 N 0.00876 0.26785 0.20165 0.0
C37 C 0.98479 0.26153 0.22527 0.0
C38 C 0.0126 0.29236 0.17813 0.0
C39 C 0.96744 0.3048 0.20079 0.0
C40 C 0.11943 0.19925 0.24859 0.0
N41 N 0.09819 0.18897 0.27699 0.0
C42 C 0.14313 0.20567 0.27594 0.0
C43 C 0.14498 0.20158 0.3328 0.0
C44 C 0.12324 0.19112 0.36151 0.0
C45 C 0.09986 0.18492 0.33279 0.0
C46 C 0.0845 0.10425 0.29569 0.0
C47 C 0.03989 0.13685 0.29202 0.0
C48 C 0.08578 0.12984 0.27292 0.0
N49 N 0.06363 0.14578 0.27123 0.0
C50 C 0.03787 0.11141 0.31529 0.0
C51 C 0.06035 0.09502 0.31701 0.0
C52 C 0.01168 0.18744 0.182 0.0
C53 C 0.07443 0.25523 0.04952 0.0
C54 C 0.02298 0.24679 0.08761 0.0
C55 C 0.02736 0.25103 0.03121 0.0
C56 C 0.05327 0.25522 0.01213 0.0
N57 N 0.04381 0.24713 0.12411 0.0
C58 C 0.06929 0.25116 0.10567 0.0
Co59 Co 0.81492 0.06396 0.22889 0.0
Co60 Co 0.75065 0.04429 0.19737 0.0
O61 O 0.77995 0.07038 0.19588 0.0
C62 C 0.85226 0.07686 0.1383 0.0
O63 O 0.85926 0.05162 0.13944 0.0
C64 C 0.72834 0.09286 0.2473 0.0
O65 O 0.75027 0.09392 0.27685 0.0
O66 O 0.75482 0.0386 0.27865 0.0
O67 O 0.79873 0.04406 0.29218 0.0
H68 H 0.70618 0.95759 0.24682 0.0
H69 H 0.79951 0.11928 0.19964 0.0
O70 O 0.83234 0.08462 0.16706 0.0
H71 H 0.81646 0.12124 0.40042 0.0
H72 H 0.90791 0.08902 0.29016 0.0
H73 H 0.84158 0.01654 0.27672 0.0
H74 H 0.82222 0.07959 0.34746 0.0
H75 H 0.8634 0.0975 0.25042 0.0
O76 O 0.72478 0.07394 0.21287 0.0
H77 H 0.74312 0.99017 0.24452 0.0
H78 H 0.69502 0.04445 0.15363 0.0
H79 H 0.88582 0.00722 0.31711 0.0
H80 H 0.79394 0.1615 0.25086 0.0
H81 H 0.91936 0.04361 0.32394 0.0
H82 H 0.80231 0.16263 0.35205 0.0
O83 O 0.81795 0.03006 0.18625 0.0
H84 H 0.7424 0.09939 0.0245 0.0
H85 H 0.74501 0.00798 0.10005 0.0
H86 H 0.73988 0.01461 0.9995 0.0
H87 H 0.73873 0.06051 0.9611 0.0
H88 H 0.74729 0.09193 0.12484 0.0
H89 H 0.65747 0.01257 0.15534 0.0
H90 H 0.66298 0.96872 0.20197 0.0
O91 O 0.77598 0.01418 0.18184 0.0
C92 C 0.77556 0.03739 0.30907 0.0
C93 C 0.70357 0.97659 0.22619 0.0
C94 C 0.67622 0.00746 0.17492 0.0
N95 N 0.7213 0.01905 0.19851 0.0
C96 C 0.72444 0.99507 0.2246 0.0
C97 C 0.69752 0.02545 0.17418 0.0
C98 C 0.67933 0.98286 0.20107 0.0
C99 C 0.80352 0.11968 0.24354 0.0
N100 N 0.81126 0.09697 0.27045 0.0
C101 C 0.8002 0.14362 0.27238 0.0
C102 C 0.80484 0.14422 0.32917 0.0
C103 C 0.81274 0.121 0.35634 0.0
C104 C 0.81584 0.09742 0.32616 0.0
C105 C 0.89346 0.073 0.28745 0.0
C106 C 0.85604 0.03249 0.27967 0.0
C107 C 0.86823 0.07767 0.26493 0.0
N108 N 0.84988 0.05752 0.2612 0.0
C109 C 0.88107 0.02709 0.30255 0.0
C110 C 0.89987 0.04752 0.30637 0.0
C111 C 0.80113 0.01178 0.17448 0.0
C112 C 0.74291 0.07927 0.04074 0.0
C113 C 0.7445 0.02806 0.08368 0.0
C114 C 0.74161 0.03166 0.02671 0.0
C115 C 0.74088 0.05745 0.00518 0.0
N116 N 0.74633 0.04957 0.11834 0.0
C117 C 0.74563 0.07492 0.09753 0.0
Co118 Co 0.92936 0.82023 0.24315 0.0
Co119 Co 0.95261 0.76358 0.17952 0.0
O120 O 0.92387 0.78803 0.19985 0.0
C121 C 0.90084 0.84572 0.14828 0.0
O122 O 0.92033 0.83879 0.11489 0.0
C123 C 0.9134 0.7294 0.23563 0.0
O124 O 0.9154 0.74612 0.27724 0.0
O125 O 0.96513 0.76106 0.25812 0.0
O126 O 0.95723 0.8026 0.28907 0.0
H127 H 0.04692 0.72937 0.17425 0.0
H128 H 0.87472 0.79831 0.23053 0.0
O129 O 0.9012 0.8389 0.19898 0.0
H130 H 0.892 0.79863 0.43126 0.0
H131 H 0.89928 0.90288 0.34423 0.0
H132 H 0.97684 0.84948 0.28451 0.0
H133 H 0.92587 0.81549 0.36599 0.0
H134 H 0.8929 0.86119 0.29156 0.0
O135 O 0.92739 0.73295 0.19215 0.0
H136 H 0.01066 0.75976 0.20284 0.0
H137 H 0.95447 0.71395 0.11183 0.0
H138 H 0.98411 0.89092 0.33748 0.0
H139 H 0.84019 0.78146 0.29441 0.0
H140 H 0.94515 0.91794 0.36772 0.0
H141 H 0.84878 0.78148 0.39555 0.0
O142 O 0.95761 0.83229 0.19123 0.0
H143 H 0.88447 0.76479 0.02682 0.0
H144 H 0.98009 0.77337 0.07189 0.0
H145 H 0.96534 0.7785 0.97519 0.0
H146 H 0.91724 0.77419 0.95213 0.0
H147 H 0.90004 0.76008 0.12311 0.0
H148 H 0.99007 0.68293 0.08256 0.0
H149 H 0.03672 0.69071 0.11345 0.0
O150 O 0.97796 0.79404 0.16669 0.0
C151 C 0.96768 0.77955 0.29409 0.0
C152 C 0.02668 0.72581 0.1604 0.0
C153 C 0.99477 0.69973 0.10901 0.0
N154 N 0.98054 0.73872 0.15869 0.0
C155 C 0.00608 0.74297 0.1764 0.0
C156 C 0.97468 0.71729 0.12587 0.0
C157 C 0.02094 0.7041 0.12634 0.0
C158 C 0.87848 0.79864 0.27453 0.0
N159 N 0.90221 0.80801 0.2945 0.0
C160 C 0.85891 0.78897 0.31048 0.0
C161 C 0.86376 0.78894 0.36722 0.0
C162 C 0.88801 0.79855 0.38728 0.0
C163 C 0.90713 0.80802 0.3501 0.0
C164 C 0.91641 0.89124 0.33143 0.0
C165 C 0.95977 0.86101 0.2979 0.0
C166 C 0.91293 0.86763 0.30153 0.0
N167 N 0.93447 0.85276 0.28547 0.0
C168 C 0.96402 0.88451 0.32771 0.0
C169 C 0.94215 0.89968 0.34461 0.0
C170 C 0.97686 0.81952 0.16884 0.0
C171 C 0.9055 0.76665 0.03634 0.0
C172 C 0.9591 0.77151 0.06225 0.0
C173 C 0.95089 0.77438 0.00737 0.0
C174 C 0.92389 0.77194 0.99446 0.0
N175 N 0.94095 0.7663 0.10314 0.0
C176 C 0.91444 0.7639 0.09077 0.0
Co177 Co 0.17849 0.93257 0.2693 0.0
Co178 Co 0.23501 0.95156 0.1959 0.0
O179 O 0.20695 0.92569 0.21561 0.0
C180 C 0.14977 0.90925 0.16972 0.0
O181 O 0.17134 0.90861 0.139 0.0
C182 C 0.26435 0.90584 0.24309 0.0
O183 O 0.24709 0.90662 0.28388 0.0
O184 O 0.24102 0.96217 0.27499 0.0
O185 O 0.20461 0.94856 0.32123 0.0
H186 H 0.28124 0.0406 0.19755 0.0
H187 H 0.18698 0.87786 0.2248 0.0
O188 O 0.15052 0.91708 0.21977 0.0
H189 H 0.19576 0.86922 0.42697 0.0
H190 H 0.0954 0.91114 0.3782 0.0
H191 H 0.16479 0.97864 0.3407 0.0
H192 H 0.18562 0.91284 0.38474 0.0
H193 H 0.13149 0.90193 0.31141 0.0
O194 O 0.2627 0.92266 0.20365 0.0
H195 H 0.24648 0.00808 0.22381 0.0
H196 H 0.28338 0.94871 0.12428 0.0
H197 H 0.12919 0.98859 0.40822 0.0
H198 H 0.19683 0.83384 0.26528 0.0
H199 H 0.09417 0.95469 0.42732 0.0
H200 H 0.20137 0.8293 0.36711 0.0
O201 O 0.17111 0.96788 0.23491 0.0
H202 H 0.22557 0.88742 0.03696 0.0
H203 H 0.22611 0.98225 0.09181 0.0
H204 H 0.21881 0.97031 0.99404 0.0
H205 H 0.21856 0.92261 0.96605 0.0
H206 H 0.23241 0.90021 0.13444 0.0
H207 H 0.31866 0.98052 0.09726 0.0
H208 H 0.31765 0.02688 0.13377 0.0
O209 O 0.20777 0.98051 0.18778 0.0
C210 C 0.22748 0.95947 0.31932 0.0
C211 C 0.28187 0.02048 0.18125 0.0
C212 C 0.30289 0.98675 0.12503 0.0
N213 N 0.26281 0.9766 0.1753 0.0
C214 C 0.26221 0.002 0.19588 0.0
C215 C 0.2829 0.9688 0.14059 0.0
C216 C 0.3023 0.01276 0.1455 0.0
C217 C 0.18855 0.87604 0.26912 0.0
N218 N 0.1854 0.8979 0.3023 0.0
C219 C 0.19429 0.85106 0.29183 0.0
C220 C 0.19689 0.84853 0.34895 0.0
C221 C 0.19375 0.87092 0.38255 0.0
C222 C 0.18804 0.89558 0.35837 0.0
C223 C 0.11058 0.92605 0.37033 0.0
C224 C 0.14972 0.96373 0.34911 0.0
C225 C 0.13104 0.92097 0.33247 0.0
N226 N 0.15036 0.93965 0.32255 0.0
C227 C 0.12957 0.9695 0.38724 0.0
C228 C 0.10991 0.95049 0.39789 0.0
C229 C 0.18381 0.98421 0.20407 0.0
C230 C 0.22567 0.90829 0.04865 0.0
C231 C 0.22582 0.96143 0.08008 0.0
C232 C 0.22179 0.95481 0.02459 0.0
C233 C 0.2217 0.92803 0.00889 0.0
N234 N 0.22966 0.94194 0.11889 0.0
C235 C 0.22966 0.91565 0.10376 0.0
Co236 Co 0.06567 0.81544 0.76179 0.0
Co237 Co 0.03917 0.75339 0.79437 0.0
O238 O 0.06749 0.78063 0.798 0.0
C239 C 0.07476 0.85259 0.85517 0.0
O240 O 0.04919 0.85818 0.85395 0.0
C241 C 0.08657 0.72818 0.74619 0.0
O242 O 0.08928 0.75033 0.71784 0.0
O243 O 0.03439 0.75809 0.71272 0.0
O244 O 0.04872 0.7996 0.69517 0.0
H245 H 0.94955 0.71616 0.74175 0.0
H246 H 0.11744 0.79671 0.80632 0.0
O247 O 0.08362 0.83277 0.82739 0.0
H248 H 0.13295 0.81041 0.60698 0.0
H249 H 0.10054 0.90574 0.70415 0.0
H250 H 0.02351 0.84443 0.7004 0.0
H251 H 0.08889 0.81979 0.64809 0.0
H252 H 0.10354 0.86118 0.74686 0.0
O253 O 0.06701 0.72539 0.77944 0.0
H254 H 0.98489 0.75043 0.74579 0.0
H255 H 0.03472 0.69767 0.83654 0.0
H256 H 0.01973 0.88873 0.65658 0.0
H257 H 0.16195 0.78746 0.76707 0.0
H258 H 0.05841 0.91977 0.65844 0.0
H259 H 0.1699 0.79419 0.66666 0.0
O260 O 0.0297 0.82134 0.79426 0.0
H261 H 0.09141 0.73931 0.96953 0.0
H262 H 0.00151 0.75065 0.88992 0.0
H263 H 0.00647 0.7445 0.9906 0.0
H264 H 0.05165 0.73879 0.03101 0.0
H265 H 0.08558 0.74556 0.86903 0.0
H266 H 1e-05 0.66275 0.83311 0.0
H267 H 0.95702 0.67195 0.78566 0.0
O268 O 0.01111 0.78105 0.80906 0.0
C269 C 0.03818 0.77767 0.67996 0.0
C270 C 0.96816 0.71194 0.7627 0.0
C271 C 0.99651 0.68194 0.81391 0.0
N272 N 0.01174 0.72611 0.79172 0.0
C273 C 0.98821 0.73128 0.76525 0.0
C274 C 0.01611 0.70177 0.8156 0.0
C275 C 0.97238 0.68713 0.78729 0.0
C276 C 0.12083 0.8 0.76271 0.0
N277 N 0.10061 0.80892 0.72962 0.0
C278 C 0.14605 0.79461 0.74068 0.0
C279 C 0.15047 0.79834 0.68432 0.0
C280 C 0.12974 0.80741 0.6508 0.0
C281 C 0.10479 0.81259 0.67427 0.0
C282 C 0.08354 0.8924 0.70304 0.0
C283 C 0.04046 0.85778 0.7012 0.0
C284 C 0.0851 0.86715 0.72728 0.0
N285 N 0.06369 0.85021 0.72631 0.0
C286 C 0.0382 0.88285 0.67636 0.0
C287 C 0.0599 0.90026 0.67742 0.0
C288 C 0.01025 0.80654 0.80928 0.0
C289 C 0.07161 0.74176 0.95238 0.0
C290 C 0.02127 0.74827 0.90718 0.0
C291 C 0.02393 0.74476 0.96423 0.0
C292 C 0.0493 0.7415 0.98688 0.0
N293 N 0.04325 0.74836 0.87355 0.0
C294 C 0.06818 0.74525 0.89549 0.0
Co295 Co 0.18274 0.0662 0.74611 0.0
Co296 Co 0.23876 0.04261 0.81412 0.0
O297 O 0.21252 0.0704 0.79705 0.0
C298 C 0.14706 0.07992 0.84242 0.0
O299 O 0.15133 0.05656 0.86525 0.0
C300 C 0.27009 0.08664 0.76676 0.0
O301 O 0.2528 0.08615 0.72605 0.0
O302 O 0.24316 0.03267 0.73436 0.0
O303 O 0.20568 0.0467 0.69226 0.0
H304 H 0.27948 0.95098 0.806 0.0
H305 H 0.19772 0.11981 0.78777 0.0
O306 O 0.15903 0.08667 0.79804 0.0
H307 H 0.20384 0.12609 0.58466 0.0
H308 H 0.09991 0.09645 0.64601 0.0
H309 H 0.16211 0.02167 0.67768 0.0
H310 H 0.18949 0.08421 0.62931 0.0
H311 H 0.13853 0.1018 0.70825 0.0
O312 O 0.26794 0.07004 0.80654 0.0
H313 H 0.24648 0.98582 0.78297 0.0
H314 H 0.28787 0.04171 0.88341 0.0
H315 H 0.12386 0.01553 0.61468 0.0
H316 H 0.21193 0.16218 0.74485 0.0
H317 H 0.09244 0.0531 0.59854 0.0
H318 H 0.21517 0.16547 0.64258 0.0
O319 O 0.17269 0.03173 0.78166 0.0
H320 H 0.23254 0.10531 0.97615 0.0
H321 H 0.22966 0.0111 0.91706 0.0
H322 H 0.2234 0.02224 0.01559 0.0
H323 H 0.22485 0.06961 0.04569 0.0
H324 H 0.23851 0.09332 0.87795 0.0
H325 H 0.32145 0.00754 0.90722 0.0
H326 H 0.31727 0.96176 0.86863 0.0
O327 O 0.20983 0.01526 0.82169 0.0
C328 C 0.22832 0.03514 0.6918 0.0
C329 C 0.28147 0.97083 0.8232 0.0
C330 C 0.30506 0.00259 0.87995 0.0
N331 N 0.26516 0.01569 0.83214 0.0
C332 C 0.26282 0.99062 0.8104 0.0
C333 C 0.28603 0.02187 0.8662 0.0
C334 C 0.30269 0.9769 0.8583 0.0
C335 C 0.19889 0.12116 0.74322 0.0
N336 N 0.19281 0.09956 0.71108 0.0
C337 C 0.20703 0.14517 0.71916 0.0
C338 C 0.20887 0.14699 0.66179 0.0
C339 C 0.20254 0.12491 0.62927 0.0
C340 C 0.19451 0.10122 0.65478 0.0
C341 C 0.11349 0.07995 0.65262 0.0
C342 C 0.14862 0.03816 0.67055 0.0
C343 C 0.13536 0.08284 0.68792 0.0
N344 N 0.15268 0.06212 0.69624 0.0
C345 C 0.12696 0.03455 0.63498 0.0
C346 C 0.10932 0.05562 0.62599 0.0
C347 C 0.18516 0.0137 0.80873 0.0
C348 C 0.23192 0.08458 0.96354 0.0
C349 C 0.23025 0.03179 0.92978 0.0
C350 C 0.22675 0.03796 0.98566 0.0
C351 C 0.22758 0.06455 0.00254 0.0
N352 N 0.23457 0.05155 0.89178 0.0
C353 C 0.23537 0.07767 0.90801 0.0
Co354 Co 0.92934 0.17717 0.76671 0.0
Co355 Co 0.9531 0.2359 0.82003 0.0
O356 O 0.92443 0.21049 0.80627 0.0
C357 C 0.90471 0.15443 0.86897 0.0
O358 O 0.92537 0.16222 0.89822 0.0
C359 C 0.91134 0.26819 0.76663 0.0
O360 O 0.91216 0.25073 0.72616 0.0
O361 O 0.96307 0.2366 0.73961 0.0
O362 O 0.95517 0.19407 0.71473 0.0
H363 H 0.04626 0.27267 0.80747 0.0
H364 H 0.87469 0.19835 0.78448 0.0
O365 O 0.90323 0.15952 0.81747 0.0
H366 H 0.88538 0.19228 0.58214 0.0
H367 H 0.89785 0.09098 0.68158 0.0
H368 H 0.97596 0.14763 0.72211 0.0
H369 H 0.92171 0.17812 0.64436 0.0
H370 H 0.89232 0.13412 0.72951 0.0
O371 O 0.92693 0.26573 0.80799 0.0
H372 H 0.01001 0.24076 0.7873 0.0
H373 H 0.95597 0.2867 0.88361 0.0
H374 H 0.98238 0.10478 0.67359 0.0
H375 H 0.83777 0.21253 0.72375 0.0
H376 H 0.94313 0.07612 0.65306 0.0
H377 H 0.84303 0.20961 0.62179 0.0
O378 O 0.95952 0.1671 0.8158 0.0
H379 H 0.88921 0.23676 0.98042 0.0
H380 H 0.98356 0.22788 0.92502 0.0
H381 H 0.97115 0.22299 0.02334 0.0
H382 H 0.92379 0.2277 0.05158 0.0
H383 H 0.90226 0.24055 0.88244 0.0
H384 H 0.99158 0.31921 0.90457 0.0
H385 H 0.03716 0.31217 0.8667 0.0
O386 O 0.97957 0.20643 0.83229 0.0
C387 C 0.96489 0.21718 0.70549 0.0
C388 C 0.02651 0.27591 0.82435 0.0
C389 C 0.99581 0.30205 0.8788 0.0
N390 N 0.98099 0.26177 0.83462 0.0
C391 C 0.00592 0.25789 0.81313 0.0
C392 C 0.97571 0.28362 0.86667 0.0
C393 C 0.02138 0.29808 0.85755 0.0
C394 C 0.87703 0.19677 0.74016 0.0
N395 N 0.90027 0.18728 0.71802 0.0
C396 C 0.85609 0.20493 0.70598 0.0
C397 C 0.85907 0.20333 0.64878 0.0
C398 C 0.88284 0.19362 0.6265 0.0
C399 C 0.90336 0.18567 0.66195 0.0
C400 C 0.91509 0.10333 0.69012 0.0
C401 C 0.95877 0.13539 0.71285 0.0
C402 C 0.91209 0.12776 0.71731 0.0
N403 N 0.93377 0.14352 0.72802 0.0
C404 C 0.96253 0.11109 0.68557 0.0
C405 C 0.9405 0.09501 0.67413 0.0
C406 C 0.97911 0.18093 0.83358 0.0
C407 C 0.90998 0.23486 0.96864 0.0
C408 C 0.96285 0.22984 0.93693 0.0
C409 C 0.95599 0.22718 0.99269 0.0
C410 C 0.92937 0.22975 0.00854 0.0
N411 N 0.94368 0.23468 0.89796 0.0
C412 C 0.91752 0.23717 0.91323 0.0
Co413 Co 0.8214 0.94724 0.76098 0.0
Co414 Co 0.75893 0.95826 0.8124 0.0
O415 O 0.78856 0.93402 0.79481 0.0
C416 C 0.83978 0.90306 0.83922 0.0
O417 O 0.81562 0.8965 0.85521 0.0
C418 C 0.73177 0.91473 0.75158 0.0
O419 O 0.74837 0.91895 0.71047 0.0
O420 O 0.75732 0.97037 0.7336 0.0
O421 O 0.80112 0.97418 0.71687 0.0
H422 H 0.70903 0.04529 0.81046 0.0
H423 H 0.80662 0.88954 0.75309 0.0
O424 O 0.84375 0.92135 0.80358 0.0
H425 H 0.81858 0.91966 0.56082 0.0
H426 H 0.91274 0.93916 0.67508 0.0
H427 H 0.84269 0.00137 0.73802 0.0
H428 H 0.82533 0.95087 0.63825 0.0
H429 H 0.8708 0.92209 0.71523 0.0
O430 O 0.73321 0.92873 0.79548 0.0
H431 H 0.74614 0.01483 0.78759 0.0
H432 H 0.70762 0.95163 0.8733 0.0
H433 H 0.88422 0.01928 0.69768 0.0
H434 H 0.80004 0.85763 0.67707 0.0
H435 H 0.9196 0.98808 0.66585 0.0
H436 H 0.80596 0.87259 0.57996 0.0
O437 O 0.82571 0.97288 0.82253 0.0
H438 H 0.76485 0.88984 0.96406 0.0
H439 H 0.76106 0.98607 0.92182 0.0
H440 H 0.76563 0.97137 0.01872 0.0
H441 H 0.76749 0.92298 0.04034 0.0
H442 H 0.76085 0.90538 0.86766 0.0
H443 H 0.66997 0.98134 0.89671 0.0
H444 H 0.67063 0.02859 0.86554 0.0
O445 O 0.78399 0.98844 0.8305 0.0
C446 C 0.77682 0.9783 0.70391 0.0
C447 C 0.70855 0.02477 0.82443 0.0
C448 C 0.68662 0.98887 0.87278 0.0
N449 N 0.72914 0.98156 0.82948 0.0
C450 C 0.72953 0.00744 0.81168 0.0
C451 C 0.70795 0.97212 0.85926 0.0
C452 C 0.687 0.01538 0.85529 0.0
C453 C 0.80978 0.89617 0.71127 0.0
N454 N 0.81696 0.92197 0.70054 0.0
C455 C 0.80579 0.87802 0.66821 0.0
C456 C 0.80904 0.88644 0.61373 0.0
C457 C 0.81612 0.91283 0.60298 0.0
C458 C 0.81993 0.93042 0.64709 0.0
C459 C 0.89744 0.95296 0.68866 0.0
C460 C 0.85791 0.98766 0.72392 0.0
C461 C 0.87367 0.94341 0.71153 0.0
N462 N 0.85419 0.96071 0.72847 0.0
C463 C 0.88142 0.99792 0.70127 0.0
C464 C 0.90128 0.98041 0.68348 0.0
C465 C 0.80901 0.99004 0.84013 0.0
C466 C 0.76403 0.911 0.95515 0.0
C467 C 0.76202 0.96495 0.9308 0.0
C468 C 0.76448 0.95677 0.9858 0.0
C469 C 0.76553 0.9296 0.99793 0.0
N470 N 0.7608 0.9466 0.88897 0.0
C471 C 0.76167 0.91992 0.90063 0.0
Co472 Co 0.57912 0.68034 0.73998 0.0
Co473 Co 0.5501 0.73835 0.69142 0.0
O474 O 0.5797 0.71295 0.69649 0.0
C475 C 0.59087 0.64789 0.63799 0.0
O476 O 0.56599 0.64974 0.62152 0.0
C477 C 0.59448 0.76921 0.73768 0.0
O478 O 0.59616 0.74999 0.77435 0.0
O479 O 0.54398 0.73809 0.77345 0.0
O480 O 0.56008 0.69858 0.80155 0.0
H481 H 0.45791 0.77377 0.72825 0.0
H482 H 0.63018 0.70078 0.69484 0.0
O483 O 0.59908 0.66103 0.67986 0.0
H484 H 0.64323 0.69681 0.89676 0.0
H485 H 0.6178 0.59463 0.81379 0.0
H486 H 0.53842 0.65284 0.80848 0.0
H487 H 0.60076 0.68226 0.85498 0.0
H488 H 0.61865 0.63695 0.76181 0.0
O489 O 0.57655 0.76831 0.70027 0.0
H490 H 0.49496 0.74151 0.73589 0.0
H491 H 0.54368 0.79056 0.63422 0.0
H492 H 0.53682 0.61081 0.86153 0.0
H493 H 0.67309 0.71533 0.73482 0.0
H494 H 0.5767 0.58136 0.86433 0.0
H495 H 0.67978 0.71348 0.8365 0.0
O496 O 0.54417 0.67027 0.70745 0.0
H497 H 0.60477 0.74332 0.51717 0.0
H498 H 0.51414 0.7326 0.59377 0.0
H499 H 0.5208 0.73106 0.49271 0.0
H500 H 0.56633 0.7365 0.45383 0.0
H501 H 0.59733 0.74432 0.618 0.0
H502 H 0.50722 0.82347 0.62577 0.0
H503 H 0.46393 0.81508 0.67282 0.0
O504 O 0.52372 0.70854 0.68282 0.0
C505 C 0.54806 0.72055 0.8108 0.0
C506 C 0.47665 0.77761 0.70743 0.0
C507 C 0.50435 0.80552 0.64997 0.0
N508 N 0.52135 0.76408 0.68517 0.0
C509 C 0.49767 0.75939 0.71149 0.0
C510 C 0.52493 0.78686 0.655 0.0
C511 C 0.48005 0.8008 0.67636 0.0
C512 C 0.63304 0.6997 0.73909 0.0
N513 N 0.613 0.69063 0.77254 0.0
C514 C 0.65734 0.70806 0.7615 0.0
C515 C 0.66106 0.70705 0.81856 0.0
C516 C 0.64056 0.69772 0.8524 0.0
C517 C 0.61651 0.68958 0.82853 0.0
C518 C 0.60032 0.60732 0.813 0.0
C519 C 0.55593 0.64024 0.80987 0.0
C520 C 0.60065 0.63129 0.78352 0.0
N521 N 0.57866 0.64746 0.78242 0.0
C522 C 0.55487 0.61642 0.83983 0.0
C523 C 0.57725 0.59989 0.84134 0.0
C524 C 0.52418 0.68317 0.68848 0.0
C525 C 0.58481 0.741 0.53364 0.0
C526 C 0.53406 0.73491 0.5772 0.0
C527 C 0.53767 0.7341 0.51993 0.0
C528 C 0.56324 0.73715 0.49811 0.0
N529 N 0.55533 0.73864 0.61182 0.0
C530 C 0.58046 0.74166 0.5907 0.0
Co531 Co 0.3137 0.56693 0.7578 0.0
Co532 Co 0.25883 0.54275 0.68624 0.0
O533 O 0.28531 0.57043 0.70326 0.0
C534 C 0.36195 0.57289 0.68882 0.0
O535 O 0.36811 0.54853 0.70411 0.0
C536 C 0.22854 0.58809 0.73099 0.0
O537 O 0.24759 0.59001 0.76791 0.0
O538 O 0.25423 0.53278 0.76604 0.0
O539 O 0.28845 0.5514 0.81234 0.0
H540 H 0.21851 0.45091 0.69253 0.0
H541 H 0.30432 0.61927 0.70405 0.0
O542 O 0.33971 0.58306 0.70374 0.0
H543 H 0.29184 0.63543 0.90355 0.0
H544 H 0.39483 0.59754 0.86366 0.0
H545 H 0.3305 0.52426 0.83514 0.0
H546 H 0.30414 0.59068 0.86936 0.0
H547 H 0.35825 0.60216 0.79612 0.0
O548 O 0.22936 0.56981 0.6943 0.0
H549 H 0.25104 0.48594 0.71718 0.0
H550 H 0.21012 0.54175 0.61577 0.0
H551 H 0.36673 0.51884 0.90329 0.0
H552 H 0.2923 0.6644 0.7365 0.0
H553 H 0.39922 0.55564 0.91785 0.0
H554 H 0.28588 0.67268 0.8369 0.0
O555 O 0.32202 0.5303 0.73038 0.0
H556 H 0.26421 0.60614 0.52543 0.0
H557 H 0.26961 0.51187 0.58306 0.0
H558 H 0.27674 0.52368 0.48495 0.0
H559 H 0.27379 0.57102 0.4556 0.0
H560 H 0.25792 0.59359 0.62316 0.0
H561 H 0.17703 0.50737 0.5903 0.0
H562 H 0.18123 0.46154 0.62852 0.0
O563 O 0.28768 0.51546 0.679 0.0
C564 C 0.26687 0.53801 0.81059 0.0
C565 C 0.21651 0.47079 0.67549 0.0
C566 C 0.1932 0.50249 0.61817 0.0
N567 N 0.23255 0.51579 0.66766 0.0
C568 C 0.23488 0.4907 0.68924 0.0
C569 C 0.21194 0.52189 0.63287 0.0
C570 C 0.19558 0.47677 0.63961 0.0
C571 C 0.30185 0.62279 0.74785 0.0
N572 N 0.30509 0.6024 0.78478 0.0
C573 C 0.29493 0.64836 0.76596 0.0
C574 C 0.29129 0.65297 0.82229 0.0
C575 C 0.2946 0.63208 0.85971 0.0
C576 C 0.30151 0.60677 0.84009 0.0
C577 C 0.38077 0.58137 0.85775 0.0
C578 C 0.3445 0.54041 0.84143 0.0
C579 C 0.36002 0.58387 0.81957 0.0
N580 N 0.34219 0.56353 0.81185 0.0
C581 C 0.36499 0.53721 0.88001 0.0
C582 C 0.38323 0.55786 0.88814 0.0
C583 C 0.3109 0.51271 0.69984 0.0
C584 C 0.26537 0.58539 0.53768 0.0
C585 C 0.26844 0.53255 0.5706 0.0
C586 C 0.27238 0.53909 0.515 0.0
C587 C 0.27077 0.56569 0.49853 0.0
N588 N 0.26313 0.55199 0.60875 0.0
C589 C 0.26168 0.57814 0.59294 0.0
Co590 Co 0.45119 0.31468 0.75758 0.0
Co591 Co 0.45809 0.25376 0.69628 0.0
O592 O 0.43565 0.28408 0.71896 0.0
C593 C 0.40834 0.33944 0.68362 0.0
O594 O 0.40173 0.31693 0.65945 0.0
C595 C 0.41336 0.22676 0.75407 0.0
O596 O 0.41836 0.24187 0.79724 0.0
O597 O 0.47035 0.24864 0.77414 0.0
O598 O 0.47767 0.29141 0.79607 0.0
H599 H 0.54209 0.19899 0.68984 0.0
H600 H 0.39293 0.30398 0.76573 0.0
O601 O 0.42604 0.34017 0.72133 0.0
H602 H 0.42562 0.30429 0.95789 0.0
H603 H 0.44955 0.40236 0.85989 0.0
H604 H 0.50676 0.33211 0.77988 0.0
H605 H 0.45651 0.31257 0.88045 0.0
H606 H 0.42955 0.36315 0.81416 0.0
O607 O 0.42727 0.22909 0.71019 0.0
H608 H 0.51403 0.23724 0.71731 0.0
H609 H 0.44829 0.20479 0.62908 0.0
H610 H 0.52757 0.37089 0.82557 0.0
H611 H 0.36129 0.29597 0.84193 0.0
H612 H 0.4989 0.40636 0.86598 0.0
H613 H 0.37759 0.29602 0.9389 0.0
O614 O 0.47607 0.31995 0.69516 0.0
H615 H 0.38944 0.26778 0.54754 0.0
H616 H 0.48547 0.25714 0.58663 0.0
H617 H 0.47053 0.26402 0.49051 0.0
H618 H 0.42223 0.2694 0.47048 0.0
H619 H 0.40524 0.26102 0.64311 0.0
H620 H 0.47557 0.16607 0.60105 0.0
H621 H 0.52288 0.16307 0.63125 0.0
O622 O 0.48963 0.27785 0.6809 0.0
C623 C 0.48016 0.26655 0.80544 0.0
C624 C 0.52153 0.20011 0.67628 0.0
C625 C 0.48419 0.18162 0.62651 0.0
N626 N 0.47963 0.22335 0.67444 0.0
C627 C 0.50557 0.22176 0.69158 0.0
C628 C 0.46882 0.20355 0.64262 0.0
C629 C 0.51073 0.17995 0.64345 0.0
C630 C 0.40013 0.30447 0.80773 0.0
N631 N 0.42649 0.30917 0.81848 0.0
C632 C 0.38214 0.29973 0.85077 0.0
C633 C 0.3913 0.29971 0.90515 0.0
C634 C 0.41824 0.30435 0.91583 0.0
C635 C 0.43565 0.30901 0.87175 0.0
C636 C 0.46225 0.387 0.84256 0.0
C637 C 0.49413 0.34737 0.79766 0.0
C638 C 0.45105 0.36476 0.81654 0.0
N639 N 0.46696 0.34522 0.79474 0.0
C640 C 0.50604 0.36932 0.82336 0.0
C641 C 0.48994 0.38923 0.84598 0.0
C642 C 0.49226 0.30307 0.6746 0.0
C643 C 0.41056 0.26548 0.55576 0.0
C644 C 0.46442 0.25965 0.57834 0.0
C645 C 0.45608 0.26344 0.52378 0.0
C646 C 0.42896 0.26642 0.51255 0.0
N647 N 0.44624 0.25878 0.62054 0.0
C648 C 0.41962 0.2616 0.60979 0.0
Co649 Co 0.67932 0.43054 0.74692 0.0
Co650 Co 0.74042 0.45321 0.70381 0.0
O651 O 0.714 0.4249 0.71278 0.0
C652 C 0.65339 0.40666 0.64588 0.0
O653 O 0.65558 0.42931 0.61899 0.0
C654 C 0.77046 0.41051 0.76055 0.0
O655 O 0.75205 0.41118 0.79919 0.0
O656 O 0.73823 0.46251 0.78432 0.0
O657 O 0.69461 0.45634 0.80137 0.0
H658 H 0.77824 0.54548 0.72659 0.0
H659 H 0.70049 0.37557 0.73414 0.0
O660 O 0.66316 0.40404 0.69426 0.0
H661 H 0.68583 0.38725 0.93436 0.0
H662 H 0.58941 0.40118 0.8178 0.0
H663 H 0.64913 0.47793 0.78582 0.0
H664 H 0.67496 0.42349 0.86916 0.0
H665 H 0.63418 0.39454 0.77757 0.0
O666 O 0.76923 0.42646 0.71958 0.0
H667 H 0.74476 0.50981 0.73876 0.0
H668 H 0.79384 0.45557 0.64985 0.0
H669 H 0.60462 0.48544 0.82664 0.0
H670 H 0.71143 0.33872 0.79788 0.0
H671 H 0.57441 0.44688 0.84285 0.0
H672 H 0.70417 0.34447 0.89879 0.0
O673 O 0.67195 0.46066 0.69572 0.0
H674 H 0.74625 0.39059 0.54175 0.0
H675 H 0.73837 0.48479 0.59896 0.0
H676 H 0.7383 0.47342 0.49961 0.0
H677 H 0.74236 0.42611 0.47052 0.0
H678 H 0.74571 0.4027 0.64058 0.0
H679 H 0.82796 0.49058 0.63707 0.0
H680 H 0.82016 0.53596 0.67532 0.0
O681 O 0.71204 0.48027 0.68704 0.0
C682 C 0.71765 0.46493 0.81516 0.0
C683 C 0.78183 0.52581 0.70959 0.0
C684 C 0.80975 0.49499 0.65941 0.0
N685 N 0.76727 0.48072 0.69468 0.0
C686 C 0.76293 0.50556 0.71627 0.0
C687 C 0.7904 0.47523 0.66691 0.0
C688 C 0.80536 0.52045 0.68086 0.0
C689 C 0.69704 0.37813 0.77795 0.0
N690 N 0.68696 0.4016 0.79784 0.0
C691 C 0.70337 0.35723 0.81386 0.0
C692 C 0.69933 0.36049 0.87048 0.0
C693 C 0.68905 0.38449 0.89047 0.0
C694 C 0.68299 0.40496 0.85334 0.0
C695 C 0.60242 0.41813 0.81108 0.0
C696 C 0.63618 0.46103 0.79312 0.0
C697 C 0.62778 0.4145 0.78821 0.0
N698 N 0.64435 0.43581 0.7798 0.0
C699 C 0.61096 0.46542 0.81609 0.0
C700 C 0.59401 0.44378 0.82513 0.0
C701 C 0.68676 0.47997 0.6802 0.0
C702 C 0.74457 0.41132 0.55394 0.0
C703 C 0.74007 0.4641 0.58665 0.0
C704 C 0.74011 0.45783 0.53034 0.0
C705 C 0.74237 0.43125 0.514 0.0
N706 N 0.74217 0.44443 0.62562 0.0
C707 C 0.74438 0.41832 0.60986 0.0
Co708 Co 0.57155 0.32799 0.25403 0.0
Co709 Co 0.54745 0.26883 0.30986 0.0
O710 O 0.57503 0.29668 0.30185 0.0
C711 C 0.5956 0.34989 0.36083 0.0
O712 O 0.59745 0.32651 0.38499 0.0
C713 C 0.59498 0.24114 0.26772 0.0
O714 O 0.59765 0.26137 0.23375 0.0
O715 O 0.54102 0.26688 0.22821 0.0
O716 O 0.55634 0.30553 0.194 0.0
H717 H 0.45792 0.22616 0.27868 0.0
H718 H 0.6242 0.3123 0.30278 0.0
O719 O 0.58647 0.35232 0.31198 0.0
H720 H 0.63968 0.31809 0.10208 0.0
H721 H 0.60004 0.41557 0.16994 0.0
H722 H 0.529 0.34752 0.17927 0.0
H723 H 0.59534 0.32793 0.14106 0.0
H724 H 0.60539 0.37564 0.22856 0.0
O725 O 0.57557 0.24047 0.30181 0.0
H726 H 0.49251 0.26082 0.26734 0.0
H727 H 0.54514 0.21737 0.37145 0.0
H728 H 0.52296 0.38701 0.11961 0.0
H729 H 0.66888 0.30278 0.26582 0.0
H730 H 0.55864 0.42138 0.11471 0.0
H731 H 0.67692 0.30551 0.16465 0.0
O732 O 0.53547 0.33529 0.2845 0.0
H733 H 0.60368 0.26862 0.48204 0.0
H734 H 0.512 0.27424 0.40871 0.0
H735 H 0.51944 0.27705 0.50942 0.0
H736 H 0.5655 0.274 0.54662 0.0
H737 H 0.59545 0.26645 0.3816 0.0
H738 H 0.51121 0.18214 0.38362 0.0
H739 H 0.46718 0.18649 0.33723 0.0
O740 O 0.519 0.29664 0.31752 0.0
C741 C 0.54539 0.28278 0.18806 0.0
C742 C 0.47699 0.22408 0.29925 0.0
C743 C 0.50692 0.19935 0.35809 0.0
N744 N 0.52071 0.2412 0.31907 0.0
C745 C 0.49662 0.24367 0.2931 0.0
C746 C 0.52607 0.21933 0.35096 0.0
C747 C 0.48221 0.20181 0.33207 0.0
C748 C 0.62748 0.31411 0.25899 0.0
N749 N 0.60707 0.32112 0.22442 0.0
C750 C 0.65287 0.30844 0.23814 0.0
C751 C 0.65735 0.30989 0.18138 0.0
C752 C 0.63647 0.31692 0.14628 0.0
C753 C 0.61135 0.32241 0.16862 0.0
C754 C 0.58437 0.4007 0.17162 0.0
C755 C 0.54471 0.36229 0.17699 0.0
C756 C 0.58725 0.37808 0.20485 0.0
N757 N 0.56762 0.35913 0.20692 0.0
C758 C 0.54113 0.38465 0.1433 0.0
C759 C 0.56115 0.40394 0.14063 0.0
C760 C 0.51709 0.32159 0.3075 0.0
C761 C 0.58349 0.26986 0.46629 0.0
C762 C 0.53215 0.27316 0.42453 0.0
C763 C 0.53621 0.27463 0.48162 0.0
C764 C 0.56207 0.27294 0.50251 0.0
N765 N 0.55329 0.27017 0.38922 0.0
C766 C 0.5787 0.26851 0.40945 0.0
Co767 Co 0.68191 0.57134 0.27961 0.0
Co768 Co 0.74327 0.54498 0.31474 0.0
O769 O 0.71734 0.57427 0.31218 0.0
C770 C 0.64856 0.58919 0.37447 0.0
O771 O 0.64118 0.56427 0.38104 0.0
C772 C 0.7721 0.58805 0.25667 0.0
O773 O 0.75198 0.58878 0.22194 0.0
O774 O 0.73833 0.53703 0.23413 0.0
O775 O 0.69575 0.54862 0.21826 0.0
H776 H 0.77758 0.45229 0.2789 0.0
H777 H 0.70427 0.62477 0.30445 0.0
O778 O 0.66697 0.59495 0.33987 0.0
H779 H 0.68687 0.62503 0.10378 0.0
H780 H 0.59194 0.60601 0.21993 0.0
H781 H 0.64996 0.52672 0.2337 0.0
H782 H 0.67609 0.58547 0.16017 0.0
H783 H 0.63743 0.60978 0.25802 0.0
O784 O 0.7722 0.57125 0.29627 0.0
H785 H 0.74461 0.48887 0.27563 0.0
H786 H 0.79854 0.54035 0.35924 0.0
H787 H 0.60467 0.52209 0.19484 0.0
H788 H 0.71514 0.66486 0.24966 0.0
H789 H 0.5753 0.56192 0.18786 0.0
H790 H 0.70649 0.66513 0.14854 0.0
O791 O 0.67497 0.53868 0.32385 0.0
H792 H 0.75795 0.60431 0.47968 0.0
H793 H 0.74437 0.51158 0.41709 0.0
H794 H 0.74975 0.52094 0.51672 0.0
H795 H 0.75662 0.56752 0.54849 0.0
H796 H 0.75229 0.59417 0.38058 0.0
H797 H 0.83219 0.50441 0.36303 0.0
H798 H 0.82173 0.45996 0.32289 0.0
O799 O 0.7147 0.51842 0.33394 0.0
C800 C 0.71773 0.53806 0.2031 0.0
C801 C 0.78234 0.47154 0.29669 0.0
C802 C 0.81301 0.50081 0.34384 0.0
N803 N 0.76958 0.51663 0.3176 0.0
C804 C 0.76373 0.4923 0.29508 0.0
C805 C 0.79391 0.5211 0.34145 0.0
C806 C 0.80712 0.47587 0.32133 0.0
C807 C 0.7002 0.62484 0.26056 0.0
N808 N 0.68938 0.60287 0.23564 0.0
C809 C 0.7065 0.64755 0.22971 0.0
C810 C 0.70168 0.64767 0.17297 0.0
C811 C 0.69069 0.62518 0.14782 0.0
C812 C 0.68468 0.60281 0.17996 0.0
C813 C 0.60455 0.58851 0.22269 0.0
C814 C 0.63735 0.54417 0.23055 0.0
C815 C 0.63032 0.59051 0.24432 0.0
N816 N 0.64637 0.56849 0.248 0.0
C817 C 0.61171 0.54142 0.20859 0.0
C818 C 0.59523 0.56377 0.20471 0.0
C819 C 0.68932 0.519 0.33919 0.0
C820 C 0.755 0.5839 0.4663 0.0
C821 C 0.74725 0.53195 0.43061 0.0
C822 C 0.75034 0.53709 0.48705 0.0
C823 C 0.75423 0.56325 0.50489 0.0
N824 N 0.74811 0.5523 0.39297 0.0
C825 C 0.75186 0.57802 0.41021 0.0
Co826 Co 0.44838 0.68103 0.24974 0.0
Co827 Co 0.45645 0.74331 0.30344 0.0
O828 O 0.43338 0.71288 0.28461 0.0
C829 C 0.40376 0.65937 0.32389 0.0
O830 O 0.39655 0.68281 0.34303 0.0
C831 C 0.41137 0.76943 0.24481 0.0
O832 O 0.41605 0.75361 0.20259 0.0
O833 O 0.46824 0.74618 0.22468 0.0
O834 O 0.47539 0.70278 0.20875 0.0
H835 H 0.54129 0.79684 0.30142 0.0
H836 H 0.39039 0.69343 0.23892 0.0
O837 O 0.42257 0.65706 0.28876 0.0
H838 H 0.42386 0.68556 0.04801 0.0
H839 H 0.44537 0.5906 0.15847 0.0
H840 H 0.50367 0.66203 0.22999 0.0
H841 H 0.45416 0.67903 0.12704 0.0
H842 H 0.42599 0.63139 0.19913 0.0
O843 O 0.42578 0.768 0.28813 0.0
H844 H 0.51246 0.75841 0.27892 0.0
H845 H 0.44784 0.79405 0.36556 0.0
H846 H 0.52387 0.62165 0.18929 0.0
H847 H 0.35936 0.69975 0.16121 0.0
H848 H 0.49465 0.58558 0.15316 0.0
H849 H 0.37602 0.69588 0.06481 0.0
O850 O 0.47302 0.6771 0.31297 0.0
H851 H 0.38874 0.73355 0.45563 0.0
H852 H 0.48456 0.74245 0.41245 0.0
H853 H 0.47025 0.73797 0.50961 0.0
H854 H 0.42205 0.73349 0.5317 0.0
H855 H 0.40391 0.7379 0.35899 0.0
H856 H 0.47589 0.83298 0.38859 0.0
H857 H 0.52302 0.83447 0.35668 0.0
O858 O 0.48777 0.71917 0.32055 0.0
C859 C 0.47795 0.72728 0.19573 0.0
C860 C 0.52081 0.79639 0.3157 0.0
C861 C 0.48409 0.81668 0.36456 0.0
N862 N 0.47858 0.77389 0.32128 0.0
C863 C 0.50441 0.77465 0.3032 0.0
C864 C 0.46828 0.79462 0.35126 0.0
C865 C 0.51054 0.8175 0.34667 0.0
C866 C 0.39776 0.69121 0.19732 0.0
N867 N 0.424 0.68531 0.18782 0.0
C868 C 0.3801 0.69503 0.15334 0.0
C869 C 0.38948 0.69293 0.09927 0.0
C870 C 0.4163 0.68713 0.08983 0.0
C871 C 0.43337 0.68345 0.13482 0.0
C872 C 0.45831 0.60621 0.17394 0.0
C873 C 0.49081 0.64651 0.21404 0.0
C874 C 0.44746 0.62934 0.19711 0.0
N875 N 0.46368 0.6492 0.21651 0.0
C876 C 0.50237 0.62365 0.19117 0.0
C877 C 0.48596 0.60341 0.17097 0.0
C878 C 0.48976 0.69419 0.33072 0.0
C879 C 0.40981 0.73548 0.44651 0.0
C880 C 0.46354 0.74034 0.42165 0.0
C881 C 0.45557 0.73791 0.47678 0.0
C882 C 0.42851 0.73543 0.48917 0.0
N883 N 0.44508 0.74035 0.38 0.0
C884 C 0.41852 0.73798 0.39187 0.0
Co885 Co 0.30732 0.4342 0.2451 0.0
Co886 Co 0.24993 0.45893 0.30716 0.0
O887 O 0.27715 0.43119 0.29575 0.0
C888 C 0.35324 0.4289 0.32097 0.0
O889 O 0.35907 0.45368 0.30833 0.0
C890 C 0.22166 0.41262 0.26074 0.0
O891 O 0.24175 0.41052 0.22625 0.0
O892 O 0.24824 0.46794 0.22653 0.0
O893 O 0.28404 0.44914 0.18628 0.0
H894 H 0.20932 0.55022 0.28808 0.0
H895 H 0.2961 0.38237 0.29934 0.0
O896 O 0.33164 0.41849 0.30304 0.0
H897 H 0.29083 0.3643 0.09918 0.0
H898 H 0.39193 0.40308 0.15209 0.0
H899 H 0.3267 0.47639 0.16924 0.0
H900 H 0.30182 0.40938 0.13332 0.0
H901 H 0.35307 0.39876 0.21408 0.0
O902 O 0.22108 0.43149 0.29612 0.0
H903 H 0.24334 0.51539 0.27267 0.0
H904 H 0.1981 0.46029 0.36779 0.0
H905 H 0.36522 0.4815 0.1065 0.0
H906 H 0.28535 0.3369 0.267 0.0
H907 H 0.39818 0.44468 0.0977 0.0
H908 H 0.28255 0.32767 0.16626 0.0
O909 O 0.31447 0.47107 0.27238 0.0
H910 H 0.2491 0.3975 0.47143 0.0
H911 H 0.25396 0.49135 0.41049 0.0
H912 H 0.25415 0.48088 0.51032 0.0
H913 H 0.25186 0.43379 0.54128 0.0
H914 H 0.24852 0.40875 0.37218 0.0
H915 H 0.16346 0.49446 0.38382 0.0
H916 H 0.16903 0.53984 0.34404 0.0
O917 O 0.2784 0.48651 0.31787 0.0
C918 C 0.26239 0.46239 0.18421 0.0
C919 C 0.2067 0.53055 0.30576 0.0
C920 C 0.18094 0.49924 0.35942 0.0
N921 N 0.2228 0.48591 0.31962 0.0
C922 C 0.22593 0.51077 0.2973 0.0
C923 C 0.20058 0.47995 0.35007 0.0
C924 C 0.18409 0.5247 0.33712 0.0
C925 C 0.29521 0.37843 0.25543 0.0
N926 N 0.29973 0.39847 0.21827 0.0
C927 C 0.289 0.35267 0.23737 0.0
C928 C 0.28739 0.34752 0.18084 0.0
C929 C 0.29201 0.36807 0.14318 0.0
C930 C 0.29815 0.39357 0.16275 0.0
C931 C 0.37769 0.41925 0.1555 0.0
C932 C 0.3409 0.46024 0.16543 0.0
C933 C 0.35565 0.41693 0.19056 0.0
N934 N 0.33758 0.43728 0.19516 0.0
C935 C 0.36269 0.46326 0.12991 0.0
C936 C 0.38119 0.4426 0.12501 0.0
C937 C 0.30236 0.48898 0.30048 0.0
C938 C 0.25015 0.41815 0.45845 0.0
C939 C 0.25299 0.47075 0.42368 0.0
C940 C 0.25313 0.46498 0.48021 0.0
C941 C 0.25174 0.4385 0.4976 0.0
N942 N 0.25107 0.45069 0.38555 0.0
C943 C 0.24981 0.42466 0.40229 0.0
H944 H 0.06834 0.10115 0.08786 0.0
H945 H 0.12997 0.99193 0.19905 0.0
H946 H 0.1339 0.14391 0.16275 0.0
H947 H 0.20484 0.03131 0.16438 0.0
H948 H 0.10626 0.03163 0.16784 0.0
H949 H 0.09452 0.06012 0.09271 0.0
C950 C 0.08844 0.1021 0.10425 0.0
C951 C 0.09864 0.12595 0.12632 0.0
C952 C 0.12787 0.03143 0.16605 0.0
C953 C 0.12839 0.07885 0.13318 0.0
C954 C 0.14145 0.0089 0.18467 0.0
C955 C 0.16946 0.00831 0.1846 0.0
C956 C 0.14232 0.05377 0.14772 0.0
C957 C 0.18323 0.03091 0.16514 0.0
C958 C 0.10322 0.07856 0.10766 0.0
C959 C 0.12503 0.12588 0.14624 0.0
N960 N 0.1695 0.05294 0.14827 0.0
N961 N 0.13888 0.10257 0.14998 0.0
H962 H 0.00699 0.13432 0.15702 0.0
H963 H 0.85129 0.13147 0.1521 0.0
H964 H 0.96176 0.20779 0.15803 0.0
H965 H 0.89968 0.06777 0.08544 0.0
H966 H 0.89008 0.16111 0.14815 0.0
H967 H 0.9674 0.1105 0.12712 0.0
C968 C 0.98884 0.1456 0.15035 0.0
C969 C 0.98785 0.1732 0.16033 0.0
C970 C 0.892 0.14082 0.13315 0.0
C971 C 0.94192 0.14563 0.12685 0.0
C972 C 0.86981 0.12387 0.13514 0.0
C973 C 0.87236 0.09683 0.12041 0.0
C974 C 0.91687 0.13054 0.11689 0.0
C975 C 0.89686 0.08826 0.09841 0.0
C976 C 0.96615 0.1319 0.13304 0.0
C977 C 0.96349 0.1865 0.15117 0.0
N978 N 0.91829 0.10487 0.09853 0.0
N979 N 0.94136 0.17251 0.13583 0.0
H980 H 0.77651 0.96282 0.17653 0.0
H981 H 0.90639 0.8852 0.07079 0.0
H982 H 0.84932 0.00162 0.12491 0.0
H983 H 0.85069 0.85277 0.18919 0.0
H984 H 0.87781 0.92477 0.06158 0.0
H985 H 0.79645 0.91959 0.15297 0.0
C986 C 0.79651 0.96235 0.15953 0.0
C987 C 0.81151 0.9859 0.15391 0.0
C988 C 0.8716 0.90866 0.08856 0.0
C989 C 0.83414 0.93662 0.12617 0.0
C990 C 0.88775 0.88602 0.0935 0.0
C991 C 0.88102 0.86592 0.13138 0.0
C992 C 0.84847 0.91091 0.12114 0.0
C993 C 0.85673 0.86804 0.16004 0.0
C994 C 0.80784 0.93768 0.14614 0.0
C995 C 0.83724 0.98402 0.13115 0.0
N996 N 0.84144 0.89029 0.15478 0.0
N997 N 0.84782 0.9598 0.11849 0.0
H998 H 0.98369 0.87381 0.16984 0.0
H999 H 0.13983 0.86611 0.10226 0.0
H1000 H 0.02363 0.80069 0.12329 0.0
H1001 H 0.10111 0.92981 0.19153 0.0
H1002 H 0.09575 0.84583 0.08508 0.0
H1003 H 0.02483 0.89825 0.15224 0.0
C1004 C 0.00097 0.86288 0.15519 0.0
C1005 C 0.00027 0.835 0.14926 0.0
C1006 C 0.09696 0.86452 0.10748 0.0
C1007 C 0.04764 0.86302 0.1293 0.0
C1008 C 0.12202 0.87613 0.11691 0.0
C1009 C 0.12397 0.89943 0.14883 0.0
C1010 C 0.07394 0.87661 0.12956 0.0
C1011 C 0.10041 0.91163 0.16729 0.0
C1012 C 0.02451 0.8769 0.14521 0.0
C1013 C 0.02332 0.8221 0.12936 0.0
N1014 N 0.07643 0.89999 0.15775 0.0
N1015 N 0.0462 0.83617 0.12085 0.0
H1016 H 0.12976 0.85259 0.84978 0.0
H1017 H 0.13099 0.00826 0.8165 0.0
H1018 H 0.0627 0.90227 0.89484 0.0
H1019 H 0.20445 0.96496 0.84316 0.0
H1020 H 0.10594 0.96879 0.84421 0.0
H1021 H 0.15834 0.89229 0.84983 0.0
C1022 C 0.12116 0.87166 0.86118 0.0
C1023 C 0.0936 0.87412 0.87114 0.0
C1024 C 0.12755 0.96797 0.84455 0.0
C1025 C 0.12608 0.91957 0.87001 0.0
C1026 C 0.1419 0.99047 0.82828 0.0
C1027 C 0.1699 0.98992 0.82703 0.0
C1028 C 0.14119 0.94445 0.85868 0.0
C1029 C 0.18287 0.96626 0.84326 0.0
C1030 C 0.13748 0.89433 0.86089 0.0
C1031 C 0.08368 0.89937 0.88591 0.0
N1032 N 0.1684 0.94432 0.85767 0.0
N1033 N 0.09976 0.92116 0.88366 0.0
H1034 H 0.14128 0.13364 0.82965 0.0
H1035 H 0.98546 0.12733 0.8542 0.0
H1036 H 0.10134 0.06426 0.89548 0.0
H1037 H 0.02846 0.2021 0.85558 0.0
H1038 H 0.02733 0.10388 0.87286 0.0
H1039 H 0.10042 0.15951 0.8428 0.0
C1040 C 0.12403 0.12401 0.84797 0.0
C1041 C 0.12461 0.09675 0.8612 0.0
C1042 C 0.02749 0.12545 0.86996 0.0
C1043 C 0.07758 0.12604 0.87501 0.0
C1044 C 0.00361 0.13887 0.85907 0.0
C1045 C 0.00344 0.16674 0.85241 0.0
C1046 C 0.05145 0.13993 0.87326 0.0
C1047 C 0.02759 0.1806 0.85973 0.0
C1048 C 0.10071 0.13878 0.85546 0.0
C1049 C 0.10173 0.08525 0.88481 0.0
N1050 N 0.05066 0.16702 0.86879 0.0
N1051 N 0.07892 0.09982 0.88989 0.0
H1052 H 0.8521 0.14981 0.84428 0.0
H1053 H 0.85849 0.99757 0.88563 0.0
H1054 H 0.9145 0.11384 0.94184 0.0
H1055 H 0.78351 0.03782 0.85707 0.0
H1056 H 0.87787 0.03982 0.916 0.0
H1057 H 0.82451 0.11026 0.85879 0.0
C1058 C 0.85964 0.13385 0.87019 0.0
C1059 C 0.88566 0.13485 0.89135 0.0
C1060 C 0.85702 0.03931 0.90422 0.0
C1061 C 0.85466 0.08921 0.90652 0.0
C1062 C 0.84598 0.01522 0.8865 0.0
C1063 C 0.81951 0.01428 0.86748 0.0
C1064 C 0.84168 0.06274 0.90177 0.0
C1065 C 0.80413 0.03768 0.87048 0.0
C1066 C 0.84392 0.11125 0.87843 0.0
C1067 C 0.89454 0.11373 0.92466 0.0
N1068 N 0.81562 0.06109 0.886 0.0
N1069 N 0.87933 0.09137 0.92995 0.0
H1070 H 0.84426 0.84887 0.85695 0.0
H1071 H 0.00077 0.86015 0.81605 0.0
H1072 H 0.88903 0.92238 0.85895 0.0
H1073 H 0.96234 0.7839 0.84195 0.0
H1074 H 0.95981 0.88242 0.84089 0.0
H1075 H 0.88655 0.82383 0.86264 0.0
C1076 C 0.86291 0.85969 0.86028 0.0
C1077 C 0.86332 0.88765 0.85679 0.0
C1078 C 0.96024 0.86081 0.84182 0.0
C1079 C 0.91137 0.85944 0.86228 0.0
C1080 C 0.98383 0.84797 0.82762 0.0
C1081 C 0.98523 0.81999 0.82686 0.0
C1082 C 0.93739 0.84575 0.85437 0.0
C1083 C 0.96221 0.80552 0.84167 0.0
C1084 C 0.887 0.84545 0.86308 0.0
C1085 C 0.88792 0.9008 0.86079 0.0
N1086 N 0.93909 0.81858 0.85417 0.0
N1087 N 0.9109 0.88661 0.86263 0.0
H1088 H 0.64501 0.64288 0.64559 0.0
H1089 H 0.63426 0.48671 0.65035 0.0
H1090 H 0.57467 0.60117 0.58959 0.0
H1091 H 0.70996 0.52802 0.65432 0.0
H1092 H 0.61278 0.52798 0.62011 0.0
H1093 H 0.67029 0.60134 0.63908 0.0
C1094 C 0.63506 0.62511 0.63049 0.0
C1095 C 0.60761 0.62539 0.61891 0.0
C1096 C 0.63416 0.5279 0.62679 0.0
C1097 C 0.63622 0.57758 0.6129 0.0
C1098 C 0.64644 0.50435 0.64438 0.0
C1099 C 0.67392 0.50394 0.65595 0.0
C1100 C 0.64936 0.55134 0.62149 0.0
C1101 C 0.68867 0.5274 0.64672 0.0
C1102 C 0.64948 0.60134 0.62697 0.0
C1103 C 0.59575 0.60182 0.59929 0.0
N1104 N 0.67614 0.55022 0.63093 0.0
N1105 N 0.60998 0.57869 0.59818 0.0
H1106 H 0.52011 0.62924 0.67353 0.0
H1107 H 0.36232 0.62766 0.68024 0.0
H1108 H 0.47325 0.70163 0.66896 0.0
H1109 H 0.41087 0.5579 0.65021 0.0
H1110 H 0.40169 0.65578 0.66593 0.0
H1111 H 0.4799 0.60345 0.6564 0.0
C1112 C 0.50138 0.63978 0.66854 0.0
C1113 C 0.50008 0.66768 0.6734 0.0
C1114 C 0.40359 0.63435 0.66141 0.0
C1115 C 0.45364 0.63804 0.65421 0.0
C1116 C 0.38108 0.61827 0.66932 0.0
C1117 C 0.38342 0.59033 0.66743 0.0
C1118 C 0.42854 0.62234 0.65195 0.0
C1119 C 0.40822 0.57931 0.65304 0.0
C1120 C 0.47837 0.62499 0.65851 0.0
C1121 C 0.47519 0.68015 0.66597 0.0
N1122 N 0.42987 0.59531 0.64675 0.0
N1123 N 0.45286 0.6652 0.65757 0.0
H1124 H 0.36065 0.49925 0.73671 0.0
H1125 H 0.35735 0.34733 0.64224 0.0
H1126 H 0.29489 0.46829 0.64044 0.0
H1127 H 0.42766 0.38928 0.69785 0.0
H1128 H 0.33341 0.39037 0.63811 0.0
H1129 H 0.38464 0.45803 0.7219 0.0
C1130 C 0.35129 0.48394 0.7118 0.0
C1131 C 0.32573 0.48756 0.68933 0.0
C1132 C 0.35419 0.39004 0.65042 0.0
C1133 C 0.35321 0.43947 0.67307 0.0
C1134 C 0.36785 0.36557 0.65255 0.0
C1135 C 0.39437 0.36472 0.67128 0.0
C1136 C 0.36729 0.41355 0.66724 0.0
C1137 C 0.40707 0.38889 0.6842 0.0
C1138 C 0.36507 0.46022 0.70341 0.0
C1139 C 0.3146 0.46647 0.65841 0.0
N1140 N 0.39338 0.41215 0.68246 0.0
N1141 N 0.32834 0.44319 0.65151 0.0
H1142 H 0.65083 0.3544 0.6775 0.0
H1143 H 0.49834 0.35028 0.62002 0.0
H1144 H 0.61216 0.41217 0.57218 0.0
H1145 H 0.54186 0.28005 0.67032 0.0
H1146 H 0.54031 0.37115 0.59226 0.0
H1147 H 0.61288 0.32442 0.66521 0.0
C1148 C 0.63463 0.36051 0.65066 0.0
C1149 C 0.63441 0.38603 0.6267 0.0
C1150 C 0.5407 0.35096 0.60829 0.0
C1151 C 0.59063 0.35205 0.61349 0.0
C1152 C 0.51674 0.3391 0.62437 0.0
C1153 C 0.51671 0.3136 0.64834 0.0
C1154 C 0.56489 0.33753 0.6176 0.0
C1155 C 0.54103 0.29985 0.65242 0.0
C1156 C 0.61294 0.34336 0.64365 0.0
C1157 C 0.61303 0.3928 0.59192 0.0
N1158 N 0.56425 0.31224 0.63845 0.0
N1159 N 0.59167 0.37618 0.58748 0.0
H1160 H 0.6358 0.51261 0.35785 0.0
H1161 H 0.64564 0.35554 0.40519 0.0
H1162 H 0.71093 0.47073 0.37172 0.0
H1163 H 0.57357 0.39884 0.36764 0.0
H1164 H 0.66916 0.39832 0.41752 0.0
H1165 H 0.61258 0.47229 0.38519 0.0
C1166 C 0.64755 0.49505 0.36725 0.0
C1167 C 0.67545 0.49513 0.36158 0.0
C1168 C 0.64803 0.39841 0.40806 0.0
C1169 C 0.64862 0.44832 0.39225 0.0
C1170 C 0.63457 0.37405 0.40171 0.0
C1171 C 0.60773 0.37386 0.38528 0.0
C1172 C 0.63436 0.42247 0.398 0.0
C1173 C 0.59432 0.39826 0.38019 0.0
C1174 C 0.63417 0.4719 0.38287 0.0
C1175 C 0.68938 0.47157 0.37474 0.0
N1176 N 0.60783 0.42154 0.38588 0.0
N1177 N 0.67579 0.44898 0.38866 0.0
H1178 H 0.49471 0.64833 0.39031 0.0
H1179 H 0.6492 0.64258 0.34758 0.0
H1180 H 0.5398 0.7166 0.33458 0.0
H1181 H 0.60553 0.5845 0.44365 0.0
H1182 H 0.61152 0.67328 0.35586 0.0
H1183 H 0.53592 0.62774 0.42259 0.0
C1184 C 0.5133 0.65915 0.38554 0.0
C1185 C 0.51391 0.68396 0.35876 0.0
C1186 C 0.61043 0.65407 0.37629 0.0
C1187 C 0.56138 0.66029 0.39482 0.0
C1188 C 0.63203 0.63652 0.37177 0.0
C1189 C 0.63023 0.61056 0.3935 0.0
C1190 C 0.58685 0.64549 0.4023 0.0
C1191 C 0.60756 0.60403 0.42492 0.0
C1192 C 0.53687 0.64743 0.4042 0.0
C1193 C 0.5385 0.69729 0.3545 0.0
N1194 N 0.58653 0.62111 0.42726 0.0
N1195 N 0.56137 0.68501 0.37117 0.0
H1196 H 0.35085 0.654 0.3556 0.0
H1197 H 0.35305 0.5018 0.26878 0.0
H1198 H 0.4223 0.60876 0.32131 0.0
H1199 H 0.28546 0.53385 0.35805 0.0
H1200 H 0.37744 0.5424 0.28676 0.0
H1201 H 0.3254 0.61181 0.35875 0.0
C1202 C 0.36125 0.63524 0.34999 0.0
C1203 C 0.38862 0.63487 0.33729 0.0
C1204 C 0.35738 0.54058 0.30307 0.0
C1205 C 0.35982 0.587 0.34003 0.0
C1206 C 0.34334 0.51721 0.29285 0.0
C1207 C 0.31716 0.51404 0.31248 0.0
C1208 C 0.3452 0.5615 0.33231 0.0
C1209 C 0.30564 0.53532 0.34226 0.0
C1210 C 0.34674 0.61124 0.35153 0.0
C1211 C 0.40114 0.61005 0.33022 0.0
N1212 N 0.31968 0.55831 0.35092 0.0
N1213 N 0.38663 0.58726 0.33103 0.0
H1214 H 0.40087 0.44415 0.36547 0.0
H1215 H 0.46758 0.30014 0.32957 0.0
H1216 H 0.35556 0.37397 0.32139 0.0
H1217 H 0.51001 0.37512 0.32213 0.0
H1218 H 0.42625 0.32475 0.34958 0.0
H1219 H 0.44054 0.41642 0.37586 0.0
C1220 C 0.3991 0.42281 0.3591 0.0
C1221 C 0.37495 0.41147 0.34144 0.0
C1222 C 0.44471 0.33569 0.34402 0.0
C1223 C 0.42047 0.37964 0.35254 0.0
C1224 C 0.46827 0.32171 0.3326 0.0
C1225 C 0.49222 0.33563 0.32325 0.0
C1226 C 0.44525 0.3637 0.34695 0.0
C1227 C 0.49197 0.36356 0.32807 0.0
C1228 C 0.42182 0.40701 0.36474 0.0
C1229 C 0.37382 0.38361 0.33455 0.0
N1230 N 0.46888 0.37663 0.33938 0.0
N1231 N 0.39642 0.36867 0.3392 0.0
H1232 H 0.07453 0.32288 0.23355 0.0
H1233 H 0.22682 0.36061 0.23054 0.0
H1234 H 0.13445 0.26647 0.28627 0.0
H1235 H 0.16921 0.41756 0.29143 0.0
H1236 H 0.19229 0.32598 0.23227 0.0
H1237 H 0.10824 0.35856 0.23718 0.0
C1238 C 0.09474 0.31806 0.24599 0.0
C1239 C 0.10178 0.29177 0.25979 0.0
C1240 C 0.18728 0.34608 0.24523 0.0
C1241 C 0.14021 0.33208 0.26269 0.0
C1242 C 0.20685 0.36584 0.24396 0.0
C1243 C 0.20077 0.39192 0.26087 0.0
C1244 C 0.16131 0.35263 0.26211 0.0
C1245 C 0.17464 0.39762 0.27826 0.0
C1246 C 0.11383 0.33836 0.24822 0.0
C1247 C 0.1282 0.28651 0.27566 0.0
N1248 N 0.15569 0.37814 0.27786 0.0
N1249 N 0.14658 0.30645 0.27596 0.0
H1250 H 0.67469 0.08949 0.22798 0.0
H1251 H 0.6473 0.24431 0.23787 0.0
H1252 H 0.73633 0.14465 0.27794 0.0
H1253 H 0.58759 0.18866 0.29502 0.0
H1254 H 0.67998 0.20785 0.23529 0.0
H1255 H 0.64172 0.12565 0.23557 0.0
C1256 C 0.68125 0.10921 0.24049 0.0
C1257 C 0.7082 0.11417 0.25251 0.0
C1258 C 0.65972 0.20371 0.2485 0.0
C1259 C 0.6709 0.1554 0.26014 0.0
C1260 C 0.64108 0.22439 0.24973 0.0
C1261 C 0.61478 0.21939 0.26671 0.0
C1262 C 0.65178 0.17778 0.26291 0.0
C1263 C 0.60775 0.19329 0.28193 0.0
C1264 C 0.66247 0.1297 0.24504 0.0
C1265 C 0.7157 0.14001 0.26866 0.0
N1266 N 0.6261 0.17331 0.27906 0.0
N1267 N 0.69717 0.15979 0.27139 0.0
H1268 H 0.78504 0.6189 0.16706 0.0
H1269 H 0.89042 0.70814 0.328 0.0
H1270 H 0.80903 0.60192 0.33483 0.0
H1271 H 0.89204 0.70037 0.15028 0.0
H1272 H 0.85705 0.67255 0.33237 0.0
H1273 H 0.82075 0.65225 0.16087 0.0
C1274 C 0.79785 0.62213 0.20252 0.0
C1275 C 0.79409 0.60759 0.25152 0.0
C1276 C 0.86483 0.67853 0.29247 0.0
C1277 C 0.83465 0.64587 0.24487 0.0
C1278 C 0.8838 0.69889 0.2899 0.0
C1279 C 0.89404 0.70717 0.23869 0.0
C1280 C 0.85562 0.66672 0.24342 0.0
C1281 C 0.88476 0.69447 0.19063 0.0
C1282 C 0.81825 0.64107 0.19886 0.0
C1283 C 0.81129 0.61259 0.29617 0.0
N1284 N 0.86586 0.67502 0.19411 0.0
N1285 N 0.83067 0.63148 0.29195 0.0
H1286 H 0.28053 0.87447 0.32919 0.0
H1287 H 0.38395 0.78757 0.15391 0.0
H1288 H 0.29658 0.89036 0.15692 0.0
H1289 H 0.38831 0.79585 0.33135 0.0
H1290 H 0.3478 0.82067 0.15245 0.0
H1291 H 0.31591 0.84085 0.3289 0.0
C1292 C 0.29146 0.87087 0.29125 0.0
C1293 C 0.28567 0.88535 0.24306 0.0
C1294 C 0.35673 0.81521 0.19161 0.0
C1295 C 0.32605 0.84668 0.24239 0.0
C1296 C 0.37727 0.79627 0.19252 0.0
C1297 C 0.38923 0.789 0.2428 0.0
C1298 C 0.34782 0.82658 0.24142 0.0
C1299 C 0.37979 0.80096 0.29159 0.0
C1300 C 0.31171 0.85172 0.29119 0.0
C1301 C 0.30051 0.87978 0.1951 0.0
N1302 N 0.35958 0.81903 0.2897 0.0
N1303 N 0.31995 0.86078 0.19589 0.0
H1304 H 0.17676 0.58182 0.69659 0.0
H1305 H 0.13886 0.73452 0.71896 0.0
H1306 H 0.23136 0.63965 0.76519 0.0
H1307 H 0.08097 0.67434 0.76303 0.0
H1308 H 0.17325 0.69985 0.71378 0.0
H1309 H 0.14111 0.61573 0.69936 0.0
C1310 C 0.18123 0.60166 0.71191 0.0
C1311 C 0.20691 0.60802 0.73092 0.0
C1312 C 0.15298 0.6943 0.72439 0.0
C1313 C 0.16675 0.64661 0.73305 0.0
C1314 C 0.13336 0.71397 0.72715 0.0
C1315 C 0.10711 0.70722 0.74163 0.0
C1316 C 0.14614 0.66762 0.73476 0.0
C1317 C 0.10106 0.68032 0.75206 0.0
C1318 C 0.16095 0.62083 0.71372 0.0
C1319 C 0.21175 0.63392 0.75054 0.0
N1320 N 0.12044 0.66136 0.74797 0.0
N1321 N 0.19191 0.65238 0.7506 0.0
H1322 H 0.39042 0.20041 0.66742 0.0
H1323 H 0.30269 0.10192 0.85255 0.0
H1324 H 0.38749 0.20679 0.84534 0.0
H1325 H 0.28624 0.11776 0.68045 0.0
H1326 H 0.33747 0.13648 0.85056 0.0
H1327 H 0.35571 0.16622 0.67123 0.0
C1328 C 0.38247 0.19462 0.70734 0.0
C1329 C 0.39186 0.2065 0.75617 0.0
C1330 C 0.32619 0.13234 0.81333 0.0
C1331 C 0.35224 0.16714 0.76078 0.0
C1332 C 0.30647 0.11256 0.81434 0.0
C1333 C 0.29158 0.10692 0.76656 0.0
C1334 C 0.33129 0.14626 0.76401 0.0
C1335 C 0.29719 0.12144 0.71828 0.0
C1336 C 0.3626 0.17515 0.70944 0.0
C1337 C 0.38075 0.19823 0.80668 0.0
N1338 N 0.31667 0.14031 0.71818 0.0
N1339 N 0.36162 0.17891 0.80774 0.0
H1340 H 0.8839 0.2871 0.67718 0.0
H1341 H 0.7869 0.38117 0.84992 0.0
H1342 H 0.89345 0.29885 0.85289 0.0
H1343 H 0.80298 0.39385 0.67652 0.0
H1344 H 0.82213 0.34716 0.85194 0.0
H1345 H 0.85024 0.32254 0.67604 0.0
C1346 C 0.87895 0.29716 0.7155 0.0
C1347 C 0.89154 0.29008 0.76518 0.0
C1348 C 0.81798 0.35752 0.81359 0.0
C1349 C 0.85284 0.33035 0.76422 0.0
C1350 C 0.79785 0.37683 0.81234 0.0
C1351 C 0.79205 0.3904 0.76302 0.0
C1352 C 0.83202 0.35137 0.76494 0.0
C1353 C 0.80688 0.38399 0.71553 0.0
C1354 C 0.85981 0.31742 0.71476 0.0
C1355 C 0.88434 0.3038 0.81361 0.0
N1356 N 0.82603 0.36478 0.71756 0.0
N1357 N 0.86529 0.32314 0.81202 0.0
H1358 H 0.71316 0.88946 0.65849 0.0
H1359 H 0.62571 0.78401 0.82451 0.0
H1360 H 0.70383 0.89174 0.8359 0.0
H1361 H 0.60784 0.8045 0.65517 0.0
H1362 H 0.65885 0.81972 0.82708 0.0
H1363 H 0.67884 0.85448 0.65399 0.0
C1364 C 0.70395 0.88258 0.69644 0.0
C1365 C 0.71133 0.89353 0.74764 0.0
C1366 C 0.64761 0.81648 0.78943 0.0
C1367 C 0.67242 0.85353 0.74276 0.0
C1368 C 0.62873 0.79607 0.78785 0.0
C1369 C 0.61393 0.79136 0.73959 0.0
C1370 C 0.65211 0.83205 0.74212 0.0
C1371 C 0.61871 0.80761 0.69332 0.0
C1372 C 0.68432 0.86276 0.69378 0.0
C1373 C 0.69869 0.88395 0.79552 0.0
N1374 N 0.63758 0.82715 0.69556 0.0
N1375 N 0.68001 0.86438 0.79193 0.0
H1376 H 0.03573 0.1782 0.39448 0.0
H1377 H 0.96827 0.26232 0.63955 0.0
H1378 H 0.01038 0.25989 0.37105 0.0
H1379 H 0.99209 0.17966 0.6483 0.0
H1380 H 0.9862 0.26431 0.54443 0.0
H1381 H 0.02199 0.18063 0.48996 0.0
C1382 C 0.02725 0.19677 0.40928 0.0
C1383 C 0.02426 0.21889 0.37416 0.0
C1384 C 0.98764 0.24586 0.56756 0.0
C1385 C 0.00813 0.22177 0.48517 0.0
C1386 C 0.97762 0.24479 0.62185 0.0
C1387 C 0.97851 0.22073 0.65166 0.0
C1388 C 0.99873 0.22276 0.54356 0.0
C1389 C 0.99063 0.19854 0.62673 0.0
C1390 C 0.01936 0.19814 0.46427 0.0
C1391 C 0.01302 0.2423 0.39648 0.0
N1392 N 0.0001 0.2001 0.57439 0.0
N1393 N 0.00529 0.24313 0.45064 0.0
H1394 H 0.80973 0.01329 0.65256 0.0
H1395 H 0.73046 0.02059 0.36593 0.0
H1396 H 0.73396 0.97349 0.63226 0.0
H1397 H 0.81491 0.03497 0.38697 0.0
H1398 H 0.72752 0.00885 0.46471 0.0
H1399 H 0.80718 0.0289 0.55778 0.0
C1400 C 0.79231 0.0081 0.62828 0.0
C1401 C 0.77215 0.99181 0.65028 0.0
C1402 C 0.7466 0.01465 0.44737 0.0
C1403 C 0.76929 0.0094 0.54056 0.0
C1404 C 0.74833 0.02131 0.39107 0.0
C1405 C 0.77295 0.02901 0.36785 0.0
C1406 C 0.76956 0.01603 0.48063 0.0
C1407 C 0.79542 0.02946 0.40257 0.0
C1408 C 0.79094 0.01691 0.57389 0.0
C1409 C 0.74992 0.98604 0.61688 0.0
N1410 N 0.79311 0.02324 0.45689 0.0
N1411 N 0.74918 0.9946 0.56326 0.0
H1412 H 0.04638 0.81413 0.598 0.0
H1413 H 0.96956 0.73428 0.35928 0.0
H1414 H 0.01244 0.736 0.62624 0.0
H1415 H 0.99969 0.81468 0.34644 0.0
H1416 H 0.98927 0.73113 0.45266 0.0
H1417 H 0.03336 0.8114 0.50211 0.0
C1418 C 0.03625 0.79625 0.58414 0.0
C1419 C 0.03049 0.77528 0.62079 0.0
C1420 C 0.9918 0.74929 0.42895 0.0
C1421 C 0.01506 0.77215 0.50946 0.0
C1422 C 0.9808 0.75099 0.37563 0.0
C1423 C 0.98292 0.77483 0.34541 0.0
C1424 C 0.00512 0.77153 0.45149 0.0
C1425 C 0.99736 0.79603 0.36854 0.0
C1426 C 0.02875 0.79472 0.52894 0.0
C1427 C 0.01724 0.75269 0.59961 0.0
N1428 N 0.00774 0.7939 0.42004 0.0
N1429 N 0.0098 0.75177 0.54533 0.0
H1430 H 0.24851 0.98551 0.66939 0.0
H1431 H 0.24825 0.00887 0.34124 0.0
H1432 H 0.22858 0.06054 0.59262 0.0
H1433 H 0.22959 0.93337 0.41746 0.0
H1434 H 0.25617 0.02795 0.43368 0.0
H1435 H 0.25645 0.96631 0.57702 0.0
C1436 C 0.24639 0.99805 0.63315 0.0
C1437 C 0.23755 0.02448 0.63826 0.0
C1438 C 0.25089 0.00706 0.42992 0.0
C1439 C 0.24681 0.00294 0.53332 0.0
C1440 C 0.2466 0.99617 0.37734 0.0
C1441 C 0.23809 0.96964 0.3721 0.0
C1442 C 0.24708 0.99111 0.47714 0.0
C1443 C 0.23589 0.95401 0.42004 0.0
C1444 C 0.25078 0.98711 0.58064 0.0
C1445 C 0.23494 0.03993 0.59019 0.0
N1446 N 0.24021 0.965 0.47062 0.0
N1447 N 0.23945 0.02893 0.53968 0.0
H1448 H 0.51724 0.76212 0.85223 0.0
H1449 H 0.52163 0.70137 0.15863 0.0
H1450 H 0.55883 0.69049 0.90204 0.0
H1451 H 0.46738 0.76477 0.11497 0.0
H1452 H 0.54089 0.70334 0.06657 0.0
H1453 H 0.50292 0.76848 0.94891 0.0
C1454 C 0.52352 0.74786 0.88328 0.0
C1455 C 0.53932 0.72572 0.86864 0.0
C1456 C 0.52496 0.71709 0.0769 0.0
C1457 C 0.52328 0.73305 0.97896 0.0
C1458 C 0.51407 0.71607 0.12971 0.0
C1459 C 0.49284 0.73285 0.14429 0.0
C1460 C 0.51435 0.73478 0.03757 0.0
C1461 C 0.48387 0.7516 0.10528 0.0
C1462 C 0.51535 0.75153 0.93837 0.0
C1463 C 0.54676 0.7079 0.91075 0.0
N1464 N 0.49444 0.75183 0.05319 0.0
N1465 N 0.53871 0.71198 0.96354 0.0
H1466 H 0.24696 0.48824 0.83188 0.0
H1467 H 0.24025 0.51084 0.15931 0.0
H1468 H 0.26501 0.56357 0.90969 0.0
H1469 H 0.26646 0.43709 0.08489 0.0
H1470 H 0.2339 0.52971 0.06632 0.0
H1471 H 0.23861 0.46883 0.9238 0.0
C1472 C 0.24847 0.50082 0.86819 0.0
C1473 C 0.25687 0.52742 0.86354 0.0
C1474 C 0.24057 0.50924 0.07058 0.0
C1475 C 0.24719 0.5056 0.96789 0.0
C1476 C 0.24405 0.49845 0.12343 0.0
C1477 C 0.25415 0.47251 0.12954 0.0
C1478 C 0.24667 0.49371 0.02385 0.0
C1479 C 0.25896 0.4573 0.0818 0.0
C1480 C 0.24389 0.48975 0.92044 0.0
C1481 C 0.25882 0.54289 0.91177 0.0
N1482 N 0.25525 0.46815 0.0309 0.0
N1483 N 0.2541 0.53174 0.96203 0.0
H1484 H 0.51164 0.24217 0.15348 0.0
H1485 H 0.52841 0.28486 0.83625 0.0
H1486 H 0.56265 0.30493 0.09166 0.0
H1487 H 0.46427 0.23387 0.89042 0.0
H1488 H 0.54738 0.28351 0.92888 0.0
H1489 H 0.49901 0.23155 0.05742 0.0
C1490 C 0.52038 0.25353 0.11993 0.0
C1491 C 0.53815 0.27463 0.13091 0.0
C1492 C 0.52939 0.27218 0.92063 0.0
C1493 C 0.52411 0.26235 0.02145 0.0
C1494 C 0.51876 0.27274 0.86756 0.0
C1495 C 0.49489 0.25936 0.85589 0.0
C1496 C 0.51578 0.2586 0.96296 0.0
C1497 C 0.48293 0.24417 0.89791 0.0
C1498 C 0.51316 0.24745 0.06523 0.0
C1499 C 0.54881 0.28864 0.08574 0.0
N1500 N 0.49327 0.24454 0.95011 0.0
N1501 N 0.54162 0.28228 0.0334 0.0
H1502 H 0.763 0.47514 0.87755 0.0
H1503 H 0.67677 0.53352 0.12949 0.0
H1504 H 0.67719 0.48342 0.87978 0.0
H1505 H 0.76133 0.51824 0.14512 0.0
H1506 H 0.67824 0.51738 0.03536 0.0
H1507 H 0.7645 0.49327 0.97232 0.0
C1508 C 0.74456 0.48095 0.89761 0.0
C1509 C 0.71993 0.47762 0.87054 0.0
C1510 C 0.69656 0.51745 0.0591 0.0
C1511 C 0.72151 0.49821 0.9786 0.0
C1512 C 0.69575 0.52673 0.11327 0.0
C1513 C 0.71898 0.5273 0.14578 0.0
C1514 C 0.72078 0.50854 0.03639 0.0
C1515 C 0.7429 0.51812 0.12176 0.0
C1516 C 0.74542 0.49114 0.95175 0.0
C1517 C 0.69666 0.48537 0.89875 0.0
N1518 N 0.7432 0.50912 0.06842 0.0
N1519 N 0.69807 0.4952 0.95088 0.0
loop_
_geom_bond_atom_site_label_1
_geom_bond_atom_site_label_2
_geom_bond_distance
_geom_bond_site_symmetry_2
_ccdc_geom_bond_type
Co0 O2 2.143 . S
Co0 O8 2.074 . S
Co0 O11 2.093 . S
Co0 O24 2.097 . S
Co0 N41 2.151 . S
Co0 N49 2.214 . S
Co1 O2 2.160 . S
Co1 O7 2.058 . S
Co1 O17 2.057 . S
Co1 O32 2.037 . S
Co1 N36 2.145 . S
Co1 N57 2.257 . S
O2 Co0 2.143 . S
O2 Co1 2.160 . S
C3 O4 1.278 . S
C3 O11 1.224 . S
O4 C3 1.278 . S
C5 O6 1.245 . S
C5 O17 1.232 . S
O6 C5 1.245 . S
O7 Co1 2.058 . S
O7 C33 1.269 . S
O8 Co0 2.074 . S
O8 C33 1.257 . S
H9 C34 0.930 . S
H10 C40 0.930 . S
O11 Co0 2.093 . S
O11 C3 1.224 . S
H12 C44 0.929 . S
H13 C46 0.930 . S
H14 C47 0.924 1_655 S
H15 C45 0.929 . S
H16 C48 0.928 . S
O17 Co1 2.057 . S
O17 C5 1.232 . S
H18 C37 0.929 . S
H19 C38 0.929 . S
H20 C50 0.931 . S
H21 C42 0.929 . S
H22 C51 0.911 1_655 S
H23 C43 0.931 . S
O24 Co0 2.097 . S
O24 C52 1.214 . S
H25 C53 0.930 1_556 S
H26 C54 0.929 . S
H27 C55 0.936 . S
H28 C56 0.929 . S
H29 C58 0.930 . S
H30 C35 0.930 . S
H31 C39 0.930 . S
O32 Co1 2.037 . S
O32 C52 1.234 . S
C33 O7 1.269 . S
C33 O8 1.257 . S
C34 H9 0.930 . S
C34 C37 1.388 . S
C34 C39 1.418 . S
C35 H30 0.930 . S
C35 C38 1.404 . S
C35 C39 1.353 1_455 S
N36 Co1 2.145 . S
N36 C37 1.397 1_455 S
N36 C38 1.334 . S
C37 H18 0.929 . S
C37 C34 1.388 . S
C37 N36 1.397 1_655 S
C38 H19 0.929 . S
C38 C35 1.404 . S
C38 N36 1.334 . S
C39 H31 0.930 . S
C39 C34 1.418 . S
C39 C35 1.353 1_655 S
C40 H10 0.930 . S
C40 N41 1.330 . S
C40 C42 1.446 . S
N41 Co0 2.151 . S
N41 C40 1.330 . S
N41 C45 1.418 . S
C42 H21 0.929 . S
C42 C40 1.446 . S
C42 C43 1.332 . S
C43 H23 0.931 . S
C43 C42 1.332 . S
C43 C44 1.267 . S
C44 H12 0.929 . S
C44 C43 1.267 . S
C44 C45 1.251 . S
C45 H15 0.929 . S
C45 N41 1.418 . S
C45 C44 1.251 . S
C46 H13 0.930 . S
C46 C48 1.406 . S
C46 C51 1.261 . S
C47 H14 0.924 1_455 S
C47 N49 1.325 . S
C47 C50 1.357 1_455 S
C48 H16 0.928 . S
C48 C46 1.406 . S
C48 N49 1.261 . S
N49 Co0 2.214 . S
N49 C47 1.325 . S
N49 C48 1.261 . S
C50 H20 0.931 . S
C50 C47 1.357 1_655 S
C50 C51 1.312 1_655 S
C51 H22 0.911 1_455 S
C51 C46 1.261 . S
C51 C50 1.312 1_455 S
C52 O24 1.214 . S
C52 O32 1.234 . S
C53 H25 0.930 1_554 S
C53 C56 1.391 1_554 S
C53 C58 1.391 . S
C54 H26 0.929 . S
C54 C55 1.380 1_554 S
C54 N57 1.391 . S
C55 H27 0.936 . S
C55 C54 1.380 1_556 S
C55 C56 1.395 . S
C56 H28 0.929 . S
C56 C53 1.391 1_556 S
C56 C55 1.395 . S
N57 Co1 2.257 . S
N57 C54 1.391 . S
N57 C58 1.388 . S
C58 H29 0.930 . S
C58 C53 1.391 . S
C58 N57 1.388 . S
Co59 O61 2.143 . S
Co59 O67 2.074 . S
Co59 O70 2.093 . S
Co59 O83 2.097 . S
Co59 N100 2.151 . S
Co59 N108 2.214 . S
Co60 O61 2.160 . S
Co60 O66 2.058 . S
Co60 O76 2.057 . S
Co60 O91 2.037 . S
Co60 N95 2.145 . S
Co60 N116 2.257 . S
O61 Co59 2.143 . S
O61 Co60 2.160 . S
C62 O63 1.278 . S
C62 O70 1.224 . S
O63 C62 1.278 . S
C64 O65 1.245 . S
C64 O76 1.232 . S
O65 C64 1.245 . S
O66 Co60 2.058 . S
O66 C92 1.269 . S
O67 Co59 2.074 . S
O67 C92 1.257 . S
H68 C93 0.930 . S
H69 C99 0.930 . S
O70 Co59 2.093 . S
O70 C62 1.224 . S
H71 C103 0.929 . S
H72 C105 0.930 . S
H73 C106 0.924 1_565 S
H74 C104 0.929 . S
H75 C107 0.928 . S
O76 Co60 2.057 . S
O76 C64 1.232 . S
H77 C96 0.929 . S
H78 C97 0.929 . S
H79 C109 0.931 . S
H80 C101 0.929 . S
H81 C110 0.911 1_565 S
H82 C102 0.931 . S
O83 Co59 2.097 . S
O83 C111 1.214 . S
H84 C112 0.930 1_556 S
H85 C113 0.929 . S
H86 C114 0.936 . S
H87 C115 0.929 . S
H88 C117 0.930 . S
H89 C94 0.930 . S
H90 C98 0.930 . S
O91 Co60 2.037 . S
O91 C111 1.234 . S
C92 O66 1.269 . S
C92 O67 1.257 . S
C93 H68 0.930 . S
C93 C96 1.388 . S
C93 C98 1.418 . S
C94 H89 0.930 . S
C94 C97 1.404 . S
C94 C98 1.353 1_545 S
N95 Co60 2.145 . S
N95 C96 1.397 1_545 S
N95 C97 1.334 . S
C96 H77 0.929 . S
C96 C93 1.388 . S
C96 N95 1.397 1_565 S
C97 H78 0.929 . S
C97 C94 1.404 . S
C97 N95 1.334 . S
C98 H90 0.930 . S
C98 C93 1.418 . S
C98 C94 1.353 1_565 S
C99 H69 0.930 . S
C99 N100 1.330 . S
C99 C101 1.446 . S
N100 Co59 2.151 . S
N100 C99 1.330 . S
N100 C104 1.418 . S
C101 H80 0.929 . S
C101 C99 1.446 . S
C101 C102 1.332 . S
C102 H82 0.931 . S
C102 C101 1.332 . S
C102 C103 1.267 . S
C103 H71 0.929 . S
C103 C102 1.267 . S
C103 C104 1.251 . S
C104 H74 0.929 . S
C104 N100 1.418 . S
C104 C103 1.251 . S
C105 H72 0.930 . S
C105 C107 1.406 . S
C105 C110 1.261 . S
C106 H73 0.924 1_545 S
C106 N108 1.325 . S
C106 C109 1.357 1_545 S
C107 H75 0.928 . S
C107 C105 1.406 . S
C107 N108 1.261 . S
N108 Co59 2.214 . S
N108 C106 1.325 . S
N108 C107 1.261 . S
C109 H79 0.931 . S
C109 C106 1.357 1_565 S
C109 C110 1.312 1_565 S
C110 H81 0.911 1_545 S
C110 C105 1.261 . S
C110 C109 1.312 1_545 S
C111 O83 1.214 . S
C111 O91 1.234 . S
C112 H84 0.930 1_554 S
C112 C115 1.391 1_554 S
C112 C117 1.391 . S
C113 H85 0.929 . S
C113 C114 1.380 1_554 S
C113 N116 1.391 . S
C114 H86 0.936 . S
C114 C113 1.380 1_556 S
C114 C115 1.395 . S
C115 H87 0.929 . S
C115 C112 1.391 1_556 S
C115 C114 1.395 . S
N116 Co60 2.257 . S
N116 C113 1.391 . S
N116 C117 1.388 . S
C117 H88 0.930 . S
C117 C112 1.391 . S
C117 N116 1.388 . S
Co118 O120 2.143 . S
Co118 O126 2.074 . S
Co118 O129 2.093 . S
Co118 O142 2.097 . S
Co118 N159 2.151 . S
Co118 N167 2.214 . S
Co119 O120 2.160 . S
Co119 O125 2.058 . S
Co119 O135 2.057 . S
Co119 O150 2.037 . S
Co119 N154 2.145 . S
Co119 N175 2.257 . S
O120 Co118 2.143 . S
O120 Co119 2.160 . S
C121 O122 1.278 . S
C121 O129 1.224 . S
O122 C121 1.278 . S
C123 O124 1.245 . S
C123 O135 1.232 . S
O124 C123 1.245 . S
O125 Co119 2.058 . S
O125 C151 1.269 . S
O126 Co118 2.074 . S
O126 C151 1.257 . S
H127 C152 0.930 . S
H128 C158 0.930 . S
O129 Co118 2.093 . S
O129 C121 1.224 . S
H130 C162 0.929 . S
H131 C164 0.930 . S
H132 C165 0.924 1_455 S
H133 C163 0.929 . S
H134 C166 0.928 . S
O135 Co119 2.057 . S
O135 C123 1.232 . S
H136 C155 0.929 . S
H137 C156 0.929 . S
H138 C168 0.931 . S
H139 C160 0.929 . S
H140 C169 0.911 1_455 S
H141 C161 0.931 . S
O142 Co118 2.097 . S
O142 C170 1.214 . S
H143 C171 0.930 1_556 S
H144 C172 0.929 . S
H145 C173 0.936 . S
H146 C174 0.929 . S
H147 C176 0.930 . S
H148 C153 0.930 . S
H149 C157 0.930 . S
O150 Co119 2.037 . S
O150 C170 1.234 . S
C151 O125 1.269 . S
C151 O126 1.257 . S
C152 H127 0.930 . S
C152 C155 1.388 . S
C152 C157 1.418 . S
C153 H148 0.930 . S
C153 C156 1.404 . S
C153 C157 1.353 1_655 S
N154 Co119 2.145 . S
N154 C155 1.397 1_655 S
N154 C156 1.334 . S
C155 H136 0.929 . S
C155 C152 1.388 . S
C155 N154 1.397 1_455 S
C156 H137 0.929 . S
C156 C153 1.404 . S
C156 N154 1.334 . S
C157 H149 0.930 . S
C157 C152 1.418 . S
C157 C153 1.353 1_455 S
C158 H128 0.930 . S
C158 N159 1.330 . S
C158 C160 1.446 . S
N159 Co118 2.151 . S
N159 C158 1.330 . S
N159 C163 1.418 . S
C160 H139 0.929 . S
C160 C158 1.446 . S
C160 C161 1.332 . S
C161 H141 0.931 . S
C161 C160 1.332 . S
C161 C162 1.267 . S
C162 H130 0.929 . S
C162 C161 1.267 . S
C162 C163 1.251 . S
C163 H133 0.929 . S
C163 N159 1.418 . S
C163 C162 1.251 . S
C164 H131 0.930 . S
C164 C166 1.406 . S
C164 C169 1.261 . S
C165 H132 0.924 1_655 S
C165 N167 1.325 . S
C165 C168 1.357 1_655 S
C166 H134 0.928 . S
C166 C164 1.406 . S
C166 N167 1.261 . S
N167 Co118 2.214 . S
N167 C165 1.325 . S
N167 C166 1.261 . S
C168 H138 0.931 . S
C168 C165 1.357 1_455 S
C168 C169 1.312 1_455 S
C169 H140 0.911 1_655 S
C169 C164 1.261 . S
C169 C168 1.312 1_655 S
C170 O142 1.214 . S
C170 O150 1.234 . S
C171 H143 0.930 1_554 S
C171 C174 1.391 1_554 S
C171 C176 1.391 . S
C172 H144 0.929 . S
C172 C173 1.380 1_554 S
C172 N175 1.391 . S
C173 H145 0.936 . S
C173 C172 1.380 1_556 S
C173 C174 1.395 . S
C174 H146 0.929 . S
C174 C171 1.391 1_556 S
C174 C173 1.395 . S
N175 Co119 2.257 . S
N175 C172 1.391 . S
N175 C176 1.388 . S
C176 H147 0.930 . S
C176 C171 1.391 . S
C176 N175 1.388 . S
Co177 O179 2.143 . S
Co177 O185 2.074 . S
Co177 O188 2.093 . S
Co177 O201 2.097 . S
Co177 N218 2.151 . S
Co177 N226 2.214 . S
Co178 O179 2.160 . S
Co178 O184 2.058 . S
Co178 O194 2.057 . S
Co178 O209 2.037 . S
Co178 N213 2.145 . S
Co178 N234 2.257 . S
O179 Co177 2.143 . S
O179 Co178 2.160 . S
C180 O181 1.278 . S
C180 O188 1.224 . S
O181 C180 1.278 . S
C182 O183 1.245 . S
C182 O194 1.232 . S
O183 C182 1.245 . S
O184 Co178 2.058 . S
O184 C210 1.269 . S
O185 Co177 2.074 . S
O185 C210 1.257 . S
H186 C211 0.930 . S
H187 C217 0.930 . S
O188 Co177 2.093 . S
O188 C180 1.224 . S
H189 C221 0.929 . S
H190 C223 0.930 . S
H191 C224 0.924 1_545 S
H192 C222 0.929 . S
H193 C225 0.928 . S
O194 Co178 2.057 . S
O194 C182 1.232 . S
H195 C214 0.929 . S
H196 C215 0.929 . S
H197 C227 0.931 . S
H198 C219 0.929 . S
H199 C228 0.911 1_545 S
H200 C220 0.931 . S
O201 Co177 2.097 . S
O201 C229 1.214 . S
H202 C230 0.930 1_556 S
H203 C231 0.929 . S
H204 C232 0.936 . S
H205 C233 0.929 . S
H206 C235 0.930 . S
H207 C212 0.930 . S
H208 C216 0.930 . S
O209 Co178 2.037 . S
O209 C229 1.234 . S
C210 O184 1.269 . S
C210 O185 1.257 . S
C211 H186 0.930 . S
C211 C214 1.388 . S
C211 C216 1.418 . S
C212 H207 0.930 . S
C212 C215 1.404 . S
C212 C216 1.353 1_565 S
N213 Co178 2.145 . S
N213 C214 1.397 1_565 S
N213 C215 1.334 . S
C214 H195 0.929 . S
C214 C211 1.388 . S
C214 N213 1.397 1_545 S
C215 H196 0.929 . S
C215 C212 1.404 . S
C215 N213 1.334 . S
C216 H208 0.930 . S
C216 C211 1.418 . S
C216 C212 1.353 1_545 S
C217 H187 0.930 . S
C217 N218 1.330 . S
C217 C219 1.446 . S
N218 Co177 2.151 . S
N218 C217 1.330 . S
N218 C222 1.418 . S
C219 H198 0.929 . S
C219 C217 1.446 . S
C219 C220 1.332 . S
C220 H200 0.931 . S
C220 C219 1.332 . S
C220 C221 1.267 . S
C221 H189 0.929 . S
C221 C220 1.267 . S
C221 C222 1.251 . S
C222 H192 0.929 . S
C222 N218 1.418 . S
C222 C221 1.251 . S
C223 H190 0.930 . S
C223 C225 1.406 . S
C223 C228 1.261 . S
C224 H191 0.924 1_565 S
C224 N226 1.325 . S
C224 C227 1.357 1_565 S
C225 H193 0.928 . S
C225 C223 1.406 . S
C225 N226 1.261 . S
N226 Co177 2.214 . S
N226 C224 1.325 . S
N226 C225 1.261 . S
C227 H197 0.931 . S
C227 C224 1.357 1_545 S
C227 C228 1.312 1_545 S
C228 H199 0.911 1_565 S
C228 C223 1.261 . S
C228 C227 1.312 1_565 S
C229 O201 1.214 . S
C229 O209 1.234 . S
C230 H202 0.930 1_554 S
C230 C233 1.391 1_554 S
C230 C235 1.391 . S
C231 H203 0.929 . S
C231 C232 1.380 1_554 S
C231 N234 1.391 . S
C232 H204 0.936 . S
C232 C231 1.380 1_556 S
C232 C233 1.395 . S
C233 H205 0.929 . S
C233 C230 1.391 1_556 S
C233 C232 1.395 . S
N234 Co178 2.257 . S
N234 C231 1.391 . S
N234 C235 1.388 . S
C235 H206 0.930 . S
C235 C230 1.391 . S
C235 N234 1.388 . S
Co236 O238 2.143 . S
Co236 O244 2.074 . S
Co236 O247 2.093 . S
Co236 O260 2.097 . S
Co236 N277 2.151 . S
Co236 N285 2.214 . S
Co237 O238 2.160 . S
Co237 O243 2.058 . S
Co237 O253 2.057 . S
Co237 O268 2.037 . S
Co237 N272 2.145 . S
Co237 N293 2.257 . S
O238 Co236 2.143 . S
O238 Co237 2.160 . S
C239 O240 1.278 . S
C239 O247 1.224 . S
O240 C239 1.278 . S
C241 O242 1.245 . S
C241 O253 1.232 . S
O242 C241 1.245 . S
O243 Co237 2.058 . S
O243 C269 1.269 . S
O244 Co236 2.074 . S
O244 C269 1.257 . S
H245 C270 0.930 . S
H246 C276 0.930 . S
O247 Co236 2.093 . S
O247 C239 1.224 . S
H248 C280 0.929 . S
H249 C282 0.930 . S
H250 C283 0.924 1_655 S
H251 C281 0.929 . S
H252 C284 0.928 . S
O253 Co237 2.057 . S
O253 C241 1.232 . S
H254 C273 0.929 . S
H255 C274 0.929 . S
H256 C286 0.931 . S
H257 C278 0.929 . S
H258 C287 0.911 1_655 S
H259 C279 0.931 . S
O260 Co236 2.097 . S
O260 C288 1.214 . S
H261 C289 0.930 1_554 S
H262 C290 0.929 . S
H263 C291 0.936 . S
H264 C292 0.929 . S
H265 C294 0.930 . S
H266 C271 0.930 . S
H267 C275 0.930 . S
O268 Co237 2.037 . S
O268 C288 1.234 . S
C269 O243 1.269 . S
C269 O244 1.257 . S
C270 H245 0.930 . S
C270 C273 1.388 . S
C270 C275 1.418 . S
C271 H266 0.930 . S
C271 C274 1.404 . S
C271 C275 1.353 1_455 S
N272 Co237 2.145 . S
N272 C273 1.397 1_455 S
N272 C274 1.334 . S
C273 H254 0.929 . S
C273 C270 1.388 . S
C273 N272 1.397 1_655 S
C274 H255 0.929 . S
C274 C271 1.404 . S
C274 N272 1.334 . S
C275 H267 0.930 . S
C275 C270 1.418 . S
C275 C271 1.353 1_655 S
C276 H246 0.930 . S
C276 N277 1.330 . S
C276 C278 1.446 . S
N277 Co236 2.151 . S
N277 C276 1.330 . S
N277 C281 1.418 . S
C278 H257 0.929 . S
C278 C276 1.446 . S
C278 C279 1.332 . S
C279 H259 0.931 . S
C279 C278 1.332 . S
C279 C280 1.267 . S
C280 H248 0.929 . S
C280 C279 1.267 . S
C280 C281 1.251 . S
C281 H251 0.929 . S
C281 N277 1.418 . S
C281 C280 1.251 . S
C282 H249 0.930 . S
C282 C284 1.406 . S
C282 C287 1.261 . S
C283 H250 0.924 1_455 S
C283 N285 1.325 . S
C283 C286 1.357 1_455 S
C284 H252 0.928 . S
C284 C282 1.406 . S
C284 N285 1.261 . S
N285 Co236 2.214 . S
N285 C283 1.325 . S
N285 C284 1.261 . S
C286 H256 0.931 . S
C286 C283 1.357 1_655 S
C286 C287 1.312 1_655 S
C287 H258 0.911 1_455 S
C287 C282 1.261 . S
C287 C286 1.312 1_455 S
C288 O260 1.214 . S
C288 O268 1.234 . S
C289 H261 0.930 1_556 S
C289 C292 1.391 1_556 S
C289 C294 1.391 . S
C290 H262 0.929 . S
C290 C291 1.380 1_556 S
C290 N293 1.391 . S
C291 H263 0.936 . S
C291 C290 1.380 1_554 S
C291 C292 1.395 . S
C292 H264 0.929 . S
C292 C289 1.391 1_554 S
C292 C291 1.395 . S
N293 Co237 2.257 . S
N293 C290 1.391 . S
N293 C294 1.388 . S
C294 H265 0.930 . S
C294 C289 1.391 . S
C294 N293 1.388 . S
Co295 O297 2.143 . S
Co295 O303 2.074 . S
Co295 O306 2.093 . S
Co295 O319 2.097 . S
Co295 N336 2.151 . S
Co295 N344 2.214 . S
Co296 O297 2.160 . S
Co296 O302 2.058 . S
Co296 O312 2.057 . S
Co296 O327 2.037 . S
Co296 N331 2.145 . S
Co296 N352 2.257 . S
O297 Co295 2.143 . S
O297 Co296 2.160 . S
C298 O299 1.278 . S
C298 O306 1.224 . S
O299 C298 1.278 . S
C300 O301 1.245 . S
C300 O312 1.232 . S
O301 C300 1.245 . S
O302 Co296 2.058 . S
O302 C328 1.269 . S
O303 Co295 2.074 . S
O303 C328 1.257 . S
H304 C329 0.930 . S
H305 C335 0.930 . S
O306 Co295 2.093 . S
O306 C298 1.224 . S
H307 C339 0.929 . S
H308 C341 0.930 . S
H309 C342 0.924 1_565 S
H310 C340 0.929 . S
H311 C343 0.928 . S
O312 Co296 2.057 . S
O312 C300 1.232 . S
H313 C332 0.929 . S
H314 C333 0.929 . S
H315 C345 0.931 . S
H316 C337 0.929 . S
H317 C346 0.911 1_565 S
H318 C338 0.931 . S
O319 Co295 2.097 . S
O319 C347 1.214 . S
H320 C348 0.930 1_554 S
H321 C349 0.929 . S
H322 C350 0.936 . S
H323 C351 0.929 . S
H324 C353 0.930 . S
H325 C330 0.930 . S
H326 C334 0.930 . S
O327 Co296 2.037 . S
O327 C347 1.234 . S
C328 O302 1.269 . S
C328 O303 1.257 . S
C329 H304 0.930 . S
C329 C332 1.388 . S
C329 C334 1.418 . S
C330 H325 0.930 . S
C330 C333 1.404 . S
C330 C334 1.353 1_545 S
N331 Co296 2.145 . S
N331 C332 1.397 1_545 S
N331 C333 1.334 . S
C332 H313 0.929 . S
C332 C329 1.388 . S
C332 N331 1.397 1_565 S
C333 H314 0.929 . S
C333 C330 1.404 . S
C333 N331 1.334 . S
C334 H326 0.930 . S
C334 C329 1.418 . S
C334 C330 1.353 1_565 S
C335 H305 0.930 . S
C335 N336 1.330 . S
C335 C337 1.446 . S
N336 Co295 2.151 . S
N336 C335 1.330 . S
N336 C340 1.418 . S
C337 H316 0.929 . S
C337 C335 1.446 . S
C337 C338 1.332 . S
C338 H318 0.931 . S
C338 C337 1.332 . S
C338 C339 1.267 . S
C339 H307 0.929 . S
C339 C338 1.267 . S
C339 C340 1.251 . S
C340 H310 0.929 . S
C340 N336 1.418 . S
C340 C339 1.251 . S
C341 H308 0.930 . S
C341 C343 1.406 . S
C341 C346 1.261 . S
C342 H309 0.924 1_545 S
C342 N344 1.325 . S
C342 C345 1.357 1_545 S
C343 H311 0.928 . S
C343 C341 1.406 . S
C343 N344 1.261 . S
N344 Co295 2.214 . S
N344 C342 1.325 . S
N344 C343 1.261 . S
C345 H315 0.931 . S
C345 C342 1.357 1_565 S
C345 C346 1.312 1_565 S
C346 H317 0.911 1_545 S
C346 C341 1.261 . S
C346 C345 1.312 1_545 S
C347 O319 1.214 . S
C347 O327 1.234 . S
C348 H320 0.930 1_556 S
C348 C351 1.391 1_556 S
C348 C353 1.391 . S
C349 H321 0.929 . S
C349 C350 1.380 1_556 S
C349 N352 1.391 . S
C350 H322 0.936 . S
C350 C349 1.380 1_554 S
C350 C351 1.395 . S
C351 H323 0.929 . S
C351 C348 1.391 1_554 S
C351 C350 1.395 . S
N352 Co296 2.257 . S
N352 C349 1.391 . S
N352 C353 1.388 . S
C353 H324 0.930 . S
C353 C348 1.391 . S
C353 N352 1.388 . S
Co354 O356 2.143 . S
Co354 O362 2.074 . S
Co354 O365 2.093 . S
Co354 O378 2.097 . S
Co354 N395 2.151 . S
Co354 N403 2.214 . S
Co355 O356 2.160 . S
Co355 O361 2.058 . S
Co355 O371 2.057 . S
Co355 O386 2.037 . S
Co355 N390 2.145 . S
Co355 N411 2.257 . S
O356 Co354 2.143 . S
O356 Co355 2.160 . S
C357 O358 1.278 . S
C357 O365 1.224 . S
O358 C357 1.278 . S
C359 O360 1.245 . S
C359 O371 1.232 . S
O360 C359 1.245 . S
O361 Co355 2.058 . S
O361 C387 1.269 . S
O362 Co354 2.074 . S
O362 C387 1.257 . S
H363 C388 0.930 . S
H364 C394 0.930 . S
O365 Co354 2.093 . S
O365 C357 1.224 . S
H366 C398 0.929 . S
H367 C400 0.930 . S
H368 C401 0.924 1_455 S
H369 C399 0.929 . S
H370 C402 0.928 . S
O371 Co355 2.057 . S
O371 C359 1.232 . S
H372 C391 0.929 . S
H373 C392 0.929 . S
H374 C404 0.931 . S
H375 C396 0.929 . S
H376 C405 0.911 1_455 S
H377 C397 0.931 . S
O378 Co354 2.097 . S
O378 C406 1.214 . S
H379 C407 0.930 1_554 S
H380 C408 0.929 . S
H381 C409 0.936 . S
H382 C410 0.929 . S
H383 C412 0.930 . S
H384 C389 0.930 . S
H385 C393 0.930 . S
O386 Co355 2.037 . S
O386 C406 1.234 . S
C387 O361 1.269 . S
C387 O362 1.257 . S
C388 H363 0.930 . S
C388 C391 1.388 . S
C388 C393 1.418 . S
C389 H384 0.930 . S
C389 C392 1.404 . S
C389 C393 1.353 1_655 S
N390 Co355 2.145 . S
N390 C391 1.397 1_655 S
N390 C392 1.334 . S
C391 H372 0.929 . S
C391 C388 1.388 . S
C391 N390 1.397 1_455 S
C392 H373 0.929 . S
C392 C389 1.404 . S
C392 N390 1.334 . S
C393 H385 0.930 . S
C393 C388 1.418 . S
C393 C389 1.353 1_455 S
C394 H364 0.930 . S
C394 N395 1.330 . S
C394 C396 1.446 . S
N395 Co354 2.151 . S
N395 C394 1.330 . S
N395 C399 1.418 . S
C396 H375 0.929 . S
C396 C394 1.446 . S
C396 C397 1.332 . S
C397 H377 0.931 . S
C397 C396 1.332 . S
C397 C398 1.267 . S
C398 H366 0.929 . S
C398 C397 1.267 . S
C398 C399 1.251 . S
C399 H369 0.929 . S
C399 N395 1.418 . S
C399 C398 1.251 . S
C400 H367 0.930 . S
C400 C402 1.406 . S
C400 C405 1.261 . S
C401 H368 0.924 1_655 S
C401 N403 1.325 . S
C401 C404 1.357 1_655 S
C402 H370 0.928 . S
C402 C400 1.406 . S
C402 N403 1.261 . S
N403 Co354 2.214 . S
N403 C401 1.325 . S
N403 C402 1.261 . S
C404 H374 0.931 . S
C404 C401 1.357 1_455 S
C404 C405 1.312 1_455 S
C405 H376 0.911 1_655 S
C405 C400 1.261 . S
C405 C404 1.312 1_655 S
C406 O378 1.214 . S
C406 O386 1.234 . S
C407 H379 0.930 1_556 S
C407 C410 1.391 1_556 S
C407 C412 1.391 . S
C408 H380 0.929 . S
C408 C409 1.380 1_556 S
C408 N411 1.391 . S
C409 H381 0.936 . S
C409 C408 1.380 1_554 S
C409 C410 1.395 . S
C410 H382 0.929 . S
C410 C407 1.391 1_554 S
C410 C409 1.395 . S
N411 Co355 2.257 . S
N411 C408 1.391 . S
N411 C412 1.388 . S
C412 H383 0.930 . S
C412 C407 1.391 . S
C412 N411 1.388 . S
Co413 O415 2.143 . S
Co413 O421 2.074 . S
Co413 O424 2.093 . S
Co413 O437 2.097 . S
Co413 N454 2.151 . S
Co413 N462 2.214 . S
Co414 O415 2.160 . S
Co414 O420 2.058 . S
Co414 O430 2.057 . S
Co414 O445 2.037 . S
Co414 N449 2.145 . S
Co414 N470 2.257 . S
O415 Co413 2.143 . S
O415 Co414 2.160 . S
C416 O417 1.278 . S
C416 O424 1.224 . S
O417 C416 1.278 . S
C418 O419 1.245 . S
C418 O430 1.232 . S
O419 C418 1.245 . S
O420 Co414 2.058 . S
O420 C446 1.269 . S
O421 Co413 2.074 . S
O421 C446 1.257 . S
H422 C447 0.930 . S
H423 C453 0.930 . S
O424 Co413 2.093 . S
O424 C416 1.224 . S
H425 C457 0.929 . S
H426 C459 0.930 . S
H427 C460 0.924 1_545 S
H428 C458 0.929 . S
H429 C461 0.928 . S
O430 Co414 2.057 . S
O430 C418 1.232 . S
H431 C450 0.929 . S
H432 C451 0.929 . S
H433 C463 0.931 . S
H434 C455 0.929 . S
H435 C464 0.911 1_545 S
H436 C456 0.931 . S
O437 Co413 2.097 . S
O437 C465 1.214 . S
H438 C466 0.930 1_554 S
H439 C467 0.929 . S
H440 C468 0.936 . S
H441 C469 0.929 . S
H442 C471 0.930 . S
H443 C448 0.930 . S
H444 C452 0.930 . S
O445 Co414 2.037 . S
O445 C465 1.234 . S
C446 O420 1.269 . S
C446 O421 1.257 . S
C447 H422 0.930 . S
C447 C450 1.388 . S
C447 C452 1.418 . S
C448 H443 0.930 . S
C448 C451 1.404 . S
C448 C452 1.353 1_565 S
N449 Co414 2.145 . S
N449 C450 1.397 1_565 S
N449 C451 1.334 . S
C450 H431 0.929 . S
C450 C447 1.388 . S
C450 N449 1.397 1_545 S
C451 H432 0.929 . S
C451 C448 1.404 . S
C451 N449 1.334 . S
C452 H444 0.930 . S
C452 C447 1.418 . S
C452 C448 1.353 1_545 S
C453 H423 0.930 . S
C453 N454 1.330 . S
C453 C455 1.446 . S
N454 Co413 2.151 . S
N454 C453 1.330 . S
N454 C458 1.418 . S
C455 H434 0.929 . S
C455 C453 1.446 . S
C455 C456 1.332 . S
C456 H436 0.931 . S
C456 C455 1.332 . S
C456 C457 1.267 . S
C457 H425 0.929 . S
C457 C456 1.267 . S
C457 C458 1.251 . S
C458 H428 0.929 . S
C458 N454 1.418 . S
C458 C457 1.251 . S
C459 H426 0.930 . S
C459 C461 1.406 . S
C459 C464 1.261 . S
C460 H427 0.924 1_565 S
C460 N462 1.325 . S
C460 C463 1.357 1_565 S
C461 H429 0.928 . S
C461 C459 1.406 . S
C461 N462 1.261 . S
N462 Co413 2.214 . S
N462 C460 1.325 . S
N462 C461 1.261 . S
C463 H433 0.931 . S
C463 C460 1.357 1_545 S
C463 C464 1.312 1_545 S
C464 H435 0.911 1_565 S
C464 C459 1.261 . S
C464 C463 1.312 1_565 S
C465 O437 1.214 . S
C465 O445 1.234 . S
C466 H438 0.930 1_556 S
C466 C469 1.391 1_556 S
C466 C471 1.391 . S
C467 H439 0.929 . S
C467 C468 1.380 1_556 S
C467 N470 1.391 . S
C468 H440 0.936 . S
C468 C467 1.380 1_554 S
C468 C469 1.395 . S
C469 H441 0.929 . S
C469 C466 1.391 1_554 S
C469 C468 1.395 . S
N470 Co414 2.257 . S
N470 C467 1.391 . S
N470 C471 1.388 . S
C471 H442 0.930 . S
C471 C466 1.391 . S
C471 N470 1.388 . S
Co472 O474 2.143 . S
Co472 O480 2.074 . S
Co472 O483 2.093 . S
Co472 O496 2.097 . S
Co472 N513 2.151 . S
Co472 N521 2.214 . S
Co473 O474 2.160 . S
Co473 O479 2.058 . S
Co473 O489 2.057 . S
Co473 O504 2.037 . S
Co473 N508 2.145 . S
Co473 N529 2.257 . S
O474 Co472 2.143 . S
O474 Co473 2.160 . S
C475 O476 1.278 . S
C475 O483 1.224 . S
O476 C475 1.278 . S
C477 O478 1.245 . S
C477 O489 1.232 . S
O478 C477 1.245 . S
O479 Co473 2.058 . S
O479 C505 1.269 . S
O480 Co472 2.074 . S
O480 C505 1.257 . S
H481 C506 0.930 . S
H482 C512 0.930 . S
O483 Co472 2.093 . S
O483 C475 1.224 . S
H484 C516 0.929 . S
H485 C518 0.930 . S
H486 C519 0.930 . S
H487 C517 0.929 . S
H488 C520 0.928 . S
O489 Co473 2.057 . S
O489 C477 1.232 . S
H490 C509 0.929 . S
H491 C510 0.929 . S
H492 C522 0.931 . S
H493 C514 0.929 . S
H494 C523 0.930 . S
H495 C515 0.931 . S
O496 Co472 2.097 . S
O496 C524 1.214 . S
H497 C525 0.929 . S
H498 C526 0.929 . S
H499 C527 0.930 . S
H500 C528 0.929 . S
H501 C530 0.930 . S
H502 C507 0.930 . S
H503 C511 0.930 . S
O504 Co473 2.037 . S
O504 C524 1.234 . S
C505 O479 1.269 . S
C505 O480 1.257 . S
C506 H481 0.930 . S
C506 C509 1.388 . S
C506 C511 1.418 . S
C507 H502 0.930 . S
C507 C510 1.404 . S
C507 C511 1.353 . S
N508 Co473 2.145 . S
N508 C509 1.397 . S
N508 C510 1.334 . S
C509 H490 0.929 . S
C509 C506 1.388 . S
C509 N508 1.397 . S
C510 H491 0.929 . S
C510 C507 1.404 . S
C510 N508 1.334 . S
C511 H503 0.930 . S
C511 C506 1.418 . S
C511 C507 1.353 . S
C512 H482 0.930 . S
C512 N513 1.330 . S
C512 C514 1.446 . S
N513 Co472 2.151 . S
N513 C512 1.330 . S
N513 C517 1.418 . S
C514 H493 0.929 . S
C514 C512 1.446 . S
C514 C515 1.332 . S
C515 H495 0.931 . S
C515 C514 1.332 . S
C515 C516 1.267 . S
C516 H484 0.929 . S
C516 C515 1.267 . S
C516 C517 1.251 . S
C517 H487 0.929 . S
C517 N513 1.418 . S
C517 C516 1.251 . S
C518 H485 0.930 . S
C518 C520 1.406 . S
C518 C523 1.261 . S
C519 H486 0.930 . S
C519 N521 1.325 . S
C519 C522 1.357 . S
C520 H488 0.928 . S
C520 C518 1.406 . S
C520 N521 1.261 . S
N521 Co472 2.214 . S
N521 C519 1.325 . S
N521 C520 1.261 . S
C522 H492 0.931 . S
C522 C519 1.357 . S
C522 C523 1.312 . S
C523 H494 0.930 . S
C523 C518 1.261 . S
C523 C522 1.312 . S
C524 O496 1.214 . S
C524 O504 1.234 . S
C525 H497 0.929 . S
C525 C528 1.391 . S
C525 C530 1.391 . S
C526 H498 0.929 . S
C526 C527 1.390 . S
C526 N529 1.391 . S
C527 H499 0.930 . S
C527 C526 1.390 . S
C527 C528 1.392 . S
C528 H500 0.929 . S
C528 C525 1.391 . S
C528 C527 1.392 . S
N529 Co473 2.257 . S
N529 C526 1.391 . S
N529 C530 1.388 . S
C530 H501 0.930 . S
C530 C525 1.391 . S
C530 N529 1.388 . S
Co531 O533 2.143 . S
Co531 O539 2.074 . S
Co531 O542 2.093 . S
Co531 O555 2.097 . S
Co531 N572 2.151 . S
Co531 N580 2.214 . S
Co532 O533 2.160 . S
Co532 O538 2.058 . S
Co532 O548 2.057 . S
Co532 O563 2.037 . S
Co532 N567 2.145 . S
Co532 N588 2.257 . S
O533 Co531 2.143 . S
O533 Co532 2.160 . S
C534 O535 1.278 . S
C534 O542 1.224 . S
O535 C534 1.278 . S
C536 O537 1.245 . S
C536 O548 1.232 . S
O537 C536 1.245 . S
O538 Co532 2.058 . S
O538 C564 1.269 . S
O539 Co531 2.074 . S
O539 C564 1.257 . S
H540 C565 0.930 . S
H541 C571 0.930 . S
O542 Co531 2.093 . S
O542 C534 1.224 . S
H543 C575 0.929 . S
H544 C577 0.930 . S
H545 C578 0.930 . S
H546 C576 0.929 . S
H547 C579 0.928 . S
O548 Co532 2.057 . S
O548 C536 1.232 . S
H549 C568 0.929 . S
H550 C569 0.929 . S
H551 C581 0.931 . S
H552 C573 0.929 . S
H553 C582 0.930 . S
H554 C574 0.931 . S
O555 Co531 2.097 . S
O555 C583 1.214 . S
H556 C584 0.929 . S
H557 C585 0.929 . S
H558 C586 0.930 . S
H559 C587 0.929 . S
H560 C589 0.930 . S
H561 C566 0.930 . S
H562 C570 0.930 . S
O563 Co532 2.037 . S
O563 C583 1.234 . S
C564 O538 1.269 . S
C564 O539 1.257 . S
C565 H540 0.930 . S
C565 C568 1.388 . S
C565 C570 1.418 . S
C566 H561 0.930 . S
C566 C569 1.404 . S
C566 C570 1.353 . S
N567 Co532 2.145 . S
N567 C568 1.397 . S
N567 C569 1.334 . S
C568 H549 0.929 . S
C568 C565 1.388 . S
C568 N567 1.397 . S
C569 H550 0.929 . S
C569 C566 1.404 . S
C569 N567 1.334 . S
C570 H562 0.930 . S
C570 C565 1.418 . S
C570 C566 1.353 . S
C571 H541 0.930 . S
C571 N572 1.330 . S
C571 C573 1.446 . S
N572 Co531 2.151 . S
N572 C571 1.330 . S
N572 C576 1.418 . S
C573 H552 0.929 . S
C573 C571 1.446 . S
C573 C574 1.332 . S
C574 H554 0.931 . S
C574 C573 1.332 . S
C574 C575 1.267 . S
C575 H543 0.929 . S
C575 C574 1.267 . S
C575 C576 1.251 . S
C576 H546 0.929 . S
C576 N572 1.418 . S
C576 C575 1.251 . S
C577 H544 0.930 . S
C577 C579 1.406 . S
C577 C582 1.261 . S
C578 H545 0.930 . S
C578 N580 1.325 . S
C578 C581 1.357 . S
C579 H547 0.928 . S
C579 C577 1.406 . S
C579 N580 1.261 . S
N580 Co531 2.214 . S
N580 C578 1.325 . S
N580 C579 1.261 . S
C581 H551 0.931 . S
C581 C578 1.357 . S
C581 C582 1.312 . S
C582 H553 0.930 . S
C582 C577 1.261 . S
C582 C581 1.312 . S
C583 O555 1.214 . S
C583 O563 1.234 . S
C584 H556 0.929 . S
C584 C587 1.391 . S
C584 C589 1.391 . S
C585 H557 0.929 . S
C585 C586 1.390 . S
C585 N588 1.391 . S
C586 H558 0.930 . S
C586 C585 1.390 . S
C586 C587 1.392 . S
C587 H559 0.929 . S
C587 C584 1.391 . S
C587 C586 1.392 . S
N588 Co532 2.257 . S
N588 C585 1.391 . S
N588 C589 1.388 . S
C589 H560 0.930 . S
C589 C584 1.391 . S
C589 N588 1.388 . S
Co590 O592 2.143 . S
Co590 O598 2.074 . S
Co590 O601 2.093 . S
Co590 O614 2.097 . S
Co590 N631 2.151 . S
Co590 N639 2.214 . S
Co591 O592 2.160 . S
Co591 O597 2.058 . S
Co591 O607 2.057 . S
Co591 O622 2.037 . S
Co591 N626 2.145 . S
Co591 N647 2.257 . S
O592 Co590 2.143 . S
O592 Co591 2.160 . S
C593 O594 1.278 . S
C593 O601 1.224 . S
O594 C593 1.278 . S
C595 O596 1.245 . S
C595 O607 1.232 . S
O596 C595 1.245 . S
O597 Co591 2.058 . S
O597 C623 1.269 . S
O598 Co590 2.074 . S
O598 C623 1.257 . S
H599 C624 0.930 . S
H600 C630 0.930 . S
O601 Co590 2.093 . S
O601 C593 1.224 . S
H602 C634 0.929 . S
H603 C636 0.930 . S
H604 C637 0.930 . S
H605 C635 0.929 . S
H606 C638 0.928 . S
O607 Co591 2.057 . S
O607 C595 1.232 . S
H608 C627 0.929 . S
H609 C628 0.929 . S
H610 C640 0.931 . S
H611 C632 0.929 . S
H612 C641 0.930 . S
H613 C633 0.931 . S
O614 Co590 2.097 . S
O614 C642 1.214 . S
H615 C643 0.929 . S
H616 C644 0.929 . S
H617 C645 0.930 . S
H618 C646 0.929 . S
H619 C648 0.930 . S
H620 C625 0.930 . S
H621 C629 0.930 . S
O622 Co591 2.037 . S
O622 C642 1.234 . S
C623 O597 1.269 . S
C623 O598 1.257 . S
C624 H599 0.930 . S
C624 C627 1.388 . S
C624 C629 1.418 . S
C625 H620 0.930 . S
C625 C628 1.404 . S
C625 C629 1.353 . S
N626 Co591 2.145 . S
N626 C627 1.397 . S
N626 C628 1.334 . S
C627 H608 0.929 . S
C627 C624 1.388 . S
C627 N626 1.397 . S
C628 H609 0.929 . S
C628 C625 1.404 . S
C628 N626 1.334 . S
C629 H621 0.930 . S
C629 C624 1.418 . S
C629 C625 1.353 . S
C630 H600 0.930 . S
C630 N631 1.330 . S
C630 C632 1.446 . S
N631 Co590 2.151 . S
N631 C630 1.330 . S
N631 C635 1.418 . S
C632 H611 0.929 . S
C632 C630 1.446 . S
C632 C633 1.332 . S
C633 H613 0.931 . S
C633 C632 1.332 . S
C633 C634 1.267 . S
C634 H602 0.929 . S
C634 C633 1.267 . S
C634 C635 1.251 . S
C635 H605 0.929 . S
C635 N631 1.418 . S
C635 C634 1.251 . S
C636 H603 0.930 . S
C636 C638 1.406 . S
C636 C641 1.261 . S
C637 H604 0.930 . S
C637 N639 1.325 . S
C637 C640 1.357 . S
C638 H606 0.928 . S
C638 C636 1.406 . S
C638 N639 1.261 . S
N639 Co590 2.214 . S
N639 C637 1.325 . S
N639 C638 1.261 . S
C640 H610 0.931 . S
C640 C637 1.357 . S
C640 C641 1.312 . S
C641 H612 0.930 . S
C641 C636 1.261 . S
C641 C640 1.312 . S
C642 O614 1.214 . S
C642 O622 1.234 . S
C643 H615 0.929 . S
C643 C646 1.391 . S
C643 C648 1.391 . S
C644 H616 0.929 . S
C644 C645 1.390 . S
C644 N647 1.391 . S
C645 H617 0.930 . S
C645 C644 1.390 . S
C645 C646 1.392 . S
C646 H618 0.929 . S
C646 C643 1.391 . S
C646 C645 1.392 . S
N647 Co591 2.257 . S
N647 C644 1.391 . S
N647 C648 1.388 . S
C648 H619 0.930 . S
C648 C643 1.391 . S
C648 N647 1.388 . S
Co649 O651 2.143 . S
Co649 O657 2.074 . S
Co649 O660 2.093 . S
Co649 O673 2.097 . S
Co649 N690 2.151 . S
Co649 N698 2.214 . S
Co650 O651 2.160 . S
Co650 O656 2.058 . S
Co650 O666 2.057 . S
Co650 O681 2.037 . S
Co650 N685 2.145 . S
Co650 N706 2.257 . S
O651 Co649 2.143 . S
O651 Co650 2.160 . S
C652 O653 1.278 . S
C652 O660 1.224 . S
O653 C652 1.278 . S
C654 O655 1.245 . S
C654 O666 1.232 . S
O655 C654 1.245 . S
O656 Co650 2.058 . S
O656 C682 1.269 . S
O657 Co649 2.074 . S
O657 C682 1.257 . S
H658 C683 0.930 . S
H659 C689 0.930 . S
O660 Co649 2.093 . S
O660 C652 1.224 . S
H661 C693 0.929 . S
H662 C695 0.930 . S
H663 C696 0.930 . S
H664 C694 0.929 . S
H665 C697 0.928 . S
O666 Co650 2.057 . S
O666 C654 1.232 . S
H667 C686 0.929 . S
H668 C687 0.929 . S
H669 C699 0.931 . S
H670 C691 0.929 . S
H671 C700 0.930 . S
H672 C692 0.931 . S
O673 Co649 2.097 . S
O673 C701 1.214 . S
H674 C702 0.929 . S
H675 C703 0.929 . S
H676 C704 0.930 . S
H677 C705 0.929 . S
H678 C707 0.930 . S
H679 C684 0.930 . S
H680 C688 0.930 . S
O681 Co650 2.037 . S
O681 C701 1.234 . S
C682 O656 1.269 . S
C682 O657 1.257 . S
C683 H658 0.930 . S
C683 C686 1.388 . S
C683 C688 1.418 . S
C684 H679 0.930 . S
C684 C687 1.404 . S
C684 C688 1.353 . S
N685 Co650 2.145 . S
N685 C686 1.397 . S
N685 C687 1.334 . S
C686 H667 0.929 . S
C686 C683 1.388 . S
C686 N685 1.397 . S
C687 H668 0.929 . S
C687 C684 1.404 . S
C687 N685 1.334 . S
C688 H680 0.930 . S
C688 C683 1.418 . S
C688 C684 1.353 . S
C689 H659 0.930 . S
C689 N690 1.330 . S
C689 C691 1.446 . S
N690 Co649 2.151 . S
N690 C689 1.330 . S
N690 C694 1.418 . S
C691 H670 0.929 . S
C691 C689 1.446 . S
C691 C692 1.332 . S
C692 H672 0.931 . S
C692 C691 1.332 . S
C692 C693 1.267 . S
C693 H661 0.929 . S
C693 C692 1.267 . S
C693 C694 1.251 . S
C694 H664 0.929 . S
C694 N690 1.418 . S
C694 C693 1.251 . S
C695 H662 0.930 . S
C695 C697 1.406 . S
C695 C700 1.261 . S
C696 H663 0.930 . S
C696 N698 1.325 . S
C696 C699 1.357 . S
C697 H665 0.928 . S
C697 C695 1.406 . S
C697 N698 1.261 . S
N698 Co649 2.214 . S
N698 C696 1.325 . S
N698 C697 1.261 . S
C699 H669 0.931 . S
C699 C696 1.357 . S
C699 C700 1.312 . S
C700 H671 0.930 . S
C700 C695 1.261 . S
C700 C699 1.312 . S
C701 O673 1.214 . S
C701 O681 1.234 . S
C702 H674 0.929 . S
C702 C705 1.391 . S
C702 C707 1.391 . S
C703 H675 0.929 . S
C703 C704 1.390 . S
C703 N706 1.391 . S
C704 H676 0.930 . S
C704 C703 1.390 . S
C704 C705 1.392 . S
C705 H677 0.929 . S
C705 C702 1.391 . S
C705 C704 1.392 . S
N706 Co650 2.257 . S
N706 C703 1.391 . S
N706 C707 1.388 . S
C707 H678 0.930 . S
C707 C702 1.391 . S
C707 N706 1.388 . S
Co708 O710 2.143 . S
Co708 O716 2.074 . S
Co708 O719 2.093 . S
Co708 O732 2.097 . S
Co708 N749 2.151 . S
Co708 N757 2.214 . S
Co709 O710 2.160 . S
Co709 O715 2.058 . S
Co709 O725 2.057 . S
Co709 O740 2.037 . S
Co709 N744 2.145 . S
Co709 N765 2.257 . S
O710 Co708 2.143 . S
O710 Co709 2.160 . S
C711 O712 1.278 . S
C711 O719 1.224 . S
O712 C711 1.278 . S
C713 O714 1.245 . S
C713 O725 1.232 . S
O714 C713 1.245 . S
O715 Co709 2.058 . S
O715 C741 1.269 . S
O716 Co708 2.074 . S
O716 C741 1.257 . S
H717 C742 0.930 . S
H718 C748 0.930 . S
O719 Co708 2.093 . S
O719 C711 1.224 . S
H720 C752 0.929 . S
H721 C754 0.930 . S
H722 C755 0.930 . S
H723 C753 0.929 . S
H724 C756 0.928 . S
O725 Co709 2.057 . S
O725 C713 1.232 . S
H726 C745 0.929 . S
H727 C746 0.929 . S
H728 C758 0.931 . S
H729 C750 0.929 . S
H730 C759 0.930 . S
H731 C751 0.931 . S
O732 Co708 2.097 . S
O732 C760 1.214 . S
H733 C761 0.929 . S
H734 C762 0.929 . S
H735 C763 0.930 . S
H736 C764 0.929 . S
H737 C766 0.930 . S
H738 C743 0.930 . S
H739 C747 0.930 . S
O740 Co709 2.037 . S
O740 C760 1.234 . S
C741 O715 1.269 . S
C741 O716 1.257 . S
C742 H717 0.930 . S
C742 C745 1.388 . S
C742 C747 1.418 . S
C743 H738 0.930 . S
C743 C746 1.404 . S
C743 C747 1.353 . S
N744 Co709 2.145 . S
N744 C745 1.397 . S
N744 C746 1.334 . S
C745 H726 0.929 . S
C745 C742 1.388 . S
C745 N744 1.397 . S
C746 H727 0.929 . S
C746 C743 1.404 . S
C746 N744 1.334 . S
C747 H739 0.930 . S
C747 C742 1.418 . S
C747 C743 1.353 . S
C748 H718 0.930 . S
C748 N749 1.330 . S
C748 C750 1.446 . S
N749 Co708 2.151 . S
N749 C748 1.330 . S
N749 C753 1.418 . S
C750 H729 0.929 . S
C750 C748 1.446 . S
C750 C751 1.332 . S
C751 H731 0.931 . S
C751 C750 1.332 . S
C751 C752 1.267 . S
C752 H720 0.929 . S
C752 C751 1.267 . S
C752 C753 1.251 . S
C753 H723 0.929 . S
C753 N749 1.418 . S
C753 C752 1.251 . S
C754 H721 0.930 . S
C754 C756 1.406 . S
C754 C759 1.261 . S
C755 H722 0.930 . S
C755 N757 1.325 . S
C755 C758 1.357 . S
C756 H724 0.928 . S
C756 C754 1.406 . S
C756 N757 1.261 . S
N757 Co708 2.214 . S
N757 C755 1.325 . S
N757 C756 1.261 . S
C758 H728 0.931 . S
C758 C755 1.357 . S
C758 C759 1.312 . S
C759 H730 0.930 . S
C759 C754 1.261 . S
C759 C758 1.312 . S
C760 O732 1.214 . S
C760 O740 1.234 . S
C761 H733 0.929 . S
C761 C764 1.391 . S
C761 C766 1.391 . S
C762 H734 0.929 . S
C762 C763 1.390 . S
C762 N765 1.391 . S
C763 H735 0.930 . S
C763 C762 1.390 . S
C763 C764 1.392 . S
C764 H736 0.929 . S
C764 C761 1.391 . S
C764 C763 1.392 . S
N765 Co709 2.257 . S
N765 C762 1.391 . S
N765 C766 1.388 . S
C766 H737 0.930 . S
C766 C761 1.391 . S
C766 N765 1.388 . S
Co767 O769 2.143 . S
Co767 O775 2.074 . S
Co767 O778 2.093 . S
Co767 O791 2.097 . S
Co767 N808 2.151 . S
Co767 N816 2.214 . S
Co768 O769 2.160 . S
Co768 O774 2.058 . S
Co768 O784 2.057 . S
Co768 O799 2.037 . S
Co768 N803 2.145 . S
Co768 N824 2.257 . S
O769 Co767 2.143 . S
O769 Co768 2.160 . S
C770 O771 1.278 . S
C770 O778 1.224 . S
O771 C770 1.278 . S
C772 O773 1.245 . S
C772 O784 1.232 . S
O773 C772 1.245 . S
O774 Co768 2.058 . S
O774 C800 1.269 . S
O775 Co767 2.074 . S
O775 C800 1.257 . S
H776 C801 0.930 . S
H777 C807 0.930 . S
O778 Co767 2.093 . S
O778 C770 1.224 . S
H779 C811 0.929 . S
H780 C813 0.930 . S
H781 C814 0.930 . S
H782 C812 0.929 . S
H783 C815 0.928 . S
O784 Co768 2.057 . S
O784 C772 1.232 . S
H785 C804 0.929 . S
H786 C805 0.929 . S
H787 C817 0.931 . S
H788 C809 0.929 . S
H789 C818 0.930 . S
H790 C810 0.931 . S
O791 Co767 2.097 . S
O791 C819 1.214 . S
H792 C820 0.929 . S
H793 C821 0.929 . S
H794 C822 0.930 . S
H795 C823 0.929 . S
H796 C825 0.930 . S
H797 C802 0.930 . S
H798 C806 0.930 . S
O799 Co768 2.037 . S
O799 C819 1.234 . S
C800 O774 1.269 . S
C800 O775 1.257 . S
C801 H776 0.930 . S
C801 C804 1.388 . S
C801 C806 1.418 . S
C802 H797 0.930 . S
C802 C805 1.404 . S
C802 C806 1.353 . S
N803 Co768 2.145 . S
N803 C804 1.397 . S
N803 C805 1.334 . S
C804 H785 0.929 . S
C804 C801 1.388 . S
C804 N803 1.397 . S
C805 H786 0.929 . S
C805 C802 1.404 . S
C805 N803 1.334 . S
C806 H798 0.930 . S
C806 C801 1.418 . S
C806 C802 1.353 . S
C807 H777 0.930 . S
C807 N808 1.330 . S
C807 C809 1.446 . S
N808 Co767 2.151 . S
N808 C807 1.330 . S
N808 C812 1.418 . S
C809 H788 0.929 . S
C809 C807 1.446 . S
C809 C810 1.332 . S
C810 H790 0.931 . S
C810 C809 1.332 . S
C810 C811 1.267 . S
C811 H779 0.929 . S
C811 C810 1.267 . S
C811 C812 1.251 . S
C812 H782 0.929 . S
C812 N808 1.418 . S
C812 C811 1.251 . S
C813 H780 0.930 . S
C813 C815 1.406 . S
C813 C818 1.261 . S
C814 H781 0.930 . S
C814 N816 1.325 . S
C814 C817 1.357 . S
C815 H783 0.928 . S
C815 C813 1.406 . S
C815 N816 1.261 . S
N816 Co767 2.214 . S
N816 C814 1.325 . S
N816 C815 1.261 . S
C817 H787 0.931 . S
C817 C814 1.357 . S
C817 C818 1.312 . S
C818 H789 0.930 . S
C818 C813 1.261 . S
C818 C817 1.312 . S
C819 O791 1.214 . S
C819 O799 1.234 . S
C820 H792 0.929 . S
C820 C823 1.391 . S
C820 C825 1.391 . S
C821 H793 0.929 . S
C821 C822 1.390 . S
C821 N824 1.391 . S
C822 H794 0.930 . S
C822 C821 1.390 . S
C822 C823 1.392 . S
C823 H795 0.929 . S
C823 C820 1.391 . S
C823 C822 1.392 . S
N824 Co768 2.257 . S
N824 C821 1.391 . S
N824 C825 1.388 . S
C825 H796 0.930 . S
C825 C820 1.391 . S
C825 N824 1.388 . S
Co826 O828 2.143 . S
Co826 O834 2.074 . S
Co826 O837 2.093 . S
Co826 O850 2.097 . S
Co826 N867 2.151 . S
Co826 N875 2.214 . S
Co827 O828 2.160 . S
Co827 O833 2.058 . S
Co827 O843 2.057 . S
Co827 O858 2.037 . S
Co827 N862 2.145 . S
Co827 N883 2.257 . S
O828 Co826 2.143 . S
O828 Co827 2.160 . S
C829 O830 1.278 . S
C829 O837 1.224 . S
O830 C829 1.278 . S
C831 O832 1.245 . S
C831 O843 1.232 . S
O832 C831 1.245 . S
O833 Co827 2.058 . S
O833 C859 1.269 . S
O834 Co826 2.074 . S
O834 C859 1.257 . S
H835 C860 0.930 . S
H836 C866 0.930 . S
O837 Co826 2.093 . S
O837 C829 1.224 . S
H838 C870 0.929 . S
H839 C872 0.930 . S
H840 C873 0.930 . S
H841 C871 0.929 . S
H842 C874 0.928 . S
O843 Co827 2.057 . S
O843 C831 1.232 . S
H844 C863 0.929 . S
H845 C864 0.929 . S
H846 C876 0.931 . S
H847 C868 0.929 . S
H848 C877 0.930 . S
H849 C869 0.931 . S
O850 Co826 2.097 . S
O850 C878 1.214 . S
H851 C879 0.929 . S
H852 C880 0.929 . S
H853 C881 0.930 . S
H854 C882 0.929 . S
H855 C884 0.930 . S
H856 C861 0.930 . S
H857 C865 0.930 . S
O858 Co827 2.037 . S
O858 C878 1.234 . S
C859 O833 1.269 . S
C859 O834 1.257 . S
C860 H835 0.930 . S
C860 C863 1.388 . S
C860 C865 1.418 . S
C861 H856 0.930 . S
C861 C864 1.404 . S
C861 C865 1.353 . S
N862 Co827 2.145 . S
N862 C863 1.397 . S
N862 C864 1.334 . S
C863 H844 0.929 . S
C863 C860 1.388 . S
C863 N862 1.397 . S
C864 H845 0.929 . S
C864 C861 1.404 . S
C864 N862 1.334 . S
C865 H857 0.930 . S
C865 C860 1.418 . S
C865 C861 1.353 . S
C866 H836 0.930 . S
C866 N867 1.330 . S
C866 C868 1.446 . S
N867 Co826 2.151 . S
N867 C866 1.330 . S
N867 C871 1.418 . S
C868 H847 0.929 . S
C868 C866 1.446 . S
C868 C869 1.332 . S
C869 H849 0.931 . S
C869 C868 1.332 . S
C869 C870 1.267 . S
C870 H838 0.929 . S
C870 C869 1.267 . S
C870 C871 1.251 . S
C871 H841 0.929 . S
C871 N867 1.418 . S
C871 C870 1.251 . S
C872 H839 0.930 . S
C872 C874 1.406 . S
C872 C877 1.261 . S
C873 H840 0.930 . S
C873 N875 1.325 . S
C873 C876 1.357 . S
C874 H842 0.928 . S
C874 C872 1.406 . S
C874 N875 1.261 . S
N875 Co826 2.214 . S
N875 C873 1.325 . S
N875 C874 1.261 . S
C876 H846 0.931 . S
C876 C873 1.357 . S
C876 C877 1.312 . S
C877 H848 0.930 . S
C877 C872 1.261 . S
C877 C876 1.312 . S
C878 O850 1.214 . S
C878 O858 1.234 . S
C879 H851 0.929 . S
C879 C882 1.391 . S
C879 C884 1.391 . S
C880 H852 0.929 . S
C880 C881 1.390 . S
C880 N883 1.391 . S
C881 H853 0.930 . S
C881 C880 1.390 . S
C881 C882 1.392 . S
C882 H854 0.929 . S
C882 C879 1.391 . S
C882 C881 1.392 . S
N883 Co827 2.257 . S
N883 C880 1.391 . S
N883 C884 1.388 . S
C884 H855 0.930 . S
C884 C879 1.391 . S
C884 N883 1.388 . S
Co885 O887 2.143 . S
Co885 O893 2.074 . S
Co885 O896 2.093 . S
Co885 O909 2.097 . S
Co885 N926 2.151 . S
Co885 N934 2.214 . S
Co886 O887 2.160 . S
Co886 O892 2.058 . S
Co886 O902 2.057 . S
Co886 O917 2.037 . S
Co886 N921 2.145 . S
Co886 N942 2.257 . S
O887 Co885 2.143 . S
O887 Co886 2.160 . S
C888 O889 1.278 . S
C888 O896 1.224 . S
O889 C888 1.278 . S
C890 O891 1.245 . S
C890 O902 1.232 . S
O891 C890 1.245 . S
O892 Co886 2.058 . S
O892 C918 1.269 . S
O893 Co885 2.074 . S
O893 C918 1.257 . S
H894 C919 0.930 . S
H895 C925 0.930 . S
O896 Co885 2.093 . S
O896 C888 1.224 . S
H897 C929 0.929 . S
H898 C931 0.930 . S
H899 C932 0.930 . S
H900 C930 0.929 . S
H901 C933 0.928 . S
O902 Co886 2.057 . S
O902 C890 1.232 . S
H903 C922 0.929 . S
H904 C923 0.929 . S
H905 C935 0.931 . S
H906 C927 0.929 . S
H907 C936 0.930 . S
H908 C928 0.931 . S
O909 Co885 2.097 . S
O909 C937 1.214 . S
H910 C938 0.929 . S
H911 C939 0.929 . S
H912 C940 0.930 . S
H913 C941 0.929 . S
H914 C943 0.930 . S
H915 C920 0.930 . S
H916 C924 0.930 . S
O917 Co886 2.037 . S
O917 C937 1.234 . S
C918 O892 1.269 . S
C918 O893 1.257 . S
C919 H894 0.930 . S
C919 C922 1.388 . S
C919 C924 1.418 . S
C920 H915 0.930 . S
C920 C923 1.404 . S
C920 C924 1.353 . S
N921 Co886 2.145 . S
N921 C922 1.397 . S
N921 C923 1.334 . S
C922 H903 0.929 . S
C922 C919 1.388 . S
C922 N921 1.397 . S
C923 H904 0.929 . S
C923 C920 1.404 . S
C923 N921 1.334 . S
C924 H916 0.930 . S
C924 C919 1.418 . S
C924 C920 1.353 . S
C925 H895 0.930 . S
C925 N926 1.330 . S
C925 C927 1.446 . S
N926 Co885 2.151 . S
N926 C925 1.330 . S
N926 C930 1.418 . S
C927 H906 0.929 . S
C927 C925 1.446 . S
C927 C928 1.332 . S
C928 H908 0.931 . S
C928 C927 1.332 . S
C928 C929 1.267 . S
C929 H897 0.929 . S
C929 C928 1.267 . S
C929 C930 1.251 . S
C930 H900 0.929 . S
C930 N926 1.418 . S
C930 C929 1.251 . S
C931 H898 0.930 . S
C931 C933 1.406 . S
C931 C936 1.261 . S
C932 H899 0.930 . S
C932 N934 1.325 . S
C932 C935 1.357 . S
C933 H901 0.928 . S
C933 C931 1.406 . S
C933 N934 1.261 . S
N934 Co885 2.214 . S
N934 C932 1.325 . S
N934 C933 1.261 . S
C935 H905 0.931 . S
C935 C932 1.357 . S
C935 C936 1.312 . S
C936 H907 0.930 . S
C936 C931 1.261 . S
C936 C935 1.312 . S
C937 O909 1.214 . S
C937 O917 1.234 . S
C938 H910 0.929 . S
C938 C941 1.391 . S
C938 C943 1.391 . S
C939 H911 0.929 . S
C939 C940 1.390 . S
C939 N942 1.391 . S
C940 H912 0.930 . S
C940 C939 1.390 . S
C940 C941 1.392 . S
C941 H913 0.929 . S
C941 C938 1.391 . S
C941 C940 1.392 . S
N942 Co886 2.257 . S
N942 C939 1.391 . S
N942 C943 1.388 . S
C943 H914 0.930 . S
C943 C938 1.391 . S
C943 N942 1.388 . S
H944 C950 0.930 . S
H945 C954 0.930 . S
H946 C959 0.929 . S
H947 C957 0.929 . S
H948 C952 0.929 . S
H949 C958 0.929 . S
C950 H944 0.930 . S
C950 C951 1.367 . S
C950 C958 1.378 . S
C951 C950 1.367 . S
C951 C959 1.433 . S
C952 H948 0.929 . S
C952 C954 1.378 . S
C952 C956 1.350 . S
C953 C956 1.463 . S
C953 C958 1.350 . S
C953 N961 1.427 . S
C954 H945 0.930 . S
C954 C952 1.378 . S
C954 C955 1.367 . S
C955 C954 1.367 . S
C955 C957 1.433 . S
C956 C952 1.350 . S
C956 C953 1.463 . S
C956 N960 1.427 . S
C957 H947 0.929 . S
C957 C955 1.433 . S
C957 N960 1.384 . S
C958 H949 0.929 . S
C958 C950 1.378 . S
C958 C953 1.350 . S
C959 H946 0.929 . S
C959 C951 1.433 . S
C959 N961 1.384 . S
N960 C956 1.427 . S
N960 C957 1.384 . S
N961 C953 1.427 . S
N961 C959 1.384 . S
H962 C968 0.930 . S
H963 C972 0.930 . S
H964 C977 0.929 . S
H965 C975 0.929 . S
H966 C970 0.929 . S
H967 C976 0.929 . S
C968 H962 0.930 . S
C968 C969 1.367 . S
C968 C976 1.378 . S
C969 C968 1.367 . S
C969 C977 1.433 . S
C970 H966 0.929 . S
C970 C972 1.378 . S
C970 C974 1.350 . S
C971 C974 1.463 . S
C971 C976 1.350 . S
C971 N979 1.427 . S
C972 H963 0.930 . S
C972 C970 1.378 . S
C972 C973 1.367 . S
C973 C972 1.367 . S
C973 C975 1.433 . S
C974 C970 1.350 . S
C974 C971 1.463 . S
C974 N978 1.427 . S
C975 H965 0.929 . S
C975 C973 1.433 . S
C975 N978 1.384 . S
C976 H967 0.929 . S
C976 C968 1.378 . S
C976 C971 1.350 . S
C977 H964 0.929 . S
C977 C969 1.433 . S
C977 N979 1.384 . S
N978 C974 1.427 . S
N978 C975 1.384 . S
N979 C971 1.427 . S
N979 C977 1.384 . S
H980 C986 0.930 . S
H981 C990 0.930 . S
H982 C995 0.929 . S
H983 C993 0.929 . S
H984 C988 0.929 . S
H985 C994 0.929 . S
C986 H980 0.930 . S
C986 C987 1.367 . S
C986 C994 1.378 . S
C987 C986 1.367 . S
C987 C995 1.433 . S
C988 H984 0.929 . S
C988 C990 1.378 . S
C988 C992 1.350 . S
C989 C992 1.463 . S
C989 C994 1.350 . S
C989 N997 1.427 . S
C990 H981 0.930 . S
C990 C988 1.378 . S
C990 C991 1.367 . S
C991 C990 1.367 . S
C991 C993 1.433 . S
C992 C988 1.350 . S
C992 C989 1.463 . S
C992 N996 1.427 . S
C993 H983 0.929 . S
C993 C991 1.433 . S
C993 N996 1.384 . S
C994 H985 0.929 . S
C994 C986 1.378 . S
C994 C989 1.350 . S
C995 H982 0.929 . S
C995 C987 1.433 . S
C995 N997 1.384 . S
N996 C992 1.427 . S
N996 C993 1.384 . S
N997 C989 1.427 . S
N997 C995 1.384 . S
H998 C1004 0.930 . S
H999 C1008 0.930 . S
H1000 C1013 0.929 . S
H1001 C1011 0.929 . S
H1002 C1006 0.929 . S
H1003 C1012 0.929 . S
C1004 H998 0.930 . S
C1004 C1005 1.367 . S
C1004 C1012 1.378 . S
C1005 C1004 1.367 . S
C1005 C1013 1.433 . S
C1006 H1002 0.929 . S
C1006 C1008 1.378 . S
C1006 C1010 1.350 . S
C1007 C1010 1.463 . S
C1007 C1012 1.350 . S
C1007 N1015 1.427 . S
C1008 H999 0.930 . S
C1008 C1006 1.378 . S
C1008 C1009 1.367 . S
C1009 C1008 1.367 . S
C1009 C1011 1.433 . S
C1010 C1006 1.350 . S
C1010 C1007 1.463 . S
C1010 N1014 1.427 . S
C1011 H1001 0.929 . S
C1011 C1009 1.433 . S
C1011 N1014 1.384 . S
C1012 H1003 0.929 . S
C1012 C1004 1.378 . S
C1012 C1007 1.350 . S
C1013 H1000 0.929 . S
C1013 C1005 1.433 . S
C1013 N1015 1.384 . S
N1014 C1010 1.427 . S
N1014 C1011 1.384 . S
N1015 C1007 1.427 . S
N1015 C1013 1.384 . S
H1016 C1022 0.930 . S
H1017 C1026 0.930 . S
H1018 C1031 0.929 . S
H1019 C1029 0.929 . S
H1020 C1024 0.929 . S
H1021 C1030 0.929 . S
C1022 H1016 0.930 . S
C1022 C1023 1.367 . S
C1022 C1030 1.378 . S
C1023 C1022 1.367 . S
C1023 C1031 1.433 . S
C1024 H1020 0.929 . S
C1024 C1026 1.378 . S
C1024 C1028 1.350 . S
C1025 C1028 1.463 . S
C1025 C1030 1.350 . S
C1025 N1033 1.427 . S
C1026 H1017 0.930 . S
C1026 C1024 1.378 . S
C1026 C1027 1.367 . S
C1027 C1026 1.367 . S
C1027 C1029 1.433 . S
C1028 C1024 1.350 . S
C1028 C1025 1.463 . S
C1028 N1032 1.427 . S
C1029 H1019 0.929 . S
C1029 C1027 1.433 . S
C1029 N1032 1.384 . S
C1030 H1021 0.929 . S
C1030 C1022 1.378 . S
C1030 C1025 1.350 . S
C1031 H1018 0.929 . S
C1031 C1023 1.433 . S
C1031 N1033 1.384 . S
N1032 C1028 1.427 . S
N1032 C1029 1.384 . S
N1033 C1025 1.427 . S
N1033 C1031 1.384 . S
H1034 C1040 0.930 . S
H1035 C1044 0.930 . S
H1036 C1049 0.929 . S
H1037 C1047 0.929 . S
H1038 C1042 0.929 . S
H1039 C1048 0.929 . S
C1040 H1034 0.930 . S
C1040 C1041 1.367 . S
C1040 C1048 1.378 . S
C1041 C1040 1.367 . S
C1041 C1049 1.433 . S
C1042 H1038 0.929 . S
C1042 C1044 1.378 . S
C1042 C1046 1.350 . S
C1043 C1046 1.463 . S
C1043 C1048 1.350 . S
C1043 N1051 1.427 . S
C1044 H1035 0.930 . S
C1044 C1042 1.378 . S
C1044 C1045 1.367 . S
C1045 C1044 1.367 . S
C1045 C1047 1.433 . S
C1046 C1042 1.350 . S
C1046 C1043 1.463 . S
C1046 N1050 1.427 . S
C1047 H1037 0.929 . S
C1047 C1045 1.433 . S
C1047 N1050 1.384 . S
C1048 H1039 0.929 . S
C1048 C1040 1.378 . S
C1048 C1043 1.350 . S
C1049 H1036 0.929 . S
C1049 C1041 1.433 . S
C1049 N1051 1.384 . S
N1050 C1046 1.427 . S
N1050 C1047 1.384 . S
N1051 C1043 1.427 . S
N1051 C1049 1.384 . S
H1052 C1058 0.930 . S
H1053 C1062 0.930 . S
H1054 C1067 0.929 . S
H1055 C1065 0.929 . S
H1056 C1060 0.929 . S
H1057 C1066 0.929 . S
C1058 H1052 0.930 . S
C1058 C1059 1.367 . S
C1058 C1066 1.378 . S
C1059 C1058 1.367 . S
C1059 C1067 1.433 . S
C1060 H1056 0.929 . S
C1060 C1062 1.378 . S
C1060 C1064 1.350 . S
C1061 C1064 1.463 . S
C1061 C1066 1.350 . S
C1061 N1069 1.427 . S
C1062 H1053 0.930 . S
C1062 C1060 1.378 . S
C1062 C1063 1.367 . S
C1063 C1062 1.367 . S
C1063 C1065 1.433 . S
C1064 C1060 1.350 . S
C1064 C1061 1.463 . S
C1064 N1068 1.427 . S
C1065 H1055 0.929 . S
C1065 C1063 1.433 . S
C1065 N1068 1.384 . S
C1066 H1057 0.929 . S
C1066 C1058 1.378 . S
C1066 C1061 1.350 . S
C1067 H1054 0.929 . S
C1067 C1059 1.433 . S
C1067 N1069 1.384 . S
N1068 C1064 1.427 . S
N1068 C1065 1.384 . S
N1069 C1061 1.427 . S
N1069 C1067 1.384 . S
H1070 C1076 0.930 . S
H1071 C1080 0.930 . S
H1072 C1085 0.929 . S
H1073 C1083 0.929 . S
H1074 C1078 0.929 . S
H1075 C1084 0.929 . S
C1076 H1070 0.930 . S
C1076 C1077 1.367 . S
C1076 C1084 1.378 . S
C1077 C1076 1.367 . S
C1077 C1085 1.433 . S
C1078 H1074 0.929 . S
C1078 C1080 1.378 . S
C1078 C1082 1.350 . S
C1079 C1082 1.463 . S
C1079 C1084 1.350 . S
C1079 N1087 1.427 . S
C1080 H1071 0.930 . S
C1080 C1078 1.378 . S
C1080 C1081 1.367 . S
C1081 C1080 1.367 . S
C1081 C1083 1.433 . S
C1082 C1078 1.350 . S
C1082 C1079 1.463 . S
C1082 N1086 1.427 . S
C1083 H1073 0.929 . S
C1083 C1081 1.433 . S
C1083 N1086 1.384 . S
C1084 H1075 0.929 . S
C1084 C1076 1.378 . S
C1084 C1079 1.350 . S
C1085 H1072 0.929 . S
C1085 C1077 1.433 . S
C1085 N1087 1.384 . S
N1086 C1082 1.427 . S
N1086 C1083 1.384 . S
N1087 C1079 1.427 . S
N1087 C1085 1.384 . S
H1088 C1094 0.930 . S
H1089 C1098 0.930 . S
H1090 C1103 0.929 . S
H1091 C1101 0.929 . S
H1092 C1096 0.929 . S
H1093 C1102 0.929 . S
C1094 H1088 0.930 . S
C1094 C1095 1.367 . S
C1094 C1102 1.378 . S
C1095 C1094 1.367 . S
C1095 C1103 1.433 . S
C1096 H1092 0.929 . S
C1096 C1098 1.378 . S
C1096 C1100 1.350 . S
C1097 C1100 1.463 . S
C1097 C1102 1.350 . S
C1097 N1105 1.427 . S
C1098 H1089 0.930 . S
C1098 C1096 1.378 . S
C1098 C1099 1.367 . S
C1099 C1098 1.367 . S
C1099 C1101 1.433 . S
C1100 C1096 1.350 . S
C1100 C1097 1.463 . S
C1100 N1104 1.427 . S
C1101 H1091 0.929 . S
C1101 C1099 1.433 . S
C1101 N1104 1.384 . S
C1102 H1093 0.929 . S
C1102 C1094 1.378 . S
C1102 C1097 1.350 . S
C1103 H1090 0.929 . S
C1103 C1095 1.433 . S
C1103 N1105 1.384 . S
N1104 C1100 1.427 . S
N1104 C1101 1.384 . S
N1105 C1097 1.427 . S
N1105 C1103 1.384 . S
H1106 C1112 0.930 . S
H1107 C1116 0.930 . S
H1108 C1121 0.929 . S
H1109 C1119 0.929 . S
H1110 C1114 0.929 . S
H1111 C1120 0.929 . S
C1112 H1106 0.930 . S
C1112 C1113 1.367 . S
C1112 C1120 1.378 . S
C1113 C1112 1.367 . S
C1113 C1121 1.433 . S
C1114 H1110 0.929 . S
C1114 C1116 1.378 . S
C1114 C1118 1.350 . S
C1115 C1118 1.463 . S
C1115 C1120 1.350 . S
C1115 N1123 1.427 . S
C1116 H1107 0.930 . S
C1116 C1114 1.378 . S
C1116 C1117 1.367 . S
C1117 C1116 1.367 . S
C1117 C1119 1.433 . S
C1118 C1114 1.350 . S
C1118 C1115 1.463 . S
C1118 N1122 1.427 . S
C1119 H1109 0.929 . S
C1119 C1117 1.433 . S
C1119 N1122 1.384 . S
C1120 H1111 0.929 . S
C1120 C1112 1.378 . S
C1120 C1115 1.350 . S
C1121 H1108 0.929 . S
C1121 C1113 1.433 . S
C1121 N1123 1.384 . S
N1122 C1118 1.427 . S
N1122 C1119 1.384 . S
N1123 C1115 1.427 . S
N1123 C1121 1.384 . S
H1124 C1130 0.930 . S
H1125 C1134 0.930 . S
H1126 C1139 0.929 . S
H1127 C1137 0.929 . S
H1128 C1132 0.929 . S
H1129 C1138 0.929 . S
C1130 H1124 0.930 . S
C1130 C1131 1.367 . S
C1130 C1138 1.378 . S
C1131 C1130 1.367 . S
C1131 C1139 1.433 . S
C1132 H1128 0.929 . S
C1132 C1134 1.378 . S
C1132 C1136 1.350 . S
C1133 C1136 1.463 . S
C1133 C1138 1.350 . S
C1133 N1141 1.427 . S
C1134 H1125 0.930 . S
C1134 C1132 1.378 . S
C1134 C1135 1.367 . S
C1135 C1134 1.367 . S
C1135 C1137 1.433 . S
C1136 C1132 1.350 . S
C1136 C1133 1.463 . S
C1136 N1140 1.427 . S
C1137 H1127 0.929 . S
C1137 C1135 1.433 . S
C1137 N1140 1.384 . S
C1138 H1129 0.929 . S
C1138 C1130 1.378 . S
C1138 C1133 1.350 . S
C1139 H1126 0.929 . S
C1139 C1131 1.433 . S
C1139 N1141 1.384 . S
N1140 C1136 1.427 . S
N1140 C1137 1.384 . S
N1141 C1133 1.427 . S
N1141 C1139 1.384 . S
H1142 C1148 0.930 . S
H1143 C1152 0.930 . S
H1144 C1157 0.929 . S
H1145 C1155 0.929 . S
H1146 C1150 0.929 . S
H1147 C1156 0.929 . S
C1148 H1142 0.930 . S
C1148 C1149 1.367 . S
C1148 C1156 1.378 . S
C1149 C1148 1.367 . S
C1149 C1157 1.433 . S
C1150 H1146 0.929 . S
C1150 C1152 1.378 . S
C1150 C1154 1.350 . S
C1151 C1154 1.463 . S
C1151 C1156 1.350 . S
C1151 N1159 1.427 . S
C1152 H1143 0.930 . S
C1152 C1150 1.378 . S
C1152 C1153 1.367 . S
C1153 C1152 1.367 . S
C1153 C1155 1.433 . S
C1154 C1150 1.350 . S
C1154 C1151 1.463 . S
C1154 N1158 1.427 . S
C1155 H1145 0.929 . S
C1155 C1153 1.433 . S
C1155 N1158 1.384 . S
C1156 H1147 0.929 . S
C1156 C1148 1.378 . S
C1156 C1151 1.350 . S
C1157 H1144 0.929 . S
C1157 C1149 1.433 . S
C1157 N1159 1.384 . S
N1158 C1154 1.427 . S
N1158 C1155 1.384 . S
N1159 C1151 1.427 . S
N1159 C1157 1.384 . S
H1160 C1166 0.930 . S
H1161 C1170 0.930 . S
H1162 C1175 0.929 . S
H1163 C1173 0.929 . S
H1164 C1168 0.929 . S
H1165 C1174 0.929 . S
C1166 H1160 0.930 . S
C1166 C1167 1.367 . S
C1166 C1174 1.378 . S
C1167 C1166 1.367 . S
C1167 C1175 1.433 . S
C1168 H1164 0.929 . S
C1168 C1170 1.378 . S
C1168 C1172 1.350 . S
C1169 C1172 1.463 . S
C1169 C1174 1.350 . S
C1169 N1177 1.427 . S
C1170 H1161 0.930 . S
C1170 C1168 1.378 . S
C1170 C1171 1.367 . S
C1171 C1170 1.367 . S
C1171 C1173 1.433 . S
C1172 C1168 1.350 . S
C1172 C1169 1.463 . S
C1172 N1176 1.427 . S
C1173 H1163 0.929 . S
C1173 C1171 1.433 . S
C1173 N1176 1.384 . S
C1174 H1165 0.929 . S
C1174 C1166 1.378 . S
C1174 C1169 1.350 . S
C1175 H1162 0.929 . S
C1175 C1167 1.433 . S
C1175 N1177 1.384 . S
N1176 C1172 1.427 . S
N1176 C1173 1.384 . S
N1177 C1169 1.427 . S
N1177 C1175 1.384 . S
H1178 C1184 0.930 . S
H1179 C1188 0.930 . S
H1180 C1193 0.929 . S
H1181 C1191 0.929 . S
H1182 C1186 0.929 . S
H1183 C1192 0.929 . S
C1184 H1178 0.930 . S
C1184 C1185 1.367 . S
C1184 C1192 1.378 . S
C1185 C1184 1.367 . S
C1185 C1193 1.433 . S
C1186 H1182 0.929 . S
C1186 C1188 1.378 . S
C1186 C1190 1.350 . S
C1187 C1190 1.463 . S
C1187 C1192 1.350 . S
C1187 N1195 1.427 . S
C1188 H1179 0.930 . S
C1188 C1186 1.378 . S
C1188 C1189 1.367 . S
C1189 C1188 1.367 . S
C1189 C1191 1.433 . S
C1190 C1186 1.350 . S
C1190 C1187 1.463 . S
C1190 N1194 1.427 . S
C1191 H1181 0.929 . S
C1191 C1189 1.433 . S
C1191 N1194 1.384 . S
C1192 H1183 0.929 . S
C1192 C1184 1.378 . S
C1192 C1187 1.350 . S
C1193 H1180 0.929 . S
C1193 C1185 1.433 . S
C1193 N1195 1.384 . S
N1194 C1190 1.427 . S
N1194 C1191 1.384 . S
N1195 C1187 1.427 . S
N1195 C1193 1.384 . S
H1196 C1202 0.930 . S
H1197 C1206 0.930 . S
H1198 C1211 0.929 . S
H1199 C1209 0.929 . S
H1200 C1204 0.929 . S
H1201 C1210 0.929 . S
C1202 H1196 0.930 . S
C1202 C1203 1.367 . S
C1202 C1210 1.378 . S
C1203 C1202 1.367 . S
C1203 C1211 1.433 . S
C1204 H1200 0.929 . S
C1204 C1206 1.378 . S
C1204 C1208 1.350 . S
C1205 C1208 1.463 . S
C1205 C1210 1.350 . S
C1205 N1213 1.427 . S
C1206 H1197 0.930 . S
C1206 C1204 1.378 . S
C1206 C1207 1.367 . S
C1207 C1206 1.367 . S
C1207 C1209 1.433 . S
C1208 C1204 1.350 . S
C1208 C1205 1.463 . S
C1208 N1212 1.427 . S
C1209 H1199 0.929 . S
C1209 C1207 1.433 . S
C1209 N1212 1.384 . S
C1210 H1201 0.929 . S
C1210 C1202 1.378 . S
C1210 C1205 1.350 . S
C1211 H1198 0.929 . S
C1211 C1203 1.433 . S
C1211 N1213 1.384 . S
N1212 C1208 1.427 . S
N1212 C1209 1.384 . S
N1213 C1205 1.427 . S
N1213 C1211 1.384 . S
H1214 C1220 0.930 . S
H1215 C1224 0.930 . S
H1216 C1229 0.929 . S
H1217 C1227 0.929 . S
H1218 C1222 0.929 . S
H1219 C1228 0.929 . S
C1220 H1214 0.930 . S
C1220 C1221 1.367 . S
C1220 C1228 1.378 . S
C1221 C1220 1.367 . S
C1221 C1229 1.433 . S
C1222 H1218 0.929 . S
C1222 C1224 1.378 . S
C1222 C1226 1.350 . S
C1223 C1226 1.463 . S
C1223 C1228 1.350 . S
C1223 N1231 1.427 . S
C1224 H1215 0.930 . S
C1224 C1222 1.378 . S
C1224 C1225 1.367 . S
C1225 C1224 1.367 . S
C1225 C1227 1.433 . S
C1226 C1222 1.350 . S
C1226 C1223 1.463 . S
C1226 N1230 1.427 . S
C1227 H1217 0.929 . S
C1227 C1225 1.433 . S
C1227 N1230 1.384 . S
C1228 H1219 0.929 . S
C1228 C1220 1.378 . S
C1228 C1223 1.350 . S
C1229 H1216 0.929 . S
C1229 C1221 1.433 . S
C1229 N1231 1.384 . S
N1230 C1226 1.427 . S
N1230 C1227 1.384 . S
N1231 C1223 1.427 . S
N1231 C1229 1.384 . S
H1232 C1238 0.930 . S
H1233 C1242 0.930 . S
H1234 C1247 0.929 . S
H1235 C1245 0.929 . S
H1236 C1240 0.929 . S
H1237 C1246 0.929 . S
C1238 H1232 0.930 . S
C1238 C1239 1.367 . S
C1238 C1246 1.378 . S
C1239 C1238 1.367 . S
C1239 C1247 1.433 . S
C1240 H1236 0.929 . S
C1240 C1242 1.378 . S
C1240 C1244 1.350 . S
C1241 C1244 1.463 . S
C1241 C1246 1.350 . S
C1241 N1249 1.427 . S
C1242 H1233 0.930 . S
C1242 C1240 1.378 . S
C1242 C1243 1.367 . S
C1243 C1242 1.367 . S
C1243 C1245 1.433 . S
C1244 C1240 1.350 . S
C1244 C1241 1.463 . S
C1244 N1248 1.427 . S
C1245 H1235 0.929 . S
C1245 C1243 1.433 . S
C1245 N1248 1.384 . S
C1246 H1237 0.929 . S
C1246 C1238 1.378 . S
C1246 C1241 1.350 . S
C1247 H1234 0.929 . S
C1247 C1239 1.433 . S
C1247 N1249 1.384 . S
N1248 C1244 1.427 . S
N1248 C1245 1.384 . S
N1249 C1241 1.427 . S
N1249 C1247 1.384 . S
H1250 C1256 0.930 . S
H1251 C1260 0.930 . S
H1252 C1265 0.929 . S
H1253 C1263 0.929 . S
H1254 C1258 0.929 . S
H1255 C1264 0.929 . S
C1256 H1250 0.930 . S
C1256 C1257 1.367 . S
C1256 C1264 1.378 . S
C1257 C1256 1.367 . S
C1257 C1265 1.433 . S
C1258 H1254 0.929 . S
C1258 C1260 1.378 . S
C1258 C1262 1.350 . S
C1259 C1262 1.463 . S
C1259 C1264 1.350 . S
C1259 N1267 1.427 . S
C1260 H1251 0.930 . S
C1260 C1258 1.378 . S
C1260 C1261 1.367 . S
C1261 C1260 1.367 . S
C1261 C1263 1.433 . S
C1262 C1258 1.350 . S
C1262 C1259 1.463 . S
C1262 N1266 1.427 . S
C1263 H1253 0.929 . S
C1263 C1261 1.433 . S
C1263 N1266 1.384 . S
C1264 H1255 0.929 . S
C1264 C1256 1.378 . S
C1264 C1259 1.350 . S
C1265 H1252 0.929 . S
C1265 C1257 1.433 . S
C1265 N1267 1.384 . S
N1266 C1262 1.427 . S
N1266 C1263 1.384 . S
N1267 C1259 1.427 . S
N1267 C1265 1.384 . S
H1268 C1274 0.930 . S
H1269 C1278 0.930 . S
H1270 C1283 0.929 . S
H1271 C1281 0.929 . S
H1272 C1276 0.929 . S
H1273 C1282 0.929 . S
C1274 H1268 0.930 . S
C1274 C1275 1.367 . S
C1274 C1282 1.378 . S
C1275 C1274 1.367 . S
C1275 C1283 1.433 . S
C1276 H1272 0.929 . S
C1276 C1278 1.378 . S
C1276 C1280 1.350 . S
C1277 C1280 1.463 . S
C1277 C1282 1.350 . S
C1277 N1285 1.427 . S
C1278 H1269 0.930 . S
C1278 C1276 1.378 . S
C1278 C1279 1.367 . S
C1279 C1278 1.367 . S
C1279 C1281 1.433 . S
C1280 C1276 1.350 . S
C1280 C1277 1.463 . S
C1280 N1284 1.427 . S
C1281 H1271 0.929 . S
C1281 C1279 1.433 . S
C1281 N1284 1.384 . S
C1282 H1273 0.929 . S
C1282 C1274 1.378 . S
C1282 C1277 1.350 . S
C1283 H1270 0.929 . S
C1283 C1275 1.433 . S
C1283 N1285 1.384 . S
N1284 C1280 1.427 . S
N1284 C1281 1.384 . S
N1285 C1277 1.427 . S
N1285 C1283 1.384 . S
H1286 C1292 0.930 . S
H1287 C1296 0.930 . S
H1288 C1301 0.929 . S
H1289 C1299 0.929 . S
H1290 C1294 0.929 . S
H1291 C1300 0.929 . S
C1292 H1286 0.930 . S
C1292 C1293 1.367 . S
C1292 C1300 1.378 . S
C1293 C1292 1.367 . S
C1293 C1301 1.433 . S
C1294 H1290 0.929 . S
C1294 C1296 1.378 . S
C1294 C1298 1.350 . S
C1295 C1298 1.463 . S
C1295 C1300 1.350 . S
C1295 N1303 1.427 . S
C1296 H1287 0.930 . S
C1296 C1294 1.378 . S
C1296 C1297 1.367 . S
C1297 C1296 1.367 . S
C1297 C1299 1.433 . S
C1298 C1294 1.350 . S
C1298 C1295 1.463 . S
C1298 N1302 1.427 . S
C1299 H1289 0.929 . S
C1299 C1297 1.433 . S
C1299 N1302 1.384 . S
C1300 H1291 0.929 . S
C1300 C1292 1.378 . S
C1300 C1295 1.350 . S
C1301 H1288 0.929 . S
C1301 C1293 1.433 . S
C1301 N1303 1.384 . S
N1302 C1298 1.427 . S
N1302 C1299 1.384 . S
N1303 C1295 1.427 . S
N1303 C1301 1.384 . S
H1304 C1310 0.930 . S
H1305 C1314 0.930 . S
H1306 C1319 0.929 . S
H1307 C1317 0.929 . S
H1308 C1312 0.929 . S
H1309 C1318 0.929 . S
C1310 H1304 0.930 . S
C1310 C1311 1.367 . S
C1310 C1318 1.378 . S
C1311 C1310 1.367 . S
C1311 C1319 1.433 . S
C1312 H1308 0.929 . S
C1312 C1314 1.378 . S
C1312 C1316 1.350 . S
C1313 C1316 1.463 . S
C1313 C1318 1.350 . S
C1313 N1321 1.427 . S
C1314 H1305 0.930 . S
C1314 C1312 1.378 . S
C1314 C1315 1.367 . S
C1315 C1314 1.367 . S
C1315 C1317 1.433 . S
C1316 C1312 1.350 . S
C1316 C1313 1.463 . S
C1316 N1320 1.427 . S
C1317 H1307 0.929 . S
C1317 C1315 1.433 . S
C1317 N1320 1.384 . S
C1318 H1309 0.929 . S
C1318 C1310 1.378 . S
C1318 C1313 1.350 . S
C1319 H1306 0.929 . S
C1319 C1311 1.433 . S
C1319 N1321 1.384 . S
N1320 C1316 1.427 . S
N1320 C1317 1.384 . S
N1321 C1313 1.427 . S
N1321 C1319 1.384 . S
H1322 C1328 0.930 . S
H1323 C1332 0.930 . S
H1324 C1337 0.929 . S
H1325 C1335 0.929 . S
H1326 C1330 0.929 . S
H1327 C1336 0.929 . S
C1328 H1322 0.930 . S
C1328 C1329 1.367 . S
C1328 C1336 1.378 . S
C1329 C1328 1.367 . S
C1329 C1337 1.433 . S
C1330 H1326 0.929 . S
C1330 C1332 1.378 . S
C1330 C1334 1.350 . S
C1331 C1334 1.463 . S
C1331 C1336 1.350 . S
C1331 N1339 1.427 . S
C1332 H1323 0.930 . S
C1332 C1330 1.378 . S
C1332 C1333 1.367 . S
C1333 C1332 1.367 . S
C1333 C1335 1.433 . S
C1334 C1330 1.350 . S
C1334 C1331 1.463 . S
C1334 N1338 1.427 . S
C1335 H1325 0.929 . S
C1335 C1333 1.433 . S
C1335 N1338 1.384 . S
C1336 H1327 0.929 . S
C1336 C1328 1.378 . S
C1336 C1331 1.350 . S
C1337 H1324 0.929 . S
C1337 C1329 1.433 . S
C1337 N1339 1.384 . S
N1338 C1334 1.427 . S
N1338 C1335 1.384 . S
N1339 C1331 1.427 . S
N1339 C1337 1.384 . S
H1340 C1346 0.930 . S
H1341 C1350 0.930 . S
H1342 C1355 0.929 . S
H1343 C1353 0.929 . S
H1344 C1348 0.929 . S
H1345 C1354 0.929 . S
C1346 H1340 0.930 . S
C1346 C1347 1.367 . S
C1346 C1354 1.378 . S
C1347 C1346 1.367 . S
C1347 C1355 1.433 . S
C1348 H1344 0.929 . S
C1348 C1350 1.378 . S
C1348 C1352 1.350 . S
C1349 C1352 1.463 . S
C1349 C1354 1.350 . S
C1349 N1357 1.427 . S
C1350 H1341 0.930 . S
C1350 C1348 1.378 . S
C1350 C1351 1.367 . S
C1351 C1350 1.367 . S
C1351 C1353 1.433 . S
C1352 C1348 1.350 . S
C1352 C1349 1.463 . S
C1352 N1356 1.427 . S
C1353 H1343 0.929 . S
C1353 C1351 1.433 . S
C1353 N1356 1.384 . S
C1354 H1345 0.929 . S
C1354 C1346 1.378 . S
C1354 C1349 1.350 . S
C1355 H1342 0.929 . S
C1355 C1347 1.433 . S
C1355 N1357 1.384 . S
N1356 C1352 1.427 . S
N1356 C1353 1.384 . S
N1357 C1349 1.427 . S
N1357 C1355 1.384 . S
H1358 C1364 0.930 . S
H1359 C1368 0.930 . S
H1360 C1373 0.929 . S
H1361 C1371 0.929 . S
H1362 C1366 0.929 . S
H1363 C1372 0.929 . S
C1364 H1358 0.930 . S
C1364 C1365 1.367 . S
C1364 C1372 1.378 . S
C1365 C1364 1.367 . S
C1365 C1373 1.433 . S
C1366 H1362 0.929 . S
C1366 C1368 1.378 . S
C1366 C1370 1.350 . S
C1367 C1370 1.463 . S
C1367 C1372 1.350 . S
C1367 N1375 1.427 . S
C1368 H1359 0.930 . S
C1368 C1366 1.378 . S
C1368 C1369 1.367 . S
C1369 C1368 1.367 . S
C1369 C1371 1.433 . S
C1370 C1366 1.350 . S
C1370 C1367 1.463 . S
C1370 N1374 1.427 . S
C1371 H1361 0.929 . S
C1371 C1369 1.433 . S
C1371 N1374 1.384 . S
C1372 H1363 0.929 . S
C1372 C1364 1.378 . S
C1372 C1367 1.350 . S
C1373 H1360 0.929 . S
C1373 C1365 1.433 . S
C1373 N1375 1.384 . S
N1374 C1370 1.427 . S
N1374 C1371 1.384 . S
N1375 C1367 1.427 . S
N1375 C1373 1.384 . S
H1376 C1382 0.930 . S
H1377 C1386 0.930 . S
H1378 C1391 0.929 . S
H1379 C1389 0.929 . S
H1380 C1384 0.929 . S
H1381 C1390 0.929 . S
C1382 H1376 0.930 . S
C1382 C1383 1.367 . S
C1382 C1390 1.378 . S
C1383 C1382 1.367 . S
C1383 C1391 1.433 1_455 S
C1384 H1380 0.929 . S
C1384 C1386 1.378 . S
C1384 C1388 1.350 . S
C1385 C1388 1.463 1_455 S
C1385 C1390 1.350 . S
C1385 N1393 1.427 1_455 S
C1386 H1377 0.930 . S
C1386 C1384 1.378 . S
C1386 C1387 1.367 . S
C1387 C1386 1.367 . S
C1387 C1389 1.433 1_655 S
C1388 C1384 1.350 . S
C1388 C1385 1.463 1_655 S
C1388 N1392 1.427 1_655 S
C1389 H1379 0.929 . S
C1389 C1387 1.433 1_455 S
C1389 N1392 1.384 . S
C1390 H1381 0.929 . S
C1390 C1382 1.378 . S
C1390 C1385 1.350 . S
C1391 H1378 0.929 . S
C1391 C1383 1.433 1_655 S
C1391 N1393 1.384 . S
N1392 C1388 1.427 1_455 S
N1392 C1389 1.384 . S
N1393 C1385 1.427 1_655 S
N1393 C1391 1.384 . S
H1394 C1400 0.930 . S
H1395 C1404 0.930 . S
H1396 C1409 0.929 . S
H1397 C1407 0.929 . S
H1398 C1402 0.929 . S
H1399 C1408 0.929 . S
C1400 H1394 0.930 . S
C1400 C1401 1.367 . S
C1400 C1408 1.378 1_565 S
C1401 C1400 1.367 . S
C1401 C1409 1.433 . S
C1402 H1398 0.929 . S
C1402 C1404 1.378 1_565 S
C1402 C1406 1.350 1_565 S
C1403 C1406 1.463 1_565 S
C1403 C1408 1.350 1_565 S
C1403 N1411 1.427 . S
C1404 H1395 0.930 . S
C1404 C1402 1.378 1_545 S
C1404 C1405 1.367 . S
C1405 C1404 1.367 . S
C1405 C1407 1.433 . S
C1406 C1402 1.350 1_545 S
C1406 C1403 1.463 1_545 S
C1406 N1410 1.427 . S
C1407 H1397 0.929 . S
C1407 C1405 1.433 . S
C1407 N1410 1.384 . S
C1408 H1399 0.929 . S
C1408 C1400 1.378 1_545 S
C1408 C1403 1.350 1_545 S
C1409 H1396 0.929 . S
C1409 C1401 1.433 . S
C1409 N1411 1.384 . S
N1410 C1406 1.427 . S
N1410 C1407 1.384 . S
N1411 C1403 1.427 . S
N1411 C1409 1.384 . S
H1412 C1418 0.930 . S
H1413 C1422 0.930 . S
H1414 C1427 0.929 . S
H1415 C1425 0.929 . S
H1416 C1420 0.929 . S
H1417 C1426 0.929 . S
C1418 H1412 0.930 . S
C1418 C1419 1.367 . S
C1418 C1426 1.378 . S
C1419 C1418 1.367 . S
C1419 C1427 1.433 1_455 S
C1420 H1416 0.929 . S
C1420 C1422 1.378 . S
C1420 C1424 1.350 . S
C1421 C1424 1.463 1_455 S
C1421 C1426 1.350 . S
C1421 N1429 1.427 1_455 S
C1422 H1413 0.930 . S
C1422 C1420 1.378 . S
C1422 C1423 1.367 . S
C1423 C1422 1.367 . S
C1423 C1425 1.433 1_655 S
C1424 C1420 1.350 . S
C1424 C1421 1.463 1_655 S
C1424 N1428 1.427 1_655 S
C1425 H1415 0.929 . S
C1425 C1423 1.433 1_455 S
C1425 N1428 1.384 . S
C1426 H1417 0.929 . S
C1426 C1418 1.378 . S
C1426 C1421 1.350 . S
C1427 H1414 0.929 . S
C1427 C1419 1.433 1_655 S
C1427 N1429 1.384 . S
N1428 C1424 1.427 1_455 S
N1428 C1425 1.384 . S
N1429 C1421 1.427 1_655 S
N1429 C1427 1.384 . S
H1430 C1436 0.930 . S
H1431 C1440 0.930 . S
H1432 C1445 0.929 . S
H1433 C1443 0.929 . S
H1434 C1438 0.929 . S
H1435 C1444 0.929 . S
C1436 H1430 0.930 . S
C1436 C1437 1.367 1_565 S
C1436 C1444 1.378 . S
C1437 C1436 1.367 1_545 S
C1437 C1445 1.433 . S
C1438 H1434 0.929 . S
C1438 C1440 1.378 . S
C1438 C1442 1.350 1_545 S
C1439 C1442 1.463 1_545 S
C1439 C1444 1.350 1_545 S
C1439 N1447 1.427 . S
C1440 H1431 0.930 . S
C1440 C1438 1.378 . S
C1440 C1441 1.367 1_545 S
C1441 C1440 1.367 1_565 S
C1441 C1443 1.433 . S
C1442 C1438 1.350 1_565 S
C1442 C1439 1.463 1_565 S
C1442 N1446 1.427 . S
C1443 H1433 0.929 . S
C1443 C1441 1.433 . S
C1443 N1446 1.384 . S
C1444 H1435 0.929 . S
C1444 C1436 1.378 . S
C1444 C1439 1.350 1_565 S
C1445 H1432 0.929 . S
C1445 C1437 1.433 . S
C1445 N1447 1.384 . S
N1446 C1442 1.427 . S
N1446 C1443 1.384 . S
N1447 C1439 1.427 . S
N1447 C1445 1.384 . S
H1448 C1454 0.930 . S
H1449 C1458 0.930 . S
H1450 C1463 0.929 . S
H1451 C1461 0.929 . S
H1452 C1456 0.929 . S
H1453 C1462 0.929 . S
C1454 H1448 0.930 . S
C1454 C1455 1.367 . S
C1454 C1462 1.378 . S
C1455 C1454 1.367 . S
C1455 C1463 1.433 . S
C1456 H1452 0.929 . S
C1456 C1458 1.378 . S
C1456 C1460 1.350 . S
C1457 C1460 1.463 1_556 S
C1457 C1462 1.350 . S
C1457 N1465 1.427 . S
C1458 H1449 0.930 . S
C1458 C1456 1.378 . S
C1458 C1459 1.367 . S
C1459 C1458 1.367 . S
C1459 C1461 1.433 . S
C1460 C1456 1.350 . S
C1460 C1457 1.463 1_554 S
C1460 N1464 1.427 . S
C1461 H1451 0.929 . S
C1461 C1459 1.433 . S
C1461 N1464 1.384 . S
C1462 H1453 0.929 . S
C1462 C1454 1.378 . S
C1462 C1457 1.350 . S
C1463 H1450 0.929 . S
C1463 C1455 1.433 . S
C1463 N1465 1.384 . S
N1464 C1460 1.427 . S
N1464 C1461 1.384 . S
N1465 C1457 1.427 . S
N1465 C1463 1.384 . S
H1466 C1472 0.930 . S
H1467 C1476 0.930 . S
H1468 C1481 0.929 . S
H1469 C1479 0.929 . S
H1470 C1474 0.929 . S
H1471 C1480 0.929 . S
C1472 H1466 0.930 . S
C1472 C1473 1.367 . S
C1472 C1480 1.378 . S
C1473 C1472 1.367 . S
C1473 C1481 1.433 . S
C1474 H1470 0.929 . S
C1474 C1476 1.378 . S
C1474 C1478 1.350 . S
C1475 C1478 1.463 1_556 S
C1475 C1480 1.350 . S
C1475 N1483 1.427 . S
C1476 H1467 0.930 . S
C1476 C1474 1.378 . S
C1476 C1477 1.367 . S
C1477 C1476 1.367 . S
C1477 C1479 1.433 . S
C1478 C1474 1.350 . S
C1478 C1475 1.463 1_554 S
C1478 N1482 1.427 . S
C1479 H1469 0.929 . S
C1479 C1477 1.433 . S
C1479 N1482 1.384 . S
C1480 H1471 0.929 . S
C1480 C1472 1.378 . S
C1480 C1475 1.350 . S
C1481 H1468 0.929 . S
C1481 C1473 1.433 . S
C1481 N1483 1.384 . S
N1482 C1478 1.427 . S
N1482 C1479 1.384 . S
N1483 C1475 1.427 . S
N1483 C1481 1.384 . S
H1484 C1490 0.930 . S
H1485 C1494 0.930 . S
H1486 C1499 0.929 . S
H1487 C1497 0.929 . S
H1488 C1492 0.929 . S
H1489 C1498 0.929 . S
C1490 H1484 0.930 . S
C1490 C1491 1.367 . S
C1490 C1498 1.378 . S
C1491 C1490 1.367 . S
C1491 C1499 1.433 . S
C1492 H1488 0.929 . S
C1492 C1494 1.378 . S
C1492 C1496 1.350 . S
C1493 C1496 1.463 1_554 S
C1493 C1498 1.350 . S
C1493 N1501 1.427 . S
C1494 H1485 0.930 . S
C1494 C1492 1.378 . S
C1494 C1495 1.367 . S
C1495 C1494 1.367 . S
C1495 C1497 1.433 . S
C1496 C1492 1.350 . S
C1496 C1493 1.463 1_556 S
C1496 N1500 1.427 . S
C1497 H1487 0.929 . S
C1497 C1495 1.433 . S
C1497 N1500 1.384 . S
C1498 H1489 0.929 . S
C1498 C1490 1.378 . S
C1498 C1493 1.350 . S
C1499 H1486 0.929 . S
C1499 C1491 1.433 . S
C1499 N1501 1.384 . S
N1500 C1496 1.427 . S
N1500 C1497 1.384 . S
N1501 C1493 1.427 . S
N1501 C1499 1.384 . S
H1502 C1508 0.930 . S
H1503 C1512 0.930 . S
H1504 C1517 0.929 . S
H1505 C1515 0.929 . S
H1506 C1510 0.929 . S
H1507 C1516 0.929 . S
C1508 H1502 0.930 . S
C1508 C1509 1.367 . S
C1508 C1516 1.378 . S
C1509 C1508 1.367 . S
C1509 C1517 1.433 . S
C1510 H1506 0.929 . S
C1510 C1512 1.378 . S
C1510 C1514 1.350 . S
C1511 C1514 1.463 1_556 S
C1511 C1516 1.350 . S
C1511 N1519 1.427 . S
C1512 H1503 0.930 . S
C1512 C1510 1.378 . S
C1512 C1513 1.367 . S
C1513 C1512 1.367 . S
C1513 C1515 1.433 . S
C1514 C1510 1.350 . S
C1514 C1511 1.463 1_554 S
C1514 N1518 1.427 . S
C1515 H1505 0.929 . S
C1515 C1513 1.433 . S
C1515 N1518 1.384 . S
C1516 H1507 0.929 . S
C1516 C1508 1.378 . S
C1516 C1511 1.350 . S
C1517 H1504 0.929 . S
C1517 C1509 1.433 . S
C1517 N1519 1.384 . S
N1518 C1514 1.427 . S
N1518 C1515 1.384 . S
N1519 C1511 1.427 . S
N1519 C1517 1.384 . S
C951 C3 1.630 . S
C955 C229 1.644 1_545 S
C969 C52 1.650 1_655 S
C973 C62 1.621 . S
C987 C111 1.648 1_565 S
C991 C121 1.626 . S
C1005 C170 1.644 1_455 S
C1009 C180 1.631 . S
C1023 C239 1.621 . S
C1027 C347 1.651 1_565 S
C1041 C298 1.619 . S
C1045 C406 1.652 1_455 S
C1059 C357 1.619 . S
C1063 C465 1.652 1_545 S
C1077 C416 1.631 . S
C1081 C288 1.644 1_655 S
C1095 C475 1.622 . S
C1099 C701 1.650 . S
C1113 C524 1.649 . S
C1117 C534 1.623 . S
C1131 C583 1.647 . S
C1135 C593 1.627 . S
C1149 C652 1.621 . S
C1153 C642 1.651 . S
C1167 C819 1.648 . S
C1171 C711 1.625 . S
C1185 C878 1.650 . S
C1189 C770 1.622 . S
C1203 C829 1.630 . S
C1207 C937 1.644 . S
C1221 C888 1.630 . S
C1225 C760 1.644 . S
C1239 C5 1.447 . S
C1243 C890 1.444 . S
C1257 C64 1.445 . S
C1261 C713 1.442 . S
C1275 C772 1.439 . S
C1279 C123 1.441 . S
C1293 C182 1.438 . S
C1297 C831 1.438 . S
C1311 C536 1.449 . S
C1315 C241 1.446 . S
C1329 C595 1.453 . S
C1333 C300 1.451 . S
C1347 C359 1.439 . S
C1351 C654 1.438 . S
C1365 C418 1.441 . S
C1369 C477 1.439 . S
C1383 C33 1.680 . S
C1387 C387 1.684 . S
C1401 C446 1.681 . S
C1405 C92 1.687 . S
C1419 C269 1.680 . S
C1423 C151 1.683 . S
C1437 C328 1.683 . S
C1441 C210 1.688 . S
C1455 C505 1.686 . S
C1459 C859 1.680 . S
C1473 C564 1.685 . S
C1477 C918 1.687 . S
C1491 C741 1.688 . S
C1495 C623 1.682 . S
C1509 C682 1.683 . S
C1513 C800 1.680 . S
