# Generated by pormake.
# Topology umn, (4)-cn, num edge types: 1
# Building blocks:
#     Node 0, Type 0, BuildingBlock: TATPOV_clean_sbu_0, # of connection points: 4
#     Node 1, Type 0, BuildingBlock: TATPOV_clean_sbu_0, # of connection points: 4
#     Node 2, Type 0, BuildingBlock: TATPOV_clean_sbu_0, # of connection points: 4
#     Node 3, Type 0, BuildingBlock: TATPOV_clean_sbu_0, # of connection points: 4
#     Node 4, Type 0, BuildingBlock: TATPOV_clean_sbu_0, # of connection points: 4
#     Node 5, Type 0, BuildingBlock: TATPOV_clean_sbu_0, # of connection points: 4
#     Node 6, Type 0, BuildingBlock: TATPOV_clean_sbu_0, # of connection points: 4
#     Node 7, Type 0, BuildingBlock: TATPOV_clean_sbu_0, # of connection points: 4
#     Node 8, Type 0, BuildingBlock: TATPOV_clean_sbu_0, # of connection points: 4
#     Node 9, Type 0, BuildingBlock: TATPOV_clean_sbu_0, # of connection points: 4
#     Node 10, Type 0, BuildingBlock: TATPOV_clean_sbu_0, # of connection points: 4
#     Node 11, Type 0, BuildingBlock: TATPOV_clean_sbu_0, # of connection points: 4
#     Node 12, Type 0, BuildingBlock: TATPOV_clean_sbu_0, # of connection points: 4
#     Node 13, Type 0, BuildingBlock: TATPOV_clean_sbu_0, # of connection points: 4
#     Node 14, Type 0, BuildingBlock: TATPOV_clean_sbu_0, # of connection points: 4
#     Node 15, Type 0, BuildingBlock: TATPOV_clean_sbu_0, # of connection points: 4
#     Node 16, Type 0, BuildingBlock: TATPOV_clean_sbu_0, # of connection points: 4
#     Node 17, Type 0, BuildingBlock: TATPOV_clean_sbu_0, # of connection points: 4
#     Node 18, Type 0, BuildingBlock: TATPOV_clean_sbu_0, # of connection points: 4
#     Node 19, Type 0, BuildingBlock: TATPOV_clean_sbu_0, # of connection points: 4
#     Node 20, Type 0, BuildingBlock: TATPOV_clean_sbu_0, # of connection points: 4
#     Node 21, Type 0, BuildingBlock: TATPOV_clean_sbu_0, # of connection points: 4
#     Node 22, Type 0, BuildingBlock: TATPOV_clean_sbu_0, # of connection points: 4
#     Node 23, Type 0, BuildingBlock: TATPOV_clean_sbu_0, # of connection points: 4
#     Node 24, Type 0, BuildingBlock: TATPOV_clean_sbu_0, # of connection points: 4
#     Node 25, Type 0, BuildingBlock: TATPOV_clean_sbu_0, # of connection points: 4
#     Node 26, Type 0, BuildingBlock: TATPOV_clean_sbu_0, # of connection points: 4
#     Node 27, Type 0, BuildingBlock: TATPOV_clean_sbu_0, # of connection points: 4
#     Node 28, Type 0, BuildingBlock: TATPOV_clean_sbu_0, # of connection points: 4
#     Node 29, Type 0, BuildingBlock: TATPOV_clean_sbu_0, # of connection points: 4
#     Node 30, Type 0, BuildingBlock: TATPOV_clean_sbu_0, # of connection points: 4
#     Node 31, Type 0, BuildingBlock: TATPOV_clean_sbu_0, # of connection points: 4
#     Node 32, Type 0, BuildingBlock: TATPOV_clean_sbu_0, # of connection points: 4
#     Node 33, Type 0, BuildingBlock: TATPOV_clean_sbu_0, # of connection points: 4
#     Node 34, Type 0, BuildingBlock: TATPOV_clean_sbu_0, # of connection points: 4
#     Node 35, Type 0, BuildingBlock: TATPOV_clean_sbu_0, # of connection points: 4
#     Edge 36, Type (0, 0), BuildingBlock: OJICUG_clean_linker_0, # of connection points: 2
#     Edge 37, Type (0, 0), BuildingBlock: OJICUG_clean_linker_0, # of connection points: 2
#     Edge 38, Type (0, 0), BuildingBlock: OJICUG_clean_linker_0, # of connection points: 2
#     Edge 39, Type (0, 0), BuildingBlock: OJICUG_clean_linker_0, # of connection points: 2
#     Edge 40, Type (0, 0), BuildingBlock: OJICUG_clean_linker_0, # of connection points: 2
#     Edge 41, Type (0, 0), BuildingBlock: OJICUG_clean_linker_0, # of connection points: 2
#     Edge 42, Type (0, 0), BuildingBlock: OJICUG_clean_linker_0, # of connection points: 2
#     Edge 43, Type (0, 0), BuildingBlock: OJICUG_clean_linker_0, # of connection points: 2
#     Edge 44, Type (0, 0), BuildingBlock: OJICUG_clean_linker_0, # of connection points: 2
#     Edge 45, Type (0, 0), BuildingBlock: OJICUG_clean_linker_0, # of connection points: 2
#     Edge 46, Type (0, 0), BuildingBlock: OJICUG_clean_linker_0, # of connection points: 2
#     Edge 47, Type (0, 0), BuildingBlock: OJICUG_clean_linker_0, # of connection points: 2
#     Edge 48, Type (0, 0), BuildingBlock: OJICUG_clean_linker_0, # of connection points: 2
#     Edge 49, Type (0, 0), BuildingBlock: OJICUG_clean_linker_0, # of connection points: 2
#     Edge 50, Type (0, 0), BuildingBlock: OJICUG_clean_linker_0, # of connection points: 2
#     Edge 51, Type (0, 0), BuildingBlock: OJICUG_clean_linker_0, # of connection points: 2
#     Edge 52, Type (0, 0), BuildingBlock: OJICUG_clean_linker_0, # of connection points: 2
#     Edge 53, Type (0, 0), BuildingBlock: OJICUG_clean_linker_0, # of connection points: 2
#     Edge 54, Type (0, 0), BuildingBlock: OJICUG_clean_linker_0, # of connection points: 2
#     Edge 55, Type (0, 0), BuildingBlock: OJICUG_clean_linker_0, # of connection points: 2
#     Edge 56, Type (0, 0), BuildingBlock: OJICUG_clean_linker_0, # of connection points: 2
#     Edge 57, Type (0, 0), BuildingBlock: OJICUG_clean_linker_0, # of connection points: 2
#     Edge 58, Type (0, 0), BuildingBlock: OJICUG_clean_linker_0, # of connection points: 2
#     Edge 59, Type (0, 0), BuildingBlock: OJICUG_clean_linker_0, # of connection points: 2
#     Edge 60, Type (0, 0), BuildingBlock: OJICUG_clean_linker_0, # of connection points: 2
#     Edge 61, Type (0, 0), BuildingBlock: OJICUG_clean_linker_0, # of connection points: 2
#     Edge 62, Type (0, 0), BuildingBlock: OJICUG_clean_linker_0, # of connection points: 2
#     Edge 63, Type (0, 0), BuildingBlock: OJICUG_clean_linker_0, # of connection points: 2
#     Edge 64, Type (0, 0), BuildingBlock: OJICUG_clean_linker_0, # of connection points: 2
#     Edge 65, Type (0, 0), BuildingBlock: OJICUG_clean_linker_0, # of connection points: 2
#     Edge 66, Type (0, 0), BuildingBlock: OJICUG_clean_linker_0, # of connection points: 2
#     Edge 67, Type (0, 0), BuildingBlock: OJICUG_clean_linker_0, # of connection points: 2
#     Edge 68, Type (0, 0), BuildingBlock: OJICUG_clean_linker_0, # of connection points: 2
#     Edge 69, Type (0, 0), BuildingBlock: OJICUG_clean_linker_0, # of connection points: 2
#     Edge 70, Type (0, 0), BuildingBlock: OJICUG_clean_linker_0, # of connection points: 2
#     Edge 71, Type (0, 0), BuildingBlock: OJICUG_clean_linker_0, # of connection points: 2
#     Edge 72, Type (0, 0), BuildingBlock: OJICUG_clean_linker_0, # of connection points: 2
#     Edge 73, Type (0, 0), BuildingBlock: OJICUG_clean_linker_0, # of connection points: 2
#     Edge 74, Type (0, 0), BuildingBlock: OJICUG_clean_linker_0, # of connection points: 2
#     Edge 75, Type (0, 0), BuildingBlock: OJICUG_clean_linker_0, # of connection points: 2
#     Edge 76, Type (0, 0), BuildingBlock: OJICUG_clean_linker_0, # of connection points: 2
#     Edge 77, Type (0, 0), BuildingBlock: OJICUG_clean_linker_0, # of connection points: 2
#     Edge 78, Type (0, 0), BuildingBlock: OJICUG_clean_linker_0, # of connection points: 2
#     Edge 79, Type (0, 0), BuildingBlock: OJICUG_clean_linker_0, # of connection points: 2
#     Edge 80, Type (0, 0), BuildingBlock: OJICUG_clean_linker_0, # of connection points: 2
#     Edge 81, Type (0, 0), BuildingBlock: OJICUG_clean_linker_0, # of connection points: 2
#     Edge 82, Type (0, 0), BuildingBlock: OJICUG_clean_linker_0, # of connection points: 2
#     Edge 83, Type (0, 0), BuildingBlock: OJICUG_clean_linker_0, # of connection points: 2
#     Edge 84, Type (0, 0), BuildingBlock: OJICUG_clean_linker_0, # of connection points: 2
#     Edge 85, Type (0, 0), BuildingBlock: OJICUG_clean_linker_0, # of connection points: 2
#     Edge 86, Type (0, 0), BuildingBlock: OJICUG_clean_linker_0, # of connection points: 2
#     Edge 87, Type (0, 0), BuildingBlock: OJICUG_clean_linker_0, # of connection points: 2
#     Edge 88, Type (0, 0), BuildingBlock: OJICUG_clean_linker_0, # of connection points: 2
#     Edge 89, Type (0, 0), BuildingBlock: OJICUG_clean_linker_0, # of connection points: 2
#     Edge 90, Type (0, 0), BuildingBlock: OJICUG_clean_linker_0, # of connection points: 2
#     Edge 91, Type (0, 0), BuildingBlock: OJICUG_clean_linker_0, # of connection points: 2
#     Edge 92, Type (0, 0), BuildingBlock: OJICUG_clean_linker_0, # of connection points: 2
#     Edge 93, Type (0, 0), BuildingBlock: OJICUG_clean_linker_0, # of connection points: 2
#     Edge 94, Type (0, 0), BuildingBlock: OJICUG_clean_linker_0, # of connection points: 2
#     Edge 95, Type (0, 0), BuildingBlock: OJICUG_clean_linker_0, # of connection points: 2
#     Edge 96, Type (0, 0), BuildingBlock: OJICUG_clean_linker_0, # of connection points: 2
#     Edge 97, Type (0, 0), BuildingBlock: OJICUG_clean_linker_0, # of connection points: 2
#     Edge 98, Type (0, 0), BuildingBlock: OJICUG_clean_linker_0, # of connection points: 2
#     Edge 99, Type (0, 0), BuildingBlock: OJICUG_clean_linker_0, # of connection points: 2
#     Edge 100, Type (0, 0), BuildingBlock: OJICUG_clean_linker_0, # of connection points: 2
#     Edge 101, Type (0, 0), BuildingBlock: OJICUG_clean_linker_0, # of connection points: 2
#     Edge 102, Type (0, 0), BuildingBlock: OJICUG_clean_linker_0, # of connection points: 2
#     Edge 103, Type (0, 0), BuildingBlock: OJICUG_clean_linker_0, # of connection points: 2
#     Edge 104, Type (0, 0), BuildingBlock: OJICUG_clean_linker_0, # of connection points: 2
#     Edge 105, Type (0, 0), BuildingBlock: OJICUG_clean_linker_0, # of connection points: 2
#     Edge 106, Type (0, 0), BuildingBlock: OJICUG_clean_linker_0, # of connection points: 2
#     Edge 107, Type (0, 0), BuildingBlock: OJICUG_clean_linker_0, # of connection points: 2
# Relax obj value: 0.236
# Max RMSD: 0.293
# Mean RMSD: 0.286
data_MOF--net-umn--node1-TATPOV_clean_sbu_0--edge1-OJICUG_clean_linker_0
_symmetry_space_group_name_H-M    P1
_symmetry_Int_Tables_number       1
_symmetry_cell_setting            triclinic
loop_
_symmetry_equiv_pos_as_xyz
'x, y, z'
_cell_length_a     61.633661
_cell_length_b     61.842998
_cell_length_c     27.10289
_cell_angle_alpha  89.775664
_cell_angle_beta   89.821666
_cell_angle_gamma 119.0034
loop_
_atom_site_label
_atom_site_type_symbol
_atom_site_fract_x
_atom_site_fract_y
_atom_site_fract_z
_atom_type_partial_charge
Zn0 Zn 0.38362 0.06689 0.24055 0.0
Zn1 Zn 0.36748 0.09659 0.23421 0.0
O2 O 0.39591 0.10508 0.18243 0.0
O3 O 0.41625 0.08596 0.20532 0.0
O4 O 0.35913 0.12385 0.22555 0.0
O5 O 0.37892 0.06351 0.3141 0.0
O6 O 0.36922 0.09325 0.31009 0.0
C7 C 0.41374 0.1004 0.17559 0.0
C8 C 0.33506 0.04611 0.19757 0.0
O9 O 0.33625 0.06607 0.21269 0.0
O10 O 0.35392 0.04306 0.2004 0.0
C11 C 0.35136 0.12588 0.18341 0.0
O12 O 0.34985 0.11066 0.14822 0.0
C13 C 0.37185 0.07723 0.33531 0.0
Zn14 Zn 0.942 0.27944 0.20521 0.0
Zn15 Zn 0.89608 0.24907 0.20876 0.0
O16 O 0.89986 0.2764 0.1574 0.0
O17 O 0.93835 0.30551 0.16851 0.0
O18 O 0.86092 0.22236 0.20266 0.0
O19 O 0.94123 0.27764 0.27974 0.0
O20 O 0.90041 0.25725 0.28238 0.0
C21 C 0.9175 0.2982 0.14834 0.0
C22 C 0.93619 0.23402 0.18704 0.0
O23 O 0.91469 0.22933 0.20146 0.0
O24 O 0.95073 0.25555 0.17098 0.0
C25 C 0.85654 0.20986 0.16342 0.0
O26 O 0.87405 0.21709 0.12959 0.0
C27 C 0.92123 0.26711 0.30448 0.0
Zn28 Zn 0.6744 0.59311 0.24621 0.0
Zn29 Zn 0.71964 0.61542 0.23685 0.0
O30 O 0.70282 0.58512 0.18852 0.0
O31 O 0.66558 0.56023 0.21713 0.0
O32 O 0.75633 0.62851 0.22769 0.0
O33 O 0.67436 0.59965 0.31842 0.0
O34 O 0.71478 0.6155 0.31321 0.0
C35 C 0.6823 0.5649 0.18519 0.0
C36 C 0.69301 0.63967 0.19525 0.0
O37 O 0.71375 0.64281 0.21084 0.0
O38 O 0.67369 0.61889 0.20086 0.0
C39 C 0.76665 0.63889 0.18717 0.0
O40 O 0.75292 0.64019 0.15152 0.0
C41 C 0.69542 0.6105 0.33867 0.0
Zn42 Zn -0.00136 0.29877 0.29757 0.0
Zn43 Zn 0.0418 0.30539 0.3061 0.0
O44 O 0.03873 0.33052 0.3544 0.0
O45 O 0.00435 0.32977 0.3309 0.0
O46 O 0.07511 0.30932 0.32168 0.0
O47 O 0.00306 0.29743 0.224 0.0
O48 O 0.04321 0.31153 0.23118 0.0
C49 C 0.02361 0.33909 0.35724 0.0
C50 C -0.00432 0.25492 0.32065 0.0
O51 O 0.01862 0.2679 0.31045 0.0
O52 O 0.98411 0.26608 0.33434 0.0
C53 C 0.08258 0.29635 0.29844 0.0
O54 O 0.06822 0.28083 0.26473 0.0
C55 C 0.02401 0.30404 0.20417 0.0
Zn56 Zn 0.60099 0.69514 0.23054 0.0
Zn57 Zn 0.63769 0.72931 0.27791 0.0
O58 O 0.6143 0.70299 0.32762 0.0
O59 O 0.58183 0.67395 0.29019 0.0
O60 O 0.65708 0.75869 0.32089 0.0
O61 O 0.59264 0.7175 0.18861 0.0
O62 O 0.62888 0.74389 0.21806 0.0
C63 C 0.59409 0.68255 0.32942 0.0
C64 C 0.65202 0.70075 0.21595 0.0
O65 O 0.65984 0.71721 0.24933 0.0
O66 O 0.62935 0.69018 0.20323 0.0
C67 C 0.67232 0.77954 0.30254 0.0
O68 O 0.67756 0.78109 0.2552 0.0
C69 C 0.61186 0.73857 0.18641 0.0
Zn70 Zn 0.25404 0.89976 0.23438 0.0
Zn71 Zn 0.22431 0.91024 0.27982 0.0
O72 O 0.24932 0.90913 0.32964 0.0
O73 O 0.27338 0.89717 0.29269 0.0
O74 O 0.19352 0.90279 0.31868 0.0
O75 O 0.22998 0.87178 0.19077 0.0
O76 O 0.20917 0.88957 0.21786 0.0
C77 C 0.26732 0.90443 0.33136 0.0
C78 C 0.2581 0.95038 0.2201 0.0
O79 O 0.24122 0.94476 0.25269 0.0
O80 O 0.26507 0.93484 0.20794 0.0
C81 C 0.18616 0.88428 0.34755 0.0
O82 O 0.20037 0.87409 0.35363 0.0
C83 C 0.21158 0.87552 0.18681 0.0
Zn84 Zn 0.59378 0.90572 0.75461 0.0
Zn85 Zn 0.60009 0.87352 0.78531 0.0
O86 O 0.57708 0.88147 0.8329 0.0
O87 O 0.56628 0.90584 0.79398 0.0
O88 O 0.5911 0.83849 0.80314 0.0
O89 O 0.59489 0.90373 0.6813 0.0
O90 O 0.60839 0.87903 0.70858 0.0
C91 C 0.56511 0.8936 0.83232 0.0
C92 C 0.64278 0.91792 0.80103 0.0
O93 O 0.63468 0.89507 0.80926 0.0
O94 O 0.62895 0.92547 0.7815 0.0
C95 C 0.59263 0.82277 0.77535 0.0
O96 O 0.60067 0.82897 0.72979 0.0
C97 C 0.60627 0.89167 0.67331 0.0
Zn98 Zn 0.01821 0.71593 0.81912 0.0
Zn99 Zn 0.06318 0.75011 0.81284 0.0
O100 O 0.06348 0.72498 0.8652 0.0
O101 O 0.02651 0.6928 0.85561 0.0
O102 O 0.09748 0.779 0.81326 0.0
O103 O 0.01781 0.71679 0.74466 0.0
O104 O 0.05842 0.73989 0.7405 0.0
C105 C 0.04784 0.70243 0.87468 0.0
C106 C 0.01901 0.75927 0.83337 0.0
O107 O 0.04108 0.76637 0.8186 0.0
O108 O 0.00725 0.73812 0.85331 0.0
C109 C 0.11764 0.77817 0.81627 0.0
O110 O 0.11703 0.75677 0.82177 0.0
C111 C 0.03748 0.72821 0.71921 0.0
Zn112 Zn 0.27412 0.36178 0.71012 0.0
Zn113 Zn 0.23642 0.34169 0.75633 0.0
O114 O 0.26463 0.3687 0.80278 0.0
O115 O 0.29813 0.38688 0.75675 0.0
O116 O 0.20327 0.33606 0.78177 0.0
O117 O 0.26533 0.36911 0.64357 0.0
O118 O 0.2319 0.33985 0.67879 0.0
C119 C 0.28776 0.38446 0.79826 0.0
C120 C 0.25268 0.3079 0.73658 0.0
O121 O 0.23756 0.30995 0.76562 0.0
O122 O 0.26855 0.32647 0.71224 0.0
C123 C 0.19123 0.3213 0.8168 0.0
O124 O 0.20118 0.30971 0.84045 0.0
C125 C 0.24378 0.35074 0.63956 0.0
Zn126 Zn 0.95841 0.69014 0.70625 0.0
Zn127 Zn 0.91304 0.67858 0.7053 0.0
O128 O 0.91708 0.65571 0.6522 0.0
O129 O 0.95375 0.6602 0.67018 0.0
O130 O 0.8775 0.67063 0.6997 0.0
O131 O 0.95619 0.69015 0.7804 0.0
O132 O 0.9154 0.6713 0.77839 0.0
C133 C 0.93377 0.6493 0.64625 0.0
C134 C 0.95571 0.73153 0.69211 0.0
O135 O 0.93339 0.71657 0.70435 0.0
O136 O 0.9681 0.72266 0.67156 0.0
C137 C 0.87039 0.68353 0.67504 0.0
O138 O 0.8868 0.70284 0.65005 0.0
C139 C 0.93553 0.68058 0.80288 0.0
Zn140 Zn 0.36051 0.29279 0.72438 0.0
Zn141 Zn 0.34411 0.25465 0.67982 0.0
O142 O 0.36734 0.28401 0.63087 0.0
O143 O 0.38289 0.31795 0.6745 0.0
O144 O 0.3436 0.22411 0.65326 0.0
O145 O 0.37047 0.28617 0.79056 0.0
O146 O 0.34496 0.25069 0.75705 0.0
C147 C 0.38082 0.30755 0.63337 0.0
C148 C 0.30572 0.26424 0.70301 0.0
O149 O 0.3097 0.25036 0.67416 0.0
O150 O 0.32357 0.28197 0.7251 0.0
C151 C 0.32956 0.20338 0.6737 0.0
O152 O 0.31492 0.20236 0.71003 0.0
C153 C 0.35512 0.26336 0.79552 0.0
Zn154 Zn 0.70237 0.05556 0.766 0.0
Zn155 Zn 0.73378 0.05515 0.70911 0.0
O156 O 0.7065 0.05715 0.66511 0.0
O157 O 0.67921 0.05818 0.71578 0.0
O158 O 0.76552 0.07212 0.66955 0.0
O159 O 0.72313 0.08046 0.81847 0.0
O160 O 0.74666 0.06877 0.77909 0.0
C161 C 0.68619 0.05764 0.67201 0.0
C162 C 0.70884 0.00988 0.75905 0.0
O163 O 0.72299 0.0192 0.72161 0.0
O164 O 0.69928 0.0216 0.78019 0.0
C165 C 0.77228 0.09485 0.66239 0.0
O166 O 0.75744 0.10328 0.67711 0.0
C167 C 0.74239 0.07799 0.81742 0.0
Zn168 Zn 0.00867 0.40524 0.60895 0.0
Zn169 Zn 0.97543 0.40717 0.55676 0.0
O170 O -0.00123 0.40063 0.51227 0.0
O171 O 0.02971 0.40193 0.55425 0.0
O172 O 0.96643 0.42844 0.51486 0.0
O173 O 0.01839 0.43429 0.65575 0.0
O174 O 0.98311 0.42567 0.62183 0.0
C175 C 0.01847 0.39876 0.51365 0.0
C176 C 0.95389 0.36373 0.61218 0.0
O177 O 0.94805 0.37371 0.57706 0.0
O178 O 0.97611 0.37381 0.62798 0.0
C179 C 0.95838 0.44141 0.53634 0.0
O180 O 0.94784 0.43432 0.57993 0.0
C181 C -0.00134 0.4359 0.65617 0.0
Zn182 Zn 0.62152 0.60757 0.54651 0.0
Zn183 Zn 0.57856 0.57179 0.54551 0.0
O184 O 0.57882 0.5987 0.49627 0.0
O185 O 0.61411 0.63185 0.51246 0.0
O186 O 0.54548 0.54194 0.53545 0.0
O187 O 0.62049 0.60414 0.62077 0.0
O188 O 0.58049 0.57779 0.62041 0.0
C189 C 0.59365 0.62181 0.48995 0.0
C190 C 0.62478 0.56666 0.5236 0.0
O191 O 0.60225 0.55747 0.53719 0.0
O192 O 0.6359 0.58898 0.50952 0.0
C193 C 0.52472 0.54134 0.52998 0.0
O194 O 0.52363 0.56203 0.53069 0.0
C195 C 0.60067 0.59013 0.64405 0.0
Zn196 Zn 0.3615 0.00092 0.53618 0.0
Zn197 Zn 0.38921 0.98167 0.5372 0.0
O198 O 0.3589 0.95985 0.48978 0.0
O199 O 0.33266 0.97374 0.50282 0.0
O200 O 0.41327 0.96868 0.52683 0.0
O201 O 0.3637 0.00219 0.61039 0.0
O202 O 0.38238 0.97954 0.6121 0.0
C203 C 0.33762 0.95825 0.48273 0.0
C204 C 0.40769 0.03689 0.51522 0.0
O205 O 0.41146 0.01928 0.5288 0.0
O206 O 0.38642 0.0314 0.49908 0.0
C207 C 0.43222 0.97607 0.5543 0.0
O208 O 0.43513 -0.00874 0.59061 0.0
C209 C 0.37344 -0.00841 0.63464 0.0
Zn210 Zn 0.67608 0.63717 0.63258 0.0
Zn211 Zn 0.72209 0.65439 0.63634 0.0
O212 O 0.71306 0.67517 0.68674 0.0
O213 O 0.67476 0.66489 0.66712 0.0
O214 O 0.75859 0.66705 0.64525 0.0
O215 O 0.67874 0.63629 0.55833 0.0
O216 O 0.71937 0.65857 0.56152 0.0
C217 C 0.69402 0.67816 0.69184 0.0
C218 C 0.68522 0.59962 0.65417 0.0
O219 O 0.70674 0.61659 0.64178 0.0
O220 O 0.66979 0.60606 0.66941 0.0
C221 C 0.76654 0.65666 0.67513 0.0
O222 O 0.75058 0.63813 0.70249 0.0
C223 C 0.69955 0.64698 0.53643 0.0
Zn224 Zn 0.34155 0.0336 0.63027 0.0
Zn225 Zn 0.33386 0.06911 0.63754 0.0
O226 O 0.30938 0.04124 0.68769 0.0
O227 O 0.31078 0.0082 0.66321 0.0
O228 O 0.32839 0.09798 0.65161 0.0
O229 O 0.34338 0.03818 0.55662 0.0
O230 O 0.32819 0.06373 0.56243 0.0
C231 C 0.30131 0.0179 0.69063 0.0
C232 C 0.38503 0.0737 0.65224 0.0
O233 O 0.37175 0.08359 0.64124 0.0
O234 O 0.37404 0.05151 0.66714 0.0
C235 C 0.33934 0.11751 0.62548 0.0
O236 O 0.35413 0.11844 0.58954 0.0
C237 C 0.33627 0.05206 0.53605 0.0
Zn238 Zn 0.95629 0.25131 0.59691 0.0
Zn239 Zn 0.91317 0.21848 0.60254 0.0
O240 O 0.9359 0.2111 0.65077 0.0
O241 O 0.97405 0.23448 0.62476 0.0
O242 O 0.87879 0.18951 0.61072 0.0
O243 O 0.95475 0.25694 0.52484 0.0
O244 O 0.91817 0.22367 0.52659 0.0
C245 C 0.9591 0.21802 0.65405 0.0
C246 C 0.9256 0.26776 0.64276 0.0
O247 O 0.90877 0.24746 0.62564 0.0
O248 O 0.948 0.2724 0.64166 0.0
C249 C 0.87286 0.16675 0.60972 0.0
O250 O 0.89019 0.16049 0.60272 0.0
C251 C 0.93525 0.24181 0.5027 0.0
Zn252 Zn 0.27439 0.2402 0.05235 0.0
Zn253 Zn 0.29902 0.22242 0.08485 0.0
O254 O 0.26929 0.21603 0.13265 0.0
O255 O 0.24303 0.22405 0.0931 0.0
O256 O 0.30979 0.19806 0.10512 0.0
O257 O 0.27838 0.23701 0.97929 0.0
O258 O 0.30183 0.2223 0.00806 0.0
C259 C 0.24906 0.2171 0.13226 0.0
C260 C 0.32266 0.27439 0.09803 0.0
O261 O 0.32661 0.25614 0.10181 0.0
O262 O 0.30228 0.27158 0.0812 0.0
C263 C 0.31891 0.19779 0.14688 0.0
O264 O 0.32122 0.2141 0.18029 0.0
C265 C 0.29396 0.22958 0.97163 0.0
Zn266 Zn 0.74664 0.02012 0.07534 0.0
Zn267 Zn 0.75829 0.05978 0.12059 0.0
O268 O 0.76301 0.0368 0.17061 0.0
O269 O 0.75448 0.00271 0.1312 0.0
O270 O 0.78063 0.09432 0.14192 0.0
O271 O 0.76504 0.03346 0.00976 0.0
O272 O 0.76438 0.06475 0.04542 0.0
C273 C 0.7601 0.0149 0.17101 0.0
C274 C 0.70703 0.03329 0.10341 0.0
O275 O 0.72304 0.05156 0.12767 0.0
O276 O 0.71293 0.01925 0.0795 0.0
C277 C 0.77548 0.11027 0.15957 0.0
O278 O 0.75254 0.10397 0.17192 0.0
C279 C 0.76724 0.05489 0.00661 0.0
Zn280 Zn 0.9637 0.71693 0.10235 0.0
Zn281 Zn 0.91891 0.70072 0.10953 0.0
O282 O 0.93825 0.72838 0.16277 0.0
O283 O 0.97673 0.74917 0.13679 0.0
O284 O 0.88299 0.69095 0.11985 0.0
O285 O 0.96327 0.71385 0.02928 0.0
O286 O 0.92428 0.70509 0.03353 0.0
C287 C 0.96031 0.74636 0.16805 0.0
C288 C 0.93859 0.66786 0.14072 0.0
O289 O 0.91974 0.66902 0.12546 0.0
O290 O 0.95964 0.68711 0.14093 0.0
C291 C 0.87266 0.68067 0.16041 0.0
O292 O 0.88608 0.67788 0.19486 0.0
C293 C 0.94297 0.70805 0.00798 0.0
Zn294 Zn 0.55508 0.94238 0.11326 0.0
Zn295 Zn 0.55388 0.97654 0.06019 0.0
O296 O 0.5437 0.94661 0.01328 0.0
O297 O 0.54515 0.91737 0.05681 0.0
O298 O 0.5439 -0.00072 0.02674 0.0
O299 O 0.53374 0.94285 0.17075 0.0
O300 O 0.54274 0.97727 0.13186 0.0
C301 C 0.54213 0.92528 0.01558 0.0
C302 C 0.60269 0.98844 0.09316 0.0
O303 O 0.59075 -0.00548 0.06319 0.0
O304 O 0.59174 0.96856 0.11819 0.0
C305 C 0.53442 -0.00388 0.9841 0.0
O306 O 0.532 0.97747 0.95723 0.0
C307 C 0.53525 0.96404 0.17079 0.0
Zn308 Zn 0.03382 0.62137 0.12117 0.0
Zn309 Zn 0.00385 0.58705 0.06577 0.0
O310 O 0.02794 0.61706 0.02406 0.0
O311 O 0.05658 0.64608 0.06934 0.0
O312 O -0.00318 0.55746 0.02487 0.0
O313 O 0.04216 0.60256 0.17317 0.0
O314 O 0.00881 0.5766 0.13409 0.0
C315 C 0.04693 0.6384 0.02742 0.0
C316 C 0.97848 0.60746 0.11394 0.0
O317 O 0.97479 0.59228 0.07909 0.0
O318 O -0.0001 0.61963 0.13314 0.0
C319 C -0.01295 0.53633 0.04557 0.0
O320 O 0.97709 0.53358 0.08963 0.0
C321 C 0.02253 0.5818 0.17177 0.0
Zn322 Zn 0.36451 0.41999 0.06806 0.0
Zn323 Zn 0.39833 0.42085 0.01339 0.0
O324 O 0.37154 0.42151 0.96687 0.0
O325 O 0.34236 0.42143 0.01357 0.0
O326 O 0.42977 0.43492 0.97314 0.0
O327 O 0.38519 0.44617 0.11885 0.0
O328 O 0.41116 0.43719 0.08111 0.0
C329 C 0.35059 0.42092 0.97093 0.0
C330 C 0.37199 0.37531 0.06554 0.0
O331 O 0.38741 0.38545 0.03028 0.0
O332 O 0.3612 0.38627 0.08492 0.0
C333 C 0.44858 0.43429 0.9906 0.0
O334 O 0.44617 0.42224 0.03208 0.0
C335 C 0.40577 0.44617 0.11837 0.0
Zn336 Zn 0.66426 0.73168 0.94807 0.0
Zn337 Zn 0.62551 0.72279 0.89974 0.0
O338 O 0.65237 0.72377 0.85233 0.0
O339 O 0.68704 0.73368 0.89117 0.0
O340 O 0.60533 0.73213 0.85497 0.0
O341 O 0.66741 0.75987 0.9914 0.0
O342 O 0.62987 0.7436 0.96181 0.0
C343 C 0.67464 0.72756 0.85163 0.0
C344 C 0.61725 0.68188 0.95978 0.0
O345 O 0.60698 0.68794 0.9257 0.0
O346 O 0.63927 0.69689 0.97324 0.0
C347 C 0.59067 0.73925 0.87228 0.0
O348 O 0.58486 0.73574 0.9194 0.0
C349 C 0.64569 0.75714 0.99371 0.0
Zn350 Zn 0.23668 0.94044 0.94977 0.0
Zn351 Zn 0.23866 0.90597 0.90247 0.0
O352 O 0.24405 0.93395 0.85309 0.0
O353 O 0.24012 0.96298 0.8916 0.0
O354 O 0.22368 0.87472 0.86288 0.0
O355 O 0.20569 0.92032 0.99149 0.0
O356 O 0.21596 0.89351 0.96321 0.0
C357 C 0.24457 0.95482 0.85226 0.0
C358 C 0.2806 0.93112 0.96369 0.0
O359 O 0.27214 0.91497 0.9297 0.0
O360 O 0.26885 0.9424 0.97651 0.0
C361 C 0.20433 0.87223 0.84123 0.0
O362 O 0.19971 0.89086 0.84186 0.0
C363 C 0.20384 0.89904 0.99395 0.0
Zn364 Zn -0.00271 0.26039 0.90853 0.0
Zn365 Zn 0.04157 0.27606 0.90085 0.0
O366 O 0.0209 0.24839 0.84802 0.0
O367 O 0.98291 0.22747 0.87645 0.0
O368 O 0.07711 0.28366 0.89058 0.0
O369 O -0.00269 0.26475 0.98099 0.0
O370 O 0.03636 0.2737 0.97755 0.0
C371 C -0.00128 0.23047 0.84361 0.0
C372 C 0.02266 0.30885 0.86628 0.0
O373 O 0.04155 0.30789 0.88207 0.0
O374 O 0.00155 0.28964 0.86747 0.0
C375 C 0.08918 0.29674 0.85359 0.0
O376 O 0.078 0.30442 0.82256 0.0
C377 C 0.01768 0.27127 0.00256 0.0
Zn378 Zn 0.39115 0.04602 0.92465 0.0
Zn379 Zn 0.42392 0.0336 0.92886 0.0
O380 O 0.43253 0.0635 0.97597 0.0
O381 O 0.4099 0.08017 0.95292 0.0
O382 O 0.45303 0.02767 0.93066 0.0
O383 O 0.38437 0.03798 0.85242 0.0
O384 O 0.41665 0.03199 0.85421 0.0
C385 C 0.42639 0.08037 0.9809 0.0
C386 C 0.37633 0.0002 0.97707 0.0
O387 O 0.39618 0.0022 0.95865 0.0
O388 O 0.37135 0.01773 0.97224 0.0
C389 C 0.47394 0.04151 0.95017 0.0
O390 O 0.47794 0.06209 0.97178 0.0
C391 C 0.39875 0.03186 0.83059 0.0
Zn392 Zn 0.94094 0.37596 0.8907 0.0
Zn393 Zn 0.97694 0.4078 0.94311 0.0
O394 O 0.95027 0.38159 0.98811 0.0
O395 O 0.91772 0.35524 0.94668 0.0
O396 O -0.00797 0.43784 0.98573 0.0
O397 O 0.93641 0.39923 0.84337 0.0
O398 O 0.97224 0.42163 0.8784 0.0
C399 C 0.92889 0.36251 0.98743 0.0
C400 C -0.00797 0.37848 0.88973 0.0
O401 O -0.00028 0.39474 0.9236 0.0
O402 O 0.97005 0.36972 0.87318 0.0
C403 C 0.00362 0.45915 0.96595 0.0
O404 O 0.01165 0.46115 0.92034 0.0
C405 C 0.95739 0.41861 0.84353 0.0
Zn406 Zn 0.63979 0.5772 0.93543 0.0
Zn407 Zn 0.59758 0.54205 0.94205 0.0
O408 O 0.62209 0.53753 0.98998 0.0
O409 O 0.6598 0.56278 0.96407 0.0
O410 O 0.56508 0.51072 0.95096 0.0
O411 O 0.63745 0.58239 0.86322 0.0
O412 O 0.60189 0.54797 0.86594 0.0
C413 C 0.64555 0.54606 0.99376 0.0
C414 C 0.60605 0.58954 0.98409 0.0
O415 O 0.59012 0.56863 0.96754 0.0
O416 O 0.62896 0.59627 0.98055 0.0
C417 C 0.54624 0.50716 0.92588 0.0
O418 O 0.54861 0.52368 0.8926 0.0
C419 C 0.61811 0.56656 0.84164 0.0
Zn420 Zn 0.95963 0.58708 0.40236 0.0
Zn421 Zn -0.01121 0.58249 0.46063 0.0
O422 O 0.9635 0.58895 0.4989 0.0
O423 O 0.9352 0.5892 0.45055 0.0
O424 O -0.00715 0.55774 0.50236 0.0
O425 O 0.95287 0.5607 0.3504 0.0
O426 O -0.01396 0.56824 0.3919 0.0
C427 C 0.94422 0.59131 0.49331 0.0
C428 C 0.01481 0.6275 0.41444 0.0
O429 O 0.01823 0.61607 0.45031 0.0
O430 O -0.00628 0.61851 0.39355 0.0
C431 C 0.00102 0.54458 0.48201 0.0
O432 O 0.0135 0.55227 0.4404 0.0
C433 C 0.97297 0.55984 0.3535 0.0
Zn434 Zn 0.40552 0.38206 0.35976 0.0
Zn435 Zn 0.40505 0.41475 0.41355 0.0
O436 O 0.40628 0.38779 0.45869 0.0
O437 O 0.40909 0.36018 0.4128 0.0
O438 O 0.42239 0.44576 0.45371 0.0
O439 O 0.43039 0.40304 0.30625 0.0
O440 O 0.41975 0.42763 0.34415 0.0
C441 C 0.40761 0.36789 0.45525 0.0
C442 C 0.35926 0.38813 0.36705 0.0
O443 O 0.36923 0.40389 0.4014 0.0
O444 O 0.37087 0.37802 0.3474 0.0
C445 C 0.44381 0.44913 0.46501 0.0
O446 O 0.45006 0.4325 0.45148 0.0
C447 C 0.42903 0.42286 0.30647 0.0
Zn448 Zn 0.6015 0.01845 0.4106 0.0
Zn449 Zn 0.5675 -0.01043 0.46623 0.0
O450 O 0.59707 0.01425 0.5112 0.0
O451 O 0.62666 0.04017 0.46196 0.0
O452 O 0.53656 0.97919 0.5072 0.0
O453 O 0.58374 0.0282 0.35915 0.0
O454 O 0.55627 -0.00523 0.39702 0.0
C455 C 0.61897 0.03243 0.50529 0.0
C456 C 0.58722 0.96399 0.4139 0.0
O457 O 0.57324 0.96087 0.45104 0.0
O458 O 0.59945 0.98523 0.39404 0.0
C459 C 0.51533 0.965 0.48905 0.0
O460 O 0.51406 0.95455 0.44625 0.0
C461 C 0.56255 0.00905 0.3595 0.0
Zn462 Zn 0.24083 0.27362 0.39321 0.0
Zn463 Zn 0.21173 0.28548 0.35658 0.0
O464 O 0.21335 0.25777 0.31399 0.0
O465 O 0.2343 0.24327 0.35446 0.0
O466 O 0.18089 0.28523 0.33371 0.0
O467 O 0.23437 0.27558 0.46539 0.0
O468 O 0.21138 0.29005 0.4331 0.0
C469 C 0.2223 0.24296 0.31641 0.0
C470 C 0.26202 0.32275 0.34381 0.0
O471 O 0.24001 0.31818 0.33499 0.0
O472 O 0.26624 0.30692 0.36528 0.0
C473 C 0.17581 0.30161 0.34928 0.0
O474 O 0.19123 0.31864 0.37957 0.0
C475 C 0.22157 0.28641 0.47076 0.0
Zn476 Zn 0.69372 0.95311 0.4288 0.0
Zn477 Zn 0.68237 0.91231 0.39975 0.0
O478 O 0.7105 0.94051 0.35559 0.0
O479 O 0.72526 0.97617 0.39286 0.0
O480 O 0.68472 0.88249 0.37893 0.0
O481 O 0.68938 0.94739 0.50182 0.0
O482 O 0.67471 0.90926 0.47627 0.0
C483 C 0.72571 0.96375 0.35627 0.0
C484 C 0.64517 0.92509 0.3779 0.0
O485 O 0.64963 0.90717 0.37446 0.0
O486 O 0.66109 0.94549 0.39629 0.0
C487 C 0.6836 0.86512 0.40584 0.0
O488 O 0.68001 0.86528 0.4536 0.0
C489 C 0.6773 0.92439 0.51069 0.0
Zn490 Zn 0.00297 0.73295 0.42167 0.0
Zn491 Zn 0.04468 0.76934 0.41818 0.0
O492 O 0.02155 0.77331 0.36547 0.0
O493 O 0.98361 0.7467 0.38815 0.0
O494 O 0.07793 0.79999 0.41289 0.0
O495 O 0.00348 0.72936 0.49476 0.0
O496 O 0.03766 0.76519 0.49327 0.0
C497 C -0.00191 0.76391 0.3596 0.0
C498 C 0.03882 0.72109 0.38421 0.0
O499 O 0.0534 0.74242 0.40089 0.0
O500 O 0.01576 0.71376 0.38213 0.0
C501 C 0.0833 0.82076 0.39358 0.0
O502 O 0.06563 0.82419 0.37446 0.0
C503 C 0.02143 0.74654 0.51737 0.0
C504 C 0.27142 -0.00451 0.22501 0.0
C505 C 0.27251 0.9759 0.20123 0.0
H506 H 0.29081 0.03417 0.241 0.0
C507 C 0.29086 0.98125 0.16502 0.0
H508 H 0.25725 -0.00806 0.25246 0.0
C509 C 0.31009 0.00532 0.15876 0.0
C510 C 0.31097 0.02435 0.18801 0.0
H511 H 0.29178 0.9666 0.14496 0.0
H512 H 0.32548 0.00859 0.13469 0.0
C513 C 0.29057 0.01971 0.21819 0.0
C514 C 0.95568 0.2183 0.29993 0.0
C515 C 0.98121 0.23258 0.2903 0.0
H516 H 0.9195 0.20498 0.27032 0.0
C517 C -0.01058 0.23348 0.24126 0.0
H518 H 0.9487 0.21631 0.33737 0.0
C519 C 0.9727 0.22821 0.20243 0.0
C520 C 0.94779 0.22104 0.21305 0.0
H521 H 0.00904 0.24322 0.23233 0.0
H522 H 0.98007 0.23428 0.16556 0.0
C523 C 0.93888 0.21198 0.26096 0.0
C524 C 0.6692 0.65717 0.15458 0.0
C525 C 0.68962 0.66094 0.1832 0.0
H526 H 0.64139 0.66755 0.1418 0.0
C527 C 0.70165 0.68234 0.21207 0.0
H528 H 0.65987 0.64096 0.1315 0.0
C529 C 0.69076 0.69733 0.21897 0.0
C530 C 0.66799 0.69112 0.1965 0.0
H531 H 0.71755 0.68569 0.2343 0.0
H532 H 0.69881 0.71211 0.24567 0.0
C533 C 0.65851 0.67229 0.16097 0.0
C534 C 0.67627 0.95423 0.83901 0.0
C535 C 0.66908 0.93584 0.80328 0.0
H536 H 0.69553 -0.00698 0.85251 0.0
C537 C 0.68204 0.94134 0.7581 0.0
H538 H 0.66645 0.95036 0.87397 0.0
C539 C 0.69808 0.96593 0.74486 0.0
C540 C 0.70144 0.98483 0.7774 0.0
H541 H 0.67657 0.9273 0.72989 0.0
H542 H 0.70508 0.97018 0.70736 0.0
C543 C 0.6925 0.9787 0.82616 0.0
C544 C 0.9786 0.75728 0.81405 0.0
C545 C 0.00405 0.76747 0.8036 0.0
H546 H 0.94209 0.73888 0.78449 0.0
C547 C 0.01222 0.7762 0.75518 0.0
H548 H 0.97165 0.75102 0.8511 0.0
C549 C -0.0048 0.76836 0.71637 0.0
C550 C 0.9699 0.75255 0.72603 0.0
H551 H 0.03176 0.78504 0.74572 0.0
H552 H 0.00223 0.7712 0.67885 0.0
C553 C 0.96156 0.7502 0.77535 0.0
C554 C 0.27448 0.26349 0.75998 0.0
C555 C 0.28105 0.2614 0.71113 0.0
H556 H 0.25891 0.2802 0.80712 0.0
C557 C 0.26937 0.2663 0.67196 0.0
H558 H 0.28333 0.2596 0.79069 0.0
C559 C 0.25536 0.27801 0.68148 0.0
C560 C 0.25312 0.2847 0.73004 0.0
H561 H 0.27423 0.26482 0.63413 0.0
H562 H 0.24957 0.28515 0.65056 0.0
C563 C 0.26047 0.27521 0.7695 0.0
C564 C 0.91941 0.32077 0.59943 0.0
C565 C 0.93672 0.33875 0.63095 0.0
H566 H 0.90097 0.28243 0.58044 0.0
C567 C 0.94227 0.33126 0.67611 0.0
H568 H 0.91462 0.32604 0.56468 0.0
C569 C 0.93475 0.30641 0.68483 0.0
C570 C 0.92118 0.28883 0.64895 0.0
H571 H 0.95508 0.3448 0.70176 0.0
H572 H 0.94229 0.30145 0.71626 0.0
C573 C 0.91148 0.29574 0.60868 0.0
C574 C 0.66571 0.56937 0.53786 0.0
C575 C 0.64025 0.55775 0.54922 0.0
H576 H 0.70211 0.59112 0.56642 0.0
C577 C 0.63294 0.54843 0.59758 0.0
H578 H 0.67208 0.57583 0.50062 0.0
C579 C 0.65013 0.55819 0.63596 0.0
C580 C 0.67461 0.57639 0.6253 0.0
H581 H 0.61347 0.53815 0.60753 0.0
H582 H 0.64321 0.55533 0.67357 0.0
C583 C 0.68302 0.5783 0.57615 0.0
C584 C 0.40787 0.08942 0.57366 0.0
C585 C 0.40775 0.08099 0.62217 0.0
H586 H 0.40868 0.08126 0.49728 0.0
C587 C 0.42158 0.06882 0.63119 0.0
H588 H 0.39849 0.09995 0.56526 0.0
C589 C 0.42839 0.05882 0.59165 0.0
C590 C 0.42047 0.0603 0.54354 0.0
H591 H 0.42282 0.06291 0.66829 0.0
H592 H 0.43489 0.04581 0.60025 0.0
C593 C 0.41388 0.07874 0.53416 0.0
C594 C 0.34932 0.34044 0.12419 0.0
C595 C 0.36518 0.35025 0.08306 0.0
H596 H 0.32354 0.30763 0.1625 0.0
C597 C 0.37215 0.33508 0.05663 0.0
H598 H 0.34412 0.35182 0.1462 0.0
C599 C 0.36082 0.3098 0.06723 0.0
C600 C 0.34246 0.29966 0.10402 0.0
H601 H 0.38466 0.34226 0.02531 0.0
H602 H 0.36423 0.29786 0.04295 0.0
C603 C 0.33787 0.31525 0.13432 0.0
C604 C 0.64404 0.01624 0.05657 0.0
C605 C 0.62953 0.00389 0.09795 0.0
H606 H 0.6808 0.03542 0.02621 0.0
C607 C 0.64102 0.00474 0.14312 0.0
H608 H 0.63549 0.01575 0.02141 0.0
C609 C 0.66679 0.01659 0.14614 0.0
C610 C 0.68114 0.02721 0.1038 0.0
H611 H 0.63007 -0.00452 0.17557 0.0
H612 H 0.67541 0.01594 0.1805 0.0
C613 C 0.66979 0.02752 0.05931 0.0
C614 C 0.93128 0.62858 0.10389 0.0
C615 C 0.93808 0.64407 0.14534 0.0
H616 H 0.93923 0.60424 0.06075 0.0
C617 C 0.95211 0.64118 0.18263 0.0
H618 H 0.92052 0.63068 0.07456 0.0
C619 C 0.96253 0.62592 0.17503 0.0
C620 C 0.95946 0.6139 0.12957 0.0
H621 H 0.95746 0.65292 0.21489 0.0
H622 H 0.97534 0.6259 0.20232 0.0
C623 C 0.9421 0.61356 0.09581 0.0
C624 C 0.58464 0.61275 0.95922 0.0
C625 C 0.59925 0.60878 0.99398 0.0
H626 H 0.57902 0.63989 0.92051 0.0
C627 C 0.61375 0.62766 0.02694 0.0
H628 H 0.57328 0.59838 0.9334 0.0
C629 C 0.61688 0.65131 0.01983 0.0
C630 C 0.60588 0.65637 0.97915 0.0
H631 H 0.62497 0.62491 0.05432 0.0
H632 H 0.63015 0.66612 0.04273 0.0
C633 C 0.58807 0.63658 0.95158 0.0
C634 C 0.33867 0.97498 0.02633 0.0
C635 C 0.35589 0.97595 0.99133 0.0
H636 H 0.30041 0.95863 0.046 0.0
C637 C 0.34895 0.95624 0.95833 0.0
H638 H 0.34375 -0.01016 0.05256 0.0
C639 C 0.32394 0.93863 0.95359 0.0
C640 C 0.30602 0.94064 0.98237 0.0
H641 H 0.36204 0.95656 0.93114 0.0
H642 H 0.31849 0.92571 0.92327 0.0
C643 C 0.31381 0.95722 0.02215 0.0
C644 C 0.03464 0.35112 0.89448 0.0
C645 C 0.02337 0.33263 0.85866 0.0
H646 H 0.03324 0.38061 0.93304 0.0
C647 C 0.00673 0.33389 0.82527 0.0
H648 H 0.04751 0.35042 0.92073 0.0
C649 C -0.0013 0.35116 0.83209 0.0
C650 C 0.0069 0.36708 0.87292 0.0
H651 H -0.00201 0.3199 0.79716 0.0
H652 H 0.98424 0.35033 0.80822 0.0
C653 C 0.02631 0.36827 0.90179 0.0
C654 C 0.03785 0.68526 0.34334 0.0
C655 C 0.04645 0.7021 0.38227 0.0
H656 H 0.02213 0.64737 0.32299 0.0
C657 C 0.05309 0.69526 0.42696 0.0
H658 H 0.0327 0.6902 0.3086 0.0
C659 C 0.04629 0.67047 0.43593 0.0
C660 C 0.03328 0.65277 0.39977 0.0
H661 H 0.05971 0.70806 0.45757 0.0
H662 H 0.04794 0.66483 0.473 0.0
C663 C 0.03164 0.66071 0.35187 0.0
C664 C 0.30018 0.35036 0.29974 0.0
C665 C 0.28308 0.3473 0.33673 0.0
H666 H 0.33845 0.36673 0.28016 0.0
C667 C 0.29074 0.36312 0.37763 0.0
H668 H 0.29459 0.3381 0.26826 0.0
C669 C 0.31596 0.37913 0.38532 0.0
C670 C 0.33344 0.37925 0.35196 0.0
H671 H 0.2777 0.36066 0.4069 0.0
H672 H 0.32177 0.38905 0.41984 0.0
C673 C 0.32529 0.36643 0.30715 0.0
C674 C 0.61653 0.93571 0.3368 0.0
C675 C 0.62016 0.92156 0.37276 0.0
H676 H 0.60204 0.96011 0.3218 0.0
C677 C 0.60559 0.91478 0.41597 0.0
H678 H 0.62764 0.94116 0.30334 0.0
C679 C 0.59159 0.92635 0.42762 0.0
C680 C 0.59189 0.94427 0.39544 0.0
H681 H 0.60833 0.90395 0.44434 0.0
H682 H 0.58342 0.92369 0.46411 0.0
C683 C 0.60226 0.94692 0.34797 0.0
C684 C 0.34607 0.04124 0.45384 0.0
C685 C 0.34175 0.05755 0.48279 0.0
H686 H 0.35975 0.03501 0.38614 0.0
C687 C 0.34695 0.08057 0.46251 0.0
H688 H 0.34197 0.02325 0.46808 0.0
C689 C 0.35708 0.08736 0.41475 0.0
C690 C 0.36251 0.07139 0.38689 0.0
H691 H 0.34412 0.09368 0.48415 0.0
H692 H 0.361 0.10519 0.39999 0.0
C693 C 0.35656 0.04814 0.40693 0.0
C694 C 0.90863 0.23337 0.42701 0.0
C695 C 0.93118 0.24776 0.45162 0.0
H696 H 0.88742 0.22856 0.36127 0.0
C697 C 0.94917 0.26974 0.429 0.0
H698 H 0.8942 0.21657 0.44372 0.0
C699 C 0.94501 0.2769 0.38274 0.0
C700 C 0.92287 0.26221 0.35742 0.0
H701 H 0.96661 0.2816 0.44703 0.0
H702 H 0.95953 0.29364 0.36607 0.0
C703 C 0.90452 0.24052 0.38028 0.0
C704 C 0.6788 0.6329 0.45518 0.0
C705 C 0.70044 0.64157 0.48343 0.0
H706 H 0.66 0.61563 0.38887 0.0
C707 C 0.72105 0.64069 0.46309 0.0
H708 H 0.66271 0.63359 0.46945 0.0
C709 C 0.7196 0.63044 0.41619 0.0
C710 C 0.69741 0.62059 0.38917 0.0
H711 H 0.73792 0.64695 0.48419 0.0
H712 H 0.73565 0.6298 0.40155 0.0
C713 C 0.6772 0.62233 0.40906 0.0
C714 C 0.0437 0.29514 0.13068 0.0
C715 C 0.02471 0.29887 0.15099 0.0
H716 H 0.05639 0.28312 0.06775 0.0
C717 C 0.00402 0.29379 0.12188 0.0
H718 H 0.05977 0.29861 0.15245 0.0
C719 C 0.00168 0.28416 0.07469 0.0
C720 C 0.02025 0.2798 0.05444 0.0
H721 H -0.01081 0.29671 0.13604 0.0
H722 H -0.01475 0.28039 0.05388 0.0
C723 C 0.04157 0.28585 0.08259 0.0
C724 C 0.64388 0.76916 0.12874 0.0
C725 C 0.61866 0.75261 0.13898 0.0
H726 H 0.67256 0.78383 0.0737 0.0
C727 C 0.60191 0.74459 0.09951 0.0
H728 H 0.65735 0.77623 0.15818 0.0
C729 C 0.61068 0.74952 0.0508 0.0
C730 C 0.6364 0.76209 0.04076 0.0
H731 H 0.58233 0.73223 0.10594 0.0
H732 H 0.59742 0.7408 0.02144 0.0
C733 C 0.65271 0.77361 0.08005 0.0
C734 C 0.2047 0.86048 0.09961 0.0
C735 C 0.19886 0.87167 0.13858 0.0
H736 H 0.2097 0.8596 0.02185 0.0
C737 C 0.1867 0.88542 0.12745 0.0
H738 H 0.21358 0.84937 0.10676 0.0
C739 C 0.18509 0.89193 0.07864 0.0
C740 C 0.19499 0.88422 0.04016 0.0
H741 H 0.18131 0.89386 0.15653 0.0
H742 H 0.17862 0.90511 0.07175 0.0
C743 C 0.20251 0.86649 0.05072 0.0
C744 C 0.63204 0.8829 0.61101 0.0
C745 C 0.62319 0.89845 0.62963 0.0
H746 H 0.65597 0.87863 0.55817 0.0
C747 C 0.63344 0.92263 0.61059 0.0
H748 H 0.62489 0.86433 0.62554 0.0
C749 C 0.65199 0.93115 0.57444 0.0
C750 C 0.66054 0.91562 0.55476 0.0
H751 H 0.62766 0.93542 0.62469 0.0
H752 H 0.65906 0.94987 0.56076 0.0
C753 C 0.65012 0.89121 0.57307 0.0
C754 C 0.00844 0.72077 0.5941 0.0
C755 C 0.02551 0.74262 0.56972 0.0
H756 H -0.00051 0.69864 0.65952 0.0
C757 C 0.04765 0.75882 0.59385 0.0
H758 H -0.00864 0.70762 0.57648 0.0
C759 C 0.0524 0.7534 0.64156 0.0
C760 C 0.03506 0.73173 0.666 0.0
H761 H 0.06139 0.77558 0.57583 0.0
H762 H 0.06922 0.7666 0.65988 0.0
C763 C 0.01321 0.7154 0.64151 0.0
C764 C 0.20683 0.3043 0.53909 0.0
C765 C 0.22588 0.30209 0.51488 0.0
H766 H 0.19737 0.32133 0.59874 0.0
C767 C 0.25052 0.31755 0.52934 0.0
H768 H 0.18772 0.29297 0.52796 0.0
C769 C 0.2561 0.33462 0.56721 0.0
C770 C 0.23718 0.33632 0.59302 0.0
H771 H 0.26568 0.31678 0.51057 0.0
H772 H 0.27534 0.34574 0.57778 0.0
C773 C 0.21238 0.3208 0.57887 0.0
C774 C 0.91821 0.69377 0.9293 0.0
C775 C 0.94043 0.70107 0.95517 0.0
H776 H 0.89895 0.68104 0.86058 0.0
C777 C 0.95985 0.69928 0.93156 0.0
H778 H 0.90275 0.69452 0.94669 0.0
C779 C 0.95738 0.69087 0.88326 0.0
C780 C 0.93561 0.68439 0.85671 0.0
H781 H 0.97708 0.70419 0.95047 0.0
H782 H 0.97286 0.69 0.86623 0.0
C783 C 0.91585 0.68559 0.88036 0.0
C784 C 0.31748 0.22185 0.90304 0.0
C785 C 0.30848 0.23661 0.92489 0.0
H786 H 0.33914 0.21847 0.84375 0.0
C787 C 0.31633 0.26037 0.90553 0.0
H788 H 0.31206 0.20361 0.91776 0.0
C789 C 0.33284 0.26933 0.86575 0.0
C790 C 0.34149 0.25455 0.843 0.0
H791 H 0.31023 0.27245 0.92212 0.0
H792 H 0.33814 0.28764 0.85156 0.0
C793 C 0.33329 0.23049 0.86142 0.0
C794 C 0.75145 0.08832 0.9075 0.0
C795 C 0.7551 0.07808 0.86422 0.0
H796 H 0.75324 0.08967 0.98632 0.0
C797 C 0.76695 0.0635 0.868 0.0
H798 H 0.74238 0.09956 0.90607 0.0
C799 C 0.77258 0.05722 0.91417 0.0
C800 C 0.76715 0.06592 0.95767 0.0
H801 H 0.77004 0.05517 0.83555 0.0
H802 H 0.77991 0.04447 0.91587 0.0
C803 C 0.75769 0.08257 0.9536 0.0
C804 C 0.00478 0.44982 0.74411 0.0
C805 C -0.0104 0.44167 0.70239 0.0
H806 H 0.00628 0.44999 0.82255 0.0
C807 C 0.96391 0.43297 0.70839 0.0
H808 H 0.02462 0.457 0.74081 0.0
C809 C 0.95318 0.42821 0.75543 0.0
C810 C 0.96805 0.43274 0.79721 0.0
H811 H 0.95158 0.42693 0.67702 0.0
H812 H 0.93314 0.41866 0.75875 0.0
C813 C -0.0059 0.44572 0.79116 0.0
C814 C 0.62884 0.59525 0.76947 0.0
C815 C 0.61301 0.57203 0.79085 0.0
H816 H 0.63653 0.6196 0.70794 0.0
C817 C 0.59143 0.55565 0.76523 0.0
H818 H 0.64535 0.60864 0.78836 0.0
C819 C 0.58636 0.56208 0.71856 0.0
C820 C 0.60266 0.58508 0.69688 0.0
H821 H 0.5786 0.53781 0.78101 0.0
H822 H 0.57021 0.54868 0.6987 0.0
C823 C 0.62363 0.60172 0.72345 0.0
C824 C 0.36901 0.01454 0.76044 0.0
C825 C 0.39238 0.02098 0.78049 0.0
H826 H 0.34423 -0.00118 0.69977 0.0
C827 C 0.40827 0.0147 0.75426 0.0
H828 H 0.35599 0.01849 0.78001 0.0
C829 C 0.40133 0.0032 0.7081 0.0
C830 C 0.37832 -0.00234 0.68752 0.0
H831 H 0.42622 0.01899 0.76902 0.0
H832 H 0.41445 -0.00021 0.6875 0.0
C833 C 0.36205 0.0029 0.71475 0.0
C834 C 0.54913 0.00203 0.22257 0.0
C835 C 0.53535 0.97605 0.21848 0.0
H836 H 0.56862 0.03307 0.27052 0.0
C837 C 0.5262 0.96199 0.26187 0.0
H838 H 0.5565 0.01354 0.18997 0.0
C839 C 0.53268 0.97335 0.30818 0.0
C840 C 0.54904 -0.00101 0.31228 0.0
H841 H 0.51547 0.94202 0.26018 0.0
H842 H 0.52668 0.96159 0.34066 0.0
C843 C 0.55614 0.01333 0.2689 0.0
C844 C 0.01141 0.56835 0.30733 0.0
C845 C -0.01477 0.55697 0.30883 0.0
H846 H 0.04414 0.58538 0.26208 0.0
C847 C 0.97207 0.54801 0.26491 0.0
H848 H 0.02225 0.57525 0.34062 0.0
C849 C -0.0152 0.55309 0.21992 0.0
C850 C 0.01088 0.56803 0.21794 0.0
H851 H 0.95199 0.53892 0.26486 0.0
H852 H 0.97387 0.54767 0.18652 0.0
C853 C 0.02412 0.57417 0.26223 0.0
C854 C 0.43427 0.43711 0.16973 0.0
C855 C 0.4191 0.44832 0.16555 0.0
H856 H 0.44938 0.42013 0.21769 0.0
C857 C 0.41252 0.45614 0.20892 0.0
H858 H 0.43991 0.43093 0.13722 0.0
C859 C 0.41855 0.4504 0.25525 0.0
C860 C 0.43078 0.43619 0.25935 0.0
H861 H 0.40101 0.46492 0.20725 0.0
H862 H 0.41145 0.45509 0.28775 0.0
C863 C 0.43976 0.43084 0.21605 0.0
C864 C 0.32574 0.16303 0.11957 0.0
C865 C 0.32727 0.17948 0.15678 0.0
H866 H 0.33223 0.13337 0.09874 0.0
C867 C 0.337 0.17832 0.20291 0.0
H868 H 0.31839 0.16345 0.08354 0.0
C869 C 0.34496 0.16098 0.21164 0.0
C870 C 0.34338 0.14454 0.17434 0.0
H871 H 0.33844 0.19076 0.2323 0.0
H872 H 0.35231 0.16045 0.2476 0.0
C873 C 0.33373 0.14579 0.12824 0.0
C874 C 0.81452 0.14419 0.12504 0.0
C875 C 0.79505 0.13634 0.15951 0.0
H876 H 0.84872 0.17365 0.09843 0.0
C877 C 0.79479 0.15345 0.19302 0.0
H878 H 0.81497 0.1315 0.09812 0.0
C879 C 0.81445 0.17777 0.19356 0.0
C880 C 0.83428 0.18535 0.15984 0.0
H881 H 0.77987 0.14784 0.2197 0.0
H882 H 0.81437 0.19047 0.22088 0.0
C883 C 0.83377 0.16845 0.1249 0.0
C884 C 0.80526 0.66181 0.13615 0.0
C885 C 0.7938 0.6498 0.18053 0.0
H886 H 0.83912 0.6811 0.09505 0.0
C887 C 0.80858 0.64849 0.21858 0.0
H888 H 0.79444 0.66321 0.10614 0.0
C889 C 0.83421 0.6588 0.21224 0.0
C890 C 0.84565 0.67065 0.16773 0.0
H891 H 0.80035 0.63943 0.25329 0.0
H892 H 0.84502 0.65731 0.24218 0.0
C893 C 0.83091 0.67213 0.12983 0.0
C894 C 0.12279 0.31594 0.34396 0.0
C895 C 0.1068 0.29825 0.31017 0.0
H896 H 0.15722 0.33098 0.38262 0.0
C897 C 0.11397 0.28212 0.28836 0.0
H898 H 0.11782 0.3287 0.36129 0.0
C899 C 0.13652 0.28338 0.30071 0.0
C900 C 0.15239 0.30088 0.33494 0.0
H901 H 0.10206 0.26829 0.26217 0.0
H902 H 0.14142 0.27051 0.28363 0.0
C903 C 0.1454 0.31728 0.35614 0.0
C904 C 0.69228 0.84598 0.33284 0.0
C905 C 0.68435 0.84403 0.38215 0.0
H906 H 0.69524 0.82723 0.26929 0.0
C907 C 0.67558 0.82133 0.40701 0.0
H908 H 0.69949 0.86334 0.31288 0.0
C909 C 0.67307 0.80055 0.38188 0.0
C910 C 0.67949 0.80217 0.3316 0.0
H911 H 0.66951 0.81931 0.44511 0.0
H912 H 0.66508 0.78299 0.40129 0.0
C913 C 0.68999 0.8253 0.30789 0.0
C914 C 0.12816 0.83594 0.41045 0.0
C915 C 0.10971 0.83969 0.38801 0.0
H916 H 0.16679 0.84741 0.41595 0.0
C917 C 0.11694 0.86048 0.35733 0.0
H918 H 0.12329 0.82032 0.43488 0.0
C919 C 0.14207 0.87617 0.34655 0.0
C920 C 0.16034 0.87126 0.36627 0.0
H921 H 0.10318 0.86398 0.33975 0.0
H922 H 0.14703 0.89127 0.32071 0.0
C923 C 0.15316 0.85153 0.39969 0.0
C924 C 0.57741 0.79143 0.84365 0.0
C925 C 0.58798 0.79874 0.79634 0.0
H926 H 0.56933 0.76644 0.9043 0.0
C927 C 0.59581 0.78388 0.77127 0.0
H928 H 0.57084 0.80227 0.86368 0.0
C929 C 0.59497 0.76327 0.79465 0.0
C930 C 0.58615 0.75707 0.84345 0.0
H931 H 0.60383 0.78887 0.73462 0.0
H932 H 0.60247 0.75301 0.77541 0.0
C933 C 0.5764 0.77075 0.86686 0.0
C934 C 0.14205 0.82316 0.79776 0.0
C935 C 0.1414 0.80152 0.8156 0.0
H936 H 0.1628 0.86237 0.79039 0.0
C937 C 0.16311 0.80289 0.83527 0.0
H938 H 0.12577 0.82263 0.78146 0.0
C939 C 0.1845 0.82586 0.84056 0.0
C940 C 0.18446 0.84769 0.82593 0.0
H941 H 0.16317 0.78644 0.84894 0.0
H942 H 0.20051 0.82662 0.8586 0.0
C943 C 0.16335 0.84595 0.80264 0.0
C944 C 0.12718 0.29358 0.87544 0.0
C945 C 0.1155 0.30345 0.84544 0.0
H946 H 0.16026 0.29148 0.89007 0.0
C947 C 0.12922 0.31985 0.80714 0.0
H948 H 0.11715 0.28093 0.90534 0.0
C949 C 0.15392 0.32601 0.79861 0.0
C950 C 0.1655 0.31583 0.828 0.0
H951 H 0.12086 0.32791 0.78348 0.0
H952 H 0.16381 0.33852 0.76844 0.0
C953 C 0.1519 0.29965 0.86673 0.0
C954 C 0.83548 0.69036 0.64677 0.0
C955 C 0.84391 0.67701 0.67553 0.0
H956 H 0.80444 0.69449 0.62421 0.0
C957 C 0.8268 0.65737 0.70515 0.0
H958 H 0.8482 0.70564 0.62366 0.0
C959 C 0.80177 0.65107 0.70568 0.0
C960 C 0.79327 0.6642 0.67646 0.0
H961 H 0.8327 0.64676 0.72794 0.0
H962 H 0.78906 0.6357 0.7286 0.0
C963 C 0.8104 0.684 0.64717 0.0
C964 C 0.31726 0.15871 0.68538 0.0
C965 C 0.331 0.18104 0.65939 0.0
H966 H 0.30913 0.12117 0.69516 0.0
C967 C 0.34688 0.18206 0.62102 0.0
H968 H 0.30486 0.15729 0.71513 0.0
C969 C 0.34931 0.16132 0.60953 0.0
C970 C 0.33598 0.13915 0.63626 0.0
H971 H 0.35769 0.19897 0.60022 0.0
H972 H 0.36192 0.1628 0.58014 0.0
C973 C 0.31975 0.138 0.67399 0.0
C974 C 0.82834 0.15474 0.62396 0.0
C975 C 0.84674 0.14769 0.61885 0.0
H976 H 0.79051 0.1436 0.64091 0.0
C977 C 0.83999 0.12257 0.62437 0.0
H978 H 0.83278 0.17387 0.61951 0.0
C979 C 0.81554 0.10506 0.63668 0.0
C980 C 0.79742 0.11238 0.64366 0.0
H981 H 0.85371 0.11651 0.62046 0.0
H982 H 0.81105 0.08598 0.64219 0.0
C983 C 0.80401 0.13732 0.63616 0.0
C984 C 0.96307 0.48357 0.54904 0.0
C985 C 0.96775 0.46737 0.5203 0.0
H986 H 0.97036 0.52072 0.56039 0.0
C987 C 0.98402 0.47699 0.47976 0.0
H988 H 0.95084 0.47685 0.58084 0.0
C989 C -0.00446 0.50222 0.46854 0.0
C990 C -0.00903 0.51844 0.4974 0.0
H991 H -0.01173 0.46512 0.4571 0.0
H992 H 0.00783 0.50892 0.43682 0.0
C993 C 0.97455 0.50881 0.53773 0.0
C994 C 0.50405 0.49556 0.52189 0.0
C995 C 0.50252 0.51746 0.51918 0.0
H996 H 0.48657 0.45688 0.50765 0.0
C997 C 0.48024 0.51627 0.5034 0.0
H998 H 0.52078 0.49572 0.53456 0.0
C999 C 0.4604 0.49375 0.48798 0.0
C1000 C 0.46264 0.47219 0.48807 0.0
H1001 H 0.47846 0.53283 0.50119 0.0
H1002 H 0.44381 0.49345 0.47399 0.0
C1003 C 0.48438 0.47324 0.5065 0.0
C1004 C 0.49455 0.97788 0.55332 0.0
C1005 C 0.49286 0.96432 0.51062 0.0
H1006 H 0.47669 -0.00792 0.6008 0.0
C1007 C 0.4701 0.9524 0.48561 0.0
H1008 H 0.51176 0.98719 0.57363 0.0
C1009 C 0.44999 0.9553 0.50108 0.0
C1010 C 0.45218 0.97012 0.54199 0.0
H1011 H 0.4681 0.94172 0.45271 0.0
H1012 H 0.43305 0.94668 0.47981 0.0
C1013 C 0.47443 0.98072 0.56885 0.0
C1014 C 0.48967 0.01303 0.92364 0.0
C1015 C 0.49229 0.03276 0.95324 0.0
H1016 H 0.50134 0.98623 0.90951 0.0
C1017 C 0.5112 0.04246 0.98858 0.0
H1018 H 0.47544 0.00537 0.89562 0.0
C1019 C 0.52595 0.03137 0.99675 0.0
C1020 C 0.52221 0.01058 0.96934 0.0
H1021 H 0.51375 0.05774 0.01174 0.0
H1022 H 0.53957 0.03845 0.02596 0.0
C1023 C 0.50459 0.00212 0.93142 0.0
C1024 C 0.00417 0.5202 0.98015 0.0
C1025 C -0.0089 0.51652 0.02475 0.0
H1026 H 0.01898 0.50522 0.92718 0.0
C1027 C 0.9837 0.49449 0.0514 0.0
H1028 H 0.01042 0.53711 0.95903 0.0
C1029 C -0.01108 0.47637 0.03353 0.0
C1030 C 0.00158 0.47982 0.98846 0.0
H1031 H 0.97389 0.4912 0.08622 0.0
H1032 H 0.98251 0.45941 0.05457 0.0
C1033 C 0.00937 0.50204 0.96221 0.0
C1034 C 0.49474 0.45213 0.99237 0.0
C1035 C 0.47353 0.4503 0.96926 0.0
H1036 H 0.53437 0.47142 0.99666 0.0
C1037 C 0.47658 0.46568 0.92852 0.0
H1038 H 0.49307 0.44048 0.0237 0.0
C1039 C 0.50028 0.48346 0.91305 0.0
C1040 C 0.52144 0.48624 0.93798 0.0
H1041 H 0.46064 0.46467 0.9097 0.0
H1042 H 0.50194 0.49561 0.88266 0.0
C1043 C 0.51845 0.46991 0.97689 0.0
C1044 C 0.44449 0.08966 0.06587 0.0
C1045 C 0.43239 0.09484 0.02742 0.0
H1046 H 0.44868 0.08809 0.14389 0.0
C1047 C 0.42063 0.10893 0.03828 0.0
H1048 H 0.45413 0.07925 0.05887 0.0
C1049 C 0.41745 0.11399 0.08729 0.0
C1050 C 0.42599 0.10507 0.1263 0.0
H1051 H 0.41151 0.11372 0.00953 0.0
H1052 H 0.40595 0.12244 0.09455 0.0
C1053 C 0.44134 0.09475 0.11487 0.0
C1054 C 0.90043 0.30541 0.06928 0.0
C1055 C 0.91496 0.31474 0.11186 0.0
H1056 H 0.89321 0.31341 0.99582 0.0
C1057 C 0.93013 0.34042 0.11625 0.0
H1058 H 0.88856 0.28568 0.06494 0.0
C1059 C 0.93257 0.35623 0.07726 0.0
C1060 C 0.92013 0.34677 0.03252 0.0
H1061 H 0.94127 0.3482 0.14894 0.0
H1062 H 0.94562 0.37575 0.08101 0.0
C1063 C 0.90306 0.32132 0.02975 0.0
C1064 C 0.68196 0.55617 0.04834 0.0
C1065 C 0.65623 0.54224 0.04005 0.0
H1066 H 0.71076 0.57395 0.10161 0.0
C1067 C 0.64067 0.52976 0.08034 0.0
H1068 H 0.69464 0.56565 0.01811 0.0
C1069 C 0.65003 0.53438 0.12846 0.0
C1070 C 0.67508 0.55171 0.13716 0.0
H1071 H 0.62084 0.51852 0.07536 0.0
H1072 H 0.63703 0.52648 0.15887 0.0
C1073 C 0.69129 0.56092 0.09645 0.0
C1074 C 0.01349 0.37123 0.38758 0.0
C1075 C 0.02696 0.35845 0.39343 0.0
H1076 H 0.00094 0.39459 0.42021 0.0
C1077 C 0.04116 0.3625 0.43636 0.0
H1078 H 0.00264 0.36886 0.35466 0.0
C1079 C 0.04014 0.37738 0.47441 0.0
C1080 C 0.02498 0.38852 0.46999 0.0
H1081 H 0.05178 0.35296 0.4419 0.0
H1082 H 0.04991 0.3788 0.50843 0.0
C1083 C 0.01259 0.38612 0.42521 0.0
C1084 C 0.5733 0.62626 0.41256 0.0
C1085 C 0.58864 0.63695 0.45368 0.0
H1086 H 0.56265 0.63241 0.34063 0.0
C1087 C 0.60192 0.66287 0.45693 0.0
H1088 H 0.56278 0.60635 0.40901 0.0
C1089 C 0.6017 0.67774 0.41824 0.0
C1090 C 0.5883 0.66712 0.37495 0.0
H1091 H 0.61362 0.67175 0.48844 0.0
H1092 H 0.61336 0.69758 0.42104 0.0
C1093 C 0.57317 0.64123 0.37344 0.0
C1094 C 0.2939 0.93399 0.45383 0.0
C1095 C 0.31885 0.93965 0.44919 0.0
H1096 H 0.25794 0.91776 0.42124 0.0
C1097 C 0.32563 0.92965 0.40934 0.0
H1098 H 0.28793 0.94105 0.4845 0.0
C1099 C 0.30825 0.91618 0.37261 0.0
C1100 C 0.28379 0.9124 0.3753 0.0
H1101 H 0.34468 0.93362 0.40479 0.0
H1102 H 0.31445 0.91023 0.34056 0.0
C1103 C 0.27661 0.9205 0.41755 0.0
C1104 C 0.54372 0.91323 0.87871 0.0
C1105 C 0.55364 0.89695 0.87839 0.0
H1106 H 0.53189 0.93459 0.92194 0.0
C1107 C 0.55561 0.88687 0.92375 0.0
H1108 H 0.54172 0.9213 0.84464 0.0
C1109 C 0.54974 0.89442 0.96838 0.0
C1110 C 0.54192 0.91239 0.96883 0.0
H1111 H 0.56309 0.87423 0.9251 0.0
H1112 H 0.55301 0.88743 0.00266 0.0
C1113 C 0.53803 0.9209 0.92324 0.0
C1114 C 0.06706 0.6813 0.99008 0.0
C1115 C 0.05368 0.65543 0.98428 0.0
H1116 H 0.07597 0.71682 0.95924 0.0
C1117 C 0.04243 0.64591 0.93858 0.0
H1118 H 0.07591 0.68925 0.02481 0.0
C1119 C 0.04214 0.66157 0.90174 0.0
C1120 C 0.05346 0.6872 0.9092 0.0
H1121 H 0.03221 0.62615 0.93246 0.0
H1122 H 0.03186 0.65345 0.86828 0.0
C1123 C 0.06704 0.6971 0.95262 0.0
C1124 C 0.32949 0.41051 0.8373 0.0
C1125 C 0.30342 0.39747 0.84202 0.0
H1126 H 0.36469 0.42813 0.87376 0.0
C1127 C 0.29309 0.39499 0.88948 0.0
H1128 H 0.33827 0.41292 0.80151 0.0
C1129 C 0.30844 0.40418 0.93115 0.0
C1130 C 0.33449 0.41575 0.92652 0.0
H1131 H 0.27316 0.3851 0.89469 0.0
H1132 H 0.29982 0.40095 0.96728 0.0
C1133 C 0.34476 0.41931 0.87887 0.0
C1134 C 0.91884 0.62698 0.56514 0.0
C1135 C 0.93109 0.6301 0.61039 0.0
H1136 H 0.9132 0.61194 0.49197 0.0
C1137 C 0.94381 0.61679 0.61909 0.0
H1138 H 0.90892 0.63704 0.55744 0.0
C1139 C 0.946 0.60229 0.58222 0.0
C1140 C 0.93581 0.60092 0.53526 0.0
H1141 H 0.95314 0.61851 0.65385 0.0
H1142 H 0.95708 0.59339 0.58967 0.0
C1143 C 0.92127 0.61256 0.52772 0.0
C1144 C 0.40164 0.34897 0.59043 0.0
C1145 C 0.39132 0.32308 0.58785 0.0
H1146 H 0.41486 0.38324 0.5511 0.0
C1147 C 0.38896 0.31239 0.541 0.0
H1148 H 0.40381 0.35799 0.62565 0.0
C1149 C 0.39568 0.32709 0.49791 0.0
C1150 C 0.40458 0.35279 0.50057 0.0
H1151 H 0.38111 0.29257 0.53743 0.0
H1152 H 0.39269 0.31813 0.46242 0.0
C1153 C 0.40798 0.36354 0.54751 0.0
C1154 C 0.62736 0.0381 0.59693 0.0
C1155 C 0.63635 0.04216 0.5481 0.0
H1156 H 0.63596 0.04039 0.67404 0.0
C1157 C 0.66222 0.05342 0.54064 0.0
H1158 H 0.6076 0.02944 0.60417 0.0
C1159 C 0.6785 0.05922 0.58075 0.0
C1160 C 0.66944 0.0545 0.62955 0.0
H1161 H 0.66986 0.05668 0.50362 0.0
H1162 H 0.69816 0.0669 0.57347 0.0
C1163 C 0.64369 0.04446 0.63707 0.0
C1164 C 0.70835 0.70299 0.7706 0.0
C1165 C 0.69301 0.69543 0.72876 0.0
H1166 H 0.71479 0.71943 0.84255 0.0
C1167 C 0.67437 0.70225 0.72489 0.0
H1168 H 0.72288 0.69806 0.77471 0.0
C1169 C 0.66986 0.71456 0.7633 0.0
C1170 C 0.68376 0.72035 0.80697 0.0
H1171 H 0.66242 0.69707 0.69291 0.0
H1172 H 0.65449 0.71831 0.75976 0.0
C1173 C 0.70373 0.7153 0.80943 0.0
C1174 C 0.27772 0.01206 0.77062 0.0
C1175 C 0.28271 0.00203 0.72837 0.0
H1176 H 0.26141 0.00495 0.84313 0.0
C1177 C 0.27174 0.97614 0.72472 0.0
H1178 H 0.28584 0.03189 0.77461 0.0
C1179 C 0.25777 0.96078 0.76364 0.0
C1180 C 0.25433 0.9708 0.8075 0.0
H1181 H 0.27487 0.96769 0.69249 0.0
H1182 H 0.25071 0.94104 0.76022 0.0
C1183 C 0.26366 -0.00342 0.80986 0.0
C1184 C 0.95384 0.20063 0.7398 0.0
C1185 C 0.96932 0.21243 0.69906 0.0
H1186 H 0.95123 0.19633 0.81825 0.0
C1187 C -0.00479 0.22398 0.70579 0.0
H1188 H 0.93385 0.19122 0.73597 0.0
C1189 C 0.00525 0.22714 0.75319 0.0
C1190 C -0.01042 0.21866 0.79475 0.0
H1191 H 0.00778 0.23286 0.67509 0.0
H1192 H 0.02513 0.23844 0.75742 0.0
C1193 C 0.96389 0.20362 0.78718 0.0
C1194 C 0.24525 0.21226 0.22474 0.0
C1195 C 0.23645 0.21649 0.17986 0.0
H1196 H 0.24729 0.21675 0.30321 0.0
C1197 C 0.21893 0.22493 0.18181 0.0
H1198 H 0.25865 0.20567 0.22488 0.0
C1199 C 0.21252 0.23149 0.22691 0.0
C1200 C 0.22332 0.22963 0.2713 0.0
H1201 H 0.21161 0.22834 0.14818 0.0
H1202 H 0.20045 0.23965 0.22647 0.0
C1203 C 0.23871 0.21867 0.26986 0.0
C1204 C 0.76207 0.01528 0.26383 0.0
C1205 C 0.75765 0.00214 0.21935 0.0
H1206 H 0.75594 0.01358 0.34192 0.0
C1207 C 0.74649 0.97617 0.22198 0.0
H1208 H 0.7707 0.03527 0.26348 0.0
C1209 C 0.73783 0.96364 0.2672 0.0
C1210 C 0.74022 0.97676 0.31103 0.0
H1211 H 0.74275 0.96535 0.18865 0.0
H1212 H 0.72784 0.94362 0.2672 0.0
C1213 C 0.75353 0.00278 0.30902 0.0
C1214 C 0.00345 0.77964 0.27255 0.0
C1215 C -0.01223 0.76791 0.31307 0.0
H1216 H 0.00679 0.78261 0.19396 0.0
C1217 C 0.96195 0.75496 0.30522 0.0
H1218 H 0.02337 0.79006 0.27722 0.0
C1219 C 0.95239 0.75051 0.25732 0.0
C1220 C 0.96847 0.75902 0.21638 0.0
H1221 H 0.94924 0.74609 0.33571 0.0
H1222 H 0.9327 0.73829 0.25248 0.0
C1223 C -0.00613 0.77529 0.22463 0.0
loop_
_geom_bond_atom_site_label_1
_geom_bond_atom_site_label_2
_geom_bond_distance
_geom_bond_site_symmetry_2
_ccdc_geom_bond_type
Zn0 O3 2.031 . S
Zn0 O5 2.049 . S
Zn0 O10 2.067 . S
Zn1 O2 1.962 . S
Zn1 O4 1.986 . S
Zn1 O6 1.996 . S
Zn1 O9 1.943 . S
O2 Zn1 1.962 . S
O2 C7 1.254 . S
O3 Zn0 2.031 . S
O3 C7 1.269 . S
O4 Zn1 1.986 . S
O4 C11 1.262 . S
O5 Zn0 2.049 . S
O5 C13 1.260 . S
O6 Zn1 1.996 . S
O6 C13 1.257 . S
C7 O2 1.254 . S
C7 O3 1.269 . S
C8 O9 1.249 . S
C8 O10 1.270 . S
O9 Zn1 1.943 . S
O9 C8 1.249 . S
O10 Zn0 2.067 . S
O10 C8 1.270 . S
C11 O4 1.262 . S
C11 O12 1.232 . S
O12 C11 1.232 . S
C13 O5 1.260 . S
C13 O6 1.257 . S
Zn14 O17 2.031 . S
Zn14 O19 2.049 . S
Zn14 O24 2.067 . S
Zn15 O16 1.962 . S
Zn15 O18 1.986 . S
Zn15 O20 1.996 . S
Zn15 O23 1.943 . S
O16 Zn15 1.962 . S
O16 C21 1.254 . S
O17 Zn14 2.031 . S
O17 C21 1.269 . S
O18 Zn15 1.986 . S
O18 C25 1.262 . S
O19 Zn14 2.049 . S
O19 C27 1.260 . S
O20 Zn15 1.996 . S
O20 C27 1.257 . S
C21 O16 1.254 . S
C21 O17 1.269 . S
C22 O23 1.249 . S
C22 O24 1.270 . S
O23 Zn15 1.943 . S
O23 C22 1.249 . S
O24 Zn14 2.067 . S
O24 C22 1.270 . S
C25 O18 1.262 . S
C25 O26 1.232 . S
O26 C25 1.232 . S
C27 O19 1.260 . S
C27 O20 1.257 . S
Zn28 O31 2.031 . S
Zn28 O33 2.049 . S
Zn28 O38 2.067 . S
Zn29 O30 1.962 . S
Zn29 O32 1.986 . S
Zn29 O34 1.996 . S
Zn29 O37 1.943 . S
O30 Zn29 1.962 . S
O30 C35 1.254 . S
O31 Zn28 2.031 . S
O31 C35 1.269 . S
O32 Zn29 1.986 . S
O32 C39 1.262 . S
O33 Zn28 2.049 . S
O33 C41 1.260 . S
O34 Zn29 1.996 . S
O34 C41 1.257 . S
C35 O30 1.254 . S
C35 O31 1.269 . S
C36 O37 1.249 . S
C36 O38 1.270 . S
O37 Zn29 1.943 . S
O37 C36 1.249 . S
O38 Zn28 2.067 . S
O38 C36 1.270 . S
C39 O32 1.262 . S
C39 O40 1.232 . S
O40 C39 1.232 . S
C41 O33 1.260 . S
C41 O34 1.257 . S
Zn42 O45 2.031 . S
Zn42 O47 2.049 . S
Zn42 O52 2.067 . S
Zn43 O44 1.962 . S
Zn43 O46 1.986 . S
Zn43 O48 1.996 . S
Zn43 O51 1.943 . S
O44 Zn43 1.962 . S
O44 C49 1.254 . S
O45 Zn42 2.031 . S
O45 C49 1.269 . S
O46 Zn43 1.986 . S
O46 C53 1.262 . S
O47 Zn42 2.049 . S
O47 C55 1.260 . S
O48 Zn43 1.996 . S
O48 C55 1.257 . S
C49 O44 1.254 . S
C49 O45 1.269 . S
C50 O51 1.249 . S
C50 O52 1.270 . S
O51 Zn43 1.943 . S
O51 C50 1.249 . S
O52 Zn42 2.067 . S
O52 C50 1.270 . S
C53 O46 1.262 . S
C53 O54 1.232 . S
O54 C53 1.232 . S
C55 O47 1.260 . S
C55 O48 1.257 . S
Zn56 O59 2.031 . S
Zn56 O61 2.049 . S
Zn56 O66 2.067 . S
Zn57 O58 1.962 . S
Zn57 O60 1.986 . S
Zn57 O62 1.996 . S
Zn57 O65 1.943 . S
O58 Zn57 1.962 . S
O58 C63 1.254 . S
O59 Zn56 2.031 . S
O59 C63 1.269 . S
O60 Zn57 1.986 . S
O60 C67 1.262 . S
O61 Zn56 2.049 . S
O61 C69 1.260 . S
O62 Zn57 1.996 . S
O62 C69 1.257 . S
C63 O58 1.254 . S
C63 O59 1.269 . S
C64 O65 1.249 . S
C64 O66 1.270 . S
O65 Zn57 1.943 . S
O65 C64 1.249 . S
O66 Zn56 2.067 . S
O66 C64 1.270 . S
C67 O60 1.262 . S
C67 O68 1.232 . S
O68 C67 1.232 . S
C69 O61 1.260 . S
C69 O62 1.257 . S
Zn70 O73 2.031 . S
Zn70 O75 2.049 . S
Zn70 O80 2.067 . S
Zn71 O72 1.962 . S
Zn71 O74 1.986 . S
Zn71 O76 1.996 . S
Zn71 O79 1.943 . S
O72 Zn71 1.962 . S
O72 C77 1.254 . S
O73 Zn70 2.031 . S
O73 C77 1.269 . S
O74 Zn71 1.986 . S
O74 C81 1.262 . S
O75 Zn70 2.049 . S
O75 C83 1.260 . S
O76 Zn71 1.996 . S
O76 C83 1.257 . S
C77 O72 1.254 . S
C77 O73 1.269 . S
C78 O79 1.249 . S
C78 O80 1.270 . S
O79 Zn71 1.943 . S
O79 C78 1.249 . S
O80 Zn70 2.067 . S
O80 C78 1.270 . S
C81 O74 1.262 . S
C81 O82 1.232 . S
O82 C81 1.232 . S
C83 O75 1.260 . S
C83 O76 1.257 . S
Zn84 O87 2.031 . S
Zn84 O89 2.049 . S
Zn84 O94 2.067 . S
Zn85 O86 1.962 . S
Zn85 O88 1.986 . S
Zn85 O90 1.996 . S
Zn85 O93 1.943 . S
O86 Zn85 1.962 . S
O86 C91 1.254 . S
O87 Zn84 2.031 . S
O87 C91 1.269 . S
O88 Zn85 1.986 . S
O88 C95 1.262 . S
O89 Zn84 2.049 . S
O89 C97 1.260 . S
O90 Zn85 1.996 . S
O90 C97 1.257 . S
C91 O86 1.254 . S
C91 O87 1.269 . S
C92 O93 1.249 . S
C92 O94 1.270 . S
O93 Zn85 1.943 . S
O93 C92 1.249 . S
O94 Zn84 2.067 . S
O94 C92 1.270 . S
C95 O88 1.262 . S
C95 O96 1.232 . S
O96 C95 1.232 . S
C97 O89 1.260 . S
C97 O90 1.257 . S
Zn98 O101 2.031 . S
Zn98 O103 2.049 . S
Zn98 O108 2.067 . S
Zn99 O100 1.962 . S
Zn99 O102 1.986 . S
Zn99 O104 1.996 . S
Zn99 O107 1.943 . S
O100 Zn99 1.962 . S
O100 C105 1.254 . S
O101 Zn98 2.031 . S
O101 C105 1.269 . S
O102 Zn99 1.986 . S
O102 C109 1.262 . S
O103 Zn98 2.049 . S
O103 C111 1.260 . S
O104 Zn99 1.996 . S
O104 C111 1.257 . S
C105 O100 1.254 . S
C105 O101 1.269 . S
C106 O107 1.249 . S
C106 O108 1.270 . S
O107 Zn99 1.943 . S
O107 C106 1.249 . S
O108 Zn98 2.067 . S
O108 C106 1.270 . S
C109 O102 1.262 . S
C109 O110 1.232 . S
O110 C109 1.232 . S
C111 O103 1.260 . S
C111 O104 1.257 . S
Zn112 O115 2.031 . S
Zn112 O117 2.049 . S
Zn112 O122 2.067 . S
Zn113 O114 1.962 . S
Zn113 O116 1.986 . S
Zn113 O118 1.996 . S
Zn113 O121 1.943 . S
O114 Zn113 1.962 . S
O114 C119 1.254 . S
O115 Zn112 2.031 . S
O115 C119 1.269 . S
O116 Zn113 1.986 . S
O116 C123 1.262 . S
O117 Zn112 2.049 . S
O117 C125 1.260 . S
O118 Zn113 1.996 . S
O118 C125 1.257 . S
C119 O114 1.254 . S
C119 O115 1.269 . S
C120 O121 1.249 . S
C120 O122 1.270 . S
O121 Zn113 1.943 . S
O121 C120 1.249 . S
O122 Zn112 2.067 . S
O122 C120 1.270 . S
C123 O116 1.262 . S
C123 O124 1.232 . S
O124 C123 1.232 . S
C125 O117 1.260 . S
C125 O118 1.257 . S
Zn126 O129 2.031 . S
Zn126 O131 2.049 . S
Zn126 O136 2.067 . S
Zn127 O128 1.962 . S
Zn127 O130 1.986 . S
Zn127 O132 1.996 . S
Zn127 O135 1.943 . S
O128 Zn127 1.962 . S
O128 C133 1.254 . S
O129 Zn126 2.031 . S
O129 C133 1.269 . S
O130 Zn127 1.986 . S
O130 C137 1.262 . S
O131 Zn126 2.049 . S
O131 C139 1.260 . S
O132 Zn127 1.996 . S
O132 C139 1.257 . S
C133 O128 1.254 . S
C133 O129 1.269 . S
C134 O135 1.249 . S
C134 O136 1.270 . S
O135 Zn127 1.943 . S
O135 C134 1.249 . S
O136 Zn126 2.067 . S
O136 C134 1.270 . S
C137 O130 1.262 . S
C137 O138 1.232 . S
O138 C137 1.232 . S
C139 O131 1.260 . S
C139 O132 1.257 . S
Zn140 O143 2.031 . S
Zn140 O145 2.049 . S
Zn140 O150 2.067 . S
Zn141 O142 1.962 . S
Zn141 O144 1.986 . S
Zn141 O146 1.996 . S
Zn141 O149 1.943 . S
O142 Zn141 1.962 . S
O142 C147 1.254 . S
O143 Zn140 2.031 . S
O143 C147 1.269 . S
O144 Zn141 1.986 . S
O144 C151 1.262 . S
O145 Zn140 2.049 . S
O145 C153 1.260 . S
O146 Zn141 1.996 . S
O146 C153 1.257 . S
C147 O142 1.254 . S
C147 O143 1.269 . S
C148 O149 1.249 . S
C148 O150 1.270 . S
O149 Zn141 1.943 . S
O149 C148 1.249 . S
O150 Zn140 2.067 . S
O150 C148 1.270 . S
C151 O144 1.262 . S
C151 O152 1.232 . S
O152 C151 1.232 . S
C153 O145 1.260 . S
C153 O146 1.257 . S
Zn154 O157 2.031 . S
Zn154 O159 2.049 . S
Zn154 O164 2.067 . S
Zn155 O156 1.962 . S
Zn155 O158 1.986 . S
Zn155 O160 1.996 . S
Zn155 O163 1.943 . S
O156 Zn155 1.962 . S
O156 C161 1.254 . S
O157 Zn154 2.031 . S
O157 C161 1.269 . S
O158 Zn155 1.986 . S
O158 C165 1.262 . S
O159 Zn154 2.049 . S
O159 C167 1.260 . S
O160 Zn155 1.996 . S
O160 C167 1.257 . S
C161 O156 1.254 . S
C161 O157 1.269 . S
C162 O163 1.249 . S
C162 O164 1.270 . S
O163 Zn155 1.943 . S
O163 C162 1.249 . S
O164 Zn154 2.067 . S
O164 C162 1.270 . S
C165 O158 1.262 . S
C165 O166 1.232 . S
O166 C165 1.232 . S
C167 O159 1.260 . S
C167 O160 1.257 . S
Zn168 O171 2.031 . S
Zn168 O173 2.049 . S
Zn168 O178 2.067 1_455 S
Zn169 O170 1.962 . S
Zn169 O172 1.986 1_455 S
Zn169 O174 1.996 . S
Zn169 O177 1.943 1_455 S
O170 Zn169 1.962 . S
O170 C175 1.254 . S
O171 Zn168 2.031 . S
O171 C175 1.269 . S
O172 Zn169 1.986 1_655 S
O172 C179 1.262 . S
O173 Zn168 2.049 . S
O173 C181 1.260 . S
O174 Zn169 1.996 . S
O174 C181 1.257 . S
C175 O170 1.254 . S
C175 O171 1.269 . S
C176 O177 1.249 . S
C176 O178 1.270 . S
O177 Zn169 1.943 1_655 S
O177 C176 1.249 . S
O178 Zn168 2.067 1_655 S
O178 C176 1.270 . S
C179 O172 1.262 . S
C179 O180 1.232 . S
O180 C179 1.232 . S
C181 O173 1.260 . S
C181 O174 1.257 . S
Zn182 O185 2.031 . S
Zn182 O187 2.049 . S
Zn182 O192 2.067 . S
Zn183 O184 1.962 . S
Zn183 O186 1.986 . S
Zn183 O188 1.996 . S
Zn183 O191 1.943 . S
O184 Zn183 1.962 . S
O184 C189 1.254 . S
O185 Zn182 2.031 . S
O185 C189 1.269 . S
O186 Zn183 1.986 . S
O186 C193 1.262 . S
O187 Zn182 2.049 . S
O187 C195 1.260 . S
O188 Zn183 1.996 . S
O188 C195 1.257 . S
C189 O184 1.254 . S
C189 O185 1.269 . S
C190 O191 1.249 . S
C190 O192 1.270 . S
O191 Zn183 1.943 . S
O191 C190 1.249 . S
O192 Zn182 2.067 . S
O192 C190 1.270 . S
C193 O186 1.262 . S
C193 O194 1.232 . S
O194 C193 1.232 . S
C195 O187 1.260 . S
C195 O188 1.257 . S
Zn196 O199 2.031 . S
Zn196 O201 2.049 . S
Zn196 O206 2.067 1_565 S
Zn197 O198 1.962 . S
Zn197 O200 1.986 . S
Zn197 O202 1.996 . S
Zn197 O205 1.943 1_565 S
O198 Zn197 1.962 . S
O198 C203 1.254 . S
O199 Zn196 2.031 . S
O199 C203 1.269 . S
O200 Zn197 1.986 . S
O200 C207 1.262 1_565 S
O201 Zn196 2.049 . S
O201 C209 1.260 . S
O202 Zn197 1.996 . S
O202 C209 1.257 . S
C203 O198 1.254 . S
C203 O199 1.269 . S
C204 O205 1.249 . S
C204 O206 1.270 . S
O205 Zn197 1.943 1_545 S
O205 C204 1.249 . S
O206 Zn196 2.067 1_545 S
O206 C204 1.270 . S
C207 O200 1.262 1_545 S
C207 O208 1.232 . S
O208 C207 1.232 . S
C209 O201 1.260 . S
C209 O202 1.257 . S
Zn210 O213 2.031 . S
Zn210 O215 2.049 . S
Zn210 O220 2.067 . S
Zn211 O212 1.962 . S
Zn211 O214 1.986 . S
Zn211 O216 1.996 . S
Zn211 O219 1.943 . S
O212 Zn211 1.962 . S
O212 C217 1.254 . S
O213 Zn210 2.031 . S
O213 C217 1.269 . S
O214 Zn211 1.986 . S
O214 C221 1.262 . S
O215 Zn210 2.049 . S
O215 C223 1.260 . S
O216 Zn211 1.996 . S
O216 C223 1.257 . S
C217 O212 1.254 . S
C217 O213 1.269 . S
C218 O219 1.249 . S
C218 O220 1.270 . S
O219 Zn211 1.943 . S
O219 C218 1.249 . S
O220 Zn210 2.067 . S
O220 C218 1.270 . S
C221 O214 1.262 . S
C221 O222 1.232 . S
O222 C221 1.232 . S
C223 O215 1.260 . S
C223 O216 1.257 . S
Zn224 O227 2.031 . S
Zn224 O229 2.049 . S
Zn224 O234 2.067 . S
Zn225 O226 1.962 . S
Zn225 O228 1.986 . S
Zn225 O230 1.996 . S
Zn225 O233 1.943 . S
O226 Zn225 1.962 . S
O226 C231 1.254 . S
O227 Zn224 2.031 . S
O227 C231 1.269 . S
O228 Zn225 1.986 . S
O228 C235 1.262 . S
O229 Zn224 2.049 . S
O229 C237 1.260 . S
O230 Zn225 1.996 . S
O230 C237 1.257 . S
C231 O226 1.254 . S
C231 O227 1.269 . S
C232 O233 1.249 . S
C232 O234 1.270 . S
O233 Zn225 1.943 . S
O233 C232 1.249 . S
O234 Zn224 2.067 . S
O234 C232 1.270 . S
C235 O228 1.262 . S
C235 O236 1.232 . S
O236 C235 1.232 . S
C237 O229 1.260 . S
C237 O230 1.257 . S
Zn238 O241 2.031 . S
Zn238 O243 2.049 . S
Zn238 O248 2.067 . S
Zn239 O240 1.962 . S
Zn239 O242 1.986 . S
Zn239 O244 1.996 . S
Zn239 O247 1.943 . S
O240 Zn239 1.962 . S
O240 C245 1.254 . S
O241 Zn238 2.031 . S
O241 C245 1.269 . S
O242 Zn239 1.986 . S
O242 C249 1.262 . S
O243 Zn238 2.049 . S
O243 C251 1.260 . S
O244 Zn239 1.996 . S
O244 C251 1.257 . S
C245 O240 1.254 . S
C245 O241 1.269 . S
C246 O247 1.249 . S
C246 O248 1.270 . S
O247 Zn239 1.943 . S
O247 C246 1.249 . S
O248 Zn238 2.067 . S
O248 C246 1.270 . S
C249 O242 1.262 . S
C249 O250 1.232 . S
O250 C249 1.232 . S
C251 O243 1.260 . S
C251 O244 1.257 . S
Zn252 O255 2.031 . S
Zn252 O257 2.049 1_554 S
Zn252 O262 2.067 . S
Zn253 O254 1.962 . S
Zn253 O256 1.986 . S
Zn253 O258 1.996 . S
Zn253 O261 1.943 . S
O254 Zn253 1.962 . S
O254 C259 1.254 . S
O255 Zn252 2.031 . S
O255 C259 1.269 . S
O256 Zn253 1.986 . S
O256 C263 1.262 . S
O257 Zn252 2.049 1_556 S
O257 C265 1.260 1_556 S
O258 Zn253 1.996 . S
O258 C265 1.257 . S
C259 O254 1.254 . S
C259 O255 1.269 . S
C260 O261 1.249 . S
C260 O262 1.270 . S
O261 Zn253 1.943 . S
O261 C260 1.249 . S
O262 Zn252 2.067 . S
O262 C260 1.270 . S
C263 O256 1.262 . S
C263 O264 1.232 . S
O264 C263 1.232 . S
C265 O257 1.260 1_554 S
C265 O258 1.257 . S
Zn266 O269 2.031 . S
Zn266 O271 2.049 1_554 S
Zn266 O276 2.067 . S
Zn267 O268 1.962 . S
Zn267 O270 1.986 . S
Zn267 O272 1.996 . S
Zn267 O275 1.943 . S
O268 Zn267 1.962 . S
O268 C273 1.254 . S
O269 Zn266 2.031 . S
O269 C273 1.269 . S
O270 Zn267 1.986 . S
O270 C277 1.262 . S
O271 Zn266 2.049 1_556 S
O271 C279 1.260 1_556 S
O272 Zn267 1.996 . S
O272 C279 1.257 . S
C273 O268 1.254 . S
C273 O269 1.269 . S
C274 O275 1.249 . S
C274 O276 1.270 . S
O275 Zn267 1.943 . S
O275 C274 1.249 . S
O276 Zn266 2.067 . S
O276 C274 1.270 . S
C277 O270 1.262 . S
C277 O278 1.232 . S
O278 C277 1.232 . S
C279 O271 1.260 1_554 S
C279 O272 1.257 . S
Zn280 O283 2.031 . S
Zn280 O285 2.049 1_554 S
Zn280 O290 2.067 . S
Zn281 O282 1.962 . S
Zn281 O284 1.986 . S
Zn281 O286 1.996 . S
Zn281 O289 1.943 . S
O282 Zn281 1.962 . S
O282 C287 1.254 . S
O283 Zn280 2.031 . S
O283 C287 1.269 . S
O284 Zn281 1.986 . S
O284 C291 1.262 . S
O285 Zn280 2.049 1_556 S
O285 C293 1.260 1_556 S
O286 Zn281 1.996 . S
O286 C293 1.257 . S
C287 O282 1.254 . S
C287 O283 1.269 . S
C288 O289 1.249 . S
C288 O290 1.270 . S
O289 Zn281 1.943 . S
O289 C288 1.249 . S
O290 Zn280 2.067 . S
O290 C288 1.270 . S
C291 O284 1.262 . S
C291 O292 1.232 . S
O292 C291 1.232 . S
C293 O285 1.260 1_554 S
C293 O286 1.257 . S
Zn294 O297 2.031 . S
Zn294 O299 2.049 . S
Zn294 O304 2.067 1_565 S
Zn295 O296 1.962 . S
Zn295 O298 1.986 1_565 S
Zn295 O300 1.996 . S
Zn295 O303 1.943 1_565 S
O296 Zn295 1.962 . S
O296 C301 1.254 . S
O297 Zn294 2.031 . S
O297 C301 1.269 . S
O298 Zn295 1.986 1_545 S
O298 C305 1.262 . S
O299 Zn294 2.049 . S
O299 C307 1.260 . S
O300 Zn295 1.996 . S
O300 C307 1.257 . S
C301 O296 1.254 . S
C301 O297 1.269 . S
C302 O303 1.249 . S
C302 O304 1.270 . S
O303 Zn295 1.943 1_545 S
O303 C302 1.249 . S
O304 Zn294 2.067 1_545 S
O304 C302 1.270 . S
C305 O298 1.262 . S
C305 O306 1.232 1_554 S
O306 C305 1.232 1_556 S
C307 O299 1.260 . S
C307 O300 1.257 . S
Zn308 O311 2.031 . S
Zn308 O313 2.049 . S
Zn308 O318 2.067 1_455 S
Zn309 O310 1.962 . S
Zn309 O312 1.986 . S
Zn309 O314 1.996 . S
Zn309 O317 1.943 1_455 S
O310 Zn309 1.962 . S
O310 C315 1.254 . S
O311 Zn308 2.031 . S
O311 C315 1.269 . S
O312 Zn309 1.986 . S
O312 C319 1.262 1_455 S
O313 Zn308 2.049 . S
O313 C321 1.260 . S
O314 Zn309 1.996 . S
O314 C321 1.257 . S
C315 O310 1.254 . S
C315 O311 1.269 . S
C316 O317 1.249 . S
C316 O318 1.270 . S
O317 Zn309 1.943 1_655 S
O317 C316 1.249 . S
O318 Zn308 2.067 1_655 S
O318 C316 1.270 . S
C319 O312 1.262 1_655 S
C319 O320 1.232 1_554 S
O320 C319 1.232 1_556 S
C321 O313 1.260 . S
C321 O314 1.257 . S
Zn322 O325 2.031 . S
Zn322 O327 2.049 . S
Zn322 O332 2.067 . S
Zn323 O324 1.962 . S
Zn323 O326 1.986 . S
Zn323 O328 1.996 . S
Zn323 O331 1.943 . S
O324 Zn323 1.962 . S
O324 C329 1.254 . S
O325 Zn322 2.031 . S
O325 C329 1.269 . S
O326 Zn323 1.986 . S
O326 C333 1.262 . S
O327 Zn322 2.049 . S
O327 C335 1.260 . S
O328 Zn323 1.996 . S
O328 C335 1.257 . S
C329 O324 1.254 . S
C329 O325 1.269 . S
C330 O331 1.249 . S
C330 O332 1.270 . S
O331 Zn323 1.943 . S
O331 C330 1.249 . S
O332 Zn322 2.067 . S
O332 C330 1.270 . S
C333 O326 1.262 . S
C333 O334 1.232 1_554 S
O334 C333 1.232 1_556 S
C335 O327 1.260 . S
C335 O328 1.257 . S
Zn336 O339 2.031 . S
Zn336 O341 2.049 1_556 S
Zn336 O346 2.067 . S
Zn337 O338 1.962 . S
Zn337 O340 1.986 . S
Zn337 O342 1.996 . S
Zn337 O345 1.943 . S
O338 Zn337 1.962 . S
O338 C343 1.254 . S
O339 Zn336 2.031 . S
O339 C343 1.269 . S
O340 Zn337 1.986 . S
O340 C347 1.262 . S
O341 Zn336 2.049 1_554 S
O341 C349 1.260 1_554 S
O342 Zn337 1.996 . S
O342 C349 1.257 . S
C343 O338 1.254 . S
C343 O339 1.269 . S
C344 O345 1.249 . S
C344 O346 1.270 . S
O345 Zn337 1.943 . S
O345 C344 1.249 . S
O346 Zn336 2.067 . S
O346 C344 1.270 . S
C347 O340 1.262 . S
C347 O348 1.232 . S
O348 C347 1.232 . S
C349 O341 1.260 1_556 S
C349 O342 1.257 . S
Zn350 O353 2.031 . S
Zn350 O355 2.049 1_556 S
Zn350 O360 2.067 . S
Zn351 O352 1.962 . S
Zn351 O354 1.986 . S
Zn351 O356 1.996 . S
Zn351 O359 1.943 . S
O352 Zn351 1.962 . S
O352 C357 1.254 . S
O353 Zn350 2.031 . S
O353 C357 1.269 . S
O354 Zn351 1.986 . S
O354 C361 1.262 . S
O355 Zn350 2.049 1_554 S
O355 C363 1.260 1_554 S
O356 Zn351 1.996 . S
O356 C363 1.257 . S
C357 O352 1.254 . S
C357 O353 1.269 . S
C358 O359 1.249 . S
C358 O360 1.270 . S
O359 Zn351 1.943 . S
O359 C358 1.249 . S
O360 Zn350 2.067 . S
O360 C358 1.270 . S
C361 O354 1.262 . S
C361 O362 1.232 . S
O362 C361 1.232 . S
C363 O355 1.260 1_556 S
C363 O356 1.257 . S
Zn364 O367 2.031 . S
Zn364 O369 2.049 1_556 S
Zn364 O374 2.067 . S
Zn365 O366 1.962 . S
Zn365 O368 1.986 . S
Zn365 O370 1.996 . S
Zn365 O373 1.943 . S
O366 Zn365 1.962 . S
O366 C371 1.254 . S
O367 Zn364 2.031 . S
O367 C371 1.269 . S
O368 Zn365 1.986 . S
O368 C375 1.262 . S
O369 Zn364 2.049 1_554 S
O369 C377 1.260 1_554 S
O370 Zn365 1.996 . S
O370 C377 1.257 . S
C371 O366 1.254 . S
C371 O367 1.269 . S
C372 O373 1.249 . S
C372 O374 1.270 . S
O373 Zn365 1.943 . S
O373 C372 1.249 . S
O374 Zn364 2.067 . S
O374 C372 1.270 . S
C375 O368 1.262 . S
C375 O376 1.232 . S
O376 C375 1.232 . S
C377 O369 1.260 1_556 S
C377 O370 1.257 . S
Zn378 O381 2.031 . S
Zn378 O383 2.049 . S
Zn378 O388 2.067 1_545 S
Zn379 O380 1.962 . S
Zn379 O382 1.986 1_545 S
Zn379 O384 1.996 . S
Zn379 O387 1.943 1_545 S
O380 Zn379 1.962 . S
O380 C385 1.254 . S
O381 Zn378 2.031 . S
O381 C385 1.269 . S
O382 Zn379 1.986 1_565 S
O382 C389 1.262 . S
O383 Zn378 2.049 . S
O383 C391 1.260 . S
O384 Zn379 1.996 . S
O384 C391 1.257 . S
C385 O380 1.254 . S
C385 O381 1.269 . S
C386 O387 1.249 . S
C386 O388 1.270 . S
O387 Zn379 1.943 1_565 S
O387 C386 1.249 . S
O388 Zn378 2.067 1_565 S
O388 C386 1.270 . S
C389 O382 1.262 . S
C389 O390 1.232 1_556 S
O390 C389 1.232 1_554 S
C391 O383 1.260 . S
C391 O384 1.257 . S
Zn392 O395 2.031 . S
Zn392 O397 2.049 . S
Zn392 O402 2.067 1_655 S
Zn393 O394 1.962 . S
Zn393 O396 1.986 . S
Zn393 O398 1.996 . S
Zn393 O401 1.943 1_655 S
O394 Zn393 1.962 . S
O394 C399 1.254 . S
O395 Zn392 2.031 . S
O395 C399 1.269 . S
O396 Zn393 1.986 . S
O396 C403 1.262 1_655 S
O397 Zn392 2.049 . S
O397 C405 1.260 . S
O398 Zn393 1.996 . S
O398 C405 1.257 . S
C399 O394 1.254 . S
C399 O395 1.269 . S
C400 O401 1.249 . S
C400 O402 1.270 . S
O401 Zn393 1.943 1_455 S
O401 C400 1.249 . S
O402 Zn392 2.067 1_455 S
O402 C400 1.270 . S
C403 O396 1.262 1_455 S
C403 O404 1.232 1_556 S
O404 C403 1.232 1_554 S
C405 O397 1.260 . S
C405 O398 1.257 . S
Zn406 O409 2.031 . S
Zn406 O411 2.049 . S
Zn406 O416 2.067 . S
Zn407 O408 1.962 . S
Zn407 O410 1.986 . S
Zn407 O412 1.996 . S
Zn407 O415 1.943 . S
O408 Zn407 1.962 . S
O408 C413 1.254 . S
O409 Zn406 2.031 . S
O409 C413 1.269 . S
O410 Zn407 1.986 . S
O410 C417 1.262 . S
O411 Zn406 2.049 . S
O411 C419 1.260 . S
O412 Zn407 1.996 . S
O412 C419 1.257 . S
C413 O408 1.254 . S
C413 O409 1.269 . S
C414 O415 1.249 . S
C414 O416 1.270 . S
O415 Zn407 1.943 . S
O415 C414 1.249 . S
O416 Zn406 2.067 . S
O416 C414 1.270 . S
C417 O410 1.262 . S
C417 O418 1.232 1_556 S
O418 C417 1.232 1_554 S
C419 O411 1.260 . S
C419 O412 1.257 . S
Zn420 O423 2.031 . S
Zn420 O425 2.049 . S
Zn420 O430 2.067 1_655 S
Zn421 O422 1.962 . S
Zn421 O424 1.986 1_655 S
Zn421 O426 1.996 . S
Zn421 O429 1.943 1_655 S
O422 Zn421 1.962 . S
O422 C427 1.254 . S
O423 Zn420 2.031 . S
O423 C427 1.269 . S
O424 Zn421 1.986 1_455 S
O424 C431 1.262 . S
O425 Zn420 2.049 . S
O425 C433 1.260 . S
O426 Zn421 1.996 . S
O426 C433 1.257 . S
C427 O422 1.254 . S
C427 O423 1.269 . S
C428 O429 1.249 . S
C428 O430 1.270 . S
O429 Zn421 1.943 1_455 S
O429 C428 1.249 . S
O430 Zn420 2.067 1_455 S
O430 C428 1.270 . S
C431 O424 1.262 . S
C431 O432 1.232 . S
O432 C431 1.232 . S
C433 O425 1.260 . S
C433 O426 1.257 . S
Zn434 O437 2.031 . S
Zn434 O439 2.049 . S
Zn434 O444 2.067 . S
Zn435 O436 1.962 . S
Zn435 O438 1.986 . S
Zn435 O440 1.996 . S
Zn435 O443 1.943 . S
O436 Zn435 1.962 . S
O436 C441 1.254 . S
O437 Zn434 2.031 . S
O437 C441 1.269 . S
O438 Zn435 1.986 . S
O438 C445 1.262 . S
O439 Zn434 2.049 . S
O439 C447 1.260 . S
O440 Zn435 1.996 . S
O440 C447 1.257 . S
C441 O436 1.254 . S
C441 O437 1.269 . S
C442 O443 1.249 . S
C442 O444 1.270 . S
O443 Zn435 1.943 . S
O443 C442 1.249 . S
O444 Zn434 2.067 . S
O444 C442 1.270 . S
C445 O438 1.262 . S
C445 O446 1.232 . S
O446 C445 1.232 . S
C447 O439 1.260 . S
C447 O440 1.257 . S
Zn448 O451 2.031 . S
Zn448 O453 2.049 . S
Zn448 O458 2.067 1_545 S
Zn449 O450 1.962 . S
Zn449 O452 1.986 . S
Zn449 O454 1.996 . S
Zn449 O457 1.943 1_545 S
O450 Zn449 1.962 . S
O450 C455 1.254 . S
O451 Zn448 2.031 . S
O451 C455 1.269 . S
O452 Zn449 1.986 . S
O452 C459 1.262 1_545 S
O453 Zn448 2.049 . S
O453 C461 1.260 . S
O454 Zn449 1.996 . S
O454 C461 1.257 . S
C455 O450 1.254 . S
C455 O451 1.269 . S
C456 O457 1.249 . S
C456 O458 1.270 . S
O457 Zn449 1.943 1_565 S
O457 C456 1.249 . S
O458 Zn448 2.067 1_565 S
O458 C456 1.270 . S
C459 O452 1.262 1_565 S
C459 O460 1.232 . S
O460 C459 1.232 . S
C461 O453 1.260 . S
C461 O454 1.257 . S
Zn462 O465 2.031 . S
Zn462 O467 2.049 . S
Zn462 O472 2.067 . S
Zn463 O464 1.962 . S
Zn463 O466 1.986 . S
Zn463 O468 1.996 . S
Zn463 O471 1.943 . S
O464 Zn463 1.962 . S
O464 C469 1.254 . S
O465 Zn462 2.031 . S
O465 C469 1.269 . S
O466 Zn463 1.986 . S
O466 C473 1.262 . S
O467 Zn462 2.049 . S
O467 C475 1.260 . S
O468 Zn463 1.996 . S
O468 C475 1.257 . S
C469 O464 1.254 . S
C469 O465 1.269 . S
C470 O471 1.249 . S
C470 O472 1.270 . S
O471 Zn463 1.943 . S
O471 C470 1.249 . S
O472 Zn462 2.067 . S
O472 C470 1.270 . S
C473 O466 1.262 . S
C473 O474 1.232 . S
O474 C473 1.232 . S
C475 O467 1.260 . S
C475 O468 1.257 . S
Zn476 O479 2.031 . S
Zn476 O481 2.049 . S
Zn476 O486 2.067 . S
Zn477 O478 1.962 . S
Zn477 O480 1.986 . S
Zn477 O482 1.996 . S
Zn477 O485 1.943 . S
O478 Zn477 1.962 . S
O478 C483 1.254 . S
O479 Zn476 2.031 . S
O479 C483 1.269 . S
O480 Zn477 1.986 . S
O480 C487 1.262 . S
O481 Zn476 2.049 . S
O481 C489 1.260 . S
O482 Zn477 1.996 . S
O482 C489 1.257 . S
C483 O478 1.254 . S
C483 O479 1.269 . S
C484 O485 1.249 . S
C484 O486 1.270 . S
O485 Zn477 1.943 . S
O485 C484 1.249 . S
O486 Zn476 2.067 . S
O486 C484 1.270 . S
C487 O480 1.262 . S
C487 O488 1.232 . S
O488 C487 1.232 . S
C489 O481 1.260 . S
C489 O482 1.257 . S
Zn490 O493 2.031 . S
Zn490 O495 2.049 . S
Zn490 O500 2.067 . S
Zn491 O492 1.962 . S
Zn491 O494 1.986 . S
Zn491 O496 1.996 . S
Zn491 O499 1.943 . S
O492 Zn491 1.962 . S
O492 C497 1.254 . S
O493 Zn490 2.031 . S
O493 C497 1.269 . S
O494 Zn491 1.986 . S
O494 C501 1.262 . S
O495 Zn490 2.049 . S
O495 C503 1.260 . S
O496 Zn491 1.996 . S
O496 C503 1.257 . S
C497 O492 1.254 . S
C497 O493 1.269 . S
C498 O499 1.249 . S
C498 O500 1.270 . S
O499 Zn491 1.943 . S
O499 C498 1.249 . S
O500 Zn490 2.067 . S
O500 C498 1.270 . S
C501 O494 1.262 . S
C501 O502 1.232 . S
O502 C501 1.232 . S
C503 O495 1.260 . S
C503 O496 1.257 . S
C504 C505 1.387 . S
C504 H508 0.950 . S
C504 C513 1.390 1_565 S
C505 C504 1.387 . S
C505 C507 1.387 . S
H506 C513 0.950 . S
C507 C505 1.387 . S
C507 C509 1.390 1_565 S
C507 H511 0.950 . S
H508 C504 0.950 . S
C509 C507 1.390 1_545 S
C509 C510 1.387 . S
C509 H512 0.950 . S
C510 C509 1.387 . S
C510 C513 1.387 . S
H511 C507 0.950 . S
H512 C509 0.950 . S
C513 C504 1.390 1_545 S
C513 H506 0.950 . S
C513 C510 1.387 . S
C514 C515 1.357 1_655 S
C514 H518 0.948 . S
C514 C523 1.430 . S
C515 C514 1.357 1_455 S
C515 C517 1.387 . S
H516 C523 0.950 . S
C517 C515 1.387 . S
C517 C519 1.390 1_455 S
C517 H521 0.950 . S
H518 C514 0.948 . S
C519 C517 1.390 1_655 S
C519 C520 1.387 . S
C519 H522 0.950 . S
C520 C519 1.387 . S
C520 C523 1.387 . S
H521 C517 0.950 . S
H522 C519 0.950 . S
C523 C514 1.430 . S
C523 H516 0.950 . S
C523 C520 1.387 . S
C524 C525 1.387 . S
C524 H528 0.950 . S
C524 C533 1.390 . S
C525 C524 1.387 . S
C525 C527 1.387 . S
H526 C533 0.950 . S
C527 C525 1.387 . S
C527 C529 1.390 . S
C527 H531 0.950 . S
H528 C524 0.950 . S
C529 C527 1.390 . S
C529 C530 1.387 . S
C529 H532 0.950 . S
C530 C529 1.387 . S
C530 C533 1.387 . S
H531 C527 0.950 . S
H532 C529 0.950 . S
C533 C524 1.390 . S
C533 H526 0.950 . S
C533 C530 1.387 . S
C534 C535 1.387 . S
C534 H538 0.950 . S
C534 C543 1.390 1_565 S
C535 C534 1.387 . S
C535 C537 1.387 . S
H536 C543 0.950 . S
C537 C535 1.387 . S
C537 C539 1.390 1_565 S
C537 H541 0.950 . S
H538 C534 0.950 . S
C539 C537 1.390 1_545 S
C539 C540 1.387 . S
C539 H542 0.950 . S
C540 C539 1.387 . S
C540 C543 1.387 . S
H541 C537 0.950 . S
H542 C539 0.950 . S
C543 C534 1.390 1_545 S
C543 H536 0.950 . S
C543 C540 1.387 . S
C544 C545 1.387 . S
C544 H548 0.950 . S
C544 C553 1.390 1_455 S
C545 C544 1.387 . S
C545 C547 1.387 . S
H546 C553 0.950 . S
C547 C545 1.387 . S
C547 C549 1.390 1_455 S
C547 H551 0.950 . S
H548 C544 0.950 . S
C549 C547 1.390 1_655 S
C549 C550 1.387 . S
C549 H552 0.950 . S
C550 C549 1.387 . S
C550 C553 1.387 . S
H551 C547 0.950 . S
H552 C549 0.950 . S
C553 C544 1.390 1_655 S
C553 H546 0.950 . S
C553 C550 1.387 . S
C554 C555 1.387 . S
C554 H558 0.950 . S
C554 C563 1.390 . S
C555 C554 1.387 . S
C555 C557 1.387 . S
H556 C563 0.950 . S
C557 C555 1.387 . S
C557 C559 1.390 . S
C557 H561 0.950 . S
H558 C554 0.950 . S
C559 C557 1.390 . S
C559 C560 1.387 . S
C559 H562 0.950 . S
C560 C559 1.387 . S
C560 C563 1.387 . S
H561 C557 0.950 . S
H562 C559 0.950 . S
C563 C554 1.390 . S
C563 H556 0.950 . S
C563 C560 1.387 . S
C564 C565 1.387 . S
C564 H568 0.950 . S
C564 C573 1.390 . S
C565 C564 1.387 . S
C565 C567 1.387 . S
H566 C573 0.950 . S
C567 C565 1.387 . S
C567 C569 1.390 . S
C567 H571 0.950 . S
H568 C564 0.950 . S
C569 C567 1.390 . S
C569 C570 1.387 . S
C569 H572 0.950 . S
C570 C569 1.387 . S
C570 C573 1.387 . S
H571 C567 0.950 . S
H572 C569 0.950 . S
C573 C564 1.390 . S
C573 H566 0.950 . S
C573 C570 1.387 . S
C574 C575 1.387 . S
C574 H578 0.950 . S
C574 C583 1.390 . S
C575 C574 1.387 . S
C575 C577 1.387 . S
H576 C583 0.950 . S
C577 C575 1.387 . S
C577 C579 1.390 . S
C577 H581 0.950 . S
H578 C574 0.950 . S
C579 C577 1.390 . S
C579 C580 1.387 . S
C579 H582 0.950 . S
C580 C579 1.387 . S
C580 C583 1.387 . S
H581 C577 0.950 . S
H582 C579 0.950 . S
C583 C574 1.390 . S
C583 H576 0.950 . S
C583 C580 1.387 . S
C584 C585 1.387 . S
C584 H588 0.950 . S
C584 C593 1.390 . S
C585 C584 1.387 . S
C585 C587 1.387 . S
H586 C593 0.950 . S
C587 C585 1.387 . S
C587 C589 1.390 . S
C587 H591 0.950 . S
H588 C584 0.950 . S
C589 C587 1.390 . S
C589 C590 1.387 . S
C589 H592 0.950 . S
C590 C589 1.387 . S
C590 C593 1.387 . S
H591 C587 0.950 . S
H592 C589 0.950 . S
C593 C584 1.390 . S
C593 H586 0.950 . S
C593 C590 1.387 . S
C594 C595 1.387 . S
C594 H598 0.950 . S
C594 C603 1.390 . S
C595 C594 1.387 . S
C595 C597 1.387 . S
H596 C603 0.950 . S
C597 C595 1.387 . S
C597 C599 1.390 . S
C597 H601 0.950 . S
H598 C594 0.950 . S
C599 C597 1.390 . S
C599 C600 1.387 . S
C599 H602 0.950 . S
C600 C599 1.387 . S
C600 C603 1.387 . S
H601 C597 0.950 . S
H602 C599 0.950 . S
C603 C594 1.390 . S
C603 H596 0.950 . S
C603 C600 1.387 . S
C604 C605 1.387 . S
C604 H608 0.950 . S
C604 C613 1.390 . S
C605 C604 1.387 . S
C605 C607 1.387 . S
H606 C613 0.950 . S
C607 C605 1.387 . S
C607 C609 1.390 . S
C607 H611 0.950 . S
H608 C604 0.950 . S
C609 C607 1.390 . S
C609 C610 1.387 . S
C609 H612 0.950 . S
C610 C609 1.387 . S
C610 C613 1.387 . S
H611 C607 0.950 . S
H612 C609 0.950 . S
C613 C604 1.390 . S
C613 H606 0.950 . S
C613 C610 1.387 . S
C614 C615 1.387 . S
C614 H618 0.950 . S
C614 C623 1.390 . S
C615 C614 1.387 . S
C615 C617 1.387 . S
H616 C623 0.950 . S
C617 C615 1.387 . S
C617 C619 1.390 . S
C617 H621 0.950 . S
H618 C614 0.950 . S
C619 C617 1.390 . S
C619 C620 1.387 . S
C619 H622 0.950 . S
C620 C619 1.387 . S
C620 C623 1.387 . S
H621 C617 0.950 . S
H622 C619 0.950 . S
C623 C614 1.390 . S
C623 H616 0.950 . S
C623 C620 1.387 . S
C624 C625 1.387 . S
C624 H628 0.950 . S
C624 C633 1.390 . S
C625 C624 1.387 . S
C625 C627 1.387 . S
H626 C633 0.950 . S
C627 C625 1.387 . S
C627 C629 1.390 . S
C627 H631 0.950 1_556 S
H628 C624 0.950 . S
C629 C627 1.390 . S
C629 C630 1.387 . S
C629 H632 0.950 . S
C630 C629 1.387 . S
C630 C633 1.387 . S
H631 C627 0.950 1_554 S
H632 C629 0.950 . S
C633 C624 1.390 . S
C633 H626 0.950 . S
C633 C630 1.387 . S
C634 C635 1.387 . S
C634 H638 0.950 . S
C634 C643 1.390 . S
C635 C634 1.387 . S
C635 C637 1.387 . S
H636 C643 0.950 . S
C637 C635 1.387 . S
C637 C639 1.390 . S
C637 H641 0.950 . S
H638 C634 0.950 . S
C639 C637 1.390 . S
C639 C640 1.387 . S
C639 H642 0.950 . S
C640 C639 1.387 . S
C640 C643 1.387 . S
H641 C637 0.950 . S
H642 C639 0.950 . S
C643 C634 1.390 . S
C643 H636 0.950 . S
C643 C640 1.387 . S
C644 C645 1.387 . S
C644 H648 0.950 . S
C644 C653 1.390 . S
C645 C644 1.387 . S
C645 C647 1.387 . S
H646 C653 0.950 . S
C647 C645 1.387 . S
C647 C649 1.390 . S
C647 H651 0.950 . S
H648 C644 0.950 . S
C649 C647 1.390 . S
C649 C650 1.387 . S
C649 H652 0.950 . S
C650 C649 1.387 . S
C650 C653 1.387 . S
H651 C647 0.950 . S
H652 C649 0.950 . S
C653 C644 1.390 . S
C653 H646 0.950 . S
C653 C650 1.387 . S
C654 C655 1.387 . S
C654 H658 0.950 . S
C654 C663 1.390 . S
C655 C654 1.387 . S
C655 C657 1.387 . S
H656 C663 0.950 . S
C657 C655 1.387 . S
C657 C659 1.390 . S
C657 H661 0.950 . S
H658 C654 0.950 . S
C659 C657 1.390 . S
C659 C660 1.387 . S
C659 H662 0.950 . S
C660 C659 1.387 . S
C660 C663 1.387 . S
H661 C657 0.950 . S
H662 C659 0.950 . S
C663 C654 1.390 . S
C663 H656 0.950 . S
C663 C660 1.387 . S
C664 C665 1.387 . S
C664 H668 0.950 . S
C664 C673 1.390 . S
C665 C664 1.387 . S
C665 C667 1.387 . S
H666 C673 0.950 . S
C667 C665 1.387 . S
C667 C669 1.390 . S
C667 H671 0.950 . S
H668 C664 0.950 . S
C669 C667 1.390 . S
C669 C670 1.387 . S
C669 H672 0.950 . S
C670 C669 1.387 . S
C670 C673 1.387 . S
H671 C667 0.950 . S
H672 C669 0.950 . S
C673 C664 1.390 . S
C673 H666 0.950 . S
C673 C670 1.387 . S
C674 C675 1.387 . S
C674 H678 0.950 . S
C674 C683 1.390 . S
C675 C674 1.387 . S
C675 C677 1.387 . S
H676 C683 0.950 . S
C677 C675 1.387 . S
C677 C679 1.390 . S
C677 H681 0.950 . S
H678 C674 0.950 . S
C679 C677 1.390 . S
C679 C680 1.387 . S
C679 H682 0.950 . S
C680 C679 1.387 . S
C680 C683 1.387 . S
H681 C677 0.950 . S
H682 C679 0.950 . S
C683 C674 1.390 . S
C683 H676 0.950 . S
C683 C680 1.387 . S
C684 C685 1.387 . S
C684 H688 0.950 . S
C684 C693 1.390 . S
C685 C684 1.387 . S
C685 C687 1.387 . S
H686 C693 0.950 . S
C687 C685 1.387 . S
C687 C689 1.390 . S
C687 H691 0.950 . S
H688 C684 0.950 . S
C689 C687 1.390 . S
C689 C690 1.387 . S
C689 H692 0.950 . S
C690 C689 1.387 . S
C690 C693 1.387 . S
H691 C687 0.950 . S
H692 C689 0.950 . S
C693 C684 1.390 . S
C693 H686 0.950 . S
C693 C690 1.387 . S
C694 C695 1.387 . S
C694 H698 0.950 . S
C694 C703 1.390 . S
C695 C694 1.387 . S
C695 C697 1.387 . S
H696 C703 0.950 . S
C697 C695 1.387 . S
C697 C699 1.390 . S
C697 H701 0.950 . S
H698 C694 0.950 . S
C699 C697 1.390 . S
C699 C700 1.387 . S
C699 H702 0.950 . S
C700 C699 1.387 . S
C700 C703 1.387 . S
H701 C697 0.950 . S
H702 C699 0.950 . S
C703 C694 1.390 . S
C703 H696 0.950 . S
C703 C700 1.387 . S
C704 C705 1.387 . S
C704 H708 0.950 . S
C704 C713 1.390 . S
C705 C704 1.387 . S
C705 C707 1.387 . S
H706 C713 0.950 . S
C707 C705 1.387 . S
C707 C709 1.390 . S
C707 H711 0.950 . S
H708 C704 0.950 . S
C709 C707 1.390 . S
C709 C710 1.387 . S
C709 H712 0.950 . S
C710 C709 1.387 . S
C710 C713 1.387 . S
H711 C707 0.950 . S
H712 C709 0.950 . S
C713 C704 1.390 . S
C713 H706 0.950 . S
C713 C710 1.387 . S
C714 C715 1.387 . S
C714 H718 0.950 . S
C714 C723 1.390 . S
C715 C714 1.387 . S
C715 C717 1.387 . S
H716 C723 0.950 . S
C717 C715 1.387 . S
C717 C719 1.390 . S
C717 H721 0.950 . S
H718 C714 0.950 . S
C719 C717 1.390 . S
C719 C720 1.387 . S
C719 H722 0.950 . S
C720 C719 1.387 . S
C720 C723 1.387 . S
H721 C717 0.950 . S
H722 C719 0.950 . S
C723 C714 1.390 . S
C723 H716 0.950 . S
C723 C720 1.387 . S
C724 C725 1.387 . S
C724 H728 0.950 . S
C724 C733 1.390 . S
C725 C724 1.387 . S
C725 C727 1.387 . S
H726 C733 0.950 . S
C727 C725 1.387 . S
C727 C729 1.390 . S
C727 H731 0.950 . S
H728 C724 0.950 . S
C729 C727 1.390 . S
C729 C730 1.387 . S
C729 H732 0.950 . S
C730 C729 1.387 . S
C730 C733 1.387 . S
H731 C727 0.950 . S
H732 C729 0.950 . S
C733 C724 1.390 . S
C733 H726 0.950 . S
C733 C730 1.387 . S
C734 C735 1.387 . S
C734 H738 0.950 . S
C734 C743 1.390 . S
C735 C734 1.387 . S
C735 C737 1.387 . S
H736 C743 0.950 . S
C737 C735 1.387 . S
C737 C739 1.390 . S
C737 H741 0.950 . S
H738 C734 0.950 . S
C739 C737 1.390 . S
C739 C740 1.387 . S
C739 H742 0.950 . S
C740 C739 1.387 . S
C740 C743 1.387 . S
H741 C737 0.950 . S
H742 C739 0.950 . S
C743 C734 1.390 . S
C743 H736 0.950 . S
C743 C740 1.387 . S
C744 C745 1.387 . S
C744 H748 0.950 . S
C744 C753 1.390 . S
C745 C744 1.387 . S
C745 C747 1.387 . S
H746 C753 0.950 . S
C747 C745 1.387 . S
C747 C749 1.390 . S
C747 H751 0.950 . S
H748 C744 0.950 . S
C749 C747 1.390 . S
C749 C750 1.387 . S
C749 H752 0.950 . S
C750 C749 1.387 . S
C750 C753 1.387 . S
H751 C747 0.950 . S
H752 C749 0.950 . S
C753 C744 1.390 . S
C753 H746 0.950 . S
C753 C750 1.387 . S
C754 C755 1.387 . S
C754 H758 0.950 . S
C754 C763 1.390 . S
C755 C754 1.387 . S
C755 C757 1.387 . S
H756 C763 0.950 . S
C757 C755 1.387 . S
C757 C759 1.390 . S
C757 H761 0.950 . S
H758 C754 0.950 . S
C759 C757 1.390 . S
C759 C760 1.387 . S
C759 H762 0.950 . S
C760 C759 1.387 . S
C760 C763 1.387 . S
H761 C757 0.950 . S
H762 C759 0.950 . S
C763 C754 1.390 . S
C763 H756 0.950 . S
C763 C760 1.387 . S
C764 C765 1.387 . S
C764 H768 0.950 . S
C764 C773 1.390 . S
C765 C764 1.387 . S
C765 C767 1.387 . S
H766 C773 0.950 . S
C767 C765 1.387 . S
C767 C769 1.390 . S
C767 H771 0.950 . S
H768 C764 0.950 . S
C769 C767 1.390 . S
C769 C770 1.387 . S
C769 H772 0.950 . S
C770 C769 1.387 . S
C770 C773 1.387 . S
H771 C767 0.950 . S
H772 C769 0.950 . S
C773 C764 1.390 . S
C773 H766 0.950 . S
C773 C770 1.387 . S
C774 C775 1.387 . S
C774 H778 0.950 . S
C774 C783 1.390 . S
C775 C774 1.387 . S
C775 C777 1.387 . S
H776 C783 0.950 . S
C777 C775 1.387 . S
C777 C779 1.390 . S
C777 H781 0.950 . S
H778 C774 0.950 . S
C779 C777 1.390 . S
C779 C780 1.387 . S
C779 H782 0.950 . S
C780 C779 1.387 . S
C780 C783 1.387 . S
H781 C777 0.950 . S
H782 C779 0.950 . S
C783 C774 1.390 . S
C783 H776 0.950 . S
C783 C780 1.387 . S
C784 C785 1.387 . S
C784 H788 0.950 . S
C784 C793 1.390 . S
C785 C784 1.387 . S
C785 C787 1.387 . S
H786 C793 0.950 . S
C787 C785 1.387 . S
C787 C789 1.390 . S
C787 H791 0.950 . S
H788 C784 0.950 . S
C789 C787 1.390 . S
C789 C790 1.387 . S
C789 H792 0.950 . S
C790 C789 1.387 . S
C790 C793 1.387 . S
H791 C787 0.950 . S
H792 C789 0.950 . S
C793 C784 1.390 . S
C793 H786 0.950 . S
C793 C790 1.387 . S
C794 C795 1.387 . S
C794 H798 0.950 . S
C794 C803 1.390 . S
C795 C794 1.387 . S
C795 C797 1.387 . S
H796 C803 0.950 . S
C797 C795 1.387 . S
C797 C799 1.390 . S
C797 H801 0.950 . S
H798 C794 0.950 . S
C799 C797 1.390 . S
C799 C800 1.387 . S
C799 H802 0.950 . S
C800 C799 1.387 . S
C800 C803 1.387 . S
H801 C797 0.950 . S
H802 C799 0.950 . S
C803 C794 1.390 . S
C803 H796 0.950 . S
C803 C800 1.387 . S
C804 C805 1.387 . S
C804 H808 0.950 . S
C804 C813 1.390 . S
C805 C804 1.387 . S
C805 C807 1.387 1_455 S
H806 C813 0.950 . S
C807 C805 1.387 1_655 S
C807 C809 1.390 . S
C807 H811 0.950 . S
H808 C804 0.950 . S
C809 C807 1.390 . S
C809 C810 1.387 . S
C809 H812 0.950 . S
C810 C809 1.387 . S
C810 C813 1.387 1_655 S
H811 C807 0.950 . S
H812 C809 0.950 . S
C813 C804 1.390 . S
C813 H806 0.950 . S
C813 C810 1.387 1_455 S
C814 C815 1.387 . S
C814 H818 0.950 . S
C814 C823 1.390 . S
C815 C814 1.387 . S
C815 C817 1.387 . S
H816 C823 0.950 . S
C817 C815 1.387 . S
C817 C819 1.390 . S
C817 H821 0.950 . S
H818 C814 0.950 . S
C819 C817 1.390 . S
C819 C820 1.387 . S
C819 H822 0.950 . S
C820 C819 1.387 . S
C820 C823 1.387 . S
H821 C817 0.950 . S
H822 C819 0.950 . S
C823 C814 1.390 . S
C823 H816 0.950 . S
C823 C820 1.387 . S
C824 C825 1.387 . S
C824 H828 0.950 . S
C824 C833 1.390 1_545 S
C825 C824 1.387 . S
C825 C827 1.387 1_545 S
H826 C833 0.950 . S
C827 C825 1.387 1_565 S
C827 C829 1.390 . S
C827 H831 0.951 . S
H828 C824 0.950 . S
C829 C827 1.390 . S
C829 C830 1.387 . S
C829 H832 0.950 . S
C830 C829 1.387 . S
C830 C833 1.387 . S
H831 C827 0.951 . S
H832 C829 0.950 . S
C833 C824 1.390 1_565 S
C833 H826 0.950 . S
C833 C830 1.387 . S
C834 C835 1.387 . S
C834 H838 0.950 . S
C834 C843 1.390 1_565 S
C835 C834 1.387 . S
C835 C837 1.387 . S
H836 C843 0.950 . S
C837 C835 1.387 . S
C837 C839 1.390 1_565 S
C837 H841 0.950 . S
H838 C834 0.950 . S
C839 C837 1.390 1_545 S
C839 C840 1.387 . S
C839 H842 0.950 . S
C840 C839 1.387 . S
C840 C843 1.387 . S
H841 C837 0.950 . S
H842 C839 0.950 . S
C843 C834 1.390 1_545 S
C843 H836 0.950 . S
C843 C840 1.387 . S
C844 C845 1.387 1_455 S
C844 H848 0.950 . S
C844 C853 1.390 . S
C845 C844 1.387 1_655 S
C845 C847 1.387 . S
H846 C853 0.950 . S
C847 C845 1.387 . S
C847 C849 1.390 . S
C847 H851 0.950 . S
H848 C844 0.950 . S
C849 C847 1.390 . S
C849 C850 1.387 1_655 S
C849 H852 0.950 . S
C850 C849 1.387 1_455 S
C850 C853 1.387 . S
H851 C847 0.950 . S
H852 C849 0.950 . S
C853 C844 1.390 . S
C853 H846 0.950 . S
C853 C850 1.387 . S
C854 C855 1.387 . S
C854 H858 0.950 . S
C854 C863 1.390 . S
C855 C854 1.387 . S
C855 C857 1.387 . S
H856 C863 0.950 . S
C857 C855 1.387 . S
C857 C859 1.390 . S
C857 H861 0.950 . S
H858 C854 0.950 . S
C859 C857 1.390 . S
C859 C860 1.387 . S
C859 H862 0.950 . S
C860 C859 1.387 . S
C860 C863 1.387 . S
H861 C857 0.950 . S
H862 C859 0.950 . S
C863 C854 1.390 . S
C863 H856 0.950 . S
C863 C860 1.387 . S
C864 C865 1.387 . S
C864 H868 0.950 . S
C864 C873 1.390 . S
C865 C864 1.387 . S
C865 C867 1.387 . S
H866 C873 0.950 . S
C867 C865 1.387 . S
C867 C869 1.390 . S
C867 H871 0.950 . S
H868 C864 0.950 . S
C869 C867 1.390 . S
C869 C870 1.387 . S
C869 H872 0.950 . S
C870 C869 1.387 . S
C870 C873 1.387 . S
H871 C867 0.950 . S
H872 C869 0.950 . S
C873 C864 1.390 . S
C873 H866 0.950 . S
C873 C870 1.387 . S
C874 C875 1.387 . S
C874 H878 0.950 . S
C874 C883 1.390 . S
C875 C874 1.387 . S
C875 C877 1.387 . S
H876 C883 0.950 . S
C877 C875 1.387 . S
C877 C879 1.390 . S
C877 H881 0.950 . S
H878 C874 0.950 . S
C879 C877 1.390 . S
C879 C880 1.387 . S
C879 H882 0.950 . S
C880 C879 1.387 . S
C880 C883 1.387 . S
H881 C877 0.950 . S
H882 C879 0.950 . S
C883 C874 1.390 . S
C883 H876 0.950 . S
C883 C880 1.387 . S
C884 C885 1.387 . S
C884 H888 0.950 . S
C884 C893 1.390 . S
C885 C884 1.387 . S
C885 C887 1.387 . S
H886 C893 0.950 . S
C887 C885 1.387 . S
C887 C889 1.390 . S
C887 H891 0.950 . S
H888 C884 0.950 . S
C889 C887 1.390 . S
C889 C890 1.387 . S
C889 H892 0.950 . S
C890 C889 1.387 . S
C890 C893 1.387 . S
H891 C887 0.950 . S
H892 C889 0.950 . S
C893 C884 1.390 . S
C893 H886 0.950 . S
C893 C890 1.387 . S
C894 C895 1.387 . S
C894 H898 0.950 . S
C894 C903 1.390 . S
C895 C894 1.387 . S
C895 C897 1.387 . S
H896 C903 0.950 . S
C897 C895 1.387 . S
C897 C899 1.390 . S
C897 H901 0.950 . S
H898 C894 0.950 . S
C899 C897 1.390 . S
C899 C900 1.387 . S
C899 H902 0.950 . S
C900 C899 1.387 . S
C900 C903 1.387 . S
H901 C897 0.950 . S
H902 C899 0.950 . S
C903 C894 1.390 . S
C903 H896 0.950 . S
C903 C900 1.387 . S
C904 C905 1.387 . S
C904 H908 0.950 . S
C904 C913 1.390 . S
C905 C904 1.387 . S
C905 C907 1.387 . S
H906 C913 0.950 . S
C907 C905 1.387 . S
C907 C909 1.390 . S
C907 H911 0.950 . S
H908 C904 0.950 . S
C909 C907 1.390 . S
C909 C910 1.387 . S
C909 H912 0.950 . S
C910 C909 1.387 . S
C910 C913 1.387 . S
H911 C907 0.950 . S
H912 C909 0.950 . S
C913 C904 1.390 . S
C913 H906 0.950 . S
C913 C910 1.387 . S
C914 C915 1.387 . S
C914 H918 0.950 . S
C914 C923 1.390 . S
C915 C914 1.387 . S
C915 C917 1.387 . S
H916 C923 0.950 . S
C917 C915 1.387 . S
C917 C919 1.390 . S
C917 H921 0.950 . S
H918 C914 0.950 . S
C919 C917 1.390 . S
C919 C920 1.387 . S
C919 H922 0.950 . S
C920 C919 1.387 . S
C920 C923 1.387 . S
H921 C917 0.950 . S
H922 C919 0.950 . S
C923 C914 1.390 . S
C923 H916 0.950 . S
C923 C920 1.387 . S
C924 C925 1.387 . S
C924 H928 0.950 . S
C924 C933 1.390 . S
C925 C924 1.387 . S
C925 C927 1.387 . S
H926 C933 0.950 . S
C927 C925 1.387 . S
C927 C929 1.390 . S
C927 H931 0.950 . S
H928 C924 0.950 . S
C929 C927 1.390 . S
C929 C930 1.387 . S
C929 H932 0.950 . S
C930 C929 1.387 . S
C930 C933 1.387 . S
H931 C927 0.950 . S
H932 C929 0.950 . S
C933 C924 1.390 . S
C933 H926 0.950 . S
C933 C930 1.387 . S
C934 C935 1.387 . S
C934 H938 0.950 . S
C934 C943 1.390 . S
C935 C934 1.387 . S
C935 C937 1.387 . S
H936 C943 0.950 . S
C937 C935 1.387 . S
C937 C939 1.390 . S
C937 H941 0.950 . S
H938 C934 0.950 . S
C939 C937 1.390 . S
C939 C940 1.387 . S
C939 H942 0.950 . S
C940 C939 1.387 . S
C940 C943 1.387 . S
H941 C937 0.950 . S
H942 C939 0.950 . S
C943 C934 1.390 . S
C943 H936 0.950 . S
C943 C940 1.387 . S
C944 C945 1.387 . S
C944 H948 0.950 . S
C944 C953 1.390 . S
C945 C944 1.387 . S
C945 C947 1.387 . S
H946 C953 0.950 . S
C947 C945 1.387 . S
C947 C949 1.390 . S
C947 H951 0.950 . S
H948 C944 0.950 . S
C949 C947 1.390 . S
C949 C950 1.387 . S
C949 H952 0.950 . S
C950 C949 1.387 . S
C950 C953 1.387 . S
H951 C947 0.950 . S
H952 C949 0.950 . S
C953 C944 1.390 . S
C953 H946 0.950 . S
C953 C950 1.387 . S
C954 C955 1.387 . S
C954 H958 0.950 . S
C954 C963 1.390 . S
C955 C954 1.387 . S
C955 C957 1.387 . S
H956 C963 0.950 . S
C957 C955 1.387 . S
C957 C959 1.390 . S
C957 H961 0.950 . S
H958 C954 0.950 . S
C959 C957 1.390 . S
C959 C960 1.387 . S
C959 H962 0.950 . S
C960 C959 1.387 . S
C960 C963 1.387 . S
H961 C957 0.950 . S
H962 C959 0.950 . S
C963 C954 1.390 . S
C963 H956 0.950 . S
C963 C960 1.387 . S
C964 C965 1.387 . S
C964 H968 0.950 . S
C964 C973 1.390 . S
C965 C964 1.387 . S
C965 C967 1.387 . S
H966 C973 0.950 . S
C967 C965 1.387 . S
C967 C969 1.390 . S
C967 H971 0.950 . S
H968 C964 0.950 . S
C969 C967 1.390 . S
C969 C970 1.387 . S
C969 H972 0.950 . S
C970 C969 1.387 . S
C970 C973 1.387 . S
H971 C967 0.950 . S
H972 C969 0.950 . S
C973 C964 1.390 . S
C973 H966 0.950 . S
C973 C970 1.387 . S
C974 C975 1.387 . S
C974 H978 0.950 . S
C974 C983 1.390 . S
C975 C974 1.387 . S
C975 C977 1.387 . S
H976 C983 0.950 . S
C977 C975 1.387 . S
C977 C979 1.390 . S
C977 H981 0.950 . S
H978 C974 0.950 . S
C979 C977 1.390 . S
C979 C980 1.387 . S
C979 H982 0.950 . S
C980 C979 1.387 . S
C980 C983 1.387 . S
H981 C977 0.950 . S
H982 C979 0.950 . S
C983 C974 1.390 . S
C983 H976 0.950 . S
C983 C980 1.387 . S
C984 C985 1.387 . S
C984 H988 0.950 . S
C984 C993 1.390 . S
C985 C984 1.387 . S
C985 C987 1.387 1_655 S
H986 C993 0.950 . S
C987 C985 1.387 1_455 S
C987 C989 1.390 . S
C987 H991 0.950 . S
H988 C984 0.950 . S
C989 C987 1.390 . S
C989 C990 1.387 . S
C989 H992 0.950 . S
C990 C989 1.387 . S
C990 C993 1.387 1_455 S
H991 C987 0.950 . S
H992 C989 0.950 . S
C993 C984 1.390 . S
C993 H986 0.950 . S
C993 C990 1.387 1_655 S
C994 C995 1.387 . S
C994 H998 0.950 . S
C994 C1003 1.390 . S
C995 C994 1.387 . S
C995 C997 1.387 . S
H996 C1003 0.950 . S
C997 C995 1.387 . S
C997 C999 1.390 . S
C997 H1001 0.950 . S
H998 C994 0.950 . S
C999 C997 1.390 . S
C999 C1000 1.387 . S
C999 H1002 0.950 . S
C1000 C999 1.387 . S
C1000 C1003 1.387 . S
H1001 C997 0.950 . S
H1002 C999 0.950 . S
C1003 C994 1.390 . S
C1003 H996 0.950 . S
C1003 C1000 1.387 . S
C1004 C1005 1.387 1_545 S
C1004 H1008 0.950 . S
C1004 C1013 1.390 . S
C1005 C1004 1.387 1_565 S
C1005 C1007 1.387 . S
H1006 C1013 0.950 . S
C1007 C1005 1.387 . S
C1007 C1009 1.390 . S
C1007 H1011 0.950 . S
H1008 C1004 0.950 . S
C1009 C1007 1.390 . S
C1009 C1010 1.387 1_565 S
C1009 H1012 0.950 . S
C1010 C1009 1.387 1_545 S
C1010 C1013 1.387 . S
H1011 C1007 0.950 . S
H1012 C1009 0.950 . S
C1013 C1004 1.390 . S
C1013 H1006 0.950 . S
C1013 C1010 1.387 . S
C1014 C1015 1.387 . S
C1014 H1018 0.950 . S
C1014 C1023 1.385 . S
C1015 C1014 1.387 . S
C1015 C1017 1.382 1_566 S
H1016 C1023 0.961 . S
C1017 C1015 1.382 1_544 S
C1017 C1019 1.385 . S
C1017 H1021 0.962 . S
H1018 C1014 0.950 . S
C1019 C1017 1.385 . S
C1019 C1020 1.387 . S
C1019 H1022 0.950 . S
C1020 C1019 1.387 . S
C1020 C1023 1.382 1_544 S
H1021 C1017 0.962 . S
H1022 C1019 0.950 . S
C1023 C1014 1.385 . S
C1023 H1016 0.961 . S
C1023 C1020 1.382 1_566 S
C1024 C1025 1.387 . S
C1024 H1028 0.950 . S
C1024 C1033 1.388 1_655 S
C1025 C1024 1.387 . S
C1025 C1027 1.389 1_554 S
H1026 C1033 0.949 . S
C1027 C1025 1.389 1_556 S
C1027 C1029 1.388 1_655 S
C1027 H1031 0.949 . S
H1028 C1024 0.950 . S
C1029 C1027 1.388 1_455 S
C1029 C1030 1.387 . S
C1029 H1032 0.950 . S
C1030 C1029 1.387 . S
C1030 C1033 1.389 1_556 S
H1031 C1027 0.949 . S
H1032 C1029 0.950 . S
C1033 C1024 1.388 1_455 S
C1033 H1026 0.949 . S
C1033 C1030 1.389 1_554 S
C1034 C1035 1.387 1_556 S
C1034 H1038 0.950 . S
C1034 C1043 1.390 . S
C1035 C1034 1.387 1_554 S
C1035 C1037 1.387 . S
H1036 C1043 0.950 . S
C1037 C1035 1.387 . S
C1037 C1039 1.390 . S
C1037 H1041 0.950 . S
H1038 C1034 0.950 . S
C1039 C1037 1.390 . S
C1039 C1040 1.387 1_554 S
C1039 H1042 0.950 . S
C1040 C1039 1.387 1_556 S
C1040 C1043 1.387 . S
H1041 C1037 0.950 . S
H1042 C1039 0.950 . S
C1043 C1034 1.390 . S
C1043 H1036 0.950 . S
C1043 C1040 1.387 . S
C1044 C1045 1.387 . S
C1044 H1048 0.950 . S
C1044 C1053 1.390 . S
C1045 C1044 1.387 . S
C1045 C1047 1.387 . S
H1046 C1053 0.950 . S
C1047 C1045 1.387 . S
C1047 C1049 1.390 . S
C1047 H1051 0.950 . S
H1048 C1044 0.950 . S
C1049 C1047 1.390 . S
C1049 C1050 1.387 . S
C1049 H1052 0.950 . S
C1050 C1049 1.387 . S
C1050 C1053 1.387 . S
H1051 C1047 0.950 . S
H1052 C1049 0.950 . S
C1053 C1044 1.390 . S
C1053 H1046 0.950 . S
C1053 C1050 1.387 . S
C1054 C1055 1.387 . S
C1054 H1058 0.950 . S
C1054 C1063 1.390 . S
C1055 C1054 1.387 . S
C1055 C1057 1.387 . S
H1056 C1063 0.950 . S
C1057 C1055 1.387 . S
C1057 C1059 1.390 . S
C1057 H1061 0.950 . S
H1058 C1054 0.950 . S
C1059 C1057 1.390 . S
C1059 C1060 1.387 . S
C1059 H1062 0.950 . S
C1060 C1059 1.387 . S
C1060 C1063 1.387 . S
H1061 C1057 0.950 . S
H1062 C1059 0.950 . S
C1063 C1054 1.390 . S
C1063 H1056 0.950 . S
C1063 C1060 1.387 . S
C1064 C1065 1.387 . S
C1064 H1068 0.950 . S
C1064 C1073 1.390 . S
C1065 C1064 1.387 . S
C1065 C1067 1.387 . S
H1066 C1073 0.950 . S
C1067 C1065 1.387 . S
C1067 C1069 1.390 . S
C1067 H1071 0.950 . S
H1068 C1064 0.950 . S
C1069 C1067 1.390 . S
C1069 C1070 1.387 . S
C1069 H1072 0.950 . S
C1070 C1069 1.387 . S
C1070 C1073 1.387 . S
H1071 C1067 0.950 . S
H1072 C1069 0.950 . S
C1073 C1064 1.390 . S
C1073 H1066 0.950 . S
C1073 C1070 1.387 . S
C1074 C1075 1.387 . S
C1074 H1078 0.950 . S
C1074 C1083 1.390 . S
C1075 C1074 1.387 . S
C1075 C1077 1.387 . S
H1076 C1083 0.950 . S
C1077 C1075 1.387 . S
C1077 C1079 1.390 . S
C1077 H1081 0.950 . S
H1078 C1074 0.950 . S
C1079 C1077 1.390 . S
C1079 C1080 1.387 . S
C1079 H1082 0.950 . S
C1080 C1079 1.387 . S
C1080 C1083 1.387 . S
H1081 C1077 0.950 . S
H1082 C1079 0.950 . S
C1083 C1074 1.390 . S
C1083 H1076 0.950 . S
C1083 C1080 1.387 . S
C1084 C1085 1.387 . S
C1084 H1088 0.950 . S
C1084 C1093 1.390 . S
C1085 C1084 1.387 . S
C1085 C1087 1.387 . S
H1086 C1093 0.950 . S
C1087 C1085 1.387 . S
C1087 C1089 1.390 . S
C1087 H1091 0.950 . S
H1088 C1084 0.950 . S
C1089 C1087 1.390 . S
C1089 C1090 1.387 . S
C1089 H1092 0.950 . S
C1090 C1089 1.387 . S
C1090 C1093 1.387 . S
H1091 C1087 0.950 . S
H1092 C1089 0.950 . S
C1093 C1084 1.390 . S
C1093 H1086 0.950 . S
C1093 C1090 1.387 . S
C1094 C1095 1.387 . S
C1094 H1098 0.950 . S
C1094 C1103 1.390 . S
C1095 C1094 1.387 . S
C1095 C1097 1.387 . S
H1096 C1103 0.950 . S
C1097 C1095 1.387 . S
C1097 C1099 1.390 . S
C1097 H1101 0.950 . S
H1098 C1094 0.950 . S
C1099 C1097 1.390 . S
C1099 C1100 1.387 . S
C1099 H1102 0.950 . S
C1100 C1099 1.387 . S
C1100 C1103 1.387 . S
H1101 C1097 0.950 . S
H1102 C1099 0.950 . S
C1103 C1094 1.390 . S
C1103 H1096 0.950 . S
C1103 C1100 1.387 . S
C1104 C1105 1.387 . S
C1104 H1108 0.950 . S
C1104 C1113 1.390 . S
C1105 C1104 1.387 . S
C1105 C1107 1.387 . S
H1106 C1113 0.950 . S
C1107 C1105 1.387 . S
C1107 C1109 1.390 . S
C1107 H1111 0.950 . S
H1108 C1104 0.950 . S
C1109 C1107 1.390 . S
C1109 C1110 1.387 . S
C1109 H1112 0.950 . S
C1110 C1109 1.387 . S
C1110 C1113 1.387 . S
H1111 C1107 0.950 . S
H1112 C1109 0.950 . S
C1113 C1104 1.390 . S
C1113 H1106 0.950 . S
C1113 C1110 1.387 . S
C1114 C1115 1.387 . S
C1114 H1118 0.950 . S
C1114 C1123 1.390 . S
C1115 C1114 1.387 . S
C1115 C1117 1.387 . S
H1116 C1123 0.950 . S
C1117 C1115 1.387 . S
C1117 C1119 1.390 . S
C1117 H1121 0.950 . S
H1118 C1114 0.950 . S
C1119 C1117 1.390 . S
C1119 C1120 1.387 . S
C1119 H1122 0.950 . S
C1120 C1119 1.387 . S
C1120 C1123 1.387 . S
H1121 C1117 0.950 . S
H1122 C1119 0.950 . S
C1123 C1114 1.390 . S
C1123 H1116 0.950 . S
C1123 C1120 1.387 . S
C1124 C1125 1.387 . S
C1124 H1128 0.950 . S
C1124 C1133 1.390 . S
C1125 C1124 1.387 . S
C1125 C1127 1.387 . S
H1126 C1133 0.950 . S
C1127 C1125 1.387 . S
C1127 C1129 1.390 . S
C1127 H1131 0.950 . S
H1128 C1124 0.950 . S
C1129 C1127 1.390 . S
C1129 C1130 1.387 . S
C1129 H1132 0.950 . S
C1130 C1129 1.387 . S
C1130 C1133 1.387 . S
H1131 C1127 0.950 . S
H1132 C1129 0.950 . S
C1133 C1124 1.390 . S
C1133 H1126 0.950 . S
C1133 C1130 1.387 . S
C1134 C1135 1.387 . S
C1134 H1138 0.950 . S
C1134 C1143 1.390 . S
C1135 C1134 1.387 . S
C1135 C1137 1.387 . S
H1136 C1143 0.950 . S
C1137 C1135 1.387 . S
C1137 C1139 1.390 . S
C1137 H1141 0.950 . S
H1138 C1134 0.950 . S
C1139 C1137 1.390 . S
C1139 C1140 1.387 . S
C1139 H1142 0.950 . S
C1140 C1139 1.387 . S
C1140 C1143 1.387 . S
H1141 C1137 0.950 . S
H1142 C1139 0.950 . S
C1143 C1134 1.390 . S
C1143 H1136 0.950 . S
C1143 C1140 1.387 . S
C1144 C1145 1.387 . S
C1144 H1148 0.950 . S
C1144 C1153 1.390 . S
C1145 C1144 1.387 . S
C1145 C1147 1.387 . S
H1146 C1153 0.950 . S
C1147 C1145 1.387 . S
C1147 C1149 1.390 . S
C1147 H1151 0.950 . S
H1148 C1144 0.950 . S
C1149 C1147 1.390 . S
C1149 C1150 1.387 . S
C1149 H1152 0.950 . S
C1150 C1149 1.387 . S
C1150 C1153 1.387 . S
H1151 C1147 0.950 . S
H1152 C1149 0.950 . S
C1153 C1144 1.390 . S
C1153 H1146 0.950 . S
C1153 C1150 1.387 . S
C1154 C1155 1.387 . S
C1154 H1158 0.950 . S
C1154 C1163 1.390 . S
C1155 C1154 1.387 . S
C1155 C1157 1.387 . S
H1156 C1163 0.950 . S
C1157 C1155 1.387 . S
C1157 C1159 1.390 . S
C1157 H1161 0.950 . S
H1158 C1154 0.950 . S
C1159 C1157 1.390 . S
C1159 C1160 1.387 . S
C1159 H1162 0.950 . S
C1160 C1159 1.387 . S
C1160 C1163 1.387 . S
H1161 C1157 0.950 . S
H1162 C1159 0.950 . S
C1163 C1154 1.390 . S
C1163 H1156 0.950 . S
C1163 C1160 1.387 . S
C1164 C1165 1.387 . S
C1164 H1168 0.950 . S
C1164 C1173 1.390 . S
C1165 C1164 1.387 . S
C1165 C1167 1.387 . S
H1166 C1173 0.950 . S
C1167 C1165 1.387 . S
C1167 C1169 1.390 . S
C1167 H1171 0.950 . S
H1168 C1164 0.950 . S
C1169 C1167 1.390 . S
C1169 C1170 1.387 . S
C1169 H1172 0.950 . S
C1170 C1169 1.387 . S
C1170 C1173 1.387 . S
H1171 C1167 0.950 . S
H1172 C1169 0.950 . S
C1173 C1164 1.390 . S
C1173 H1166 0.950 . S
C1173 C1170 1.387 . S
C1174 C1175 1.387 . S
C1174 H1178 0.950 . S
C1174 C1183 1.390 1_545 S
C1175 C1174 1.387 . S
C1175 C1177 1.387 . S
H1176 C1183 0.950 . S
C1177 C1175 1.387 . S
C1177 C1179 1.390 1_545 S
C1177 H1181 0.950 . S
H1178 C1174 0.950 . S
C1179 C1177 1.390 1_565 S
C1179 C1180 1.387 . S
C1179 H1182 0.950 . S
C1180 C1179 1.387 . S
C1180 C1183 1.387 . S
H1181 C1177 0.950 . S
H1182 C1179 0.950 . S
C1183 C1174 1.390 1_565 S
C1183 H1176 0.950 . S
C1183 C1180 1.387 . S
C1184 C1185 1.387 . S
C1184 H1188 0.950 . S
C1184 C1193 1.390 . S
C1185 C1184 1.387 . S
C1185 C1187 1.387 1_655 S
H1186 C1193 0.950 . S
C1187 C1185 1.387 1_455 S
C1187 C1189 1.390 . S
C1187 H1191 0.950 . S
H1188 C1184 0.950 . S
C1189 C1187 1.390 . S
C1189 C1190 1.387 . S
C1189 H1192 0.950 . S
C1190 C1189 1.387 . S
C1190 C1193 1.387 1_455 S
H1191 C1187 0.950 . S
H1192 C1189 0.950 . S
C1193 C1184 1.390 . S
C1193 H1186 0.950 . S
C1193 C1190 1.387 1_655 S
C1194 C1195 1.387 . S
C1194 H1198 0.950 . S
C1194 C1203 1.390 . S
C1195 C1194 1.387 . S
C1195 C1197 1.387 . S
H1196 C1203 0.950 . S
C1197 C1195 1.387 . S
C1197 C1199 1.390 . S
C1197 H1201 0.950 . S
H1198 C1194 0.950 . S
C1199 C1197 1.390 . S
C1199 C1200 1.387 . S
C1199 H1202 0.950 . S
C1200 C1199 1.387 . S
C1200 C1203 1.387 . S
H1201 C1197 0.950 . S
H1202 C1199 0.950 . S
C1203 C1194 1.390 . S
C1203 H1196 0.950 . S
C1203 C1200 1.387 . S
C1204 C1205 1.387 . S
C1204 H1208 0.950 . S
C1204 C1213 1.390 1_545 S
C1205 C1204 1.387 . S
C1205 C1207 1.387 . S
H1206 C1213 0.950 . S
C1207 C1205 1.387 . S
C1207 C1209 1.390 1_545 S
C1207 H1211 0.950 . S
H1208 C1204 0.950 . S
C1209 C1207 1.390 1_565 S
C1209 C1210 1.387 . S
C1209 H1212 0.950 . S
C1210 C1209 1.387 . S
C1210 C1213 1.387 . S
H1211 C1207 0.950 . S
H1212 C1209 0.950 . S
C1213 C1204 1.390 1_565 S
C1213 H1206 0.950 . S
C1213 C1210 1.387 . S
C1214 C1215 1.387 . S
C1214 H1218 0.950 . S
C1214 C1223 1.390 . S
C1215 C1214 1.387 . S
C1215 C1217 1.387 1_455 S
H1216 C1223 0.950 . S
C1217 C1215 1.387 1_655 S
C1217 C1219 1.390 . S
C1217 H1221 0.950 . S
H1218 C1214 0.950 . S
C1219 C1217 1.390 . S
C1219 C1220 1.387 . S
C1219 H1222 0.950 . S
C1220 C1219 1.387 . S
C1220 C1223 1.387 1_655 S
H1221 C1217 0.950 . S
H1222 C1219 0.950 . S
C1223 C1214 1.390 . S
C1223 H1216 0.950 . S
C1223 C1220 1.387 1_455 S
C505 C78 0.808 . S
C510 C8 0.803 . S
C515 C50 0.808 . S
C520 C22 0.808 . S
C525 C36 0.807 . S
C530 C64 0.802 . S
C535 C92 0.811 . S
C540 C162 0.816 . S
C545 C106 0.807 . S
C550 C134 0.806 . S
C555 C148 0.808 . S
C560 C120 0.804 . S
C565 C176 0.811 . S
C570 C246 0.816 . S
C575 C190 0.813 . S
C580 C218 0.803 . S
C585 C232 0.799 . S
C590 C204 0.804 . S
C595 C330 0.816 . S
C600 C260 0.806 . S
C605 C302 0.809 . S
C610 C274 0.816 . S
C615 C288 0.799 . S
C620 C316 0.799 . S
C625 C414 0.809 . S
C630 C344 0.810 . S
C635 C386 0.806 . S
C640 C358 0.807 . S
C645 C372 0.804 . S
C650 C400 0.808 . S
C655 C498 0.807 . S
C660 C428 0.806 . S
C665 C470 0.806 . S
C670 C442 0.816 . S
C675 C484 0.798 . S
C680 C456 0.801 . S
C685 C237 1.396 . S
C690 C13 1.405 . S
C695 C251 1.405 . S
C700 C27 1.404 . S
C705 C223 1.406 . S
C710 C41 1.395 . S
C715 C55 1.406 . S
C720 C377 1.399 1_554 S
C725 C69 1.400 . S
C730 C349 1.404 1_554 S
C735 C83 1.403 . S
C740 C363 1.401 1_554 S
C745 C97 1.402 . S
C750 C489 1.399 . S
C755 C503 1.403 . S
C760 C111 1.406 . S
C765 C475 1.404 . S
C770 C125 1.396 . S
C775 C293 1.397 1_556 S
C780 C139 1.403 . S
C785 C265 1.405 1_556 S
C790 C153 1.396 . S
C795 C167 1.406 . S
C800 C279 1.402 1_556 S
C805 C181 1.403 . S
C810 C405 1.400 . S
C815 C419 1.403 . S
C820 C195 1.401 . S
C825 C391 1.403 . S
C830 C209 1.397 . S
C835 C307 1.406 . S
C840 C461 1.399 . S
C845 C433 1.403 . S
C850 C321 1.400 . S
C855 C335 1.402 . S
C860 C447 1.406 . S
C865 C263 1.409 . S
C870 C11 1.409 . S
C875 C277 1.396 . S
C880 C25 1.396 . S
C885 C39 1.378 . S
C890 C291 1.378 . S
C895 C53 1.412 . S
C900 C473 1.412 . S
C905 C487 1.378 . S
C910 C67 1.378 . S
C915 C501 1.396 . S
C920 C81 1.396 . S
C925 C95 1.409 . S
C930 C347 1.409 . S
C935 C109 1.396 . S
C940 C361 1.396 . S
C945 C375 1.381 . S
C950 C123 1.381 . S
C955 C137 1.412 . S
C960 C221 1.412 . S
C965 C151 1.381 . S
C970 C235 1.381 . S
C975 C249 1.399 . S
C980 C165 1.399 . S
C985 C179 1.410 . S
C990 C431 1.410 . S
C995 C193 1.399 . S
C1000 C445 1.399 . S
C1005 C459 1.378 . S
C1010 C207 1.378 . S
C1015 C389 1.413 . S
C1020 C305 1.413 . S
C1025 C319 1.378 . S
C1030 C403 1.378 . S
C1035 C333 1.399 . S
C1040 C417 1.399 . S
C1045 C385 1.644 1_554 S
C1050 C7 1.644 . S
C1055 C21 1.646 . S
C1060 C399 1.643 1_554 S
C1065 C413 1.647 1_554 S
C1070 C35 1.643 . S
C1075 C49 1.645 . S
C1080 C175 1.644 . S
C1085 C189 1.646 . S
C1090 C63 1.643 . S
C1095 C203 1.643 . S
C1100 C77 1.646 . S
C1105 C91 1.644 . S
C1110 C301 1.644 1_556 S
C1115 C315 1.643 1_556 S
C1120 C105 1.647 . S
C1125 C119 1.643 . S
C1130 C329 1.647 1_556 S
C1135 C133 1.645 . S
C1140 C427 1.644 . S
C1145 C147 1.643 . S
C1150 C441 1.647 . S
C1155 C455 1.644 . S
C1160 C161 1.646 . S
C1165 C217 1.644 . S
C1170 C343 1.645 . S
C1175 C231 1.643 . S
C1180 C357 1.647 . S
C1185 C245 1.646 . S
C1190 C371 1.644 . S
C1195 C259 1.645 . S
C1200 C469 1.644 . S
C1205 C273 1.647 . S
C1210 C483 1.643 . S
C1215 C497 1.647 . S
C1220 C287 1.642 . S
