# Generated by pormake.
# Topology unx, (4)-cn, num edge types: 1
# Building blocks:
#     Node 0, Type 0, BuildingBlock: QUQFOY_clean_sbu_1, # of connection points: 4
#     Node 1, Type 0, BuildingBlock: QUQFOY_clean_sbu_1, # of connection points: 4
#     Node 2, Type 0, BuildingBlock: QUQFOY_clean_sbu_1, # of connection points: 4
#     Node 3, Type 0, BuildingBlock: QUQFOY_clean_sbu_1, # of connection points: 4
#     Node 4, Type 0, BuildingBlock: QUQFOY_clean_sbu_1, # of connection points: 4
#     Node 5, Type 0, BuildingBlock: QUQFOY_clean_sbu_1, # of connection points: 4
#     Node 6, Type 0, BuildingBlock: QUQFOY_clean_sbu_1, # of connection points: 4
#     Node 7, Type 0, BuildingBlock: QUQFOY_clean_sbu_1, # of connection points: 4
#     Node 8, Type 0, BuildingBlock: QUQFOY_clean_sbu_1, # of connection points: 4
#     Node 9, Type 0, BuildingBlock: QUQFOY_clean_sbu_1, # of connection points: 4
#     Node 10, Type 0, BuildingBlock: QUQFOY_clean_sbu_1, # of connection points: 4
#     Node 11, Type 0, BuildingBlock: QUQFOY_clean_sbu_1, # of connection points: 4
#     Node 12, Type 0, BuildingBlock: QUQFOY_clean_sbu_1, # of connection points: 4
#     Node 13, Type 0, BuildingBlock: QUQFOY_clean_sbu_1, # of connection points: 4
#     Node 14, Type 0, BuildingBlock: QUQFOY_clean_sbu_1, # of connection points: 4
#     Node 15, Type 0, BuildingBlock: QUQFOY_clean_sbu_1, # of connection points: 4
#     Node 16, Type 0, BuildingBlock: QUQFOY_clean_sbu_1, # of connection points: 4
#     Node 17, Type 0, BuildingBlock: QUQFOY_clean_sbu_1, # of connection points: 4
#     Node 18, Type 0, BuildingBlock: QUQFOY_clean_sbu_1, # of connection points: 4
#     Node 19, Type 0, BuildingBlock: QUQFOY_clean_sbu_1, # of connection points: 4
#     Node 20, Type 0, BuildingBlock: QUQFOY_clean_sbu_1, # of connection points: 4
#     Node 21, Type 0, BuildingBlock: QUQFOY_clean_sbu_1, # of connection points: 4
#     Node 22, Type 0, BuildingBlock: QUQFOY_clean_sbu_1, # of connection points: 4
#     Node 23, Type 0, BuildingBlock: QUQFOY_clean_sbu_1, # of connection points: 4
#     Node 24, Type 0, BuildingBlock: QUQFOY_clean_sbu_1, # of connection points: 4
#     Node 25, Type 0, BuildingBlock: QUQFOY_clean_sbu_1, # of connection points: 4
#     Node 26, Type 0, BuildingBlock: QUQFOY_clean_sbu_1, # of connection points: 4
#     Node 27, Type 0, BuildingBlock: QUQFOY_clean_sbu_1, # of connection points: 4
#     Node 28, Type 0, BuildingBlock: QUQFOY_clean_sbu_1, # of connection points: 4
#     Node 29, Type 0, BuildingBlock: QUQFOY_clean_sbu_1, # of connection points: 4
#     Node 30, Type 0, BuildingBlock: QUQFOY_clean_sbu_1, # of connection points: 4
#     Node 31, Type 0, BuildingBlock: QUQFOY_clean_sbu_1, # of connection points: 4
#     Node 32, Type 0, BuildingBlock: QUQFOY_clean_sbu_1, # of connection points: 4
#     Node 33, Type 0, BuildingBlock: QUQFOY_clean_sbu_1, # of connection points: 4
#     Node 34, Type 0, BuildingBlock: QUQFOY_clean_sbu_1, # of connection points: 4
#     Node 35, Type 0, BuildingBlock: QUQFOY_clean_sbu_1, # of connection points: 4
#     Node 36, Type 0, BuildingBlock: QUQFOY_clean_sbu_1, # of connection points: 4
#     Node 37, Type 0, BuildingBlock: QUQFOY_clean_sbu_1, # of connection points: 4
#     Node 38, Type 0, BuildingBlock: QUQFOY_clean_sbu_1, # of connection points: 4
#     Node 39, Type 0, BuildingBlock: QUQFOY_clean_sbu_1, # of connection points: 4
#     Node 40, Type 0, BuildingBlock: QUQFOY_clean_sbu_1, # of connection points: 4
#     Node 41, Type 0, BuildingBlock: QUQFOY_clean_sbu_1, # of connection points: 4
#     Node 42, Type 0, BuildingBlock: QUQFOY_clean_sbu_1, # of connection points: 4
#     Node 43, Type 0, BuildingBlock: QUQFOY_clean_sbu_1, # of connection points: 4
#     Node 44, Type 0, BuildingBlock: QUQFOY_clean_sbu_1, # of connection points: 4
#     Node 45, Type 0, BuildingBlock: QUQFOY_clean_sbu_1, # of connection points: 4
#     Node 46, Type 0, BuildingBlock: QUQFOY_clean_sbu_1, # of connection points: 4
#     Node 47, Type 0, BuildingBlock: QUQFOY_clean_sbu_1, # of connection points: 4
#     Edge 48, Type (0, 0), BuildingBlock: XIVTED_clean_linker_0, # of connection points: 2
#     Edge 49, Type (0, 0), BuildingBlock: XIVTED_clean_linker_0, # of connection points: 2
#     Edge 50, Type (0, 0), BuildingBlock: XIVTED_clean_linker_0, # of connection points: 2
#     Edge 51, Type (0, 0), BuildingBlock: XIVTED_clean_linker_0, # of connection points: 2
#     Edge 52, Type (0, 0), BuildingBlock: XIVTED_clean_linker_0, # of connection points: 2
#     Edge 53, Type (0, 0), BuildingBlock: XIVTED_clean_linker_0, # of connection points: 2
#     Edge 54, Type (0, 0), BuildingBlock: XIVTED_clean_linker_0, # of connection points: 2
#     Edge 55, Type (0, 0), BuildingBlock: XIVTED_clean_linker_0, # of connection points: 2
#     Edge 56, Type (0, 0), BuildingBlock: XIVTED_clean_linker_0, # of connection points: 2
#     Edge 57, Type (0, 0), BuildingBlock: XIVTED_clean_linker_0, # of connection points: 2
#     Edge 58, Type (0, 0), BuildingBlock: XIVTED_clean_linker_0, # of connection points: 2
#     Edge 59, Type (0, 0), BuildingBlock: XIVTED_clean_linker_0, # of connection points: 2
#     Edge 60, Type (0, 0), BuildingBlock: XIVTED_clean_linker_0, # of connection points: 2
#     Edge 61, Type (0, 0), BuildingBlock: XIVTED_clean_linker_0, # of connection points: 2
#     Edge 62, Type (0, 0), BuildingBlock: XIVTED_clean_linker_0, # of connection points: 2
#     Edge 63, Type (0, 0), BuildingBlock: XIVTED_clean_linker_0, # of connection points: 2
#     Edge 64, Type (0, 0), BuildingBlock: XIVTED_clean_linker_0, # of connection points: 2
#     Edge 65, Type (0, 0), BuildingBlock: XIVTED_clean_linker_0, # of connection points: 2
#     Edge 66, Type (0, 0), BuildingBlock: XIVTED_clean_linker_0, # of connection points: 2
#     Edge 67, Type (0, 0), BuildingBlock: XIVTED_clean_linker_0, # of connection points: 2
#     Edge 68, Type (0, 0), BuildingBlock: XIVTED_clean_linker_0, # of connection points: 2
#     Edge 69, Type (0, 0), BuildingBlock: XIVTED_clean_linker_0, # of connection points: 2
#     Edge 70, Type (0, 0), BuildingBlock: XIVTED_clean_linker_0, # of connection points: 2
#     Edge 71, Type (0, 0), BuildingBlock: XIVTED_clean_linker_0, # of connection points: 2
#     Edge 72, Type (0, 0), BuildingBlock: XIVTED_clean_linker_0, # of connection points: 2
#     Edge 73, Type (0, 0), BuildingBlock: XIVTED_clean_linker_0, # of connection points: 2
#     Edge 74, Type (0, 0), BuildingBlock: XIVTED_clean_linker_0, # of connection points: 2
#     Edge 75, Type (0, 0), BuildingBlock: XIVTED_clean_linker_0, # of connection points: 2
#     Edge 76, Type (0, 0), BuildingBlock: XIVTED_clean_linker_0, # of connection points: 2
#     Edge 77, Type (0, 0), BuildingBlock: XIVTED_clean_linker_0, # of connection points: 2
#     Edge 78, Type (0, 0), BuildingBlock: XIVTED_clean_linker_0, # of connection points: 2
#     Edge 79, Type (0, 0), BuildingBlock: XIVTED_clean_linker_0, # of connection points: 2
#     Edge 80, Type (0, 0), BuildingBlock: XIVTED_clean_linker_0, # of connection points: 2
#     Edge 81, Type (0, 0), BuildingBlock: XIVTED_clean_linker_0, # of connection points: 2
#     Edge 82, Type (0, 0), BuildingBlock: XIVTED_clean_linker_0, # of connection points: 2
#     Edge 83, Type (0, 0), BuildingBlock: XIVTED_clean_linker_0, # of connection points: 2
#     Edge 84, Type (0, 0), BuildingBlock: XIVTED_clean_linker_0, # of connection points: 2
#     Edge 85, Type (0, 0), BuildingBlock: XIVTED_clean_linker_0, # of connection points: 2
#     Edge 86, Type (0, 0), BuildingBlock: XIVTED_clean_linker_0, # of connection points: 2
#     Edge 87, Type (0, 0), BuildingBlock: XIVTED_clean_linker_0, # of connection points: 2
#     Edge 88, Type (0, 0), BuildingBlock: XIVTED_clean_linker_0, # of connection points: 2
#     Edge 89, Type (0, 0), BuildingBlock: XIVTED_clean_linker_0, # of connection points: 2
#     Edge 90, Type (0, 0), BuildingBlock: XIVTED_clean_linker_0, # of connection points: 2
#     Edge 91, Type (0, 0), BuildingBlock: XIVTED_clean_linker_0, # of connection points: 2
#     Edge 92, Type (0, 0), BuildingBlock: XIVTED_clean_linker_0, # of connection points: 2
#     Edge 93, Type (0, 0), BuildingBlock: XIVTED_clean_linker_0, # of connection points: 2
#     Edge 94, Type (0, 0), BuildingBlock: XIVTED_clean_linker_0, # of connection points: 2
#     Edge 95, Type (0, 0), BuildingBlock: XIVTED_clean_linker_0, # of connection points: 2
#     Edge 96, Type (0, 0), BuildingBlock: XIVTED_clean_linker_0, # of connection points: 2
#     Edge 97, Type (0, 0), BuildingBlock: XIVTED_clean_linker_0, # of connection points: 2
#     Edge 98, Type (0, 0), BuildingBlock: XIVTED_clean_linker_0, # of connection points: 2
#     Edge 99, Type (0, 0), BuildingBlock: XIVTED_clean_linker_0, # of connection points: 2
#     Edge 100, Type (0, 0), BuildingBlock: XIVTED_clean_linker_0, # of connection points: 2
#     Edge 101, Type (0, 0), BuildingBlock: XIVTED_clean_linker_0, # of connection points: 2
#     Edge 102, Type (0, 0), BuildingBlock: XIVTED_clean_linker_0, # of connection points: 2
#     Edge 103, Type (0, 0), BuildingBlock: XIVTED_clean_linker_0, # of connection points: 2
#     Edge 104, Type (0, 0), BuildingBlock: XIVTED_clean_linker_0, # of connection points: 2
#     Edge 105, Type (0, 0), BuildingBlock: XIVTED_clean_linker_0, # of connection points: 2
#     Edge 106, Type (0, 0), BuildingBlock: XIVTED_clean_linker_0, # of connection points: 2
#     Edge 107, Type (0, 0), BuildingBlock: XIVTED_clean_linker_0, # of connection points: 2
#     Edge 108, Type (0, 0), BuildingBlock: XIVTED_clean_linker_0, # of connection points: 2
#     Edge 109, Type (0, 0), BuildingBlock: XIVTED_clean_linker_0, # of connection points: 2
#     Edge 110, Type (0, 0), BuildingBlock: XIVTED_clean_linker_0, # of connection points: 2
#     Edge 111, Type (0, 0), BuildingBlock: XIVTED_clean_linker_0, # of connection points: 2
#     Edge 112, Type (0, 0), BuildingBlock: XIVTED_clean_linker_0, # of connection points: 2
#     Edge 113, Type (0, 0), BuildingBlock: XIVTED_clean_linker_0, # of connection points: 2
#     Edge 114, Type (0, 0), BuildingBlock: XIVTED_clean_linker_0, # of connection points: 2
#     Edge 115, Type (0, 0), BuildingBlock: XIVTED_clean_linker_0, # of connection points: 2
#     Edge 116, Type (0, 0), BuildingBlock: XIVTED_clean_linker_0, # of connection points: 2
#     Edge 117, Type (0, 0), BuildingBlock: XIVTED_clean_linker_0, # of connection points: 2
#     Edge 118, Type (0, 0), BuildingBlock: XIVTED_clean_linker_0, # of connection points: 2
#     Edge 119, Type (0, 0), BuildingBlock: XIVTED_clean_linker_0, # of connection points: 2
#     Edge 120, Type (0, 0), BuildingBlock: XIVTED_clean_linker_0, # of connection points: 2
#     Edge 121, Type (0, 0), BuildingBlock: XIVTED_clean_linker_0, # of connection points: 2
#     Edge 122, Type (0, 0), BuildingBlock: XIVTED_clean_linker_0, # of connection points: 2
#     Edge 123, Type (0, 0), BuildingBlock: XIVTED_clean_linker_0, # of connection points: 2
#     Edge 124, Type (0, 0), BuildingBlock: XIVTED_clean_linker_0, # of connection points: 2
#     Edge 125, Type (0, 0), BuildingBlock: XIVTED_clean_linker_0, # of connection points: 2
#     Edge 126, Type (0, 0), BuildingBlock: XIVTED_clean_linker_0, # of connection points: 2
#     Edge 127, Type (0, 0), BuildingBlock: XIVTED_clean_linker_0, # of connection points: 2
#     Edge 128, Type (0, 0), BuildingBlock: XIVTED_clean_linker_0, # of connection points: 2
#     Edge 129, Type (0, 0), BuildingBlock: XIVTED_clean_linker_0, # of connection points: 2
#     Edge 130, Type (0, 0), BuildingBlock: XIVTED_clean_linker_0, # of connection points: 2
#     Edge 131, Type (0, 0), BuildingBlock: XIVTED_clean_linker_0, # of connection points: 2
#     Edge 132, Type (0, 0), BuildingBlock: XIVTED_clean_linker_0, # of connection points: 2
#     Edge 133, Type (0, 0), BuildingBlock: XIVTED_clean_linker_0, # of connection points: 2
#     Edge 134, Type (0, 0), BuildingBlock: XIVTED_clean_linker_0, # of connection points: 2
#     Edge 135, Type (0, 0), BuildingBlock: XIVTED_clean_linker_0, # of connection points: 2
#     Edge 136, Type (0, 0), BuildingBlock: XIVTED_clean_linker_0, # of connection points: 2
#     Edge 137, Type (0, 0), BuildingBlock: XIVTED_clean_linker_0, # of connection points: 2
#     Edge 138, Type (0, 0), BuildingBlock: XIVTED_clean_linker_0, # of connection points: 2
#     Edge 139, Type (0, 0), BuildingBlock: XIVTED_clean_linker_0, # of connection points: 2
#     Edge 140, Type (0, 0), BuildingBlock: XIVTED_clean_linker_0, # of connection points: 2
#     Edge 141, Type (0, 0), BuildingBlock: XIVTED_clean_linker_0, # of connection points: 2
#     Edge 142, Type (0, 0), BuildingBlock: XIVTED_clean_linker_0, # of connection points: 2
#     Edge 143, Type (0, 0), BuildingBlock: XIVTED_clean_linker_0, # of connection points: 2
# Relax obj value: 0.333
# Max RMSD: 0.120
# Mean RMSD: 0.120
data_MOF--net-unx--node1-QUQFOY_clean_sbu_1--edge1-XIVTED_clean_linker_0
_symmetry_space_group_name_H-M    P1
_symmetry_Int_Tables_number       1
_symmetry_cell_setting            triclinic
loop_
_symmetry_equiv_pos_as_xyz
'x, y, z'
_cell_length_a     61.735928
_cell_length_b     61.787663
_cell_length_c     61.75875
_cell_angle_alpha  89.955098
_cell_angle_beta   89.916995
_cell_angle_gamma 89.967539
loop_
_atom_site_label
_atom_site_type_symbol
_atom_site_fract_x
_atom_site_fract_y
_atom_site_fract_z
_atom_type_partial_charge
O0 O 0.16141 0.57791 0.21255 0.0
Cd1 Cd 0.1559 0.57545 0.245 0.0
Cd2 Cd 0.11443 0.55552 0.21973 0.0
O3 O 0.13885 0.55513 0.19652 0.0
O4 O 0.18392 0.58786 0.25501 0.0
O5 O 0.17528 0.55362 0.26005 0.0
C6 C 0.18967 0.56875 0.26092 0.0
C7 C 0.08022 0.542 0.20946 0.0
C8 C 0.15531 0.56754 0.19593 0.0
C9 C 0.11421 0.59742 0.24981 0.0
O10 O 0.10776 0.58361 0.23609 0.0
O11 O 0.13327 0.59656 0.25752 0.0
O12 O 0.0892 0.55799 0.1997 0.0
O13 O 0.0914 0.53221 0.22413 0.0
O14 O 0.6868 0.33278 0.46176 0.0
Cd15 Cd 0.71178 0.35432 0.46507 0.0
Cd16 Cd 0.68103 0.37078 0.48773 0.0
O17 O 0.67047 0.33942 0.49272 0.0
O18 O 0.73565 0.33752 0.45159 0.0
O19 O 0.73323 0.34341 0.48689 0.0
C20 C 0.74197 0.33296 0.47097 0.0
C21 C 0.6855 0.40033 0.50992 0.0
C22 C 0.67367 0.32709 0.47654 0.0
C23 C 0.68972 0.39094 0.44643 0.0
O24 O 0.67447 0.38322 0.45785 0.0
O25 O 0.70892 0.38386 0.44906 0.0
O26 O 0.66656 0.39194 0.50695 0.0
O27 O 0.70227 0.38958 0.50331 0.0
O28 O 0.84303 0.97908 0.68494 0.0
Cd29 Cd 0.84959 0.96776 0.71543 0.0
Cd30 Cd 0.8929 0.98478 0.69034 0.0
O31 O 0.8702 0.9954 0.66826 0.0
O32 O 0.82174 0.95178 0.71892 0.0
O33 O 0.82975 0.98032 0.7386 0.0
C34 C 0.81578 0.96587 0.73297 0.0
C35 C 0.92878 0.99713 0.68967 0.0
C36 C 0.85047 0.98959 0.66892 0.0
C37 C 0.88728 0.93793 0.70769 0.0
O38 O 0.89522 0.95216 0.69519 0.0
O39 O 0.87067 0.94188 0.71925 0.0
O40 O 0.92011 0.98775 0.67328 0.0
O41 O 0.91635 0.0018 0.70584 0.0
O42 O 0.3188 0.16457 0.96046 0.0
Cd43 Cd 0.29326 0.14338 0.95992 0.0
Cd44 Cd 0.32139 0.12536 0.98467 0.0
O45 O 0.33207 0.15608 0.99237 0.0
O46 O 0.27256 0.16081 0.9427 0.0
O47 O 0.26865 0.1547 0.97782 0.0
C48 C 0.2631 0.16545 0.96073 0.0
C49 C 0.31161 0.09559 0.00464 0.0
C50 C 0.33042 0.16933 0.97671 0.0
C51 C 0.31613 0.10638 0.94275 0.0
O52 O 0.33077 0.11366 0.95515 0.0
O53 O 0.29698 0.11387 0.94427 0.0
O54 O 0.33138 0.10254 0.00469 0.0
O55 O 0.29678 0.10792 0.99638 0.0
O56 O 0.1179 0.43087 0.76522 0.0
Cd57 Cd 0.1204 0.46217 0.77589 0.0
Cd58 Cd 0.16897 0.44252 0.76482 0.0
O59 O 0.1495 0.417 0.75521 0.0
O60 O 0.09018 0.4643 0.78744 0.0
O61 O 0.10165 0.48507 0.76097 0.0
C62 C 0.08598 0.47899 0.77338 0.0
C63 C 0.20561 0.44353 0.75379 0.0
C64 C 0.12911 0.41532 0.75776 0.0
C65 C 0.15514 0.45946 0.81043 0.0
O66 O 0.16756 0.45011 0.79699 0.0
O67 O 0.13663 0.46659 0.80485 0.0
O68 O 0.19795 0.42795 0.76524 0.0
O69 O 0.19215 0.45805 0.74715 0.0
O70 O 0.77868 0.39033 0.06518 0.0
Cd71 Cd 0.77425 0.36661 0.04243 0.0
Cd72 Cd 0.75003 0.35429 0.07281 0.0
O73 O 0.74698 0.38662 0.08097 0.0
O74 O 0.78933 0.3795 0.01726 0.0
O75 O 0.75361 0.37665 0.0195 0.0
C76 C 0.77045 0.38475 0.01002 0.0
C77 C 0.72703 0.32835 0.05995 0.0
C78 C 0.76381 0.39788 0.07723 0.0
C79 C 0.78934 0.32994 0.06762 0.0
O80 O 0.7779 0.33887 0.08222 0.0
O81 O 0.78774 0.33643 0.04812 0.0
O82 O 0.72614 0.33424 0.08006 0.0
O83 O 0.73826 0.34 0.04658 0.0
O84 O 0.88496 0.07703 0.24935 0.0
Cd85 Cd 0.87818 0.05263 0.27099 0.0
Cd86 Cd 0.83752 0.0776 0.24959 0.0
O87 O 0.85955 0.09213 0.22936 0.0
O88 O 0.90425 0.05668 0.28977 0.0
O89 O 0.89993 0.02803 0.26903 0.0
C90 C 0.91216 0.03917 0.28178 0.0
C91 C 0.80085 0.0713 0.2425 0.0
C92 C 0.87935 0.09015 0.23455 0.0
C93 C 0.84195 0.07167 0.29632 0.0
O94 O 0.84083 0.08571 0.28141 0.0
O95 O 0.85302 0.05448 0.29363 0.0
O96 O 0.80862 0.09062 0.24351 0.0
O97 O 0.81439 0.05534 0.24322 0.0
O98 O 0.23584 0.1001 0.57797 0.0
Cd99 Cd 0.22138 0.11291 0.55081 0.0
Cd100 Cd 0.24553 0.14646 0.57507 0.0
O101 O 0.26153 0.12164 0.59021 0.0
O102 O 0.20034 0.08887 0.54618 0.0
O103 O 0.22792 0.09479 0.52426 0.0
C104 C 0.21205 0.08253 0.53019 0.0
C105 C 0.25872 0.18126 0.56905 0.0
C106 C 0.25182 0.10354 0.59043 0.0
C107 C 0.19869 0.15017 0.57017 0.0
O108 O 0.21388 0.14979 0.58393 0.0
O109 O 0.20032 0.13925 0.55278 0.0
O110 O 0.2573 0.17322 0.58824 0.0
O111 O 0.25519 0.16852 0.55286 0.0
O112 O 0.20075 0.86094 0.4366 0.0
Cd113 Cd 0.23231 0.86901 0.44197 0.0
Cd114 Cd 0.20781 0.89751 0.46829 0.0
O115 O 0.18756 0.87065 0.46823 0.0
O116 O 0.24602 0.84471 0.42601 0.0
O117 O 0.24744 0.84756 0.4616 0.0
C118 C 0.25055 0.83605 0.44442 0.0
C119 C 0.20544 0.9255 0.49351 0.0
C120 C 0.18619 0.85946 0.451 0.0
C121 C 0.22943 0.91235 0.42609 0.0
O122 O 0.2138 0.9129 0.43945 0.0
O123 O 0.24254 0.89648 0.42602 0.0
O124 O 0.18928 0.92041 0.48143 0.0
O125 O 0.22212 0.91287 0.49331 0.0
O126 O 0.36515 0.46024 0.67306 0.0
Cd127 Cd 0.38652 0.4575 0.69799 0.0
Cd128 Cd 0.39958 0.49114 0.67917 0.0
O129 O 0.36647 0.49565 0.67436 0.0
O130 O 0.37091 0.43681 0.71689 0.0
O131 O 0.37402 0.47188 0.72408 0.0
C132 C 0.3645 0.45355 0.72769 0.0
C133 C 0.42441 0.51149 0.69808 0.0
C134 C 0.35611 0.47842 0.67007 0.0
C135 C 0.42459 0.45215 0.67189 0.0
O136 O 0.4158 0.46773 0.66168 0.0
O137 O 0.41748 0.44705 0.69058 0.0
O138 O 0.41809 0.51736 0.67898 0.0
O139 O 0.41436 0.49567 0.70748 0.0
O140 O 0.82548 0.62014 0.99181 0.0
Cd141 Cd 0.79895 0.62959 0.97406 0.0
Cd142 Cd 0.80274 0.57464 0.97634 0.0
O143 O 0.8298 0.58452 0.9933 0.0
O144 O 0.81105 0.65857 0.96626 0.0
O145 O 0.78097 0.65532 0.98488 0.0
C146 C 0.79526 0.66775 0.97608 0.0
C147 C 0.79253 0.53809 0.98013 0.0
C148 C 0.83607 0.60357 0.99786 0.0
C149 C 0.79804 0.60058 0.93347 0.0
O150 O 0.80086 0.58345 0.94446 0.0
O151 O 0.79603 0.61895 0.94249 0.0
O152 O 0.8105 0.54372 0.97132 0.0
O153 O 0.78041 0.55324 0.98787 0.0
O154 O 0.62956 0.06234 0.19578 0.0
Cd155 Cd 0.61348 0.05769 0.22426 0.0
Cd156 Cd 0.6046 0.02368 0.20515 0.0
O157 O 0.63648 0.02758 0.19471 0.0
O158 O 0.63074 0.07493 0.24493 0.0
O159 O 0.63161 0.03898 0.24321 0.0
C160 C 0.6404 0.05691 0.24961 0.0
C161 C 0.58602 0.99616 0.22168 0.0
C162 C 0.64169 0.04689 0.18972 0.0
C163 C 0.57115 0.05665 0.20626 0.0
O164 O 0.58125 0.04418 0.19336 0.0
O165 O 0.58023 0.06249 0.22381 0.0
O166 O 0.5918 0.99457 0.20158 0.0
O167 O 0.59434 0.01157 0.2332 0.0
O168 O 0.53056 0.14395 0.07795 0.0
Cd169 Cd 0.49955 0.15507 0.08024 0.0
Cd170 Cd 0.52561 0.17788 0.11717 0.0
O171 O 0.54699 0.17266 0.09145 0.0
O172 O 0.48754 0.14555 0.05198 0.0
O173 O 0.49253 0.17999 0.06036 0.0
C174 C 0.48773 0.16555 0.04601 0.0
C175 C 0.5395 0.19321 0.14914 0.0
C176 C 0.54726 0.15574 0.07967 0.0
C177 C 0.48802 0.14276 0.12341 0.0
O178 O 0.50403 0.15485 0.12779 0.0
O179 O 0.48111 0.14117 0.10415 0.0
O180 O 0.54615 0.17488 0.14195 0.0
O181 O 0.52624 0.20404 0.13716 0.0
O182 O 0.03626 0.7967 0.40956 0.0
Cd183 Cd 0.00333 0.79929 0.40659 0.0
Cd184 Cd 0.02715 0.78555 0.35811 0.0
O185 O 0.05185 0.78229 0.38051 0.0
O186 O 0.99693 0.81156 0.43584 0.0
O187 O 0.98594 0.77912 0.42605 0.0
C188 C 0.98774 0.79362 0.44097 0.0
C189 C 0.0358 0.77794 0.32158 0.0
C190 C 0.05286 0.78942 0.39982 0.0
C191 C 0.99736 0.82685 0.36736 0.0
O192 O 0.0099 0.81377 0.3577 0.0
O193 O 0.99167 0.82376 0.38691 0.0
O194 O 0.04554 0.79275 0.33234 0.0
O195 O 0.02199 0.76613 0.33189 0.0
O196 O 0.45221 0.29918 0.57193 0.0
Cd197 Cd 0.4845 0.30496 0.56731 0.0
Cd198 Cd 0.47408 0.29282 0.62082 0.0
O199 O 0.44488 0.28777 0.60524 0.0
O200 O 0.4824 0.3166 0.53715 0.0
O201 O 0.49993 0.28654 0.54465 0.0
C202 C 0.49294 0.30004 0.53032 0.0
C203 C 0.47272 0.28609 0.65866 0.0
C204 C 0.4389 0.29243 0.58609 0.0
C205 C 0.49671 0.33566 0.60313 0.0
O206 O 0.48876 0.32226 0.61654 0.0
O207 O 0.49714 0.33171 0.58293 0.0
O208 O 0.46135 0.30079 0.64949 0.0
O209 O 0.48457 0.27415 0.6463 0.0
O210 O 0.99036 0.66252 0.89333 0.0
Cd211 Cd 0.96251 0.67968 0.89923 0.0
Cd212 Cd 0.99258 0.69329 0.92739 0.0
O213 O 0.0067 0.69331 0.89653 0.0
O214 O 0.94284 0.67334 0.87449 0.0
O215 O 0.95856 0.7052 0.87966 0.0
C216 C 0.94706 0.6926 0.86752 0.0
C217 C 0.99292 0.72114 0.95228 0.0
C218 C 0.00487 0.67536 0.88672 0.0
C219 C 0.95829 0.66595 0.9429 0.0
O220 O 0.97886 0.6659 0.94175 0.0
O221 O 0.94734 0.67563 0.92845 0.0
O222 O 0.00961 0.7087 0.94986 0.0
O223 O 0.97701 0.71924 0.9388 0.0
O224 O 0.0532 0.70705 0.10398 0.0
Cd225 Cd 0.02969 0.71695 0.12521 0.0
Cd226 Cd 0.06038 0.74071 0.13671 0.0
O227 O 0.0684 0.73923 0.10405 0.0
O228 O 0.00178 0.71287 0.1096 0.0
O229 O 0.0176 0.74478 0.1144 0.0
C230 C 0.00322 0.73318 0.10459 0.0
C231 C 0.05203 0.76703 0.16149 0.0
C232 C 0.06535 0.72099 0.09491 0.0
C233 C 0.05133 0.70491 0.16479 0.0
O234 O 0.06685 0.71392 0.15476 0.0
O235 O 0.03216 0.70645 0.15729 0.0
O236 O 0.07179 0.76474 0.15477 0.0
O237 O 0.0368 0.75721 0.15101 0.0
O238 O 0.43684 0.79289 0.09527 0.0
Cd239 Cd 0.46031 0.78931 0.11817 0.0
Cd240 Cd 0.43491 0.75921 0.12844 0.0
O241 O 0.42783 0.75846 0.0955 0.0
O242 O 0.48525 0.80431 0.10447 0.0
O243 O 0.48258 0.76859 0.10736 0.0
C244 C 0.49178 0.78528 0.09865 0.0
C245 C 0.45113 0.73516 0.15194 0.0
C246 C 0.42826 0.77673 0.08596 0.0
C247 C 0.4336 0.79712 0.15596 0.0
O248 O 0.42138 0.78371 0.14629 0.0
O249 O 0.45299 0.7998 0.14934 0.0
O250 O 0.43129 0.7323 0.1458 0.0
O251 O 0.4625 0.7498 0.14218 0.0
O252 O 0.41809 0.22077 0.8295 0.0
Cd253 Cd 0.43383 0.24665 0.84348 0.0
Cd254 Cd 0.45251 0.21336 0.86343 0.0
O255 O 0.44727 0.2007 0.83289 0.0
O256 O 0.43164 0.27046 0.82213 0.0
O257 O 0.4621 0.25248 0.82875 0.0
C258 C 0.45148 0.26617 0.81695 0.0
C259 C 0.47665 0.19965 0.88883 0.0
C260 C 0.42928 0.20453 0.82362 0.0
C261 C 0.42098 0.24052 0.8872 0.0
O262 O 0.42636 0.22142 0.88207 0.0
O263 O 0.42516 0.25614 0.87451 0.0
O264 O 0.46169 0.18778 0.88056 0.0
O265 O 0.4801 0.2184 0.8802 0.0
O266 O 0.57705 0.27504 0.37241 0.0
Cd267 Cd 0.55199 0.27787 0.351 0.0
Cd268 Cd 0.57834 0.24966 0.33282 0.0
O269 O 0.58722 0.24194 0.36426 0.0
O270 O 0.53389 0.29846 0.36784 0.0
O271 O 0.52519 0.26404 0.36349 0.0
C272 C 0.52207 0.28221 0.37338 0.0
C273 C 0.56591 0.22784 0.30522 0.0
C274 C 0.58662 0.25762 0.37754 0.0
C275 C 0.57673 0.29262 0.31368 0.0
O276 O 0.58984 0.27803 0.31985 0.0
O277 O 0.55775 0.29334 0.32175 0.0
O278 O 0.58594 0.22714 0.31126 0.0
O279 O 0.5524 0.23895 0.3168 0.0
O280 O 0.14919 0.05482 0.69125 0.0
Cd281 Cd 0.1253 0.04931 0.7136 0.0
Cd282 Cd 0.11612 0.0223 0.68551 0.0
O283 O 0.14938 0.02075 0.68118 0.0
O284 O 0.13805 0.06067 0.74063 0.0
O285 O 0.13491 0.02563 0.73314 0.0
C286 C 0.1436 0.04086 0.7446 0.0
C287 C 0.08965 0.99845 0.69542 0.0
C288 C 0.15905 0.03886 0.68281 0.0
C289 C 0.08867 0.05946 0.68681 0.0
O290 O 0.10003 0.04867 0.67348 0.0
O291 O 0.094 0.05959 0.70673 0.0
O292 O 0.09829 0.99741 0.67632 0.0
O293 O 0.09909 0.01019 0.70997 0.0
O294 O 0.72184 0.83212 0.9287 0.0
Cd295 Cd 0.7481 0.84884 0.94036 0.0
Cd296 Cd 0.72027 0.86145 0.96716 0.0
O297 O 0.70734 0.83109 0.96121 0.0
O298 O 0.77395 0.83018 0.93607 0.0
O299 O 0.75809 0.83559 0.96795 0.0
C300 C 0.77181 0.82491 0.95626 0.0
C301 C 0.72489 0.88087 0.99855 0.0
C302 C 0.70839 0.82386 0.94193 0.0
C303 C 0.73316 0.89221 0.93354 0.0
O304 O 0.71699 0.88428 0.94346 0.0
O305 O 0.75066 0.88138 0.93227 0.0
O306 O 0.70572 0.87582 0.99189 0.0
O307 O 0.74133 0.8716 0.98943 0.0
O308 O 0.85637 0.47132 0.17332 0.0
Cd309 Cd 0.87843 0.4715 0.19803 0.0
Cd310 Cd 0.89538 0.49683 0.16965 0.0
O311 O 0.86425 0.50289 0.15889 0.0
O312 O 0.86206 0.45414 0.21957 0.0
O313 O 0.8674 0.48938 0.22292 0.0
C314 C 0.85735 0.47208 0.22909 0.0
C315 C 0.92231 0.51908 0.18246 0.0
C316 C 0.85126 0.48711 0.16122 0.0
C317 C 0.91532 0.45458 0.17406 0.0
O318 O 0.909 0.4682 0.16001 0.0
O319 O 0.90746 0.45524 0.19313 0.0
O320 O 0.91701 0.51927 0.1622 0.0
O321 O 0.91013 0.50847 0.19587 0.0
O322 O 0.28991 0.64817 0.41908 0.0
Cd323 Cd 0.25932 0.64206 0.43021 0.0
Cd324 Cd 0.28493 0.61709 0.45697 0.0
O325 O 0.30411 0.64416 0.45141 0.0
O326 O 0.24337 0.66764 0.41939 0.0
O327 O 0.25058 0.66229 0.45413 0.0
C328 C 0.244 0.6751 0.43891 0.0
C329 C 0.29196 0.59155 0.48375 0.0
C330 C 0.30491 0.65223 0.43246 0.0
C331 C 0.25766 0.59742 0.42045 0.0
O332 O 0.27486 0.59816 0.43164 0.0
O333 O 0.24531 0.61382 0.41926 0.0
O334 O 0.30606 0.59599 0.46905 0.0
O335 O 0.27515 0.60393 0.48522 0.0
O336 O 0.08089 0.95838 0.32142 0.0
Cd337 Cd 0.09671 0.98577 0.3113 0.0
Cd338 Cd 0.11366 0.95626 0.28693 0.0
O339 O 0.0825 0.94379 0.28905 0.0
O340 O 0.07697 0.00948 0.32029 0.0
O341 O 0.0813 0.999 0.28616 0.0
C342 C 0.07048 0.00997 0.3004 0.0
C343 C 0.13872 0.95613 0.25916 0.0
C344 C 0.07351 0.94511 0.30758 0.0
C345 C 0.13945 0.97262 0.3227 0.0
O346 O 0.13221 0.95538 0.31424 0.0
O347 O 0.12863 0.99006 0.32103 0.0
O348 O 0.13165 0.93822 0.26729 0.0
O349 O 0.12872 0.97385 0.2642 0.0
O350 O 0.79956 0.88603 0.56465 0.0
Cd351 Cd 0.79365 0.86585 0.53927 0.0
Cd352 Cd 0.76348 0.85646 0.56422 0.0
O353 O 0.76477 0.88945 0.57104 0.0
O354 O 0.80838 0.88085 0.51505 0.0
O355 O 0.77264 0.88016 0.51949 0.0
C356 C 0.78951 0.88875 0.51042 0.0
C357 C 0.73792 0.83335 0.55054 0.0
C358 C 0.7839 0.89708 0.57209 0.0
C359 C 0.79897 0.82633 0.56271 0.0
O360 O 0.78764 0.8371 0.57611 0.0
O361 O 0.80124 0.83339 0.54345 0.0
O362 O 0.73641 0.84028 0.57027 0.0
O363 O 0.75162 0.84273 0.53769 0.0
O364 O 0.94024 0.60227 0.78053 0.0
Cd365 Cd 0.91871 0.57724 0.77626 0.0
Cd366 Cd 0.89957 0.61114 0.75906 0.0
O367 O 0.92952 0.6257 0.7559 0.0
O368 O 0.93525 0.55355 0.79049 0.0
O369 O 0.9299 0.55486 0.75516 0.0
C370 C 0.93945 0.54602 0.77152 0.0
C371 C 0.87301 0.60039 0.73547 0.0
C372 C 0.94359 0.61929 0.76948 0.0
C373 C 0.8804 0.5954 0.79843 0.0
O374 O 0.88592 0.61285 0.7891 0.0
O375 O 0.88945 0.57766 0.79307 0.0
O376 O 0.8765 0.62075 0.739 0.0
O377 O 0.88701 0.58648 0.7426 0.0
O378 O 0.2007 0.61142 0.03995 0.0
Cd379 Cd 0.19365 0.61434 0.00781 0.0
Cd380 Cd 0.21709 0.6595 0.02863 0.0
O381 O 0.2207 0.6377 0.05381 0.0
O382 O 0.17421 0.58869 0.00666 0.0
O383 O 0.2057 0.58928 0.98999 0.0
C384 C 0.18886 0.57849 0.99602 0.0
C385 C 0.23335 0.69374 0.0325 0.0
C386 C 0.21113 0.61957 0.05561 0.0
C387 C 0.1711 0.6571 0.00567 0.0
O388 O 0.18663 0.66481 0.01667 0.0
O389 O 0.17132 0.63764 0.99898 0.0
O390 O 0.21897 0.6868 0.04581 0.0
O391 O 0.23987 0.68063 0.0176 0.0
O392 O 0.16869 0.33742 0.98589 0.0
Cd393 Cd 0.19692 0.35045 0.97384 0.0
Cd394 Cd 0.1712 0.38356 0.99595 0.0
O395 O 0.15483 0.35882 0.01088 0.0
O396 O 0.20342 0.32653 0.95322 0.0
O397 O 0.22294 0.33247 0.98248 0.0
C398 C 0.21839 0.3202 0.9662 0.0
C399 C 0.17823 0.41786 0.00961 0.0
C400 C 0.15518 0.3408 0.00103 0.0
C401 C 0.17965 0.38802 0.94999 0.0
O402 O 0.16452 0.38733 0.96385 0.0
O403 O 0.19682 0.37702 0.95298 0.0
O404 O 0.15871 0.41083 0.00736 0.0
O405 O 0.19394 0.40433 0.00672 0.0
O406 O 0.3431 0.95862 0.2055 0.0
Cd407 Cd 0.3366 0.94482 0.23495 0.0
Cd408 Cd 0.3918 0.95835 0.22795 0.0
O409 O 0.37687 0.96995 0.20032 0.0
O410 O 0.30719 0.93306 0.22775 0.0
O411 O 0.31189 0.95824 0.25239 0.0
C412 C 0.29878 0.94636 0.24132 0.0
C413 C 0.42964 0.96483 0.22997 0.0
C414 C 0.35744 0.96767 0.19385 0.0
C415 C 0.3727 0.91215 0.24107 0.0
O416 O 0.38636 0.92667 0.23606 0.0
O417 O 0.35252 0.9162 0.24222 0.0
O418 O 0.42115 0.95299 0.21522 0.0
O419 O 0.4166 0.9741 0.2434 0.0
O420 O 0.81887 0.13563 0.48332 0.0
Cd421 Cd 0.78731 0.13915 0.47375 0.0
Cd422 Cd 0.80171 0.0858 0.48406 0.0
O423 O 0.8294 0.10256 0.49265 0.0
O424 O 0.79113 0.16863 0.46072 0.0
O425 O 0.76944 0.16304 0.48831 0.0
C426 C 0.77822 0.17648 0.47496 0.0
C427 C 0.80046 0.04821 0.49147 0.0
C428 C 0.83329 0.12263 0.49011 0.0
C429 C 0.78254 0.10373 0.44008 0.0
O430 O 0.79112 0.0903 0.45304 0.0
O431 O 0.77842 0.12311 0.44574 0.0
O432 O 0.81489 0.05658 0.47908 0.0
O433 O 0.78727 0.0613 0.50101 0.0
O434 O 0.66637 0.54913 0.70761 0.0
Cd435 Cd 0.67746 0.56412 0.73546 0.0
Cd436 Cd 0.61931 0.54094 0.72304 0.0
O437 O 0.63724 0.53161 0.69648 0.0
O438 O 0.70212 0.58152 0.72405 0.0
O439 O 0.70652 0.55495 0.74755 0.0
C440 C 0.71501 0.5697 0.73539 0.0
C441 C 0.58166 0.5359 0.72223 0.0
C442 C 0.65623 0.53885 0.69294 0.0
C443 C 0.63743 0.5857 0.74635 0.0
O444 O 0.63026 0.5687 0.73741 0.0
O445 O 0.65766 0.5872 0.74966 0.0
O446 O 0.59116 0.55011 0.7103 0.0
O447 O 0.59363 0.5241 0.73467 0.0
O448 O 0.56078 0.68854 0.59796 0.0
Cd449 Cd 0.53742 0.69424 0.62064 0.0
Cd450 Cd 0.56302 0.72429 0.62887 0.0
O451 O 0.56786 0.72327 0.59543 0.0
O452 O 0.51131 0.68137 0.60722 0.0
O453 O 0.51752 0.71674 0.6092 0.0
C454 C 0.50699 0.7008 0.60063 0.0
C455 C 0.54973 0.74981 0.65246 0.0
C456 C 0.56784 0.70445 0.58702 0.0
C457 C 0.56356 0.68834 0.65869 0.0
O458 O 0.5762 0.70024 0.6476 0.0
O459 O 0.54405 0.6858 0.65249 0.0
O460 O 0.56913 0.75162 0.64465 0.0
O461 O 0.53691 0.73564 0.64394 0.0
O462 O 0.05401 0.29641 0.89788 0.0
Cd463 Cd 0.0308 0.29383 0.87455 0.0
Cd464 Cd 0.05574 0.26386 0.86367 0.0
O465 O 0.06119 0.26161 0.89684 0.0
O466 O 0.00559 0.30801 0.88849 0.0
O467 O 0.00873 0.27245 0.88426 0.0
C468 C 0.99933 0.28869 0.8936 0.0
C469 C 0.04084 0.24056 0.83874 0.0
C470 C 0.06129 0.27951 0.90702 0.0
C471 C 0.05786 0.30259 0.83745 0.0
O472 O 0.06989 0.28896 0.84709 0.0
O473 O 0.03836 0.30513 0.84377 0.0
O474 O 0.06039 0.23759 0.84572 0.0
O475 O 0.02888 0.25479 0.8484 0.0
O476 O 0.94078 0.18395 0.33307 0.0
Cd477 Cd 0.94788 0.20574 0.35688 0.0
Cd478 Cd 0.97542 0.17685 0.36448 0.0
O479 O 0.97442 0.17246 0.33104 0.0
O480 O 0.93662 0.23339 0.34497 0.0
O481 O 0.97156 0.22498 0.34656 0.0
C482 C 0.95634 0.23715 0.33888 0.0
C483 C 0.00071 0.18906 0.38886 0.0
C484 C 0.95588 0.17496 0.32236 0.0
C485 C 0.93965 0.17845 0.3941 0.0
O486 O 0.95016 0.16509 0.38249 0.0
O487 O 0.93901 0.19832 0.38855 0.0
O488 O 0.00192 0.16953 0.3813 0.0
O489 O 0.98753 0.20244 0.37962 0.0
O490 O 0.0454 0.20834 0.59304 0.0
Cd491 Cd 0.01432 0.19864 0.5869 0.0
Cd492 Cd 0.02572 0.21355 0.64204 0.0
O493 O 0.05395 0.22084 0.62559 0.0
O494 O 0.02131 0.18292 0.5595 0.0
O495 O 0.00021 0.21155 0.55994 0.0
C496 C 0.01029 0.19696 0.5489 0.0
C497 C 0.02679 0.21994 0.67983 0.0
C498 C 0.05902 0.21635 0.60614 0.0
C499 C 0.00388 0.16965 0.62476 0.0
O500 O 0.01228 0.18367 0.63718 0.0
O501 O 0.00214 0.17292 0.6045 0.0
O502 O 0.03917 0.20612 0.67052 0.0
O503 O 0.01415 0.23119 0.6676 0.0
O504 O 0.48593 0.67559 0.35459 0.0
Cd505 Cd 0.47362 0.7056 0.34726 0.0
Cd506 Cd 0.48425 0.69748 0.40373 0.0
O507 O 0.4949 0.6695 0.38889 0.0
O508 O 0.46035 0.69714 0.31895 0.0
O509 O 0.48595 0.72168 0.32102 0.0
C510 C 0.47301 0.7104 0.30918 0.0
C511 C 0.48859 0.69845 0.44179 0.0
C512 C 0.49348 0.66334 0.3693 0.0
C513 C 0.44039 0.71454 0.38262 0.0
O514 O 0.45366 0.70815 0.39693 0.0
O515 O 0.44557 0.71539 0.3627 0.0
O516 O 0.47662 0.68438 0.43237 0.0
O517 O 0.49923 0.71165 0.42959 0.0
O518 O 0.56511 0.77261 0.89952 0.0
Cd519 Cd 0.53527 0.78633 0.90456 0.0
Cd520 Cd 0.54617 0.77543 0.84953 0.0
O521 O 0.57306 0.76358 0.86562 0.0
O522 O 0.54123 0.79831 0.93408 0.0
O523 O 0.51665 0.77322 0.92853 0.0
C524 C 0.52705 0.78533 0.94197 0.0
C525 C 0.54495 0.76929 0.81176 0.0
C526 C 0.57793 0.76452 0.88561 0.0
C527 C 0.53036 0.82027 0.86915 0.0
O528 O 0.53696 0.80678 0.85511 0.0
O529 O 0.52793 0.815 0.88891 0.0
O530 O 0.55966 0.78096 0.8206 0.0
O531 O 0.53126 0.7599 0.82445 0.0
O532 O 0.61467 0.43837 0.26791 0.0
Cd533 Cd 0.60844 0.46606 0.28506 0.0
Cd534 Cd 0.6637 0.45846 0.27019 0.0
O535 O 0.64822 0.43212 0.25657 0.0
O536 O 0.5812 0.45511 0.29883 0.0
O537 O 0.58111 0.4829 0.27668 0.0
C538 C 0.57033 0.46946 0.28849 0.0
C539 C 0.70088 0.46262 0.26206 0.0
C540 C 0.62839 0.42673 0.25795 0.0
C541 C 0.64584 0.46911 0.31724 0.0
O542 O 0.65935 0.4641 0.30256 0.0
O543 O 0.6258 0.47166 0.31315 0.0
O544 O 0.69359 0.44622 0.27253 0.0
O545 O 0.68691 0.47647 0.25502 0.0
O546 O 0.26931 0.42086 0.57221 0.0
Cd547 Cd 0.2792 0.40595 0.5441 0.0
Cd548 Cd 0.25655 0.37561 0.57207 0.0
O549 O 0.24333 0.40184 0.58762 0.0
O550 O 0.30044 0.42857 0.5353 0.0
O551 O 0.26975 0.42313 0.5179 0.0
C552 C 0.28672 0.43493 0.521 0.0
C553 C 0.2416 0.3414 0.56762 0.0
C554 C 0.25434 0.41912 0.58622 0.0
C555 C 0.30183 0.36835 0.56223 0.0
O556 O 0.28872 0.37083 0.57783 0.0
O557 O 0.29865 0.37839 0.54452 0.0
O558 O 0.24473 0.34954 0.58656 0.0
O559 O 0.24417 0.35392 0.55104 0.0
O560 O 0.38854 0.06397 0.76729 0.0
Cd561 Cd 0.39625 0.03517 0.78198 0.0
Cd562 Cd 0.33935 0.04385 0.77079 0.0
O563 O 0.35443 0.07099 0.75833 0.0
O564 O 0.42336 0.04601 0.79591 0.0
O565 O 0.4239 0.01979 0.77197 0.0
C566 C 0.43446 0.03258 0.78461 0.0
C567 C 0.30139 0.04212 0.76636 0.0
C568 C 0.37431 0.07631 0.75902 0.0
C569 C 0.36046 0.02848 0.81535 0.0
O570 O 0.34631 0.03479 0.80187 0.0
O571 O 0.3803 0.0266 0.81013 0.0
O572 O 0.31055 0.05699 0.77756 0.0
O573 O 0.31382 0.02856 0.75647 0.0
O574 O 0.7308 0.08054 0.06595 0.0
Cd575 Cd 0.72178 0.0753 0.03449 0.0
Cd576 Cd 0.73159 0.13039 0.04871 0.0
O577 O 0.74075 0.11349 0.0761 0.0
O578 O 0.70894 0.04607 0.03948 0.0
O579 O 0.73727 0.05093 0.01847 0.0
C580 C 0.72382 0.0378 0.02758 0.0
C581 C 0.73358 0.16852 0.05069 0.0
C582 C 0.73781 0.09352 0.08023 0.0
C583 C 0.68917 0.11044 0.02638 0.0
O584 O 0.70211 0.12357 0.03538 0.0
O585 O 0.69429 0.09075 0.02337 0.0
O586 O 0.72156 0.15736 0.06342 0.0
O587 O 0.74593 0.15803 0.0375 0.0
O588 O 0.93501 0.27344 0.09573 0.0
Cd589 Cd 0.96513 0.28574 0.08899 0.0
Cd590 Cd 0.95714 0.275 0.14492 0.0
O591 O 0.92917 0.26438 0.13005 0.0
O592 O 0.95793 0.29841 0.06004 0.0
O593 O 0.98159 0.27209 0.0638 0.0
C594 C 0.97096 0.28487 0.05116 0.0
C595 C 0.95833 0.26924 0.18273 0.0
C596 C 0.92291 0.26574 0.11049 0.0
C597 C 0.97447 0.31888 0.12432 0.0
O598 O 0.9681 0.30566 0.13872 0.0
O599 O 0.97505 0.31374 0.10439 0.0
O600 O 0.94434 0.28177 0.17388 0.0
O601 O 0.97141 0.259 0.17006 0.0
O602 O 0.91452 0.74844 0.6269 0.0
Cd603 Cd 0.94417 0.76182 0.63333 0.0
Cd604 Cd 0.92096 0.74117 0.6769 0.0
O605 O 0.8989 0.73101 0.65404 0.0
O606 O 0.94444 0.78145 0.60755 0.0
O607 O 0.96742 0.75453 0.61077 0.0
C608 C 0.95972 0.77013 0.59923 0.0
C609 C 0.92444 0.72324 0.71024 0.0
C610 C 0.89907 0.73715 0.63441 0.0
C611 C 0.93478 0.78901 0.67341 0.0
O612 O 0.9233 0.77392 0.6814 0.0
O613 O 0.94619 0.7861 0.65645 0.0
O614 O 0.9066 0.73238 0.70461 0.0
O615 O 0.94007 0.72293 0.69634 0.0
O616 O 0.60189 0.96923 0.83901 0.0
Cd617 Cd 0.61682 0.99748 0.83016 0.0
Cd618 Cd 0.63636 0.97138 0.80389 0.0
O619 O 0.607 0.95524 0.80669 0.0
O620 O 0.59495 0.02047 0.83472 0.0
O621 O 0.60508 0.0087 0.80223 0.0
C622 C 0.59181 0.01989 0.81403 0.0
C623 C 0.6599 0.97032 0.77461 0.0
C624 C 0.59716 0.95516 0.82482 0.0
C625 C 0.65985 0.98771 0.84315 0.0
O626 O 0.65616 0.97203 0.83043 0.0
O627 O 0.64658 0.0034 0.84426 0.0
O628 O 0.65446 0.95293 0.78476 0.0
O629 O 0.6495 0.98793 0.77907 0.0
O630 O 0.33506 0.90843 0.0382 0.0
Cd631 Cd 0.32556 0.90287 0.00706 0.0
Cd632 Cd 0.29843 0.87618 0.03014 0.0
O633 O 0.30223 0.90266 0.05059 0.0
O634 O 0.33591 0.92942 0.99243 0.0
O635 O 0.30114 0.92233 0.99796 0.0
C636 C 0.31605 0.93602 0.99253 0.0
C637 C 0.27133 0.85039 0.03502 0.0
C638 C 0.32077 0.91142 0.05264 0.0
C639 C 0.33718 0.85865 0.00435 0.0
O640 O 0.32481 0.85815 0.02077 0.0
O641 O 0.33846 0.87563 0.99281 0.0
O642 O 0.28536 0.85431 0.04987 0.0
O643 O 0.27088 0.86309 0.01841 0.0
O644 O 0.40425 0.52765 0.34031 0.0
Cd645 Cd 0.38694 0.50216 0.32746 0.0
Cd646 Cd 0.37235 0.53361 0.30537 0.0
O647 O 0.40425 0.54314 0.3083 0.0
O648 O 0.40621 0.47661 0.32932 0.0
O649 O 0.39966 0.49462 0.29882 0.0
C650 C 0.4112 0.48062 0.30934 0.0
C651 C 0.34755 0.53999 0.27828 0.0
C652 C 0.41274 0.54082 0.32693 0.0
C653 C 0.34476 0.51621 0.33864 0.0
O654 O 0.35379 0.53362 0.33266 0.0
O655 O 0.35438 0.4983 0.33553 0.0
O656 O 0.35656 0.55579 0.2885 0.0
O657 O 0.35558 0.52079 0.28077 0.0
O658 O 0.66948 0.60231 0.538 0.0
Cd659 Cd 0.67376 0.59797 0.50557 0.0
Cd660 Cd 0.69887 0.64026 0.52393 0.0
O661 O 0.70166 0.61499 0.54636 0.0
O662 O 0.65912 0.56943 0.50242 0.0
O663 O 0.69422 0.57371 0.49718 0.0
C664 C 0.67784 0.56084 0.49914 0.0
C665 C 0.7117 0.67493 0.53284 0.0
C666 C 0.68541 0.60312 0.55085 0.0
C667 C 0.65729 0.63893 0.49222 0.0
O668 O 0.67145 0.64545 0.50561 0.0
O669 O 0.65642 0.61912 0.48681 0.0
O670 O 0.69581 0.66616 0.54306 0.0
O671 O 0.72181 0.66321 0.51876 0.0
H672 H 0.22347 0.63439 0.09582 0.0
H673 H 0.14791 0.54973 0.1557 0.0
H674 H 0.19476 0.57938 0.06365 0.0
H675 H 0.19037 0.59366 0.18967 0.0
H676 H 0.16636 0.55908 0.12185 0.0
H677 H 0.21364 0.61833 0.13071 0.0
C678 C 0.21551 0.61877 0.09608 0.0
C679 C 0.20958 0.60845 0.07677 0.0
C680 C 0.17177 0.56646 0.13679 0.0
C681 C 0.19795 0.5902 0.11651 0.0
C682 C 0.1612 0.56116 0.1561 0.0
C683 C 0.16735 0.57113 0.17552 0.0
C684 C 0.18844 0.58199 0.13693 0.0
C685 C 0.18482 0.58574 0.17507 0.0
C686 C 0.20981 0.60963 0.11599 0.0
C687 C 0.19931 0.58817 0.07811 0.0
N688 N 0.19455 0.59092 0.15607 0.0
N689 N 0.1935 0.5799 0.0976 0.0
H690 H 0.65162 0.41265 0.44183 0.0
H691 H 0.68758 0.46912 0.33193 0.0
H692 H 0.71621 0.40875 0.41519 0.0
H693 H 0.62138 0.46486 0.35419 0.0
H694 H 0.69982 0.45544 0.36686 0.0
H695 H 0.64211 0.43903 0.4142 0.0
C696 C 0.66387 0.41738 0.43019 0.0
C697 C 0.68465 0.40809 0.43054 0.0
C698 C 0.68265 0.45789 0.36426 0.0
C699 C 0.67378 0.4385 0.39883 0.0
C700 C 0.67561 0.46583 0.34435 0.0
C701 C 0.65335 0.46761 0.33992 0.0
C702 C 0.66733 0.45165 0.37983 0.0
C703 C 0.63867 0.46347 0.35676 0.0
C704 C 0.65842 0.43257 0.41446 0.0
C705 C 0.69992 0.41525 0.41532 0.0
N706 N 0.6459 0.45525 0.37585 0.0
N707 N 0.6941 0.42986 0.39988 0.0
H708 H 0.86317 0.99103 0.62636 0.0
H709 H 0.76008 0.92083 0.60151 0.0
H710 H 0.80638 0.98896 0.66707 0.0
H711 H 0.81802 0.92287 0.56243 0.0
H712 H 0.77182 0.95418 0.61964 0.0
H713 H 0.84176 0.97643 0.59656 0.0
C714 C 0.846 0.98835 0.62879 0.0
C715 C 0.83672 0.99041 0.6494 0.0
C716 C 0.78175 0.94753 0.6068 0.0
C717 C 0.81235 0.97298 0.61573 0.0
C718 C 0.77506 0.92848 0.59653 0.0
C719 C 0.78849 0.91872 0.58105 0.0
C720 C 0.80194 0.95675 0.60145 0.0
C721 C 0.80755 0.92947 0.57487 0.0
C722 C 0.83379 0.97974 0.61183 0.0
C723 C 0.81432 0.9869 0.65155 0.0
N724 N 0.81386 0.94768 0.5853 0.0
N725 N 0.80303 0.97769 0.63514 0.0
H726 H 0.38656 0.03183 0.85114 0.0
H727 H 0.28898 0.08535 0.91456 0.0
H728 H 0.3196 0.02568 0.83207 0.0
H729 H 0.35551 0.08743 0.93597 0.0
H730 H 0.29901 0.05786 0.88791 0.0
H731 H 0.37472 0.04491 0.8865 0.0
C732 C 0.36937 0.03252 0.85461 0.0
C733 C 0.35405 0.02831 0.8384 0.0
C734 C 0.31137 0.06416 0.89861 0.0
C735 C 0.34041 0.04384 0.87856 0.0
C736 C 0.30567 0.07998 0.91371 0.0
C737 C 0.32151 0.08904 0.92718 0.0
C738 C 0.3331 0.0575 0.89686 0.0
C739 C 0.34281 0.08119 0.92565 0.0
C740 C 0.36259 0.04022 0.87477 0.0
C741 C 0.33198 0.02932 0.84392 0.0
N742 N 0.34802 0.06608 0.91058 0.0
N743 N 0.32582 0.03751 0.86334 0.0
H744 H 0.14511 0.41372 0.93996 0.0
H745 H 0.19523 0.45242 0.82756 0.0
H746 H 0.20888 0.39591 0.91725 0.0
H747 H 0.12844 0.46222 0.8459 0.0
H748 H 0.20287 0.43906 0.8639 0.0
H749 H 0.14101 0.43748 0.90879 0.0
C750 C 0.15829 0.41479 0.92842 0.0
C751 C 0.17728 0.40252 0.93108 0.0
C752 C 0.18663 0.44448 0.86011 0.0
C753 C 0.17268 0.42997 0.89537 0.0
C754 C 0.18227 0.45227 0.83941 0.0
C755 C 0.16104 0.45801 0.83355 0.0
C756 C 0.16964 0.44235 0.87505 0.0
C757 C 0.14499 0.45778 0.84964 0.0
C758 C 0.15594 0.42848 0.91066 0.0
C759 C 0.19387 0.40484 0.91572 0.0
N760 N 0.14953 0.44963 0.86957 0.0
N761 N 0.19112 0.4182 0.89843 0.0
H762 H 0.74886 0.41228 0.11664 0.0
H763 H 0.84361 0.4986 0.11898 0.0
H764 H 0.78734 0.43142 0.06153 0.0
H765 H 0.81315 0.47089 0.17539 0.0
H766 H 0.8139 0.48455 0.09668 0.0
H767 H 0.76295 0.44354 0.13666 0.0
C768 C 0.75979 0.42339 0.10858 0.0
C769 C 0.76748 0.419 0.0877 0.0
C770 C 0.8134 0.4821 0.11404 0.0
C771 C 0.7837 0.45451 0.11035 0.0
C772 C 0.83027 0.49026 0.12675 0.0
C773 C 0.83097 0.4854 0.14887 0.0
C774 C 0.79735 0.46904 0.12366 0.0
C775 C 0.81334 0.47452 0.15823 0.0
C776 C 0.76789 0.44118 0.12 0.0
C777 C 0.78151 0.43395 0.07788 0.0
N778 N 0.79745 0.46633 0.14552 0.0
N779 N 0.78947 0.45082 0.08941 0.0
H780 H 0.78452 0.063 0.42313 0.0
H781 H 0.81867 0.10764 0.30698 0.0
H782 H 0.77994 0.1302 0.40442 0.0
H783 H 0.83603 0.04432 0.33109 0.0
H784 H 0.79768 0.11403 0.33971 0.0
H785 H 0.79513 0.05382 0.38623 0.0
C786 C 0.78519 0.07578 0.41113 0.0
C787 C 0.78181 0.0975 0.417 0.0
C788 C 0.80599 0.0987 0.33782 0.0
C789 C 0.79427 0.08707 0.37484 0.0
C790 C 0.8181 0.09503 0.31916 0.0
C791 C 0.8294 0.07547 0.31637 0.0
C792 C 0.80507 0.08272 0.35388 0.0
C793 C 0.82781 0.05972 0.33266 0.0
C794 C 0.79143 0.07052 0.3901 0.0
C795 C 0.7826 0.11328 0.40069 0.0
N796 N 0.81593 0.06373 0.35079 0.0
N797 N 0.78915 0.1078 0.3804 0.0
H798 H 0.25087 0.05972 0.58792 0.0
H799 H 0.18841 0.06823 0.69703 0.0
H800 H 0.25765 0.11215 0.63332 0.0
H801 H 0.18067 0.01636 0.65101 0.0
H802 H 0.22279 0.07773 0.68012 0.0
H803 H 0.23641 0.03695 0.61676 0.0
C804 C 0.25031 0.06609 0.60426 0.0
C805 C 0.25484 0.08799 0.60819 0.0
C806 C 0.21383 0.06402 0.67389 0.0
C807 C 0.23744 0.06244 0.64098 0.0
C808 C 0.19411 0.05868 0.68345 0.0
C809 C 0.18137 0.04195 0.67489 0.0
C810 C 0.22068 0.05285 0.65532 0.0
C811 C 0.18981 0.02967 0.65779 0.0
C812 C 0.24177 0.05317 0.62069 0.0
C813 C 0.25402 0.09543 0.62958 0.0
N814 N 0.20872 0.03571 0.6482 0.0
N815 N 0.24466 0.08289 0.64508 0.0
H816 H 0.075 0.214 0.565 0.0
H817 H 0.19031 0.1738 0.60654 0.0
H818 H 0.09533 0.217 0.6318 0.0
H819 H 0.16394 0.15866 0.5436 0.0
H820 H 0.1589 0.19648 0.61391 0.0
H821 H 0.11122 0.20199 0.55484 0.0
C822 C 0.08724 0.21267 0.57749 0.0
C823 C 0.08199 0.21606 0.59938 0.0
C824 C 0.16003 0.1883 0.59845 0.0
C825 C 0.12336 0.20197 0.58782 0.0
C826 C 0.17793 0.17524 0.59422 0.0
C827 C 0.17964 0.16403 0.57449 0.0
C828 C 0.14369 0.19026 0.58285 0.0
C829 C 0.16318 0.16677 0.55911 0.0
C830 C 0.10787 0.20564 0.57166 0.0
C831 C 0.09858 0.21438 0.61477 0.0
N832 N 0.14581 0.17953 0.56368 0.0
N833 N 0.11846 0.20705 0.60875 0.0
H834 H 0.03733 0.3333 0.81262 0.0
H835 H 0.14784 0.37539 0.76292 0.0
H836 H 0.09882 0.30097 0.82065 0.0
H837 H 0.0861 0.40655 0.75291 0.0
H838 H 0.12895 0.34337 0.77642 0.0
H839 H 0.05359 0.35613 0.78464 0.0
C840 C 0.05419 0.33089 0.80841 0.0
C841 C 0.06682 0.31549 0.81932 0.0
C842 C 0.11949 0.357 0.77075 0.0
C843 C 0.08556 0.34152 0.78725 0.0
C844 C 0.13029 0.37521 0.76275 0.0
C845 C 0.11854 0.39387 0.75731 0.0
C846 C 0.09685 0.35759 0.77338 0.0
C847 C 0.09581 0.39266 0.75742 0.0
C848 C 0.06346 0.34386 0.79234 0.0
C849 C 0.08853 0.31288 0.81294 0.0
N850 N 0.08572 0.37507 0.76587 0.0
N851 N 0.09726 0.32594 0.79754 0.0
H852 H 0.8154 0.30623 0.04062 0.0
H853 H 0.88802 0.2664 0.13804 0.0
H854 H 0.79858 0.31427 0.10802 0.0
H855 H 0.90507 0.25917 0.07064 0.0
H856 H 0.85083 0.27455 0.12735 0.0
H857 H 0.84386 0.28092 0.05117 0.0
C858 C 0.81756 0.30253 0.05762 0.0
C859 C 0.80496 0.3128 0.07349 0.0
C860 C 0.86258 0.27065 0.11491 0.0
C861 C 0.83752 0.28384 0.08571 0.0
C862 C 0.8838 0.26578 0.12104 0.0
C863 C 0.8998 0.26276 0.10516 0.0
C864 C 0.85748 0.27257 0.09281 0.0
C865 C 0.89335 0.26199 0.08338 0.0
C866 C 0.83376 0.28799 0.06365 0.0
C867 C 0.8082 0.30706 0.09526 0.0
N868 N 0.8728 0.26739 0.07781 0.0
N869 N 0.8244 0.29323 0.10075 0.0
H870 H 0.92726 0.19283 0.29436 0.0
H871 H 0.92279 0.08491 0.22902 0.0
H872 H 0.97407 0.14126 0.29941 0.0
H873 H 0.87279 0.13356 0.22936 0.0
H874 H 0.9486 0.11166 0.24219 0.0
H875 H 0.91449 0.17763 0.2603 0.0
C876 C 0.93503 0.17839 0.28812 0.0
C877 C 0.95126 0.16784 0.30003 0.0
C878 C 0.93221 0.11676 0.23861 0.0
C879 C 0.93656 0.15023 0.26107 0.0
C880 C 0.9175 0.10155 0.23074 0.0
C881 C 0.89544 0.10686 0.22893 0.0
C882 C 0.92466 0.1373 0.24468 0.0
C883 C 0.88955 0.12865 0.23105 0.0
C884 C 0.92782 0.1698 0.26858 0.0
C885 C 0.96122 0.14962 0.2909 0.0
N886 N 0.9039 0.14295 0.23962 0.0
N887 N 0.95334 0.14105 0.27219 0.0
H888 H 0.14838 0.85493 0.47443 0.0
H889 H 0.0935 0.7833 0.38259 0.0
H890 H 0.18223 0.83013 0.41844 0.0
H891 H 0.06068 0.80255 0.44133 0.0
H892 H 0.1276 0.7959 0.39809 0.0
H893 H 0.11727 0.83216 0.46502 0.0
C894 C 0.14934 0.8446 0.4603 0.0
C895 C 0.16775 0.84476 0.44699 0.0
C896 C 0.11297 0.79707 0.40772 0.0
C897 C 0.13239 0.8187 0.43615 0.0
C898 C 0.0935 0.78976 0.39889 0.0
C899 C 0.07411 0.79228 0.41046 0.0
C900 C 0.11299 0.80712 0.42816 0.0
C901 C 0.07516 0.80066 0.43161 0.0
C902 C 0.13162 0.83157 0.45495 0.0
C903 C 0.16822 0.83089 0.42897 0.0
N904 N 0.09419 0.80812 0.43962 0.0
N905 N 0.15074 0.81862 0.42398 0.0
H906 H 0.50964 0.34809 0.64337 0.0
H907 H 0.43972 0.45507 0.63025 0.0
H908 H 0.48903 0.37373 0.58179 0.0
H909 H 0.45012 0.4209 0.69035 0.0
H910 H 0.46668 0.43185 0.61283 0.0
H911 H 0.49866 0.38181 0.66072 0.0
C912 C 0.50362 0.36118 0.63335 0.0
C913 C 0.49975 0.35793 0.61119 0.0
C914 C 0.46328 0.42966 0.6299 0.0
C915 C 0.48648 0.39624 0.63104 0.0
C916 C 0.44784 0.44285 0.63986 0.0
C917 C 0.44232 0.43962 0.66171 0.0
C918 C 0.47335 0.41318 0.64188 0.0
C919 C 0.45356 0.42371 0.67339 0.0
C920 C 0.49709 0.38034 0.64331 0.0
C921 C 0.49207 0.37547 0.59896 0.0
N922 N 0.46837 0.41095 0.66327 0.0
N923 N 0.48508 0.3937 0.60915 0.0
H924 H 0.96263 0.62436 0.9577 0.0
H925 H 0.85158 0.63805 0.02055 0.0
H926 H 0.92785 0.68383 0.96861 0.0
H927 H 0.8719 0.57853 0.99027 0.0
H928 H 0.88832 0.65203 0.01674 0.0
H929 H 0.93774 0.60578 0.98284 0.0
C930 C 0.95015 0.63357 0.9659 0.0
C931 C 0.94689 0.65546 0.96094 0.0
C932 C 0.88494 0.63562 0.01158 0.0
C933 C 0.91888 0.63467 0.98967 0.0
C934 C 0.864 0.62755 0.01393 0.0
C935 C 0.85855 0.60739 0.00504 0.0
C936 C 0.90036 0.62353 5e-05 0.0
C937 C 0.87533 0.59435 0.99695 0.0
C938 C 0.93601 0.62302 0.98017 0.0
C939 C 0.93057 0.66681 0.97183 0.0
N940 N 0.89541 0.60292 0.99395 0.0
N941 N 0.91705 0.65624 0.98554 0.0
H942 H 0.48322 0.14986 0.16656 0.0
H943 H 0.54376 0.0394 0.1764 0.0
H944 H 0.48158 0.0994 0.11852 0.0
H945 H 0.54897 0.09191 0.2221 0.0
H946 H 0.51099 0.05578 0.16177 0.0
H947 H 0.49492 0.1235 0.19351 0.0
C948 C 0.48421 0.13297 0.16196 0.0
C949 C 0.48212 0.12687 0.14017 0.0
C950 C 0.51903 0.06357 0.17525 0.0
C951 C 0.49638 0.09687 0.1706 0.0
C952 C 0.53785 0.0543 0.18354 0.0
C953 C 0.54949 0.06471 0.20004 0.0
C954 C 0.51194 0.08361 0.18326 0.0
C955 C 0.54074 0.08359 0.20908 0.0
C956 C 0.49123 0.11796 0.17729 0.0
C957 C 0.48341 0.10482 0.13509 0.0
N958 N 0.52273 0.09271 0.20023 0.0
N959 N 0.49126 0.09069 0.15003 0.0
H960 H 0.99423 0.86673 0.3864 0.0
H961 H 0.05418 0.91295 0.2836 0.0
H962 H 0.99489 0.83515 0.32417 0.0
H963 H 0.05001 0.94605 0.34502 0.0
H964 H 0.02552 0.88834 0.2956 0.0
H965 H 0.00578 0.90029 0.36893 0.0
C966 C 0.99586 0.8671 0.36893 0.0
C967 C 0.9942 0.84803 0.35678 0.0
C968 C 0.03067 0.90119 0.30633 0.0
C969 C 0.00819 0.88602 0.33681 0.0
C970 C 0.04712 0.91517 0.29951 0.0
C971 C 0.05489 0.93124 0.31351 0.0
C972 C 0.02204 0.90323 0.32735 0.0
C973 C 0.04488 0.93359 0.33383 0.0
C974 C 0.00278 0.8862 0.35896 0.0
C975 C 0.9965 0.84944 0.33419 0.0
N976 N 0.02923 0.91956 0.34024 0.0
N977 N 0.004 0.86793 0.32499 0.0
H978 H 0.4202 0.29691 0.54626 0.0
H979 H 0.31188 0.34428 0.59789 0.0
H980 H 0.40453 0.29329 0.61434 0.0
H981 H 0.33286 0.3569 0.53233 0.0
H982 H 0.342 0.31925 0.60235 0.0
H983 H 0.38409 0.31118 0.53912 0.0
C984 C 0.40899 0.29862 0.55967 0.0
C985 C 0.41559 0.29439 0.58103 0.0
C986 C 0.33997 0.32739 0.58695 0.0
C987 C 0.37437 0.31105 0.57294 0.0
C988 C 0.32282 0.3418 0.58439 0.0
C989 C 0.32002 0.35301 0.56478 0.0
C990 C 0.3545 0.3241 0.56981 0.0
C991 C 0.33456 0.34885 0.54781 0.0
C992 C 0.38842 0.30691 0.55557 0.0
C993 C 0.40025 0.29657 0.59766 0.0
N994 N 0.35128 0.33483 0.55077 0.0
N995 N 0.38046 0.30517 0.59332 0.0
H996 H 0.94708 0.66353 0.77246 0.0
H997 H 0.02354 0.64057 0.86757 0.0
H998 H 0.98334 0.60446 0.78029 0.0
H999 H 0.99868 0.70425 0.85403 0.0
H1000 H 0.0186 0.63089 0.82968 0.0
H1001 H 0.97408 0.68239 0.79472 0.0
C1002 C 0.96115 0.65476 0.77816 0.0
C1003 C 0.96274 0.63235 0.77512 0.0
C1004 C 0.01483 0.64726 0.83469 0.0
C1005 C 0.99303 0.65347 0.8011 0.0
C1006 C 0.01792 0.65282 0.85634 0.0
C1007 C 0.01127 0.6731 0.86389 0.0
C1008 C 0.00412 0.6618 0.82077 0.0
C1009 C 0.00388 0.68836 0.84877 0.0
C1010 C 0.97644 0.66545 0.79105 0.0
C1011 C 0.98128 0.6217 0.78278 0.0
N1012 N -0.00027 0.68217 0.82804 0.0
N1013 N 0.99539 0.63221 0.79587 0.0
H1014 H 0.16724 0.70098 0.00597 0.0
H1015 H 0.0567 0.68669 0.06857 0.0
H1016 H 0.12926 0.64243 0.00596 0.0
H1017 H 0.09835 0.74251 0.074 0.0
H1018 H 0.07745 0.6747 0.03722 0.0
H1019 H 0.13633 0.72064 0.02079 0.0
C1020 C 0.15209 0.69243 0.00833 0.0
C1021 C 0.15095 0.66993 0.0053 0.0
C1022 C 0.08189 0.68973 0.04505 0.0
C1023 C 0.11578 0.69217 0.02284 0.0
C1024 C 0.07013 0.69655 0.06306 0.0
C1025 C 0.07619 0.71535 0.0743 0.0
C1026 C 0.10001 0.70165 0.03829 0.0
C1027 C 0.09336 0.72772 0.06606 0.0
C1028 C 0.13451 0.70363 0.01699 0.0
C1029 C 0.13092 0.65971 0.00833 0.0
N1030 N 0.10492 0.72045 0.04877 0.0
N1031 N 0.11426 0.6708 0.01754 0.0
H1032 H 0.3925 0.79617 0.17249 0.0
H1033 H 0.41359 0.89744 0.24885 0.0
H1034 H 0.4548 0.82649 0.18177 0.0
H1035 H 0.35002 0.87572 0.22975 0.0
H1036 H 0.42915 0.86457 0.23348 0.0
H1037 H 0.37747 0.81891 0.20108 0.0
C1038 C 0.4031 0.8075 0.18064 0.0
C1039 C 0.42489 0.80971 0.17441 0.0
C1040 C 0.41174 0.86672 0.23311 0.0
C1041 C 0.40772 0.83567 0.20735 0.0
C1042 C 0.4028 0.88539 0.24208 0.0
C1043 C 0.38052 0.88956 0.24011 0.0
C1044 C 0.39831 0.85218 0.22203 0.0
C1045 C 0.3673 0.87328 0.23143 0.0
C1046 C 0.39448 0.82042 0.19703 0.0
C1047 C 0.43785 0.82446 0.18579 0.0
N1048 N 0.37647 0.85551 0.2222 0.0
N1049 N 0.42901 0.83703 0.20157 0.0
H1050 H 0.43674 0.22873 0.92603 0.0
H1051 H 0.31728 0.20814 0.96138 0.0
H1052 H 0.38084 0.25734 0.89571 0.0
H1053 H 0.37284 0.17558 0.98825 0.0
H1054 H 0.34091 0.23658 0.94752 0.0
H1055 H 0.41495 0.22049 0.95798 0.0
C1056 C 0.42 0.23405 0.92653 0.0
C1057 C 0.4104 0.2435 0.90826 0.0
C1058 C 0.34795 0.2236 0.95697 0.0
C1059 C 0.38518 0.23331 0.94428 0.0
C1060 C 0.33446 0.20739 0.96495 0.0
C1061 C 0.34328 0.18932 0.9755 0.0
C1062 C 0.37047 0.22138 0.9591 0.0
C1063 C 0.36549 0.18918 0.97998 0.0
C1064 C 0.40753 0.22921 0.9447 0.0
C1065 C 0.38875 0.25001 0.90953 0.0
N1066 N 0.37846 0.20468 0.97119 0.0
N1067 N 0.37666 0.24426 0.92706 0.0
H1068 H 0.62559 0.23903 0.38858 0.0
H1069 H 0.63121 0.31957 0.48742 0.0
H1070 H 0.57152 0.27456 0.41489 0.0
H1071 H 0.68659 0.29035 0.45645 0.0
H1072 H 0.60788 0.29258 0.47012 0.0
H1073 H 0.64621 0.24699 0.42162 0.0
C1074 C 0.61787 0.24791 0.40159 0.0
C1075 C 0.59715 0.2567 0.39888 0.0
C1076 C 0.62522 0.29168 0.4676 0.0
C1077 C 0.62046 0.26603 0.43638 0.0
C1078 C 0.63852 0.307 0.47762 0.0
C1079 C 0.66068 0.30748 0.4728 0.0
C1080 C 0.63426 0.27699 0.45265 0.0
C1081 C 0.66942 0.29081 0.46006 0.0
C1082 C 0.62962 0.25254 0.4204 0.0
C1083 C 0.58775 0.26802 0.4162 0.0
N1084 N 0.65614 0.27653 0.45002 0.0
N1085 N 0.5996 0.27271 0.43404 0.0
H1086 H 0.66165 0.99714 0.88644 0.0
H1087 H 0.75356 0.90831 0.89728 0.0
H1088 H 0.69971 0.97243 0.83338 0.0
H1089 H 0.70726 0.92496 0.94692 0.0
H1090 H 0.74305 0.94104 0.87726 0.0
H1091 H 0.68756 0.98103 0.91186 0.0
C1092 C 0.67593 0.9891 0.88017 0.0
C1093 C 0.67839 0.98563 0.85791 0.0
C1094 C 0.73556 0.93775 0.89279 0.0
C1095 C 0.70765 0.96681 0.88662 0.0
C1096 C 0.74157 0.91911 0.90418 0.0
C1097 C 0.73076 0.91367 0.92338 0.0
C1098 C 0.71872 0.95092 0.90078 0.0
C1099 C 0.71551 0.92828 0.93179 0.0
C1100 C 0.69061 0.97971 0.89464 0.0
C1101 C 0.6971 0.97503 0.85053 0.0
N1102 N 0.70969 0.94604 0.92029 0.0
N1103 N 0.71078 0.96557 0.86485 0.0
H1104 H 0.32745 0.49792 0.37544 0.0
H1105 H 0.24733 0.59539 0.3774 0.0
H1106 H 0.3118 0.53833 0.32076 0.0
H1107 H 0.26275 0.55574 0.43269 0.0
H1108 H 0.25929 0.56606 0.35361 0.0
H1109 H 0.29393 0.50995 0.39328 0.0
C1110 C 0.31657 0.50874 0.36694 0.0
C1111 C 0.3225 0.51765 0.34698 0.0
C1112 C 0.25935 0.56342 0.37095 0.0
C1113 C 0.28459 0.53172 0.36715 0.0
C1114 C 0.25224 0.58011 0.3845 0.0
C1115 C 0.25464 0.57808 0.40693 0.0
C1116 C 0.26918 0.54493 0.38006 0.0
C1117 C 0.26114 0.55801 0.41536 0.0
C1118 C 0.29749 0.5157 0.37709 0.0
C1119 C 0.30793 0.53156 0.33648 0.0
N1120 N 0.26882 0.54242 0.40194 0.0
N1121 N 0.28987 0.53851 0.34686 0.0
H1122 H 0.15376 0.99724 0.35702 0.0
H1123 H 0.24011 0.90693 0.38334 0.0
H1124 H 0.17289 0.94574 0.31394 0.0
H1125 H 0.21727 0.95439 0.42914 0.0
H1126 H 0.2258 0.9292 0.35386 0.0
H1127 H 0.1858 0.98965 0.37934 0.0
C1128 C 0.16494 0.98467 0.35205 0.0
C1129 C 0.16038 0.97161 0.33411 0.0
C1130 C 0.22449 0.9351 0.37032 0.0
C1131 C 0.19686 0.96286 0.35931 0.0
C1132 C 0.23289 0.92247 0.38712 0.0
C1133 C 0.22928 0.9286 0.40864 0.0
C1134 C 0.2123 0.95374 0.37526 0.0
C1135 C 0.21986 0.94889 0.41269 0.0
C1136 C 0.18321 0.98033 0.36474 0.0
C1137 C 0.17549 0.95571 0.32812 0.0
N1138 N 0.21117 0.96049 0.3962 0.0
N1139 N 0.19284 0.95154 0.34087 0.0
H1140 H 0.85783 0.63051 0.81313 0.0
H1141 H 0.80146 0.56427 0.90831 0.0
H1142 H 0.86381 0.5614 0.82177 0.0
H1143 H 0.80258 0.63408 0.9046 0.0
H1144 H 0.81667 0.56251 0.87192 0.0
H1145 H 0.83109 0.63146 0.8422 0.0
C1146 C 0.85347 0.6155 0.82108 0.0
C1147 C 0.86338 0.59588 0.81527 0.0
C1148 C 0.81325 0.57821 0.87892 0.0
C1149 C 0.83263 0.59689 0.8485 0.0
C1150 C 0.80445 0.57926 0.89968 0.0
C1151 C 0.80126 0.59938 0.90977 0.0
C1152 C 0.81896 0.59741 0.86821 0.0
C1153 C 0.8051 0.61821 0.89763 0.0
C1154 C 0.83811 0.61606 0.83762 0.0
C1155 C 0.85682 0.57692 0.82593 0.0
N1156 N 0.81414 0.61676 0.87762 0.0
N1157 N 0.842 0.57793 0.84218 0.0
H1158 H 0.82874 0.80122 0.54101 0.0
H1159 H 0.85692 0.73721 0.64816 0.0
H1160 H 0.79226 0.80468 0.6006 0.0
H1161 H 0.89627 0.73641 0.59042 0.0
H1162 H 0.827 0.75214 0.62706 0.0
H1163 H 0.84794 0.76956 0.55521 0.0
C1164 C 0.82462 0.7952 0.55697 0.0
C1165 C 0.80931 0.80596 0.56986 0.0
C1166 C 0.84197 0.7481 0.61883 0.0
C1167 C 0.83103 0.7697 0.58614 0.0
C1168 C 0.85897 0.73926 0.63085 0.0
C1169 C 0.87927 0.73619 0.62112 0.0
C1170 C 0.84547 0.75394 0.59708 0.0
C1171 C 0.88099 0.73908 0.59862 0.0
C1172 C 0.83549 0.77707 0.56504 0.0
C1173 C 0.80434 0.79724 0.59028 0.0
N1174 N 0.86452 0.74839 0.58745 0.0
N1175 N 0.81536 0.77983 0.59789 0.0
H1176 H 0.04694 0.30677 0.93818 0.0
H1177 H 0.15757 0.29704 0.99802 0.0
H1178 H 0.09384 0.25631 0.92676 0.0
H1179 H 0.1121 0.34926 0.00669 0.0
H1180 H 0.12867 0.2747 0.98313 0.0
H1181 H 0.06449 0.31503 0.9725 0.0
C1182 C 0.06084 0.29724 0.94309 0.0
C1183 C 0.06945 0.28132 0.92936 0.0
C1184 C 0.12476 0.29076 0.98898 0.0
C1185 C 0.08978 0.29086 0.96853 0.0
C1186 C 0.14123 0.30345 0.99771 0.0
C1187 C 0.13728 0.3252 0.00296 0.0
C1188 C 0.10439 0.30009 0.9852 0.0
C1189 C 0.11587 0.33266 0.00249 0.0
C1190 C 0.07077 0.30187 0.96276 0.0
C1191 C 0.08699 0.269 0.93674 0.0
N1192 N 0.10031 0.32035 0.99301 0.0
N1193 N 0.09696 0.2744 0.95562 0.0
H1194 H 0.94099 0.13785 0.41159 0.0
H1195 H 0.84784 0.16393 0.49569 0.0
H1196 H 0.91436 0.20154 0.42261 0.0
H1197 H 0.86979 0.09948 0.48026 0.0
H1198 H 0.8797 0.17872 0.47761 0.0
H1199 H 0.92177 0.12468 0.44346 0.0
C1200 C 0.93115 0.14912 0.42075 0.0
C1201 C 0.92888 0.17075 0.4141 0.0
C1202 C 0.8779 0.16132 0.47869 0.0
C1203 C 0.90694 0.15572 0.45082 0.0
C1204 C 0.85982 0.15284 0.48925 0.0
C1205 C 0.85585 0.13046 0.48892 0.0
C1206 C 0.89196 0.1473 0.46764 0.0
C1207 C 0.87204 0.11685 0.48061 0.0
C1208 C 0.92029 0.14159 0.43906 0.0
C1209 C 0.91627 0.18465 0.4269 0.0
N1210 N 0.8891 0.12551 0.46971 0.0
N1211 N 0.90554 0.17683 0.44449 0.0
H1212 H 0.60186 0.69583 0.67938 0.0
H1213 H 0.5932 0.58807 0.74699 0.0
H1214 H 0.54394 0.65693 0.68346 0.0
H1215 H 0.65047 0.62792 0.74388 0.0
H1216 H 0.57195 0.61812 0.73251 0.0
H1217 H 0.61696 0.67594 0.70989 0.0
C1218 C 0.59224 0.68316 0.68678 0.0
C1219 C 0.57181 0.67764 0.67847 0.0
C1220 C 0.58907 0.62049 0.73547 0.0
C1221 C 0.58907 0.65475 0.71355 0.0
C1222 C 0.60118 0.60338 0.74392 0.0
C1223 C 0.62373 0.60531 0.74608 0.0
C1224 C 0.59971 0.63943 0.72873 0.0
C1225 C 0.63318 0.62559 0.74216 0.0
C1226 C 0.60084 0.67189 0.70434 0.0
C1227 C 0.55991 0.66145 0.68907 0.0
N1228 N 0.62123 0.64168 0.73307 0.0
N1229 N 0.56887 0.65032 0.70583 0.0
H1230 H 0.44441 0.80158 0.05378 0.0
H1231 H 0.32749 0.81614 0.00832 0.0
H1232 H 0.39057 0.75995 0.06927 0.0
H1233 H 0.38062 0.85952 0.99559 0.0
H1234 H 0.3532 0.78815 0.01905 0.0
H1235 H 0.42479 0.81496 0.02225 0.0
C1236 C 0.42856 0.79493 0.05021 0.0
C1237 C 0.41877 0.7801 0.06437 0.0
C1238 C 0.35936 0.80351 0.01325 0.0
C1239 C 0.39603 0.79569 0.02862 0.0
C1240 C 0.34468 0.81944 0.00695 0.0
C1241 C 0.35202 0.84025 0.00153 0.0
C1242 C 0.38145 0.80865 0.01458 0.0
C1243 C 0.37435 0.84372 -0.00013 0.0
C1244 C 0.41739 0.80255 0.03219 0.0
C1245 C 0.39851 0.77162 0.05886 0.0
N1246 N 0.38832 0.82825 0.00702 0.0
N1247 N 0.38752 0.77998 0.04168 0.0
H1248 H 0.40415 0.71177 0.35705 0.0
H1249 H 0.33769 0.6685 0.45761 0.0
H1250 H 0.42436 0.72021 0.42339 0.0
H1251 H 0.3126 0.66929 0.39238 0.0
H1252 H 0.36759 0.69157 0.44581 0.0
H1253 H 0.36802 0.70194 0.36987 0.0
C1254 C 0.40082 0.71226 0.37426 0.0
C1255 C 0.41745 0.71625 0.38919 0.0
C1256 C 0.35542 0.68688 0.43412 0.0
C1257 C 0.3764 0.70444 0.40398 0.0
C1258 C 0.33844 0.67356 0.44083 0.0
C1259 C 0.32282 0.66667 0.4259 0.0
C1260 C 0.35691 0.69316 0.41227 0.0
C1261 C 0.32443 0.67399 0.40441 0.0
C1262 C 0.38023 0.70643 0.38161 0.0
C1263 C 0.41215 0.71674 0.41132 0.0
N1264 N 0.3413 0.68663 0.39819 0.0
N1265 N 0.39223 0.71038 0.41807 0.0
H1266 H 0.67863 0.80112 0.96585 0.0
H1267 H 0.61509 0.76549 0.86119 0.0
H1268 H 0.70361 0.80794 0.90087 0.0
H1269 H 0.59205 0.75548 0.92643 0.0
H1270 H 0.65135 0.77223 0.87547 0.0
H1271 H 0.65067 0.77685 0.95212 0.0
C1272 C 0.67838 0.79734 0.94873 0.0
C1273 C 0.69316 0.80699 0.93443 0.0
C1274 C 0.6385 0.768 0.88664 0.0
C1275 C 0.66112 0.77928 0.91853 0.0
C1276 C 0.61781 0.76393 0.87845 0.0
C1277 C 0.60042 0.76055 0.8927 0.0
C1278 C 0.64166 0.7688 0.90918 0.0
C1279 C 0.60492 0.7586 0.9149 0.0
C1280 C 0.66246 0.78339 0.94089 0.0
C1281 C 0.6923 0.80119 0.91245 0.0
N1282 N 0.62498 0.76327 0.92251 0.0
N1283 N 0.67631 0.78801 0.90513 0.0
H1284 H 0.71421 0.6017 0.58503 0.0
H1285 H 0.6355 0.52761 0.65534 0.0
H1286 H 0.65489 0.57319 0.56147 0.0
H1287 H 0.69616 0.5527 0.67933 0.0
H1288 H 0.64578 0.53891 0.61895 0.0
H1289 H 0.71084 0.5798 0.61805 0.0
C1290 C 0.70057 0.59082 0.58675 0.0
C1291 C 0.68461 0.58964 0.57065 0.0
C1292 C 0.65705 0.54161 0.6321 0.0
C1293 C 0.68074 0.56445 0.60815 0.0
C1294 C 0.65124 0.53498 0.6529 0.0
C1295 C 0.66475 0.53966 0.67053 0.0
C1296 C 0.67644 0.55313 0.62891 0.0
C1297 C 0.68502 0.54916 0.66629 0.0
C1298 C 0.69869 0.57825 0.60552 0.0
C1299 C 0.66741 0.57502 0.57359 0.0
N1300 N 0.69007 0.55597 0.64598 0.0
N1301 N 0.66585 0.56319 0.59201 0.0
H1302 H 0.31738 0.97343 0.17625 0.0
H1303 H 0.35932 0.9309 0.06218 0.0
H1304 H 0.38495 0.96847 0.15895 0.0
H1305 H 0.29361 0.92446 0.08536 0.0
H1306 H 0.36786 0.95305 0.0937 0.0
H1307 H 0.30761 0.9656 0.13884 0.0
C1308 C 0.33019 0.97134 0.16443 0.0
C1309 C 0.35201 0.97105 0.17083 0.0
C1310 C 0.35153 0.94696 0.09178 0.0
C1311 C 0.34091 0.9616 0.12813 0.0
C1312 C 0.34663 0.9342 0.07385 0.0
C1313 C 0.32578 0.92547 0.07132 0.0
C1314 C 0.33546 0.95107 0.10732 0.0
C1315 C 0.30997 0.93057 0.08682 0.0
C1316 C 0.32459 0.96669 0.14311 0.0
C1317 C 0.36793 0.96859 0.15478 0.0
N1318 N 0.31519 0.9429 0.10426 0.0
N1319 N 0.36205 0.96343 0.13422 0.0
H1320 H 0.33534 0.50458 0.6405 0.0
H1321 H 0.24825 0.41351 0.62976 0.0
H1322 H 0.32472 0.45258 0.68584 0.0
H1323 H 0.26066 0.46233 0.58145 0.0
H1324 H 0.26516 0.43671 0.65692 0.0
H1325 H 0.2991 0.49804 0.62535 0.0
C1326 C 0.32513 0.49219 0.64758 0.0
C1327 C 0.33313 0.47859 0.66384 0.0
C1328 C 0.26353 0.44273 0.64052 0.0
C1329 C 0.29199 0.47099 0.64683 0.0
C1330 C 0.25357 0.42956 0.62507 0.0
C1331 C 0.25378 0.43576 0.60327 0.0
C1332 C 0.27393 0.46191 0.63387 0.0
C1333 C 0.2608 0.45675 0.59808 0.0
C1334 C 0.30448 0.48843 0.639 0.0
C1335 C 0.3193 0.46293 0.67275 0.0
N1336 N 0.27128 0.46882 0.61312 0.0
N1337 N 0.29957 0.4593 0.66389 0.0
H1338 H 0.66945 0.01915 0.16844 0.0
H1339 H 0.73317 0.11778 0.11712 0.0
H1340 H 0.66115 0.08619 0.18623 0.0
H1341 H 0.73916 0.05184 0.09493 0.0
H1342 H 0.71597 0.10462 0.15017 0.0
H1343 H 0.7022 0.02914 0.1482 0.0
C1344 C 0.67458 0.0359 0.1682 0.0
C1345 C 0.66221 0.05194 0.17847 0.0
C1346 C 0.72155 0.09296 0.13832 0.0
C1347 C 0.69971 0.06344 0.15576 0.0
C1348 C 0.73166 0.10048 0.11954 0.0
C1349 C 0.73685 0.08594 0.1029 0.0
C1350 C 0.71653 0.07083 0.14029 0.0
C1351 C 0.73474 0.06367 0.1071 0.0
C1352 C 0.69333 0.04159 0.15679 0.0
C1353 C 0.66982 0.07336 0.17803 0.0
N1354 N 0.72413 0.05681 0.12509 0.0
N1355 N 0.6879 0.07849 0.16667 0.0
H1356 H 0.55476 0.11808 0.05777 0.0
H1357 H 0.67451 0.15191 0.02341 0.0
H1358 H 0.58423 0.17959 0.07299 0.0
H1359 H 0.65224 0.08571 0.02491 0.0
H1360 H 0.63791 0.16406 0.03192 0.0
H1361 H 0.58725 0.1079 0.03767 0.0
C1362 C 0.56803 0.12951 0.05684 0.0
C1363 C 0.56687 0.14966 0.06733 0.0
C1364 C 0.64093 0.1469 0.02997 0.0
C1365 C 0.60396 0.13812 0.04405 0.0
C1366 C 0.66177 0.13993 0.02491 0.0
C1367 C 0.66652 0.11771 0.02391 0.0
C1368 C 0.62472 0.13156 0.03401 0.0
C1369 C 0.64935 0.10297 0.02572 0.0
C1370 C 0.58653 0.12367 0.04529 0.0
C1371 C 0.58452 0.16381 0.06541 0.0
N1372 N 0.62922 0.11014 0.03112 0.0
N1373 N 0.60238 0.15773 0.05405 0.0
H1374 H 0.61691 0.29713 0.29544 0.0
H1375 H 0.5878 0.41274 0.24786 0.0
H1376 H 0.55296 0.32547 0.2955 0.0
H1377 H 0.6531 0.38988 0.25761 0.0
H1378 H 0.5744 0.37615 0.25409 0.0
H1379 H 0.62951 0.32646 0.2721 0.0
C1380 C 0.60544 0.30939 0.29038 0.0
C1381 C 0.58393 0.30909 0.29783 0.0
C1382 C 0.59171 0.37899 0.25432 0.0
C1383 C 0.59828 0.34261 0.27096 0.0
C1384 C 0.5994 0.39985 0.25056 0.0
C1385 C 0.62156 0.40444 0.25277 0.0
C1386 C 0.60627 0.36269 0.26053 0.0
C1387 C 0.63587 0.3871 0.25601 0.0
C1388 C 0.61266 0.32609 0.27698 0.0
C1389 C 0.56977 0.32525 0.29047 0.0
N1390 N 0.62792 0.36704 0.26039 0.0
N1391 N 0.57726 0.34149 0.27765 0.0
H1392 H 0.38847 0.20282 0.80622 0.0
H1393 H 0.41419 0.09135 0.74762 0.0
H1394 H 0.45146 0.1727 0.80229 0.0
H1395 H 0.3496 0.1129 0.76338 0.0
H1396 H 0.42793 0.12731 0.75624 0.0
H1397 H 0.37443 0.17573 0.78094 0.0
C1398 C 0.39942 0.19068 0.79984 0.0
C1399 C 0.42107 0.18973 0.80672 0.0
C1400 C 0.41067 0.12437 0.75728 0.0
C1401 C 0.40517 0.15893 0.77765 0.0
C1402 C 0.40278 0.1039 0.75215 0.0
C1403 C 0.3808 0.099 0.75533 0.0
C1404 C 0.39651 0.13996 0.76584 0.0
C1405 C 0.3667 0.11592 0.76097 0.0
C1406 C 0.39139 0.17528 0.78538 0.0
C1407 C 0.43456 0.1738 0.79777 0.0
N1408 N 0.37489 0.13554 0.76665 0.0
N1409 N 0.42634 0.15892 0.78387 0.0
H1410 H 0.93377 0.42332 0.19971 0.0
H1411 H 0.973 0.35528 0.09879 0.0
H1412 H 0.93276 0.44731 0.13402 0.0
H1413 H 0.9808 0.33459 0.1651 0.0
H1414 H 0.96523 0.39186 0.11162 0.0
H1415 H 0.95676 0.39337 0.18788 0.0
C1416 C 0.93853 0.4224 0.18284 0.0
C1417 C 0.93097 0.43759 0.16777 0.0
C1418 C 0.96913 0.37943 0.12335 0.0
C1419 C 0.95724 0.40335 0.15407 0.0
C1420 C 0.97376 0.35855 0.116 0.0
C1421 C 0.97696 0.34173 0.13092 0.0
C1422 C 0.96757 0.38336 0.14573 0.0
C1423 C 0.97787 0.34697 0.15304 0.0
C1424 C 0.95175 0.40535 0.1761 0.0
C1425 C 0.93792 0.43577 0.14617 0.0
N1426 N 0.9727 0.3672 0.1598 0.0
N1427 N 0.95038 0.41878 0.13992 0.0
H1428 H 0.06073 0.08524 0.71003 0.0
H1429 H 0.00809 0.13117 0.60316 0.0
H1430 H 0.07189 0.05962 0.64595 0.0
H1431 H 0.99698 0.15778 0.66676 0.0
H1432 H 0.02215 0.09827 0.61987 0.0
H1433 H 0.03011 0.10602 0.69587 0.0
C1434 C 0.05668 0.08389 0.69302 0.0
C1435 C 0.06925 0.07113 0.67905 0.0
C1436 C 0.01606 0.11104 0.63021 0.0
C1437 C 0.03413 0.09466 0.66276 0.0
C1438 C 0.0077 0.12975 0.62064 0.0
C1439 C 0.00208 0.14752 0.63361 0.0
C1440 C 0.01886 0.1103 0.65281 0.0
C1441 C 0.00177 0.14465 0.65617 0.0
C1442 C 0.03909 0.09562 0.68496 0.0
C1443 C 0.06298 0.06964 0.65724 0.0
N1444 N 0.01072 0.12668 0.66509 0.0
N1445 N 0.04607 0.08149 0.64973 0.0
H1446 H 0.58078 0.92388 0.79793 0.0
H1447 H 0.5319 0.85636 0.89509 0.0
H1448 H 0.57649 0.9481 0.86337 0.0
H1449 H 0.52811 0.8366 0.82816 0.0
H1450 H 0.54216 0.89267 0.88321 0.0
H1451 H 0.55661 0.89422 0.8079 0.0
C1452 C 0.57462 0.92307 0.81435 0.0
C1453 C 0.58098 0.93828 0.82992 0.0
C1454 C 0.53861 0.88052 0.87111 0.0
C1455 C 0.55334 0.90433 0.8415 0.0
C1456 C 0.53257 0.8598 0.8779 0.0
C1457 C 0.52969 0.84328 0.86261 0.0
C1458 C 0.5419 0.88459 0.84893 0.0
C1459 C 0.5307 0.84872 0.84054 0.0
C1460 C 0.56073 0.90618 0.82002 0.0
C1461 C 0.57225 0.93657 0.85088 0.0
N1462 N 0.53717 0.86878 0.83438 0.0
N1463 N 0.55914 0.91973 0.85614 0.0
H1464 H 0.43188 0.54374 0.36686 0.0
H1465 H 0.50115 0.645 0.32984 0.0
H1466 H 0.43752 0.567 0.30115 0.0
H1467 H 0.4882 0.62875 0.39657 0.0
H1468 H 0.4885 0.60924 0.31908 0.0
H1469 H 0.46126 0.56804 0.37748 0.0
C1470 C 0.43944 0.55378 0.35461 0.0
C1471 C 0.43188 0.55374 0.33318 0.0
C1472 C 0.48895 0.61325 0.33614 0.0
C1473 C 0.46561 0.58138 0.34521 0.0
C1474 C 0.49637 0.63361 0.34232 0.0
C1475 C 0.49509 0.64008 0.36406 0.0
C1476 C 0.47997 0.59942 0.3518 0.0
C1477 C 0.48911 0.62457 0.37957 0.0
C1478 C 0.45627 0.56757 0.36069 0.0
C1479 C 0.4425 0.56684 0.31795 0.0
N1480 N 0.48114 0.60513 0.37308 0.0
N1481 N 0.45864 0.58031 0.32432 0.0
H1482 H 0.65765 0.68292 0.48922 0.0
H1483 H 0.5529 0.67377 0.55957 0.0
H1484 H 0.61442 0.62819 0.48946 0.0
H1485 H 0.59844 0.72653 0.56311 0.0
H1486 H 0.56816 0.66328 0.52473 0.0
H1487 H 0.62901 0.70521 0.50481 0.0
C1488 C 0.64175 0.67585 0.49153 0.0
C1489 C 0.63863 0.65348 0.48888 0.0
C1490 C 0.57465 0.67737 0.53288 0.0
C1491 C 0.60609 0.67866 0.50733 0.0
C1492 C 0.56606 0.68327 0.55287 0.0
C1493 C 0.57497 0.70059 0.56453 0.0
C1494 C 0.59263 0.68857 0.52464 0.0
C1495 C 0.59144 0.71279 0.55481 0.0
C1496 C 0.62547 0.68854 0.50074 0.0
C1497 C 0.61768 0.64525 0.49176 0.0
N1498 N 0.60013 0.70622 0.53562 0.0
N1499 N 0.60239 0.65767 0.50161 0.0
H1500 H 0.95426 0.82672 0.65996 0.0
H1501 H 0.87336 0.90058 0.72787 0.0
H1502 H 0.91034 0.8014 0.70825 0.0
H1503 H 0.92441 0.92574 0.68709 0.0
H1504 H 0.88865 0.86424 0.72349 0.0
H1505 H 0.94584 0.86331 0.6723 0.0
C1506 C 0.9431 0.8288 0.67335 0.0
C1507 C 0.93276 0.81094 0.68283 0.0
C1508 C 0.89662 0.87779 0.71572 0.0
C1509 C 0.92281 0.8528 0.69686 0.0
C1510 C 0.88788 0.89853 0.71822 0.0
C1511 C 0.89738 0.9162 0.70758 0.0
C1512 C 0.91486 0.87475 0.70238 0.0
C1513 C 0.91628 0.91258 0.69536 0.0
C1514 C 0.93826 0.84972 0.68038 0.0
C1515 C 0.91852 0.81467 0.70023 0.0
N1516 N 0.92423 0.89228 0.69291 0.0
N1517 N 0.91374 0.83519 0.70647 0.0
H1518 H 0.08488 0.71249 0.19198 0.0
H1519 H 0.07024 0.59987 0.24918 0.0
H1520 H 0.02854 0.67194 0.18453 0.0
H1521 H 0.12752 0.63942 0.25397 0.0
H1522 H 0.05012 0.63106 0.2357 0.0
H1523 H 0.09595 0.69102 0.2231 0.0
C1524 C 0.07474 0.69909 0.19702 0.0
C1525 C 0.05608 0.69355 0.18529 0.0
C1526 C 0.06689 0.63316 0.24034 0.0
C1527 C 0.06876 0.66879 0.22098 0.0
C1528 C 0.07835 0.6154 0.24829 0.0
C1529 C 0.10071 0.61697 0.25215 0.0
C1530 C 0.07799 0.6525 0.23606 0.0
C1531 C 0.11037 0.63745 0.25092 0.0
C1532 C 0.081 0.68693 0.21491 0.0
C1533 C 0.04323 0.67649 0.19292 0.0
N1534 N 0.0991 0.6543 0.24234 0.0
N1535 N 0.05006 0.66439 0.21005 0.0
H1536 H 0.22241 0.59784 0.26611 0.0
H1537 H 0.31688 0.50915 0.26935 0.0
H1538 H 0.20988 0.52915 0.26439 0.0
H1539 H 0.32767 0.57813 0.26812 0.0
H1540 H 0.27797 0.51563 0.26525 0.0
H1541 H 0.26112 0.59044 0.26674 0.0
C1542 C 0.22779 0.58115 0.26618 0.0
C1543 C 0.21282 0.56409 0.26523 0.0
C1544 C 0.2889 0.52932 0.26552 0.0
C1545 C 0.2574 0.55546 0.2655 0.0
C1546 C 0.31118 0.52563 0.26752 0.0
C1547 C 0.32561 0.54314 0.26914 0.0
C1548 C 0.28102 0.55066 0.26515 0.0
C1549 C 0.31719 0.56414 0.26702 0.0
C1550 C 0.24997 0.57693 0.26634 0.0
C1551 C 0.22083 0.5428 0.26527 0.0
N1552 N 0.29548 0.5673 0.26539 0.0
N1553 N 0.24259 0.53908 0.26528 0.0
H1554 H 0.65409 0.42647 0.52687 0.0
H1555 H 0.71531 0.53664 0.49582 0.0
H1556 H 0.72023 0.42755 0.5042 0.0
H1557 H 0.64645 0.53074 0.50649 0.0
H1558 H 0.71916 0.49761 0.50262 0.0
H1559 H 0.65333 0.46587 0.5254 0.0
C1560 C 0.66867 0.435 0.52211 0.0
C1561 C 0.68719 0.42361 0.51549 0.0
C1562 C 0.70323 0.50491 0.50339 0.0
C1563 C 0.68623 0.4689 0.51315 0.0
C1564 C 0.70099 0.52714 0.49933 0.0
C1565 C 0.6805 0.537 0.50044 0.0
C1566 C 0.68487 0.49256 0.5088 0.0
C1567 C 0.66256 0.52391 0.50532 0.0
C1568 C 0.66814 0.45755 0.52102 0.0
C1569 C 0.70559 0.43563 0.50948 0.0
N1570 N 0.66519 0.50247 0.50939 0.0
N1571 N 0.70456 0.45763 0.50814 0.0
H1572 H 0.7939 -0.00065 0.75252 0.0
H1573 H 0.68112 0.93618 0.75628 0.0
H1574 H 0.78535 0.93427 0.72871 0.0
H1575 H 0.6863 0.00501 0.76674 0.0
H1576 H 0.71921 0.93529 0.74566 0.0
H1577 H 0.75477 0.0015 0.75926 0.0
C1578 C 0.78386 0.98542 0.74903 0.0
C1579 C 0.79291 0.96658 0.74013 0.0
C1580 C 0.71196 0.95067 0.74992 0.0
C1581 C 0.74818 0.96905 0.7474 0.0
C1582 C 0.69014 0.95122 0.75579 0.0
C1583 C 0.6805 0.97069 0.76239 0.0
C1584 C 0.72438 0.96968 0.751 0.0
C1585 C 0.69302 0.98966 0.76161 0.0
C1586 C 0.7615 0.98675 0.75261 0.0
C1587 C 0.77909 0.94912 0.73562 0.0
N1588 N 0.71443 0.98863 0.75638 0.0
N1589 N 0.75747 0.95078 0.73931 0.0
H1590 H 0.2742 0.0725 0.99715 0.0
H1591 H 0.27703 0.95717 0.99789 0.0
H1592 H 0.34002 0.06524 0.01954 0.0
H1593 H 0.34482 0.96857 0.985 0.0
H1594 H 0.27208 0.99618 0.0037 0.0
H1595 H 0.27179 0.03311 0.99308 0.0
C1596 C 0.28789 0.06263 0.00192 0.0
C1597 C 0.3074 0.07228 0.0086 0.0
C1598 C 0.28791 0.99014 0.99915 0.0
C1599 C 0.30488 0.0273 0.00349 0.0
C1600 C 0.29074 0.96789 0.9957 0.0
C1601 C 0.31139 0.95952 0.99092 0.0
C1602 C 0.30594 0.00398 0.99804 0.0
C1603 C 0.32861 0.97418 0.98864 0.0
C1604 C 0.28652 0.04012 0.99944 0.0
C1605 C 0.32468 0.05863 0.01424 0.0
N1606 N 0.32555 0.99556 0.99256 0.0
N1607 N 0.32315 0.03694 0.01113 0.0
H1608 H 0.22878 0.47838 0.73852 0.0
H1609 H 0.34292 0.41798 0.74294 0.0
H1610 H 0.23651 0.41294 0.7617 0.0
H1611 H 0.33686 0.48717 0.73573 0.0
H1612 H 0.30412 0.41581 0.75053 0.0
H1613 H 0.26833 0.4817 0.73626 0.0
C1614 C 0.23876 0.46465 0.74292 0.0
C1615 C 0.2293 0.44532 0.75021 0.0
C1616 C 0.31133 0.43153 0.74769 0.0
C1617 C 0.27453 0.44909 0.74797 0.0
C1618 C 0.33355 0.4328 0.74358 0.0
C1619 C 0.34321 0.45278 0.73874 0.0
C1620 C 0.29856 0.45033 0.74657 0.0
C1621 C 0.33018 0.47143 0.73956 0.0
C1622 C 0.26134 0.46663 0.74186 0.0
C1623 C 0.24307 0.42814 0.75594 0.0
N1624 N 0.30846 0.46971 0.74299 0.0
N1625 N 0.26492 0.43041 0.75465 0.0
H1626 H 0.80019 0.40015 0.98118 0.0
H1627 H 0.75548 0.51966 0.99703 0.0
H1628 H 0.73724 0.41389 0.00822 0.0
H1629 H 0.81494 0.50387 0.96371 0.0
H1630 H 0.74619 0.48103 0.99762 0.0
H1631 H 0.80288 0.43768 0.96927 0.0
C1632 C 0.7866 0.4109 0.98394 0.0
C1633 C 0.76858 0.40395 0.9959 0.0
C1634 C 0.76117 0.48609 0.99001 0.0
C1635 C 0.7719 0.44722 0.98317 0.0
C1636 C 0.76654 0.50811 0.98981 0.0
C1637 C 0.78615 0.51499 0.98059 0.0
C1638 C 0.77556 0.47089 0.98097 0.0
C1639 C 0.79976 0.49934 0.97125 0.0
C1640 C 0.78823 0.43244 0.97737 0.0
C1641 C 0.75145 0.41858 0.99907 0.0
N1642 N 0.79428 0.47809 0.97183 0.0
N1643 N 0.75375 0.4397 0.99324 0.0
H1644 H 0.77832 0.03276 0.24312 0.0
H1645 H 0.66427 0.09175 0.26288 0.0
H1646 H 0.76917 0.10199 0.24495 0.0
H1647 H 0.66962 0.02337 0.24971 0.0
H1648 H 0.70366 0.09451 0.26222 0.0
H1649 H 0.73928 0.02801 0.24921 0.0
C1650 C 0.76811 0.04695 0.24454 0.0
C1651 C 0.77707 0.06781 0.24338 0.0
C1652 C 0.69626 0.07881 0.25978 0.0
C1653 C 0.73254 0.06248 0.25093 0.0
C1654 C 0.67371 0.07717 0.26045 0.0
C1655 C 0.66351 0.05733 0.25619 0.0
C1656 C 0.70881 0.0605 0.25478 0.0
C1657 C 0.67672 0.03902 0.25309 0.0
C1658 C 0.74586 0.04422 0.2482 0.0
C1659 C 0.76305 0.08559 0.24559 0.0
N1660 N 0.69867 0.0411 0.25213 0.0
N1661 N 0.74159 0.08251 0.24933 0.0
H1662 H 0.17599 0.05707 0.532 0.0
H1663 H 0.24123 0.94878 0.5052 0.0
H1664 H 0.24259 0.05693 0.51079 0.0
H1665 H 0.17146 0.95222 0.503 0.0
H1666 H 0.24242 0.98764 0.51299 0.0
H1667 H 0.17415 0.0181 0.52519 0.0
C1668 C 0.1901 0.0489 0.52551 0.0
C1669 C 0.20944 0.06028 0.52182 0.0
C1670 C 0.22685 0.97981 0.51103 0.0
C1671 C 0.20767 0.01558 0.51475 0.0
C1672 C 0.22614 0.95757 0.50693 0.0
C1673 C 0.20621 0.94724 0.50346 0.0
C1674 C 0.20748 0.99173 0.51191 0.0
C1675 C 0.18718 0.95954 0.50556 0.0
C1676 C 0.18909 0.02664 0.52179 0.0
C1677 C 0.2273 0.04884 0.51361 0.0
N1678 N 0.18829 0.98114 0.50958 0.0
N1679 N 0.22607 0.02705 0.51061 0.0
H1680 H 0.26852 0.21098 0.59994 0.0
H1681 H 0.2444 0.31672 0.5305 0.0
H1682 H 0.25138 0.20576 0.53241 0.0
H1683 H 0.23559 0.31178 0.59968 0.0
H1684 H 0.25024 0.27734 0.52901 0.0
H1685 H 0.26249 0.24983 0.59809 0.0
C1686 C 0.26388 0.21805 0.58457 0.0
C1687 C 0.26029 0.20502 0.56635 0.0
C1688 C 0.24672 0.28494 0.54442 0.0
C1689 C 0.25292 0.24966 0.56424 0.0
C1690 C 0.24316 0.30734 0.54527 0.0
C1691 C 0.23961 0.31762 0.56528 0.0
C1692 C 0.24702 0.27293 0.56373 0.0
C1693 C 0.2384 0.30467 0.58391 0.0
C1694 C 0.26018 0.24024 0.5836 0.0
C1695 C 0.25435 0.21521 0.54685 0.0
N1696 N 0.24239 0.28312 0.58271 0.0
N1697 N 0.25068 0.23697 0.54633 0.0
H1698 H 0.0692 0.50604 0.74202 0.0
H1699 H 0.95482 0.51711 0.80105 0.0
H1700 H 0.05172 0.47118 0.80005 0.0
H1701 H 0.96611 0.54102 0.7364 0.0
H1702 H 0.98982 0.4988 0.8 0.0
H1703 H 0.03161 0.51882 0.73909 0.0
C1704 C 0.05751 0.50114 0.75416 0.0
C1705 C 0.06367 0.48765 0.77138 0.0
C1706 C 0.98455 0.50774 0.78586 0.0
C1707 C 0.0207 0.50202 0.76806 0.0
C1708 C 0.96447 0.51807 0.78642 0.0
C1709 C 0.95756 0.53061 0.7688 0.0
C1710 C 0.99808 0.51029 0.76771 0.0
C1711 C 0.97078 0.53139 0.75028 0.0
C1712 C 0.03604 0.50829 0.75239 0.0
C1713 C 0.04779 0.48164 0.78654 0.0
N1714 N 0.9906 0.5217 0.75035 0.0
N1715 N 0.02714 0.48894 0.78458 0.0
H1716 H 0.70152 0.30025 0.08285 0.0
H1717 H 0.75201 0.19766 0.02228 0.0
H1718 H 0.73923 0.30524 0.02416 0.0
H1719 H 0.71001 0.19377 0.07808 0.0
H1720 H 0.74595 0.23692 0.02114 0.0
H1721 H 0.70116 0.26099 0.07879 0.0
C1722 C 0.7092 0.29314 0.06876 0.0
C1723 C 0.72059 0.30608 0.05396 0.0
C1724 C 0.73803 0.22743 0.03359 0.0
C1725 C 0.72092 0.261 0.04958 0.0
C1726 C 0.74166 0.20506 0.03436 0.0
C1727 C 0.73165 0.19242 0.0504 0.0
C1728 C 0.72434 0.23719 0.04899 0.0
C1729 C 0.71818 0.20284 0.06549 0.0
C1730 C 0.70921 0.27066 0.06656 0.0
C1731 C 0.73027 0.29592 0.03602 0.0
N1732 N 0.71498 0.22455 0.06444 0.0
N1733 N 0.73058 0.27395 0.03456 0.0
H1734 H 0.9373 0.00989 0.25961 0.0
H1735 H 0.04562 0.0373 0.32493 0.0
H1736 H 0.94005 0.05698 0.31109 0.0
H1737 H 0.04538 0.0018 0.2648 0.0
H1738 H 0.00696 0.04455 0.32039 0.0
H1739 H 0.97663 0.00515 0.26244 0.0
C1740 C 0.94611 0.01899 0.27172 0.0
C1741 C 0.93532 0.03378 0.28519 0.0
C1742 C 0.01542 0.03543 0.30802 0.0
C1743 C 0.98038 0.02871 0.28828 0.0
C1744 C 0.03755 0.03144 0.31052 0.0
C1745 C 0.04881 0.01893 0.29522 0.0
C1746 C 0.00432 0.02659 0.29025 0.0
C1747 C 0.03743 0.01163 0.27694 0.0
C1748 C 0.9686 0.01647 0.27316 0.0
C1749 C 0.94765 0.04535 0.30039 0.0
N1750 N 0.01576 0.01531 0.27512 0.0
N1751 N 0.96946 0.04256 0.30153 0.0
H1752 H 0.25954 0.80882 0.41098 0.0
H1753 H 0.25035 0.69822 0.47661 0.0
H1754 H 0.24977 0.80929 0.4802 0.0
H1755 H 0.2333 0.70596 0.40927 0.0
H1756 H 0.25433 0.73773 0.47953 0.0
H1757 H 0.2568 0.76953 0.41124 0.0
C1758 C 0.25727 0.80064 0.42635 0.0
C1759 C 0.2547 0.81244 0.44558 0.0
C1760 C 0.24946 0.73069 0.46423 0.0
C1761 C 0.25111 0.76728 0.4459 0.0
C1762 C 0.24698 0.70819 0.46259 0.0
C1763 C 0.24154 0.69869 0.44263 0.0
C1764 C 0.24684 0.74363 0.44571 0.0
C1765 C 0.23758 0.71245 0.42497 0.0
C1766 C 0.25544 0.77819 0.42643 0.0
C1767 C 0.25186 0.80085 0.46499 0.0
N1768 N 0.24059 0.73411 0.42687 0.0
N1769 N 0.24995 0.77885 0.46466 0.0
H1770 H 0.44812 0.54606 0.68382 0.0
H1771 H 0.55568 0.50747 0.74489 0.0
H1772 H 0.44856 0.49493 0.73147 0.0
H1773 H 0.55317 0.55929 0.69805 0.0
H1774 H 0.51609 0.50432 0.74275 0.0
H1775 H 0.48591 0.55371 0.69223 0.0
C1776 C 0.45601 0.53675 0.69641 0.0
C1777 C 0.44515 0.51974 0.70684 0.0
C1778 C 0.52423 0.51645 0.73306 0.0
C1779 C 0.48875 0.52803 0.71619 0.0
C1780 C 0.54683 0.5182 0.73422 0.0
C1781 C 0.55778 0.5336 0.72157 0.0
C1782 C 0.51256 0.53019 0.71913 0.0
C1783 C 0.54547 0.54712 0.70806 0.0
C1784 C 0.4777 0.541 0.7011 0.0
C1785 C 0.45628 0.50821 0.72301 0.0
N1786 N 0.52361 0.54504 0.70716 0.0
N1787 N 0.47757 0.51234 0.72696 0.0
H1788 H 0.76561 0.6935 0.99746 0.0
H1789 H 0.8045 0.80089 0.93833 0.0
H1790 H 0.82202 0.69658 0.95619 0.0
H1791 H 0.75942 0.80157 0.9918 0.0
H1792 H 0.81266 0.76303 0.94627 0.0
H1793 H 0.76361 0.73321 0.9967 0.0
C1794 C 0.7776 0.7025 0.98833 0.0
C1795 C 0.79388 0.69168 0.97673 0.0
C1796 C 0.80127 0.77155 0.95654 0.0
C1797 C 0.79173 0.73698 0.97578 0.0
C1798 C 0.79672 0.79324 0.95208 0.0
C1799 C 0.78117 0.80439 0.96432 0.0
C1800 C 0.7899 0.76081 0.9731 0.0
C1801 C 0.77154 0.79361 0.98193 0.0
C1802 C 0.77653 0.72515 0.98799 0.0
C1803 C 0.80909 0.70417 0.96528 0.0
N1804 N 0.77574 0.77229 0.98553 0.0
N1805 N 0.80752 0.72608 0.96495 0.0
H1806 H 0.45984 0.94439 0.20517 0.0
H1807 H 0.56116 0.00499 0.25744 0.0
H1808 H 0.45404 0.98916 0.25847 0.0
H1809 H 0.56499 0.96241 0.2022 0.0
H1810 H 0.52324 0.99467 0.26233 0.0
H1811 H 0.49904 0.94715 0.20736 0.0
C1812 C 0.4668 0.95486 0.21736 0.0
C1813 C 0.45354 0.96676 0.23151 0.0
C1814 C 0.5325 0.98725 0.24942 0.0
C1815 C 0.49879 0.96991 0.23419 0.0
C1816 C 0.55429 0.99292 0.24676 0.0
C1817 C 0.56627 0.98476 0.22919 0.0
C1818 C 0.52266 0.9733 0.23443 0.0
C1819 C 0.55637 0.96928 0.21585 0.0
C1820 C 0.48928 0.95634 0.21867 0.0
C1821 C 0.46362 0.97985 0.24712 0.0
N1822 N 0.53509 0.96433 0.21854 0.0
N1823 N 0.48565 0.98119 0.24795 0.0
H1824 H 0.57165 0.17736 0.17488 0.0
H1825 H 0.52901 0.23647 0.2821 0.0
H1826 H 0.51896 0.22326 0.17478 0.0
H1827 H 0.58918 0.20104 0.2787 0.0
H1828 H 0.52277 0.22864 0.24375 0.0
H1829 H 0.57689 0.18397 0.21346 0.0
C1830 C 0.56136 0.18907 0.18292 0.0
C1831 C 0.54489 0.19985 0.17154 0.0
C1832 C 0.53723 0.22241 0.25147 0.0
C1833 C 0.5505 0.20713 0.21596 0.0
C1834 C 0.54068 0.22663 0.27344 0.0
C1835 C 0.55967 0.21941 0.28366 0.0
C1836 C 0.55282 0.21077 0.23965 0.0
C1837 C 0.57433 0.20696 0.27151 0.0
C1838 C 0.56428 0.19275 0.20501 0.0
C1839 C 0.53198 0.21475 0.18286 0.0
N1840 N 0.57064 0.20313 0.25016 0.0
N1841 N 0.53494 0.21783 0.2045 0.0
H1842 H 0.06861 0.79522 0.29749 0.0
H1843 H 0.01386 0.76587 0.18401 0.0
H1844 H 0.0098 0.75801 0.29156 0.0
H1845 H 0.08062 0.78577 0.18989 0.0
H1846 H 0.00975 0.76923 0.22317 0.0
H1847 H 0.0715 0.79645 0.25803 0.0
C1848 C 0.0564 0.78712 0.28788 0.0
C1849 C 0.03899 0.77638 0.29786 0.0
C1850 C 0.02521 0.77315 0.21585 0.0
C1851 C 0.04195 0.7782 0.25261 0.0
C1852 C 0.02752 0.77154 0.19342 0.0
C1853 C 0.0477 0.77539 0.18357 0.0
C1854 C 0.04314 0.77883 0.22858 0.0
C1855 C 0.06478 0.78258 0.19673 0.0
C1856 C 0.05802 0.78793 0.26535 0.0
C1857 C 0.0236 0.76628 0.28457 0.0
N1858 N 0.06218 0.78386 0.21858 0.0
N1859 N 0.02536 0.76756 0.26263 0.0
H1860 H 0.5044 0.31791 0.39246 0.0
H1861 H 0.50777 0.26358 0.50935 0.0
H1862 H 0.5137 0.24937 0.40185 0.0
H1863 H 0.48351 0.32803 0.49751 0.0
H1864 H 0.5099 0.25776 0.47007 0.0
H1865 H 0.49487 0.32146 0.43068 0.0
C1866 C 0.50379 0.30349 0.40244 0.0
C1867 C 0.50982 0.28332 0.39394 0.0
C1868 C 0.50403 0.27313 0.47611 0.0
C1869 C 0.49981 0.28737 0.43798 0.0
C1870 C 0.50301 0.27653 0.49852 0.0
C1871 C 0.4956 0.29637 0.50675 0.0
C1872 C 0.49776 0.28976 0.46187 0.0
C1873 C 0.48942 0.3125 0.49194 0.0
C1874 C 0.49856 0.30554 0.42434 0.0
C1875 C 0.50897 0.2652 0.40768 0.0
N1876 N 0.49074 0.30888 0.47029 0.0
N1877 N 0.5045 0.26772 0.42913 0.0
H1878 H 0.89374 0.70726 0.73782 0.0
H1879 H 0.96436 0.7252 0.84305 0.0
H1880 H 0.96155 0.7236 0.7342 0.0
H1881 H 0.91707 0.67384 0.84076 0.0
H1882 H 0.95868 0.73161 0.80432 0.0
H1883 H 0.89786 0.70033 0.77679 0.0
C1884 C 0.90954 0.70912 0.74519 0.0
C1885 C 0.92738 0.71584 0.73279 0.0
C1886 C 0.94941 0.7191 0.81241 0.0
C1887 C 0.93191 0.7089 0.77729 0.0
C1888 C 0.95249 0.71554 0.83453 0.0
C1889 C 0.9412 0.69892 0.84515 0.0
C1890 C 0.93462 0.70626 0.80095 0.0
C1891 C 0.92614 0.6868 0.83319 0.0
C1892 C 0.91183 0.70527 0.76737 0.0
C1893 C 0.94746 0.71819 0.74314 0.0
N1894 N 0.92323 0.69074 0.81171 0.0
N1895 N 0.94912 0.71504 0.76488 0.0
H1896 H 0.02449 0.74118 0.97589 0.0
H1897 H 0.9688 0.71622 0.08215 0.0
H1898 H 0.95592 0.72801 0.97526 0.0
H1899 H 0.0164 0.76728 0.07983 0.0
H1900 H 0.9619 0.72167 0.04347 0.0
H1901 H 0.02145 0.75252 0.01378 0.0
C1902 C 0.00869 0.74135 0.98354 0.0
C1903 C 0.99044 0.73369 0.97247 0.0
C1904 C 0.97334 0.73215 0.05162 0.0
C1905 C 0.98699 0.74577 0.01593 0.0
C1906 C 0.97723 0.72909 0.07372 0.0
C1907 C 0.99337 0.74112 0.08421 0.0
C1908 C 0.98615 0.74686 0.03989 0.0
C1909 C 0.00388 0.75754 0.07241 0.0
C1910 C 0.00695 0.74779 0.00515 0.0
C1911 C 0.97036 0.73398 0.9832 0.0
N1912 N 0.0006 0.75945 0.05073 0.0
N1913 N 0.96926 0.73928 0.00456 0.0
H1914 H 0.49824 0.73579 0.2824 0.0
H1915 H 0.43195 0.70337 0.17626 0.0
H1916 H 0.44691 0.6884 0.28128 0.0
H1917 H 0.48742 0.74584 0.17505 0.0
H1918 H 0.43973 0.69491 0.21407 0.0
H1919 H 0.49642 0.73797 0.24274 0.0
C1920 C 0.48663 0.72583 0.27384 0.0
C1921 C 0.47259 0.71204 0.28522 0.0
C1922 C 0.45044 0.70582 0.20546 0.0
C1923 C 0.47049 0.71433 0.23989 0.0
C1924 C 0.44608 0.71052 0.18377 0.0
C1925 C 0.45892 0.72547 0.17247 0.0
C1926 C 0.46761 0.71634 0.21605 0.0
C1927 C 0.47702 0.73425 0.18311 0.0
C1928 C 0.48567 0.72699 0.2512 0.0
C1929 C 0.45797 0.69939 0.27326 0.0
N1930 N 0.48061 0.72984 0.2044 0.0
N1931 N 0.45723 0.70093 0.25134 0.0
H1932 H 0.47643 0.13868 0.01291 0.0
H1933 H 0.49408 0.22669 0.91939 0.0
H1934 H 0.4947 0.20479 0.02604 0.0
H1935 H 0.47722 0.15992 0.908 0.0
H1936 H 0.4975 0.21872 0.95811 0.0
H1937 H 0.47778 0.14635 0.97428 0.0
C1938 C 0.48048 0.15492 0.00768 0.0
C1939 C 0.48538 0.17113 0.0228 0.0
C1940 C 0.49342 0.20574 0.94708 0.0
C1941 C 0.48736 0.17998 0.97832 0.0
C1942 C 0.4918 0.21021 0.92491 0.0
C1943 C 0.48529 0.19395 0.91043 0.0
C1944 C 0.4885 0.18489 0.95475 0.0
C1945 C 0.48219 0.17297 0.91857 0.0
C1946 C 0.48143 0.15925 0.98555 0.0
C1947 C 0.49064 0.19184 0.01497 0.0
N1948 N 0.48358 0.16912 0.94018 0.0
N1949 N 0.49155 0.19566 0.99326 0.0
H1950 H 0.27219 0.06974 0.7846 0.0
H1951 H 0.16842 0.00412 0.7442 0.0
H1952 H 0.27601 0.01034 0.74804 0.0
H1953 H 0.16586 0.06853 0.77108 0.0
H1954 H 0.20704 0.00255 0.75257 0.0
H1955 H 0.23289 0.0665 0.78531 0.0
C1956 C 0.26477 0.056 0.77665 0.0
C1957 C 0.27745 0.04039 0.76604 0.0
C1958 C 0.19793 0.01684 0.75704 0.0
C1959 C 0.23225 0.03647 0.76704 0.0
C1960 C 0.17576 0.01766 0.75257 0.0
C1961 C 0.16388 0.03664 0.75666 0.0
C1962 C 0.20825 0.03508 0.7658 0.0
C1963 C 0.17438 0.05365 0.76744 0.0
C1964 C 0.24228 0.05412 0.77717 0.0
C1965 C 0.26686 0.02287 0.75621 0.0
N1966 N 0.19602 0.05261 0.77131 0.0
N1967 N 0.24485 0.02141 0.75689 0.0
H1968 H 0.75637 0.01397 0.00851 0.0
H1969 H 0.6949 0.90186 0.02352 0.0
H1970 H 0.69567 0.00736 0.04265 0.0
H1971 H 0.76104 0.90625 0.00127 0.0
H1972 H 0.69617 0.94001 0.03361 0.0
H1973 H 0.75917 0.97438 0.00691 0.0
C1974 C 0.74362 0.00421 0.01559 0.0
C1975 C 0.72568 0.01399 0.02556 0.0
C1976 C 0.71058 0.93255 0.02694 0.0
C1977 C 0.72887 0.96878 0.02403 0.0
C1978 C 0.70992 0.91067 0.02138 0.0
C1979 C 0.72781 0.90086 0.01137 0.0
C1980 C 0.72915 0.94481 0.02212 0.0
C1981 C 0.74683 0.91312 0.00893 0.0
C1982 C 0.74531 0.98163 0.01486 0.0
C1983 C 0.70974 0.00056 0.03469 0.0
N1984 N 0.74686 0.93458 0.01381 0.0
N1985 N 0.71166 0.9787 0.03359 0.0
H1986 H 0.83785 0.43959 0.2518 0.0
H1987 H 0.72284 0.49774 0.24538 0.0
H1988 H 0.83045 0.50683 0.23454 0.0
H1989 H 0.73295 0.43447 0.27328 0.0
H1990 H 0.76227 0.50222 0.24264 0.0
H1991 H 0.79988 0.43861 0.26278 0.0
C1992 C 0.82838 0.45434 0.25095 0.0
C1993 C 0.83732 0.47329 0.24219 0.0
C1994 C 0.75582 0.48742 0.24946 0.0
C1995 C 0.79352 0.47209 0.25391 0.0
C1996 C 0.73332 0.48478 0.25085 0.0
C1997 C 0.72455 0.46563 0.25939 0.0
C1998 C 0.76961 0.47073 0.25655 0.0
C1999 C 0.73892 0.44947 0.26645 0.0
C2000 C 0.80661 0.45373 0.25701 0.0
C2001 C 0.82425 0.49189 0.24132 0.0
N2002 N 0.76066 0.45234 0.26477 0.0
N2003 N 0.80288 0.49072 0.24666 0.0
H2004 H 0.25452 0.46014 0.504 0.0
H2005 H 0.32729 0.56572 0.49038 0.0
H2006 H 0.32278 0.46047 0.51891 0.0
H2007 H 0.25803 0.56799 0.49953 0.0
H2008 H 0.32666 0.52689 0.49825 0.0
H2009 H 0.25623 0.49918 0.49738 0.0
C2010 C 0.26998 0.46831 0.50535 0.0
C2011 C 0.28855 0.45702 0.51199 0.0
C2012 C 0.31166 0.53596 0.49888 0.0
C2013 C 0.2905 0.50173 0.50492 0.0
C2014 C 0.31203 0.55816 0.49462 0.0
C2015 C 0.29269 0.57013 0.4944 0.0
C2016 C 0.29175 0.52559 0.50251 0.0
C2017 C 0.27335 0.55945 0.49974 0.0
C2018 C 0.27086 0.49065 0.50193 0.0
C2019 C 0.30808 0.46854 0.51381 0.0
N2020 N 0.27332 0.53771 0.50323 0.0
N2021 N 0.30854 0.49027 0.51035 0.0
H2022 H 0.16083 0.92289 0.23994 0.0
H2023 H 0.27509 0.97862 0.26094 0.0
H2024 H 0.16712 0.99005 0.25783 0.0
H2025 H 0.26802 0.91935 0.22473 0.0
H2026 H 0.23553 0.9827 0.26106 0.0
H2027 H 0.19994 0.92125 0.23383 0.0
C2028 C 0.17035 0.93746 0.24199 0.0
C2029 C 0.16064 0.95664 0.24935 0.0
C2030 C 0.24267 0.96884 0.25305 0.0
C2031 C 0.2056 0.95467 0.24322 0.0
C2032 C 0.26523 0.9664 0.25316 0.0
C2033 C 0.2749 0.94856 0.24293 0.0
C2034 C 0.22967 0.9532 0.24283 0.0
C2035 C 0.26131 0.93334 0.23289 0.0
C2036 C 0.19273 0.93647 0.23869 0.0
C2037 C 0.17385 0.97497 0.25197 0.0
N2038 N 0.23944 0.93595 0.2332 0.0
N2039 N 0.1957 0.97343 0.2493 0.0
H2040 H 0.82867 0.01773 0.47644 0.0
H2041 H 0.75505 0.9167 0.51071 0.0
H2042 H 0.76738 0.02423 0.5095 0.0
H2043 H 0.82119 0.91101 0.4887 0.0
H2044 H 0.75679 0.95575 0.50454 0.0
H2045 H 0.82419 0.97853 0.47651 0.0
C2046 C 0.81429 0.01091 0.48385 0.0
C2047 C 0.79844 0.02434 0.49313 0.0
C2048 C 0.77079 0.9459 0.50071 0.0
C2049 C 0.79305 0.97926 0.49294 0.0
C2050 C 0.76973 0.92352 0.50392 0.0
C2051 C 0.78806 0.91049 0.50034 0.0
C2052 C 0.79028 0.95534 0.49375 0.0
C2053 C 0.80668 0.92038 0.49177 0.0
C2054 C 0.81171 0.98848 0.48378 0.0
C2055 C 0.78011 0.01451 0.50235 0.0
N2056 N 0.80738 0.9422 0.489 0.0
N2057 N 0.7779 0.99257 0.502 0.0
H2058 H 0.84179 0.62433 0.71509 0.0
H2059 H 0.74753 0.54427 0.75221 0.0
H2060 H 0.85419 0.56068 0.74108 0.0
H2061 H 0.73657 0.60197 0.71434 0.0
H2062 H 0.78669 0.54954 0.74795 0.0
H2063 H 0.80331 0.61551 0.71294 0.0
C2064 C 0.8365 0.60829 0.71981 0.0
C2065 C 0.85127 0.59326 0.72831 0.0
C2066 C 0.77569 0.56097 0.74049 0.0
C2067 C 0.80705 0.58327 0.72659 0.0
C2068 C 0.75334 0.55805 0.74306 0.0
C2069 C 0.73875 0.57275 0.73371 0.0
C2070 C 0.78347 0.5788 0.72864 0.0
C2071 C 0.7472 0.59025 0.72189 0.0
C2072 C 0.81447 0.60331 0.71875 0.0
C2073 C 0.84343 0.57275 0.73431 0.0
N2074 N 0.76894 0.59283 0.71979 0.0
N2075 N 0.82181 0.56849 0.7337 0.0
H2076 H 0.21594 0.44041 0.00214 0.0
H2077 H 0.15285 0.55363 2e-05 0.0
H2078 H 0.14885 0.4491 0.0198 0.0
H2079 H 0.22173 0.54912 0.989 0.0
H2080 H 0.15135 0.51462 0.0049 0.0
H2081 H 0.21917 0.47969 0.99701 0.0
C2082 C 0.20205 0.45059 0.00545 0.0
C2083 C 0.18207 0.44143 0.01138 0.0
C2084 C 0.16682 0.52205 0.00127 0.0
C2085 C 0.1855 0.4862 0.00495 0.0
C2086 C 0.16765 0.54435 0.99826 0.0
C2087 C 0.18745 0.55467 0.99413 0.0
C2088 C 0.18597 0.5098 0.00027 0.0
C2089 C 0.20609 0.54179 0.99202 0.0
C2090 C 0.20384 0.47298 0.00225 0.0
C2091 C 0.16454 0.45539 0.01516 0.0
N2092 N 0.20494 0.51999 0.99531 0.0
N2093 N 0.16663 0.47698 0.01171 0.0
H2094 H 0.25125 0.71821 -2e-05 0.0
H2095 H 0.26041 0.82577 0.07004 0.0
H2096 H 0.22977 0.7217 0.06641 0.0
H2097 H 0.25801 0.82661 0.00025 0.0
H2098 H 0.25079 0.78738 0.06957 0.0
H2099 H 0.25726 0.75748 0.00036 0.0
C2100 C 0.24813 0.72717 0.01473 0.0
C2101 C 0.24007 0.71669 0.03321 0.0
C2102 C 0.25199 0.79604 0.05437 0.0
C2103 C 0.2466 0.76151 0.03366 0.0
C2104 C 0.25729 0.81799 0.05464 0.0
C2105 C 0.25989 0.82941 0.03516 0.0
C2106 C 0.24976 0.7853 0.03447 0.0
C2107 C 0.25592 0.81847 0.01565 0.0
C2108 C 0.25128 0.7496 0.01485 0.0
C2109 C 0.23602 0.72914 0.0518 0.0
N2110 N 0.25141 0.79692 0.01577 0.0
N2111 N 0.23937 0.75086 0.05157 0.0
H2112 H 0.73864 0.70084 0.50858 0.0
H2113 H 0.70887 0.80891 0.57359 0.0
H2114 H 0.69426 0.70263 0.5626 0.0
H2115 H 0.74685 0.80856 0.51487 0.0
H2116 H 0.70193 0.77029 0.56884 0.0
H2117 H 0.74203 0.7403 0.51067 0.0
C2118 C 0.72983 0.70947 0.52105 0.0
C2119 C 0.71623 0.69836 0.5355 0.0
C2120 C 0.71152 0.77871 0.55681 0.0
C2121 C 0.71971 0.74358 0.53774 0.0
C2122 C 0.7153 0.80086 0.55939 0.0
C2123 C 0.72854 0.81206 0.54467 0.0
C2124 C 0.72122 0.76757 0.53948 0.0
C2125 C 0.73652 0.80066 0.52664 0.0
C2126 C 0.73159 0.73204 0.5221 0.0
C2127 C 0.705 0.71047 0.55116 0.0
N2128 N 0.73301 0.77901 0.52473 0.0
N2129 N 0.70699 0.73237 0.55186 0.0
H2130 H 0.21684 0.29367 0.93095 0.0
H2131 H 0.25379 0.18869 0.9973 0.0
H2132 H 0.23842 0.29572 0.99734 0.0
H2133 H 0.24573 0.18952 0.92791 0.0
H2134 H 0.24326 0.22685 0.99852 0.0
H2135 H 0.22454 0.25492 0.93004 0.0
C2136 C 0.22356 0.28603 0.94524 0.0
C2137 C 0.22709 0.29798 0.96423 0.0
C2138 C 0.24352 0.21859 0.98307 0.0
C2139 C 0.23535 0.25343 0.96349 0.0
C2140 C 0.24918 0.19669 0.98239 0.0
C2141 C 0.25072 0.18589 0.96245 0.0
C2142 C 0.23924 0.22971 0.96369 0.0
C2143 C 0.24482 0.19721 0.94363 0.0
C2144 C 0.22778 0.26385 0.94476 0.0
C2145 C 0.23567 0.28718 0.9823 0.0
N2146 N 0.23953 0.21853 0.94469 0.0
N2147 N 0.23932 0.26547 0.98154 0.0
H2148 H 0.76823 0.31166 0.44243 0.0
H2149 H 0.75623 0.19992 0.50602 0.0
H2150 H 0.74275 0.30768 0.50737 0.0
H2151 H 0.79246 0.20722 0.44666 0.0
H2152 H 0.75185 0.23941 0.50755 0.0
H2153 H 0.77941 0.27385 0.4449 0.0
C2154 C 0.76554 0.303 0.45745 0.0
C2155 C 0.7545 0.31286 0.47469 0.0
C2156 C 0.76085 0.23233 0.49426 0.0
C2157 C 0.76654 0.26922 0.47738 0.0
C2158 C 0.76319 0.20978 0.4933 0.0
C2159 C 0.77459 0.2002 0.47612 0.0
C2160 C 0.76984 0.24535 0.47785 0.0
C2161 C 0.78346 0.21382 0.46017 0.0
C2162 C 0.77174 0.28131 0.4588 0.0
C2163 C 0.75132 0.30077 0.49372 0.0
N2164 N 0.7808 0.23561 0.46138 0.0
N2165 N 0.75693 0.27946 0.49441 0.0
H2166 H 0.51463 0.74805 0.78682 0.0
H2167 H 0.5731 0.77962 0.67548 0.0
H2168 H 0.57174 0.78805 0.7821 0.0
H2169 H 0.51497 0.74096 0.67863 0.0
H2170 H 0.56992 0.78664 0.71422 0.0
H2171 H 0.51243 0.74758 0.74712 0.0
C2172 C 0.52672 0.75666 0.77747 0.0
C2173 C 0.54349 0.76794 0.78783 0.0
C2174 C 0.55764 0.7769 0.7064 0.0
C2175 C 0.54093 0.76774 0.74247 0.0
C2176 C 0.55933 0.77307 0.68418 0.0
C2177 C 0.54442 0.7595 0.67377 0.0
C2178 C 0.54103 0.76692 0.71839 0.0
C2179 C 0.52692 0.75146 0.68596 0.0
C2180 C 0.52538 0.75652 0.75482 0.0
C2181 C 0.5586 0.779 0.77487 0.0
N2182 N 0.52591 0.75497 0.70768 0.0
N2183 N 0.55699 0.77856 0.75296 0.0
H2184 H 0.00063 0.24514 0.70587 0.0
H2185 H 0.06136 0.20958 0.81453 0.0
H2186 H 0.05256 0.19841 0.7084 0.0
H2187 H 0.00596 0.25222 0.81397 0.0
H2188 H 0.05588 0.20263 0.77604 0.0
H2189 H 0.00068 0.24653 0.74561 0.0
C2190 C 0.01206 0.23524 0.71475 0.0
C2191 C 0.02672 0.22178 0.70376 0.0
C2192 C 0.04469 0.21325 0.78438 0.0
C2193 C 0.02672 0.22308 0.74916 0.0
C2194 C 0.04771 0.21708 0.80645 0.0
C2195 C 0.03422 0.23164 0.8175 0.0
C2196 C 0.02821 0.22426 0.77317 0.0
C2197 C 0.01681 0.2409 0.80612 0.0
C2198 C 0.01199 0.23592 0.73743 0.0
C2199 C 0.04104 0.20914 0.71612 0.0
N2200 N 0.01452 0.23734 0.7845 0.0
N2201 N 0.04073 0.21016 0.73807 0.0
H2202 H 0.5159 0.81607 0.07764 0.0
H2203 H 0.50458 0.75469 0.96525 0.0
H2204 H 0.49548 0.74946 0.07296 0.0
H2205 H 0.54243 0.81288 0.97284 0.0
H2206 H 0.50074 0.7526 0.00475 0.0
H2207 H 0.52697 0.81492 0.03964 0.0
C2208 C 0.51433 0.80101 0.06882 0.0
C2209 C 0.50465 0.78288 0.07852 0.0
C2210 C 0.50998 0.76575 0.99774 0.0
C2211 C 0.51654 0.78168 0.03476 0.0
C2212 C 0.512 0.76705 0.9752 0.0
C2213 C 0.52372 0.78405 0.96571 0.0
C2214 C 0.51954 0.7817 0.01087 0.0
C2215 C 0.53318 0.79952 0.97942 0.0
C2216 C 0.52047 0.80041 0.04704 0.0
C2217 C 0.5029 0.76383 0.06621 0.0
N2218 N 0.53077 0.79806 0.00125 0.0
N2219 N 0.50836 0.76386 0.04486 0.0
H2220 H 0.99358 0.23949 0.31489 0.0
H2221 H 0.93038 0.28645 0.21228 0.0
H2222 H 0.928 0.26366 0.31733 0.0
H2223 H 0.98911 0.24879 0.20769 0.0
H2224 H 0.93252 0.28448 0.25164 0.0
H2225 H 0.99585 0.2505 0.27698 0.0
C2226 C 0.97987 0.24776 0.30771 0.0
C2227 C 0.96042 0.25035 0.31928 0.0
C2228 C 0.94499 0.2767 0.24206 0.0
C2229 C 0.96284 0.26258 0.27571 0.0
C2230 C 0.94376 0.27773 0.21954 0.0
C2231 C 0.95949 0.26756 0.20662 0.0
C2232 C 0.96215 0.2655 0.25185 0.0
C2233 C 0.97651 0.25666 0.21701 0.0
C2234 C 0.98111 0.25377 0.28594 0.0
C2235 C 0.94324 0.26114 0.30902 0.0
N2236 N 0.97736 0.25587 0.23903 0.0
N2237 N 0.94474 0.26656 0.28773 0.0
H2238 H 0.02921 0.1671 0.5225 0.0
H2239 H 0.9949 0.22608 0.41255 0.0
H2240 H 0.99287 0.22677 0.52059 0.0
H2241 H 0.02523 0.16318 0.41533 0.0
H2242 H 0.99934 0.22952 0.45167 0.0
H2243 H 0.03176 0.16772 0.48316 0.0
C2244 C 0.02165 0.18032 0.5138 0.0
C2245 C 0.01063 0.19683 0.5249 0.0
C2246 C 0.00536 0.21512 0.44367 0.0
C2247 C 0.01375 0.19775 0.47963 0.0
C2248 C 0.00307 0.21323 0.42125 0.0
C2249 C 0.00947 0.19417 0.41059 0.0
C2250 C 0.01415 0.19785 0.45555 0.0
C2251 C 0.01992 0.1781 0.42281 0.0
C2252 C 0.02323 0.18071 0.49129 0.0
C2253 C 0.00134 0.2136 0.5127 0.0
N2254 N 0.02164 0.18018 0.44466 0.0
N2255 N 0.00308 0.21361 0.4907 0.0
H2256 H 0.4951 0.25727 0.68468 0.0
H2257 H 0.43722 0.30006 0.7925 0.0
H2258 H 0.44987 0.31052 0.68727 0.0
H2259 H 0.4844 0.24853 0.7929 0.0
H2260 H 0.44511 0.30647 0.75437 0.0
H2261 H 0.49394 0.25517 0.72446 0.0
C2262 C 0.48495 0.26848 0.69357 0.0
C2263 C 0.47242 0.28395 0.68258 0.0
C2264 C 0.45401 0.29394 0.7628 0.0
C2265 C 0.4712 0.28183 0.72795 0.0
C2266 C 0.44961 0.2904 0.78467 0.0
C2267 C 0.46008 0.27367 0.79588 0.0
C2268 C 0.46878 0.28046 0.75189 0.0
C2269 C 0.47598 0.26165 0.78488 0.0
C2270 C 0.48438 0.26736 0.71625 0.0
C2271 C 0.45969 0.29819 0.69494 0.0
N2272 N 0.4796 0.26503 0.76338 0.0
N2273 N 0.45937 0.29673 0.71685 0.0
H2274 H 0.50612 0.73717 0.5753 0.0
H2275 H 0.47087 0.67002 0.47054 0.0
H2276 H 0.48377 0.67102 0.57737 0.0
H2277 H 0.50643 0.73007 0.46765 0.0
H2278 H 0.46982 0.67282 0.5099 0.0
H2279 H 0.49911 0.73795 0.53641 0.0
C2280 C 0.49905 0.72302 0.56777 0.0
C2281 C 0.49578 0.70388 0.57966 0.0
C2282 C 0.47783 0.68541 0.50069 0.0
C2283 C 0.48817 0.70459 0.53497 0.0
C2284 C 0.47853 0.6838 0.47818 0.0
C2285 C 0.48894 0.69976 0.46574 0.0
C2286 C 0.48749 0.70319 0.51096 0.0
C2287 C 0.49843 0.71729 0.47659 0.0
C2288 C 0.49535 0.72341 0.54545 0.0
C2289 C 0.48669 0.68607 0.56888 0.0
N2290 N 0.49749 0.71854 0.4986 0.0
N2291 N 0.48349 0.68676 0.54711 0.0
H2292 H 0.43301 0.49605 0.27386 0.0
H2293 H 0.54463 0.44329 0.31301 0.0
H2294 H 0.43843 0.4499 0.32606 0.0
H2295 H 0.54123 0.4952 0.26633 0.0
H2296 H 0.50526 0.44227 0.31437 0.0
H2297 H 0.47171 0.4917 0.2665 0.0
C2298 C 0.44216 0.4845 0.28337 0.0
C2299 C 0.43244 0.47342 0.30074 0.0
C2300 C 0.51305 0.45389 0.30379 0.0
C2301 C 0.47688 0.46877 0.29267 0.0
C2302 C 0.53561 0.45455 0.30305 0.0
C2303 C 0.54632 0.4695 0.28966 0.0
C2304 C 0.50093 0.46826 0.29103 0.0
C2305 C 0.53367 0.48355 0.27703 0.0
C2306 C 0.46435 0.48225 0.27932 0.0
C2307 C 0.44522 0.45886 0.3126 0.0
N2308 N 0.51162 0.48263 0.27806 0.0
N2309 N 0.46679 0.45715 0.30851 0.0
H2310 H 0.464 0.00796 0.76175 0.0
H2311 H 0.56415 0.04948 0.8318 0.0
H2312 H 0.45959 0.05746 0.81084 0.0
H2313 H 0.57169 0.00742 0.77658 0.0
H2314 H 0.52625 0.05488 0.8221 0.0
H2315 H 0.50364 0.00869 0.76531 0.0
C2316 C 0.47134 0.01896 0.77323 0.0
C2317 C 0.45842 0.03251 0.78614 0.0
C2318 C 0.53624 0.04475 0.81185 0.0
C2319 C 0.50366 0.03356 0.7902 0.0
C2320 C 0.55796 0.04181 0.81731 0.0
C2321 C 0.5711 0.02792 0.80505 0.0
C2322 C 0.52742 0.03343 0.79419 0.0
C2323 C 0.56217 0.01833 0.78646 0.0
C2324 C 0.49395 0.01947 0.77517 0.0
C2325 C 0.46882 0.04659 0.80064 0.0
N2326 N 0.54077 0.02095 0.78181 0.0
N2327 N 0.49073 0.04665 0.80234 0.0
H2328 H 0.05248 0.51663 0.23354 0.0
H2329 H 0.94969 0.54544 0.15979 0.0
H2330 H 0.05503 0.55712 0.17662 0.0
H2331 H 0.94472 0.50956 0.21957 0.0
H2332 H 0.98817 0.55097 0.16672 0.0
H2333 H 0.01312 0.51336 0.22883 0.0
C2334 C 0.04483 0.52455 0.21989 0.0
C2335 C 0.05709 0.53711 0.20542 0.0
C2336 C 0.97865 0.54211 0.17849 0.0
C2337 C 0.0121 0.53381 0.20018 0.0
C2338 C 0.95659 0.53911 0.17462 0.0
C2339 C 0.94394 0.52699 0.18909 0.0
C2340 C 0.98826 0.53272 0.19686 0.0
C2341 C 0.95382 0.51911 0.20801 0.0
C2342 C 0.02234 0.52289 0.21735 0.0
C2343 C 0.04627 0.54726 0.18818 0.0
N2344 N 0.97546 0.52187 0.21122 0.0
N2345 N 0.02447 0.54541 0.18608 0.0
H2346 H 0.06314 0.00619 0.7303 0.0
H2347 H 0.95795 0.98986 0.6574 0.0
H2348 H 0.06357 0.97707 0.66678 0.0
H2349 H 0.95406 0.00774 0.72485 0.0
H2350 H 0.99704 0.98649 0.66079 0.0
H2351 H 0.02353 0.00598 0.72972 0.0
C2352 C 0.05496 0.99914 0.7165 0.0
C2353 C 0.06678 0.99183 0.69844 0.0
C2354 C 0.98771 0.99121 0.67488 0.0
C2355 C 0.02143 0.99219 0.69745 0.0
C2356 C 0.96535 0.99338 0.6729 0.0
C2357 C 0.95265 0.9991 0.69087 0.0
C2358 C 0.99763 0.99482 0.69499 0.0
C2359 C 0.96323 0.00341 0.71053 0.0
C2360 C 0.03231 -0.00071 0.71609 0.0
C2361 C 0.05521 0.98301 0.68101 0.0
N2362 N 0.98513 0.00112 0.71209 0.0
N2363 N 0.03323 0.98376 0.68081 0.0
H2364 H 0.97494 0.31829 0.9159 0.0
H2365 H 0.99162 0.25425 0.02621 0.0
H2366 H 0.99682 0.25199 0.91824 0.0
H2367 H 0.95407 0.31301 0.02159 0.0
H2368 H 0.99332 0.25284 0.98654 0.0
H2369 H 0.96518 0.31595 0.95419 0.0
C2370 C 0.97708 0.30303 0.92428 0.0
C2371 C 0.98685 0.28537 0.91383 0.0
C2372 C 0.9846 0.26596 0.99424 0.0
C2373 C 0.97647 0.28281 0.95791 0.0
C2374 C 0.98379 0.26686 0.01687 0.0
C2375 C 0.97283 0.28384 0.02725 0.0
C2376 C 0.97455 0.28228 0.98191 0.0
C2377 C 0.96279 0.29966 0.01432 0.0
C2378 C 0.9717 0.30176 0.94622 0.0
C2379 C 0.98933 0.26603 0.92558 0.0
N2380 N 0.96403 0.29857 0.99238 0.0
N2381 N 0.98462 0.26541 0.9471 0.0
H2382 H 0.98157 0.75449 0.46133 0.0
H2383 H 0.95587 0.80755 0.57644 0.0
H2384 H 0.98074 0.82337 0.47271 0.0
H2385 H 0.97773 0.74154 0.57016 0.0
H2386 H 0.96188 0.81291 0.53777 0.0
H2387 H 0.97615 0.74848 0.50034 0.0
C2388 C 0.9799 0.76833 0.47196 0.0
C2389 C 0.98154 0.78947 0.46376 0.0
C2390 C 0.96557 0.79729 0.54483 0.0
C2391 C 0.97558 0.78272 0.50826 0.0
C2392 C 0.9622 0.79423 0.56694 0.0
C2393 C 0.96641 0.77409 0.57655 0.0
C2394 C 0.97285 0.77998 0.53203 0.0
C2395 C 0.9745 0.75739 0.56341 0.0
C2396 C 0.97706 0.76489 0.49422 0.0
C2397 C 0.97957 0.8068 0.47831 0.0
N2398 N 0.97725 0.76063 0.54174 0.0
N2399 N 0.97666 0.80305 0.49978 0.0
loop_
_geom_bond_atom_site_label_1
_geom_bond_atom_site_label_2
_geom_bond_distance
_geom_bond_site_symmetry_2
_ccdc_geom_bond_type
O0 Cd1 2.223 . S
O0 C8 1.315 . S
Cd1 O0 2.223 . S
Cd1 O4 2.297 . S
Cd1 O5 2.439 . S
Cd1 O11 2.240 . S
Cd2 O3 2.240 . S
Cd2 O10 2.223 . S
Cd2 O12 2.297 . S
Cd2 O13 2.439 . S
O3 Cd2 2.240 . S
O3 C8 1.279 . S
O4 Cd1 2.297 . S
O4 C6 1.247 . S
O5 Cd1 2.439 . S
O5 C6 1.208 . S
C6 O4 1.247 . S
C6 O5 1.208 . S
C7 O12 1.247 . S
C7 O13 1.208 . S
C8 O0 1.315 . S
C8 O3 1.279 . S
C9 O10 1.315 . S
C9 O11 1.279 . S
O10 Cd2 2.223 . S
O10 C9 1.315 . S
O11 Cd1 2.240 . S
O11 C9 1.279 . S
O12 Cd2 2.297 . S
O12 C7 1.247 . S
O13 Cd2 2.439 . S
O13 C7 1.208 . S
O14 Cd15 2.223 . S
O14 C22 1.315 . S
Cd15 O14 2.223 . S
Cd15 O18 2.297 . S
Cd15 O19 2.439 . S
Cd15 O25 2.240 . S
Cd16 O17 2.240 . S
Cd16 O24 2.223 . S
Cd16 O26 2.297 . S
Cd16 O27 2.439 . S
O17 Cd16 2.240 . S
O17 C22 1.279 . S
O18 Cd15 2.297 . S
O18 C20 1.247 . S
O19 Cd15 2.439 . S
O19 C20 1.208 . S
C20 O18 1.247 . S
C20 O19 1.208 . S
C21 O26 1.247 . S
C21 O27 1.208 . S
C22 O14 1.315 . S
C22 O17 1.279 . S
C23 O24 1.315 . S
C23 O25 1.279 . S
O24 Cd16 2.223 . S
O24 C23 1.315 . S
O25 Cd15 2.240 . S
O25 C23 1.279 . S
O26 Cd16 2.297 . S
O26 C21 1.247 . S
O27 Cd16 2.439 . S
O27 C21 1.208 . S
O28 Cd29 2.223 . S
O28 C36 1.315 . S
Cd29 O28 2.223 . S
Cd29 O32 2.297 . S
Cd29 O33 2.439 . S
Cd29 O39 2.240 . S
Cd30 O31 2.240 . S
Cd30 O38 2.223 . S
Cd30 O40 2.297 . S
Cd30 O41 2.439 . S
O31 Cd30 2.240 . S
O31 C36 1.279 . S
O32 Cd29 2.297 . S
O32 C34 1.247 . S
O33 Cd29 2.439 . S
O33 C34 1.208 . S
C34 O32 1.247 . S
C34 O33 1.208 . S
C35 O40 1.247 . S
C35 O41 1.208 . S
C36 O28 1.315 . S
C36 O31 1.279 . S
C37 O38 1.315 . S
C37 O39 1.279 . S
O38 Cd30 2.223 . S
O38 C37 1.315 . S
O39 Cd29 2.240 . S
O39 C37 1.279 . S
O40 Cd30 2.297 . S
O40 C35 1.247 . S
O41 Cd30 2.439 . S
O41 C35 1.208 . S
O42 Cd43 2.223 . S
O42 C50 1.315 . S
Cd43 O42 2.223 . S
Cd43 O46 2.297 . S
Cd43 O47 2.439 . S
Cd43 O53 2.240 . S
Cd44 O45 2.240 . S
Cd44 O52 2.223 . S
Cd44 O54 2.297 . S
Cd44 O55 2.439 . S
O45 Cd44 2.240 . S
O45 C50 1.279 . S
O46 Cd43 2.297 . S
O46 C48 1.247 . S
O47 Cd43 2.439 . S
O47 C48 1.208 . S
C48 O46 1.247 . S
C48 O47 1.208 . S
C49 O54 1.247 . S
C49 O55 1.208 . S
C50 O42 1.315 . S
C50 O45 1.279 . S
C51 O52 1.315 . S
C51 O53 1.279 . S
O52 Cd44 2.223 . S
O52 C51 1.315 . S
O53 Cd43 2.240 . S
O53 C51 1.279 . S
O54 Cd44 2.297 . S
O54 C49 1.247 . S
O55 Cd44 2.439 . S
O55 C49 1.208 . S
O56 Cd57 2.223 . S
O56 C64 1.315 . S
Cd57 O56 2.223 . S
Cd57 O60 2.297 . S
Cd57 O61 2.439 . S
Cd57 O67 2.240 . S
Cd58 O59 2.240 . S
Cd58 O66 2.223 . S
Cd58 O68 2.297 . S
Cd58 O69 2.439 . S
O59 Cd58 2.240 . S
O59 C64 1.279 . S
O60 Cd57 2.297 . S
O60 C62 1.247 . S
O61 Cd57 2.439 . S
O61 C62 1.208 . S
C62 O60 1.247 . S
C62 O61 1.208 . S
C63 O68 1.247 . S
C63 O69 1.208 . S
C64 O56 1.315 . S
C64 O59 1.279 . S
C65 O66 1.315 . S
C65 O67 1.279 . S
O66 Cd58 2.223 . S
O66 C65 1.315 . S
O67 Cd57 2.240 . S
O67 C65 1.279 . S
O68 Cd58 2.297 . S
O68 C63 1.247 . S
O69 Cd58 2.439 . S
O69 C63 1.208 . S
O70 Cd71 2.223 . S
O70 C78 1.315 . S
Cd71 O70 2.223 . S
Cd71 O74 2.297 . S
Cd71 O75 2.439 . S
Cd71 O81 2.240 . S
Cd72 O73 2.240 . S
Cd72 O80 2.223 . S
Cd72 O82 2.297 . S
Cd72 O83 2.439 . S
O73 Cd72 2.240 . S
O73 C78 1.279 . S
O74 Cd71 2.297 . S
O74 C76 1.247 . S
O75 Cd71 2.439 . S
O75 C76 1.208 . S
C76 O74 1.247 . S
C76 O75 1.208 . S
C77 O82 1.247 . S
C77 O83 1.208 . S
C78 O70 1.315 . S
C78 O73 1.279 . S
C79 O80 1.315 . S
C79 O81 1.279 . S
O80 Cd72 2.223 . S
O80 C79 1.315 . S
O81 Cd71 2.240 . S
O81 C79 1.279 . S
O82 Cd72 2.297 . S
O82 C77 1.247 . S
O83 Cd72 2.439 . S
O83 C77 1.208 . S
O84 Cd85 2.223 . S
O84 C92 1.315 . S
Cd85 O84 2.223 . S
Cd85 O88 2.297 . S
Cd85 O89 2.439 . S
Cd85 O95 2.240 . S
Cd86 O87 2.240 . S
Cd86 O94 2.223 . S
Cd86 O96 2.297 . S
Cd86 O97 2.439 . S
O87 Cd86 2.240 . S
O87 C92 1.279 . S
O88 Cd85 2.297 . S
O88 C90 1.247 . S
O89 Cd85 2.439 . S
O89 C90 1.208 . S
C90 O88 1.247 . S
C90 O89 1.208 . S
C91 O96 1.247 . S
C91 O97 1.208 . S
C92 O84 1.315 . S
C92 O87 1.279 . S
C93 O94 1.315 . S
C93 O95 1.279 . S
O94 Cd86 2.223 . S
O94 C93 1.315 . S
O95 Cd85 2.240 . S
O95 C93 1.279 . S
O96 Cd86 2.297 . S
O96 C91 1.247 . S
O97 Cd86 2.439 . S
O97 C91 1.208 . S
O98 Cd99 2.223 . S
O98 C106 1.315 . S
Cd99 O98 2.223 . S
Cd99 O102 2.297 . S
Cd99 O103 2.439 . S
Cd99 O109 2.240 . S
Cd100 O101 2.240 . S
Cd100 O108 2.223 . S
Cd100 O110 2.297 . S
Cd100 O111 2.439 . S
O101 Cd100 2.240 . S
O101 C106 1.279 . S
O102 Cd99 2.297 . S
O102 C104 1.247 . S
O103 Cd99 2.439 . S
O103 C104 1.208 . S
C104 O102 1.247 . S
C104 O103 1.208 . S
C105 O110 1.247 . S
C105 O111 1.208 . S
C106 O98 1.315 . S
C106 O101 1.279 . S
C107 O108 1.315 . S
C107 O109 1.279 . S
O108 Cd100 2.223 . S
O108 C107 1.315 . S
O109 Cd99 2.240 . S
O109 C107 1.279 . S
O110 Cd100 2.297 . S
O110 C105 1.247 . S
O111 Cd100 2.439 . S
O111 C105 1.208 . S
O112 Cd113 2.223 . S
O112 C120 1.315 . S
Cd113 O112 2.223 . S
Cd113 O116 2.297 . S
Cd113 O117 2.439 . S
Cd113 O123 2.240 . S
Cd114 O115 2.240 . S
Cd114 O122 2.223 . S
Cd114 O124 2.297 . S
Cd114 O125 2.439 . S
O115 Cd114 2.240 . S
O115 C120 1.279 . S
O116 Cd113 2.297 . S
O116 C118 1.247 . S
O117 Cd113 2.439 . S
O117 C118 1.208 . S
C118 O116 1.247 . S
C118 O117 1.208 . S
C119 O124 1.247 . S
C119 O125 1.208 . S
C120 O112 1.315 . S
C120 O115 1.279 . S
C121 O122 1.315 . S
C121 O123 1.279 . S
O122 Cd114 2.223 . S
O122 C121 1.315 . S
O123 Cd113 2.240 . S
O123 C121 1.279 . S
O124 Cd114 2.297 . S
O124 C119 1.247 . S
O125 Cd114 2.439 . S
O125 C119 1.208 . S
O126 Cd127 2.223 . S
O126 C134 1.315 . S
Cd127 O126 2.223 . S
Cd127 O130 2.297 . S
Cd127 O131 2.439 . S
Cd127 O137 2.240 . S
Cd128 O129 2.240 . S
Cd128 O136 2.223 . S
Cd128 O138 2.297 . S
Cd128 O139 2.439 . S
O129 Cd128 2.240 . S
O129 C134 1.279 . S
O130 Cd127 2.297 . S
O130 C132 1.247 . S
O131 Cd127 2.439 . S
O131 C132 1.208 . S
C132 O130 1.247 . S
C132 O131 1.208 . S
C133 O138 1.247 . S
C133 O139 1.208 . S
C134 O126 1.315 . S
C134 O129 1.279 . S
C135 O136 1.315 . S
C135 O137 1.279 . S
O136 Cd128 2.223 . S
O136 C135 1.315 . S
O137 Cd127 2.240 . S
O137 C135 1.279 . S
O138 Cd128 2.297 . S
O138 C133 1.247 . S
O139 Cd128 2.439 . S
O139 C133 1.208 . S
O140 Cd141 2.223 . S
O140 C148 1.315 . S
Cd141 O140 2.223 . S
Cd141 O144 2.297 . S
Cd141 O145 2.439 . S
Cd141 O151 2.240 . S
Cd142 O143 2.240 . S
Cd142 O150 2.223 . S
Cd142 O152 2.297 . S
Cd142 O153 2.439 . S
O143 Cd142 2.240 . S
O143 C148 1.279 . S
O144 Cd141 2.297 . S
O144 C146 1.247 . S
O145 Cd141 2.439 . S
O145 C146 1.208 . S
C146 O144 1.247 . S
C146 O145 1.208 . S
C147 O152 1.247 . S
C147 O153 1.208 . S
C148 O140 1.315 . S
C148 O143 1.279 . S
C149 O150 1.315 . S
C149 O151 1.279 . S
O150 Cd142 2.223 . S
O150 C149 1.315 . S
O151 Cd141 2.240 . S
O151 C149 1.279 . S
O152 Cd142 2.297 . S
O152 C147 1.247 . S
O153 Cd142 2.439 . S
O153 C147 1.208 . S
O154 Cd155 2.223 . S
O154 C162 1.315 . S
Cd155 O154 2.223 . S
Cd155 O158 2.297 . S
Cd155 O159 2.439 . S
Cd155 O165 2.240 . S
Cd156 O157 2.240 . S
Cd156 O164 2.223 . S
Cd156 O166 2.297 . S
Cd156 O167 2.439 . S
O157 Cd156 2.240 . S
O157 C162 1.279 . S
O158 Cd155 2.297 . S
O158 C160 1.247 . S
O159 Cd155 2.439 . S
O159 C160 1.208 . S
C160 O158 1.247 . S
C160 O159 1.208 . S
C161 O166 1.247 . S
C161 O167 1.208 . S
C162 O154 1.315 . S
C162 O157 1.279 . S
C163 O164 1.315 . S
C163 O165 1.279 . S
O164 Cd156 2.223 . S
O164 C163 1.315 . S
O165 Cd155 2.240 . S
O165 C163 1.279 . S
O166 Cd156 2.297 . S
O166 C161 1.247 . S
O167 Cd156 2.439 . S
O167 C161 1.208 . S
O168 Cd169 2.223 . S
O168 C176 1.315 . S
Cd169 O168 2.223 . S
Cd169 O172 2.297 . S
Cd169 O173 2.439 . S
Cd169 O179 2.240 . S
Cd170 O171 2.240 . S
Cd170 O178 2.223 . S
Cd170 O180 2.297 . S
Cd170 O181 2.439 . S
O171 Cd170 2.240 . S
O171 C176 1.279 . S
O172 Cd169 2.297 . S
O172 C174 1.247 . S
O173 Cd169 2.439 . S
O173 C174 1.208 . S
C174 O172 1.247 . S
C174 O173 1.208 . S
C175 O180 1.247 . S
C175 O181 1.208 . S
C176 O168 1.315 . S
C176 O171 1.279 . S
C177 O178 1.315 . S
C177 O179 1.279 . S
O178 Cd170 2.223 . S
O178 C177 1.315 . S
O179 Cd169 2.240 . S
O179 C177 1.279 . S
O180 Cd170 2.297 . S
O180 C175 1.247 . S
O181 Cd170 2.439 . S
O181 C175 1.208 . S
O182 Cd183 2.223 . S
O182 C190 1.315 . S
Cd183 O182 2.223 . S
Cd183 O186 2.297 . S
Cd183 O187 2.439 . S
Cd183 O193 2.240 . S
Cd184 O185 2.240 . S
Cd184 O192 2.223 . S
Cd184 O194 2.297 . S
Cd184 O195 2.439 . S
O185 Cd184 2.240 . S
O185 C190 1.279 . S
O186 Cd183 2.297 . S
O186 C188 1.247 . S
O187 Cd183 2.439 . S
O187 C188 1.208 . S
C188 O186 1.247 . S
C188 O187 1.208 . S
C189 O194 1.247 . S
C189 O195 1.208 . S
C190 O182 1.315 . S
C190 O185 1.279 . S
C191 O192 1.315 . S
C191 O193 1.279 . S
O192 Cd184 2.223 . S
O192 C191 1.315 . S
O193 Cd183 2.240 . S
O193 C191 1.279 . S
O194 Cd184 2.297 . S
O194 C189 1.247 . S
O195 Cd184 2.439 . S
O195 C189 1.208 . S
O196 Cd197 2.223 . S
O196 C204 1.315 . S
Cd197 O196 2.223 . S
Cd197 O200 2.297 . S
Cd197 O201 2.439 . S
Cd197 O207 2.240 . S
Cd198 O199 2.240 . S
Cd198 O206 2.223 . S
Cd198 O208 2.297 . S
Cd198 O209 2.439 . S
O199 Cd198 2.240 . S
O199 C204 1.279 . S
O200 Cd197 2.297 . S
O200 C202 1.247 . S
O201 Cd197 2.439 . S
O201 C202 1.208 . S
C202 O200 1.247 . S
C202 O201 1.208 . S
C203 O208 1.247 . S
C203 O209 1.208 . S
C204 O196 1.315 . S
C204 O199 1.279 . S
C205 O206 1.315 . S
C205 O207 1.279 . S
O206 Cd198 2.223 . S
O206 C205 1.315 . S
O207 Cd197 2.240 . S
O207 C205 1.279 . S
O208 Cd198 2.297 . S
O208 C203 1.247 . S
O209 Cd198 2.439 . S
O209 C203 1.208 . S
O210 Cd211 2.223 . S
O210 C218 1.315 . S
Cd211 O210 2.223 . S
Cd211 O214 2.297 . S
Cd211 O215 2.439 . S
Cd211 O221 2.240 . S
Cd212 O213 2.240 . S
Cd212 O220 2.223 . S
Cd212 O222 2.297 . S
Cd212 O223 2.439 . S
O213 Cd212 2.240 . S
O213 C218 1.279 . S
O214 Cd211 2.297 . S
O214 C216 1.247 . S
O215 Cd211 2.439 . S
O215 C216 1.208 . S
C216 O214 1.247 . S
C216 O215 1.208 . S
C217 O222 1.247 . S
C217 O223 1.208 . S
C218 O210 1.315 . S
C218 O213 1.279 . S
C219 O220 1.315 . S
C219 O221 1.279 . S
O220 Cd212 2.223 . S
O220 C219 1.315 . S
O221 Cd211 2.240 . S
O221 C219 1.279 . S
O222 Cd212 2.297 . S
O222 C217 1.247 . S
O223 Cd212 2.439 . S
O223 C217 1.208 . S
O224 Cd225 2.223 . S
O224 C232 1.315 . S
Cd225 O224 2.223 . S
Cd225 O228 2.297 . S
Cd225 O229 2.439 . S
Cd225 O235 2.240 . S
Cd226 O227 2.240 . S
Cd226 O234 2.223 . S
Cd226 O236 2.297 . S
Cd226 O237 2.439 . S
O227 Cd226 2.240 . S
O227 C232 1.279 . S
O228 Cd225 2.297 . S
O228 C230 1.247 . S
O229 Cd225 2.439 . S
O229 C230 1.208 . S
C230 O228 1.247 . S
C230 O229 1.208 . S
C231 O236 1.247 . S
C231 O237 1.208 . S
C232 O224 1.315 . S
C232 O227 1.279 . S
C233 O234 1.315 . S
C233 O235 1.279 . S
O234 Cd226 2.223 . S
O234 C233 1.315 . S
O235 Cd225 2.240 . S
O235 C233 1.279 . S
O236 Cd226 2.297 . S
O236 C231 1.247 . S
O237 Cd226 2.439 . S
O237 C231 1.208 . S
O238 Cd239 2.223 . S
O238 C246 1.315 . S
Cd239 O238 2.223 . S
Cd239 O242 2.297 . S
Cd239 O243 2.439 . S
Cd239 O249 2.240 . S
Cd240 O241 2.240 . S
Cd240 O248 2.223 . S
Cd240 O250 2.297 . S
Cd240 O251 2.439 . S
O241 Cd240 2.240 . S
O241 C246 1.279 . S
O242 Cd239 2.297 . S
O242 C244 1.247 . S
O243 Cd239 2.439 . S
O243 C244 1.208 . S
C244 O242 1.247 . S
C244 O243 1.208 . S
C245 O250 1.247 . S
C245 O251 1.208 . S
C246 O238 1.315 . S
C246 O241 1.279 . S
C247 O248 1.315 . S
C247 O249 1.279 . S
O248 Cd240 2.223 . S
O248 C247 1.315 . S
O249 Cd239 2.240 . S
O249 C247 1.279 . S
O250 Cd240 2.297 . S
O250 C245 1.247 . S
O251 Cd240 2.439 . S
O251 C245 1.208 . S
O252 Cd253 2.223 . S
O252 C260 1.315 . S
Cd253 O252 2.223 . S
Cd253 O256 2.297 . S
Cd253 O257 2.439 . S
Cd253 O263 2.240 . S
Cd254 O255 2.240 . S
Cd254 O262 2.223 . S
Cd254 O264 2.297 . S
Cd254 O265 2.439 . S
O255 Cd254 2.240 . S
O255 C260 1.279 . S
O256 Cd253 2.297 . S
O256 C258 1.247 . S
O257 Cd253 2.439 . S
O257 C258 1.208 . S
C258 O256 1.247 . S
C258 O257 1.208 . S
C259 O264 1.247 . S
C259 O265 1.208 . S
C260 O252 1.315 . S
C260 O255 1.279 . S
C261 O262 1.315 . S
C261 O263 1.279 . S
O262 Cd254 2.223 . S
O262 C261 1.315 . S
O263 Cd253 2.240 . S
O263 C261 1.279 . S
O264 Cd254 2.297 . S
O264 C259 1.247 . S
O265 Cd254 2.439 . S
O265 C259 1.208 . S
O266 Cd267 2.223 . S
O266 C274 1.315 . S
Cd267 O266 2.223 . S
Cd267 O270 2.297 . S
Cd267 O271 2.439 . S
Cd267 O277 2.240 . S
Cd268 O269 2.240 . S
Cd268 O276 2.223 . S
Cd268 O278 2.297 . S
Cd268 O279 2.439 . S
O269 Cd268 2.240 . S
O269 C274 1.279 . S
O270 Cd267 2.297 . S
O270 C272 1.247 . S
O271 Cd267 2.439 . S
O271 C272 1.208 . S
C272 O270 1.247 . S
C272 O271 1.208 . S
C273 O278 1.247 . S
C273 O279 1.208 . S
C274 O266 1.315 . S
C274 O269 1.279 . S
C275 O276 1.315 . S
C275 O277 1.279 . S
O276 Cd268 2.223 . S
O276 C275 1.315 . S
O277 Cd267 2.240 . S
O277 C275 1.279 . S
O278 Cd268 2.297 . S
O278 C273 1.247 . S
O279 Cd268 2.439 . S
O279 C273 1.208 . S
O280 Cd281 2.223 . S
O280 C288 1.315 . S
Cd281 O280 2.223 . S
Cd281 O284 2.297 . S
Cd281 O285 2.439 . S
Cd281 O291 2.240 . S
Cd282 O283 2.240 . S
Cd282 O290 2.223 . S
Cd282 O292 2.297 . S
Cd282 O293 2.439 . S
O283 Cd282 2.240 . S
O283 C288 1.279 . S
O284 Cd281 2.297 . S
O284 C286 1.247 . S
O285 Cd281 2.439 . S
O285 C286 1.208 . S
C286 O284 1.247 . S
C286 O285 1.208 . S
C287 O292 1.247 . S
C287 O293 1.208 . S
C288 O280 1.315 . S
C288 O283 1.279 . S
C289 O290 1.315 . S
C289 O291 1.279 . S
O290 Cd282 2.223 . S
O290 C289 1.315 . S
O291 Cd281 2.240 . S
O291 C289 1.279 . S
O292 Cd282 2.297 . S
O292 C287 1.247 . S
O293 Cd282 2.439 . S
O293 C287 1.208 . S
O294 Cd295 2.223 . S
O294 C302 1.315 . S
Cd295 O294 2.223 . S
Cd295 O298 2.297 . S
Cd295 O299 2.439 . S
Cd295 O305 2.240 . S
Cd296 O297 2.240 . S
Cd296 O304 2.223 . S
Cd296 O306 2.297 . S
Cd296 O307 2.439 . S
O297 Cd296 2.240 . S
O297 C302 1.279 . S
O298 Cd295 2.297 . S
O298 C300 1.247 . S
O299 Cd295 2.439 . S
O299 C300 1.208 . S
C300 O298 1.247 . S
C300 O299 1.208 . S
C301 O306 1.247 . S
C301 O307 1.208 . S
C302 O294 1.315 . S
C302 O297 1.279 . S
C303 O304 1.315 . S
C303 O305 1.279 . S
O304 Cd296 2.223 . S
O304 C303 1.315 . S
O305 Cd295 2.240 . S
O305 C303 1.279 . S
O306 Cd296 2.297 . S
O306 C301 1.247 . S
O307 Cd296 2.439 . S
O307 C301 1.208 . S
O308 Cd309 2.223 . S
O308 C316 1.315 . S
Cd309 O308 2.223 . S
Cd309 O312 2.297 . S
Cd309 O313 2.439 . S
Cd309 O319 2.240 . S
Cd310 O311 2.240 . S
Cd310 O318 2.223 . S
Cd310 O320 2.297 . S
Cd310 O321 2.439 . S
O311 Cd310 2.240 . S
O311 C316 1.279 . S
O312 Cd309 2.297 . S
O312 C314 1.247 . S
O313 Cd309 2.439 . S
O313 C314 1.208 . S
C314 O312 1.247 . S
C314 O313 1.208 . S
C315 O320 1.247 . S
C315 O321 1.208 . S
C316 O308 1.315 . S
C316 O311 1.279 . S
C317 O318 1.315 . S
C317 O319 1.279 . S
O318 Cd310 2.223 . S
O318 C317 1.315 . S
O319 Cd309 2.240 . S
O319 C317 1.279 . S
O320 Cd310 2.297 . S
O320 C315 1.247 . S
O321 Cd310 2.439 . S
O321 C315 1.208 . S
O322 Cd323 2.223 . S
O322 C330 1.315 . S
Cd323 O322 2.223 . S
Cd323 O326 2.297 . S
Cd323 O327 2.439 . S
Cd323 O333 2.240 . S
Cd324 O325 2.240 . S
Cd324 O332 2.223 . S
Cd324 O334 2.297 . S
Cd324 O335 2.439 . S
O325 Cd324 2.240 . S
O325 C330 1.279 . S
O326 Cd323 2.297 . S
O326 C328 1.247 . S
O327 Cd323 2.439 . S
O327 C328 1.208 . S
C328 O326 1.247 . S
C328 O327 1.208 . S
C329 O334 1.247 . S
C329 O335 1.208 . S
C330 O322 1.315 . S
C330 O325 1.279 . S
C331 O332 1.315 . S
C331 O333 1.279 . S
O332 Cd324 2.223 . S
O332 C331 1.315 . S
O333 Cd323 2.240 . S
O333 C331 1.279 . S
O334 Cd324 2.297 . S
O334 C329 1.247 . S
O335 Cd324 2.439 . S
O335 C329 1.208 . S
O336 Cd337 2.223 . S
O336 C344 1.315 . S
Cd337 O336 2.223 . S
Cd337 O340 2.297 . S
Cd337 O341 2.439 . S
Cd337 O347 2.240 . S
Cd338 O339 2.240 . S
Cd338 O346 2.223 . S
Cd338 O348 2.297 . S
Cd338 O349 2.439 . S
O339 Cd338 2.240 . S
O339 C344 1.279 . S
O340 Cd337 2.297 . S
O340 C342 1.247 . S
O341 Cd337 2.439 . S
O341 C342 1.208 . S
C342 O340 1.247 . S
C342 O341 1.208 . S
C343 O348 1.247 . S
C343 O349 1.208 . S
C344 O336 1.315 . S
C344 O339 1.279 . S
C345 O346 1.315 . S
C345 O347 1.279 . S
O346 Cd338 2.223 . S
O346 C345 1.315 . S
O347 Cd337 2.240 . S
O347 C345 1.279 . S
O348 Cd338 2.297 . S
O348 C343 1.247 . S
O349 Cd338 2.439 . S
O349 C343 1.208 . S
O350 Cd351 2.223 . S
O350 C358 1.315 . S
Cd351 O350 2.223 . S
Cd351 O354 2.297 . S
Cd351 O355 2.439 . S
Cd351 O361 2.240 . S
Cd352 O353 2.240 . S
Cd352 O360 2.223 . S
Cd352 O362 2.297 . S
Cd352 O363 2.439 . S
O353 Cd352 2.240 . S
O353 C358 1.279 . S
O354 Cd351 2.297 . S
O354 C356 1.247 . S
O355 Cd351 2.439 . S
O355 C356 1.208 . S
C356 O354 1.247 . S
C356 O355 1.208 . S
C357 O362 1.247 . S
C357 O363 1.208 . S
C358 O350 1.315 . S
C358 O353 1.279 . S
C359 O360 1.315 . S
C359 O361 1.279 . S
O360 Cd352 2.223 . S
O360 C359 1.315 . S
O361 Cd351 2.240 . S
O361 C359 1.279 . S
O362 Cd352 2.297 . S
O362 C357 1.247 . S
O363 Cd352 2.439 . S
O363 C357 1.208 . S
O364 Cd365 2.223 . S
O364 C372 1.315 . S
Cd365 O364 2.223 . S
Cd365 O368 2.297 . S
Cd365 O369 2.439 . S
Cd365 O375 2.240 . S
Cd366 O367 2.240 . S
Cd366 O374 2.223 . S
Cd366 O376 2.297 . S
Cd366 O377 2.439 . S
O367 Cd366 2.240 . S
O367 C372 1.279 . S
O368 Cd365 2.297 . S
O368 C370 1.247 . S
O369 Cd365 2.439 . S
O369 C370 1.208 . S
C370 O368 1.247 . S
C370 O369 1.208 . S
C371 O376 1.247 . S
C371 O377 1.208 . S
C372 O364 1.315 . S
C372 O367 1.279 . S
C373 O374 1.315 . S
C373 O375 1.279 . S
O374 Cd366 2.223 . S
O374 C373 1.315 . S
O375 Cd365 2.240 . S
O375 C373 1.279 . S
O376 Cd366 2.297 . S
O376 C371 1.247 . S
O377 Cd366 2.439 . S
O377 C371 1.208 . S
O378 Cd379 2.223 . S
O378 C386 1.315 . S
Cd379 O378 2.223 . S
Cd379 O382 2.297 . S
Cd379 O383 2.439 . S
Cd379 O389 2.240 . S
Cd380 O381 2.240 . S
Cd380 O388 2.223 . S
Cd380 O390 2.297 . S
Cd380 O391 2.439 . S
O381 Cd380 2.240 . S
O381 C386 1.279 . S
O382 Cd379 2.297 . S
O382 C384 1.247 . S
O383 Cd379 2.439 . S
O383 C384 1.208 . S
C384 O382 1.247 . S
C384 O383 1.208 . S
C385 O390 1.247 . S
C385 O391 1.208 . S
C386 O378 1.315 . S
C386 O381 1.279 . S
C387 O388 1.315 . S
C387 O389 1.279 . S
O388 Cd380 2.223 . S
O388 C387 1.315 . S
O389 Cd379 2.240 . S
O389 C387 1.279 . S
O390 Cd380 2.297 . S
O390 C385 1.247 . S
O391 Cd380 2.439 . S
O391 C385 1.208 . S
O392 Cd393 2.223 . S
O392 C400 1.315 . S
Cd393 O392 2.223 . S
Cd393 O396 2.297 . S
Cd393 O397 2.439 . S
Cd393 O403 2.240 . S
Cd394 O395 2.240 . S
Cd394 O402 2.223 . S
Cd394 O404 2.297 . S
Cd394 O405 2.439 . S
O395 Cd394 2.240 . S
O395 C400 1.279 . S
O396 Cd393 2.297 . S
O396 C398 1.247 . S
O397 Cd393 2.439 . S
O397 C398 1.208 . S
C398 O396 1.247 . S
C398 O397 1.208 . S
C399 O404 1.247 . S
C399 O405 1.208 . S
C400 O392 1.315 . S
C400 O395 1.279 . S
C401 O402 1.315 . S
C401 O403 1.279 . S
O402 Cd394 2.223 . S
O402 C401 1.315 . S
O403 Cd393 2.240 . S
O403 C401 1.279 . S
O404 Cd394 2.297 . S
O404 C399 1.247 . S
O405 Cd394 2.439 . S
O405 C399 1.208 . S
O406 Cd407 2.223 . S
O406 C414 1.315 . S
Cd407 O406 2.223 . S
Cd407 O410 2.297 . S
Cd407 O411 2.439 . S
Cd407 O417 2.240 . S
Cd408 O409 2.240 . S
Cd408 O416 2.223 . S
Cd408 O418 2.297 . S
Cd408 O419 2.439 . S
O409 Cd408 2.240 . S
O409 C414 1.279 . S
O410 Cd407 2.297 . S
O410 C412 1.247 . S
O411 Cd407 2.439 . S
O411 C412 1.208 . S
C412 O410 1.247 . S
C412 O411 1.208 . S
C413 O418 1.247 . S
C413 O419 1.208 . S
C414 O406 1.315 . S
C414 O409 1.279 . S
C415 O416 1.315 . S
C415 O417 1.279 . S
O416 Cd408 2.223 . S
O416 C415 1.315 . S
O417 Cd407 2.240 . S
O417 C415 1.279 . S
O418 Cd408 2.297 . S
O418 C413 1.247 . S
O419 Cd408 2.439 . S
O419 C413 1.208 . S
O420 Cd421 2.223 . S
O420 C428 1.315 . S
Cd421 O420 2.223 . S
Cd421 O424 2.297 . S
Cd421 O425 2.439 . S
Cd421 O431 2.240 . S
Cd422 O423 2.240 . S
Cd422 O430 2.223 . S
Cd422 O432 2.297 . S
Cd422 O433 2.439 . S
O423 Cd422 2.240 . S
O423 C428 1.279 . S
O424 Cd421 2.297 . S
O424 C426 1.247 . S
O425 Cd421 2.439 . S
O425 C426 1.208 . S
C426 O424 1.247 . S
C426 O425 1.208 . S
C427 O432 1.247 . S
C427 O433 1.208 . S
C428 O420 1.315 . S
C428 O423 1.279 . S
C429 O430 1.315 . S
C429 O431 1.279 . S
O430 Cd422 2.223 . S
O430 C429 1.315 . S
O431 Cd421 2.240 . S
O431 C429 1.279 . S
O432 Cd422 2.297 . S
O432 C427 1.247 . S
O433 Cd422 2.439 . S
O433 C427 1.208 . S
O434 Cd435 2.223 . S
O434 C442 1.315 . S
Cd435 O434 2.223 . S
Cd435 O438 2.297 . S
Cd435 O439 2.439 . S
Cd435 O445 2.240 . S
Cd436 O437 2.240 . S
Cd436 O444 2.223 . S
Cd436 O446 2.297 . S
Cd436 O447 2.439 . S
O437 Cd436 2.240 . S
O437 C442 1.279 . S
O438 Cd435 2.297 . S
O438 C440 1.247 . S
O439 Cd435 2.439 . S
O439 C440 1.208 . S
C440 O438 1.247 . S
C440 O439 1.208 . S
C441 O446 1.247 . S
C441 O447 1.208 . S
C442 O434 1.315 . S
C442 O437 1.279 . S
C443 O444 1.315 . S
C443 O445 1.279 . S
O444 Cd436 2.223 . S
O444 C443 1.315 . S
O445 Cd435 2.240 . S
O445 C443 1.279 . S
O446 Cd436 2.297 . S
O446 C441 1.247 . S
O447 Cd436 2.439 . S
O447 C441 1.208 . S
O448 Cd449 2.223 . S
O448 C456 1.315 . S
Cd449 O448 2.223 . S
Cd449 O452 2.297 . S
Cd449 O453 2.439 . S
Cd449 O459 2.240 . S
Cd450 O451 2.240 . S
Cd450 O458 2.223 . S
Cd450 O460 2.297 . S
Cd450 O461 2.439 . S
O451 Cd450 2.240 . S
O451 C456 1.279 . S
O452 Cd449 2.297 . S
O452 C454 1.247 . S
O453 Cd449 2.439 . S
O453 C454 1.208 . S
C454 O452 1.247 . S
C454 O453 1.208 . S
C455 O460 1.247 . S
C455 O461 1.208 . S
C456 O448 1.315 . S
C456 O451 1.279 . S
C457 O458 1.315 . S
C457 O459 1.279 . S
O458 Cd450 2.223 . S
O458 C457 1.315 . S
O459 Cd449 2.240 . S
O459 C457 1.279 . S
O460 Cd450 2.297 . S
O460 C455 1.247 . S
O461 Cd450 2.439 . S
O461 C455 1.208 . S
O462 Cd463 2.223 . S
O462 C470 1.315 . S
Cd463 O462 2.223 . S
Cd463 O466 2.297 . S
Cd463 O467 2.439 . S
Cd463 O473 2.240 . S
Cd464 O465 2.240 . S
Cd464 O472 2.223 . S
Cd464 O474 2.297 . S
Cd464 O475 2.439 . S
O465 Cd464 2.240 . S
O465 C470 1.279 . S
O466 Cd463 2.297 . S
O466 C468 1.247 . S
O467 Cd463 2.439 . S
O467 C468 1.208 . S
C468 O466 1.247 . S
C468 O467 1.208 . S
C469 O474 1.247 . S
C469 O475 1.208 . S
C470 O462 1.315 . S
C470 O465 1.279 . S
C471 O472 1.315 . S
C471 O473 1.279 . S
O472 Cd464 2.223 . S
O472 C471 1.315 . S
O473 Cd463 2.240 . S
O473 C471 1.279 . S
O474 Cd464 2.297 . S
O474 C469 1.247 . S
O475 Cd464 2.439 . S
O475 C469 1.208 . S
O476 Cd477 2.223 . S
O476 C484 1.315 . S
Cd477 O476 2.223 . S
Cd477 O480 2.297 . S
Cd477 O481 2.439 . S
Cd477 O487 2.240 . S
Cd478 O479 2.240 . S
Cd478 O486 2.223 . S
Cd478 O488 2.297 . S
Cd478 O489 2.439 . S
O479 Cd478 2.240 . S
O479 C484 1.279 . S
O480 Cd477 2.297 . S
O480 C482 1.247 . S
O481 Cd477 2.439 . S
O481 C482 1.208 . S
C482 O480 1.247 . S
C482 O481 1.208 . S
C483 O488 1.247 . S
C483 O489 1.208 . S
C484 O476 1.315 . S
C484 O479 1.279 . S
C485 O486 1.315 . S
C485 O487 1.279 . S
O486 Cd478 2.223 . S
O486 C485 1.315 . S
O487 Cd477 2.240 . S
O487 C485 1.279 . S
O488 Cd478 2.297 . S
O488 C483 1.247 . S
O489 Cd478 2.439 . S
O489 C483 1.208 . S
O490 Cd491 2.223 . S
O490 C498 1.315 . S
Cd491 O490 2.223 . S
Cd491 O494 2.297 . S
Cd491 O495 2.439 . S
Cd491 O501 2.240 . S
Cd492 O493 2.240 . S
Cd492 O500 2.223 . S
Cd492 O502 2.297 . S
Cd492 O503 2.439 . S
O493 Cd492 2.240 . S
O493 C498 1.279 . S
O494 Cd491 2.297 . S
O494 C496 1.247 . S
O495 Cd491 2.439 . S
O495 C496 1.208 . S
C496 O494 1.247 . S
C496 O495 1.208 . S
C497 O502 1.247 . S
C497 O503 1.208 . S
C498 O490 1.315 . S
C498 O493 1.279 . S
C499 O500 1.315 . S
C499 O501 1.279 . S
O500 Cd492 2.223 . S
O500 C499 1.315 . S
O501 Cd491 2.240 . S
O501 C499 1.279 . S
O502 Cd492 2.297 . S
O502 C497 1.247 . S
O503 Cd492 2.439 . S
O503 C497 1.208 . S
O504 Cd505 2.223 . S
O504 C512 1.315 . S
Cd505 O504 2.223 . S
Cd505 O508 2.297 . S
Cd505 O509 2.439 . S
Cd505 O515 2.240 . S
Cd506 O507 2.240 . S
Cd506 O514 2.223 . S
Cd506 O516 2.297 . S
Cd506 O517 2.439 . S
O507 Cd506 2.240 . S
O507 C512 1.279 . S
O508 Cd505 2.297 . S
O508 C510 1.247 . S
O509 Cd505 2.439 . S
O509 C510 1.208 . S
C510 O508 1.247 . S
C510 O509 1.208 . S
C511 O516 1.247 . S
C511 O517 1.208 . S
C512 O504 1.315 . S
C512 O507 1.279 . S
C513 O514 1.315 . S
C513 O515 1.279 . S
O514 Cd506 2.223 . S
O514 C513 1.315 . S
O515 Cd505 2.240 . S
O515 C513 1.279 . S
O516 Cd506 2.297 . S
O516 C511 1.247 . S
O517 Cd506 2.439 . S
O517 C511 1.208 . S
O518 Cd519 2.223 . S
O518 C526 1.315 . S
Cd519 O518 2.223 . S
Cd519 O522 2.297 . S
Cd519 O523 2.439 . S
Cd519 O529 2.240 . S
Cd520 O521 2.240 . S
Cd520 O528 2.223 . S
Cd520 O530 2.297 . S
Cd520 O531 2.439 . S
O521 Cd520 2.240 . S
O521 C526 1.279 . S
O522 Cd519 2.297 . S
O522 C524 1.247 . S
O523 Cd519 2.439 . S
O523 C524 1.208 . S
C524 O522 1.247 . S
C524 O523 1.208 . S
C525 O530 1.247 . S
C525 O531 1.208 . S
C526 O518 1.315 . S
C526 O521 1.279 . S
C527 O528 1.315 . S
C527 O529 1.279 . S
O528 Cd520 2.223 . S
O528 C527 1.315 . S
O529 Cd519 2.240 . S
O529 C527 1.279 . S
O530 Cd520 2.297 . S
O530 C525 1.247 . S
O531 Cd520 2.439 . S
O531 C525 1.208 . S
O532 Cd533 2.223 . S
O532 C540 1.315 . S
Cd533 O532 2.223 . S
Cd533 O536 2.297 . S
Cd533 O537 2.439 . S
Cd533 O543 2.240 . S
Cd534 O535 2.240 . S
Cd534 O542 2.223 . S
Cd534 O544 2.297 . S
Cd534 O545 2.439 . S
O535 Cd534 2.240 . S
O535 C540 1.279 . S
O536 Cd533 2.297 . S
O536 C538 1.247 . S
O537 Cd533 2.439 . S
O537 C538 1.208 . S
C538 O536 1.247 . S
C538 O537 1.208 . S
C539 O544 1.247 . S
C539 O545 1.208 . S
C540 O532 1.315 . S
C540 O535 1.279 . S
C541 O542 1.315 . S
C541 O543 1.279 . S
O542 Cd534 2.223 . S
O542 C541 1.315 . S
O543 Cd533 2.240 . S
O543 C541 1.279 . S
O544 Cd534 2.297 . S
O544 C539 1.247 . S
O545 Cd534 2.439 . S
O545 C539 1.208 . S
O546 Cd547 2.223 . S
O546 C554 1.315 . S
Cd547 O546 2.223 . S
Cd547 O550 2.297 . S
Cd547 O551 2.439 . S
Cd547 O557 2.240 . S
Cd548 O549 2.240 . S
Cd548 O556 2.223 . S
Cd548 O558 2.297 . S
Cd548 O559 2.439 . S
O549 Cd548 2.240 . S
O549 C554 1.279 . S
O550 Cd547 2.297 . S
O550 C552 1.247 . S
O551 Cd547 2.439 . S
O551 C552 1.208 . S
C552 O550 1.247 . S
C552 O551 1.208 . S
C553 O558 1.247 . S
C553 O559 1.208 . S
C554 O546 1.315 . S
C554 O549 1.279 . S
C555 O556 1.315 . S
C555 O557 1.279 . S
O556 Cd548 2.223 . S
O556 C555 1.315 . S
O557 Cd547 2.240 . S
O557 C555 1.279 . S
O558 Cd548 2.297 . S
O558 C553 1.247 . S
O559 Cd548 2.439 . S
O559 C553 1.208 . S
O560 Cd561 2.223 . S
O560 C568 1.315 . S
Cd561 O560 2.223 . S
Cd561 O564 2.297 . S
Cd561 O565 2.439 . S
Cd561 O571 2.240 . S
Cd562 O563 2.240 . S
Cd562 O570 2.223 . S
Cd562 O572 2.297 . S
Cd562 O573 2.439 . S
O563 Cd562 2.240 . S
O563 C568 1.279 . S
O564 Cd561 2.297 . S
O564 C566 1.247 . S
O565 Cd561 2.439 . S
O565 C566 1.208 . S
C566 O564 1.247 . S
C566 O565 1.208 . S
C567 O572 1.247 . S
C567 O573 1.208 . S
C568 O560 1.315 . S
C568 O563 1.279 . S
C569 O570 1.315 . S
C569 O571 1.279 . S
O570 Cd562 2.223 . S
O570 C569 1.315 . S
O571 Cd561 2.240 . S
O571 C569 1.279 . S
O572 Cd562 2.297 . S
O572 C567 1.247 . S
O573 Cd562 2.439 . S
O573 C567 1.208 . S
O574 Cd575 2.223 . S
O574 C582 1.315 . S
Cd575 O574 2.223 . S
Cd575 O578 2.297 . S
Cd575 O579 2.439 . S
Cd575 O585 2.240 . S
Cd576 O577 2.240 . S
Cd576 O584 2.223 . S
Cd576 O586 2.297 . S
Cd576 O587 2.439 . S
O577 Cd576 2.240 . S
O577 C582 1.279 . S
O578 Cd575 2.297 . S
O578 C580 1.247 . S
O579 Cd575 2.439 . S
O579 C580 1.208 . S
C580 O578 1.247 . S
C580 O579 1.208 . S
C581 O586 1.247 . S
C581 O587 1.208 . S
C582 O574 1.315 . S
C582 O577 1.279 . S
C583 O584 1.315 . S
C583 O585 1.279 . S
O584 Cd576 2.223 . S
O584 C583 1.315 . S
O585 Cd575 2.240 . S
O585 C583 1.279 . S
O586 Cd576 2.297 . S
O586 C581 1.247 . S
O587 Cd576 2.439 . S
O587 C581 1.208 . S
O588 Cd589 2.223 . S
O588 C596 1.315 . S
Cd589 O588 2.223 . S
Cd589 O592 2.297 . S
Cd589 O593 2.439 . S
Cd589 O599 2.240 . S
Cd590 O591 2.240 . S
Cd590 O598 2.223 . S
Cd590 O600 2.297 . S
Cd590 O601 2.439 . S
O591 Cd590 2.240 . S
O591 C596 1.279 . S
O592 Cd589 2.297 . S
O592 C594 1.247 . S
O593 Cd589 2.439 . S
O593 C594 1.208 . S
C594 O592 1.247 . S
C594 O593 1.208 . S
C595 O600 1.247 . S
C595 O601 1.208 . S
C596 O588 1.315 . S
C596 O591 1.279 . S
C597 O598 1.315 . S
C597 O599 1.279 . S
O598 Cd590 2.223 . S
O598 C597 1.315 . S
O599 Cd589 2.240 . S
O599 C597 1.279 . S
O600 Cd590 2.297 . S
O600 C595 1.247 . S
O601 Cd590 2.439 . S
O601 C595 1.208 . S
O602 Cd603 2.223 . S
O602 C610 1.315 . S
Cd603 O602 2.223 . S
Cd603 O606 2.297 . S
Cd603 O607 2.439 . S
Cd603 O613 2.240 . S
Cd604 O605 2.240 . S
Cd604 O612 2.223 . S
Cd604 O614 2.297 . S
Cd604 O615 2.439 . S
O605 Cd604 2.240 . S
O605 C610 1.279 . S
O606 Cd603 2.297 . S
O606 C608 1.247 . S
O607 Cd603 2.439 . S
O607 C608 1.208 . S
C608 O606 1.247 . S
C608 O607 1.208 . S
C609 O614 1.247 . S
C609 O615 1.208 . S
C610 O602 1.315 . S
C610 O605 1.279 . S
C611 O612 1.315 . S
C611 O613 1.279 . S
O612 Cd604 2.223 . S
O612 C611 1.315 . S
O613 Cd603 2.240 . S
O613 C611 1.279 . S
O614 Cd604 2.297 . S
O614 C609 1.247 . S
O615 Cd604 2.439 . S
O615 C609 1.208 . S
O616 Cd617 2.223 . S
O616 C624 1.315 . S
Cd617 O616 2.223 . S
Cd617 O620 2.297 . S
Cd617 O621 2.439 . S
Cd617 O627 2.240 . S
Cd618 O619 2.240 . S
Cd618 O626 2.223 . S
Cd618 O628 2.297 . S
Cd618 O629 2.439 . S
O619 Cd618 2.240 . S
O619 C624 1.279 . S
O620 Cd617 2.297 . S
O620 C622 1.247 . S
O621 Cd617 2.439 . S
O621 C622 1.208 . S
C622 O620 1.247 . S
C622 O621 1.208 . S
C623 O628 1.247 . S
C623 O629 1.208 . S
C624 O616 1.315 . S
C624 O619 1.279 . S
C625 O626 1.315 . S
C625 O627 1.279 . S
O626 Cd618 2.223 . S
O626 C625 1.315 . S
O627 Cd617 2.240 . S
O627 C625 1.279 . S
O628 Cd618 2.297 . S
O628 C623 1.247 . S
O629 Cd618 2.439 . S
O629 C623 1.208 . S
O630 Cd631 2.223 . S
O630 C638 1.315 . S
Cd631 O630 2.223 . S
Cd631 O634 2.297 . S
Cd631 O635 2.439 . S
Cd631 O641 2.240 . S
Cd632 O633 2.240 . S
Cd632 O640 2.223 . S
Cd632 O642 2.297 . S
Cd632 O643 2.439 . S
O633 Cd632 2.240 . S
O633 C638 1.279 . S
O634 Cd631 2.297 . S
O634 C636 1.247 . S
O635 Cd631 2.439 . S
O635 C636 1.208 . S
C636 O634 1.247 . S
C636 O635 1.208 . S
C637 O642 1.247 . S
C637 O643 1.208 . S
C638 O630 1.315 . S
C638 O633 1.279 . S
C639 O640 1.315 . S
C639 O641 1.279 . S
O640 Cd632 2.223 . S
O640 C639 1.315 . S
O641 Cd631 2.240 . S
O641 C639 1.279 . S
O642 Cd632 2.297 . S
O642 C637 1.247 . S
O643 Cd632 2.439 . S
O643 C637 1.208 . S
O644 Cd645 2.223 . S
O644 C652 1.315 . S
Cd645 O644 2.223 . S
Cd645 O648 2.297 . S
Cd645 O649 2.439 . S
Cd645 O655 2.240 . S
Cd646 O647 2.240 . S
Cd646 O654 2.223 . S
Cd646 O656 2.297 . S
Cd646 O657 2.439 . S
O647 Cd646 2.240 . S
O647 C652 1.279 . S
O648 Cd645 2.297 . S
O648 C650 1.247 . S
O649 Cd645 2.439 . S
O649 C650 1.208 . S
C650 O648 1.247 . S
C650 O649 1.208 . S
C651 O656 1.247 . S
C651 O657 1.208 . S
C652 O644 1.315 . S
C652 O647 1.279 . S
C653 O654 1.315 . S
C653 O655 1.279 . S
O654 Cd646 2.223 . S
O654 C653 1.315 . S
O655 Cd645 2.240 . S
O655 C653 1.279 . S
O656 Cd646 2.297 . S
O656 C651 1.247 . S
O657 Cd646 2.439 . S
O657 C651 1.208 . S
O658 Cd659 2.223 . S
O658 C666 1.315 . S
Cd659 O658 2.223 . S
Cd659 O662 2.297 . S
Cd659 O663 2.439 . S
Cd659 O669 2.240 . S
Cd660 O661 2.240 . S
Cd660 O668 2.223 . S
Cd660 O670 2.297 . S
Cd660 O671 2.439 . S
O661 Cd660 2.240 . S
O661 C666 1.279 . S
O662 Cd659 2.297 . S
O662 C664 1.247 . S
O663 Cd659 2.439 . S
O663 C664 1.208 . S
C664 O662 1.247 . S
C664 O663 1.208 . S
C665 O670 1.247 . S
C665 O671 1.208 . S
C666 O658 1.315 . S
C666 O661 1.279 . S
C667 O668 1.315 . S
C667 O669 1.279 . S
O668 Cd660 2.223 . S
O668 C667 1.315 . S
O669 Cd659 2.240 . S
O669 C667 1.279 . S
O670 Cd660 2.297 . S
O670 C665 1.247 . S
O671 Cd660 2.439 . S
O671 C665 1.208 . S
H672 C678 0.930 . S
H673 C682 0.930 . S
H674 C687 0.929 . S
H675 C685 0.929 . S
H676 C680 0.929 . S
H677 C686 0.929 . S
C678 H672 0.930 . S
C678 C679 1.367 . S
C678 C686 1.378 . S
C679 C678 1.367 . S
C679 C687 1.433 . S
C680 H676 0.929 . S
C680 C682 1.378 . S
C680 C684 1.350 . S
C681 C684 1.463 . S
C681 C686 1.350 . S
C681 N689 1.427 . S
C682 H673 0.930 . S
C682 C680 1.378 . S
C682 C683 1.367 . S
C683 C682 1.367 . S
C683 C685 1.433 . S
C684 C680 1.350 . S
C684 C681 1.463 . S
C684 N688 1.427 . S
C685 H675 0.929 . S
C685 C683 1.433 . S
C685 N688 1.384 . S
C686 H677 0.929 . S
C686 C678 1.378 . S
C686 C681 1.350 . S
C687 H674 0.929 . S
C687 C679 1.433 . S
C687 N689 1.384 . S
N688 C684 1.427 . S
N688 C685 1.384 . S
N689 C681 1.427 . S
N689 C687 1.384 . S
H690 C696 0.930 . S
H691 C700 0.930 . S
H692 C705 0.929 . S
H693 C703 0.929 . S
H694 C698 0.929 . S
H695 C704 0.929 . S
C696 H690 0.930 . S
C696 C697 1.367 . S
C696 C704 1.378 . S
C697 C696 1.367 . S
C697 C705 1.433 . S
C698 H694 0.929 . S
C698 C700 1.378 . S
C698 C702 1.350 . S
C699 C702 1.463 . S
C699 C704 1.350 . S
C699 N707 1.427 . S
C700 H691 0.930 . S
C700 C698 1.378 . S
C700 C701 1.367 . S
C701 C700 1.367 . S
C701 C703 1.433 . S
C702 C698 1.350 . S
C702 C699 1.463 . S
C702 N706 1.427 . S
C703 H693 0.929 . S
C703 C701 1.433 . S
C703 N706 1.384 . S
C704 H695 0.929 . S
C704 C696 1.378 . S
C704 C699 1.350 . S
C705 H692 0.929 . S
C705 C697 1.433 . S
C705 N707 1.384 . S
N706 C702 1.427 . S
N706 C703 1.384 . S
N707 C699 1.427 . S
N707 C705 1.384 . S
H708 C714 0.930 . S
H709 C718 0.930 . S
H710 C723 0.929 . S
H711 C721 0.929 . S
H712 C716 0.929 . S
H713 C722 0.929 . S
C714 H708 0.930 . S
C714 C715 1.367 . S
C714 C722 1.378 . S
C715 C714 1.367 . S
C715 C723 1.433 . S
C716 H712 0.929 . S
C716 C718 1.378 . S
C716 C720 1.350 . S
C717 C720 1.463 . S
C717 C722 1.350 . S
C717 N725 1.427 . S
C718 H709 0.930 . S
C718 C716 1.378 . S
C718 C719 1.367 . S
C719 C718 1.367 . S
C719 C721 1.433 . S
C720 C716 1.350 . S
C720 C717 1.463 . S
C720 N724 1.427 . S
C721 H711 0.929 . S
C721 C719 1.433 . S
C721 N724 1.384 . S
C722 H713 0.929 . S
C722 C714 1.378 . S
C722 C717 1.350 . S
C723 H710 0.929 . S
C723 C715 1.433 . S
C723 N725 1.384 . S
N724 C720 1.427 . S
N724 C721 1.384 . S
N725 C717 1.427 . S
N725 C723 1.384 . S
H726 C732 0.930 . S
H727 C736 0.930 . S
H728 C741 0.929 . S
H729 C739 0.929 . S
H730 C734 0.929 . S
H731 C740 0.929 . S
C732 H726 0.930 . S
C732 C733 1.367 . S
C732 C740 1.378 . S
C733 C732 1.367 . S
C733 C741 1.433 . S
C734 H730 0.929 . S
C734 C736 1.378 . S
C734 C738 1.350 . S
C735 C738 1.463 . S
C735 C740 1.350 . S
C735 N743 1.427 . S
C736 H727 0.930 . S
C736 C734 1.378 . S
C736 C737 1.367 . S
C737 C736 1.367 . S
C737 C739 1.433 . S
C738 C734 1.350 . S
C738 C735 1.463 . S
C738 N742 1.427 . S
C739 H729 0.929 . S
C739 C737 1.433 . S
C739 N742 1.384 . S
C740 H731 0.929 . S
C740 C732 1.378 . S
C740 C735 1.350 . S
C741 H728 0.929 . S
C741 C733 1.433 . S
C741 N743 1.384 . S
N742 C738 1.427 . S
N742 C739 1.384 . S
N743 C735 1.427 . S
N743 C741 1.384 . S
H744 C750 0.930 . S
H745 C754 0.930 . S
H746 C759 0.929 . S
H747 C757 0.929 . S
H748 C752 0.929 . S
H749 C758 0.929 . S
C750 H744 0.930 . S
C750 C751 1.367 . S
C750 C758 1.378 . S
C751 C750 1.367 . S
C751 C759 1.433 . S
C752 H748 0.929 . S
C752 C754 1.378 . S
C752 C756 1.350 . S
C753 C756 1.463 . S
C753 C758 1.350 . S
C753 N761 1.427 . S
C754 H745 0.930 . S
C754 C752 1.378 . S
C754 C755 1.367 . S
C755 C754 1.367 . S
C755 C757 1.433 . S
C756 C752 1.350 . S
C756 C753 1.463 . S
C756 N760 1.427 . S
C757 H747 0.929 . S
C757 C755 1.433 . S
C757 N760 1.384 . S
C758 H749 0.929 . S
C758 C750 1.378 . S
C758 C753 1.350 . S
C759 H746 0.929 . S
C759 C751 1.433 . S
C759 N761 1.384 . S
N760 C756 1.427 . S
N760 C757 1.384 . S
N761 C753 1.427 . S
N761 C759 1.384 . S
H762 C768 0.930 . S
H763 C772 0.930 . S
H764 C777 0.929 . S
H765 C775 0.929 . S
H766 C770 0.929 . S
H767 C776 0.929 . S
C768 H762 0.930 . S
C768 C769 1.367 . S
C768 C776 1.378 . S
C769 C768 1.367 . S
C769 C777 1.433 . S
C770 H766 0.929 . S
C770 C772 1.378 . S
C770 C774 1.350 . S
C771 C774 1.463 . S
C771 C776 1.350 . S
C771 N779 1.427 . S
C772 H763 0.930 . S
C772 C770 1.378 . S
C772 C773 1.367 . S
C773 C772 1.367 . S
C773 C775 1.433 . S
C774 C770 1.350 . S
C774 C771 1.463 . S
C774 N778 1.427 . S
C775 H765 0.929 . S
C775 C773 1.433 . S
C775 N778 1.384 . S
C776 H767 0.929 . S
C776 C768 1.378 . S
C776 C771 1.350 . S
C777 H764 0.929 . S
C777 C769 1.433 . S
C777 N779 1.384 . S
N778 C774 1.427 . S
N778 C775 1.384 . S
N779 C771 1.427 . S
N779 C777 1.384 . S
H780 C786 0.930 . S
H781 C790 0.930 . S
H782 C795 0.929 . S
H783 C793 0.929 . S
H784 C788 0.929 . S
H785 C794 0.929 . S
C786 H780 0.930 . S
C786 C787 1.367 . S
C786 C794 1.378 . S
C787 C786 1.367 . S
C787 C795 1.433 . S
C788 H784 0.929 . S
C788 C790 1.378 . S
C788 C792 1.350 . S
C789 C792 1.463 . S
C789 C794 1.350 . S
C789 N797 1.427 . S
C790 H781 0.930 . S
C790 C788 1.378 . S
C790 C791 1.367 . S
C791 C790 1.367 . S
C791 C793 1.433 . S
C792 C788 1.350 . S
C792 C789 1.463 . S
C792 N796 1.427 . S
C793 H783 0.929 . S
C793 C791 1.433 . S
C793 N796 1.384 . S
C794 H785 0.929 . S
C794 C786 1.378 . S
C794 C789 1.350 . S
C795 H782 0.929 . S
C795 C787 1.433 . S
C795 N797 1.384 . S
N796 C792 1.427 . S
N796 C793 1.384 . S
N797 C789 1.427 . S
N797 C795 1.384 . S
H798 C804 0.930 . S
H799 C808 0.930 . S
H800 C813 0.929 . S
H801 C811 0.929 . S
H802 C806 0.929 . S
H803 C812 0.929 . S
C804 H798 0.930 . S
C804 C805 1.367 . S
C804 C812 1.378 . S
C805 C804 1.367 . S
C805 C813 1.433 . S
C806 H802 0.929 . S
C806 C808 1.378 . S
C806 C810 1.350 . S
C807 C810 1.463 . S
C807 C812 1.350 . S
C807 N815 1.427 . S
C808 H799 0.930 . S
C808 C806 1.378 . S
C808 C809 1.367 . S
C809 C808 1.367 . S
C809 C811 1.433 . S
C810 C806 1.350 . S
C810 C807 1.463 . S
C810 N814 1.427 . S
C811 H801 0.929 . S
C811 C809 1.433 . S
C811 N814 1.384 . S
C812 H803 0.929 . S
C812 C804 1.378 . S
C812 C807 1.350 . S
C813 H800 0.929 . S
C813 C805 1.433 . S
C813 N815 1.384 . S
N814 C810 1.427 . S
N814 C811 1.384 . S
N815 C807 1.427 . S
N815 C813 1.384 . S
H816 C822 0.930 . S
H817 C826 0.930 . S
H818 C831 0.929 . S
H819 C829 0.929 . S
H820 C824 0.929 . S
H821 C830 0.929 . S
C822 H816 0.930 . S
C822 C823 1.367 . S
C822 C830 1.378 . S
C823 C822 1.367 . S
C823 C831 1.433 . S
C824 H820 0.929 . S
C824 C826 1.378 . S
C824 C828 1.350 . S
C825 C828 1.463 . S
C825 C830 1.350 . S
C825 N833 1.427 . S
C826 H817 0.930 . S
C826 C824 1.378 . S
C826 C827 1.367 . S
C827 C826 1.367 . S
C827 C829 1.433 . S
C828 C824 1.350 . S
C828 C825 1.463 . S
C828 N832 1.427 . S
C829 H819 0.929 . S
C829 C827 1.433 . S
C829 N832 1.384 . S
C830 H821 0.929 . S
C830 C822 1.378 . S
C830 C825 1.350 . S
C831 H818 0.929 . S
C831 C823 1.433 . S
C831 N833 1.384 . S
N832 C828 1.427 . S
N832 C829 1.384 . S
N833 C825 1.427 . S
N833 C831 1.384 . S
H834 C840 0.930 . S
H835 C844 0.930 . S
H836 C849 0.929 . S
H837 C847 0.929 . S
H838 C842 0.929 . S
H839 C848 0.929 . S
C840 H834 0.930 . S
C840 C841 1.367 . S
C840 C848 1.378 . S
C841 C840 1.367 . S
C841 C849 1.433 . S
C842 H838 0.929 . S
C842 C844 1.378 . S
C842 C846 1.350 . S
C843 C846 1.463 . S
C843 C848 1.350 . S
C843 N851 1.427 . S
C844 H835 0.930 . S
C844 C842 1.378 . S
C844 C845 1.367 . S
C845 C844 1.367 . S
C845 C847 1.433 . S
C846 C842 1.350 . S
C846 C843 1.463 . S
C846 N850 1.427 . S
C847 H837 0.929 . S
C847 C845 1.433 . S
C847 N850 1.384 . S
C848 H839 0.929 . S
C848 C840 1.378 . S
C848 C843 1.350 . S
C849 H836 0.929 . S
C849 C841 1.433 . S
C849 N851 1.384 . S
N850 C846 1.427 . S
N850 C847 1.384 . S
N851 C843 1.427 . S
N851 C849 1.384 . S
H852 C858 0.930 . S
H853 C862 0.930 . S
H854 C867 0.929 . S
H855 C865 0.929 . S
H856 C860 0.929 . S
H857 C866 0.929 . S
C858 H852 0.930 . S
C858 C859 1.367 . S
C858 C866 1.378 . S
C859 C858 1.367 . S
C859 C867 1.433 . S
C860 H856 0.929 . S
C860 C862 1.378 . S
C860 C864 1.350 . S
C861 C864 1.463 . S
C861 C866 1.350 . S
C861 N869 1.427 . S
C862 H853 0.930 . S
C862 C860 1.378 . S
C862 C863 1.367 . S
C863 C862 1.367 . S
C863 C865 1.433 . S
C864 C860 1.350 . S
C864 C861 1.463 . S
C864 N868 1.427 . S
C865 H855 0.929 . S
C865 C863 1.433 . S
C865 N868 1.384 . S
C866 H857 0.929 . S
C866 C858 1.378 . S
C866 C861 1.350 . S
C867 H854 0.929 . S
C867 C859 1.433 . S
C867 N869 1.384 . S
N868 C864 1.427 . S
N868 C865 1.384 . S
N869 C861 1.427 . S
N869 C867 1.384 . S
H870 C876 0.930 . S
H871 C880 0.930 . S
H872 C885 0.929 . S
H873 C883 0.929 . S
H874 C878 0.929 . S
H875 C884 0.929 . S
C876 H870 0.930 . S
C876 C877 1.367 . S
C876 C884 1.378 . S
C877 C876 1.367 . S
C877 C885 1.433 . S
C878 H874 0.929 . S
C878 C880 1.378 . S
C878 C882 1.350 . S
C879 C882 1.463 . S
C879 C884 1.350 . S
C879 N887 1.427 . S
C880 H871 0.930 . S
C880 C878 1.378 . S
C880 C881 1.367 . S
C881 C880 1.367 . S
C881 C883 1.433 . S
C882 C878 1.350 . S
C882 C879 1.463 . S
C882 N886 1.427 . S
C883 H873 0.929 . S
C883 C881 1.433 . S
C883 N886 1.384 . S
C884 H875 0.929 . S
C884 C876 1.378 . S
C884 C879 1.350 . S
C885 H872 0.929 . S
C885 C877 1.433 . S
C885 N887 1.384 . S
N886 C882 1.427 . S
N886 C883 1.384 . S
N887 C879 1.427 . S
N887 C885 1.384 . S
H888 C894 0.930 . S
H889 C898 0.930 . S
H890 C903 0.929 . S
H891 C901 0.929 . S
H892 C896 0.929 . S
H893 C902 0.929 . S
C894 H888 0.930 . S
C894 C895 1.367 . S
C894 C902 1.378 . S
C895 C894 1.367 . S
C895 C903 1.433 . S
C896 H892 0.929 . S
C896 C898 1.378 . S
C896 C900 1.350 . S
C897 C900 1.463 . S
C897 C902 1.350 . S
C897 N905 1.427 . S
C898 H889 0.930 . S
C898 C896 1.378 . S
C898 C899 1.367 . S
C899 C898 1.367 . S
C899 C901 1.433 . S
C900 C896 1.350 . S
C900 C897 1.463 . S
C900 N904 1.427 . S
C901 H891 0.929 . S
C901 C899 1.433 . S
C901 N904 1.384 . S
C902 H893 0.929 . S
C902 C894 1.378 . S
C902 C897 1.350 . S
C903 H890 0.929 . S
C903 C895 1.433 . S
C903 N905 1.384 . S
N904 C900 1.427 . S
N904 C901 1.384 . S
N905 C897 1.427 . S
N905 C903 1.384 . S
H906 C912 0.930 . S
H907 C916 0.930 . S
H908 C921 0.929 . S
H909 C919 0.929 . S
H910 C914 0.929 . S
H911 C920 0.929 . S
C912 H906 0.930 . S
C912 C913 1.367 . S
C912 C920 1.378 . S
C913 C912 1.367 . S
C913 C921 1.433 . S
C914 H910 0.929 . S
C914 C916 1.378 . S
C914 C918 1.350 . S
C915 C918 1.463 . S
C915 C920 1.350 . S
C915 N923 1.427 . S
C916 H907 0.930 . S
C916 C914 1.378 . S
C916 C917 1.367 . S
C917 C916 1.367 . S
C917 C919 1.433 . S
C918 C914 1.350 . S
C918 C915 1.463 . S
C918 N922 1.427 . S
C919 H909 0.929 . S
C919 C917 1.433 . S
C919 N922 1.384 . S
C920 H911 0.929 . S
C920 C912 1.378 . S
C920 C915 1.350 . S
C921 H908 0.929 . S
C921 C913 1.433 . S
C921 N923 1.384 . S
N922 C918 1.427 . S
N922 C919 1.384 . S
N923 C915 1.427 . S
N923 C921 1.384 . S
H924 C930 0.930 . S
H925 C934 0.930 . S
H926 C939 0.929 . S
H927 C937 0.929 . S
H928 C932 0.929 . S
H929 C938 0.929 . S
C930 H924 0.930 . S
C930 C931 1.367 . S
C930 C938 1.378 . S
C931 C930 1.367 . S
C931 C939 1.433 . S
C932 H928 0.929 . S
C932 C934 1.378 . S
C932 C936 1.350 . S
C933 C936 1.463 . S
C933 C938 1.350 . S
C933 N941 1.427 . S
C934 H925 0.930 . S
C934 C932 1.378 . S
C934 C935 1.367 . S
C935 C934 1.367 . S
C935 C937 1.433 . S
C936 C932 1.350 . S
C936 C933 1.463 . S
C936 N940 1.427 . S
C937 H927 0.929 . S
C937 C935 1.433 . S
C937 N940 1.384 . S
C938 H929 0.929 . S
C938 C930 1.378 . S
C938 C933 1.350 . S
C939 H926 0.929 . S
C939 C931 1.433 . S
C939 N941 1.384 . S
N940 C936 1.427 . S
N940 C937 1.384 . S
N941 C933 1.427 . S
N941 C939 1.384 . S
H942 C948 0.930 . S
H943 C952 0.930 . S
H944 C957 0.929 . S
H945 C955 0.929 . S
H946 C950 0.929 . S
H947 C956 0.929 . S
C948 H942 0.930 . S
C948 C949 1.367 . S
C948 C956 1.378 . S
C949 C948 1.367 . S
C949 C957 1.433 . S
C950 H946 0.929 . S
C950 C952 1.378 . S
C950 C954 1.350 . S
C951 C954 1.463 . S
C951 C956 1.350 . S
C951 N959 1.427 . S
C952 H943 0.930 . S
C952 C950 1.378 . S
C952 C953 1.367 . S
C953 C952 1.367 . S
C953 C955 1.433 . S
C954 C950 1.350 . S
C954 C951 1.463 . S
C954 N958 1.427 . S
C955 H945 0.929 . S
C955 C953 1.433 . S
C955 N958 1.384 . S
C956 H947 0.929 . S
C956 C948 1.378 . S
C956 C951 1.350 . S
C957 H944 0.929 . S
C957 C949 1.433 . S
C957 N959 1.384 . S
N958 C954 1.427 . S
N958 C955 1.384 . S
N959 C951 1.427 . S
N959 C957 1.384 . S
H960 C966 0.930 . S
H961 C970 0.930 . S
H962 C975 0.929 . S
H963 C973 0.929 . S
H964 C968 0.929 . S
H965 C974 0.929 . S
C966 H960 0.930 . S
C966 C967 1.367 . S
C966 C974 1.378 . S
C967 C966 1.367 . S
C967 C975 1.433 . S
C968 H964 0.929 . S
C968 C970 1.378 . S
C968 C972 1.350 . S
C969 C972 1.463 . S
C969 C974 1.350 . S
C969 N977 1.427 . S
C970 H961 0.930 . S
C970 C968 1.378 . S
C970 C971 1.367 . S
C971 C970 1.367 . S
C971 C973 1.433 . S
C972 C968 1.350 . S
C972 C969 1.463 . S
C972 N976 1.427 . S
C973 H963 0.929 . S
C973 C971 1.433 . S
C973 N976 1.384 . S
C974 H965 0.929 . S
C974 C966 1.378 . S
C974 C969 1.350 . S
C975 H962 0.929 . S
C975 C967 1.433 . S
C975 N977 1.384 . S
N976 C972 1.427 . S
N976 C973 1.384 . S
N977 C969 1.427 . S
N977 C975 1.384 . S
H978 C984 0.930 . S
H979 C988 0.930 . S
H980 C993 0.929 . S
H981 C991 0.929 . S
H982 C986 0.929 . S
H983 C992 0.929 . S
C984 H978 0.930 . S
C984 C985 1.367 . S
C984 C992 1.378 . S
C985 C984 1.367 . S
C985 C993 1.433 . S
C986 H982 0.929 . S
C986 C988 1.378 . S
C986 C990 1.350 . S
C987 C990 1.463 . S
C987 C992 1.350 . S
C987 N995 1.427 . S
C988 H979 0.930 . S
C988 C986 1.378 . S
C988 C989 1.367 . S
C989 C988 1.367 . S
C989 C991 1.433 . S
C990 C986 1.350 . S
C990 C987 1.463 . S
C990 N994 1.427 . S
C991 H981 0.929 . S
C991 C989 1.433 . S
C991 N994 1.384 . S
C992 H983 0.929 . S
C992 C984 1.378 . S
C992 C987 1.350 . S
C993 H980 0.929 . S
C993 C985 1.433 . S
C993 N995 1.384 . S
N994 C990 1.427 . S
N994 C991 1.384 . S
N995 C987 1.427 . S
N995 C993 1.384 . S
H996 C1002 0.930 . S
H997 C1006 0.930 . S
H998 C1011 0.929 . S
H999 C1009 0.929 . S
H1000 C1004 0.929 . S
H1001 C1010 0.929 . S
C1002 H996 0.930 . S
C1002 C1003 1.367 . S
C1002 C1010 1.378 . S
C1003 C1002 1.367 . S
C1003 C1011 1.433 . S
C1004 H1000 0.929 . S
C1004 C1006 1.378 . S
C1004 C1008 1.350 . S
C1005 C1008 1.463 . S
C1005 C1010 1.350 . S
C1005 N1013 1.427 . S
C1006 H997 0.930 . S
C1006 C1004 1.378 . S
C1006 C1007 1.367 . S
C1007 C1006 1.367 . S
C1007 C1009 1.433 . S
C1008 C1004 1.350 . S
C1008 C1005 1.463 . S
C1008 N1012 1.427 . S
C1009 H999 0.929 . S
C1009 C1007 1.433 . S
C1009 N1012 1.384 . S
C1010 H1001 0.929 . S
C1010 C1002 1.378 . S
C1010 C1005 1.350 . S
C1011 H998 0.929 . S
C1011 C1003 1.433 . S
C1011 N1013 1.384 . S
N1012 C1008 1.427 . S
N1012 C1009 1.384 . S
N1013 C1005 1.427 . S
N1013 C1011 1.384 . S
H1014 C1020 0.930 . S
H1015 C1024 0.930 . S
H1016 C1029 0.929 . S
H1017 C1027 0.929 . S
H1018 C1022 0.929 . S
H1019 C1028 0.929 . S
C1020 H1014 0.930 . S
C1020 C1021 1.367 . S
C1020 C1028 1.378 . S
C1021 C1020 1.367 . S
C1021 C1029 1.433 . S
C1022 H1018 0.929 . S
C1022 C1024 1.378 . S
C1022 C1026 1.350 . S
C1023 C1026 1.463 . S
C1023 C1028 1.350 . S
C1023 N1031 1.427 . S
C1024 H1015 0.930 . S
C1024 C1022 1.378 . S
C1024 C1025 1.367 . S
C1025 C1024 1.367 . S
C1025 C1027 1.433 . S
C1026 C1022 1.350 . S
C1026 C1023 1.463 . S
C1026 N1030 1.427 . S
C1027 H1017 0.929 . S
C1027 C1025 1.433 . S
C1027 N1030 1.384 . S
C1028 H1019 0.929 . S
C1028 C1020 1.378 . S
C1028 C1023 1.350 . S
C1029 H1016 0.929 . S
C1029 C1021 1.433 . S
C1029 N1031 1.384 . S
N1030 C1026 1.427 . S
N1030 C1027 1.384 . S
N1031 C1023 1.427 . S
N1031 C1029 1.384 . S
H1032 C1038 0.930 . S
H1033 C1042 0.930 . S
H1034 C1047 0.929 . S
H1035 C1045 0.929 . S
H1036 C1040 0.929 . S
H1037 C1046 0.929 . S
C1038 H1032 0.930 . S
C1038 C1039 1.367 . S
C1038 C1046 1.378 . S
C1039 C1038 1.367 . S
C1039 C1047 1.433 . S
C1040 H1036 0.929 . S
C1040 C1042 1.378 . S
C1040 C1044 1.350 . S
C1041 C1044 1.463 . S
C1041 C1046 1.350 . S
C1041 N1049 1.427 . S
C1042 H1033 0.930 . S
C1042 C1040 1.378 . S
C1042 C1043 1.367 . S
C1043 C1042 1.367 . S
C1043 C1045 1.433 . S
C1044 C1040 1.350 . S
C1044 C1041 1.463 . S
C1044 N1048 1.427 . S
C1045 H1035 0.929 . S
C1045 C1043 1.433 . S
C1045 N1048 1.384 . S
C1046 H1037 0.929 . S
C1046 C1038 1.378 . S
C1046 C1041 1.350 . S
C1047 H1034 0.929 . S
C1047 C1039 1.433 . S
C1047 N1049 1.384 . S
N1048 C1044 1.427 . S
N1048 C1045 1.384 . S
N1049 C1041 1.427 . S
N1049 C1047 1.384 . S
H1050 C1056 0.930 . S
H1051 C1060 0.930 . S
H1052 C1065 0.929 . S
H1053 C1063 0.929 . S
H1054 C1058 0.929 . S
H1055 C1064 0.929 . S
C1056 H1050 0.930 . S
C1056 C1057 1.367 . S
C1056 C1064 1.378 . S
C1057 C1056 1.367 . S
C1057 C1065 1.433 . S
C1058 H1054 0.929 . S
C1058 C1060 1.378 . S
C1058 C1062 1.350 . S
C1059 C1062 1.463 . S
C1059 C1064 1.350 . S
C1059 N1067 1.427 . S
C1060 H1051 0.930 . S
C1060 C1058 1.378 . S
C1060 C1061 1.367 . S
C1061 C1060 1.367 . S
C1061 C1063 1.433 . S
C1062 C1058 1.350 . S
C1062 C1059 1.463 . S
C1062 N1066 1.427 . S
C1063 H1053 0.929 . S
C1063 C1061 1.433 . S
C1063 N1066 1.384 . S
C1064 H1055 0.929 . S
C1064 C1056 1.378 . S
C1064 C1059 1.350 . S
C1065 H1052 0.929 . S
C1065 C1057 1.433 . S
C1065 N1067 1.384 . S
N1066 C1062 1.427 . S
N1066 C1063 1.384 . S
N1067 C1059 1.427 . S
N1067 C1065 1.384 . S
H1068 C1074 0.930 . S
H1069 C1078 0.930 . S
H1070 C1083 0.929 . S
H1071 C1081 0.929 . S
H1072 C1076 0.929 . S
H1073 C1082 0.929 . S
C1074 H1068 0.930 . S
C1074 C1075 1.367 . S
C1074 C1082 1.378 . S
C1075 C1074 1.367 . S
C1075 C1083 1.433 . S
C1076 H1072 0.929 . S
C1076 C1078 1.378 . S
C1076 C1080 1.350 . S
C1077 C1080 1.463 . S
C1077 C1082 1.350 . S
C1077 N1085 1.427 . S
C1078 H1069 0.930 . S
C1078 C1076 1.378 . S
C1078 C1079 1.367 . S
C1079 C1078 1.367 . S
C1079 C1081 1.433 . S
C1080 C1076 1.350 . S
C1080 C1077 1.463 . S
C1080 N1084 1.427 . S
C1081 H1071 0.929 . S
C1081 C1079 1.433 . S
C1081 N1084 1.384 . S
C1082 H1073 0.929 . S
C1082 C1074 1.378 . S
C1082 C1077 1.350 . S
C1083 H1070 0.929 . S
C1083 C1075 1.433 . S
C1083 N1085 1.384 . S
N1084 C1080 1.427 . S
N1084 C1081 1.384 . S
N1085 C1077 1.427 . S
N1085 C1083 1.384 . S
H1086 C1092 0.930 . S
H1087 C1096 0.930 . S
H1088 C1101 0.929 . S
H1089 C1099 0.929 . S
H1090 C1094 0.929 . S
H1091 C1100 0.929 . S
C1092 H1086 0.930 . S
C1092 C1093 1.367 . S
C1092 C1100 1.378 . S
C1093 C1092 1.367 . S
C1093 C1101 1.433 . S
C1094 H1090 0.929 . S
C1094 C1096 1.378 . S
C1094 C1098 1.350 . S
C1095 C1098 1.463 . S
C1095 C1100 1.350 . S
C1095 N1103 1.427 . S
C1096 H1087 0.930 . S
C1096 C1094 1.378 . S
C1096 C1097 1.367 . S
C1097 C1096 1.367 . S
C1097 C1099 1.433 . S
C1098 C1094 1.350 . S
C1098 C1095 1.463 . S
C1098 N1102 1.427 . S
C1099 H1089 0.929 . S
C1099 C1097 1.433 . S
C1099 N1102 1.384 . S
C1100 H1091 0.929 . S
C1100 C1092 1.378 . S
C1100 C1095 1.350 . S
C1101 H1088 0.929 . S
C1101 C1093 1.433 . S
C1101 N1103 1.384 . S
N1102 C1098 1.427 . S
N1102 C1099 1.384 . S
N1103 C1095 1.427 . S
N1103 C1101 1.384 . S
H1104 C1110 0.930 . S
H1105 C1114 0.930 . S
H1106 C1119 0.929 . S
H1107 C1117 0.929 . S
H1108 C1112 0.929 . S
H1109 C1118 0.929 . S
C1110 H1104 0.930 . S
C1110 C1111 1.367 . S
C1110 C1118 1.378 . S
C1111 C1110 1.367 . S
C1111 C1119 1.433 . S
C1112 H1108 0.929 . S
C1112 C1114 1.378 . S
C1112 C1116 1.350 . S
C1113 C1116 1.463 . S
C1113 C1118 1.350 . S
C1113 N1121 1.427 . S
C1114 H1105 0.930 . S
C1114 C1112 1.378 . S
C1114 C1115 1.367 . S
C1115 C1114 1.367 . S
C1115 C1117 1.433 . S
C1116 C1112 1.350 . S
C1116 C1113 1.463 . S
C1116 N1120 1.427 . S
C1117 H1107 0.929 . S
C1117 C1115 1.433 . S
C1117 N1120 1.384 . S
C1118 H1109 0.929 . S
C1118 C1110 1.378 . S
C1118 C1113 1.350 . S
C1119 H1106 0.929 . S
C1119 C1111 1.433 . S
C1119 N1121 1.384 . S
N1120 C1116 1.427 . S
N1120 C1117 1.384 . S
N1121 C1113 1.427 . S
N1121 C1119 1.384 . S
H1122 C1128 0.930 . S
H1123 C1132 0.930 . S
H1124 C1137 0.929 . S
H1125 C1135 0.929 . S
H1126 C1130 0.929 . S
H1127 C1136 0.929 . S
C1128 H1122 0.930 . S
C1128 C1129 1.367 . S
C1128 C1136 1.378 . S
C1129 C1128 1.367 . S
C1129 C1137 1.433 . S
C1130 H1126 0.929 . S
C1130 C1132 1.378 . S
C1130 C1134 1.350 . S
C1131 C1134 1.463 . S
C1131 C1136 1.350 . S
C1131 N1139 1.427 . S
C1132 H1123 0.930 . S
C1132 C1130 1.378 . S
C1132 C1133 1.367 . S
C1133 C1132 1.367 . S
C1133 C1135 1.433 . S
C1134 C1130 1.350 . S
C1134 C1131 1.463 . S
C1134 N1138 1.427 . S
C1135 H1125 0.929 . S
C1135 C1133 1.433 . S
C1135 N1138 1.384 . S
C1136 H1127 0.929 . S
C1136 C1128 1.378 . S
C1136 C1131 1.350 . S
C1137 H1124 0.929 . S
C1137 C1129 1.433 . S
C1137 N1139 1.384 . S
N1138 C1134 1.427 . S
N1138 C1135 1.384 . S
N1139 C1131 1.427 . S
N1139 C1137 1.384 . S
H1140 C1146 0.930 . S
H1141 C1150 0.930 . S
H1142 C1155 0.929 . S
H1143 C1153 0.929 . S
H1144 C1148 0.929 . S
H1145 C1154 0.929 . S
C1146 H1140 0.930 . S
C1146 C1147 1.367 . S
C1146 C1154 1.378 . S
C1147 C1146 1.367 . S
C1147 C1155 1.433 . S
C1148 H1144 0.929 . S
C1148 C1150 1.378 . S
C1148 C1152 1.350 . S
C1149 C1152 1.463 . S
C1149 C1154 1.350 . S
C1149 N1157 1.427 . S
C1150 H1141 0.930 . S
C1150 C1148 1.378 . S
C1150 C1151 1.367 . S
C1151 C1150 1.367 . S
C1151 C1153 1.433 . S
C1152 C1148 1.350 . S
C1152 C1149 1.463 . S
C1152 N1156 1.427 . S
C1153 H1143 0.929 . S
C1153 C1151 1.433 . S
C1153 N1156 1.384 . S
C1154 H1145 0.929 . S
C1154 C1146 1.378 . S
C1154 C1149 1.350 . S
C1155 H1142 0.929 . S
C1155 C1147 1.433 . S
C1155 N1157 1.384 . S
N1156 C1152 1.427 . S
N1156 C1153 1.384 . S
N1157 C1149 1.427 . S
N1157 C1155 1.384 . S
H1158 C1164 0.930 . S
H1159 C1168 0.930 . S
H1160 C1173 0.929 . S
H1161 C1171 0.929 . S
H1162 C1166 0.929 . S
H1163 C1172 0.929 . S
C1164 H1158 0.930 . S
C1164 C1165 1.367 . S
C1164 C1172 1.378 . S
C1165 C1164 1.367 . S
C1165 C1173 1.433 . S
C1166 H1162 0.929 . S
C1166 C1168 1.378 . S
C1166 C1170 1.350 . S
C1167 C1170 1.463 . S
C1167 C1172 1.350 . S
C1167 N1175 1.427 . S
C1168 H1159 0.930 . S
C1168 C1166 1.378 . S
C1168 C1169 1.367 . S
C1169 C1168 1.367 . S
C1169 C1171 1.433 . S
C1170 C1166 1.350 . S
C1170 C1167 1.463 . S
C1170 N1174 1.427 . S
C1171 H1161 0.929 . S
C1171 C1169 1.433 . S
C1171 N1174 1.384 . S
C1172 H1163 0.929 . S
C1172 C1164 1.378 . S
C1172 C1167 1.350 . S
C1173 H1160 0.929 . S
C1173 C1165 1.433 . S
C1173 N1175 1.384 . S
N1174 C1170 1.427 . S
N1174 C1171 1.384 . S
N1175 C1167 1.427 . S
N1175 C1173 1.384 . S
H1176 C1182 0.930 . S
H1177 C1186 0.930 . S
H1178 C1191 0.929 . S
H1179 C1189 0.929 . S
H1180 C1184 0.929 . S
H1181 C1190 0.929 . S
C1182 H1176 0.930 . S
C1182 C1183 1.367 . S
C1182 C1190 1.378 . S
C1183 C1182 1.367 . S
C1183 C1191 1.433 . S
C1184 H1180 0.929 . S
C1184 C1186 1.378 . S
C1184 C1188 1.350 . S
C1185 C1188 1.463 . S
C1185 C1190 1.350 . S
C1185 N1193 1.427 . S
C1186 H1177 0.930 . S
C1186 C1184 1.378 . S
C1186 C1187 1.367 . S
C1187 C1186 1.367 . S
C1187 C1189 1.433 . S
C1188 C1184 1.350 . S
C1188 C1185 1.463 . S
C1188 N1192 1.427 . S
C1189 H1179 0.929 . S
C1189 C1187 1.433 . S
C1189 N1192 1.384 . S
C1190 H1181 0.929 . S
C1190 C1182 1.378 . S
C1190 C1185 1.350 . S
C1191 H1178 0.929 . S
C1191 C1183 1.433 . S
C1191 N1193 1.384 . S
N1192 C1188 1.427 . S
N1192 C1189 1.384 . S
N1193 C1185 1.427 . S
N1193 C1191 1.384 . S
H1194 C1200 0.930 . S
H1195 C1204 0.930 . S
H1196 C1209 0.929 . S
H1197 C1207 0.929 . S
H1198 C1202 0.929 . S
H1199 C1208 0.929 . S
C1200 H1194 0.930 . S
C1200 C1201 1.367 . S
C1200 C1208 1.378 . S
C1201 C1200 1.367 . S
C1201 C1209 1.433 . S
C1202 H1198 0.929 . S
C1202 C1204 1.378 . S
C1202 C1206 1.350 . S
C1203 C1206 1.463 . S
C1203 C1208 1.350 . S
C1203 N1211 1.427 . S
C1204 H1195 0.930 . S
C1204 C1202 1.378 . S
C1204 C1205 1.367 . S
C1205 C1204 1.367 . S
C1205 C1207 1.433 . S
C1206 C1202 1.350 . S
C1206 C1203 1.463 . S
C1206 N1210 1.427 . S
C1207 H1197 0.929 . S
C1207 C1205 1.433 . S
C1207 N1210 1.384 . S
C1208 H1199 0.929 . S
C1208 C1200 1.378 . S
C1208 C1203 1.350 . S
C1209 H1196 0.929 . S
C1209 C1201 1.433 . S
C1209 N1211 1.384 . S
N1210 C1206 1.427 . S
N1210 C1207 1.384 . S
N1211 C1203 1.427 . S
N1211 C1209 1.384 . S
H1212 C1218 0.930 . S
H1213 C1222 0.930 . S
H1214 C1227 0.929 . S
H1215 C1225 0.929 . S
H1216 C1220 0.929 . S
H1217 C1226 0.929 . S
C1218 H1212 0.930 . S
C1218 C1219 1.367 . S
C1218 C1226 1.378 . S
C1219 C1218 1.367 . S
C1219 C1227 1.433 . S
C1220 H1216 0.929 . S
C1220 C1222 1.378 . S
C1220 C1224 1.350 . S
C1221 C1224 1.463 . S
C1221 C1226 1.350 . S
C1221 N1229 1.427 . S
C1222 H1213 0.930 . S
C1222 C1220 1.378 . S
C1222 C1223 1.367 . S
C1223 C1222 1.367 . S
C1223 C1225 1.433 . S
C1224 C1220 1.350 . S
C1224 C1221 1.463 . S
C1224 N1228 1.427 . S
C1225 H1215 0.929 . S
C1225 C1223 1.433 . S
C1225 N1228 1.384 . S
C1226 H1217 0.929 . S
C1226 C1218 1.378 . S
C1226 C1221 1.350 . S
C1227 H1214 0.929 . S
C1227 C1219 1.433 . S
C1227 N1229 1.384 . S
N1228 C1224 1.427 . S
N1228 C1225 1.384 . S
N1229 C1221 1.427 . S
N1229 C1227 1.384 . S
H1230 C1236 0.930 . S
H1231 C1240 0.930 . S
H1232 C1245 0.929 . S
H1233 C1243 0.929 . S
H1234 C1238 0.929 . S
H1235 C1244 0.929 . S
C1236 H1230 0.930 . S
C1236 C1237 1.367 . S
C1236 C1244 1.378 . S
C1237 C1236 1.367 . S
C1237 C1245 1.433 . S
C1238 H1234 0.929 . S
C1238 C1240 1.378 . S
C1238 C1242 1.350 . S
C1239 C1242 1.463 . S
C1239 C1244 1.350 . S
C1239 N1247 1.427 . S
C1240 H1231 0.930 . S
C1240 C1238 1.378 . S
C1240 C1241 1.367 . S
C1241 C1240 1.367 . S
C1241 C1243 1.433 . S
C1242 C1238 1.350 . S
C1242 C1239 1.463 . S
C1242 N1246 1.427 . S
C1243 H1233 0.929 . S
C1243 C1241 1.433 . S
C1243 N1246 1.384 . S
C1244 H1235 0.929 . S
C1244 C1236 1.378 . S
C1244 C1239 1.350 . S
C1245 H1232 0.929 . S
C1245 C1237 1.433 . S
C1245 N1247 1.384 . S
N1246 C1242 1.427 . S
N1246 C1243 1.384 . S
N1247 C1239 1.427 . S
N1247 C1245 1.384 . S
H1248 C1254 0.930 . S
H1249 C1258 0.930 . S
H1250 C1263 0.929 . S
H1251 C1261 0.929 . S
H1252 C1256 0.929 . S
H1253 C1262 0.929 . S
C1254 H1248 0.930 . S
C1254 C1255 1.367 . S
C1254 C1262 1.378 . S
C1255 C1254 1.367 . S
C1255 C1263 1.433 . S
C1256 H1252 0.929 . S
C1256 C1258 1.378 . S
C1256 C1260 1.350 . S
C1257 C1260 1.463 . S
C1257 C1262 1.350 . S
C1257 N1265 1.427 . S
C1258 H1249 0.930 . S
C1258 C1256 1.378 . S
C1258 C1259 1.367 . S
C1259 C1258 1.367 . S
C1259 C1261 1.433 . S
C1260 C1256 1.350 . S
C1260 C1257 1.463 . S
C1260 N1264 1.427 . S
C1261 H1251 0.929 . S
C1261 C1259 1.433 . S
C1261 N1264 1.384 . S
C1262 H1253 0.929 . S
C1262 C1254 1.378 . S
C1262 C1257 1.350 . S
C1263 H1250 0.929 . S
C1263 C1255 1.433 . S
C1263 N1265 1.384 . S
N1264 C1260 1.427 . S
N1264 C1261 1.384 . S
N1265 C1257 1.427 . S
N1265 C1263 1.384 . S
H1266 C1272 0.930 . S
H1267 C1276 0.930 . S
H1268 C1281 0.929 . S
H1269 C1279 0.929 . S
H1270 C1274 0.929 . S
H1271 C1280 0.929 . S
C1272 H1266 0.930 . S
C1272 C1273 1.367 . S
C1272 C1280 1.378 . S
C1273 C1272 1.367 . S
C1273 C1281 1.433 . S
C1274 H1270 0.929 . S
C1274 C1276 1.378 . S
C1274 C1278 1.350 . S
C1275 C1278 1.463 . S
C1275 C1280 1.350 . S
C1275 N1283 1.427 . S
C1276 H1267 0.930 . S
C1276 C1274 1.378 . S
C1276 C1277 1.367 . S
C1277 C1276 1.367 . S
C1277 C1279 1.433 . S
C1278 C1274 1.350 . S
C1278 C1275 1.463 . S
C1278 N1282 1.427 . S
C1279 H1269 0.929 . S
C1279 C1277 1.433 . S
C1279 N1282 1.384 . S
C1280 H1271 0.929 . S
C1280 C1272 1.378 . S
C1280 C1275 1.350 . S
C1281 H1268 0.929 . S
C1281 C1273 1.433 . S
C1281 N1283 1.384 . S
N1282 C1278 1.427 . S
N1282 C1279 1.384 . S
N1283 C1275 1.427 . S
N1283 C1281 1.384 . S
H1284 C1290 0.930 . S
H1285 C1294 0.930 . S
H1286 C1299 0.929 . S
H1287 C1297 0.929 . S
H1288 C1292 0.929 . S
H1289 C1298 0.929 . S
C1290 H1284 0.930 . S
C1290 C1291 1.367 . S
C1290 C1298 1.378 . S
C1291 C1290 1.367 . S
C1291 C1299 1.433 . S
C1292 H1288 0.929 . S
C1292 C1294 1.378 . S
C1292 C1296 1.350 . S
C1293 C1296 1.463 . S
C1293 C1298 1.350 . S
C1293 N1301 1.427 . S
C1294 H1285 0.930 . S
C1294 C1292 1.378 . S
C1294 C1295 1.367 . S
C1295 C1294 1.367 . S
C1295 C1297 1.433 . S
C1296 C1292 1.350 . S
C1296 C1293 1.463 . S
C1296 N1300 1.427 . S
C1297 H1287 0.929 . S
C1297 C1295 1.433 . S
C1297 N1300 1.384 . S
C1298 H1289 0.929 . S
C1298 C1290 1.378 . S
C1298 C1293 1.350 . S
C1299 H1286 0.929 . S
C1299 C1291 1.433 . S
C1299 N1301 1.384 . S
N1300 C1296 1.427 . S
N1300 C1297 1.384 . S
N1301 C1293 1.427 . S
N1301 C1299 1.384 . S
H1302 C1308 0.930 . S
H1303 C1312 0.930 . S
H1304 C1317 0.929 . S
H1305 C1315 0.929 . S
H1306 C1310 0.929 . S
H1307 C1316 0.929 . S
C1308 H1302 0.930 . S
C1308 C1309 1.367 . S
C1308 C1316 1.378 . S
C1309 C1308 1.367 . S
C1309 C1317 1.433 . S
C1310 H1306 0.929 . S
C1310 C1312 1.378 . S
C1310 C1314 1.350 . S
C1311 C1314 1.463 . S
C1311 C1316 1.350 . S
C1311 N1319 1.427 . S
C1312 H1303 0.930 . S
C1312 C1310 1.378 . S
C1312 C1313 1.367 . S
C1313 C1312 1.367 . S
C1313 C1315 1.433 . S
C1314 C1310 1.350 . S
C1314 C1311 1.463 . S
C1314 N1318 1.427 . S
C1315 H1305 0.929 . S
C1315 C1313 1.433 . S
C1315 N1318 1.384 . S
C1316 H1307 0.929 . S
C1316 C1308 1.378 . S
C1316 C1311 1.350 . S
C1317 H1304 0.929 . S
C1317 C1309 1.433 . S
C1317 N1319 1.384 . S
N1318 C1314 1.427 . S
N1318 C1315 1.384 . S
N1319 C1311 1.427 . S
N1319 C1317 1.384 . S
H1320 C1326 0.930 . S
H1321 C1330 0.930 . S
H1322 C1335 0.929 . S
H1323 C1333 0.929 . S
H1324 C1328 0.929 . S
H1325 C1334 0.929 . S
C1326 H1320 0.930 . S
C1326 C1327 1.367 . S
C1326 C1334 1.378 . S
C1327 C1326 1.367 . S
C1327 C1335 1.433 . S
C1328 H1324 0.929 . S
C1328 C1330 1.378 . S
C1328 C1332 1.350 . S
C1329 C1332 1.463 . S
C1329 C1334 1.350 . S
C1329 N1337 1.427 . S
C1330 H1321 0.930 . S
C1330 C1328 1.378 . S
C1330 C1331 1.367 . S
C1331 C1330 1.367 . S
C1331 C1333 1.433 . S
C1332 C1328 1.350 . S
C1332 C1329 1.463 . S
C1332 N1336 1.427 . S
C1333 H1323 0.929 . S
C1333 C1331 1.433 . S
C1333 N1336 1.384 . S
C1334 H1325 0.929 . S
C1334 C1326 1.378 . S
C1334 C1329 1.350 . S
C1335 H1322 0.929 . S
C1335 C1327 1.433 . S
C1335 N1337 1.384 . S
N1336 C1332 1.427 . S
N1336 C1333 1.384 . S
N1337 C1329 1.427 . S
N1337 C1335 1.384 . S
H1338 C1344 0.930 . S
H1339 C1348 0.930 . S
H1340 C1353 0.929 . S
H1341 C1351 0.929 . S
H1342 C1346 0.929 . S
H1343 C1352 0.929 . S
C1344 H1338 0.930 . S
C1344 C1345 1.367 . S
C1344 C1352 1.378 . S
C1345 C1344 1.367 . S
C1345 C1353 1.433 . S
C1346 H1342 0.929 . S
C1346 C1348 1.378 . S
C1346 C1350 1.350 . S
C1347 C1350 1.463 . S
C1347 C1352 1.350 . S
C1347 N1355 1.427 . S
C1348 H1339 0.930 . S
C1348 C1346 1.378 . S
C1348 C1349 1.367 . S
C1349 C1348 1.367 . S
C1349 C1351 1.433 . S
C1350 C1346 1.350 . S
C1350 C1347 1.463 . S
C1350 N1354 1.427 . S
C1351 H1341 0.929 . S
C1351 C1349 1.433 . S
C1351 N1354 1.384 . S
C1352 H1343 0.929 . S
C1352 C1344 1.378 . S
C1352 C1347 1.350 . S
C1353 H1340 0.929 . S
C1353 C1345 1.433 . S
C1353 N1355 1.384 . S
N1354 C1350 1.427 . S
N1354 C1351 1.384 . S
N1355 C1347 1.427 . S
N1355 C1353 1.384 . S
H1356 C1362 0.930 . S
H1357 C1366 0.930 . S
H1358 C1371 0.929 . S
H1359 C1369 0.929 . S
H1360 C1364 0.929 . S
H1361 C1370 0.929 . S
C1362 H1356 0.930 . S
C1362 C1363 1.367 . S
C1362 C1370 1.378 . S
C1363 C1362 1.367 . S
C1363 C1371 1.433 . S
C1364 H1360 0.929 . S
C1364 C1366 1.378 . S
C1364 C1368 1.350 . S
C1365 C1368 1.463 . S
C1365 C1370 1.350 . S
C1365 N1373 1.427 . S
C1366 H1357 0.930 . S
C1366 C1364 1.378 . S
C1366 C1367 1.367 . S
C1367 C1366 1.367 . S
C1367 C1369 1.433 . S
C1368 C1364 1.350 . S
C1368 C1365 1.463 . S
C1368 N1372 1.427 . S
C1369 H1359 0.929 . S
C1369 C1367 1.433 . S
C1369 N1372 1.384 . S
C1370 H1361 0.929 . S
C1370 C1362 1.378 . S
C1370 C1365 1.350 . S
C1371 H1358 0.929 . S
C1371 C1363 1.433 . S
C1371 N1373 1.384 . S
N1372 C1368 1.427 . S
N1372 C1369 1.384 . S
N1373 C1365 1.427 . S
N1373 C1371 1.384 . S
H1374 C1380 0.930 . S
H1375 C1384 0.930 . S
H1376 C1389 0.929 . S
H1377 C1387 0.929 . S
H1378 C1382 0.929 . S
H1379 C1388 0.929 . S
C1380 H1374 0.930 . S
C1380 C1381 1.367 . S
C1380 C1388 1.378 . S
C1381 C1380 1.367 . S
C1381 C1389 1.433 . S
C1382 H1378 0.929 . S
C1382 C1384 1.378 . S
C1382 C1386 1.350 . S
C1383 C1386 1.463 . S
C1383 C1388 1.350 . S
C1383 N1391 1.427 . S
C1384 H1375 0.930 . S
C1384 C1382 1.378 . S
C1384 C1385 1.367 . S
C1385 C1384 1.367 . S
C1385 C1387 1.433 . S
C1386 C1382 1.350 . S
C1386 C1383 1.463 . S
C1386 N1390 1.427 . S
C1387 H1377 0.929 . S
C1387 C1385 1.433 . S
C1387 N1390 1.384 . S
C1388 H1379 0.929 . S
C1388 C1380 1.378 . S
C1388 C1383 1.350 . S
C1389 H1376 0.929 . S
C1389 C1381 1.433 . S
C1389 N1391 1.384 . S
N1390 C1386 1.427 . S
N1390 C1387 1.384 . S
N1391 C1383 1.427 . S
N1391 C1389 1.384 . S
H1392 C1398 0.930 . S
H1393 C1402 0.930 . S
H1394 C1407 0.929 . S
H1395 C1405 0.929 . S
H1396 C1400 0.929 . S
H1397 C1406 0.929 . S
C1398 H1392 0.930 . S
C1398 C1399 1.367 . S
C1398 C1406 1.378 . S
C1399 C1398 1.367 . S
C1399 C1407 1.433 . S
C1400 H1396 0.929 . S
C1400 C1402 1.378 . S
C1400 C1404 1.350 . S
C1401 C1404 1.463 . S
C1401 C1406 1.350 . S
C1401 N1409 1.427 . S
C1402 H1393 0.930 . S
C1402 C1400 1.378 . S
C1402 C1403 1.367 . S
C1403 C1402 1.367 . S
C1403 C1405 1.433 . S
C1404 C1400 1.350 . S
C1404 C1401 1.463 . S
C1404 N1408 1.427 . S
C1405 H1395 0.929 . S
C1405 C1403 1.433 . S
C1405 N1408 1.384 . S
C1406 H1397 0.929 . S
C1406 C1398 1.378 . S
C1406 C1401 1.350 . S
C1407 H1394 0.929 . S
C1407 C1399 1.433 . S
C1407 N1409 1.384 . S
N1408 C1404 1.427 . S
N1408 C1405 1.384 . S
N1409 C1401 1.427 . S
N1409 C1407 1.384 . S
H1410 C1416 0.930 . S
H1411 C1420 0.930 . S
H1412 C1425 0.929 . S
H1413 C1423 0.929 . S
H1414 C1418 0.929 . S
H1415 C1424 0.929 . S
C1416 H1410 0.930 . S
C1416 C1417 1.367 . S
C1416 C1424 1.378 . S
C1417 C1416 1.367 . S
C1417 C1425 1.433 . S
C1418 H1414 0.929 . S
C1418 C1420 1.378 . S
C1418 C1422 1.350 . S
C1419 C1422 1.463 . S
C1419 C1424 1.350 . S
C1419 N1427 1.427 . S
C1420 H1411 0.930 . S
C1420 C1418 1.378 . S
C1420 C1421 1.367 . S
C1421 C1420 1.367 . S
C1421 C1423 1.433 . S
C1422 C1418 1.350 . S
C1422 C1419 1.463 . S
C1422 N1426 1.427 . S
C1423 H1413 0.929 . S
C1423 C1421 1.433 . S
C1423 N1426 1.384 . S
C1424 H1415 0.929 . S
C1424 C1416 1.378 . S
C1424 C1419 1.350 . S
C1425 H1412 0.929 . S
C1425 C1417 1.433 . S
C1425 N1427 1.384 . S
N1426 C1422 1.427 . S
N1426 C1423 1.384 . S
N1427 C1419 1.427 . S
N1427 C1425 1.384 . S
H1428 C1434 0.930 . S
H1429 C1438 0.930 . S
H1430 C1443 0.929 . S
H1431 C1441 0.929 . S
H1432 C1436 0.929 . S
H1433 C1442 0.929 . S
C1434 H1428 0.930 . S
C1434 C1435 1.367 . S
C1434 C1442 1.378 . S
C1435 C1434 1.367 . S
C1435 C1443 1.433 . S
C1436 H1432 0.929 . S
C1436 C1438 1.378 . S
C1436 C1440 1.350 . S
C1437 C1440 1.463 . S
C1437 C1442 1.350 . S
C1437 N1445 1.427 . S
C1438 H1429 0.930 . S
C1438 C1436 1.378 . S
C1438 C1439 1.367 . S
C1439 C1438 1.367 . S
C1439 C1441 1.433 . S
C1440 C1436 1.350 . S
C1440 C1437 1.463 . S
C1440 N1444 1.427 . S
C1441 H1431 0.929 . S
C1441 C1439 1.433 . S
C1441 N1444 1.384 . S
C1442 H1433 0.929 . S
C1442 C1434 1.378 . S
C1442 C1437 1.350 . S
C1443 H1430 0.929 . S
C1443 C1435 1.433 . S
C1443 N1445 1.384 . S
N1444 C1440 1.427 . S
N1444 C1441 1.384 . S
N1445 C1437 1.427 . S
N1445 C1443 1.384 . S
H1446 C1452 0.930 . S
H1447 C1456 0.930 . S
H1448 C1461 0.929 . S
H1449 C1459 0.929 . S
H1450 C1454 0.929 . S
H1451 C1460 0.929 . S
C1452 H1446 0.930 . S
C1452 C1453 1.367 . S
C1452 C1460 1.378 . S
C1453 C1452 1.367 . S
C1453 C1461 1.433 . S
C1454 H1450 0.929 . S
C1454 C1456 1.378 . S
C1454 C1458 1.350 . S
C1455 C1458 1.463 . S
C1455 C1460 1.350 . S
C1455 N1463 1.427 . S
C1456 H1447 0.930 . S
C1456 C1454 1.378 . S
C1456 C1457 1.367 . S
C1457 C1456 1.367 . S
C1457 C1459 1.433 . S
C1458 C1454 1.350 . S
C1458 C1455 1.463 . S
C1458 N1462 1.427 . S
C1459 H1449 0.929 . S
C1459 C1457 1.433 . S
C1459 N1462 1.384 . S
C1460 H1451 0.929 . S
C1460 C1452 1.378 . S
C1460 C1455 1.350 . S
C1461 H1448 0.929 . S
C1461 C1453 1.433 . S
C1461 N1463 1.384 . S
N1462 C1458 1.427 . S
N1462 C1459 1.384 . S
N1463 C1455 1.427 . S
N1463 C1461 1.384 . S
H1464 C1470 0.930 . S
H1465 C1474 0.930 . S
H1466 C1479 0.929 . S
H1467 C1477 0.929 . S
H1468 C1472 0.929 . S
H1469 C1478 0.929 . S
C1470 H1464 0.930 . S
C1470 C1471 1.367 . S
C1470 C1478 1.378 . S
C1471 C1470 1.367 . S
C1471 C1479 1.433 . S
C1472 H1468 0.929 . S
C1472 C1474 1.378 . S
C1472 C1476 1.350 . S
C1473 C1476 1.463 . S
C1473 C1478 1.350 . S
C1473 N1481 1.427 . S
C1474 H1465 0.930 . S
C1474 C1472 1.378 . S
C1474 C1475 1.367 . S
C1475 C1474 1.367 . S
C1475 C1477 1.433 . S
C1476 C1472 1.350 . S
C1476 C1473 1.463 . S
C1476 N1480 1.427 . S
C1477 H1467 0.929 . S
C1477 C1475 1.433 . S
C1477 N1480 1.384 . S
C1478 H1469 0.929 . S
C1478 C1470 1.378 . S
C1478 C1473 1.350 . S
C1479 H1466 0.929 . S
C1479 C1471 1.433 . S
C1479 N1481 1.384 . S
N1480 C1476 1.427 . S
N1480 C1477 1.384 . S
N1481 C1473 1.427 . S
N1481 C1479 1.384 . S
H1482 C1488 0.930 . S
H1483 C1492 0.930 . S
H1484 C1497 0.929 . S
H1485 C1495 0.929 . S
H1486 C1490 0.929 . S
H1487 C1496 0.929 . S
C1488 H1482 0.930 . S
C1488 C1489 1.367 . S
C1488 C1496 1.378 . S
C1489 C1488 1.367 . S
C1489 C1497 1.433 . S
C1490 H1486 0.929 . S
C1490 C1492 1.378 . S
C1490 C1494 1.350 . S
C1491 C1494 1.463 . S
C1491 C1496 1.350 . S
C1491 N1499 1.427 . S
C1492 H1483 0.930 . S
C1492 C1490 1.378 . S
C1492 C1493 1.367 . S
C1493 C1492 1.367 . S
C1493 C1495 1.433 . S
C1494 C1490 1.350 . S
C1494 C1491 1.463 . S
C1494 N1498 1.427 . S
C1495 H1485 0.929 . S
C1495 C1493 1.433 . S
C1495 N1498 1.384 . S
C1496 H1487 0.929 . S
C1496 C1488 1.378 . S
C1496 C1491 1.350 . S
C1497 H1484 0.929 . S
C1497 C1489 1.433 . S
C1497 N1499 1.384 . S
N1498 C1494 1.427 . S
N1498 C1495 1.384 . S
N1499 C1491 1.427 . S
N1499 C1497 1.384 . S
H1500 C1506 0.930 . S
H1501 C1510 0.930 . S
H1502 C1515 0.929 . S
H1503 C1513 0.929 . S
H1504 C1508 0.929 . S
H1505 C1514 0.929 . S
C1506 H1500 0.930 . S
C1506 C1507 1.367 . S
C1506 C1514 1.378 . S
C1507 C1506 1.367 . S
C1507 C1515 1.433 . S
C1508 H1504 0.929 . S
C1508 C1510 1.378 . S
C1508 C1512 1.350 . S
C1509 C1512 1.463 . S
C1509 C1514 1.350 . S
C1509 N1517 1.427 . S
C1510 H1501 0.930 . S
C1510 C1508 1.378 . S
C1510 C1511 1.367 . S
C1511 C1510 1.367 . S
C1511 C1513 1.433 . S
C1512 C1508 1.350 . S
C1512 C1509 1.463 . S
C1512 N1516 1.427 . S
C1513 H1503 0.929 . S
C1513 C1511 1.433 . S
C1513 N1516 1.384 . S
C1514 H1505 0.929 . S
C1514 C1506 1.378 . S
C1514 C1509 1.350 . S
C1515 H1502 0.929 . S
C1515 C1507 1.433 . S
C1515 N1517 1.384 . S
N1516 C1512 1.427 . S
N1516 C1513 1.384 . S
N1517 C1509 1.427 . S
N1517 C1515 1.384 . S
H1518 C1524 0.930 . S
H1519 C1528 0.930 . S
H1520 C1533 0.929 . S
H1521 C1531 0.929 . S
H1522 C1526 0.929 . S
H1523 C1532 0.929 . S
C1524 H1518 0.930 . S
C1524 C1525 1.367 . S
C1524 C1532 1.378 . S
C1525 C1524 1.367 . S
C1525 C1533 1.433 . S
C1526 H1522 0.929 . S
C1526 C1528 1.378 . S
C1526 C1530 1.350 . S
C1527 C1530 1.463 . S
C1527 C1532 1.350 . S
C1527 N1535 1.427 . S
C1528 H1519 0.930 . S
C1528 C1526 1.378 . S
C1528 C1529 1.367 . S
C1529 C1528 1.367 . S
C1529 C1531 1.433 . S
C1530 C1526 1.350 . S
C1530 C1527 1.463 . S
C1530 N1534 1.427 . S
C1531 H1521 0.929 . S
C1531 C1529 1.433 . S
C1531 N1534 1.384 . S
C1532 H1523 0.929 . S
C1532 C1524 1.378 . S
C1532 C1527 1.350 . S
C1533 H1520 0.929 . S
C1533 C1525 1.433 . S
C1533 N1535 1.384 . S
N1534 C1530 1.427 . S
N1534 C1531 1.384 . S
N1535 C1527 1.427 . S
N1535 C1533 1.384 . S
H1536 C1542 0.930 . S
H1537 C1546 0.930 . S
H1538 C1551 0.929 . S
H1539 C1549 0.929 . S
H1540 C1544 0.929 . S
H1541 C1550 0.929 . S
C1542 H1536 0.930 . S
C1542 C1543 1.367 . S
C1542 C1550 1.378 . S
C1543 C1542 1.367 . S
C1543 C1551 1.433 . S
C1544 H1540 0.929 . S
C1544 C1546 1.378 . S
C1544 C1548 1.350 . S
C1545 C1548 1.463 . S
C1545 C1550 1.350 . S
C1545 N1553 1.427 . S
C1546 H1537 0.930 . S
C1546 C1544 1.378 . S
C1546 C1547 1.367 . S
C1547 C1546 1.367 . S
C1547 C1549 1.433 . S
C1548 C1544 1.350 . S
C1548 C1545 1.463 . S
C1548 N1552 1.427 . S
C1549 H1539 0.929 . S
C1549 C1547 1.433 . S
C1549 N1552 1.384 . S
C1550 H1541 0.929 . S
C1550 C1542 1.378 . S
C1550 C1545 1.350 . S
C1551 H1538 0.929 . S
C1551 C1543 1.433 . S
C1551 N1553 1.384 . S
N1552 C1548 1.427 . S
N1552 C1549 1.384 . S
N1553 C1545 1.427 . S
N1553 C1551 1.384 . S
H1554 C1560 0.930 . S
H1555 C1564 0.930 . S
H1556 C1569 0.929 . S
H1557 C1567 0.929 . S
H1558 C1562 0.929 . S
H1559 C1568 0.929 . S
C1560 H1554 0.930 . S
C1560 C1561 1.367 . S
C1560 C1568 1.378 . S
C1561 C1560 1.367 . S
C1561 C1569 1.433 . S
C1562 H1558 0.929 . S
C1562 C1564 1.378 . S
C1562 C1566 1.350 . S
C1563 C1566 1.463 . S
C1563 C1568 1.350 . S
C1563 N1571 1.427 . S
C1564 H1555 0.930 . S
C1564 C1562 1.378 . S
C1564 C1565 1.367 . S
C1565 C1564 1.367 . S
C1565 C1567 1.433 . S
C1566 C1562 1.350 . S
C1566 C1563 1.463 . S
C1566 N1570 1.427 . S
C1567 H1557 0.929 . S
C1567 C1565 1.433 . S
C1567 N1570 1.384 . S
C1568 H1559 0.929 . S
C1568 C1560 1.378 . S
C1568 C1563 1.350 . S
C1569 H1556 0.929 . S
C1569 C1561 1.433 . S
C1569 N1571 1.384 . S
N1570 C1566 1.427 . S
N1570 C1567 1.384 . S
N1571 C1563 1.427 . S
N1571 C1569 1.384 . S
H1572 C1578 0.923 1_545 S
H1573 C1582 0.930 . S
H1574 C1587 0.929 . S
H1575 C1585 0.931 . S
H1576 C1580 0.929 . S
H1577 C1586 0.922 1_545 S
C1578 H1572 0.923 1_565 S
C1578 C1579 1.374 . S
C1578 C1586 1.378 . S
C1579 C1578 1.374 . S
C1579 C1587 1.433 . S
C1580 H1576 0.929 . S
C1580 C1582 1.378 . S
C1580 C1584 1.350 . S
C1581 C1584 1.463 . S
C1581 C1586 1.357 . S
C1581 N1589 1.427 . S
C1582 H1573 0.930 . S
C1582 C1580 1.378 . S
C1582 C1583 1.367 . S
C1583 C1582 1.367 . S
C1583 C1585 1.431 1_565 S
C1584 C1580 1.350 . S
C1584 C1581 1.463 . S
C1584 N1588 1.430 . S
C1585 H1575 0.931 . S
C1585 C1583 1.431 1_545 S
C1585 N1588 1.384 1_545 S
C1586 H1577 0.922 1_565 S
C1586 C1578 1.378 . S
C1586 C1581 1.357 . S
C1587 H1574 0.929 . S
C1587 C1579 1.433 . S
C1587 N1589 1.384 . S
N1588 C1584 1.430 . S
N1588 C1585 1.384 1_565 S
N1589 C1581 1.427 . S
N1589 C1587 1.384 . S
H1590 C1596 0.930 . S
H1591 C1600 0.930 . S
H1592 C1605 0.929 . S
H1593 C1603 0.929 . S
H1594 C1598 0.929 . S
H1595 C1604 0.929 . S
C1596 H1590 0.930 . S
C1596 C1597 1.364 . S
C1596 C1604 1.378 . S
C1597 C1596 1.364 . S
C1597 C1605 1.437 1_556 S
C1598 H1594 0.929 . S
C1598 C1600 1.378 . S
C1598 C1602 1.373 . S
C1599 C1602 1.461 1_546 S
C1599 C1604 1.373 . S
C1599 N1607 1.404 1_556 S
C1600 H1591 0.930 . S
C1600 C1598 1.378 . S
C1600 C1601 1.364 . S
C1601 C1600 1.364 . S
C1601 C1603 1.437 1_554 S
C1602 C1598 1.373 . S
C1602 C1599 1.461 1_564 S
C1602 N1606 1.404 1_554 S
C1603 H1593 0.929 . S
C1603 C1601 1.437 1_556 S
C1603 N1606 1.384 . S
C1604 H1595 0.929 . S
C1604 C1596 1.378 . S
C1604 C1599 1.373 . S
C1605 H1592 0.929 . S
C1605 C1597 1.437 1_554 S
C1605 N1607 1.384 . S
N1606 C1602 1.404 1_556 S
N1606 C1603 1.384 . S
N1607 C1599 1.404 1_554 S
N1607 C1605 1.384 . S
H1608 C1614 0.930 . S
H1609 C1618 0.930 . S
H1610 C1623 0.929 . S
H1611 C1621 0.929 . S
H1612 C1616 0.929 . S
H1613 C1622 0.929 . S
C1614 H1608 0.930 . S
C1614 C1615 1.367 . S
C1614 C1622 1.378 . S
C1615 C1614 1.367 . S
C1615 C1623 1.433 . S
C1616 H1612 0.929 . S
C1616 C1618 1.378 . S
C1616 C1620 1.350 . S
C1617 C1620 1.463 . S
C1617 C1622 1.350 . S
C1617 N1625 1.427 . S
C1618 H1609 0.930 . S
C1618 C1616 1.378 . S
C1618 C1619 1.367 . S
C1619 C1618 1.367 . S
C1619 C1621 1.433 . S
C1620 C1616 1.350 . S
C1620 C1617 1.463 . S
C1620 N1624 1.427 . S
C1621 H1611 0.929 . S
C1621 C1619 1.433 . S
C1621 N1624 1.384 . S
C1622 H1613 0.929 . S
C1622 C1614 1.378 . S
C1622 C1617 1.350 . S
C1623 H1610 0.929 . S
C1623 C1615 1.433 . S
C1623 N1625 1.384 . S
N1624 C1620 1.427 . S
N1624 C1621 1.384 . S
N1625 C1617 1.427 . S
N1625 C1623 1.384 . S
H1626 C1632 0.930 . S
H1627 C1636 0.930 . S
H1628 C1641 0.929 . S
H1629 C1639 0.929 . S
H1630 C1634 0.929 . S
H1631 C1640 0.929 . S
C1632 H1626 0.930 . S
C1632 C1633 1.399 . S
C1632 C1640 1.378 . S
C1633 C1632 1.399 . S
C1633 C1641 1.401 1_556 S
C1634 H1630 0.929 . S
C1634 C1636 1.378 . S
C1634 C1638 1.376 . S
C1635 C1638 1.460 1_556 S
C1635 C1640 1.376 . S
C1635 N1643 1.401 1_556 S
C1636 H1627 0.930 . S
C1636 C1634 1.378 . S
C1636 C1637 1.399 . S
C1637 C1636 1.399 . S
C1637 C1639 1.401 1_554 S
C1638 C1634 1.376 . S
C1638 C1635 1.460 1_554 S
C1638 N1642 1.401 1_554 S
C1639 H1629 0.929 . S
C1639 C1637 1.401 1_556 S
C1639 N1642 1.384 . S
C1640 H1631 0.929 . S
C1640 C1632 1.378 . S
C1640 C1635 1.376 . S
C1641 H1628 0.929 . S
C1641 C1633 1.401 1_554 S
C1641 N1643 1.384 . S
N1642 C1638 1.401 1_556 S
N1642 C1639 1.384 . S
N1643 C1635 1.401 1_554 S
N1643 C1641 1.384 . S
H1644 C1650 0.930 . S
H1645 C1654 0.930 . S
H1646 C1659 0.929 . S
H1647 C1657 0.929 . S
H1648 C1652 0.929 . S
H1649 C1658 0.929 . S
C1650 H1644 0.930 . S
C1650 C1651 1.367 . S
C1650 C1658 1.378 . S
C1651 C1650 1.367 . S
C1651 C1659 1.433 . S
C1652 H1648 0.929 . S
C1652 C1654 1.378 . S
C1652 C1656 1.350 . S
C1653 C1656 1.463 . S
C1653 C1658 1.350 . S
C1653 N1661 1.427 . S
C1654 H1645 0.930 . S
C1654 C1652 1.378 . S
C1654 C1655 1.367 . S
C1655 C1654 1.367 . S
C1655 C1657 1.433 . S
C1656 C1652 1.350 . S
C1656 C1653 1.463 . S
C1656 N1660 1.427 . S
C1657 H1647 0.929 . S
C1657 C1655 1.433 . S
C1657 N1660 1.384 . S
C1658 H1649 0.929 . S
C1658 C1650 1.378 . S
C1658 C1653 1.350 . S
C1659 H1646 0.929 . S
C1659 C1651 1.433 . S
C1659 N1661 1.384 . S
N1660 C1656 1.427 . S
N1660 C1657 1.384 . S
N1661 C1653 1.427 . S
N1661 C1659 1.384 . S
H1662 C1668 0.930 . S
H1663 C1672 0.930 . S
H1664 C1677 0.929 . S
H1665 C1675 0.929 . S
H1666 C1670 0.929 . S
H1667 C1676 0.929 . S
C1668 H1662 0.930 . S
C1668 C1669 1.367 . S
C1668 C1676 1.378 . S
C1669 C1668 1.367 . S
C1669 C1677 1.433 . S
C1670 H1666 0.929 . S
C1670 C1672 1.378 . S
C1670 C1674 1.350 . S
C1671 C1674 1.463 1_545 S
C1671 C1676 1.350 . S
C1671 N1679 1.427 . S
C1672 H1663 0.930 . S
C1672 C1670 1.378 . S
C1672 C1673 1.367 . S
C1673 C1672 1.367 . S
C1673 C1675 1.433 . S
C1674 C1670 1.350 . S
C1674 C1671 1.463 1_565 S
C1674 N1678 1.427 . S
C1675 H1665 0.929 . S
C1675 C1673 1.433 . S
C1675 N1678 1.384 . S
C1676 H1667 0.929 . S
C1676 C1668 1.378 . S
C1676 C1671 1.350 . S
C1677 H1664 0.929 . S
C1677 C1669 1.433 . S
C1677 N1679 1.384 . S
N1678 C1674 1.427 . S
N1678 C1675 1.384 . S
N1679 C1671 1.427 . S
N1679 C1677 1.384 . S
H1680 C1686 0.930 . S
H1681 C1690 0.930 . S
H1682 C1695 0.929 . S
H1683 C1693 0.929 . S
H1684 C1688 0.929 . S
H1685 C1694 0.929 . S
C1686 H1680 0.930 . S
C1686 C1687 1.367 . S
C1686 C1694 1.378 . S
C1687 C1686 1.367 . S
C1687 C1695 1.433 . S
C1688 H1684 0.929 . S
C1688 C1690 1.378 . S
C1688 C1692 1.350 . S
C1689 C1692 1.463 . S
C1689 C1694 1.350 . S
C1689 N1697 1.427 . S
C1690 H1681 0.930 . S
C1690 C1688 1.378 . S
C1690 C1691 1.367 . S
C1691 C1690 1.367 . S
C1691 C1693 1.433 . S
C1692 C1688 1.350 . S
C1692 C1689 1.463 . S
C1692 N1696 1.427 . S
C1693 H1683 0.929 . S
C1693 C1691 1.433 . S
C1693 N1696 1.384 . S
C1694 H1685 0.929 . S
C1694 C1686 1.378 . S
C1694 C1689 1.350 . S
C1695 H1682 0.929 . S
C1695 C1687 1.433 . S
C1695 N1697 1.384 . S
N1696 C1692 1.427 . S
N1696 C1693 1.384 . S
N1697 C1689 1.427 . S
N1697 C1695 1.384 . S
H1698 C1704 0.930 . S
H1699 C1708 0.930 . S
H1700 C1713 0.929 . S
H1701 C1711 0.929 . S
H1702 C1706 0.929 . S
H1703 C1712 0.929 . S
C1704 H1698 0.930 . S
C1704 C1705 1.367 . S
C1704 C1712 1.378 . S
C1705 C1704 1.367 . S
C1705 C1713 1.433 . S
C1706 H1702 0.929 . S
C1706 C1708 1.378 . S
C1706 C1710 1.350 . S
C1707 C1710 1.463 1_455 S
C1707 C1712 1.350 . S
C1707 N1715 1.427 . S
C1708 H1699 0.930 . S
C1708 C1706 1.378 . S
C1708 C1709 1.367 . S
C1709 C1708 1.367 . S
C1709 C1711 1.433 . S
C1710 C1706 1.350 . S
C1710 C1707 1.463 1_655 S
C1710 N1714 1.427 . S
C1711 H1701 0.929 . S
C1711 C1709 1.433 . S
C1711 N1714 1.384 . S
C1712 H1703 0.929 . S
C1712 C1704 1.378 . S
C1712 C1707 1.350 . S
C1713 H1700 0.929 . S
C1713 C1705 1.433 . S
C1713 N1715 1.384 . S
N1714 C1710 1.427 . S
N1714 C1711 1.384 . S
N1715 C1707 1.427 . S
N1715 C1713 1.384 . S
H1716 C1722 0.930 . S
H1717 C1726 0.930 1_556 S
H1718 C1731 0.929 1_556 S
H1719 C1729 0.929 . S
H1720 C1724 0.929 1_556 S
H1721 C1730 0.929 . S
C1722 H1716 0.930 . S
C1722 C1723 1.367 . S
C1722 C1730 1.378 . S
C1723 C1722 1.367 . S
C1723 C1731 1.433 . S
C1724 H1720 0.929 1_554 S
C1724 C1726 1.378 . S
C1724 C1728 1.350 . S
C1725 C1728 1.463 . S
C1725 C1730 1.350 . S
C1725 N1733 1.427 . S
C1726 H1717 0.930 1_554 S
C1726 C1724 1.378 . S
C1726 C1727 1.367 . S
C1727 C1726 1.367 . S
C1727 C1729 1.433 . S
C1728 C1724 1.350 . S
C1728 C1725 1.463 . S
C1728 N1732 1.427 . S
C1729 H1719 0.929 . S
C1729 C1727 1.433 . S
C1729 N1732 1.384 . S
C1730 H1721 0.929 . S
C1730 C1722 1.378 . S
C1730 C1725 1.350 . S
C1731 H1718 0.929 1_554 S
C1731 C1723 1.433 . S
C1731 N1733 1.384 . S
N1732 C1728 1.427 . S
N1732 C1729 1.384 . S
N1733 C1725 1.427 . S
N1733 C1731 1.384 . S
H1734 C1740 0.930 . S
H1735 C1744 0.930 . S
H1736 C1749 0.929 . S
H1737 C1747 0.929 . S
H1738 C1742 0.929 . S
H1739 C1748 0.929 . S
C1740 H1734 0.930 . S
C1740 C1741 1.364 1_545 S
C1740 C1748 1.378 . S
C1741 C1740 1.364 1_565 S
C1741 C1749 1.436 . S
C1742 H1738 0.929 . S
C1742 C1744 1.378 . S
C1742 C1746 1.352 . S
C1743 C1746 1.462 1_645 S
C1743 C1748 1.352 . S
C1743 N1751 1.425 1_545 S
C1744 H1735 0.930 . S
C1744 C1742 1.378 . S
C1744 C1745 1.364 1_565 S
C1745 C1744 1.364 1_545 S
C1745 C1747 1.436 . S
C1746 C1742 1.352 . S
C1746 C1743 1.462 1_465 S
C1746 N1750 1.425 1_565 S
C1747 H1737 0.929 . S
C1747 C1745 1.436 . S
C1747 N1750 1.384 . S
C1748 H1739 0.929 . S
C1748 C1740 1.378 . S
C1748 C1743 1.352 . S
C1749 H1736 0.929 . S
C1749 C1741 1.436 . S
C1749 N1751 1.384 . S
N1750 C1746 1.425 1_545 S
N1750 C1747 1.384 . S
N1751 C1743 1.425 1_565 S
N1751 C1749 1.384 . S
H1752 C1758 0.930 . S
H1753 C1762 0.930 . S
H1754 C1767 0.929 . S
H1755 C1765 0.929 . S
H1756 C1760 0.929 . S
H1757 C1766 0.929 . S
C1758 H1752 0.930 . S
C1758 C1759 1.367 . S
C1758 C1766 1.378 . S
C1759 C1758 1.367 . S
C1759 C1767 1.433 . S
C1760 H1756 0.929 . S
C1760 C1762 1.378 . S
C1760 C1764 1.350 . S
C1761 C1764 1.463 . S
C1761 C1766 1.350 . S
C1761 N1769 1.427 . S
C1762 H1753 0.930 . S
C1762 C1760 1.378 . S
C1762 C1763 1.367 . S
C1763 C1762 1.367 . S
C1763 C1765 1.433 . S
C1764 C1760 1.350 . S
C1764 C1761 1.463 . S
C1764 N1768 1.427 . S
C1765 H1755 0.929 . S
C1765 C1763 1.433 . S
C1765 N1768 1.384 . S
C1766 H1757 0.929 . S
C1766 C1758 1.378 . S
C1766 C1761 1.350 . S
C1767 H1754 0.929 . S
C1767 C1759 1.433 . S
C1767 N1769 1.384 . S
N1768 C1764 1.427 . S
N1768 C1765 1.384 . S
N1769 C1761 1.427 . S
N1769 C1767 1.384 . S
H1770 C1776 0.930 . S
H1771 C1780 0.930 . S
H1772 C1785 0.929 . S
H1773 C1783 0.929 . S
H1774 C1778 0.929 . S
H1775 C1784 0.929 . S
C1776 H1770 0.930 . S
C1776 C1777 1.367 . S
C1776 C1784 1.378 . S
C1777 C1776 1.367 . S
C1777 C1785 1.433 . S
C1778 H1774 0.929 . S
C1778 C1780 1.378 . S
C1778 C1782 1.350 . S
C1779 C1782 1.463 . S
C1779 C1784 1.350 . S
C1779 N1787 1.427 . S
C1780 H1771 0.930 . S
C1780 C1778 1.378 . S
C1780 C1781 1.367 . S
C1781 C1780 1.367 . S
C1781 C1783 1.433 . S
C1782 C1778 1.350 . S
C1782 C1779 1.463 . S
C1782 N1786 1.427 . S
C1783 H1773 0.929 . S
C1783 C1781 1.433 . S
C1783 N1786 1.384 . S
C1784 H1775 0.929 . S
C1784 C1776 1.378 . S
C1784 C1779 1.350 . S
C1785 H1772 0.929 . S
C1785 C1777 1.433 . S
C1785 N1787 1.384 . S
N1786 C1782 1.427 . S
N1786 C1783 1.384 . S
N1787 C1779 1.427 . S
N1787 C1785 1.384 . S
H1788 C1794 0.930 1_554 S
H1789 C1798 0.930 . S
H1790 C1803 0.929 . S
H1791 C1801 0.929 1_554 S
H1792 C1796 0.929 . S
H1793 C1802 0.929 1_554 S
C1794 H1788 0.930 1_556 S
C1794 C1795 1.367 . S
C1794 C1802 1.378 . S
C1795 C1794 1.367 . S
C1795 C1803 1.433 . S
C1796 H1792 0.929 . S
C1796 C1798 1.378 . S
C1796 C1800 1.350 . S
C1797 C1800 1.463 . S
C1797 C1802 1.350 . S
C1797 N1805 1.427 . S
C1798 H1789 0.930 . S
C1798 C1796 1.378 . S
C1798 C1799 1.367 . S
C1799 C1798 1.367 . S
C1799 C1801 1.433 . S
C1800 C1796 1.350 . S
C1800 C1797 1.463 . S
C1800 N1804 1.427 . S
C1801 H1791 0.929 1_556 S
C1801 C1799 1.433 . S
C1801 N1804 1.384 . S
C1802 H1793 0.929 1_556 S
C1802 C1794 1.378 . S
C1802 C1797 1.350 . S
C1803 H1790 0.929 . S
C1803 C1795 1.433 . S
C1803 N1805 1.384 . S
N1804 C1800 1.427 . S
N1804 C1801 1.384 . S
N1805 C1797 1.427 . S
N1805 C1803 1.384 . S
H1806 C1812 0.934 . S
H1807 C1816 0.934 . S
H1808 C1821 0.929 . S
H1809 C1819 0.929 . S
H1810 C1814 0.929 . S
H1811 C1820 0.929 . S
C1812 H1806 0.934 . S
C1812 C1813 1.365 1_565 S
C1812 C1820 1.379 . S
C1813 C1812 1.365 1_545 S
C1813 C1821 1.434 . S
C1814 H1810 0.929 . S
C1814 C1816 1.379 . S
C1814 C1818 1.350 1_545 S
C1815 C1818 1.463 1_545 S
C1815 C1820 1.350 1_545 S
C1815 N1823 1.427 . S
C1816 H1807 0.934 . S
C1816 C1814 1.379 . S
C1816 C1817 1.365 1_545 S
C1817 C1816 1.365 1_565 S
C1817 C1819 1.434 . S
C1818 C1814 1.350 1_565 S
C1818 C1815 1.463 1_565 S
C1818 N1822 1.427 . S
C1819 H1809 0.929 . S
C1819 C1817 1.434 . S
C1819 N1822 1.384 . S
C1820 H1811 0.929 . S
C1820 C1812 1.379 . S
C1820 C1815 1.350 1_565 S
C1821 H1808 0.929 . S
C1821 C1813 1.434 . S
C1821 N1823 1.384 . S
N1822 C1818 1.427 . S
N1822 C1819 1.384 . S
N1823 C1815 1.427 . S
N1823 C1821 1.384 . S
H1824 C1830 0.930 . S
H1825 C1834 0.930 . S
H1826 C1839 0.929 . S
H1827 C1837 0.929 . S
H1828 C1832 0.929 . S
H1829 C1838 0.929 . S
C1830 H1824 0.930 . S
C1830 C1831 1.367 . S
C1830 C1838 1.378 . S
C1831 C1830 1.367 . S
C1831 C1839 1.433 . S
C1832 H1828 0.929 . S
C1832 C1834 1.378 . S
C1832 C1836 1.350 . S
C1833 C1836 1.463 . S
C1833 C1838 1.350 . S
C1833 N1841 1.427 . S
C1834 H1825 0.930 . S
C1834 C1832 1.378 . S
C1834 C1835 1.367 . S
C1835 C1834 1.367 . S
C1835 C1837 1.433 . S
C1836 C1832 1.350 . S
C1836 C1833 1.463 . S
C1836 N1840 1.427 . S
C1837 H1827 0.929 . S
C1837 C1835 1.433 . S
C1837 N1840 1.384 . S
C1838 H1829 0.929 . S
C1838 C1830 1.378 . S
C1838 C1833 1.350 . S
C1839 H1826 0.929 . S
C1839 C1831 1.433 . S
C1839 N1841 1.384 . S
N1840 C1836 1.427 . S
N1840 C1837 1.384 . S
N1841 C1833 1.427 . S
N1841 C1839 1.384 . S
H1842 C1848 0.930 . S
H1843 C1852 0.930 . S
H1844 C1857 0.929 . S
H1845 C1855 0.929 . S
H1846 C1850 0.929 . S
H1847 C1856 0.929 . S
C1848 H1842 0.930 . S
C1848 C1849 1.367 . S
C1848 C1856 1.378 . S
C1849 C1848 1.367 . S
C1849 C1857 1.433 . S
C1850 H1846 0.929 . S
C1850 C1852 1.378 . S
C1850 C1854 1.350 . S
C1851 C1854 1.463 . S
C1851 C1856 1.350 . S
C1851 N1859 1.427 . S
C1852 H1843 0.930 . S
C1852 C1850 1.378 . S
C1852 C1853 1.367 . S
C1853 C1852 1.367 . S
C1853 C1855 1.433 . S
C1854 C1850 1.350 . S
C1854 C1851 1.463 . S
C1854 N1858 1.427 . S
C1855 H1845 0.929 . S
C1855 C1853 1.433 . S
C1855 N1858 1.384 . S
C1856 H1847 0.929 . S
C1856 C1848 1.378 . S
C1856 C1851 1.350 . S
C1857 H1844 0.929 . S
C1857 C1849 1.433 . S
C1857 N1859 1.384 . S
N1858 C1854 1.427 . S
N1858 C1855 1.384 . S
N1859 C1851 1.427 . S
N1859 C1857 1.384 . S
H1860 C1866 0.930 . S
H1861 C1870 0.930 . S
H1862 C1875 0.929 . S
H1863 C1873 0.929 . S
H1864 C1868 0.929 . S
H1865 C1874 0.929 . S
C1866 H1860 0.930 . S
C1866 C1867 1.367 . S
C1866 C1874 1.378 . S
C1867 C1866 1.367 . S
C1867 C1875 1.433 . S
C1868 H1864 0.929 . S
C1868 C1870 1.378 . S
C1868 C1872 1.350 . S
C1869 C1872 1.463 . S
C1869 C1874 1.350 . S
C1869 N1877 1.427 . S
C1870 H1861 0.930 . S
C1870 C1868 1.378 . S
C1870 C1871 1.367 . S
C1871 C1870 1.367 . S
C1871 C1873 1.433 . S
C1872 C1868 1.350 . S
C1872 C1869 1.463 . S
C1872 N1876 1.427 . S
C1873 H1863 0.929 . S
C1873 C1871 1.433 . S
C1873 N1876 1.384 . S
C1874 H1865 0.929 . S
C1874 C1866 1.378 . S
C1874 C1869 1.350 . S
C1875 H1862 0.929 . S
C1875 C1867 1.433 . S
C1875 N1877 1.384 . S
N1876 C1872 1.427 . S
N1876 C1873 1.384 . S
N1877 C1869 1.427 . S
N1877 C1875 1.384 . S
H1878 C1884 0.930 . S
H1879 C1888 0.930 . S
H1880 C1893 0.929 . S
H1881 C1891 0.929 . S
H1882 C1886 0.929 . S
H1883 C1892 0.929 . S
C1884 H1878 0.930 . S
C1884 C1885 1.367 . S
C1884 C1892 1.378 . S
C1885 C1884 1.367 . S
C1885 C1893 1.433 . S
C1886 H1882 0.929 . S
C1886 C1888 1.378 . S
C1886 C1890 1.350 . S
C1887 C1890 1.463 . S
C1887 C1892 1.350 . S
C1887 N1895 1.427 . S
C1888 H1879 0.930 . S
C1888 C1886 1.378 . S
C1888 C1889 1.367 . S
C1889 C1888 1.367 . S
C1889 C1891 1.433 . S
C1890 C1886 1.350 . S
C1890 C1887 1.463 . S
C1890 N1894 1.427 . S
C1891 H1881 0.929 . S
C1891 C1889 1.433 . S
C1891 N1894 1.384 . S
C1892 H1883 0.929 . S
C1892 C1884 1.378 . S
C1892 C1887 1.350 . S
C1893 H1880 0.929 . S
C1893 C1885 1.433 . S
C1893 N1895 1.384 . S
N1894 C1890 1.427 . S
N1894 C1891 1.384 . S
N1895 C1887 1.427 . S
N1895 C1893 1.384 . S
H1896 C1902 0.930 . S
H1897 C1906 0.930 . S
H1898 C1911 0.929 . S
H1899 C1909 0.929 . S
H1900 C1904 0.929 . S
H1901 C1910 0.929 . S
C1902 H1896 0.930 . S
C1902 C1903 1.406 . S
C1902 C1910 1.378 . S
C1903 C1902 1.406 . S
C1903 C1911 1.393 1_455 S
C1904 H1900 0.929 . S
C1904 C1906 1.378 . S
C1904 C1908 1.384 . S
C1905 C1908 1.460 1_456 S
C1905 C1910 1.384 . S
C1905 N1913 1.393 1_455 S
C1906 H1897 0.930 . S
C1906 C1904 1.378 . S
C1906 C1907 1.406 . S
C1907 C1906 1.406 . S
C1907 C1909 1.393 1_655 S
C1908 C1904 1.384 . S
C1908 C1905 1.460 1_654 S
C1908 N1912 1.393 1_655 S
C1909 H1899 0.929 . S
C1909 C1907 1.393 1_455 S
C1909 N1912 1.384 . S
C1910 H1901 0.929 . S
C1910 C1902 1.378 . S
C1910 C1905 1.384 . S
C1911 H1898 0.929 . S
C1911 C1903 1.393 1_655 S
C1911 N1913 1.384 . S
N1912 C1908 1.393 1_455 S
N1912 C1909 1.384 . S
N1913 C1905 1.393 1_655 S
N1913 C1911 1.384 . S
H1914 C1920 0.930 . S
H1915 C1924 0.930 . S
H1916 C1929 0.929 . S
H1917 C1927 0.929 . S
H1918 C1922 0.929 . S
H1919 C1928 0.929 . S
C1920 H1914 0.930 . S
C1920 C1921 1.367 . S
C1920 C1928 1.378 . S
C1921 C1920 1.367 . S
C1921 C1929 1.433 . S
C1922 H1918 0.929 . S
C1922 C1924 1.378 . S
C1922 C1926 1.350 . S
C1923 C1926 1.463 . S
C1923 C1928 1.350 . S
C1923 N1931 1.427 . S
C1924 H1915 0.930 . S
C1924 C1922 1.378 . S
C1924 C1925 1.367 . S
C1925 C1924 1.367 . S
C1925 C1927 1.433 . S
C1926 C1922 1.350 . S
C1926 C1923 1.463 . S
C1926 N1930 1.427 . S
C1927 H1917 0.929 . S
C1927 C1925 1.433 . S
C1927 N1930 1.384 . S
C1928 H1919 0.929 . S
C1928 C1920 1.378 . S
C1928 C1923 1.350 . S
C1929 H1916 0.929 . S
C1929 C1921 1.433 . S
C1929 N1931 1.384 . S
N1930 C1926 1.427 . S
N1930 C1927 1.384 . S
N1931 C1923 1.427 . S
N1931 C1929 1.384 . S
H1932 C1938 0.930 . S
H1933 C1942 0.930 . S
H1934 C1947 0.929 . S
H1935 C1945 0.929 . S
H1936 C1940 0.929 . S
H1937 C1946 0.929 . S
C1938 H1932 0.930 . S
C1938 C1939 1.367 . S
C1938 C1946 1.378 . S
C1939 C1938 1.367 . S
C1939 C1947 1.433 . S
C1940 H1936 0.929 . S
C1940 C1942 1.378 . S
C1940 C1944 1.350 . S
C1941 C1944 1.463 1_554 S
C1941 C1946 1.350 . S
C1941 N1949 1.427 . S
C1942 H1933 0.930 . S
C1942 C1940 1.378 . S
C1942 C1943 1.367 . S
C1943 C1942 1.367 . S
C1943 C1945 1.433 . S
C1944 C1940 1.350 . S
C1944 C1941 1.463 1_556 S
C1944 N1948 1.427 . S
C1945 H1935 0.929 . S
C1945 C1943 1.433 . S
C1945 N1948 1.384 . S
C1946 H1937 0.929 . S
C1946 C1938 1.378 . S
C1946 C1941 1.350 . S
C1947 H1934 0.929 . S
C1947 C1939 1.433 . S
C1947 N1949 1.384 . S
N1948 C1944 1.427 . S
N1948 C1945 1.384 . S
N1949 C1941 1.427 . S
N1949 C1947 1.384 . S
H1950 C1956 0.930 . S
H1951 C1960 0.929 1_565 S
H1952 C1965 0.922 1_565 S
H1953 C1963 0.929 . S
H1954 C1958 0.928 1_565 S
H1955 C1964 0.929 . S
C1956 H1950 0.930 . S
C1956 C1957 1.367 . S
C1956 C1964 1.378 . S
C1957 C1956 1.367 . S
C1957 C1965 1.433 . S
C1958 H1954 0.928 1_545 S
C1958 C1960 1.378 . S
C1958 C1962 1.350 . S
C1959 C1962 1.463 . S
C1959 C1964 1.350 . S
C1959 N1967 1.427 . S
C1960 H1951 0.929 1_545 S
C1960 C1958 1.378 . S
C1960 C1961 1.367 . S
C1961 C1960 1.367 . S
C1961 C1963 1.433 . S
C1962 C1958 1.350 . S
C1962 C1959 1.463 . S
C1962 N1966 1.427 . S
C1963 H1953 0.929 . S
C1963 C1961 1.433 . S
C1963 N1966 1.384 . S
C1964 H1955 0.929 . S
C1964 C1956 1.378 . S
C1964 C1959 1.350 . S
C1965 H1952 0.922 1_545 S
C1965 C1957 1.433 . S
C1965 N1967 1.384 . S
N1966 C1962 1.427 . S
N1966 C1963 1.384 . S
N1967 C1959 1.427 . S
N1967 C1965 1.384 . S
H1968 C1974 0.930 . S
H1969 C1978 0.930 . S
H1970 C1983 0.929 . S
H1971 C1981 0.929 . S
H1972 C1976 0.929 . S
H1973 C1982 0.929 . S
C1974 H1968 0.930 . S
C1974 C1975 1.383 . S
C1974 C1982 1.378 . S
C1975 C1974 1.383 . S
C1975 C1983 1.417 1_556 S
C1976 H1972 0.929 . S
C1976 C1978 1.378 . S
C1976 C1980 1.361 . S
C1977 C1980 1.462 1_546 S
C1977 C1982 1.361 . S
C1977 N1985 1.417 1_556 S
C1978 H1969 0.930 . S
C1978 C1976 1.378 . S
C1978 C1979 1.383 . S
C1979 C1978 1.383 . S
C1979 C1981 1.417 1_554 S
C1980 C1976 1.361 . S
C1980 C1977 1.462 1_564 S
C1980 N1984 1.417 1_554 S
C1981 H1971 0.929 . S
C1981 C1979 1.417 1_556 S
C1981 N1984 1.384 . S
C1982 H1973 0.929 . S
C1982 C1974 1.378 . S
C1982 C1977 1.361 . S
C1983 H1970 0.929 . S
C1983 C1975 1.417 1_554 S
C1983 N1985 1.384 . S
N1984 C1980 1.417 1_556 S
N1984 C1981 1.384 . S
N1985 C1977 1.417 1_554 S
N1985 C1983 1.384 . S
H1986 C1992 0.930 . S
H1987 C1996 0.930 . S
H1988 C2001 0.929 . S
H1989 C1999 0.929 . S
H1990 C1994 0.929 . S
H1991 C2000 0.929 . S
C1992 H1986 0.930 . S
C1992 C1993 1.367 . S
C1992 C2000 1.378 . S
C1993 C1992 1.367 . S
C1993 C2001 1.433 . S
C1994 H1990 0.929 . S
C1994 C1996 1.378 . S
C1994 C1998 1.350 . S
C1995 C1998 1.463 . S
C1995 C2000 1.350 . S
C1995 N2003 1.427 . S
C1996 H1987 0.930 . S
C1996 C1994 1.378 . S
C1996 C1997 1.367 . S
C1997 C1996 1.367 . S
C1997 C1999 1.433 . S
C1998 C1994 1.350 . S
C1998 C1995 1.463 . S
C1998 N2002 1.427 . S
C1999 H1989 0.929 . S
C1999 C1997 1.433 . S
C1999 N2002 1.384 . S
C2000 H1991 0.929 . S
C2000 C1992 1.378 . S
C2000 C1995 1.350 . S
C2001 H1988 0.929 . S
C2001 C1993 1.433 . S
C2001 N2003 1.384 . S
N2002 C1998 1.427 . S
N2002 C1999 1.384 . S
N2003 C1995 1.427 . S
N2003 C2001 1.384 . S
H2004 C2010 0.930 . S
H2005 C2014 0.930 . S
H2006 C2019 0.929 . S
H2007 C2017 0.929 . S
H2008 C2012 0.929 . S
H2009 C2018 0.929 . S
C2010 H2004 0.930 . S
C2010 C2011 1.367 . S
C2010 C2018 1.378 . S
C2011 C2010 1.367 . S
C2011 C2019 1.433 . S
C2012 H2008 0.929 . S
C2012 C2014 1.378 . S
C2012 C2016 1.350 . S
C2013 C2016 1.463 . S
C2013 C2018 1.350 . S
C2013 N2021 1.427 . S
C2014 H2005 0.930 . S
C2014 C2012 1.378 . S
C2014 C2015 1.367 . S
C2015 C2014 1.367 . S
C2015 C2017 1.433 . S
C2016 C2012 1.350 . S
C2016 C2013 1.463 . S
C2016 N2020 1.427 . S
C2017 H2007 0.929 . S
C2017 C2015 1.433 . S
C2017 N2020 1.384 . S
C2018 H2009 0.929 . S
C2018 C2010 1.378 . S
C2018 C2013 1.350 . S
C2019 H2006 0.929 . S
C2019 C2011 1.433 . S
C2019 N2021 1.384 . S
N2020 C2016 1.427 . S
N2020 C2017 1.384 . S
N2021 C2013 1.427 . S
N2021 C2019 1.384 . S
H2022 C2028 0.930 . S
H2023 C2032 0.930 1_545 S
H2024 C2037 0.929 1_545 S
H2025 C2035 0.929 . S
H2026 C2030 0.929 1_545 S
H2027 C2036 0.929 . S
C2028 H2022 0.930 . S
C2028 C2029 1.367 . S
C2028 C2036 1.378 . S
C2029 C2028 1.367 . S
C2029 C2037 1.433 . S
C2030 H2026 0.929 1_565 S
C2030 C2032 1.378 . S
C2030 C2034 1.350 . S
C2031 C2034 1.463 . S
C2031 C2036 1.350 . S
C2031 N2039 1.427 . S
C2032 H2023 0.930 1_565 S
C2032 C2030 1.378 . S
C2032 C2033 1.367 . S
C2033 C2032 1.367 . S
C2033 C2035 1.433 . S
C2034 C2030 1.350 . S
C2034 C2031 1.463 . S
C2034 N2038 1.427 . S
C2035 H2025 0.929 . S
C2035 C2033 1.433 . S
C2035 N2038 1.384 . S
C2036 H2027 0.929 . S
C2036 C2028 1.378 . S
C2036 C2031 1.350 . S
C2037 H2024 0.929 1_565 S
C2037 C2029 1.433 . S
C2037 N2039 1.384 . S
N2038 C2034 1.427 . S
N2038 C2035 1.384 . S
N2039 C2031 1.427 . S
N2039 C2037 1.384 . S
H2040 C2046 0.930 . S
H2041 C2050 0.930 . S
H2042 C2055 0.929 . S
H2043 C2053 0.929 . S
H2044 C2048 0.929 . S
H2045 C2054 0.929 . S
C2046 H2040 0.930 . S
C2046 C2047 1.367 . S
C2046 C2054 1.378 . S
C2047 C2046 1.367 . S
C2047 C2055 1.433 . S
C2048 H2044 0.929 . S
C2048 C2050 1.378 . S
C2048 C2052 1.350 . S
C2049 C2052 1.463 1_545 S
C2049 C2054 1.350 . S
C2049 N2057 1.427 . S
C2050 H2041 0.930 . S
C2050 C2048 1.378 . S
C2050 C2051 1.367 . S
C2051 C2050 1.367 . S
C2051 C2053 1.433 . S
C2052 C2048 1.350 . S
C2052 C2049 1.463 1_565 S
C2052 N2056 1.427 . S
C2053 H2043 0.929 . S
C2053 C2051 1.433 . S
C2053 N2056 1.384 . S
C2054 H2045 0.929 . S
C2054 C2046 1.378 . S
C2054 C2049 1.350 . S
C2055 H2042 0.929 . S
C2055 C2047 1.433 . S
C2055 N2057 1.384 . S
N2056 C2052 1.427 . S
N2056 C2053 1.384 . S
N2057 C2049 1.427 . S
N2057 C2055 1.384 . S
H2058 C2064 0.930 . S
H2059 C2068 0.930 . S
H2060 C2073 0.929 . S
H2061 C2071 0.929 . S
H2062 C2066 0.929 . S
H2063 C2072 0.929 . S
C2064 H2058 0.930 . S
C2064 C2065 1.367 . S
C2064 C2072 1.378 . S
C2065 C2064 1.367 . S
C2065 C2073 1.433 . S
C2066 H2062 0.929 . S
C2066 C2068 1.378 . S
C2066 C2070 1.350 . S
C2067 C2070 1.463 . S
C2067 C2072 1.350 . S
C2067 N2075 1.427 . S
C2068 H2059 0.930 . S
C2068 C2066 1.378 . S
C2068 C2069 1.367 . S
C2069 C2068 1.367 . S
C2069 C2071 1.433 . S
C2070 C2066 1.350 . S
C2070 C2067 1.463 . S
C2070 N2074 1.427 . S
C2071 H2061 0.929 . S
C2071 C2069 1.433 . S
C2071 N2074 1.384 . S
C2072 H2063 0.929 . S
C2072 C2064 1.378 . S
C2072 C2067 1.350 . S
C2073 H2060 0.929 . S
C2073 C2065 1.433 . S
C2073 N2075 1.384 . S
N2074 C2070 1.427 . S
N2074 C2071 1.384 . S
N2075 C2067 1.427 . S
N2075 C2073 1.384 . S
H2076 C2082 0.930 . S
H2077 C2086 0.930 . S
H2078 C2091 0.929 . S
H2079 C2089 0.929 . S
H2080 C2084 0.929 . S
H2081 C2090 0.929 . S
C2082 H2076 0.930 . S
C2082 C2083 1.380 . S
C2082 C2090 1.378 . S
C2083 C2082 1.380 . S
C2083 C2091 1.420 1_554 S
C2084 H2080 0.929 . S
C2084 C2086 1.378 . S
C2084 C2088 1.358 . S
C2085 C2088 1.462 1_554 S
C2085 C2090 1.358 . S
C2085 N2093 1.420 1_554 S
C2086 H2077 0.930 . S
C2086 C2084 1.378 . S
C2086 C2087 1.380 . S
C2087 C2086 1.380 . S
C2087 C2089 1.420 1_556 S
C2088 C2084 1.358 . S
C2088 C2085 1.462 1_556 S
C2088 N2092 1.420 1_556 S
C2089 H2079 0.929 . S
C2089 C2087 1.420 1_554 S
C2089 N2092 1.384 . S
C2090 H2081 0.929 . S
C2090 C2082 1.378 . S
C2090 C2085 1.358 . S
C2091 H2078 0.929 . S
C2091 C2083 1.420 1_556 S
C2091 N2093 1.384 . S
N2092 C2088 1.420 1_554 S
N2092 C2089 1.384 . S
N2093 C2085 1.420 1_556 S
N2093 C2091 1.384 . S
H2094 C2100 0.930 1_556 S
H2095 C2104 0.930 . S
H2096 C2109 0.929 . S
H2097 C2107 0.938 . S
H2098 C2102 0.929 . S
H2099 C2108 0.929 1_556 S
C2100 H2094 0.930 1_554 S
C2100 C2101 1.367 . S
C2100 C2108 1.378 . S
C2101 C2100 1.367 . S
C2101 C2109 1.433 . S
C2102 H2098 0.929 . S
C2102 C2104 1.378 . S
C2102 C2106 1.350 . S
C2103 C2106 1.463 . S
C2103 C2108 1.349 . S
C2103 N2111 1.427 . S
C2104 H2095 0.930 . S
C2104 C2102 1.378 . S
C2104 C2105 1.367 . S
C2105 C2104 1.367 . S
C2105 C2107 1.424 1_554 S
C2106 C2102 1.350 . S
C2106 C2103 1.463 . S
C2106 N2110 1.422 . S
C2107 H2097 0.938 . S
C2107 C2105 1.424 1_556 S
C2107 N2110 1.384 1_556 S
C2108 H2099 0.929 1_554 S
C2108 C2100 1.378 . S
C2108 C2103 1.349 . S
C2109 H2096 0.929 . S
C2109 C2101 1.433 . S
C2109 N2111 1.384 . S
N2110 C2106 1.422 . S
N2110 C2107 1.384 1_554 S
N2111 C2103 1.427 . S
N2111 C2109 1.384 . S
H2112 C2118 0.930 . S
H2113 C2122 0.930 . S
H2114 C2127 0.929 . S
H2115 C2125 0.929 . S
H2116 C2120 0.929 . S
H2117 C2126 0.929 . S
C2118 H2112 0.930 . S
C2118 C2119 1.367 . S
C2118 C2126 1.378 . S
C2119 C2118 1.367 . S
C2119 C2127 1.433 . S
C2120 H2116 0.929 . S
C2120 C2122 1.378 . S
C2120 C2124 1.350 . S
C2121 C2124 1.463 . S
C2121 C2126 1.350 . S
C2121 N2129 1.427 . S
C2122 H2113 0.930 . S
C2122 C2120 1.378 . S
C2122 C2123 1.367 . S
C2123 C2122 1.367 . S
C2123 C2125 1.433 . S
C2124 C2120 1.350 . S
C2124 C2121 1.463 . S
C2124 N2128 1.427 . S
C2125 H2115 0.929 . S
C2125 C2123 1.433 . S
C2125 N2128 1.384 . S
C2126 H2117 0.929 . S
C2126 C2118 1.378 . S
C2126 C2121 1.350 . S
C2127 H2114 0.929 . S
C2127 C2119 1.433 . S
C2127 N2129 1.384 . S
N2128 C2124 1.427 . S
N2128 C2125 1.384 . S
N2129 C2121 1.427 . S
N2129 C2127 1.384 . S
H2130 C2136 0.930 . S
H2131 C2140 0.920 1_554 S
H2132 C2145 0.928 . S
H2133 C2143 0.929 . S
H2134 C2138 0.919 1_554 S
H2135 C2144 0.929 . S
C2136 H2130 0.930 . S
C2136 C2137 1.367 . S
C2136 C2144 1.378 . S
C2137 C2136 1.367 . S
C2137 C2145 1.435 1_556 S
C2138 H2134 0.919 1_556 S
C2138 C2140 1.378 . S
C2138 C2142 1.360 . S
C2139 C2142 1.463 . S
C2139 C2144 1.350 . S
C2139 N2147 1.433 . S
C2140 H2131 0.920 1_556 S
C2140 C2138 1.378 . S
C2140 C2141 1.377 . S
C2141 C2140 1.377 . S
C2141 C2143 1.433 . S
C2142 C2138 1.360 . S
C2142 C2139 1.463 . S
C2142 N2146 1.427 . S
C2143 H2133 0.929 . S
C2143 C2141 1.433 . S
C2143 N2146 1.384 . S
C2144 H2135 0.929 . S
C2144 C2136 1.378 . S
C2144 C2139 1.350 . S
C2145 H2132 0.928 . S
C2145 C2137 1.435 1_554 S
C2145 N2147 1.384 1_554 S
N2146 C2142 1.427 . S
N2146 C2143 1.384 . S
N2147 C2139 1.433 . S
N2147 C2145 1.384 1_556 S
H2148 C2154 0.930 . S
H2149 C2158 0.930 . S
H2150 C2163 0.929 . S
H2151 C2161 0.929 . S
H2152 C2156 0.929 . S
H2153 C2162 0.929 . S
C2154 H2148 0.930 . S
C2154 C2155 1.367 . S
C2154 C2162 1.378 . S
C2155 C2154 1.367 . S
C2155 C2163 1.433 . S
C2156 H2152 0.929 . S
C2156 C2158 1.378 . S
C2156 C2160 1.350 . S
C2157 C2160 1.463 . S
C2157 C2162 1.350 . S
C2157 N2165 1.427 . S
C2158 H2149 0.930 . S
C2158 C2156 1.378 . S
C2158 C2159 1.367 . S
C2159 C2158 1.367 . S
C2159 C2161 1.433 . S
C2160 C2156 1.350 . S
C2160 C2157 1.463 . S
C2160 N2164 1.427 . S
C2161 H2151 0.929 . S
C2161 C2159 1.433 . S
C2161 N2164 1.384 . S
C2162 H2153 0.929 . S
C2162 C2154 1.378 . S
C2162 C2157 1.350 . S
C2163 H2150 0.929 . S
C2163 C2155 1.433 . S
C2163 N2165 1.384 . S
N2164 C2160 1.427 . S
N2164 C2161 1.384 . S
N2165 C2157 1.427 . S
N2165 C2163 1.384 . S
H2166 C2172 0.930 . S
H2167 C2176 0.930 . S
H2168 C2181 0.929 . S
H2169 C2179 0.929 . S
H2170 C2174 0.929 . S
H2171 C2180 0.929 . S
C2172 H2166 0.930 . S
C2172 C2173 1.367 . S
C2172 C2180 1.378 . S
C2173 C2172 1.367 . S
C2173 C2181 1.433 . S
C2174 H2170 0.929 . S
C2174 C2176 1.378 . S
C2174 C2178 1.350 . S
C2175 C2178 1.463 . S
C2175 C2180 1.350 . S
C2175 N2183 1.427 . S
C2176 H2167 0.930 . S
C2176 C2174 1.378 . S
C2176 C2177 1.367 . S
C2177 C2176 1.367 . S
C2177 C2179 1.433 . S
C2178 C2174 1.350 . S
C2178 C2175 1.463 . S
C2178 N2182 1.427 . S
C2179 H2169 0.929 . S
C2179 C2177 1.433 . S
C2179 N2182 1.384 . S
C2180 H2171 0.929 . S
C2180 C2172 1.378 . S
C2180 C2175 1.350 . S
C2181 H2168 0.929 . S
C2181 C2173 1.433 . S
C2181 N2183 1.384 . S
N2182 C2178 1.427 . S
N2182 C2179 1.384 . S
N2183 C2175 1.427 . S
N2183 C2181 1.384 . S
H2184 C2190 0.930 . S
H2185 C2194 0.930 . S
H2186 C2199 0.929 . S
H2187 C2197 0.929 . S
H2188 C2192 0.929 . S
H2189 C2198 0.929 . S
C2190 H2184 0.930 . S
C2190 C2191 1.367 . S
C2190 C2198 1.378 . S
C2191 C2190 1.367 . S
C2191 C2199 1.433 . S
C2192 H2188 0.929 . S
C2192 C2194 1.378 . S
C2192 C2196 1.350 . S
C2193 C2196 1.463 . S
C2193 C2198 1.350 . S
C2193 N2201 1.427 . S
C2194 H2185 0.930 . S
C2194 C2192 1.378 . S
C2194 C2195 1.367 . S
C2195 C2194 1.367 . S
C2195 C2197 1.433 . S
C2196 C2192 1.350 . S
C2196 C2193 1.463 . S
C2196 N2200 1.427 . S
C2197 H2187 0.929 . S
C2197 C2195 1.433 . S
C2197 N2200 1.384 . S
C2198 H2189 0.929 . S
C2198 C2190 1.378 . S
C2198 C2193 1.350 . S
C2199 H2186 0.929 . S
C2199 C2191 1.433 . S
C2199 N2201 1.384 . S
N2200 C2196 1.427 . S
N2200 C2197 1.384 . S
N2201 C2193 1.427 . S
N2201 C2199 1.384 . S
H2202 C2208 0.930 . S
H2203 C2212 0.930 . S
H2204 C2217 0.929 . S
H2205 C2215 0.929 . S
H2206 C2210 0.929 . S
H2207 C2216 0.929 . S
C2208 H2202 0.930 . S
C2208 C2209 1.367 . S
C2208 C2216 1.378 . S
C2209 C2208 1.367 . S
C2209 C2217 1.433 . S
C2210 H2206 0.929 . S
C2210 C2212 1.378 . S
C2210 C2214 1.350 . S
C2211 C2214 1.463 1_554 S
C2211 C2216 1.350 . S
C2211 N2219 1.427 . S
C2212 H2203 0.930 . S
C2212 C2210 1.378 . S
C2212 C2213 1.367 . S
C2213 C2212 1.367 . S
C2213 C2215 1.433 . S
C2214 C2210 1.350 . S
C2214 C2211 1.463 1_556 S
C2214 N2218 1.427 . S
C2215 H2205 0.929 . S
C2215 C2213 1.433 . S
C2215 N2218 1.384 . S
C2216 H2207 0.929 . S
C2216 C2208 1.378 . S
C2216 C2211 1.350 . S
C2217 H2204 0.929 . S
C2217 C2209 1.433 . S
C2217 N2219 1.384 . S
N2218 C2214 1.427 . S
N2218 C2215 1.384 . S
N2219 C2211 1.427 . S
N2219 C2217 1.384 . S
H2220 C2226 0.930 1_455 S
H2221 C2230 0.930 . S
H2222 C2235 0.929 . S
H2223 C2233 0.929 1_455 S
H2224 C2228 0.929 . S
H2225 C2234 0.929 1_455 S
C2226 H2220 0.930 1_655 S
C2226 C2227 1.367 . S
C2226 C2234 1.378 . S
C2227 C2226 1.367 . S
C2227 C2235 1.433 . S
C2228 H2224 0.929 . S
C2228 C2230 1.378 . S
C2228 C2232 1.350 . S
C2229 C2232 1.463 . S
C2229 C2234 1.350 . S
C2229 N2237 1.427 . S
C2230 H2221 0.930 . S
C2230 C2228 1.378 . S
C2230 C2231 1.367 . S
C2231 C2230 1.367 . S
C2231 C2233 1.433 . S
C2232 C2228 1.350 . S
C2232 C2229 1.463 . S
C2232 N2236 1.427 . S
C2233 H2223 0.929 1_655 S
C2233 C2231 1.433 . S
C2233 N2236 1.384 . S
C2234 H2225 0.929 1_655 S
C2234 C2226 1.378 . S
C2234 C2229 1.350 . S
C2235 H2222 0.929 . S
C2235 C2227 1.433 . S
C2235 N2237 1.384 . S
N2236 C2232 1.427 . S
N2236 C2233 1.384 . S
N2237 C2229 1.427 . S
N2237 C2235 1.384 . S
H2238 C2244 0.930 . S
H2239 C2248 0.930 . S
H2240 C2253 0.929 . S
H2241 C2251 0.929 . S
H2242 C2246 0.929 . S
H2243 C2252 0.929 . S
C2244 H2238 0.930 . S
C2244 C2245 1.376 . S
C2244 C2252 1.378 . S
C2245 C2244 1.376 . S
C2245 C2253 1.424 1_655 S
C2246 H2242 0.929 . S
C2246 C2248 1.378 . S
C2246 C2250 1.354 . S
C2247 C2250 1.462 1_655 S
C2247 C2252 1.354 . S
C2247 N2255 1.423 1_655 S
C2248 H2239 0.930 . S
C2248 C2246 1.378 . S
C2248 C2249 1.376 . S
C2249 C2248 1.376 . S
C2249 C2251 1.424 1_455 S
C2250 C2246 1.354 . S
C2250 C2247 1.462 1_455 S
C2250 N2254 1.423 1_455 S
C2251 H2241 0.929 . S
C2251 C2249 1.424 1_655 S
C2251 N2254 1.384 . S
C2252 H2243 0.929 . S
C2252 C2244 1.378 . S
C2252 C2247 1.354 . S
C2253 H2240 0.929 . S
C2253 C2245 1.424 1_455 S
C2253 N2255 1.384 . S
N2254 C2250 1.423 1_655 S
N2254 C2251 1.384 . S
N2255 C2247 1.423 1_455 S
N2255 C2253 1.384 . S
H2256 C2262 0.930 . S
H2257 C2266 0.930 . S
H2258 C2271 0.929 . S
H2259 C2269 0.929 . S
H2260 C2264 0.929 . S
H2261 C2270 0.929 . S
C2262 H2256 0.930 . S
C2262 C2263 1.367 . S
C2262 C2270 1.378 . S
C2263 C2262 1.367 . S
C2263 C2271 1.433 . S
C2264 H2260 0.929 . S
C2264 C2266 1.378 . S
C2264 C2268 1.350 . S
C2265 C2268 1.463 . S
C2265 C2270 1.350 . S
C2265 N2273 1.427 . S
C2266 H2257 0.930 . S
C2266 C2264 1.378 . S
C2266 C2267 1.367 . S
C2267 C2266 1.367 . S
C2267 C2269 1.433 . S
C2268 C2264 1.350 . S
C2268 C2265 1.463 . S
C2268 N2272 1.427 . S
C2269 H2259 0.929 . S
C2269 C2267 1.433 . S
C2269 N2272 1.384 . S
C2270 H2261 0.929 . S
C2270 C2262 1.378 . S
C2270 C2265 1.350 . S
C2271 H2258 0.929 . S
C2271 C2263 1.433 . S
C2271 N2273 1.384 . S
N2272 C2268 1.427 . S
N2272 C2269 1.384 . S
N2273 C2265 1.427 . S
N2273 C2271 1.384 . S
H2274 C2280 0.930 . S
H2275 C2284 0.930 . S
H2276 C2289 0.929 . S
H2277 C2287 0.929 . S
H2278 C2282 0.929 . S
H2279 C2288 0.929 . S
C2280 H2274 0.930 . S
C2280 C2281 1.367 . S
C2280 C2288 1.378 . S
C2281 C2280 1.367 . S
C2281 C2289 1.433 . S
C2282 H2278 0.929 . S
C2282 C2284 1.378 . S
C2282 C2286 1.350 . S
C2283 C2286 1.463 . S
C2283 C2288 1.350 . S
C2283 N2291 1.427 . S
C2284 H2275 0.930 . S
C2284 C2282 1.378 . S
C2284 C2285 1.367 . S
C2285 C2284 1.367 . S
C2285 C2287 1.433 . S
C2286 C2282 1.350 . S
C2286 C2283 1.463 . S
C2286 N2290 1.427 . S
C2287 H2277 0.929 . S
C2287 C2285 1.433 . S
C2287 N2290 1.384 . S
C2288 H2279 0.929 . S
C2288 C2280 1.378 . S
C2288 C2283 1.350 . S
C2289 H2276 0.929 . S
C2289 C2281 1.433 . S
C2289 N2291 1.384 . S
N2290 C2286 1.427 . S
N2290 C2287 1.384 . S
N2291 C2283 1.427 . S
N2291 C2289 1.384 . S
H2292 C2298 0.930 . S
H2293 C2302 0.930 . S
H2294 C2307 0.929 . S
H2295 C2305 0.929 . S
H2296 C2300 0.929 . S
H2297 C2306 0.929 . S
C2298 H2292 0.930 . S
C2298 C2299 1.367 . S
C2298 C2306 1.378 . S
C2299 C2298 1.367 . S
C2299 C2307 1.433 . S
C2300 H2296 0.929 . S
C2300 C2302 1.378 . S
C2300 C2304 1.350 . S
C2301 C2304 1.463 . S
C2301 C2306 1.350 . S
C2301 N2309 1.427 . S
C2302 H2293 0.930 . S
C2302 C2300 1.378 . S
C2302 C2303 1.367 . S
C2303 C2302 1.367 . S
C2303 C2305 1.433 . S
C2304 C2300 1.350 . S
C2304 C2301 1.463 . S
C2304 N2308 1.427 . S
C2305 H2295 0.929 . S
C2305 C2303 1.433 . S
C2305 N2308 1.384 . S
C2306 H2297 0.929 . S
C2306 C2298 1.378 . S
C2306 C2301 1.350 . S
C2307 H2294 0.929 . S
C2307 C2299 1.433 . S
C2307 N2309 1.384 . S
N2308 C2304 1.427 . S
N2308 C2305 1.384 . S
N2309 C2301 1.427 . S
N2309 C2307 1.384 . S
H2310 C2316 0.930 . S
H2311 C2320 0.930 . S
H2312 C2325 0.929 . S
H2313 C2323 0.929 . S
H2314 C2318 0.929 . S
H2315 C2324 0.929 . S
C2316 H2310 0.930 . S
C2316 C2317 1.370 1_545 S
C2316 C2324 1.378 . S
C2317 C2316 1.370 1_565 S
C2317 C2325 1.430 . S
C2318 H2314 0.929 . S
C2318 C2320 1.378 . S
C2318 C2322 1.366 . S
C2319 C2322 1.461 1_545 S
C2319 C2324 1.366 . S
C2319 N2327 1.411 1_545 S
C2320 H2311 0.930 . S
C2320 C2318 1.378 . S
C2320 C2321 1.370 1_565 S
C2321 C2320 1.370 1_545 S
C2321 C2323 1.430 . S
C2322 C2318 1.366 . S
C2322 C2319 1.461 1_565 S
C2322 N2326 1.411 1_565 S
C2323 H2313 0.929 . S
C2323 C2321 1.430 . S
C2323 N2326 1.384 . S
C2324 H2315 0.929 . S
C2324 C2316 1.378 . S
C2324 C2319 1.366 . S
C2325 H2312 0.929 . S
C2325 C2317 1.430 . S
C2325 N2327 1.384 . S
N2326 C2322 1.411 1_545 S
N2326 C2323 1.384 . S
N2327 C2319 1.411 1_565 S
N2327 C2325 1.384 . S
H2328 C2334 0.930 . S
H2329 C2338 0.930 . S
H2330 C2343 0.929 . S
H2331 C2341 0.929 . S
H2332 C2336 0.929 . S
H2333 C2342 0.929 . S
C2334 H2328 0.930 . S
C2334 C2335 1.367 . S
C2334 C2342 1.378 . S
C2335 C2334 1.367 . S
C2335 C2343 1.433 . S
C2336 H2332 0.929 . S
C2336 C2338 1.378 . S
C2336 C2340 1.350 . S
C2337 C2340 1.463 1_455 S
C2337 C2342 1.350 . S
C2337 N2345 1.427 . S
C2338 H2329 0.930 . S
C2338 C2336 1.378 . S
C2338 C2339 1.367 . S
C2339 C2338 1.367 . S
C2339 C2341 1.433 . S
C2340 C2336 1.350 . S
C2340 C2337 1.463 1_655 S
C2340 N2344 1.427 . S
C2341 H2331 0.929 . S
C2341 C2339 1.433 . S
C2341 N2344 1.384 . S
C2342 H2333 0.929 . S
C2342 C2334 1.378 . S
C2342 C2337 1.350 . S
C2343 H2330 0.929 . S
C2343 C2335 1.433 . S
C2343 N2345 1.384 . S
N2344 C2340 1.427 . S
N2344 C2341 1.384 . S
N2345 C2337 1.427 . S
N2345 C2343 1.384 . S
H2346 C2352 0.930 . S
H2347 C2356 0.930 . S
H2348 C2361 0.929 . S
H2349 C2359 0.929 . S
H2350 C2354 0.929 . S
H2351 C2360 0.929 . S
C2352 H2346 0.930 . S
C2352 C2353 1.369 1_545 S
C2352 C2360 1.378 . S
C2353 C2352 1.369 1_565 S
C2353 C2361 1.431 . S
C2354 H2350 0.929 . S
C2354 C2356 1.378 . S
C2354 C2358 1.364 . S
C2355 C2358 1.462 1_445 S
C2355 C2360 1.364 . S
C2355 N2363 1.413 1_545 S
C2356 H2347 0.930 . S
C2356 C2354 1.378 . S
C2356 C2357 1.369 1_565 S
C2357 C2356 1.369 1_545 S
C2357 C2359 1.431 . S
C2358 C2354 1.364 . S
C2358 C2355 1.462 1_665 S
C2358 N2362 1.413 1_565 S
C2359 H2349 0.929 . S
C2359 C2357 1.431 . S
C2359 N2362 1.384 . S
C2360 H2351 0.929 . S
C2360 C2352 1.378 . S
C2360 C2355 1.364 . S
C2361 H2348 0.929 . S
C2361 C2353 1.431 . S
C2361 N2363 1.384 . S
N2362 C2358 1.413 1_545 S
N2362 C2359 1.384 . S
N2363 C2355 1.413 1_565 S
N2363 C2361 1.384 . S
H2364 C2370 0.930 . S
H2365 C2374 0.930 . S
H2366 C2379 0.929 . S
H2367 C2377 0.929 . S
H2368 C2372 0.929 . S
H2369 C2378 0.929 . S
C2370 H2364 0.930 . S
C2370 C2371 1.378 . S
C2370 C2378 1.378 . S
C2371 C2370 1.378 . S
C2371 C2379 1.423 1_655 S
C2372 H2368 0.929 . S
C2372 C2374 1.378 . S
C2372 C2376 1.356 . S
C2373 C2376 1.462 1_656 S
C2373 C2378 1.356 . S
C2373 N2381 1.422 1_655 S
C2374 H2365 0.930 . S
C2374 C2372 1.378 . S
C2374 C2375 1.378 . S
C2375 C2374 1.378 . S
C2375 C2377 1.423 1_455 S
C2376 C2372 1.356 . S
C2376 C2373 1.462 1_454 S
C2376 N2380 1.422 1_455 S
C2377 H2367 0.929 . S
C2377 C2375 1.423 1_655 S
C2377 N2380 1.384 . S
C2378 H2369 0.929 . S
C2378 C2370 1.378 . S
C2378 C2373 1.356 . S
C2379 H2366 0.929 . S
C2379 C2371 1.423 1_455 S
C2379 N2381 1.384 . S
N2380 C2376 1.422 1_655 S
N2380 C2377 1.384 . S
N2381 C2373 1.422 1_455 S
N2381 C2379 1.384 . S
H2382 C2388 0.930 . S
H2383 C2392 0.930 . S
H2384 C2397 0.929 . S
H2385 C2395 0.929 . S
H2386 C2390 0.929 . S
H2387 C2396 0.929 . S
C2388 H2382 0.930 . S
C2388 C2389 1.364 1_455 S
C2388 C2396 1.378 . S
C2389 C2388 1.364 1_655 S
C2389 C2397 1.436 . S
C2390 H2386 0.929 . S
C2390 C2392 1.378 . S
C2390 C2394 1.350 . S
C2391 C2394 1.462 1_455 S
C2391 C2396 1.350 . S
C2391 N2399 1.427 1_455 S
C2392 H2383 0.930 . S
C2392 C2390 1.378 . S
C2392 C2393 1.364 1_655 S
C2393 C2392 1.364 1_455 S
C2393 C2395 1.436 . S
C2394 C2390 1.350 . S
C2394 C2391 1.462 1_655 S
C2394 N2398 1.427 1_655 S
C2395 H2385 0.929 . S
C2395 C2393 1.436 . S
C2395 N2398 1.384 . S
C2396 H2387 0.929 . S
C2396 C2388 1.378 . S
C2396 C2391 1.350 . S
C2397 H2384 0.929 . S
C2397 C2389 1.436 . S
C2397 N2399 1.384 . S
N2398 C2394 1.427 1_455 S
N2398 C2395 1.384 . S
N2399 C2391 1.427 1_655 S
N2399 C2397 1.384 . S
C679 C386 0.881 . S
C683 C8 0.889 . S
C697 C23 0.871 . S
C701 C541 0.874 . S
C715 C36 0.893 . S
C719 C358 0.894 . S
C733 C569 0.894 . S
C737 C51 0.893 . S
C751 C401 0.877 . S
C755 C65 0.872 . S
C769 C78 0.885 . S
C773 C316 0.892 . S
C787 C429 0.871 . S
C791 C93 0.872 . S
C805 C106 0.876 . S
C809 C288 0.871 . S
C823 C498 0.883 . S
C827 C107 0.875 . S
C841 C471 0.891 . S
C845 C64 0.894 . S
C859 C79 0.892 . S
C863 C596 0.885 . S
C877 C484 0.880 . S
C881 C92 0.873 . S
C895 C120 0.894 . S
C899 C190 0.890 . S
C913 C205 0.887 . S
C917 C135 0.879 . S
C931 C219 0.877 . S
C935 C148 0.885 . S
C949 C177 0.884 . S
C953 C163 0.876 . S
C967 C191 0.881 . S
C971 C344 0.889 . S
C985 C204 0.887 . S
C989 C555 0.879 . S
C1003 C372 0.894 . S
C1007 C218 0.889 . S
C1021 C387 0.872 . S
C1025 C232 0.879 . S
C1039 C247 0.873 . S
C1043 C415 0.880 . S
C1057 C261 0.871 . S
C1061 C50 0.873 . S
C1075 C274 0.890 . S
C1079 C22 0.883 . S
C1093 C625 0.894 . S
C1097 C303 0.892 . S
C1111 C653 0.894 . S
C1115 C331 0.893 . S
C1129 C345 0.894 . S
C1133 C121 0.893 . S
C1147 C373 0.871 . S
C1151 C149 0.875 . S
C1165 C359 0.894 . S
C1169 C610 0.891 . S
C1183 C470 0.878 . S
C1187 C400 0.872 . S
C1201 C485 0.876 . S
C1205 C428 0.884 . S
C1219 C457 0.878 . S
C1223 C443 0.872 . S
C1237 C246 0.877 . S
C1241 C639 0.885 . S
C1255 C513 0.889 . S
C1259 C330 0.894 . S
C1273 C302 0.889 . S
C1277 C526 0.881 . S
C1291 C666 0.884 . S
C1295 C442 0.891 . S
C1309 C414 0.886 . S
C1313 C638 0.878 . S
C1327 C134 0.894 . S
C1331 C554 0.891 . S
C1345 C162 0.894 . S
C1349 C582 0.890 . S
C1363 C176 0.876 . S
C1367 C583 0.884 . S
C1381 C275 0.878 . S
C1385 C540 0.887 . S
C1399 C260 0.876 . S
C1403 C568 0.871 . S
C1417 C317 0.891 . S
C1421 C597 0.883 . S
C1435 C289 0.892 . S
C1439 C499 0.894 . S
C1453 C624 0.893 . S
C1457 C527 0.894 . S
C1471 C652 0.872 . S
C1475 C512 0.878 . S
C1489 C667 0.881 . S
C1493 C456 0.873 . S
C1507 C611 0.879 . S
C1511 C37 0.887 . S
C1525 C233 0.876 . S
C1529 C9 0.884 . S
C1543 C6 1.485 . S
C1547 C651 1.501 . S
C1561 C21 1.484 . S
C1565 C664 1.495 . S
C1579 C34 1.502 . S
C1583 C623 1.486 . S
C1597 C49 1.485 . S
C1601 C636 1.490 . S
C1615 C63 1.494 . S
C1619 C132 1.484 . S
C1633 C76 1.486 1_556 S
C1637 C147 1.495 1_554 S
C1651 C91 1.492 . S
C1655 C160 1.485 . S
C1669 C104 1.488 . S
C1673 C119 1.504 . S
C1687 C105 1.486 . S
C1691 C553 1.503 . S
C1705 C62 1.503 . S
C1709 C370 1.486 . S
C1723 C77 1.490 . S
C1727 C581 1.505 . S
C1741 C90 1.498 1_565 S
C1745 C342 1.483 1_545 S
C1759 C118 1.489 . S
C1763 C328 1.505 . S
C1777 C133 1.494 . S
C1781 C441 1.506 . S
C1795 C146 1.498 . S
C1799 C300 1.484 . S
C1813 C413 1.482 1_545 S
C1817 C161 1.499 1_565 S
C1831 C175 1.484 . S
C1835 C273 1.494 . S
C1849 C189 1.500 . S
C1853 C231 1.503 . S
C1867 C272 1.488 . S
C1871 C202 1.504 . S
C1885 C609 1.485 . S
C1889 C216 1.492 . S
C1903 C217 1.489 1_455 S
C1907 C230 1.492 1_655 S
C1921 C510 1.503 . S
C1925 C245 1.487 . S
C1939 C174 1.489 . S
C1943 C259 1.505 . S
C1957 C567 1.495 . S
C1961 C286 1.506 . S
C1975 C580 1.497 1_556 S
C1979 C301 1.484 1_554 S
C1993 C314 1.489 . S
C1997 C539 1.505 . S
C2011 C552 1.505 . S
C2015 C329 1.497 . S
C2029 C343 1.490 . S
C2033 C412 1.505 . S
C2047 C427 1.484 . S
C2051 C356 1.498 . S
C2065 C371 1.489 . S
C2069 C440 1.505 . S
C2083 C399 1.498 1_554 S
C2087 C384 1.483 1_556 S
C2101 C385 1.503 . S
C2105 C637 1.486 . S
C2119 C665 1.498 . S
C2123 C357 1.484 . S
C2137 C398 1.488 . S
C2141 C48 1.504 . S
C2155 C20 1.492 . S
C2159 C426 1.506 . S
C2173 C525 1.506 . S
C2177 C455 1.494 . S
C2191 C497 1.505 . S
C2195 C469 1.498 . S
C2209 C244 1.492 . S
C2213 C524 1.506 . S
C2227 C482 1.506 . S
C2231 C595 1.493 . S
C2245 C496 1.483 1_655 S
C2249 C483 1.498 1_455 S
C2263 C203 1.506 . S
C2267 C258 1.493 . S
C2281 C454 1.493 . S
C2285 C511 1.485 . S
C2299 C650 1.501 . S
C2303 C538 1.485 . S
C2317 C566 1.495 1_565 S
C2321 C622 1.486 1_545 S
C2335 C7 1.505 . S
C2339 C315 1.488 . S
C2353 C287 1.495 1_565 S
C2357 C35 1.485 1_545 S
C2371 C468 1.483 1_655 S
C2375 C594 1.498 1_455 S
C2389 C188 1.498 1_655 S
C2393 C608 1.483 1_455 S
