# Generated by pormake.
# Topology wfa, (4)-cn, num edge types: 1
# Building blocks:
#     Node 0, Type 0, BuildingBlock: ICAMEG_clean_sbu_1, # of connection points: 4
#     Node 1, Type 0, BuildingBlock: ICAMEG_clean_sbu_1, # of connection points: 4
#     Node 2, Type 0, BuildingBlock: ICAMEG_clean_sbu_1, # of connection points: 4
#     Node 3, Type 0, BuildingBlock: ICAMEG_clean_sbu_1, # of connection points: 4
#     Node 4, Type 0, BuildingBlock: ICAMEG_clean_sbu_1, # of connection points: 4
#     Node 5, Type 0, BuildingBlock: ICAMEG_clean_sbu_1, # of connection points: 4
#     Node 6, Type 0, BuildingBlock: ICAMEG_clean_sbu_1, # of connection points: 4
#     Node 7, Type 0, BuildingBlock: ICAMEG_clean_sbu_1, # of connection points: 4
#     Node 8, Type 0, BuildingBlock: ICAMEG_clean_sbu_1, # of connection points: 4
#     Node 9, Type 0, BuildingBlock: ICAMEG_clean_sbu_1, # of connection points: 4
#     Node 10, Type 0, BuildingBlock: ICAMEG_clean_sbu_1, # of connection points: 4
#     Node 11, Type 0, BuildingBlock: ICAMEG_clean_sbu_1, # of connection points: 4
#     Node 12, Type 0, BuildingBlock: ICAMEG_clean_sbu_1, # of connection points: 4
#     Node 13, Type 0, BuildingBlock: ICAMEG_clean_sbu_1, # of connection points: 4
#     Node 14, Type 0, BuildingBlock: ICAMEG_clean_sbu_1, # of connection points: 4
#     Node 15, Type 0, BuildingBlock: ICAMEG_clean_sbu_1, # of connection points: 4
#     Edge 16, Type (0, 0), BuildingBlock: XUDNAN_clean_linker_2, # of connection points: 2
#     Edge 17, Type (0, 0), BuildingBlock: XUDNAN_clean_linker_2, # of connection points: 2
#     Edge 18, Type (0, 0), BuildingBlock: XUDNAN_clean_linker_2, # of connection points: 2
#     Edge 19, Type (0, 0), BuildingBlock: XUDNAN_clean_linker_2, # of connection points: 2
#     Edge 20, Type (0, 0), BuildingBlock: XUDNAN_clean_linker_2, # of connection points: 2
#     Edge 21, Type (0, 0), BuildingBlock: XUDNAN_clean_linker_2, # of connection points: 2
#     Edge 22, Type (0, 0), BuildingBlock: XUDNAN_clean_linker_2, # of connection points: 2
#     Edge 23, Type (0, 0), BuildingBlock: XUDNAN_clean_linker_2, # of connection points: 2
#     Edge 24, Type (0, 0), BuildingBlock: XUDNAN_clean_linker_2, # of connection points: 2
#     Edge 25, Type (0, 0), BuildingBlock: XUDNAN_clean_linker_2, # of connection points: 2
#     Edge 26, Type (0, 0), BuildingBlock: XUDNAN_clean_linker_2, # of connection points: 2
#     Edge 27, Type (0, 0), BuildingBlock: XUDNAN_clean_linker_2, # of connection points: 2
#     Edge 28, Type (0, 0), BuildingBlock: XUDNAN_clean_linker_2, # of connection points: 2
#     Edge 29, Type (0, 0), BuildingBlock: XUDNAN_clean_linker_2, # of connection points: 2
#     Edge 30, Type (0, 0), BuildingBlock: XUDNAN_clean_linker_2, # of connection points: 2
#     Edge 31, Type (0, 0), BuildingBlock: XUDNAN_clean_linker_2, # of connection points: 2
#     Edge 32, Type (0, 0), BuildingBlock: XUDNAN_clean_linker_2, # of connection points: 2
#     Edge 33, Type (0, 0), BuildingBlock: XUDNAN_clean_linker_2, # of connection points: 2
#     Edge 34, Type (0, 0), BuildingBlock: XUDNAN_clean_linker_2, # of connection points: 2
#     Edge 35, Type (0, 0), BuildingBlock: XUDNAN_clean_linker_2, # of connection points: 2
#     Edge 36, Type (0, 0), BuildingBlock: XUDNAN_clean_linker_2, # of connection points: 2
#     Edge 37, Type (0, 0), BuildingBlock: XUDNAN_clean_linker_2, # of connection points: 2
#     Edge 38, Type (0, 0), BuildingBlock: XUDNAN_clean_linker_2, # of connection points: 2
#     Edge 39, Type (0, 0), BuildingBlock: XUDNAN_clean_linker_2, # of connection points: 2
#     Edge 40, Type (0, 0), BuildingBlock: XUDNAN_clean_linker_2, # of connection points: 2
#     Edge 41, Type (0, 0), BuildingBlock: XUDNAN_clean_linker_2, # of connection points: 2
#     Edge 42, Type (0, 0), BuildingBlock: XUDNAN_clean_linker_2, # of connection points: 2
#     Edge 43, Type (0, 0), BuildingBlock: XUDNAN_clean_linker_2, # of connection points: 2
#     Edge 44, Type (0, 0), BuildingBlock: XUDNAN_clean_linker_2, # of connection points: 2
#     Edge 45, Type (0, 0), BuildingBlock: XUDNAN_clean_linker_2, # of connection points: 2
#     Edge 46, Type (0, 0), BuildingBlock: XUDNAN_clean_linker_2, # of connection points: 2
#     Edge 47, Type (0, 0), BuildingBlock: XUDNAN_clean_linker_2, # of connection points: 2
# Relax obj value: 0.084
# Max RMSD: 0.212
# Mean RMSD: 0.186
data_MOF--net-wfa--node1-ICAMEG_clean_sbu_1--edge1-XUDNAN_clean_linker_2
_symmetry_space_group_name_H-M    P1
_symmetry_Int_Tables_number       1
_symmetry_cell_setting            triclinic
loop_
_symmetry_equiv_pos_as_xyz
'x, y, z'
_cell_length_a     47.826872
_cell_length_b     47.816781
_cell_length_c     26.585827
_cell_angle_alpha  89.111044
_cell_angle_beta   89.126331
_cell_angle_gamma 88.979293
loop_
_atom_site_label
_atom_site_type_symbol
_atom_site_fract_x
_atom_site_fract_y
_atom_site_fract_z
_atom_type_partial_charge
Co0 Co 0.6503 0.98983 0.10427 0.0
Co1 Co 0.66237 0.04075 0.01298 0.0
O2 O 0.67317 0.00722 0.05115 0.0
C3 C 0.70262 0.00476 0.15164 0.0
O4 O 0.69906 0.02875 0.12786 0.0
C5 C 0.67719 0.99854 0.93576 0.0
O6 O 0.6635 0.97983 0.96255 0.0
O7 O 0.62535 0.02484 0.99908 0.0
O8 O 0.61561 0.99474 0.06275 0.0
H9 H 0.59757 0.11944 0.96065 0.0
H10 H 0.70178 0.96061 0.06797 0.0
O11 O 0.68465 0.98556 0.1472 0.0
H12 H 0.62461 0.89701 0.03307 0.0
H13 H 0.63152 0.91899 0.24209 0.0
H14 H 0.59422 0.00129 0.14942 0.0
H15 H 0.61524 0.94221 0.07414 0.0
H16 H 0.65919 0.9411 0.17367 0.0
O17 O 0.67824 0.02374 0.95029 0.0
H18 H 0.61192 0.07768 0.01011 0.0
H19 H 0.68985 0.07443 0.93143 0.0
H20 H 0.56578 0.97975 0.21726 0.0
H21 H 0.71212 0.91553 0.02714 0.0
H22 H 0.58442 0.93829 0.26414 0.0
H23 H 0.67336 0.88342 0.00932 0.0
O24 O 0.64208 0.02638 0.13599 0.0
H25 H 0.76719 0.03856 0.0244 0.0
H26 H 0.68142 0.09553 0.05102 0.0
H27 H 0.72721 0.11522 0.07077 0.0
H28 H 0.77051 0.08668 0.05737 0.0
H29 H 0.72095 0.01954 0.00578 0.0
H30 H 0.67625 0.116 0.88082 0.0
H31 H 0.62985 0.13886 0.89544 0.0
O32 O 0.64633 0.05878 0.07448 0.0
C33 C 0.60877 0.00856 0.02303 0.0
C34 C 0.61788 0.10973 0.95405 0.0
C35 C 0.66203 0.10778 0.9092 0.0
N36 N 0.65178 0.07378 0.97398 0.0
C37 C 0.62616 0.08613 0.98206 0.0
C38 C 0.66959 0.08421 0.93792 0.0
C39 C 0.63599 0.1206 0.91744 0.0
C40 C 0.68484 0.94661 0.06077 0.0
N41 N 0.65797 0.95394 0.07363 0.0
C42 C 0.69081 0.92117 0.03746 0.0
C43 C 0.66904 0.90319 0.0274 0.0
C44 C 0.64168 0.91081 0.04068 0.0
C45 C 0.63649 0.93645 0.06383 0.0
C46 C 0.62314 0.937 0.22185 0.0
C47 C 0.60239 0.98312 0.16937 0.0
C48 C 0.63873 0.94961 0.18314 0.0
N49 N 0.62821 0.97227 0.15729 0.0
C50 C 0.58623 0.97107 0.20787 0.0
C51 C 0.59671 0.94784 0.23419 0.0
C52 C 0.6401 0.05147 0.11952 0.0
C53 C 0.74848 0.05123 0.03021 0.0
C54 C 0.70015 0.08294 0.04524 0.0
C55 C 0.72603 0.09423 0.05637 0.0
C56 C 0.75032 0.07822 0.0488 0.0
N57 N 0.69852 0.05646 0.02699 0.0
C58 C 0.72224 0.04063 0.0195 0.0
Co59 Co 0.50983 0.65066 0.07853 0.0
Co60 Co 0.45617 0.66706 0.99726 0.0
O61 O 0.49119 0.67537 0.03001 0.0
C62 C 0.50012 0.70286 0.1341 0.0
O63 O 0.4743 0.70151 0.11842 0.0
C64 C 0.49533 0.67935 0.91274 0.0
O65 O 0.51342 0.66252 0.93506 0.0
O66 O 0.47057 0.62943 0.97794 0.0
O67 O 0.50108 0.61667 0.03808 0.0
H68 H 0.37451 0.60771 0.95409 0.0
H69 H 0.5398 0.6998 0.03698 0.0
O70 O 0.51811 0.68421 0.12078 0.0
H71 H 0.59707 0.61765 0.9876 0.0
H72 H 0.58597 0.62456 0.20008 0.0
H73 H 0.49744 0.59551 0.1257 0.0
H74 H 0.55374 0.61184 0.03795 0.0
H75 H 0.56222 0.65461 0.13699 0.0
O76 O 0.47121 0.68355 0.93255 0.0
H77 H 0.4183 0.61858 0.99691 0.0
H78 H 0.42008 0.69833 0.92444 0.0
H79 H 0.52052 0.56479 0.18839 0.0
H80 H 0.58309 0.70661 0.98692 0.0
H81 H 0.56514 0.57926 0.22605 0.0
H82 H 0.61199 0.66532 0.96179 0.0
O83 O 0.47462 0.64522 0.11729 0.0
H84 H 0.46145 0.7711 0.01783 0.0
H85 H 0.40361 0.68786 0.04681 0.0
H86 H 0.38604 0.73397 0.07478 0.0
H87 H 0.41506 0.776 0.06033 0.0
H88 H 0.47832 0.72456 0.99086 0.0
H89 H 0.37642 0.68824 0.88049 0.0
H90 H 0.35328 0.64269 0.89538 0.0
O91 O 0.44035 0.6502 0.06078 0.0
C92 C 0.48612 0.61121 1.00006 0.0
C93 C 0.38433 0.62768 0.94746 0.0
C94 C 0.38542 0.67287 0.9061 0.0
N95 N 0.42156 0.65917 0.96361 0.0
C96 C 0.40907 0.63399 0.97174 0.0
C97 C 0.41016 0.67844 0.93104 0.0
C98 C 0.37245 0.64731 0.91448 0.0
C99 C 0.55243 0.68177 0.02658 0.0
N100 N 0.54436 0.65548 0.04056 0.0
C101 C 0.57685 0.68574 0.99807 0.0
C102 C 0.59303 0.66256 0.98391 0.0
C103 C 0.58466 0.63581 0.99835 0.0
C104 C 0.56009 0.63264 0.02677 0.0
C105 C 0.56659 0.61799 0.18383 0.0
C106 C 0.51696 0.60187 0.14161 0.0
C107 C 0.55305 0.63492 0.14815 0.0
N108 N 0.52865 0.62668 0.12731 0.0
C109 C 0.52988 0.58442 0.17723 0.0
C110 C 0.55489 0.59257 0.19838 0.0
C111 C 0.44913 0.64364 0.10459 0.0
C112 C 0.44858 0.75296 0.0242 0.0
C113 C 0.41636 0.70605 0.04041 0.0
C114 C 0.40628 0.73211 0.05626 0.0
C115 C 0.42257 0.75569 0.04811 0.0
N116 N 0.4419 0.70356 0.01697 0.0
C117 C 0.45796 0.72658 0.0088 0.0
Co118 Co 0.86452 0.52679 0.0911 0.0
Co119 Co 0.8495 0.47529 0.0059 0.0
O120 O 0.8418 0.51109 0.03845 0.0
C121 C 0.80437 0.53054 0.12519 0.0
O122 O 0.79639 0.52462 0.0798 0.0
C123 C 0.84467 0.49116 0.89692 0.0
O124 O 0.86732 0.47621 0.88686 0.0
O125 O 0.8883 0.48712 0.98956 0.0
O126 O 0.89963 0.51558 0.05267 0.0
H127 H 0.90708 0.3898 0.96297 0.0
H128 H 0.82051 0.56367 0.0427 0.0
O129 O 0.82988 0.5364 0.13342 0.0
H130 H 0.90949 0.61216 0.01541 0.0
H131 H 0.88961 0.59719 0.22107 0.0
H132 H 0.91666 0.50807 0.14133 0.0
H133 H 0.90837 0.56706 0.06127 0.0
H134 H 0.86082 0.57772 0.15416 0.0
O135 O 0.83561 0.49333 0.94203 0.0
H136 H 0.89682 0.43449 0.00511 0.0
H137 H 0.81788 0.44041 0.93426 0.0
H138 H 0.94623 0.5269 0.20761 0.0
H139 H 0.82063 0.60871 0.99725 0.0
H140 H 0.93274 0.57178 0.24796 0.0
H141 H 0.86538 0.63339 0.98319 0.0
O142 O 0.86486 0.49075 0.12794 0.0
H143 H 0.74442 0.48546 0.01063 0.0
H144 H 0.82486 0.42529 0.05771 0.0
H145 H 0.77724 0.41059 0.08046 0.0
H146 H 0.73654 0.44068 0.05676 0.0
H147 H 0.79238 0.49984 0.98972 0.0
H148 H 0.82724 0.39574 0.89154 0.0
H149 H 0.87215 0.37014 0.90572 0.0
O150 O 0.8632 0.45723 0.06981 0.0
C151 C 0.90609 0.50101 0.01396 0.0
C152 C 0.88745 0.40076 0.95647 0.0
C153 C 0.84263 0.40408 0.91643 0.0
N154 N 0.85681 0.44009 0.97212 0.0
C155 C 0.88153 0.42609 0.98019 0.0
C156 C 0.83742 0.42934 0.94081 0.0
C157 C 0.86783 0.38974 0.92437 0.0
C158 C 0.84 0.57418 0.03751 0.0
N159 N 0.86428 0.56269 0.0555 0.0
C160 C 0.83998 0.59975 0.01137 0.0
C161 C 0.86509 0.61358 0.0034 0.0
C162 C 0.88983 0.60168 0.02145 0.0
C163 C 0.88903 0.57607 0.04737 0.0
C164 C 0.89574 0.57765 0.20369 0.0
C165 C 0.91078 0.52772 0.15847 0.0
C166 C 0.87949 0.56652 0.16591 0.0
N167 N 0.88723 0.54196 0.14358 0.0
C168 C 0.92755 0.53822 0.19609 0.0
C169 C 0.91994 0.56339 0.21875 0.0
C170 C 0.86588 0.46535 0.11487 0.0
C171 C 0.76198 0.47218 0.02122 0.0
C172 C 0.8074 0.43885 0.04799 0.0
C173 C 0.7804 0.43023 0.06059 0.0
C174 C 0.75758 0.44707 0.04716 0.0
N175 N 0.81163 0.46366 0.02291 0.0
C176 C 0.78928 0.48013 0.00924 0.0
Co177 Co 0.97652 0.85789 0.09844 0.0
Co178 Co 0.03479 0.84441 0.02259 0.0
O179 O 0.99794 0.8349 0.05048 0.0
C180 C 0.98592 0.80458 0.15176 0.0
O181 O 0.01148 0.80634 0.13357 0.0
C182 C 1.00074 0.82481 0.93502 0.0
O183 O 0.97759 0.82597 0.96194 0.0
O184 O 0.02135 0.8828 0.00529 0.0
O185 O 0.98607 0.89297 0.05938 0.0
H186 H 0.11844 0.90551 0.99784 0.0
H187 H 0.94801 0.80876 0.05754 0.0
O188 O 0.96769 0.82328 0.13985 0.0
H189 H 0.89244 0.89091 1.00103 0.0
H190 H 0.89458 0.87936 0.21333 0.0
H191 H 0.9851 0.91254 0.14676 0.0
H192 H 0.93425 0.89675 0.05273 0.0
H193 H 0.9221 0.85104 0.15285 0.0
O194 O 0.02405 0.8316 0.95366 0.0
H195 H 0.07241 0.89254 0.03315 0.0
H196 H 0.0751 0.81693 0.95125 0.0
H197 H 0.95813 0.94167 0.20665 0.0
H198 H 0.90604 0.80192 0.00665 0.0
H199 H 0.91251 0.92509 0.2404 0.0
H200 H 0.87803 0.84321 0.97781 0.0
O201 O 0.00971 0.86292 0.14065 0.0
H202 H 0.02852 0.73952 0.03411 0.0
H203 H 0.08508 0.82118 0.07448 0.0
H204 H 0.10147 0.77396 0.09991 0.0
H205 H 0.07313 0.7327 0.07968 0.0
H206 H 0.01272 0.78707 0.01003 0.0
H207 H 0.12106 0.8292 0.91473 0.0
H208 H 0.14309 0.87373 0.93815 0.0
O209 O 0.04726 0.85766 0.08957 0.0
C210 C 0.00356 0.89987 0.02464 0.0
C211 C 0.10911 0.88601 0.98747 0.0
C212 C 0.11056 0.8432 0.94077 0.0
N213 N 0.07117 0.85391 0.9946 0.0
C214 C 0.08308 0.87851 0.00746 0.0
C215 C 0.0845 0.83639 0.9615 0.0
C216 C 0.12291 0.86818 0.95394 0.0
C217 C 0.93575 0.82679 0.0456 0.0
N218 N 0.94362 0.85311 0.05795 0.0
C219 C 0.91209 0.82281 0.01657 0.0
C220 C 0.89641 0.84599 1.00032 0.0
C221 C 0.90452 0.87276 0.01326 0.0
C222 C 0.92832 0.87594 0.04229 0.0
C223 C 0.91439 0.88683 0.19881 0.0
C224 C 0.96517 0.90529 0.16097 0.0
C225 C 0.93008 0.87087 0.16464 0.0
N226 N 0.95504 0.88026 0.14595 0.0
C227 C 0.95004 0.92182 0.19502 0.0
C228 C 0.92446 0.9125 0.21397 0.0
C229 C 0.03591 0.86321 0.13197 0.0
C230 C 0.04115 0.75732 0.04286 0.0
C231 C 0.07264 0.80335 0.06539 0.0
C232 C 0.08204 0.77665 0.0799 0.0
C233 C 0.06614 0.75351 0.06852 0.0
N234 N 0.04813 0.80694 0.04007 0.0
C235 C 0.0324 0.78433 0.02892 0.0
Co236 Co 0.16187 0.00651 0.41087 0.0
Co237 Co 0.15571 0.95725 0.50659 0.0
O238 O 0.17613 0.98663 0.47029 0.0
C239 C 0.21637 0.98405 0.37631 0.0
O240 O 0.20951 0.96068 0.39952 0.0
C241 C 0.17065 0.99679 0.58651 0.0
O242 O 0.16069 0.01728 0.55819 0.0
O243 O 0.12134 0.98143 0.51153 0.0
O244 O 0.12337 0.00778 0.44088 0.0
H245 H 0.07338 0.8962 0.54484 0.0
H246 H 0.21138 0.02804 0.46231 0.0
O247 O 0.2 0.0053 0.3784 0.0
H248 H 0.14032 0.10388 0.47141 0.0
H249 H 0.1664 0.07712 0.26862 0.0
H250 H 0.11104 0.00228 0.34908 0.0
H251 H 0.13022 0.05983 0.42869 0.0
H252 H 0.18327 0.05274 0.3451 0.0
O253 O 0.16947 0.97163 0.57187 0.0
H254 H 0.09957 0.93247 0.4982 0.0
H255 H 0.16892 0.91999 0.59446 0.0
H256 H 0.09334 0.02619 0.27282 0.0
H257 H 0.22246 0.07183 0.50513 0.0
H258 H 0.12109 0.06392 0.23206 0.0
H259 H 0.18675 0.11009 0.50996 0.0
O260 O 0.15299 0.97076 0.37798 0.0
H261 H 0.25857 0.93529 0.51899 0.0
H262 H 0.16665 0.89849 0.47446 0.0
H263 H 0.20878 0.86837 0.46571 0.0
H264 H 0.25515 0.88673 0.48815 0.0
H265 H 0.21597 0.96482 0.52658 0.0
H266 H 0.14342 0.88364 0.64229 0.0
H267 H 0.09532 0.87149 0.61747 0.0
O268 O 0.14183 0.94195 0.44239 0.0
C269 C 0.11031 0.99838 0.47961 0.0
C270 C 0.09436 0.90125 0.55594 0.0
C271 C 0.13365 0.89423 0.61067 0.0
N272 N 0.1358 0.92824 0.5434 0.0
C273 C 0.10932 0.92173 0.5296 0.0
C274 C 0.14797 0.91487 0.5835 0.0
C275 C 0.10667 0.88742 0.59671 0.0
C276 C 0.19584 0.04471 0.46391 0.0
N277 N 0.17025 0.04147 0.44286 0.0
C278 C 0.20219 0.0694 0.48835 0.0
C279 C 0.18213 0.09085 0.49111 0.0
C280 C 0.15606 0.08737 0.46952 0.0
C281 C 0.15044 0.06237 0.44548 0.0
C282 C 0.15407 0.06078 0.28613 0.0
C283 C 0.12314 0.01883 0.33179 0.0
C284 C 0.16353 0.04689 0.32941 0.0
N285 N 0.14803 0.02629 0.35178 0.0
C286 C 0.11304 0.03223 0.28853 0.0
C287 C 0.12865 0.05336 0.26564 0.0
C288 C 0.1432 0.94792 0.39551 0.0
C289 C 0.23847 0.92703 0.50922 0.0
C290 C 0.18676 0.90668 0.4841 0.0
C291 C 0.21054 0.88949 0.4792 0.0
C292 C 0.23654 0.8998 0.49184 0.0
N293 N 0.18882 0.93336 0.50121 0.0
C294 C 0.21425 0.94361 0.51367 0.0
Co295 Co 0.47021 0.15105 0.39757 0.0
Co296 Co 0.52153 0.16776 0.48151 0.0
O297 O 0.48582 0.17459 0.4488 0.0
C298 C 0.47629 0.2056 0.34691 0.0
O299 O 0.50136 0.20513 0.36627 0.0
C300 C 0.50517 0.16952 0.58995 0.0
O301 O 0.52084 0.14707 0.59761 0.0
O302 O 0.51146 0.12822 0.4968 0.0
O303 O 0.48154 0.11634 0.43634 0.0
H304 H 0.60944 0.11353 0.52261 0.0
H305 H 0.43526 0.19672 0.44086 0.0
O306 O 0.4596 0.18562 0.35692 0.0
H307 H 0.38473 0.10991 0.48052 0.0
H308 H 0.39819 0.12527 0.27105 0.0
H309 H 0.48794 0.0982 0.34843 0.0
H310 H 0.42945 0.10839 0.43303 0.0
H311 H 0.41864 0.15456 0.33619 0.0
O312 O 0.50299 0.18024 0.54593 0.0
H313 H 0.5645 0.12232 0.48041 0.0
H314 H 0.55467 0.19993 0.55481 0.0
H315 H 0.46809 0.06813 0.28395 0.0
H316 H 0.39048 0.19926 0.48815 0.0
H317 H 0.4229 0.08164 0.24475 0.0
H318 H 0.36493 0.15561 0.50828 0.0
O319 O 0.50629 0.14929 0.36014 0.0
H320 H 0.50375 0.27162 0.4702 0.0
H321 H 0.57129 0.19513 0.43429 0.0
H322 H 0.58308 0.24356 0.41037 0.0
H323 H 0.5492 0.28222 0.42834 0.0
H324 H 0.49261 0.22285 0.4929 0.0
H325 H 0.59954 0.192 0.59776 0.0
H326 H 0.62723 0.14851 0.5818 0.0
O327 O 0.53988 0.15519 0.41735 0.0
C328 C 0.49726 0.11017 0.4736 0.0
C329 C 0.59756 0.13255 0.52989 0.0
C330 C 0.59202 0.1766 0.57204 0.0
N331 N 0.55695 0.16158 0.51518 0.0
C332 C 0.5721 0.13764 0.50612 0.0
C333 C 0.56665 0.18099 0.54757 0.0
C334 C 0.60754 0.15219 0.56308 0.0
C335 C 0.42414 0.17768 0.44924 0.0
N336 N 0.43483 0.15247 0.43402 0.0
C337 C 0.39886 0.17923 0.47614 0.0
C338 C 0.38455 0.15473 0.48747 0.0
C339 C 0.39565 0.12908 0.47193 0.0
C340 C 0.421 0.12833 0.44517 0.0
C341 C 0.41786 0.11914 0.28792 0.0
C342 C 0.46816 0.10411 0.33182 0.0
C343 C 0.42957 0.13568 0.32471 0.0
N344 N 0.45431 0.12795 0.34637 0.0
C345 C 0.45708 0.08705 0.29519 0.0
C346 C 0.43174 0.09465 0.27319 0.0
C347 C 0.53176 0.14994 0.3731 0.0
C348 C 0.51873 0.25496 0.46234 0.0
C349 C 0.55639 0.2118 0.4422 0.0
C350 C 0.56322 0.23921 0.42865 0.0
C351 C 0.54421 0.26089 0.43878 0.0
N352 N 0.53135 0.20614 0.46533 0.0
C353 C 0.51261 0.22731 0.47541 0.0
Co354 Co 0.35073 0.47373 0.41207 0.0
Co355 Co 0.35812 0.53092 0.48836 0.0
O356 O 0.33733 0.49848 0.46563 0.0
C357 C 0.29586 0.49191 0.37222 0.0
O358 O 0.30278 0.51749 0.38349 0.0
C359 C 0.34153 0.4997 0.58275 0.0
O360 O 0.34422 0.47597 0.55893 0.0
O361 O 0.39293 0.50789 0.49693 0.0
O362 O 0.3902 0.476 0.43621 0.0
H363 H 0.4403 0.59481 0.49224 0.0
H364 H 0.3026 0.45515 0.47456 0.0
O365 O 0.31176 0.47133 0.38482 0.0
H366 H 0.37686 0.384 0.50268 0.0
H367 H 0.34546 0.39063 0.29879 0.0
H368 H 0.39977 0.47331 0.34238 0.0
H369 H 0.38488 0.42413 0.44515 0.0
H370 H 0.32928 0.42178 0.3668 0.0
O371 O 0.34678 0.5228 0.56026 0.0
H372 H 0.41352 0.55472 0.46319 0.0
H373 H 0.34657 0.57571 0.56328 0.0
H374 H 0.41685 0.44259 0.27441 0.0
H375 H 0.29353 0.41515 0.53195 0.0
H376 H 0.38962 0.4009 0.25223 0.0
H377 H 0.33089 0.3793 0.54645 0.0
O378 O 0.35733 0.50609 0.36636 0.0
H379 H 0.25518 0.55214 0.50608 0.0
H380 H 0.34528 0.58595 0.43864 0.0
H381 H 0.30236 0.61422 0.42509 0.0
H382 H 0.2569 0.59737 0.45901 0.0
H383 H 0.29856 0.52439 0.51832 0.0
H384 H 0.37271 0.616 0.59358 0.0
H385 H 0.41989 0.6258 0.5579 0.0
O386 O 0.36985 0.54054 0.41757 0.0
C387 C 0.40386 0.48887 0.46941 0.0
C388 C 0.41972 0.59083 0.50795 0.0
C389 C 0.3818 0.60268 0.56488 0.0
N390 N 0.37843 0.56298 0.51126 0.0
C391 C 0.40441 0.56819 0.49156 0.0
C392 C 0.36712 0.57981 0.54764 0.0
C393 C 0.40827 0.60818 0.54484 0.0
C394 C 0.31882 0.43945 0.4803 0.0
N395 N 0.34421 0.44194 0.45657 0.0
C396 C 0.31363 0.41693 0.513 0.0
C397 C 0.33462 0.39685 0.5212 0.0
C398 C 0.36043 0.39951 0.49671 0.0
C399 C 0.3649 0.42233 0.46435 0.0
C400 C 0.35756 0.40868 0.3082 0.0
C401 C 0.38791 0.4551 0.33318 0.0
C402 C 0.34848 0.42641 0.34663 0.0
N403 N 0.36373 0.44917 0.35889 0.0
C404 C 0.39764 0.43783 0.29455 0.0
C405 C 0.38233 0.41446 0.28209 0.0
C406 C 0.36645 0.53047 0.37399 0.0
C407 C 0.27488 0.55975 0.49127 0.0
C408 C 0.32558 0.57844 0.45346 0.0
C409 C 0.30134 0.59457 0.44573 0.0
C410 C 0.27585 0.58511 0.46479 0.0
N411 N 0.32447 0.55362 0.47957 0.0
C412 C 0.29954 0.54419 0.49829 0.0
Co413 Co 0.00968 0.34776 0.41559 0.0
Co414 Co 0.95707 0.35265 0.50553 0.0
O415 O 0.98859 0.33294 0.47313 0.0
C416 C 0.9918 0.29382 0.37391 0.0
O417 O 0.96606 0.30074 0.38716 0.0
C418 C 0.99579 0.33934 0.58891 0.0
O419 O 0.01583 0.3502 0.56099 0.0
O420 O 0.97863 0.38801 0.5105 0.0
O421 O 0.00772 0.38624 0.44356 0.0
H422 H 0.88964 0.43293 0.53312 0.0
H423 H 0.03222 0.29862 0.47176 0.0
O424 O 0.01198 0.30954 0.3851 0.0
H425 H 0.10317 0.3715 0.48656 0.0
H426 H 0.08573 0.34548 0.28254 0.0
H427 H 0.0045 0.3984 0.35028 0.0
H428 H 0.06028 0.38067 0.43817 0.0
H429 H 0.05951 0.32774 0.35667 0.0
O430 O 0.9708 0.33951 0.57299 0.0
H431 H 0.92873 0.40781 0.49114 0.0
H432 H 0.91865 0.33851 0.59127 0.0
H433 H 0.03015 0.41692 0.2762 0.0
H434 H 0.0749 0.28848 0.52028 0.0
H435 H 0.07112 0.39042 0.24188 0.0
H436 H 0.1107 0.32511 0.52799 0.0
O437 O 0.97472 0.35598 0.37853 0.0
H438 H 0.94211 0.24908 0.52147 0.0
H439 H 0.89995 0.33972 0.46995 0.0
H440 H 0.87302 0.2966 0.46118 0.0
H441 H 0.89409 0.25087 0.48716 0.0
H442 H 0.96841 0.29267 0.5291 0.0
H443 H 0.8795 0.36293 0.63447 0.0
H444 H 0.86472 0.41047 0.60534 0.0
O445 O 0.9426 0.36565 0.43874 0.0
C446 C 0.99614 0.39932 0.48005 0.0
C447 C 0.89581 0.41219 0.54606 0.0
C448 C 0.89016 0.37291 0.60299 0.0
N449 N 0.92584 0.37165 0.53853 0.0
C450 C 0.91789 0.39783 0.52236 0.0
C451 C 0.91237 0.35921 0.57844 0.0
C452 C 0.88187 0.39958 0.58661 0.0
C453 C 0.04784 0.31455 0.47459 0.0
N454 N 0.04386 0.34013 0.45199 0.0
C455 C 0.07191 0.30874 0.50226 0.0
C456 C 0.09196 0.32932 0.50664 0.0
C457 C 0.08774 0.35536 0.48343 0.0
C458 C 0.06339 0.36045 0.45617 0.0
C459 C 0.06798 0.35727 0.29725 0.0
C460 C 0.02242 0.38683 0.33578 0.0
C461 C 0.05304 0.34732 0.33919 0.0
N462 N 0.03068 0.36217 0.3581 0.0
C463 C 0.03681 0.39739 0.29373 0.0
C464 C 0.05977 0.38248 0.27445 0.0
C465 C 0.95048 0.3645 0.39269 0.0
C466 C 0.93269 0.26889 0.51013 0.0
C467 C 0.9093 0.3199 0.48115 0.0
C468 C 0.89393 0.29555 0.47621 0.0
C469 C 0.90575 0.2699 0.49082 0.0
N470 N 0.93568 0.31874 0.50022 0.0
C471 C 0.94743 0.29366 0.51453 0.0
Co472 Co 0.35348 0.01404 0.91016 0.0
Co473 Co 0.35999 0.95867 0.99473 0.0
O474 O 0.33924 0.99087 0.96618 0.0
C475 C 0.2997 0.99629 0.86826 0.0
O476 O 0.30681 0.9705 0.88094 0.0
C477 C 0.34111 0.99154 0.08494 0.0
O478 O 0.34207 0.01504 0.05889 0.0
O479 O 0.39436 0.98126 0.00241 0.0
O480 O 0.39196 0.01211 0.93803 0.0
H481 H 0.44297 0.89346 0.01202 0.0
H482 H 0.30348 0.03437 0.9667 0.0
O483 O 0.31533 0.01643 0.87981 0.0
H484 H 0.37499 0.10588 0.98992 0.0
H485 H 0.34935 0.09404 0.78485 0.0
H486 H 0.40424 0.01216 0.84466 0.0
H487 H 0.38542 0.06429 0.93875 0.0
H488 H 0.33223 0.06511 0.85611 0.0
O489 O 0.34755 0.96834 0.06463 0.0
H490 H 0.41621 0.93338 0.97628 0.0
H491 H 0.34759 0.91564 0.0743 0.0
H492 H 0.42216 0.04055 0.77342 0.0
H493 H 0.29202 0.07584 0.01764 0.0
H494 H 0.39466 0.08185 0.74308 0.0
H495 H 0.32797 0.1119 0.02966 0.0
O496 O 0.36246 0.9805 0.86904 0.0
H497 H 0.25703 0.94034 0.00868 0.0
H498 H 0.34864 0.90259 0.95225 0.0
H499 H 0.30628 0.87501 0.93995 0.0
H500 H 0.26005 0.89386 0.96836 0.0
H501 H 0.29989 0.96734 0.01977 0.0
H502 H 0.37367 0.87557 0.1112 0.0
H503 H 0.42168 0.8642 0.07995 0.0
O504 O 0.37304 0.94736 0.92657 0.0
C505 C 0.40517 0.99996 0.97377 0.0
C506 C 0.42202 0.89813 0.02583 0.0
C507 C 0.38314 0.88812 0.08154 0.0
N508 N 0.3803 0.92675 0.02294 0.0
C509 C 0.40674 0.92069 0.00567 0.0
C510 C 0.3685 0.91087 0.06055 0.0
C511 C 0.41008 0.88175 0.06398 0.0
C512 C 0.31912 0.05012 0.97136 0.0
N513 N 0.34506 0.04693 0.94976 0.0
C514 C 0.31256 0.07349 1.00042 0.0
C515 C 0.33276 0.09369 0.00722 0.0
C516 C 0.35916 0.0903 0.985 0.0
C517 C 0.36499 0.06664 0.95625 0.0
C518 C 0.36156 0.07614 0.79782 0.0
C519 C 0.39222 0.03019 0.83189 0.0
C520 C 0.35197 0.05967 0.83812 0.0
N521 N 0.36734 0.03711 0.85484 0.0
C522 C 0.40245 0.04615 0.79144 0.0
C523 C 0.38699 0.0693 0.7744 0.0
C524 C 0.37172 0.95622 0.88126 0.0
C525 C 0.27706 0.93187 0.99627 0.0
C526 C 0.32861 0.91098 0.96456 0.0
C527 C 0.30469 0.89523 0.95761 0.0
C528 C 0.27876 0.90581 0.97358 0.0
N529 N 0.32678 0.9365 0.98694 0.0
C530 C 0.30142 0.94702 0.00264 0.0
Co531 Co 0.46047 0.35543 0.90146 0.0
Co532 Co 0.51315 0.35802 0.98821 0.0
O533 O 0.48117 0.33976 0.95818 0.0
C534 C 0.47658 0.2993 0.86489 0.0
O535 O 0.50144 0.30357 0.88329 0.0
C536 C 0.47431 0.34478 0.07275 0.0
O537 O 0.45422 0.35621 0.04587 0.0
O538 O 0.49197 0.39416 0.99473 0.0
O539 O 0.46401 0.39419 0.92774 0.0
H540 H 0.5816 0.43513 0.01106 0.0
H541 H 0.43596 0.30854 0.95989 0.0
O542 O 0.45689 0.31721 0.87207 0.0
H543 H 0.36826 0.38692 0.97723 0.0
H544 H 0.38372 0.35771 0.77381 0.0
H545 H 0.4674 0.40495 0.83417 0.0
H546 H 0.41139 0.39244 0.92622 0.0
H547 H 0.4098 0.33851 0.84628 0.0
O548 O 0.49951 0.34528 0.05646 0.0
H549 H 0.54205 0.41185 0.97182 0.0
H550 H 0.5517 0.34214 0.07143 0.0
H551 H 0.44181 0.42502 0.76187 0.0
H552 H 0.39297 0.30201 0.01097 0.0
H553 H 0.39963 0.40136 0.73126 0.0
H554 H 0.35883 0.34143 0.02 0.0
O555 O 0.49564 0.36002 0.86239 0.0
H556 H 0.52754 0.25382 0.00342 0.0
H557 H 0.56984 0.34264 0.94806 0.0
H558 H 0.59635 0.29839 0.9372 0.0
H559 H 0.57522 0.25356 0.96508 0.0
H560 H 0.5016 0.29848 0.01298 0.0
H561 H 0.59132 0.36473 0.11191 0.0
H562 H 0.60655 0.41153 0.08164 0.0
O563 O 0.52757 0.37053 0.9203 0.0
C564 C 0.47551 0.40661 0.96401 0.0
C565 C 0.57523 0.41469 0.02448 0.0
C566 C 0.58065 0.3752 0.08113 0.0
N567 N 0.54468 0.37559 0.01912 0.0
C568 C 0.55289 0.40137 0.00232 0.0
C569 C 0.55817 0.36253 0.05813 0.0
C570 C 0.58919 0.40146 0.06412 0.0
C571 C 0.42103 0.32567 0.96324 0.0
N572 N 0.42609 0.35078 0.93999 0.0
C573 C 0.3968 0.3219 0.99237 0.0
C574 C 0.37768 0.34405 0.9975 0.0
C575 C 0.38297 0.36959 0.97356 0.0
C576 C 0.40746 0.37261 0.94484 0.0
C577 C 0.40203 0.36826 0.78688 0.0
C578 C 0.44896 0.39463 0.82125 0.0
C579 C 0.4169 0.35746 0.82783 0.0
N580 N 0.43994 0.37075 0.84471 0.0
C581 C 0.43461 0.40605 0.78021 0.0
C582 C 0.41096 0.39275 0.76302 0.0
C583 C 0.51983 0.36789 0.87487 0.0
C584 C 0.537 0.27322 0.99125 0.0
C585 C 0.56045 0.32322 0.96013 0.0
C586 C 0.57559 0.29823 0.95399 0.0
C587 C 0.56373 0.27309 0.96967 0.0
N588 N 0.53423 0.32319 0.98136 0.0
C589 C 0.52247 0.29861 0.9968 0.0
Co590 Co 0.16569 0.47942 0.91569 0.0
Co591 Co 0.1568 0.53372 0.99925 0.0
O592 O 0.17803 0.50194 0.97159 0.0
C593 C 0.22013 0.50035 0.88082 0.0
O594 O 0.21194 0.52405 0.90094 0.0
C595 C 0.16856 0.49646 0.0868 0.0
O596 O 0.15871 0.47593 0.06043 0.0
O597 O 0.12199 0.51149 0.0048 0.0
O598 O 0.12616 0.48033 0.94255 0.0
H599 H 0.07435 0.59971 0.01564 0.0
H600 H 0.21423 0.4597 0.9749 0.0
O601 O 0.20475 0.4789 0.88563 0.0
H602 H 0.14378 0.38621 0.99602 0.0
H603 H 0.17492 0.40177 0.79052 0.0
H604 H 0.11644 0.48113 0.84915 0.0
H605 H 0.1342 0.42795 0.94287 0.0
H606 H 0.1896 0.43002 0.86206 0.0
O607 O 0.16813 0.52132 0.06876 0.0
H608 H 0.10157 0.56048 0.9793 0.0
H609 H 0.16736 0.57388 0.08127 0.0
H610 H 0.10081 0.45326 0.77784 0.0
H611 H 0.22478 0.41822 0.02823 0.0
H612 H 0.13016 0.41327 0.74807 0.0
H613 H 0.18935 0.38116 0.03913 0.0
O614 O 0.15757 0.51336 0.87489 0.0
H615 H 0.2592 0.55172 0.02 0.0
H616 H 0.16979 0.59025 0.95707 0.0
H617 H 0.21255 0.61803 0.94755 0.0
H618 H 0.25766 0.59879 0.97922 0.0
H619 H 0.21604 0.52448 0.02815 0.0
H620 H 0.14078 0.61322 0.11887 0.0
H621 H 0.09395 0.6264 0.08595 0.0
O622 O 0.1455 0.54686 0.93017 0.0
C623 C 0.11186 0.4929 0.97672 0.0
C624 C 0.09478 0.59425 0.03019 0.0
C625 C 0.13205 0.6018 0.08818 0.0
N626 N 0.13612 0.56505 0.02788 0.0
C627 C 0.11033 0.5721 0.00966 0.0
C628 C 0.14698 0.57948 0.06679 0.0
C629 C 0.10577 0.60919 0.06968 0.0
C630 C 0.19886 0.4435 0.97914 0.0
N631 N 0.17372 0.44612 0.95567 0.0
C632 C 0.20488 0.42014 0.00951 0.0
C633 C 0.18497 0.39937 0.01567 0.0
C634 C 0.15939 0.4022 0.99152 0.0
C635 C 0.15407 0.42589 0.96155 0.0
C636 C 0.1619 0.41909 0.80325 0.0
C637 C 0.1292 0.4636 0.83668 0.0
C638 C 0.17013 0.43517 0.84368 0.0
N639 N 0.15374 0.457 0.86007 0.0
C640 C 0.1203 0.44797 0.79617 0.0
C641 C 0.13679 0.42555 0.77945 0.0
C642 C 0.14852 0.53778 0.88544 0.0
C643 C 0.23966 0.56035 0.00617 0.0
C644 C 0.18935 0.58168 0.97078 0.0
C645 C 0.21349 0.59754 0.9654 0.0
C646 C 0.23879 0.58675 0.98322 0.0
N647 N 0.19037 0.55581 0.99333 0.0
C648 C 0.21511 0.54509 0.01092 0.0
Co649 Co 0.02074 0.15775 0.92482 0.0
Co650 Co 0.96297 0.15135 0.00334 0.0
O651 O 0.99538 0.17168 0.9771 0.0
C652 C 0.00218 0.21179 0.88047 0.0
O653 O 0.97664 0.20464 0.89334 0.0
C654 C 0.99618 0.16366 0.09278 0.0
O655 O 0.01761 0.15238 0.06864 0.0
O656 O 0.98548 0.11622 0.01339 0.0
O657 O 0.01884 0.11885 0.95329 0.0
H658 H 0.89764 0.07042 0.01895 0.0
H659 H 0.03701 0.20665 0.98384 0.0
O660 O 0.02287 0.19625 0.89346 0.0
H661 H 0.10977 0.13452 0.01633 0.0
H662 H 0.10486 0.16232 0.80902 0.0
H663 H 0.02262 0.1075 0.86069 0.0
H664 H 0.071 0.1253 0.95905 0.0
H665 H 0.07278 0.17921 0.87593 0.0
O666 O 0.9721 0.164 0.07287 0.0
H667 H 0.93802 0.09617 0.98458 0.0
H668 H 0.91911 0.16424 0.08085 0.0
H669 H 0.05429 0.08972 0.79395 0.0
H670 H 0.0755 0.21684 0.04122 0.0
H671 H 0.09576 0.11721 0.76772 0.0
H672 H 0.11217 0.18058 0.05786 0.0
O673 O 0.98883 0.14971 0.88099 0.0
H674 H 0.94229 0.25456 0.01392 0.0
H675 H 0.90819 0.16413 0.95533 0.0
H676 H 0.88012 0.20709 0.93982 0.0
H677 H 0.89713 0.25271 0.9693 0.0
H678 H 0.96985 0.21117 0.02812 0.0
H679 H 0.87855 0.13916 0.11646 0.0
H680 H 0.86756 0.09193 0.08539 0.0
O681 O 0.95338 0.13872 0.93419 0.0
C682 C 0.0053 0.10532 0.9872 0.0
C683 C 0.90214 0.09103 0.03268 0.0
C684 C 0.89147 0.12959 0.08747 0.0
N685 N 0.9308 0.13176 0.03045 0.0
C686 C 0.92494 0.10575 0.01326 0.0
C687 C 0.91448 0.14367 0.06723 0.0
C688 C 0.8853 0.10309 0.07 0.0
C689 C 0.05307 0.19089 0.99056 0.0
N690 N 0.05187 0.16549 0.96798 0.0
C691 C 0.07473 0.19673 0.02321 0.0
C692 C 0.09528 0.17635 0.0326 0.0
C693 C 0.09393 0.1505 0.00934 0.0
C694 C 0.07191 0.14538 0.97702 0.0
C695 C 0.0869 0.15012 0.82021 0.0
C696 C 0.04073 0.11949 0.84971 0.0
C697 C 0.06864 0.1596 0.85801 0.0
N698 N 0.04601 0.14422 0.87252 0.0
C699 C 0.05854 0.10936 0.81179 0.0
C700 C 0.08179 0.1248 0.79706 0.0
C701 C 0.96429 0.14082 0.89018 0.0
C702 C 0.93463 0.2348 1.00101 0.0
C703 C 0.91577 0.18392 0.96814 0.0
C704 C 0.89976 0.20816 0.95935 0.0
C705 C 0.9093 0.23375 0.97592 0.0
N706 N 0.94057 0.18511 0.99285 0.0
C707 C 0.95008 0.21013 0.00914 0.0
Co708 Co 0.86488 0.98002 0.60252 0.0
Co709 Co 0.85042 0.0337 0.51717 0.0
O710 O 0.84107 0.99872 0.55227 0.0
C711 C 0.81233 0.99157 0.65695 0.0
O712 O 0.81409 0.01679 0.63712 0.0
C713 C 0.82657 0.99636 0.43745 0.0
O714 O 0.8243 0.9751 0.46889 0.0
O715 O 0.8882 0.01865 0.49942 0.0
O716 O 0.89922 0.98744 0.5605 0.0
H717 H 0.91252 0.11426 0.47201 0.0
H718 H 0.81527 0.94954 0.56828 0.0
O719 O 0.83096 0.97308 0.64634 0.0
H720 H 0.89677 0.89098 0.51905 0.0
H721 H 0.88818 0.90452 0.72994 0.0
H722 H 0.92007 0.9914 0.64673 0.0
H723 H 0.90318 0.93535 0.56315 0.0
H724 H 0.85907 0.92849 0.66607 0.0
O725 O 0.83611 0.01965 0.45162 0.0
H726 H 0.89961 0.07062 0.51649 0.0
H727 H 0.82176 0.07065 0.44167 0.0
H728 H 0.94992 0.96801 0.71001 0.0
H729 H 0.80789 0.90509 0.52496 0.0
H730 H 0.93401 0.92423 0.75213 0.0
H731 H 0.84884 0.87554 0.49982 0.0
O732 O 0.87082 0.0155 0.63848 0.0
H733 H 0.74572 0.03026 0.53952 0.0
H734 H 0.8295 0.08724 0.56072 0.0
H735 H 0.78335 0.10613 0.58677 0.0
H736 H 0.74101 0.0776 0.57615 0.0
H737 H 0.79222 0.01206 0.51464 0.0
H738 H 0.83394 0.11418 0.39608 0.0
H739 H 0.87956 0.13634 0.4113 0.0
O740 O 0.86548 0.0494 0.58005 0.0
C741 C 0.90555 0.00229 0.52175 0.0
C742 C 0.89253 0.10487 0.46521 0.0
C743 C 0.84844 0.1048 0.42255 0.0
N744 N 0.85985 0.06825 0.4821 0.0
C745 C 0.88506 0.08021 0.49041 0.0
C746 C 0.84169 0.08013 0.44842 0.0
C747 C 0.87404 0.11723 0.43111 0.0
C748 C 0.83318 0.93667 0.5579 0.0
N749 N 0.85961 0.94507 0.56811 0.0
C750 C 0.82888 0.91158 0.53317 0.0
C751 C 0.85186 0.89503 0.519 0.0
C752 C 0.87877 0.90371 0.5297 0.0
C753 C 0.88227 0.92894 0.55443 0.0
C754 C 0.89537 0.92354 0.71177 0.0
C755 C 0.91308 0.97226 0.66461 0.0
C756 C 0.87896 0.93722 0.67564 0.0
N757 N 0.88799 0.96116 0.65236 0.0
C758 C 0.93004 0.95915 0.70055 0.0
C759 C 0.92109 0.93461 0.72419 0.0
C760 C 0.87181 0.041 0.62417 0.0
C761 C 0.76398 0.04299 0.54398 0.0
C762 C 0.8112 0.0747 0.55575 0.0
C763 C 0.7851 0.08553 0.57061 0.0
C764 C 0.76136 0.06952 0.56464 0.0
N765 N 0.81362 0.04871 0.53519 0.0
C766 C 0.79042 0.03286 0.52948 0.0
Co767 Co 0.52867 0.85263 0.56543 0.0
Co768 Co 0.47216 0.85897 0.48641 0.0
O769 O 0.50458 0.83851 0.51352 0.0
C770 C 0.50964 0.79975 0.61139 0.0
O771 O 0.48452 0.80721 0.59643 0.0
C772 C 0.5076 0.84355 0.39859 0.0
O773 O 0.52868 0.85416 0.42244 0.0
O774 O 0.49406 0.89378 0.47561 0.0
O775 O 0.52663 0.89125 0.53553 0.0
H776 H 0.40509 0.94043 0.46787 0.0
H777 H 0.54714 0.80254 0.50919 0.0
O778 O 0.53064 0.81448 0.5985 0.0
H779 H 0.61919 0.87302 0.47412 0.0
H780 H 0.61041 0.84781 0.68252 0.0
H781 H 0.52833 0.90358 0.62773 0.0
H782 H 0.57897 0.8838 0.53019 0.0
H783 H 0.58004 0.83078 0.61576 0.0
O784 O 0.48298 0.84544 0.41744 0.0
H785 H 0.44536 0.91451 0.50354 0.0
H786 H 0.43031 0.84593 0.40857 0.0
H787 H 0.55826 0.92152 0.69429 0.0
H788 H 0.58711 0.79079 0.4531 0.0
H789 H 0.59964 0.89356 0.7221 0.0
H790 H 0.62343 0.82622 0.43516 0.0
O791 O 0.49578 0.86169 0.6084 0.0
H792 H 0.45419 0.75584 0.47865 0.0
H793 H 0.4166 0.84724 0.53376 0.0
H794 H 0.3892 0.80476 0.55 0.0
H795 H 0.40794 0.75865 0.52225 0.0
H796 H 0.48107 0.79876 0.46375 0.0
H797 H 0.38993 0.87118 0.37166 0.0
H798 H 0.37706 0.91876 0.40141 0.0
O799 O 0.4607 0.87218 0.55522 0.0
C800 C 0.51319 0.9047 0.50148 0.0
C801 C 0.41044 0.91968 0.45469 0.0
C802 C 0.40196 0.88083 0.40064 0.0
N803 N 0.44008 0.87867 0.45835 0.0
C804 C 0.43318 0.90487 0.47485 0.0
C805 C 0.42487 0.86666 0.4216 0.0
C806 C 0.39474 0.90752 0.41737 0.0
C807 C 0.56304 0.81794 0.50192 0.0
N808 N 0.56083 0.84375 0.52306 0.0
C809 C 0.58555 0.81122 0.47 0.0
C810 C 0.60589 0.83113 0.45988 0.0
C811 C 0.60351 0.8574 0.48169 0.0
C812 C 0.58067 0.86341 0.51331 0.0
C813 C 0.59249 0.86023 0.67062 0.0
C814 C 0.54642 0.89139 0.63936 0.0
C815 C 0.5752 0.85068 0.63289 0.0
N816 N 0.55263 0.86632 0.61749 0.0
C817 C 0.56324 0.90161 0.67719 0.0
C818 C 0.58644 0.8859 0.69281 0.0
C819 C 0.47101 0.87032 0.59921 0.0
C820 C 0.44576 0.77582 0.4908 0.0
C821 C 0.42496 0.82725 0.52172 0.0
C822 C 0.40931 0.80327 0.53092 0.0
C823 C 0.41983 0.77741 0.51532 0.0
N824 N 0.45035 0.82553 0.49756 0.0
C825 C 0.46083 0.80023 0.48225 0.0
Co826 Co 0.64857 0.51155 0.58709 0.0
Co827 Co 0.66297 0.45652 0.50772 0.0
O828 O 0.67292 0.49149 0.5394 0.0
C829 C 0.7007 0.5007 0.64182 0.0
O830 O 0.69906 0.47515 0.62494 0.0
C831 C 0.68527 0.49279 0.42325 0.0
O832 O 0.67573 0.51534 0.44565 0.0
O833 O 0.62684 0.4733 0.4852 0.0
O834 O 0.61458 0.5036 0.54601 0.0
H835 H 0.5986 0.37854 0.4659 0.0
H836 H 0.69914 0.54 0.54761 0.0
O837 O 0.68201 0.51895 0.62998 0.0
H838 H 0.61936 0.59899 0.49251 0.0
H839 H 0.62433 0.58983 0.70534 0.0
H840 H 0.59257 0.50175 0.63297 0.0
H841 H 0.61159 0.55604 0.54301 0.0
H842 H 0.65404 0.5643 0.64407 0.0
O843 O 0.68155 0.46865 0.44298 0.0
H844 H 0.61189 0.42224 0.50659 0.0
H845 H 0.69289 0.41671 0.4393 0.0
H846 H 0.56216 0.52665 0.69381 0.0
H847 H 0.7079 0.58297 0.49771 0.0
H848 H 0.57799 0.57105 0.73045 0.0
H849 H 0.66782 0.61273 0.46964 0.0
O850 O 0.64168 0.47705 0.62729 0.0
H851 H 0.76673 0.45516 0.53518 0.0
H852 H 0.67926 0.40343 0.56108 0.0
H853 H 0.72349 0.38339 0.59324 0.0
H854 H 0.76763 0.40933 0.58044 0.0
H855 H 0.72201 0.47457 0.50406 0.0
H856 H 0.68041 0.37303 0.3976 0.0
H857 H 0.63299 0.35362 0.41094 0.0
O858 O 0.64413 0.44281 0.57075 0.0
C859 C 0.60894 0.48926 0.50727 0.0
C860 C 0.61936 0.38674 0.45991 0.0
C861 C 0.66526 0.38367 0.42154 0.0
N862 N 0.6532 0.42192 0.47564 0.0
C863 C 0.62703 0.41145 0.48295 0.0
C864 C 0.67219 0.40844 0.44518 0.0
C865 C 0.63865 0.37279 0.42905 0.0
C866 C 0.68162 0.55302 0.53601 0.0
N867 N 0.6549 0.54556 0.54825 0.0
C868 C 0.6867 0.57725 0.50755 0.0
C869 C 0.66419 0.5939 0.49173 0.0
C870 C 0.637 0.58618 0.50449 0.0
C871 C 0.63272 0.56178 0.53292 0.0
C872 C 0.61717 0.57055 0.68953 0.0
C873 C 0.59954 0.52116 0.64845 0.0
C874 C 0.63391 0.556 0.65488 0.0
N875 N 0.62493 0.53172 0.6346 0.0
C876 C 0.58225 0.53512 0.68302 0.0
C877 C 0.59117 0.56 0.7036 0.0
C878 C 0.63833 0.4518 0.61461 0.0
C879 C 0.74766 0.44361 0.54082 0.0
C880 C 0.69838 0.41484 0.5553 0.0
C881 C 0.72337 0.40336 0.57354 0.0
C882 C 0.74814 0.41792 0.5663 0.0
N883 N 0.69806 0.44008 0.53043 0.0
C884 C 0.72229 0.45441 0.523 0.0
Co885 Co 0.98608 0.64677 0.60477 0.0
Co886 Co 0.03637 0.65649 0.51148 0.0
O887 O 0.0036 0.66857 0.55038 0.0
C888 C 0.00404 0.69867 0.65018 0.0
O889 O 0.02742 0.69367 0.62528 0.0
C890 C 0.9936 0.67211 0.4354 0.0
O891 O 0.97481 0.65922 0.46333 0.0
O892 O 0.0192 0.61984 0.49949 0.0
O893 O 0.98926 0.61144 0.56405 0.0
H894 H 0.1125 0.58892 0.45848 0.0
H895 H 0.95827 0.69901 0.56844 0.0
O896 O 0.98381 0.6817 0.64694 0.0
H897 H 0.89148 0.62397 0.53779 0.0
H898 H 0.91635 0.63194 0.74586 0.0
H899 H 0.99592 0.59066 0.65112 0.0
H900 H 0.93685 0.61325 0.57733 0.0
H901 H 0.93866 0.65813 0.67577 0.0
O902 O 0.01905 0.67234 0.44881 0.0
H903 H 0.07175 0.60495 0.50894 0.0
H904 H 0.0699 0.6822 0.42787 0.0
H905 H 0.97413 0.56365 0.72061 0.0
H906 H 0.91306 0.71071 0.52911 0.0
H907 H 0.93404 0.58431 0.76854 0.0
H908 H 0.87935 0.67301 0.51343 0.0
O909 O 0.02265 0.63745 0.63528 0.0
H910 H 0.03729 0.7614 0.51997 0.0
H911 H 0.09218 0.67429 0.5467 0.0
H912 H 0.11341 0.71966 0.56439 0.0
H913 H 0.08591 0.76363 0.55094 0.0
H914 H 0.01675 0.71557 0.50333 0.0
H915 H 0.11048 0.66691 0.37625 0.0
H916 H 0.13213 0.62 0.39157 0.0
O917 O 0.0547 0.64051 0.57297 0.0
C918 C 0.00264 0.60388 0.52422 0.0
C919 C 0.10332 0.60945 0.45158 0.0
C920 C 0.10216 0.6532 0.40538 0.0
N921 N 0.06863 0.64457 0.47168 0.0
C922 C 0.08031 0.61868 0.48014 0.0
C923 C 0.07916 0.66173 0.43467 0.0
C924 C 0.1143 0.62688 0.414 0.0
C925 C 0.94358 0.68255 0.56217 0.0
N926 N 0.9501 0.65552 0.57536 0.0
C927 C 0.91807 0.68928 0.5397 0.0
C928 C 0.89918 0.66811 0.53084 0.0
C929 C 0.90599 0.64058 0.54447 0.0
C930 C 0.93172 0.63463 0.56674 0.0
C931 C 0.93375 0.62269 0.72517 0.0
C932 C 0.97834 0.59969 0.67152 0.0
C933 C 0.94647 0.63743 0.68551 0.0
N934 N 0.96836 0.62581 0.6591 0.0
C935 C 0.96615 0.58434 0.71096 0.0
C936 C 0.94368 0.59596 0.73787 0.0
C937 C 0.04757 0.63478 0.61834 0.0
C938 C 0.04952 0.74239 0.52578 0.0
C939 C 0.08006 0.69332 0.54086 0.0
C940 C 0.09221 0.71896 0.55084 0.0
C941 C 0.07678 0.74362 0.54324 0.0
N942 N 0.0533 0.69229 0.5237 0.0
C943 C 0.03805 0.71639 0.51618 0.0
H944 H 0.56607 0.10444 0.37066 0.0
H945 H 0.54261 0.17965 0.28769 0.0
H946 H 0.57348 0.16516 0.21669 0.0
H947 H 0.63935 0.09655 0.32156 0.0
H948 H 0.63662 0.0591 0.31782 0.0
H949 H 0.61708 0.07791 0.36539 0.0
H950 H 0.57123 0.0564 0.33411 0.0
H951 H 0.59052 0.03774 0.28629 0.0
H952 H 0.56191 0.06079 0.26897 0.0
H953 H 0.60277 0.14034 0.15223 0.0
H954 H 0.62608 0.10605 0.09666 0.0
H955 H 0.62814 0.04555 0.22031 0.0
C956 C 0.56835 0.11821 0.33814 0.0
C957 C 0.55282 0.1434 0.33453 0.0
C958 C 0.55498 0.16052 0.29095 0.0
C959 C 0.57243 0.15248 0.2507 0.0
C960 C 0.58715 0.12712 0.25473 0.0
C961 C 0.58519 0.11016 0.29727 0.0
C962 C 0.60014 0.08236 0.28958 0.0
C963 C 0.62477 0.07878 0.32573 0.0
C964 C 0.57973 0.0579 0.29505 0.0
C965 C 0.61027 0.08609 0.23575 0.0
C966 C 0.60302 0.11221 0.21665 0.0
C967 C 0.60885 0.11993 0.1669 0.0
C968 C 0.62207 0.10026 0.13561 0.0
C969 C 0.62894 0.07306 0.15403 0.0
C970 C 0.62332 0.06618 0.20505 0.0
H971 H 0.40916 0.56721 0.36253 0.0
H972 H 0.33802 0.5335 0.28613 0.0
H973 H 0.34846 0.56341 0.21167 0.0
H974 H 0.40531 0.63838 0.31055 0.0
H975 H 0.44273 0.64101 0.30377 0.0
H976 H 0.42795 0.61925 0.35297 0.0
H977 H 0.4568 0.57665 0.32029 0.0
H978 H 0.47177 0.5983 0.2713 0.0
H979 H 0.45398 0.5668 0.25539 0.0
H980 H 0.36751 0.59576 0.14491 0.0
H981 H 0.39683 0.62371 0.08678 0.0
H982 H 0.45712 0.63417 0.20534 0.0
C983 C 0.39561 0.56648 0.33032 0.0
C984 C 0.37269 0.54835 0.32992 0.0
C985 C 0.35571 0.54732 0.28688 0.0
C986 C 0.36134 0.56436 0.2447 0.0
C987 C 0.3842 0.58198 0.2461 0.0
C988 C 0.40129 0.58287 0.28752 0.0
C989 C 0.42605 0.60155 0.27763 0.0
C990 C 0.42546 0.62653 0.31336 0.0
C991 C 0.45378 0.58482 0.28136 0.0
C992 C 0.42035 0.6108 0.22401 0.0
C993 C 0.39585 0.59972 0.20684 0.0
C994 C 0.3867 0.60464 0.15795 0.0
C995 C 0.40348 0.62063 0.12524 0.0
C996 C 0.42935 0.63108 0.14137 0.0
C997 C 0.43745 0.62656 0.19181 0.0
H998 H 0.91014 0.4293 0.1259 0.0
H999 H 0.83223 0.45689 0.19563 0.0
H1000 H 0.84285 0.42821 0.27137 0.0
H1001 H 0.9136 0.35707 0.18503 0.0
H1002 H 0.95085 0.35902 0.19331 0.0
H1003 H 0.93459 0.37695 0.14091 0.0
H1004 H 0.95624 0.42344 0.16874 0.0
H1005 H 0.97227 0.40579 0.22139 0.0
H1006 H 0.94951 0.43567 0.23166 0.0
H1007 H 0.86449 0.40244 0.34281 0.0
H1008 H 0.89584 0.38146 0.40612 0.0
H1009 H 0.96079 0.37148 0.29133 0.0
C1010 C 0.89493 0.42825 0.15644 0.0
C1011 C 0.87012 0.44453 0.15503 0.0
C1012 C 0.8511 0.44397 0.19618 0.0
C1013 C 0.85694 0.42778 0.23915 0.0
C1014 C 0.88201 0.4125 0.2403 0.0
C1015 C 0.90071 0.4125 0.20003 0.0
C1016 C 0.92766 0.3972 0.21343 0.0
C1017 C 0.93192 0.371 0.18126 0.0
C1018 C 0.95289 0.41669 0.20852 0.0
C1019 C 0.92151 0.38946 0.26789 0.0
C1020 C 0.89491 0.39808 0.28235 0.0
C1021 C 0.88519 0.39511 0.33176 0.0
C1022 C 0.90323 0.38325 0.36752 0.0
C1023 C 0.93079 0.37466 0.35378 0.0
C1024 C 0.93976 0.37746 0.30303 0.0
H1025 H 0.07586 0.90304 0.13719 0.0
H1026 H 0.03554 0.83668 0.22242 0.0
H1027 H 0.0636 0.84772 0.29669 0.0
H1028 H 0.14551 0.89777 0.19644 0.0
H1029 H 0.14943 0.93518 0.19716 0.0
H1030 H 0.12944 0.91943 0.14847 0.0
H1031 H 0.0868 0.95113 0.17174 0.0
H1032 H 0.10662 0.96691 0.22044 0.0
H1033 H 0.07362 0.95098 0.23565 0.0
H1034 H 0.09302 0.86776 0.36256 0.0
H1035 H 0.11902 0.89782 0.41882 0.0
H1036 H 0.1385 0.95342 0.29263 0.0
C1037 C 0.07356 0.89052 0.17126 0.0
C1038 C 0.05403 0.86881 0.1744 0.0
C1039 C 0.05066 0.85327 0.21967 0.0
C1040 C 0.06657 0.85929 0.26177 0.0
C1041 C 0.08542 0.88113 0.25795 0.0
C1042 C 0.08883 0.89671 0.21407 0.0
C1043 C 0.1081 0.92104 0.22185 0.0
C1044 C 0.1347 0.91817 0.18903 0.0
C1045 C 0.09287 0.94917 0.21184 0.0
C1046 C 0.11453 0.91697 0.27714 0.0
C1047 C 0.10165 0.89352 0.29688 0.0
C1048 C 0.10341 0.88606 0.34753 0.0
C1049 C 0.11824 0.90335 0.37921 0.0
C1050 C 0.13084 0.92808 0.36028 0.0
C1051 C 0.12934 0.93458 0.30829 0.0
H1052 H 0.37925 0.96769 0.77974 0.0
H1053 H 0.38968 0.90208 0.8934 0.0
H1054 H 0.41188 0.87171 0.83056 0.0
H1055 H 0.36632 0.92011 0.67293 0.0
H1056 H 0.3858 0.94154 0.62894 0.0
H1057 H 0.36754 0.95741 0.68133 0.0
H1058 H 0.41364 0.97974 0.70932 0.0
H1059 H 0.43203 0.96389 0.65721 0.0
H1060 H 0.44391 0.95763 0.72048 0.0
H1061 H 0.43819 0.85068 0.76051 0.0
H1062 H 0.46548 0.83911 0.68397 0.0
H1063 H 0.43705 0.91651 0.61272 0.0
C1064 C 0.38563 0.94672 0.79113 0.0
C1065 C 0.38256 0.93734 0.84163 0.0
C1066 C 0.39162 0.90986 0.85508 0.0
C1067 C 0.40425 0.89232 0.81958 0.0
C1068 C 0.40752 0.90237 0.77057 0.0
C1069 C 0.39828 0.92877 0.75598 0.0
C1070 C 0.40613 0.9349 0.70145 0.0
C1071 C 0.37988 0.93871 0.66926 0.0
C1072 C 0.42505 0.96055 0.69688 0.0
C1073 C 0.42198 0.90816 0.68844 0.0
C1074 C 0.42235 0.88969 0.72898 0.0
C1075 C 0.43761 0.86464 0.72809 0.0
C1076 C 0.45312 0.85832 0.68468 0.0
C1077 C 0.45298 0.87682 0.64268 0.0
C1078 C 0.43689 0.90183 0.64416 0.0
H1079 H 0.62407 0.46179 0.71341 0.0
H1080 H 0.62177 0.39816 0.5986 0.0
H1081 H 0.59415 0.36821 0.65588 0.0
H1082 H 0.62841 0.41251 0.82259 0.0
H1083 H 0.60642 0.43462 0.8614 0.0
H1084 H 0.62856 0.44993 0.81329 0.0
H1085 H 0.58536 0.47511 0.77449 0.0
H1086 H 0.5631 0.45976 0.82218 0.0
H1087 H 0.55581 0.4548 0.75663 0.0
H1088 H 0.56148 0.3482 0.72006 0.0
H1089 H 0.52927 0.33739 0.79106 0.0
H1090 H 0.55491 0.41223 0.86662 0.0
C1091 C 0.61831 0.44131 0.70062 0.0
C1092 C 0.62509 0.43241 0.65136 0.0
C1093 C 0.61691 0.40551 0.6361 0.0
C1094 C 0.6012 0.3883 0.66839 0.0
C1095 C 0.59421 0.39805 0.71608 0.0
C1096 C 0.60286 0.42371 0.73255 0.0
C1097 C 0.59136 0.42978 0.78475 0.0
C1098 C 0.61511 0.43182 0.82276 0.0
C1099 C 0.57281 0.45644 0.78446 0.0
C1100 C 0.57424 0.40386 0.7944 0.0
C1101 C 0.57615 0.38587 0.75421 0.0
C1102 C 0.56029 0.36176 0.75226 0.0
C1103 C 0.54199 0.35588 0.79248 0.0
C1104 C 0.54004 0.37383 0.83421 0.0
C1105 C 0.5566 0.39791 0.8355 0.0
H1106 H 0.04263 0.62736 0.7205 0.0
H1107 H 0.10115 0.61737 0.59516 0.0
H1108 H 0.13554 0.59566 0.65265 0.0
H1109 H 0.09536 0.64224 0.81644 0.0
H1110 H 0.07668 0.62301 0.86473 0.0
H1111 H 0.05777 0.64036 0.81472 0.0
H1112 H 0.0347 0.59354 0.79271 0.0
H1113 H 0.0535 0.57609 0.84254 0.0
H1114 H 0.05658 0.56342 0.77916 0.0
H1115 H 0.16081 0.5697 0.72079 0.0
H1116 H 0.17628 0.54321 0.79624 0.0
H1117 H 0.10256 0.57221 0.87827 0.0
C1118 C 0.06284 0.62104 0.70516 0.0
C1119 C 0.06915 0.62403 0.65323 0.0
C1120 C 0.09583 0.61538 0.63477 0.0
C1121 C 0.11552 0.60306 0.66716 0.0
C1122 C 0.10838 0.59996 0.71792 0.0
C1123 C 0.0828 0.60898 0.73696 0.0
C1124 C 0.07969 0.60181 0.79243 0.0
C1125 C 0.07724 0.62845 0.82394 0.0
C1126 C 0.05464 0.58257 0.80225 0.0
C1127 C 0.1072 0.58655 0.8013 0.0
C1128 C 0.12347 0.58579 0.75783 0.0
C1129 C 0.14859 0.57067 0.75533 0.0
C1130 C 0.15715 0.55565 0.79819 0.0
C1131 C 0.14076 0.55614 0.84295 0.0
C1132 C 0.11578 0.5722 0.84481 0.0
H1133 H 0.93359 0.09365 0.88245 0.0
H1134 H 0.95898 0.16839 0.80078 0.0
H1135 H 0.93366 0.15285 0.72602 0.0
H1136 H 0.945 0.04842 0.78095 0.0
H1137 H 0.91608 0.02594 0.79587 0.0
H1138 H 0.93271 0.04464 0.8451 0.0
H1139 H 0.88498 0.06692 0.87125 0.0
H1140 H 0.86814 0.0482 0.82211 0.0
H1141 H 0.86453 0.08573 0.82497 0.0
H1142 H 0.90774 0.12842 0.65965 0.0
H1143 H 0.88647 0.09499 0.60285 0.0
H1144 H 0.88071 0.03424 0.72572 0.0
C1145 C 0.9332 0.10695 0.84909 0.0
C1146 C 0.94773 0.13235 0.84718 0.0
C1147 C 0.94771 0.14893 0.80269 0.0
C1148 C 0.93332 0.14035 0.7603 0.0
C1149 C 0.91946 0.11497 0.763 0.0
C1150 C 0.91949 0.09835 0.80604 0.0
C1151 C 0.90547 0.07072 0.79728 0.0
C1152 C 0.92604 0.04598 0.80526 0.0
C1153 C 0.87922 0.06773 0.8309 0.0
C1154 C 0.89788 0.07428 0.74243 0.0
C1155 C 0.90567 0.10017 0.72374 0.0
C1156 C 0.90144 0.10812 0.67384 0.0
C1157 C 0.88932 0.08893 0.64186 0.0
C1158 C 0.882 0.06189 0.65969 0.0
C1159 C 0.88606 0.05471 0.71089 0.0
H1160 H 0.69819 0.03322 0.86288 0.0
H1161 H 0.69402 0.94568 0.90734 0.0
H1162 H 0.72597 0.93341 0.83647 0.0
H1163 H 0.70157 0.02235 0.72641 0.0
H1164 H 0.7254 0.05075 0.7164 0.0
H1165 H 0.70035 0.05193 0.76768 0.0
H1166 H 0.74054 0.05879 0.83042 0.0
H1167 H 0.7657 0.05752 0.7795 0.0
H1168 H 0.76912 0.03371 0.83236 0.0
H1169 H 0.7625 0.93178 0.76547 0.0
H1170 H 0.79813 0.94064 0.69877 0.0
H1171 H 0.7765 0.02916 0.70099 0.0
C1172 C 0.70361 0.01138 0.85735 0.0
C1173 C 0.69362 0.99038 0.89058 0.0
C1174 C 0.70127 0.96208 0.88206 0.0
C1175 C 0.71945 0.95494 0.842 0.0
C1176 C 0.72942 0.97632 0.81058 0.0
C1177 C 0.72145 0.00393 0.81757 0.0
C1178 C 0.73586 0.02322 0.78023 0.0
C1179 C 0.71452 0.03792 0.74563 0.0
C1180 C 0.75387 0.04455 0.80725 0.0
C1181 C 0.75375 0.00229 0.75172 0.0
C1182 C 0.74979 0.97531 0.76954 0.0
C1183 C 0.76542 0.95277 0.75075 0.0
C1184 C 0.78565 0.958 0.71299 0.0
C1185 C 0.78996 0.98555 0.69441 0.0
C1186 C 0.7735 0.0078 0.71382 0.0
H1187 H 0.46884 0.77774 0.67246 0.0
H1188 H 0.55792 0.7723 0.6398 0.0
H1189 H 0.56374 0.73877 0.71092 0.0
H1190 H 0.47514 0.77848 0.80382 0.0
H1191 H 0.44423 0.75843 0.81679 0.0
H1192 H 0.44664 0.77946 0.76019 0.0
H1193 H 0.4373 0.73589 0.70652 0.0
H1194 H 0.43467 0.71475 0.76303 0.0
H1195 H 0.45918 0.70504 0.71389 0.0
H1196 H 0.55995 0.70754 0.78875 0.0
H1197 H 0.54715 0.68209 0.86722 0.0
H1198 H 0.46084 0.70986 0.85025 0.0
C1199 C 0.48949 0.76899 0.67942 0.0
C1200 C 0.51289 0.77732 0.65007 0.0
C1201 C 0.53967 0.766 0.66147 0.0
C1202 C 0.54316 0.74696 0.7018 0.0
C1203 C 0.51971 0.73963 0.73061 0.0
C1204 C 0.4934 0.75033 0.71988 0.0
C1205 C 0.4719 0.74072 0.75855 0.0
C1206 C 0.45871 0.76576 0.78648 0.0
C1207 C 0.44944 0.72304 0.73402 0.0
C1208 C 0.49022 0.72304 0.79295 0.0
C1209 C 0.51768 0.72244 0.77603 0.0
C1210 C 0.53848 0.70776 0.80216 0.0
C1211 C 0.53099 0.69336 0.84671 0.0
C1212 C 0.50299 0.69393 0.86496 0.0
C1213 C 0.48243 0.70897 0.83742 0.0
H1214 H 0.83428 0.46554 0.80807 0.0
H1215 H 0.81215 0.53845 0.89591 0.0
H1216 H 0.77601 0.5519 0.83405 0.0
H1217 H 0.81961 0.49608 0.68073 0.0
H1218 H 0.80474 0.46403 0.65952 0.0
H1219 H 0.83206 0.46291 0.70553 0.0
H1220 H 0.8002 0.43422 0.76596 0.0
H1221 H 0.7728 0.43542 0.72035 0.0
H1222 H 0.76609 0.44799 0.78303 0.0
H1223 H 0.73946 0.55506 0.76692 0.0
H1224 H 0.70396 0.5464 0.70257 0.0
H1225 H 0.74822 0.46988 0.66141 0.0
C1226 C 0.82253 0.48489 0.81314 0.0
C1227 C 0.8264 0.50138 0.856 0.0
C1228 C 0.80976 0.52584 0.86279 0.0
C1229 C 0.78922 0.53363 0.82786 0.0
C1230 C 0.78538 0.51656 0.78658 0.0
C1231 C 0.80154 0.49264 0.77911 0.0
C1232 C 0.79103 0.47617 0.73515 0.0
C1233 C 0.81318 0.47473 0.69272 0.0
C1234 C 0.78199 0.44672 0.75217 0.0
C1235 C 0.76613 0.49422 0.7198 0.0
C1236 C 0.76351 0.51768 0.74929 0.0
C1237 C 0.74146 0.53689 0.74329 0.0
C1238 C 0.72139 0.53181 0.70663 0.0
C1239 C 0.72326 0.50747 0.677 0.0
C1240 C 0.74619 0.4887 0.68342 0.0
H1241 H 0.96731 0.78338 0.90019 0.0
H1242 H 0.0353 0.83791 0.85651 0.0
H1243 H 0.03908 0.81476 0.7743 0.0
H1244 H 0.99781 0.72291 0.84984 0.0
H1245 H 0.96576 0.70787 0.82905 0.0
H1246 H 0.96514 0.73138 0.88126 0.0
H1247 H 0.92873 0.7631 0.83578 0.0
H1248 H 0.92919 0.7396 0.78337 0.0
H1249 H 0.93635 0.77616 0.77318 0.0
H1250 H 0.03877 0.78359 0.70124 0.0
H1251 H 0.03613 0.74467 0.64236 0.0
H1252 H 0.96928 0.70829 0.73272 0.0
C1253 C 0.9824 0.79093 0.87263 0.0
C1254 C 1.00073 0.81274 0.88421 0.0
C1255 C 0.02092 0.82142 0.84809 0.0
C1256 C 0.02314 0.80846 0.80128 0.0
C1257 C 0.00517 0.78668 0.79129 0.0
C1258 C 0.98523 0.77783 0.82588 0.0
C1259 C 0.97065 0.75198 0.80758 0.0
C1260 C 0.97512 0.72707 0.8441 0.0
C1261 C 0.93937 0.75808 0.79949 0.0
C1262 C 0.98596 0.74736 0.75786 0.0
C1263 C 0.00547 0.76795 0.74909 0.0
C1264 C 0.02338 0.76753 0.70739 0.0
C1265 C 0.02175 0.74523 0.67421 0.0
C1266 C 0.00245 0.72346 0.68284 0.0
C1267 C 0.98392 0.72487 0.72474 0.0
H1268 H 0.19558 0.95883 0.65042 0.0
H1269 H 0.18 0.04791 0.62879 0.0
H1270 H 0.20786 0.05728 0.70418 0.0
H1271 H 0.19423 0.95807 0.78859 0.0
H1272 H 0.22205 0.93222 0.79232 0.0
H1273 H 0.19868 0.93255 0.73975 0.0
H1274 H 0.24101 0.93594 0.67804 0.0
H1275 H 0.26448 0.93559 0.7303 0.0
H1276 H 0.26548 0.96385 0.68466 0.0
H1277 H 0.24079 0.05693 0.77777 0.0
H1278 H 0.27633 0.04713 0.84241 0.0
H1279 H 0.26993 0.95817 0.81564 0.0
C1280 C 0.19755 0.98033 0.6619 0.0
C1281 C 0.18541 0.00265 0.63377 0.0
C1282 C 0.18892 0.03046 0.64987 0.0
C1283 C 0.20469 0.03597 0.69269 0.0
C1284 C 0.21668 0.01345 0.71911 0.0
C1285 C 0.21319 0.98618 0.70435 0.0
C1286 C 0.22963 0.96578 0.73711 0.0
C1287 C 0.20997 0.94599 0.76617 0.0
C1288 C 0.25144 0.94934 0.70565 0.0
C1289 C 0.24343 0.98585 0.77211 0.0
C1290 C 0.23553 0.01324 0.76141 0.0
C1291 C 0.24683 0.03555 0.78686 0.0
C1292 C 0.26703 0.02975 0.82353 0.0
C1293 C 0.27581 0.00185 0.83442 0.0
C1294 C 0.26337 0.97967 0.80887 0.0
H1295 H 0.52965 0.17949 0.67991 0.0
H1296 H 0.45437 0.19591 0.59493 0.0
H1297 H 0.43603 0.2262 0.66294 0.0
H1298 H 0.49801 0.18268 0.80875 0.0
H1299 H 0.52744 0.20089 0.83316 0.0
H1300 H 0.5325 0.17673 0.7823 0.0
H1301 H 0.55575 0.21569 0.7282 0.0
H1302 H 0.55075 0.2399 0.77878 0.0
H1303 H 0.53704 0.24825 0.71748 0.0
H1304 H 0.42756 0.25746 0.7365 0.0
H1305 H 0.43121 0.29077 0.80577 0.0
H1306 H 0.51354 0.25666 0.84061 0.0
C1307 C 0.50891 0.18876 0.67656 0.0
C1308 C 0.49304 0.18492 0.63294 0.0
C1309 C 0.46658 0.19833 0.62854 0.0
C1310 C 0.45599 0.21546 0.66701 0.0
C1311 C 0.47234 0.21927 0.70928 0.0
C1312 C 0.49835 0.20648 0.71413 0.0
C1313 C 0.51318 0.21682 0.76014 0.0
C1314 C 0.51806 0.19285 0.79835 0.0
C1315 C 0.5408 0.23101 0.74524 0.0
C1316 C 0.49172 0.23783 0.77979 0.0
C1317 C 0.46808 0.23846 0.75053 0.0
C1318 C 0.44587 0.25699 0.75994 0.0
C1319 C 0.44814 0.27584 0.79951 0.0
C1320 C 0.47266 0.27638 0.82879 0.0
C1321 C 0.49444 0.25667 0.81924 0.0
H1322 H 0.30503 0.46318 0.6291 0.0
H1323 H 0.35177 0.53859 0.65336 0.0
H1324 H 0.32985 0.54308 0.73751 0.0
H1325 H 0.24245 0.48835 0.68211 0.0
H1326 H 0.23192 0.45564 0.7105 0.0
H1327 H 0.25429 0.45569 0.65548 0.0
H1328 H 0.29094 0.42522 0.70293 0.0
H1329 H 0.26863 0.42508 0.75822 0.0
H1330 H 0.3041 0.43692 0.76207 0.0
H1331 H 0.29995 0.54236 0.81463 0.0
H1332 H 0.26237 0.53774 0.87847 0.0
H1333 H 0.23348 0.46337 0.80498 0.0
C1334 C 0.31119 0.48016 0.6528 0.0
C1335 C 0.3304 0.50035 0.63503 0.0
C1336 C 0.33726 0.5228 0.66638 0.0
C1337 C 0.325 0.52546 0.71432 0.0
C1338 C 0.30574 0.50558 0.73042 0.0
C1339 C 0.29877 0.48337 0.70067 0.0
C1340 C 0.27533 0.46663 0.72503 0.0
C1341 C 0.24947 0.46659 0.69127 0.0
C1342 C 0.28536 0.43668 0.73783 0.0
C1343 C 0.2698 0.48332 0.77242 0.0
C1344 C 0.28792 0.50545 0.77501 0.0
C1345 C 0.28588 0.52491 0.81339 0.0
C1346 C 0.26442 0.52212 0.84948 0.0
C1347 C 0.2451 0.50009 0.84701 0.0
C1348 C 0.24827 0.4801 0.8085 0.0
H1349 H 0.95914 0.31355 0.6542 0.0
H1350 H 0.04724 0.33119 0.63201 0.0
H1351 H 0.05819 0.30367 0.70896 0.0
H1352 H 0.95828 0.31546 0.79216 0.0
H1353 H 0.93407 0.28708 0.79795 0.0
H1354 H 0.93306 0.31011 0.74367 0.0
H1355 H 0.93892 0.26749 0.68513 0.0
H1356 H 0.93994 0.24436 0.73912 0.0
H1357 H 0.96823 0.24373 0.69356 0.0
H1358 H 0.05979 0.27082 0.78466 0.0
H1359 H 0.05192 0.23562 0.85225 0.0
H1360 H 0.96268 0.24029 0.82516 0.0
C1361 C 0.98072 0.31206 0.66587 0.0
C1362 C 0.00232 0.32472 0.63711 0.0
C1363 C 0.0303 0.32188 0.65352 0.0
C1364 C 0.03672 0.30629 0.69723 0.0
C1365 C 0.01493 0.29379 0.72431 0.0
C1366 C 0.98748 0.29663 0.70931 0.0
C1367 C 0.96806 0.27994 0.74331 0.0
C1368 C 0.94713 0.29931 0.77091 0.0
C1369 C 0.95291 0.25756 0.7135 0.0
C1370 C 0.9889 0.26682 0.77935 0.0
C1371 C 0.01583 0.27515 0.76797 0.0
C1372 C 0.03875 0.26447 0.79429 0.0
C1373 C 0.03407 0.24447 0.83265 0.0
C1374 C 0.00666 0.23536 0.84444 0.0
C1375 C 0.98384 0.24714 0.81781 0.0
H1376 H 0.22829 0.02173 0.30039 0.0
H1377 H 0.26073 0.94728 0.37641 0.0
H1378 H 0.30012 0.94523 0.31543 0.0
H1379 H 0.24109 0.99875 0.17949 0.0
H1380 H 0.2507 0.0322 0.15292 0.0
H1381 H 0.22761 0.03061 0.20688 0.0
H1382 H 0.26091 0.06195 0.25615 0.0
H1383 H 0.28415 0.06371 0.20217 0.0
H1384 H 0.29719 0.05172 0.26215 0.0
H1385 H 0.3321 0.9475 0.24121 0.0
H1386 H 0.35464 0.95364 0.15791 0.0
H1387 H 0.30207 0.02681 0.12892 0.0
C1388 C 0.24412 0.00546 0.30505 0.0
C1389 C 0.24159 0.98477 0.34341 0.0
C1390 C 0.26231 0.96339 0.34745 0.0
C1391 C 0.28482 0.96213 0.31311 0.0
C1392 C 0.28634 0.98243 0.27501 0.0
C1393 C 0.26663 0.00378 0.27082 0.0
C1394 C 0.27163 0.02131 0.22356 0.0
C1395 C 0.24626 0.02066 0.18866 0.0
C1396 C 0.27891 0.05146 0.23682 0.0
C1397 C 0.29671 0.00592 0.20098 0.0
C1398 C 0.30502 0.98378 0.23172 0.0
C1399 C 0.32615 0.96505 0.21728 0.0
C1400 C 0.33877 0.96868 0.16983 0.0
C1401 C 0.3303 0.99087 0.13728 0.0
C1402 C 0.30942 0.0101 0.15358 0.0
H1403 H 0.51168 0.24246 0.30111 0.0
H1404 H 0.42445 0.21908 0.30843 0.0
H1405 H 0.41342 0.2554 0.24375 0.0
H1406 H 0.50103 0.31733 0.27968 0.0
H1407 H 0.53036 0.31962 0.23651 0.0
H1408 H 0.53058 0.2937 0.28646 0.0
H1409 H 0.53899 0.25461 0.22113 0.0
H1410 H 0.53882 0.28038 0.17109 0.0
H1411 H 0.51512 0.25152 0.16974 0.0
H1412 H 0.41274 0.29334 0.17495 0.0
H1413 H 0.42278 0.3267 0.10521 0.0
H1414 H 0.51085 0.32332 0.14225 0.0
C1415 C 0.49013 0.24521 0.28984 0.0
C1416 C 0.46884 0.2281 0.31024 0.0
C1417 C 0.44105 0.23206 0.29353 0.0
C1418 C 0.43461 0.25268 0.25693 0.0
C1419 C 0.45622 0.26903 0.23729 0.0
C1420 C 0.48345 0.26535 0.2531 0.0
C1421 C 0.50329 0.28404 0.22383 0.0
C1422 C 0.51712 0.30491 0.25871 0.0
C1423 C 0.52534 0.26659 0.19473 0.0
C1424 C 0.48309 0.2987 0.18856 0.0
C1425 C 0.45597 0.29009 0.19721 0.0
C1426 C 0.43388 0.30031 0.16813 0.0
C1427 C 0.43978 0.31935 0.12868 0.0
C1428 C 0.46759 0.32773 0.1183 0.0
C1429 C 0.48935 0.31748 0.14929 0.0
H1430 H 0.26759 0.53116 0.31531 0.0
H1431 H 0.27164 0.44215 0.34943 0.0
H1432 H 0.23631 0.434 0.28457 0.0
H1433 H 0.19241 0.5359 0.28614 0.0
H1434 H 0.19804 0.56073 0.23544 0.0
H1435 H 0.22106 0.55982 0.28852 0.0
H1436 H 0.26367 0.55319 0.22821 0.0
H1437 H 0.24081 0.55391 0.17505 0.0
H1438 H 0.26428 0.5245 0.18497 0.0
H1439 H 0.20343 0.43518 0.2108 0.0
H1440 H 0.17613 0.44554 0.13437 0.0
H1441 H 0.19431 0.53373 0.14783 0.0
C1442 C 0.26054 0.51002 0.31013 0.0
C1443 C 0.27219 0.48732 0.33797 0.0
C1444 C 0.26288 0.4599 0.32892 0.0
C1445 C 0.2428 0.45507 0.29214 0.0
C1446 C 0.23222 0.47785 0.26459 0.0
C1447 C 0.24073 0.50481 0.27328 0.0
C1448 C 0.22779 0.5254 0.23605 0.0
C1449 C 0.20869 0.54672 0.26317 0.0
C1450 C 0.25049 0.5401 0.2042 0.0
C1451 C 0.211 0.5058 0.20456 0.0
C1452 C 0.21362 0.47849 0.22183 0.0
C1453 C 0.20098 0.45655 0.19734 0.0
C1454 C 0.18549 0.46265 0.1539 0.0
C1455 C 0.18284 0.49047 0.13514 0.0
C1456 C 0.19561 0.51227 0.16137 0.0
H1457 H 0.95685 0.19174 0.15028 0.0
H1458 H 0.04531 0.16982 0.14296 0.0
H1459 H 0.0531 0.19763 0.21879 0.0
H1460 H 0.96514 0.26155 0.18503 0.0
H1461 H 0.93501 0.26279 0.22655 0.0
H1462 H 0.93596 0.23911 0.17459 0.0
H1463 H 0.92696 0.19748 0.23595 0.0
H1464 H 0.92598 0.22107 0.28819 0.0
H1465 H 0.94989 0.1915 0.28838 0.0
H1466 H 0.05201 0.23122 0.29085 0.0
H1467 H 0.04197 0.26753 0.35405 0.0
H1468 H 0.95411 0.26683 0.31566 0.0
C1469 C 0.9778 0.19235 0.16509 0.0
C1470 C 1.00044 0.17839 0.14074 0.0
C1471 C 0.02757 0.18012 0.16105 0.0
C1472 C 0.03222 0.19588 0.20417 0.0
C1473 C 0.00952 0.20968 0.22681 0.0
C1474 C 0.98281 0.20794 0.20813 0.0
C1475 C 0.96227 0.22596 0.23787 0.0
C1476 C 0.94881 0.2487 0.20399 0.0
C1477 C 0.93996 0.20792 0.26416 0.0
C1478 C 0.98168 0.23851 0.27565 0.0
C1479 C 0.00883 0.22877 0.26876 0.0
C1480 C 0.03076 0.23868 0.29706 0.0
C1481 C 0.02486 0.25933 0.33286 0.0
C1482 C 0.99722 0.26981 0.34026 0.0
C1483 C 0.97536 0.25886 0.31169 0.0
H1484 H 0.70813 0.97135 0.23663 0.0
H1485 H 0.75222 0.0307 0.1407 0.0
H1486 H 0.7917 0.02968 0.19897 0.0
H1487 H 0.7259 0.00136 0.34927 0.0
H1488 H 0.73011 0.96919 0.38482 0.0
H1489 H 0.70716 0.97067 0.33184 0.0
H1490 H 0.73429 0.92917 0.29145 0.0
H1491 H 0.75733 0.92749 0.34451 0.0
H1492 H 0.77158 0.9313 0.28167 0.0
H1493 H 0.82306 0.02775 0.27143 0.0
H1494 H 0.84502 0.02464 0.35464 0.0
H1495 H 0.78188 0.96618 0.40553 0.0
C1496 C 0.7265 0.98342 0.2273 0.0
C1497 C 0.72726 1.00094 0.18399 0.0
C1498 C 0.75125 0.0171 0.17361 0.0
C1499 C 0.77385 0.01656 0.20637 0.0
C1500 C 0.77222 0.99974 0.24946 0.0
C1501 C 0.74928 0.98334 0.26006 0.0
C1502 C 0.7518 0.9694 0.31157 0.0
C1503 C 0.72729 0.9782 0.34642 0.0
C1504 C 0.75388 0.93744 0.30701 0.0
C1505 C 0.77922 0.98132 0.32875 0.0
C1506 C 0.79073 0.9985 0.29193 0.0
C1507 C 0.81463 0.0139 0.3002 0.0
C1508 C 0.8269 0.01207 0.3476 0.0
C1509 C 0.81536 0.99489 0.38615 0.0
C1510 C 0.79154 0.97888 0.37624 0.0
H1511 H 0.46865 0.82041 0.33768 0.0
H1512 H 0.55817 0.8257 0.35935 0.0
H1513 H 0.56642 0.79187 0.29112 0.0
H1514 H 0.46714 0.74831 0.31662 0.0
H1515 H 0.44052 0.75042 0.26938 0.0
H1516 H 0.44181 0.77669 0.317 0.0
H1517 H 0.44464 0.81547 0.24801 0.0
H1518 H 0.4432 0.78932 0.20009 0.0
H1519 H 0.4717 0.81348 0.20017 0.0
H1520 H 0.56451 0.754 0.2251 0.0
H1521 H 0.55262 0.71759 0.1641 0.0
H1522 H 0.46452 0.73842 0.18463 0.0
C1523 C 0.49004 0.81487 0.32755 0.0
C1524 C 0.51276 0.82587 0.35383 0.0
C1525 C 0.5404 0.8178 0.33957 0.0
C1526 C 0.5453 0.7985 0.30091 0.0
C1527 C 0.52238 0.78764 0.27648 0.0
C1528 C 0.4953 0.79582 0.2889 0.0
C1529 C 0.47424 0.78042 0.25816 0.0
C1530 C 0.45479 0.76292 0.29233 0.0
C1531 C 0.45746 0.8009 0.22461 0.0
C1532 C 0.49363 0.76194 0.22708 0.0
C1533 C 0.52133 0.76636 0.23811 0.0
C1534 C 0.5429 0.75065 0.21573 0.0
C1535 C 0.53595 0.72997 0.18122 0.0
C1536 C 0.50767 0.72525 0.16924 0.0
C1537 C 0.48637 0.74168 0.1924 0.0
H1538 H 0.71493 0.53759 0.38405 0.0
H1539 H 0.69189 0.45206 0.35399 0.0
H1540 H 0.71976 0.45325 0.27554 0.0
H1541 H 0.71495 0.56269 0.25382 0.0
H1542 H 0.74511 0.5843 0.26071 0.0
H1543 H 0.7224 0.57748 0.31403 0.0
H1544 H 0.7647 0.55845 0.36452 0.0
H1545 H 0.78753 0.56508 0.31129 0.0
H1546 H 0.78609 0.53049 0.33905 0.0
H1547 H 0.74923 0.46296 0.20107 0.0
H1548 H 0.7805 0.48054 0.13386 0.0
H1549 H 0.78766 0.55922 0.21125 0.0
C1550 C 0.71556 0.51927 0.36058 0.0
C1551 C 0.70109 0.49475 0.37503 0.0
C1552 C 0.70278 0.47104 0.34379 0.0
C1553 C 0.71854 0.47151 0.29907 0.0
C1554 C 0.73278 0.49576 0.28615 0.0
C1555 C 0.73164 0.51922 0.31584 0.0
C1556 C 0.74981 0.54218 0.29334 0.0
C1557 C 0.732 0.5682 0.27966 0.0
C1558 C 0.77344 0.54947 0.3292 0.0
C1559 C 0.76125 0.52787 0.24647 0.0
C1560 C 0.75083 0.50117 0.2432 0.0
C1561 C 0.75754 0.48381 0.20316 0.0
C1562 C 0.7752 0.49402 0.16508 0.0
C1563 C 0.78626 0.52121 0.16734 0.0
C1564 C 0.7795 0.53831 0.20887 0.0
H1565 H 0.02317 0.76866 0.19618 0.0
H1566 H 0.93492 0.7914 0.1952 0.0
H1567 H 0.9262 0.75678 0.26386 0.0
H1568 H 0.01579 0.69428 0.22518 0.0
H1569 H 0.04584 0.69346 0.26533 0.0
H1570 H 0.04422 0.71783 0.21301 0.0
H1571 H 0.05203 0.75888 0.27354 0.0
H1572 H 0.05359 0.73469 0.32596 0.0
H1573 H 0.02877 0.7635 0.32689 0.0
H1574 H 0.92812 0.721 0.33667 0.0
H1575 H 0.94071 0.68958 0.40815 0.0
H1576 H 0.0279 0.69242 0.36107 0.0
C1577 C 0.00186 0.7661 0.20962 0.0
C1578 C 0.97966 0.78259 0.18997 0.0
C1579 C 0.95222 0.77886 0.20946 0.0
C1580 C 0.94709 0.75922 0.24839 0.0
C1581 C 0.96962 0.7436 0.26739 0.0
C1582 C 0.99647 0.74694 0.24854 0.0
C1583 C 0.01749 0.72928 0.27739 0.0
C1584 C 0.03166 0.70741 0.24318 0.0
C1585 C 0.03924 0.74769 0.30243 0.0
C1586 C 0.99842 0.71565 0.31601 0.0
C1587 C 0.97082 0.72381 0.30946 0.0
C1588 C 0.94965 0.71436 0.34185 0.0
C1589 C 0.95697 0.69647 0.38226 0.0
C1590 C 0.98527 0.68853 0.39018 0.0
C1591 C 0.00607 0.69806 0.35609 0.0
H1592 H 0.44434 0.97594 0.03837 0.0
H1593 H 0.43482 0.03803 0.91824 0.0
H1594 H 0.48546 0.04482 0.91637 0.0
H1595 H 0.50035 0.01238 0.10252 0.0
H1596 H 0.51864 0.98048 0.11988 0.0
H1597 H 0.48121 0.98062 0.11301 0.0
H1598 H 0.48613 0.94061 0.04873 0.0
H1599 H 0.5236 0.94058 0.05495 0.0
H1600 H 0.50824 0.9452 0.99381 0.0
H1601 H 0.53672 0.04323 0.92258 0.0
H1602 H 0.58613 0.03821 0.94456 0.0
H1603 H 0.56416 0.97884 0.06374 0.0
C1604 C 0.45285 0.99127 0.0122 0.0
C1605 C 0.43535 0.00631 0.97828 0.0
C1606 C 0.44752 0.0261 0.94455 0.0
C1607 C 0.47639 0.03009 0.94299 0.0
C1608 C 0.49303 0.01443 0.97573 0.0
C1609 C 0.48182 0.99581 0.01043 0.0
C1610 C 0.50476 0.98206 0.04173 0.0
C1611 C 0.50101 0.98933 0.0976 0.0
C1612 C 0.50573 0.95022 0.03435 0.0
C1613 C 0.53049 0.99581 0.01879 0.0
C1614 C 0.52307 0.01415 0.98045 0.0
C1615 C 0.54284 0.02913 0.95284 0.0
C1616 C 0.57097 0.02598 0.96561 0.0
C1617 C 0.57927 0.00819 0.00614 0.0
C1618 C 0.55864 0.99257 0.03255 0.0
H1619 H 0.50206 0.44396 0.02559 0.0
H1620 H 0.44091 0.43973 0.90671 0.0
H1621 H 0.43906 0.49103 0.9011 0.0
H1622 H 0.47121 0.50612 0.08571 0.0
H1623 H 0.50468 0.52022 0.10096 0.0
H1624 H 0.50065 0.48293 0.09705 0.0
H1625 H 0.54133 0.48068 0.03175 0.0
H1626 H 0.54522 0.51803 0.03489 0.0
H1627 H 0.53945 0.50188 0.9752 0.0
H1628 H 0.44539 0.54236 0.90421 0.0
H1629 H 0.45509 0.5913 0.92316 0.0
H1630 H 0.51131 0.56367 0.04171 0.0
C1631 C 0.48792 0.45379 0.99896 0.0
C1632 C 0.47168 0.43755 0.96652 0.0
C1633 C 0.45363 0.45145 0.932 0.0
C1634 C 0.45248 0.48069 0.9283 0.0
C1635 C 0.46933 0.49597 0.9596 0.0
C1636 C 0.48636 0.48314 0.99489 0.0
C1637 C 0.50217 0.50477 0.02404 0.0
C1638 C 0.49419 0.50343 0.08028 0.0
C1639 C 0.53393 0.50111 0.01597 0.0
C1640 C 0.49137 0.53167 0.99939 0.0
C1641 C 0.47265 0.52596 0.96203 0.0
C1642 C 0.45988 0.54713 0.93361 0.0
C1643 C 0.46569 0.57497 0.9446 0.0
C1644 C 0.48397 0.58161 0.98407 0.0
C1645 C 0.49734 0.55947 0.01116 0.0
H1646 H 0.95207 0.52629 0.05503 0.0
H1647 H 0.92867 0.4677 0.94022 0.0
H1648 H 0.97837 0.45789 0.92169 0.0
H1649 H 0.01264 0.5539 0.98636 0.0
H1650 H 0.03302 0.55739 0.04231 0.0
H1651 H 0.99544 0.56029 0.04601 0.0
H1652 H 0.99478 0.52102 0.11425 0.0
H1653 H 0.03234 0.51774 0.11021 0.0
H1654 H 0.01103 0.48759 0.10089 0.0
H1655 H 0.03052 0.45268 0.91749 0.0
H1656 H 0.08172 0.45626 0.92159 0.0
H1657 H 0.07206 0.51893 0.03758 0.0
C1658 C 0.95734 0.51163 0.02557 0.0
C1659 C 0.93618 0.49778 0.99923 0.0
C1660 C 0.94423 0.4787 0.96105 0.0
C1661 C 0.97251 0.47283 0.95032 0.0
C1662 C 0.99272 0.48632 0.9777 0.0
C1663 C 0.98558 0.50565 0.01401 0.0
C1664 C 0.01157 0.51743 0.0374 0.0
C1665 C 0.01326 0.54913 0.02741 0.0
C1666 C 0.01247 0.51053 0.09405 0.0
C1667 C 0.03437 0.50158 0.0087 0.0
C1668 C 0.02297 0.48361 0.97472 0.0
C1669 C 0.0397 0.46678 0.94381 0.0
C1670 C 0.06886 0.46889 0.94661 0.0
C1671 C 0.08119 0.48787 0.9799 0.0
C1672 C 0.06351 0.50405 0.0119 0.0
H1673 H 0.97627 0.06573 0.04349 0.0
H1674 H 0.04688 0.07519 0.94003 0.0
H1675 H 0.05249 0.02409 0.93666 0.0
H1676 H 0.00516 0.00463 0.11212 0.0
H1677 H 0.97159 0.98841 0.1196 0.0
H1678 H 0.97376 0.02597 0.11588 0.0
H1679 H 0.93932 0.02677 0.04161 0.0
H1680 H 0.93738 0.98918 0.04455 0.0
H1681 H 0.94748 0.00649 0.98654 0.0
H1682 H 0.0489 0.97243 0.93932 0.0
H1683 H 0.04019 0.92272 0.95617 0.0
H1684 H 0.97264 0.94542 0.0599 0.0
C1685 C 0.99325 0.05711 0.02086 0.0
C1686 C 0.01108 0.07472 0.99195 0.0
C1687 C 0.03287 0.06238 0.96253 0.0
C1688 C 0.0362 0.03328 0.96015 0.0
C1689 C 0.01776 0.01661 0.98767 0.0
C1690 C 0.99701 0.02796 0.01819 0.0
C1691 C 0.98005 0.00505 0.04376 0.0
C1692 C 0.98281 0.00608 0.10125 0.0
C1693 C 0.94923 0.007 0.02817 0.0
C1694 C 0.99446 0.97914 0.02251 0.0
C1695 C 0.01599 0.98643 0.98994 0.0
C1696 C 0.03225 0.96642 0.96507 0.0
C1697 C 0.02698 0.93813 0.9748 0.0
C1698 C 0.00573 0.92989 0.00954 0.0
C1699 C 0.98898 0.95085 0.03304 0.0
H1700 H 0.07074 0.97482 0.54363 0.0
H1701 H 0.08074 0.03671 0.42348 0.0
H1702 H 0.02972 0.04298 0.41989 0.0
H1703 H 0.01111 0.94275 0.4952 0.0
H1704 H 0.99387 0.93725 0.55521 0.0
H1705 H 0.03147 0.93856 0.55142 0.0
H1706 H 0.03135 0.97833 0.61645 0.0
H1707 H 0.99378 0.97683 0.62113 0.0
H1708 H 0.01035 0.00944 0.60538 0.0
H1709 H 0.97788 0.04057 0.42474 0.0
H1710 H 0.92809 0.03369 0.44468 0.0
H1711 H 0.95085 0.97369 0.5623 0.0
C1712 C 0.06227 0.99011 0.51726 0.0
C1713 C 0.07995 0.00522 0.48382 0.0
C1714 C 0.06782 0.02482 0.44955 0.0
C1715 C 0.03878 0.02849 0.44701 0.0
C1716 C 0.02199 0.01256 0.47913 0.0
C1717 C 0.0332 0.9941 0.51421 0.0
C1718 C 0.01025 0.97939 0.54387 0.0
C1719 C 0.01178 0.94761 0.53593 0.0
C1720 C 0.01151 0.98643 0.60004 0.0
C1721 C 0.98448 0.9924 0.51966 0.0
C1722 C 0.99182 0.01134 0.48224 0.0
C1723 C 0.97183 0.02593 0.45421 0.0
C1724 C 0.94353 0.02172 0.46571 0.0
C1725 C 0.93535 0.00316 0.50517 0.0
C1726 C 0.95626 0.98796 0.53182 0.0
H1727 H 0.48368 0.94406 0.44476 0.0
H1728 H 0.55217 0.93532 0.54979 0.0
H1729 H 0.5544 0.98649 0.55526 0.0
H1730 H 0.51043 0.00738 0.37964 0.0
H1731 H 0.47589 0.02235 0.37177 0.0
H1732 H 0.48084 0.9849 0.37345 0.0
H1733 H 0.44438 0.98143 0.44617 0.0
H1734 H 0.43969 0.01889 0.44545 0.0
H1735 H 0.44943 1.00086 0.50278 0.0
H1736 H 0.54677 0.03825 0.55563 0.0
H1737 H 0.53417 0.08783 0.54183 0.0
H1738 H 0.47152 0.06399 0.43449 0.0
C1739 C 0.49958 0.95285 0.46806 0.0
C1740 C 0.51769 0.9354 0.49696 0.0
C1741 C 0.53799 0.948 0.52727 0.0
C1742 C 0.53938 0.97715 0.53084 0.0
C1743 C 0.52055 0.99363 0.50349 0.0
C1744 C 0.50141 0.98204 0.47185 0.0
C1745 C 0.48346 0.00469 0.44696 0.0
C1746 C 0.48793 0.00484 0.38955 0.0
C1747 C 0.4524 1.00125 0.46121 0.0
C1748 C 0.49527 0.0307 0.47019 0.0
C1749 C 0.51653 0.02375 0.5029 0.0
C1750 C 0.53035 0.04399 0.52968 0.0
C1751 C 0.52287 0.07218 0.52175 0.0
C1752 C 0.50186 0.08008 0.48692 0.0
C1753 C 0.48764 0.05884 0.46142 0.0
H1754 H 0.56258 0.51766 0.54611 0.0
H1755 H 0.58775 0.45781 0.43187 0.0
H1756 H 0.53836 0.45043 0.41247 0.0
H1757 H 0.50301 0.48182 0.59156 0.0
H1758 H 0.48148 0.5127 0.60072 0.0
H1759 H 0.51897 0.51476 0.60455 0.0
H1760 H 0.51929 0.55382 0.53595 0.0
H1761 H 0.48175 0.55217 0.53244 0.0
H1762 H 0.503 0.54783 0.47644 0.0
H1763 H 0.4864 0.44681 0.40895 0.0
H1764 H 0.43516 0.4515 0.41416 0.0
H1765 H 0.44273 0.51465 0.52883 0.0
C1766 C 0.55778 0.50336 0.51639 0.0
C1767 C 0.57933 0.48832 0.49066 0.0
C1768 C 0.57188 0.46969 0.45222 0.0
C1769 C 0.54378 0.4652 0.441 0.0
C1770 C 0.52316 0.47966 0.46809 0.0
C1771 C 0.52973 0.49875 0.50435 0.0
C1772 C 0.50335 0.51148 0.5278 0.0
C1773 C 0.50161 0.50478 0.58452 0.0
C1774 C 0.50176 0.54321 0.51753 0.0
C1775 C 0.481 0.49632 0.49936 0.0
C1776 C 0.49297 0.47794 0.46537 0.0
C1777 C 0.47678 0.46132 0.43513 0.0
C1778 C 0.44757 0.46407 0.43859 0.0
C1779 C 0.43463 0.4835 0.47183 0.0
C1780 C 0.45177 0.49951 0.50314 0.0
H1781 H 0.97481 0.55899 0.5694 0.0
H1782 H 0.02892 0.5811 0.4424 0.0
H1783 H 0.03378 0.53169 0.42086 0.0
H1784 H 0.01056 0.49613 0.60496 0.0
H1785 H 0.97965 0.47641 0.61978 0.0
H1786 H 0.97895 0.51392 0.62549 0.0
H1787 H 0.93682 0.51763 0.5656 0.0
H1788 H 0.93716 0.4801 0.56021 0.0
H1789 H 0.9394 0.50192 0.50445 0.0
H1790 H 0.03652 0.48056 0.41598 0.0
H1791 H 0.0313 0.42977 0.41991 0.0
H1792 H 0.97324 0.43845 0.54652 0.0
C1793 C 0.98728 0.55348 0.53656 0.0
C1794 C 0.00158 0.57423 0.5079 0.0
C1795 C 0.01776 0.56591 0.4653 0.0
C1796 C 0.0208 0.53775 0.4527 0.0
C1797 C 0.00727 0.51789 0.48247 0.0
C1798 C 0.99032 0.52523 0.52285 0.0
C1799 C 0.978 0.49925 0.54785 0.0
C1800 C 0.98735 0.49626 0.60278 0.0
C1801 C 0.94594 0.49976 0.5443 0.0
C1802 C 0.99103 0.47634 0.51544 0.0
C1803 C 0.00803 0.48779 0.47838 0.0
C1804 C 0.02298 0.4713 0.44439 0.0
C1805 C 0.0199 0.44231 0.44717 0.0
C1806 C 0.00168 0.42981 0.48332 0.0
C1807 C 0.98735 0.4472 0.51845 0.0
loop_
_geom_bond_atom_site_label_1
_geom_bond_atom_site_label_2
_geom_bond_distance
_geom_bond_site_symmetry_2
_ccdc_geom_bond_type
Co0 O2 2.143 . S
Co0 O8 2.074 . S
Co0 O11 2.093 . S
Co0 O24 2.097 1_565 S
Co0 N41 2.151 . S
Co0 N49 2.214 . S
Co1 O2 2.160 1_545 S
Co1 O7 2.058 1_545 S
Co1 O17 2.057 . S
Co1 O32 2.037 . S
Co1 N36 2.145 . S
Co1 N57 2.257 . S
O2 Co0 2.143 . S
O2 Co1 2.160 1_565 S
C3 O4 1.278 1_565 S
C3 O11 1.224 . S
O4 C3 1.278 1_545 S
C5 O6 1.235 1_546 S
C5 O17 1.238 1_556 S
O6 C5 1.235 1_564 S
O7 Co1 2.058 1_565 S
O7 C33 1.269 . S
O8 Co0 2.074 . S
O8 C33 1.257 . S
H9 C34 0.930 . S
H10 C40 0.930 . S
O11 Co0 2.093 . S
O11 C3 1.224 . S
H12 C44 0.929 . S
H13 C46 0.930 . S
H14 C47 0.930 . S
H15 C45 0.929 . S
H16 C48 0.928 . S
O17 Co1 2.057 . S
O17 C5 1.238 1_554 S
H18 C37 0.929 . S
H19 C38 0.929 . S
H20 C50 0.931 . S
H21 C42 0.929 . S
H22 C51 0.930 . S
H23 C43 0.931 . S
O24 Co0 2.097 1_545 S
O24 C52 1.214 . S
H25 C53 0.929 . S
H26 C54 0.929 . S
H27 C55 0.930 . S
H28 C56 0.929 . S
H29 C58 0.930 . S
H30 C35 0.930 . S
H31 C39 0.930 . S
O32 Co1 2.037 . S
O32 C52 1.234 . S
C33 O7 1.269 . S
C33 O8 1.257 . S
C34 H9 0.930 . S
C34 C37 1.388 1_556 S
C34 C39 1.418 . S
C35 H30 0.930 . S
C35 C38 1.404 . S
C35 C39 1.353 . S
N36 Co1 2.145 . S
N36 C37 1.397 . S
N36 C38 1.334 1_554 S
C37 H18 0.929 . S
C37 C34 1.388 1_554 S
C37 N36 1.397 . S
C38 H19 0.929 . S
C38 C35 1.404 . S
C38 N36 1.334 1_556 S
C39 H31 0.930 . S
C39 C34 1.418 . S
C39 C35 1.353 . S
C40 H10 0.930 . S
C40 N41 1.330 . S
C40 C42 1.446 . S
N41 Co0 2.151 . S
N41 C40 1.330 . S
N41 C45 1.418 . S
C42 H21 0.929 . S
C42 C40 1.446 . S
C42 C43 1.332 . S
C43 H23 0.931 . S
C43 C42 1.332 . S
C43 C44 1.267 . S
C44 H12 0.929 . S
C44 C43 1.267 . S
C44 C45 1.251 . S
C45 H15 0.929 . S
C45 N41 1.418 . S
C45 C44 1.251 . S
C46 H13 0.930 . S
C46 C48 1.406 . S
C46 C51 1.261 . S
C47 H14 0.930 . S
C47 N49 1.325 . S
C47 C50 1.357 . S
C48 H16 0.928 . S
C48 C46 1.406 . S
C48 N49 1.261 . S
N49 Co0 2.214 . S
N49 C47 1.325 . S
N49 C48 1.261 . S
C50 H20 0.931 . S
C50 C47 1.357 . S
C50 C51 1.312 . S
C51 H22 0.930 . S
C51 C46 1.261 . S
C51 C50 1.312 . S
C52 O24 1.214 . S
C52 O32 1.234 . S
C53 H25 0.929 . S
C53 C56 1.391 . S
C53 C58 1.391 . S
C54 H26 0.929 . S
C54 C55 1.390 . S
C54 N57 1.391 . S
C55 H27 0.930 . S
C55 C54 1.390 . S
C55 C56 1.392 . S
C56 H28 0.929 . S
C56 C53 1.391 . S
C56 C55 1.392 . S
N57 Co1 2.257 . S
N57 C54 1.391 . S
N57 C58 1.388 . S
C58 H29 0.930 . S
C58 C53 1.391 . S
C58 N57 1.388 . S
Co59 O61 2.143 . S
Co59 O67 2.074 . S
Co59 O70 2.093 . S
Co59 O83 2.097 . S
Co59 N100 2.151 . S
Co59 N108 2.214 . S
Co60 O61 2.160 . S
Co60 O66 2.058 . S
Co60 O76 2.057 . S
Co60 O91 2.037 . S
Co60 N95 2.145 . S
Co60 N116 2.257 . S
O61 Co59 2.143 . S
O61 Co60 2.160 . S
C62 O63 1.278 . S
C62 O70 1.224 . S
O63 C62 1.278 . S
C64 O65 1.245 . S
C64 O76 1.232 . S
O65 C64 1.245 . S
O66 Co60 2.058 . S
O66 C92 1.269 . S
O67 Co59 2.074 . S
O67 C92 1.257 . S
H68 C93 0.930 . S
H69 C99 0.930 . S
O70 Co59 2.093 . S
O70 C62 1.224 . S
H71 C103 0.929 . S
H72 C105 0.930 . S
H73 C106 0.930 . S
H74 C104 0.929 . S
H75 C107 0.928 . S
O76 Co60 2.057 . S
O76 C64 1.232 . S
H77 C96 0.929 . S
H78 C97 0.929 . S
H79 C109 0.931 . S
H80 C101 0.929 . S
H81 C110 0.930 . S
H82 C102 0.931 . S
O83 Co59 2.097 . S
O83 C111 1.214 . S
H84 C112 0.929 . S
H85 C113 0.929 . S
H86 C114 0.930 . S
H87 C115 0.929 . S
H88 C117 0.930 . S
H89 C94 0.930 . S
H90 C98 0.930 . S
O91 Co60 2.037 . S
O91 C111 1.234 . S
C92 O66 1.269 . S
C92 O67 1.257 . S
C93 H68 0.930 . S
C93 C96 1.388 . S
C93 C98 1.418 1_554 S
C94 H89 0.930 . S
C94 C97 1.404 . S
C94 C98 1.353 . S
N95 Co60 2.145 . S
N95 C96 1.397 . S
N95 C97 1.334 1_554 S
C96 H77 0.929 . S
C96 C93 1.388 . S
C96 N95 1.397 . S
C97 H78 0.929 . S
C97 C94 1.404 . S
C97 N95 1.334 1_556 S
C98 H90 0.930 . S
C98 C93 1.418 1_556 S
C98 C94 1.353 . S
C99 H69 0.930 . S
C99 N100 1.330 . S
C99 C101 1.446 . S
N100 Co59 2.151 . S
N100 C99 1.330 . S
N100 C104 1.418 . S
C101 H80 0.929 . S
C101 C99 1.446 . S
C101 C102 1.332 . S
C102 H82 0.931 . S
C102 C101 1.332 . S
C102 C103 1.267 . S
C103 H71 0.929 . S
C103 C102 1.267 . S
C103 C104 1.251 . S
C104 H74 0.929 . S
C104 N100 1.418 . S
C104 C103 1.251 . S
C105 H72 0.930 . S
C105 C107 1.406 . S
C105 C110 1.261 . S
C106 H73 0.930 . S
C106 N108 1.325 . S
C106 C109 1.357 . S
C107 H75 0.928 . S
C107 C105 1.406 . S
C107 N108 1.261 . S
N108 Co59 2.214 . S
N108 C106 1.325 . S
N108 C107 1.261 . S
C109 H79 0.931 . S
C109 C106 1.357 . S
C109 C110 1.312 . S
C110 H81 0.930 . S
C110 C105 1.261 . S
C110 C109 1.312 . S
C111 O83 1.214 . S
C111 O91 1.234 . S
C112 H84 0.929 . S
C112 C115 1.391 . S
C112 C117 1.391 . S
C113 H85 0.929 . S
C113 C114 1.390 . S
C113 N116 1.391 . S
C114 H86 0.930 . S
C114 C113 1.390 . S
C114 C115 1.392 . S
C115 H87 0.929 . S
C115 C112 1.391 . S
C115 C114 1.392 . S
N116 Co60 2.257 . S
N116 C113 1.391 . S
N116 C117 1.388 . S
C117 H88 0.930 . S
C117 C112 1.391 . S
C117 N116 1.388 . S
Co118 O120 2.143 . S
Co118 O126 2.074 . S
Co118 O129 2.093 . S
Co118 O142 2.097 . S
Co118 N159 2.151 . S
Co118 N167 2.214 . S
Co119 O120 2.160 . S
Co119 O125 2.058 . S
Co119 O135 2.057 . S
Co119 O150 2.037 . S
Co119 N154 2.145 . S
Co119 N175 2.257 . S
O120 Co118 2.143 . S
O120 Co119 2.160 . S
C121 O122 1.278 . S
C121 O129 1.224 . S
O122 C121 1.278 . S
C123 O124 1.245 . S
C123 O135 1.232 . S
O124 C123 1.245 . S
O125 Co119 2.058 . S
O125 C151 1.269 . S
O126 Co118 2.074 . S
O126 C151 1.257 . S
H127 C152 0.930 . S
H128 C158 0.930 . S
O129 Co118 2.093 . S
O129 C121 1.224 . S
H130 C162 0.929 . S
H131 C164 0.930 . S
H132 C165 0.930 . S
H133 C163 0.929 . S
H134 C166 0.928 . S
O135 Co119 2.057 . S
O135 C123 1.232 . S
H136 C155 0.929 . S
H137 C156 0.929 . S
H138 C168 0.931 . S
H139 C160 0.929 . S
H140 C169 0.930 . S
H141 C161 0.931 . S
O142 Co118 2.097 . S
O142 C170 1.214 . S
H143 C171 0.929 . S
H144 C172 0.929 . S
H145 C173 0.930 . S
H146 C174 0.929 . S
H147 C176 0.930 . S
H148 C153 0.930 . S
H149 C157 0.930 . S
O150 Co119 2.037 . S
O150 C170 1.234 . S
C151 O125 1.269 . S
C151 O126 1.257 . S
C152 H127 0.930 . S
C152 C155 1.388 . S
C152 C157 1.418 1_554 S
C153 H148 0.930 . S
C153 C156 1.404 . S
C153 C157 1.353 . S
N154 Co119 2.145 . S
N154 C155 1.397 . S
N154 C156 1.334 1_554 S
C155 H136 0.929 . S
C155 C152 1.388 . S
C155 N154 1.397 . S
C156 H137 0.929 . S
C156 C153 1.404 . S
C156 N154 1.334 1_556 S
C157 H149 0.930 . S
C157 C152 1.418 1_556 S
C157 C153 1.353 . S
C158 H128 0.930 . S
C158 N159 1.330 . S
C158 C160 1.446 . S
N159 Co118 2.151 . S
N159 C158 1.330 . S
N159 C163 1.418 . S
C160 H139 0.929 . S
C160 C158 1.446 . S
C160 C161 1.332 . S
C161 H141 0.931 . S
C161 C160 1.332 . S
C161 C162 1.267 . S
C162 H130 0.929 . S
C162 C161 1.267 . S
C162 C163 1.251 . S
C163 H133 0.929 . S
C163 N159 1.418 . S
C163 C162 1.251 . S
C164 H131 0.930 . S
C164 C166 1.406 . S
C164 C169 1.261 . S
C165 H132 0.930 . S
C165 N167 1.325 . S
C165 C168 1.357 . S
C166 H134 0.928 . S
C166 C164 1.406 . S
C166 N167 1.261 . S
N167 Co118 2.214 . S
N167 C165 1.325 . S
N167 C166 1.261 . S
C168 H138 0.931 . S
C168 C165 1.357 . S
C168 C169 1.312 . S
C169 H140 0.930 . S
C169 C164 1.261 . S
C169 C168 1.312 . S
C170 O142 1.214 . S
C170 O150 1.234 . S
C171 H143 0.929 . S
C171 C174 1.391 . S
C171 C176 1.391 . S
C172 H144 0.929 . S
C172 C173 1.390 . S
C172 N175 1.391 . S
C173 H145 0.930 . S
C173 C172 1.390 . S
C173 C174 1.392 . S
C174 H146 0.929 . S
C174 C171 1.391 . S
C174 C173 1.392 . S
N175 Co119 2.257 . S
N175 C172 1.391 . S
N175 C176 1.388 . S
C176 H147 0.930 . S
C176 C171 1.391 . S
C176 N175 1.388 . S
Co177 O179 2.143 . S
Co177 O185 2.074 . S
Co177 O188 2.093 . S
Co177 O201 2.097 1_655 S
Co177 N218 2.151 . S
Co177 N226 2.214 . S
Co178 O179 2.160 1_455 S
Co178 O184 2.051 1_455 S
Co178 O194 2.057 . S
Co178 O209 2.037 . S
Co178 N213 2.145 . S
Co178 N234 2.257 . S
O179 Co177 2.143 . S
O179 Co178 2.160 1_655 S
C180 O181 1.255 1_655 S
C180 O188 1.224 . S
O181 C180 1.255 1_455 S
C182 O183 1.245 1_556 S
C182 O194 1.232 1_656 S
O183 C182 1.245 1_554 S
O184 Co178 2.051 1_655 S
O184 C210 1.276 . S
O185 Co177 2.074 . S
O185 C210 1.257 . S
H186 C211 0.930 . S
H187 C217 0.930 . S
O188 Co177 2.093 . S
O188 C180 1.224 . S
H189 C221 0.929 . S
H190 C223 0.930 . S
H191 C224 0.930 . S
H192 C222 0.929 . S
H193 C225 0.928 . S
O194 Co178 2.057 . S
O194 C182 1.232 1_454 S
H195 C214 0.929 . S
H196 C215 0.929 . S
H197 C227 0.931 . S
H198 C219 0.929 . S
H199 C228 0.930 . S
H200 C220 0.931 . S
O201 Co177 2.097 1_455 S
O201 C229 1.214 . S
H202 C230 0.929 . S
H203 C231 0.929 . S
H204 C232 0.930 . S
H205 C233 0.929 . S
H206 C235 0.930 . S
H207 C212 0.930 . S
H208 C216 0.930 . S
O209 Co178 2.037 . S
O209 C229 1.234 . S
C210 O184 1.276 . S
C210 O185 1.257 . S
C211 H186 0.930 . S
C211 C214 1.388 1_556 S
C211 C216 1.418 . S
C212 H207 0.930 . S
C212 C215 1.404 . S
C212 C216 1.353 . S
N213 Co178 2.145 . S
N213 C214 1.397 . S
N213 C215 1.334 1_554 S
C214 H195 0.929 . S
C214 C211 1.388 1_554 S
C214 N213 1.397 . S
C215 H196 0.929 . S
C215 C212 1.404 . S
C215 N213 1.334 1_556 S
C216 H208 0.930 . S
C216 C211 1.418 . S
C216 C212 1.353 . S
C217 H187 0.930 . S
C217 N218 1.330 . S
C217 C219 1.446 . S
N218 Co177 2.151 . S
N218 C217 1.330 . S
N218 C222 1.418 . S
C219 H198 0.929 . S
C219 C217 1.446 . S
C219 C220 1.332 . S
C220 H200 0.931 . S
C220 C219 1.332 . S
C220 C221 1.267 . S
C221 H189 0.929 . S
C221 C220 1.267 . S
C221 C222 1.251 . S
C222 H192 0.929 . S
C222 N218 1.418 . S
C222 C221 1.251 . S
C223 H190 0.930 . S
C223 C225 1.406 . S
C223 C228 1.261 . S
C224 H191 0.930 . S
C224 N226 1.325 . S
C224 C227 1.357 . S
C225 H193 0.928 . S
C225 C223 1.406 . S
C225 N226 1.261 . S
N226 Co177 2.214 . S
N226 C224 1.325 . S
N226 C225 1.261 . S
C227 H197 0.931 . S
C227 C224 1.357 . S
C227 C228 1.312 . S
C228 H199 0.930 . S
C228 C223 1.261 . S
C228 C227 1.312 . S
C229 O201 1.214 . S
C229 O209 1.234 . S
C230 H202 0.929 . S
C230 C233 1.391 . S
C230 C235 1.391 . S
C231 H203 0.929 . S
C231 C232 1.390 . S
C231 N234 1.391 . S
C232 H204 0.930 . S
C232 C231 1.390 . S
C232 C233 1.392 . S
C233 H205 0.929 . S
C233 C230 1.391 . S
C233 C232 1.392 . S
N234 Co178 2.257 . S
N234 C231 1.391 . S
N234 C235 1.388 . S
C235 H206 0.930 . S
C235 C230 1.391 . S
C235 N234 1.388 . S
Co236 O238 2.143 . S
Co236 O244 2.074 . S
Co236 O247 2.093 . S
Co236 O260 2.097 1_545 S
Co236 N277 2.151 . S
Co236 N285 2.214 . S
Co237 O238 2.160 1_565 S
Co237 O243 2.051 1_565 S
Co237 O253 2.057 . S
Co237 O268 2.037 . S
Co237 N272 2.145 . S
Co237 N293 2.257 . S
O238 Co236 2.143 . S
O238 Co237 2.160 1_545 S
C239 O240 1.255 1_545 S
C239 O247 1.224 . S
O240 C239 1.255 1_565 S
C241 O242 1.245 . S
C241 O253 1.232 1_545 S
O242 C241 1.245 . S
O243 Co237 2.051 1_545 S
O243 C269 1.276 . S
O244 Co236 2.074 . S
O244 C269 1.257 . S
H245 C270 0.930 . S
H246 C276 0.930 . S
O247 Co236 2.093 . S
O247 C239 1.224 . S
H248 C280 0.929 . S
H249 C282 0.930 . S
H250 C283 0.930 . S
H251 C281 0.929 . S
H252 C284 0.928 . S
O253 Co237 2.057 . S
O253 C241 1.232 1_565 S
H254 C273 0.929 . S
H255 C274 0.929 . S
H256 C286 0.931 . S
H257 C278 0.929 . S
H258 C287 0.930 . S
H259 C279 0.931 . S
O260 Co236 2.097 1_565 S
O260 C288 1.214 . S
H261 C289 0.929 . S
H262 C290 0.929 . S
H263 C291 0.930 . S
H264 C292 0.929 . S
H265 C294 0.930 . S
H266 C271 0.930 . S
H267 C275 0.930 . S
O268 Co237 2.037 . S
O268 C288 1.234 . S
C269 O243 1.276 . S
C269 O244 1.257 . S
C270 H245 0.930 . S
C270 C273 1.388 . S
C270 C275 1.418 . S
C271 H266 0.930 . S
C271 C274 1.404 . S
C271 C275 1.353 . S
N272 Co237 2.145 . S
N272 C273 1.397 . S
N272 C274 1.334 . S
C273 H254 0.929 . S
C273 C270 1.388 . S
C273 N272 1.397 . S
C274 H255 0.929 . S
C274 C271 1.404 . S
C274 N272 1.334 . S
C275 H267 0.930 . S
C275 C270 1.418 . S
C275 C271 1.353 . S
C276 H246 0.930 . S
C276 N277 1.330 . S
C276 C278 1.446 . S
N277 Co236 2.151 . S
N277 C276 1.330 . S
N277 C281 1.418 . S
C278 H257 0.929 . S
C278 C276 1.446 . S
C278 C279 1.332 . S
C279 H259 0.931 . S
C279 C278 1.332 . S
C279 C280 1.267 . S
C280 H248 0.929 . S
C280 C279 1.267 . S
C280 C281 1.251 . S
C281 H251 0.929 . S
C281 N277 1.418 . S
C281 C280 1.251 . S
C282 H249 0.930 . S
C282 C284 1.406 . S
C282 C287 1.261 . S
C283 H250 0.930 . S
C283 N285 1.325 . S
C283 C286 1.357 . S
C284 H252 0.928 . S
C284 C282 1.406 . S
C284 N285 1.261 . S
N285 Co236 2.214 . S
N285 C283 1.325 . S
N285 C284 1.261 . S
C286 H256 0.931 . S
C286 C283 1.357 . S
C286 C287 1.312 . S
C287 H258 0.930 . S
C287 C282 1.261 . S
C287 C286 1.312 . S
C288 O260 1.214 . S
C288 O268 1.234 . S
C289 H261 0.929 . S
C289 C292 1.391 . S
C289 C294 1.391 . S
C290 H262 0.929 . S
C290 C291 1.390 . S
C290 N293 1.391 . S
C291 H263 0.930 . S
C291 C290 1.390 . S
C291 C292 1.392 . S
C292 H264 0.929 . S
C292 C289 1.391 . S
C292 C291 1.392 . S
N293 Co237 2.257 . S
N293 C290 1.391 . S
N293 C294 1.388 . S
C294 H265 0.930 . S
C294 C289 1.391 . S
C294 N293 1.388 . S
Co295 O297 2.143 . S
Co295 O303 2.074 . S
Co295 O306 2.093 . S
Co295 O319 2.097 . S
Co295 N336 2.151 . S
Co295 N344 2.214 . S
Co296 O297 2.160 . S
Co296 O302 2.058 . S
Co296 O312 2.057 . S
Co296 O327 2.037 . S
Co296 N331 2.145 . S
Co296 N352 2.257 . S
O297 Co295 2.143 . S
O297 Co296 2.160 . S
C298 O299 1.278 . S
C298 O306 1.224 . S
O299 C298 1.278 . S
C300 O301 1.245 . S
C300 O312 1.232 . S
O301 C300 1.245 . S
O302 Co296 2.058 . S
O302 C328 1.269 . S
O303 Co295 2.074 . S
O303 C328 1.257 . S
H304 C329 0.930 . S
H305 C335 0.930 . S
O306 Co295 2.093 . S
O306 C298 1.224 . S
H307 C339 0.929 . S
H308 C341 0.930 . S
H309 C342 0.930 . S
H310 C340 0.929 . S
H311 C343 0.928 . S
O312 Co296 2.057 . S
O312 C300 1.232 . S
H313 C332 0.929 . S
H314 C333 0.929 . S
H315 C345 0.931 . S
H316 C337 0.929 . S
H317 C346 0.930 . S
H318 C338 0.931 . S
O319 Co295 2.097 . S
O319 C347 1.214 . S
H320 C348 0.929 . S
H321 C349 0.929 . S
H322 C350 0.930 . S
H323 C351 0.929 . S
H324 C353 0.930 . S
H325 C330 0.930 . S
H326 C334 0.930 . S
O327 Co296 2.037 . S
O327 C347 1.234 . S
C328 O302 1.269 . S
C328 O303 1.257 . S
C329 H304 0.930 . S
C329 C332 1.388 . S
C329 C334 1.418 . S
C330 H325 0.930 . S
C330 C333 1.404 . S
C330 C334 1.353 . S
N331 Co296 2.145 . S
N331 C332 1.397 . S
N331 C333 1.334 . S
C332 H313 0.929 . S
C332 C329 1.388 . S
C332 N331 1.397 . S
C333 H314 0.929 . S
C333 C330 1.404 . S
C333 N331 1.334 . S
C334 H326 0.930 . S
C334 C329 1.418 . S
C334 C330 1.353 . S
C335 H305 0.930 . S
C335 N336 1.330 . S
C335 C337 1.446 . S
N336 Co295 2.151 . S
N336 C335 1.330 . S
N336 C340 1.418 . S
C337 H316 0.929 . S
C337 C335 1.446 . S
C337 C338 1.332 . S
C338 H318 0.931 . S
C338 C337 1.332 . S
C338 C339 1.267 . S
C339 H307 0.929 . S
C339 C338 1.267 . S
C339 C340 1.251 . S
C340 H310 0.929 . S
C340 N336 1.418 . S
C340 C339 1.251 . S
C341 H308 0.930 . S
C341 C343 1.406 . S
C341 C346 1.261 . S
C342 H309 0.930 . S
C342 N344 1.325 . S
C342 C345 1.357 . S
C343 H311 0.928 . S
C343 C341 1.406 . S
C343 N344 1.261 . S
N344 Co295 2.214 . S
N344 C342 1.325 . S
N344 C343 1.261 . S
C345 H315 0.931 . S
C345 C342 1.357 . S
C345 C346 1.312 . S
C346 H317 0.930 . S
C346 C341 1.261 . S
C346 C345 1.312 . S
C347 O319 1.214 . S
C347 O327 1.234 . S
C348 H320 0.929 . S
C348 C351 1.391 . S
C348 C353 1.391 . S
C349 H321 0.929 . S
C349 C350 1.390 . S
C349 N352 1.391 . S
C350 H322 0.930 . S
C350 C349 1.390 . S
C350 C351 1.392 . S
C351 H323 0.929 . S
C351 C348 1.391 . S
C351 C350 1.392 . S
N352 Co296 2.257 . S
N352 C349 1.391 . S
N352 C353 1.388 . S
C353 H324 0.930 . S
C353 C348 1.391 . S
C353 N352 1.388 . S
Co354 O356 2.143 . S
Co354 O362 2.074 . S
Co354 O365 2.093 . S
Co354 O378 2.097 . S
Co354 N395 2.151 . S
Co354 N403 2.214 . S
Co355 O356 2.160 . S
Co355 O361 2.058 . S
Co355 O371 2.057 . S
Co355 O386 2.037 . S
Co355 N390 2.145 . S
Co355 N411 2.257 . S
O356 Co354 2.143 . S
O356 Co355 2.160 . S
C357 O358 1.278 . S
C357 O365 1.224 . S
O358 C357 1.278 . S
C359 O360 1.245 . S
C359 O371 1.232 . S
O360 C359 1.245 . S
O361 Co355 2.058 . S
O361 C387 1.269 . S
O362 Co354 2.074 . S
O362 C387 1.257 . S
H363 C388 0.930 . S
H364 C394 0.930 . S
O365 Co354 2.093 . S
O365 C357 1.224 . S
H366 C398 0.929 . S
H367 C400 0.930 . S
H368 C401 0.930 . S
H369 C399 0.929 . S
H370 C402 0.928 . S
O371 Co355 2.057 . S
O371 C359 1.232 . S
H372 C391 0.929 . S
H373 C392 0.929 . S
H374 C404 0.931 . S
H375 C396 0.929 . S
H376 C405 0.930 . S
H377 C397 0.931 . S
O378 Co354 2.097 . S
O378 C406 1.214 . S
H379 C407 0.929 . S
H380 C408 0.929 . S
H381 C409 0.930 . S
H382 C410 0.929 . S
H383 C412 0.930 . S
H384 C389 0.930 . S
H385 C393 0.930 . S
O386 Co355 2.037 . S
O386 C406 1.234 . S
C387 O361 1.269 . S
C387 O362 1.257 . S
C388 H363 0.930 . S
C388 C391 1.388 . S
C388 C393 1.418 . S
C389 H384 0.930 . S
C389 C392 1.404 . S
C389 C393 1.353 . S
N390 Co355 2.145 . S
N390 C391 1.397 . S
N390 C392 1.334 . S
C391 H372 0.929 . S
C391 C388 1.388 . S
C391 N390 1.397 . S
C392 H373 0.929 . S
C392 C389 1.404 . S
C392 N390 1.334 . S
C393 H385 0.930 . S
C393 C388 1.418 . S
C393 C389 1.353 . S
C394 H364 0.930 . S
C394 N395 1.330 . S
C394 C396 1.446 . S
N395 Co354 2.151 . S
N395 C394 1.330 . S
N395 C399 1.418 . S
C396 H375 0.929 . S
C396 C394 1.446 . S
C396 C397 1.332 . S
C397 H377 0.931 . S
C397 C396 1.332 . S
C397 C398 1.267 . S
C398 H366 0.929 . S
C398 C397 1.267 . S
C398 C399 1.251 . S
C399 H369 0.929 . S
C399 N395 1.418 . S
C399 C398 1.251 . S
C400 H367 0.930 . S
C400 C402 1.406 . S
C400 C405 1.261 . S
C401 H368 0.930 . S
C401 N403 1.325 . S
C401 C404 1.357 . S
C402 H370 0.928 . S
C402 C400 1.406 . S
C402 N403 1.261 . S
N403 Co354 2.214 . S
N403 C401 1.325 . S
N403 C402 1.261 . S
C404 H374 0.931 . S
C404 C401 1.357 . S
C404 C405 1.312 . S
C405 H376 0.930 . S
C405 C400 1.261 . S
C405 C404 1.312 . S
C406 O378 1.214 . S
C406 O386 1.234 . S
C407 H379 0.929 . S
C407 C410 1.391 . S
C407 C412 1.391 . S
C408 H380 0.929 . S
C408 C409 1.390 . S
C408 N411 1.391 . S
C409 H381 0.930 . S
C409 C408 1.390 . S
C409 C410 1.392 . S
C410 H382 0.929 . S
C410 C407 1.391 . S
C410 C409 1.392 . S
N411 Co355 2.257 . S
N411 C408 1.391 . S
N411 C412 1.388 . S
C412 H383 0.930 . S
C412 C407 1.391 . S
C412 N411 1.388 . S
Co413 O415 2.143 . S
Co413 O421 2.074 . S
Co413 O424 2.093 . S
Co413 O437 2.097 1_455 S
Co413 N454 2.151 . S
Co413 N462 2.214 . S
Co414 O415 2.160 1_655 S
Co414 O420 2.058 1_655 S
Co414 O430 2.057 . S
Co414 O445 2.037 . S
Co414 N449 2.145 . S
Co414 N470 2.257 . S
O415 Co413 2.143 . S
O415 Co414 2.160 1_455 S
C416 O417 1.278 1_455 S
C416 O424 1.224 . S
O417 C416 1.278 1_655 S
C418 O419 1.237 1_655 S
C418 O430 1.239 . S
O419 C418 1.237 1_455 S
O420 Co414 2.058 1_455 S
O420 C446 1.269 . S
O421 Co413 2.074 . S
O421 C446 1.257 . S
H422 C447 0.930 . S
H423 C453 0.930 . S
O424 Co413 2.093 . S
O424 C416 1.224 . S
H425 C457 0.929 . S
H426 C459 0.930 . S
H427 C460 0.930 . S
H428 C458 0.929 . S
H429 C461 0.928 . S
O430 Co414 2.057 . S
O430 C418 1.239 . S
H431 C450 0.929 . S
H432 C451 0.929 . S
H433 C463 0.931 . S
H434 C455 0.929 . S
H435 C464 0.930 . S
H436 C456 0.931 . S
O437 Co413 2.097 1_655 S
O437 C465 1.214 . S
H438 C466 0.929 . S
H439 C467 0.929 . S
H440 C468 0.930 . S
H441 C469 0.929 . S
H442 C471 0.930 . S
H443 C448 0.930 . S
H444 C452 0.930 . S
O445 Co414 2.037 . S
O445 C465 1.234 . S
C446 O420 1.269 . S
C446 O421 1.257 . S
C447 H422 0.930 . S
C447 C450 1.388 . S
C447 C452 1.418 . S
C448 H443 0.930 . S
C448 C451 1.404 . S
C448 C452 1.353 . S
N449 Co414 2.145 . S
N449 C450 1.397 . S
N449 C451 1.334 . S
C450 H431 0.929 . S
C450 C447 1.388 . S
C450 N449 1.397 . S
C451 H432 0.929 . S
C451 C448 1.404 . S
C451 N449 1.334 . S
C452 H444 0.930 . S
C452 C447 1.418 . S
C452 C448 1.353 . S
C453 H423 0.930 . S
C453 N454 1.330 . S
C453 C455 1.446 . S
N454 Co413 2.151 . S
N454 C453 1.330 . S
N454 C458 1.418 . S
C455 H434 0.929 . S
C455 C453 1.446 . S
C455 C456 1.332 . S
C456 H436 0.931 . S
C456 C455 1.332 . S
C456 C457 1.267 . S
C457 H425 0.929 . S
C457 C456 1.267 . S
C457 C458 1.251 . S
C458 H428 0.929 . S
C458 N454 1.418 . S
C458 C457 1.251 . S
C459 H426 0.930 . S
C459 C461 1.406 . S
C459 C464 1.261 . S
C460 H427 0.930 . S
C460 N462 1.325 . S
C460 C463 1.357 . S
C461 H429 0.928 . S
C461 C459 1.406 . S
C461 N462 1.261 . S
N462 Co413 2.214 . S
N462 C460 1.325 . S
N462 C461 1.261 . S
C463 H433 0.931 . S
C463 C460 1.357 . S
C463 C464 1.312 . S
C464 H435 0.930 . S
C464 C459 1.261 . S
C464 C463 1.312 . S
C465 O437 1.214 . S
C465 O445 1.234 . S
C466 H438 0.929 . S
C466 C469 1.391 . S
C466 C471 1.391 . S
C467 H439 0.929 . S
C467 C468 1.390 . S
C467 N470 1.391 . S
C468 H440 0.930 . S
C468 C467 1.390 . S
C468 C469 1.392 . S
C469 H441 0.929 . S
C469 C466 1.391 . S
C469 C468 1.392 . S
N470 Co414 2.257 . S
N470 C467 1.391 . S
N470 C471 1.388 . S
C471 H442 0.930 . S
C471 C466 1.391 . S
C471 N470 1.388 . S
Co472 O474 2.143 . S
Co472 O480 2.074 . S
Co472 O483 2.093 . S
Co472 O496 2.097 1_545 S
Co472 N513 2.151 . S
Co472 N521 2.214 . S
Co473 O474 2.160 1_565 S
Co473 O479 2.058 1_565 S
Co473 O489 2.057 . S
Co473 O504 2.037 . S
Co473 N508 2.145 . S
Co473 N529 2.257 . S
O474 Co472 2.143 . S
O474 Co473 2.160 1_545 S
C475 O476 1.278 1_545 S
C475 O483 1.224 . S
O476 C475 1.278 1_565 S
C477 O478 1.235 1_564 S
C477 O489 1.238 1_554 S
O478 C477 1.235 1_546 S
O479 Co473 2.058 1_545 S
O479 C505 1.269 . S
O480 Co472 2.074 . S
O480 C505 1.257 . S
H481 C506 0.930 . S
H482 C512 0.930 . S
O483 Co472 2.093 . S
O483 C475 1.224 . S
H484 C516 0.929 . S
H485 C518 0.930 . S
H486 C519 0.930 . S
H487 C517 0.929 . S
H488 C520 0.928 . S
O489 Co473 2.057 . S
O489 C477 1.238 1_556 S
H490 C509 0.929 . S
H491 C510 0.929 . S
H492 C522 0.931 . S
H493 C514 0.929 . S
H494 C523 0.930 . S
H495 C515 0.931 . S
O496 Co472 2.097 1_565 S
O496 C524 1.214 . S
H497 C525 0.929 . S
H498 C526 0.929 . S
H499 C527 0.930 . S
H500 C528 0.929 . S
H501 C530 0.930 . S
H502 C507 0.930 . S
H503 C511 0.930 . S
O504 Co473 2.037 . S
O504 C524 1.234 . S
C505 O479 1.269 . S
C505 O480 1.257 . S
C506 H481 0.930 . S
C506 C509 1.388 1_554 S
C506 C511 1.418 . S
C507 H502 0.930 . S
C507 C510 1.404 . S
C507 C511 1.353 . S
N508 Co473 2.145 . S
N508 C509 1.397 . S
N508 C510 1.334 1_556 S
C509 H490 0.929 . S
C509 C506 1.388 1_556 S
C509 N508 1.397 . S
C510 H491 0.929 . S
C510 C507 1.404 . S
C510 N508 1.334 1_554 S
C511 H503 0.930 . S
C511 C506 1.418 . S
C511 C507 1.353 . S
C512 H482 0.930 . S
C512 N513 1.330 . S
C512 C514 1.446 . S
N513 Co472 2.151 . S
N513 C512 1.330 . S
N513 C517 1.418 . S
C514 H493 0.929 . S
C514 C512 1.446 . S
C514 C515 1.332 . S
C515 H495 0.931 . S
C515 C514 1.332 . S
C515 C516 1.267 . S
C516 H484 0.929 . S
C516 C515 1.267 . S
C516 C517 1.251 . S
C517 H487 0.929 . S
C517 N513 1.418 . S
C517 C516 1.251 . S
C518 H485 0.930 . S
C518 C520 1.406 . S
C518 C523 1.261 . S
C519 H486 0.930 . S
C519 N521 1.325 . S
C519 C522 1.357 . S
C520 H488 0.928 . S
C520 C518 1.406 . S
C520 N521 1.261 . S
N521 Co472 2.214 . S
N521 C519 1.325 . S
N521 C520 1.261 . S
C522 H492 0.931 . S
C522 C519 1.357 . S
C522 C523 1.312 . S
C523 H494 0.930 . S
C523 C518 1.261 . S
C523 C522 1.312 . S
C524 O496 1.214 . S
C524 O504 1.234 . S
C525 H497 0.929 . S
C525 C528 1.391 . S
C525 C530 1.391 . S
C526 H498 0.929 . S
C526 C527 1.390 . S
C526 N529 1.391 . S
C527 H499 0.930 . S
C527 C526 1.390 . S
C527 C528 1.392 . S
C528 H500 0.929 . S
C528 C525 1.391 . S
C528 C527 1.392 . S
N529 Co473 2.257 . S
N529 C526 1.391 . S
N529 C530 1.388 . S
C530 H501 0.930 . S
C530 C525 1.391 . S
C530 N529 1.388 . S
Co531 O533 2.143 . S
Co531 O539 2.074 . S
Co531 O542 2.093 . S
Co531 O555 2.097 . S
Co531 N572 2.151 . S
Co531 N580 2.214 . S
Co532 O533 2.160 . S
Co532 O538 2.058 . S
Co532 O548 2.057 . S
Co532 O563 2.037 . S
Co532 N567 2.145 . S
Co532 N588 2.257 . S
O533 Co531 2.143 . S
O533 Co532 2.160 . S
C534 O535 1.278 . S
C534 O542 1.224 . S
O535 C534 1.278 . S
C536 O537 1.245 . S
C536 O548 1.232 . S
O537 C536 1.245 . S
O538 Co532 2.058 . S
O538 C564 1.269 . S
O539 Co531 2.074 . S
O539 C564 1.257 . S
H540 C565 0.930 . S
H541 C571 0.930 . S
O542 Co531 2.093 . S
O542 C534 1.224 . S
H543 C575 0.929 . S
H544 C577 0.930 . S
H545 C578 0.930 . S
H546 C576 0.929 . S
H547 C579 0.928 . S
O548 Co532 2.057 . S
O548 C536 1.232 . S
H549 C568 0.929 . S
H550 C569 0.929 . S
H551 C581 0.931 . S
H552 C573 0.929 . S
H553 C582 0.930 . S
H554 C574 0.931 . S
O555 Co531 2.097 . S
O555 C583 1.214 . S
H556 C584 0.929 . S
H557 C585 0.929 . S
H558 C586 0.930 . S
H559 C587 0.929 . S
H560 C589 0.930 . S
H561 C566 0.930 . S
H562 C570 0.930 . S
O563 Co532 2.037 . S
O563 C583 1.234 . S
C564 O538 1.269 . S
C564 O539 1.257 . S
C565 H540 0.930 . S
C565 C568 1.388 . S
C565 C570 1.418 1_556 S
C566 H561 0.930 . S
C566 C569 1.404 . S
C566 C570 1.353 . S
N567 Co532 2.145 . S
N567 C568 1.397 . S
N567 C569 1.334 1_556 S
C568 H549 0.929 . S
C568 C565 1.388 . S
C568 N567 1.397 . S
C569 H550 0.929 . S
C569 C566 1.404 . S
C569 N567 1.334 1_554 S
C570 H562 0.930 . S
C570 C565 1.418 1_554 S
C570 C566 1.353 . S
C571 H541 0.930 . S
C571 N572 1.330 . S
C571 C573 1.446 . S
N572 Co531 2.151 . S
N572 C571 1.330 . S
N572 C576 1.418 . S
C573 H552 0.929 . S
C573 C571 1.446 . S
C573 C574 1.332 . S
C574 H554 0.931 . S
C574 C573 1.332 . S
C574 C575 1.267 . S
C575 H543 0.929 . S
C575 C574 1.267 . S
C575 C576 1.251 . S
C576 H546 0.929 . S
C576 N572 1.418 . S
C576 C575 1.251 . S
C577 H544 0.930 . S
C577 C579 1.406 . S
C577 C582 1.261 . S
C578 H545 0.930 . S
C578 N580 1.325 . S
C578 C581 1.357 . S
C579 H547 0.928 . S
C579 C577 1.406 . S
C579 N580 1.261 . S
N580 Co531 2.214 . S
N580 C578 1.325 . S
N580 C579 1.261 . S
C581 H551 0.931 . S
C581 C578 1.357 . S
C581 C582 1.312 . S
C582 H553 0.930 . S
C582 C577 1.261 . S
C582 C581 1.312 . S
C583 O555 1.214 . S
C583 O563 1.234 . S
C584 H556 0.929 . S
C584 C587 1.391 . S
C584 C589 1.391 . S
C585 H557 0.929 . S
C585 C586 1.390 . S
C585 N588 1.391 . S
C586 H558 0.930 . S
C586 C585 1.390 . S
C586 C587 1.392 . S
C587 H559 0.929 . S
C587 C584 1.391 . S
C587 C586 1.392 . S
N588 Co532 2.257 . S
N588 C585 1.391 . S
N588 C589 1.388 . S
C589 H560 0.930 . S
C589 C584 1.391 . S
C589 N588 1.388 . S
Co590 O592 2.143 . S
Co590 O598 2.074 . S
Co590 O601 2.093 . S
Co590 O614 2.097 . S
Co590 N631 2.151 . S
Co590 N639 2.214 . S
Co591 O592 2.160 . S
Co591 O597 2.058 . S
Co591 O607 2.057 . S
Co591 O622 2.037 . S
Co591 N626 2.145 . S
Co591 N647 2.257 . S
O592 Co590 2.143 . S
O592 Co591 2.160 . S
C593 O594 1.278 . S
C593 O601 1.224 . S
O594 C593 1.278 . S
C595 O596 1.245 . S
C595 O607 1.232 . S
O596 C595 1.245 . S
O597 Co591 2.058 . S
O597 C623 1.269 . S
O598 Co590 2.074 . S
O598 C623 1.257 . S
H599 C624 0.930 . S
H600 C630 0.930 . S
O601 Co590 2.093 . S
O601 C593 1.224 . S
H602 C634 0.929 . S
H603 C636 0.930 . S
H604 C637 0.930 . S
H605 C635 0.929 . S
H606 C638 0.928 . S
O607 Co591 2.057 . S
O607 C595 1.232 . S
H608 C627 0.929 . S
H609 C628 0.929 . S
H610 C640 0.931 . S
H611 C632 0.929 . S
H612 C641 0.930 . S
H613 C633 0.931 . S
O614 Co590 2.097 . S
O614 C642 1.214 . S
H615 C643 0.929 . S
H616 C644 0.929 . S
H617 C645 0.930 . S
H618 C646 0.929 . S
H619 C648 0.930 . S
H620 C625 0.930 . S
H621 C629 0.930 . S
O622 Co591 2.037 . S
O622 C642 1.234 . S
C623 O597 1.269 . S
C623 O598 1.257 . S
C624 H599 0.930 . S
C624 C627 1.388 . S
C624 C629 1.418 1_556 S
C625 H620 0.930 . S
C625 C628 1.404 . S
C625 C629 1.353 . S
N626 Co591 2.145 . S
N626 C627 1.397 . S
N626 C628 1.334 1_556 S
C627 H608 0.929 . S
C627 C624 1.388 . S
C627 N626 1.397 . S
C628 H609 0.929 . S
C628 C625 1.404 . S
C628 N626 1.334 1_554 S
C629 H621 0.930 . S
C629 C624 1.418 1_554 S
C629 C625 1.353 . S
C630 H600 0.930 . S
C630 N631 1.330 . S
C630 C632 1.446 . S
N631 Co590 2.151 . S
N631 C630 1.330 . S
N631 C635 1.418 . S
C632 H611 0.929 . S
C632 C630 1.446 . S
C632 C633 1.332 . S
C633 H613 0.931 . S
C633 C632 1.332 . S
C633 C634 1.267 . S
C634 H602 0.929 . S
C634 C633 1.267 . S
C634 C635 1.251 . S
C635 H605 0.929 . S
C635 N631 1.418 . S
C635 C634 1.251 . S
C636 H603 0.930 . S
C636 C638 1.406 . S
C636 C641 1.261 . S
C637 H604 0.930 . S
C637 N639 1.325 . S
C637 C640 1.357 . S
C638 H606 0.928 . S
C638 C636 1.406 . S
C638 N639 1.261 . S
N639 Co590 2.214 . S
N639 C637 1.325 . S
N639 C638 1.261 . S
C640 H610 0.931 . S
C640 C637 1.357 . S
C640 C641 1.312 . S
C641 H612 0.930 . S
C641 C636 1.261 . S
C641 C640 1.312 . S
C642 O614 1.214 . S
C642 O622 1.234 . S
C643 H615 0.929 . S
C643 C646 1.391 . S
C643 C648 1.391 . S
C644 H616 0.929 . S
C644 C645 1.390 . S
C644 N647 1.391 . S
C645 H617 0.930 . S
C645 C644 1.390 . S
C645 C646 1.392 . S
C646 H618 0.929 . S
C646 C643 1.391 . S
C646 C645 1.392 . S
N647 Co591 2.257 . S
N647 C644 1.391 . S
N647 C648 1.388 . S
C648 H619 0.930 . S
C648 C643 1.391 . S
C648 N647 1.388 . S
Co649 O651 2.143 . S
Co649 O657 2.074 . S
Co649 O660 2.093 . S
Co649 O673 2.097 1_455 S
Co649 N690 2.151 . S
Co649 N698 2.214 . S
Co650 O651 2.160 1_655 S
Co650 O656 2.051 1_655 S
Co650 O666 2.057 . S
Co650 O681 2.037 . S
Co650 N685 2.145 . S
Co650 N706 2.257 . S
O651 Co649 2.143 . S
O651 Co650 2.160 1_455 S
C652 O653 1.255 1_455 S
C652 O660 1.224 . S
O653 C652 1.255 1_655 S
C654 O655 1.245 1_554 S
C654 O666 1.232 1_454 S
O655 C654 1.245 1_556 S
O656 Co650 2.051 1_455 S
O656 C682 1.276 . S
O657 Co649 2.074 . S
O657 C682 1.257 . S
H658 C683 0.930 . S
H659 C689 0.930 . S
O660 Co649 2.093 . S
O660 C652 1.224 . S
H661 C693 0.929 . S
H662 C695 0.930 . S
H663 C696 0.930 . S
H664 C694 0.929 . S
H665 C697 0.928 . S
O666 Co650 2.057 . S
O666 C654 1.232 1_656 S
H667 C686 0.929 . S
H668 C687 0.929 . S
H669 C699 0.931 . S
H670 C691 0.929 . S
H671 C700 0.930 . S
H672 C692 0.931 . S
O673 Co649 2.097 1_655 S
O673 C701 1.214 . S
H674 C702 0.929 . S
H675 C703 0.929 . S
H676 C704 0.930 . S
H677 C705 0.929 . S
H678 C707 0.930 . S
H679 C684 0.930 . S
H680 C688 0.930 . S
O681 Co650 2.037 . S
O681 C701 1.234 . S
C682 O656 1.276 . S
C682 O657 1.257 . S
C683 H658 0.930 . S
C683 C686 1.388 1_554 S
C683 C688 1.418 . S
C684 H679 0.930 . S
C684 C687 1.404 . S
C684 C688 1.353 . S
N685 Co650 2.145 . S
N685 C686 1.397 . S
N685 C687 1.334 1_556 S
C686 H667 0.929 . S
C686 C683 1.388 1_556 S
C686 N685 1.397 . S
C687 H668 0.929 . S
C687 C684 1.404 . S
C687 N685 1.334 1_554 S
C688 H680 0.930 . S
C688 C683 1.418 . S
C688 C684 1.353 . S
C689 H659 0.930 . S
C689 N690 1.330 . S
C689 C691 1.446 . S
N690 Co649 2.151 . S
N690 C689 1.330 . S
N690 C694 1.418 . S
C691 H670 0.929 . S
C691 C689 1.446 . S
C691 C692 1.332 . S
C692 H672 0.931 . S
C692 C691 1.332 . S
C692 C693 1.267 . S
C693 H661 0.929 . S
C693 C692 1.267 . S
C693 C694 1.251 . S
C694 H664 0.929 . S
C694 N690 1.418 . S
C694 C693 1.251 . S
C695 H662 0.930 . S
C695 C697 1.406 . S
C695 C700 1.261 . S
C696 H663 0.930 . S
C696 N698 1.325 . S
C696 C699 1.357 . S
C697 H665 0.928 . S
C697 C695 1.406 . S
C697 N698 1.261 . S
N698 Co649 2.214 . S
N698 C696 1.325 . S
N698 C697 1.261 . S
C699 H669 0.931 . S
C699 C696 1.357 . S
C699 C700 1.312 . S
C700 H671 0.930 . S
C700 C695 1.261 . S
C700 C699 1.312 . S
C701 O673 1.214 . S
C701 O681 1.234 . S
C702 H674 0.929 . S
C702 C705 1.391 . S
C702 C707 1.391 . S
C703 H675 0.929 . S
C703 C704 1.390 . S
C703 N706 1.391 . S
C704 H676 0.930 . S
C704 C703 1.390 . S
C704 C705 1.392 . S
C705 H677 0.929 . S
C705 C702 1.391 . S
C705 C704 1.392 . S
N706 Co650 2.257 . S
N706 C703 1.391 . S
N706 C707 1.388 . S
C707 H678 0.930 . S
C707 C702 1.391 . S
C707 N706 1.388 . S
Co708 O710 2.143 . S
Co708 O716 2.074 . S
Co708 O719 2.093 . S
Co708 O732 2.097 1_565 S
Co708 N749 2.151 . S
Co708 N757 2.214 . S
Co709 O710 2.160 1_545 S
Co709 O715 2.051 1_545 S
Co709 O725 2.057 . S
Co709 O740 2.037 . S
Co709 N744 2.145 . S
Co709 N765 2.257 . S
O710 Co708 2.143 . S
O710 Co709 2.160 1_565 S
C711 O712 1.255 1_565 S
C711 O719 1.224 . S
O712 C711 1.255 1_545 S
C713 O714 1.245 . S
C713 O725 1.232 1_565 S
O714 C713 1.245 . S
O715 Co709 2.051 1_565 S
O715 C741 1.276 . S
O716 Co708 2.074 . S
O716 C741 1.257 . S
H717 C742 0.930 . S
H718 C748 0.930 . S
O719 Co708 2.093 . S
O719 C711 1.224 . S
H720 C752 0.929 . S
H721 C754 0.930 . S
H722 C755 0.930 . S
H723 C753 0.929 . S
H724 C756 0.928 . S
O725 Co709 2.057 . S
O725 C713 1.232 1_545 S
H726 C745 0.929 . S
H727 C746 0.929 . S
H728 C758 0.931 . S
H729 C750 0.929 . S
H730 C759 0.930 . S
H731 C751 0.931 . S
O732 Co708 2.097 1_545 S
O732 C760 1.214 . S
H733 C761 0.929 . S
H734 C762 0.929 . S
H735 C763 0.930 . S
H736 C764 0.929 . S
H737 C766 0.930 . S
H738 C743 0.930 . S
H739 C747 0.930 . S
O740 Co709 2.037 . S
O740 C760 1.234 . S
C741 O715 1.276 . S
C741 O716 1.257 . S
C742 H717 0.930 . S
C742 C745 1.388 . S
C742 C747 1.418 . S
C743 H738 0.930 . S
C743 C746 1.404 . S
C743 C747 1.353 . S
N744 Co709 2.145 . S
N744 C745 1.397 . S
N744 C746 1.334 . S
C745 H726 0.929 . S
C745 C742 1.388 . S
C745 N744 1.397 . S
C746 H727 0.929 . S
C746 C743 1.404 . S
C746 N744 1.334 . S
C747 H739 0.930 . S
C747 C742 1.418 . S
C747 C743 1.353 . S
C748 H718 0.930 . S
C748 N749 1.330 . S
C748 C750 1.446 . S
N749 Co708 2.151 . S
N749 C748 1.330 . S
N749 C753 1.418 . S
C750 H729 0.929 . S
C750 C748 1.446 . S
C750 C751 1.332 . S
C751 H731 0.931 . S
C751 C750 1.332 . S
C751 C752 1.267 . S
C752 H720 0.929 . S
C752 C751 1.267 . S
C752 C753 1.251 . S
C753 H723 0.929 . S
C753 N749 1.418 . S
C753 C752 1.251 . S
C754 H721 0.930 . S
C754 C756 1.406 . S
C754 C759 1.261 . S
C755 H722 0.930 . S
C755 N757 1.325 . S
C755 C758 1.357 . S
C756 H724 0.928 . S
C756 C754 1.406 . S
C756 N757 1.261 . S
N757 Co708 2.214 . S
N757 C755 1.325 . S
N757 C756 1.261 . S
C758 H728 0.931 . S
C758 C755 1.357 . S
C758 C759 1.312 . S
C759 H730 0.930 . S
C759 C754 1.261 . S
C759 C758 1.312 . S
C760 O732 1.214 . S
C760 O740 1.234 . S
C761 H733 0.929 . S
C761 C764 1.391 . S
C761 C766 1.391 . S
C762 H734 0.929 . S
C762 C763 1.390 . S
C762 N765 1.391 . S
C763 H735 0.930 . S
C763 C762 1.390 . S
C763 C764 1.392 . S
C764 H736 0.929 . S
C764 C761 1.391 . S
C764 C763 1.392 . S
N765 Co709 2.257 . S
N765 C762 1.391 . S
N765 C766 1.388 . S
C766 H737 0.930 . S
C766 C761 1.391 . S
C766 N765 1.388 . S
Co767 O769 2.143 . S
Co767 O775 2.074 . S
Co767 O778 2.093 . S
Co767 O791 2.097 . S
Co767 N808 2.151 . S
Co767 N816 2.214 . S
Co768 O769 2.160 . S
Co768 O774 2.058 . S
Co768 O784 2.057 . S
Co768 O799 2.037 . S
Co768 N803 2.145 . S
Co768 N824 2.257 . S
O769 Co767 2.143 . S
O769 Co768 2.160 . S
C770 O771 1.278 . S
C770 O778 1.224 . S
O771 C770 1.278 . S
C772 O773 1.245 . S
C772 O784 1.232 . S
O773 C772 1.245 . S
O774 Co768 2.058 . S
O774 C800 1.269 . S
O775 Co767 2.074 . S
O775 C800 1.257 . S
H776 C801 0.930 . S
H777 C807 0.930 . S
O778 Co767 2.093 . S
O778 C770 1.224 . S
H779 C811 0.929 . S
H780 C813 0.930 . S
H781 C814 0.930 . S
H782 C812 0.929 . S
H783 C815 0.928 . S
O784 Co768 2.057 . S
O784 C772 1.232 . S
H785 C804 0.929 . S
H786 C805 0.929 . S
H787 C817 0.931 . S
H788 C809 0.929 . S
H789 C818 0.930 . S
H790 C810 0.931 . S
O791 Co767 2.097 . S
O791 C819 1.214 . S
H792 C820 0.929 . S
H793 C821 0.929 . S
H794 C822 0.930 . S
H795 C823 0.929 . S
H796 C825 0.930 . S
H797 C802 0.930 . S
H798 C806 0.930 . S
O799 Co768 2.037 . S
O799 C819 1.234 . S
C800 O774 1.269 . S
C800 O775 1.257 . S
C801 H776 0.930 . S
C801 C804 1.388 . S
C801 C806 1.418 . S
C802 H797 0.930 . S
C802 C805 1.404 . S
C802 C806 1.353 . S
N803 Co768 2.145 . S
N803 C804 1.397 . S
N803 C805 1.334 . S
C804 H785 0.929 . S
C804 C801 1.388 . S
C804 N803 1.397 . S
C805 H786 0.929 . S
C805 C802 1.404 . S
C805 N803 1.334 . S
C806 H798 0.930 . S
C806 C801 1.418 . S
C806 C802 1.353 . S
C807 H777 0.930 . S
C807 N808 1.330 . S
C807 C809 1.446 . S
N808 Co767 2.151 . S
N808 C807 1.330 . S
N808 C812 1.418 . S
C809 H788 0.929 . S
C809 C807 1.446 . S
C809 C810 1.332 . S
C810 H790 0.931 . S
C810 C809 1.332 . S
C810 C811 1.267 . S
C811 H779 0.929 . S
C811 C810 1.267 . S
C811 C812 1.251 . S
C812 H782 0.929 . S
C812 N808 1.418 . S
C812 C811 1.251 . S
C813 H780 0.930 . S
C813 C815 1.406 . S
C813 C818 1.261 . S
C814 H781 0.930 . S
C814 N816 1.325 . S
C814 C817 1.357 . S
C815 H783 0.928 . S
C815 C813 1.406 . S
C815 N816 1.261 . S
N816 Co767 2.214 . S
N816 C814 1.325 . S
N816 C815 1.261 . S
C817 H787 0.931 . S
C817 C814 1.357 . S
C817 C818 1.312 . S
C818 H789 0.930 . S
C818 C813 1.261 . S
C818 C817 1.312 . S
C819 O791 1.214 . S
C819 O799 1.234 . S
C820 H792 0.929 . S
C820 C823 1.391 . S
C820 C825 1.391 . S
C821 H793 0.929 . S
C821 C822 1.390 . S
C821 N824 1.391 . S
C822 H794 0.930 . S
C822 C821 1.390 . S
C822 C823 1.392 . S
C823 H795 0.929 . S
C823 C820 1.391 . S
C823 C822 1.392 . S
N824 Co768 2.257 . S
N824 C821 1.391 . S
N824 C825 1.388 . S
C825 H796 0.930 . S
C825 C820 1.391 . S
C825 N824 1.388 . S
Co826 O828 2.143 . S
Co826 O834 2.074 . S
Co826 O837 2.093 . S
Co826 O850 2.097 . S
Co826 N867 2.151 . S
Co826 N875 2.214 . S
Co827 O828 2.160 . S
Co827 O833 2.058 . S
Co827 O843 2.057 . S
Co827 O858 2.037 . S
Co827 N862 2.145 . S
Co827 N883 2.257 . S
O828 Co826 2.143 . S
O828 Co827 2.160 . S
C829 O830 1.278 . S
C829 O837 1.224 . S
O830 C829 1.278 . S
C831 O832 1.245 . S
C831 O843 1.232 . S
O832 C831 1.245 . S
O833 Co827 2.058 . S
O833 C859 1.269 . S
O834 Co826 2.074 . S
O834 C859 1.257 . S
H835 C860 0.930 . S
H836 C866 0.930 . S
O837 Co826 2.093 . S
O837 C829 1.224 . S
H838 C870 0.929 . S
H839 C872 0.930 . S
H840 C873 0.930 . S
H841 C871 0.929 . S
H842 C874 0.928 . S
O843 Co827 2.057 . S
O843 C831 1.232 . S
H844 C863 0.929 . S
H845 C864 0.929 . S
H846 C876 0.931 . S
H847 C868 0.929 . S
H848 C877 0.930 . S
H849 C869 0.931 . S
O850 Co826 2.097 . S
O850 C878 1.214 . S
H851 C879 0.929 . S
H852 C880 0.929 . S
H853 C881 0.930 . S
H854 C882 0.929 . S
H855 C884 0.930 . S
H856 C861 0.930 . S
H857 C865 0.930 . S
O858 Co827 2.037 . S
O858 C878 1.234 . S
C859 O833 1.269 . S
C859 O834 1.257 . S
C860 H835 0.930 . S
C860 C863 1.388 . S
C860 C865 1.418 . S
C861 H856 0.930 . S
C861 C864 1.404 . S
C861 C865 1.353 . S
N862 Co827 2.145 . S
N862 C863 1.397 . S
N862 C864 1.334 . S
C863 H844 0.929 . S
C863 C860 1.388 . S
C863 N862 1.397 . S
C864 H845 0.929 . S
C864 C861 1.404 . S
C864 N862 1.334 . S
C865 H857 0.930 . S
C865 C860 1.418 . S
C865 C861 1.353 . S
C866 H836 0.930 . S
C866 N867 1.330 . S
C866 C868 1.446 . S
N867 Co826 2.151 . S
N867 C866 1.330 . S
N867 C871 1.418 . S
C868 H847 0.929 . S
C868 C866 1.446 . S
C868 C869 1.332 . S
C869 H849 0.931 . S
C869 C868 1.332 . S
C869 C870 1.267 . S
C870 H838 0.929 . S
C870 C869 1.267 . S
C870 C871 1.251 . S
C871 H841 0.929 . S
C871 N867 1.418 . S
C871 C870 1.251 . S
C872 H839 0.930 . S
C872 C874 1.406 . S
C872 C877 1.261 . S
C873 H840 0.930 . S
C873 N875 1.325 . S
C873 C876 1.357 . S
C874 H842 0.928 . S
C874 C872 1.406 . S
C874 N875 1.261 . S
N875 Co826 2.214 . S
N875 C873 1.325 . S
N875 C874 1.261 . S
C876 H846 0.931 . S
C876 C873 1.357 . S
C876 C877 1.312 . S
C877 H848 0.930 . S
C877 C872 1.261 . S
C877 C876 1.312 . S
C878 O850 1.214 . S
C878 O858 1.234 . S
C879 H851 0.929 . S
C879 C882 1.391 . S
C879 C884 1.391 . S
C880 H852 0.929 . S
C880 C881 1.390 . S
C880 N883 1.391 . S
C881 H853 0.930 . S
C881 C880 1.390 . S
C881 C882 1.392 . S
C882 H854 0.929 . S
C882 C879 1.391 . S
C882 C881 1.392 . S
N883 Co827 2.257 . S
N883 C880 1.391 . S
N883 C884 1.388 . S
C884 H855 0.930 . S
C884 C879 1.391 . S
C884 N883 1.388 . S
Co885 O887 2.143 . S
Co885 O893 2.074 . S
Co885 O896 2.093 . S
Co885 O909 2.097 1_655 S
Co885 N926 2.151 . S
Co885 N934 2.214 . S
Co886 O887 2.160 1_455 S
Co886 O892 2.058 1_455 S
Co886 O902 2.057 . S
Co886 O917 2.037 . S
Co886 N921 2.145 . S
Co886 N942 2.257 . S
O887 Co885 2.143 . S
O887 Co886 2.160 1_655 S
C888 O889 1.278 1_655 S
C888 O896 1.224 . S
O889 C888 1.278 1_455 S
C890 O891 1.237 1_455 S
C890 O902 1.239 . S
O891 C890 1.237 1_655 S
O892 Co886 2.058 1_655 S
O892 C918 1.269 . S
O893 Co885 2.074 . S
O893 C918 1.257 . S
H894 C919 0.930 . S
H895 C925 0.930 . S
O896 Co885 2.093 . S
O896 C888 1.224 . S
H897 C929 0.929 . S
H898 C931 0.930 . S
H899 C932 0.930 . S
H900 C930 0.929 . S
H901 C933 0.928 . S
O902 Co886 2.057 . S
O902 C890 1.239 . S
H903 C922 0.929 . S
H904 C923 0.929 . S
H905 C935 0.931 . S
H906 C927 0.929 . S
H907 C936 0.930 . S
H908 C928 0.931 . S
O909 Co885 2.097 1_455 S
O909 C937 1.214 . S
H910 C938 0.929 . S
H911 C939 0.929 . S
H912 C940 0.930 . S
H913 C941 0.929 . S
H914 C943 0.930 . S
H915 C920 0.930 . S
H916 C924 0.930 . S
O917 Co886 2.037 . S
O917 C937 1.234 . S
C918 O892 1.269 . S
C918 O893 1.257 . S
C919 H894 0.930 . S
C919 C922 1.388 . S
C919 C924 1.418 . S
C920 H915 0.930 . S
C920 C923 1.404 . S
C920 C924 1.353 . S
N921 Co886 2.145 . S
N921 C922 1.397 . S
N921 C923 1.334 . S
C922 H903 0.929 . S
C922 C919 1.388 . S
C922 N921 1.397 . S
C923 H904 0.929 . S
C923 C920 1.404 . S
C923 N921 1.334 . S
C924 H916 0.930 . S
C924 C919 1.418 . S
C924 C920 1.353 . S
C925 H895 0.930 . S
C925 N926 1.330 . S
C925 C927 1.446 . S
N926 Co885 2.151 . S
N926 C925 1.330 . S
N926 C930 1.418 . S
C927 H906 0.929 . S
C927 C925 1.446 . S
C927 C928 1.332 . S
C928 H908 0.931 . S
C928 C927 1.332 . S
C928 C929 1.267 . S
C929 H897 0.929 . S
C929 C928 1.267 . S
C929 C930 1.251 . S
C930 H900 0.929 . S
C930 N926 1.418 . S
C930 C929 1.251 . S
C931 H898 0.930 . S
C931 C933 1.406 . S
C931 C936 1.261 . S
C932 H899 0.930 . S
C932 N934 1.325 . S
C932 C935 1.357 . S
C933 H901 0.928 . S
C933 C931 1.406 . S
C933 N934 1.261 . S
N934 Co885 2.214 . S
N934 C932 1.325 . S
N934 C933 1.261 . S
C935 H905 0.931 . S
C935 C932 1.357 . S
C935 C936 1.312 . S
C936 H907 0.930 . S
C936 C931 1.261 . S
C936 C935 1.312 . S
C937 O909 1.214 . S
C937 O917 1.234 . S
C938 H910 0.929 . S
C938 C941 1.391 . S
C938 C943 1.391 . S
C939 H911 0.929 . S
C939 C940 1.390 . S
C939 N942 1.391 . S
C940 H912 0.930 . S
C940 C939 1.390 . S
C940 C941 1.392 . S
C941 H913 0.929 . S
C941 C938 1.391 . S
C941 C940 1.392 . S
N942 Co886 2.257 . S
N942 C939 1.391 . S
N942 C943 1.388 . S
C943 H914 0.930 . S
C943 C938 1.391 . S
C943 N942 1.388 . S
H944 C956 0.930 . S
H945 C958 0.930 . S
H946 C959 0.930 . S
H947 C963 0.959 . S
H948 C963 0.959 . S
H949 C963 0.961 . S
H950 C964 0.960 . S
H951 C964 0.961 . S
H952 C964 0.959 . S
H953 C967 0.929 . S
H954 C968 0.931 . S
H955 C970 0.930 . S
C956 H944 0.930 . S
C956 C957 1.399 . S
C956 C961 1.399 . S
C957 C956 1.399 . S
C957 C958 1.376 . S
C958 H945 0.930 . S
C958 C957 1.376 . S
C958 C959 1.388 . S
C959 H946 0.930 . S
C959 C958 1.388 . S
C959 C960 1.390 . S
C960 C959 1.390 . S
C960 C961 1.394 . S
C960 C966 1.465 . S
C961 C956 1.399 . S
C961 C960 1.394 . S
C961 C962 1.516 . S
C962 C961 1.516 . S
C962 C963 1.502 . S
C962 C964 1.561 . S
C962 C965 1.526 . S
C963 H947 0.959 . S
C963 H948 0.959 . S
C963 H949 0.961 . S
C963 C962 1.502 . S
C964 H950 0.960 . S
C964 H951 0.961 . S
C964 H952 0.959 . S
C964 C962 1.561 . S
C965 C962 1.526 . S
C965 C966 1.396 . S
C965 C970 1.390 . S
C966 C960 1.465 . S
C966 C965 1.396 . S
C966 C967 1.399 . S
C967 H953 0.929 . S
C967 C966 1.399 . S
C967 C968 1.385 . S
C968 H954 0.931 . S
C968 C967 1.385 . S
C968 C969 1.389 . S
C969 C968 1.389 . S
C969 C970 1.387 . S
C970 H955 0.930 . S
C970 C965 1.390 . S
C970 C969 1.387 . S
H971 C983 0.930 . S
H972 C985 0.930 . S
H973 C986 0.930 . S
H974 C990 0.959 . S
H975 C990 0.959 . S
H976 C990 0.961 . S
H977 C991 0.960 . S
H978 C991 0.961 . S
H979 C991 0.959 . S
H980 C994 0.929 . S
H981 C995 0.931 . S
H982 C997 0.930 . S
C983 H971 0.930 . S
C983 C984 1.399 . S
C983 C988 1.399 . S
C984 C983 1.399 . S
C984 C985 1.376 . S
C985 H972 0.930 . S
C985 C984 1.376 . S
C985 C986 1.388 . S
C986 H973 0.930 . S
C986 C985 1.388 . S
C986 C987 1.390 . S
C987 C986 1.390 . S
C987 C988 1.394 . S
C987 C993 1.465 . S
C988 C983 1.399 . S
C988 C987 1.394 . S
C988 C989 1.516 . S
C989 C988 1.516 . S
C989 C990 1.502 . S
C989 C991 1.561 . S
C989 C992 1.526 . S
C990 H974 0.959 . S
C990 H975 0.959 . S
C990 H976 0.961 . S
C990 C989 1.502 . S
C991 H977 0.960 . S
C991 H978 0.961 . S
C991 H979 0.959 . S
C991 C989 1.561 . S
C992 C989 1.526 . S
C992 C993 1.396 . S
C992 C997 1.390 . S
C993 C987 1.465 . S
C993 C992 1.396 . S
C993 C994 1.399 . S
C994 H980 0.929 . S
C994 C993 1.399 . S
C994 C995 1.385 . S
C995 H981 0.931 . S
C995 C994 1.385 . S
C995 C996 1.389 . S
C996 C995 1.389 . S
C996 C997 1.387 . S
C997 H982 0.930 . S
C997 C992 1.390 . S
C997 C996 1.387 . S
H998 C1010 0.930 . S
H999 C1012 0.930 . S
H1000 C1013 0.930 . S
H1001 C1017 0.959 . S
H1002 C1017 0.959 . S
H1003 C1017 0.961 . S
H1004 C1018 0.960 . S
H1005 C1018 0.961 . S
H1006 C1018 0.959 . S
H1007 C1021 0.929 . S
H1008 C1022 0.931 . S
H1009 C1024 0.930 . S
C1010 H998 0.930 . S
C1010 C1011 1.399 . S
C1010 C1015 1.399 . S
C1011 C1010 1.399 . S
C1011 C1012 1.376 . S
C1012 H999 0.930 . S
C1012 C1011 1.376 . S
C1012 C1013 1.388 . S
C1013 H1000 0.930 . S
C1013 C1012 1.388 . S
C1013 C1014 1.390 . S
C1014 C1013 1.390 . S
C1014 C1015 1.394 . S
C1014 C1020 1.465 . S
C1015 C1010 1.399 . S
C1015 C1014 1.394 . S
C1015 C1016 1.516 . S
C1016 C1015 1.516 . S
C1016 C1017 1.502 . S
C1016 C1018 1.561 . S
C1016 C1019 1.526 . S
C1017 H1001 0.959 . S
C1017 H1002 0.959 . S
C1017 H1003 0.961 . S
C1017 C1016 1.502 . S
C1018 H1004 0.960 . S
C1018 H1005 0.961 . S
C1018 H1006 0.959 . S
C1018 C1016 1.561 . S
C1019 C1016 1.526 . S
C1019 C1020 1.396 . S
C1019 C1024 1.390 . S
C1020 C1014 1.465 . S
C1020 C1019 1.396 . S
C1020 C1021 1.399 . S
C1021 H1007 0.929 . S
C1021 C1020 1.399 . S
C1021 C1022 1.385 . S
C1022 H1008 0.931 . S
C1022 C1021 1.385 . S
C1022 C1023 1.389 . S
C1023 C1022 1.389 . S
C1023 C1024 1.387 . S
C1024 H1009 0.930 . S
C1024 C1019 1.390 . S
C1024 C1023 1.387 . S
H1025 C1037 0.930 . S
H1026 C1039 0.930 . S
H1027 C1040 0.930 . S
H1028 C1044 0.959 . S
H1029 C1044 0.959 . S
H1030 C1044 0.961 . S
H1031 C1045 0.960 . S
H1032 C1045 0.961 . S
H1033 C1045 0.959 . S
H1034 C1048 0.929 . S
H1035 C1049 0.931 . S
H1036 C1051 0.930 . S
C1037 H1025 0.930 . S
C1037 C1038 1.399 . S
C1037 C1042 1.399 . S
C1038 C1037 1.399 . S
C1038 C1039 1.376 . S
C1039 H1026 0.930 . S
C1039 C1038 1.376 . S
C1039 C1040 1.388 . S
C1040 H1027 0.930 . S
C1040 C1039 1.388 . S
C1040 C1041 1.390 . S
C1041 C1040 1.390 . S
C1041 C1042 1.394 . S
C1041 C1047 1.465 . S
C1042 C1037 1.399 . S
C1042 C1041 1.394 . S
C1042 C1043 1.516 . S
C1043 C1042 1.516 . S
C1043 C1044 1.502 . S
C1043 C1045 1.561 . S
C1043 C1046 1.526 . S
C1044 H1028 0.959 . S
C1044 H1029 0.959 . S
C1044 H1030 0.961 . S
C1044 C1043 1.502 . S
C1045 H1031 0.960 . S
C1045 H1032 0.961 . S
C1045 H1033 0.959 . S
C1045 C1043 1.561 . S
C1046 C1043 1.526 . S
C1046 C1047 1.396 . S
C1046 C1051 1.390 . S
C1047 C1041 1.465 . S
C1047 C1046 1.396 . S
C1047 C1048 1.399 . S
C1048 H1034 0.929 . S
C1048 C1047 1.399 . S
C1048 C1049 1.385 . S
C1049 H1035 0.931 . S
C1049 C1048 1.385 . S
C1049 C1050 1.389 . S
C1050 C1049 1.389 . S
C1050 C1051 1.387 . S
C1051 H1036 0.930 . S
C1051 C1046 1.390 . S
C1051 C1050 1.387 . S
H1052 C1064 0.930 . S
H1053 C1066 0.930 . S
H1054 C1067 0.930 . S
H1055 C1071 0.959 . S
H1056 C1071 0.959 . S
H1057 C1071 0.961 . S
H1058 C1072 0.960 . S
H1059 C1072 0.961 . S
H1060 C1072 0.959 . S
H1061 C1075 0.929 . S
H1062 C1076 0.931 . S
H1063 C1078 0.930 . S
C1064 H1052 0.930 . S
C1064 C1065 1.399 . S
C1064 C1069 1.399 . S
C1065 C1064 1.399 . S
C1065 C1066 1.376 . S
C1066 H1053 0.930 . S
C1066 C1065 1.376 . S
C1066 C1067 1.388 . S
C1067 H1054 0.930 . S
C1067 C1066 1.388 . S
C1067 C1068 1.390 . S
C1068 C1067 1.390 . S
C1068 C1069 1.394 . S
C1068 C1074 1.465 . S
C1069 C1064 1.399 . S
C1069 C1068 1.394 . S
C1069 C1070 1.516 . S
C1070 C1069 1.516 . S
C1070 C1071 1.502 . S
C1070 C1072 1.561 . S
C1070 C1073 1.526 . S
C1071 H1055 0.959 . S
C1071 H1056 0.959 . S
C1071 H1057 0.961 . S
C1071 C1070 1.502 . S
C1072 H1058 0.960 . S
C1072 H1059 0.961 . S
C1072 H1060 0.959 . S
C1072 C1070 1.561 . S
C1073 C1070 1.526 . S
C1073 C1074 1.396 . S
C1073 C1078 1.390 . S
C1074 C1068 1.465 . S
C1074 C1073 1.396 . S
C1074 C1075 1.399 . S
C1075 H1061 0.929 . S
C1075 C1074 1.399 . S
C1075 C1076 1.385 . S
C1076 H1062 0.931 . S
C1076 C1075 1.385 . S
C1076 C1077 1.389 . S
C1077 C1076 1.389 . S
C1077 C1078 1.387 . S
C1078 H1063 0.930 . S
C1078 C1073 1.390 . S
C1078 C1077 1.387 . S
H1079 C1091 0.930 . S
H1080 C1093 0.930 . S
H1081 C1094 0.930 . S
H1082 C1098 0.959 . S
H1083 C1098 0.959 . S
H1084 C1098 0.961 . S
H1085 C1099 0.960 . S
H1086 C1099 0.961 . S
H1087 C1099 0.959 . S
H1088 C1102 0.929 . S
H1089 C1103 0.931 . S
H1090 C1105 0.930 . S
C1091 H1079 0.930 . S
C1091 C1092 1.399 . S
C1091 C1096 1.399 . S
C1092 C1091 1.399 . S
C1092 C1093 1.376 . S
C1093 H1080 0.930 . S
C1093 C1092 1.376 . S
C1093 C1094 1.388 . S
C1094 H1081 0.930 . S
C1094 C1093 1.388 . S
C1094 C1095 1.390 . S
C1095 C1094 1.390 . S
C1095 C1096 1.394 . S
C1095 C1101 1.465 . S
C1096 C1091 1.399 . S
C1096 C1095 1.394 . S
C1096 C1097 1.516 . S
C1097 C1096 1.516 . S
C1097 C1098 1.502 . S
C1097 C1099 1.561 . S
C1097 C1100 1.526 . S
C1098 H1082 0.959 . S
C1098 H1083 0.959 . S
C1098 H1084 0.961 . S
C1098 C1097 1.502 . S
C1099 H1085 0.960 . S
C1099 H1086 0.961 . S
C1099 H1087 0.959 . S
C1099 C1097 1.561 . S
C1100 C1097 1.526 . S
C1100 C1101 1.396 . S
C1100 C1105 1.390 . S
C1101 C1095 1.465 . S
C1101 C1100 1.396 . S
C1101 C1102 1.399 . S
C1102 H1088 0.929 . S
C1102 C1101 1.399 . S
C1102 C1103 1.385 . S
C1103 H1089 0.931 . S
C1103 C1102 1.385 . S
C1103 C1104 1.389 . S
C1104 C1103 1.389 . S
C1104 C1105 1.387 . S
C1105 H1090 0.930 . S
C1105 C1100 1.390 . S
C1105 C1104 1.387 . S
H1106 C1118 0.930 . S
H1107 C1120 0.930 . S
H1108 C1121 0.930 . S
H1109 C1125 0.959 . S
H1110 C1125 0.959 . S
H1111 C1125 0.961 . S
H1112 C1126 0.960 . S
H1113 C1126 0.961 . S
H1114 C1126 0.959 . S
H1115 C1129 0.929 . S
H1116 C1130 0.931 . S
H1117 C1132 0.930 . S
C1118 H1106 0.930 . S
C1118 C1119 1.399 . S
C1118 C1123 1.399 . S
C1119 C1118 1.399 . S
C1119 C1120 1.376 . S
C1120 H1107 0.930 . S
C1120 C1119 1.376 . S
C1120 C1121 1.388 . S
C1121 H1108 0.930 . S
C1121 C1120 1.388 . S
C1121 C1122 1.390 . S
C1122 C1121 1.390 . S
C1122 C1123 1.394 . S
C1122 C1128 1.465 . S
C1123 C1118 1.399 . S
C1123 C1122 1.394 . S
C1123 C1124 1.516 . S
C1124 C1123 1.516 . S
C1124 C1125 1.502 . S
C1124 C1126 1.561 . S
C1124 C1127 1.526 . S
C1125 H1109 0.959 . S
C1125 H1110 0.959 . S
C1125 H1111 0.961 . S
C1125 C1124 1.502 . S
C1126 H1112 0.960 . S
C1126 H1113 0.961 . S
C1126 H1114 0.959 . S
C1126 C1124 1.561 . S
C1127 C1124 1.526 . S
C1127 C1128 1.396 . S
C1127 C1132 1.390 . S
C1128 C1122 1.465 . S
C1128 C1127 1.396 . S
C1128 C1129 1.399 . S
C1129 H1115 0.929 . S
C1129 C1128 1.399 . S
C1129 C1130 1.385 . S
C1130 H1116 0.931 . S
C1130 C1129 1.385 . S
C1130 C1131 1.389 . S
C1131 C1130 1.389 . S
C1131 C1132 1.387 . S
C1132 H1117 0.930 . S
C1132 C1127 1.390 . S
C1132 C1131 1.387 . S
H1133 C1145 0.930 . S
H1134 C1147 0.930 . S
H1135 C1148 0.930 . S
H1136 C1152 0.959 . S
H1137 C1152 0.959 . S
H1138 C1152 0.961 . S
H1139 C1153 0.960 . S
H1140 C1153 0.961 . S
H1141 C1153 0.959 . S
H1142 C1156 0.929 . S
H1143 C1157 0.931 . S
H1144 C1159 0.930 . S
C1145 H1133 0.930 . S
C1145 C1146 1.399 . S
C1145 C1150 1.399 . S
C1146 C1145 1.399 . S
C1146 C1147 1.376 . S
C1147 H1134 0.930 . S
C1147 C1146 1.376 . S
C1147 C1148 1.388 . S
C1148 H1135 0.930 . S
C1148 C1147 1.388 . S
C1148 C1149 1.390 . S
C1149 C1148 1.390 . S
C1149 C1150 1.394 . S
C1149 C1155 1.465 . S
C1150 C1145 1.399 . S
C1150 C1149 1.394 . S
C1150 C1151 1.516 . S
C1151 C1150 1.516 . S
C1151 C1152 1.502 . S
C1151 C1153 1.561 . S
C1151 C1154 1.526 . S
C1152 H1136 0.959 . S
C1152 H1137 0.959 . S
C1152 H1138 0.961 . S
C1152 C1151 1.502 . S
C1153 H1139 0.960 . S
C1153 H1140 0.961 . S
C1153 H1141 0.959 . S
C1153 C1151 1.561 . S
C1154 C1151 1.526 . S
C1154 C1155 1.396 . S
C1154 C1159 1.390 . S
C1155 C1149 1.465 . S
C1155 C1154 1.396 . S
C1155 C1156 1.399 . S
C1156 H1142 0.929 . S
C1156 C1155 1.399 . S
C1156 C1157 1.385 . S
C1157 H1143 0.931 . S
C1157 C1156 1.385 . S
C1157 C1158 1.389 . S
C1158 C1157 1.389 . S
C1158 C1159 1.387 . S
C1159 H1144 0.930 . S
C1159 C1154 1.390 . S
C1159 C1158 1.387 . S
H1160 C1172 0.930 . S
H1161 C1174 0.930 . S
H1162 C1175 0.930 . S
H1163 C1179 0.959 . S
H1164 C1179 0.959 . S
H1165 C1179 0.961 . S
H1166 C1180 0.960 . S
H1167 C1180 0.961 . S
H1168 C1180 0.959 . S
H1169 C1183 0.929 . S
H1170 C1184 0.931 . S
H1171 C1186 0.930 1_545 S
C1172 H1160 0.930 . S
C1172 C1173 1.399 1_545 S
C1172 C1177 1.399 . S
C1173 C1172 1.399 1_565 S
C1173 C1174 1.376 . S
C1174 H1161 0.930 . S
C1174 C1173 1.376 . S
C1174 C1175 1.388 . S
C1175 H1162 0.930 . S
C1175 C1174 1.388 . S
C1175 C1176 1.390 . S
C1176 C1175 1.390 . S
C1176 C1177 1.394 1_565 S
C1176 C1182 1.465 . S
C1177 C1172 1.399 . S
C1177 C1176 1.394 1_545 S
C1177 C1178 1.516 . S
C1178 C1177 1.516 . S
C1178 C1179 1.502 . S
C1178 C1180 1.561 . S
C1178 C1181 1.526 1_545 S
C1179 H1163 0.959 . S
C1179 H1164 0.959 . S
C1179 H1165 0.961 . S
C1179 C1178 1.502 . S
C1180 H1166 0.960 . S
C1180 H1167 0.961 . S
C1180 H1168 0.959 . S
C1180 C1178 1.561 . S
C1181 C1178 1.526 1_565 S
C1181 C1182 1.396 . S
C1181 C1186 1.390 . S
C1182 C1176 1.465 . S
C1182 C1181 1.396 . S
C1182 C1183 1.399 . S
C1183 H1169 0.929 . S
C1183 C1182 1.399 . S
C1183 C1184 1.385 . S
C1184 H1170 0.931 . S
C1184 C1183 1.385 . S
C1184 C1185 1.389 . S
C1185 C1184 1.389 . S
C1185 C1186 1.387 . S
C1186 H1171 0.930 1_565 S
C1186 C1181 1.390 . S
C1186 C1185 1.387 . S
H1187 C1199 0.930 . S
H1188 C1201 0.930 . S
H1189 C1202 0.930 . S
H1190 C1206 0.959 . S
H1191 C1206 0.959 . S
H1192 C1206 0.961 . S
H1193 C1207 0.960 . S
H1194 C1207 0.961 . S
H1195 C1207 0.959 . S
H1196 C1210 0.929 . S
H1197 C1211 0.931 1_554 S
H1198 C1213 0.930 . S
C1199 H1187 0.930 . S
C1199 C1200 1.399 . S
C1199 C1204 1.399 . S
C1200 C1199 1.399 . S
C1200 C1201 1.376 . S
C1201 H1188 0.930 . S
C1201 C1200 1.376 . S
C1201 C1202 1.388 . S
C1202 H1189 0.930 . S
C1202 C1201 1.388 . S
C1202 C1203 1.390 . S
C1203 C1202 1.390 . S
C1203 C1204 1.394 . S
C1203 C1209 1.465 . S
C1204 C1199 1.399 . S
C1204 C1203 1.394 . S
C1204 C1205 1.516 . S
C1205 C1204 1.516 . S
C1205 C1206 1.502 . S
C1205 C1207 1.561 . S
C1205 C1208 1.526 . S
C1206 H1190 0.959 . S
C1206 H1191 0.959 . S
C1206 H1192 0.961 . S
C1206 C1205 1.502 . S
C1207 H1193 0.960 . S
C1207 H1194 0.961 . S
C1207 H1195 0.959 . S
C1207 C1205 1.561 . S
C1208 C1205 1.526 . S
C1208 C1209 1.396 . S
C1208 C1213 1.390 . S
C1209 C1203 1.465 . S
C1209 C1208 1.396 . S
C1209 C1210 1.399 . S
C1210 H1196 0.929 . S
C1210 C1209 1.399 . S
C1210 C1211 1.385 . S
C1211 H1197 0.931 1_556 S
C1211 C1210 1.385 . S
C1211 C1212 1.389 . S
C1212 C1211 1.389 . S
C1212 C1213 1.387 . S
C1213 H1198 0.930 . S
C1213 C1208 1.390 . S
C1213 C1212 1.387 . S
H1214 C1226 0.930 . S
H1215 C1228 0.930 . S
H1216 C1229 0.930 . S
H1217 C1233 0.959 . S
H1218 C1233 0.959 . S
H1219 C1233 0.961 . S
H1220 C1234 0.960 . S
H1221 C1234 0.961 . S
H1222 C1234 0.959 . S
H1223 C1237 0.929 . S
H1224 C1238 0.931 . S
H1225 C1240 0.930 . S
C1226 H1214 0.930 . S
C1226 C1227 1.399 . S
C1226 C1231 1.399 . S
C1227 C1226 1.399 . S
C1227 C1228 1.376 . S
C1228 H1215 0.930 . S
C1228 C1227 1.376 . S
C1228 C1229 1.388 . S
C1229 H1216 0.930 . S
C1229 C1228 1.388 . S
C1229 C1230 1.390 . S
C1230 C1229 1.390 . S
C1230 C1231 1.394 . S
C1230 C1236 1.465 . S
C1231 C1226 1.399 . S
C1231 C1230 1.394 . S
C1231 C1232 1.516 . S
C1232 C1231 1.516 . S
C1232 C1233 1.502 . S
C1232 C1234 1.561 . S
C1232 C1235 1.526 . S
C1233 H1217 0.959 . S
C1233 H1218 0.959 . S
C1233 H1219 0.961 . S
C1233 C1232 1.502 . S
C1234 H1220 0.960 . S
C1234 H1221 0.961 . S
C1234 H1222 0.959 . S
C1234 C1232 1.561 . S
C1235 C1232 1.526 . S
C1235 C1236 1.396 . S
C1235 C1240 1.390 . S
C1236 C1230 1.465 . S
C1236 C1235 1.396 . S
C1236 C1237 1.399 . S
C1237 H1223 0.929 . S
C1237 C1236 1.399 . S
C1237 C1238 1.385 . S
C1238 H1224 0.931 . S
C1238 C1237 1.385 . S
C1238 C1239 1.389 . S
C1239 C1238 1.389 . S
C1239 C1240 1.387 . S
C1240 H1225 0.930 . S
C1240 C1235 1.390 . S
C1240 C1239 1.387 . S
H1241 C1253 0.948 . S
H1242 C1255 0.930 . S
H1243 C1256 0.930 . S
H1244 C1260 0.959 . S
H1245 C1260 0.959 . S
H1246 C1260 0.961 . S
H1247 C1261 0.960 . S
H1248 C1261 0.961 . S
H1249 C1261 0.959 . S
H1250 C1264 0.929 . S
H1251 C1265 0.931 . S
H1252 C1267 0.930 . S
C1253 H1241 0.948 . S
C1253 C1254 1.392 1_455 S
C1253 C1258 1.389 1_455 S
C1254 C1253 1.392 1_655 S
C1254 C1255 1.376 . S
C1255 H1242 0.930 . S
C1255 C1254 1.376 . S
C1255 C1256 1.388 . S
C1256 H1243 0.930 . S
C1256 C1255 1.388 . S
C1256 C1257 1.390 . S
C1257 C1256 1.390 . S
C1257 C1258 1.394 . S
C1257 C1263 1.465 . S
C1258 C1253 1.389 1_655 S
C1258 C1257 1.394 . S
C1258 C1259 1.516 . S
C1259 C1258 1.516 . S
C1259 C1260 1.502 1_655 S
C1259 C1261 1.561 . S
C1259 C1262 1.526 . S
C1260 H1244 0.959 . S
C1260 H1245 0.959 . S
C1260 H1246 0.961 . S
C1260 C1259 1.502 1_455 S
C1261 H1247 0.960 . S
C1261 H1248 0.961 . S
C1261 H1249 0.959 . S
C1261 C1259 1.561 . S
C1262 C1259 1.526 . S
C1262 C1263 1.396 . S
C1262 C1267 1.390 . S
C1263 C1257 1.465 . S
C1263 C1262 1.396 . S
C1263 C1264 1.399 . S
C1264 H1250 0.929 . S
C1264 C1263 1.399 . S
C1264 C1265 1.385 . S
C1265 H1251 0.931 . S
C1265 C1264 1.385 . S
C1265 C1266 1.389 . S
C1266 C1265 1.389 . S
C1266 C1267 1.387 . S
C1267 H1252 0.930 . S
C1267 C1262 1.390 . S
C1267 C1266 1.387 . S
H1268 C1280 0.930 . S
H1269 C1282 0.930 . S
H1270 C1283 0.930 . S
H1271 C1287 0.959 . S
H1272 C1287 0.959 . S
H1273 C1287 0.961 . S
H1274 C1288 0.960 . S
H1275 C1288 0.961 . S
H1276 C1288 0.959 . S
H1277 C1291 0.929 . S
H1278 C1292 0.931 . S
H1279 C1294 0.930 1_565 S
C1280 H1268 0.930 . S
C1280 C1281 1.399 1_565 S
C1280 C1285 1.399 . S
C1281 C1280 1.399 1_545 S
C1281 C1282 1.376 . S
C1282 H1269 0.930 . S
C1282 C1281 1.376 . S
C1282 C1283 1.388 . S
C1283 H1270 0.930 . S
C1283 C1282 1.388 . S
C1283 C1284 1.390 . S
C1284 C1283 1.390 . S
C1284 C1285 1.394 1_545 S
C1284 C1290 1.465 . S
C1285 C1280 1.399 . S
C1285 C1284 1.394 1_565 S
C1285 C1286 1.516 . S
C1286 C1285 1.516 . S
C1286 C1287 1.502 . S
C1286 C1288 1.561 . S
C1286 C1289 1.526 1_565 S
C1287 H1271 0.959 . S
C1287 H1272 0.959 . S
C1287 H1273 0.961 . S
C1287 C1286 1.502 . S
C1288 H1274 0.960 . S
C1288 H1275 0.961 . S
C1288 H1276 0.959 . S
C1288 C1286 1.561 . S
C1289 C1286 1.526 1_545 S
C1289 C1290 1.396 . S
C1289 C1294 1.390 . S
C1290 C1284 1.465 . S
C1290 C1289 1.396 . S
C1290 C1291 1.399 . S
C1291 H1277 0.929 . S
C1291 C1290 1.399 . S
C1291 C1292 1.385 . S
C1292 H1278 0.931 . S
C1292 C1291 1.385 . S
C1292 C1293 1.389 . S
C1293 C1292 1.389 . S
C1293 C1294 1.387 . S
C1294 H1279 0.930 1_545 S
C1294 C1289 1.390 . S
C1294 C1293 1.387 . S
H1295 C1307 0.930 . S
H1296 C1309 0.930 . S
H1297 C1310 0.930 . S
H1298 C1314 0.959 . S
H1299 C1314 0.959 . S
H1300 C1314 0.961 . S
H1301 C1315 0.960 . S
H1302 C1315 0.961 . S
H1303 C1315 0.959 . S
H1304 C1318 0.929 . S
H1305 C1319 0.931 . S
H1306 C1321 0.930 . S
C1307 H1295 0.930 . S
C1307 C1308 1.399 . S
C1307 C1312 1.399 . S
C1308 C1307 1.399 . S
C1308 C1309 1.376 . S
C1309 H1296 0.930 . S
C1309 C1308 1.376 . S
C1309 C1310 1.388 . S
C1310 H1297 0.930 . S
C1310 C1309 1.388 . S
C1310 C1311 1.390 . S
C1311 C1310 1.390 . S
C1311 C1312 1.394 . S
C1311 C1317 1.465 . S
C1312 C1307 1.399 . S
C1312 C1311 1.394 . S
C1312 C1313 1.516 . S
C1313 C1312 1.516 . S
C1313 C1314 1.502 . S
C1313 C1315 1.561 . S
C1313 C1316 1.526 . S
C1314 H1298 0.959 . S
C1314 H1299 0.959 . S
C1314 H1300 0.961 . S
C1314 C1313 1.502 . S
C1315 H1301 0.960 . S
C1315 H1302 0.961 . S
C1315 H1303 0.959 . S
C1315 C1313 1.561 . S
C1316 C1313 1.526 . S
C1316 C1317 1.396 . S
C1316 C1321 1.390 . S
C1317 C1311 1.465 . S
C1317 C1316 1.396 . S
C1317 C1318 1.399 . S
C1318 H1304 0.929 . S
C1318 C1317 1.399 . S
C1318 C1319 1.385 . S
C1319 H1305 0.931 . S
C1319 C1318 1.385 . S
C1319 C1320 1.389 . S
C1320 C1319 1.389 . S
C1320 C1321 1.387 . S
C1321 H1306 0.930 . S
C1321 C1316 1.390 . S
C1321 C1320 1.387 . S
H1322 C1334 0.930 . S
H1323 C1336 0.930 . S
H1324 C1337 0.930 . S
H1325 C1341 0.959 . S
H1326 C1341 0.959 . S
H1327 C1341 0.961 . S
H1328 C1342 0.960 . S
H1329 C1342 0.961 . S
H1330 C1342 0.959 . S
H1331 C1345 0.929 . S
H1332 C1346 0.931 . S
H1333 C1348 0.930 . S
C1334 H1322 0.930 . S
C1334 C1335 1.399 . S
C1334 C1339 1.399 . S
C1335 C1334 1.399 . S
C1335 C1336 1.376 . S
C1336 H1323 0.930 . S
C1336 C1335 1.376 . S
C1336 C1337 1.388 . S
C1337 H1324 0.930 . S
C1337 C1336 1.388 . S
C1337 C1338 1.390 . S
C1338 C1337 1.390 . S
C1338 C1339 1.394 . S
C1338 C1344 1.465 . S
C1339 C1334 1.399 . S
C1339 C1338 1.394 . S
C1339 C1340 1.516 . S
C1340 C1339 1.516 . S
C1340 C1341 1.502 . S
C1340 C1342 1.561 . S
C1340 C1343 1.526 . S
C1341 H1325 0.959 . S
C1341 H1326 0.959 . S
C1341 H1327 0.961 . S
C1341 C1340 1.502 . S
C1342 H1328 0.960 . S
C1342 H1329 0.961 . S
C1342 H1330 0.959 . S
C1342 C1340 1.561 . S
C1343 C1340 1.526 . S
C1343 C1344 1.396 . S
C1343 C1348 1.390 . S
C1344 C1338 1.465 . S
C1344 C1343 1.396 . S
C1344 C1345 1.399 . S
C1345 H1331 0.929 . S
C1345 C1344 1.399 . S
C1345 C1346 1.385 . S
C1346 H1332 0.931 . S
C1346 C1345 1.385 . S
C1346 C1347 1.389 . S
C1347 C1346 1.389 . S
C1347 C1348 1.387 . S
C1348 H1333 0.930 . S
C1348 C1343 1.390 . S
C1348 C1347 1.387 . S
H1349 C1361 0.930 . S
H1350 C1363 0.930 . S
H1351 C1364 0.930 . S
H1352 C1368 0.959 . S
H1353 C1368 0.959 . S
H1354 C1368 0.961 . S
H1355 C1369 0.960 . S
H1356 C1369 0.961 . S
H1357 C1369 0.959 . S
H1358 C1372 0.929 . S
H1359 C1373 0.931 . S
H1360 C1375 0.930 . S
C1361 H1349 0.930 . S
C1361 C1362 1.399 1_655 S
C1361 C1366 1.399 1_655 S
C1362 C1361 1.399 1_455 S
C1362 C1363 1.376 . S
C1363 H1350 0.930 . S
C1363 C1362 1.376 . S
C1363 C1364 1.388 . S
C1364 H1351 0.930 . S
C1364 C1363 1.388 . S
C1364 C1365 1.390 . S
C1365 C1364 1.390 . S
C1365 C1366 1.394 . S
C1365 C1371 1.465 . S
C1366 C1361 1.399 1_455 S
C1366 C1365 1.394 . S
C1366 C1367 1.516 . S
C1367 C1366 1.516 . S
C1367 C1368 1.502 1_455 S
C1367 C1369 1.561 . S
C1367 C1370 1.526 . S
C1368 H1352 0.959 . S
C1368 H1353 0.959 . S
C1368 H1354 0.961 . S
C1368 C1367 1.502 1_655 S
C1369 H1355 0.960 . S
C1369 H1356 0.961 . S
C1369 H1357 0.959 . S
C1369 C1367 1.561 . S
C1370 C1367 1.526 . S
C1370 C1371 1.396 . S
C1370 C1375 1.390 . S
C1371 C1365 1.465 . S
C1371 C1370 1.396 . S
C1371 C1372 1.399 . S
C1372 H1358 0.929 . S
C1372 C1371 1.399 . S
C1372 C1373 1.385 . S
C1373 H1359 0.931 . S
C1373 C1372 1.385 . S
C1373 C1374 1.389 . S
C1374 C1373 1.389 . S
C1374 C1375 1.387 . S
C1375 H1360 0.930 . S
C1375 C1370 1.390 . S
C1375 C1374 1.387 . S
H1376 C1388 0.930 . S
H1377 C1390 0.930 . S
H1378 C1391 0.930 . S
H1379 C1395 0.959 . S
H1380 C1395 0.959 . S
H1381 C1395 0.961 . S
H1382 C1396 0.960 . S
H1383 C1396 0.961 . S
H1384 C1396 0.959 . S
H1385 C1399 0.929 . S
H1386 C1400 0.931 . S
H1387 C1402 0.930 . S
C1388 H1376 0.930 . S
C1388 C1389 1.399 . S
C1388 C1393 1.399 . S
C1389 C1388 1.399 . S
C1389 C1390 1.376 1_545 S
C1390 H1377 0.930 . S
C1390 C1389 1.376 1_565 S
C1390 C1391 1.388 . S
C1391 H1378 0.930 . S
C1391 C1390 1.388 . S
C1391 C1392 1.404 . S
C1392 C1391 1.404 . S
C1392 C1393 1.372 1_565 S
C1392 C1398 1.469 . S
C1393 C1388 1.399 . S
C1393 C1392 1.372 1_545 S
C1393 C1394 1.516 . S
C1394 C1393 1.516 . S
C1394 C1395 1.502 . S
C1394 C1396 1.561 . S
C1394 C1397 1.526 . S
C1395 H1379 0.959 . S
C1395 H1380 0.959 . S
C1395 H1381 0.961 . S
C1395 C1394 1.502 . S
C1396 H1382 0.960 . S
C1396 H1383 0.961 . S
C1396 H1384 0.959 . S
C1396 C1394 1.561 . S
C1397 C1394 1.526 . S
C1397 C1398 1.396 1_545 S
C1397 C1402 1.390 . S
C1398 C1392 1.469 . S
C1398 C1397 1.396 1_565 S
C1398 C1399 1.399 . S
C1399 H1385 0.929 . S
C1399 C1398 1.399 . S
C1399 C1400 1.385 . S
C1400 H1386 0.931 . S
C1400 C1399 1.385 . S
C1400 C1401 1.389 . S
C1401 C1400 1.389 . S
C1401 C1402 1.387 1_565 S
C1402 H1387 0.930 . S
C1402 C1397 1.390 . S
C1402 C1401 1.387 1_545 S
H1403 C1415 0.930 . S
H1404 C1417 0.930 . S
H1405 C1418 0.930 . S
H1406 C1422 0.959 . S
H1407 C1422 0.959 . S
H1408 C1422 0.961 . S
H1409 C1423 0.960 . S
H1410 C1423 0.961 . S
H1411 C1423 0.959 . S
H1412 C1426 0.929 . S
H1413 C1427 0.931 . S
H1414 C1429 0.930 . S
C1415 H1403 0.930 . S
C1415 C1416 1.399 . S
C1415 C1420 1.399 . S
C1416 C1415 1.399 . S
C1416 C1417 1.376 . S
C1417 H1404 0.930 . S
C1417 C1416 1.376 . S
C1417 C1418 1.388 . S
C1418 H1405 0.930 . S
C1418 C1417 1.388 . S
C1418 C1419 1.390 . S
C1419 C1418 1.390 . S
C1419 C1420 1.394 . S
C1419 C1425 1.465 . S
C1420 C1415 1.399 . S
C1420 C1419 1.394 . S
C1420 C1421 1.516 . S
C1421 C1420 1.516 . S
C1421 C1422 1.502 . S
C1421 C1423 1.561 . S
C1421 C1424 1.526 . S
C1422 H1406 0.959 . S
C1422 H1407 0.959 . S
C1422 H1408 0.961 . S
C1422 C1421 1.502 . S
C1423 H1409 0.960 . S
C1423 H1410 0.961 . S
C1423 H1411 0.959 . S
C1423 C1421 1.561 . S
C1424 C1421 1.526 . S
C1424 C1425 1.396 . S
C1424 C1429 1.390 . S
C1425 C1419 1.465 . S
C1425 C1424 1.396 . S
C1425 C1426 1.399 . S
C1426 H1412 0.929 . S
C1426 C1425 1.399 . S
C1426 C1427 1.385 . S
C1427 H1413 0.931 . S
C1427 C1426 1.385 . S
C1427 C1428 1.389 . S
C1428 C1427 1.389 . S
C1428 C1429 1.387 . S
C1429 H1414 0.930 . S
C1429 C1424 1.390 . S
C1429 C1428 1.387 . S
H1430 C1442 0.930 . S
H1431 C1444 0.930 . S
H1432 C1445 0.930 . S
H1433 C1449 0.959 . S
H1434 C1449 0.959 . S
H1435 C1449 0.961 . S
H1436 C1450 0.960 . S
H1437 C1450 0.961 . S
H1438 C1450 0.959 . S
H1439 C1453 0.929 . S
H1440 C1454 0.947 . S
H1441 C1456 0.930 . S
C1442 H1430 0.930 . S
C1442 C1443 1.399 . S
C1442 C1447 1.399 . S
C1443 C1442 1.399 . S
C1443 C1444 1.376 . S
C1444 H1431 0.930 . S
C1444 C1443 1.376 . S
C1444 C1445 1.388 . S
C1445 H1432 0.930 . S
C1445 C1444 1.388 . S
C1445 C1446 1.390 . S
C1446 C1445 1.390 . S
C1446 C1447 1.394 . S
C1446 C1452 1.465 . S
C1447 C1442 1.399 . S
C1447 C1446 1.394 . S
C1447 C1448 1.516 . S
C1448 C1447 1.516 . S
C1448 C1449 1.502 . S
C1448 C1450 1.561 . S
C1448 C1451 1.526 . S
C1449 H1433 0.959 . S
C1449 H1434 0.959 . S
C1449 H1435 0.961 . S
C1449 C1448 1.502 . S
C1450 H1436 0.960 . S
C1450 H1437 0.961 . S
C1450 H1438 0.959 . S
C1450 C1448 1.561 . S
C1451 C1448 1.526 . S
C1451 C1452 1.396 . S
C1451 C1456 1.390 . S
C1452 C1446 1.465 . S
C1452 C1451 1.396 . S
C1452 C1453 1.399 . S
C1453 H1439 0.929 . S
C1453 C1452 1.399 . S
C1453 C1454 1.385 . S
C1454 H1440 0.947 . S
C1454 C1453 1.385 . S
C1454 C1455 1.389 . S
C1455 C1454 1.389 . S
C1455 C1456 1.387 . S
C1456 H1441 0.930 . S
C1456 C1451 1.390 . S
C1456 C1455 1.387 . S
H1457 C1469 0.930 . S
H1458 C1471 0.930 . S
H1459 C1472 0.930 . S
H1460 C1476 0.959 1_455 S
H1461 C1476 0.959 . S
H1462 C1476 0.961 . S
H1463 C1477 0.960 . S
H1464 C1477 0.961 . S
H1465 C1477 0.959 . S
H1466 C1480 0.929 . S
H1467 C1481 0.931 . S
H1468 C1483 0.930 1_655 S
C1469 H1457 0.930 . S
C1469 C1470 1.399 1_655 S
C1469 C1474 1.404 . S
C1470 C1469 1.399 1_455 S
C1470 C1471 1.376 . S
C1471 H1458 0.930 . S
C1471 C1470 1.376 . S
C1471 C1472 1.388 . S
C1472 H1459 0.930 . S
C1472 C1471 1.388 . S
C1472 C1473 1.390 . S
C1473 C1472 1.390 . S
C1473 C1474 1.382 1_455 S
C1473 C1479 1.465 . S
C1474 C1469 1.404 . S
C1474 C1473 1.382 1_655 S
C1474 C1475 1.522 . S
C1475 C1474 1.522 . S
C1475 C1476 1.502 . S
C1475 C1477 1.561 . S
C1475 C1478 1.526 1_655 S
C1476 H1460 0.959 1_655 S
C1476 H1461 0.959 . S
C1476 H1462 0.961 . S
C1476 C1475 1.502 . S
C1477 H1463 0.960 . S
C1477 H1464 0.961 . S
C1477 H1465 0.959 . S
C1477 C1475 1.561 . S
C1478 C1475 1.526 1_455 S
C1478 C1479 1.396 . S
C1478 C1483 1.390 . S
C1479 C1473 1.465 . S
C1479 C1478 1.396 . S
C1479 C1480 1.399 . S
C1480 H1466 0.929 . S
C1480 C1479 1.399 . S
C1480 C1481 1.385 . S
C1481 H1467 0.931 . S
C1481 C1480 1.385 . S
C1481 C1482 1.389 . S
C1482 C1481 1.389 . S
C1482 C1483 1.387 . S
C1483 H1468 0.930 1_455 S
C1483 C1478 1.390 . S
C1483 C1482 1.387 . S
H1484 C1496 0.930 . S
H1485 C1498 0.930 . S
H1486 C1499 0.930 . S
H1487 C1503 0.959 1_545 S
H1488 C1503 0.959 . S
H1489 C1503 0.961 . S
H1490 C1504 0.960 . S
H1491 C1504 0.961 . S
H1492 C1504 0.959 . S
H1493 C1507 0.936 . S
H1494 C1508 0.931 . S
H1495 C1510 0.930 . S
C1496 H1484 0.930 . S
C1496 C1497 1.399 . S
C1496 C1501 1.399 . S
C1497 C1496 1.399 . S
C1497 C1498 1.376 . S
C1498 H1485 0.930 . S
C1498 C1497 1.376 . S
C1498 C1499 1.388 . S
C1499 H1486 0.930 . S
C1499 C1498 1.388 . S
C1499 C1500 1.390 . S
C1500 C1499 1.390 . S
C1500 C1501 1.394 . S
C1500 C1506 1.465 . S
C1501 C1496 1.399 . S
C1501 C1500 1.394 . S
C1501 C1502 1.516 . S
C1502 C1501 1.516 . S
C1502 C1503 1.502 . S
C1502 C1504 1.561 . S
C1502 C1505 1.526 . S
C1503 H1487 0.959 1_565 S
C1503 H1488 0.959 . S
C1503 H1489 0.961 . S
C1503 C1502 1.502 . S
C1504 H1490 0.960 . S
C1504 H1491 0.961 . S
C1504 H1492 0.959 . S
C1504 C1502 1.561 . S
C1505 C1502 1.526 . S
C1505 C1506 1.396 . S
C1505 C1510 1.390 . S
C1506 C1500 1.465 . S
C1506 C1505 1.396 . S
C1506 C1507 1.389 1_565 S
C1507 H1493 0.936 . S
C1507 C1506 1.389 1_545 S
C1507 C1508 1.390 . S
C1508 H1494 0.931 . S
C1508 C1507 1.390 . S
C1508 C1509 1.389 1_545 S
C1509 C1508 1.389 1_565 S
C1509 C1510 1.387 . S
C1510 H1495 0.930 . S
C1510 C1505 1.390 . S
C1510 C1509 1.387 . S
H1511 C1523 0.930 . S
H1512 C1525 0.930 . S
H1513 C1526 0.930 . S
H1514 C1530 0.959 . S
H1515 C1530 0.959 . S
H1516 C1530 0.961 . S
H1517 C1531 0.960 . S
H1518 C1531 0.961 . S
H1519 C1531 0.959 . S
H1520 C1534 0.929 . S
H1521 C1535 0.931 . S
H1522 C1537 0.930 . S
C1523 H1511 0.930 . S
C1523 C1524 1.399 . S
C1523 C1528 1.399 . S
C1524 C1523 1.399 . S
C1524 C1525 1.376 . S
C1525 H1512 0.930 . S
C1525 C1524 1.376 . S
C1525 C1526 1.388 . S
C1526 H1513 0.930 . S
C1526 C1525 1.388 . S
C1526 C1527 1.390 . S
C1527 C1526 1.390 . S
C1527 C1528 1.394 . S
C1527 C1533 1.465 . S
C1528 C1523 1.399 . S
C1528 C1527 1.394 . S
C1528 C1529 1.516 . S
C1529 C1528 1.516 . S
C1529 C1530 1.502 . S
C1529 C1531 1.561 . S
C1529 C1532 1.526 . S
C1530 H1514 0.959 . S
C1530 H1515 0.959 . S
C1530 H1516 0.961 . S
C1530 C1529 1.502 . S
C1531 H1517 0.960 . S
C1531 H1518 0.961 . S
C1531 H1519 0.959 . S
C1531 C1529 1.561 . S
C1532 C1529 1.526 . S
C1532 C1533 1.396 . S
C1532 C1537 1.390 . S
C1533 C1527 1.465 . S
C1533 C1532 1.396 . S
C1533 C1534 1.399 . S
C1534 H1520 0.929 . S
C1534 C1533 1.399 . S
C1534 C1535 1.385 . S
C1535 H1521 0.931 . S
C1535 C1534 1.385 . S
C1535 C1536 1.389 . S
C1536 C1535 1.389 . S
C1536 C1537 1.387 . S
C1537 H1522 0.930 . S
C1537 C1532 1.390 . S
C1537 C1536 1.387 . S
H1538 C1550 0.930 . S
H1539 C1552 0.930 . S
H1540 C1553 0.930 . S
H1541 C1557 0.959 . S
H1542 C1557 0.959 . S
H1543 C1557 0.961 . S
H1544 C1558 0.960 . S
H1545 C1558 0.961 . S
H1546 C1558 0.959 . S
H1547 C1561 0.929 . S
H1548 C1562 0.931 . S
H1549 C1564 0.930 . S
C1550 H1538 0.930 . S
C1550 C1551 1.399 . S
C1550 C1555 1.399 . S
C1551 C1550 1.399 . S
C1551 C1552 1.376 . S
C1552 H1539 0.930 . S
C1552 C1551 1.376 . S
C1552 C1553 1.388 . S
C1553 H1540 0.930 . S
C1553 C1552 1.388 . S
C1553 C1554 1.390 . S
C1554 C1553 1.390 . S
C1554 C1555 1.394 . S
C1554 C1560 1.465 . S
C1555 C1550 1.399 . S
C1555 C1554 1.394 . S
C1555 C1556 1.516 . S
C1556 C1555 1.516 . S
C1556 C1557 1.502 . S
C1556 C1558 1.561 . S
C1556 C1559 1.526 . S
C1557 H1541 0.959 . S
C1557 H1542 0.959 . S
C1557 H1543 0.961 . S
C1557 C1556 1.502 . S
C1558 H1544 0.960 . S
C1558 H1545 0.961 . S
C1558 H1546 0.959 . S
C1558 C1556 1.561 . S
C1559 C1556 1.526 . S
C1559 C1560 1.396 . S
C1559 C1564 1.390 . S
C1560 C1554 1.465 . S
C1560 C1559 1.396 . S
C1560 C1561 1.399 . S
C1561 H1547 0.929 . S
C1561 C1560 1.399 . S
C1561 C1562 1.385 . S
C1562 H1548 0.931 . S
C1562 C1561 1.385 . S
C1562 C1563 1.389 . S
C1563 C1562 1.389 . S
C1563 C1564 1.387 . S
C1564 H1549 0.930 . S
C1564 C1559 1.390 . S
C1564 C1563 1.387 . S
H1565 C1577 0.918 1_455 S
H1566 C1579 0.930 . S
H1567 C1580 0.930 . S
H1568 C1584 0.959 . S
H1569 C1584 0.959 . S
H1570 C1584 0.961 . S
H1571 C1585 0.960 . S
H1572 C1585 0.961 . S
H1573 C1585 0.959 . S
H1574 C1588 0.929 . S
H1575 C1589 0.931 . S
H1576 C1591 0.930 . S
C1577 H1565 0.918 1_655 S
C1577 C1578 1.399 . S
C1577 C1582 1.399 . S
C1578 C1577 1.399 . S
C1578 C1579 1.376 . S
C1579 H1566 0.930 . S
C1579 C1578 1.376 . S
C1579 C1580 1.388 . S
C1580 H1567 0.930 . S
C1580 C1579 1.388 . S
C1580 C1581 1.390 . S
C1581 C1580 1.390 . S
C1581 C1582 1.394 . S
C1581 C1587 1.465 . S
C1582 C1577 1.399 . S
C1582 C1581 1.394 . S
C1582 C1583 1.516 1_655 S
C1583 C1582 1.516 1_455 S
C1583 C1584 1.502 . S
C1583 C1585 1.561 1_455 S
C1583 C1586 1.526 1_455 S
C1584 H1568 0.959 . S
C1584 H1569 0.959 . S
C1584 H1570 0.961 . S
C1584 C1583 1.502 . S
C1585 H1571 0.960 . S
C1585 H1572 0.961 . S
C1585 H1573 0.959 . S
C1585 C1583 1.561 1_655 S
C1586 C1583 1.526 1_655 S
C1586 C1587 1.396 . S
C1586 C1591 1.390 1_655 S
C1587 C1581 1.465 . S
C1587 C1586 1.396 . S
C1587 C1588 1.399 . S
C1588 H1574 0.929 . S
C1588 C1587 1.399 . S
C1588 C1589 1.385 . S
C1589 H1575 0.931 . S
C1589 C1588 1.385 . S
C1589 C1590 1.389 . S
C1590 C1589 1.389 . S
C1590 C1591 1.387 1_655 S
C1591 H1576 0.930 . S
C1591 C1586 1.390 1_455 S
C1591 C1590 1.387 1_455 S
H1592 C1604 0.930 1_554 S
H1593 C1606 0.930 . S
H1594 C1607 0.930 . S
H1595 C1611 0.959 . S
H1596 C1611 0.959 . S
H1597 C1611 0.961 . S
H1598 C1612 0.960 . S
H1599 C1612 0.961 . S
H1600 C1612 0.959 1_565 S
H1601 C1615 0.929 . S
H1602 C1616 0.931 1_556 S
H1603 C1618 0.924 1_545 S
C1604 H1592 0.930 1_556 S
C1604 C1605 1.399 . S
C1604 C1609 1.399 1_556 S
C1605 C1604 1.399 . S
C1605 C1606 1.376 1_545 S
C1606 H1593 0.930 . S
C1606 C1605 1.376 1_565 S
C1606 C1607 1.388 . S
C1607 H1594 0.930 . S
C1607 C1606 1.388 . S
C1607 C1608 1.390 . S
C1608 C1607 1.390 . S
C1608 C1609 1.394 1_566 S
C1608 C1614 1.465 . S
C1609 C1604 1.399 1_554 S
C1609 C1608 1.394 1_544 S
C1609 C1610 1.516 . S
C1610 C1609 1.516 . S
C1610 C1611 1.502 . S
C1610 C1612 1.561 . S
C1610 C1613 1.526 . S
C1611 H1595 0.959 . S
C1611 H1596 0.959 . S
C1611 H1597 0.961 . S
C1611 C1610 1.502 . S
C1612 H1598 0.960 . S
C1612 H1599 0.961 . S
C1612 H1600 0.959 1_545 S
C1612 C1610 1.561 . S
C1613 C1610 1.526 . S
C1613 C1614 1.396 1_544 S
C1613 C1618 1.389 1_545 S
C1614 C1608 1.465 . S
C1614 C1613 1.396 1_566 S
C1614 C1615 1.399 . S
C1615 H1601 0.929 . S
C1615 C1614 1.399 . S
C1615 C1616 1.385 1_556 S
C1616 H1602 0.931 1_554 S
C1616 C1615 1.385 1_554 S
C1616 C1617 1.389 . S
C1617 C1616 1.389 . S
C1617 C1618 1.394 . S
C1618 H1603 0.924 1_565 S
C1618 C1613 1.389 1_565 S
C1618 C1617 1.394 . S
H1619 C1631 0.930 . S
H1620 C1633 0.930 . S
H1621 C1634 0.930 . S
H1622 C1638 0.959 . S
H1623 C1638 0.959 . S
H1624 C1638 0.961 . S
H1625 C1639 0.960 . S
H1626 C1639 0.961 . S
H1627 C1639 0.959 . S
H1628 C1642 0.929 . S
H1629 C1643 0.931 . S
H1630 C1645 0.930 . S
C1631 H1619 0.930 . S
C1631 C1632 1.399 1_554 S
C1631 C1636 1.399 . S
C1632 C1631 1.399 1_556 S
C1632 C1633 1.376 . S
C1633 H1620 0.930 . S
C1633 C1632 1.376 . S
C1633 C1634 1.388 . S
C1634 H1621 0.930 . S
C1634 C1633 1.388 . S
C1634 C1635 1.390 . S
C1635 C1634 1.390 . S
C1635 C1636 1.394 1_556 S
C1635 C1641 1.465 . S
C1636 C1631 1.399 . S
C1636 C1635 1.394 1_554 S
C1636 C1637 1.516 . S
C1637 C1636 1.516 . S
C1637 C1638 1.502 . S
C1637 C1639 1.561 . S
C1637 C1640 1.526 . S
C1638 H1622 0.959 . S
C1638 H1623 0.959 . S
C1638 H1624 0.961 . S
C1638 C1637 1.502 . S
C1639 H1625 0.960 . S
C1639 H1626 0.961 . S
C1639 H1627 0.959 . S
C1639 C1637 1.561 . S
C1640 C1637 1.526 . S
C1640 C1641 1.396 1_554 S
C1640 C1645 1.390 . S
C1641 C1635 1.465 . S
C1641 C1640 1.396 1_556 S
C1641 C1642 1.399 . S
C1642 H1628 0.929 . S
C1642 C1641 1.399 . S
C1642 C1643 1.385 . S
C1643 H1629 0.931 . S
C1643 C1642 1.385 . S
C1643 C1644 1.389 1_556 S
C1644 C1643 1.389 1_554 S
C1644 C1645 1.387 . S
C1645 H1630 0.930 . S
C1645 C1640 1.390 . S
C1645 C1644 1.387 . S
H1646 C1658 0.930 . S
H1647 C1660 0.930 . S
H1648 C1661 0.930 . S
H1649 C1665 0.959 . S
H1650 C1665 0.959 . S
H1651 C1665 0.961 . S
H1652 C1666 0.960 . S
H1653 C1666 0.961 1_455 S
H1654 C1666 0.959 . S
H1655 C1669 0.929 . S
H1656 C1670 0.931 . S
H1657 C1672 0.930 . S
C1658 H1646 0.930 . S
C1658 C1659 1.399 . S
C1658 C1663 1.399 . S
C1659 C1658 1.399 . S
C1659 C1660 1.376 1_554 S
C1660 H1647 0.930 . S
C1660 C1659 1.376 1_556 S
C1660 C1661 1.388 . S
C1661 H1648 0.930 . S
C1661 C1660 1.388 . S
C1661 C1662 1.390 . S
C1662 C1661 1.390 . S
C1662 C1663 1.394 1_556 S
C1662 C1668 1.465 1_655 S
C1663 C1658 1.399 . S
C1663 C1662 1.394 1_554 S
C1663 C1664 1.516 1_655 S
C1664 C1663 1.516 1_455 S
C1664 C1665 1.502 . S
C1664 C1666 1.561 1_455 S
C1664 C1667 1.526 . S
C1665 H1649 0.959 . S
C1665 H1650 0.959 . S
C1665 H1651 0.961 . S
C1665 C1664 1.502 . S
C1666 H1652 0.960 . S
C1666 H1653 0.961 1_655 S
C1666 H1654 0.959 . S
C1666 C1664 1.561 1_655 S
C1667 C1664 1.526 . S
C1667 C1668 1.396 1_554 S
C1667 C1672 1.390 . S
C1668 C1662 1.465 1_455 S
C1668 C1667 1.396 1_556 S
C1668 C1669 1.399 . S
C1669 H1655 0.929 . S
C1669 C1668 1.399 . S
C1669 C1670 1.385 . S
C1670 H1656 0.931 . S
C1670 C1669 1.385 . S
C1670 C1671 1.389 . S
C1671 C1670 1.389 . S
C1671 C1672 1.387 1_556 S
C1672 H1657 0.930 . S
C1672 C1667 1.390 . S
C1672 C1671 1.387 1_554 S
H1673 C1685 0.930 . S
H1674 C1687 0.930 . S
H1675 C1688 0.930 . S
H1676 C1692 0.959 . S
H1677 C1692 0.959 . S
H1678 C1692 0.961 1_545 S
H1679 C1693 0.948 1_455 S
H1680 C1693 0.957 1_455 S
H1681 C1693 0.991 . S
H1682 C1696 0.929 . S
H1683 C1697 0.931 . S
H1684 C1699 0.930 1_455 S
C1685 H1673 0.930 . S
C1685 C1686 1.399 1_554 S
C1685 C1690 1.399 . S
C1686 C1685 1.399 1_556 S
C1686 C1687 1.376 1_455 S
C1687 H1674 0.930 . S
C1687 C1686 1.376 1_655 S
C1687 C1688 1.388 . S
C1688 H1675 0.930 . S
C1688 C1687 1.388 . S
C1688 C1689 1.390 . S
C1689 C1688 1.390 . S
C1689 C1690 1.394 1_656 S
C1689 C1695 1.465 1_545 S
C1690 C1685 1.399 . S
C1690 C1689 1.394 1_454 S
C1690 C1691 1.516 . S
C1691 C1690 1.516 . S
C1691 C1692 1.502 1_545 S
C1691 C1693 1.546 1_455 S
C1691 C1694 1.517 1_445 S
C1692 H1676 0.959 . S
C1692 H1677 0.959 . S
C1692 H1678 0.961 1_565 S
C1692 C1691 1.502 1_565 S
C1693 H1679 0.948 1_655 S
C1693 H1680 0.957 1_655 S
C1693 H1681 0.991 . S
C1693 C1691 1.546 1_655 S
C1694 C1691 1.517 1_665 S
C1694 C1695 1.405 1_554 S
C1694 C1699 1.391 . S
C1695 C1689 1.465 1_565 S
C1695 C1694 1.405 1_556 S
C1695 C1696 1.399 . S
C1696 H1682 0.929 . S
C1696 C1695 1.399 . S
C1696 C1697 1.385 . S
C1697 H1683 0.931 . S
C1697 C1696 1.385 . S
C1697 C1698 1.389 1_556 S
C1698 C1697 1.389 1_554 S
C1698 C1699 1.387 . S
C1699 H1684 0.930 1_655 S
C1699 C1694 1.391 . S
C1699 C1698 1.387 . S
H1700 C1712 0.930 . S
H1701 C1714 0.930 . S
H1702 C1715 0.930 . S
H1703 C1719 0.959 . S
H1704 C1719 0.959 1_655 S
H1705 C1719 0.961 . S
H1706 C1720 0.960 1_455 S
H1707 C1720 0.961 . S
H1708 C1720 0.959 . S
H1709 C1723 0.929 . S
H1710 C1724 0.931 . S
H1711 C1726 0.930 . S
C1712 H1700 0.930 . S
C1712 C1713 1.399 . S
C1712 C1717 1.399 . S
C1713 C1712 1.399 . S
C1713 C1714 1.376 1_545 S
C1714 H1701 0.930 . S
C1714 C1713 1.376 1_565 S
C1714 C1715 1.388 . S
C1715 H1702 0.930 . S
C1715 C1714 1.388 . S
C1715 C1716 1.390 . S
C1716 C1715 1.390 . S
C1716 C1717 1.394 1_565 S
C1716 C1722 1.465 1_455 S
C1717 C1712 1.399 . S
C1717 C1716 1.394 1_545 S
C1717 C1718 1.516 1_455 S
C1718 C1717 1.516 1_655 S
C1718 C1719 1.502 1_655 S
C1718 C1720 1.561 . S
C1718 C1721 1.526 . S
C1719 H1703 0.959 . S
C1719 H1704 0.959 1_455 S
C1719 H1705 0.961 . S
C1719 C1718 1.502 1_455 S
C1720 H1706 0.960 1_655 S
C1720 H1707 0.961 . S
C1720 H1708 0.959 . S
C1720 C1718 1.561 . S
C1721 C1718 1.526 . S
C1721 C1722 1.396 1_545 S
C1721 C1726 1.390 . S
C1722 C1716 1.465 1_655 S
C1722 C1721 1.396 1_565 S
C1722 C1723 1.399 . S
C1723 H1709 0.929 . S
C1723 C1722 1.399 . S
C1723 C1724 1.385 . S
C1724 H1710 0.931 . S
C1724 C1723 1.385 . S
C1724 C1725 1.389 . S
C1725 C1724 1.389 . S
C1725 C1726 1.387 1_565 S
C1726 H1711 0.930 . S
C1726 C1721 1.390 . S
C1726 C1725 1.387 1_545 S
H1727 C1739 0.930 . S
H1728 C1741 0.930 . S
H1729 C1742 0.930 . S
H1730 C1746 0.959 1_545 S
H1731 C1746 0.959 . S
H1732 C1746 0.961 . S
H1733 C1747 0.960 . S
H1734 C1747 0.961 . S
H1735 C1747 0.959 . S
H1736 C1750 0.929 . S
H1737 C1751 0.931 . S
H1738 C1753 0.930 . S
C1739 H1727 0.930 . S
C1739 C1740 1.399 . S
C1739 C1744 1.399 . S
C1740 C1739 1.399 . S
C1740 C1741 1.376 . S
C1741 H1728 0.930 . S
C1741 C1740 1.376 . S
C1741 C1742 1.388 . S
C1742 H1729 0.930 . S
C1742 C1741 1.388 . S
C1742 C1743 1.390 . S
C1743 C1742 1.390 . S
C1743 C1744 1.394 . S
C1743 C1749 1.465 1_565 S
C1744 C1739 1.399 . S
C1744 C1743 1.394 . S
C1744 C1745 1.516 . S
C1745 C1744 1.516 . S
C1745 C1746 1.502 . S
C1745 C1747 1.561 . S
C1745 C1748 1.526 1_565 S
C1746 H1730 0.959 1_565 S
C1746 H1731 0.959 . S
C1746 H1732 0.961 . S
C1746 C1745 1.502 . S
C1747 H1733 0.960 . S
C1747 H1734 0.961 . S
C1747 H1735 0.959 . S
C1747 C1745 1.561 . S
C1748 C1745 1.526 1_545 S
C1748 C1749 1.396 . S
C1748 C1753 1.390 . S
C1749 C1743 1.465 1_545 S
C1749 C1748 1.396 . S
C1749 C1750 1.399 . S
C1750 H1736 0.929 . S
C1750 C1749 1.399 . S
C1750 C1751 1.385 . S
C1751 H1737 0.931 . S
C1751 C1750 1.385 . S
C1751 C1752 1.389 . S
C1752 C1751 1.389 . S
C1752 C1753 1.387 . S
C1753 H1738 0.930 . S
C1753 C1748 1.390 . S
C1753 C1752 1.387 . S
H1754 C1766 0.930 . S
H1755 C1768 0.930 . S
H1756 C1769 0.930 . S
H1757 C1773 0.959 . S
H1758 C1773 0.959 . S
H1759 C1773 0.961 . S
H1760 C1774 0.960 . S
H1761 C1774 0.961 . S
H1762 C1774 0.959 . S
H1763 C1777 0.929 . S
H1764 C1778 0.931 . S
H1765 C1780 0.930 . S
C1766 H1754 0.930 . S
C1766 C1767 1.399 . S
C1766 C1771 1.399 . S
C1767 C1766 1.399 . S
C1767 C1768 1.376 . S
C1768 H1755 0.930 . S
C1768 C1767 1.376 . S
C1768 C1769 1.388 . S
C1769 H1756 0.930 . S
C1769 C1768 1.388 . S
C1769 C1770 1.390 . S
C1770 C1769 1.390 . S
C1770 C1771 1.394 . S
C1770 C1776 1.465 . S
C1771 C1766 1.399 . S
C1771 C1770 1.394 . S
C1771 C1772 1.516 . S
C1772 C1771 1.516 . S
C1772 C1773 1.502 . S
C1772 C1774 1.561 . S
C1772 C1775 1.526 . S
C1773 H1757 0.959 . S
C1773 H1758 0.959 . S
C1773 H1759 0.961 . S
C1773 C1772 1.502 . S
C1774 H1760 0.960 . S
C1774 H1761 0.961 . S
C1774 H1762 0.959 . S
C1774 C1772 1.561 . S
C1775 C1772 1.526 . S
C1775 C1776 1.396 . S
C1775 C1780 1.390 . S
C1776 C1770 1.465 . S
C1776 C1775 1.396 . S
C1776 C1777 1.399 . S
C1777 H1763 0.929 . S
C1777 C1776 1.399 . S
C1777 C1778 1.385 . S
C1778 H1764 0.931 . S
C1778 C1777 1.385 . S
C1778 C1779 1.389 . S
C1779 C1778 1.389 . S
C1779 C1780 1.387 . S
C1780 H1765 0.930 . S
C1780 C1775 1.390 . S
C1780 C1779 1.387 . S
H1781 C1793 0.930 1_455 S
H1782 C1795 0.930 . S
H1783 C1796 0.930 . S
H1784 C1800 0.959 . S
H1785 C1800 0.959 . S
H1786 C1800 0.961 . S
H1787 C1801 0.960 . S
H1788 C1801 0.961 1_455 S
H1789 C1801 0.959 . S
H1790 C1804 0.929 . S
H1791 C1805 0.924 1_655 S
H1792 C1807 0.930 . S
C1793 H1781 0.930 1_655 S
C1793 C1794 1.399 . S
C1793 C1798 1.399 . S
C1794 C1793 1.399 . S
C1794 C1795 1.376 . S
C1795 H1782 0.930 . S
C1795 C1794 1.376 . S
C1795 C1796 1.388 . S
C1796 H1783 0.930 . S
C1796 C1795 1.388 . S
C1796 C1797 1.390 . S
C1797 C1796 1.390 . S
C1797 C1798 1.394 . S
C1797 C1803 1.465 . S
C1798 C1793 1.399 . S
C1798 C1797 1.394 . S
C1798 C1799 1.516 1_655 S
C1799 C1798 1.516 1_455 S
C1799 C1800 1.502 . S
C1799 C1801 1.561 1_455 S
C1799 C1802 1.526 . S
C1800 H1784 0.959 . S
C1800 H1785 0.959 . S
C1800 H1786 0.961 . S
C1800 C1799 1.502 . S
C1801 H1787 0.960 . S
C1801 H1788 0.961 1_655 S
C1801 H1789 0.959 . S
C1801 C1799 1.561 1_655 S
C1802 C1799 1.526 . S
C1802 C1803 1.396 1_455 S
C1802 C1807 1.390 . S
C1803 C1797 1.465 . S
C1803 C1802 1.396 1_655 S
C1803 C1804 1.399 . S
C1804 H1790 0.929 . S
C1804 C1803 1.399 . S
C1804 C1805 1.370 1_655 S
C1805 H1791 0.924 1_455 S
C1805 C1804 1.370 1_455 S
C1805 C1806 1.413 . S
C1806 C1805 1.413 . S
C1806 C1807 1.387 . S
C1807 H1792 0.930 . S
C1807 C1802 1.390 . S
C1807 C1806 1.387 . S
C957 C347 0.566 . S
C969 C52 0.597 . S
C984 C406 0.762 . S
C996 C111 0.769 . S
C1011 C170 0.591 . S
C1023 C465 0.561 . S
C1038 C229 0.348 . S
C1050 C288 0.436 . S
C1065 C524 0.579 . S
C1077 C819 0.565 . S
C1092 C878 0.761 . S
C1104 C583 0.761 . S
C1119 C937 0.611 . S
C1131 C642 0.556 . S
C1146 C701 0.374 . S
C1158 C760 0.378 . S
C1173 C5 1.535 1_565 S
C1185 C711 1.491 . S
C1200 C770 1.688 . S
C1212 C64 1.759 1_556 S
C1227 C123 1.816 1_556 S
C1239 C829 1.702 . S
C1254 C182 1.584 . S
C1266 C888 1.569 . S
C1281 C241 1.592 . S
C1293 C475 1.548 . S
C1308 C300 1.818 . S
C1320 C534 1.697 . S
C1335 C359 1.765 . S
C1347 C593 1.640 . S
C1362 C418 1.520 1_455 S
C1374 C652 1.510 . S
C1389 C239 1.448 . S
C1401 C477 1.554 . S
C1416 C298 1.704 . S
C1428 C536 1.752 1_554 S
C1443 C357 1.698 . S
C1455 C595 1.816 1_554 S
C1470 C654 1.590 . S
C1482 C416 1.568 . S
C1497 C3 1.561 . S
C1509 C713 1.593 . S
C1524 C772 1.806 . S
C1536 C62 1.765 . S
C1551 C831 1.774 . S
C1563 C121 1.621 . S
C1578 C180 1.515 . S
C1590 C890 1.522 1_655 S
C1605 C505 1.436 . S
C1617 C33 1.526 . S
C1632 C564 1.668 . S
C1644 C92 1.756 . S
C1659 C151 1.974 . S
C1671 C623 1.959 . S
C1686 C682 1.639 . S
C1698 C210 1.708 . S
C1713 C269 1.650 . S
C1725 C741 1.709 . S
C1740 C800 1.952 . S
C1752 C328 1.981 . S
C1767 C859 1.667 . S
C1779 C387 1.763 . S
C1794 C918 1.524 . S
C1806 C446 1.448 . S
