# Generated by pormake.
# Topology whk, (6)-cn, num edge types: 1
# Building blocks:
#     Node 0, Type 0, BuildingBlock: VOLQOD_clean_sbu_1, # of connection points: 6
#     Node 1, Type 0, BuildingBlock: VOLQOD_clean_sbu_1, # of connection points: 6
#     Node 2, Type 0, BuildingBlock: VOLQOD_clean_sbu_1, # of connection points: 6
#     Node 3, Type 0, BuildingBlock: VOLQOD_clean_sbu_1, # of connection points: 6
#     Node 4, Type 0, BuildingBlock: VOLQOD_clean_sbu_1, # of connection points: 6
#     Node 5, Type 0, BuildingBlock: VOLQOD_clean_sbu_1, # of connection points: 6
#     Node 6, Type 0, BuildingBlock: VOLQOD_clean_sbu_1, # of connection points: 6
#     Node 7, Type 0, BuildingBlock: VOLQOD_clean_sbu_1, # of connection points: 6
#     Node 8, Type 0, BuildingBlock: VOLQOD_clean_sbu_1, # of connection points: 6
#     Node 9, Type 0, BuildingBlock: VOLQOD_clean_sbu_1, # of connection points: 6
#     Node 10, Type 0, BuildingBlock: VOLQOD_clean_sbu_1, # of connection points: 6
#     Node 11, Type 0, BuildingBlock: VOLQOD_clean_sbu_1, # of connection points: 6
#     Node 12, Type 0, BuildingBlock: VOLQOD_clean_sbu_1, # of connection points: 6
#     Node 13, Type 0, BuildingBlock: VOLQOD_clean_sbu_1, # of connection points: 6
#     Node 14, Type 0, BuildingBlock: VOLQOD_clean_sbu_1, # of connection points: 6
#     Node 15, Type 0, BuildingBlock: VOLQOD_clean_sbu_1, # of connection points: 6
#     Edge 16, Type (0, 0), BuildingBlock: KIFKEQ_clean_linker_1, # of connection points: 2
#     Edge 17, Type (0, 0), BuildingBlock: KIFKEQ_clean_linker_1, # of connection points: 2
#     Edge 18, Type (0, 0), BuildingBlock: KIFKEQ_clean_linker_1, # of connection points: 2
#     Edge 19, Type (0, 0), BuildingBlock: KIFKEQ_clean_linker_1, # of connection points: 2
#     Edge 20, Type (0, 0), BuildingBlock: KIFKEQ_clean_linker_1, # of connection points: 2
#     Edge 21, Type (0, 0), BuildingBlock: KIFKEQ_clean_linker_1, # of connection points: 2
#     Edge 22, Type (0, 0), BuildingBlock: KIFKEQ_clean_linker_1, # of connection points: 2
#     Edge 23, Type (0, 0), BuildingBlock: KIFKEQ_clean_linker_1, # of connection points: 2
#     Edge 24, Type (0, 0), BuildingBlock: KIFKEQ_clean_linker_1, # of connection points: 2
#     Edge 25, Type (0, 0), BuildingBlock: KIFKEQ_clean_linker_1, # of connection points: 2
#     Edge 26, Type (0, 0), BuildingBlock: KIFKEQ_clean_linker_1, # of connection points: 2
#     Edge 27, Type (0, 0), BuildingBlock: KIFKEQ_clean_linker_1, # of connection points: 2
#     Edge 28, Type (0, 0), BuildingBlock: KIFKEQ_clean_linker_1, # of connection points: 2
#     Edge 29, Type (0, 0), BuildingBlock: KIFKEQ_clean_linker_1, # of connection points: 2
#     Edge 30, Type (0, 0), BuildingBlock: KIFKEQ_clean_linker_1, # of connection points: 2
#     Edge 31, Type (0, 0), BuildingBlock: KIFKEQ_clean_linker_1, # of connection points: 2
#     Edge 32, Type (0, 0), BuildingBlock: KIFKEQ_clean_linker_1, # of connection points: 2
#     Edge 33, Type (0, 0), BuildingBlock: KIFKEQ_clean_linker_1, # of connection points: 2
#     Edge 34, Type (0, 0), BuildingBlock: KIFKEQ_clean_linker_1, # of connection points: 2
#     Edge 35, Type (0, 0), BuildingBlock: KIFKEQ_clean_linker_1, # of connection points: 2
#     Edge 36, Type (0, 0), BuildingBlock: KIFKEQ_clean_linker_1, # of connection points: 2
#     Edge 37, Type (0, 0), BuildingBlock: KIFKEQ_clean_linker_1, # of connection points: 2
#     Edge 38, Type (0, 0), BuildingBlock: KIFKEQ_clean_linker_1, # of connection points: 2
#     Edge 39, Type (0, 0), BuildingBlock: KIFKEQ_clean_linker_1, # of connection points: 2
#     Edge 40, Type (0, 0), BuildingBlock: KIFKEQ_clean_linker_1, # of connection points: 2
#     Edge 41, Type (0, 0), BuildingBlock: KIFKEQ_clean_linker_1, # of connection points: 2
#     Edge 42, Type (0, 0), BuildingBlock: KIFKEQ_clean_linker_1, # of connection points: 2
#     Edge 43, Type (0, 0), BuildingBlock: KIFKEQ_clean_linker_1, # of connection points: 2
#     Edge 44, Type (0, 0), BuildingBlock: KIFKEQ_clean_linker_1, # of connection points: 2
#     Edge 45, Type (0, 0), BuildingBlock: KIFKEQ_clean_linker_1, # of connection points: 2
#     Edge 46, Type (0, 0), BuildingBlock: KIFKEQ_clean_linker_1, # of connection points: 2
#     Edge 47, Type (0, 0), BuildingBlock: KIFKEQ_clean_linker_1, # of connection points: 2
#     Edge 48, Type (0, 0), BuildingBlock: KIFKEQ_clean_linker_1, # of connection points: 2
#     Edge 49, Type (0, 0), BuildingBlock: KIFKEQ_clean_linker_1, # of connection points: 2
#     Edge 50, Type (0, 0), BuildingBlock: KIFKEQ_clean_linker_1, # of connection points: 2
#     Edge 51, Type (0, 0), BuildingBlock: KIFKEQ_clean_linker_1, # of connection points: 2
#     Edge 52, Type (0, 0), BuildingBlock: KIFKEQ_clean_linker_1, # of connection points: 2
#     Edge 53, Type (0, 0), BuildingBlock: KIFKEQ_clean_linker_1, # of connection points: 2
#     Edge 54, Type (0, 0), BuildingBlock: KIFKEQ_clean_linker_1, # of connection points: 2
#     Edge 55, Type (0, 0), BuildingBlock: KIFKEQ_clean_linker_1, # of connection points: 2
#     Edge 56, Type (0, 0), BuildingBlock: KIFKEQ_clean_linker_1, # of connection points: 2
#     Edge 57, Type (0, 0), BuildingBlock: KIFKEQ_clean_linker_1, # of connection points: 2
#     Edge 58, Type (0, 0), BuildingBlock: KIFKEQ_clean_linker_1, # of connection points: 2
#     Edge 59, Type (0, 0), BuildingBlock: KIFKEQ_clean_linker_1, # of connection points: 2
#     Edge 60, Type (0, 0), BuildingBlock: KIFKEQ_clean_linker_1, # of connection points: 2
#     Edge 61, Type (0, 0), BuildingBlock: KIFKEQ_clean_linker_1, # of connection points: 2
#     Edge 62, Type (0, 0), BuildingBlock: KIFKEQ_clean_linker_1, # of connection points: 2
#     Edge 63, Type (0, 0), BuildingBlock: KIFKEQ_clean_linker_1, # of connection points: 2
# Relax obj value: 0.405
# Max RMSD: 0.246
# Mean RMSD: 0.242
data_MOF--net-whk--node1-VOLQOD_clean_sbu_1--edge1-KIFKEQ_clean_linker_1
_symmetry_space_group_name_H-M    P1
_symmetry_Int_Tables_number       1
_symmetry_cell_setting            triclinic
loop_
_symmetry_equiv_pos_as_xyz
'x, y, z'
_cell_length_a     38.011609
_cell_length_b     37.98484
_cell_length_c     55.669967
_cell_angle_alpha  90.100019
_cell_angle_beta   90.022693
_cell_angle_gamma 89.878653
loop_
_atom_site_label
_atom_site_type_symbol
_atom_site_fract_x
_atom_site_fract_y
_atom_site_fract_z
_atom_type_partial_charge
O0 O 0.57159 0.20578 0.44278 0.0
Zn1 Zn 0.56548 0.20146 0.40719 0.0
O2 O 0.54646 0.15722 0.39821 0.0
Zn3 Zn 0.58292 0.12848 0.38472 0.0
Zn4 Zn 0.52776 0.13793 0.42749 0.0
Zn5 Zn 0.51168 0.16347 0.37375 0.0
O6 O 0.56621 0.10373 0.35485 0.0
O7 O 0.5301 0.14551 0.34145 0.0
O8 O 0.60944 0.21106 0.3896 0.0
O9 O 0.622 0.15945 0.37297 0.0
O10 O 0.60279 0.09683 0.41045 0.0
O11 O 0.56464 0.10395 0.44045 0.0
O12 O 0.48078 0.11408 0.41993 0.0
O13 O 0.53189 0.23888 0.39841 0.0
O14 O 0.4718 0.13263 0.38245 0.0
O15 O 0.49321 0.21398 0.37376 0.0
C16 C 0.54714 0.19935 0.45775 0.0
C17 C 0.549 0.11809 0.33775 0.0
C18 C 0.59304 0.09072 0.43198 0.0
C19 C 0.62863 0.19193 0.37621 0.0
C20 C 0.46236 0.11482 0.40068 0.0
C21 C 0.50465 0.24071 0.38528 0.0
O22 O 0.5229 0.17718 0.45287 0.0
O23 O 0.26768 0.57652 0.43132 0.0
Zn24 Zn 0.282 0.56896 0.39715 0.0
O25 O 0.32765 0.54839 0.39581 0.0
Zn26 Zn 0.36141 0.58163 0.38351 0.0
Zn27 Zn 0.34031 0.5318 0.42747 0.0
Zn28 Zn 0.32555 0.51055 0.37341 0.0
O29 O 0.3875 0.56132 0.35505 0.0
O30 O 0.34537 0.52584 0.34152 0.0
O31 O 0.27998 0.61298 0.37782 0.0
O32 O 0.33628 0.62375 0.36997 0.0
O33 O 0.39219 0.59973 0.41036 0.0
O34 O 0.37498 0.56688 0.44126 0.0
O35 O 0.36361 0.4831 0.42469 0.0
O36 O 0.24575 0.53578 0.38509 0.0
O37 O 0.35703 0.47339 0.38539 0.0
O38 O 0.27644 0.49017 0.37155 0.0
C39 C 0.27216 0.55616 0.44926 0.0
C40 C 0.37363 0.54327 0.33815 0.0
C41 C 0.39332 0.59202 0.43265 0.0
C42 C 0.30388 0.63179 0.36832 0.0
C43 C 0.36922 0.46473 0.40579 0.0
C44 C 0.24715 0.50473 0.37665 0.0
O45 O 0.29696 0.53329 0.44947 0.0
O46 O 0.92271 0.27258 0.44504 0.0
Zn47 Zn 0.92257 0.28183 0.40984 0.0
O48 O 0.94092 0.32693 0.40213 0.0
Zn49 Zn 0.90404 0.35575 0.38894 0.0
Zn50 Zn 0.95929 0.34721 0.43148 0.0
Zn51 Zn 0.97546 0.32191 0.37719 0.0
O52 O 0.92029 0.38206 0.35967 0.0
O53 O 0.95641 0.34081 0.34558 0.0
O54 O 0.87633 0.2738 0.39467 0.0
O55 O 0.86533 0.32475 0.37674 0.0
O56 O 0.88331 0.3864 0.41488 0.0
O57 O 0.92155 0.38015 0.44486 0.0
O58 O 0.00562 0.37242 0.42354 0.0
O59 O 0.95366 0.24507 0.39693 0.0
O60 O 0.0145 0.35372 0.38594 0.0
O61 O -0.00584 0.27143 0.37471 0.0
C62 C 0.9453 0.28233 0.46054 0.0
C63 C 0.93754 0.36831 0.34237 0.0
C64 C 0.89278 0.39262 0.43645 0.0
C65 C 0.85761 0.29277 0.38089 0.0
C66 C 0.02354 0.37202 0.40407 0.0
C67 C 0.98096 0.24368 0.38389 0.0
O68 O 0.96558 0.30857 0.45688 0.0
O69 O 0.14839 0.94497 0.34162 0.0
Zn70 Zn 0.18097 0.9367 0.36971 0.0
O71 O 0.15398 0.934 0.39957 0.0
Zn72 Zn 0.16573 0.97277 0.42083 0.0
Zn73 Zn 0.10411 0.93384 0.39236 0.0
Zn74 Zn 0.16579 0.89188 0.41613 0.0
O75 O 0.1825 0.95719 0.45399 0.0
O76 O 0.1965 0.90217 0.44446 0.0
O77 O 0.21997 0.97276 0.37235 0.0
O78 O 0.20835 -0.00373 0.40801 0.0
O79 O 0.12719 0.00933 0.42028 0.0
O80 O 0.0856 0.98241 0.39897 0.0
O81 O 0.07747 0.89644 0.41188 0.0
O82 O 0.20384 0.89003 0.36201 0.0
O83 O 0.12296 0.86712 0.42713 0.0
O84 O 0.1898 0.85878 0.39426 0.0
C85 C 0.11646 0.93546 0.3387 0.0
C86 C 0.19859 0.92844 0.45864 0.0
C87 C 0.09736 0.00959 0.40976 0.0
C88 C 0.22741 -0.00591 0.38932 0.0
C89 C 0.09003 0.87113 0.42431 0.0
C90 C 0.20365 0.86122 0.37359 0.0
O91 O 0.09728 0.92655 0.35653 0.0
O92 O 0.03848 0.83778 0.16791 0.0
Zn93 Zn 0.04589 0.80379 0.14057 0.0
O94 O 0.05086 0.82887 0.11016 0.0
Zn95 Zn 0.0128 0.81689 0.0886 0.0
Zn96 Zn 0.051 0.87932 0.1163 0.0
Zn97 Zn 0.09316 0.81456 0.0944 0.0
O98 O 0.02787 0.8007 0.05538 0.0
O99 O 0.08278 0.78677 0.0647 0.0
O100 O 0.00879 0.76562 0.13814 0.0
O101 O 0.989 0.77442 0.10113 0.0
O102 O 0.97691 0.85512 0.08899 0.0
O103 O 0.00219 0.89883 0.10924 0.0
O104 O 0.08985 0.90344 0.09655 0.0
O105 O 0.09066 0.77833 0.14899 0.0
O106 O 0.12128 0.85664 0.08535 0.0
O107 O 0.12191 0.78389 0.11547 0.0
C108 C 0.04904 0.86949 0.17025 0.0
C109 C 0.05668 0.78505 0.05044 0.0
C110 C 0.97555 0.88555 0.09862 0.0
C111 C 0.98931 0.75678 0.12048 0.0
C112 C 0.11687 0.88983 0.08642 0.0
C113 C 0.118 0.77202 0.1366 0.0
O114 O 0.05854 0.88765 0.15207 0.0
O115 O 0.65223 0.04107 0.1667 0.0
Zn116 Zn 0.68395 0.04676 0.13782 0.0
O117 O 0.65636 0.04398 0.10822 0.0
Zn118 Zn 0.66922 0.00204 0.0909 0.0
Zn119 Zn 0.60631 0.04515 0.11575 0.0
Zn120 Zn 0.66756 0.08233 0.08758 0.0
O121 O 0.68654 0.0108 0.05691 0.0
O122 O 0.6993 0.0676 0.06074 0.0
O123 O 0.72647 0.01371 0.13732 0.0
O124 O 0.71239 0.98244 0.10515 0.0
O125 O 0.63154 0.96591 0.09472 0.0
O126 O 0.58708 -0.00431 0.11136 0.0
O127 O 0.57972 0.08108 0.09457 0.0
O128 O 0.70272 0.09555 0.14157 0.0
O129 O 0.62431 0.10208 0.07303 0.0
O130 O 0.6895 0.12058 0.10666 0.0
C131 C 0.62006 0.05013 0.16939 0.0
C132 C 0.70188 0.03856 0.04945 0.0
C133 C 0.60059 0.96709 0.10351 0.0
C134 C 0.73333 0.9893 0.12227 0.0
C135 C 0.59169 0.1007 0.07784 0.0
C136 C 0.70217 0.12218 0.12778 0.0
O137 O 0.60021 0.05623 0.15131 0.0
O138 O 0.42082 0.71928 0.07642 0.0
Zn139 Zn 0.4192 0.70342 0.11061 0.0
O140 O 0.43981 0.65717 0.11333 0.0
Zn141 Zn 0.40544 0.62381 0.12486 0.0
Zn142 Zn 0.45865 0.64136 0.08259 0.0
Zn143 Zn 0.47575 0.66013 0.1373 0.0
O144 O 0.4229 0.59746 0.154 0.0
O145 O 0.45959 0.63797 0.16825 0.0
O146 O 0.37088 0.70507 0.1248 0.0
O147 O 0.36295 0.64979 0.1365 0.0
O148 O 0.38798 0.5929 0.09785 0.0
O149 O 0.42396 0.60681 0.0679 0.0
O150 O 0.50752 0.61863 0.08774 0.0
O151 O 0.44806 0.74011 0.12695 0.0
O152 O 0.5164 0.63248 0.1261 0.0
O153 O 0.49304 0.70989 0.14166 0.0
C154 C 0.44078 0.71082 0.05895 0.0
C155 C 0.44112 0.61028 0.17116 0.0
C156 C 0.39722 0.59023 0.07591 0.0
C157 C 0.35252 0.68155 0.13514 0.0
C158 C 0.52648 0.6178 0.10676 0.0
C159 C 0.47793 0.73905 0.13712 0.0
O160 O 0.45989 0.68307 0.05932 0.0
O161 O 0.78799 0.40381 0.07086 0.0
Zn162 Zn 0.79086 0.41437 0.10574 0.0
O163 O 0.8351 0.43399 0.11324 0.0
Zn164 Zn 0.86424 0.39925 0.12809 0.0
Zn165 Zn 0.85477 0.45033 0.08322 0.0
Zn166 Zn 0.82768 0.46999 0.13656 0.0
O167 O 0.88838 0.41881 0.15728 0.0
O168 O 0.84494 0.45392 0.16944 0.0
O169 O 0.78166 0.37231 0.12571 0.0
O170 O 0.83437 0.36002 0.14076 0.0
O171 O 0.89637 0.37811 0.10343 0.0
O172 O 0.88978 0.41282 0.07155 0.0
O173 O 0.87756 0.49871 0.08953 0.0
O174 O 0.75288 0.44913 0.11155 0.0
O175 O 0.85844 0.50899 0.12679 0.0
O176 O 0.77733 0.48873 0.13555 0.0
C177 C 0.79307 0.42681 0.05461 0.0
C178 C 0.87302 0.43641 0.17379 0.0
C179 C 0.90297 0.3855 0.08155 0.0
C180 C 0.8017 0.35351 0.13875 0.0
C181 C 0.87633 0.51792 0.10848 0.0
C182 C 0.75092 0.47739 0.12369 0.0
O183 O 0.81516 0.45177 0.05786 0.0
O184 O 0.40778 0.7719 0.57409 0.0
Zn185 Zn 0.41746 0.77944 0.60873 0.0
O186 O 0.4371 0.82453 0.61425 0.0
Zn187 Zn 0.40141 0.85464 0.62757 0.0
Zn188 Zn 0.45277 0.84097 0.58326 0.0
Zn189 Zn 0.4747 0.82 0.63706 0.0
O190 O 0.41998 0.88059 0.65627 0.0
O191 O 0.45996 0.84193 0.66908 0.0
O192 O 0.37489 0.7717 0.62829 0.0
O193 O 0.36214 0.82549 0.64111 0.0
O194 O 0.38043 0.88541 0.6016 0.0
O195 O 0.41582 0.87464 0.5706 0.0
O196 O 0.50037 0.86503 0.58747 0.0
O197 O 0.45177 0.74247 0.61697 0.0
O198 O 0.51453 0.84818 0.62465 0.0
O199 O 0.49252 0.76933 0.63879 0.0
C200 C 0.4299 0.77654 0.55724 0.0
C201 C 0.43992 0.86854 0.6728 0.0
C202 C 0.38865 0.88955 0.57955 0.0
C203 C 0.35568 0.79266 0.64032 0.0
C204 C 0.52159 0.86451 0.60531 0.0
C205 C 0.48026 0.74166 0.62882 0.0
O206 O 0.45413 0.7997 0.55922 0.0
O207 O 0.70426 0.39911 0.57367 0.0
Zn208 Zn 0.69931 0.41092 0.60822 0.0
O209 O 0.65486 0.43114 0.61467 0.0
Zn210 Zn 0.62529 0.39687 0.62952 0.0
Zn211 Zn 0.63692 0.44699 0.58402 0.0
Zn212 Zn 0.66147 0.46741 0.63781 0.0
O213 O 0.59865 0.41757 0.6575 0.0
O214 O 0.64145 0.45287 0.67014 0.0
O215 O 0.70813 0.37032 0.6295 0.0
O216 O 0.65538 0.35962 0.64484 0.0
O217 O 0.59548 0.37423 0.60392 0.0
O218 O 0.602 0.4096 0.57229 0.0
O219 O 0.61482 0.49628 0.58912 0.0
O220 O 0.73685 0.44557 0.61443 0.0
O221 O 0.63352 0.50749 0.62634 0.0
O222 O 0.71197 0.48448 0.6388 0.0
C223 C 0.70047 0.422 0.55718 0.0
C224 C 0.6132 0.43562 0.67411 0.0
C225 C 0.58922 0.38188 0.582 0.0
C226 C 0.68815 0.35306 0.64347 0.0
C227 C 0.61681 0.51653 0.60753 0.0
C228 C 0.73862 0.47323 0.62717 0.0
O229 O 0.678 0.44696 0.55954 0.0
O230 O 0.0578 0.71874 0.56871 0.0
Zn231 Zn 0.05868 0.7087 0.60371 0.0
O232 O 0.04159 0.6627 0.61075 0.0
Zn233 Zn 0.07919 0.63433 0.62341 0.0
Zn234 Zn 0.02326 0.64243 0.5813 0.0
Zn235 Zn 0.00714 0.66648 0.63585 0.0
O236 O 0.06383 0.60713 0.65258 0.0
O237 O 0.02594 0.64638 0.66717 0.0
O238 O 0.105 0.71749 0.61886 0.0
O239 O 0.11742 0.66593 0.63555 0.0
O240 O 0.09984 0.60412 0.59713 0.0
O241 O 0.06027 0.60906 0.56786 0.0
O242 O 0.9768 0.61751 0.58885 0.0
O243 O 0.02639 0.74463 0.61653 0.0
O244 O 0.96754 0.63609 0.62631 0.0
O245 O 0.98767 0.7162 0.63896 0.0
C246 C 0.03591 0.70856 0.55283 0.0
C247 C 0.04576 0.61947 0.66998 0.0
C248 C 0.08947 0.59713 0.57586 0.0
C249 C 0.12441 0.69825 0.63204 0.0
C250 C 0.95822 0.61829 0.60802 0.0
C251 C -0.00084 0.74458 0.62966 0.0
O252 O 0.0172 0.68098 0.55583 0.0
O253 O 0.77822 0.08551 0.57059 0.0
Zn254 Zn 0.7801 0.07379 0.60525 0.0
O255 O 0.8236 0.05367 0.61353 0.0
Zn256 Zn 0.85247 0.08866 0.62795 0.0
Zn257 Zn 0.8424 0.03618 0.58372 0.0
Zn258 Zn 0.81516 0.01899 0.63756 0.0
O259 O 0.87833 0.06894 0.65627 0.0
O260 O 0.83496 0.03515 0.66985 0.0
O261 O 0.76941 0.11424 0.6264 0.0
O262 O 0.82158 0.12609 0.64234 0.0
O263 O 0.88381 0.10973 0.60269 0.0
O264 O 0.87843 0.07219 0.57207 0.0
O265 O 0.86345 0.98721 0.59046 0.0
O266 O 0.74292 0.03843 0.60963 0.0
O267 O 0.8431 0.97779 0.62751 0.0
O268 O 0.76399 0.00272 0.63766 0.0
C269 C 0.78146 0.06139 0.55483 0.0
C270 C 0.8636 0.05209 0.67332 0.0
C271 C 0.89124 0.10032 0.58125 0.0
C272 C 0.78873 0.13205 0.64054 0.0
C273 C 0.86057 0.96786 0.60921 0.0
C274 C 0.73933 0.01222 0.62349 0.0
O275 O 0.80258 0.0356 0.55838 0.0
O276 O 0.91429 0.20338 0.94773 0.0
Zn277 Zn 0.91996 0.20124 0.91207 0.0
O278 O 0.93847 0.15728 0.902 0.0
Zn279 Zn 0.90239 0.12954 0.88788 0.0
Zn280 Zn 0.95782 0.13581 0.9305 0.0
Zn281 Zn 0.97133 0.16483 0.8767 0.0
O282 O 0.91897 0.10481 0.85815 0.0
O283 O 0.95202 0.14844 0.84438 0.0
O284 O 0.87594 0.21201 0.89456 0.0
O285 O 0.86368 0.16125 0.87661 0.0
O286 O 0.88314 0.09703 0.91261 0.0
O287 O 0.92107 0.1005 0.94303 0.0
O288 O 0.00505 0.11294 0.92117 0.0
O289 O 0.95417 0.23876 0.90439 0.0
O290 O 0.01107 0.13335 0.88376 0.0
O291 O 0.98989 0.21492 0.87732 0.0
C292 C 0.9395 0.1965 0.96203 0.0
C293 C 0.93464 0.12012 0.84084 0.0
C294 C 0.89262 0.08851 0.93378 0.0
C295 C 0.85697 0.19357 0.88058 0.0
C296 C 0.02183 0.11472 0.90125 0.0
C297 C 0.98037 0.24096 0.89032 0.0
O298 O 0.9634 0.17421 0.95641 0.0
O299 O 0.2643 0.93548 0.93925 0.0
Zn300 Zn 0.27772 0.93184 0.90482 0.0
O301 O 0.326 0.94414 0.89951 0.0
Zn302 Zn 0.35132 0.90333 0.88779 0.0
Zn303 Zn 0.34571 0.96115 0.92984 0.0
Zn304 Zn 0.32781 0.97892 0.87428 0.0
O305 O 0.3796 0.91392 0.85815 0.0
O306 O 0.34923 0.95922 0.84367 0.0
O307 O 0.26574 0.88542 0.89105 0.0
O308 O 0.31692 0.86691 0.87659 0.0
O309 O 0.38077 0.8823 0.91429 0.0
O310 O 0.37775 0.92291 0.94311 0.0
O311 O 0.37234 0.00732 0.92388 0.0
O312 O 0.24632 0.96566 0.88894 0.0
O313 O 0.36035 0.01572 0.88506 0.0
O314 O 0.28042 0.00258 0.86877 0.0
C315 C 0.27697 0.95297 0.95673 0.0
C316 C 0.37217 0.93492 0.84103 0.0
C317 C 0.38851 0.89309 0.93535 0.0
C318 C 0.28391 0.86323 0.8793 0.0
C319 C 0.37571 0.02474 0.90437 0.0
C320 C 0.2502 0.99259 0.87584 0.0
O321 O 0.30729 0.9673 0.95541 0.0
O322 O 0.56082 0.2731 0.94404 0.0
Zn323 Zn 0.56274 0.28602 0.90935 0.0
O324 O 0.54678 0.33294 0.9038 0.0
Zn325 Zn 0.58376 0.36082 0.88975 0.0
Zn326 Zn 0.5315 0.35285 0.93419 0.0
Zn327 Zn 0.51017 0.33135 0.88014 0.0
O328 O 0.56738 0.3872 0.86038 0.0
O329 O 0.52788 0.34829 0.84778 0.0
O330 O 0.60905 0.27726 0.89436 0.0
O331 O 0.62151 0.32864 0.87747 0.0
O332 O 0.60619 0.39157 0.91498 0.0
O333 O 0.57099 0.38407 0.94648 0.0
O334 O 0.48632 0.38096 0.92839 0.0
O335 O 0.53024 0.2518 0.89486 0.0
O336 O 0.47455 0.36589 0.89039 0.0
O337 O 0.48735 0.28307 0.87826 0.0
C338 C 0.5412 0.28448 0.96089 0.0
C339 C 0.54819 0.37436 0.84373 0.0
C340 C 0.5987 0.39705 0.937 0.0
C341 C 0.62839 0.29629 0.88107 0.0
C342 C 0.46767 0.38328 0.90933 0.0
C343 C 0.50071 0.25363 0.88436 0.0
O344 O 0.52474 0.31374 0.95921 0.0
O345 O 0.21477 0.57851 0.93442 0.0
Zn346 Zn 0.20451 0.57143 0.8997 0.0
O347 O 0.16042 0.54945 0.8949 0.0
Zn348 Zn 0.12738 0.58311 0.88222 0.0
Zn349 Zn 0.14624 0.53133 0.9258 0.0
Zn350 Zn 0.16587 0.51345 0.87122 0.0
O351 O 0.10157 0.56351 0.85356 0.0
O352 O 0.14456 0.52933 0.83954 0.0
O353 O 0.20796 0.61553 0.88143 0.0
O354 O 0.15334 0.62488 0.86891 0.0
O355 O 0.09652 0.60114 0.909 0.0
O356 O 0.11139 0.5665 0.93963 0.0
O357 O 0.12418 0.48258 0.92077 0.0
O358 O 0.24274 0.54043 0.88867 0.0
O359 O 0.13815 0.47289 0.88245 0.0
O360 O 0.21661 0.49701 0.8689 0.0
C361 C 0.21155 0.55549 0.95087 0.0
C362 C 0.11596 0.54649 0.83636 0.0
C363 C 0.09428 0.59269 0.93113 0.0
C364 C 0.18561 0.6336 0.86978 0.0
C365 C 0.1234 0.46332 0.90187 0.0
C366 C 0.24423 0.51161 0.87719 0.0
O367 O 0.18869 0.53093 0.949 0.0
H368 H 0.52738 0.14774 0.29524 0.0
H369 H 0.58177 0.05714 0.32404 0.0
H370 H 0.54173 0.12834 0.25459 0.0
H371 H 0.59532 0.03739 0.28351 0.0
H372 H 0.65509 0.042 0.21199 0.0
H373 H 0.63436 0.05579 0.25217 0.0
H374 H 0.53278 0.08464 0.22338 0.0
H375 H 0.55382 0.07155 0.1829 0.0
C376 C 0.54185 0.12338 0.29292 0.0
C377 C 0.55371 0.10423 0.31297 0.0
C378 C 0.54998 0.11216 0.26958 0.0
C379 C 0.57006 0.08147 0.26573 0.0
C380 C 0.58048 0.06153 0.28578 0.0
C381 C 0.5725 0.07279 0.30906 0.0
C382 C 0.62822 0.05099 0.21415 0.0
C383 C 0.60622 0.05574 0.1941 0.0
C384 C 0.61622 0.05873 0.2373 0.0
C385 C 0.58184 0.07136 0.2411 0.0
C386 C 0.55954 0.07539 0.22111 0.0
C387 C 0.57156 0.06764 0.1979 0.0
H388 H 0.41338 0.5463 0.18346 0.0
H389 H 0.46183 0.63909 0.2138 0.0
H390 H 0.40264 0.5238 0.22377 0.0
H391 H 0.44979 0.6175 0.25392 0.0
H392 H 0.34236 0.52515 0.29578 0.0
H393 H 0.3636 0.5366 0.25544 0.0
H394 H 0.46101 0.57672 0.28473 0.0
H395 H 0.43896 0.56666 0.32522 0.0
C396 C 0.42193 0.5618 0.19873 0.0
C397 C 0.4382 0.59462 0.19541 0.0
C398 C 0.41558 0.54901 0.22186 0.0
C399 C 0.42497 0.56895 0.24219 0.0
C400 C 0.44259 0.6011 0.23878 0.0
C401 C 0.44932 0.61366 0.21569 0.0
C402 C 0.36851 0.53596 0.29362 0.0
C403 C 0.38878 0.54541 0.31372 0.0
C404 C 0.38085 0.54235 0.27041 0.0
C405 C 0.41396 0.55793 0.26673 0.0
C406 C 0.43506 0.56546 0.28686 0.0
C407 C 0.42252 0.55949 0.31009 0.0
H408 H 0.95795 0.33881 0.29973 0.0
H409 H 0.90701 0.43085 0.32948 0.0
H410 H 0.94515 0.35966 0.25942 0.0
H411 H 0.8953 0.45243 0.28908 0.0
H412 H 0.93764 0.4133 0.1884 0.0
H413 H 0.95723 0.40161 0.22924 0.0
H414 H 0.85745 0.43924 0.25641 0.0
H415 H 0.83845 0.45217 0.21559 0.0
C416 C 0.9446 0.36384 0.29768 0.0
C417 C 0.93329 0.38299 0.31787 0.0
C418 C 0.9374 0.37596 0.27449 0.0
C419 C 0.91901 0.40774 0.27089 0.0
C420 C 0.90892 0.42755 0.29113 0.0
C421 C 0.91584 0.41527 0.31432 0.0
C422 C 0.92006 0.41953 0.20312 0.0
C423 C 0.88637 0.43343 0.19872 0.0
C424 C 0.93121 0.41259 0.22657 0.0
C425 C 0.9088 0.41899 0.2462 0.0
C426 C 0.87563 0.43429 0.24182 0.0
C427 C 0.86463 0.4416 0.21836 0.0
H428 H 0.15022 0.94969 0.29638 0.0
H429 H 0.05076 0.91369 0.32474 0.0
H430 H 0.12961 0.9381 0.25579 0.0
H431 H 0.0299 0.90277 0.28397 0.0
H432 H 0.03055 0.83889 0.21284 0.0
H433 H 0.04322 0.8596 0.25321 0.0
H434 H 0.0888 0.95446 0.22411 0.0
H435 H 0.07674 0.93339 0.18348 0.0
C436 C 0.12374 0.93983 0.29398 0.0
C437 C 0.10231 0.93229 0.31392 0.0
C438 C 0.11181 0.9334 0.27063 0.0
C439 C 0.07815 0.91929 0.26659 0.0
C440 C 0.05617 0.91313 0.28646 0.0
C441 C 0.06809 0.91957 0.30985 0.0
C442 C 0.04291 0.86437 0.21497 0.0
C443 C 0.05291 0.88429 0.19482 0.0
C444 C 0.04997 0.87637 0.23821 0.0
C445 C 0.06721 0.90863 0.24194 0.0
C446 C 0.07594 0.92925 0.22185 0.0
C447 C 0.06882 0.91725 0.19855 0.0
H448 H 0.37459 0.98044 0.80294 0.0
H449 H 0.40701 0.87641 0.82514 0.0
H450 H 0.39744 0.96897 0.76278 0.0
H451 H 0.42832 0.86427 0.78486 0.0
H452 H 0.47966 0.85389 0.7129 0.0
H453 H 0.4693 0.87417 0.75394 0.0
H454 H 0.38086 0.93603 0.72917 0.0
H455 H 0.39214 0.91713 0.68839 0.0
C456 C 0.38667 0.95515 0.79926 0.0
C457 C 0.38872 0.92927 0.81721 0.0
C458 C 0.39962 0.94845 0.77618 0.0
C459 C 0.41446 0.9155 0.77035 0.0
C460 C 0.41759 0.89012 0.78862 0.0
C461 C 0.40509 0.897 0.81177 0.0
C462 C 0.45839 0.87228 0.71621 0.0
C463 C 0.43665 0.88367 0.69732 0.0
C464 C 0.45225 0.88374 0.73978 0.0
C465 C 0.424 0.90657 0.74504 0.0
C466 C 0.40319 0.91893 0.72593 0.0
C467 C 0.40954 0.90782 0.70242 0.0
H468 H 0.57777 0.43657 0.82955 0.0
H469 H 0.52723 0.34322 0.80181 0.0
H470 H 0.58874 0.45661 0.78871 0.0
H471 H 0.53954 0.36234 0.76104 0.0
H472 H 0.54872 0.41143 0.68847 0.0
H473 H 0.52834 0.40157 0.72939 0.0
H474 H 0.62645 0.44291 0.75671 0.0
H475 H 0.64601 0.45415 0.71593 0.0
C476 C 0.5689 0.42036 0.81472 0.0
C477 C 0.55181 0.38819 0.81896 0.0
C478 C 0.5754 0.43174 0.79126 0.0
C479 C 0.56541 0.411 0.77143 0.0
C480 C 0.54724 0.37936 0.77574 0.0
C481 C 0.54032 0.36823 0.79919 0.0
C482 C 0.56569 0.4189 0.70325 0.0
C483 C 0.59908 0.43342 0.6989 0.0
C484 C 0.55412 0.41299 0.72675 0.0
C485 C 0.57583 0.42102 0.7465 0.0
C486 C 0.6087 0.43678 0.74209 0.0
C487 C 0.62006 0.4431 0.71861 0.0
H488 H 0.07563 0.55614 0.6816 0.0
H489 H 0.02625 0.64766 0.71323 0.0
H490 H 0.08797 0.53312 0.72153 0.0
H491 H 0.03982 0.62546 0.7531 0.0
H492 H 0.05075 0.57077 0.82359 0.0
H493 H 0.02918 0.58343 0.78331 0.0
H494 H 0.12693 0.5448 0.75346 0.0
H495 H 0.14779 0.53085 0.79361 0.0
C496 C 0.06728 0.57131 0.69709 0.0
C497 C 0.05014 0.60387 0.6942 0.0
C498 C 0.07457 0.5582 0.72002 0.0
C499 C 0.06525 0.57751 0.74066 0.0
C500 C 0.04701 0.60953 0.73772 0.0
C501 C 0.03937 0.62243 0.71478 0.0
C502 C 0.06741 0.56448 0.80839 0.0
C503 C 0.1011 0.55 0.81185 0.0
C504 C 0.05514 0.572 0.78527 0.0
C505 C 0.07641 0.56561 0.76504 0.0
C506 C 0.10954 0.54974 0.7685 0.0
C507 C 0.12164 0.54185 0.7916 0.0
H508 H 0.83242 0.03461 0.71601 0.0
H509 H 0.92791 0.07803 0.68629 0.0
H510 H 0.85334 0.04803 0.75633 0.0
H511 H 0.94932 0.09045 0.72662 0.0
H512 H 0.9506 0.15217 0.79817 0.0
H513 H 0.93655 0.13165 0.75783 0.0
H514 H 0.8947 0.03526 0.78733 0.0
H515 H 0.90774 0.05627 0.82768 0.0
C516 C 0.8582 0.04634 0.71809 0.0
C517 C 0.87831 0.05552 0.69789 0.0
C518 C 0.8703 0.05395 0.74125 0.0
C519 C 0.90294 0.07066 0.74478 0.0
C520 C 0.92375 0.07827 0.72459 0.0
C521 C 0.91155 0.0709 0.70144 0.0
C522 C 0.93878 0.12644 0.79603 0.0
C523 C 0.93002 0.10604 0.81618 0.0
C524 C 0.93084 0.11454 0.77286 0.0
C525 C 0.91422 0.08185 0.76927 0.0
C526 C 0.90684 0.06086 0.78941 0.0
C527 C 0.91453 0.07285 0.81257 0.0
H528 H 0.42357 0.10329 0.36039 0.0
H529 H 0.4253 0.08199 0.43669 0.0
H530 H 0.36693 0.07459 0.357 0.0
H531 H 0.36833 0.05247 0.43308 0.0
H532 H 0.24943 0.0433 0.42166 0.0
H533 H 0.307 0.07062 0.42442 0.0
H534 H 0.33946 0.01638 0.35984 0.0
H535 H 0.28151 0.98909 0.35684 0.0
C536 C 0.41198 0.09228 0.37648 0.0
C537 C 0.4289 0.09519 0.39891 0.0
C538 C 0.37957 0.07558 0.37443 0.0
C539 C 0.36315 0.06139 0.39475 0.0
C540 C 0.38025 0.0636 0.41715 0.0
C541 C 0.41292 0.08027 0.4192 0.0
C542 C 0.26867 0.03737 0.40787 0.0
C543 C 0.26084 0.01392 0.38901 0.0
C544 C 0.3018 0.05277 0.40965 0.0
C545 C 0.32787 0.04525 0.39257 0.0
C546 C 0.3198 0.02272 0.37326 0.0
C547 C 0.28659 0.00719 0.37149 0.0
H548 H 0.36246 0.40502 0.43292 0.0
H549 H 0.42608 0.45436 0.37841 0.0
H550 H 0.39519 0.34956 0.42702 0.0
H551 H 0.45879 0.39972 0.37273 0.0
H552 H 0.53172 0.30605 0.39015 0.0
H553 H 0.49981 0.36071 0.39745 0.0
H554 H 0.4012 0.30554 0.39005 0.0
H555 H 0.43335 0.25039 0.38254 0.0
C556 C 0.38401 0.40415 0.4202 0.0
C557 C 0.39222 0.43375 0.4063 0.0
C558 C 0.4023 0.3725 0.41657 0.0
C559 C 0.42926 0.37047 0.39929 0.0
C560 C 0.43823 0.40063 0.38619 0.0
C561 C 0.41968 0.43186 0.38952 0.0
C562 C 0.50322 0.30566 0.38971 0.0
C563 C 0.48495 0.27411 0.38561 0.0
C564 C 0.48502 0.33688 0.39399 0.0
C565 C 0.44814 0.33714 0.39459 0.0
C566 C 0.4297 0.30579 0.38999 0.0
C567 C 0.44801 0.27449 0.38532 0.0
H568 H 0.03998 0.4104 0.36519 0.0
H569 H 0.07767 0.3829 0.4359 0.0
H570 H 0.09438 0.44222 0.35724 0.0
H571 H 0.13296 0.41445 0.42765 0.0
H572 H 0.2396 0.43475 0.38602 0.0
H573 H 0.18434 0.40369 0.39409 0.0
H574 H 0.12586 0.49766 0.37646 0.0
H575 H 0.18089 0.52891 0.36887 0.0
C576 C 0.05991 0.41147 0.3791 0.0
C577 C 0.05479 0.39435 0.40117 0.0
C578 C 0.09094 0.42961 0.37452 0.0
C579 C 0.11779 0.4304 0.39174 0.0
C580 C 0.11259 0.41382 0.41405 0.0
C581 C 0.08101 0.3962 0.41886 0.0
C582 C 0.21489 0.44847 0.38336 0.0
C583 C 0.21441 0.48411 0.37664 0.0
C584 C 0.18343 0.43092 0.38835 0.0
C585 C 0.15109 0.44855 0.38619 0.0
C586 C 0.15055 0.48362 0.37834 0.0
C587 C 0.18194 0.50136 0.37385 0.0
H588 H 0.1156 0.07472 0.42718 0.0
H589 H 0.03719 0.02137 0.38423 0.0
H590 H 0.08852 0.13119 0.4173 0.0
H591 H 0.01104 0.0776 0.37386 0.0
H592 H 0.94979 0.18003 0.38622 0.0
H593 H 0.97788 0.12348 0.39224 0.0
H594 H 0.0799 0.17185 0.38347 0.0
H595 H 0.05138 0.22932 0.37808 0.0
C596 C 0.09246 0.07496 0.41582 0.0
C597 C 0.07847 0.04342 0.40664 0.0
C598 C 0.0773 0.10737 0.40985 0.0
C599 C 0.04788 0.10893 0.39457 0.0
C600 C 0.03353 0.07735 0.38581 0.0
C601 C 0.04852 0.04503 0.39185 0.0
C602 C 0.97823 0.17857 0.38513 0.0
C603 C -0.00157 0.20911 0.38181 0.0
C604 C -0.00565 0.14606 0.38852 0.0
C605 C 0.03115 0.14317 0.3886 0.0
C606 C 0.05146 0.17339 0.38391 0.0
C607 C 0.03519 0.20615 0.38045 0.0
H608 H 0.91199 0.85618 0.08938 0.0
H609 H 0.95983 0.95271 0.11435 0.0
H610 H 0.85452 0.87959 0.09815 0.0
H611 H 0.90124 0.97736 0.12188 0.0
H612 H 0.75594 0.94135 0.08963 0.0
H613 H 0.81445 0.91944 0.08351 0.0
H614 H 0.84981 0.97441 0.14715 0.0
H615 H 0.79045 -0.00129 0.15253 0.0
C616 C 0.91026 0.88287 0.09618 0.0
C617 C 0.94066 0.90268 0.1009 0.0
C618 C 0.87705 0.89639 0.10123 0.0
C619 C 0.87301 0.93056 0.11058 0.0
C620 C 0.90336 0.95078 0.11498 0.0
C621 C 0.9369 0.93687 0.11032 0.0
C622 C 0.77586 0.94868 0.10262 0.0
C623 C 0.76825 0.97182 0.12169 0.0
C624 C 0.80968 0.93583 0.09911 0.0
C625 C 0.83704 0.94486 0.11489 0.0
C626 C 0.82945 0.96724 0.13446 0.0
C627 C 0.79535 0.98075 0.13777 0.0
H628 H 0.45292 0.80451 0.14793 0.0
H629 H 0.5472 0.74814 0.12816 0.0
H630 H 0.4832 0.86029 0.14193 0.0
H631 H 0.57669 0.80321 0.12007 0.0
H632 H 0.63107 0.90701 0.11864 0.0
H633 H 0.60277 0.85339 0.13171 0.0
H634 H 0.50142 0.89727 0.11221 0.0
H635 H 0.53013 0.95237 0.10125 0.0
C636 C 0.48034 0.80418 0.14263 0.0
C637 C 0.49787 0.77213 0.13874 0.0
C638 C 0.49758 0.83612 0.1387 0.0
C639 C 0.53239 0.83667 0.13001 0.0
C640 C 0.5502 0.80434 0.12713 0.0
C641 C 0.53329 0.77251 0.1318 0.0
C642 C 0.60273 0.90501 0.11698 0.0
C643 C 0.58276 0.93358 0.10864 0.0
C644 C 0.58638 0.87411 0.12444 0.0
C645 C 0.5496 0.87046 0.123 0.0
C646 C 0.52968 0.89909 0.11419 0.0
C647 C 0.54607 0.93055 0.10749 0.0
H648 H 0.55705 0.57532 0.07212 0.0
H649 H 0.57381 0.61792 0.14331 0.0
H650 H 0.61252 0.54258 0.07553 0.0
H651 H 0.62781 0.58491 0.14686 0.0
H652 H 0.73944 0.54523 0.13885 0.0
H653 H 0.68689 0.58101 0.13249 0.0
H654 H 0.63581 0.49282 0.09803 0.0
H655 H 0.68842 0.45741 0.10384 0.0
C656 C 0.57251 0.57784 0.08837 0.0
C657 C 0.5608 0.59914 0.10742 0.0
C658 C 0.60414 0.55894 0.09042 0.0
C659 C 0.62461 0.56111 0.11151 0.0
C660 C 0.6131 0.58298 0.13024 0.0
C661 C 0.58178 0.60173 0.12821 0.0
C662 C 0.7169 0.53341 0.13011 0.0
C663 C 0.71814 0.49841 0.12199 0.0
C664 C 0.68678 0.55392 0.12639 0.0
C665 C 0.65716 0.53982 0.1146 0.0
C666 C 0.65834 0.50472 0.10673 0.0
C667 C 0.68843 0.4843 0.11036 0.0
H668 H -0.00467 0.7029 0.15292 0.0
H669 H 0.94096 0.73355 0.08797 0.0
H670 H 0.97055 0.64394 0.1494 0.0
H671 H 0.9159 0.67491 0.08471 0.0
H672 H 0.90743 0.55618 0.07213 0.0
H673 H 0.93506 0.61426 0.07574 0.0
H674 H 0.91464 0.61403 0.15209 0.0
H675 H 0.88819 0.55648 0.14871 0.0
C676 C 0.9776 0.6973 0.13817 0.0
C677 C 0.97017 0.72294 0.12075 0.0
C678 C 0.96353 0.66347 0.13608 0.0
C679 C 0.94166 0.65466 0.11657 0.0
C680 C 0.93331 0.68065 0.09962 0.0
C681 C 0.94736 0.71439 0.10169 0.0
C682 C 0.90924 0.56845 0.08966 0.0
C683 C 0.89538 0.55178 0.11004 0.0
C684 C 0.92477 0.60176 0.09173 0.0
C685 C 0.92685 0.61875 0.11422 0.0
C686 C 0.9138 0.60157 0.13458 0.0
C687 C 0.89834 0.56857 0.13253 0.0
H688 H 0.71066 0.96567 0.65572 0.0
H689 H 0.69568 0.01019 0.58506 0.0
H690 H 0.65795 0.92989 0.65014 0.0
H691 H 0.64464 0.97337 0.57891 0.0
H692 H 0.53388 0.92828 0.58443 0.0
H693 H 0.58615 0.96481 0.58938 0.0
H694 H 0.63644 0.881 0.62934 0.0
H695 H 0.58349 0.84567 0.62548 0.0
C696 C 0.6962 0.96768 0.63901 0.0
C697 C 0.70712 0.99091 0.62097 0.0
C698 C 0.66617 0.94698 0.63565 0.0
C699 C 0.64696 0.9486 0.61399 0.0
C700 C 0.65817 0.97185 0.59599 0.0
C701 C 0.68764 0.99292 0.59952 0.0
C702 C 0.55639 0.91765 0.59393 0.0
C703 C 0.55475 0.88433 0.60462 0.0
C704 C 0.58637 0.9385 0.59683 0.0
C705 C 0.61551 0.92607 0.61005 0.0
C706 C 0.61424 0.89193 0.61968 0.0
C707 C 0.58408 0.87147 0.6172 0.0
H708 H 0.56483 0.54282 0.57776 0.0
H709 H 0.62909 0.56913 0.63932 0.0
H710 H 0.53286 0.59854 0.58275 0.0
H711 H 0.59682 0.6233 0.64469 0.0
H712 H 0.55095 0.7331 0.63645 0.0
H713 H 0.58579 0.68027 0.62862 0.0
H714 H 0.49093 0.62314 0.6111 0.0
H715 H 0.45635 0.676 0.61833 0.0
C716 C 0.57231 0.5605 0.59216 0.0
C717 C 0.59923 0.55132 0.60824 0.0
C718 C 0.55385 0.59222 0.59518 0.0
C719 C 0.56214 0.61525 0.61427 0.0
C720 C 0.58993 0.60649 0.62969 0.0
C721 C 0.60825 0.57509 0.62668 0.0
C722 C 0.53754 0.7091 0.63132 0.0
C723 C 0.50094 0.70871 0.62808 0.0
C724 C 0.55748 0.67886 0.62668 0.0
C725 C 0.54115 0.64757 0.61891 0.0
C726 C 0.50442 0.64698 0.61645 0.0
C727 C 0.48457 0.67719 0.62093 0.0
H728 H 0.914 0.61584 0.64633 0.0
H729 H 0.92788 0.57419 0.57455 0.0
H730 H 0.86154 0.58088 0.65128 0.0
H731 H 0.87415 0.53947 0.57944 0.0
H732 H 0.80169 0.45313 0.60834 0.0
H733 H 0.85398 0.48892 0.60285 0.0
H734 H 0.80167 0.57663 0.63727 0.0
H735 H 0.74941 0.54055 0.64324 0.0
C736 C 0.90574 0.59943 0.63145 0.0
C737 C 0.92532 0.59777 0.61 0.0
C738 C 0.87539 0.57952 0.6343 0.0
C739 C 0.86364 0.55748 0.61577 0.0
C740 C 0.88285 0.55599 0.59416 0.0
C741 C 0.91346 0.57599 0.59128 0.0
C742 C 0.80139 0.47997 0.61495 0.0
C743 C 0.77138 0.494 0.6263 0.0
C744 C 0.83126 0.50057 0.61154 0.0
C745 C 0.83183 0.53567 0.61938 0.0
C746 C 0.80211 0.54953 0.63118 0.0
C747 C 0.7722 0.52887 0.63466 0.0
H748 H 0.91248 0.94053 0.58005 0.0
H749 H 0.84925 0.91708 0.64256 0.0
H750 H 0.94516 0.88564 0.5862 0.0
H751 H 0.88224 0.8634 0.64897 0.0
H752 H 0.92892 0.75243 0.6393 0.0
H753 H 0.89357 0.80539 0.63289 0.0
H754 H 0.98769 0.8637 0.61558 0.0
H755 H 0.02278 0.81088 0.62155 0.0
C756 C 0.90539 0.92364 0.59492 0.0
C757 C 0.87851 0.93337 0.61089 0.0
C758 C 0.92426 0.89241 0.5986 0.0
C759 C 0.91647 0.8704 0.61825 0.0
C760 C 0.88876 0.87959 0.63361 0.0
C761 C 0.87001 0.91061 0.62997 0.0
C762 C 0.94207 0.77676 0.63464 0.0
C763 C 0.97856 0.77748 0.63086 0.0
C764 C 0.92184 0.80703 0.6308 0.0
C765 C 0.93782 0.83854 0.62325 0.0
C766 C 0.97451 0.8396 0.62071 0.0
C767 C -0.00536 0.80943 0.62446 0.0
H768 H 0.07598 0.10249 0.93287 0.0
H769 H 0.04148 0.08317 0.86011 0.0
H770 H 0.13335 0.07581 0.92317 0.0
H771 H 0.09812 0.05658 0.85059 0.0
H772 H 0.18733 0.97111 0.85912 0.0
H773 H 0.13116 0.00124 0.86496 0.0
H774 H 0.18578 0.09183 0.89329 0.0
H775 H 0.24228 0.0617 0.88695 0.0
C776 C 0.0805 0.09206 0.91502 0.0
C777 C 0.05447 0.09474 0.89725 0.0
C778 C 0.11332 0.07735 0.90936 0.0
C779 C 0.12009 0.06464 0.88604 0.0
C780 C 0.09356 0.0663 0.86863 0.0
C781 C 0.0612 0.08141 0.87413 0.0
C782 C 0.18732 -0.002 0.86567 0.0
C783 C 0.2189 0.01444 0.87223 0.0
C784 C 0.15527 0.01506 0.86925 0.0
C785 C 0.15429 0.04854 0.87992 0.0
C786 C 0.18599 0.0658 0.8853 0.0
C787 C 0.2182 0.04893 0.88126 0.0
H788 H 0.41882 0.04221 0.86817 0.0
H789 H 0.38066 0.07895 0.93685 0.0
H790 H 0.44766 0.09842 0.86143 0.0
H791 H 0.40981 0.13592 0.93002 0.0
H792 H 0.4306 0.24396 0.89251 0.0
H793 H 0.40122 0.18717 0.8988 0.0
H794 H 0.49734 0.13293 0.88002 0.0
H795 H 0.5265 0.18926 0.87389 0.0
C796 C 0.41715 0.06226 0.88201 0.0
C797 C 0.39774 0.05637 0.90308 0.0
C798 C 0.43355 0.0944 0.87811 0.0
C799 C 0.43058 0.12152 0.89508 0.0
C800 C 0.41201 0.11543 0.91654 0.0
C801 C 0.39589 0.08284 0.92063 0.0
C802 C 0.44499 0.21982 0.88908 0.0
C803 C 0.48062 0.22079 0.88251 0.0
C804 C 0.42846 0.18747 0.89311 0.0
C805 C 0.44725 0.15584 0.89021 0.0
C806 C 0.48231 0.15695 0.8824 0.0
C807 C 0.49889 0.18911 0.87874 0.0
H808 H 0.46023 0.43599 0.87792 0.0
H809 H 0.40762 0.38282 0.93608 0.0
H810 H 0.40611 0.46757 0.86822 0.0
H811 H 0.35289 0.41438 0.92628 0.0
H812 H 0.25571 0.44077 0.87935 0.0
H813 H 0.31155 0.41176 0.88915 0.0
H814 H 0.36453 0.51214 0.8864 0.0
H815 H 0.30902 0.54102 0.87668 0.0
C816 C 0.43717 0.43192 0.88902 0.0
C817 C 0.43788 0.40754 0.9079 0.0
C818 C 0.40625 0.44975 0.88339 0.0
C819 C 0.37534 0.443 0.89631 0.0
C820 C 0.37638 0.41961 0.91588 0.0
C821 C 0.40763 0.40208 0.92175 0.0
C822 C 0.27949 0.45639 0.88019 0.0
C823 C 0.27819 0.49305 0.87718 0.0
C824 C 0.31122 0.43995 0.88621 0.0
C825 C 0.34207 0.4599 0.88893 0.0
C826 C 0.34108 0.49622 0.88449 0.0
C827 C 0.30939 0.51266 0.8788 0.0
H828 H 0.08445 0.43255 0.93796 0.0
H829 H 0.11892 0.41723 0.86461 0.0
H830 H 0.05098 0.37764 0.9355 0.0
H831 H 0.08506 0.36369 0.86204 0.0
H832 H 0.04604 0.25199 0.87154 0.0
H833 H 0.08255 0.30428 0.87617 0.0
H834 H -0.00128 0.35586 0.91522 0.0
H835 H 0.96265 0.30348 0.91115 0.0
C836 C 0.085 0.41753 0.92141 0.0
C837 C 0.10429 0.42941 0.90152 0.0
C838 C 0.06568 0.38623 0.91992 0.0
C839 C 0.06535 0.36635 0.89853 0.0
C840 C 0.08514 0.37802 0.87888 0.0
C841 C 0.1044 0.40902 0.88036 0.0
C842 C 0.03532 0.2746 0.88092 0.0
C843 C 0.00143 0.27359 0.8909 0.0
C844 C 0.05624 0.30455 0.88363 0.0
C845 C 0.0436 0.33415 0.89622 0.0
C846 C 0.00951 0.33327 0.90586 0.0
C847 C 0.9887 0.30334 0.90326 0.0
H848 H 0.64686 0.26106 0.37604 0.0
H849 H 0.68112 0.15862 0.35119 0.0
H850 H 0.70355 0.28543 0.36589 0.0
H851 H 0.73804 0.18351 0.34029 0.0
H852 H 0.837 0.2244 0.3829 0.0
H853 H 0.78146 0.20009 0.37006 0.0
H854 H 0.75195 0.3006 0.33966 0.0
H855 H 0.80772 0.32548 0.35319 0.0
C856 C 0.66625 0.24389 0.36784 0.0
C857 C 0.6601 0.20765 0.36528 0.0
C858 C 0.69864 0.25805 0.36162 0.0
C859 C 0.72547 0.23621 0.35269 0.0
C860 C 0.71796 0.20076 0.34758 0.0
C861 C 0.68547 0.18652 0.35388 0.0
C862 C 0.81896 0.24129 0.37319 0.0
C863 C 0.82618 0.27716 0.36978 0.0
C864 C 0.78729 0.22713 0.3654 0.0
C865 C 0.76218 0.24855 0.35403 0.0
C866 C 0.77071 0.28365 0.34867 0.0
C867 C 0.8025 0.2979 0.35652 0.0
H868 H 0.24376 0.64468 0.34364 0.0
H869 H 0.34076 0.69315 0.36668 0.0
H870 H 0.22024 0.70231 0.33301 0.0
H871 H 0.31668 0.75103 0.35707 0.0
H872 H 0.26138 0.85366 0.34432 0.0
H873 H 0.28812 0.79758 0.33151 0.0
H874 H 0.2032 0.74126 0.36589 0.0
H875 H 0.17716 0.79631 0.37844 0.0
C876 C 0.26029 0.66765 0.34591 0.0
C877 C 0.29355 0.66483 0.35663 0.0
C878 C 0.24694 0.70056 0.33973 0.0
C879 C 0.26628 0.73115 0.34485 0.0
C880 C 0.30118 0.72791 0.35292 0.0
C881 C 0.31484 0.69482 0.35865 0.0
C882 C 0.24828 0.82915 0.34856 0.0
C883 C 0.21769 0.82899 0.36268 0.0
C884 C 0.26347 0.79723 0.34127 0.0
C885 C 0.24768 0.7651 0.34761 0.0
C886 C 0.21576 0.76548 0.36031 0.0
C887 C 0.20107 0.79703 0.36784 0.0
H888 H 0.29957 0.63699 0.14812 0.0
H889 H 0.327 0.74729 0.14444 0.0
H890 H 0.23922 0.65301 0.15849 0.0
H891 H 0.26682 0.76308 0.15491 0.0
H892 H 0.15778 0.78582 0.176 0.0
H893 H 0.21491 0.75855 0.18519 0.0
H894 H 0.19862 0.6836 0.1278 0.0
H895 H 0.14243 0.71129 0.11843 0.0
C896 C 0.29296 0.6646 0.15006 0.0
C897 C 0.31774 0.69095 0.14492 0.0
C898 C 0.25851 0.67368 0.15612 0.0
C899 C 0.24851 0.7092 0.15746 0.0
C900 C 0.27399 0.73547 0.15427 0.0
C901 C 0.3083 0.72644 0.14793 0.0
C902 C 0.16604 0.76267 0.16608 0.0
C903 C 0.14629 0.75051 0.14651 0.0
C904 C 0.19855 0.7472 0.17126 0.0
C905 C 0.21104 0.71912 0.15714 0.0
C906 C 0.18942 0.70493 0.13913 0.0
C907 C 0.15743 0.72082 0.13367 0.0
H908 H 0.83652 0.29314 0.15052 0.0
H909 H 0.73381 0.34213 0.15148 0.0
H910 H 0.80936 0.23582 0.15693 0.0
H911 H 0.70681 0.28498 0.1585 0.0
H912 H 0.68545 0.18645 0.11041 0.0
H913 H 0.70738 0.24299 0.1236 0.0
H914 H 0.76904 0.19217 0.17886 0.0
H915 H 0.74677 0.13474 0.16554 0.0
C916 C 0.80831 0.29182 0.1531 0.0
C917 C 0.78705 0.32166 0.14968 0.0
C918 C 0.7928 0.25907 0.15695 0.0
C919 C 0.756 0.25609 0.15759 0.0
C920 C 0.73523 0.28667 0.15756 0.0
C921 C 0.75064 0.31926 0.15344 0.0
C922 C 0.70349 0.18722 0.12548 0.0
C923 C 0.7148 0.15624 0.13675 0.0
C924 C 0.7156 0.21967 0.1333 0.0
C925 C 0.73952 0.22188 0.15247 0.0
C926 C 0.7504 0.19102 0.16416 0.0
C927 C 0.7378 0.15833 0.15649 0.0
H928 H 0.17128 0.6667 0.66261 0.0
H929 H 0.148 0.76545 0.62736 0.0
H930 H 0.22669 0.69102 0.67716 0.0
H931 H 0.20333 0.78917 0.64121 0.0
H932 H 0.3027 0.82977 0.66218 0.0
H933 H 0.24428 0.80752 0.67189 0.0
H934 H 0.27822 0.70221 0.65332 0.0
H935 H 0.3364 0.72404 0.64444 0.0
C936 C 0.17777 0.69367 0.65819 0.0
C937 C 0.15581 0.71384 0.64325 0.0
C938 C 0.20937 0.70762 0.66664 0.0
C939 C 0.21953 0.74185 0.66015 0.0
C940 C 0.19618 0.76285 0.64681 0.0
C941 C 0.16463 0.74901 0.63849 0.0
C942 C 0.29791 0.80173 0.66089 0.0
C943 C 0.32363 0.77881 0.65167 0.0
C944 C 0.26451 0.78901 0.66647 0.0
C945 C 0.25644 0.75332 0.66276 0.0
C946 C 0.28348 0.72987 0.65638 0.0
C947 C 0.31681 0.74251 0.65093 0.0
H948 H 0.71948 0.14984 0.64223 0.0
H949 H 0.8212 0.17881 0.67085 0.0
H950 H 0.6946 0.20371 0.65759 0.0
H951 H 0.79574 0.23281 0.68713 0.0
H952 H 0.75734 0.33632 0.64802 0.0
H953 H 0.78132 0.28115 0.66171 0.0
H954 H 0.678 0.24865 0.68538 0.0
H955 H 0.65354 0.30403 0.67073 0.0
C956 C 0.73638 0.16735 0.65237 0.0
C957 C 0.77264 0.16094 0.65436 0.0
C958 C 0.7219 0.19809 0.66165 0.0
C959 C 0.7434 0.22302 0.67313 0.0
C960 C 0.77873 0.21442 0.67786 0.0
C961 C 0.79333 0.18364 0.6684 0.0
C962 C 0.73975 0.31777 0.65658 0.0
C963 C 0.70331 0.32369 0.65723 0.0
C964 C 0.75367 0.28624 0.6649 0.0
C965 C 0.73136 0.26003 0.67404 0.0
C966 C 0.69565 0.26805 0.67783 0.0
C967 C 0.68163 0.29966 0.66934 0.0
H968 H 0.8059 0.16166 0.85358 0.0
H969 H 0.83811 0.26261 0.88208 0.0
H970 H 0.74965 0.18721 0.84157 0.0
H971 H 0.78205 0.28764 0.8707 0.0
H972 H 0.67965 0.32914 0.85486 0.0
H973 H 0.73598 0.30408 0.8425 0.0
H974 H 0.70402 0.20288 0.87033 0.0
H975 H 0.6479 0.22742 0.88205 0.0
C976 C 0.80126 0.18939 0.85688 0.0
C977 C 0.82583 0.20987 0.86952 0.0
C978 C 0.76917 0.20401 0.84991 0.0
C979 C 0.76128 0.23921 0.85555 0.0
C980 C 0.78735 0.26048 0.86595 0.0
C981 C 0.81934 0.24594 0.87287 0.0
C982 C 0.68443 0.30137 0.85783 0.0
C983 C 0.65991 0.28049 0.87016 0.0
C984 C 0.71655 0.28703 0.85065 0.0
C985 C 0.72455 0.25171 0.85576 0.0
C986 C 0.69862 0.23014 0.86596 0.0
C987 C 0.6666 0.24439 0.87308 0.0
H988 H 0.21753 0.84031 0.88834 0.0
H989 H 0.30962 0.81805 0.84529 0.0
H990 H 0.19049 0.7865 0.87434 0.0
H991 H 0.28183 0.76445 0.83045 0.0
H992 H 0.25287 0.65277 0.86055 0.0
H993 H 0.27372 0.71145 0.85239 0.0
H994 H 0.1664 0.74778 0.84448 0.0
H995 H 0.14531 0.68859 0.85359 0.0
C996 C 0.2317 0.82426 0.87546 0.0
C997 C 0.26612 0.83274 0.8685 0.0
C998 C 0.21592 0.79363 0.86708 0.0
C999 C 0.23416 0.771 0.85141 0.0
C1000 C 0.2674 0.7811 0.84283 0.0
C1001 C 0.28339 0.8116 0.85146 0.0
C1002 C 0.23366 0.67307 0.85658 0.0
C1003 C 0.19747 0.66654 0.85866 0.0
C1004 C 0.24566 0.70673 0.8515 0.0
C1005 C 0.22165 0.73448 0.84835 0.0
C1006 C 0.18545 0.72697 0.84741 0.0
C1007 C 0.17339 0.69315 0.85259 0.0
H1008 H 0.58577 0.08071 0.4804 0.0
H1009 H 0.65843 0.06333 0.42179 0.0
H1010 H 0.63254 0.06801 0.509 0.0
H1011 H 0.70521 0.05056 0.45069 0.0
H1012 H 0.7731 0.01195 0.51861 0.0
H1013 H 0.72632 0.01064 0.48799 0.0
H1014 H 0.68611 0.10941 0.51487 0.0
H1015 H 0.73231 0.11126 0.54474 0.0
C1016 C 0.61138 0.07323 0.47353 0.0
C1017 C 0.61839 0.07373 0.44873 0.0
C1018 C 0.63823 0.06611 0.48997 0.0
C1019 C 0.67262 0.059 0.48203 0.0
C1020 C 0.67895 0.05606 0.45728 0.0
C1021 C 0.65209 0.06344 0.44076 0.0
C1022 C 0.75452 0.03356 0.51773 0.0
C1023 C 0.75646 0.06159 0.53428 0.0
C1024 C 0.72771 0.0327 0.50031 0.0
C1025 C 0.70217 0.05953 0.49947 0.0
C1026 C 0.70491 0.08794 0.51547 0.0
C1027 C 0.7317 0.08907 0.5325 0.0
H1028 H 0.37991 0.72738 0.54818 0.0
H1029 H 0.47714 0.76898 0.51968 0.0
H1030 H 0.37997 0.68196 0.51774 0.0
H1031 H 0.47678 0.7228 0.48858 0.0
H1032 H 0.42233 0.6567 0.42298 0.0
H1033 H 0.43698 0.70234 0.45233 0.0
H1034 H 0.41883 0.62865 0.50988 0.0
H1035 H 0.40396 0.58315 0.4808 0.0
C1036 C 0.40133 0.72702 0.53534 0.0
C1037 C 0.42874 0.75178 0.53659 0.0
C1038 C 0.40144 0.70067 0.51797 0.0
C1039 C 0.4288 0.69832 0.50116 0.0
C1040 C 0.45554 0.72387 0.50152 0.0
C1041 C 0.45564 0.75033 0.51922 0.0
C1042 C 0.42246 0.64988 0.44186 0.0
C1043 C 0.41122 0.6164 0.44955 0.0
C1044 C 0.43091 0.67609 0.45865 0.0
C1045 C 0.42825 0.66921 0.48334 0.0
C1046 C 0.42038 0.63484 0.49092 0.0
C1047 C 0.41198 0.60872 0.47423 0.0
H1048 H 0.89841 0.40074 0.48519 0.0
H1049 H 0.82766 0.42019 0.42582 0.0
H1050 H 0.85084 0.41297 0.51329 0.0
H1051 H 0.78006 0.43235 0.45417 0.0
H1052 H 0.70956 0.47028 0.52041 0.0
H1053 H 0.7573 0.47101 0.49053 0.0
H1054 H 0.79731 0.37335 0.51918 0.0
H1055 H 0.75023 0.37214 0.54837 0.0
C1056 C 0.87304 0.40852 0.47807 0.0
C1057 C 0.86684 0.40886 0.45317 0.0
C1058 C 0.8457 0.41532 0.49422 0.0
C1059 C 0.81158 0.4229 0.48589 0.0
C1060 C 0.80605 0.42648 0.46109 0.0
C1061 C 0.8334 0.41944 0.44487 0.0
C1062 C 0.72831 0.44878 0.52008 0.0
C1063 C 0.72606 0.4213 0.53696 0.0
C1064 C 0.75568 0.44931 0.50307 0.0
C1065 C 0.78147 0.42266 0.50294 0.0
C1066 C 0.77839 0.39473 0.51924 0.0
C1067 C 0.75108 0.39396 0.53588 0.0
H1068 H 0.0199 0.68902 0.50641 0.0
H1069 H 0.04126 0.77933 0.55124 0.0
H1070 H 0.01994 0.72734 0.4708 0.0
H1071 H 0.04096 0.81722 0.51618 0.0
H1072 H 0.03263 0.88412 0.45273 0.0
H1073 H 0.00691 0.84261 0.48156 0.0
H1074 H 0.07169 0.75929 0.45247 0.0
H1075 H 0.09727 0.8006 0.42407 0.0
C1076 C 0.02386 0.71706 0.50868 0.0
C1077 C 0.03121 0.73114 0.53147 0.0
C1078 C 0.02385 0.73896 0.48838 0.0
C1079 C 0.03036 0.77533 0.4907 0.0
C1080 C 0.03537 0.78948 0.51375 0.0
C1081 C 0.03604 0.76765 0.53383 0.0
C1082 C 0.04021 0.85663 0.45195 0.0
C1083 C 0.06704 0.8455 0.43641 0.0
C1084 C 0.02572 0.83293 0.4685 0.0
C1085 C 0.03757 0.79776 0.46943 0.0
C1086 C 0.06178 0.78605 0.45214 0.0
C1087 C 0.07658 0.80976 0.43594 0.0
H1088 H 0.20586 0.95314 0.9593 0.0
H1089 H 0.29884 0.95993 1.00363 0.0
H1090 H 0.16928 0.94948 0.99496 0.0
H1091 H 0.26187 0.95609 0.03972 0.0
H1092 H 0.10597 0.95086 0.06114 0.0
H1093 H 0.14716 0.97773 0.03264 0.0
H1094 H 0.22772 0.90423 0.0547 0.0
H1095 H 0.18683 0.87762 0.08288 0.0
C1096 C 0.21844 0.95445 0.97675 0.0
C1097 C 0.25526 0.95629 0.97869 0.0
C1098 C 0.19739 0.95278 0.99722 0.0
C1099 C 0.21264 0.95244 0.0202 0.0
C1100 C 0.2494 0.95619 0.02223 0.0
C1101 C 0.27053 0.95844 1.00162 0.0
C1102 C 0.13283 0.94133 0.06042 0.0
C1103 C 0.14311 0.91191 0.07396 0.0
C1104 C 0.15634 0.95652 0.04404 0.0
C1105 C 0.1906 0.94285 0.04125 0.0
C1106 C 0.20168 0.91557 0.05648 0.0
C1107 C 0.17814 0.90015 0.07252 0.0
H1108 H 0.58187 0.09617 0.03024 0.0
H1109 H 0.55279 0.15752 0.09233 0.0
H1110 H 0.55943 0.14197 1.00399 0.0
H1111 H 0.52976 0.20405 0.06594 0.0
H1112 H 0.55756 0.29341 0.00853 0.0
H1113 H 0.5585 0.24707 0.03924 0.0
H1114 H 0.51077 0.17489 0.9888 0.0
H1115 H 0.51133 0.22066 0.95816 0.0
C1116 C 0.56922 0.11897 0.03822 0.0
C1117 C 0.56845 0.12311 0.06322 0.0
C1118 C 0.55637 0.14536 0.02319 0.0
C1119 C 0.5428 0.1769 0.0328 0.0
C1120 C 0.54022 0.18021 0.05795 0.0
C1121 C 0.55286 0.15342 0.07307 0.0
C1122 C 0.54645 0.26787 1.00438 0.0
C1123 C 0.53458 0.26035 0.98108 0.0
C1124 C 0.54685 0.24133 0.02192 0.0
C1125 C 0.5352 0.20701 0.01639 0.0
C1126 C 0.52064 0.20071 0.99356 0.0
C1127 C 0.52073 0.22695 0.97605 0.0
H1128 H 0.26332 0.60361 0.95814 0.0
H1129 H 0.21901 0.50921 0.98903 0.0
H1130 H 0.30904 0.60364 0.98829 0.0
H1131 H 0.26558 0.50952 0.01975 0.0
H1132 H 0.4065 0.58088 0.02754 0.0
H1133 H 0.36139 0.56676 0.99803 0.0
H1134 H 0.28682 0.54792 0.05498 0.0
H1135 H 0.33206 0.56169 0.0847 0.0
C1136 C 0.26317 0.5828 0.97141 0.0
C1137 C 0.23737 0.55627 0.97098 0.0
C1138 C 0.28976 0.58268 0.98863 0.0
C1139 C 0.29142 0.55619 0.00612 0.0
C1140 C 0.26508 0.53016 0.00636 0.0
C1141 C 0.2384 0.53006 0.98883 0.0
C1142 C 0.3808 0.57288 0.03389 0.0
C1143 C 0.37287 0.57307 0.05855 0.0
C1144 C 0.35485 0.56498 0.01693 0.0
C1145 C 0.32032 0.55704 0.02418 0.0
C1146 C 0.31314 0.55404 0.04884 0.0
C1147 C 0.33915 0.56199 0.06587 0.0
H1148 H 0.9258 0.39063 0.0347 0.0
H1149 H 0.91908 0.31791 0.0942 0.0
H1150 H 0.94263 0.34181 0.00817 0.0
H1151 H 0.93481 0.26952 0.0675 0.0
H1152 H 0.89071 0.20632 0.99679 0.0
H1153 H 0.89085 0.25173 0.0281 0.0
H1154 H -0.00606 0.2852 1.00536 0.0
H1155 H -0.0056 0.23858 0.97455 0.0
C1156 C 0.92875 0.36455 0.04227 0.0
C1157 C 0.92078 0.35829 0.06658 0.0
C1158 C 0.93842 0.33665 0.02709 0.0
C1159 C 0.93976 0.302 0.03586 0.0
C1160 C 0.93392 0.29603 0.06036 0.0
C1161 C 0.92497 0.32389 0.07562 0.0
C1162 C 0.91386 0.2226 0.99906 0.0
C1163 C 0.94279 0.21864 0.98366 0.0
C1164 C 0.9139 0.2486 0.01685 0.0
C1165 C 0.94241 0.27186 0.01905 0.0
C1166 C 0.97176 0.26744 1.00402 0.0
C1167 C 0.97215 0.24066 0.98663 0.0
H1168 H 0.39365 0.89659 0.53083 0.0
H1169 H 0.32489 0.92005 0.59066 0.0
H1170 H 0.34627 0.9106 0.50302 0.0
H1171 H 0.2775 0.93441 0.56248 0.0
H1172 H 0.21289 0.97846 0.49347 0.0
H1173 H 0.25984 0.97625 0.52387 0.0
H1174 H 0.28832 0.87208 0.49971 0.0
H1175 H 0.24172 0.87369 0.46999 0.0
C1176 C 0.36879 0.90561 0.53811 0.0
C1177 C 0.36301 0.90658 0.56306 0.0
C1178 C 0.34161 0.9135 0.52213 0.0
C1179 C 0.30814 0.92298 0.53066 0.0
C1180 C 0.30308 0.92709 0.55548 0.0
C1181 C 0.33026 0.91883 0.57157 0.0
C1182 C 0.22886 0.95491 0.49491 0.0
C1183 C 0.22356 0.92634 0.47915 0.0
C1184 C 0.25573 0.95374 0.51224 0.0
C1185 C 0.27803 0.92427 0.51375 0.0
C1186 C 0.27191 0.89539 0.4986 0.0
C1187 C 0.24495 0.89629 0.48166 0.0
H1188 H 0.57801 0.3126 0.59249 0.0
H1189 H 0.56264 0.38951 0.53627 0.0
H1190 H 0.56169 0.26573 0.56468 0.0
H1191 H 0.54527 0.34221 0.50867 0.0
H1192 H 0.49272 0.23958 0.47425 0.0
H1193 H 0.49536 0.28416 0.50641 0.0
H1194 H 0.60182 0.25246 0.52246 0.0
H1195 H 0.59969 0.20916 0.48983 0.0
C1196 C 0.57012 0.31974 0.57444 0.0
C1197 C 0.5719 0.35495 0.5666 0.0
C1198 C 0.56087 0.29277 0.55854 0.0
C1199 C 0.55231 0.30044 0.53461 0.0
C1200 C 0.55155 0.33574 0.52712 0.0
C1201 C 0.56156 0.36275 0.54291 0.0
C1202 C 0.5163 0.24166 0.48509 0.0
C1203 C 0.54589 0.22078 0.47985 0.0
C1204 C 0.5179 0.26727 0.50327 0.0
C1205 C 0.54876 0.27156 0.51685 0.0
C1206 C 0.57766 0.24943 0.51234 0.0
C1207 C 0.57642 0.22466 0.49377 0.0
H1208 H 0.21481 0.59897 0.45226 0.0
H1209 H 0.27015 0.51763 0.49135 0.0
H1210 H 0.1703 0.60114 0.48326 0.0
H1211 H 0.22479 0.51984 0.52271 0.0
H1212 H 0.07819 0.57973 0.52871 0.0
H1213 H 0.12245 0.56434 0.49888 0.0
H1214 H 0.20202 0.56164 0.5542 0.0
H1215 H 0.15769 0.57651 0.58423 0.0
C1216 C 0.21758 0.58146 0.46748 0.0
C1217 C 0.24622 0.55806 0.46922 0.0
C1218 C 0.19171 0.58248 0.48519 0.0
C1219 C 0.19363 0.56026 0.50528 0.0
C1220 C 0.22254 0.53723 0.50739 0.0
C1221 C 0.24851 0.53601 0.48946 0.0
C1222 C 0.10492 0.57507 0.53468 0.0
C1223 C 0.11438 0.57996 0.55887 0.0
C1224 C 0.13037 0.56647 0.51752 0.0
C1225 C 0.1659 0.56256 0.5241 0.0
C1226 C 0.17491 0.56452 0.54854 0.0
C1227 C 0.14941 0.57313 0.56576 0.0
H1228 H 0.91988 0.16403 0.59373 0.0
H1229 H 0.90631 0.09374 0.5333 0.0
H1230 H 0.9421 0.20938 0.56682 0.0
H1231 H 0.92785 0.13922 0.50646 0.0
H1232 H 0.97935 0.22023 0.46176 0.0
H1233 H 0.97571 0.17542 0.49313 0.0
H1234 H 0.91473 0.24709 0.53696 0.0
H1235 H 0.91939 0.29205 0.50565 0.0
C1236 C 0.92217 0.15796 0.57477 0.0
C1237 C 0.91093 0.12523 0.56569 0.0
C1238 C 0.9347 0.18413 0.55933 0.0
C1239 C 0.93642 0.17819 0.53443 0.0
C1240 C 0.92724 0.1447 0.52555 0.0
C1241 C 0.91471 0.11856 0.54098 0.0
C1242 C 0.96626 0.22665 0.47851 0.0
C1243 C 0.95005 0.25955 0.48158 0.0
C1244 C 0.96379 0.20091 0.49634 0.0
C1245 C 0.94458 0.20743 0.51748 0.0
C1246 C 0.93008 0.24124 0.52105 0.0
C1247 C 0.93272 0.26706 0.50319 0.0
H1248 H 0.82771 0.06477 0.92051 0.0
H1249 H 0.89854 0.0687 0.9813 0.0
H1250 H 0.78044 0.04541 0.94674 0.0
H1251 H 0.85083 0.04824 0.00742 0.0
H1252 H 0.75205 0.98875 0.04075 0.0
H1253 H 0.80034 0.99253 0.01142 0.0
H1254 H 0.75582 0.0887 0.98353 0.0
H1255 H 0.70855 0.08569 0.01327 0.0
C1256 C 0.8336 0.06062 0.93934 0.0
C1257 C 0.86697 0.06888 0.94882 0.0
C1258 C 0.80638 0.0495 0.95431 0.0
C1259 C 0.81202 0.0456 0.97902 0.0
C1260 C 0.84597 0.05094 0.98834 0.0
C1261 C 0.87323 0.06268 0.97338 0.0
C1262 C 0.75221 0.01017 0.02792 0.0
C1263 C 0.72647 0.03678 0.02902 0.0
C1264 C 0.77993 0.01247 0.01137 0.0
C1265 C 0.78163 0.04086 0.9953 0.0
C1266 C 0.75489 0.06644 0.99565 0.0
C1267 C 0.72786 0.06468 0.01258 0.0
H1268 H 0.42182 0.83059 0.92504 0.0
H1269 H 0.39397 0.89918 0.98406 0.0
H1270 H 0.44253 0.78637 0.95349 0.0
H1271 H 0.41289 0.85474 0.01233 0.0
H1272 H 0.46087 0.77855 0.06175 0.0
H1273 H 0.45737 0.82333 0.0306 0.0
H1274 H 0.41951 0.74487 0.98045 0.0
H1275 H 0.42547 0.69974 0.01154 0.0
C1276 C 0.42046 0.83641 0.94407 0.0
C1277 C 0.40613 0.86847 0.95223 0.0
C1278 C 0.43203 0.81087 0.96042 0.0
C1279 C 0.42921 0.81661 0.98534 0.0
C1280 C 0.41619 0.84933 0.99337 0.0
C1281 C 0.40509 0.87496 0.97707 0.0
C1282 C 0.45259 0.77089 0.04385 0.0
C1283 C 0.44338 0.7359 0.03892 0.0
C1284 C 0.45018 0.79658 0.02603 0.0
C1285 C 0.43741 0.7881 1.003 0.0
C1286 C 0.42976 0.75252 0.99783 0.0
C1287 C 0.43301 0.72659 0.01561 0.0
H1288 H 0.77985 0.47934 0.02138 0.0
H1289 H 0.75133 0.37284 0.04043 0.0
H1290 H 0.73222 0.48006 0.99132 0.0
H1291 H 0.7041 0.3741 0.01117 0.0
H1292 H 0.66244 0.42558 0.9241 0.0
H1293 H 0.71197 0.43828 0.95088 0.0
H1294 H 0.6463 0.41691 0.01225 0.0
H1295 H 0.59677 0.4045 0.98584 0.0
C1296 C 0.76396 0.45599 0.01891 0.0
C1297 C 0.76916 0.4262 0.03353 0.0
C1298 C 0.73666 0.45651 1.00185 0.0
C1299 C 0.71412 0.42742 0.99945 0.0
C1300 C 0.72065 0.39714 0.01308 0.0
C1301 C 0.74788 0.39644 0.02978 0.0
C1302 C 0.65821 0.42459 0.94332 0.0
C1303 C 0.62568 0.41339 0.95278 0.0
C1304 C 0.6866 0.43195 0.9586 0.0
C1305 C 0.68295 0.42802 0.98351 0.0
C1306 C 0.64977 0.41977 0.99303 0.0
C1307 C 0.62139 0.41275 0.97786 0.0
H1308 H 0.11292 0.74516 0.03703 0.0
H1309 H 0.00503 0.76772 0.01756 0.0
H1310 H 0.11427 0.69732 0.00814 0.0
H1311 H 0.0069 0.71956 0.98805 0.0
H1312 H 0.05786 0.65337 0.92057 0.0
H1313 H 0.04415 0.70137 0.94842 0.0
H1314 H 0.07966 0.63755 0.0077 0.0
H1315 H 0.09318 0.58953 0.98019 0.0
C1316 C 0.08957 0.74032 0.02637 0.0
C1317 C 0.05873 0.76024 0.02983 0.0
C1318 C 0.09032 0.71263 0.00994 0.0
C1319 C 0.06045 0.70431 0.99629 0.0
C1320 C 0.03017 0.72533 0.99856 0.0
C1321 C 0.02921 0.75296 0.01535 0.0
C1322 C 0.06181 0.64914 0.93962 0.0
C1323 C 0.07723 0.61771 0.94806 0.0
C1324 C 0.05394 0.67669 0.95553 0.0
C1325 C 0.06158 0.67333 0.98007 0.0
C1326 C 0.0741 0.64095 0.98875 0.0
C1327 C 0.08164 0.61336 0.97296 0.0
loop_
_geom_bond_atom_site_label_1
_geom_bond_atom_site_label_2
_geom_bond_distance
_geom_bond_site_symmetry_2
_ccdc_geom_bond_type
O0 Zn1 1.953 . S
O0 C16 1.225 . S
Zn1 O0 1.953 . S
Zn1 O2 1.949 . S
Zn1 O8 1.919 . S
Zn1 O13 1.924 . S
O2 Zn1 1.949 . S
O2 Zn3 1.923 . S
O2 Zn4 1.950 . S
O2 Zn5 1.945 . S
Zn3 O2 1.923 . S
Zn3 O6 1.933 . S
Zn3 O9 1.941 . S
Zn3 O10 1.965 . S
Zn4 O2 1.950 . S
Zn4 O11 1.938 . S
Zn4 O12 1.906 . S
Zn4 O22 1.953 . S
Zn5 O2 1.945 . S
Zn5 O7 1.932 . S
Zn5 O14 1.977 . S
Zn5 O15 1.910 . S
O6 Zn3 1.933 . S
O6 C17 1.226 . S
O7 Zn5 1.932 . S
O7 C17 1.307 . S
O8 Zn1 1.919 . S
O8 C19 1.253 . S
O9 Zn3 1.941 . S
O9 C19 1.283 . S
O10 Zn3 1.965 . S
O10 C18 1.303 . S
O11 Zn4 1.938 . S
O11 C18 1.247 . S
O12 Zn4 1.906 . S
O12 C20 1.304 . S
O13 Zn1 1.924 . S
O13 C21 1.311 . S
O14 Zn5 1.977 . S
O14 C20 1.272 . S
O15 Zn5 1.910 . S
O15 C21 1.231 . S
C16 O0 1.225 . S
C16 O22 1.298 . S
C17 O6 1.226 . S
C17 O7 1.307 . S
C18 O10 1.303 . S
C18 O11 1.247 . S
C19 O8 1.253 . S
C19 O9 1.283 . S
C20 O12 1.304 . S
C20 O14 1.272 . S
C21 O13 1.311 . S
C21 O15 1.231 . S
O22 Zn4 1.953 . S
O22 C16 1.298 . S
O23 Zn24 1.953 . S
O23 C39 1.225 . S
Zn24 O23 1.953 . S
Zn24 O25 1.949 . S
Zn24 O31 1.919 . S
Zn24 O36 1.924 . S
O25 Zn24 1.949 . S
O25 Zn26 1.923 . S
O25 Zn27 1.950 . S
O25 Zn28 1.945 . S
Zn26 O25 1.923 . S
Zn26 O29 1.933 . S
Zn26 O32 1.941 . S
Zn26 O33 1.965 . S
Zn27 O25 1.950 . S
Zn27 O34 1.938 . S
Zn27 O35 1.906 . S
Zn27 O45 1.953 . S
Zn28 O25 1.945 . S
Zn28 O30 1.932 . S
Zn28 O37 1.977 . S
Zn28 O38 1.910 . S
O29 Zn26 1.933 . S
O29 C40 1.226 . S
O30 Zn28 1.932 . S
O30 C40 1.307 . S
O31 Zn24 1.919 . S
O31 C42 1.253 . S
O32 Zn26 1.941 . S
O32 C42 1.283 . S
O33 Zn26 1.965 . S
O33 C41 1.303 . S
O34 Zn27 1.938 . S
O34 C41 1.247 . S
O35 Zn27 1.906 . S
O35 C43 1.304 . S
O36 Zn24 1.924 . S
O36 C44 1.311 . S
O37 Zn28 1.977 . S
O37 C43 1.272 . S
O38 Zn28 1.910 . S
O38 C44 1.231 . S
C39 O23 1.225 . S
C39 O45 1.298 . S
C40 O29 1.226 . S
C40 O30 1.307 . S
C41 O33 1.303 . S
C41 O34 1.247 . S
C42 O31 1.253 . S
C42 O32 1.283 . S
C43 O35 1.304 . S
C43 O37 1.272 . S
C44 O36 1.311 . S
C44 O38 1.231 . S
O45 Zn27 1.953 . S
O45 C39 1.298 . S
O46 Zn47 1.953 . S
O46 C62 1.225 . S
Zn47 O46 1.953 . S
Zn47 O48 1.949 . S
Zn47 O54 1.919 . S
Zn47 O59 1.924 . S
O48 Zn47 1.949 . S
O48 Zn49 1.923 . S
O48 Zn50 1.950 . S
O48 Zn51 1.945 . S
Zn49 O48 1.923 . S
Zn49 O52 1.933 . S
Zn49 O55 1.941 . S
Zn49 O56 1.965 . S
Zn50 O48 1.950 . S
Zn50 O57 1.938 . S
Zn50 O58 1.929 . S
Zn50 O68 1.953 . S
Zn51 O48 1.945 . S
Zn51 O53 1.932 . S
Zn51 O60 1.977 1_655 S
Zn51 O61 1.910 . S
O52 Zn49 1.933 . S
O52 C63 1.226 . S
O53 Zn51 1.932 . S
O53 C63 1.307 . S
O54 Zn47 1.919 . S
O54 C65 1.253 . S
O55 Zn49 1.941 . S
O55 C65 1.283 . S
O56 Zn49 1.965 . S
O56 C64 1.303 . S
O57 Zn50 1.938 . S
O57 C64 1.247 . S
O58 Zn50 1.929 . S
O58 C66 1.290 1_655 S
O59 Zn47 1.924 . S
O59 C67 1.311 . S
O60 Zn51 1.977 1_455 S
O60 C66 1.272 . S
O61 Zn51 1.910 . S
O61 C67 1.231 . S
C62 O46 1.225 . S
C62 O68 1.298 . S
C63 O52 1.226 . S
C63 O53 1.307 . S
C64 O56 1.303 . S
C64 O57 1.247 . S
C65 O54 1.253 . S
C65 O55 1.283 . S
C66 O58 1.290 1_455 S
C66 O60 1.272 . S
C67 O59 1.311 . S
C67 O61 1.231 . S
O68 Zn50 1.953 . S
O68 C62 1.298 . S
O69 Zn70 1.953 . S
O69 C85 1.225 . S
Zn70 O69 1.953 . S
Zn70 O71 1.949 . S
Zn70 O77 1.919 . S
Zn70 O82 1.924 . S
O71 Zn70 1.949 . S
O71 Zn72 1.923 . S
O71 Zn73 1.950 . S
O71 Zn74 1.945 . S
Zn72 O71 1.923 . S
Zn72 O75 1.933 . S
Zn72 O78 1.941 1_565 S
Zn72 O79 1.965 1_565 S
Zn73 O71 1.950 . S
Zn73 O80 1.938 . S
Zn73 O81 1.906 . S
Zn73 O91 1.953 . S
Zn74 O71 1.945 . S
Zn74 O76 1.932 . S
Zn74 O83 1.977 . S
Zn74 O84 1.910 . S
O75 Zn72 1.933 . S
O75 C86 1.226 . S
O76 Zn74 1.932 . S
O76 C86 1.307 . S
O77 Zn70 1.919 . S
O77 C88 1.253 . S
O78 Zn72 1.941 1_545 S
O78 C88 1.283 1_545 S
O79 Zn72 1.965 1_545 S
O79 C87 1.303 . S
O80 Zn73 1.938 . S
O80 C87 1.247 1_565 S
O81 Zn73 1.906 . S
O81 C89 1.304 . S
O82 Zn70 1.924 . S
O82 C90 1.311 . S
O83 Zn74 1.977 . S
O83 C89 1.272 . S
O84 Zn74 1.910 . S
O84 C90 1.231 . S
C85 O69 1.225 . S
C85 O91 1.298 . S
C86 O75 1.226 . S
C86 O76 1.307 . S
C87 O79 1.303 . S
C87 O80 1.247 1_545 S
C88 O77 1.253 . S
C88 O78 1.283 1_565 S
C89 O81 1.304 . S
C89 O83 1.272 . S
C90 O82 1.311 . S
C90 O84 1.231 . S
O91 Zn73 1.953 . S
O91 C85 1.298 . S
O92 Zn93 1.953 . S
O92 C108 1.225 . S
Zn93 O92 1.953 . S
Zn93 O94 1.949 . S
Zn93 O100 1.919 . S
Zn93 O105 1.924 . S
O94 Zn93 1.949 . S
O94 Zn95 1.923 . S
O94 Zn96 1.950 . S
O94 Zn97 1.945 . S
Zn95 O94 1.923 . S
Zn95 O98 1.933 . S
Zn95 O101 1.941 1_455 S
Zn95 O102 1.965 1_455 S
Zn96 O94 1.950 . S
Zn96 O103 1.938 . S
Zn96 O104 1.906 . S
Zn96 O114 1.953 . S
Zn97 O94 1.945 . S
Zn97 O99 1.932 . S
Zn97 O106 1.977 . S
Zn97 O107 1.910 . S
O98 Zn95 1.933 . S
O98 C109 1.226 . S
O99 Zn97 1.932 . S
O99 C109 1.307 . S
O100 Zn93 1.919 . S
O100 C111 1.253 . S
O101 Zn95 1.941 1_655 S
O101 C111 1.283 1_655 S
O102 Zn95 1.965 1_655 S
O102 C110 1.303 . S
O103 Zn96 1.938 . S
O103 C110 1.247 1_455 S
O104 Zn96 1.906 . S
O104 C112 1.304 . S
O105 Zn93 1.924 . S
O105 C113 1.311 . S
O106 Zn97 1.977 . S
O106 C112 1.272 . S
O107 Zn97 1.910 . S
O107 C113 1.231 . S
C108 O92 1.225 . S
C108 O114 1.298 . S
C109 O98 1.226 . S
C109 O99 1.307 . S
C110 O102 1.303 . S
C110 O103 1.247 1_655 S
C111 O100 1.253 . S
C111 O101 1.283 1_455 S
C112 O104 1.304 . S
C112 O106 1.272 . S
C113 O105 1.311 . S
C113 O107 1.231 . S
O114 Zn96 1.953 . S
O114 C108 1.298 . S
O115 Zn116 1.953 . S
O115 C131 1.225 . S
Zn116 O115 1.953 . S
Zn116 O117 1.949 . S
Zn116 O123 1.919 . S
Zn116 O128 1.924 . S
O117 Zn116 1.949 . S
O117 Zn118 1.923 . S
O117 Zn119 1.950 . S
O117 Zn120 1.945 . S
Zn118 O117 1.923 . S
Zn118 O121 1.933 . S
Zn118 O124 1.941 1_545 S
Zn118 O125 1.965 1_545 S
Zn119 O117 1.950 . S
Zn119 O126 1.938 . S
Zn119 O127 1.906 . S
Zn119 O137 1.953 . S
Zn120 O117 1.945 . S
Zn120 O122 1.932 . S
Zn120 O129 1.977 . S
Zn120 O130 1.910 . S
O121 Zn118 1.933 . S
O121 C132 1.226 . S
O122 Zn120 1.932 . S
O122 C132 1.307 . S
O123 Zn116 1.919 . S
O123 C134 1.253 . S
O124 Zn118 1.941 1_565 S
O124 C134 1.283 1_565 S
O125 Zn118 1.965 1_565 S
O125 C133 1.303 . S
O126 Zn119 1.938 . S
O126 C133 1.247 1_545 S
O127 Zn119 1.906 . S
O127 C135 1.304 . S
O128 Zn116 1.924 . S
O128 C136 1.311 . S
O129 Zn120 1.977 . S
O129 C135 1.272 . S
O130 Zn120 1.910 . S
O130 C136 1.231 . S
C131 O115 1.225 . S
C131 O137 1.298 . S
C132 O121 1.226 . S
C132 O122 1.307 . S
C133 O125 1.303 . S
C133 O126 1.247 1_565 S
C134 O123 1.253 . S
C134 O124 1.283 1_545 S
C135 O127 1.304 . S
C135 O129 1.272 . S
C136 O128 1.311 . S
C136 O130 1.231 . S
O137 Zn119 1.953 . S
O137 C131 1.298 . S
O138 Zn139 1.953 . S
O138 C154 1.225 . S
Zn139 O138 1.953 . S
Zn139 O140 1.949 . S
Zn139 O146 1.919 . S
Zn139 O151 1.924 . S
O140 Zn139 1.949 . S
O140 Zn141 1.923 . S
O140 Zn142 1.950 . S
O140 Zn143 1.945 . S
Zn141 O140 1.923 . S
Zn141 O144 1.933 . S
Zn141 O147 1.941 . S
Zn141 O148 1.965 . S
Zn142 O140 1.950 . S
Zn142 O149 1.938 . S
Zn142 O150 1.906 . S
Zn142 O160 1.953 . S
Zn143 O140 1.945 . S
Zn143 O145 1.932 . S
Zn143 O152 1.977 . S
Zn143 O153 1.910 . S
O144 Zn141 1.933 . S
O144 C155 1.226 . S
O145 Zn143 1.932 . S
O145 C155 1.307 . S
O146 Zn139 1.919 . S
O146 C157 1.253 . S
O147 Zn141 1.941 . S
O147 C157 1.283 . S
O148 Zn141 1.965 . S
O148 C156 1.303 . S
O149 Zn142 1.938 . S
O149 C156 1.247 . S
O150 Zn142 1.906 . S
O150 C158 1.304 . S
O151 Zn139 1.924 . S
O151 C159 1.311 . S
O152 Zn143 1.977 . S
O152 C158 1.272 . S
O153 Zn143 1.910 . S
O153 C159 1.231 . S
C154 O138 1.225 . S
C154 O160 1.298 . S
C155 O144 1.226 . S
C155 O145 1.307 . S
C156 O148 1.303 . S
C156 O149 1.247 . S
C157 O146 1.253 . S
C157 O147 1.283 . S
C158 O150 1.304 . S
C158 O152 1.272 . S
C159 O151 1.311 . S
C159 O153 1.231 . S
O160 Zn142 1.953 . S
O160 C154 1.298 . S
O161 Zn162 1.953 . S
O161 C177 1.225 . S
Zn162 O161 1.953 . S
Zn162 O163 1.949 . S
Zn162 O169 1.919 . S
Zn162 O174 1.924 . S
O163 Zn162 1.949 . S
O163 Zn164 1.923 . S
O163 Zn165 1.950 . S
O163 Zn166 1.945 . S
Zn164 O163 1.923 . S
Zn164 O167 1.933 . S
Zn164 O170 1.941 . S
Zn164 O171 1.965 . S
Zn165 O163 1.950 . S
Zn165 O172 1.938 . S
Zn165 O173 1.906 . S
Zn165 O183 1.953 . S
Zn166 O163 1.945 . S
Zn166 O168 1.932 . S
Zn166 O175 1.977 . S
Zn166 O176 1.910 . S
O167 Zn164 1.933 . S
O167 C178 1.226 . S
O168 Zn166 1.932 . S
O168 C178 1.307 . S
O169 Zn162 1.919 . S
O169 C180 1.253 . S
O170 Zn164 1.941 . S
O170 C180 1.283 . S
O171 Zn164 1.965 . S
O171 C179 1.303 . S
O172 Zn165 1.938 . S
O172 C179 1.247 . S
O173 Zn165 1.906 . S
O173 C181 1.304 . S
O174 Zn162 1.924 . S
O174 C182 1.311 . S
O175 Zn166 1.977 . S
O175 C181 1.272 . S
O176 Zn166 1.910 . S
O176 C182 1.231 . S
C177 O161 1.225 . S
C177 O183 1.298 . S
C178 O167 1.226 . S
C178 O168 1.307 . S
C179 O171 1.303 . S
C179 O172 1.247 . S
C180 O169 1.253 . S
C180 O170 1.283 . S
C181 O173 1.304 . S
C181 O175 1.272 . S
C182 O174 1.311 . S
C182 O176 1.231 . S
O183 Zn165 1.953 . S
O183 C177 1.298 . S
O184 Zn185 1.953 . S
O184 C200 1.225 . S
Zn185 O184 1.953 . S
Zn185 O186 1.949 . S
Zn185 O192 1.919 . S
Zn185 O197 1.924 . S
O186 Zn185 1.949 . S
O186 Zn187 1.923 . S
O186 Zn188 1.950 . S
O186 Zn189 1.945 . S
Zn187 O186 1.923 . S
Zn187 O190 1.933 . S
Zn187 O193 1.941 . S
Zn187 O194 1.965 . S
Zn188 O186 1.950 . S
Zn188 O195 1.938 . S
Zn188 O196 1.906 . S
Zn188 O206 1.953 . S
Zn189 O186 1.945 . S
Zn189 O191 1.932 . S
Zn189 O198 1.977 . S
Zn189 O199 1.910 . S
O190 Zn187 1.933 . S
O190 C201 1.226 . S
O191 Zn189 1.932 . S
O191 C201 1.307 . S
O192 Zn185 1.919 . S
O192 C203 1.253 . S
O193 Zn187 1.941 . S
O193 C203 1.283 . S
O194 Zn187 1.965 . S
O194 C202 1.303 . S
O195 Zn188 1.938 . S
O195 C202 1.247 . S
O196 Zn188 1.906 . S
O196 C204 1.304 . S
O197 Zn185 1.924 . S
O197 C205 1.311 . S
O198 Zn189 1.977 . S
O198 C204 1.272 . S
O199 Zn189 1.910 . S
O199 C205 1.231 . S
C200 O184 1.225 . S
C200 O206 1.298 . S
C201 O190 1.226 . S
C201 O191 1.307 . S
C202 O194 1.303 . S
C202 O195 1.247 . S
C203 O192 1.253 . S
C203 O193 1.283 . S
C204 O196 1.304 . S
C204 O198 1.272 . S
C205 O197 1.311 . S
C205 O199 1.231 . S
O206 Zn188 1.953 . S
O206 C200 1.298 . S
O207 Zn208 1.953 . S
O207 C223 1.225 . S
Zn208 O207 1.953 . S
Zn208 O209 1.949 . S
Zn208 O215 1.919 . S
Zn208 O220 1.924 . S
O209 Zn208 1.949 . S
O209 Zn210 1.923 . S
O209 Zn211 1.950 . S
O209 Zn212 1.945 . S
Zn210 O209 1.923 . S
Zn210 O213 1.933 . S
Zn210 O216 1.941 . S
Zn210 O217 1.965 . S
Zn211 O209 1.950 . S
Zn211 O218 1.938 . S
Zn211 O219 1.906 . S
Zn211 O229 1.953 . S
Zn212 O209 1.945 . S
Zn212 O214 1.932 . S
Zn212 O221 1.977 . S
Zn212 O222 1.910 . S
O213 Zn210 1.933 . S
O213 C224 1.226 . S
O214 Zn212 1.932 . S
O214 C224 1.307 . S
O215 Zn208 1.919 . S
O215 C226 1.253 . S
O216 Zn210 1.941 . S
O216 C226 1.283 . S
O217 Zn210 1.965 . S
O217 C225 1.303 . S
O218 Zn211 1.938 . S
O218 C225 1.247 . S
O219 Zn211 1.906 . S
O219 C227 1.304 . S
O220 Zn208 1.924 . S
O220 C228 1.311 . S
O221 Zn212 1.977 . S
O221 C227 1.272 . S
O222 Zn212 1.910 . S
O222 C228 1.231 . S
C223 O207 1.225 . S
C223 O229 1.298 . S
C224 O213 1.226 . S
C224 O214 1.307 . S
C225 O217 1.303 . S
C225 O218 1.247 . S
C226 O215 1.253 . S
C226 O216 1.283 . S
C227 O219 1.304 . S
C227 O221 1.272 . S
C228 O220 1.311 . S
C228 O222 1.231 . S
O229 Zn211 1.953 . S
O229 C223 1.298 . S
O230 Zn231 1.953 . S
O230 C246 1.225 . S
Zn231 O230 1.953 . S
Zn231 O232 1.949 . S
Zn231 O238 1.919 . S
Zn231 O243 1.924 . S
O232 Zn231 1.949 . S
O232 Zn233 1.923 . S
O232 Zn234 1.950 . S
O232 Zn235 1.945 . S
Zn233 O232 1.923 . S
Zn233 O236 1.933 . S
Zn233 O239 1.941 . S
Zn233 O240 1.965 . S
Zn234 O232 1.950 . S
Zn234 O241 1.938 . S
Zn234 O242 1.906 . S
Zn234 O252 1.953 . S
Zn235 O232 1.945 . S
Zn235 O237 1.932 . S
Zn235 O244 1.977 1_455 S
Zn235 O245 1.910 . S
O236 Zn233 1.933 . S
O236 C247 1.226 . S
O237 Zn235 1.932 . S
O237 C247 1.307 . S
O238 Zn231 1.919 . S
O238 C249 1.253 . S
O239 Zn233 1.941 . S
O239 C249 1.283 . S
O240 Zn233 1.965 . S
O240 C248 1.303 . S
O241 Zn234 1.938 . S
O241 C248 1.247 . S
O242 Zn234 1.906 . S
O242 C250 1.304 1_455 S
O243 Zn231 1.924 . S
O243 C251 1.311 . S
O244 Zn235 1.977 1_655 S
O244 C250 1.272 . S
O245 Zn235 1.910 . S
O245 C251 1.231 . S
C246 O230 1.225 . S
C246 O252 1.298 . S
C247 O236 1.226 . S
C247 O237 1.307 . S
C248 O240 1.303 . S
C248 O241 1.247 . S
C249 O238 1.253 . S
C249 O239 1.283 . S
C250 O242 1.304 1_655 S
C250 O244 1.272 . S
C251 O243 1.311 . S
C251 O245 1.231 . S
O252 Zn234 1.953 . S
O252 C246 1.298 . S
O253 Zn254 1.953 . S
O253 C269 1.225 . S
Zn254 O253 1.953 . S
Zn254 O255 1.949 . S
Zn254 O261 1.919 . S
Zn254 O266 1.924 . S
O255 Zn254 1.949 . S
O255 Zn256 1.923 . S
O255 Zn257 1.950 . S
O255 Zn258 1.945 . S
Zn256 O255 1.923 . S
Zn256 O259 1.933 . S
Zn256 O262 1.941 . S
Zn256 O263 1.965 . S
Zn257 O255 1.950 . S
Zn257 O264 1.938 . S
Zn257 O265 1.906 . S
Zn257 O275 1.953 . S
Zn258 O255 1.945 . S
Zn258 O260 1.932 . S
Zn258 O267 1.977 1_545 S
Zn258 O268 1.910 . S
O259 Zn256 1.933 . S
O259 C270 1.226 . S
O260 Zn258 1.932 . S
O260 C270 1.307 . S
O261 Zn254 1.919 . S
O261 C272 1.253 . S
O262 Zn256 1.941 . S
O262 C272 1.283 . S
O263 Zn256 1.965 . S
O263 C271 1.303 . S
O264 Zn257 1.938 . S
O264 C271 1.247 . S
O265 Zn257 1.906 . S
O265 C273 1.304 1_545 S
O266 Zn254 1.924 . S
O266 C274 1.311 . S
O267 Zn258 1.977 1_565 S
O267 C273 1.272 . S
O268 Zn258 1.910 . S
O268 C274 1.231 . S
C269 O253 1.225 . S
C269 O275 1.298 . S
C270 O259 1.226 . S
C270 O260 1.307 . S
C271 O263 1.303 . S
C271 O264 1.247 . S
C272 O261 1.253 . S
C272 O262 1.283 . S
C273 O265 1.304 1_565 S
C273 O267 1.272 . S
C274 O266 1.311 . S
C274 O268 1.231 . S
O275 Zn257 1.953 . S
O275 C269 1.298 . S
O276 Zn277 1.953 . S
O276 C292 1.225 . S
Zn277 O276 1.953 . S
Zn277 O278 1.949 . S
Zn277 O284 1.919 . S
Zn277 O289 1.924 . S
O278 Zn277 1.949 . S
O278 Zn279 1.923 . S
O278 Zn280 1.950 . S
O278 Zn281 1.945 . S
Zn279 O278 1.923 . S
Zn279 O282 1.933 . S
Zn279 O285 1.941 . S
Zn279 O286 1.965 . S
Zn280 O278 1.950 . S
Zn280 O287 1.938 . S
Zn280 O288 1.928 . S
Zn280 O298 1.953 . S
Zn281 O278 1.945 . S
Zn281 O283 1.932 . S
Zn281 O290 1.977 1_655 S
Zn281 O291 1.910 . S
O282 Zn279 1.933 . S
O282 C293 1.226 . S
O283 Zn281 1.932 . S
O283 C293 1.307 . S
O284 Zn277 1.919 . S
O284 C295 1.253 . S
O285 Zn279 1.941 . S
O285 C295 1.283 . S
O286 Zn279 1.965 . S
O286 C294 1.303 . S
O287 Zn280 1.938 . S
O287 C294 1.247 . S
O288 Zn280 1.928 . S
O288 C296 1.291 1_655 S
O289 Zn277 1.924 . S
O289 C297 1.311 . S
O290 Zn281 1.977 1_455 S
O290 C296 1.272 . S
O291 Zn281 1.910 . S
O291 C297 1.231 . S
C292 O276 1.225 . S
C292 O298 1.298 . S
C293 O282 1.226 . S
C293 O283 1.307 . S
C294 O286 1.303 . S
C294 O287 1.247 . S
C295 O284 1.253 . S
C295 O285 1.283 . S
C296 O288 1.291 1_455 S
C296 O290 1.272 . S
C297 O289 1.311 . S
C297 O291 1.231 . S
O298 Zn280 1.953 . S
O298 C292 1.298 . S
O299 Zn300 1.953 . S
O299 C315 1.225 . S
Zn300 O299 1.953 . S
Zn300 O301 1.949 . S
Zn300 O307 1.919 . S
Zn300 O312 1.924 . S
O301 Zn300 1.949 . S
O301 Zn302 1.923 . S
O301 Zn303 1.950 . S
O301 Zn304 1.945 . S
Zn302 O301 1.923 . S
Zn302 O305 1.933 . S
Zn302 O308 1.941 . S
Zn302 O309 1.965 . S
Zn303 O301 1.950 . S
Zn303 O310 1.938 . S
Zn303 O311 1.906 . S
Zn303 O321 1.953 . S
Zn304 O301 1.945 . S
Zn304 O306 1.932 . S
Zn304 O313 1.977 1_565 S
Zn304 O314 1.910 . S
O305 Zn302 1.933 . S
O305 C316 1.226 . S
O306 Zn304 1.932 . S
O306 C316 1.307 . S
O307 Zn300 1.919 . S
O307 C318 1.253 . S
O308 Zn302 1.941 . S
O308 C318 1.283 . S
O309 Zn302 1.965 . S
O309 C317 1.303 . S
O310 Zn303 1.938 . S
O310 C317 1.247 . S
O311 Zn303 1.906 . S
O311 C319 1.304 1_565 S
O312 Zn300 1.924 . S
O312 C320 1.311 . S
O313 Zn304 1.977 1_545 S
O313 C319 1.272 . S
O314 Zn304 1.910 . S
O314 C320 1.231 . S
C315 O299 1.225 . S
C315 O321 1.298 . S
C316 O305 1.226 . S
C316 O306 1.307 . S
C317 O309 1.303 . S
C317 O310 1.247 . S
C318 O307 1.253 . S
C318 O308 1.283 . S
C319 O311 1.304 1_545 S
C319 O313 1.272 . S
C320 O312 1.311 . S
C320 O314 1.231 . S
O321 Zn303 1.953 . S
O321 C315 1.298 . S
O322 Zn323 1.953 . S
O322 C338 1.225 . S
Zn323 O322 1.953 . S
Zn323 O324 1.949 . S
Zn323 O330 1.919 . S
Zn323 O335 1.924 . S
O324 Zn323 1.949 . S
O324 Zn325 1.923 . S
O324 Zn326 1.950 . S
O324 Zn327 1.945 . S
Zn325 O324 1.923 . S
Zn325 O328 1.933 . S
Zn325 O331 1.941 . S
Zn325 O332 1.965 . S
Zn326 O324 1.950 . S
Zn326 O333 1.938 . S
Zn326 O334 1.906 . S
Zn326 O344 1.953 . S
Zn327 O324 1.945 . S
Zn327 O329 1.932 . S
Zn327 O336 1.977 . S
Zn327 O337 1.910 . S
O328 Zn325 1.933 . S
O328 C339 1.226 . S
O329 Zn327 1.932 . S
O329 C339 1.307 . S
O330 Zn323 1.919 . S
O330 C341 1.253 . S
O331 Zn325 1.941 . S
O331 C341 1.283 . S
O332 Zn325 1.965 . S
O332 C340 1.303 . S
O333 Zn326 1.938 . S
O333 C340 1.247 . S
O334 Zn326 1.906 . S
O334 C342 1.304 . S
O335 Zn323 1.924 . S
O335 C343 1.311 . S
O336 Zn327 1.977 . S
O336 C342 1.272 . S
O337 Zn327 1.910 . S
O337 C343 1.231 . S
C338 O322 1.225 . S
C338 O344 1.298 . S
C339 O328 1.226 . S
C339 O329 1.307 . S
C340 O332 1.303 . S
C340 O333 1.247 . S
C341 O330 1.253 . S
C341 O331 1.283 . S
C342 O334 1.304 . S
C342 O336 1.272 . S
C343 O335 1.311 . S
C343 O337 1.231 . S
O344 Zn326 1.953 . S
O344 C338 1.298 . S
O345 Zn346 1.953 . S
O345 C361 1.225 . S
Zn346 O345 1.953 . S
Zn346 O347 1.949 . S
Zn346 O353 1.919 . S
Zn346 O358 1.924 . S
O347 Zn346 1.949 . S
O347 Zn348 1.923 . S
O347 Zn349 1.950 . S
O347 Zn350 1.945 . S
Zn348 O347 1.923 . S
Zn348 O351 1.933 . S
Zn348 O354 1.941 . S
Zn348 O355 1.965 . S
Zn349 O347 1.950 . S
Zn349 O356 1.938 . S
Zn349 O357 1.906 . S
Zn349 O367 1.953 . S
Zn350 O347 1.945 . S
Zn350 O352 1.932 . S
Zn350 O359 1.977 . S
Zn350 O360 1.910 . S
O351 Zn348 1.933 . S
O351 C362 1.226 . S
O352 Zn350 1.932 . S
O352 C362 1.307 . S
O353 Zn346 1.919 . S
O353 C364 1.253 . S
O354 Zn348 1.941 . S
O354 C364 1.283 . S
O355 Zn348 1.965 . S
O355 C363 1.303 . S
O356 Zn349 1.938 . S
O356 C363 1.247 . S
O357 Zn349 1.906 . S
O357 C365 1.304 . S
O358 Zn346 1.924 . S
O358 C366 1.311 . S
O359 Zn350 1.977 . S
O359 C365 1.272 . S
O360 Zn350 1.910 . S
O360 C366 1.231 . S
C361 O345 1.225 . S
C361 O367 1.298 . S
C362 O351 1.226 . S
C362 O352 1.307 . S
C363 O355 1.303 . S
C363 O356 1.247 . S
C364 O353 1.253 . S
C364 O354 1.283 . S
C365 O357 1.304 . S
C365 O359 1.272 . S
C366 O358 1.311 . S
C366 O360 1.231 . S
O367 Zn349 1.953 . S
O367 C361 1.298 . S
H368 C376 0.950 . S
H369 C381 0.950 . S
H370 C378 0.950 . S
H371 C380 0.950 . S
H372 C382 0.950 . S
H373 C384 0.950 . S
H374 C386 0.950 . S
H375 C387 0.950 . S
C376 H368 0.950 . S
C376 C377 1.386 . S
C376 C378 1.391 . S
C377 C376 1.386 . S
C377 C381 1.393 . S
C378 H370 0.950 . S
C378 C376 1.391 . S
C378 C379 1.400 . S
C379 C378 1.400 . S
C379 C380 1.398 . S
C379 C385 1.491 . S
C380 H371 0.950 . S
C380 C379 1.398 . S
C380 C381 1.391 . S
C381 H369 0.950 . S
C381 C377 1.393 . S
C381 C380 1.391 . S
C382 H372 0.950 . S
C382 C383 1.386 . S
C382 C384 1.391 . S
C383 C382 1.386 . S
C383 C387 1.393 . S
C384 H373 0.950 . S
C384 C382 1.391 . S
C384 C385 1.400 . S
C385 C379 1.491 . S
C385 C384 1.400 . S
C385 C386 1.398 . S
C386 H374 0.950 . S
C386 C385 1.398 . S
C386 C387 1.391 . S
C387 H375 0.950 . S
C387 C383 1.393 . S
C387 C386 1.391 . S
H388 C396 0.950 . S
H389 C401 0.950 . S
H390 C398 0.950 . S
H391 C400 0.950 . S
H392 C402 0.950 . S
H393 C404 0.950 . S
H394 C406 0.950 . S
H395 C407 0.950 . S
C396 H388 0.950 . S
C396 C397 1.386 . S
C396 C398 1.391 . S
C397 C396 1.386 . S
C397 C401 1.393 . S
C398 H390 0.950 . S
C398 C396 1.391 . S
C398 C399 1.400 . S
C399 C398 1.400 . S
C399 C400 1.398 . S
C399 C405 1.491 . S
C400 H391 0.950 . S
C400 C399 1.398 . S
C400 C401 1.391 . S
C401 H389 0.950 . S
C401 C397 1.393 . S
C401 C400 1.391 . S
C402 H392 0.950 . S
C402 C403 1.386 . S
C402 C404 1.391 . S
C403 C402 1.386 . S
C403 C407 1.393 . S
C404 H393 0.950 . S
C404 C402 1.391 . S
C404 C405 1.400 . S
C405 C399 1.491 . S
C405 C404 1.400 . S
C405 C406 1.398 . S
C406 H394 0.950 . S
C406 C405 1.398 . S
C406 C407 1.391 . S
C407 H395 0.950 . S
C407 C403 1.393 . S
C407 C406 1.391 . S
H408 C416 0.950 . S
H409 C421 0.950 . S
H410 C418 0.950 . S
H411 C420 0.950 . S
H412 C422 0.950 . S
H413 C424 0.950 . S
H414 C426 0.950 . S
H415 C427 0.950 . S
C416 H408 0.950 . S
C416 C417 1.386 . S
C416 C418 1.391 . S
C417 C416 1.386 . S
C417 C421 1.393 . S
C418 H410 0.950 . S
C418 C416 1.391 . S
C418 C419 1.400 . S
C419 C418 1.400 . S
C419 C420 1.398 . S
C419 C425 1.491 . S
C420 H411 0.950 . S
C420 C419 1.398 . S
C420 C421 1.391 . S
C421 H409 0.950 . S
C421 C417 1.393 . S
C421 C420 1.391 . S
C422 H412 0.950 . S
C422 C423 1.386 . S
C422 C424 1.391 . S
C423 C422 1.386 . S
C423 C427 1.393 . S
C424 H413 0.950 . S
C424 C422 1.391 . S
C424 C425 1.400 . S
C425 C419 1.491 . S
C425 C424 1.400 . S
C425 C426 1.398 . S
C426 H414 0.950 . S
C426 C425 1.398 . S
C426 C427 1.391 . S
C427 H415 0.950 . S
C427 C423 1.393 . S
C427 C426 1.391 . S
H428 C436 0.950 . S
H429 C441 0.950 . S
H430 C438 0.950 . S
H431 C440 0.950 . S
H432 C442 0.950 . S
H433 C444 0.950 . S
H434 C446 0.950 . S
H435 C447 0.950 . S
C436 H428 0.950 . S
C436 C437 1.386 . S
C436 C438 1.391 . S
C437 C436 1.386 . S
C437 C441 1.393 . S
C438 H430 0.950 . S
C438 C436 1.391 . S
C438 C439 1.400 . S
C439 C438 1.400 . S
C439 C440 1.398 . S
C439 C445 1.491 . S
C440 H431 0.950 . S
C440 C439 1.398 . S
C440 C441 1.391 . S
C441 H429 0.950 . S
C441 C437 1.393 . S
C441 C440 1.391 . S
C442 H432 0.950 . S
C442 C443 1.386 . S
C442 C444 1.391 . S
C443 C442 1.386 . S
C443 C447 1.393 . S
C444 H433 0.950 . S
C444 C442 1.391 . S
C444 C445 1.400 . S
C445 C439 1.491 . S
C445 C444 1.400 . S
C445 C446 1.398 . S
C446 H434 0.950 . S
C446 C445 1.398 . S
C446 C447 1.391 . S
C447 H435 0.950 . S
C447 C443 1.393 . S
C447 C446 1.391 . S
H448 C456 0.950 . S
H449 C461 0.950 . S
H450 C458 0.950 . S
H451 C460 0.950 . S
H452 C462 0.950 . S
H453 C464 0.950 . S
H454 C466 0.950 . S
H455 C467 0.950 . S
C456 H448 0.950 . S
C456 C457 1.386 . S
C456 C458 1.391 . S
C457 C456 1.386 . S
C457 C461 1.393 . S
C458 H450 0.950 . S
C458 C456 1.391 . S
C458 C459 1.400 . S
C459 C458 1.400 . S
C459 C460 1.398 . S
C459 C465 1.491 . S
C460 H451 0.950 . S
C460 C459 1.398 . S
C460 C461 1.391 . S
C461 H449 0.950 . S
C461 C457 1.393 . S
C461 C460 1.391 . S
C462 H452 0.950 . S
C462 C463 1.386 . S
C462 C464 1.391 . S
C463 C462 1.386 . S
C463 C467 1.393 . S
C464 H453 0.950 . S
C464 C462 1.391 . S
C464 C465 1.400 . S
C465 C459 1.491 . S
C465 C464 1.400 . S
C465 C466 1.398 . S
C466 H454 0.950 . S
C466 C465 1.398 . S
C466 C467 1.391 . S
C467 H455 0.950 . S
C467 C463 1.393 . S
C467 C466 1.391 . S
H468 C476 0.950 . S
H469 C481 0.950 . S
H470 C478 0.950 . S
H471 C480 0.950 . S
H472 C482 0.950 . S
H473 C484 0.950 . S
H474 C486 0.950 . S
H475 C487 0.950 . S
C476 H468 0.950 . S
C476 C477 1.386 . S
C476 C478 1.391 . S
C477 C476 1.386 . S
C477 C481 1.393 . S
C478 H470 0.950 . S
C478 C476 1.391 . S
C478 C479 1.400 . S
C479 C478 1.400 . S
C479 C480 1.398 . S
C479 C485 1.491 . S
C480 H471 0.950 . S
C480 C479 1.398 . S
C480 C481 1.391 . S
C481 H469 0.950 . S
C481 C477 1.393 . S
C481 C480 1.391 . S
C482 H472 0.950 . S
C482 C483 1.386 . S
C482 C484 1.391 . S
C483 C482 1.386 . S
C483 C487 1.393 . S
C484 H473 0.950 . S
C484 C482 1.391 . S
C484 C485 1.400 . S
C485 C479 1.491 . S
C485 C484 1.400 . S
C485 C486 1.398 . S
C486 H474 0.950 . S
C486 C485 1.398 . S
C486 C487 1.391 . S
C487 H475 0.950 . S
C487 C483 1.393 . S
C487 C486 1.391 . S
H488 C496 0.950 . S
H489 C501 0.950 . S
H490 C498 0.950 . S
H491 C500 0.950 . S
H492 C502 0.950 . S
H493 C504 0.950 . S
H494 C506 0.950 . S
H495 C507 0.950 . S
C496 H488 0.950 . S
C496 C497 1.386 . S
C496 C498 1.391 . S
C497 C496 1.386 . S
C497 C501 1.393 . S
C498 H490 0.950 . S
C498 C496 1.391 . S
C498 C499 1.400 . S
C499 C498 1.400 . S
C499 C500 1.398 . S
C499 C505 1.491 . S
C500 H491 0.950 . S
C500 C499 1.398 . S
C500 C501 1.391 . S
C501 H489 0.950 . S
C501 C497 1.393 . S
C501 C500 1.391 . S
C502 H492 0.950 . S
C502 C503 1.386 . S
C502 C504 1.391 . S
C503 C502 1.386 . S
C503 C507 1.393 . S
C504 H493 0.950 . S
C504 C502 1.391 . S
C504 C505 1.400 . S
C505 C499 1.491 . S
C505 C504 1.400 . S
C505 C506 1.398 . S
C506 H494 0.950 . S
C506 C505 1.398 . S
C506 C507 1.391 . S
C507 H495 0.950 . S
C507 C503 1.393 . S
C507 C506 1.391 . S
H508 C516 0.950 . S
H509 C521 0.950 . S
H510 C518 0.950 . S
H511 C520 0.950 . S
H512 C522 0.950 . S
H513 C524 0.950 . S
H514 C526 0.950 . S
H515 C527 0.950 . S
C516 H508 0.950 . S
C516 C517 1.386 . S
C516 C518 1.391 . S
C517 C516 1.386 . S
C517 C521 1.393 . S
C518 H510 0.950 . S
C518 C516 1.391 . S
C518 C519 1.400 . S
C519 C518 1.400 . S
C519 C520 1.398 . S
C519 C525 1.491 . S
C520 H511 0.950 . S
C520 C519 1.398 . S
C520 C521 1.391 . S
C521 H509 0.950 . S
C521 C517 1.393 . S
C521 C520 1.391 . S
C522 H512 0.950 . S
C522 C523 1.386 . S
C522 C524 1.391 . S
C523 C522 1.386 . S
C523 C527 1.393 . S
C524 H513 0.950 . S
C524 C522 1.391 . S
C524 C525 1.400 . S
C525 C519 1.491 . S
C525 C524 1.400 . S
C525 C526 1.398 . S
C526 H514 0.950 . S
C526 C525 1.398 . S
C526 C527 1.391 . S
C527 H515 0.950 . S
C527 C523 1.393 . S
C527 C526 1.391 . S
H528 C536 0.950 . S
H529 C541 0.950 . S
H530 C538 0.950 . S
H531 C540 0.950 . S
H532 C542 0.950 . S
H533 C544 0.950 . S
H534 C546 0.950 . S
H535 C547 0.950 . S
C536 H528 0.950 . S
C536 C537 1.386 . S
C536 C538 1.391 . S
C537 C536 1.386 . S
C537 C541 1.393 . S
C538 H530 0.950 . S
C538 C536 1.391 . S
C538 C539 1.400 . S
C539 C538 1.400 . S
C539 C540 1.398 . S
C539 C545 1.491 . S
C540 H531 0.950 . S
C540 C539 1.398 . S
C540 C541 1.391 . S
C541 H529 0.950 . S
C541 C537 1.393 . S
C541 C540 1.391 . S
C542 H532 0.950 . S
C542 C543 1.386 1_565 S
C542 C544 1.391 1_565 S
C543 C542 1.386 1_545 S
C543 C547 1.393 . S
C544 H533 0.950 . S
C544 C542 1.391 1_545 S
C544 C545 1.400 . S
C545 C539 1.491 . S
C545 C544 1.400 . S
C545 C546 1.398 . S
C546 H534 0.950 . S
C546 C545 1.398 . S
C546 C547 1.391 . S
C547 H535 0.950 . S
C547 C543 1.393 . S
C547 C546 1.391 . S
H548 C556 0.950 . S
H549 C561 0.950 . S
H550 C558 0.950 . S
H551 C560 0.950 . S
H552 C562 0.950 . S
H553 C564 0.950 . S
H554 C566 0.950 . S
H555 C567 0.950 . S
C556 H548 0.950 . S
C556 C557 1.386 . S
C556 C558 1.391 . S
C557 C556 1.386 . S
C557 C561 1.393 . S
C558 H550 0.950 . S
C558 C556 1.391 . S
C558 C559 1.400 . S
C559 C558 1.400 . S
C559 C560 1.398 . S
C559 C565 1.491 . S
C560 H551 0.950 . S
C560 C559 1.398 . S
C560 C561 1.391 . S
C561 H549 0.950 . S
C561 C557 1.393 . S
C561 C560 1.391 . S
C562 H552 0.950 . S
C562 C563 1.386 . S
C562 C564 1.391 . S
C563 C562 1.386 . S
C563 C567 1.393 . S
C564 H553 0.950 . S
C564 C562 1.391 . S
C564 C565 1.400 . S
C565 C559 1.491 . S
C565 C564 1.400 . S
C565 C566 1.398 . S
C566 H554 0.950 . S
C566 C565 1.398 . S
C566 C567 1.391 . S
C567 H555 0.950 . S
C567 C563 1.393 . S
C567 C566 1.391 . S
H568 C576 0.950 . S
H569 C581 0.950 . S
H570 C578 0.950 . S
H571 C580 0.950 . S
H572 C582 0.950 . S
H573 C584 0.950 . S
H574 C586 0.950 . S
H575 C587 0.950 . S
C576 H568 0.950 . S
C576 C577 1.386 . S
C576 C578 1.391 . S
C577 C576 1.386 . S
C577 C581 1.393 . S
C578 H570 0.950 . S
C578 C576 1.391 . S
C578 C579 1.400 . S
C579 C578 1.400 . S
C579 C580 1.398 . S
C579 C585 1.491 . S
C580 H571 0.950 . S
C580 C579 1.398 . S
C580 C581 1.391 . S
C581 H569 0.950 . S
C581 C577 1.393 . S
C581 C580 1.391 . S
C582 H572 0.950 . S
C582 C583 1.386 . S
C582 C584 1.391 . S
C583 C582 1.386 . S
C583 C587 1.393 . S
C584 H573 0.950 . S
C584 C582 1.391 . S
C584 C585 1.400 . S
C585 C579 1.491 . S
C585 C584 1.400 . S
C585 C586 1.398 . S
C586 H574 0.950 . S
C586 C585 1.398 . S
C586 C587 1.391 . S
C587 H575 0.950 . S
C587 C583 1.393 . S
C587 C586 1.391 . S
H588 C596 0.950 . S
H589 C601 0.950 . S
H590 C598 0.950 . S
H591 C600 0.950 . S
H592 C602 0.950 . S
H593 C604 0.950 . S
H594 C606 0.950 . S
H595 C607 0.950 . S
C596 H588 0.950 . S
C596 C597 1.386 . S
C596 C598 1.391 . S
C597 C596 1.386 . S
C597 C601 1.393 . S
C598 H590 0.950 . S
C598 C596 1.391 . S
C598 C599 1.400 . S
C599 C598 1.400 . S
C599 C600 1.398 . S
C599 C605 1.491 . S
C600 H591 0.950 . S
C600 C599 1.398 . S
C600 C601 1.391 . S
C601 H589 0.950 . S
C601 C597 1.393 . S
C601 C600 1.391 . S
C602 H592 0.950 . S
C602 C603 1.386 1_655 S
C602 C604 1.391 1_655 S
C603 C602 1.386 1_455 S
C603 C607 1.393 . S
C604 H593 0.950 . S
C604 C602 1.391 1_455 S
C604 C605 1.400 . S
C605 C599 1.491 . S
C605 C604 1.400 . S
C605 C606 1.398 . S
C606 H594 0.950 . S
C606 C605 1.398 . S
C606 C607 1.391 . S
C607 H595 0.950 . S
C607 C603 1.393 . S
C607 C606 1.391 . S
H608 C616 0.950 . S
H609 C621 0.950 . S
H610 C618 0.950 . S
H611 C620 0.950 . S
H612 C622 0.950 1_545 S
H613 C624 0.950 . S
H614 C626 0.950 . S
H615 C627 0.950 . S
C616 H608 0.950 . S
C616 C617 1.386 . S
C616 C618 1.391 . S
C617 C616 1.386 . S
C617 C621 1.393 . S
C618 H610 0.950 . S
C618 C616 1.391 . S
C618 C619 1.400 . S
C619 C618 1.400 . S
C619 C620 1.398 . S
C619 C625 1.491 . S
C620 H611 0.950 . S
C620 C619 1.398 . S
C620 C621 1.391 . S
C621 H609 0.950 . S
C621 C617 1.393 . S
C621 C620 1.391 . S
C622 H612 0.950 1_565 S
C622 C623 1.386 . S
C622 C624 1.391 . S
C623 C622 1.386 . S
C623 C627 1.393 . S
C624 H613 0.950 . S
C624 C622 1.391 . S
C624 C625 1.400 . S
C625 C619 1.491 . S
C625 C624 1.400 . S
C625 C626 1.398 . S
C626 H614 0.950 . S
C626 C625 1.398 . S
C626 C627 1.391 . S
C627 H615 0.950 . S
C627 C623 1.393 . S
C627 C626 1.391 . S
H628 C636 0.950 . S
H629 C641 0.950 . S
H630 C638 0.950 . S
H631 C640 0.950 . S
H632 C642 0.950 . S
H633 C644 0.950 . S
H634 C646 0.950 . S
H635 C647 0.950 . S
C636 H628 0.950 . S
C636 C637 1.386 . S
C636 C638 1.391 . S
C637 C636 1.386 . S
C637 C641 1.393 . S
C638 H630 0.950 . S
C638 C636 1.391 . S
C638 C639 1.400 . S
C639 C638 1.400 . S
C639 C640 1.398 . S
C639 C645 1.491 . S
C640 H631 0.950 . S
C640 C639 1.398 . S
C640 C641 1.391 . S
C641 H629 0.950 . S
C641 C637 1.393 . S
C641 C640 1.391 . S
C642 H632 0.950 . S
C642 C643 1.386 . S
C642 C644 1.391 . S
C643 C642 1.386 . S
C643 C647 1.393 . S
C644 H633 0.950 . S
C644 C642 1.391 . S
C644 C645 1.400 . S
C645 C639 1.491 . S
C645 C644 1.400 . S
C645 C646 1.398 . S
C646 H634 0.950 . S
C646 C645 1.398 . S
C646 C647 1.391 . S
C647 H635 0.950 . S
C647 C643 1.393 . S
C647 C646 1.391 . S
H648 C656 0.950 . S
H649 C661 0.950 . S
H650 C658 0.950 . S
H651 C660 0.950 . S
H652 C662 0.950 . S
H653 C664 0.950 . S
H654 C666 0.950 . S
H655 C667 0.950 . S
C656 H648 0.950 . S
C656 C657 1.386 . S
C656 C658 1.391 . S
C657 C656 1.386 . S
C657 C661 1.393 . S
C658 H650 0.950 . S
C658 C656 1.391 . S
C658 C659 1.400 . S
C659 C658 1.400 . S
C659 C660 1.398 . S
C659 C665 1.491 . S
C660 H651 0.950 . S
C660 C659 1.398 . S
C660 C661 1.391 . S
C661 H649 0.950 . S
C661 C657 1.393 . S
C661 C660 1.391 . S
C662 H652 0.950 . S
C662 C663 1.386 . S
C662 C664 1.391 . S
C663 C662 1.386 . S
C663 C667 1.393 . S
C664 H653 0.950 . S
C664 C662 1.391 . S
C664 C665 1.400 . S
C665 C659 1.491 . S
C665 C664 1.400 . S
C665 C666 1.398 . S
C666 H654 0.950 . S
C666 C665 1.398 . S
C666 C667 1.391 . S
C667 H655 0.950 . S
C667 C663 1.393 . S
C667 C666 1.391 . S
H668 C676 0.950 . S
H669 C681 0.950 . S
H670 C678 0.950 . S
H671 C680 0.950 . S
H672 C682 0.950 . S
H673 C684 0.950 . S
H674 C686 0.950 . S
H675 C687 0.950 . S
C676 H668 0.950 . S
C676 C677 1.386 1_455 S
C676 C678 1.391 1_455 S
C677 C676 1.386 1_655 S
C677 C681 1.393 . S
C678 H670 0.950 . S
C678 C676 1.391 1_655 S
C678 C679 1.400 . S
C679 C678 1.400 . S
C679 C680 1.398 . S
C679 C685 1.491 . S
C680 H671 0.950 . S
C680 C679 1.398 . S
C680 C681 1.391 . S
C681 H669 0.950 . S
C681 C677 1.393 . S
C681 C680 1.391 . S
C682 H672 0.950 . S
C682 C683 1.386 . S
C682 C684 1.391 . S
C683 C682 1.386 . S
C683 C687 1.393 . S
C684 H673 0.950 . S
C684 C682 1.391 . S
C684 C685 1.400 . S
C685 C679 1.491 . S
C685 C684 1.400 . S
C685 C686 1.398 . S
C686 H674 0.950 . S
C686 C685 1.398 . S
C686 C687 1.391 . S
C687 H675 0.950 . S
C687 C683 1.393 . S
C687 C686 1.391 . S
H688 C696 0.950 . S
H689 C701 0.950 . S
H690 C698 0.950 . S
H691 C700 0.965 . S
H692 C702 0.950 . S
H693 C704 0.950 . S
H694 C706 0.950 . S
H695 C707 0.950 . S
C696 H688 0.950 . S
C696 C697 1.386 . S
C696 C698 1.391 . S
C697 C696 1.386 . S
C697 C701 1.393 1_565 S
C698 H690 0.950 . S
C698 C696 1.391 . S
C698 C699 1.400 . S
C699 C698 1.400 . S
C699 C700 1.398 . S
C699 C705 1.491 . S
C700 H691 0.965 . S
C700 C699 1.398 . S
C700 C701 1.391 1_565 S
C701 H689 0.950 . S
C701 C697 1.393 1_545 S
C701 C700 1.391 1_545 S
C702 H692 0.950 . S
C702 C703 1.386 . S
C702 C704 1.391 . S
C703 C702 1.386 . S
C703 C707 1.393 . S
C704 H693 0.950 . S
C704 C702 1.391 . S
C704 C705 1.400 . S
C705 C699 1.491 . S
C705 C704 1.400 . S
C705 C706 1.398 . S
C706 H694 0.950 . S
C706 C705 1.398 . S
C706 C707 1.391 . S
C707 H695 0.950 . S
C707 C703 1.393 . S
C707 C706 1.391 . S
H708 C716 0.950 . S
H709 C721 0.950 . S
H710 C718 0.950 . S
H711 C720 0.950 . S
H712 C722 0.950 . S
H713 C724 0.950 . S
H714 C726 0.950 . S
H715 C727 0.950 . S
C716 H708 0.950 . S
C716 C717 1.386 . S
C716 C718 1.391 . S
C717 C716 1.386 . S
C717 C721 1.393 . S
C718 H710 0.950 . S
C718 C716 1.391 . S
C718 C719 1.400 . S
C719 C718 1.400 . S
C719 C720 1.398 . S
C719 C725 1.491 . S
C720 H711 0.950 . S
C720 C719 1.398 . S
C720 C721 1.391 . S
C721 H709 0.950 . S
C721 C717 1.393 . S
C721 C720 1.391 . S
C722 H712 0.950 . S
C722 C723 1.386 . S
C722 C724 1.391 . S
C723 C722 1.386 . S
C723 C727 1.393 . S
C724 H713 0.950 . S
C724 C722 1.391 . S
C724 C725 1.400 . S
C725 C719 1.491 . S
C725 C724 1.400 . S
C725 C726 1.398 . S
C726 H714 0.950 . S
C726 C725 1.398 . S
C726 C727 1.391 . S
C727 H715 0.950 . S
C727 C723 1.393 . S
C727 C726 1.391 . S
H728 C736 0.950 . S
H729 C741 0.950 . S
H730 C738 0.950 . S
H731 C740 0.950 . S
H732 C742 0.950 . S
H733 C744 0.950 . S
H734 C746 0.950 . S
H735 C747 0.950 . S
C736 H728 0.950 . S
C736 C737 1.386 . S
C736 C738 1.391 . S
C737 C736 1.386 . S
C737 C741 1.393 . S
C738 H730 0.950 . S
C738 C736 1.391 . S
C738 C739 1.400 . S
C739 C738 1.400 . S
C739 C740 1.398 . S
C739 C745 1.491 . S
C740 H731 0.950 . S
C740 C739 1.398 . S
C740 C741 1.391 . S
C741 H729 0.950 . S
C741 C737 1.393 . S
C741 C740 1.391 . S
C742 H732 0.950 . S
C742 C743 1.386 . S
C742 C744 1.391 . S
C743 C742 1.386 . S
C743 C747 1.393 . S
C744 H733 0.950 . S
C744 C742 1.391 . S
C744 C745 1.400 . S
C745 C739 1.491 . S
C745 C744 1.400 . S
C745 C746 1.398 . S
C746 H734 0.950 . S
C746 C745 1.398 . S
C746 C747 1.391 . S
C747 H735 0.950 . S
C747 C743 1.393 . S
C747 C746 1.391 . S
H748 C756 0.950 . S
H749 C761 0.950 . S
H750 C758 0.950 . S
H751 C760 0.950 . S
H752 C762 0.950 . S
H753 C764 0.950 . S
H754 C766 0.950 . S
H755 C767 0.950 . S
C756 H748 0.950 . S
C756 C757 1.386 . S
C756 C758 1.391 . S
C757 C756 1.386 . S
C757 C761 1.393 . S
C758 H750 0.950 . S
C758 C756 1.391 . S
C758 C759 1.400 . S
C759 C758 1.400 . S
C759 C760 1.398 . S
C759 C765 1.491 . S
C760 H751 0.950 . S
C760 C759 1.398 . S
C760 C761 1.391 . S
C761 H749 0.950 . S
C761 C757 1.393 . S
C761 C760 1.391 . S
C762 H752 0.950 . S
C762 C763 1.386 . S
C762 C764 1.391 . S
C763 C762 1.386 . S
C763 C767 1.393 . S
C764 H753 0.950 . S
C764 C762 1.391 . S
C764 C765 1.400 . S
C765 C759 1.491 . S
C765 C764 1.400 . S
C765 C766 1.398 . S
C766 H754 0.950 . S
C766 C765 1.398 . S
C766 C767 1.391 . S
C767 H755 0.950 . S
C767 C763 1.393 . S
C767 C766 1.391 . S
H768 C776 0.950 . S
H769 C781 0.950 . S
H770 C778 0.950 . S
H771 C780 0.950 . S
H772 C782 0.950 1_565 S
H773 C784 0.950 . S
H774 C786 0.950 . S
H775 C787 0.950 . S
C776 H768 0.950 . S
C776 C777 1.386 . S
C776 C778 1.391 . S
C777 C776 1.386 . S
C777 C781 1.393 . S
C778 H770 0.950 . S
C778 C776 1.391 . S
C778 C779 1.400 . S
C779 C778 1.400 . S
C779 C780 1.398 . S
C779 C785 1.491 . S
C780 H771 0.950 . S
C780 C779 1.398 . S
C780 C781 1.391 . S
C781 H769 0.950 . S
C781 C777 1.393 . S
C781 C780 1.391 . S
C782 H772 0.950 1_545 S
C782 C783 1.386 . S
C782 C784 1.391 . S
C783 C782 1.386 . S
C783 C787 1.393 . S
C784 H773 0.950 . S
C784 C782 1.391 . S
C784 C785 1.400 . S
C785 C779 1.491 . S
C785 C784 1.400 . S
C785 C786 1.398 . S
C786 H774 0.950 . S
C786 C785 1.398 . S
C786 C787 1.391 . S
C787 H775 0.950 . S
C787 C783 1.393 . S
C787 C786 1.391 . S
H788 C796 0.950 . S
H789 C801 0.950 . S
H790 C798 0.950 . S
H791 C800 0.950 . S
H792 C802 0.950 . S
H793 C804 0.950 . S
H794 C806 0.950 . S
H795 C807 0.950 . S
C796 H788 0.950 . S
C796 C797 1.386 . S
C796 C798 1.391 . S
C797 C796 1.386 . S
C797 C801 1.393 . S
C798 H790 0.950 . S
C798 C796 1.391 . S
C798 C799 1.400 . S
C799 C798 1.400 . S
C799 C800 1.398 . S
C799 C805 1.491 . S
C800 H791 0.950 . S
C800 C799 1.398 . S
C800 C801 1.391 . S
C801 H789 0.950 . S
C801 C797 1.393 . S
C801 C800 1.391 . S
C802 H792 0.950 . S
C802 C803 1.386 . S
C802 C804 1.391 . S
C803 C802 1.386 . S
C803 C807 1.393 . S
C804 H793 0.950 . S
C804 C802 1.391 . S
C804 C805 1.400 . S
C805 C799 1.491 . S
C805 C804 1.400 . S
C805 C806 1.398 . S
C806 H794 0.950 . S
C806 C805 1.398 . S
C806 C807 1.391 . S
C807 H795 0.950 . S
C807 C803 1.393 . S
C807 C806 1.391 . S
H808 C816 0.950 . S
H809 C821 0.950 . S
H810 C818 0.950 . S
H811 C820 0.950 . S
H812 C822 0.950 . S
H813 C824 0.950 . S
H814 C826 0.950 . S
H815 C827 0.950 . S
C816 H808 0.950 . S
C816 C817 1.386 . S
C816 C818 1.391 . S
C817 C816 1.386 . S
C817 C821 1.393 . S
C818 H810 0.950 . S
C818 C816 1.391 . S
C818 C819 1.400 . S
C819 C818 1.400 . S
C819 C820 1.398 . S
C819 C825 1.491 . S
C820 H811 0.950 . S
C820 C819 1.398 . S
C820 C821 1.391 . S
C821 H809 0.950 . S
C821 C817 1.393 . S
C821 C820 1.391 . S
C822 H812 0.950 . S
C822 C823 1.386 . S
C822 C824 1.391 . S
C823 C822 1.386 . S
C823 C827 1.393 . S
C824 H813 0.950 . S
C824 C822 1.391 . S
C824 C825 1.400 . S
C825 C819 1.491 . S
C825 C824 1.400 . S
C825 C826 1.398 . S
C826 H814 0.950 . S
C826 C825 1.398 . S
C826 C827 1.391 . S
C827 H815 0.950 . S
C827 C823 1.393 . S
C827 C826 1.391 . S
H828 C836 0.950 . S
H829 C841 0.950 . S
H830 C838 0.950 . S
H831 C840 0.950 . S
H832 C842 0.950 . S
H833 C844 0.950 . S
H834 C846 0.950 . S
H835 C847 0.950 . S
C836 H828 0.950 . S
C836 C837 1.386 . S
C836 C838 1.391 . S
C837 C836 1.386 . S
C837 C841 1.393 . S
C838 H830 0.950 . S
C838 C836 1.391 . S
C838 C839 1.400 . S
C839 C838 1.400 . S
C839 C840 1.398 . S
C839 C845 1.491 . S
C840 H831 0.950 . S
C840 C839 1.398 . S
C840 C841 1.391 . S
C841 H829 0.950 . S
C841 C837 1.393 . S
C841 C840 1.391 . S
C842 H832 0.950 . S
C842 C843 1.386 . S
C842 C844 1.391 . S
C843 C842 1.386 . S
C843 C847 1.393 . S
C844 H833 0.950 . S
C844 C842 1.391 . S
C844 C845 1.400 . S
C845 C839 1.491 . S
C845 C844 1.400 . S
C845 C846 1.398 . S
C846 H834 0.950 . S
C846 C845 1.398 . S
C846 C847 1.391 . S
C847 H835 0.950 . S
C847 C843 1.393 . S
C847 C846 1.391 . S
H848 C856 0.950 . S
H849 C861 0.950 . S
H850 C858 0.950 . S
H851 C860 0.950 . S
H852 C862 0.950 . S
H853 C864 0.950 . S
H854 C866 0.950 . S
H855 C867 0.950 . S
C856 H848 0.950 . S
C856 C857 1.386 . S
C856 C858 1.391 . S
C857 C856 1.386 . S
C857 C861 1.393 . S
C858 H850 0.950 . S
C858 C856 1.391 . S
C858 C859 1.400 . S
C859 C858 1.400 . S
C859 C860 1.398 . S
C859 C865 1.491 . S
C860 H851 0.950 . S
C860 C859 1.398 . S
C860 C861 1.391 . S
C861 H849 0.950 . S
C861 C857 1.393 . S
C861 C860 1.391 . S
C862 H852 0.950 . S
C862 C863 1.386 . S
C862 C864 1.391 . S
C863 C862 1.386 . S
C863 C867 1.393 . S
C864 H853 0.950 . S
C864 C862 1.391 . S
C864 C865 1.400 . S
C865 C859 1.491 . S
C865 C864 1.400 . S
C865 C866 1.398 . S
C866 H854 0.950 . S
C866 C865 1.398 . S
C866 C867 1.391 . S
C867 H855 0.950 . S
C867 C863 1.393 . S
C867 C866 1.391 . S
H868 C876 0.950 . S
H869 C881 0.950 . S
H870 C878 0.950 . S
H871 C880 0.950 . S
H872 C882 0.950 . S
H873 C884 0.950 . S
H874 C886 0.950 . S
H875 C887 0.950 . S
C876 H868 0.950 . S
C876 C877 1.386 . S
C876 C878 1.391 . S
C877 C876 1.386 . S
C877 C881 1.393 . S
C878 H870 0.950 . S
C878 C876 1.391 . S
C878 C879 1.400 . S
C879 C878 1.400 . S
C879 C880 1.398 . S
C879 C885 1.491 . S
C880 H871 0.950 . S
C880 C879 1.398 . S
C880 C881 1.391 . S
C881 H869 0.950 . S
C881 C877 1.393 . S
C881 C880 1.391 . S
C882 H872 0.950 . S
C882 C883 1.386 . S
C882 C884 1.391 . S
C883 C882 1.386 . S
C883 C887 1.393 . S
C884 H873 0.950 . S
C884 C882 1.391 . S
C884 C885 1.400 . S
C885 C879 1.491 . S
C885 C884 1.400 . S
C885 C886 1.398 . S
C886 H874 0.950 . S
C886 C885 1.398 . S
C886 C887 1.391 . S
C887 H875 0.950 . S
C887 C883 1.393 . S
C887 C886 1.391 . S
H888 C896 0.950 . S
H889 C901 0.950 . S
H890 C898 0.950 . S
H891 C900 0.950 . S
H892 C902 0.950 . S
H893 C904 0.950 . S
H894 C906 0.950 . S
H895 C907 0.950 . S
C896 H888 0.950 . S
C896 C897 1.386 . S
C896 C898 1.391 . S
C897 C896 1.386 . S
C897 C901 1.393 . S
C898 H890 0.950 . S
C898 C896 1.391 . S
C898 C899 1.400 . S
C899 C898 1.400 . S
C899 C900 1.398 . S
C899 C905 1.491 . S
C900 H891 0.950 . S
C900 C899 1.398 . S
C900 C901 1.391 . S
C901 H889 0.950 . S
C901 C897 1.393 . S
C901 C900 1.391 . S
C902 H892 0.950 . S
C902 C903 1.386 . S
C902 C904 1.391 . S
C903 C902 1.386 . S
C903 C907 1.393 . S
C904 H893 0.950 . S
C904 C902 1.391 . S
C904 C905 1.400 . S
C905 C899 1.491 . S
C905 C904 1.400 . S
C905 C906 1.398 . S
C906 H894 0.950 . S
C906 C905 1.398 . S
C906 C907 1.391 . S
C907 H895 0.950 . S
C907 C903 1.393 . S
C907 C906 1.391 . S
H908 C916 0.950 . S
H909 C921 0.950 . S
H910 C918 0.950 . S
H911 C920 0.950 . S
H912 C922 0.950 . S
H913 C924 0.950 . S
H914 C926 0.950 . S
H915 C927 0.950 . S
C916 H908 0.950 . S
C916 C917 1.386 . S
C916 C918 1.391 . S
C917 C916 1.386 . S
C917 C921 1.393 . S
C918 H910 0.950 . S
C918 C916 1.391 . S
C918 C919 1.400 . S
C919 C918 1.400 . S
C919 C920 1.398 . S
C919 C925 1.491 . S
C920 H911 0.950 . S
C920 C919 1.398 . S
C920 C921 1.391 . S
C921 H909 0.950 . S
C921 C917 1.393 . S
C921 C920 1.391 . S
C922 H912 0.950 . S
C922 C923 1.386 . S
C922 C924 1.391 . S
C923 C922 1.386 . S
C923 C927 1.393 . S
C924 H913 0.950 . S
C924 C922 1.391 . S
C924 C925 1.400 . S
C925 C919 1.491 . S
C925 C924 1.400 . S
C925 C926 1.398 . S
C926 H914 0.950 . S
C926 C925 1.398 . S
C926 C927 1.391 . S
C927 H915 0.950 . S
C927 C923 1.393 . S
C927 C926 1.391 . S
H928 C936 0.950 . S
H929 C941 0.950 . S
H930 C938 0.950 . S
H931 C940 0.950 . S
H932 C942 0.950 . S
H933 C944 0.950 . S
H934 C946 0.950 . S
H935 C947 0.950 . S
C936 H928 0.950 . S
C936 C937 1.386 . S
C936 C938 1.391 . S
C937 C936 1.386 . S
C937 C941 1.393 . S
C938 H930 0.950 . S
C938 C936 1.391 . S
C938 C939 1.400 . S
C939 C938 1.400 . S
C939 C940 1.398 . S
C939 C945 1.491 . S
C940 H931 0.950 . S
C940 C939 1.398 . S
C940 C941 1.391 . S
C941 H929 0.950 . S
C941 C937 1.393 . S
C941 C940 1.391 . S
C942 H932 0.950 . S
C942 C943 1.386 . S
C942 C944 1.391 . S
C943 C942 1.386 . S
C943 C947 1.393 . S
C944 H933 0.950 . S
C944 C942 1.391 . S
C944 C945 1.400 . S
C945 C939 1.491 . S
C945 C944 1.400 . S
C945 C946 1.398 . S
C946 H934 0.950 . S
C946 C945 1.398 . S
C946 C947 1.391 . S
C947 H935 0.950 . S
C947 C943 1.393 . S
C947 C946 1.391 . S
H948 C956 0.950 . S
H949 C961 0.950 . S
H950 C958 0.950 . S
H951 C960 0.950 . S
H952 C962 0.950 . S
H953 C964 0.950 . S
H954 C966 0.950 . S
H955 C967 0.950 . S
C956 H948 0.950 . S
C956 C957 1.386 . S
C956 C958 1.391 . S
C957 C956 1.386 . S
C957 C961 1.393 . S
C958 H950 0.950 . S
C958 C956 1.391 . S
C958 C959 1.400 . S
C959 C958 1.400 . S
C959 C960 1.398 . S
C959 C965 1.491 . S
C960 H951 0.950 . S
C960 C959 1.398 . S
C960 C961 1.391 . S
C961 H949 0.950 . S
C961 C957 1.393 . S
C961 C960 1.391 . S
C962 H952 0.950 . S
C962 C963 1.386 . S
C962 C964 1.391 . S
C963 C962 1.386 . S
C963 C967 1.393 . S
C964 H953 0.950 . S
C964 C962 1.391 . S
C964 C965 1.400 . S
C965 C959 1.491 . S
C965 C964 1.400 . S
C965 C966 1.398 . S
C966 H954 0.950 . S
C966 C965 1.398 . S
C966 C967 1.391 . S
C967 H955 0.950 . S
C967 C963 1.393 . S
C967 C966 1.391 . S
H968 C976 0.950 . S
H969 C981 0.950 . S
H970 C978 0.950 . S
H971 C980 0.950 . S
H972 C982 0.950 . S
H973 C984 0.950 . S
H974 C986 0.950 . S
H975 C987 0.950 . S
C976 H968 0.950 . S
C976 C977 1.386 . S
C976 C978 1.391 . S
C977 C976 1.386 . S
C977 C981 1.393 . S
C978 H970 0.950 . S
C978 C976 1.391 . S
C978 C979 1.400 . S
C979 C978 1.400 . S
C979 C980 1.398 . S
C979 C985 1.491 . S
C980 H971 0.950 . S
C980 C979 1.398 . S
C980 C981 1.391 . S
C981 H969 0.950 . S
C981 C977 1.393 . S
C981 C980 1.391 . S
C982 H972 0.950 . S
C982 C983 1.386 . S
C982 C984 1.391 . S
C983 C982 1.386 . S
C983 C987 1.393 . S
C984 H973 0.950 . S
C984 C982 1.391 . S
C984 C985 1.400 . S
C985 C979 1.491 . S
C985 C984 1.400 . S
C985 C986 1.398 . S
C986 H974 0.950 . S
C986 C985 1.398 . S
C986 C987 1.391 . S
C987 H975 0.950 . S
C987 C983 1.393 . S
C987 C986 1.391 . S
H988 C996 0.950 . S
H989 C1001 0.950 . S
H990 C998 0.950 . S
H991 C1000 0.950 . S
H992 C1002 0.950 . S
H993 C1004 0.950 . S
H994 C1006 0.950 . S
H995 C1007 0.950 . S
C996 H988 0.950 . S
C996 C997 1.386 . S
C996 C998 1.391 . S
C997 C996 1.386 . S
C997 C1001 1.393 . S
C998 H990 0.950 . S
C998 C996 1.391 . S
C998 C999 1.400 . S
C999 C998 1.400 . S
C999 C1000 1.398 . S
C999 C1005 1.491 . S
C1000 H991 0.950 . S
C1000 C999 1.398 . S
C1000 C1001 1.391 . S
C1001 H989 0.950 . S
C1001 C997 1.393 . S
C1001 C1000 1.391 . S
C1002 H992 0.950 . S
C1002 C1003 1.386 . S
C1002 C1004 1.391 . S
C1003 C1002 1.386 . S
C1003 C1007 1.393 . S
C1004 H993 0.950 . S
C1004 C1002 1.391 . S
C1004 C1005 1.400 . S
C1005 C999 1.491 . S
C1005 C1004 1.400 . S
C1005 C1006 1.398 . S
C1006 H994 0.950 . S
C1006 C1005 1.398 . S
C1006 C1007 1.391 . S
C1007 H995 0.950 . S
C1007 C1003 1.393 . S
C1007 C1006 1.391 . S
H1008 C1016 0.950 . S
H1009 C1021 0.950 . S
H1010 C1018 0.950 . S
H1011 C1020 0.950 . S
H1012 C1022 0.950 . S
H1013 C1024 0.950 . S
H1014 C1026 0.950 . S
H1015 C1027 0.950 . S
C1016 H1008 0.950 . S
C1016 C1017 1.386 . S
C1016 C1018 1.391 . S
C1017 C1016 1.386 . S
C1017 C1021 1.393 . S
C1018 H1010 0.950 . S
C1018 C1016 1.391 . S
C1018 C1019 1.400 . S
C1019 C1018 1.400 . S
C1019 C1020 1.398 . S
C1019 C1025 1.491 . S
C1020 H1011 0.950 . S
C1020 C1019 1.398 . S
C1020 C1021 1.391 . S
C1021 H1009 0.950 . S
C1021 C1017 1.393 . S
C1021 C1020 1.391 . S
C1022 H1012 0.950 . S
C1022 C1023 1.386 . S
C1022 C1024 1.391 . S
C1023 C1022 1.386 . S
C1023 C1027 1.393 . S
C1024 H1013 0.950 . S
C1024 C1022 1.391 . S
C1024 C1025 1.400 . S
C1025 C1019 1.491 . S
C1025 C1024 1.400 . S
C1025 C1026 1.398 . S
C1026 H1014 0.950 . S
C1026 C1025 1.398 . S
C1026 C1027 1.391 . S
C1027 H1015 0.950 . S
C1027 C1023 1.393 . S
C1027 C1026 1.391 . S
H1028 C1036 0.950 . S
H1029 C1041 0.950 . S
H1030 C1038 0.950 . S
H1031 C1040 0.950 . S
H1032 C1042 0.950 . S
H1033 C1044 0.950 . S
H1034 C1046 0.950 . S
H1035 C1047 0.950 . S
C1036 H1028 0.950 . S
C1036 C1037 1.386 . S
C1036 C1038 1.391 . S
C1037 C1036 1.386 . S
C1037 C1041 1.393 . S
C1038 H1030 0.950 . S
C1038 C1036 1.391 . S
C1038 C1039 1.400 . S
C1039 C1038 1.400 . S
C1039 C1040 1.398 . S
C1039 C1045 1.491 . S
C1040 H1031 0.950 . S
C1040 C1039 1.398 . S
C1040 C1041 1.391 . S
C1041 H1029 0.950 . S
C1041 C1037 1.393 . S
C1041 C1040 1.391 . S
C1042 H1032 0.950 . S
C1042 C1043 1.386 . S
C1042 C1044 1.391 . S
C1043 C1042 1.386 . S
C1043 C1047 1.393 . S
C1044 H1033 0.950 . S
C1044 C1042 1.391 . S
C1044 C1045 1.400 . S
C1045 C1039 1.491 . S
C1045 C1044 1.400 . S
C1045 C1046 1.398 . S
C1046 H1034 0.950 . S
C1046 C1045 1.398 . S
C1046 C1047 1.391 . S
C1047 H1035 0.950 . S
C1047 C1043 1.393 . S
C1047 C1046 1.391 . S
H1048 C1056 0.950 . S
H1049 C1061 0.950 . S
H1050 C1058 0.950 . S
H1051 C1060 0.950 . S
H1052 C1062 0.950 . S
H1053 C1064 0.950 . S
H1054 C1066 0.950 . S
H1055 C1067 0.950 . S
C1056 H1048 0.950 . S
C1056 C1057 1.386 . S
C1056 C1058 1.391 . S
C1057 C1056 1.386 . S
C1057 C1061 1.393 . S
C1058 H1050 0.950 . S
C1058 C1056 1.391 . S
C1058 C1059 1.400 . S
C1059 C1058 1.400 . S
C1059 C1060 1.398 . S
C1059 C1065 1.491 . S
C1060 H1051 0.950 . S
C1060 C1059 1.398 . S
C1060 C1061 1.391 . S
C1061 H1049 0.950 . S
C1061 C1057 1.393 . S
C1061 C1060 1.391 . S
C1062 H1052 0.950 . S
C1062 C1063 1.386 . S
C1062 C1064 1.391 . S
C1063 C1062 1.386 . S
C1063 C1067 1.393 . S
C1064 H1053 0.950 . S
C1064 C1062 1.391 . S
C1064 C1065 1.400 . S
C1065 C1059 1.491 . S
C1065 C1064 1.400 . S
C1065 C1066 1.398 . S
C1066 H1054 0.950 . S
C1066 C1065 1.398 . S
C1066 C1067 1.391 . S
C1067 H1055 0.950 . S
C1067 C1063 1.393 . S
C1067 C1066 1.391 . S
H1068 C1076 0.950 . S
H1069 C1081 0.950 . S
H1070 C1078 0.950 . S
H1071 C1080 0.950 . S
H1072 C1082 0.950 . S
H1073 C1084 0.950 . S
H1074 C1086 0.950 . S
H1075 C1087 0.950 . S
C1076 H1068 0.950 . S
C1076 C1077 1.386 . S
C1076 C1078 1.391 . S
C1077 C1076 1.386 . S
C1077 C1081 1.393 . S
C1078 H1070 0.950 . S
C1078 C1076 1.391 . S
C1078 C1079 1.400 . S
C1079 C1078 1.400 . S
C1079 C1080 1.398 . S
C1079 C1085 1.491 . S
C1080 H1071 0.950 . S
C1080 C1079 1.398 . S
C1080 C1081 1.391 . S
C1081 H1069 0.950 . S
C1081 C1077 1.393 . S
C1081 C1080 1.391 . S
C1082 H1072 0.950 . S
C1082 C1083 1.386 . S
C1082 C1084 1.391 . S
C1083 C1082 1.386 . S
C1083 C1087 1.393 . S
C1084 H1073 0.950 . S
C1084 C1082 1.391 . S
C1084 C1085 1.400 . S
C1085 C1079 1.491 . S
C1085 C1084 1.400 . S
C1085 C1086 1.398 . S
C1086 H1074 0.950 . S
C1086 C1085 1.398 . S
C1086 C1087 1.391 . S
C1087 H1075 0.950 . S
C1087 C1083 1.393 . S
C1087 C1086 1.391 . S
H1088 C1096 0.950 . S
H1089 C1101 0.950 . S
H1090 C1098 0.950 . S
H1091 C1100 0.950 . S
H1092 C1102 0.950 . S
H1093 C1104 0.950 . S
H1094 C1106 0.953 1_556 S
H1095 C1107 0.950 . S
C1096 H1088 0.950 . S
C1096 C1097 1.386 . S
C1096 C1098 1.391 . S
C1097 C1096 1.386 . S
C1097 C1101 1.393 . S
C1098 H1090 0.950 . S
C1098 C1096 1.391 . S
C1098 C1099 1.400 1_556 S
C1099 C1098 1.400 1_554 S
C1099 C1100 1.398 . S
C1099 C1105 1.491 . S
C1100 H1091 0.950 . S
C1100 C1099 1.398 . S
C1100 C1101 1.391 1_554 S
C1101 H1089 0.950 . S
C1101 C1097 1.393 . S
C1101 C1100 1.391 1_556 S
C1102 H1092 0.950 . S
C1102 C1103 1.386 . S
C1102 C1104 1.391 . S
C1103 C1102 1.386 . S
C1103 C1107 1.393 . S
C1104 H1093 0.950 . S
C1104 C1102 1.391 . S
C1104 C1105 1.400 . S
C1105 C1099 1.491 . S
C1105 C1104 1.400 . S
C1105 C1106 1.398 . S
C1106 H1094 0.953 1_554 S
C1106 C1105 1.398 . S
C1106 C1107 1.391 . S
C1107 H1095 0.950 . S
C1107 C1103 1.393 . S
C1107 C1106 1.391 . S
H1108 C1116 0.950 . S
H1109 C1121 0.950 . S
H1110 C1118 0.950 . S
H1111 C1120 0.950 . S
H1112 C1122 0.950 . S
H1113 C1124 0.950 . S
H1114 C1126 0.950 . S
H1115 C1127 0.950 . S
C1116 H1108 0.950 . S
C1116 C1117 1.386 . S
C1116 C1118 1.391 . S
C1117 C1116 1.386 . S
C1117 C1121 1.393 . S
C1118 H1110 0.950 . S
C1118 C1116 1.391 . S
C1118 C1119 1.400 . S
C1119 C1118 1.400 . S
C1119 C1120 1.398 . S
C1119 C1125 1.491 . S
C1120 H1111 0.950 . S
C1120 C1119 1.398 . S
C1120 C1121 1.391 . S
C1121 H1109 0.950 . S
C1121 C1117 1.393 . S
C1121 C1120 1.391 . S
C1122 H1112 0.950 . S
C1122 C1123 1.386 . S
C1122 C1124 1.391 1_556 S
C1123 C1122 1.386 . S
C1123 C1127 1.393 . S
C1124 H1113 0.950 . S
C1124 C1122 1.391 1_554 S
C1124 C1125 1.400 . S
C1125 C1119 1.491 . S
C1125 C1124 1.400 . S
C1125 C1126 1.398 1_554 S
C1126 H1114 0.950 . S
C1126 C1125 1.398 1_556 S
C1126 C1127 1.391 . S
C1127 H1115 0.950 . S
C1127 C1123 1.393 . S
C1127 C1126 1.391 . S
H1128 C1136 0.950 . S
H1129 C1141 0.950 . S
H1130 C1138 0.950 . S
H1131 C1140 0.950 . S
H1132 C1142 0.950 . S
H1133 C1144 0.950 . S
H1134 C1146 0.950 . S
H1135 C1147 0.950 . S
C1136 H1128 0.950 . S
C1136 C1137 1.386 . S
C1136 C1138 1.391 1_556 S
C1137 C1136 1.386 . S
C1137 C1141 1.393 . S
C1138 H1130 0.950 . S
C1138 C1136 1.391 1_554 S
C1138 C1139 1.400 . S
C1139 C1138 1.400 . S
C1139 C1140 1.398 1_554 S
C1139 C1145 1.491 . S
C1140 H1131 0.950 . S
C1140 C1139 1.398 1_556 S
C1140 C1141 1.391 . S
C1141 H1129 0.950 . S
C1141 C1137 1.393 . S
C1141 C1140 1.391 . S
C1142 H1132 0.950 . S
C1142 C1143 1.386 . S
C1142 C1144 1.391 . S
C1143 C1142 1.386 . S
C1143 C1147 1.393 . S
C1144 H1133 0.950 . S
C1144 C1142 1.391 . S
C1144 C1145 1.400 . S
C1145 C1139 1.491 . S
C1145 C1144 1.400 . S
C1145 C1146 1.398 . S
C1146 H1134 0.950 . S
C1146 C1145 1.398 . S
C1146 C1147 1.391 . S
C1147 H1135 0.950 . S
C1147 C1143 1.393 . S
C1147 C1146 1.391 . S
H1148 C1156 0.950 . S
H1149 C1161 0.950 . S
H1150 C1158 0.950 . S
H1151 C1160 0.950 . S
H1152 C1162 0.950 . S
H1153 C1164 0.950 . S
H1154 C1166 0.950 . S
H1155 C1167 0.950 . S
C1156 H1148 0.950 . S
C1156 C1157 1.386 . S
C1156 C1158 1.391 . S
C1157 C1156 1.386 . S
C1157 C1161 1.393 . S
C1158 H1150 0.950 . S
C1158 C1156 1.391 . S
C1158 C1159 1.400 . S
C1159 C1158 1.400 . S
C1159 C1160 1.398 . S
C1159 C1165 1.491 . S
C1160 H1151 0.950 . S
C1160 C1159 1.398 . S
C1160 C1161 1.391 . S
C1161 H1149 0.950 . S
C1161 C1157 1.393 . S
C1161 C1160 1.391 . S
C1162 H1152 0.950 . S
C1162 C1163 1.386 . S
C1162 C1164 1.391 1_556 S
C1163 C1162 1.386 . S
C1163 C1167 1.393 . S
C1164 H1153 0.950 . S
C1164 C1162 1.391 1_554 S
C1164 C1165 1.400 . S
C1165 C1159 1.491 . S
C1165 C1164 1.400 . S
C1165 C1166 1.398 1_554 S
C1166 H1154 0.950 . S
C1166 C1165 1.398 1_556 S
C1166 C1167 1.391 . S
C1167 H1155 0.950 . S
C1167 C1163 1.393 . S
C1167 C1166 1.391 . S
H1168 C1176 0.950 . S
H1169 C1181 0.950 . S
H1170 C1178 0.950 . S
H1171 C1180 0.950 . S
H1172 C1182 0.950 . S
H1173 C1184 0.950 . S
H1174 C1186 0.950 . S
H1175 C1187 0.950 . S
C1176 H1168 0.950 . S
C1176 C1177 1.386 . S
C1176 C1178 1.391 . S
C1177 C1176 1.386 . S
C1177 C1181 1.393 . S
C1178 H1170 0.950 . S
C1178 C1176 1.391 . S
C1178 C1179 1.400 . S
C1179 C1178 1.400 . S
C1179 C1180 1.398 . S
C1179 C1185 1.491 . S
C1180 H1171 0.950 . S
C1180 C1179 1.398 . S
C1180 C1181 1.391 . S
C1181 H1169 0.950 . S
C1181 C1177 1.393 . S
C1181 C1180 1.391 . S
C1182 H1172 0.950 . S
C1182 C1183 1.386 . S
C1182 C1184 1.391 . S
C1183 C1182 1.386 . S
C1183 C1187 1.393 . S
C1184 H1173 0.950 . S
C1184 C1182 1.391 . S
C1184 C1185 1.400 . S
C1185 C1179 1.491 . S
C1185 C1184 1.400 . S
C1185 C1186 1.398 . S
C1186 H1174 0.950 . S
C1186 C1185 1.398 . S
C1186 C1187 1.391 . S
C1187 H1175 0.950 . S
C1187 C1183 1.393 . S
C1187 C1186 1.391 . S
H1188 C1196 0.950 . S
H1189 C1201 0.950 . S
H1190 C1198 0.950 . S
H1191 C1200 0.950 . S
H1192 C1202 0.950 . S
H1193 C1204 0.950 . S
H1194 C1206 0.950 . S
H1195 C1207 0.950 . S
C1196 H1188 0.950 . S
C1196 C1197 1.386 . S
C1196 C1198 1.391 . S
C1197 C1196 1.386 . S
C1197 C1201 1.393 . S
C1198 H1190 0.950 . S
C1198 C1196 1.391 . S
C1198 C1199 1.400 . S
C1199 C1198 1.400 . S
C1199 C1200 1.398 . S
C1199 C1205 1.491 . S
C1200 H1191 0.950 . S
C1200 C1199 1.398 . S
C1200 C1201 1.391 . S
C1201 H1189 0.950 . S
C1201 C1197 1.393 . S
C1201 C1200 1.391 . S
C1202 H1192 0.950 . S
C1202 C1203 1.386 . S
C1202 C1204 1.391 . S
C1203 C1202 1.386 . S
C1203 C1207 1.393 . S
C1204 H1193 0.950 . S
C1204 C1202 1.391 . S
C1204 C1205 1.400 . S
C1205 C1199 1.491 . S
C1205 C1204 1.400 . S
C1205 C1206 1.398 . S
C1206 H1194 0.950 . S
C1206 C1205 1.398 . S
C1206 C1207 1.391 . S
C1207 H1195 0.950 . S
C1207 C1203 1.393 . S
C1207 C1206 1.391 . S
H1208 C1216 0.950 . S
H1209 C1221 0.950 . S
H1210 C1218 0.950 . S
H1211 C1220 0.950 . S
H1212 C1222 0.950 . S
H1213 C1224 0.950 . S
H1214 C1226 0.950 . S
H1215 C1227 0.950 . S
C1216 H1208 0.950 . S
C1216 C1217 1.386 . S
C1216 C1218 1.391 . S
C1217 C1216 1.386 . S
C1217 C1221 1.393 . S
C1218 H1210 0.950 . S
C1218 C1216 1.391 . S
C1218 C1219 1.400 . S
C1219 C1218 1.400 . S
C1219 C1220 1.398 . S
C1219 C1225 1.491 . S
C1220 H1211 0.950 . S
C1220 C1219 1.398 . S
C1220 C1221 1.391 . S
C1221 H1209 0.950 . S
C1221 C1217 1.393 . S
C1221 C1220 1.391 . S
C1222 H1212 0.950 . S
C1222 C1223 1.386 . S
C1222 C1224 1.391 . S
C1223 C1222 1.386 . S
C1223 C1227 1.393 . S
C1224 H1213 0.950 . S
C1224 C1222 1.391 . S
C1224 C1225 1.400 . S
C1225 C1219 1.491 . S
C1225 C1224 1.400 . S
C1225 C1226 1.398 . S
C1226 H1214 0.950 . S
C1226 C1225 1.398 . S
C1226 C1227 1.391 . S
C1227 H1215 0.950 . S
C1227 C1223 1.393 . S
C1227 C1226 1.391 . S
H1228 C1236 0.950 . S
H1229 C1241 0.950 . S
H1230 C1238 0.950 . S
H1231 C1240 0.950 . S
H1232 C1242 0.950 . S
H1233 C1244 0.950 . S
H1234 C1246 0.950 . S
H1235 C1247 0.950 . S
C1236 H1228 0.950 . S
C1236 C1237 1.386 . S
C1236 C1238 1.391 . S
C1237 C1236 1.386 . S
C1237 C1241 1.393 . S
C1238 H1230 0.950 . S
C1238 C1236 1.391 . S
C1238 C1239 1.400 . S
C1239 C1238 1.400 . S
C1239 C1240 1.398 . S
C1239 C1245 1.491 . S
C1240 H1231 0.950 . S
C1240 C1239 1.398 . S
C1240 C1241 1.391 . S
C1241 H1229 0.950 . S
C1241 C1237 1.393 . S
C1241 C1240 1.391 . S
C1242 H1232 0.950 . S
C1242 C1243 1.386 . S
C1242 C1244 1.391 . S
C1243 C1242 1.386 . S
C1243 C1247 1.393 . S
C1244 H1233 0.950 . S
C1244 C1242 1.391 . S
C1244 C1245 1.400 . S
C1245 C1239 1.491 . S
C1245 C1244 1.400 . S
C1245 C1246 1.398 . S
C1246 H1234 0.950 . S
C1246 C1245 1.398 . S
C1246 C1247 1.391 . S
C1247 H1235 0.950 . S
C1247 C1243 1.393 . S
C1247 C1246 1.391 . S
H1248 C1256 0.950 . S
H1249 C1261 0.950 . S
H1250 C1258 0.950 . S
H1251 C1260 0.947 1_554 S
H1252 C1262 0.950 . S
H1253 C1264 0.950 . S
H1254 C1266 0.950 . S
H1255 C1267 0.950 . S
C1256 H1248 0.950 . S
C1256 C1257 1.386 . S
C1256 C1258 1.391 . S
C1257 C1256 1.386 . S
C1257 C1261 1.393 . S
C1258 H1250 0.950 . S
C1258 C1256 1.391 . S
C1258 C1259 1.400 . S
C1259 C1258 1.400 . S
C1259 C1260 1.398 . S
C1259 C1265 1.491 . S
C1260 H1251 0.947 1_556 S
C1260 C1259 1.398 . S
C1260 C1261 1.391 . S
C1261 H1249 0.950 . S
C1261 C1257 1.393 . S
C1261 C1260 1.391 . S
C1262 H1252 0.950 . S
C1262 C1263 1.386 . S
C1262 C1264 1.391 . S
C1263 C1262 1.386 . S
C1263 C1267 1.393 . S
C1264 H1253 0.950 . S
C1264 C1262 1.391 . S
C1264 C1265 1.400 1_554 S
C1265 C1259 1.491 . S
C1265 C1264 1.400 1_556 S
C1265 C1266 1.398 . S
C1266 H1254 0.950 . S
C1266 C1265 1.398 . S
C1266 C1267 1.391 1_556 S
C1267 H1255 0.950 . S
C1267 C1263 1.393 . S
C1267 C1266 1.391 1_554 S
H1268 C1276 0.950 . S
H1269 C1281 0.950 . S
H1270 C1278 0.950 . S
H1271 C1280 0.960 . S
H1272 C1282 0.950 . S
H1273 C1284 0.950 . S
H1274 C1286 0.950 . S
H1275 C1287 0.950 . S
C1276 H1268 0.950 . S
C1276 C1277 1.386 . S
C1276 C1278 1.391 . S
C1277 C1276 1.386 . S
C1277 C1281 1.393 . S
C1278 H1270 0.950 . S
C1278 C1276 1.391 . S
C1278 C1279 1.400 . S
C1279 C1278 1.400 . S
C1279 C1280 1.398 . S
C1279 C1285 1.491 . S
C1280 H1271 0.960 . S
C1280 C1279 1.398 . S
C1280 C1281 1.391 . S
C1281 H1269 0.950 . S
C1281 C1277 1.393 . S
C1281 C1280 1.391 . S
C1282 H1272 0.950 . S
C1282 C1283 1.386 . S
C1282 C1284 1.391 . S
C1283 C1282 1.386 . S
C1283 C1287 1.393 . S
C1284 H1273 0.950 . S
C1284 C1282 1.391 . S
C1284 C1285 1.400 1_554 S
C1285 C1279 1.491 . S
C1285 C1284 1.400 1_556 S
C1285 C1286 1.398 . S
C1286 H1274 0.950 . S
C1286 C1285 1.398 . S
C1286 C1287 1.391 1_556 S
C1287 H1275 0.950 . S
C1287 C1283 1.393 . S
C1287 C1286 1.391 1_554 S
H1288 C1296 0.950 . S
H1289 C1301 0.950 . S
H1290 C1298 0.950 . S
H1291 C1300 0.950 . S
H1292 C1302 0.950 . S
H1293 C1304 0.950 . S
H1294 C1306 0.949 . S
H1295 C1307 0.950 . S
C1296 H1288 0.950 . S
C1296 C1297 1.386 . S
C1296 C1298 1.391 . S
C1297 C1296 1.386 . S
C1297 C1301 1.393 . S
C1298 H1290 0.950 . S
C1298 C1296 1.391 . S
C1298 C1299 1.400 1_554 S
C1299 C1298 1.400 1_556 S
C1299 C1300 1.398 . S
C1299 C1305 1.491 . S
C1300 H1291 0.950 . S
C1300 C1299 1.398 . S
C1300 C1301 1.391 1_556 S
C1301 H1289 0.950 . S
C1301 C1297 1.393 . S
C1301 C1300 1.391 1_554 S
C1302 H1292 0.950 . S
C1302 C1303 1.386 . S
C1302 C1304 1.391 . S
C1303 C1302 1.386 . S
C1303 C1307 1.393 . S
C1304 H1293 0.950 . S
C1304 C1302 1.391 . S
C1304 C1305 1.400 . S
C1305 C1299 1.491 . S
C1305 C1304 1.400 . S
C1305 C1306 1.398 . S
C1306 H1294 0.949 . S
C1306 C1305 1.398 . S
C1306 C1307 1.391 . S
C1307 H1295 0.950 . S
C1307 C1303 1.393 . S
C1307 C1306 1.391 . S
H1308 C1316 0.950 . S
H1309 C1321 0.950 . S
H1310 C1318 0.958 . S
H1311 C1320 0.950 . S
H1312 C1322 0.950 . S
H1313 C1324 0.950 . S
H1314 C1326 0.950 . S
H1315 C1327 0.950 . S
C1316 H1308 0.950 . S
C1316 C1317 1.386 . S
C1316 C1318 1.391 . S
C1317 C1316 1.386 . S
C1317 C1321 1.393 . S
C1318 H1310 0.958 . S
C1318 C1316 1.391 . S
C1318 C1319 1.400 1_554 S
C1319 C1318 1.400 1_556 S
C1319 C1320 1.398 1_556 S
C1319 C1325 1.491 . S
C1320 H1311 0.950 . S
C1320 C1319 1.398 1_554 S
C1320 C1321 1.391 . S
C1321 H1309 0.950 . S
C1321 C1317 1.393 . S
C1321 C1320 1.391 . S
C1322 H1312 0.950 . S
C1322 C1323 1.386 . S
C1322 C1324 1.391 . S
C1323 C1322 1.386 . S
C1323 C1327 1.393 . S
C1324 H1313 0.950 . S
C1324 C1322 1.391 . S
C1324 C1325 1.400 . S
C1325 C1319 1.491 . S
C1325 C1324 1.400 . S
C1325 C1326 1.398 . S
C1326 H1314 0.950 . S
C1326 C1325 1.398 . S
C1326 C1327 1.391 . S
C1327 H1315 0.950 . S
C1327 C1323 1.393 . S
C1327 C1326 1.391 . S
C377 C17 1.698 . S
C383 C131 1.696 . S
C397 C155 1.663 . S
C403 C40 1.665 . S
C417 C63 1.668 . S
C423 C178 1.668 . S
C437 C85 1.716 . S
C443 C108 1.723 . S
C457 C316 1.700 . S
C463 C201 1.692 . S
C477 C339 1.692 . S
C483 C224 1.698 . S
C497 C247 1.692 . S
C503 C362 1.700 . S
C517 C270 1.695 . S
C523 C293 1.687 . S
C537 C20 1.550 . S
C543 C88 1.540 1_545 S
C557 C43 1.517 . S
C563 C21 1.521 . S
C577 C66 1.532 . S
C583 C44 1.540 . S
C597 C87 1.559 . S
C603 C67 1.561 1_455 S
C617 C110 1.577 . S
C623 C134 1.574 1_565 S
C637 C159 1.575 . S
C643 C133 1.562 . S
C657 C158 1.515 . S
C663 C182 1.526 . S
C677 C111 1.539 1_655 S
C683 C181 1.545 . S
C697 C274 1.531 1_565 S
C703 C204 1.522 . S
C717 C227 1.528 . S
C723 C205 1.530 . S
C737 C250 1.521 . S
C743 C228 1.531 . S
C757 C273 1.527 . S
C763 C251 1.529 1_655 S
C777 C296 1.522 . S
C783 C320 1.526 1_545 S
C797 C319 1.510 . S
C803 C343 1.517 . S
C817 C342 1.510 . S
C823 C366 1.520 . S
C837 C365 1.523 . S
C843 C297 1.525 1_455 S
C857 C19 0.566 . S
C863 C65 0.626 . S
C877 C42 0.552 . S
C883 C90 0.580 . S
C897 C157 0.624 . S
C903 C113 0.547 . S
C917 C180 0.616 . S
C923 C136 0.534 . S
C937 C249 0.573 . S
C943 C203 0.637 . S
C957 C272 0.611 . S
C963 C226 0.549 . S
C977 C295 0.559 . S
C983 C341 0.622 . S
C997 C318 0.633 . S
C1003 C364 0.560 . S
C1017 C18 1.211 . S
C1023 C269 1.185 . S
C1037 C200 1.169 . S
C1043 C41 1.192 . S
C1057 C64 1.209 . S
C1063 C223 1.187 . S
C1077 C246 1.145 . S
C1083 C89 1.135 . S
C1097 C315 1.150 . S
C1103 C112 1.170 . S
C1117 C135 1.161 . S
C1123 C338 1.137 . S
C1137 C361 1.191 . S
C1143 C156 1.208 . S
C1157 C179 1.205 . S
C1163 C292 1.155 . S
C1177 C202 1.183 . S
C1183 C86 1.156 . S
C1197 C225 1.202 . S
C1203 C16 1.154 . S
C1217 C39 1.163 . S
C1223 C248 1.213 . S
C1237 C271 1.205 . S
C1243 C62 1.158 . S
C1257 C294 1.178 . S
C1263 C132 1.153 . S
C1277 C317 1.213 . S
C1283 C154 1.169 . S
C1297 C177 1.182 . S
C1303 C340 1.207 . S
C1317 C109 1.147 . S
C1323 C363 1.177 . S
