# Generated by pormake.
# Topology why, (6)-cn, num edge types: 1
# Building blocks:
#     Node 0, Type 0, BuildingBlock: MIFKUJ_clean_sbu_0, # of connection points: 6
#     Node 1, Type 0, BuildingBlock: MIFKUJ_clean_sbu_0, # of connection points: 6
#     Node 2, Type 0, BuildingBlock: MIFKUJ_clean_sbu_0, # of connection points: 6
#     Node 3, Type 0, BuildingBlock: MIFKUJ_clean_sbu_0, # of connection points: 6
#     Node 4, Type 0, BuildingBlock: MIFKUJ_clean_sbu_0, # of connection points: 6
#     Node 5, Type 0, BuildingBlock: MIFKUJ_clean_sbu_0, # of connection points: 6
#     Node 6, Type 0, BuildingBlock: MIFKUJ_clean_sbu_0, # of connection points: 6
#     Node 7, Type 0, BuildingBlock: MIFKUJ_clean_sbu_0, # of connection points: 6
#     Node 8, Type 0, BuildingBlock: MIFKUJ_clean_sbu_0, # of connection points: 6
#     Node 9, Type 0, BuildingBlock: MIFKUJ_clean_sbu_0, # of connection points: 6
#     Node 10, Type 0, BuildingBlock: MIFKUJ_clean_sbu_0, # of connection points: 6
#     Node 11, Type 0, BuildingBlock: MIFKUJ_clean_sbu_0, # of connection points: 6
#     Node 12, Type 0, BuildingBlock: MIFKUJ_clean_sbu_0, # of connection points: 6
#     Node 13, Type 0, BuildingBlock: MIFKUJ_clean_sbu_0, # of connection points: 6
#     Node 14, Type 0, BuildingBlock: MIFKUJ_clean_sbu_0, # of connection points: 6
#     Node 15, Type 0, BuildingBlock: MIFKUJ_clean_sbu_0, # of connection points: 6
#     Edge 16, Type (0, 0), BuildingBlock: TEMPAE_clean_linker_10, # of connection points: 2
#     Edge 17, Type (0, 0), BuildingBlock: TEMPAE_clean_linker_10, # of connection points: 2
#     Edge 18, Type (0, 0), BuildingBlock: TEMPAE_clean_linker_10, # of connection points: 2
#     Edge 19, Type (0, 0), BuildingBlock: TEMPAE_clean_linker_10, # of connection points: 2
#     Edge 20, Type (0, 0), BuildingBlock: TEMPAE_clean_linker_10, # of connection points: 2
#     Edge 21, Type (0, 0), BuildingBlock: TEMPAE_clean_linker_10, # of connection points: 2
#     Edge 22, Type (0, 0), BuildingBlock: TEMPAE_clean_linker_10, # of connection points: 2
#     Edge 23, Type (0, 0), BuildingBlock: TEMPAE_clean_linker_10, # of connection points: 2
#     Edge 24, Type (0, 0), BuildingBlock: TEMPAE_clean_linker_10, # of connection points: 2
#     Edge 25, Type (0, 0), BuildingBlock: TEMPAE_clean_linker_10, # of connection points: 2
#     Edge 26, Type (0, 0), BuildingBlock: TEMPAE_clean_linker_10, # of connection points: 2
#     Edge 27, Type (0, 0), BuildingBlock: TEMPAE_clean_linker_10, # of connection points: 2
#     Edge 28, Type (0, 0), BuildingBlock: TEMPAE_clean_linker_10, # of connection points: 2
#     Edge 29, Type (0, 0), BuildingBlock: TEMPAE_clean_linker_10, # of connection points: 2
#     Edge 30, Type (0, 0), BuildingBlock: TEMPAE_clean_linker_10, # of connection points: 2
#     Edge 31, Type (0, 0), BuildingBlock: TEMPAE_clean_linker_10, # of connection points: 2
#     Edge 32, Type (0, 0), BuildingBlock: TEMPAE_clean_linker_10, # of connection points: 2
#     Edge 33, Type (0, 0), BuildingBlock: TEMPAE_clean_linker_10, # of connection points: 2
#     Edge 34, Type (0, 0), BuildingBlock: TEMPAE_clean_linker_10, # of connection points: 2
#     Edge 35, Type (0, 0), BuildingBlock: TEMPAE_clean_linker_10, # of connection points: 2
#     Edge 36, Type (0, 0), BuildingBlock: TEMPAE_clean_linker_10, # of connection points: 2
#     Edge 37, Type (0, 0), BuildingBlock: TEMPAE_clean_linker_10, # of connection points: 2
#     Edge 38, Type (0, 0), BuildingBlock: TEMPAE_clean_linker_10, # of connection points: 2
#     Edge 39, Type (0, 0), BuildingBlock: TEMPAE_clean_linker_10, # of connection points: 2
#     Edge 40, Type (0, 0), BuildingBlock: TEMPAE_clean_linker_10, # of connection points: 2
#     Edge 41, Type (0, 0), BuildingBlock: TEMPAE_clean_linker_10, # of connection points: 2
#     Edge 42, Type (0, 0), BuildingBlock: TEMPAE_clean_linker_10, # of connection points: 2
#     Edge 43, Type (0, 0), BuildingBlock: TEMPAE_clean_linker_10, # of connection points: 2
#     Edge 44, Type (0, 0), BuildingBlock: TEMPAE_clean_linker_10, # of connection points: 2
#     Edge 45, Type (0, 0), BuildingBlock: TEMPAE_clean_linker_10, # of connection points: 2
#     Edge 46, Type (0, 0), BuildingBlock: TEMPAE_clean_linker_10, # of connection points: 2
#     Edge 47, Type (0, 0), BuildingBlock: TEMPAE_clean_linker_10, # of connection points: 2
#     Edge 48, Type (0, 0), BuildingBlock: TEMPAE_clean_linker_10, # of connection points: 2
#     Edge 49, Type (0, 0), BuildingBlock: TEMPAE_clean_linker_10, # of connection points: 2
#     Edge 50, Type (0, 0), BuildingBlock: TEMPAE_clean_linker_10, # of connection points: 2
#     Edge 51, Type (0, 0), BuildingBlock: TEMPAE_clean_linker_10, # of connection points: 2
#     Edge 52, Type (0, 0), BuildingBlock: TEMPAE_clean_linker_10, # of connection points: 2
#     Edge 53, Type (0, 0), BuildingBlock: TEMPAE_clean_linker_10, # of connection points: 2
#     Edge 54, Type (0, 0), BuildingBlock: TEMPAE_clean_linker_10, # of connection points: 2
#     Edge 55, Type (0, 0), BuildingBlock: TEMPAE_clean_linker_10, # of connection points: 2
#     Edge 56, Type (0, 0), BuildingBlock: TEMPAE_clean_linker_10, # of connection points: 2
#     Edge 57, Type (0, 0), BuildingBlock: TEMPAE_clean_linker_10, # of connection points: 2
#     Edge 58, Type (0, 0), BuildingBlock: TEMPAE_clean_linker_10, # of connection points: 2
#     Edge 59, Type (0, 0), BuildingBlock: TEMPAE_clean_linker_10, # of connection points: 2
#     Edge 60, Type (0, 0), BuildingBlock: TEMPAE_clean_linker_10, # of connection points: 2
#     Edge 61, Type (0, 0), BuildingBlock: TEMPAE_clean_linker_10, # of connection points: 2
#     Edge 62, Type (0, 0), BuildingBlock: TEMPAE_clean_linker_10, # of connection points: 2
#     Edge 63, Type (0, 0), BuildingBlock: TEMPAE_clean_linker_10, # of connection points: 2
# Relax obj value: 0.197
# Max RMSD: 0.172
# Mean RMSD: 0.172
data_MOF--net-why--node1-MIFKUJ_clean_sbu_0--edge1-TEMPAE_clean_linker_10
_symmetry_space_group_name_H-M    P1
_symmetry_Int_Tables_number       1
_symmetry_cell_setting            triclinic
loop_
_symmetry_equiv_pos_as_xyz
'x, y, z'
_cell_length_a     51.569403
_cell_length_b     51.549595
_cell_length_c     30.527374
_cell_angle_alpha  90.009949
_cell_angle_beta   89.984594
_cell_angle_gamma 90.026939
loop_
_atom_site_label
_atom_site_type_symbol
_atom_site_fract_x
_atom_site_fract_y
_atom_site_fract_z
_atom_type_partial_charge
Zn0 Zn 0.32225 0.17195 0.07591 0.0
Zn1 Zn 0.39581 0.16226 0.02957 0.0
C2 C 0.27234 0.16895 0.03898 0.0
O3 O 0.27218 0.19257 0.05518 0.0
C4 C 0.43487 0.19045 0.07639 0.0
O5 O 0.44101 0.16687 0.08897 0.0
O6 O 0.30748 0.19004 0.12826 0.0
O7 O 0.34983 0.14456 0.09424 0.0
O8 O 0.3909 0.13558 0.07647 0.0
C9 C 0.29112 0.18016 0.1545 0.0
O10 O 0.28502 0.15551 0.15073 0.0
O11 O 0.29252 0.15508 0.0438 0.0
C12 C 0.43069 0.16433 0.95704 0.0
O13 O 0.43151 0.18876 0.96911 0.0
O14 O 0.41617 0.14863 0.97796 0.0
O15 O 0.36003 0.17035 0.01372 0.0
O16 O 0.33512 0.20089 0.03703 0.0
O17 O 0.41475 0.19369 0.05297 0.0
C18 C 0.3704 0.13085 0.09869 0.0
C19 C 0.35331 0.19382 0.01218 0.0
Zn20 Zn 0.58158 0.57735 0.33511 0.0
Zn21 Zn 0.60003 0.62607 0.26817 0.0
C22 C 0.61239 0.54584 0.27146 0.0
O23 O 0.62777 0.56595 0.26663 0.0
C24 C 0.58192 0.67401 0.30253 0.0
O25 O 0.60499 0.6812 0.28886 0.0
O26 O 0.56057 0.56 0.38172 0.0
O27 O 0.61274 0.59569 0.36182 0.0
O28 O 0.63018 0.61862 0.30761 0.0
C29 C 0.55536 0.56776 0.42018 0.0
O30 O 0.56572 0.58938 0.43482 0.0
O31 O 0.59318 0.5473 0.29743 0.0
C32 C 0.59413 0.65879 0.19497 0.0
O33 O 0.56985 0.65496 0.20621 0.0
O34 O 0.6119 0.64716 0.21623 0.0
O35 O 0.5796 0.59633 0.24405 0.0
O36 O 0.55492 0.59775 0.30172 0.0
O37 O 0.57559 0.65021 0.30021 0.0
C38 C 0.63135 0.60905 0.346 0.0
C39 C 0.55707 0.59775 0.26037 0.0
Zn40 Zn 0.17456 0.83703 0.57915 0.0
Zn41 Zn 0.11754 0.85048 0.51273 0.0
C42 C 0.2136 0.83981 0.50932 0.0
O43 O 0.2072 0.81549 0.50255 0.0
C44 C 0.06908 0.82971 0.53859 0.0
O45 O 0.06222 0.85319 0.52654 0.0
O46 O 0.19299 0.81876 0.62886 0.0
O47 O 0.15313 0.86694 0.6038 0.0
O48 O 0.12241 0.87904 0.55656 0.0
C49 C 0.21757 0.81807 0.63231 0.0
O50 O 0.23181 0.83157 0.6049 0.0
O51 O 0.20214 0.85263 0.53923 0.0
C52 C 0.08866 0.84579 0.43539 0.0
O53 O 0.09294 0.8214 0.44534 0.0
O54 O 0.09866 0.86341 0.45926 0.0
O55 O 0.14983 0.83337 0.49197 0.0
O56 O 0.15575 0.80801 0.54801 0.0
O57 O 0.09303 0.82374 0.53874 0.0
C58 C 0.13525 0.88252 0.59173 0.0
C59 C 0.15068 0.8107 0.50769 0.0
Zn60 Zn 0.91961 0.42509 0.83457 0.0
Zn61 Zn 0.90713 0.36375 0.77292 0.0
C62 C 0.91697 0.46466 0.76681 0.0
O63 O 0.94038 0.45637 0.75741 0.0
C64 C 0.93292 0.32227 0.81821 0.0
O65 O 0.90893 0.31678 0.82937 0.0
O66 O 0.93846 0.44393 0.88231 0.0
O67 O 0.88996 0.40298 0.85982 0.0
O68 O 0.8804 0.36799 0.81966 0.0
C69 C 0.9539 0.43311 0.90904 0.0
O70 O 0.95622 0.40773 0.9088 0.0
O71 O 0.90421 0.454 0.79763 0.0
C72 C 0.90954 0.33052 0.6991 0.0
O73 O 0.93433 0.33253 0.70834 0.0
O74 O 0.89318 0.34289 0.72232 0.0
O75 O 0.91902 0.39774 0.75077 0.0
O76 O 0.94774 0.40697 0.80034 0.0
O77 O 0.93733 0.3428 0.79636 0.0
C78 C 0.876 0.38298 0.85201 0.0
C79 C 0.94254 0.39971 0.76172 0.0
Zn80 Zn 0.60939 0.84226 0.9784 0.0
Zn81 Zn 0.6729 0.82841 0.92265 0.0
C82 C 0.56847 0.81558 0.93289 0.0
O83 O 0.56296 0.83927 0.92006 0.0
C84 C 0.71085 0.83363 0.99389 0.0
O85 O 0.69981 0.81261 0.00937 0.0
O86 O 0.58645 0.85845 0.02404 0.0
O87 O 0.6411 0.82915 0.00793 0.0
O88 O 0.65328 0.80163 0.95772 0.0
C89 C 0.57646 0.84303 0.05186 0.0
O90 O 0.58228 0.81826 0.04992 0.0
O91 O 0.58864 0.81182 0.95593 0.0
C92 C 0.68714 0.80633 0.836 0.0
O93 O 0.66983 0.82181 0.81835 0.0
O94 O 0.69095 0.80698 0.87706 0.0
O95 O 0.65243 0.85786 0.89368 0.0
O96 O 0.61621 0.8677 0.93003 0.0
O97 O 0.70234 0.84382 0.95875 0.0
C98 C 0.64445 0.80594 0.99576 0.0
C99 C 0.63223 0.87184 0.89904 0.0
Zn100 Zn 0.41344 0.35725 0.72155 0.0
Zn101 Zn 0.4193 0.42754 0.67137 0.0
C102 C 0.44116 0.31815 0.67623 0.0
O103 O 0.41717 0.31159 0.66681 0.0
C104 C 0.41813 0.47562 0.71624 0.0
O105 O 0.44214 0.47539 0.70177 0.0
O106 O 0.40123 0.33479 0.77139 0.0
O107 O 0.4207 0.39238 0.74394 0.0
O108 O 0.44931 0.4131 0.70571 0.0
C109 C 0.41837 0.32304 0.79392 0.0
O110 O 0.44296 0.32624 0.78412 0.0
O111 O 0.44514 0.33914 0.69709 0.0
C112 C 0.42814 0.46466 0.6008 0.0
O113 O 0.40573 0.4745 0.61275 0.0
O114 O 0.4363 0.44416 0.61932 0.0
O115 O 0.39087 0.40191 0.65118 0.0
O116 O 0.3862 0.36111 0.6753 0.0
O117 O 0.40354 0.45634 0.70777 0.0
C118 C 0.44402 0.39888 0.73815 0.0
C119 C 0.37922 0.37997 0.65093 0.0
Zn120 Zn 0.88353 0.1591 0.4743 0.0
Zn121 Zn 0.82651 0.17114 0.41137 0.0
C122 C 0.92575 0.18407 0.42896 0.0
O123 O 0.93104 0.15997 0.41817 0.0
C124 C 0.779 0.16921 0.45855 0.0
O125 O 0.77726 0.19236 0.44082 0.0
O126 O 0.90407 0.14595 0.52544 0.0
O127 O 0.84981 0.17218 0.49716 0.0
O128 O 0.84441 0.1998 0.44444 0.0
C129 C 0.91554 0.16274 0.54908 0.0
O130 O 0.91263 0.18747 0.54001 0.0
O131 O 0.90514 0.1888 0.4504 0.0
C132 C 0.81727 0.20156 0.33252 0.0
O133 O 0.84255 0.20069 0.32731 0.0
O134 O 0.80689 0.18934 0.36405 0.0
O135 O 0.84787 0.14186 0.38474 0.0
O136 O 0.88044 0.13113 0.42904 0.0
O137 O 0.7992 0.15569 0.45138 0.0
C138 C 0.8481 0.19551 0.4848 0.0
C139 C 0.86687 0.1272 0.39484 0.0
Zn140 Zn 0.09757 0.63497 0.23104 0.0
Zn141 Zn 0.08527 0.57616 0.16578 0.0
C142 C 0.07209 0.67667 0.18535 0.0
O143 O 0.09608 0.68193 0.17391 0.0
C144 C 0.08622 0.52644 0.20693 0.0
O145 O 0.06327 0.52553 0.18834 0.0
O146 O 0.111 0.65571 0.28218 0.0
O147 O 0.085 0.60088 0.25314 0.0
O148 O 0.05728 0.59344 0.20113 0.0
C149 C 0.09428 0.66722 0.30592 0.0
O150 O 0.06954 0.66411 0.29713 0.0
O151 O 0.06758 0.65628 0.20756 0.0
C152 C 0.07539 0.54322 0.08935 0.0
O153 O 0.10034 0.53811 0.0905 0.0
O154 O 0.06593 0.5595 0.11616 0.0
O155 O 0.115 0.59825 0.14182 0.0
O156 O 0.12499 0.63185 0.18467 0.0
O157 O 0.09993 0.54682 0.20254 0.0
C158 C 0.06168 0.59852 0.24102 0.0
C159 C 0.12923 0.61778 0.15111 0.0
Zn160 Zn 0.82745 0.66909 0.58438 0.0
Zn161 Zn 0.8922 0.65861 0.52467 0.0
C162 C 0.78156 0.66859 0.53229 0.0
O163 O 0.7818 0.69312 0.54403 0.0
C164 C 0.93815 0.68474 0.54739 0.0
O165 O 0.94663 0.66108 0.54022 0.0
O166 O 0.8097 0.68641 0.63525 0.0
O167 O 0.8509 0.63961 0.60578 0.0
O168 O 0.88905 0.63234 0.57286 0.0
C169 C 0.78785 0.67942 0.65046 0.0
O170 O 0.77689 0.65822 0.63536 0.0
O171 O 0.79972 0.65384 0.5454 0.0
C172 C 0.92225 0.66023 0.44685 0.0
O173 O 0.91866 0.68512 0.4536 0.0
O174 O 0.91165 0.64398 0.4727 0.0
O175 O 0.8572 0.66959 0.50505 0.0
O176 O 0.84401 0.69852 0.55151 0.0
O177 O 0.91387 0.68905 0.5458 0.0
C178 C 0.87209 0.62696 0.60188 0.0
C179 C 0.85356 0.69315 0.5145 0.0
Zn180 Zn 0.07643 0.07851 0.83154 0.0
Zn181 Zn 0.08931 0.13645 0.76943 0.0
C182 C 0.07767 0.03206 0.78181 0.0
O183 O 0.05406 0.03092 0.79787 0.0
C184 C 0.06477 0.17856 0.81537 0.0
O185 O 0.08894 0.18381 0.82564 0.0
O186 O 0.05798 0.05861 0.87833 0.0
O187 O 0.10563 0.09966 0.85846 0.0
O188 O 0.11696 0.13259 0.81517 0.0
C189 C 0.04425 0.06925 0.90777 0.0
O190 O 0.04381 0.09466 0.9109 0.0
O191 O 0.09179 0.05154 0.79105 0.0
C192 C 0.08595 0.16908 0.69514 0.0
O193 O 0.06123 0.16613 0.70417 0.0
O194 O 0.10269 0.1574 0.7186 0.0
O195 O 0.07572 0.10298 0.74635 0.0
O196 O 0.04813 0.09691 0.79902 0.0
O197 O 0.05984 0.15802 0.79386 0.0
C198 C 0.12049 0.11866 0.84911 0.0
C199 C 0.05241 0.10136 0.75889 0.0
Zn200 Zn 0.67301 0.33415 0.08109 0.0
Zn201 Zn 0.61678 0.34886 0.0192 0.0
C202 C 0.72205 0.33241 0.03739 0.0
O203 O 0.72212 0.30918 0.05509 0.0
C204 C 0.57512 0.32562 0.06858 0.0
O205 O 0.56931 0.35001 0.07632 0.0
O206 O 0.68952 0.31467 0.13038 0.0
O207 O 0.65426 0.36564 0.10529 0.0
O208 O 0.62227 0.37824 0.06133 0.0
C209 C 0.70775 0.32382 0.15365 0.0
O210 O 0.71476 0.34814 0.14843 0.0
O211 O 0.70244 0.34699 0.04305 0.0
C212 C 0.58329 0.34295 0.94688 0.0
O213 O 0.58777 0.31854 0.95659 0.0
O214 O 0.59429 0.36062 0.96932 0.0
O215 O 0.64887 0.33372 0.99296 0.0
O216 O 0.65368 0.30689 0.04724 0.0
O217 O 0.59577 0.32036 0.04767 0.0
C218 C 0.63655 0.38172 0.09483 0.0
C219 C 0.65036 0.3106 0.0066 0.0
Zn220 Zn 0.41317 0.93321 0.3269 0.0
Zn221 Zn 0.41664 0.85245 0.29519 0.0
C222 C 0.38475 0.96355 0.26432 0.0
O223 O 0.3894 0.94323 0.23952 0.0
C224 C 0.43787 0.80453 0.31916 0.0
O225 O 0.41451 0.79779 0.30622 0.0
O226 O 0.43297 0.94675 0.37892 0.0
O227 O 0.39046 0.90087 0.34442 0.0
O228 O 0.38701 0.8578 0.33628 0.0
C229 C 0.44665 0.96666 0.37033 0.0
O230 O 0.44555 0.97658 0.33071 0.0
O231 O 0.39146 0.96286 0.30436 0.0
C232 C 0.42046 0.82456 0.21424 0.0
O233 O 0.44499 0.82384 0.22577 0.0
O234 O 0.40442 0.83692 0.23811 0.0
O235 O 0.4282 0.88801 0.28822 0.0
O236 O 0.44137 0.92714 0.28075 0.0
O237 O 0.44371 0.82849 0.32058 0.0
C238 C 0.37882 0.87929 0.35206 0.0
C239 C 0.44339 0.90366 0.26987 0.0
Zn240 Zn 0.11062 0.34192 0.47462 0.0
Zn241 Zn 0.1767 0.3319 0.42008 0.0
C242 C 0.06962 0.31605 0.42907 0.0
O243 O 0.06375 0.34022 0.41963 0.0
C244 C 0.21351 0.3383 0.49313 0.0
O245 O 0.20201 0.31779 0.50955 0.0
O246 O 0.08888 0.35544 0.52416 0.0
O247 O 0.1443 0.33094 0.49878 0.0
O248 O 0.15923 0.30261 0.45271 0.0
C249 C 0.07695 0.33866 0.54718 0.0
O250 O 0.07976 0.31395 0.53788 0.0
O251 O 0.09044 0.31145 0.44998 0.0
C252 C 0.18432 0.2996 0.34354 0.0
O253 O 0.15888 0.29813 0.34326 0.0
O254 O 0.1955 0.31398 0.37152 0.0
O255 O 0.15377 0.3612 0.39524 0.0
O256 O 0.11587 0.36893 0.42843 0.0
O257 O 0.20561 0.34771 0.45696 0.0
C258 C 0.14806 0.30752 0.48863 0.0
C259 C 0.13277 0.37422 0.39927 0.0
Zn260 Zn 0.91085 0.85894 0.22424 0.0
Zn261 Zn 0.91785 0.92461 0.16607 0.0
C262 C 0.93788 0.81826 0.18008 0.0
O263 O 0.9139 0.81178 0.17044 0.0
C264 C 0.91797 0.97364 0.20841 0.0
O265 O 0.94109 0.9739 0.19029 0.0
O266 O 0.8983 0.83794 0.27558 0.0
O267 O 0.92044 0.89386 0.2461 0.0
O268 O 0.94779 0.90895 0.19859 0.0
C269 C 0.91524 0.82675 0.29929 0.0
O270 O 0.9399 0.82965 0.28973 0.0
O271 O 0.94192 0.83934 0.20064 0.0
C272 C 0.92474 0.95906 0.09096 0.0
O273 O 0.90059 0.96605 0.09788 0.0
O274 O 0.93464 0.94112 0.114 0.0
O275 O 0.88818 0.90076 0.14666 0.0
O276 O 0.88316 0.86189 0.1782 0.0
O277 O 0.90363 0.95378 0.20325 0.0
C278 C 0.94358 0.89882 0.23559 0.0
C279 C 0.87627 0.87914 0.15063 0.0
Zn280 Zn 0.3834 0.65863 0.98404 0.0
Zn281 Zn 0.32874 0.67541 0.91777 0.0
C282 C 0.42621 0.68223 0.93791 0.0
O283 O 0.43116 0.65798 0.92763 0.0
C284 C 0.27788 0.67368 0.95699 0.0
O285 O 0.27566 0.69591 0.9363 0.0
O286 O 0.40393 0.64451 0.03475 0.0
O287 O 0.35044 0.67337 0.00712 0.0
O288 O 0.34754 0.70169 0.95482 0.0
C289 C 0.4169 0.66059 0.0576 0.0
O290 O 0.41548 0.68542 0.0483 0.0
O291 O 0.40576 0.68743 0.95945 0.0
C292 C 0.30305 0.68881 0.83415 0.0
O293 O 0.3026 0.66384 0.82561 0.0
O294 O 0.31338 0.6968 0.8694 0.0
O295 O 0.34872 0.64483 0.89175 0.0
O296 O 0.37884 0.63105 0.93858 0.0
O297 O 0.29904 0.66112 0.95403 0.0
C298 C 0.35039 0.69687 0.99523 0.0
C299 C 0.36606 0.62851 0.90316 0.0
Zn300 Zn 0.59806 0.13356 0.73039 0.0
Zn301 Zn 0.58477 0.07399 0.66608 0.0
C302 C 0.57318 0.17466 0.68343 0.0
O303 O 0.59744 0.17999 0.67377 0.0
C304 C 0.58512 0.0226 0.70345 0.0
O305 O 0.56233 0.0217 0.68427 0.0
O306 O 0.61082 0.1555 0.78053 0.0
O307 O 0.58618 0.09952 0.75349 0.0
O308 O 0.55749 0.09112 0.70347 0.0
C309 C 0.59389 0.16789 0.80252 0.0
O310 O 0.56925 0.16474 0.79308 0.0
O311 O 0.56815 0.15414 0.70494 0.0
C312 C 0.5726 0.04291 0.58828 0.0
O313 O 0.59604 0.03333 0.59296 0.0
O314 O 0.56483 0.06045 0.61438 0.0
O315 O 0.61555 0.09557 0.64405 0.0
O316 O 0.62591 0.12973 0.68537 0.0
O317 O 0.5986 0.0432 0.70034 0.0
C318 C 0.56265 0.09697 0.7428 0.0
C319 C 0.63016 0.11493 0.65275 0.0
C320 C 0.47416 0.2093 0.11242 0.0
C321 C 0.45347 0.21203 0.08296 0.0
C322 C 0.49386 0.22807 0.11494 0.0
C323 C 0.49304 0.24991 0.08687 0.0
C324 C 0.47162 0.25333 0.05838 0.0
C325 C 0.45205 0.2344 0.05688 0.0
C326 C 0.51605 0.22402 0.14644 0.0
C327 C 0.47 0.27623 0.02765 0.0
C328 C 0.53519 0.30939 0.10634 0.0
C329 C 0.55574 0.30502 0.07718 0.0
C330 C 0.51509 0.29118 0.11106 0.0
C331 C 0.51531 0.26833 0.08531 0.0
C332 C 0.53638 0.26351 0.05665 0.0
C333 C 0.55644 0.28181 0.05321 0.0
C334 C 0.49322 0.29677 0.14254 0.0
C335 C 0.53719 0.23963 0.02801 0.0
H336 H 0.47531 0.19215 0.13286 0.0
H337 H 0.43621 0.23663 0.03382 0.0
H338 H 0.53416 0.22032 0.12782 0.0
H339 H 0.51923 0.24176 0.16633 0.0
H340 H 0.5126 0.2074 0.16886 0.0
H341 H 0.48345 0.27306 -0.00023 0.0
H342 H 0.4501 0.27886 0.01449 0.0
H343 H 0.47592 0.29443 0.0442 0.0
H344 H 0.53459 0.32727 0.12503 0.0
H345 H 0.57213 0.27839 0.03025 0.0
H346 H 0.49019 0.28 0.16476 0.0
H347 H 0.47494 0.29967 0.12403 0.0
H348 H 0.49694 0.31434 0.16265 0.0
H349 H 0.53293 0.22195 0.0474 0.0
H350 H 0.55633 0.23713 0.01187 0.0
H351 H 0.52209 0.24122 0.00225 0.0
C352 C 0.54102 0.6884 0.33915 0.0
C353 C 0.56192 0.69377 0.31129 0.0
C354 C 0.52091 0.70648 0.34475 0.0
C355 C 0.52135 0.72998 0.32069 0.0
C356 C 0.54249 0.73546 0.29257 0.0
C357 C 0.56272 0.71745 0.28876 0.0
C358 C 0.49894 0.7002 0.37568 0.0
C359 C 0.54324 0.75984 0.26507 0.0
C360 C 0.4574 0.76288 0.29502 0.0
C361 C 0.45832 0.78465 0.32253 0.0
C362 C 0.47772 0.74484 0.29434 0.0
C363 C 0.49908 0.74824 0.32289 0.0
C364 C 0.49967 0.76973 0.35184 0.0
C365 C 0.47945 0.78798 0.35074 0.0
C366 C 0.47678 0.72273 0.26184 0.0
C367 C 0.52183 0.77361 0.38346 0.0
H368 H 0.54038 0.67004 0.35643 0.0
H369 H 0.57864 0.72142 0.26652 0.0
H370 H 0.49568 0.7166 0.39858 0.0
H371 H 0.48077 0.69737 0.35685 0.0
H372 H 0.50275 0.68236 0.39506 0.0
H373 H 0.5612 0.76126 0.24509 0.0
H374 H 0.52629 0.76025 0.24268 0.0
H375 H 0.54192 0.77723 0.28633 0.0
H376 H 0.44127 0.76053 0.2726 0.0
H377 H 0.48012 0.80483 0.37198 0.0
H378 H 0.47827 0.70386 0.27911 0.0
H379 H 0.49356 0.72405 0.23918 0.0
H380 H 0.45868 0.72276 0.24209 0.0
H381 H 0.52494 0.75572 0.40299 0.0
H382 H 0.51834 0.79007 0.40621 0.0
H383 H 0.53998 0.77743 0.36505 0.0
C384 C 0.05253 0.78864 0.57229 0.0
C385 C 0.04907 0.80945 0.54342 0.0
C386 C 0.03379 0.76892 0.57554 0.0
C387 C 0.01163 0.7696 0.54807 0.0
C388 C 0.00823 0.79052 0.51858 0.0
C389 C 0.0268 0.81038 0.51713 0.0
C390 C 0.03782 0.74722 0.60802 0.0
C391 C 0.98561 0.79137 0.48718 0.0
C392 C 0.97939 0.70507 0.52314 0.0
C393 C 0.95681 0.70643 0.54864 0.0
C394 C 0.99714 0.72565 0.52216 0.0
C395 C 0.99267 0.7478 0.54852 0.0
C396 C 0.96996 0.74919 0.57464 0.0
C397 C 0.95201 0.72863 0.57374 0.0
C398 C 0.02046 0.72386 0.49233 0.0
C399 C 0.96472 0.77231 0.60365 0.0
H400 H 0.06979 0.78792 0.59252 0.0
H401 H 0.02437 0.82621 0.49408 0.0
H402 H 0.02033 0.74494 0.62887 0.0
H403 H 0.04074 0.72866 0.59033 0.0
H404 H 0.05487 0.75067 0.62947 0.0
H405 H 0.98516 0.80956 0.46767 0.0
H406 H 0.98693 0.77473 0.46427 0.0
H407 H 0.96702 0.78949 0.50516 0.0
H408 H 0.98283 0.68812 0.50291 0.0
H409 H 0.93447 0.7297 0.59324 0.0
H410 H 0.03856 0.72441 0.51193 0.0
H411 H 0.02091 0.74078 0.46988 0.0
H412 H 0.02044 0.70584 0.47234 0.0
H413 H 0.98136 0.77549 0.62608 0.0
H414 H 0.94683 0.76986 0.6235 0.0
H415 H 0.96267 0.79004 0.58337 0.0
C416 C 0.94992 0.28204 0.85387 0.0
C417 C 0.95366 0.30277 0.82478 0.0
C418 C 0.968 0.26174 0.85672 0.0
C419 C 0.99015 0.26195 0.82931 0.0
C420 C 0.99449 0.28328 0.80095 0.0
C421 C 0.97626 0.30349 0.79918 0.0
C422 C 0.96294 0.23959 0.88793 0.0
C423 C 0.01765 0.28421 0.77072 0.0
C424 C 0.04849 0.21886 0.85186 0.0
C425 C 0.0443 0.19828 0.82263 0.0
C426 C 0.03057 0.23927 0.85551 0.0
C427 C 0.00815 0.23932 0.82876 0.0
C428 C 0.00344 0.2182 0.80013 0.0
C429 C 0.02149 0.19786 0.79759 0.0
C430 C 0.03607 0.26122 0.88691 0.0
C431 C 0.98001 0.21762 0.77049 0.0
H432 H 0.93257 0.28142 0.87389 0.0
H433 H 0.97922 0.31933 0.77632 0.0
H434 H 0.95928 0.22155 0.86908 0.0
H435 H 0.98022 0.23611 0.90876 0.0
H436 H 0.94597 0.24332 0.90947 0.0
H437 H 0.0141 0.27119 0.74239 0.0
H438 H 0.02119 0.3041 0.75815 0.0
H439 H 0.03548 0.2774 0.78743 0.0
H440 H 0.06603 0.21925 0.8714 0.0
H441 H 0.0182 0.18215 0.7746 0.0
H442 H 0.01905 0.2646 0.90842 0.0
H443 H 0.03952 0.27937 0.86826 0.0
H444 H 0.05329 0.25733 0.90776 0.0
H445 H 0.96227 0.22377 0.78821 0.0
H446 H 0.9766 0.198 0.75667 0.0
H447 H 0.98306 0.23136 0.74298 0.0
C448 C 0.55063 0.77189 0.9522 0.0
C449 C 0.54941 0.7944 0.92644 0.0
C450 C 0.53086 0.75318 0.95055 0.0
C451 C 0.50943 0.75697 0.92221 0.0
C452 C 0.50877 0.779 0.89454 0.0
C453 C 0.52867 0.79754 0.89721 0.0
C454 C 0.53234 0.73014 0.981 0.0
C455 C 0.48653 0.78346 0.86328 0.0
C456 C 0.46658 0.69819 0.90119 0.0
C457 C 0.44606 0.70253 0.93046 0.0
C458 C 0.48695 0.71614 0.89711 0.0
C459 C 0.48702 0.73874 0.92347 0.0
C460 C 0.46604 0.74351 0.95233 0.0
C461 C 0.44573 0.72545 0.95526 0.0
C462 C 0.50882 0.71054 0.86561 0.0
C463 C 0.46557 0.76711 0.98162 0.0
H464 H 0.56651 0.76934 0.97509 0.0
H465 H 0.52768 0.81481 0.87701 0.0
H466 H 0.51982 0.73379 0.00993 0.0
H467 H 0.52533 0.71218 0.9649 0.0
H468 H 0.55245 0.72677 0.99266 0.0
H469 H 0.49001 0.80028 0.84131 0.0
H470 H 0.48324 0.76594 0.84291 0.0
H471 H 0.46848 0.78705 0.8821 0.0
H472 H 0.46692 0.68055 0.88187 0.0
H473 H 0.43009 0.72885 0.97831 0.0
H474 H 0.52706 0.70743 0.88416 0.0
H475 H 0.51198 0.72739 0.84364 0.0
H476 H 0.50499 0.69309 0.84525 0.0
H477 H 0.48048 0.76493 0.00758 0.0
H478 H 0.44642 0.76983 0.99749 0.0
H479 H 0.4703 0.78491 0.96283 0.0
C480 C 0.48508 0.30054 0.69487 0.0
C481 C 0.46231 0.29906 0.66983 0.0
C482 C 0.50347 0.28042 0.69393 0.0
C483 C 0.49908 0.25841 0.66708 0.0
C484 C 0.47679 0.25749 0.64007 0.0
C485 C 0.4586 0.27772 0.642 0.0
C486 C 0.52685 0.28221 0.72356 0.0
C487 C 0.47165 0.23464 0.61034 0.0
C488 C 0.55698 0.2145 0.64557 0.0
C489 C 0.55283 0.19443 0.67581 0.0
C490 C 0.53927 0.23505 0.64146 0.0
C491 C 0.51711 0.23582 0.66881 0.0
C492 C 0.51249 0.21528 0.69868 0.0
C493 C 0.5303 0.19473 0.70159 0.0
C494 C 0.54465 0.25635 0.60875 0.0
C495 C 0.48935 0.21553 0.72901 0.0
H496 H 0.48802 0.31685 0.71676 0.0
H497 H 0.44111 0.27651 0.62241 0.0
H498 H 0.54456 0.27491 0.70707 0.0
H499 H 0.53047 0.30245 0.73443 0.0
H500 H 0.52348 0.27002 0.75298 0.0
H501 H 0.4546 0.23785 0.58878 0.0
H502 H 0.48886 0.23072 0.58955 0.0
H503 H 0.46809 0.21704 0.63036 0.0
H504 H 0.57433 0.21435 0.62552 0.0
H505 H 0.52709 0.17945 0.7254 0.0
H506 H 0.54816 0.27488 0.62629 0.0
H507 H 0.52755 0.25928 0.58725 0.0
H508 H 0.56179 0.25204 0.58793 0.0
H509 H 0.49224 0.23065 0.75444 0.0
H510 H 0.4865 0.19657 0.74554 0.0
H511 H 0.47137 0.22042 0.7109 0.0
C512 C 0.96589 0.20084 0.39257 0.0
C513 C 0.94551 0.2046 0.42236 0.0
C514 C 0.98634 0.21876 0.38939 0.0
C515 C 0.98669 0.24073 0.41723 0.0
C516 C 0.96579 0.245 0.44653 0.0
C517 C 0.94538 0.22697 0.44854 0.0
C518 C 0.008 0.21377 0.35721 0.0
C519 C 0.96553 0.26791 0.47736 0.0
C520 C 0.05117 0.27226 0.44644 0.0
C521 C 0.05017 0.29528 0.42196 0.0
C522 C 0.03095 0.25401 0.44438 0.0
C523 C 0.00931 0.25877 0.41689 0.0
C524 C 0.00883 0.28137 0.39056 0.0
C525 C 0.02915 0.29944 0.39366 0.0
C526 C 0.03221 0.23034 0.47342 0.0
C527 C 0.98638 0.28691 0.36024 0.0
H528 H 0.96606 0.18363 0.37216 0.0
H529 H 0.92984 0.22991 0.47198 0.0
H530 H 0.01119 0.23112 0.33638 0.0
H531 H 0.02631 0.21006 0.37524 0.0
H532 H 0.00394 0.19687 0.33569 0.0
H533 H 0.94608 0.27106 0.49197 0.0
H534 H 0.97958 0.2644 0.50426 0.0
H535 H 0.9715 0.28595 0.46034 0.0
H536 H 0.06722 0.26897 0.4687 0.0
H537 H 0.0283 0.31712 0.37451 0.0
H538 H 0.02515 0.21279 0.45612 0.0
H539 H 0.01956 0.23343 0.50237 0.0
H540 H 0.05225 0.22657 0.48507 0.0
H541 H 0.98268 0.26995 0.33873 0.0
H542 H 0.98989 0.30422 0.33939 0.0
H543 H 0.96854 0.29026 0.37977 0.0
C544 C 0.05498 0.71621 0.14765 0.0
C545 C 0.0514 0.69616 0.17812 0.0
C546 C 0.03682 0.73639 0.14363 0.0
C547 C 0.01478 0.73678 0.17129 0.0
C548 C 0.01072 0.71621 0.20133 0.0
C549 C 0.02899 0.69607 0.20419 0.0
C550 C 0.04162 0.75771 0.11072 0.0
C551 C 0.98774 0.71603 0.23198 0.0
C552 C 0.98206 0.80103 0.19804 0.0
C553 C 0.95909 0.79924 0.17357 0.0
C554 C 1.00072 0.78118 0.19666 0.0
C555 C 0.99641 0.75911 0.16993 0.0
C556 C 0.97389 0.75785 0.14351 0.0
C557 C 0.95542 0.77782 0.14589 0.0
C558 C 0.02431 0.78331 0.2257 0.0
C559 C 0.96884 0.73492 0.11392 0.0
H560 H 0.07221 0.71635 0.12731 0.0
H561 H 0.02618 0.68078 0.22814 0.0
H562 H 0.02431 0.76036 0.08961 0.0
H563 H 0.04499 0.77631 0.12811 0.0
H564 H 0.05865 0.75363 0.08953 0.0
H565 H 0.99095 0.73053 0.25831 0.0
H566 H 0.96966 0.72146 0.21458 0.0
H567 H 0.98483 0.69674 0.24735 0.0
H568 H 0.98499 0.81741 0.21978 0.0
H569 H 0.93779 0.77637 0.12671 0.0
H570 H 0.04196 0.77605 0.20898 0.0
H571 H 0.02126 0.77128 0.25542 0.0
H572 H 0.02787 0.80363 0.23611 0.0
H573 H 0.98594 0.73124 0.09274 0.0
H574 H 0.95158 0.73788 0.09275 0.0
H575 H 0.96569 0.71727 0.13404 0.0
C576 C 0.16217 0.14185 0.86433 0.0
C577 C 0.14279 0.12456 0.87814 0.0
C578 C 0.18341 0.14771 0.89126 0.0
C579 C 0.18522 0.13623 0.93325 0.0
C580 C 0.16581 0.1187 0.94742 0.0
C581 C 0.14488 0.11298 0.9196 0.0
C582 C 0.20383 0.16635 0.87485 0.0
C583 C 0.16697 0.10631 0.99219 0.0
C584 C 0.25148 0.13711 0.98784 0.0
C585 C 0.24965 0.15936 0.01412 0.0
C586 C 0.23046 0.129 0.96194 0.0
C587 C 0.20704 0.14333 0.96277 0.0
C588 C 0.20484 0.1653 0.99032 0.0
C589 C 0.2262 0.17311 0.01547 0.0
C590 C 0.23358 0.10558 0.93271 0.0
C591 C 0.1801 0.18093 0.99248 0.0
H592 H 0.16085 0.15079 0.83227 0.0
H593 H 0.12999 0.09965 0.93062 0.0
H594 H 0.20457 0.18367 0.89638 0.0
H595 H 0.22322 0.15706 0.87603 0.0
H596 H 0.20006 0.17286 0.84075 0.0
H597 H 0.15062 0.09268 0.99791 0.0
H598 H 0.18547 0.0956 0.99614 0.0
H599 H 0.16647 0.12156 0.01784 0.0
H600 H 0.26956 0.12642 0.98662 0.0
H601 H 0.22456 0.1902 0.03599 0.0
H602 H 0.23186 0.11153 0.8979 0.0
H603 H 0.21791 0.09135 0.93923 0.0
H604 H 0.25259 0.09585 0.93739 0.0
H605 H 0.17619 0.18992 0.96014 0.0
H606 H 0.18103 0.19654 0.01752 0.0
H607 H 0.16344 0.16808 0.00018 0.0
C608 C 0.64797 0.4096 0.15943 0.0
C609 C 0.63312 0.40559 0.12148 0.0
C610 C 0.64531 0.43234 0.18437 0.0
C611 C 0.62744 0.45161 0.17098 0.0
C612 C 0.61238 0.44771 0.13278 0.0
C613 C 0.61535 0.42475 0.10857 0.0
C614 C 0.66157 0.43573 0.2251 0.0
C615 C 0.59314 0.46784 0.11742 0.0
C616 C 0.60184 0.49948 0.25502 0.0
C617 C 0.61681 0.52164 0.24628 0.0
C618 C 0.60531 0.47651 0.23109 0.0
C619 C 0.62411 0.47567 0.19737 0.0
C620 C 0.63941 0.49788 0.18849 0.0
C621 C 0.63564 0.52059 0.21316 0.0
C622 C 0.58872 0.45319 0.24175 0.0
C623 C 0.65957 0.49773 0.15261 0.0
H624 H 0.66175 0.39496 0.16977 0.0
H625 H 0.60381 0.42193 0.07929 0.0
H626 H 0.67351 0.45356 0.22235 0.0
H627 H 0.64881 0.43815 0.25408 0.0
H628 H 0.67465 0.41897 0.23096 0.0
H629 H 0.58319 0.46202 0.08668 0.0
H630 H 0.57827 0.47115 0.14309 0.0
H631 H 0.60316 0.4866 0.11181 0.0
H632 H 0.5873 0.50004 0.28066 0.0
H633 H 0.64726 0.53762 0.20613 0.0
H634 H 0.60121 0.43637 0.24999 0.0
H635 H 0.57702 0.44766 0.21271 0.0
H636 H 0.57536 0.45685 0.26962 0.0
H637 H 0.67388 0.48207 0.1586 0.0
H638 H 0.67008 0.51649 0.15017 0.0
H639 H 0.65019 0.49363 0.12064 0.0
C640 C 0.33593 0.89742 0.37522 0.0
C641 C 0.35537 0.87864 0.37974 0.0
C642 C 0.31197 0.89457 0.39683 0.0
C643 C 0.30782 0.87283 0.42439 0.0
C644 C 0.32808 0.85473 0.43102 0.0
C645 C 0.35143 0.85764 0.40808 0.0
C646 C 0.29068 0.91398 0.38821 0.0
C647 C 0.32477 0.83167 0.46106 0.0
C648 C 0.25222 0.8691 0.506 0.0
C649 C 0.23586 0.85108 0.48551 0.0
C650 C 0.27534 0.87724 0.48582 0.0
C651 C 0.28182 0.86761 0.44376 0.0
C652 C 0.26448 0.85066 0.4219 0.0
C653 C 0.24191 0.84229 0.44333 0.0
C654 C 0.29356 0.89483 0.51064 0.0
C655 C 0.27031 0.84044 0.37659 0.0
H656 H 0.33892 0.91354 0.35298 0.0
H657 H 0.36658 0.84322 0.41183 0.0
H658 H 0.27495 0.9045 0.36926 0.0
H659 H 0.2821 0.92083 0.41945 0.0
H660 H 0.29773 0.93104 0.36942 0.0
H661 H 0.34325 0.82102 0.4662 0.0
H662 H 0.31724 0.83801 0.49338 0.0
H663 H 0.31039 0.81804 0.44687 0.0
H664 H 0.24765 0.87579 0.53878 0.0
H665 H 0.22914 0.82853 0.4273 0.0
H666 H 0.29996 0.9112 0.4897 0.0
H667 H 0.31116 0.88378 0.52008 0.0
H668 H 0.28452 0.90279 0.54083 0.0
H669 H 0.27592 0.85657 0.35446 0.0
H670 H 0.25347 0.83008 0.36209 0.0
H671 H 0.28691 0.8268 0.37814 0.0
C672 C 0.85645 0.5865 0.63793 0.0
C673 C 0.87652 0.60425 0.63023 0.0
C674 C 0.86106 0.56343 0.66116 0.0
C675 C 0.88609 0.55857 0.67839 0.0
C676 C 0.90609 0.5771 0.67236 0.0
C677 C 0.9012 0.59948 0.64754 0.0
C678 C 0.8395 0.54379 0.66554 0.0
C679 C 0.9328 0.57307 0.69148 0.0
C680 C 0.89457 0.50751 0.76719 0.0
C681 C 0.90665 0.48752 0.74376 0.0
C682 C 0.88753 0.53076 0.74632 0.0
C683 C 0.89186 0.53357 0.70073 0.0
C684 C 0.90291 0.51284 0.67665 0.0
C685 C 0.91068 0.49026 0.69867 0.0
C686 C 0.87664 0.55272 0.77338 0.0
C687 C 0.907 0.51468 0.62776 0.0
H688 H 0.83744 0.59011 0.62407 0.0
H689 H 0.91666 0.61332 0.64172 0.0
H690 H 0.84504 0.52562 0.64842 0.0
H691 H 0.83633 0.53881 0.70047 0.0
H692 H 0.82093 0.55089 0.65153 0.0
H693 H 0.94533 0.59045 0.68755 0.0
H694 H 0.93134 0.56836 0.72686 0.0
H695 H 0.94237 0.55642 0.67512 0.0
H696 H 0.89179 0.50544 0.80223 0.0
H697 H 0.91996 0.4747 0.68062 0.0
H698 H 0.85791 0.55938 0.75958 0.0
H699 H 0.89016 0.56946 0.77235 0.0
H700 H 0.87359 0.54709 0.80813 0.0
H701 H 0.88882 0.52087 0.61138 0.0
H702 H 0.91334 0.49594 0.61333 0.0
H703 H 0.92196 0.52953 0.62049 0.0
C704 C 0.73712 0.84178 0.06095 0.0
C705 C 0.73435 0.84387 0.01545 0.0
C706 C 0.76012 0.84949 0.08179 0.0
C707 C 0.78119 0.85863 0.0563 0.0
C708 C 0.77836 0.86107 0.01032 0.0
C709 C 0.75477 0.85404 0.9905 0.0
C710 C 0.76204 0.84736 0.13102 0.0
C711 C 0.80059 0.87001 0.98187 0.0
C712 C 0.83573 0.89461 0.11427 0.0
C713 C 0.85293 0.87432 0.12376 0.0
C714 C 0.81235 0.88987 0.09203 0.0
C715 C 0.8065 0.86439 0.07771 0.0
C716 C 0.82437 0.84406 0.08565 0.0
C717 C 0.84716 0.84919 0.10927 0.0
C718 C 0.79347 0.9119 0.08539 0.0
C719 C 0.81926 0.81679 0.06977 0.0
H720 H 0.72126 0.83403 0.08028 0.0
H721 H 0.75273 0.85539 0.95522 0.0
H722 H 0.77647 0.8323 0.1399 0.0
H723 H 0.76885 0.86598 0.14517 0.0
H724 H 0.74319 0.84218 0.14633 0.0
H725 H 0.79495 0.87176 0.94688 0.0
H726 H 0.80793 0.88906 0.99332 0.0
H727 H 0.81685 0.856 0.98446 0.0
H728 H 0.84008 0.91402 0.12582 0.0
H729 H 0.86056 0.83353 0.11631 0.0
H730 H 0.77518 0.90767 0.10317 0.0
H731 H 0.78852 0.91387 0.05021 0.0
H732 H 0.80127 0.93072 0.09729 0.0
H733 H 0.80224 0.8086 0.08717 0.0
H734 H 0.8361 0.80375 0.07523 0.0
H735 H 0.81459 0.81694 0.03429 0.0
C736 C 0.38701 0.58536 0.89055 0.0
C737 C 0.3716 0.60577 0.87477 0.0
C738 C 0.39298 0.5639 0.86417 0.0
C739 C 0.38356 0.56285 0.82068 0.0
C740 C 0.36774 0.5832 0.8046 0.0
C741 C 0.36184 0.60436 0.83191 0.0
C742 C 0.40973 0.54252 0.8827 0.0
C743 C 0.35754 0.58286 0.75826 0.0
C744 C 0.42309 0.52112 0.74303 0.0
C745 C 0.40844 0.4982 0.74145 0.0
C746 C 0.41477 0.54255 0.7676 0.0
C747 C 0.39135 0.54098 0.79162 0.0
C748 C 0.37623 0.51806 0.78963 0.0
C749 C 0.38489 0.49696 0.76435 0.0
C750 C 0.43134 0.56672 0.7685 0.0
C751 C 0.35125 0.51558 0.8151 0.0
H752 H 0.3945 0.58611 0.9237 0.0
H753 H 0.34994 0.62002 0.81938 0.0
H754 H 0.39976 0.52354 0.87931 0.0
H755 H 0.42813 0.54128 0.864 0.0
H756 H 0.41444 0.54565 0.91781 0.0
H757 H 0.34469 0.59965 0.75127 0.0
H758 H 0.37399 0.58323 0.73483 0.0
H759 H 0.34657 0.5647 0.75216 0.0
H760 H 0.44119 0.52234 0.7251 0.0
H761 H 0.37347 0.47932 0.76327 0.0
H762 H 0.43865 0.57009 0.80221 0.0
H763 H 0.4196 0.58389 0.75924 0.0
H764 H 0.44822 0.56538 0.74599 0.0
H765 H 0.35537 0.51685 0.85071 0.0
H766 H 0.34114 0.49696 0.80847 0.0
H767 H 0.338 0.53181 0.80686 0.0
C768 C 0.65544 0.10868 0.58313 0.0
C769 C 0.65284 0.12053 0.6243 0.0
C770 C 0.67633 0.11483 0.55537 0.0
C771 C 0.69519 0.13303 0.56932 0.0
C772 C 0.69303 0.1445 0.61128 0.0
C773 C 0.67186 0.13824 0.6381 0.0
C774 C 0.67784 0.10238 0.51068 0.0
C775 C 0.71286 0.16381 0.62755 0.0
C776 C 0.76074 0.13712 0.51227 0.0
C777 C 0.75748 0.15917 0.48592 0.0
C778 C 0.74051 0.1281 0.53917 0.0
C779 C 0.71641 0.14127 0.53928 0.0
C780 C 0.71286 0.16318 0.51201 0.0
C781 C 0.73346 0.17194 0.4859 0.0
C782 C 0.7451 0.10483 0.56817 0.0
C783 C 0.68739 0.17763 0.51084 0.0
H784 H 0.64085 0.09501 0.57213 0.0
H785 H 0.67019 0.14735 0.66998 0.0
H786 H 0.67605 0.1175 0.48498 0.0
H787 H 0.69695 0.09289 0.50617 0.0
H788 H 0.66235 0.0877 0.50556 0.0
H789 H 0.70923 0.1698 0.66197 0.0
H790 H 0.73262 0.15541 0.62537 0.0
H791 H 0.71255 0.18138 0.60657 0.0
H792 H 0.77926 0.12718 0.51249 0.0
H793 H 0.73068 0.18887 0.46537 0.0
H794 H 0.73021 0.08976 0.56178 0.0
H795 H 0.74324 0.11058 0.60305 0.0
H796 H 0.7646 0.09619 0.56309 0.0
H797 H 0.67131 0.16406 0.50313 0.0
H798 H 0.68736 0.19349 0.48621 0.0
H799 H 0.6833 0.18613 0.5435 0.0
C800 C 0.10917 0.41526 0.38145 0.0
C801 C 0.12799 0.39677 0.37009 0.0
C802 C 0.10409 0.43667 0.35445 0.0
C803 C 0.11789 0.43957 0.31467 0.0
C804 C 0.13703 0.4211 0.30302 0.0
C805 C 0.14199 0.4 0.33103 0.0
C806 C 0.08373 0.45607 0.36834 0.0
C807 C 0.15188 0.42336 0.26058 0.0
C808 C 0.08324 0.47985 0.22866 0.0
C809 C 0.0956 0.50398 0.23274 0.0
C810 C 0.09097 0.4585 0.25397 0.0
C811 C 0.11136 0.4614 0.28463 0.0
C812 C 0.12428 0.48557 0.28834 0.0
C813 C 0.11636 0.50655 0.2621 0.0
C814 C 0.0769 0.433 0.24859 0.0
C815 C 0.14589 0.48949 0.32101 0.0
H816 H 0.0984 0.41311 0.41173 0.0
H817 H 0.15651 0.3858 0.32193 0.0
H818 H 0.09211 0.47589 0.36889 0.0
H819 H 0.06759 0.45616 0.34431 0.0
H820 H 0.07563 0.4517 0.40125 0.0
H821 H 0.16664 0.40782 0.25687 0.0
H822 H 0.13825 0.42228 0.23252 0.0
H823 H 0.16174 0.44246 0.25875 0.0
H824 H 0.06735 0.47763 0.20572 0.0
H825 H 0.12598 0.52514 0.26544 0.0
H826 H 0.06631 0.42824 0.2792 0.0
H827 H 0.09098 0.41713 0.24259 0.0
H828 H 0.06276 0.43343 0.22114 0.0
H829 H 0.13823 0.48713 0.35474 0.0
H830 H 0.15489 0.50901 0.31824 0.0
H831 H 0.16115 0.47459 0.31632 0.0
C832 C 0.65435 0.60954 0.41848 0.0
C833 C 0.65448 0.61467 0.37332 0.0
C834 C 0.67539 0.61671 0.4451 0.0
C835 C 0.69716 0.62912 0.42607 0.0
C836 C 0.6978 0.63352 0.38033 0.0
C837 C 0.67644 0.62634 0.35457 0.0
C838 C 0.67396 0.6118 0.4938 0.0
C839 C 0.72075 0.64648 0.35872 0.0
C840 C 0.73844 0.67388 0.49603 0.0
C841 C 0.75998 0.65824 0.50539 0.0
C842 C 0.71774 0.66448 0.47078 0.0
C843 C 0.71865 0.63886 0.45418 0.0
C844 C 0.74029 0.62291 0.46357 0.0
C845 C 0.76068 0.63277 0.48921 0.0
C846 C 0.69493 0.68206 0.46169 0.0
C847 C 0.74202 0.59555 0.44619 0.0
H848 H 0.63748 0.60056 0.43331 0.0
H849 H 0.67686 0.63021 0.31968 0.0
H850 H 0.69134 0.60097 0.5049 0.0
H851 H 0.67378 0.63057 0.51159 0.0
H852 H 0.65637 0.60065 0.50315 0.0
H853 H 0.71895 0.64699 0.32247 0.0
H854 H 0.72261 0.66668 0.37086 0.0
H855 H 0.73892 0.63617 0.36739 0.0
H856 H 0.73765 0.69354 0.50857 0.0
H857 H 0.77726 0.62055 0.49627 0.0
H858 H 0.67674 0.67278 0.47313 0.0
H859 H 0.693 0.68522 0.42589 0.0
H860 H 0.69689 0.70123 0.47797 0.0
H861 H 0.72501 0.58411 0.45724 0.0
H862 H 0.75996 0.58551 0.45704 0.0
H863 H 0.74162 0.59581 0.40985 0.0
C864 C 0.1111 0.01304 0.73136 0.0
C865 C 0.08764 0.01059 0.75427 0.0
C866 C 0.1204 0.99275 0.7049 0.0
C867 C 0.10603 0.9694 0.70168 0.0
C868 C 0.08252 0.96673 0.72519 0.0
C869 C 0.07356 0.98737 0.75098 0.0
C870 C 0.14542 0.9964 0.67995 0.0
C871 C 0.06672 0.94208 0.72291 0.0
C872 C 0.11314 0.92525 0.60292 0.0
C873 C 0.12894 0.90534 0.61942 0.0
C874 C 0.10621 0.94657 0.62895 0.0
C875 C 0.11503 0.94796 0.67277 0.0
C876 C 0.13133 0.92819 0.68949 0.0
C877 C 0.1382 0.90718 0.66254 0.0
C878 C 0.08901 0.96738 0.60977 0.0
C879 C 0.14093 0.92889 0.7362 0.0
H880 H 0.12206 0.03093 0.73369 0.0
H881 H 0.0555 0.98523 0.76879 0.0
H882 H 0.1594 0.98091 0.68879 0.0
H883 H 0.14171 0.99474 0.64426 0.0
H884 H 0.15453 0.01553 0.68657 0.0
H885 H 0.04933 0.94278 0.74436 0.0
H886 H 0.06028 0.93862 0.68873 0.0
H887 H 0.0788 0.92525 0.73274 0.0
H888 H 0.10605 0.92416 0.56955 0.0
H889 H 0.15039 0.89191 0.67562 0.0
H890 H 0.09817 0.98671 0.61385 0.0
H891 H 0.07024 0.96784 0.62753 0.0
H892 H 0.08504 0.9642 0.57441 0.0
H893 H 0.15107 0.94747 0.74274 0.0
H894 H 0.15436 0.91263 0.74363 0.0
H895 H 0.12421 0.92782 0.75901 0.0
C896 C 0.7432 0.36363 0.98551 0.0
C897 C 0.74481 0.34151 0.01211 0.0
C898 C 0.76456 0.3719 0.96056 0.0
C899 C 0.78815 0.35789 0.96275 0.0
C900 C 0.79006 0.33595 0.99043 0.0
C901 C 0.76833 0.32793 0.01453 0.0
C902 C 0.7617 0.3952 0.93101 0.0
C903 C 0.81494 0.32065 0.99402 0.0
C904 C 0.83445 0.35948 0.86628 0.0
C905 C 0.85342 0.37713 0.88049 0.0
C906 C 0.81293 0.35348 0.89242 0.0
C907 C 0.81037 0.36514 0.93414 0.0
C908 C 0.82935 0.38303 0.94876 0.0
C909 C 0.85059 0.38896 0.92162 0.0
C910 C 0.79298 0.3345 0.87542 0.0
C911 C 0.82741 0.39561 0.9933 0.0
H912 H 0.72507 0.37421 0.98349 0.0
H913 H 0.76981 0.31097 0.03537 0.0
H914 H 0.77698 0.4097 0.93838 0.0
H915 H 0.76426 0.38921 0.89636 0.0
H916 H 0.74244 0.40464 0.93447 0.0
H917 H 0.81374 0.3051 0.01912 0.0
H918 H 0.81958 0.31162 0.96197 0.0
H919 H 0.83128 0.33374 0.0025 0.0
H920 H 0.8363 0.35038 0.83442 0.0
H921 H 0.86517 0.40256 0.93291 0.0
H922 H 0.77347 0.34355 0.87568 0.0
H923 H 0.79214 0.31727 0.89713 0.0
H924 H 0.79733 0.32788 0.84158 0.0
H925 H 0.80874 0.40614 0.99634 0.0
H926 H 0.84352 0.40943 -0.00048 0.0
H927 H 0.82767 0.38048 0.01915 0.0
C928 C 0.37734 0.01155 0.26832 0.0
C929 C 0.37642 0.98837 0.24419 0.0
C930 C 0.37369 0.03568 0.24785 0.0
C931 C 0.36889 0.03665 0.20223 0.0
C932 C 0.3663 0.01326 0.17828 0.0
C933 C 0.37014 0.98941 0.19952 0.0
C934 C 0.37654 0.06016 0.27458 0.0
C935 C 0.36095 0.01344 0.12965 0.0
C936 C 0.34683 0.09903 0.14678 0.0
C937 C 0.37012 0.108 0.12833 0.0
C938 C 0.34614 0.07612 0.17179 0.0
C939 C 0.36929 0.06194 0.17864 0.0
C940 C 0.39296 0.07137 0.16135 0.0
C941 C 0.39308 0.09421 0.1364 0.0
C942 C 0.32053 0.06669 0.18972 0.0
C943 C 0.41814 0.05696 0.16824 0.0
H944 H 0.3821 0.01097 0.30289 0.0
H945 H 0.36918 0.97162 0.18066 0.0
H946 H 0.39475 0.0702 0.26522 0.0
H947 H 0.3603 0.07368 0.26782 0.0
H948 H 0.37714 0.05613 0.31032 0.0
H949 H 0.35684 0.99371 0.11674 0.0
H950 H 0.3442 0.02618 0.12216 0.0
H951 H 0.37801 0.02138 0.11202 0.0
H952 H 0.32897 0.10952 0.14077 0.0
H953 H 0.41122 0.10103 0.12261 0.0
H954 H 0.32215 0.06286 0.22537 0.0
H955 H 0.3152 0.04811 0.17375 0.0
H956 H 0.30464 0.08086 0.18421 0.0
H957 H 0.42157 0.05386 0.20373 0.0
H958 H 0.43504 0.06749 0.15432 0.0
H959 H 0.417 0.03756 0.1526 0.0
C960 C 0.25697 0.35983 0.48994 0.0
C961 C 0.23696 0.3487 0.51474 0.0
C962 C 0.2806 0.36687 0.5096 0.0
C963 C 0.28395 0.36332 0.55526 0.0
C964 C 0.26327 0.35331 0.58071 0.0
C965 C 0.24017 0.34576 0.56003 0.0
C966 C 0.30237 0.3769 0.4812 0.0
C967 C 0.26579 0.34986 0.62965 0.0
C968 C 0.35028 0.352 0.60554 0.0
C969 C 0.35609 0.37648 0.62293 0.0
C970 C 0.32742 0.34782 0.58166 0.0
C971 C 0.30953 0.36842 0.57622 0.0
C972 C 0.31552 0.39332 0.59306 0.0
C973 C 0.33895 0.39715 0.6157 0.0
C974 C 0.32212 0.32116 0.56318 0.0
C975 C 0.29668 0.41559 0.58891 0.0
H976 H 0.25461 0.36191 0.45483 0.0
H977 H 0.22465 0.33733 0.57931 0.0
H978 H 0.31 0.39542 0.49444 0.0
H979 H 0.31859 0.36277 0.48136 0.0
H980 H 0.29615 0.38006 0.44677 0.0
H981 H 0.24713 0.34422 0.64518 0.0
H982 H 0.28034 0.3346 0.63682 0.0
H983 H 0.27273 0.36809 0.64501 0.0
H984 H 0.36362 0.33605 0.61078 0.0
H985 H 0.34331 0.41605 0.62945 0.0
H986 H 0.31703 0.32256 0.52794 0.0
H987 H 0.30531 0.31235 0.58031 0.0
H988 H 0.33902 0.30797 0.56673 0.0
H989 H 0.29105 0.41841 0.55418 0.0
H990 H 0.30484 0.43406 0.60163 0.0
H991 H 0.27873 0.41104 0.60743 0.0
C992 C 0.89063 0.08561 0.38134 0.0
C993 C 0.8732 0.10462 0.3666 0.0
C994 C 0.89685 0.06407 0.35531 0.0
C995 C 0.88563 0.06155 0.31323 0.0
C996 C 0.868 0.0806 0.29808 0.0
C997 C 0.8619 0.10185 0.32503 0.0
C998 C 0.91559 0.04407 0.37279 0.0
C999 C 0.85587 0.0787 0.2532 0.0
C1000 C 0.92281 0.01969 0.23249 0.0
C1001 C 0.90897 0.99627 0.23415 0.0
C1002 C 0.91503 0.04126 0.25722 0.0
C1003 C 0.89301 0.03931 0.28472 0.0
C1004 C 0.87876 0.01583 0.28622 0.0
C1005 C 0.88683 0.99461 0.2607 0.0
C1006 C 0.93059 0.06603 0.25436 0.0
C1007 C 0.85532 0.01295 0.31546 0.0
H1008 H 0.89936 0.08745 0.41348 0.0
H1009 H 0.84847 0.11644 0.31328 0.0
H1010 H 0.90645 0.02459 0.37237 0.0
H1011 H 0.93299 0.04314 0.35147 0.0
H1012 H 0.92195 0.04844 0.40677 0.0
H1013 H 0.84223 0.0949 0.24654 0.0
H1014 H 0.87124 0.07884 0.22775 0.0
H1015 H 0.84522 0.06009 0.24992 0.0
H1016 H 0.93982 0.02122 0.21177 0.0
H1017 H 0.87606 0.97657 0.26218 0.0
H1018 H 0.93924 0.07053 0.28675 0.0
H1019 H 0.91775 0.08249 0.24554 0.0
H1020 H 0.94644 0.06478 0.2298 0.0
H1021 H 0.86112 0.01552 0.35019 0.0
H1022 H 0.84589 0.99369 0.31186 0.0
H1023 H 0.84088 0.02824 0.30786 0.0
C1024 C 0.1695 0.64334 0.13516 0.0
C1025 C 0.15146 0.62442 0.12218 0.0
C1026 C 0.1904 0.65022 0.10811 0.0
C1027 C 0.1933 0.63808 0.06681 0.0
C1028 C 0.17533 0.61884 0.05356 0.0
C1029 C 0.15468 0.61216 0.08147 0.0
C1030 C 0.20926 0.67069 0.1236 0.0
C1031 C 0.17767 0.60562 0.00961 0.0
C1032 C 0.23173 0.67584 0.98189 0.0
C1033 C 0.25607 0.66376 0.98389 0.0
C1034 C 0.211 0.66727 0.00794 0.0
C1035 C 0.21471 0.64622 0.03704 0.0
C1036 C 0.23914 0.63371 0.03886 0.0
C1037 C 0.25951 0.64255 0.01211 0.0
C1038 C 0.1852 0.681 0.00476 0.0
C1039 C 0.24391 0.61133 0.06972 0.0
H1040 H 0.16733 0.65286 0.16661 0.0
H1041 H 0.14086 0.59756 0.07106 0.0
H1042 H 0.22931 0.6629 0.12311 0.0
H1043 H 0.20877 0.68757 0.10108 0.0
H1044 H 0.20484 0.67758 0.15727 0.0
H1045 H 0.16249 0.59061 0.00461 0.0
H1046 H 0.17608 0.62021 0.98303 0.0
H1047 H 0.19698 0.59634 0.00646 0.0
H1048 H 0.22883 0.69213 0.95999 0.0
H1049 H 0.27826 0.63312 0.0139 0.0
H1050 H 0.18043 0.69016 0.03665 0.0
H1051 H 0.16959 0.66684 0.99739 0.0
H1052 H 0.18513 0.69626 0.97906 0.0
H1053 H 0.24133 0.61789 0.10406 0.0
H1054 H 0.26372 0.60313 0.06613 0.0
H1055 H 0.22956 0.59569 0.06377 0.0
C1056 C 0.61536 0.0026 0.75832 0.0
C1057 C 0.59448 1.00006 0.72917 0.0
C1058 C 0.62326 0.98168 0.7847 0.0
C1059 C 0.61018 0.95758 0.78144 0.0
C1060 C 0.58968 0.95468 0.75099 0.0
C1061 C 0.58199 0.97598 0.72546 0.0
C1062 C 0.64503 0.98562 0.81708 0.0
C1063 C 0.57541 0.92925 0.74614 0.0
C1064 C 0.64084 0.89657 0.8294 0.0
C1065 C 0.62717 0.89393 0.86894 0.0
C1066 C 0.63568 0.91727 0.80064 0.0
C1067 C 0.61663 0.93592 0.81191 0.0
C1068 C 0.60309 0.93356 0.85204 0.0
C1069 C 0.6084 0.91257 0.87986 0.0
C1070 C 0.65033 0.919 0.75793 0.0
C1071 C 0.58279 0.95313 0.86552 0.0
H1072 H 0.6251 0.02114 0.76142 0.0
H1073 H 0.56599 0.97376 0.70272 0.0
H1074 H 0.63745 0.98358 0.85093 0.0
H1075 H 0.66013 0.97054 0.81255 0.0
H1076 H 0.6542 0.00503 0.81384 0.0
H1077 H 0.56124 0.92961 0.71875 0.0
H1078 H 0.58937 0.91323 0.74038 0.0
H1079 H 0.56485 0.92477 0.77688 0.0
H1080 H 0.65532 0.88226 0.8206 0.0
H1081 H 0.59784 0.91088 0.91043 0.0
H1082 H 0.66045 0.93794 0.75557 0.0
H1083 H 0.63654 0.91791 0.73009 0.0
H1084 H 0.66485 0.90323 0.75433 0.0
H1085 H 0.59127 0.97291 0.86572 0.0
H1086 H 0.57465 0.94902 0.89849 0.0
H1087 H 0.56668 0.95315 0.84145 0.0
C1088 C 0.44897 0.12872 0.91068 0.0
C1089 C 0.44779 0.15513 0.92139 0.0
C1090 C 0.46668 0.11961 0.87937 0.0
C1091 C 0.48352 0.13735 0.85824 0.0
C1092 C 0.48176 0.16416 0.86774 0.0
C1093 C 0.46394 0.17271 0.89927 0.0
C1094 C 0.46801 0.09087 0.87005 0.0
C1095 C 0.49949 0.18388 0.84661 0.0
C1096 C 0.54741 0.11069 0.81665 0.0
C1097 C 0.54229 0.10743 0.7719 0.0
C1098 C 0.52854 0.12074 0.84497 0.0
C1099 C 0.5039 0.12754 0.82815 0.0
C1100 C 0.4987 0.12463 0.7829 0.0
C1101 C 0.51791 0.11442 0.75529 0.0
C1102 C 0.535 0.12416 0.89287 0.0
C1103 C 0.47289 0.13245 0.76372 0.0
H1104 H 0.43651 0.11504 0.92753 0.0
H1105 H 0.46313 0.1932 0.9072 0.0
H1106 H 0.46596 0.08726 0.83439 0.0
H1107 H 0.48724 0.08326 0.88012 0.0
H1108 H 0.45272 0.0798 0.88762 0.0
H1109 H 0.49005 0.20322 0.84469 0.0
H1110 H 0.51719 0.18596 0.86696 0.0
H1111 H 0.50557 0.178 0.81322 0.0
H1112 H 0.56624 0.10538 0.82962 0.0
H1113 H 0.51392 0.11217 0.72064 0.0
H1114 H 0.52101 0.11317 0.91334 0.0
H1115 H 0.53327 0.14493 0.90195 0.0
H1116 H 0.55493 0.11752 0.90084 0.0
H1117 H 0.45727 0.12024 0.77787 0.0
H1118 H 0.47245 0.13046 0.72749 0.0
H1119 H 0.46848 0.15289 0.7724 0.0
C1120 C 0.62642 0.68386 0.1508 0.0
C1121 C 0.60056 0.67887 0.16214 0.0
C1122 C 0.63279 0.70429 0.12241 0.0
C1123 C 0.61283 0.72007 0.10497 0.0
C1124 C 0.58663 0.71476 0.1155 0.0
C1125 C 0.58083 0.69424 0.14401 0.0
C1126 C 0.66096 0.7094 0.11192 0.0
C1127 C 0.56464 0.73127 0.09842 0.0
C1128 C 0.63221 0.78771 0.0686 0.0
C1129 C 0.63532 0.78426 0.02336 0.0
C1130 C 0.62436 0.76709 0.09547 0.0
C1131 C 0.61959 0.74247 0.07659 0.0
C1132 C 0.622 0.73907 0.03078 0.0
C1133 C 0.63005 0.75997 0.00471 0.0
C1134 C 0.62141 0.77157 0.1441 0.0
C1135 C 0.61618 0.71331 0.0094 0.0
H1136 H 0.64176 0.6721 0.16472 0.0
H1137 H 0.56077 0.69068 0.15282 0.0
H1138 H 0.66401 0.70895 0.07595 0.0
H1139 H 0.66646 0.72906 0.12349 0.0
H1140 H 0.6741 0.695 0.12738 0.0
H1141 H 0.5462 0.72012 0.09707 0.0
H1142 H 0.56169 0.74792 0.12092 0.0
H1143 H 0.56879 0.73915 0.06537 0.0
H1144 H 0.63623 0.80648 0.08311 0.0
H1145 H 0.63212 0.7573 0.96966 0.0
H1146 H 0.63457 0.75843 0.16239 0.0
H1147 H 0.6013 0.76695 0.15438 0.0
H1148 H 0.6258 0.79191 0.15359 0.0
H1149 H 0.6301 0.69847 0.02122 0.0
H1150 H 0.6174 0.7143 0.9731 0.0
H1151 H 0.59645 0.70669 0.01869 0.0
C1152 C 0.98944 0.88379 0.24334 0.0
C1153 C 0.96511 0.88854 0.26216 0.0
C1154 C 0.01021 0.87503 0.26903 0.0
C1155 C 0.00662 0.87155 0.31461 0.0
C1156 C 0.98191 0.87563 0.33351 0.0
C1157 C 0.96142 0.88409 0.307 0.0
C1158 C 0.03602 0.86969 0.24757 0.0
C1159 C 0.97721 0.87141 0.38181 0.0
C1160 C 0.05447 0.83256 0.38208 0.0
C1161 C 0.06934 0.8523 0.40142 0.0
C1162 C 0.03429 0.83842 0.35299 0.0
C1163 C 0.02894 0.86467 0.34293 0.0
C1164 C 0.04431 0.88464 0.36144 0.0
C1165 C 0.06435 0.87821 0.39049 0.0
C1166 C 0.01811 0.81637 0.33517 0.0
C1167 C 0.03898 0.91287 0.35178 0.0
H1168 H 0.99224 0.88688 0.20854 0.0
H1169 H 0.94258 0.88766 0.32156 0.0
H1170 H 0.05069 0.88368 0.25981 0.0
H1171 H 0.04284 0.84995 0.25636 0.0
H1172 H 0.03504 0.87125 0.21131 0.0
H1173 H 0.95685 0.87559 0.39139 0.0
H1174 H 0.98168 0.851 0.39055 0.0
H1175 H 0.99032 0.88401 0.40127 0.0
H1176 H 0.05801 0.81246 0.39062 0.0
H1177 H 0.07574 0.89353 0.40538 0.0
H1178 H 0.00865 0.82126 0.30364 0.0
H1179 H 0.00269 0.81158 0.35923 0.0
H1180 H 0.0301 0.79867 0.33056 0.0
H1181 H 0.0396 0.91635 0.31593 0.0
H1182 H 0.05314 0.926 0.3679 0.0
H1183 H 0.01921 0.91801 0.36323 0.0
C1184 C 0.86439 0.24068 0.49762 0.0
C1185 C 0.85715 0.21638 0.51425 0.0
C1186 C 0.87354 0.26027 0.52557 0.0
C1187 C 0.87518 0.25547 0.57114 0.0
C1188 C 0.86798 0.23096 0.58804 0.0
C1189 C 0.85894 0.21175 0.55941 0.0
C1190 C 0.88169 0.286 0.5064 0.0
C1191 C 0.87004 0.22494 0.63632 0.0
C1192 C 0.91891 0.29627 0.64346 0.0
C1193 C 0.90093 0.31266 0.6641 0.0
C1194 C 0.91095 0.27797 0.61228 0.0
C1195 C 0.88433 0.27608 0.60139 0.0
C1196 C 0.86619 0.29307 0.62113 0.0
C1197 C 0.8747 0.31113 0.65236 0.0
C1198 C 0.931 0.25993 0.59291 0.0
C1199 C 0.83767 0.29163 0.61022 0.0
H1200 H 0.86322 0.24431 0.4627 0.0
H1201 H 0.85339 0.19299 0.57243 0.0
H1202 H 0.86936 0.30172 0.51993 0.0
H1203 H 0.90202 0.29036 0.51581 0.0
H1204 H 0.8802 0.2863 0.4701 0.0
H1205 H 0.8632 0.20505 0.64427 0.0
H1206 H 0.89051 0.22681 0.64703 0.0
H1207 H 0.85847 0.23908 0.65553 0.0
H1208 H 0.93924 0.29723 0.65242 0.0
H1209 H 0.86073 0.32379 0.66804 0.0
H1210 H 0.92604 0.254 0.55902 0.0
H1211 H 0.93207 0.24212 0.61324 0.0
H1212 H 0.95055 0.26901 0.59273 0.0
H1213 H 0.8348 0.29341 0.57432 0.0
H1214 H 0.82626 0.30704 0.62682 0.0
H1215 H 0.82984 0.27247 0.62024 0.0
C1216 C 0.55012 0.8363 0.11956 0.0
C1217 C 0.55756 0.85237 0.08465 0.0
C1218 C 0.5316 0.8445 0.15023 0.0
C1219 C 0.52005 0.86925 0.14551 0.0
C1220 C 0.52745 0.88554 0.11033 0.0
C1221 C 0.54627 0.87698 0.08047 0.0
C1222 C 0.5244 0.8267 0.18763 0.0
C1223 C 0.51523 0.91189 0.10391 0.0
C1224 C 0.45527 0.88093 0.20113 0.0
C1225 C 0.46283 0.8951 0.23799 0.0
C1226 C 0.4737 0.87239 0.17057 0.0
C1227 C 0.50025 0.87816 0.17746 0.0
C1228 C 0.50788 0.89268 0.21469 0.0
C1229 C 0.48896 0.90126 0.24434 0.0
C1230 C 0.46477 0.85722 0.13102 0.0
C1231 C 0.53602 0.89893 0.2234 0.0
H1232 H 0.55884 0.81728 0.12304 0.0
H1233 H 0.55181 0.8894 0.05338 0.0
H1234 H 0.52769 0.83664 0.21939 0.0
H1235 H 0.50347 0.82179 0.1859 0.0
H1236 H 0.53573 0.80837 0.18731 0.0
H1237 H 0.52294 0.92207 0.07459 0.0
H1238 H 0.49392 0.90981 0.1003 0.0
H1239 H 0.51874 0.9242 0.13311 0.0
H1240 H 0.43488 0.87689 0.19596 0.0
H1241 H 0.49461 0.91236 0.27298 0.0
H1242 H 0.47323 0.83744 0.13178 0.0
H1243 H 0.47167 0.86673 0.10056 0.0
H1244 H 0.44332 0.85543 0.12952 0.0
H1245 H 0.54743 0.88072 0.22553 0.0
H1246 H 0.53873 0.91005 0.25424 0.0
H1247 H 0.54412 0.91042 0.19588 0.0
C1248 C 0.38483 0.2988 0.83643 0.0
C1249 C 0.41093 0.30507 0.82945 0.0
C1250 C 0.37766 0.28074 0.86852 0.0
C1251 C 0.39704 0.26889 0.89461 0.0
C1252 C 0.42342 0.2755 0.88831 0.0
C1253 C 0.43005 0.29345 0.85564 0.0
C1254 C 0.34935 0.27382 0.87373 0.0
C1255 C 0.44497 0.26317 0.91455 0.0
C1256 C 0.36998 0.23849 0.99785 0.0
C1257 C 0.3675 0.21255 0.98492 0.0
C1258 C 0.38125 0.25682 0.96973 0.0
C1259 C 0.38937 0.24908 0.9274 0.0
C1260 C 0.38799 0.22266 0.9151 0.0
C1261 C 0.37705 0.20468 0.94411 0.0
C1262 C 0.38389 0.28458 0.98476 0.0
C1263 C 0.39726 0.21355 0.87079 0.0
H1264 H 0.36998 0.30763 0.81621 0.0
H1265 H 0.45031 0.29815 0.85046 0.0
H1266 H 0.34658 0.25274 0.86794 0.0
H1267 H 0.34291 0.27797 0.90769 0.0
H1268 H 0.33672 0.28471 0.85071 0.0
H1269 H 0.46079 0.27735 0.92064 0.0
H1270 H 0.43822 0.25536 0.94641 0.0
H1271 H 0.45337 0.24693 0.89535 0.0
H1272 H 0.36286 0.24446 0.02971 0.0
H1273 H 0.37511 0.18457 0.93421 0.0
H1274 H 0.37066 0.29714 0.96547 0.0
H1275 H 0.40397 0.29155 0.97894 0.0
H1276 H 0.37922 0.2869 0.02007 0.0
H1277 H 0.3954 0.1922 0.86677 0.0
H1278 H 0.4179 0.21896 0.86615 0.0
H1279 H 0.38592 0.22325 0.8446 0.0
C1280 C 0.03587 0.11355 0.68513 0.0
C1281 C 0.03156 0.11118 0.73028 0.0
C1282 C 0.01649 0.12299 0.65729 0.0
C1283 C 0.99213 0.12996 0.67501 0.0
C1284 C 0.98772 0.12793 0.72063 0.0
C1285 C 0.00747 0.1184 0.74777 0.0
C1286 C 0.02208 0.12551 0.60891 0.0
C1287 C 0.96213 0.13577 0.74066 0.0
C1288 C 0.94988 0.17297 0.60402 0.0
C1289 C 0.93367 0.15463 0.5839 0.0
C1290 C 0.96862 0.16536 0.63468 0.0
C1291 C 0.9711 0.13878 0.64548 0.0
C1292 C 0.95424 0.1203 0.62633 0.0
C1293 C 0.93574 0.12845 0.59567 0.0
C1294 C 0.98647 0.18577 0.65351 0.0
C1295 C 0.95631 0.09179 0.63718 0.0
H1296 H 0.05448 0.10803 0.67149 0.0
H1297 H 0.00409 0.11679 0.78271 0.0
H1298 H 0.00802 0.11375 0.58983 0.0
H1299 H 0.01969 0.14602 0.59863 0.0
H1300 H 0.04202 0.11915 0.60036 0.0
H1301 H 0.96258 0.13519 0.77703 0.0
H1302 H 0.95685 0.15568 0.73009 0.0
H1303 H 0.94662 0.12255 0.72898 0.0
H1304 H 0.9485 0.19326 0.59496 0.0
H1305 H 0.92319 0.11421 0.58037 0.0
H1306 H 0.00386 0.18747 0.63229 0.0
H1307 H 0.99312 0.18078 0.68699 0.0
H1308 H 0.97688 0.20506 0.6545 0.0
H1309 H 0.97549 0.08433 0.62657 0.0
H1310 H 0.94094 0.08009 0.62104 0.0
H1311 H 0.95494 0.08887 0.67312 0.0
C1312 C 0.1417 0.79076 0.4349 0.0
C1313 C 0.14281 0.78829 0.48058 0.0
C1314 C 0.13348 0.77012 0.40851 0.0
C1315 C 0.12666 0.74623 0.42823 0.0
C1316 C 0.1281 0.74343 0.4743 0.0
C1317 C 0.13617 0.76454 0.49999 0.0
C1318 C 0.13186 0.77397 0.35953 0.0
C1319 C 0.12093 0.71823 0.4964 0.0
C1320 C 0.08395 0.70207 0.35999 0.0
C1321 C 0.10236 0.68576 0.34028 0.0
C1322 C 0.09149 0.7214 0.38971 0.0
C1323 C 0.11805 0.72426 0.40032 0.0
C1324 C 0.13659 0.70717 0.38195 0.0
C1325 C 0.12854 0.68819 0.35194 0.0
C1326 C 0.07117 0.73943 0.40826 0.0
C1327 C 0.16505 0.70949 0.39293 0.0
H1328 H 0.14702 0.80902 0.4197 0.0
H1329 H 0.137 0.76252 0.5353 0.0
H1330 H 0.1445 0.75974 0.34258 0.0
H1331 H 0.11172 0.7705 0.34818 0.0
H1332 H 0.13776 0.79382 0.34943 0.0
H1333 H 0.12393 0.71896 0.53242 0.0
H1334 H 0.10028 0.71361 0.48988 0.0
H1335 H 0.13269 0.70212 0.48274 0.0
H1336 H 0.06366 0.70031 0.35119 0.0
H1337 H 0.14283 0.67554 0.33706 0.0
H1338 H 0.07435 0.75934 0.39551 0.0
H1339 H 0.07278 0.74042 0.44445 0.0
H1340 H 0.05117 0.73329 0.39954 0.0
H1341 H 0.17267 0.72822 0.38046 0.0
H1342 H 0.1767 0.69351 0.37848 0.0
H1343 H 0.16783 0.70942 0.42897 0.0
C1344 C 0.94347 0.62535 0.4026 0.0
C1345 C 0.94106 0.65166 0.41334 0.0
C1346 C 0.96255 0.61694 0.37308 0.0
C1347 C 0.97968 0.63526 0.35414 0.0
C1348 C 0.97707 0.66192 0.36433 0.0
C1349 C 0.95774 0.66978 0.39374 0.0
C1350 C 0.96482 0.58834 0.36301 0.0
C1351 C 0.99529 0.68221 0.34613 0.0
C1352 C 0.04488 0.61056 0.31482 0.0
C1353 C 0.04067 0.6081 0.26964 0.0
C1354 C 0.02527 0.61966 0.34264 0.0
C1355 C 1.00084 0.62631 0.32484 0.0
C1356 C 0.99656 0.62422 0.27919 0.0
C1357 C 0.01649 0.61496 0.25211 0.0
C1358 C 0.03073 0.6223 0.39102 0.0
C1359 C 0.97099 0.63194 0.25901 0.0
H1360 H 0.93064 0.61128 0.41767 0.0
H1361 H 0.95625 0.69015 0.40227 0.0
H1362 H 0.96352 0.58511 0.32714 0.0
H1363 H 0.98404 0.5811 0.37384 0.0
H1364 H 0.9495 0.5767 0.3794 0.0
H1365 H 0.98553 0.70136 0.34341 0.0
H1366 H 0.01193 0.6845 0.36886 0.0
H1367 H 0.00309 0.67681 0.31354 0.0
H1368 H 0.06356 0.60534 0.3285 0.0
H1369 H 0.01319 0.61333 0.21715 0.0
H1370 H 0.01653 0.61073 0.41012 0.0
H1371 H 0.02848 0.64287 0.40106 0.0
H1372 H 0.05061 0.61582 0.39976 0.0
H1373 H 0.97118 0.63038 0.22271 0.0
H1374 H 0.96621 0.65223 0.26813 0.0
H1375 H 0.95528 0.61939 0.272 0.0
C1376 C 0.12036 0.19099 0.6508 0.0
C1377 C 0.09404 0.18742 0.6605 0.0
C1378 C 0.12831 0.20977 0.6204 0.0
C1379 C 0.10947 0.22532 0.59919 0.0
C1380 C 0.08281 0.22131 0.60788 0.0
C1381 C 0.07543 0.20239 0.63844 0.0
C1382 C 0.15693 0.21362 0.61213 0.0
C1383 C 0.06194 0.23768 0.58689 0.0
C1384 C 0.13222 0.29128 0.56044 0.0
C1385 C 0.13714 0.28663 0.51599 0.0
C1386 C 0.12264 0.27163 0.58765 0.0
C1387 C 0.11795 0.24671 0.56995 0.0
C1388 C 0.1222 0.24207 0.5248 0.0
C1389 C 0.13201 0.26207 0.49835 0.0
C1390 C 0.11772 0.27748 0.6354 0.0
C1391 C 0.11648 0.21597 0.5046 0.0
H1392 H 0.13484 0.17947 0.66764 0.0
H1393 H 0.05501 0.19984 0.64579 0.0
H1394 H 0.16113 0.21205 0.57659 0.0
H1395 H 0.16275 0.23338 0.6227 0.0
H1396 H 0.16903 0.19924 0.62991 0.0
H1397 H 0.04366 0.22649 0.58312 0.0
H1398 H 0.05775 0.25452 0.60841 0.0
H1399 H 0.06783 0.24524 0.55438 0.0
H1400 H 0.13615 0.31029 0.57414 0.0
H1401 H 0.13555 0.25851 0.46386 0.0
H1402 H 0.12941 0.26431 0.65628 0.0
H1403 H 0.09701 0.27399 0.64327 0.0
H1404 H 0.12255 0.29786 0.64405 0.0
H1405 H 0.12975 0.20117 0.51849 0.0
H1406 H 0.11876 0.21613 0.46841 0.0
H1407 H 0.09638 0.2099 0.51267 0.0
C1408 C 0.4592 0.38017 0.80848 0.0
C1409 C 0.46466 0.38737 0.7652 0.0
C1410 C 0.47877 0.37082 0.83605 0.0
C1411 C 0.5044 0.36876 0.81992 0.0
C1412 C 0.50979 0.37489 0.77564 0.0
C1413 C 0.48986 0.38445 0.74884 0.0
C1414 C 0.47214 0.36368 0.88269 0.0
C1415 C 0.53666 0.37163 0.75686 0.0
C1416 C 0.55811 0.37551 0.90373 0.0
C1417 C 0.56434 0.34956 0.91231 0.0
C1418 C 0.53894 0.38194 0.87307 0.0
C1419 C 0.52581 0.36193 0.85025 0.0
C1420 C 0.53246 0.33569 0.85793 0.0
C1421 C 0.55161 0.32983 0.889 0.0
C1422 C 0.5322 0.41015 0.86604 0.0
C1423 C 0.51879 0.31357 0.8351 0.0
H1424 H 0.43966 0.38235 0.82109 0.0
H1425 H 0.49401 0.38969 0.71517 0.0
H1426 H 0.48337 0.376 0.90571 0.0
H1427 H 0.45115 0.36602 0.88989 0.0
H1428 H 0.47761 0.34321 0.88904 0.0
H1429 H 0.53729 0.3756 0.72111 0.0
H1430 H 0.55031 0.385 0.77362 0.0
H1431 H 0.54362 0.35155 0.76275 0.0
H1432 H 0.56785 0.39084 0.92162 0.0
H1433 H 0.55624 0.30967 0.89547 0.0
H1434 H 0.51162 0.41354 0.87506 0.0
H1435 H 0.53437 0.41526 0.83093 0.0
H1436 H 0.54458 0.42337 0.88574 0.0
H1437 H 0.50253 0.30679 0.85599 0.0
H1438 H 0.53214 0.29689 0.83028 0.0
H1439 H 0.51072 0.31931 0.80288 0.0
C1440 C 0.36324 0.71169 0.06992 0.0
C1441 C 0.36105 0.71685 0.02499 0.0
C1442 C 0.37379 0.73008 0.09864 0.0
C1443 C 0.38216 0.75432 0.08209 0.0
C1444 C 0.38017 0.75963 0.03673 0.0
C1445 C 0.36946 0.74088 0.00871 0.0
C1446 C 0.37604 0.72355 0.14671 0.0
C1447 C 0.38911 0.78516 0.0178 0.0
C1448 C 0.38499 0.80897 0.16501 0.0
C1449 C 0.41122 0.80868 0.17703 0.0
C1450 C 0.37546 0.79193 0.13302 0.0
C1451 C 0.39258 0.7742 0.11259 0.0
C1452 C 0.4193 0.77453 0.12327 0.0
C1453 C 0.42829 0.79178 0.1554 0.0
C1454 C 0.34686 0.79217 0.12238 0.0
C1455 C 0.43829 0.75584 0.10272 0.0
H1456 H 0.35678 0.69316 0.0827 0.0
H1457 H 0.36791 0.745 0.974 0.0
H1458 H 0.39668 0.72434 0.1569 0.0
H1459 H 0.36534 0.73806 0.16657 0.0
H1460 H 0.36832 0.70394 0.1544 0.0
H1461 H 0.39076 0.78442 0.98153 0.0
H1462 H 0.37499 0.80054 0.02659 0.0
H1463 H 0.40817 0.79088 0.03164 0.0
H1464 H 0.37171 0.82205 0.18143 0.0
H1465 H 0.44861 0.79139 0.16448 0.0
H1466 H 0.33804 0.77338 0.13205 0.0
H1467 H 0.34396 0.79443 0.08659 0.0
H1468 H 0.33639 0.80804 0.1395 0.0
H1469 H 0.43814 0.73744 0.12159 0.0
H1470 H 0.45837 0.76367 0.1034 0.0
H1471 H 0.4331 0.75121 0.06835 0.0
C1472 C 0.04374 0.32804 0.60389 0.0
C1473 C 0.05895 0.34665 0.58229 0.0
C1474 C 0.0254 0.33538 0.63542 0.0
C1475 C 0.02227 0.36199 0.64556 0.0
C1476 C 0.03806 0.38079 0.62475 0.0
C1477 C 0.05622 0.37289 0.59331 0.0
C1478 C 0.00869 0.3146 0.65599 0.0
C1479 C 0.03518 0.40935 0.63471 0.0
C1480 C 0.95761 0.38574 0.68809 0.0
C1481 C 0.96288 0.38927 0.73273 0.0
C1482 C 0.97663 0.3763 0.65955 0.0
C1483 C 0.00158 0.37046 0.67605 0.0
C1484 C 0.00689 0.37346 0.72125 0.0
C1485 C 0.98749 0.38303 0.7491 0.0
C1486 C 0.97008 0.3727 0.61172 0.0
C1487 C 0.0331 0.36671 0.74004 0.0
H1488 H 0.04568 0.30769 0.59552 0.0
H1489 H 0.06798 0.38735 0.57685 0.0
H1490 H 0.00213 0.31995 0.68938 0.0
H1491 H 0.99121 0.31164 0.6354 0.0
H1492 H 0.01919 0.2958 0.65774 0.0
H1493 H 0.0497 0.42138 0.61708 0.0
H1494 H 0.01549 0.41595 0.6252 0.0
H1495 H 0.0373 0.4128 0.6704 0.0
H1496 H 0.93859 0.39052 0.67532 0.0
H1497 H 0.99156 0.38553 0.78368 0.0
H1498 H 0.97297 0.35212 0.60229 0.0
H1499 H 0.98327 0.3846 0.59119 0.0
H1500 H 0.94974 0.3782 0.60418 0.0
H1501 H 0.03887 0.34689 0.72974 0.0
H1502 H 0.03332 0.36768 0.77639 0.0
H1503 H 0.0479 0.38034 0.72712 0.0
C1504 C 0.88131 0.80733 0.34766 0.0
C1505 C 0.90742 0.80933 0.33539 0.0
C1506 C 0.87343 0.78958 0.37981 0.0
C1507 C 0.89209 0.77333 0.39987 0.0
C1508 C 0.91859 0.77575 0.38858 0.0
C1509 C 0.92597 0.79386 0.35662 0.0
C1510 C 0.84499 0.78759 0.39121 0.0
C1511 C 0.93898 0.75853 0.40899 0.0
C1512 C 0.87156 0.73776 0.50314 0.0
C1513 C 0.8643 0.71359 0.48607 0.0
C1514 C 0.88132 0.75729 0.47563 0.0
C1515 C 0.88351 0.7525 0.4301 0.0
C1516 C 0.87644 0.72801 0.41289 0.0
C1517 C 0.86682 0.7089 0.44109 0.0
C1518 C 0.88902 0.78308 0.49512 0.0
C1519 C 0.87875 0.72207 0.36458 0.0
H1520 H 0.86691 0.81935 0.33164 0.0
H1521 H 0.94622 0.79535 0.34742 0.0
H1522 H 0.83748 0.76831 0.38122 0.0
H1523 H 0.84227 0.78929 0.42715 0.0
H1524 H 0.83321 0.8028 0.37483 0.0
H1525 H 0.95888 0.76375 0.3982 0.0
H1526 H 0.93801 0.75976 0.44523 0.0
H1527 H 0.93528 0.73801 0.39997 0.0
H1528 H 0.86972 0.74137 0.53799 0.0
H1529 H 0.86108 0.69023 0.42785 0.0
H1530 H 0.87699 0.79876 0.48074 0.0
H1531 H 0.90953 0.78748 0.48703 0.0
H1532 H 0.88672 0.78347 0.5313 0.0
H1533 H 0.86608 0.73532 0.34558 0.0
H1534 H 0.87325 0.70174 0.35677 0.0
H1535 H 0.89895 0.72536 0.35339 0.0
C1536 C 0.43602 0.6252 0.10338 0.0
C1537 C 0.43515 0.65146 0.09159 0.0
C1538 C 0.4546 0.61606 0.13315 0.0
C1539 C 0.47285 0.63358 0.15119 0.0
C1540 C 0.47159 0.66026 0.14046 0.0
C1541 C 0.45268 0.66889 0.11087 0.0
C1542 C 0.45518 0.58753 0.14437 0.0
C1543 C 0.49085 0.67952 0.15877 0.0
C1544 C 0.5116 0.61383 0.25146 0.0
C1545 C 0.53503 0.60574 0.2325 0.0
C1546 C 0.49108 0.62282 0.2254 0.0
C1547 C 0.49413 0.62375 0.17936 0.0
C1548 C 0.51763 0.61539 0.16002 0.0
C1549 C 0.53771 0.60627 0.1868 0.0
C1550 C 0.46631 0.63167 0.24712 0.0
C1551 C 0.52173 0.61647 0.11106 0.0
H1552 H 0.42242 0.61166 0.08883 0.0
H1553 H 0.45216 0.68923 0.10192 0.0
H1554 H 0.47347 0.57879 0.13222 0.0
H1555 H 0.45477 0.58489 0.18043 0.0
H1556 H 0.4386 0.57679 0.12982 0.0
H1557 H 0.48542 0.69989 0.1512 0.0
H1558 H 0.49253 0.67739 0.1948 0.0
H1559 H 0.5103 0.67568 0.14464 0.0
H1560 H 0.50938 0.61351 0.28677 0.0
H1561 H 0.55575 0.60001 0.17193 0.0
H1562 H 0.44951 0.62098 0.2333 0.0
H1563 H 0.46312 0.65258 0.24046 0.0
H1564 H 0.46665 0.62871 0.28317 0.0
H1565 H 0.50666 0.60483 0.09414 0.0
H1566 H 0.54111 0.60909 0.10121 0.0
H1567 H 0.51979 0.63677 0.09943 0.0
C1568 C 0.63499 0.26498 0.99603 0.0
C1569 C 0.6418 0.28908 0.97805 0.0
C1570 C 0.62644 0.2446 0.96924 0.0
C1571 C 0.6249 0.24837 0.9234 0.0
C1572 C 0.63159 0.27268 0.90509 0.0
C1573 C 0.64005 0.29273 0.93263 0.0
C1574 C 0.61898 0.21906 0.98993 0.0
C1575 C 0.62977 0.27754 0.8564 0.0
C1576 C 0.62781 0.19028 0.84729 0.0
C1577 C 0.60169 0.1873 0.83565 0.0
C1578 C 0.63554 0.20979 0.87655 0.0
C1579 C 0.61671 0.22674 0.89442 0.0
C1580 C 0.59023 0.22348 0.88356 0.0
C1581 C 0.58305 0.20379 0.85429 0.0
C1582 C 0.66395 0.21264 0.8876 0.0
C1583 C 0.56953 0.24135 0.90137 0.0
H1584 H 0.6361 0.26208 0.03115 0.0
H1585 H 0.64526 0.31132 0.91856 0.0
H1586 H 0.5988 0.21391 0.98077 0.0
H1587 H 0.63177 0.20342 0.97741 0.0
H1588 H 0.62042 0.21956 0.02623 0.0
H1589 H 0.63578 0.29753 0.84738 0.0
H1590 H 0.6422 0.26354 0.83848 0.0
H1591 H 0.60954 0.27446 0.84517 0.0
H1592 H 0.6423 0.17758 0.83308 0.0
H1593 H 0.56283 0.20175 0.84525 0.0
H1594 H 0.66672 0.21177 0.92361 0.0
H1595 H 0.67105 0.23185 0.87644 0.0
H1596 H 0.67603 0.19733 0.87212 0.0
H1597 H 0.57283 0.24571 0.93649 0.0
H1598 H 0.54979 0.23298 0.89755 0.0
H1599 H 0.57018 0.26001 0.8833 0.0
C1600 C 0.26096 0.18704 0.2178 0.0
C1601 C 0.27641 0.19734 0.18427 0.0
C1602 C 0.24581 0.20331 0.2444 0.0
C1603 C 0.2458 0.23041 0.23665 0.0
C1604 C 0.26138 0.24088 0.20287 0.0
C1605 C 0.27666 0.22426 0.17738 0.0
C1606 C 0.22978 0.19154 0.28072 0.0
C1607 C 0.26163 0.26963 0.19322 0.0
C1608 C 0.18917 0.27062 0.27824 0.0
C1609 C 0.20004 0.28246 0.31525 0.0
C1610 C 0.20386 0.25361 0.25223 0.0
C1611 C 0.2298 0.24797 0.26415 0.0
C1612 C 0.24077 0.25971 0.3017 0.0
C1613 C 0.22585 0.27701 0.32653 0.0
C1614 C 0.19171 0.24184 0.21185 0.0
C1615 C 0.26823 0.25388 0.31581 0.0
H1616 H 0.2607 0.16626 0.22325 0.0
H1617 H 0.28834 0.23237 0.15122 0.0
H1618 H 0.23518 0.20041 0.31257 0.0
H1619 H 0.20894 0.19572 0.27521 0.0
H1620 H 0.23238 0.1702 0.28309 0.0
H1621 H 0.27446 0.27459 0.16521 0.0
H1622 H 0.2417 0.27637 0.18565 0.0
H1623 H 0.26831 0.28053 0.22245 0.0
H1624 H 0.16925 0.2748 0.26941 0.0
H1625 H 0.23429 0.28587 0.35541 0.0
H1626 H 0.19194 0.22037 0.21426 0.0
H1627 H 0.20318 0.2472 0.18245 0.0
H1628 H 0.17138 0.24833 0.20699 0.0
H1629 H 0.27071 0.23268 0.32056 0.0
H1630 H 0.27354 0.26393 0.34673 0.0
H1631 H 0.28202 0.25993 0.28986 0.0
C1632 C 0.53333 0.5579 0.49156 0.0
C1633 C 0.53632 0.55308 0.44667 0.0
C1634 C 0.51522 0.54386 0.5165 0.0
C1635 C 0.49955 0.52488 0.49583 0.0
C1636 C 0.50224 0.52023 0.45042 0.0
C1637 C 0.52069 0.53425 0.42648 0.0
C1638 C 0.51306 0.54909 0.56503 0.0
C1639 C 0.48571 0.50034 0.42712 0.0
C1640 C 0.47114 0.47058 0.56447 0.0
C1641 C 0.44566 0.47927 0.57134 0.0
C1642 C 0.48886 0.48531 0.54013 0.0
C1643 C 0.48089 0.50921 0.52183 0.0
C1644 C 0.45507 0.51786 0.52777 0.0
C1645 C 0.43776 0.50281 0.5526 0.0
C1646 C 0.51625 0.47544 0.53453 0.0
C1647 C 0.44582 0.54312 0.50823 0.0
H1648 H 0.54536 0.57241 0.50732 0.0
H1649 H 0.52268 0.53056 0.39169 0.0
H1650 H 0.4929 0.55472 0.57343 0.0
H1651 H 0.51757 0.53116 0.58364 0.0
H1652 H 0.52639 0.56472 0.57601 0.0
H1653 H 0.48959 0.49973 0.39133 0.0
H1654 H 0.4894 0.48079 0.44095 0.0
H1655 H 0.46486 0.50469 0.43226 0.0
H1656 H 0.47748 0.45246 0.57892 0.0
H1657 H 0.41814 0.50968 0.55779 0.0
H1658 H 0.5302 0.48976 0.54802 0.0
H1659 H 0.52076 0.47312 0.49921 0.0
H1660 H 0.5194 0.45653 0.55113 0.0
H1661 H 0.45745 0.55945 0.52144 0.0
H1662 H 0.42502 0.54688 0.51523 0.0
H1663 H 0.44867 0.54292 0.4722 0.0
C1664 C 0.2151 0.78554 0.69316 0.0
C1665 C 0.23009 0.80014 0.66376 0.0
C1666 C 0.22667 0.76728 0.72111 0.0
C1667 C 0.25384 0.76346 0.71944 0.0
C1668 C 0.2691 0.77832 0.69019 0.0
C1669 C 0.25705 0.79654 0.66282 0.0
C1670 C 0.20982 0.75196 0.75222 0.0
C1671 C 0.29813 0.77477 0.68748 0.0
C1672 C 0.2876 0.73365 0.81758 0.0
C1673 C 0.29063 0.70774 0.80432 0.0
C1674 C 0.27552 0.7519 0.7904 0.0
C1675 C 0.26639 0.74415 0.74872 0.0
C1676 C 0.26945 0.71808 0.73497 0.0
C1677 C 0.28146 0.70013 0.76304 0.0
C1678 C 0.27247 0.77948 0.80634 0.0
C1679 C 0.26011 0.70919 0.69057 0.0
H1680 H 0.19426 0.78819 0.6941 0.0
H1681 H 0.26879 0.80765 0.64012 0.0
H1682 H 0.21165 0.73092 0.74518 0.0
H1683 H 0.21638 0.75504 0.78643 0.0
H1684 H 0.18904 0.75745 0.74983 0.0
H1685 H 0.30719 0.7878 0.66287 0.0
H1686 H 0.30708 0.77865 0.71986 0.0
H1687 H 0.30272 0.7544 0.6787 0.0
H1688 H 0.29449 0.73971 0.84953 0.0
H1689 H 0.28375 0.68018 0.75255 0.0
H1690 H 0.25166 0.78494 0.80648 0.0
H1691 H 0.28256 0.79299 0.78376 0.0
H1692 H 0.28038 0.78229 0.83986 0.0
H1693 H 0.23895 0.71261 0.68753 0.0
H1694 H 0.26403 0.68828 0.68474 0.0
H1695 H 0.26977 0.72065 0.66447 0.0
C1696 C 0.06735 0.51285 0.02666 0.0
C1697 C 0.05773 0.52779 0.0614 0.0
C1698 C 0.0507 0.49728 0.00142 0.0
C1699 C 0.02394 0.49632 0.01176 0.0
C1700 C 0.01416 0.51132 0.04686 0.0
C1701 C 0.03112 0.52704 0.07098 0.0
C1702 C 0.06172 0.48189 0.96367 0.0
C1703 C 0.9858 0.51055 0.05928 0.0
C1704 C 0.97533 0.4754 0.92547 0.0
C1705 C 0.97118 0.44929 0.93642 0.0
C1706 C 0.99276 0.49078 0.9493 0.0
C1707 C 0.00598 0.47995 0.98553 0.0
C1708 C 0.00161 0.4537 0.99719 0.0
C1709 C 0.98443 0.43859 0.97218 0.0
C1710 C 0.99718 0.51857 0.93546 0.0
C1711 C 0.01498 0.44166 0.03619 0.0
H1712 H 0.08789 0.51338 0.01912 0.0
H1713 H 0.02355 0.53832 0.09809 0.0
H1714 H 0.05829 0.46089 0.96901 0.0
H1715 H 0.05171 0.48731 0.93283 0.0
H1716 H 0.08287 0.48512 0.95943 0.0
H1717 H 0.98141 0.52296 0.08809 0.0
H1718 H 0.97374 0.51713 0.03135 0.0
H1719 H 0.97995 0.49033 0.06692 0.0
H1720 H 0.96537 0.48374 0.89757 0.0
H1721 H 0.98126 0.41844 0.9808 0.0
H1722 H 0.01807 0.52181 0.92869 0.0
H1723 H 0.9916 0.53191 0.96237 0.0
H1724 H 0.98591 0.52382 0.90575 0.0
H1725 H 0.03632 0.44253 0.03181 0.0
H1726 H 0.00924 0.4211 0.04123 0.0
H1727 H 0.01027 0.45278 0.06628 0.0
C1728 C 0.71751 0.76879 0.82927 0.0
C1729 C 0.70176 0.78746 0.80895 0.0
C1730 C 0.73139 0.75056 0.80458 0.0
C1731 C 0.72966 0.75107 0.75837 0.0
C1732 C 0.71381 0.76983 0.73755 0.0
C1733 C 0.69996 0.78777 0.76313 0.0
C1734 C 0.74797 0.73078 0.82798 0.0
C1735 C 0.71165 0.77105 0.68828 0.0
C1736 C 0.78445 0.72069 0.69316 0.0
C1737 C 0.77356 0.69687 0.68053 0.0
C1738 C 0.77038 0.73846 0.71855 0.0
C1739 C 0.74483 0.73225 0.73184 0.0
C1740 C 0.7339 0.70804 0.72001 0.0
C1741 C 0.74839 0.69064 0.69445 0.0
C1742 C 0.78273 0.76406 0.73062 0.0
C1743 C 0.70677 0.70068 0.7339 0.0
H1744 H 0.71895 0.76829 0.86468 0.0
H1745 H 0.68786 0.80213 0.74719 0.0
H1746 H 0.74182 0.71089 0.81875 0.0
H1747 H 0.76852 0.73297 0.81786 0.0
H1748 H 0.74683 0.73269 0.86418 0.0
H1749 H 0.69835 0.78667 0.67718 0.0
H1750 H 0.73106 0.77447 0.67369 0.0
H1751 H 0.70449 0.75224 0.67539 0.0
H1752 H 0.80387 0.72571 0.68255 0.0
H1753 H 0.73981 0.67231 0.68481 0.0
H1754 H 0.78316 0.76632 0.76675 0.0
H1755 H 0.77101 0.78029 0.71729 0.0
H1756 H 0.80285 0.76584 0.71794 0.0
H1757 H 0.70511 0.70145 0.77011 0.0
H1758 H 0.70128 0.68092 0.7227 0.0
H1759 H 0.69264 0.71478 0.72039 0.0
C1760 C 0.72039 0.27922 0.17689 0.0
C1761 C 0.72313 0.30617 0.18156 0.0
C1762 C 0.73601 0.26203 0.20065 0.0
C1763 C 0.75455 0.272 0.23034 0.0
C1764 C 0.75715 0.29917 0.23579 0.0
C1765 C 0.74152 0.31596 0.21105 0.0
C1766 C 0.73286 0.23318 0.19363 0.0
C1767 C 0.77645 0.31045 0.26774 0.0
C1768 C 0.77669 0.22677 0.32062 0.0
C1769 C 0.80113 0.21893 0.30538 0.0
C1770 C 0.76152 0.24433 0.2968 0.0
C1771 C 0.7708 0.25391 0.25632 0.0
C1772 C 0.7953 0.24581 0.24039 0.0
C1773 C 0.81033 0.22858 0.26538 0.0
C1774 C 0.73566 0.25279 0.31515 0.0
C1775 C 0.80556 0.25527 0.19689 0.0
H1776 H 0.70639 0.27147 0.15387 0.0
H1777 H 0.74371 0.33676 0.21478 0.0
H1778 H 0.75157 0.22459 0.1831 0.0
H1779 H 0.72729 0.22365 0.22483 0.0
H1780 H 0.71791 0.22861 0.16858 0.0
H1781 H 0.77584 0.33199 0.26853 0.0
H1782 H 0.77248 0.30302 0.30119 0.0
H1783 H 0.79636 0.30426 0.25884 0.0
H1784 H 0.76956 0.2196 0.35175 0.0
H1785 H 0.82919 0.22253 0.25348 0.0
H1786 H 0.71986 0.24728 0.29234 0.0
H1787 H 0.7352 0.27422 0.31849 0.0
H1788 H 0.73158 0.24402 0.34767 0.0
H1789 H 0.79178 0.2501 0.17037 0.0
H1790 H 0.82483 0.24688 0.18893 0.0
H1791 H 0.80726 0.27672 0.19722 0.0
C1792 C 0.01998 0.02814 0.92057 0.0
C1793 C 0.02678 0.05312 0.93478 0.0
C1794 C 0.00252 0.01286 0.94445 0.0
C1795 C 0.99202 0.02258 0.98398 0.0
C1796 C 0.99896 0.0477 -0.00126 0.0
C1797 C 0.01609 0.06281 0.97366 0.0
C1798 C 0.99527 0.98633 0.92732 0.0
C1799 C 0.98855 0.05846 0.04125 0.0
C1800 C 0.93115 0.99161 0.03096 0.0
C1801 C 0.94168 0.97441 0.06172 0.0
C1802 C 0.94731 0.00728 0.00501 0.0
C1803 C 0.97455 0.00601 0.01067 0.0
C1804 C 0.98525 0.98866 0.04165 0.0
C1805 C 0.96871 0.97291 0.06647 0.0
C1806 C 0.93529 0.02521 0.97162 0.0
C1807 C 0.01417 0.987 0.04907 0.0
H1808 H 0.02795 0.02065 0.89023 0.0
H1809 H 0.02132 0.0821 0.98472 0.0
H1810 H 0.00147 0.9712 0.9509 0.0
H1811 H 0.97389 0.9848 0.92397 0.0
H1812 H 0.00428 0.98212 0.89503 0.0
H1813 H 0.99582 0.07834 0.04807 0.0
H1814 H 0.96705 0.05897 0.04034 0.0
H1815 H 0.9942 0.04561 0.06881 0.0
H1816 H 0.91029 0.99283 0.02717 0.0
H1817 H 0.97701 0.95986 0.09051 0.0
H1818 H 0.9432 0.02093 0.93859 0.0
H1819 H 0.94033 0.04562 0.97937 0.0
H1820 H 0.91383 0.0234 0.97047 0.0
H1821 H 0.02407 0.98125 0.01832 0.0
H1822 H 0.01933 0.97282 0.07504 0.0
H1823 H 0.02184 0.00632 0.05856 0.0
C1824 C 0.52846 0.04016 0.5548 0.0
C1825 C 0.55442 0.03197 0.55556 0.0
C1826 C 0.51061 0.02933 0.52538 0.0
C1827 C 0.51891 0.00992 0.49578 0.0
C1828 C 0.5451 0.00166 0.49612 0.0
C1829 C 0.56255 0.01275 0.5261 0.0
C1830 C 0.48283 0.03863 0.52605 0.0
C1831 C 0.55467 0.98112 0.46479 0.0
C1832 C 0.46779 0.96632 0.44436 0.0
C1833 C 0.46458 0.97789 0.40314 0.0
C1834 C 0.48549 0.97648 0.47486 0.0
C1835 C 0.50026 0.99872 0.46383 0.0
C1836 C 0.49697 0.01055 0.4224 0.0
C1837 C 0.47919 1.0 0.3926 0.0
C1838 C 0.48845 0.9634 0.51883 0.0
C1839 C 0.51229 0.03434 0.4095 0.0
H1840 H 0.52193 0.05493 0.57755 0.0
H1841 H 0.58254 0.0063 0.52649 0.0
H1842 H 0.47758 0.04685 0.49366 0.0
H1843 H 0.46959 0.02207 0.53229 0.0
H1844 H 0.47943 0.05366 0.5515 0.0
H1845 H 0.57559 0.97673 0.46939 0.0
H1846 H 0.54342 0.96297 0.46934 0.0
H1847 H 0.5516 0.98757 0.43051 0.0
H1848 H 0.45662 0.9492 0.45271 0.0
H1849 H 0.47684 0.0091 0.36085 0.0
H1850 H 0.48394 0.97734 0.54545 0.0
H1851 H 0.50883 0.95707 0.52344 0.0
H1852 H 0.47556 0.94625 0.52232 0.0
H1853 H 0.50836 0.05036 0.43284 0.0
H1854 H 0.50755 0.04111 0.3759 0.0
H1855 H 0.53337 0.03012 0.41112 0.0
loop_
_geom_bond_atom_site_label_1
_geom_bond_atom_site_label_2
_geom_bond_distance
_geom_bond_site_symmetry_2
_ccdc_geom_bond_type
Zn0 O6 1.969 . S
Zn0 O7 1.965 . S
Zn0 O11 2.024 . S
Zn0 O16 1.969 . S
Zn1 O8 1.969 . S
Zn1 O14 1.969 1_554 S
Zn1 O15 1.956 1_554 S
Zn1 O17 2.024 . S
C2 O3 1.229 . S
C2 O11 1.058 . S
O3 C2 1.229 . S
C4 O5 1.229 . S
C4 O17 1.058 . S
O5 C4 1.229 . S
O6 Zn0 1.969 . S
O6 C9 1.267 . S
O7 Zn0 1.965 . S
O7 C18 1.260 . S
O8 Zn1 1.969 . S
O8 C18 1.258 . S
C9 O6 1.267 . S
C9 O10 1.228 . S
O10 C9 1.228 . S
O11 Zn0 2.024 . S
O11 C2 1.058 . S
C12 O13 1.228 . S
C12 O14 1.267 . S
O13 C12 1.228 . S
O14 Zn1 1.969 1_556 S
O14 C12 1.267 . S
O15 Zn1 1.956 1_556 S
O15 C19 1.259 1_556 S
O16 Zn0 1.969 . S
O16 C19 1.266 . S
O17 Zn1 2.024 . S
O17 C4 1.058 . S
C18 O7 1.260 . S
C18 O8 1.258 . S
C19 O15 1.259 1_554 S
C19 O16 1.266 . S
Zn20 O26 1.969 . S
Zn20 O27 1.965 . S
Zn20 O31 2.024 . S
Zn20 O36 1.969 . S
Zn21 O28 1.969 . S
Zn21 O34 1.969 . S
Zn21 O35 1.965 . S
Zn21 O37 2.024 . S
C22 O23 1.229 . S
C22 O31 1.058 . S
O23 C22 1.229 . S
C24 O25 1.229 . S
C24 O37 1.058 . S
O25 C24 1.229 . S
O26 Zn20 1.969 . S
O26 C29 1.267 . S
O27 Zn20 1.965 . S
O27 C38 1.260 . S
O28 Zn21 1.969 . S
O28 C38 1.258 . S
C29 O26 1.267 . S
C29 O30 1.228 . S
O30 C29 1.228 . S
O31 Zn20 2.024 . S
O31 C22 1.058 . S
C32 O33 1.228 . S
C32 O34 1.267 . S
O33 C32 1.228 . S
O34 Zn21 1.969 . S
O34 C32 1.267 . S
O35 Zn21 1.965 . S
O35 C39 1.260 . S
O36 Zn20 1.969 . S
O36 C39 1.258 . S
O37 Zn21 2.024 . S
O37 C24 1.058 . S
C38 O27 1.260 . S
C38 O28 1.258 . S
C39 O35 1.260 . S
C39 O36 1.258 . S
Zn40 O46 1.969 . S
Zn40 O47 1.965 . S
Zn40 O51 2.024 . S
Zn40 O56 1.969 . S
Zn41 O48 1.969 . S
Zn41 O54 1.969 . S
Zn41 O55 1.965 . S
Zn41 O57 2.024 . S
C42 O43 1.229 . S
C42 O51 1.058 . S
O43 C42 1.229 . S
C44 O45 1.229 . S
C44 O57 1.058 . S
O45 C44 1.229 . S
O46 Zn40 1.969 . S
O46 C49 1.267 . S
O47 Zn40 1.965 . S
O47 C58 1.260 . S
O48 Zn41 1.969 . S
O48 C58 1.258 . S
C49 O46 1.267 . S
C49 O50 1.228 . S
O50 C49 1.228 . S
O51 Zn40 2.024 . S
O51 C42 1.058 . S
C52 O53 1.228 . S
C52 O54 1.267 . S
O53 C52 1.228 . S
O54 Zn41 1.969 . S
O54 C52 1.267 . S
O55 Zn41 1.965 . S
O55 C59 1.260 . S
O56 Zn40 1.969 . S
O56 C59 1.258 . S
O57 Zn41 2.024 . S
O57 C44 1.058 . S
C58 O47 1.260 . S
C58 O48 1.258 . S
C59 O55 1.260 . S
C59 O56 1.258 . S
Zn60 O66 1.969 . S
Zn60 O67 1.965 . S
Zn60 O71 2.024 . S
Zn60 O76 1.969 . S
Zn61 O68 1.969 . S
Zn61 O74 1.969 . S
Zn61 O75 1.965 . S
Zn61 O77 2.024 . S
C62 O63 1.229 . S
C62 O71 1.058 . S
O63 C62 1.229 . S
C64 O65 1.229 . S
C64 O77 1.058 . S
O65 C64 1.229 . S
O66 Zn60 1.969 . S
O66 C69 1.267 . S
O67 Zn60 1.965 . S
O67 C78 1.260 . S
O68 Zn61 1.969 . S
O68 C78 1.258 . S
C69 O66 1.267 . S
C69 O70 1.228 . S
O70 C69 1.228 . S
O71 Zn60 2.024 . S
O71 C62 1.058 . S
C72 O73 1.228 . S
C72 O74 1.267 . S
O73 C72 1.228 . S
O74 Zn61 1.969 . S
O74 C72 1.267 . S
O75 Zn61 1.965 . S
O75 C79 1.260 . S
O76 Zn60 1.969 . S
O76 C79 1.258 . S
O77 Zn61 2.024 . S
O77 C64 1.058 . S
C78 O67 1.260 . S
C78 O68 1.258 . S
C79 O75 1.260 . S
C79 O76 1.258 . S
Zn80 O86 1.969 1_556 S
Zn80 O87 1.956 1_556 S
Zn80 O91 2.024 . S
Zn80 O96 1.969 . S
Zn81 O88 1.969 . S
Zn81 O94 1.969 . S
Zn81 O95 1.965 . S
Zn81 O97 2.024 . S
C82 O83 1.229 . S
C82 O91 1.058 . S
O83 C82 1.229 . S
C84 O85 1.229 . S
C84 O97 1.058 . S
O85 C84 1.229 . S
O86 Zn80 1.969 1_554 S
O86 C89 1.267 . S
O87 Zn80 1.956 1_554 S
O87 C98 1.259 1_554 S
O88 Zn81 1.969 . S
O88 C98 1.266 . S
C89 O86 1.267 . S
C89 O90 1.228 . S
O90 C89 1.228 . S
O91 Zn80 2.024 . S
O91 C82 1.058 . S
C92 O93 1.228 . S
C92 O94 1.267 . S
O93 C92 1.228 . S
O94 Zn81 1.969 . S
O94 C92 1.267 . S
O95 Zn81 1.965 . S
O95 C99 1.260 . S
O96 Zn80 1.969 . S
O96 C99 1.258 . S
O97 Zn81 2.024 . S
O97 C84 1.058 . S
C98 O87 1.259 1_556 S
C98 O88 1.266 . S
C99 O95 1.260 . S
C99 O96 1.258 . S
Zn100 O106 1.969 . S
Zn100 O107 1.965 . S
Zn100 O111 2.024 . S
Zn100 O116 1.969 . S
Zn101 O108 1.969 . S
Zn101 O114 1.969 . S
Zn101 O115 1.965 . S
Zn101 O117 2.024 . S
C102 O103 1.229 . S
C102 O111 1.058 . S
O103 C102 1.229 . S
C104 O105 1.229 . S
C104 O117 1.058 . S
O105 C104 1.229 . S
O106 Zn100 1.969 . S
O106 C109 1.267 . S
O107 Zn100 1.965 . S
O107 C118 1.260 . S
O108 Zn101 1.969 . S
O108 C118 1.258 . S
C109 O106 1.267 . S
C109 O110 1.228 . S
O110 C109 1.228 . S
O111 Zn100 2.024 . S
O111 C102 1.058 . S
C112 O113 1.228 . S
C112 O114 1.267 . S
O113 C112 1.228 . S
O114 Zn101 1.969 . S
O114 C112 1.267 . S
O115 Zn101 1.965 . S
O115 C119 1.260 . S
O116 Zn100 1.969 . S
O116 C119 1.258 . S
O117 Zn101 2.024 . S
O117 C104 1.058 . S
C118 O107 1.260 . S
C118 O108 1.258 . S
C119 O115 1.260 . S
C119 O116 1.258 . S
Zn120 O126 1.969 . S
Zn120 O127 1.965 . S
Zn120 O131 2.024 . S
Zn120 O136 1.969 . S
Zn121 O128 1.969 . S
Zn121 O134 1.969 . S
Zn121 O135 1.965 . S
Zn121 O137 2.024 . S
C122 O123 1.229 . S
C122 O131 1.058 . S
O123 C122 1.229 . S
C124 O125 1.229 . S
C124 O137 1.058 . S
O125 C124 1.229 . S
O126 Zn120 1.969 . S
O126 C129 1.267 . S
O127 Zn120 1.965 . S
O127 C138 1.260 . S
O128 Zn121 1.969 . S
O128 C138 1.258 . S
C129 O126 1.267 . S
C129 O130 1.228 . S
O130 C129 1.228 . S
O131 Zn120 2.024 . S
O131 C122 1.058 . S
C132 O133 1.228 . S
C132 O134 1.267 . S
O133 C132 1.228 . S
O134 Zn121 1.969 . S
O134 C132 1.267 . S
O135 Zn121 1.965 . S
O135 C139 1.260 . S
O136 Zn120 1.969 . S
O136 C139 1.258 . S
O137 Zn121 2.024 . S
O137 C124 1.058 . S
C138 O127 1.260 . S
C138 O128 1.258 . S
C139 O135 1.260 . S
C139 O136 1.258 . S
Zn140 O146 1.969 . S
Zn140 O147 1.965 . S
Zn140 O151 2.024 . S
Zn140 O156 1.969 . S
Zn141 O148 1.969 . S
Zn141 O154 1.969 . S
Zn141 O155 1.965 . S
Zn141 O157 2.024 . S
C142 O143 1.229 . S
C142 O151 1.058 . S
O143 C142 1.229 . S
C144 O145 1.229 . S
C144 O157 1.058 . S
O145 C144 1.229 . S
O146 Zn140 1.969 . S
O146 C149 1.267 . S
O147 Zn140 1.965 . S
O147 C158 1.260 . S
O148 Zn141 1.969 . S
O148 C158 1.258 . S
C149 O146 1.267 . S
C149 O150 1.228 . S
O150 C149 1.228 . S
O151 Zn140 2.024 . S
O151 C142 1.058 . S
C152 O153 1.228 . S
C152 O154 1.267 . S
O153 C152 1.228 . S
O154 Zn141 1.969 . S
O154 C152 1.267 . S
O155 Zn141 1.965 . S
O155 C159 1.260 . S
O156 Zn140 1.969 . S
O156 C159 1.258 . S
O157 Zn141 2.024 . S
O157 C144 1.058 . S
C158 O147 1.260 . S
C158 O148 1.258 . S
C159 O155 1.260 . S
C159 O156 1.258 . S
Zn160 O166 1.969 . S
Zn160 O167 1.965 . S
Zn160 O171 2.024 . S
Zn160 O176 1.969 . S
Zn161 O168 1.969 . S
Zn161 O174 1.969 . S
Zn161 O175 1.965 . S
Zn161 O177 2.024 . S
C162 O163 1.229 . S
C162 O171 1.058 . S
O163 C162 1.229 . S
C164 O165 1.229 . S
C164 O177 1.058 . S
O165 C164 1.229 . S
O166 Zn160 1.969 . S
O166 C169 1.267 . S
O167 Zn160 1.965 . S
O167 C178 1.260 . S
O168 Zn161 1.969 . S
O168 C178 1.258 . S
C169 O166 1.267 . S
C169 O170 1.228 . S
O170 C169 1.228 . S
O171 Zn160 2.024 . S
O171 C162 1.058 . S
C172 O173 1.228 . S
C172 O174 1.267 . S
O173 C172 1.228 . S
O174 Zn161 1.969 . S
O174 C172 1.267 . S
O175 Zn161 1.965 . S
O175 C179 1.260 . S
O176 Zn160 1.969 . S
O176 C179 1.258 . S
O177 Zn161 2.024 . S
O177 C164 1.058 . S
C178 O167 1.260 . S
C178 O168 1.258 . S
C179 O175 1.260 . S
C179 O176 1.258 . S
Zn180 O186 1.969 . S
Zn180 O187 1.965 . S
Zn180 O191 2.024 . S
Zn180 O196 1.969 . S
Zn181 O188 1.969 . S
Zn181 O194 1.969 . S
Zn181 O195 1.965 . S
Zn181 O197 2.024 . S
C182 O183 1.229 . S
C182 O191 1.058 . S
O183 C182 1.229 . S
C184 O185 1.229 . S
C184 O197 1.058 . S
O185 C184 1.229 . S
O186 Zn180 1.969 . S
O186 C189 1.267 . S
O187 Zn180 1.965 . S
O187 C198 1.260 . S
O188 Zn181 1.969 . S
O188 C198 1.258 . S
C189 O186 1.267 . S
C189 O190 1.228 . S
O190 C189 1.228 . S
O191 Zn180 2.024 . S
O191 C182 1.058 . S
C192 O193 1.228 . S
C192 O194 1.267 . S
O193 C192 1.228 . S
O194 Zn181 1.969 . S
O194 C192 1.267 . S
O195 Zn181 1.965 . S
O195 C199 1.260 . S
O196 Zn180 1.969 . S
O196 C199 1.258 . S
O197 Zn181 2.024 . S
O197 C184 1.058 . S
C198 O187 1.260 . S
C198 O188 1.258 . S
C199 O195 1.260 . S
C199 O196 1.258 . S
Zn200 O206 1.969 . S
Zn200 O207 1.965 . S
Zn200 O211 2.024 . S
Zn200 O216 1.969 . S
Zn201 O208 1.969 . S
Zn201 O214 1.969 1_554 S
Zn201 O215 1.956 1_554 S
Zn201 O217 2.024 . S
C202 O203 1.229 . S
C202 O211 1.058 . S
O203 C202 1.229 . S
C204 O205 1.229 . S
C204 O217 1.058 . S
O205 C204 1.229 . S
O206 Zn200 1.969 . S
O206 C209 1.267 . S
O207 Zn200 1.965 . S
O207 C218 1.260 . S
O208 Zn201 1.969 . S
O208 C218 1.258 . S
C209 O206 1.267 . S
C209 O210 1.228 . S
O210 C209 1.228 . S
O211 Zn200 2.024 . S
O211 C202 1.058 . S
C212 O213 1.228 . S
C212 O214 1.267 . S
O213 C212 1.228 . S
O214 Zn201 1.969 1_556 S
O214 C212 1.267 . S
O215 Zn201 1.956 1_556 S
O215 C219 1.259 1_556 S
O216 Zn200 1.969 . S
O216 C219 1.266 . S
O217 Zn201 2.024 . S
O217 C204 1.058 . S
C218 O207 1.260 . S
C218 O208 1.258 . S
C219 O215 1.259 1_554 S
C219 O216 1.266 . S
Zn220 O226 1.969 . S
Zn220 O227 1.965 . S
Zn220 O231 2.024 . S
Zn220 O236 1.969 . S
Zn221 O228 1.969 . S
Zn221 O234 1.969 . S
Zn221 O235 1.965 . S
Zn221 O237 2.024 . S
C222 O223 1.229 . S
C222 O231 1.058 . S
O223 C222 1.229 . S
C224 O225 1.229 . S
C224 O237 1.058 . S
O225 C224 1.229 . S
O226 Zn220 1.969 . S
O226 C229 1.267 . S
O227 Zn220 1.965 . S
O227 C238 1.260 . S
O228 Zn221 1.969 . S
O228 C238 1.258 . S
C229 O226 1.267 . S
C229 O230 1.228 . S
O230 C229 1.228 . S
O231 Zn220 2.024 . S
O231 C222 1.058 . S
C232 O233 1.228 . S
C232 O234 1.267 . S
O233 C232 1.228 . S
O234 Zn221 1.969 . S
O234 C232 1.267 . S
O235 Zn221 1.965 . S
O235 C239 1.260 . S
O236 Zn220 1.969 . S
O236 C239 1.258 . S
O237 Zn221 2.024 . S
O237 C224 1.058 . S
C238 O227 1.260 . S
C238 O228 1.258 . S
C239 O235 1.260 . S
C239 O236 1.258 . S
Zn240 O246 1.969 . S
Zn240 O247 1.965 . S
Zn240 O251 2.024 . S
Zn240 O256 1.969 . S
Zn241 O248 1.969 . S
Zn241 O254 1.969 . S
Zn241 O255 1.965 . S
Zn241 O257 2.024 . S
C242 O243 1.229 . S
C242 O251 1.058 . S
O243 C242 1.229 . S
C244 O245 1.229 . S
C244 O257 1.058 . S
O245 C244 1.229 . S
O246 Zn240 1.969 . S
O246 C249 1.267 . S
O247 Zn240 1.965 . S
O247 C258 1.260 . S
O248 Zn241 1.969 . S
O248 C258 1.258 . S
C249 O246 1.267 . S
C249 O250 1.228 . S
O250 C249 1.228 . S
O251 Zn240 2.024 . S
O251 C242 1.058 . S
C252 O253 1.228 . S
C252 O254 1.267 . S
O253 C252 1.228 . S
O254 Zn241 1.969 . S
O254 C252 1.267 . S
O255 Zn241 1.965 . S
O255 C259 1.260 . S
O256 Zn240 1.969 . S
O256 C259 1.258 . S
O257 Zn241 2.024 . S
O257 C244 1.058 . S
C258 O247 1.260 . S
C258 O248 1.258 . S
C259 O255 1.260 . S
C259 O256 1.258 . S
Zn260 O266 1.969 . S
Zn260 O267 1.965 . S
Zn260 O271 2.024 . S
Zn260 O276 1.969 . S
Zn261 O268 1.969 . S
Zn261 O274 1.969 . S
Zn261 O275 1.965 . S
Zn261 O277 2.024 . S
C262 O263 1.229 . S
C262 O271 1.058 . S
O263 C262 1.229 . S
C264 O265 1.229 . S
C264 O277 1.058 . S
O265 C264 1.229 . S
O266 Zn260 1.969 . S
O266 C269 1.267 . S
O267 Zn260 1.965 . S
O267 C278 1.260 . S
O268 Zn261 1.969 . S
O268 C278 1.258 . S
C269 O266 1.267 . S
C269 O270 1.228 . S
O270 C269 1.228 . S
O271 Zn260 2.024 . S
O271 C262 1.058 . S
C272 O273 1.228 . S
C272 O274 1.267 . S
O273 C272 1.228 . S
O274 Zn261 1.969 . S
O274 C272 1.267 . S
O275 Zn261 1.965 . S
O275 C279 1.260 . S
O276 Zn260 1.969 . S
O276 C279 1.258 . S
O277 Zn261 2.024 . S
O277 C264 1.058 . S
C278 O267 1.260 . S
C278 O268 1.258 . S
C279 O275 1.260 . S
C279 O276 1.258 . S
Zn280 O286 1.969 1_556 S
Zn280 O287 1.956 1_556 S
Zn280 O291 2.024 . S
Zn280 O296 1.969 . S
Zn281 O288 1.969 . S
Zn281 O294 1.969 . S
Zn281 O295 1.965 . S
Zn281 O297 2.024 . S
C282 O283 1.229 . S
C282 O291 1.058 . S
O283 C282 1.229 . S
C284 O285 1.229 . S
C284 O297 1.058 . S
O285 C284 1.229 . S
O286 Zn280 1.969 1_554 S
O286 C289 1.267 . S
O287 Zn280 1.956 1_554 S
O287 C298 1.259 1_554 S
O288 Zn281 1.969 . S
O288 C298 1.266 . S
C289 O286 1.267 . S
C289 O290 1.228 . S
O290 C289 1.228 . S
O291 Zn280 2.024 . S
O291 C282 1.058 . S
C292 O293 1.228 . S
C292 O294 1.267 . S
O293 C292 1.228 . S
O294 Zn281 1.969 . S
O294 C292 1.267 . S
O295 Zn281 1.965 . S
O295 C299 1.260 . S
O296 Zn280 1.969 . S
O296 C299 1.258 . S
O297 Zn281 2.024 . S
O297 C284 1.058 . S
C298 O287 1.259 1_556 S
C298 O288 1.266 . S
C299 O295 1.260 . S
C299 O296 1.258 . S
Zn300 O306 1.969 . S
Zn300 O307 1.965 . S
Zn300 O311 2.024 . S
Zn300 O316 1.969 . S
Zn301 O308 1.969 . S
Zn301 O314 1.969 . S
Zn301 O315 1.965 . S
Zn301 O317 2.024 . S
C302 O303 1.229 . S
C302 O311 1.058 . S
O303 C302 1.229 . S
C304 O305 1.229 . S
C304 O317 1.058 . S
O305 C304 1.229 . S
O306 Zn300 1.969 . S
O306 C309 1.267 . S
O307 Zn300 1.965 . S
O307 C318 1.260 . S
O308 Zn301 1.969 . S
O308 C318 1.258 . S
C309 O306 1.267 . S
C309 O310 1.228 . S
O310 C309 1.228 . S
O311 Zn300 2.024 . S
O311 C302 1.058 . S
C312 O313 1.228 . S
C312 O314 1.267 . S
O313 C312 1.228 . S
O314 Zn301 1.969 . S
O314 C312 1.267 . S
O315 Zn301 1.965 . S
O315 C319 1.260 . S
O316 Zn300 1.969 . S
O316 C319 1.258 . S
O317 Zn301 2.024 . S
O317 C304 1.058 . S
C318 O307 1.260 . S
C318 O308 1.258 . S
C319 O315 1.260 . S
C319 O316 1.258 . S
C320 C321 1.391 . S
C320 C322 1.394 . S
C320 H336 0.931 . S
C321 C320 1.391 . S
C321 C325 1.376 . S
C322 C320 1.394 . S
C322 C323 1.369 . S
C322 C326 1.531 . S
C323 C322 1.369 . S
C323 C324 1.410 . S
C323 C331 1.503 . S
C324 C323 1.410 . S
C324 C325 1.392 . S
C324 C327 1.493 1_554 S
C325 C321 1.376 . S
C325 C324 1.392 . S
C325 H337 0.929 . S
C326 C322 1.531 . S
C326 H338 0.960 . S
C326 H339 0.962 . S
C326 H340 0.960 . S
C327 C324 1.493 1_556 S
C327 H341 0.974 . S
C327 H342 0.958 1_556 S
C327 H343 0.970 . S
C328 C329 1.370 . S
C328 C330 1.363 . S
C328 H344 0.931 . S
C329 C328 1.370 . S
C329 C333 1.408 . S
C330 C328 1.363 . S
C330 C331 1.370 . S
C330 C334 1.524 . S
C331 C323 1.503 . S
C331 C330 1.370 . S
C331 C332 1.403 . S
C332 C331 1.403 . S
C332 C333 1.404 . S
C332 C335 1.539 . S
C333 C329 1.408 . S
C333 C332 1.404 . S
C333 H345 0.930 . S
C334 C330 1.524 . S
C334 H346 0.956 . S
C334 H347 0.961 . S
C334 H348 0.961 . S
C335 C332 1.539 . S
C335 H349 0.958 . S
C335 H350 0.961 . S
C335 H351 0.960 . S
H336 C320 0.931 . S
H337 C325 0.929 . S
H338 C326 0.960 . S
H339 C326 0.962 . S
H340 C326 0.960 . S
H341 C327 0.974 . S
H342 C327 0.958 1_554 S
H343 C327 0.970 . S
H344 C328 0.931 . S
H345 C333 0.930 . S
H346 C334 0.956 . S
H347 C334 0.961 . S
H348 C334 0.961 . S
H349 C335 0.958 . S
H350 C335 0.961 . S
H351 C335 0.960 . S
C352 C353 1.391 . S
C352 C354 1.394 . S
C352 H368 0.931 . S
C353 C352 1.391 . S
C353 C357 1.376 . S
C354 C352 1.394 . S
C354 C355 1.369 . S
C354 C358 1.531 . S
C355 C354 1.369 . S
C355 C356 1.410 . S
C355 C363 1.503 . S
C356 C355 1.410 . S
C356 C357 1.392 . S
C356 C359 1.511 . S
C357 C353 1.376 . S
C357 C356 1.392 . S
C357 H369 0.929 . S
C358 C354 1.531 . S
C358 H370 0.960 . S
C358 H371 0.962 . S
C358 H372 0.960 . S
C359 C356 1.511 . S
C359 H373 0.961 . S
C359 H374 0.961 . S
C359 H375 0.961 . S
C360 C361 1.370 . S
C360 C362 1.363 . S
C360 H376 0.931 . S
C361 C360 1.370 . S
C361 C365 1.408 . S
C362 C360 1.363 . S
C362 C363 1.370 . S
C362 C366 1.524 . S
C363 C355 1.503 . S
C363 C362 1.370 . S
C363 C364 1.403 . S
C364 C363 1.403 . S
C364 C365 1.404 . S
C364 C367 1.539 . S
C365 C361 1.408 . S
C365 C364 1.404 . S
C365 H377 0.930 . S
C366 C362 1.524 . S
C366 H378 0.956 . S
C366 H379 0.961 . S
C366 H380 0.961 . S
C367 C364 1.539 . S
C367 H381 0.958 . S
C367 H382 0.961 . S
C367 H383 0.960 . S
H368 C352 0.931 . S
H369 C357 0.929 . S
H370 C358 0.960 . S
H371 C358 0.962 . S
H372 C358 0.960 . S
H373 C359 0.961 . S
H374 C359 0.961 . S
H375 C359 0.961 . S
H376 C360 0.931 . S
H377 C365 0.930 . S
H378 C366 0.956 . S
H379 C366 0.961 . S
H380 C366 0.961 . S
H381 C367 0.958 . S
H382 C367 0.961 . S
H383 C367 0.960 . S
C384 C385 1.391 . S
C384 C386 1.394 . S
C384 H400 0.931 . S
C385 C384 1.391 . S
C385 C389 1.376 . S
C386 C384 1.394 . S
C386 C387 1.369 . S
C386 C390 1.531 . S
C387 C386 1.369 . S
C387 C388 1.410 . S
C387 C395 1.503 1_455 S
C388 C387 1.410 . S
C388 C389 1.392 . S
C388 C391 1.511 1_455 S
C389 C385 1.376 . S
C389 C388 1.392 . S
C389 H401 0.929 . S
C390 C386 1.531 . S
C390 H402 0.960 . S
C390 H403 0.962 . S
C390 H404 0.960 . S
C391 C388 1.511 1_655 S
C391 H405 0.961 . S
C391 H406 0.961 . S
C391 H407 0.961 . S
C392 C393 1.370 . S
C392 C394 1.363 . S
C392 H408 0.931 . S
C393 C392 1.370 . S
C393 C397 1.408 . S
C394 C392 1.363 . S
C394 C395 1.370 . S
C394 C398 1.524 1_655 S
C395 C387 1.503 1_655 S
C395 C394 1.370 . S
C395 C396 1.403 . S
C396 C395 1.403 . S
C396 C397 1.404 . S
C396 C399 1.539 . S
C397 C393 1.408 . S
C397 C396 1.404 . S
C397 H409 0.930 . S
C398 C394 1.524 1_455 S
C398 H410 0.956 . S
C398 H411 0.961 . S
C398 H412 0.969 . S
C399 C396 1.539 . S
C399 H413 0.958 . S
C399 H414 0.961 . S
C399 H415 0.960 . S
H400 C384 0.931 . S
H401 C389 0.929 . S
H402 C390 0.960 . S
H403 C390 0.962 . S
H404 C390 0.960 . S
H405 C391 0.961 . S
H406 C391 0.961 . S
H407 C391 0.961 . S
H408 C392 0.931 . S
H409 C397 0.930 . S
H410 C398 0.956 . S
H411 C398 0.961 . S
H412 C398 0.969 . S
H413 C399 0.958 . S
H414 C399 0.961 . S
H415 C399 0.960 . S
C416 C417 1.391 . S
C416 C418 1.394 . S
C416 H432 0.931 . S
C417 C416 1.391 . S
C417 C421 1.376 . S
C418 C416 1.394 . S
C418 C419 1.369 . S
C418 C422 1.531 . S
C419 C418 1.369 . S
C419 C420 1.410 . S
C419 C427 1.503 1_655 S
C420 C419 1.410 . S
C420 C421 1.392 . S
C420 C423 1.511 . S
C421 C417 1.376 . S
C421 C420 1.392 . S
C421 H433 0.929 . S
C422 C418 1.531 . S
C422 H434 0.960 . S
C422 H435 0.962 1_655 S
C422 H436 0.960 . S
C423 C420 1.511 . S
C423 H437 0.961 . S
C423 H438 0.961 . S
C423 H439 0.961 . S
C424 C425 1.370 . S
C424 C426 1.363 . S
C424 H440 0.931 . S
C425 C424 1.370 . S
C425 C429 1.408 . S
C426 C424 1.363 . S
C426 C427 1.370 . S
C426 C430 1.524 . S
C427 C419 1.503 1_455 S
C427 C426 1.370 . S
C427 C428 1.403 . S
C428 C427 1.403 . S
C428 C429 1.404 . S
C428 C431 1.539 1_455 S
C429 C425 1.408 . S
C429 C428 1.404 . S
C429 H441 0.930 . S
C430 C426 1.524 . S
C430 H442 0.956 . S
C430 H443 0.961 . S
C430 H444 0.961 . S
C431 C428 1.539 1_655 S
C431 H445 0.958 . S
C431 H446 0.961 . S
C431 H447 0.960 . S
H432 C416 0.931 . S
H433 C421 0.929 . S
H434 C422 0.960 . S
H435 C422 0.962 1_455 S
H436 C422 0.960 . S
H437 C423 0.961 . S
H438 C423 0.961 . S
H439 C423 0.961 . S
H440 C424 0.931 . S
H441 C429 0.930 . S
H442 C430 0.956 . S
H443 C430 0.961 . S
H444 C430 0.961 . S
H445 C431 0.958 . S
H446 C431 0.961 . S
H447 C431 0.960 . S
C448 C449 1.391 . S
C448 C450 1.394 . S
C448 H464 0.931 . S
C449 C448 1.391 . S
C449 C453 1.376 . S
C450 C448 1.394 . S
C450 C451 1.369 . S
C450 C454 1.531 . S
C451 C450 1.369 . S
C451 C452 1.410 . S
C451 C459 1.503 . S
C452 C451 1.410 . S
C452 C453 1.392 . S
C452 C455 1.511 . S
C453 C449 1.376 . S
C453 C452 1.392 . S
C453 H465 0.929 . S
C454 C450 1.531 . S
C454 H466 0.960 . S
C454 H467 0.962 1_556 S
C454 H468 0.960 1_556 S
C455 C452 1.511 . S
C455 H469 0.961 . S
C455 H470 0.961 . S
C455 H471 0.961 . S
C456 C457 1.370 . S
C456 C458 1.363 . S
C456 H472 0.931 . S
C457 C456 1.370 . S
C457 C461 1.408 . S
C458 C456 1.363 . S
C458 C459 1.370 . S
C458 C462 1.524 . S
C459 C451 1.503 . S
C459 C458 1.370 . S
C459 C460 1.403 . S
C460 C459 1.403 . S
C460 C461 1.404 . S
C460 C463 1.539 . S
C461 C457 1.408 . S
C461 C460 1.404 . S
C461 H473 0.930 . S
C462 C458 1.524 . S
C462 H474 0.956 . S
C462 H475 0.961 . S
C462 H476 0.961 . S
C463 C460 1.539 . S
C463 H477 0.958 . S
C463 H478 0.961 . S
C463 H479 0.960 . S
H464 C448 0.931 . S
H465 C453 0.929 . S
H466 C454 0.960 . S
H467 C454 0.962 1_554 S
H468 C454 0.960 1_554 S
H469 C455 0.961 . S
H470 C455 0.961 . S
H471 C455 0.961 . S
H472 C456 0.931 . S
H473 C461 0.930 . S
H474 C462 0.956 . S
H475 C462 0.961 . S
H476 C462 0.961 . S
H477 C463 0.958 . S
H478 C463 0.961 . S
H479 C463 0.960 . S
C480 C481 1.391 . S
C480 C482 1.394 . S
C480 H496 0.931 . S
C481 C480 1.391 . S
C481 C485 1.376 . S
C482 C480 1.394 . S
C482 C483 1.369 . S
C482 C486 1.531 . S
C483 C482 1.369 . S
C483 C484 1.410 . S
C483 C491 1.503 . S
C484 C483 1.410 . S
C484 C485 1.392 . S
C484 C487 1.511 . S
C485 C481 1.376 . S
C485 C484 1.392 . S
C485 H497 0.929 . S
C486 C482 1.531 . S
C486 H498 0.960 . S
C486 H499 0.962 . S
C486 H500 0.960 . S
C487 C484 1.511 . S
C487 H501 0.961 . S
C487 H502 0.961 . S
C487 H503 0.961 . S
C488 C489 1.370 . S
C488 C490 1.363 . S
C488 H504 0.931 . S
C489 C488 1.370 . S
C489 C493 1.408 . S
C490 C488 1.363 . S
C490 C491 1.370 . S
C490 C494 1.524 . S
C491 C483 1.503 . S
C491 C490 1.370 . S
C491 C492 1.403 . S
C492 C491 1.403 . S
C492 C493 1.404 . S
C492 C495 1.539 . S
C493 C489 1.408 . S
C493 C492 1.404 . S
C493 H505 0.930 . S
C494 C490 1.524 . S
C494 H506 0.956 . S
C494 H507 0.961 . S
C494 H508 0.961 . S
C495 C492 1.539 . S
C495 H509 0.958 . S
C495 H510 0.961 . S
C495 H511 0.960 . S
H496 C480 0.931 . S
H497 C485 0.929 . S
H498 C486 0.960 . S
H499 C486 0.962 . S
H500 C486 0.960 . S
H501 C487 0.961 . S
H502 C487 0.961 . S
H503 C487 0.961 . S
H504 C488 0.931 . S
H505 C493 0.930 . S
H506 C494 0.956 . S
H507 C494 0.961 . S
H508 C494 0.961 . S
H509 C495 0.958 . S
H510 C495 0.961 . S
H511 C495 0.960 . S
C512 C513 1.391 . S
C512 C514 1.394 . S
C512 H528 0.931 . S
C513 C512 1.391 . S
C513 C517 1.376 . S
C514 C512 1.394 . S
C514 C515 1.369 . S
C514 C518 1.531 . S
C515 C514 1.369 . S
C515 C516 1.410 . S
C515 C523 1.503 1_655 S
C516 C515 1.410 . S
C516 C517 1.392 . S
C516 C519 1.511 . S
C517 C513 1.376 . S
C517 C516 1.392 . S
C517 H529 0.929 . S
C518 C514 1.531 . S
C518 H530 0.965 . S
C518 H531 0.962 1_655 S
C518 H532 0.960 . S
C519 C516 1.511 . S
C519 H533 0.961 . S
C519 H534 0.961 . S
C519 H535 0.961 . S
C520 C521 1.370 . S
C520 C522 1.363 . S
C520 H536 0.931 . S
C521 C520 1.370 . S
C521 C525 1.408 . S
C522 C520 1.363 . S
C522 C523 1.370 . S
C522 C526 1.524 . S
C523 C515 1.503 1_455 S
C523 C522 1.370 . S
C523 C524 1.403 . S
C524 C523 1.403 . S
C524 C525 1.404 . S
C524 C527 1.539 1_455 S
C525 C521 1.408 . S
C525 C524 1.404 . S
C525 H537 0.930 . S
C526 C522 1.524 . S
C526 H538 0.956 . S
C526 H539 0.961 . S
C526 H540 0.961 . S
C527 C524 1.539 1_655 S
C527 H541 0.958 . S
C527 H542 0.961 . S
C527 H543 0.960 . S
H528 C512 0.931 . S
H529 C517 0.929 . S
H530 C518 0.965 . S
H531 C518 0.962 1_455 S
H532 C518 0.960 . S
H533 C519 0.961 . S
H534 C519 0.961 . S
H535 C519 0.961 . S
H536 C520 0.931 . S
H537 C525 0.930 . S
H538 C526 0.956 . S
H539 C526 0.961 . S
H540 C526 0.961 . S
H541 C527 0.958 . S
H542 C527 0.961 . S
H543 C527 0.960 . S
C544 C545 1.391 . S
C544 C546 1.394 . S
C544 H560 0.931 . S
C545 C544 1.391 . S
C545 C549 1.376 . S
C546 C544 1.394 . S
C546 C547 1.369 . S
C546 C550 1.531 . S
C547 C546 1.369 . S
C547 C548 1.410 . S
C547 C555 1.503 1_455 S
C548 C547 1.410 . S
C548 C549 1.392 . S
C548 C551 1.511 1_455 S
C549 C545 1.376 . S
C549 C548 1.392 . S
C549 H561 0.929 . S
C550 C546 1.531 . S
C550 H562 0.960 . S
C550 H563 0.962 . S
C550 H564 0.960 . S
C551 C548 1.511 1_655 S
C551 H565 0.961 . S
C551 H566 0.961 . S
C551 H567 0.961 . S
C552 C553 1.370 . S
C552 C554 1.363 . S
C552 H568 0.931 . S
C553 C552 1.370 . S
C553 C557 1.408 . S
C554 C552 1.363 . S
C554 C555 1.370 . S
C554 C558 1.524 1_655 S
C555 C547 1.503 1_655 S
C555 C554 1.370 . S
C555 C556 1.403 . S
C556 C555 1.403 . S
C556 C557 1.404 . S
C556 C559 1.539 . S
C557 C553 1.408 . S
C557 C556 1.404 . S
C557 H569 0.930 . S
C558 C554 1.524 1_455 S
C558 H570 0.956 . S
C558 H571 0.961 . S
C558 H572 0.961 . S
C559 C556 1.539 . S
C559 H573 0.958 . S
C559 H574 0.961 . S
C559 H575 0.960 . S
H560 C544 0.931 . S
H561 C549 0.929 . S
H562 C550 0.960 . S
H563 C550 0.962 . S
H564 C550 0.960 . S
H565 C551 0.961 . S
H566 C551 0.961 . S
H567 C551 0.961 . S
H568 C552 0.931 . S
H569 C557 0.930 . S
H570 C558 0.956 . S
H571 C558 0.961 . S
H572 C558 0.961 . S
H573 C559 0.958 . S
H574 C559 0.961 . S
H575 C559 0.960 . S
C576 C577 1.391 . S
C576 C578 1.394 . S
C576 H592 0.931 . S
C577 C576 1.391 . S
C577 C581 1.376 . S
C578 C576 1.394 . S
C578 C579 1.369 . S
C578 C582 1.531 . S
C579 C578 1.369 . S
C579 C580 1.410 . S
C579 C587 1.503 . S
C580 C579 1.410 . S
C580 C581 1.392 . S
C580 C583 1.511 . S
C581 C577 1.376 . S
C581 C580 1.392 . S
C581 H593 0.929 . S
C582 C578 1.531 . S
C582 H594 0.960 . S
C582 H595 0.962 . S
C582 H596 0.960 . S
C583 C580 1.511 . S
C583 H597 0.961 . S
C583 H598 0.961 . S
C583 H599 0.961 . S
C584 C585 1.370 . S
C584 C586 1.363 . S
C584 H600 0.931 1_556 S
C585 C584 1.370 . S
C585 C589 1.408 . S
C586 C584 1.363 . S
C586 C587 1.370 . S
C586 C590 1.524 . S
C587 C579 1.503 . S
C587 C586 1.370 . S
C587 C588 1.403 . S
C588 C587 1.403 . S
C588 C589 1.404 . S
C588 C591 1.539 . S
C589 C585 1.408 . S
C589 C588 1.404 . S
C589 H601 0.930 . S
C590 C586 1.524 . S
C590 H602 0.956 . S
C590 H603 0.961 . S
C590 H604 0.961 1_556 S
C591 C588 1.539 . S
C591 H605 0.958 . S
C591 H606 0.961 . S
C591 H607 0.960 . S
H592 C576 0.931 . S
H593 C581 0.929 . S
H594 C582 0.960 . S
H595 C582 0.962 . S
H596 C582 0.960 . S
H597 C583 0.961 . S
H598 C583 0.961 . S
H599 C583 0.961 . S
H600 C584 0.931 1_554 S
H601 C589 0.930 . S
H602 C590 0.956 . S
H603 C590 0.961 . S
H604 C590 0.961 1_554 S
H605 C591 0.958 . S
H606 C591 0.961 . S
H607 C591 0.960 . S
C608 C609 1.391 . S
C608 C610 1.394 . S
C608 H624 0.931 . S
C609 C608 1.391 . S
C609 C613 1.376 . S
C610 C608 1.394 . S
C610 C611 1.369 . S
C610 C614 1.531 . S
C611 C610 1.369 . S
C611 C612 1.410 . S
C611 C619 1.503 . S
C612 C611 1.410 . S
C612 C613 1.392 . S
C612 C615 1.511 . S
C613 C609 1.376 . S
C613 C612 1.392 . S
C613 H625 0.929 . S
C614 C610 1.531 . S
C614 H626 0.960 . S
C614 H627 0.962 . S
C614 H628 0.960 . S
C615 C612 1.511 . S
C615 H629 0.961 . S
C615 H630 0.961 . S
C615 H631 0.961 . S
C616 C617 1.370 . S
C616 C618 1.363 . S
C616 H632 0.931 . S
C617 C616 1.370 . S
C617 C621 1.408 . S
C618 C616 1.363 . S
C618 C619 1.370 . S
C618 C622 1.524 . S
C619 C611 1.503 . S
C619 C618 1.370 . S
C619 C620 1.403 . S
C620 C619 1.403 . S
C620 C621 1.404 . S
C620 C623 1.539 . S
C621 C617 1.408 . S
C621 C620 1.404 . S
C621 H633 0.930 . S
C622 C618 1.524 . S
C622 H634 0.956 . S
C622 H635 0.961 . S
C622 H636 0.961 . S
C623 C620 1.539 . S
C623 H637 0.958 . S
C623 H638 0.961 . S
C623 H639 0.960 . S
H624 C608 0.931 . S
H625 C613 0.929 . S
H626 C614 0.960 . S
H627 C614 0.962 . S
H628 C614 0.960 . S
H629 C615 0.961 . S
H630 C615 0.961 . S
H631 C615 0.961 . S
H632 C616 0.931 . S
H633 C621 0.930 . S
H634 C622 0.956 . S
H635 C622 0.961 . S
H636 C622 0.961 . S
H637 C623 0.958 . S
H638 C623 0.961 . S
H639 C623 0.960 . S
C640 C641 1.391 . S
C640 C642 1.394 . S
C640 H656 0.931 . S
C641 C640 1.391 . S
C641 C645 1.376 . S
C642 C640 1.394 . S
C642 C643 1.369 . S
C642 C646 1.531 . S
C643 C642 1.369 . S
C643 C644 1.410 . S
C643 C651 1.503 . S
C644 C643 1.410 . S
C644 C645 1.392 . S
C644 C647 1.511 . S
C645 C641 1.376 . S
C645 C644 1.392 . S
C645 H657 0.929 . S
C646 C642 1.531 . S
C646 H658 0.960 . S
C646 H659 0.962 . S
C646 H660 0.960 . S
C647 C644 1.511 . S
C647 H661 0.961 . S
C647 H662 0.961 . S
C647 H663 0.961 . S
C648 C649 1.370 . S
C648 C650 1.363 . S
C648 H664 0.931 . S
C649 C648 1.370 . S
C649 C653 1.408 . S
C650 C648 1.363 . S
C650 C651 1.370 . S
C650 C654 1.524 . S
C651 C643 1.503 . S
C651 C650 1.370 . S
C651 C652 1.403 . S
C652 C651 1.403 . S
C652 C653 1.404 . S
C652 C655 1.539 . S
C653 C649 1.408 . S
C653 C652 1.404 . S
C653 H665 0.930 . S
C654 C650 1.524 . S
C654 H666 0.956 . S
C654 H667 0.961 . S
C654 H668 0.961 . S
C655 C652 1.539 . S
C655 H669 0.958 . S
C655 H670 0.961 . S
C655 H671 0.960 . S
H656 C640 0.931 . S
H657 C645 0.929 . S
H658 C646 0.960 . S
H659 C646 0.962 . S
H660 C646 0.960 . S
H661 C647 0.961 . S
H662 C647 0.961 . S
H663 C647 0.961 . S
H664 C648 0.931 . S
H665 C653 0.930 . S
H666 C654 0.956 . S
H667 C654 0.961 . S
H668 C654 0.961 . S
H669 C655 0.958 . S
H670 C655 0.961 . S
H671 C655 0.960 . S
C672 C673 1.391 . S
C672 C674 1.394 . S
C672 H688 0.931 . S
C673 C672 1.391 . S
C673 C677 1.376 . S
C674 C672 1.394 . S
C674 C675 1.369 . S
C674 C678 1.531 . S
C675 C674 1.369 . S
C675 C676 1.410 . S
C675 C683 1.503 . S
C676 C675 1.410 . S
C676 C677 1.392 . S
C676 C679 1.511 . S
C677 C673 1.376 . S
C677 C676 1.392 . S
C677 H689 0.929 . S
C678 C674 1.531 . S
C678 H690 0.960 . S
C678 H691 0.962 . S
C678 H692 0.960 . S
C679 C676 1.511 . S
C679 H693 0.961 . S
C679 H694 0.961 . S
C679 H695 0.961 . S
C680 C681 1.370 . S
C680 C682 1.363 . S
C680 H696 0.931 . S
C681 C680 1.370 . S
C681 C685 1.408 . S
C682 C680 1.363 . S
C682 C683 1.370 . S
C682 C686 1.524 . S
C683 C675 1.503 . S
C683 C682 1.370 . S
C683 C684 1.403 . S
C684 C683 1.403 . S
C684 C685 1.404 . S
C684 C687 1.539 . S
C685 C681 1.408 . S
C685 C684 1.404 . S
C685 H697 0.930 . S
C686 C682 1.524 . S
C686 H698 0.956 . S
C686 H699 0.961 . S
C686 H700 0.961 . S
C687 C684 1.539 . S
C687 H701 0.958 . S
C687 H702 0.961 . S
C687 H703 0.960 . S
H688 C672 0.931 . S
H689 C677 0.929 . S
H690 C678 0.960 . S
H691 C678 0.962 . S
H692 C678 0.960 . S
H693 C679 0.961 . S
H694 C679 0.961 . S
H695 C679 0.961 . S
H696 C680 0.931 . S
H697 C685 0.930 . S
H698 C686 0.956 . S
H699 C686 0.961 . S
H700 C686 0.961 . S
H701 C687 0.958 . S
H702 C687 0.961 . S
H703 C687 0.960 . S
C704 C705 1.391 . S
C704 C706 1.394 . S
C704 H720 0.931 . S
C705 C704 1.391 . S
C705 C709 1.376 1_554 S
C706 C704 1.394 . S
C706 C707 1.369 . S
C706 C710 1.531 . S
C707 C706 1.369 . S
C707 C708 1.410 . S
C707 C715 1.503 . S
C708 C707 1.410 . S
C708 C709 1.392 1_554 S
C708 C711 1.511 1_554 S
C709 C705 1.376 1_556 S
C709 C708 1.392 1_556 S
C709 H721 0.929 . S
C710 C706 1.531 . S
C710 H722 0.960 . S
C710 H723 0.962 . S
C710 H724 0.960 . S
C711 C708 1.511 1_556 S
C711 H725 0.961 . S
C711 H726 0.961 1_556 S
C711 H727 0.961 . S
C712 C713 1.370 . S
C712 C714 1.363 . S
C712 H728 0.931 . S
C713 C712 1.370 . S
C713 C717 1.408 . S
C714 C712 1.363 . S
C714 C715 1.370 . S
C714 C718 1.524 . S
C715 C707 1.503 . S
C715 C714 1.370 . S
C715 C716 1.403 . S
C716 C715 1.403 . S
C716 C717 1.404 . S
C716 C719 1.539 . S
C717 C713 1.408 . S
C717 C716 1.404 . S
C717 H729 0.930 . S
C718 C714 1.524 . S
C718 H730 0.956 . S
C718 H731 0.961 . S
C718 H732 0.961 . S
C719 C716 1.539 . S
C719 H733 0.958 . S
C719 H734 0.961 . S
C719 H735 0.960 . S
H720 C704 0.931 . S
H721 C709 0.929 . S
H722 C710 0.960 . S
H723 C710 0.962 . S
H724 C710 0.960 . S
H725 C711 0.961 . S
H726 C711 0.961 1_554 S
H727 C711 0.961 . S
H728 C712 0.931 . S
H729 C717 0.930 . S
H730 C718 0.956 . S
H731 C718 0.961 . S
H732 C718 0.961 . S
H733 C719 0.958 . S
H734 C719 0.961 . S
H735 C719 0.960 . S
C736 C737 1.391 . S
C736 C738 1.394 . S
C736 H752 0.931 . S
C737 C736 1.391 . S
C737 C741 1.376 . S
C738 C736 1.394 . S
C738 C739 1.369 . S
C738 C742 1.531 . S
C739 C738 1.369 . S
C739 C740 1.410 . S
C739 C747 1.503 . S
C740 C739 1.410 . S
C740 C741 1.392 . S
C740 C743 1.511 . S
C741 C737 1.376 . S
C741 C740 1.392 . S
C741 H753 0.929 . S
C742 C738 1.531 . S
C742 H754 0.960 . S
C742 H755 0.962 . S
C742 H756 0.960 . S
C743 C740 1.511 . S
C743 H757 0.961 . S
C743 H758 0.961 . S
C743 H759 0.961 . S
C744 C745 1.370 . S
C744 C746 1.363 . S
C744 H760 0.931 . S
C745 C744 1.370 . S
C745 C749 1.408 . S
C746 C744 1.363 . S
C746 C747 1.370 . S
C746 C750 1.524 . S
C747 C739 1.503 . S
C747 C746 1.370 . S
C747 C748 1.403 . S
C748 C747 1.403 . S
C748 C749 1.404 . S
C748 C751 1.539 . S
C749 C745 1.408 . S
C749 C748 1.404 . S
C749 H761 0.930 . S
C750 C746 1.524 . S
C750 H762 0.956 . S
C750 H763 0.961 . S
C750 H764 0.961 . S
C751 C748 1.539 . S
C751 H765 0.958 . S
C751 H766 0.961 . S
C751 H767 0.960 . S
H752 C736 0.931 . S
H753 C741 0.929 . S
H754 C742 0.960 . S
H755 C742 0.962 . S
H756 C742 0.960 . S
H757 C743 0.961 . S
H758 C743 0.961 . S
H759 C743 0.961 . S
H760 C744 0.931 . S
H761 C749 0.930 . S
H762 C750 0.956 . S
H763 C750 0.961 . S
H764 C750 0.961 . S
H765 C751 0.958 . S
H766 C751 0.961 . S
H767 C751 0.960 . S
C768 C769 1.391 . S
C768 C770 1.394 . S
C768 H784 0.931 . S
C769 C768 1.391 . S
C769 C773 1.376 . S
C770 C768 1.394 . S
C770 C771 1.369 . S
C770 C774 1.531 . S
C771 C770 1.369 . S
C771 C772 1.410 . S
C771 C779 1.503 . S
C772 C771 1.410 . S
C772 C773 1.392 . S
C772 C775 1.511 . S
C773 C769 1.376 . S
C773 C772 1.392 . S
C773 H785 0.929 . S
C774 C770 1.531 . S
C774 H786 0.960 . S
C774 H787 0.962 . S
C774 H788 0.960 . S
C775 C772 1.511 . S
C775 H789 0.961 . S
C775 H790 0.961 . S
C775 H791 0.961 . S
C776 C777 1.370 . S
C776 C778 1.363 . S
C776 H792 0.931 . S
C777 C776 1.370 . S
C777 C781 1.408 . S
C778 C776 1.363 . S
C778 C779 1.370 . S
C778 C782 1.524 . S
C779 C771 1.503 . S
C779 C778 1.370 . S
C779 C780 1.403 . S
C780 C779 1.403 . S
C780 C781 1.404 . S
C780 C783 1.539 . S
C781 C777 1.408 . S
C781 C780 1.404 . S
C781 H793 0.930 . S
C782 C778 1.524 . S
C782 H794 0.956 . S
C782 H795 0.961 . S
C782 H796 0.961 . S
C783 C780 1.539 . S
C783 H797 0.958 . S
C783 H798 0.961 . S
C783 H799 0.960 . S
H784 C768 0.931 . S
H785 C773 0.929 . S
H786 C774 0.960 . S
H787 C774 0.962 . S
H788 C774 0.960 . S
H789 C775 0.961 . S
H790 C775 0.961 . S
H791 C775 0.961 . S
H792 C776 0.931 . S
H793 C781 0.930 . S
H794 C782 0.956 . S
H795 C782 0.961 . S
H796 C782 0.961 . S
H797 C783 0.958 . S
H798 C783 0.961 . S
H799 C783 0.960 . S
C800 C801 1.391 . S
C800 C802 1.394 . S
C800 H816 0.931 . S
C801 C800 1.391 . S
C801 C805 1.376 . S
C802 C800 1.394 . S
C802 C803 1.369 . S
C802 C806 1.531 . S
C803 C802 1.369 . S
C803 C804 1.410 . S
C803 C811 1.503 . S
C804 C803 1.410 . S
C804 C805 1.392 . S
C804 C807 1.511 . S
C805 C801 1.376 . S
C805 C804 1.392 . S
C805 H817 0.929 . S
C806 C802 1.531 . S
C806 H818 0.960 . S
C806 H819 0.962 . S
C806 H820 0.960 . S
C807 C804 1.511 . S
C807 H821 0.961 . S
C807 H822 0.961 . S
C807 H823 0.961 . S
C808 C809 1.370 . S
C808 C810 1.363 . S
C808 H824 0.931 . S
C809 C808 1.370 . S
C809 C813 1.408 . S
C810 C808 1.363 . S
C810 C811 1.370 . S
C810 C814 1.524 . S
C811 C803 1.503 . S
C811 C810 1.370 . S
C811 C812 1.403 . S
C812 C811 1.403 . S
C812 C813 1.404 . S
C812 C815 1.539 . S
C813 C809 1.408 . S
C813 C812 1.404 . S
C813 H825 0.930 . S
C814 C810 1.524 . S
C814 H826 0.956 . S
C814 H827 0.961 . S
C814 H828 0.961 . S
C815 C812 1.539 . S
C815 H829 0.958 . S
C815 H830 0.961 . S
C815 H831 0.960 . S
H816 C800 0.931 . S
H817 C805 0.929 . S
H818 C806 0.960 . S
H819 C806 0.962 . S
H820 C806 0.960 . S
H821 C807 0.961 . S
H822 C807 0.961 . S
H823 C807 0.961 . S
H824 C808 0.931 . S
H825 C813 0.930 . S
H826 C814 0.956 . S
H827 C814 0.961 . S
H828 C814 0.961 . S
H829 C815 0.958 . S
H830 C815 0.961 . S
H831 C815 0.960 . S
C832 C833 1.391 . S
C832 C834 1.394 . S
C832 H848 0.931 . S
C833 C832 1.391 . S
C833 C837 1.376 . S
C834 C832 1.394 . S
C834 C835 1.369 . S
C834 C838 1.531 . S
C835 C834 1.369 . S
C835 C836 1.410 . S
C835 C843 1.503 . S
C836 C835 1.410 . S
C836 C837 1.392 . S
C836 C839 1.511 . S
C837 C833 1.376 . S
C837 C836 1.392 . S
C837 H849 0.929 . S
C838 C834 1.531 . S
C838 H850 0.960 . S
C838 H851 0.962 . S
C838 H852 0.960 . S
C839 C836 1.511 . S
C839 H853 0.961 . S
C839 H854 0.961 . S
C839 H855 0.961 . S
C840 C841 1.370 . S
C840 C842 1.363 . S
C840 H856 0.931 . S
C841 C840 1.370 . S
C841 C845 1.408 . S
C842 C840 1.363 . S
C842 C843 1.370 . S
C842 C846 1.524 . S
C843 C835 1.503 . S
C843 C842 1.370 . S
C843 C844 1.403 . S
C844 C843 1.403 . S
C844 C845 1.404 . S
C844 C847 1.539 . S
C845 C841 1.408 . S
C845 C844 1.404 . S
C845 H857 0.930 . S
C846 C842 1.524 . S
C846 H858 0.956 . S
C846 H859 0.961 . S
C846 H860 0.961 . S
C847 C844 1.539 . S
C847 H861 0.958 . S
C847 H862 0.961 . S
C847 H863 0.960 . S
H848 C832 0.931 . S
H849 C837 0.929 . S
H850 C838 0.960 . S
H851 C838 0.962 . S
H852 C838 0.960 . S
H853 C839 0.961 . S
H854 C839 0.961 . S
H855 C839 0.961 . S
H856 C840 0.931 . S
H857 C845 0.930 . S
H858 C846 0.956 . S
H859 C846 0.961 . S
H860 C846 0.961 . S
H861 C847 0.958 . S
H862 C847 0.961 . S
H863 C847 0.960 . S
C864 C865 1.391 1_565 S
C864 C866 1.394 . S
C864 H880 0.931 . S
C865 C864 1.391 1_545 S
C865 C869 1.376 1_545 S
C866 C864 1.394 . S
C866 C867 1.369 . S
C866 C870 1.531 . S
C867 C866 1.369 . S
C867 C868 1.410 . S
C867 C875 1.503 . S
C868 C867 1.410 . S
C868 C869 1.392 . S
C868 C871 1.511 . S
C869 C865 1.376 1_565 S
C869 C868 1.392 . S
C869 H881 0.929 1_565 S
C870 C866 1.531 . S
C870 H882 0.960 . S
C870 H883 0.962 . S
C870 H884 0.960 . S
C871 C868 1.511 . S
C871 H885 0.961 . S
C871 H886 0.961 . S
C871 H887 0.961 . S
C872 C873 1.370 . S
C872 C874 1.363 . S
C872 H888 0.931 . S
C873 C872 1.370 . S
C873 C877 1.408 . S
C874 C872 1.363 . S
C874 C875 1.370 . S
C874 C878 1.524 . S
C875 C867 1.503 . S
C875 C874 1.370 . S
C875 C876 1.403 . S
C876 C875 1.403 . S
C876 C877 1.404 . S
C876 C879 1.539 . S
C877 C873 1.408 . S
C877 C876 1.404 . S
C877 H889 0.930 . S
C878 C874 1.524 . S
C878 H890 0.956 . S
C878 H891 0.961 . S
C878 H892 0.961 . S
C879 C876 1.539 . S
C879 H893 0.958 . S
C879 H894 0.961 . S
C879 H895 0.960 . S
H880 C864 0.931 . S
H881 C869 0.929 1_545 S
H882 C870 0.960 . S
H883 C870 0.962 . S
H884 C870 0.960 . S
H885 C871 0.961 . S
H886 C871 0.961 . S
H887 C871 0.961 . S
H888 C872 0.931 . S
H889 C877 0.930 . S
H890 C878 0.956 . S
H891 C878 0.961 . S
H892 C878 0.961 . S
H893 C879 0.958 . S
H894 C879 0.961 . S
H895 C879 0.960 . S
C896 C897 1.391 . S
C896 C898 1.394 . S
C896 H912 0.929 1_556 S
C897 C896 1.391 . S
C897 C901 1.376 . S
C898 C896 1.394 . S
C898 C899 1.369 . S
C898 C902 1.531 . S
C899 C898 1.369 . S
C899 C900 1.410 . S
C899 C907 1.503 . S
C900 C899 1.410 . S
C900 C901 1.392 . S
C900 C903 1.511 . S
C901 C897 1.376 . S
C901 C900 1.392 . S
C901 H913 0.929 . S
C902 C898 1.531 . S
C902 H914 0.960 . S
C902 H915 0.962 . S
C902 H916 0.960 . S
C903 C900 1.511 . S
C903 H917 0.961 . S
C903 H918 0.961 . S
C903 H919 0.961 . S
C904 C905 1.370 . S
C904 C906 1.363 . S
C904 H920 0.931 . S
C905 C904 1.370 . S
C905 C909 1.408 . S
C906 C904 1.363 . S
C906 C907 1.370 . S
C906 C910 1.524 . S
C907 C899 1.503 . S
C907 C906 1.370 . S
C907 C908 1.403 . S
C908 C907 1.403 . S
C908 C909 1.404 . S
C908 C911 1.539 . S
C909 C905 1.408 . S
C909 C908 1.404 . S
C909 H921 0.930 . S
C910 C906 1.524 . S
C910 H922 0.956 . S
C910 H923 0.961 . S
C910 H924 0.961 . S
C911 C908 1.539 . S
C911 H925 0.958 1_556 S
C911 H926 0.963 . S
C911 H927 0.960 1_556 S
H912 C896 0.929 1_554 S
H913 C901 0.929 . S
H914 C902 0.960 . S
H915 C902 0.962 . S
H916 C902 0.960 . S
H917 C903 0.961 . S
H918 C903 0.961 . S
H919 C903 0.961 . S
H920 C904 0.931 . S
H921 C909 0.930 . S
H922 C910 0.956 . S
H923 C910 0.961 . S
H924 C910 0.961 . S
H925 C911 0.958 1_554 S
H926 C911 0.963 . S
H927 C911 0.960 1_554 S
C928 C929 1.391 1_545 S
C928 C930 1.394 . S
C928 H944 0.931 . S
C929 C928 1.391 1_565 S
C929 C933 1.381 . S
C930 C928 1.394 . S
C930 C931 1.369 . S
C930 C934 1.531 . S
C931 C930 1.369 . S
C931 C932 1.410 . S
C931 C939 1.503 . S
C932 C931 1.410 . S
C932 C933 1.368 1_545 S
C932 C935 1.511 . S
C933 C929 1.381 . S
C933 C932 1.368 1_565 S
C933 H945 0.949 . S
C934 C930 1.531 . S
C934 H946 0.960 . S
C934 H947 0.962 . S
C934 H948 0.960 . S
C935 C932 1.511 . S
C935 H949 0.961 . S
C935 H950 0.961 . S
C935 H951 0.961 . S
C936 C937 1.370 . S
C936 C938 1.363 . S
C936 H952 0.931 . S
C937 C936 1.370 . S
C937 C941 1.408 . S
C938 C936 1.363 . S
C938 C939 1.370 . S
C938 C942 1.524 . S
C939 C931 1.503 . S
C939 C938 1.370 . S
C939 C940 1.403 . S
C940 C939 1.403 . S
C940 C941 1.404 . S
C940 C943 1.539 . S
C941 C937 1.408 . S
C941 C940 1.404 . S
C941 H953 0.930 . S
C942 C938 1.524 . S
C942 H954 0.956 . S
C942 H955 0.961 . S
C942 H956 0.961 . S
C943 C940 1.539 . S
C943 H957 0.958 . S
C943 H958 0.961 . S
C943 H959 0.960 . S
H944 C928 0.931 . S
H945 C933 0.949 . S
H946 C934 0.960 . S
H947 C934 0.962 . S
H948 C934 0.960 . S
H949 C935 0.961 . S
H950 C935 0.961 . S
H951 C935 0.961 . S
H952 C936 0.931 . S
H953 C941 0.930 . S
H954 C942 0.956 . S
H955 C942 0.961 . S
H956 C942 0.961 . S
H957 C943 0.958 . S
H958 C943 0.961 . S
H959 C943 0.960 . S
C960 C961 1.391 . S
C960 C962 1.394 . S
C960 H976 0.931 . S
C961 C960 1.391 . S
C961 C965 1.376 . S
C962 C960 1.394 . S
C962 C963 1.369 . S
C962 C966 1.531 . S
C963 C962 1.369 . S
C963 C964 1.410 . S
C963 C971 1.503 . S
C964 C963 1.410 . S
C964 C965 1.392 . S
C964 C967 1.511 . S
C965 C961 1.376 . S
C965 C964 1.392 . S
C965 H977 0.929 . S
C966 C962 1.531 . S
C966 H978 0.960 . S
C966 H979 0.962 . S
C966 H980 0.960 . S
C967 C964 1.511 . S
C967 H981 0.961 . S
C967 H982 0.961 . S
C967 H983 0.961 . S
C968 C969 1.370 . S
C968 C970 1.363 . S
C968 H984 0.931 . S
C969 C968 1.370 . S
C969 C973 1.408 . S
C970 C968 1.363 . S
C970 C971 1.370 . S
C970 C974 1.524 . S
C971 C963 1.503 . S
C971 C970 1.370 . S
C971 C972 1.403 . S
C972 C971 1.403 . S
C972 C973 1.404 . S
C972 C975 1.539 . S
C973 C969 1.408 . S
C973 C972 1.404 . S
C973 H985 0.930 . S
C974 C970 1.524 . S
C974 H986 0.956 . S
C974 H987 0.961 . S
C974 H988 0.961 . S
C975 C972 1.539 . S
C975 H989 0.958 . S
C975 H990 0.961 . S
C975 H991 0.960 . S
H976 C960 0.931 . S
H977 C965 0.929 . S
H978 C966 0.960 . S
H979 C966 0.962 . S
H980 C966 0.960 . S
H981 C967 0.961 . S
H982 C967 0.961 . S
H983 C967 0.961 . S
H984 C968 0.931 . S
H985 C973 0.930 . S
H986 C974 0.956 . S
H987 C974 0.961 . S
H988 C974 0.961 . S
H989 C975 0.958 . S
H990 C975 0.961 . S
H991 C975 0.960 . S
C992 C993 1.391 . S
C992 C994 1.394 . S
C992 H1008 0.931 . S
C993 C992 1.391 . S
C993 C997 1.376 . S
C994 C992 1.394 . S
C994 C995 1.369 . S
C994 C998 1.531 . S
C995 C994 1.369 . S
C995 C996 1.410 . S
C995 C1003 1.503 . S
C996 C995 1.410 . S
C996 C997 1.392 . S
C996 C999 1.511 . S
C997 C993 1.376 . S
C997 C996 1.392 . S
C997 H1009 0.929 . S
C998 C994 1.531 . S
C998 H1010 0.960 . S
C998 H1011 0.962 . S
C998 H1012 0.960 . S
C999 C996 1.511 . S
C999 H1013 0.961 . S
C999 H1014 0.961 . S
C999 H1015 0.961 . S
C1000 C1001 1.370 1_545 S
C1000 C1002 1.363 . S
C1000 H1016 0.931 . S
C1001 C1000 1.370 1_565 S
C1001 C1005 1.408 . S
C1002 C1000 1.363 . S
C1002 C1003 1.370 . S
C1002 C1006 1.524 . S
C1003 C995 1.503 . S
C1003 C1002 1.370 . S
C1003 C1004 1.403 . S
C1004 C1003 1.403 . S
C1004 C1005 1.404 1_545 S
C1004 C1007 1.539 . S
C1005 C1001 1.408 . S
C1005 C1004 1.404 1_565 S
C1005 H1017 0.930 . S
C1006 C1002 1.524 . S
C1006 H1018 0.956 . S
C1006 H1019 0.961 . S
C1006 H1020 0.961 . S
C1007 C1004 1.539 . S
C1007 H1021 0.958 . S
C1007 H1022 0.961 1_545 S
C1007 H1023 0.960 . S
H1008 C992 0.931 . S
H1009 C997 0.929 . S
H1010 C998 0.960 . S
H1011 C998 0.962 . S
H1012 C998 0.960 . S
H1013 C999 0.961 . S
H1014 C999 0.961 . S
H1015 C999 0.961 . S
H1016 C1000 0.931 . S
H1017 C1005 0.930 . S
H1018 C1006 0.956 . S
H1019 C1006 0.961 . S
H1020 C1006 0.961 . S
H1021 C1007 0.958 . S
H1022 C1007 0.961 1_565 S
H1023 C1007 0.960 . S
C1024 C1025 1.391 . S
C1024 C1026 1.394 . S
C1024 H1040 0.931 . S
C1025 C1024 1.391 . S
C1025 C1029 1.376 . S
C1026 C1024 1.394 . S
C1026 C1027 1.369 . S
C1026 C1030 1.531 . S
C1027 C1026 1.369 . S
C1027 C1028 1.410 . S
C1027 C1035 1.503 . S
C1028 C1027 1.410 . S
C1028 C1029 1.392 . S
C1028 C1031 1.511 . S
C1029 C1025 1.376 . S
C1029 C1028 1.392 . S
C1029 H1041 0.929 . S
C1030 C1026 1.531 . S
C1030 H1042 0.960 . S
C1030 H1043 0.962 . S
C1030 H1044 0.960 . S
C1031 C1028 1.511 . S
C1031 H1045 0.961 . S
C1031 H1046 0.961 . S
C1031 H1047 0.961 . S
C1032 C1033 1.370 . S
C1032 C1034 1.363 . S
C1032 H1048 0.931 1_554 S
C1033 C1032 1.370 . S
C1033 C1037 1.408 . S
C1034 C1032 1.363 . S
C1034 C1035 1.370 . S
C1034 C1038 1.524 . S
C1035 C1027 1.503 . S
C1035 C1034 1.370 . S
C1035 C1036 1.403 . S
C1036 C1035 1.403 . S
C1036 C1037 1.404 . S
C1036 C1039 1.539 . S
C1037 C1033 1.408 . S
C1037 C1036 1.404 . S
C1037 H1049 0.930 . S
C1038 C1034 1.524 . S
C1038 H1050 0.956 . S
C1038 H1051 0.961 . S
C1038 H1052 0.961 . S
C1039 C1036 1.539 . S
C1039 H1053 0.958 . S
C1039 H1054 0.961 . S
C1039 H1055 0.960 . S
H1040 C1024 0.931 . S
H1041 C1029 0.929 . S
H1042 C1030 0.960 . S
H1043 C1030 0.962 . S
H1044 C1030 0.960 . S
H1045 C1031 0.961 . S
H1046 C1031 0.961 . S
H1047 C1031 0.961 . S
H1048 C1032 0.931 1_556 S
H1049 C1037 0.930 . S
H1050 C1038 0.956 . S
H1051 C1038 0.961 . S
H1052 C1038 0.961 . S
H1053 C1039 0.958 . S
H1054 C1039 0.961 . S
H1055 C1039 0.960 . S
C1056 C1057 1.391 . S
C1056 C1058 1.394 1_545 S
C1056 H1072 0.931 . S
C1057 C1056 1.391 . S
C1057 C1061 1.376 1_545 S
C1058 C1056 1.394 1_565 S
C1058 C1059 1.369 . S
C1058 C1062 1.531 . S
C1059 C1058 1.369 . S
C1059 C1060 1.410 . S
C1059 C1067 1.503 . S
C1060 C1059 1.410 . S
C1060 C1061 1.392 . S
C1060 C1063 1.511 . S
C1061 C1057 1.376 1_565 S
C1061 C1060 1.392 . S
C1061 H1073 0.929 . S
C1062 C1058 1.531 . S
C1062 H1074 0.960 . S
C1062 H1075 0.962 . S
C1062 H1076 0.960 . S
C1063 C1060 1.511 . S
C1063 H1077 0.961 . S
C1063 H1078 0.961 . S
C1063 H1079 0.961 . S
C1064 C1065 1.370 . S
C1064 C1066 1.363 . S
C1064 H1080 0.931 . S
C1065 C1064 1.370 . S
C1065 C1069 1.408 . S
C1066 C1064 1.363 . S
C1066 C1067 1.370 . S
C1066 C1070 1.524 . S
C1067 C1059 1.503 . S
C1067 C1066 1.370 . S
C1067 C1068 1.403 . S
C1068 C1067 1.403 . S
C1068 C1069 1.404 . S
C1068 C1071 1.539 . S
C1069 C1065 1.408 . S
C1069 C1068 1.404 . S
C1069 H1081 0.930 . S
C1070 C1066 1.524 . S
C1070 H1082 0.956 . S
C1070 H1083 0.961 . S
C1070 H1084 0.961 . S
C1071 C1068 1.539 . S
C1071 H1085 0.958 . S
C1071 H1086 0.961 . S
C1071 H1087 0.960 . S
H1072 C1056 0.931 . S
H1073 C1061 0.929 . S
H1074 C1062 0.960 . S
H1075 C1062 0.962 . S
H1076 C1062 0.960 . S
H1077 C1063 0.961 . S
H1078 C1063 0.961 . S
H1079 C1063 0.961 . S
H1080 C1064 0.931 . S
H1081 C1069 0.930 . S
H1082 C1070 0.956 . S
H1083 C1070 0.961 . S
H1084 C1070 0.961 . S
H1085 C1071 0.958 . S
H1086 C1071 0.961 . S
H1087 C1071 0.960 . S
C1088 C1089 1.391 . S
C1088 C1090 1.394 . S
C1088 H1104 0.931 . S
C1089 C1088 1.391 . S
C1089 C1093 1.376 . S
C1090 C1088 1.394 . S
C1090 C1091 1.369 . S
C1090 C1094 1.531 . S
C1091 C1090 1.369 . S
C1091 C1092 1.410 . S
C1091 C1099 1.503 . S
C1092 C1091 1.410 . S
C1092 C1093 1.392 . S
C1092 C1095 1.511 . S
C1093 C1089 1.376 . S
C1093 C1092 1.392 . S
C1093 H1105 0.929 . S
C1094 C1090 1.531 . S
C1094 H1106 0.960 . S
C1094 H1107 0.962 . S
C1094 H1108 0.960 . S
C1095 C1092 1.511 . S
C1095 H1109 0.961 . S
C1095 H1110 0.961 . S
C1095 H1111 0.961 . S
C1096 C1097 1.370 . S
C1096 C1098 1.363 . S
C1096 H1112 0.931 . S
C1097 C1096 1.370 . S
C1097 C1101 1.408 . S
C1098 C1096 1.363 . S
C1098 C1099 1.370 . S
C1098 C1102 1.524 . S
C1099 C1091 1.503 . S
C1099 C1098 1.370 . S
C1099 C1100 1.403 . S
C1100 C1099 1.403 . S
C1100 C1101 1.404 . S
C1100 C1103 1.539 . S
C1101 C1097 1.408 . S
C1101 C1100 1.404 . S
C1101 H1113 0.930 . S
C1102 C1098 1.524 . S
C1102 H1114 0.956 . S
C1102 H1115 0.961 . S
C1102 H1116 0.961 . S
C1103 C1100 1.539 . S
C1103 H1117 0.958 . S
C1103 H1118 0.961 . S
C1103 H1119 0.960 . S
H1104 C1088 0.931 . S
H1105 C1093 0.929 . S
H1106 C1094 0.960 . S
H1107 C1094 0.962 . S
H1108 C1094 0.960 . S
H1109 C1095 0.961 . S
H1110 C1095 0.961 . S
H1111 C1095 0.961 . S
H1112 C1096 0.931 . S
H1113 C1101 0.930 . S
H1114 C1102 0.956 . S
H1115 C1102 0.961 . S
H1116 C1102 0.961 . S
H1117 C1103 0.958 . S
H1118 C1103 0.961 . S
H1119 C1103 0.960 . S
C1120 C1121 1.391 . S
C1120 C1122 1.394 . S
C1120 H1136 0.931 . S
C1121 C1120 1.391 . S
C1121 C1125 1.376 . S
C1122 C1120 1.394 . S
C1122 C1123 1.369 . S
C1122 C1126 1.531 . S
C1123 C1122 1.369 . S
C1123 C1124 1.410 . S
C1123 C1131 1.503 . S
C1124 C1123 1.410 . S
C1124 C1125 1.392 . S
C1124 C1127 1.511 . S
C1125 C1121 1.376 . S
C1125 C1124 1.392 . S
C1125 H1137 0.929 . S
C1126 C1122 1.531 . S
C1126 H1138 0.960 . S
C1126 H1139 0.962 . S
C1126 H1140 0.960 . S
C1127 C1124 1.511 . S
C1127 H1141 0.961 . S
C1127 H1142 0.961 . S
C1127 H1143 0.961 . S
C1128 C1129 1.370 . S
C1128 C1130 1.363 . S
C1128 H1144 0.931 . S
C1129 C1128 1.370 . S
C1129 C1133 1.408 . S
C1130 C1128 1.363 . S
C1130 C1131 1.370 . S
C1130 C1134 1.524 . S
C1131 C1123 1.503 . S
C1131 C1130 1.370 . S
C1131 C1132 1.403 . S
C1132 C1131 1.403 . S
C1132 C1133 1.404 . S
C1132 C1135 1.539 . S
C1133 C1129 1.408 . S
C1133 C1132 1.404 . S
C1133 H1145 0.930 1_554 S
C1134 C1130 1.524 . S
C1134 H1146 0.956 . S
C1134 H1147 0.961 . S
C1134 H1148 0.961 . S
C1135 C1132 1.539 . S
C1135 H1149 0.958 . S
C1135 H1150 0.961 1_554 S
C1135 H1151 0.960 . S
H1136 C1120 0.931 . S
H1137 C1125 0.929 . S
H1138 C1126 0.960 . S
H1139 C1126 0.962 . S
H1140 C1126 0.960 . S
H1141 C1127 0.961 . S
H1142 C1127 0.961 . S
H1143 C1127 0.961 . S
H1144 C1128 0.931 . S
H1145 C1133 0.930 1_556 S
H1146 C1134 0.956 . S
H1147 C1134 0.961 . S
H1148 C1134 0.961 . S
H1149 C1135 0.958 . S
H1150 C1135 0.961 1_556 S
H1151 C1135 0.960 . S
C1152 C1153 1.391 . S
C1152 C1154 1.394 1_655 S
C1152 H1168 0.931 1_655 S
C1153 C1152 1.391 . S
C1153 C1157 1.376 . S
C1154 C1152 1.394 1_455 S
C1154 C1155 1.369 . S
C1154 C1158 1.531 . S
C1155 C1154 1.369 . S
C1155 C1156 1.410 1_455 S
C1155 C1163 1.503 . S
C1156 C1155 1.410 1_655 S
C1156 C1157 1.392 . S
C1156 C1159 1.511 . S
C1157 C1153 1.376 . S
C1157 C1156 1.392 . S
C1157 H1169 0.929 . S
C1158 C1154 1.531 . S
C1158 H1170 0.960 . S
C1158 H1171 0.962 . S
C1158 H1172 0.960 . S
C1159 C1156 1.511 . S
C1159 H1173 0.961 . S
C1159 H1174 0.961 . S
C1159 H1175 0.961 . S
C1160 C1161 1.370 . S
C1160 C1162 1.363 . S
C1160 H1176 0.931 . S
C1161 C1160 1.370 . S
C1161 C1165 1.408 . S
C1162 C1160 1.363 . S
C1162 C1163 1.370 . S
C1162 C1166 1.524 . S
C1163 C1155 1.503 . S
C1163 C1162 1.370 . S
C1163 C1164 1.403 . S
C1164 C1163 1.403 . S
C1164 C1165 1.404 . S
C1164 C1167 1.539 . S
C1165 C1161 1.408 . S
C1165 C1164 1.404 . S
C1165 H1177 0.930 . S
C1166 C1162 1.524 . S
C1166 H1178 0.956 . S
C1166 H1179 0.961 . S
C1166 H1180 0.961 . S
C1167 C1164 1.539 . S
C1167 H1181 0.958 . S
C1167 H1182 0.961 . S
C1167 H1183 0.960 . S
H1168 C1152 0.931 1_455 S
H1169 C1157 0.929 . S
H1170 C1158 0.960 . S
H1171 C1158 0.962 . S
H1172 C1158 0.960 . S
H1173 C1159 0.961 . S
H1174 C1159 0.961 . S
H1175 C1159 0.961 . S
H1176 C1160 0.931 . S
H1177 C1165 0.930 . S
H1178 C1166 0.956 . S
H1179 C1166 0.961 . S
H1180 C1166 0.961 . S
H1181 C1167 0.958 . S
H1182 C1167 0.961 . S
H1183 C1167 0.960 . S
C1184 C1185 1.391 . S
C1184 C1186 1.394 . S
C1184 H1200 0.931 . S
C1185 C1184 1.391 . S
C1185 C1189 1.376 . S
C1186 C1184 1.394 . S
C1186 C1187 1.369 . S
C1186 C1190 1.531 . S
C1187 C1186 1.369 . S
C1187 C1188 1.410 . S
C1187 C1195 1.503 . S
C1188 C1187 1.410 . S
C1188 C1189 1.392 . S
C1188 C1191 1.511 . S
C1189 C1185 1.376 . S
C1189 C1188 1.392 . S
C1189 H1201 0.929 . S
C1190 C1186 1.531 . S
C1190 H1202 0.960 . S
C1190 H1203 0.962 . S
C1190 H1204 0.960 . S
C1191 C1188 1.511 . S
C1191 H1205 0.961 . S
C1191 H1206 0.961 . S
C1191 H1207 0.961 . S
C1192 C1193 1.370 . S
C1192 C1194 1.363 . S
C1192 H1208 0.931 . S
C1193 C1192 1.370 . S
C1193 C1197 1.408 . S
C1194 C1192 1.363 . S
C1194 C1195 1.370 . S
C1194 C1198 1.524 . S
C1195 C1187 1.503 . S
C1195 C1194 1.370 . S
C1195 C1196 1.403 . S
C1196 C1195 1.403 . S
C1196 C1197 1.404 . S
C1196 C1199 1.539 . S
C1197 C1193 1.408 . S
C1197 C1196 1.404 . S
C1197 H1209 0.930 . S
C1198 C1194 1.524 . S
C1198 H1210 0.956 . S
C1198 H1211 0.961 . S
C1198 H1212 0.961 . S
C1199 C1196 1.539 . S
C1199 H1213 0.958 . S
C1199 H1214 0.961 . S
C1199 H1215 0.960 . S
H1200 C1184 0.931 . S
H1201 C1189 0.929 . S
H1202 C1190 0.960 . S
H1203 C1190 0.962 . S
H1204 C1190 0.960 . S
H1205 C1191 0.961 . S
H1206 C1191 0.961 . S
H1207 C1191 0.961 . S
H1208 C1192 0.931 . S
H1209 C1197 0.930 . S
H1210 C1198 0.956 . S
H1211 C1198 0.961 . S
H1212 C1198 0.961 . S
H1213 C1199 0.958 . S
H1214 C1199 0.961 . S
H1215 C1199 0.960 . S
C1216 C1217 1.391 . S
C1216 C1218 1.394 . S
C1216 H1232 0.931 . S
C1217 C1216 1.391 . S
C1217 C1221 1.376 . S
C1218 C1216 1.394 . S
C1218 C1219 1.369 . S
C1218 C1222 1.531 . S
C1219 C1218 1.369 . S
C1219 C1220 1.410 . S
C1219 C1227 1.503 . S
C1220 C1219 1.410 . S
C1220 C1221 1.392 . S
C1220 C1223 1.511 . S
C1221 C1217 1.376 . S
C1221 C1220 1.392 . S
C1221 H1233 0.929 . S
C1222 C1218 1.531 . S
C1222 H1234 0.960 . S
C1222 H1235 0.962 . S
C1222 H1236 0.960 . S
C1223 C1220 1.511 . S
C1223 H1237 0.961 . S
C1223 H1238 0.961 . S
C1223 H1239 0.961 . S
C1224 C1225 1.370 . S
C1224 C1226 1.363 . S
C1224 H1240 0.931 . S
C1225 C1224 1.370 . S
C1225 C1229 1.408 . S
C1226 C1224 1.363 . S
C1226 C1227 1.370 . S
C1226 C1230 1.524 . S
C1227 C1219 1.503 . S
C1227 C1226 1.370 . S
C1227 C1228 1.403 . S
C1228 C1227 1.403 . S
C1228 C1229 1.404 . S
C1228 C1231 1.539 . S
C1229 C1225 1.408 . S
C1229 C1228 1.404 . S
C1229 H1241 0.930 . S
C1230 C1226 1.524 . S
C1230 H1242 0.956 . S
C1230 H1243 0.961 . S
C1230 H1244 0.961 . S
C1231 C1228 1.539 . S
C1231 H1245 0.958 . S
C1231 H1246 0.961 . S
C1231 H1247 0.960 . S
H1232 C1216 0.931 . S
H1233 C1221 0.929 . S
H1234 C1222 0.960 . S
H1235 C1222 0.962 . S
H1236 C1222 0.960 . S
H1237 C1223 0.961 . S
H1238 C1223 0.961 . S
H1239 C1223 0.961 . S
H1240 C1224 0.931 . S
H1241 C1229 0.930 . S
H1242 C1230 0.956 . S
H1243 C1230 0.961 . S
H1244 C1230 0.961 . S
H1245 C1231 0.958 . S
H1246 C1231 0.961 . S
H1247 C1231 0.960 . S
C1248 C1249 1.391 . S
C1248 C1250 1.394 . S
C1248 H1264 0.931 . S
C1249 C1248 1.391 . S
C1249 C1253 1.376 . S
C1250 C1248 1.394 . S
C1250 C1251 1.369 . S
C1250 C1254 1.531 . S
C1251 C1250 1.369 . S
C1251 C1252 1.410 . S
C1251 C1259 1.503 . S
C1252 C1251 1.410 . S
C1252 C1253 1.392 . S
C1252 C1255 1.511 . S
C1253 C1249 1.376 . S
C1253 C1252 1.392 . S
C1253 H1265 0.929 . S
C1254 C1250 1.531 . S
C1254 H1266 0.960 . S
C1254 H1267 0.962 . S
C1254 H1268 0.960 . S
C1255 C1252 1.511 . S
C1255 H1269 0.961 . S
C1255 H1270 0.961 . S
C1255 H1271 0.961 . S
C1256 C1257 1.370 . S
C1256 C1258 1.363 . S
C1256 H1272 0.931 1_556 S
C1257 C1256 1.370 . S
C1257 C1261 1.408 . S
C1258 C1256 1.363 . S
C1258 C1259 1.370 . S
C1258 C1262 1.524 . S
C1259 C1251 1.503 . S
C1259 C1258 1.370 . S
C1259 C1260 1.403 . S
C1260 C1259 1.403 . S
C1260 C1261 1.404 . S
C1260 C1263 1.539 . S
C1261 C1257 1.408 . S
C1261 C1260 1.404 . S
C1261 H1273 0.930 . S
C1262 C1258 1.524 . S
C1262 H1274 0.956 . S
C1262 H1275 0.961 . S
C1262 H1276 0.961 . S
C1263 C1260 1.539 . S
C1263 H1277 0.958 . S
C1263 H1278 0.961 . S
C1263 H1279 0.960 . S
H1264 C1248 0.931 . S
H1265 C1253 0.929 . S
H1266 C1254 0.960 . S
H1267 C1254 0.962 . S
H1268 C1254 0.960 . S
H1269 C1255 0.961 . S
H1270 C1255 0.961 . S
H1271 C1255 0.961 . S
H1272 C1256 0.931 1_554 S
H1273 C1261 0.930 . S
H1274 C1262 0.956 . S
H1275 C1262 0.961 . S
H1276 C1262 0.961 . S
H1277 C1263 0.958 . S
H1278 C1263 0.961 . S
H1279 C1263 0.960 . S
C1280 C1281 1.391 . S
C1280 C1282 1.394 . S
C1280 H1296 0.931 . S
C1281 C1280 1.391 . S
C1281 C1285 1.376 . S
C1282 C1280 1.394 . S
C1282 C1283 1.369 1_455 S
C1282 C1286 1.531 . S
C1283 C1282 1.369 1_655 S
C1283 C1284 1.410 . S
C1283 C1291 1.503 . S
C1284 C1283 1.410 . S
C1284 C1285 1.392 1_655 S
C1284 C1287 1.511 . S
C1285 C1281 1.376 . S
C1285 C1284 1.392 1_455 S
C1285 H1297 0.929 . S
C1286 C1282 1.531 . S
C1286 H1298 0.960 1_455 S
C1286 H1299 0.962 . S
C1286 H1300 0.960 . S
C1287 C1284 1.511 . S
C1287 H1301 0.961 . S
C1287 H1302 0.961 . S
C1287 H1303 0.961 . S
C1288 C1289 1.370 . S
C1288 C1290 1.363 . S
C1288 H1304 0.931 . S
C1289 C1288 1.370 . S
C1289 C1293 1.408 . S
C1290 C1288 1.363 . S
C1290 C1291 1.370 . S
C1290 C1294 1.494 1_655 S
C1291 C1283 1.503 . S
C1291 C1290 1.370 . S
C1291 C1292 1.403 . S
C1292 C1291 1.403 . S
C1292 C1293 1.404 . S
C1292 C1295 1.539 . S
C1293 C1289 1.408 . S
C1293 C1292 1.404 . S
C1293 H1305 0.930 . S
C1294 C1290 1.494 1_455 S
C1294 H1306 0.985 . S
C1294 H1307 0.964 . S
C1294 H1308 0.960 . S
C1295 C1292 1.539 . S
C1295 H1309 0.958 . S
C1295 H1310 0.961 . S
C1295 H1311 0.960 . S
H1296 C1280 0.931 . S
H1297 C1285 0.929 . S
H1298 C1286 0.960 1_655 S
H1299 C1286 0.962 . S
H1300 C1286 0.960 . S
H1301 C1287 0.961 . S
H1302 C1287 0.961 . S
H1303 C1287 0.961 . S
H1304 C1288 0.931 . S
H1305 C1293 0.930 . S
H1306 C1294 0.985 . S
H1307 C1294 0.964 . S
H1308 C1294 0.960 . S
H1309 C1295 0.958 . S
H1310 C1295 0.961 . S
H1311 C1295 0.960 . S
C1312 C1313 1.391 . S
C1312 C1314 1.394 . S
C1312 H1328 0.931 . S
C1313 C1312 1.391 . S
C1313 C1317 1.376 . S
C1314 C1312 1.394 . S
C1314 C1315 1.369 . S
C1314 C1318 1.531 . S
C1315 C1314 1.369 . S
C1315 C1316 1.410 . S
C1315 C1323 1.503 . S
C1316 C1315 1.410 . S
C1316 C1317 1.392 . S
C1316 C1319 1.511 . S
C1317 C1313 1.376 . S
C1317 C1316 1.392 . S
C1317 H1329 0.929 . S
C1318 C1314 1.531 . S
C1318 H1330 0.960 . S
C1318 H1331 0.962 . S
C1318 H1332 0.960 . S
C1319 C1316 1.511 . S
C1319 H1333 0.961 . S
C1319 H1334 0.961 . S
C1319 H1335 0.961 . S
C1320 C1321 1.370 . S
C1320 C1322 1.363 . S
C1320 H1336 0.931 . S
C1321 C1320 1.370 . S
C1321 C1325 1.408 . S
C1322 C1320 1.363 . S
C1322 C1323 1.370 . S
C1322 C1326 1.524 . S
C1323 C1315 1.503 . S
C1323 C1322 1.370 . S
C1323 C1324 1.403 . S
C1324 C1323 1.403 . S
C1324 C1325 1.404 . S
C1324 C1327 1.539 . S
C1325 C1321 1.408 . S
C1325 C1324 1.404 . S
C1325 H1337 0.930 . S
C1326 C1322 1.524 . S
C1326 H1338 0.956 . S
C1326 H1339 0.961 . S
C1326 H1340 0.961 . S
C1327 C1324 1.539 . S
C1327 H1341 0.958 . S
C1327 H1342 0.961 . S
C1327 H1343 0.960 . S
H1328 C1312 0.931 . S
H1329 C1317 0.929 . S
H1330 C1318 0.960 . S
H1331 C1318 0.962 . S
H1332 C1318 0.960 . S
H1333 C1319 0.961 . S
H1334 C1319 0.961 . S
H1335 C1319 0.961 . S
H1336 C1320 0.931 . S
H1337 C1325 0.930 . S
H1338 C1326 0.956 . S
H1339 C1326 0.961 . S
H1340 C1326 0.961 . S
H1341 C1327 0.958 . S
H1342 C1327 0.961 . S
H1343 C1327 0.960 . S
C1344 C1345 1.391 . S
C1344 C1346 1.394 . S
C1344 H1360 0.931 . S
C1345 C1344 1.391 . S
C1345 C1349 1.376 . S
C1346 C1344 1.394 . S
C1346 C1347 1.369 . S
C1346 C1350 1.531 . S
C1347 C1346 1.369 . S
C1347 C1348 1.410 . S
C1347 C1355 1.503 . S
C1348 C1347 1.410 . S
C1348 C1349 1.392 . S
C1348 C1351 1.511 1_655 S
C1349 C1345 1.376 . S
C1349 C1348 1.392 . S
C1349 H1361 0.929 . S
C1350 C1346 1.531 . S
C1350 H1362 0.960 . S
C1350 H1363 0.962 . S
C1350 H1364 0.960 . S
C1351 C1348 1.511 1_455 S
C1351 H1365 0.961 . S
C1351 H1366 0.961 . S
C1351 H1367 0.961 . S
C1352 C1353 1.370 . S
C1352 C1354 1.363 . S
C1352 H1368 0.931 . S
C1353 C1352 1.370 . S
C1353 C1357 1.408 . S
C1354 C1352 1.363 . S
C1354 C1355 1.370 1_455 S
C1354 C1358 1.524 1_455 S
C1355 C1347 1.503 . S
C1355 C1354 1.370 1_655 S
C1355 C1356 1.404 . S
C1356 C1355 1.404 . S
C1356 C1357 1.401 1_655 S
C1356 C1359 1.541 . S
C1357 C1353 1.408 . S
C1357 C1356 1.401 1_455 S
C1357 H1369 0.930 . S
C1358 C1354 1.524 1_655 S
C1358 H1370 0.956 . S
C1358 H1371 0.961 . S
C1358 H1372 0.961 1_655 S
C1359 C1356 1.541 . S
C1359 H1373 0.958 . S
C1359 H1374 0.961 1_655 S
C1359 H1375 0.960 . S
H1360 C1344 0.931 . S
H1361 C1349 0.929 . S
H1362 C1350 0.960 . S
H1363 C1350 0.962 . S
H1364 C1350 0.960 . S
H1365 C1351 0.961 . S
H1366 C1351 0.961 . S
H1367 C1351 0.961 . S
H1368 C1352 0.931 . S
H1369 C1357 0.930 . S
H1370 C1358 0.956 . S
H1371 C1358 0.961 . S
H1372 C1358 0.961 1_455 S
H1373 C1359 0.958 . S
H1374 C1359 0.961 1_455 S
H1375 C1359 0.960 . S
C1376 C1377 1.391 . S
C1376 C1378 1.394 . S
C1376 H1392 0.931 . S
C1377 C1376 1.391 . S
C1377 C1381 1.376 . S
C1378 C1376 1.394 . S
C1378 C1379 1.369 . S
C1378 C1382 1.531 . S
C1379 C1378 1.369 . S
C1379 C1380 1.410 . S
C1379 C1387 1.503 . S
C1380 C1379 1.410 . S
C1380 C1381 1.392 . S
C1380 C1383 1.511 . S
C1381 C1377 1.376 . S
C1381 C1380 1.392 . S
C1381 H1393 0.929 . S
C1382 C1378 1.531 . S
C1382 H1394 0.960 . S
C1382 H1395 0.962 . S
C1382 H1396 0.960 . S
C1383 C1380 1.511 . S
C1383 H1397 0.961 . S
C1383 H1398 0.961 . S
C1383 H1399 0.961 . S
C1384 C1385 1.370 . S
C1384 C1386 1.363 . S
C1384 H1400 0.931 . S
C1385 C1384 1.370 . S
C1385 C1389 1.408 . S
C1386 C1384 1.363 . S
C1386 C1387 1.370 . S
C1386 C1390 1.524 . S
C1387 C1379 1.503 . S
C1387 C1386 1.370 . S
C1387 C1388 1.403 . S
C1388 C1387 1.403 . S
C1388 C1389 1.404 . S
C1388 C1391 1.539 . S
C1389 C1385 1.408 . S
C1389 C1388 1.404 . S
C1389 H1401 0.930 . S
C1390 C1386 1.524 . S
C1390 H1402 0.956 . S
C1390 H1403 0.961 . S
C1390 H1404 0.961 . S
C1391 C1388 1.539 . S
C1391 H1405 0.958 . S
C1391 H1406 0.961 . S
C1391 H1407 0.960 . S
H1392 C1376 0.931 . S
H1393 C1381 0.929 . S
H1394 C1382 0.960 . S
H1395 C1382 0.962 . S
H1396 C1382 0.960 . S
H1397 C1383 0.961 . S
H1398 C1383 0.961 . S
H1399 C1383 0.961 . S
H1400 C1384 0.931 . S
H1401 C1389 0.930 . S
H1402 C1390 0.956 . S
H1403 C1390 0.961 . S
H1404 C1390 0.961 . S
H1405 C1391 0.958 . S
H1406 C1391 0.961 . S
H1407 C1391 0.960 . S
C1408 C1409 1.391 . S
C1408 C1410 1.394 . S
C1408 H1424 0.931 . S
C1409 C1408 1.391 . S
C1409 C1413 1.376 . S
C1410 C1408 1.394 . S
C1410 C1411 1.369 . S
C1410 C1414 1.531 . S
C1411 C1410 1.369 . S
C1411 C1412 1.410 . S
C1411 C1419 1.503 . S
C1412 C1411 1.410 . S
C1412 C1413 1.392 . S
C1412 C1415 1.511 . S
C1413 C1409 1.376 . S
C1413 C1412 1.392 . S
C1413 H1425 0.929 . S
C1414 C1410 1.531 . S
C1414 H1426 0.960 . S
C1414 H1427 0.962 . S
C1414 H1428 0.960 . S
C1415 C1412 1.511 . S
C1415 H1429 0.961 . S
C1415 H1430 0.961 . S
C1415 H1431 0.961 . S
C1416 C1417 1.370 . S
C1416 C1418 1.363 . S
C1416 H1432 0.931 . S
C1417 C1416 1.370 . S
C1417 C1421 1.408 . S
C1418 C1416 1.363 . S
C1418 C1419 1.370 . S
C1418 C1422 1.524 . S
C1419 C1411 1.503 . S
C1419 C1418 1.370 . S
C1419 C1420 1.403 . S
C1420 C1419 1.403 . S
C1420 C1421 1.404 . S
C1420 C1423 1.539 . S
C1421 C1417 1.408 . S
C1421 C1420 1.404 . S
C1421 H1433 0.930 . S
C1422 C1418 1.524 . S
C1422 H1434 0.956 . S
C1422 H1435 0.961 . S
C1422 H1436 0.961 . S
C1423 C1420 1.539 . S
C1423 H1437 0.958 . S
C1423 H1438 0.961 . S
C1423 H1439 0.960 . S
H1424 C1408 0.931 . S
H1425 C1413 0.929 . S
H1426 C1414 0.960 . S
H1427 C1414 0.962 . S
H1428 C1414 0.960 . S
H1429 C1415 0.961 . S
H1430 C1415 0.961 . S
H1431 C1415 0.961 . S
H1432 C1416 0.931 . S
H1433 C1421 0.930 . S
H1434 C1422 0.956 . S
H1435 C1422 0.961 . S
H1436 C1422 0.961 . S
H1437 C1423 0.958 . S
H1438 C1423 0.961 . S
H1439 C1423 0.960 . S
C1440 C1441 1.391 . S
C1440 C1442 1.394 . S
C1440 H1456 0.931 . S
C1441 C1440 1.391 . S
C1441 C1445 1.376 . S
C1442 C1440 1.394 . S
C1442 C1443 1.369 . S
C1442 C1446 1.531 . S
C1443 C1442 1.369 . S
C1443 C1444 1.410 . S
C1443 C1451 1.503 . S
C1444 C1443 1.410 . S
C1444 C1445 1.392 . S
C1444 C1447 1.511 . S
C1445 C1441 1.376 . S
C1445 C1444 1.392 . S
C1445 H1457 0.929 1_554 S
C1446 C1442 1.531 . S
C1446 H1458 0.960 . S
C1446 H1459 0.962 . S
C1446 H1460 0.960 . S
C1447 C1444 1.511 . S
C1447 H1461 0.961 1_554 S
C1447 H1462 0.961 . S
C1447 H1463 0.961 . S
C1448 C1449 1.370 . S
C1448 C1450 1.363 . S
C1448 H1464 0.931 . S
C1449 C1448 1.370 . S
C1449 C1453 1.408 . S
C1450 C1448 1.363 . S
C1450 C1451 1.370 . S
C1450 C1454 1.524 . S
C1451 C1443 1.503 . S
C1451 C1450 1.370 . S
C1451 C1452 1.403 . S
C1452 C1451 1.403 . S
C1452 C1453 1.404 . S
C1452 C1455 1.539 . S
C1453 C1449 1.408 . S
C1453 C1452 1.404 . S
C1453 H1465 0.930 . S
C1454 C1450 1.524 . S
C1454 H1466 0.956 . S
C1454 H1467 0.961 . S
C1454 H1468 0.961 . S
C1455 C1452 1.539 . S
C1455 H1469 0.958 . S
C1455 H1470 0.961 . S
C1455 H1471 0.960 . S
H1456 C1440 0.931 . S
H1457 C1445 0.929 1_556 S
H1458 C1446 0.960 . S
H1459 C1446 0.962 . S
H1460 C1446 0.960 . S
H1461 C1447 0.961 1_556 S
H1462 C1447 0.961 . S
H1463 C1447 0.961 . S
H1464 C1448 0.931 . S
H1465 C1453 0.930 . S
H1466 C1454 0.956 . S
H1467 C1454 0.961 . S
H1468 C1454 0.961 . S
H1469 C1455 0.958 . S
H1470 C1455 0.961 . S
H1471 C1455 0.960 . S
C1472 C1473 1.391 . S
C1472 C1474 1.394 . S
C1472 H1488 0.931 . S
C1473 C1472 1.391 . S
C1473 C1477 1.376 . S
C1474 C1472 1.394 . S
C1474 C1475 1.369 . S
C1474 C1478 1.531 1_455 S
C1475 C1474 1.369 . S
C1475 C1476 1.410 . S
C1475 C1483 1.503 . S
C1476 C1475 1.410 . S
C1476 C1477 1.392 . S
C1476 C1479 1.511 . S
C1477 C1473 1.376 . S
C1477 C1476 1.392 . S
C1477 H1489 0.929 . S
C1478 C1474 1.531 1_655 S
C1478 H1490 0.960 . S
C1478 H1491 0.962 . S
C1478 H1492 0.960 . S
C1479 C1476 1.511 . S
C1479 H1493 0.961 . S
C1479 H1494 0.961 . S
C1479 H1495 0.961 . S
C1480 C1481 1.370 . S
C1480 C1482 1.363 . S
C1480 H1496 0.931 . S
C1481 C1480 1.370 . S
C1481 C1485 1.408 . S
C1482 C1480 1.363 . S
C1482 C1483 1.370 1_655 S
C1482 C1486 1.524 1_655 S
C1483 C1475 1.503 . S
C1483 C1482 1.370 1_455 S
C1483 C1484 1.408 . S
C1484 C1483 1.408 . S
C1484 C1485 1.390 1_455 S
C1484 C1487 1.549 . S
C1485 C1481 1.408 . S
C1485 C1484 1.390 1_655 S
C1485 H1497 0.930 . S
C1486 C1482 1.524 1_455 S
C1486 H1498 0.956 1_455 S
C1486 H1499 0.961 . S
C1486 H1500 0.961 1_455 S
C1487 C1484 1.549 . S
C1487 H1501 0.958 . S
C1487 H1502 0.961 . S
C1487 H1503 0.960 . S
H1488 C1472 0.931 . S
H1489 C1477 0.929 . S
H1490 C1478 0.960 . S
H1491 C1478 0.962 . S
H1492 C1478 0.960 . S
H1493 C1479 0.961 . S
H1494 C1479 0.961 . S
H1495 C1479 0.961 . S
H1496 C1480 0.931 . S
H1497 C1485 0.930 . S
H1498 C1486 0.956 1_655 S
H1499 C1486 0.961 . S
H1500 C1486 0.961 1_655 S
H1501 C1487 0.958 . S
H1502 C1487 0.961 . S
H1503 C1487 0.960 . S
C1504 C1505 1.391 . S
C1504 C1506 1.394 . S
C1504 H1520 0.931 . S
C1505 C1504 1.391 . S
C1505 C1509 1.376 . S
C1506 C1504 1.394 . S
C1506 C1507 1.369 . S
C1506 C1510 1.531 . S
C1507 C1506 1.369 . S
C1507 C1508 1.410 . S
C1507 C1515 1.503 . S
C1508 C1507 1.410 . S
C1508 C1509 1.392 . S
C1508 C1511 1.511 . S
C1509 C1505 1.376 . S
C1509 C1508 1.392 . S
C1509 H1521 0.929 . S
C1510 C1506 1.531 . S
C1510 H1522 0.960 . S
C1510 H1523 0.962 . S
C1510 H1524 0.960 . S
C1511 C1508 1.511 . S
C1511 H1525 0.961 . S
C1511 H1526 0.961 . S
C1511 H1527 0.961 . S
C1512 C1513 1.370 . S
C1512 C1514 1.363 . S
C1512 H1528 0.931 . S
C1513 C1512 1.370 . S
C1513 C1517 1.408 . S
C1514 C1512 1.363 . S
C1514 C1515 1.370 . S
C1514 C1518 1.524 . S
C1515 C1507 1.503 . S
C1515 C1514 1.370 . S
C1515 C1516 1.403 . S
C1516 C1515 1.403 . S
C1516 C1517 1.404 . S
C1516 C1519 1.539 . S
C1517 C1513 1.408 . S
C1517 C1516 1.404 . S
C1517 H1529 0.930 . S
C1518 C1514 1.524 . S
C1518 H1530 0.956 . S
C1518 H1531 0.961 . S
C1518 H1532 0.961 . S
C1519 C1516 1.539 . S
C1519 H1533 0.958 . S
C1519 H1534 0.961 . S
C1519 H1535 0.960 . S
H1520 C1504 0.931 . S
H1521 C1509 0.929 . S
H1522 C1510 0.960 . S
H1523 C1510 0.962 . S
H1524 C1510 0.960 . S
H1525 C1511 0.961 . S
H1526 C1511 0.961 . S
H1527 C1511 0.961 . S
H1528 C1512 0.931 . S
H1529 C1517 0.930 . S
H1530 C1518 0.956 . S
H1531 C1518 0.961 . S
H1532 C1518 0.961 . S
H1533 C1519 0.958 . S
H1534 C1519 0.961 . S
H1535 C1519 0.960 . S
C1536 C1537 1.391 . S
C1536 C1538 1.394 . S
C1536 H1552 0.931 . S
C1537 C1536 1.391 . S
C1537 C1541 1.376 . S
C1538 C1536 1.394 . S
C1538 C1539 1.369 . S
C1538 C1542 1.531 . S
C1539 C1538 1.369 . S
C1539 C1540 1.410 . S
C1539 C1547 1.503 . S
C1540 C1539 1.410 . S
C1540 C1541 1.392 . S
C1540 C1543 1.511 . S
C1541 C1537 1.376 . S
C1541 C1540 1.392 . S
C1541 H1553 0.929 . S
C1542 C1538 1.531 . S
C1542 H1554 0.960 . S
C1542 H1555 0.962 . S
C1542 H1556 0.960 . S
C1543 C1540 1.511 . S
C1543 H1557 0.961 . S
C1543 H1558 0.961 . S
C1543 H1559 0.961 . S
C1544 C1545 1.370 . S
C1544 C1546 1.363 . S
C1544 H1560 0.931 . S
C1545 C1544 1.370 . S
C1545 C1549 1.408 . S
C1546 C1544 1.363 . S
C1546 C1547 1.370 . S
C1546 C1550 1.524 . S
C1547 C1539 1.503 . S
C1547 C1546 1.370 . S
C1547 C1548 1.403 . S
C1548 C1547 1.403 . S
C1548 C1549 1.404 . S
C1548 C1551 1.539 . S
C1549 C1545 1.408 . S
C1549 C1548 1.404 . S
C1549 H1561 0.930 . S
C1550 C1546 1.524 . S
C1550 H1562 0.956 . S
C1550 H1563 0.961 . S
C1550 H1564 0.961 . S
C1551 C1548 1.539 . S
C1551 H1565 0.958 . S
C1551 H1566 0.961 . S
C1551 H1567 0.960 . S
H1552 C1536 0.931 . S
H1553 C1541 0.929 . S
H1554 C1542 0.960 . S
H1555 C1542 0.962 . S
H1556 C1542 0.960 . S
H1557 C1543 0.961 . S
H1558 C1543 0.961 . S
H1559 C1543 0.961 . S
H1560 C1544 0.931 . S
H1561 C1549 0.930 . S
H1562 C1550 0.956 . S
H1563 C1550 0.961 . S
H1564 C1550 0.961 . S
H1565 C1551 0.958 . S
H1566 C1551 0.961 . S
H1567 C1551 0.960 . S
C1568 C1569 1.391 . S
C1568 C1570 1.394 . S
C1568 H1584 0.931 1_556 S
C1569 C1568 1.391 . S
C1569 C1573 1.376 . S
C1570 C1568 1.394 . S
C1570 C1571 1.369 . S
C1570 C1574 1.531 . S
C1571 C1570 1.369 . S
C1571 C1572 1.410 . S
C1571 C1579 1.503 . S
C1572 C1571 1.410 . S
C1572 C1573 1.392 . S
C1572 C1575 1.511 . S
C1573 C1569 1.376 . S
C1573 C1572 1.392 . S
C1573 H1585 0.929 . S
C1574 C1570 1.531 . S
C1574 H1586 0.960 . S
C1574 H1587 0.962 . S
C1574 H1588 0.960 1_556 S
C1575 C1572 1.511 . S
C1575 H1589 0.961 . S
C1575 H1590 0.961 . S
C1575 H1591 0.961 . S
C1576 C1577 1.370 . S
C1576 C1578 1.363 . S
C1576 H1592 0.931 . S
C1577 C1576 1.370 . S
C1577 C1581 1.408 . S
C1578 C1576 1.363 . S
C1578 C1579 1.370 . S
C1578 C1582 1.524 . S
C1579 C1571 1.503 . S
C1579 C1578 1.370 . S
C1579 C1580 1.403 . S
C1580 C1579 1.403 . S
C1580 C1581 1.404 . S
C1580 C1583 1.539 . S
C1581 C1577 1.408 . S
C1581 C1580 1.404 . S
C1581 H1593 0.930 . S
C1582 C1578 1.524 . S
C1582 H1594 0.956 . S
C1582 H1595 0.961 . S
C1582 H1596 0.961 . S
C1583 C1580 1.539 . S
C1583 H1597 0.958 . S
C1583 H1598 0.961 . S
C1583 H1599 0.960 . S
H1584 C1568 0.931 1_554 S
H1585 C1573 0.929 . S
H1586 C1574 0.960 . S
H1587 C1574 0.962 . S
H1588 C1574 0.960 1_554 S
H1589 C1575 0.961 . S
H1590 C1575 0.961 . S
H1591 C1575 0.961 . S
H1592 C1576 0.931 . S
H1593 C1581 0.930 . S
H1594 C1582 0.956 . S
H1595 C1582 0.961 . S
H1596 C1582 0.961 . S
H1597 C1583 0.958 . S
H1598 C1583 0.961 . S
H1599 C1583 0.960 . S
C1600 C1601 1.391 . S
C1600 C1602 1.394 . S
C1600 H1616 0.931 . S
C1601 C1600 1.391 . S
C1601 C1605 1.376 . S
C1602 C1600 1.394 . S
C1602 C1603 1.369 . S
C1602 C1606 1.531 . S
C1603 C1602 1.369 . S
C1603 C1604 1.410 . S
C1603 C1611 1.503 . S
C1604 C1603 1.410 . S
C1604 C1605 1.392 . S
C1604 C1607 1.511 . S
C1605 C1601 1.376 . S
C1605 C1604 1.392 . S
C1605 H1617 0.929 . S
C1606 C1602 1.531 . S
C1606 H1618 0.960 . S
C1606 H1619 0.962 . S
C1606 H1620 0.960 . S
C1607 C1604 1.511 . S
C1607 H1621 0.961 . S
C1607 H1622 0.961 . S
C1607 H1623 0.961 . S
C1608 C1609 1.370 . S
C1608 C1610 1.363 . S
C1608 H1624 0.931 . S
C1609 C1608 1.370 . S
C1609 C1613 1.408 . S
C1610 C1608 1.363 . S
C1610 C1611 1.370 . S
C1610 C1614 1.524 . S
C1611 C1603 1.503 . S
C1611 C1610 1.370 . S
C1611 C1612 1.403 . S
C1612 C1611 1.403 . S
C1612 C1613 1.404 . S
C1612 C1615 1.539 . S
C1613 C1609 1.408 . S
C1613 C1612 1.404 . S
C1613 H1625 0.930 . S
C1614 C1610 1.524 . S
C1614 H1626 0.956 . S
C1614 H1627 0.961 . S
C1614 H1628 0.961 . S
C1615 C1612 1.539 . S
C1615 H1629 0.958 . S
C1615 H1630 0.961 . S
C1615 H1631 0.960 . S
H1616 C1600 0.931 . S
H1617 C1605 0.929 . S
H1618 C1606 0.960 . S
H1619 C1606 0.962 . S
H1620 C1606 0.960 . S
H1621 C1607 0.961 . S
H1622 C1607 0.961 . S
H1623 C1607 0.961 . S
H1624 C1608 0.931 . S
H1625 C1613 0.930 . S
H1626 C1614 0.956 . S
H1627 C1614 0.961 . S
H1628 C1614 0.961 . S
H1629 C1615 0.958 . S
H1630 C1615 0.961 . S
H1631 C1615 0.960 . S
C1632 C1633 1.391 . S
C1632 C1634 1.394 . S
C1632 H1648 0.931 . S
C1633 C1632 1.391 . S
C1633 C1637 1.376 . S
C1634 C1632 1.394 . S
C1634 C1635 1.369 . S
C1634 C1638 1.531 . S
C1635 C1634 1.369 . S
C1635 C1636 1.410 . S
C1635 C1643 1.503 . S
C1636 C1635 1.410 . S
C1636 C1637 1.392 . S
C1636 C1639 1.511 . S
C1637 C1633 1.376 . S
C1637 C1636 1.392 . S
C1637 H1649 0.929 . S
C1638 C1634 1.531 . S
C1638 H1650 0.960 . S
C1638 H1651 0.962 . S
C1638 H1652 0.960 . S
C1639 C1636 1.511 . S
C1639 H1653 0.961 . S
C1639 H1654 0.961 . S
C1639 H1655 0.961 . S
C1640 C1641 1.370 . S
C1640 C1642 1.363 . S
C1640 H1656 0.931 . S
C1641 C1640 1.370 . S
C1641 C1645 1.408 . S
C1642 C1640 1.363 . S
C1642 C1643 1.370 . S
C1642 C1646 1.524 . S
C1643 C1635 1.503 . S
C1643 C1642 1.370 . S
C1643 C1644 1.403 . S
C1644 C1643 1.403 . S
C1644 C1645 1.404 . S
C1644 C1647 1.539 . S
C1645 C1641 1.408 . S
C1645 C1644 1.404 . S
C1645 H1657 0.930 . S
C1646 C1642 1.524 . S
C1646 H1658 0.956 . S
C1646 H1659 0.961 . S
C1646 H1660 0.961 . S
C1647 C1644 1.539 . S
C1647 H1661 0.958 . S
C1647 H1662 0.961 . S
C1647 H1663 0.960 . S
H1648 C1632 0.931 . S
H1649 C1637 0.929 . S
H1650 C1638 0.960 . S
H1651 C1638 0.962 . S
H1652 C1638 0.960 . S
H1653 C1639 0.961 . S
H1654 C1639 0.961 . S
H1655 C1639 0.961 . S
H1656 C1640 0.931 . S
H1657 C1645 0.930 . S
H1658 C1646 0.956 . S
H1659 C1646 0.961 . S
H1660 C1646 0.961 . S
H1661 C1647 0.958 . S
H1662 C1647 0.961 . S
H1663 C1647 0.960 . S
C1664 C1665 1.391 . S
C1664 C1666 1.394 . S
C1664 H1680 0.931 . S
C1665 C1664 1.391 . S
C1665 C1669 1.376 . S
C1666 C1664 1.394 . S
C1666 C1667 1.369 . S
C1666 C1670 1.531 . S
C1667 C1666 1.369 . S
C1667 C1668 1.410 . S
C1667 C1675 1.503 . S
C1668 C1667 1.410 . S
C1668 C1669 1.392 . S
C1668 C1671 1.511 . S
C1669 C1665 1.376 . S
C1669 C1668 1.392 . S
C1669 H1681 0.929 . S
C1670 C1666 1.531 . S
C1670 H1682 0.960 . S
C1670 H1683 0.962 . S
C1670 H1684 0.960 . S
C1671 C1668 1.511 . S
C1671 H1685 0.961 . S
C1671 H1686 0.961 . S
C1671 H1687 0.961 . S
C1672 C1673 1.370 . S
C1672 C1674 1.363 . S
C1672 H1688 0.931 . S
C1673 C1672 1.370 . S
C1673 C1677 1.408 . S
C1674 C1672 1.363 . S
C1674 C1675 1.370 . S
C1674 C1678 1.524 . S
C1675 C1667 1.503 . S
C1675 C1674 1.370 . S
C1675 C1676 1.403 . S
C1676 C1675 1.403 . S
C1676 C1677 1.404 . S
C1676 C1679 1.539 . S
C1677 C1673 1.408 . S
C1677 C1676 1.404 . S
C1677 H1689 0.930 . S
C1678 C1674 1.524 . S
C1678 H1690 0.956 . S
C1678 H1691 0.961 . S
C1678 H1692 0.961 . S
C1679 C1676 1.539 . S
C1679 H1693 0.958 . S
C1679 H1694 0.961 . S
C1679 H1695 0.960 . S
H1680 C1664 0.931 . S
H1681 C1669 0.929 . S
H1682 C1670 0.960 . S
H1683 C1670 0.962 . S
H1684 C1670 0.960 . S
H1685 C1671 0.961 . S
H1686 C1671 0.961 . S
H1687 C1671 0.961 . S
H1688 C1672 0.931 . S
H1689 C1677 0.930 . S
H1690 C1678 0.956 . S
H1691 C1678 0.961 . S
H1692 C1678 0.961 . S
H1693 C1679 0.958 . S
H1694 C1679 0.961 . S
H1695 C1679 0.960 . S
C1696 C1697 1.391 . S
C1696 C1698 1.394 . S
C1696 H1712 0.931 . S
C1697 C1696 1.391 . S
C1697 C1701 1.376 . S
C1698 C1696 1.394 . S
C1698 C1699 1.369 . S
C1698 C1702 1.531 1_554 S
C1699 C1698 1.369 . S
C1699 C1700 1.410 1_455 S
C1699 C1707 1.503 1_454 S
C1700 C1699 1.410 1_655 S
C1700 C1701 1.392 1_655 S
C1700 C1703 1.511 . S
C1701 C1697 1.376 . S
C1701 C1700 1.392 1_455 S
C1701 H1713 0.929 . S
C1702 C1698 1.531 1_556 S
C1702 H1714 0.960 . S
C1702 H1715 0.962 . S
C1702 H1716 0.960 1_556 S
C1703 C1700 1.511 . S
C1703 H1717 0.961 . S
C1703 H1718 0.961 . S
C1703 H1719 0.961 . S
C1704 C1705 1.370 . S
C1704 C1706 1.363 . S
C1704 H1720 0.931 . S
C1705 C1704 1.370 . S
C1705 C1709 1.408 . S
C1706 C1704 1.363 . S
C1706 C1707 1.370 . S
C1706 C1710 1.540 . S
C1707 C1699 1.503 1_656 S
C1707 C1706 1.370 . S
C1707 C1708 1.403 . S
C1708 C1707 1.403 . S
C1708 C1709 1.404 . S
C1708 C1711 1.539 1_556 S
C1709 C1705 1.408 . S
C1709 C1708 1.404 . S
C1709 H1721 0.930 . S
C1710 C1706 1.540 . S
C1710 H1722 0.917 1_655 S
C1710 H1723 0.971 . S
C1710 H1724 0.975 . S
C1711 C1708 1.539 1_554 S
C1711 H1725 0.958 . S
C1711 H1726 0.961 . S
C1711 H1727 0.960 . S
H1712 C1696 0.931 . S
H1713 C1701 0.929 . S
H1714 C1702 0.960 . S
H1715 C1702 0.962 . S
H1716 C1702 0.960 1_554 S
H1717 C1703 0.961 . S
H1718 C1703 0.961 . S
H1719 C1703 0.961 . S
H1720 C1704 0.931 . S
H1721 C1709 0.930 . S
H1722 C1710 0.917 1_455 S
H1723 C1710 0.971 . S
H1724 C1710 0.975 . S
H1725 C1711 0.958 . S
H1726 C1711 0.961 . S
H1727 C1711 0.960 . S
C1728 C1729 1.391 . S
C1728 C1730 1.394 . S
C1728 H1744 0.931 . S
C1729 C1728 1.391 . S
C1729 C1733 1.376 . S
C1730 C1728 1.394 . S
C1730 C1731 1.369 . S
C1730 C1734 1.531 . S
C1731 C1730 1.369 . S
C1731 C1732 1.410 . S
C1731 C1739 1.503 . S
C1732 C1731 1.410 . S
C1732 C1733 1.392 . S
C1732 C1735 1.511 . S
C1733 C1729 1.376 . S
C1733 C1732 1.392 . S
C1733 H1745 0.929 . S
C1734 C1730 1.531 . S
C1734 H1746 0.960 . S
C1734 H1747 0.962 . S
C1734 H1748 0.960 . S
C1735 C1732 1.511 . S
C1735 H1749 0.961 . S
C1735 H1750 0.961 . S
C1735 H1751 0.961 . S
C1736 C1737 1.370 . S
C1736 C1738 1.363 . S
C1736 H1752 0.931 . S
C1737 C1736 1.370 . S
C1737 C1741 1.408 . S
C1738 C1736 1.363 . S
C1738 C1739 1.370 . S
C1738 C1742 1.524 . S
C1739 C1731 1.503 . S
C1739 C1738 1.370 . S
C1739 C1740 1.403 . S
C1740 C1739 1.403 . S
C1740 C1741 1.404 . S
C1740 C1743 1.539 . S
C1741 C1737 1.408 . S
C1741 C1740 1.404 . S
C1741 H1753 0.930 . S
C1742 C1738 1.524 . S
C1742 H1754 0.956 . S
C1742 H1755 0.961 . S
C1742 H1756 0.961 . S
C1743 C1740 1.539 . S
C1743 H1757 0.958 . S
C1743 H1758 0.961 . S
C1743 H1759 0.960 . S
H1744 C1728 0.931 . S
H1745 C1733 0.929 . S
H1746 C1734 0.960 . S
H1747 C1734 0.962 . S
H1748 C1734 0.960 . S
H1749 C1735 0.961 . S
H1750 C1735 0.961 . S
H1751 C1735 0.961 . S
H1752 C1736 0.931 . S
H1753 C1741 0.930 . S
H1754 C1742 0.956 . S
H1755 C1742 0.961 . S
H1756 C1742 0.961 . S
H1757 C1743 0.958 . S
H1758 C1743 0.961 . S
H1759 C1743 0.960 . S
C1760 C1761 1.391 . S
C1760 C1762 1.394 . S
C1760 H1776 0.931 . S
C1761 C1760 1.391 . S
C1761 C1765 1.376 . S
C1762 C1760 1.394 . S
C1762 C1763 1.369 . S
C1762 C1766 1.531 . S
C1763 C1762 1.369 . S
C1763 C1764 1.410 . S
C1763 C1771 1.503 . S
C1764 C1763 1.410 . S
C1764 C1765 1.392 . S
C1764 C1767 1.511 . S
C1765 C1761 1.376 . S
C1765 C1764 1.392 . S
C1765 H1777 0.929 . S
C1766 C1762 1.531 . S
C1766 H1778 0.960 . S
C1766 H1779 0.962 . S
C1766 H1780 0.960 . S
C1767 C1764 1.511 . S
C1767 H1781 0.961 . S
C1767 H1782 0.961 . S
C1767 H1783 0.961 . S
C1768 C1769 1.370 . S
C1768 C1770 1.363 . S
C1768 H1784 0.931 . S
C1769 C1768 1.370 . S
C1769 C1773 1.408 . S
C1770 C1768 1.363 . S
C1770 C1771 1.370 . S
C1770 C1774 1.524 . S
C1771 C1763 1.503 . S
C1771 C1770 1.370 . S
C1771 C1772 1.403 . S
C1772 C1771 1.403 . S
C1772 C1773 1.404 . S
C1772 C1775 1.539 . S
C1773 C1769 1.408 . S
C1773 C1772 1.404 . S
C1773 H1785 0.930 . S
C1774 C1770 1.524 . S
C1774 H1786 0.956 . S
C1774 H1787 0.961 . S
C1774 H1788 0.961 . S
C1775 C1772 1.539 . S
C1775 H1789 0.958 . S
C1775 H1790 0.961 . S
C1775 H1791 0.960 . S
H1776 C1760 0.931 . S
H1777 C1765 0.929 . S
H1778 C1766 0.960 . S
H1779 C1766 0.962 . S
H1780 C1766 0.960 . S
H1781 C1767 0.961 . S
H1782 C1767 0.961 . S
H1783 C1767 0.961 . S
H1784 C1768 0.931 . S
H1785 C1773 0.930 . S
H1786 C1774 0.956 . S
H1787 C1774 0.961 . S
H1788 C1774 0.961 . S
H1789 C1775 0.958 . S
H1790 C1775 0.961 . S
H1791 C1775 0.960 . S
C1792 C1793 1.391 . S
C1792 C1794 1.394 1_545 S
C1792 H1808 0.931 . S
C1793 C1792 1.391 . S
C1793 C1797 1.376 . S
C1794 C1792 1.394 1_565 S
C1794 C1795 1.369 1_565 S
C1794 C1798 1.531 1_455 S
C1795 C1794 1.369 1_545 S
C1795 C1796 1.404 1_556 S
C1795 C1803 1.503 1_446 S
C1796 C1795 1.404 1_554 S
C1796 C1797 1.380 1_554 S
C1796 C1799 1.529 . S
C1797 C1793 1.376 . S
C1797 C1796 1.380 1_556 S
C1797 H1809 0.929 . S
C1798 C1794 1.531 1_655 S
C1798 H1810 0.960 . S
C1798 H1811 0.962 . S
C1798 H1812 0.960 1_655 S
C1799 C1796 1.529 . S
C1799 H1813 0.961 . S
C1799 H1814 0.961 . S
C1799 H1815 0.961 . S
C1800 C1801 1.370 . S
C1800 C1802 1.363 . S
C1800 H1816 0.931 . S
C1801 C1800 1.370 . S
C1801 C1805 1.408 . S
C1802 C1800 1.363 . S
C1802 C1803 1.370 . S
C1802 C1806 1.524 1_564 S
C1803 C1795 1.503 1_664 S
C1803 C1802 1.370 . S
C1803 C1804 1.403 1_655 S
C1804 C1803 1.403 1_455 S
C1804 C1805 1.404 1_455 S
C1804 C1807 1.539 . S
C1805 C1801 1.408 . S
C1805 C1804 1.404 1_655 S
C1805 H1817 0.930 . S
C1806 C1802 1.524 1_546 S
C1806 H1818 0.956 . S
C1806 H1819 0.961 1_556 S
C1806 H1820 0.961 1_556 S
C1807 C1804 1.539 . S
C1807 H1821 0.958 . S
C1807 H1822 0.961 . S
C1807 H1823 0.960 . S
H1808 C1792 0.931 . S
H1809 C1797 0.929 . S
H1810 C1798 0.960 . S
H1811 C1798 0.962 . S
H1812 C1798 0.960 1_455 S
H1813 C1799 0.961 . S
H1814 C1799 0.961 . S
H1815 C1799 0.961 . S
H1816 C1800 0.931 . S
H1817 C1805 0.930 . S
H1818 C1806 0.956 . S
H1819 C1806 0.961 1_554 S
H1820 C1806 0.961 1_554 S
H1821 C1807 0.958 . S
H1822 C1807 0.961 . S
H1823 C1807 0.960 . S
C1824 C1825 1.391 . S
C1824 C1826 1.394 . S
C1824 H1840 0.931 . S
C1825 C1824 1.391 . S
C1825 C1829 1.376 . S
C1826 C1824 1.394 . S
C1826 C1827 1.369 . S
C1826 C1830 1.531 . S
C1827 C1826 1.369 . S
C1827 C1828 1.410 . S
C1827 C1835 1.503 1_545 S
C1828 C1827 1.410 . S
C1828 C1829 1.392 . S
C1828 C1831 1.511 . S
C1829 C1825 1.376 . S
C1829 C1828 1.392 . S
C1829 H1841 0.929 . S
C1830 C1826 1.531 . S
C1830 H1842 0.960 . S
C1830 H1843 0.962 1_545 S
C1830 H1844 0.960 . S
C1831 C1828 1.511 . S
C1831 H1845 0.961 . S
C1831 H1846 0.961 . S
C1831 H1847 0.961 . S
C1832 C1833 1.370 . S
C1832 C1834 1.363 . S
C1832 H1848 0.931 . S
C1833 C1832 1.370 . S
C1833 C1837 1.408 . S
C1834 C1832 1.363 . S
C1834 C1835 1.370 . S
C1834 C1838 1.524 . S
C1835 C1827 1.503 1_565 S
C1835 C1834 1.370 . S
C1835 C1836 1.403 1_565 S
C1836 C1835 1.403 1_545 S
C1836 C1837 1.404 1_545 S
C1836 C1839 1.539 . S
C1837 C1833 1.408 . S
C1837 C1836 1.404 1_565 S
C1837 H1849 0.919 1_565 S
C1838 C1834 1.524 . S
C1838 H1850 0.956 . S
C1838 H1851 0.961 . S
C1838 H1852 0.961 . S
C1839 C1836 1.539 . S
C1839 H1853 0.958 . S
C1839 H1854 0.961 . S
C1839 H1855 0.960 . S
H1840 C1824 0.931 . S
H1841 C1829 0.929 . S
H1842 C1830 0.960 . S
H1843 C1830 0.962 1_565 S
H1844 C1830 0.960 . S
H1845 C1831 0.961 . S
H1846 C1831 0.961 . S
H1847 C1831 0.961 . S
H1848 C1832 0.931 . S
H1849 C1837 0.919 1_545 S
H1850 C1838 0.956 . S
H1851 C1838 0.961 . S
H1852 C1838 0.961 . S
H1853 C1839 0.958 . S
H1854 C1839 0.961 . S
H1855 C1839 0.960 . S
C321 C4 1.098 . S
C329 C204 1.112 . S
C353 C24 1.150 . S
C361 C224 1.133 . S
C385 C44 1.154 . S
C393 C164 1.134 . S
C417 C64 1.114 . S
C425 C184 1.118 . S
C449 C82 1.113 . S
C457 C282 1.125 . S
C481 C102 1.107 . S
C489 C302 1.122 . S
C513 C122 1.134 . S
C521 C242 1.115 . S
C545 C142 1.155 . S
C553 C262 1.127 . S
C577 C198 2.072 . S
C585 C2 2.060 1_556 S
C609 C218 2.082 . S
C617 C22 2.066 . S
C641 C238 2.076 . S
C649 C42 2.063 . S
C673 C178 2.080 . S
C681 C62 2.065 . S
C705 C84 2.037 1_554 S
C713 C279 2.088 . S
C737 C299 2.094 . S
C745 C104 2.074 . S
C769 C319 2.080 . S
C777 C124 2.056 . S
C801 C259 2.104 . S
C809 C144 2.074 . S
C833 C38 2.098 . S
C841 C162 2.073 . S
C865 C182 2.038 . S
C873 C58 2.087 . S
C897 C202 2.045 1_556 S
C905 C78 2.091 . S
C929 C222 2.037 . S
C937 C18 2.086 . S
C961 C244 2.082 . S
C969 C119 2.096 . S
C993 C139 2.099 . S
C1001 C264 2.075 . S
C1025 C159 2.102 . S
C1033 C284 2.075 1_554 S
C1057 C304 2.064 . S
C1065 C99 2.088 . S
C1089 C12 1.104 . S
C1097 C318 1.094 . S
C1121 C32 1.077 . S
C1129 C98 1.087 1_554 S
C1153 C278 1.082 . S
C1161 C52 1.078 . S
C1185 C138 1.102 . S
C1193 C72 1.085 . S
C1217 C89 1.049 . S
C1225 C239 1.093 . S
C1249 C109 1.033 . S
C1257 C19 1.073 1_556 S
C1281 C199 1.097 . S
C1289 C129 1.085 . S
C1313 C59 1.073 . S
C1321 C149 1.073 . S
C1345 C172 1.049 . S
C1353 C158 1.091 . S
C1377 C192 1.085 . S
C1385 C258 1.096 . S
C1409 C118 1.098 . S
C1417 C212 1.068 . S
C1441 C298 1.074 1_554 S
C1449 C232 1.057 . S
C1473 C249 1.051 . S
C1481 C79 1.094 . S
C1505 C269 1.032 . S
C1513 C179 1.083 . S
C1537 C289 1.034 . S
C1545 C39 1.089 . S
C1569 C219 1.076 1_556 S
C1577 C309 1.055 . S
C1601 C9 1.634 . S
C1609 C252 1.625 . S
C1633 C29 1.633 . S
C1641 C112 1.626 . S
C1665 C49 1.621 . S
C1673 C292 1.631 . S
C1697 C152 1.616 . S
C1705 C69 1.633 . S
C1729 C92 1.634 . S
C1737 C169 1.625 . S
C1761 C209 1.618 . S
C1769 C132 1.632 . S
C1793 C189 1.621 . S
C1801 C272 1.630 . S
C1825 C312 1.632 . S
C1833 C229 1.626 . S
