# Generated by pormake.
# Topology utp, (3)-cn, num edge types: 1
# Building blocks:
#     Node 0, Type 0, BuildingBlock: OLANEW_clean_sbu_2, # of connection points: 3
#     Node 1, Type 0, BuildingBlock: OLANEW_clean_sbu_2, # of connection points: 3
#     Node 2, Type 0, BuildingBlock: OLANEW_clean_sbu_2, # of connection points: 3
#     Node 3, Type 0, BuildingBlock: OLANEW_clean_sbu_2, # of connection points: 3
#     Node 4, Type 0, BuildingBlock: OLANEW_clean_sbu_2, # of connection points: 3
#     Node 5, Type 0, BuildingBlock: OLANEW_clean_sbu_2, # of connection points: 3
#     Node 6, Type 0, BuildingBlock: OLANEW_clean_sbu_2, # of connection points: 3
#     Node 7, Type 0, BuildingBlock: OLANEW_clean_sbu_2, # of connection points: 3
#     Edge 8, Type (0, 0), BuildingBlock: MIFKUJ_clean_linker_0, # of connection points: 2
#     Edge 9, Type (0, 0), BuildingBlock: MIFKUJ_clean_linker_0, # of connection points: 2
#     Edge 10, Type (0, 0), BuildingBlock: MIFKUJ_clean_linker_0, # of connection points: 2
#     Edge 11, Type (0, 0), BuildingBlock: MIFKUJ_clean_linker_0, # of connection points: 2
#     Edge 12, Type (0, 0), BuildingBlock: MIFKUJ_clean_linker_0, # of connection points: 2
#     Edge 13, Type (0, 0), BuildingBlock: MIFKUJ_clean_linker_0, # of connection points: 2
#     Edge 14, Type (0, 0), BuildingBlock: MIFKUJ_clean_linker_0, # of connection points: 2
#     Edge 15, Type (0, 0), BuildingBlock: MIFKUJ_clean_linker_0, # of connection points: 2
#     Edge 16, Type (0, 0), BuildingBlock: MIFKUJ_clean_linker_0, # of connection points: 2
#     Edge 17, Type (0, 0), BuildingBlock: MIFKUJ_clean_linker_0, # of connection points: 2
#     Edge 18, Type (0, 0), BuildingBlock: MIFKUJ_clean_linker_0, # of connection points: 2
#     Edge 19, Type (0, 0), BuildingBlock: MIFKUJ_clean_linker_0, # of connection points: 2
# Relax obj value: 0.000
# Max RMSD: 0.054
# Mean RMSD: 0.054
data_MOF--net-utp--node1-OLANEW_clean_sbu_2--edge1-MIFKUJ_clean_linker_0
_symmetry_space_group_name_H-M    P1
_symmetry_Int_Tables_number       1
_symmetry_cell_setting            triclinic
loop_
_symmetry_equiv_pos_as_xyz
'x, y, z'
_cell_length_a     53.866659
_cell_length_b     60.140241
_cell_length_c     48.153502
_cell_angle_alpha  89.986897
_cell_angle_beta   89.992213
_cell_angle_gamma 89.988251
loop_
_atom_site_label
_atom_site_type_symbol
_atom_site_fract_x
_atom_site_fract_y
_atom_site_fract_z
_atom_type_partial_charge
O0 O 0.13847 0.09127 0.18368 0.0
Cd1 Cd 0.10369 0.11437 0.16822 0.0
O2 O 0.12705 0.06425 0.15562 0.0
Cd3 Cd 0.09402 0.07875 0.13676 0.0
O4 O 0.06824 0.07074 0.10323 0.0
C5 C 0.07614 0.05554 0.08713 0.0
O6 O 0.09825 0.04707 0.09178 0.0
C7 C 0.14197 0.07196 0.17366 0.0
C8 C 0.10113 0.15549 0.19507 0.0
O9 O 0.08874 0.13875 0.20399 0.0
O10 O 0.11491 0.15272 0.17364 0.0
O11 O 0.37951 0.94338 0.21462 0.0
Cd12 Cd 0.41902 0.92369 0.20965 0.0
O13 O 0.36489 0.92971 0.17556 0.0
Cd14 Cd 0.40127 0.92021 0.15971 0.0
O15 O 0.42703 0.93051 0.1271 0.0
C16 C 0.41732 0.94326 0.10904 0.0
O17 O 0.39367 0.94832 0.11143 0.0
C18 C 0.36159 0.94077 0.19776 0.0
C19 C 0.41436 0.87903 0.22496 0.0
O20 O 0.41903 0.89409 0.24305 0.0
O21 O 0.41199 0.88506 0.19956 0.0
O22 O 0.11866 0.43813 0.32044 0.0
Cd23 Cd 0.08283 0.41721 0.33754 0.0
O24 O 0.14154 0.42643 0.35536 0.0
Cd25 Cd 0.10969 0.41619 0.38026 0.0
O26 O 0.08447 0.42467 0.41421 0.0
C27 C 0.09416 0.43547 0.43415 0.0
O28 O 0.11809 0.43968 0.43337 0.0
C29 C 0.13969 0.43666 0.33233 0.0
C30 C 0.08335 0.37394 0.31642 0.0
O31 O 0.07092 0.38937 0.30442 0.0
O32 O 0.09535 0.37891 0.33853 0.0
O33 O 0.3604 0.58427 0.31247 0.0
Cd34 Cd 0.39794 0.60503 0.32462 0.0
O35 O 0.37187 0.55628 0.33901 0.0
Cd36 Cd 0.40508 0.57031 0.35804 0.0
O37 O 0.43054 0.56445 0.39257 0.0
C38 C 0.44619 0.54875 0.39025 0.0
O39 O 0.44781 0.53812 0.36647 0.0
C40 C 0.3566 0.56482 0.32194 0.0
C41 C 0.397 0.64934 0.30724 0.0
O42 O 0.4043 0.63384 0.2909 0.0
O43 O 0.38989 0.64387 0.33171 0.0
O44 O 0.8558 0.91613 0.79833 0.0
Cd45 Cd 0.89485 0.8973 0.80938 0.0
O46 O 0.87263 0.94939 0.80137 0.0
Cd47 Cd 0.90774 0.939 0.8198 0.0
O48 O 0.93364 0.94792 0.85287 0.0
C49 C 0.92543 0.96279 0.86924 0.0
O50 O 0.90298 0.97067 0.86506 0.0
C51 C 0.85404 0.93713 0.79589 0.0
C52 C 0.89637 0.85427 0.7875 0.0
O53 O 0.88909 0.85776 0.81247 0.0
O54 O 0.90294 0.87111 0.77292 0.0
O55 O 0.62611 0.0755 0.80707 0.0
Cd56 Cd 0.58982 0.0974 0.8207 0.0
O57 O 0.60583 0.04381 0.80991 0.0
Cd58 Cd 0.57319 0.05686 0.83118 0.0
O59 O 0.54895 0.05034 0.86664 0.0
C60 C 0.55913 0.03947 0.88623 0.0
O61 O 0.58272 0.03419 0.88394 0.0
C62 C 0.62542 0.05452 0.80377 0.0
C63 C 0.59149 0.14044 0.79883 0.0
O64 O 0.59958 0.13633 0.82334 0.0
O65 O 0.58261 0.12422 0.78471 0.0
O66 O 0.8707 0.57052 0.65833 0.0
Cd67 Cd 0.90976 0.59039 0.65057 0.0
O68 O 0.8823 0.55812 0.69932 0.0
Cd69 Cd 0.92092 0.56466 0.68859 0.0
O70 O 0.94912 0.55299 0.65941 0.0
C71 C 0.9404 0.54141 0.63958 0.0
O72 O 0.91628 0.53825 0.63835 0.0
C73 C 0.86558 0.5605 0.6809 0.0
C74 C 0.90765 0.63325 0.67287 0.0
O75 O 0.90268 0.62972 0.64721 0.0
O76 O 0.91375 0.61654 0.68793 0.0
O77 O 0.63339 0.42415 0.66942 0.0
Cd78 Cd 0.59339 0.40528 0.66411 0.0
O79 O 0.61837 0.44809 0.69961 0.0
Cd80 Cd 0.58063 0.44171 0.68531 0.0
O81 O 0.55471 0.45088 0.65233 0.0
C82 C 0.56206 0.4479 0.62751 0.0
O83 O 0.58367 0.43834 0.62331 0.0
C84 C 0.63682 0.43973 0.68688 0.0
C85 C 0.59441 0.3622 0.68581 0.0
O86 O 0.59848 0.36576 0.65995 0.0
O87 O 0.58988 0.37899 0.70138 0.0
H88 H 0.06735 0.16877 0.23405 0.0
H89 H 0.06299 0.20562 0.25493 0.0
H90 H 0.1267 0.2285 0.2087 0.0
H91 H 0.13059 0.19193 0.18703 0.0
H92 H 0.08992 0.22989 0.28712 0.0
H93 H 0.12116 0.2825 0.19223 0.0
H94 H 0.12045 0.28043 0.14106 0.0
H95 H 0.0573 0.23696 0.14446 0.0
H96 H 0.05744 0.23899 0.19561 0.0
H97 H 0.11475 0.34008 0.33059 0.0
H98 H 0.11666 0.30278 0.31061 0.0
H99 H 0.05512 0.31868 0.25675 0.0
H100 H 0.05374 0.35628 0.27596 0.0
H101 H 0.08772 0.29762 0.22835 0.0
H102 H 0.04886 0.28467 0.31588 0.0
H103 H 0.04384 0.2864 0.36674 0.0
H104 H 0.11179 0.25008 0.37753 0.0
H105 H 0.11739 0.24838 0.32672 0.0
C106 C 0.08043 0.18165 0.22834 0.0
C107 C 0.0992 0.17749 0.20872 0.0
C108 C 0.07796 0.20271 0.24035 0.0
C109 C 0.09428 0.21998 0.23311 0.0
C110 C 0.11351 0.21563 0.21415 0.0
C111 C 0.1158 0.19467 0.20187 0.0
C112 C 0.09109 0.24254 0.24528 0.0
C113 C 0.08944 0.2447 0.27426 0.0
C114 C 0.08988 0.26189 0.22854 0.0
C115 C 0.08949 0.26073 0.19776 0.0
C116 C 0.10707 0.27256 0.18204 0.0
C117 C 0.10678 0.27139 0.15305 0.0
C118 C 0.08889 0.25851 0.13952 0.0
C119 C 0.0712 0.24685 0.15496 0.0
C120 C 0.0714 0.24799 0.18396 0.0
C121 C 0.10156 0.33561 0.31456 0.0
C122 C 0.08405 0.35112 0.30489 0.0
C123 C 0.10259 0.31422 0.30323 0.0
C124 C 0.08581 0.30775 0.28241 0.0
C125 C 0.06829 0.32324 0.27277 0.0
C126 C 0.06747 0.34473 0.28382 0.0
C127 C 0.08685 0.28502 0.27024 0.0
C128 C 0.08817 0.28283 0.24124 0.0
C129 C 0.08696 0.26561 0.28693 0.0
C130 C 0.08365 0.26658 0.3175 0.0
C131 C 0.06283 0.27719 0.32911 0.0
C132 C 0.05986 0.27814 0.35792 0.0
C133 C 0.07752 0.2684 0.37536 0.0
C134 C 0.09815 0.25764 0.364 0.0
C135 C 0.10121 0.25666 0.3352 0.0
H136 H 0.07519 0.26916 0.39766 0.0
H137 H 0.0887 0.25761 0.11707 0.0
H138 H 0.4118 0.84262 0.19105 0.0
H139 H 0.40797 0.80364 0.20475 0.0
H140 H 0.40651 0.82308 0.291 0.0
H141 H 0.41116 0.86202 0.27746 0.0
H142 H 0.43521 0.78878 0.28537 0.0
H143 H 0.35305 0.80656 0.25461 0.0
H144 H 0.32103 0.82039 0.22234 0.0
H145 H 0.34195 0.77085 0.16254 0.0
H146 H 0.37433 0.75691 0.19432 0.0
H147 H 0.39026 0.68631 0.3394 0.0
H148 H 0.3924 0.72526 0.32489 0.0
H149 H 0.40642 0.70471 0.24055 0.0
H150 H 0.40447 0.66568 0.25489 0.0
H151 H 0.37101 0.73916 0.24518 0.0
H152 H 0.45341 0.72175 0.27736 0.0
H153 H 0.48431 0.70795 0.31098 0.0
H154 H 0.46105 0.75725 0.36999 0.0
H155 H 0.42975 0.77115 0.33684 0.0
C156 C 0.41062 0.8386 0.21294 0.0
C157 C 0.41174 0.85542 0.23317 0.0
C158 C 0.40828 0.8163 0.22075 0.0
C159 C 0.40657 0.81039 0.24892 0.0
C160 C 0.40778 0.82719 0.26914 0.0
C161 C 0.41039 0.84946 0.26136 0.0
C162 C 0.40405 0.7867 0.25739 0.0
C163 C 0.42091 0.77806 0.27685 0.0
C164 C 0.38574 0.7725 0.24591 0.0
C165 C 0.36628 0.78084 0.22674 0.0
C166 C 0.35095 0.79873 0.23449 0.0
C167 C 0.33271 0.80657 0.2163 0.0
C168 C 0.3295 0.79655 0.19037 0.0
C169 C 0.34448 0.77862 0.18261 0.0
C170 C 0.36277 0.77073 0.20072 0.0
C171 C 0.3937 0.69006 0.31774 0.0
C172 C 0.39729 0.6729 0.29831 0.0
C173 C 0.39499 0.71232 0.30951 0.0
C174 C 0.39976 0.71784 0.2817 0.0
C175 C 0.40275 0.70078 0.26212 0.0
C176 C 0.40171 0.6785 0.27038 0.0
C177 C 0.40206 0.74143 0.27314 0.0
C178 C 0.38521 0.74998 0.25367 0.0
C179 C 0.4202 0.75562 0.2848 0.0
C180 C 0.43907 0.74734 0.30472 0.0
C181 C 0.45474 0.72952 0.29759 0.0
C182 C 0.47236 0.72171 0.31654 0.0
C183 C 0.4746 0.73168 0.34263 0.0
C184 C 0.45927 0.74952 0.34979 0.0
C185 C 0.4416 0.75739 0.33092 0.0
H186 H 0.48826 0.7256 0.35727 0.0
H187 H 0.31537 0.80263 0.17632 0.0
H188 H 0.89119 0.81485 0.81526 0.0
H189 H 0.89299 0.77724 0.79589 0.0
H190 H 0.90498 0.80451 0.71416 0.0
H191 H 0.90339 0.84218 0.73335 0.0
H192 H 0.86873 0.77062 0.71591 0.0
H193 H 0.95261 0.78369 0.74709 0.0
H194 H 0.98469 0.79375 0.78138 0.0
H195 H 0.96178 0.73968 0.83368 0.0
H196 H 0.92932 0.72947 0.79985 0.0
H197 H 0.90453 0.67276 0.64502 0.0
H198 H 0.90239 0.71012 0.66476 0.0
H199 H 0.90464 0.68233 0.74738 0.0
H200 H 0.90775 0.64497 0.7277 0.0
H201 H 0.9331 0.7167 0.74591 0.0
H202 H 0.8497 0.70297 0.71671 0.0
H203 H 0.81613 0.69262 0.68439 0.0
H204 H 0.83562 0.74714 0.63108 0.0
H205 H 0.86954 0.75764 0.66291 0.0
C206 C 0.8942 0.81285 0.79316 0.0
C207 C 0.89722 0.8315 0.77584 0.0
C208 C 0.89529 0.79136 0.78215 0.0
C209 C 0.89926 0.78812 0.75363 0.0
C210 C 0.90191 0.80668 0.73623 0.0
C211 C 0.90109 0.82817 0.74726 0.0
C212 C 0.90067 0.76536 0.74192 0.0
C213 C 0.88297 0.75887 0.72217 0.0
C214 C 0.9188 0.74989 0.75077 0.0
C215 C 0.93837 0.75596 0.77107 0.0
C216 C 0.95427 0.77406 0.76601 0.0
C217 C 0.97255 0.77977 0.78534 0.0
C218 C 0.97523 0.7674 0.80973 0.0
C219 C 0.95967 0.74926 0.8148 0.0
C220 C 0.94134 0.7435 0.79554 0.0
C221 C 0.90455 0.6746 0.66739 0.0
C222 C 0.90624 0.6559 0.6848 0.0
C223 C 0.90318 0.69599 0.67868 0.0
C224 C 0.90291 0.69909 0.70761 0.0
C225 C 0.90477 0.68041 0.72501 0.0
C226 C 0.9065 0.65904 0.71373 0.0
C227 C 0.90112 0.7218 0.71973 0.0
C228 C 0.91877 0.72834 0.7396 0.0
C229 C 0.8827 0.73722 0.71127 0.0
C230 C 0.86232 0.73095 0.69207 0.0
C231 C 0.84695 0.71265 0.69799 0.0
C232 C 0.82784 0.70677 0.67978 0.0
C233 C 0.82379 0.71918 0.65566 0.0
C234 C 0.8388 0.73752 0.64975 0.0
C235 C 0.85796 0.74346 0.66788 0.0
H236 H 0.80898 0.71461 0.64159 0.0
H237 H 0.98939 0.77184 0.82466 0.0
H238 H 0.59536 0.34982 0.74043 0.0
H239 H 0.59577 0.31203 0.75936 0.0
H240 H 0.59442 0.2852 0.67634 0.0
H241 H 0.59427 0.32294 0.6572 0.0
H242 H 0.55947 0.26565 0.71316 0.0
H243 H 0.64662 0.28352 0.70972 0.0
H244 H 0.68366 0.30631 0.71941 0.0
H245 H 0.67131 0.29917 0.80705 0.0
H246 H 0.63396 0.27658 0.79787 0.0
H247 H 0.58404 0.15309 0.74498 0.0
H248 H 0.58524 0.19067 0.72582 0.0
H249 H 0.60116 0.21699 0.80727 0.0
H250 H 0.60088 0.17931 0.82636 0.0
H251 H 0.62869 0.23728 0.7712 0.0
H252 H 0.54207 0.22047 0.77649 0.0
H253 H 0.50388 0.19876 0.76866 0.0
H254 H 0.5133 0.20517 0.68047 0.0
H255 H 0.55175 0.22668 0.68777 0.0
C256 C 0.59519 0.33589 0.72619 0.0
C257 C 0.59481 0.33936 0.69731 0.0
C258 C 0.5955 0.31432 0.73704 0.0
C259 C 0.59524 0.29586 0.71923 0.0
C260 C 0.59465 0.29926 0.69042 0.0
C261 C 0.59464 0.32081 0.67953 0.0
C262 C 0.59528 0.27298 0.73069 0.0
C263 C 0.57473 0.25929 0.72555 0.0
C264 C 0.61487 0.26502 0.74754 0.0
C265 C 0.63735 0.27855 0.7531 0.0
C266 C 0.65167 0.28698 0.73105 0.0
C267 C 0.67275 0.29982 0.73646 0.0
C268 C 0.6798 0.30424 0.76383 0.0
C269 C 0.66581 0.29576 0.78586 0.0
C270 C 0.64469 0.28292 0.78057 0.0
C271 C 0.58779 0.16688 0.75882 0.0
C272 C 0.59225 0.16323 0.78722 0.0
C273 C 0.58835 0.1884 0.74786 0.0
C274 C 0.59286 0.20677 0.76516 0.0
C275 C 0.59759 0.20312 0.79348 0.0
C276 C 0.59737 0.18157 0.8044 0.0
C277 C 0.59282 0.22976 0.7537 0.0
C278 C 0.61337 0.24354 0.75884 0.0
C279 C 0.57304 0.23792 0.73716 0.0
C280 C 0.54992 0.225 0.73268 0.0
C281 C 0.5361 0.21711 0.75542 0.0
C282 C 0.51439 0.20486 0.75108 0.0
C283 C 0.5062 0.20054 0.72408 0.0
C284 C 0.51968 0.20851 0.70137 0.0
C285 C 0.54142 0.22074 0.7056 0.0
H286 H 0.48939 0.19106 0.72077 0.0
H287 H 0.69613 0.31418 0.76797 0.0
H288 H 0.31792 0.9339 0.17047 0.0
H289 H 0.28053 0.95669 0.1726 0.0
H290 H 0.31379 0.99717 0.23648 0.0
H291 H 0.35125 0.97406 0.23492 0.0
H292 H 0.26388 0.9916 0.24531 0.0
H293 H 0.31646 0.01447 0.17093 0.0
H294 H 0.34272 0.00953 0.12945 0.0
H295 H 0.28004 0.98482 0.08384 0.0
H296 H 0.25348 0.98928 0.1252 0.0
H297 H 0.17857 0.08201 0.21168 0.0
H298 H 0.21612 0.06026 0.22178 0.0
H299 H 0.19243 0.01008 0.16357 0.0
H300 H 0.15518 0.03141 0.15345 0.0
H301 H 0.24047 0.02461 0.15454 0.0
H302 H 0.18867 1.00029 0.23113 0.0
H303 H 0.16318 0.00599 0.27307 0.0
H304 H 0.22546 0.03555 0.3147 0.0
H305 H 0.25123 0.03029 0.27283 0.0
C306 C 0.31718 0.94742 0.18531 0.0
C307 C 0.33769 0.95236 0.20225 0.0
C308 C 0.29581 0.96047 0.18645 0.0
C309 C 0.29464 0.97894 0.20423 0.0
C310 C 0.3144 0.98308 0.22249 0.0
C311 C 0.33578 0.96986 0.22154 0.0
C312 C 0.27356 0.99471 0.20206 0.0
C313 C 0.25894 0.99909 0.22557 0.0
C314 C 0.26717 0.00453 0.17631 0.0
C315 C 0.28302 0.00205 0.15125 0.0
C316 C 0.30831 0.00785 0.15211 0.0
C317 C 0.32325 0.00514 0.12861 0.0
C318 C 0.31307 0.99682 0.10404 0.0
C319 C 0.28791 0.99125 0.10289 0.0
C320 C 0.2729 0.99388 0.12636 0.0
C321 C 0.18128 0.06625 0.20125 0.0
C322 C 0.16391 0.05853 0.18166 0.0
C323 C 0.20269 0.05384 0.20708 0.0
C324 C 0.20702 0.0336 0.19336 0.0
C325 C 0.18947 0.02571 0.17429 0.0
C326 C 0.16813 0.03795 0.16859 0.0
C327 C 0.23028 0.0209 0.19753 0.0
C328 C 0.24549 0.01725 0.17434 0.0
C329 C 0.23726 0.01202 0.2236 0.0
C330 C 0.22178 0.01515 0.24874 0.0
C331 C 0.19686 0.0082 0.24913 0.0
C332 C 0.18238 0.01131 0.27291 0.0
C333 C 0.19267 0.0212 0.29651 0.0
C334 C 0.2175 0.02794 0.29639 0.0
C335 C 0.23205 0.02489 0.27265 0.0
H336 H 0.18143 0.02358 0.3149 0.0
H337 H 0.32467 0.99473 0.08587 0.0
H338 H 0.31803 0.5776 0.28785 0.0
H339 H 0.28024 0.55642 0.27724 0.0
H340 H 0.3068 0.50223 0.32791 0.0
H341 H 0.34443 0.52287 0.3381 0.0
H342 H 0.28616 0.48659 0.28191 0.0
H343 H 0.26513 0.54162 0.35245 0.0
H344 H 0.26061 0.57977 0.37057 0.0
H345 H 0.21152 0.59599 0.30328 0.0
H346 H 0.216 0.55797 0.2846 0.0
H347 H 0.18813 0.43076 0.34682 0.0
H348 H 0.22381 0.45274 0.33213 0.0
H349 H 0.17688 0.49104 0.27754 0.0
H350 H 0.14087 0.46897 0.29215 0.0
H351 H 0.20508 0.51718 0.31237 0.0
H352 H 0.21937 0.45811 0.24908 0.0
H353 H 0.22337 0.41921 0.2336 0.0
H354 H 0.28489 0.40971 0.28904 0.0
H355 H 0.28104 0.44846 0.30517 0.0
C356 C 0.31587 0.56109 0.29651 0.0
C357 C 0.33419 0.55201 0.31398 0.0
C358 C 0.29426 0.54904 0.29048 0.0
C359 C 0.29061 0.52779 0.30196 0.0
C360 C 0.30921 0.51853 0.31872 0.0
C361 C 0.33071 0.53047 0.32467 0.0
C362 C 0.2671 0.51532 0.29799 0.0
C363 C 0.2684 0.49327 0.28852 0.0
C364 C 0.2438 0.52426 0.30575 0.0
C365 C 0.24117 0.54709 0.31693 0.0
C366 C 0.25355 0.55339 0.34141 0.0
C367 C 0.25096 0.57497 0.3518 0.0
C368 C 0.23587 0.59033 0.33803 0.0
C369 C 0.22327 0.5841 0.31388 0.0
C370 C 0.22582 0.56255 0.30338 0.0
C371 C 0.18541 0.44361 0.33136 0.0
C372 C 0.16165 0.44818 0.32074 0.0
C373 C 0.20586 0.4561 0.32286 0.0
C374 C 0.20301 0.47343 0.3036 0.0
C375 C 0.17946 0.47767 0.29233 0.0
C376 C 0.15896 0.465 0.30064 0.0
C377 C 0.22436 0.48816 0.29741 0.0
C378 C 0.22266 0.51065 0.30497 0.0
C379 C 0.24734 0.47955 0.28813 0.0
C380 C 0.24983 0.45621 0.27842 0.0
C381 C 0.23365 0.4477 0.25812 0.0
C382 C 0.23591 0.42567 0.2492 0.0
C383 C 0.25436 0.41199 0.26035 0.0
C384 C 0.27061 0.42033 0.28041 0.0
C385 C 0.26843 0.44234 0.28941 0.0
H386 H 0.25607 0.39494 0.25342 0.0
H387 H 0.23388 0.60702 0.34611 0.0
H388 H 0.62919 0.01021 0.7921 0.0
H389 H 0.66689 0.98896 0.78299 0.0
H390 H 0.7102 0.0492 0.7866 0.0
H391 H 0.67244 0.07074 0.7954 0.0
H392 H 0.72684 0.02071 0.7458 0.0
H393 H 0.70561 0.017 0.84298 0.0
H394 H 0.67802 0.00974 0.88283 0.0
H395 H 0.67094 0.94149 0.85788 0.0
H396 H 0.69824 0.94844 0.81763 0.0
H397 H 0.84476 0.98126 0.78759 0.0
H398 H 0.80467 0.99918 0.78093 0.0
H399 H 0.76866 0.93511 0.7811 0.0
H400 H 0.80886 0.91695 0.78821 0.0
H401 H 0.74663 0.96316 0.81628 0.0
H402 H 0.77203 0.96623 0.72152 0.0
H403 H 0.8002 0.97388 0.68232 0.0
H404 H 0.80025 0.04335 0.70289 0.0
H405 H 0.77234 0.03608 0.74248 0.0
C406 C 0.64667 0.01904 0.79061 0.0
C407 C 0.64783 0.04217 0.79483 0.0
C408 C 0.66821 0.00683 0.78543 0.0
C409 C 0.69137 0.01745 0.78459 0.0
C410 C 0.69249 0.04068 0.78725 0.0
C411 C 0.6709 0.05295 0.79236 0.0
C412 C 0.71452 0.00418 0.78298 0.0
C413 C 0.7313 0.00823 0.76128 0.0
C414 C 0.72002 0.98754 0.80285 0.0
C415 C 0.70374 0.9833 0.82714 0.0
C416 C 0.69802 1.00049 0.84588 0.0
C417 C 0.68246 0.99642 0.86855 0.0
C418 C 0.67267 0.97518 0.87284 0.0
C419 C 0.67849 0.95794 0.8545 0.0
C420 C 0.69402 0.96193 0.83177 0.0
C421 C 0.8284 0.97089 0.78583 0.0
C422 C 0.83003 0.94764 0.78859 0.0
C423 C 0.80546 0.98119 0.78184 0.0
C424 C 0.78367 0.96849 0.78029 0.0
C425 C 0.78527 0.94523 0.78218 0.0
C426 C 0.80826 0.93487 0.78618 0.0
C427 C 0.75915 0.9797 0.77913 0.0
C428 C 0.7421 0.97537 0.80048 0.0
C429 C 0.7535 0.99609 0.75897 0.0
C430 C 0.77022 1.00057 0.73511 0.0
C431 C 0.77819 0.98312 0.71782 0.0
C432 C 0.79409 0.98739 0.6955 0.0
C433 C 0.80205 0.00908 0.69015 0.0
C434 C 0.79408 0.02655 0.70707 0.0
C435 C 0.77819 0.02237 0.72943 0.0
H436 H 0.81436 0.01236 0.67286 0.0
H437 H 0.66063 0.97207 0.89041 0.0
H438 H 0.65441 0.46331 0.73122 0.0
H439 H 0.6941 0.48286 0.73471 0.0
H440 H 0.71426 0.45932 0.65305 0.0
H441 H 0.6753 0.43877 0.65021 0.0
H442 H 0.75317 0.45943 0.68203 0.0
H443 H 0.68924 0.51348 0.66676 0.0
H444 H 0.6501 0.53345 0.67595 0.0
H445 H 0.67767 0.55407 0.75555 0.0
H446 H 0.71688 0.53397 0.74697 0.0
H447 H 0.83232 0.5493 0.64067 0.0
H448 H 0.79372 0.52832 0.64625 0.0
H449 H 0.80445 0.52704 0.73493 0.0
H450 H 0.84358 0.54753 0.72953 0.0
H451 H 0.75128 0.53968 0.70601 0.0
H452 H 0.81742 0.48432 0.71654 0.0
H453 H 0.85633 0.46652 0.70119 0.0
H454 H 0.82309 0.45095 0.62251 0.0
H455 H 0.7841 0.469 0.63728 0.0
C456 C 0.6675 0.46208 0.7142 0.0
C457 C 0.66173 0.44962 0.69038 0.0
C458 C 0.6901 0.47341 0.7161 0.0
C459 C 0.70698 0.47308 0.69384 0.0
C460 C 0.70158 0.45992 0.6705 0.0
C461 C 0.67927 0.44817 0.66888 0.0
C462 C 0.72988 0.48692 0.69434 0.0
C463 C 0.7526 0.47698 0.68719 0.0
C464 C 0.72939 0.50988 0.70116 0.0
C465 C 0.70587 0.52201 0.70636 0.0
C466 C 0.68688 0.52214 0.68631 0.0
C467 C 0.6647 0.5335 0.69139 0.0
C468 C 0.66137 0.54497 0.71635 0.0
C469 C 0.68026 0.54515 0.73625 0.0
C470 C 0.70247 0.53378 0.73128 0.0
C471 C 0.82634 0.54481 0.66141 0.0
C472 C 0.841 0.55001 0.68468 0.0
C473 C 0.80435 0.53279 0.66452 0.0
C474 C 0.79643 0.52614 0.69096 0.0
C475 C 0.81039 0.53208 0.71437 0.0
C476 C 0.83269 0.54372 0.71124 0.0
C477 C 0.77413 0.51207 0.69378 0.0
C478 C 0.75164 0.52204 0.70132 0.0
C479 C 0.77467 0.48932 0.68663 0.0
C480 C 0.79796 0.47821 0.6779 0.0
C481 C 0.8185 0.47729 0.69588 0.0
C482 C 0.84054 0.46712 0.6873 0.0
C483 C 0.8422 0.45767 0.66086 0.0
C484 C 0.82179 0.45831 0.64297 0.0
C485 C 0.79971 0.46849 0.65144 0.0
H486 H 0.85929 0.4498 0.65426 0.0
H487 H 0.64419 0.55376 0.72025 0.0
H488 H 0.97296 0.95097 0.88362 0.0
H489 H 0.99842 0.9667 0.92088 0.0
H490 H 0.93823 0.0103 0.94386 0.0
H491 H 0.91282 0.99491 0.90661 0.0
H492 H 0.98132 0.03252 0.94156 0.0
H493 H 0.9519 0.96473 0.98267 0.0
H494 H 0.94465 0.92432 0.98563 0.0
H495 H 0.02323 0.9125 0.98305 0.0
H496 H 0.03094 0.95285 0.9797 0.0
H497 H 0.02875 0.06774 0.07271 0.0
H498 H 0.00308 0.05208 0.03557 0.0
H499 H 0.06293 0.00809 0.01257 0.0
H500 H 0.0885 0.02338 0.04973 0.0
H501 H 0.01986 0.98609 0.01499 0.0
H502 H 0.04926 0.05387 0.9737 0.0
H503 H 0.05649 0.09429 0.97083 0.0
H504 H 0.97792 0.10611 0.97378 0.0
H505 H 0.97023 0.06574 0.97705 0.0
C506 C 0.96512 0.96385 0.89667 0.0
C507 C 0.94085 0.97167 0.89215 0.0
C508 C 0.97966 0.97277 0.91801 0.0
C509 C 0.97015 0.98957 0.93528 0.0
C510 C 0.94595 0.99737 0.93078 0.0
C511 C 0.93143 0.98849 0.9095 0.0
C512 C 0.98549 0.99933 0.95777 0.0
C513 C 0.98948 0.0224 0.95783 0.0
C514 C 0.99657 0.98608 0.97864 0.0
C515 C 0.99198 0.9618 0.98064 0.0
C516 C 0.96763 0.95351 0.98249 0.0
C517 C 0.96344 0.93061 0.98429 0.0
C518 C 0.98347 0.91585 0.98445 0.0
C519 C 0.00774 0.92395 0.98288 0.0
C520 C 0.01203 0.94683 0.98105 0.0
C521 C 0.03646 0.0548 0.05967 0.0
C522 C 0.06067 0.04683 0.06418 0.0
C523 C 0.02181 0.04591 0.0384 0.0
C524 C 0.03116 0.02901 0.02117 0.0
C525 C 0.05532 0.02109 0.02563 0.0
C526 C 0.06994 0.02992 0.04686 0.0
C527 C 0.01572 0.01927 0.99876 0.0
C528 C 0.01169 0.9962 0.99872 0.0
C529 C 0.00461 0.03253 0.9779 0.0
C530 C 0.00918 0.0568 0.97591 0.0
C531 C 0.03353 0.0651 0.97397 0.0
C532 C 0.03771 0.088 0.97223 0.0
C533 C 0.01768 0.10276 0.9722 0.0
C534 C 0.99342 0.09465 0.97385 0.0
C535 C 0.98914 0.07177 0.97563 0.0
H536 H 0.02096 0.12048 0.97084 0.0
H537 H 0.98018 0.89813 0.98586 0.0
H538 H 0.40103 0.96984 0.06696 0.0
H539 H 0.42537 0.98648 0.02967 0.0
H540 H 0.49155 0.95523 0.06162 0.0
H541 H 0.46728 0.93859 0.09934 0.0
H542 H 0.49931 0.99883 0.04852 0.0
H543 H 0.46378 0.9349 0.00423 0.0
H544 H 0.4301 0.9096 0.98996 0.0
H545 H 0.39516 0.96264 0.94481 0.0
H546 H 0.42847 0.98835 0.95914 0.0
H547 H 0.57586 0.01553 0.93055 0.0
H548 H 0.55167 1.00035 0.96891 0.0
H549 H 0.48531 0.03011 0.93523 0.0
H550 H 0.5094 0.04515 0.89638 0.0
H551 H 0.47751 0.98753 0.94941 0.0
H552 H 0.51309 0.05145 0.99321 0.0
H553 H 0.54662 0.07688 0.0075 0.0
H554 H 0.5813 0.02421 0.05355 0.0
H555 H 0.54814 0.99837 0.03922 0.0
C556 C 0.42075 0.9664 0.06607 0.0
C557 C 0.4322 0.95282 0.08611 0.0
C558 C 0.43463 0.97589 0.04465 0.0
C559 C 0.46023 0.97192 0.0427 0.0
C560 C 0.47179 0.95847 0.06273 0.0
C561 C 0.45789 0.94891 0.0842 0.0
C562 C 0.4749 0.98211 0.01994 0.0
C563 C 0.49479 0.99612 0.02683 0.0
C564 C 0.46854 0.97904 0.99168 0.0
C565 C 0.4485 0.9636 0.98299 0.0
C566 C 0.44881 0.94122 0.99145 0.0
C567 C 0.4298 0.9268 0.98331 0.0
C568 C 0.41047 0.93452 0.96655 0.0
C569 C 0.41013 0.95668 0.95783 0.0
C570 C 0.42908 0.97118 0.96593 0.0
C571 C 0.55615 0.01902 0.93135 0.0
C572 C 0.54456 0.03156 0.91037 0.0
C573 C 0.54236 0.01039 0.9534 0.0
C574 C 0.51671 0.01426 0.95509 0.0
C575 C 0.50509 0.02695 0.93434 0.0
C576 C 0.5189 0.03559 0.91221 0.0
C577 C 0.50194 0.00429 0.97796 0.0
C578 C 0.48203 0.9903 0.97109 0.0
C579 C 0.50827 0.00741 0.00623 0.0
C580 C 0.52824 0.02292 0.01492 0.0
C581 C 0.52797 0.04524 0.00619 0.0
C582 C 0.54689 0.05974 0.01434 0.0
C583 C 0.56612 0.05216 0.03137 0.0
C584 C 0.56642 0.03006 0.04034 0.0
C585 C 0.54755 0.01548 0.03223 0.0
H586 H 0.58075 0.06341 0.03765 0.0
H587 H 0.39578 0.92333 0.96027 0.0
H588 H 0.9913 0.54263 0.63695 0.0
H589 H 0.0181 0.52409 0.60301 0.0
H590 H 0.95352 0.4981 0.56116 0.0
H591 H 0.9267 0.51624 0.59509 0.0
H592 H 0.98781 0.46643 0.56768 0.0
H593 H 0.98621 0.54181 0.5344 0.0
H594 H 0.99119 0.58248 0.53772 0.0
H595 H 0.06836 0.57423 0.55756 0.0
H596 H 0.06376 0.53347 0.55472 0.0
H597 H 0.04359 0.43312 0.44012 0.0
H598 H 0.01821 0.45035 0.47635 0.0
H599 H 0.08434 0.47552 0.51589 0.0
H600 H 0.10978 0.45867 0.4796 0.0
H601 H 0.05013 0.50732 0.5116 0.0
H602 H 0.05191 0.43182 0.54359 0.0
H603 H 0.04682 0.39118 0.54001 0.0
H604 H 0.96924 0.3996 0.52242 0.0
H605 H 0.97394 0.44033 0.52552 0.0
C606 C 0.98282 0.53303 0.62046 0.0
C607 C 0.95686 0.53094 0.61872 0.0
C608 C 0.99815 0.5225 0.60103 0.0
C609 C 0.9878 0.50982 0.57942 0.0
C610 C 0.96192 0.50774 0.57767 0.0
C611 C 0.94661 0.51822 0.59706 0.0
C612 C 0.00385 0.49846 0.55876 0.0
C613 C 0.00125 0.47541 0.55518 0.0
C614 C 0.02177 0.51009 0.54292 0.0
C615 C 0.02458 0.53458 0.54464 0.0
C616 C 0.00419 0.54866 0.5397 0.0
C617 C 0.00695 0.57173 0.54145 0.0
C618 C 0.03005 0.58093 0.54793 0.0
C619 C 0.05046 0.56708 0.55259 0.0
C620 C 0.0478 0.54399 0.55089 0.0
C621 C 0.05274 0.44216 0.45665 0.0
C622 C 0.07871 0.44453 0.45695 0.0
C623 C 0.03821 0.45195 0.4774 0.0
C624 C 0.04939 0.46411 0.49895 0.0
C625 C 0.07532 0.46625 0.49945 0.0
C626 C 0.08983 0.45653 0.47871 0.0
C627 C 0.03405 0.47528 0.52044 0.0
C628 C 0.03677 0.49831 0.52416 0.0
C629 C 0.01622 0.46363 0.53638 0.0
C630 C 0.01334 0.43914 0.53452 0.0
C631 C 0.03381 0.42502 0.53873 0.0
C632 C 0.03098 0.40196 0.53683 0.0
C633 C 0.00773 0.39281 0.53092 0.0
C634 C 0.98724 0.40671 0.52696 0.0
C635 C 0.98997 0.42978 0.52881 0.0
H636 H 0.00558 0.37496 0.52947 0.0
H637 H 0.03216 0.5988 0.54926 0.0
H638 H 0.44046 0.56134 0.44452 0.0
H639 H 0.45993 0.54477 0.48538 0.0
H640 H 0.50267 0.50125 0.43255 0.0
H641 H 0.48281 0.51736 0.39163 0.0
H642 H 0.48231 0.47828 0.4728 0.0
H643 H 0.52922 0.54587 0.46774 0.0
H644 H 0.53569 0.58639 0.46499 0.0
H645 H 0.4978 0.59501 0.5427 0.0
H646 H 0.49081 0.55454 0.54575 0.0
H647 H 0.56994 0.44017 0.57241 0.0
H648 H 0.54899 0.45754 0.533 0.0
H649 H 0.50159 0.49387 0.58913 0.0
H650 H 0.52246 0.47651 0.62882 0.0
H651 H 0.52313 0.52061 0.54848 0.0
H652 H 0.47761 0.45225 0.55355 0.0
H653 H 0.47237 0.41156 0.55596 0.0
H654 H 0.50932 0.40439 0.47746 0.0
H655 H 0.51509 0.44502 0.47475 0.0
C656 C 0.45425 0.54845 0.44156 0.0
C657 C 0.46004 0.54064 0.4148 0.0
C658 C 0.46542 0.53901 0.46497 0.0
C659 C 0.48288 0.52181 0.46207 0.0
C660 C 0.48919 0.51444 0.43532 0.0
C661 C 0.47789 0.52374 0.41193 0.0
C662 C 0.49366 0.51074 0.48688 0.0
C663 C 0.49155 0.48753 0.48914 0.0
C664 C 0.50511 0.52284 0.50861 0.0
C665 C 0.50926 0.54719 0.50682 0.0
C666 C 0.52208 0.55642 0.48413 0.0
C667 C 0.52588 0.57938 0.48254 0.0
C668 C 0.5171 0.59327 0.50362 0.0
C669 C 0.50456 0.58423 0.52637 0.0
C670 C 0.50069 0.56128 0.52805 0.0
C671 C 0.5549 0.45169 0.57641 0.0
C672 C 0.54787 0.45697 0.60375 0.0
C673 C 0.54291 0.46156 0.55385 0.0
C674 C 0.5237 0.47694 0.55816 0.0
C675 C 0.51639 0.48205 0.5854 0.0
C676 C 0.52824 0.47202 0.60802 0.0
C677 C 0.51192 0.48822 0.53417 0.0
C678 C 0.51383 0.51143 0.53211 0.0
C679 C 0.50045 0.47612 0.51252 0.0
C680 C 0.49698 0.45167 0.51408 0.0
C681 C 0.48481 0.44198 0.53691 0.0
C682 C 0.4817 0.41893 0.53831 0.0
C683 C 0.49056 0.40539 0.51691 0.0
C684 C 0.50249 0.41489 0.49403 0.0
C685 C 0.50566 0.43793 0.49254 0.0
H686 H 0.48814 0.38755 0.51803 0.0
H687 H 0.52007 0.61104 0.50235 0.0
loop_
_geom_bond_atom_site_label_1
_geom_bond_atom_site_label_2
_geom_bond_distance
_geom_bond_site_symmetry_2
_ccdc_geom_bond_type
O0 Cd1 2.300 . S
O0 C7 1.275 . S
Cd1 O0 2.300 . S
Cd1 O9 2.381 . S
Cd1 O10 2.378 . S
O2 Cd3 2.385 . S
O2 C7 1.255 . S
Cd3 O2 2.385 . S
Cd3 O4 2.317 . S
O4 Cd3 2.317 . S
O4 C5 1.232 . S
C5 O4 1.232 . S
C5 O6 1.218 . S
O6 C5 1.218 . S
C7 O0 1.275 . S
C7 O2 1.255 . S
C8 O9 1.258 . S
C8 O10 1.256 . S
O9 Cd1 2.381 . S
O9 C8 1.258 . S
O10 Cd1 2.378 . S
O10 C8 1.256 . S
O11 Cd12 2.300 . S
O11 C18 1.275 . S
Cd12 O11 2.300 . S
Cd12 O20 2.381 . S
Cd12 O21 2.378 . S
O13 Cd14 2.385 . S
O13 C18 1.255 . S
Cd14 O13 2.385 . S
Cd14 O15 2.317 . S
O15 Cd14 2.317 . S
O15 C16 1.232 . S
C16 O15 1.232 . S
C16 O17 1.218 . S
O17 C16 1.218 . S
C18 O11 1.275 . S
C18 O13 1.255 . S
C19 O20 1.258 . S
C19 O21 1.256 . S
O20 Cd12 2.381 . S
O20 C19 1.258 . S
O21 Cd12 2.378 . S
O21 C19 1.256 . S
O22 Cd23 2.300 . S
O22 C29 1.275 . S
Cd23 O22 2.300 . S
Cd23 O31 2.381 . S
Cd23 O32 2.378 . S
O24 Cd25 2.385 . S
O24 C29 1.255 . S
Cd25 O24 2.385 . S
Cd25 O26 2.317 . S
O26 Cd25 2.317 . S
O26 C27 1.232 . S
C27 O26 1.232 . S
C27 O28 1.218 . S
O28 C27 1.218 . S
C29 O22 1.275 . S
C29 O24 1.255 . S
C30 O31 1.258 . S
C30 O32 1.256 . S
O31 Cd23 2.381 . S
O31 C30 1.258 . S
O32 Cd23 2.378 . S
O32 C30 1.256 . S
O33 Cd34 2.300 . S
O33 C40 1.275 . S
Cd34 O33 2.300 . S
Cd34 O42 2.381 . S
Cd34 O43 2.378 . S
O35 Cd36 2.385 . S
O35 C40 1.255 . S
Cd36 O35 2.385 . S
Cd36 O37 2.317 . S
O37 Cd36 2.317 . S
O37 C38 1.232 . S
C38 O37 1.232 . S
C38 O39 1.218 . S
O39 C38 1.218 . S
C40 O33 1.275 . S
C40 O35 1.255 . S
C41 O42 1.258 . S
C41 O43 1.256 . S
O42 Cd34 2.381 . S
O42 C41 1.258 . S
O43 Cd34 2.378 . S
O43 C41 1.256 . S
O44 Cd45 2.300 . S
O44 C51 1.275 . S
Cd45 O44 2.300 . S
Cd45 O53 2.381 . S
Cd45 O54 2.378 . S
O46 Cd47 2.385 . S
O46 C51 1.255 . S
Cd47 O46 2.385 . S
Cd47 O48 2.317 . S
O48 Cd47 2.317 . S
O48 C49 1.232 . S
C49 O48 1.232 . S
C49 O50 1.218 . S
O50 C49 1.218 . S
C51 O44 1.275 . S
C51 O46 1.255 . S
C52 O53 1.258 . S
C52 O54 1.256 . S
O53 Cd45 2.381 . S
O53 C52 1.258 . S
O54 Cd45 2.378 . S
O54 C52 1.256 . S
O55 Cd56 2.300 . S
O55 C62 1.275 . S
Cd56 O55 2.300 . S
Cd56 O64 2.381 . S
Cd56 O65 2.378 . S
O57 Cd58 2.385 . S
O57 C62 1.255 . S
Cd58 O57 2.385 . S
Cd58 O59 2.317 . S
O59 Cd58 2.317 . S
O59 C60 1.232 . S
C60 O59 1.232 . S
C60 O61 1.218 . S
O61 C60 1.218 . S
C62 O55 1.275 . S
C62 O57 1.255 . S
C63 O64 1.258 . S
C63 O65 1.256 . S
O64 Cd56 2.381 . S
O64 C63 1.258 . S
O65 Cd56 2.378 . S
O65 C63 1.256 . S
O66 Cd67 2.300 . S
O66 C73 1.275 . S
Cd67 O66 2.300 . S
Cd67 O75 2.381 . S
Cd67 O76 2.378 . S
O68 Cd69 2.385 . S
O68 C73 1.255 . S
Cd69 O68 2.385 . S
Cd69 O70 2.317 . S
O70 Cd69 2.317 . S
O70 C71 1.232 . S
C71 O70 1.232 . S
C71 O72 1.218 . S
O72 C71 1.218 . S
C73 O66 1.275 . S
C73 O68 1.255 . S
C74 O75 1.258 . S
C74 O76 1.256 . S
O75 Cd67 2.381 . S
O75 C74 1.258 . S
O76 Cd67 2.378 . S
O76 C74 1.256 . S
O77 Cd78 2.300 . S
O77 C84 1.275 . S
Cd78 O77 2.300 . S
Cd78 O86 2.381 . S
Cd78 O87 2.378 . S
O79 Cd80 2.385 . S
O79 C84 1.255 . S
Cd80 O79 2.385 . S
Cd80 O81 2.317 . S
O81 Cd80 2.317 . S
O81 C82 1.232 . S
C82 O81 1.232 . S
C82 O83 1.218 . S
O83 C82 1.218 . S
C84 O77 1.275 . S
C84 O79 1.255 . S
C85 O86 1.258 . S
C85 O87 1.256 . S
O86 Cd78 2.381 . S
O86 C85 1.258 . S
O87 Cd78 2.378 . S
O87 C85 1.256 . S
H88 C106 0.951 . S
H89 C108 0.951 . S
H90 C110 0.950 . S
H91 C111 0.950 . S
H92 C113 0.950 . S
H93 C116 0.950 . S
H94 C117 0.950 . S
H95 C119 0.950 . S
H96 C120 0.950 . S
H97 C121 0.951 . S
H98 C123 0.951 . S
H99 C125 0.950 . S
H100 C126 0.950 . S
H101 C128 0.950 . S
H102 C131 0.950 . S
H103 C132 0.950 . S
H104 C134 0.950 . S
H105 C135 0.950 . S
C106 H88 0.951 . S
C106 C107 1.366 . S
C106 C108 1.388 . S
C107 C106 1.366 . S
C107 C111 1.385 . S
C108 H89 0.951 . S
C108 C106 1.388 . S
C108 C109 1.366 . S
C109 C108 1.366 . S
C109 C110 1.414 . S
C109 C112 1.499 . S
C110 H90 0.950 . S
C110 C109 1.414 . S
C110 C111 1.374 . S
C111 H91 0.950 . S
C111 C107 1.385 . S
C111 C110 1.374 . S
C112 C109 1.499 . S
C112 C113 1.373 . S
C112 C114 1.389 . S
C113 H92 0.950 . S
C113 C112 1.373 . S
C113 C129 1.377 . S
C114 C112 1.389 . S
C114 C115 1.524 . S
C114 C128 1.377 . S
C115 C114 1.524 . S
C115 C116 1.397 . S
C115 C120 1.363 . S
C116 H93 0.950 . S
C116 C115 1.397 . S
C116 C117 1.334 . S
C117 H94 0.950 . S
C117 C116 1.334 . S
C117 C118 1.287 . S
C118 C117 1.287 . S
C118 C119 1.524 . S
C118 H137 0.913 . S
C119 H95 0.950 . S
C119 C118 1.524 . S
C119 C120 1.415 . S
C120 H96 0.950 . S
C120 C115 1.363 . S
C120 C119 1.415 . S
C121 H97 0.951 . S
C121 C122 1.366 . S
C121 C123 1.388 . S
C122 C121 1.366 . S
C122 C126 1.385 . S
C123 H98 0.951 . S
C123 C121 1.388 . S
C123 C124 1.366 . S
C124 C123 1.366 . S
C124 C125 1.414 . S
C124 C127 1.499 . S
C125 H99 0.950 . S
C125 C124 1.414 . S
C125 C126 1.374 . S
C126 H100 0.950 . S
C126 C122 1.385 . S
C126 C125 1.374 . S
C127 C124 1.499 . S
C127 C128 1.373 . S
C127 C129 1.389 . S
C128 H101 0.950 . S
C128 C114 1.377 . S
C128 C127 1.373 . S
C129 C113 1.377 . S
C129 C127 1.389 . S
C129 C130 1.524 . S
C130 C129 1.524 . S
C130 C131 1.397 . S
C130 C135 1.363 . S
C131 H102 0.950 . S
C131 C130 1.397 . S
C131 C132 1.334 . S
C132 H103 0.950 . S
C132 C131 1.334 . S
C132 C133 1.287 . S
C133 C132 1.287 . S
C133 C134 1.524 . S
C133 H136 0.999 . S
C134 H104 0.950 . S
C134 C133 1.524 . S
C134 C135 1.415 . S
C135 H105 0.950 . S
C135 C130 1.363 . S
C135 C134 1.415 . S
H136 C133 0.999 . S
H137 C118 0.913 . S
H138 C156 0.951 . S
H139 C158 0.951 . S
H140 C160 0.950 . S
H141 C161 0.950 . S
H142 C163 0.950 . S
H143 C166 0.950 . S
H144 C167 0.950 . S
H145 C169 0.950 . S
H146 C170 0.950 . S
H147 C171 0.951 . S
H148 C173 0.951 . S
H149 C175 0.950 . S
H150 C176 0.950 . S
H151 C178 0.950 . S
H152 C181 0.950 . S
H153 C182 0.950 . S
H154 C184 0.950 . S
H155 C185 0.950 . S
C156 H138 0.951 . S
C156 C157 1.366 . S
C156 C158 1.388 . S
C157 C156 1.366 . S
C157 C161 1.385 . S
C158 H139 0.951 . S
C158 C156 1.388 . S
C158 C159 1.366 . S
C159 C158 1.366 . S
C159 C160 1.414 . S
C159 C162 1.499 . S
C160 H140 0.950 . S
C160 C159 1.414 . S
C160 C161 1.374 . S
C161 H141 0.950 . S
C161 C157 1.385 . S
C161 C160 1.374 . S
C162 C159 1.499 . S
C162 C163 1.373 . S
C162 C164 1.389 . S
C163 H142 0.950 . S
C163 C162 1.373 . S
C163 C179 1.377 . S
C164 C162 1.389 . S
C164 C165 1.524 . S
C164 C178 1.377 . S
C165 C164 1.524 . S
C165 C166 1.397 . S
C165 C170 1.363 . S
C166 H143 0.950 . S
C166 C165 1.397 . S
C166 C167 1.334 . S
C167 H144 0.950 . S
C167 C166 1.334 . S
C167 C168 1.287 . S
C168 C167 1.287 . S
C168 C169 1.524 . S
C168 H187 0.913 . S
C169 H145 0.950 . S
C169 C168 1.524 . S
C169 C170 1.415 . S
C170 H146 0.950 . S
C170 C165 1.363 . S
C170 C169 1.415 . S
C171 H147 0.951 . S
C171 C172 1.366 . S
C171 C173 1.388 . S
C172 C171 1.366 . S
C172 C176 1.385 . S
C173 H148 0.951 . S
C173 C171 1.388 . S
C173 C174 1.366 . S
C174 C173 1.366 . S
C174 C175 1.414 . S
C174 C177 1.499 . S
C175 H149 0.950 . S
C175 C174 1.414 . S
C175 C176 1.374 . S
C176 H150 0.950 . S
C176 C172 1.385 . S
C176 C175 1.374 . S
C177 C174 1.499 . S
C177 C178 1.373 . S
C177 C179 1.389 . S
C178 H151 0.950 . S
C178 C164 1.377 . S
C178 C177 1.373 . S
C179 C163 1.377 . S
C179 C177 1.389 . S
C179 C180 1.524 . S
C180 C179 1.524 . S
C180 C181 1.397 . S
C180 C185 1.363 . S
C181 H152 0.950 . S
C181 C180 1.397 . S
C181 C182 1.334 . S
C182 H153 0.950 . S
C182 C181 1.334 . S
C182 C183 1.287 . S
C183 C182 1.287 . S
C183 C184 1.524 . S
C183 H186 0.999 . S
C184 H154 0.950 . S
C184 C183 1.524 . S
C184 C185 1.415 . S
C185 H155 0.950 . S
C185 C180 1.363 . S
C185 C184 1.415 . S
H186 C183 0.999 . S
H187 C168 0.913 . S
H188 C206 0.951 . S
H189 C208 0.951 . S
H190 C210 0.950 . S
H191 C211 0.950 . S
H192 C213 0.950 . S
H193 C216 0.950 . S
H194 C217 0.950 . S
H195 C219 0.950 . S
H196 C220 0.950 . S
H197 C221 0.951 . S
H198 C223 0.951 . S
H199 C225 0.950 . S
H200 C226 0.950 . S
H201 C228 0.950 . S
H202 C231 0.950 . S
H203 C232 0.950 . S
H204 C234 0.950 . S
H205 C235 0.950 . S
C206 H188 0.951 . S
C206 C207 1.366 . S
C206 C208 1.388 . S
C207 C206 1.366 . S
C207 C211 1.385 . S
C208 H189 0.951 . S
C208 C206 1.388 . S
C208 C209 1.366 . S
C209 C208 1.366 . S
C209 C210 1.414 . S
C209 C212 1.499 . S
C210 H190 0.950 . S
C210 C209 1.414 . S
C210 C211 1.374 . S
C211 H191 0.950 . S
C211 C207 1.385 . S
C211 C210 1.374 . S
C212 C209 1.499 . S
C212 C213 1.373 . S
C212 C214 1.389 . S
C213 H192 0.950 . S
C213 C212 1.373 . S
C213 C229 1.377 . S
C214 C212 1.389 . S
C214 C215 1.524 . S
C214 C228 1.377 . S
C215 C214 1.524 . S
C215 C216 1.397 . S
C215 C220 1.363 . S
C216 H193 0.950 . S
C216 C215 1.397 . S
C216 C217 1.334 . S
C217 H194 0.950 . S
C217 C216 1.334 . S
C217 C218 1.287 . S
C218 C217 1.287 . S
C218 C219 1.524 . S
C218 H237 0.913 . S
C219 H195 0.950 . S
C219 C218 1.524 . S
C219 C220 1.415 . S
C220 H196 0.950 . S
C220 C215 1.363 . S
C220 C219 1.415 . S
C221 H197 0.951 . S
C221 C222 1.366 . S
C221 C223 1.388 . S
C222 C221 1.366 . S
C222 C226 1.385 . S
C223 H198 0.951 . S
C223 C221 1.388 . S
C223 C224 1.366 . S
C224 C223 1.366 . S
C224 C225 1.414 . S
C224 C227 1.499 . S
C225 H199 0.950 . S
C225 C224 1.414 . S
C225 C226 1.374 . S
C226 H200 0.950 . S
C226 C222 1.385 . S
C226 C225 1.374 . S
C227 C224 1.499 . S
C227 C228 1.373 . S
C227 C229 1.389 . S
C228 H201 0.950 . S
C228 C214 1.377 . S
C228 C227 1.373 . S
C229 C213 1.377 . S
C229 C227 1.389 . S
C229 C230 1.524 . S
C230 C229 1.524 . S
C230 C231 1.397 . S
C230 C235 1.363 . S
C231 H202 0.950 . S
C231 C230 1.397 . S
C231 C232 1.334 . S
C232 H203 0.950 . S
C232 C231 1.334 . S
C232 C233 1.287 . S
C233 C232 1.287 . S
C233 C234 1.524 . S
C233 H236 0.999 . S
C234 H204 0.950 . S
C234 C233 1.524 . S
C234 C235 1.415 . S
C235 H205 0.950 . S
C235 C230 1.363 . S
C235 C234 1.415 . S
H236 C233 0.999 . S
H237 C218 0.913 . S
H238 C256 0.951 . S
H239 C258 0.951 . S
H240 C260 0.950 . S
H241 C261 0.950 . S
H242 C263 0.950 . S
H243 C266 0.950 . S
H244 C267 0.950 . S
H245 C269 0.950 . S
H246 C270 0.950 . S
H247 C271 0.951 . S
H248 C273 0.951 . S
H249 C275 0.950 . S
H250 C276 0.950 . S
H251 C278 0.950 . S
H252 C281 0.950 . S
H253 C282 0.950 . S
H254 C284 0.950 . S
H255 C285 0.950 . S
C256 H238 0.951 . S
C256 C257 1.366 . S
C256 C258 1.388 . S
C257 C256 1.366 . S
C257 C261 1.385 . S
C258 H239 0.951 . S
C258 C256 1.388 . S
C258 C259 1.366 . S
C259 C258 1.366 . S
C259 C260 1.414 . S
C259 C262 1.499 . S
C260 H240 0.950 . S
C260 C259 1.414 . S
C260 C261 1.374 . S
C261 H241 0.950 . S
C261 C257 1.385 . S
C261 C260 1.374 . S
C262 C259 1.499 . S
C262 C263 1.373 . S
C262 C264 1.389 . S
C263 H242 0.950 . S
C263 C262 1.373 . S
C263 C279 1.377 . S
C264 C262 1.389 . S
C264 C265 1.524 . S
C264 C278 1.377 . S
C265 C264 1.524 . S
C265 C266 1.397 . S
C265 C270 1.363 . S
C266 H243 0.950 . S
C266 C265 1.397 . S
C266 C267 1.334 . S
C267 H244 0.950 . S
C267 C266 1.334 . S
C267 C268 1.287 . S
C268 C267 1.287 . S
C268 C269 1.524 . S
C268 H287 0.913 . S
C269 H245 0.950 . S
C269 C268 1.524 . S
C269 C270 1.415 . S
C270 H246 0.950 . S
C270 C265 1.363 . S
C270 C269 1.415 . S
C271 H247 0.951 . S
C271 C272 1.366 . S
C271 C273 1.388 . S
C272 C271 1.366 . S
C272 C276 1.385 . S
C273 H248 0.951 . S
C273 C271 1.388 . S
C273 C274 1.366 . S
C274 C273 1.366 . S
C274 C275 1.414 . S
C274 C277 1.499 . S
C275 H249 0.950 . S
C275 C274 1.414 . S
C275 C276 1.374 . S
C276 H250 0.950 . S
C276 C272 1.385 . S
C276 C275 1.374 . S
C277 C274 1.499 . S
C277 C278 1.373 . S
C277 C279 1.389 . S
C278 H251 0.950 . S
C278 C264 1.377 . S
C278 C277 1.373 . S
C279 C263 1.377 . S
C279 C277 1.389 . S
C279 C280 1.524 . S
C280 C279 1.524 . S
C280 C281 1.397 . S
C280 C285 1.363 . S
C281 H252 0.950 . S
C281 C280 1.397 . S
C281 C282 1.334 . S
C282 H253 0.950 . S
C282 C281 1.334 . S
C282 C283 1.287 . S
C283 C282 1.287 . S
C283 C284 1.524 . S
C283 H286 0.999 . S
C284 H254 0.950 . S
C284 C283 1.524 . S
C284 C285 1.415 . S
C285 H255 0.950 . S
C285 C280 1.363 . S
C285 C284 1.415 . S
H286 C283 0.999 . S
H287 C268 0.913 . S
H288 C306 0.951 . S
H289 C308 0.951 . S
H290 C310 0.950 . S
H291 C311 0.950 . S
H292 C313 0.950 . S
H293 C316 0.948 . S
H294 C317 0.950 . S
H295 C319 0.950 . S
H296 C320 0.950 . S
H297 C321 0.951 . S
H298 C323 0.951 . S
H299 C325 0.950 . S
H300 C326 0.950 . S
H301 C328 0.950 . S
H302 C331 0.948 . S
H303 C332 0.950 . S
H304 C334 0.950 . S
H305 C335 0.950 . S
C306 H288 0.951 . S
C306 C307 1.366 . S
C306 C308 1.388 . S
C307 C306 1.366 . S
C307 C311 1.385 . S
C308 H289 0.951 . S
C308 C306 1.388 . S
C308 C309 1.366 . S
C309 C308 1.366 . S
C309 C310 1.414 . S
C309 C312 1.499 . S
C310 H290 0.950 . S
C310 C309 1.414 . S
C310 C311 1.374 . S
C311 H291 0.950 . S
C311 C307 1.385 . S
C311 C310 1.374 . S
C312 C309 1.499 . S
C312 C313 1.373 . S
C312 C314 1.389 . S
C313 H292 0.950 . S
C313 C312 1.373 . S
C313 C329 1.377 1_565 S
C314 C312 1.389 . S
C314 C315 1.524 . S
C314 C328 1.377 1_565 S
C315 C314 1.524 . S
C315 C316 1.397 . S
C315 C320 1.363 . S
C316 H293 0.948 . S
C316 C315 1.397 . S
C316 C317 1.334 . S
C317 H294 0.950 . S
C317 C316 1.334 . S
C317 C318 1.287 . S
C318 C317 1.287 . S
C318 C319 1.524 . S
C318 H337 0.913 . S
C319 H295 0.950 . S
C319 C318 1.524 . S
C319 C320 1.415 . S
C320 H296 0.950 . S
C320 C315 1.363 . S
C320 C319 1.415 . S
C321 H297 0.951 . S
C321 C322 1.366 . S
C321 C323 1.388 . S
C322 C321 1.366 . S
C322 C326 1.385 . S
C323 H298 0.951 . S
C323 C321 1.388 . S
C323 C324 1.366 . S
C324 C323 1.366 . S
C324 C325 1.414 . S
C324 C327 1.499 . S
C325 H299 0.950 . S
C325 C324 1.414 . S
C325 C326 1.374 . S
C326 H300 0.950 . S
C326 C322 1.385 . S
C326 C325 1.374 . S
C327 C324 1.499 . S
C327 C328 1.373 . S
C327 C329 1.389 . S
C328 H301 0.950 . S
C328 C314 1.377 1_545 S
C328 C327 1.373 . S
C329 C313 1.377 1_545 S
C329 C327 1.389 . S
C329 C330 1.524 . S
C330 C329 1.524 . S
C330 C331 1.397 . S
C330 C335 1.363 . S
C331 H302 0.948 . S
C331 C330 1.397 . S
C331 C332 1.334 . S
C332 H303 0.950 . S
C332 C331 1.334 . S
C332 C333 1.287 . S
C333 C332 1.287 . S
C333 C334 1.524 . S
C333 H336 0.999 . S
C334 H304 0.950 . S
C334 C333 1.524 . S
C334 C335 1.415 . S
C335 H305 0.950 . S
C335 C330 1.363 . S
C335 C334 1.415 . S
H336 C333 0.999 . S
H337 C318 0.913 . S
H338 C356 0.951 . S
H339 C358 0.951 . S
H340 C360 0.950 . S
H341 C361 0.950 . S
H342 C363 0.950 . S
H343 C366 0.950 . S
H344 C367 0.950 . S
H345 C369 0.950 . S
H346 C370 0.950 . S
H347 C371 0.951 . S
H348 C373 0.951 . S
H349 C375 0.950 . S
H350 C376 0.950 . S
H351 C378 0.950 . S
H352 C381 0.950 . S
H353 C382 0.950 . S
H354 C384 0.950 . S
H355 C385 0.950 . S
C356 H338 0.951 . S
C356 C357 1.366 . S
C356 C358 1.388 . S
C357 C356 1.366 . S
C357 C361 1.385 . S
C358 H339 0.951 . S
C358 C356 1.388 . S
C358 C359 1.366 . S
C359 C358 1.366 . S
C359 C360 1.414 . S
C359 C362 1.499 . S
C360 H340 0.950 . S
C360 C359 1.414 . S
C360 C361 1.374 . S
C361 H341 0.950 . S
C361 C357 1.385 . S
C361 C360 1.374 . S
C362 C359 1.499 . S
C362 C363 1.373 . S
C362 C364 1.389 . S
C363 H342 0.950 . S
C363 C362 1.373 . S
C363 C379 1.377 . S
C364 C362 1.389 . S
C364 C365 1.524 . S
C364 C378 1.377 . S
C365 C364 1.524 . S
C365 C366 1.397 . S
C365 C370 1.363 . S
C366 H343 0.950 . S
C366 C365 1.397 . S
C366 C367 1.334 . S
C367 H344 0.950 . S
C367 C366 1.334 . S
C367 C368 1.287 . S
C368 C367 1.287 . S
C368 C369 1.524 . S
C368 H387 0.913 . S
C369 H345 0.950 . S
C369 C368 1.524 . S
C369 C370 1.415 . S
C370 H346 0.950 . S
C370 C365 1.363 . S
C370 C369 1.415 . S
C371 H347 0.951 . S
C371 C372 1.366 . S
C371 C373 1.388 . S
C372 C371 1.366 . S
C372 C376 1.385 . S
C373 H348 0.951 . S
C373 C371 1.388 . S
C373 C374 1.366 . S
C374 C373 1.366 . S
C374 C375 1.414 . S
C374 C377 1.499 . S
C375 H349 0.950 . S
C375 C374 1.414 . S
C375 C376 1.374 . S
C376 H350 0.950 . S
C376 C372 1.385 . S
C376 C375 1.374 . S
C377 C374 1.499 . S
C377 C378 1.373 . S
C377 C379 1.389 . S
C378 H351 0.950 . S
C378 C364 1.377 . S
C378 C377 1.373 . S
C379 C363 1.377 . S
C379 C377 1.389 . S
C379 C380 1.524 . S
C380 C379 1.524 . S
C380 C381 1.397 . S
C380 C385 1.363 . S
C381 H352 0.950 . S
C381 C380 1.397 . S
C381 C382 1.334 . S
C382 H353 0.950 . S
C382 C381 1.334 . S
C382 C383 1.287 . S
C383 C382 1.287 . S
C383 C384 1.524 . S
C383 H386 0.999 . S
C384 H354 0.950 . S
C384 C383 1.524 . S
C384 C385 1.415 . S
C385 H355 0.950 . S
C385 C380 1.363 . S
C385 C384 1.415 . S
H386 C383 0.999 . S
H387 C368 0.913 . S
H388 C406 0.951 . S
H389 C408 0.951 . S
H390 C410 0.950 . S
H391 C411 0.950 . S
H392 C413 0.950 . S
H393 C416 0.950 . S
H394 C417 0.950 . S
H395 C419 0.950 . S
H396 C420 0.950 . S
H397 C421 0.951 . S
H398 C423 0.951 . S
H399 C425 0.950 . S
H400 C426 0.950 . S
H401 C428 0.950 . S
H402 C431 0.950 . S
H403 C432 0.950 . S
H404 C434 0.950 . S
H405 C435 0.950 . S
C406 H388 0.951 . S
C406 C407 1.366 . S
C406 C408 1.388 . S
C407 C406 1.366 . S
C407 C411 1.385 . S
C408 H389 0.951 . S
C408 C406 1.388 . S
C408 C409 1.366 . S
C409 C408 1.366 . S
C409 C410 1.414 . S
C409 C412 1.499 . S
C410 H390 0.950 . S
C410 C409 1.414 . S
C410 C411 1.374 . S
C411 H391 0.950 . S
C411 C407 1.385 . S
C411 C410 1.374 . S
C412 C409 1.499 . S
C412 C413 1.373 . S
C412 C414 1.389 1_545 S
C413 H392 0.950 . S
C413 C412 1.373 . S
C413 C429 1.377 . S
C414 C412 1.389 1_565 S
C414 C415 1.524 . S
C414 C428 1.377 . S
C415 C414 1.524 . S
C415 C416 1.397 1_565 S
C415 C420 1.363 . S
C416 H393 0.950 . S
C416 C415 1.397 1_545 S
C416 C417 1.334 . S
C417 H394 0.950 . S
C417 C416 1.334 . S
C417 C418 1.287 1_545 S
C418 C417 1.287 1_565 S
C418 C419 1.524 . S
C418 H437 0.913 . S
C419 H395 0.950 . S
C419 C418 1.524 . S
C419 C420 1.415 . S
C420 H396 0.950 . S
C420 C415 1.363 . S
C420 C419 1.415 . S
C421 H397 0.951 . S
C421 C422 1.366 . S
C421 C423 1.388 . S
C422 C421 1.366 . S
C422 C426 1.385 . S
C423 H398 0.951 . S
C423 C421 1.388 . S
C423 C424 1.366 . S
C424 C423 1.366 . S
C424 C425 1.414 . S
C424 C427 1.499 . S
C425 H399 0.950 . S
C425 C424 1.414 . S
C425 C426 1.374 . S
C426 H400 0.950 . S
C426 C422 1.385 . S
C426 C425 1.374 . S
C427 C424 1.499 . S
C427 C428 1.373 . S
C427 C429 1.389 1_565 S
C428 H401 0.950 . S
C428 C414 1.377 . S
C428 C427 1.373 . S
C429 C413 1.377 . S
C429 C427 1.389 1_545 S
C429 C430 1.524 . S
C430 C429 1.524 . S
C430 C431 1.397 1_545 S
C430 C435 1.363 . S
C431 H402 0.950 . S
C431 C430 1.397 1_565 S
C431 C432 1.334 . S
C432 H403 0.950 . S
C432 C431 1.334 . S
C432 C433 1.287 1_565 S
C433 C432 1.287 1_545 S
C433 C434 1.524 . S
C433 H436 0.999 . S
C434 H404 0.950 . S
C434 C433 1.524 . S
C434 C435 1.415 . S
C435 H405 0.950 . S
C435 C430 1.363 . S
C435 C434 1.415 . S
H436 C433 0.999 . S
H437 C418 0.913 . S
H438 C456 0.951 . S
H439 C458 0.951 . S
H440 C460 0.950 . S
H441 C461 0.950 . S
H442 C463 0.950 . S
H443 C466 0.950 . S
H444 C467 0.950 . S
H445 C469 0.950 . S
H446 C470 0.950 . S
H447 C471 0.951 . S
H448 C473 0.951 . S
H449 C475 0.950 . S
H450 C476 0.950 . S
H451 C478 0.950 . S
H452 C481 0.950 . S
H453 C482 0.950 . S
H454 C484 0.950 . S
H455 C485 0.950 . S
C456 H438 0.951 . S
C456 C457 1.366 . S
C456 C458 1.388 . S
C457 C456 1.366 . S
C457 C461 1.385 . S
C458 H439 0.951 . S
C458 C456 1.388 . S
C458 C459 1.366 . S
C459 C458 1.366 . S
C459 C460 1.414 . S
C459 C462 1.499 . S
C460 H440 0.950 . S
C460 C459 1.414 . S
C460 C461 1.374 . S
C461 H441 0.950 . S
C461 C457 1.385 . S
C461 C460 1.374 . S
C462 C459 1.499 . S
C462 C463 1.373 . S
C462 C464 1.389 . S
C463 H442 0.950 . S
C463 C462 1.373 . S
C463 C479 1.377 . S
C464 C462 1.389 . S
C464 C465 1.524 . S
C464 C478 1.377 . S
C465 C464 1.524 . S
C465 C466 1.397 . S
C465 C470 1.363 . S
C466 H443 0.950 . S
C466 C465 1.397 . S
C466 C467 1.334 . S
C467 H444 0.950 . S
C467 C466 1.334 . S
C467 C468 1.287 . S
C468 C467 1.287 . S
C468 C469 1.524 . S
C468 H487 0.913 . S
C469 H445 0.950 . S
C469 C468 1.524 . S
C469 C470 1.415 . S
C470 H446 0.950 . S
C470 C465 1.363 . S
C470 C469 1.415 . S
C471 H447 0.951 . S
C471 C472 1.366 . S
C471 C473 1.388 . S
C472 C471 1.366 . S
C472 C476 1.385 . S
C473 H448 0.951 . S
C473 C471 1.388 . S
C473 C474 1.366 . S
C474 C473 1.366 . S
C474 C475 1.414 . S
C474 C477 1.499 . S
C475 H449 0.950 . S
C475 C474 1.414 . S
C475 C476 1.374 . S
C476 H450 0.950 . S
C476 C472 1.385 . S
C476 C475 1.374 . S
C477 C474 1.499 . S
C477 C478 1.373 . S
C477 C479 1.389 . S
C478 H451 0.950 . S
C478 C464 1.377 . S
C478 C477 1.373 . S
C479 C463 1.377 . S
C479 C477 1.389 . S
C479 C480 1.524 . S
C480 C479 1.524 . S
C480 C481 1.397 . S
C480 C485 1.363 . S
C481 H452 0.950 . S
C481 C480 1.397 . S
C481 C482 1.334 . S
C482 H453 0.950 . S
C482 C481 1.334 . S
C482 C483 1.287 . S
C483 C482 1.287 . S
C483 C484 1.524 . S
C483 H486 0.999 . S
C484 H454 0.950 . S
C484 C483 1.524 . S
C484 C485 1.415 . S
C485 H455 0.950 . S
C485 C480 1.363 . S
C485 C484 1.415 . S
H486 C483 0.999 . S
H487 C468 0.913 . S
H488 C506 0.951 . S
H489 C508 0.951 . S
H490 C510 0.950 . S
H491 C511 0.950 . S
H492 C513 0.950 . S
H493 C516 0.950 . S
H494 C517 0.950 . S
H495 C519 0.950 . S
H496 C520 0.950 . S
H497 C521 0.951 . S
H498 C523 0.951 . S
H499 C525 0.950 . S
H500 C526 0.950 . S
H501 C528 0.950 . S
H502 C531 0.950 . S
H503 C532 0.950 . S
H504 C534 0.950 . S
H505 C535 0.950 . S
C506 H488 0.951 . S
C506 C507 1.366 . S
C506 C508 1.388 . S
C507 C506 1.366 . S
C507 C511 1.385 . S
C508 H489 0.951 . S
C508 C506 1.388 . S
C508 C509 1.366 . S
C509 C508 1.366 . S
C509 C510 1.414 . S
C509 C512 1.499 . S
C510 H490 0.950 . S
C510 C509 1.414 . S
C510 C511 1.374 . S
C511 H491 0.950 . S
C511 C507 1.385 . S
C511 C510 1.374 . S
C512 C509 1.499 . S
C512 C513 1.373 1_565 S
C512 C514 1.389 1_556 S
C513 H492 0.950 . S
C513 C512 1.373 1_545 S
C513 C529 1.377 1_655 S
C514 C512 1.389 1_554 S
C514 C515 1.524 . S
C514 C528 1.377 1_655 S
C515 C514 1.524 . S
C515 C516 1.397 . S
C515 C520 1.363 1_655 S
C516 H493 0.950 . S
C516 C515 1.397 . S
C516 C517 1.334 . S
C517 H494 0.950 . S
C517 C516 1.334 . S
C517 C518 1.287 . S
C518 C517 1.287 . S
C518 C519 1.524 1_655 S
C518 H537 0.913 . S
C519 H495 0.950 . S
C519 C518 1.524 1_455 S
C519 C520 1.415 . S
C520 H496 0.950 . S
C520 C515 1.363 1_455 S
C520 C519 1.415 . S
C521 H497 0.951 . S
C521 C522 1.366 . S
C521 C523 1.388 . S
C522 C521 1.366 . S
C522 C526 1.385 . S
C523 H498 0.951 . S
C523 C521 1.388 . S
C523 C524 1.366 . S
C524 C523 1.366 . S
C524 C525 1.414 . S
C524 C527 1.499 . S
C525 H499 0.950 . S
C525 C524 1.414 . S
C525 C526 1.374 . S
C526 H500 0.950 . S
C526 C522 1.385 . S
C526 C525 1.374 . S
C527 C524 1.499 . S
C527 C528 1.373 1_545 S
C527 C529 1.389 1_554 S
C528 H501 0.950 . S
C528 C514 1.377 1_455 S
C528 C527 1.373 1_565 S
C529 C513 1.377 1_455 S
C529 C527 1.389 1_556 S
C529 C530 1.524 . S
C530 C529 1.524 . S
C530 C531 1.397 . S
C530 C535 1.363 1_455 S
C531 H502 0.950 . S
C531 C530 1.397 . S
C531 C532 1.334 . S
C532 H503 0.950 . S
C532 C531 1.334 . S
C532 C533 1.287 . S
C533 C532 1.287 . S
C533 C534 1.524 1_455 S
C533 H536 0.999 . S
C534 H504 0.950 . S
C534 C533 1.524 1_655 S
C534 C535 1.415 . S
C535 H505 0.950 . S
C535 C530 1.363 1_655 S
C535 C534 1.415 . S
H536 C533 0.999 . S
H537 C518 0.913 . S
H538 C556 0.951 . S
H539 C558 0.951 . S
H540 C560 0.950 . S
H541 C561 0.950 . S
H542 C563 0.950 . S
H543 C566 0.950 . S
H544 C567 0.950 . S
H545 C569 0.950 . S
H546 C570 0.950 . S
H547 C571 0.951 . S
H548 C573 0.951 . S
H549 C575 0.950 . S
H550 C576 0.950 . S
H551 C578 0.950 . S
H552 C581 0.950 . S
H553 C582 0.950 . S
H554 C584 0.950 . S
H555 C585 0.950 . S
C556 H538 0.951 . S
C556 C557 1.366 . S
C556 C558 1.388 . S
C557 C556 1.366 . S
C557 C561 1.385 . S
C558 H539 0.951 . S
C558 C556 1.388 . S
C558 C559 1.366 . S
C559 C558 1.366 . S
C559 C560 1.414 . S
C559 C562 1.499 . S
C560 H540 0.950 . S
C560 C559 1.414 . S
C560 C561 1.374 . S
C561 H541 0.950 . S
C561 C557 1.385 . S
C561 C560 1.374 . S
C562 C559 1.499 . S
C562 C563 1.370 1_565 S
C562 C564 1.389 1_554 S
C563 H542 0.950 . S
C563 C562 1.370 1_545 S
C563 C579 1.380 . S
C564 C562 1.389 1_556 S
C564 C565 1.524 . S
C564 C578 1.380 . S
C565 C564 1.524 . S
C565 C566 1.397 . S
C565 C570 1.363 . S
C566 H543 0.950 . S
C566 C565 1.397 . S
C566 C567 1.334 . S
C567 H544 0.950 . S
C567 C566 1.334 . S
C567 C568 1.287 . S
C568 C567 1.287 . S
C568 C569 1.524 . S
C568 H587 0.913 . S
C569 H545 0.950 . S
C569 C568 1.524 . S
C569 C570 1.415 . S
C570 H546 0.950 . S
C570 C565 1.363 . S
C570 C569 1.415 . S
C571 H547 0.951 . S
C571 C572 1.366 . S
C571 C573 1.388 . S
C572 C571 1.366 . S
C572 C576 1.385 . S
C573 H548 0.951 . S
C573 C571 1.388 . S
C573 C574 1.366 . S
C574 C573 1.366 . S
C574 C575 1.414 . S
C574 C577 1.499 . S
C575 H549 0.950 . S
C575 C574 1.414 . S
C575 C576 1.374 . S
C576 H550 0.950 . S
C576 C572 1.385 . S
C576 C575 1.374 . S
C577 C574 1.499 . S
C577 C578 1.370 1_545 S
C577 C579 1.389 1_556 S
C578 H551 0.950 . S
C578 C564 1.380 . S
C578 C577 1.370 1_565 S
C579 C563 1.380 . S
C579 C577 1.389 1_554 S
C579 C580 1.524 . S
C580 C579 1.524 . S
C580 C581 1.397 . S
C580 C585 1.363 . S
C581 H552 0.950 . S
C581 C580 1.397 . S
C581 C582 1.334 . S
C582 H553 0.950 . S
C582 C581 1.334 . S
C582 C583 1.287 . S
C583 C582 1.287 . S
C583 C584 1.524 . S
C583 H586 0.999 . S
C584 H554 0.950 . S
C584 C583 1.524 . S
C584 C585 1.415 . S
C585 H555 0.950 . S
C585 C580 1.363 . S
C585 C584 1.415 . S
H586 C583 0.999 . S
H587 C568 0.913 . S
H588 C606 0.951 . S
H589 C608 0.951 . S
H590 C610 0.950 . S
H591 C611 0.950 . S
H592 C613 0.950 . S
H593 C616 0.988 . S
H594 C617 0.950 1_655 S
H595 C619 0.950 . S
H596 C620 0.950 . S
H597 C621 0.951 . S
H598 C623 0.951 . S
H599 C625 0.950 . S
H600 C626 0.950 . S
H601 C628 0.950 . S
H602 C631 0.988 . S
H603 C632 0.950 1_455 S
H604 C634 0.950 . S
H605 C635 0.950 . S
C606 H588 0.951 . S
C606 C607 1.366 . S
C606 C608 1.388 . S
C607 C606 1.366 . S
C607 C611 1.385 . S
C608 H589 0.951 . S
C608 C606 1.388 . S
C608 C609 1.366 . S
C609 C608 1.366 . S
C609 C610 1.414 . S
C609 C612 1.499 . S
C610 H590 0.950 . S
C610 C609 1.414 . S
C610 C611 1.374 . S
C611 H591 0.950 . S
C611 C607 1.385 . S
C611 C610 1.374 . S
C612 C609 1.499 . S
C612 C613 1.373 . S
C612 C614 1.389 1_655 S
C613 H592 0.950 . S
C613 C612 1.373 . S
C613 C629 1.377 . S
C614 C612 1.389 1_455 S
C614 C615 1.524 . S
C614 C628 1.377 . S
C615 C614 1.524 . S
C615 C616 1.370 1_455 S
C615 C620 1.363 . S
C616 H593 0.988 . S
C616 C615 1.370 1_655 S
C616 C617 1.324 1_655 S
C617 H594 0.950 1_455 S
C617 C616 1.324 1_455 S
C617 C618 1.287 . S
C618 C617 1.287 . S
C618 C619 1.524 . S
C618 H637 0.913 . S
C619 H595 0.950 . S
C619 C618 1.524 . S
C619 C620 1.415 . S
C620 H596 0.950 . S
C620 C615 1.363 . S
C620 C619 1.415 . S
C621 H597 0.951 . S
C621 C622 1.366 . S
C621 C623 1.388 . S
C622 C621 1.366 . S
C622 C626 1.385 . S
C623 H598 0.951 . S
C623 C621 1.388 . S
C623 C624 1.366 . S
C624 C623 1.366 . S
C624 C625 1.414 . S
C624 C627 1.499 . S
C625 H599 0.950 . S
C625 C624 1.414 . S
C625 C626 1.374 . S
C626 H600 0.950 . S
C626 C622 1.385 . S
C626 C625 1.374 . S
C627 C624 1.499 . S
C627 C628 1.373 . S
C627 C629 1.389 1_455 S
C628 H601 0.950 . S
C628 C614 1.377 . S
C628 C627 1.373 . S
C629 C613 1.377 . S
C629 C627 1.389 1_655 S
C629 C630 1.524 . S
C630 C629 1.524 . S
C630 C631 1.370 1_655 S
C630 C635 1.363 . S
C631 H602 0.988 . S
C631 C630 1.370 1_455 S
C631 C632 1.324 1_455 S
C632 H603 0.950 1_655 S
C632 C631 1.324 1_655 S
C632 C633 1.287 . S
C633 C632 1.287 . S
C633 C634 1.524 . S
C633 H636 0.999 . S
C634 H604 0.950 . S
C634 C633 1.524 . S
C634 C635 1.415 . S
C635 H605 0.950 . S
C635 C630 1.363 . S
C635 C634 1.415 . S
H636 C633 0.999 . S
H637 C618 0.913 . S
H638 C656 0.951 . S
H639 C658 0.951 . S
H640 C660 0.950 . S
H641 C661 0.950 . S
H642 C663 0.950 . S
H643 C666 0.950 . S
H644 C667 0.950 . S
H645 C669 0.950 . S
H646 C670 0.950 . S
H647 C671 0.951 . S
H648 C673 0.951 . S
H649 C675 0.950 . S
H650 C676 0.950 . S
H651 C678 0.950 . S
H652 C681 0.950 . S
H653 C682 0.950 . S
H654 C684 0.950 . S
H655 C685 0.950 . S
C656 H638 0.951 . S
C656 C657 1.366 . S
C656 C658 1.388 . S
C657 C656 1.366 . S
C657 C661 1.385 . S
C658 H639 0.951 . S
C658 C656 1.388 . S
C658 C659 1.366 . S
C659 C658 1.366 . S
C659 C660 1.414 . S
C659 C662 1.499 . S
C660 H640 0.950 . S
C660 C659 1.414 . S
C660 C661 1.374 . S
C661 H641 0.950 . S
C661 C657 1.385 . S
C661 C660 1.374 . S
C662 C659 1.499 . S
C662 C663 1.373 . S
C662 C664 1.389 . S
C663 H642 0.950 . S
C663 C662 1.373 . S
C663 C679 1.377 . S
C664 C662 1.389 . S
C664 C665 1.524 . S
C664 C678 1.377 . S
C665 C664 1.524 . S
C665 C666 1.397 . S
C665 C670 1.363 . S
C666 H643 0.950 . S
C666 C665 1.397 . S
C666 C667 1.334 . S
C667 H644 0.950 . S
C667 C666 1.334 . S
C667 C668 1.287 . S
C668 C667 1.287 . S
C668 C669 1.524 . S
C668 H687 0.913 . S
C669 H645 0.950 . S
C669 C668 1.524 . S
C669 C670 1.415 . S
C670 H646 0.950 . S
C670 C665 1.363 . S
C670 C669 1.415 . S
C671 H647 0.951 . S
C671 C672 1.366 . S
C671 C673 1.388 . S
C672 C671 1.366 . S
C672 C676 1.385 . S
C673 H648 0.951 . S
C673 C671 1.388 . S
C673 C674 1.366 . S
C674 C673 1.366 . S
C674 C675 1.414 . S
C674 C677 1.499 . S
C675 H649 0.950 . S
C675 C674 1.414 . S
C675 C676 1.374 . S
C676 H650 0.950 . S
C676 C672 1.385 . S
C676 C675 1.374 . S
C677 C674 1.499 . S
C677 C678 1.373 . S
C677 C679 1.389 . S
C678 H651 0.950 . S
C678 C664 1.377 . S
C678 C677 1.373 . S
C679 C663 1.377 . S
C679 C677 1.389 . S
C679 C680 1.524 . S
C680 C679 1.524 . S
C680 C681 1.397 . S
C680 C685 1.363 . S
C681 H652 0.950 . S
C681 C680 1.397 . S
C681 C682 1.334 . S
C682 H653 0.950 . S
C682 C681 1.334 . S
C682 C683 1.287 . S
C683 C682 1.287 . S
C683 C684 1.524 . S
C683 H686 0.999 . S
C684 H654 0.950 . S
C684 C683 1.524 . S
C684 C685 1.415 . S
C685 H655 0.950 . S
C685 C680 1.363 . S
C685 C684 1.415 . S
H686 C683 0.999 . S
H687 C668 0.913 . S
C107 C8 1.491 . S
C122 C30 1.491 . S
C157 C19 1.491 . S
C172 C41 1.490 . S
C207 C52 1.490 . S
C222 C74 1.490 . S
C257 C85 1.490 . S
C272 C63 1.490 . S
C307 C18 1.459 . S
C322 C7 1.459 . S
C357 C40 1.460 . S
C372 C29 1.460 . S
C407 C62 1.458 . S
C422 C51 1.459 . S
C457 C84 1.459 . S
C472 C73 1.459 . S
C507 C49 1.296 . S
C522 C5 1.300 . S
C557 C16 1.300 . S
C572 C60 1.296 . S
C607 C71 1.296 . S
C622 C27 1.299 . S
C657 C38 1.298 . S
C672 C82 1.297 . S
