# Generated by pormake.
# Topology zni, (4)-cn, num edge types: 1
# Building blocks:
#     Node 0, Type 0, BuildingBlock: NAHDIM_clean_sbu_0, # of connection points: 4
#     Node 1, Type 0, BuildingBlock: NAHDIM_clean_sbu_0, # of connection points: 4
#     Node 2, Type 0, BuildingBlock: NAHDIM_clean_sbu_0, # of connection points: 4
#     Node 3, Type 0, BuildingBlock: NAHDIM_clean_sbu_0, # of connection points: 4
#     Node 4, Type 0, BuildingBlock: NAHDIM_clean_sbu_0, # of connection points: 4
#     Node 5, Type 0, BuildingBlock: NAHDIM_clean_sbu_0, # of connection points: 4
#     Node 6, Type 0, BuildingBlock: NAHDIM_clean_sbu_0, # of connection points: 4
#     Node 7, Type 0, BuildingBlock: NAHDIM_clean_sbu_0, # of connection points: 4
#     Node 8, Type 0, BuildingBlock: NAHDIM_clean_sbu_0, # of connection points: 4
#     Node 9, Type 0, BuildingBlock: NAHDIM_clean_sbu_0, # of connection points: 4
#     Node 10, Type 0, BuildingBlock: NAHDIM_clean_sbu_0, # of connection points: 4
#     Node 11, Type 0, BuildingBlock: NAHDIM_clean_sbu_0, # of connection points: 4
#     Node 12, Type 0, BuildingBlock: NAHDIM_clean_sbu_0, # of connection points: 4
#     Node 13, Type 0, BuildingBlock: NAHDIM_clean_sbu_0, # of connection points: 4
#     Node 14, Type 0, BuildingBlock: NAHDIM_clean_sbu_0, # of connection points: 4
#     Node 15, Type 0, BuildingBlock: NAHDIM_clean_sbu_0, # of connection points: 4
#     Node 16, Type 0, BuildingBlock: NAHDIM_clean_sbu_0, # of connection points: 4
#     Node 17, Type 0, BuildingBlock: NAHDIM_clean_sbu_0, # of connection points: 4
#     Node 18, Type 0, BuildingBlock: NAHDIM_clean_sbu_0, # of connection points: 4
#     Node 19, Type 0, BuildingBlock: NAHDIM_clean_sbu_0, # of connection points: 4
#     Node 20, Type 0, BuildingBlock: NAHDIM_clean_sbu_0, # of connection points: 4
#     Node 21, Type 0, BuildingBlock: NAHDIM_clean_sbu_0, # of connection points: 4
#     Node 22, Type 0, BuildingBlock: NAHDIM_clean_sbu_0, # of connection points: 4
#     Node 23, Type 0, BuildingBlock: NAHDIM_clean_sbu_0, # of connection points: 4
#     Node 24, Type 0, BuildingBlock: NAHDIM_clean_sbu_0, # of connection points: 4
#     Node 25, Type 0, BuildingBlock: NAHDIM_clean_sbu_0, # of connection points: 4
#     Node 26, Type 0, BuildingBlock: NAHDIM_clean_sbu_0, # of connection points: 4
#     Node 27, Type 0, BuildingBlock: NAHDIM_clean_sbu_0, # of connection points: 4
#     Node 28, Type 0, BuildingBlock: NAHDIM_clean_sbu_0, # of connection points: 4
#     Node 29, Type 0, BuildingBlock: NAHDIM_clean_sbu_0, # of connection points: 4
#     Node 30, Type 0, BuildingBlock: NAHDIM_clean_sbu_0, # of connection points: 4
#     Node 31, Type 0, BuildingBlock: NAHDIM_clean_sbu_0, # of connection points: 4
#     Edge 32, Type (0, 0), BuildingBlock: KIFKEQ_clean_linker_1, # of connection points: 2
#     Edge 33, Type (0, 0), BuildingBlock: KIFKEQ_clean_linker_1, # of connection points: 2
#     Edge 34, Type (0, 0), BuildingBlock: KIFKEQ_clean_linker_1, # of connection points: 2
#     Edge 35, Type (0, 0), BuildingBlock: KIFKEQ_clean_linker_1, # of connection points: 2
#     Edge 36, Type (0, 0), BuildingBlock: KIFKEQ_clean_linker_1, # of connection points: 2
#     Edge 37, Type (0, 0), BuildingBlock: KIFKEQ_clean_linker_1, # of connection points: 2
#     Edge 38, Type (0, 0), BuildingBlock: KIFKEQ_clean_linker_1, # of connection points: 2
#     Edge 39, Type (0, 0), BuildingBlock: KIFKEQ_clean_linker_1, # of connection points: 2
#     Edge 40, Type (0, 0), BuildingBlock: KIFKEQ_clean_linker_1, # of connection points: 2
#     Edge 41, Type (0, 0), BuildingBlock: KIFKEQ_clean_linker_1, # of connection points: 2
#     Edge 42, Type (0, 0), BuildingBlock: KIFKEQ_clean_linker_1, # of connection points: 2
#     Edge 43, Type (0, 0), BuildingBlock: KIFKEQ_clean_linker_1, # of connection points: 2
#     Edge 44, Type (0, 0), BuildingBlock: KIFKEQ_clean_linker_1, # of connection points: 2
#     Edge 45, Type (0, 0), BuildingBlock: KIFKEQ_clean_linker_1, # of connection points: 2
#     Edge 46, Type (0, 0), BuildingBlock: KIFKEQ_clean_linker_1, # of connection points: 2
#     Edge 47, Type (0, 0), BuildingBlock: KIFKEQ_clean_linker_1, # of connection points: 2
#     Edge 48, Type (0, 0), BuildingBlock: KIFKEQ_clean_linker_1, # of connection points: 2
#     Edge 49, Type (0, 0), BuildingBlock: KIFKEQ_clean_linker_1, # of connection points: 2
#     Edge 50, Type (0, 0), BuildingBlock: KIFKEQ_clean_linker_1, # of connection points: 2
#     Edge 51, Type (0, 0), BuildingBlock: KIFKEQ_clean_linker_1, # of connection points: 2
#     Edge 52, Type (0, 0), BuildingBlock: KIFKEQ_clean_linker_1, # of connection points: 2
#     Edge 53, Type (0, 0), BuildingBlock: KIFKEQ_clean_linker_1, # of connection points: 2
#     Edge 54, Type (0, 0), BuildingBlock: KIFKEQ_clean_linker_1, # of connection points: 2
#     Edge 55, Type (0, 0), BuildingBlock: KIFKEQ_clean_linker_1, # of connection points: 2
#     Edge 56, Type (0, 0), BuildingBlock: KIFKEQ_clean_linker_1, # of connection points: 2
#     Edge 57, Type (0, 0), BuildingBlock: KIFKEQ_clean_linker_1, # of connection points: 2
#     Edge 58, Type (0, 0), BuildingBlock: KIFKEQ_clean_linker_1, # of connection points: 2
#     Edge 59, Type (0, 0), BuildingBlock: KIFKEQ_clean_linker_1, # of connection points: 2
#     Edge 60, Type (0, 0), BuildingBlock: KIFKEQ_clean_linker_1, # of connection points: 2
#     Edge 61, Type (0, 0), BuildingBlock: KIFKEQ_clean_linker_1, # of connection points: 2
#     Edge 62, Type (0, 0), BuildingBlock: KIFKEQ_clean_linker_1, # of connection points: 2
#     Edge 63, Type (0, 0), BuildingBlock: KIFKEQ_clean_linker_1, # of connection points: 2
#     Edge 64, Type (0, 0), BuildingBlock: KIFKEQ_clean_linker_1, # of connection points: 2
#     Edge 65, Type (0, 0), BuildingBlock: KIFKEQ_clean_linker_1, # of connection points: 2
#     Edge 66, Type (0, 0), BuildingBlock: KIFKEQ_clean_linker_1, # of connection points: 2
#     Edge 67, Type (0, 0), BuildingBlock: KIFKEQ_clean_linker_1, # of connection points: 2
#     Edge 68, Type (0, 0), BuildingBlock: KIFKEQ_clean_linker_1, # of connection points: 2
#     Edge 69, Type (0, 0), BuildingBlock: KIFKEQ_clean_linker_1, # of connection points: 2
#     Edge 70, Type (0, 0), BuildingBlock: KIFKEQ_clean_linker_1, # of connection points: 2
#     Edge 71, Type (0, 0), BuildingBlock: KIFKEQ_clean_linker_1, # of connection points: 2
#     Edge 72, Type (0, 0), BuildingBlock: KIFKEQ_clean_linker_1, # of connection points: 2
#     Edge 73, Type (0, 0), BuildingBlock: KIFKEQ_clean_linker_1, # of connection points: 2
#     Edge 74, Type (0, 0), BuildingBlock: KIFKEQ_clean_linker_1, # of connection points: 2
#     Edge 75, Type (0, 0), BuildingBlock: KIFKEQ_clean_linker_1, # of connection points: 2
#     Edge 76, Type (0, 0), BuildingBlock: KIFKEQ_clean_linker_1, # of connection points: 2
#     Edge 77, Type (0, 0), BuildingBlock: KIFKEQ_clean_linker_1, # of connection points: 2
#     Edge 78, Type (0, 0), BuildingBlock: KIFKEQ_clean_linker_1, # of connection points: 2
#     Edge 79, Type (0, 0), BuildingBlock: KIFKEQ_clean_linker_1, # of connection points: 2
#     Edge 80, Type (0, 0), BuildingBlock: KIFKEQ_clean_linker_1, # of connection points: 2
#     Edge 81, Type (0, 0), BuildingBlock: KIFKEQ_clean_linker_1, # of connection points: 2
#     Edge 82, Type (0, 0), BuildingBlock: KIFKEQ_clean_linker_1, # of connection points: 2
#     Edge 83, Type (0, 0), BuildingBlock: KIFKEQ_clean_linker_1, # of connection points: 2
#     Edge 84, Type (0, 0), BuildingBlock: KIFKEQ_clean_linker_1, # of connection points: 2
#     Edge 85, Type (0, 0), BuildingBlock: KIFKEQ_clean_linker_1, # of connection points: 2
#     Edge 86, Type (0, 0), BuildingBlock: KIFKEQ_clean_linker_1, # of connection points: 2
#     Edge 87, Type (0, 0), BuildingBlock: KIFKEQ_clean_linker_1, # of connection points: 2
#     Edge 88, Type (0, 0), BuildingBlock: KIFKEQ_clean_linker_1, # of connection points: 2
#     Edge 89, Type (0, 0), BuildingBlock: KIFKEQ_clean_linker_1, # of connection points: 2
#     Edge 90, Type (0, 0), BuildingBlock: KIFKEQ_clean_linker_1, # of connection points: 2
#     Edge 91, Type (0, 0), BuildingBlock: KIFKEQ_clean_linker_1, # of connection points: 2
#     Edge 92, Type (0, 0), BuildingBlock: KIFKEQ_clean_linker_1, # of connection points: 2
#     Edge 93, Type (0, 0), BuildingBlock: KIFKEQ_clean_linker_1, # of connection points: 2
#     Edge 94, Type (0, 0), BuildingBlock: KIFKEQ_clean_linker_1, # of connection points: 2
#     Edge 95, Type (0, 0), BuildingBlock: KIFKEQ_clean_linker_1, # of connection points: 2
# Relax obj value: 0.185
# Max RMSD: 0.100
# Mean RMSD: 0.100
data_MOF--net-zni--node1-NAHDIM_clean_sbu_0--edge1-KIFKEQ_clean_linker_1
_symmetry_space_group_name_H-M    P1
_symmetry_Int_Tables_number       1
_symmetry_cell_setting            triclinic
loop_
_symmetry_equiv_pos_as_xyz
'x, y, z'
_cell_length_a     55.649507
_cell_length_b     55.650212
_cell_length_c     32.314048
_cell_angle_alpha  89.977278
_cell_angle_beta   89.97124
_cell_angle_gamma 89.99722
loop_
_atom_site_label
_atom_site_type_symbol
_atom_site_fract_x
_atom_site_fract_y
_atom_site_fract_z
_atom_type_partial_charge
C0 C 0.15521 0.06685 0.35781 0.0
O1 O 0.14936 0.05979 0.39527 0.0
O2 O 0.14882 0.10603 0.44674 0.0
Zn3 Zn 0.13687 0.11148 0.38867 0.0
O4 O 0.1009 0.10644 0.38714 0.0
C5 C 0.12879 0.16112 0.39091 0.0
O6 O 0.1127 0.15314 0.41734 0.0
O7 O 0.15253 0.08884 0.34819 0.0
C8 C 0.09013 0.09559 0.35796 0.0
O9 O 0.10273 0.0866 0.32727 0.0
C10 C 0.13645 0.09394 0.47245 0.0
O11 O 0.11624 0.08405 0.46018 0.0
O12 O 0.14272 0.14613 0.37342 0.0
C13 C 0.18205 0.91429 0.61084 0.0
O14 O 0.18571 0.92101 0.64927 0.0
O15 O 0.1537 0.89583 0.70363 0.0
Zn16 Zn 0.14431 0.88451 0.64674 0.0
O17 O 0.1493 0.84876 0.64302 0.0
C18 C 0.09517 0.89508 0.66765 0.0
O19 O 0.10439 0.89626 0.70499 0.0
O20 O 0.16498 0.89983 0.60281 0.0
C21 C 0.13865 0.83425 0.66725 0.0
O22 O 0.12427 0.84281 0.69593 0.0
C23 C 0.17019 0.88582 0.72464 0.0
O24 O 0.18248 0.86807 0.70818 0.0
O25 O 0.10898 0.89095 0.63707 0.0
C26 C 0.34799 0.9354 0.86624 0.0
O27 O 0.35851 0.9421 0.90075 0.0
O28 O 0.35109 0.89947 0.95762 0.0
Zn29 Zn 0.36175 0.8909 0.89975 0.0
O30 O 0.39751 0.89537 0.89404 0.0
C31 C 0.34813 0.84209 0.91802 0.0
O32 O 0.34543 0.85123 0.95519 0.0
O33 O 0.34612 0.91308 0.85854 0.0
C34 C 0.4125 0.88187 0.91245 0.0
O35 O 0.40451 0.86458 0.93652 0.0
C36 C 0.3644 0.9104 0.98343 0.0
O37 O 0.38577 0.91781 0.97181 0.0
O38 O 0.35431 0.85584 0.88838 0.0
C39 C 0.31575 0.0998 0.10952 0.0
O40 O 0.30879 0.10899 0.14499 0.0
O41 O 0.3517 0.10362 0.20025 0.0
Zn42 Zn 0.35998 0.11506 0.1427 0.0
O43 O 0.35491 0.15082 0.13817 0.0
C44 C 0.40927 0.10408 0.1612 0.0
O45 O 0.40046 0.10318 0.19887 0.0
O46 O 0.33807 0.09941 0.10109 0.0
C47 C 0.36785 0.16584 0.15767 0.0
O48 O 0.38494 0.15791 0.18216 0.0
C49 C 0.34025 0.1163 0.22633 0.0
O50 O 0.33208 0.13748 0.2152 0.0
O51 O 0.39514 0.10826 0.13107 0.0
C52 C 0.14357 0.94127 0.14004 0.0
O53 O 0.12646 0.94543 0.11295 0.0
O54 O 0.14957 0.89507 0.04876 0.0
Zn55 Zn 0.13696 0.89457 0.10723 0.0
O56 O 0.10132 0.90077 0.10544 0.0
C57 C 0.15572 0.84626 0.11393 0.0
O58 O 0.16813 0.85286 0.08127 0.0
O59 O 0.15205 0.92012 0.14303 0.0
C60 C 0.08672 0.8852 0.09153 0.0
O61 O 0.09511 0.86465 0.07769 0.0
C62 C 0.1587 0.91275 0.02944 0.0
O63 O 0.16089 0.93359 0.0481 0.0
O64 O 0.14193 0.86142 0.13135 0.0
C65 C 0.31149 0.91353 0.39839 0.0
O66 O 0.30667 0.91523 0.35872 0.0
O67 O 0.34776 0.90012 0.31107 0.0
Zn68 Zn 0.3536 0.88803 0.36899 0.0
O69 O 0.348 0.85227 0.37094 0.0
C70 C 0.40383 0.89781 0.3564 0.0
O71 O 0.39673 0.89903 0.3177 0.0
O72 O 0.33091 0.90347 0.40978 0.0
C73 C 0.36057 0.83788 0.34938 0.0
O74 O 0.37732 0.84659 0.32495 0.0
C75 C 0.33428 0.88911 0.28564 0.0
O76 O 0.3225 0.86995 0.29802 0.0
O77 O 0.38833 0.89392 0.38459 0.0
C78 C 0.35065 0.05817 0.64294 0.0
O79 O 0.36036 0.05138 0.60778 0.0
O80 O 0.35321 0.09746 0.55354 0.0
Zn81 Zn 0.36529 0.1035 0.61145 0.0
O82 O 0.40115 0.09852 0.61367 0.0
C83 C 0.35375 0.15355 0.59978 0.0
O84 O 0.35169 0.14655 0.56113 0.0
O85 O 0.34992 0.08044 0.65155 0.0
C86 C 0.41533 0.11143 0.59225 0.0
O87 O 0.40631 0.12804 0.56787 0.0
C88 C 0.36503 0.08539 0.52708 0.0
O89 O 0.38534 0.07524 0.53814 0.0
O90 O 0.35878 0.13807 0.62744 0.0
C91 C 0.19073 0.10118 0.89018 0.0
O92 O 0.19653 0.11249 0.85591 0.0
O93 O 0.15039 0.10343 0.80202 0.0
Zn94 Zn 0.14458 0.11406 0.86094 0.0
O95 O 0.14904 0.14994 0.86452 0.0
C96 C 0.09494 0.1 0.85126 0.0
O97 O 0.1018 0.09693 0.81273 0.0
O98 O 0.16863 0.09869 0.89918 0.0
C99 C 0.13305 0.16428 0.85112 0.0
O100 O 0.11322 0.15546 0.83515 0.0
C101 C 0.1612 0.11682 0.77614 0.0
O102 O 0.16981 0.1376 0.78846 0.0
O103 O 0.11038 0.10649 0.87805 0.0
C104 C 0.8576 0.93669 0.63349 0.0
O105 O 0.87137 0.94185 0.60167 0.0
O106 O 0.85751 0.89625 0.54416 0.0
Zn107 Zn 0.86811 0.89064 0.603 0.0
O108 O 0.904 0.89444 0.60711 0.0
C109 C 0.86475 0.84054 0.59215 0.0
O110 O 0.8734 0.8472 0.55608 0.0
O111 O 0.85269 0.9148 0.64087 0.0
C112 C 0.91482 0.88735 0.63947 0.0
O113 O 0.90224 0.87775 0.66967 0.0
C114 C 0.8713 0.90625 0.51793 0.0
O115 O 0.89248 0.91399 0.5299 0.0
O116 O 0.86016 0.85656 0.61907 0.0
C117 C 0.81849 0.09022 0.38084 0.0
O118 O 0.81245 0.08975 0.34159 0.0
O119 O 0.85401 0.10362 0.29167 0.0
Zn120 Zn 0.86072 0.11485 0.34965 0.0
O121 O 0.85509 0.15058 0.35432 0.0
C122 C 0.91035 0.10882 0.33157 0.0
O123 O 0.90202 0.1139 0.29457 0.0
O124 O 0.83879 0.09886 0.3911 0.0
C125 C 0.86303 0.16599 0.32869 0.0
O126 O 0.87549 0.15869 0.29653 0.0
C127 C 0.83831 0.1123 0.26738 0.0
O128 O 0.82377 0.12921 0.28072 0.0
O129 O 0.89576 0.10794 0.36188 0.0
C130 C 0.64869 0.05951 0.12957 0.0
O131 O 0.63814 0.0526 0.09522 0.0
O132 O 0.64756 0.09584 0.03724 0.0
Zn133 Zn 0.63636 0.10415 0.09471 0.0
O134 O 0.60036 0.10109 0.09842 0.0
C135 C 0.63637 0.15336 0.07887 0.0
O136 O 0.62333 0.14487 0.0483 0.0
O137 O 0.651 0.08186 0.13654 0.0
C138 C 0.58958 0.10915 0.13017 0.0
O139 O 0.60229 0.11916 0.15979 0.0
C140 C 0.6336 0.0862 0.01094 0.0
O141 O 0.61166 0.08038 0.0221 0.0
O142 O 0.64491 0.13872 0.10525 0.0
C143 C 0.68496 0.90188 0.88954 0.0
O144 O 0.6915 0.89547 0.85209 0.0
O145 O 0.64556 0.89644 0.80188 0.0
Zn146 Zn 0.64007 0.8841 0.85996 0.0
O147 O 0.6456 0.84831 0.86195 0.0
C148 C 0.58949 0.89255 0.84918 0.0
O149 O 0.59585 0.89256 0.81003 0.0
O150 O 0.66308 0.89953 0.90008 0.0
C151 C 0.63493 0.83417 0.83714 0.0
O152 O 0.62022 0.84313 0.80934 0.0
C153 C 0.65861 0.88536 0.7758 0.0
O154 O 0.67001 0.8658 0.78729 0.0
O155 O 0.60557 0.88994 0.87678 0.0
C156 C 0.84592 0.06314 0.84983 0.0
O157 O 0.84906 0.05636 0.88836 0.0
O158 O 0.85416 0.10267 0.93821 0.0
Zn159 Zn 0.86698 0.10697 0.88041 0.0
O160 O 0.90241 0.09974 0.88033 0.0
C161 C 0.8504 0.15616 0.88485 0.0
O162 O 0.8387 0.14799 0.91722 0.0
O163 O 0.85122 0.08455 0.83954 0.0
C164 C 0.91697 0.11277 0.90063 0.0
O165 O 0.90856 0.1309 0.92228 0.0
C166 C 0.86294 0.08782 0.96397 0.0
O167 O 0.88054 0.0736 0.95239 0.0
O168 O 0.86294 0.14169 0.86336 0.0
C169 C 0.6893 0.10899 0.59086 0.0
O170 O 0.69366 0.12553 0.61882 0.0
O171 O 0.65003 0.1022 0.68448 0.0
Zn172 Zn 0.64401 0.11528 0.62715 0.0
O173 O 0.64829 0.15131 0.62657 0.0
C174 C 0.59403 0.10641 0.63952 0.0
O175 O 0.60108 0.10818 0.67818 0.0
O176 O 0.66804 0.10085 0.58752 0.0
C177 C 0.63964 0.16499 0.65432 0.0
O178 O 0.62731 0.15555 0.68495 0.0
C179 C 0.66404 0.11194 0.71059 0.0
O180 O 0.6763 0.13113 0.69989 0.0
O181 O 0.60959 0.10821 0.61081 0.0
C182 C 0.64722 0.93952 0.35747 0.0
O183 O 0.63725 0.94665 0.39221 0.0
O184 O 0.64399 0.90094 0.44805 0.0
Zn185 Zn 0.63244 0.89453 0.38992 0.0
O186 O 0.59668 0.89979 0.38652 0.0
C187 C 0.64339 0.84436 0.40221 0.0
O188 O 0.64503 0.85126 0.44097 0.0
O189 O 0.64815 0.91716 0.34966 0.0
C190 C 0.58208 0.88633 0.40596 0.0
O191 O 0.59057 0.86883 0.42902 0.0
C192 C 0.63155 0.91279 0.47397 0.0
O193 O 0.61106 0.92229 0.46215 0.0
O194 O 0.63886 0.85993 0.37446 0.0
C195 C 0.8133 0.89717 0.10262 0.0
O196 O 0.80826 0.88528 0.13666 0.0
O197 O 0.85608 0.895 0.18802 0.0
Zn198 Zn 0.86023 0.88466 0.12866 0.0
O199 O 0.85654 0.84869 0.12502 0.0
C200 C 0.90851 0.90432 0.13126 0.0
O201 O 0.90106 0.91348 0.16646 0.0
O202 O 0.83519 0.90003 0.09249 0.0
C203 C 0.87374 0.83549 0.13736 0.0
O204 O 0.89316 0.84571 0.15232 0.0
C205 C 0.84564 0.88172 0.21451 0.0
O206 O 0.83651 0.86107 0.20268 0.0
O207 O 0.89384 0.89247 0.10908 0.0
C208 C 0.6457 0.56287 0.85715 0.0
O209 O 0.63637 0.55633 0.89276 0.0
O210 O 0.63904 0.60496 0.94328 0.0
Zn211 Zn 0.62746 0.60786 0.88438 0.0
O212 O 0.59206 0.60066 0.88111 0.0
C213 C 0.64949 0.65498 0.87446 0.0
O214 O 0.66741 0.64553 0.89535 0.0
O215 O 0.64488 0.58489 0.84682 0.0
C216 C 0.57721 0.6132 0.90177 0.0
O217 O 0.58539 0.63028 0.92603 0.0
C218 C 0.62786 0.59247 0.97002 0.0
O219 O 0.60868 0.58038 0.95878 0.0
O220 O 0.63144 0.64202 0.86556 0.0
C221 C 0.68583 0.39341 0.11125 0.0
O222 O 0.6919 0.38203 0.1453 0.0
O223 O 0.64316 0.39039 0.19849 0.0
Zn224 Zn 0.63978 0.37909 0.13953 0.0
O225 O 0.64521 0.34338 0.13684 0.0
C226 C 0.59303 0.40246 0.12935 0.0
O227 O 0.60238 0.41994 0.15143 0.0
O228 O 0.6637 0.39541 0.10229 0.0
C229 C 0.64968 0.33324 0.10248 0.0
O230 O 0.65137 0.34648 0.06893 0.0
C231 C 0.65392 0.37746 0.22512 0.0
O232 O 0.66347 0.35697 0.21348 0.0
O233 O 0.6059 0.38438 0.12015 0.0
C234 C 0.8491 0.43866 0.35836 0.0
O235 O 0.86053 0.44478 0.39231 0.0
O236 O 0.8521 0.39815 0.44698 0.0
Zn237 Zn 0.86295 0.3929 0.38802 0.0
O238 O 0.89865 0.39857 0.3834 0.0
C239 C 0.85456 0.34228 0.39835 0.0
O240 O 0.85618 0.34834 0.43754 0.0
O241 O 0.8468 0.41648 0.34986 0.0
C242 C 0.91396 0.38472 0.40022 0.0
O243 O 0.90641 0.36612 0.42162 0.0
C244 C 0.86489 0.40944 0.47312 0.0
O245 O 0.88534 0.41896 0.46116 0.0
O246 O 0.85622 0.35857 0.37086 0.0
C247 C 0.81231 0.59668 0.60287 0.0
O248 O 0.80578 0.60542 0.6389 0.0
O249 O 0.85096 0.60166 0.69156 0.0
Zn250 Zn 0.85768 0.61228 0.63291 0.0
O251 O 0.85369 0.64818 0.62762 0.0
C252 C 0.90762 0.60255 0.64695 0.0
O253 O 0.90056 0.60461 0.68558 0.0
O254 O 0.83447 0.59675 0.59328 0.0
C255 C 0.86514 0.66287 0.65037 0.0
O256 O 0.87973 0.65451 0.67889 0.0
C257 C 0.83875 0.61408 0.71703 0.0
O258 O 0.82888 0.63427 0.7046 0.0
O259 O 0.89214 0.60443 0.61818 0.0
C260 C 0.64826 0.43724 0.64068 0.0
O261 O 0.63824 0.4433 0.6054 0.0
O262 O 0.64244 0.39473 0.55477 0.0
Zn263 Zn 0.63161 0.39161 0.61412 0.0
O264 O 0.59611 0.39812 0.61775 0.0
C265 C 0.65382 0.34446 0.62088 0.0
O266 O 0.67029 0.35375 0.5965 0.0
O267 O 0.6486 0.41521 0.65105 0.0
C268 C 0.58145 0.3834 0.60144 0.0
O269 O 0.58991 0.36438 0.58224 0.0
C270 C 0.63012 0.40644 0.52847 0.0
O271 O 0.61051 0.41752 0.5406 0.0
O272 O 0.63655 0.35757 0.63315 0.0
C273 C 0.81105 0.39878 0.89187 0.0
O274 O 0.80474 0.38921 0.85635 0.0
O275 O 0.85055 0.39691 0.80257 0.0
Zn276 Zn 0.85684 0.38547 0.86091 0.0
O277 O 0.85248 0.34955 0.86343 0.0
C278 C 0.90656 0.39848 0.84978 0.0
O279 O 0.89964 0.40033 0.81106 0.0
O280 O 0.83326 0.40015 0.90077 0.0
C281 C 0.86821 0.33525 0.84905 0.0
O282 O 0.88784 0.34408 0.83236 0.0
C283 C 0.83962 0.38383 0.77638 0.0
O284 O 0.83098 0.36296 0.78816 0.0
O285 O 0.89113 0.39299 0.87727 0.0
C286 C 0.84796 0.56244 0.13681 0.0
O287 O 0.8575 0.55554 0.10158 0.0
O288 O 0.85154 0.60073 0.0463 0.0
Zn289 Zn 0.86334 0.60684 0.10431 0.0
O290 O 0.89909 0.60082 0.10705 0.0
C291 C 0.87014 0.65615 0.09502 0.0
O292 O 0.88437 0.64714 0.06649 0.0
O293 O 0.84734 0.58475 0.14518 0.0
C294 C 0.91178 0.6109 0.13472 0.0
O295 O 0.90125 0.6248 0.16214 0.0
C296 C 0.86455 0.58979 0.02001 0.0
O297 O 0.88551 0.58127 0.03157 0.0
O298 O 0.85777 0.64185 0.11713 0.0
C299 C 0.68641 0.60112 0.3858 0.0
O300 O 0.69239 0.6124 0.35159 0.0
O301 O 0.64594 0.60628 0.29859 0.0
Zn302 Zn 0.64071 0.61619 0.35799 0.0
O303 O 0.64603 0.6518 0.36383 0.0
C304 C 0.59099 0.60185 0.34897 0.0
O305 O 0.59799 0.5968 0.31114 0.0
O306 O 0.66431 0.59947 0.39529 0.0
C307 C 0.63173 0.66667 0.34694 0.0
O308 O 0.61355 0.65848 0.32519 0.0
C309 C 0.65668 0.61955 0.27244 0.0
O310 O 0.66587 0.64011 0.28458 0.0
O311 O 0.60636 0.60949 0.37496 0.0
C312 C 0.34724 0.43866 0.1374 0.0
O313 O 0.35547 0.44532 0.10108 0.0
O314 O 0.35197 0.39879 0.04948 0.0
Zn315 Zn 0.36413 0.39361 0.10771 0.0
O316 O 0.39986 0.39951 0.1103 0.0
C317 C 0.35622 0.343 0.09686 0.0
O318 O 0.35648 0.34941 0.05774 0.0
O319 O 0.34818 0.41657 0.1473 0.0
C320 C 0.4143 0.38905 0.0857 0.0
O321 O 0.40569 0.37434 0.05758 0.0
C322 C 0.36298 0.41161 0.02299 0.0
O323 O 0.3825 0.4232 0.03407 0.0
O324 O 0.35849 0.35906 0.12458 0.0
C325 C 0.30364 0.60599 0.89038 0.0
O326 O 0.29833 0.62008 0.85906 0.0
O327 O 0.3438 0.60306 0.79897 0.0
Zn328 Zn 0.34964 0.61457 0.8572 0.0
O329 O 0.34648 0.65059 0.85949 0.0
C330 C 0.3997 0.60902 0.84593 0.0
O331 O 0.39321 0.61588 0.80866 0.0
O332 O 0.32545 0.60016 0.89623 0.0
C333 C 0.35283 0.66156 0.89216 0.0
O334 O 0.36116 0.64903 0.9235 0.0
C335 C 0.33347 0.61637 0.77242 0.0
O336 O 0.32536 0.63752 0.78383 0.0
O337 O 0.38364 0.60642 0.87357 0.0
C338 C 0.16574 0.5661 0.64809 0.0
O339 O 0.17155 0.56368 0.60893 0.0
O340 O 0.14774 0.6014 0.56065 0.0
Zn341 Zn 0.13588 0.60595 0.61894 0.0
O342 O 0.10027 0.59953 0.62084 0.0
C343 C 0.14229 0.65661 0.60781 0.0
O344 O 0.14044 0.65012 0.56886 0.0
O345 O 0.15182 0.5831 0.65888 0.0
C346 C 0.08581 0.60884 0.59496 0.0
O347 O 0.0943 0.62281 0.56562 0.0
C348 C 0.14057 0.58479 0.53668 0.0
O349 O 0.1256 0.56847 0.55078 0.0
O350 O 0.14133 0.64055 0.63581 0.0
C351 C 0.1863 0.40501 0.38119 0.0
O352 O 0.19336 0.39892 0.34388 0.0
O353 O 0.14594 0.40037 0.29217 0.0
Zn354 Zn 0.1407 0.38842 0.35038 0.0
O355 O 0.14496 0.35246 0.35163 0.0
C356 C 0.09082 0.40255 0.34261 0.0
O357 O 0.09731 0.40716 0.30434 0.0
O358 O 0.16422 0.40297 0.39062 0.0
C359 C 0.12896 0.33919 0.33537 0.0
O360 O 0.11045 0.34933 0.31718 0.0
C361 C 0.15966 0.38957 0.26683 0.0
O362 O 0.17179 0.37065 0.27929 0.0
O363 O 0.10653 0.39522 0.36825 0.0
C364 C 0.3488 0.56405 0.3556 0.0
O365 O 0.3598 0.558 0.39001 0.0
O366 O 0.35097 0.60321 0.44415 0.0
Zn367 Zn 0.36251 0.60943 0.38592 0.0
O368 O 0.39828 0.604 0.38243 0.0
C369 C 0.35186 0.65945 0.3984 0.0
O370 O 0.35122 0.65235 0.43715 0.0
O371 O 0.34678 0.58621 0.34669 0.0
C372 C 0.41318 0.61826 0.39928 0.0
O373 O 0.4051 0.637 0.4197 0.0
C374 C 0.36358 0.59209 0.47076 0.0
O375 O 0.38453 0.58328 0.45982 0.0
O376 O 0.35579 0.64401 0.37016 0.0
C377 C 0.18219 0.59782 0.11609 0.0
O378 O 0.1901 0.60073 0.15402 0.0
O379 O 0.14392 0.60517 0.20752 0.0
Zn380 Zn 0.13976 0.6195 0.15076 0.0
O381 O 0.14851 0.6546 0.15246 0.0
C382 C 0.09243 0.5984 0.13893 0.0
O383 O 0.10308 0.57835 0.15009 0.0
O384 O 0.16061 0.60352 0.10771 0.0
C385 C 0.13396 0.66973 0.16797 0.0
O386 O 0.11356 0.66204 0.18361 0.0
C387 C 0.15945 0.61326 0.23276 0.0
O388 O 0.17383 0.63068 0.22094 0.0
O389 O 0.10478 0.61751 0.13576 0.0
C390 C 0.16531 0.43157 0.85015 0.0
O391 O 0.17132 0.43384 0.88924 0.0
O392 O 0.14602 0.39628 0.93787 0.0
Zn393 Zn 0.1344 0.39246 0.87937 0.0
O394 O 0.09908 0.39991 0.87811 0.0
C395 C 0.1517 0.34355 0.8829 0.0
O396 O 0.16421 0.35201 0.91411 0.0
O397 O 0.15094 0.41492 0.83952 0.0
C398 C 0.08453 0.38769 0.89992 0.0
O399 O 0.09297 0.37042 0.92355 0.0
C400 C 0.13989 0.41345 0.96151 0.0
O401 O 0.12615 0.4307 0.94699 0.0
O402 O 0.13841 0.35778 0.86229 0.0
C403 C 0.30832 0.39502 0.60512 0.0
O404 O 0.30185 0.38293 0.63822 0.0
O405 O 0.34731 0.39324 0.69546 0.0
Zn406 Zn 0.35364 0.38205 0.63711 0.0
O407 O 0.34877 0.34626 0.63321 0.0
C408 C 0.40315 0.39644 0.64802 0.0
O409 O 0.39577 0.40095 0.68584 0.0
O410 O 0.33058 0.39788 0.59781 0.0
C411 C 0.36317 0.3318 0.65087 0.0
O412 O 0.38127 0.3405 0.67223 0.0
C413 C 0.33632 0.38043 0.72198 0.0
O414 O 0.32764 0.35947 0.71084 0.0
O415 O 0.38811 0.38897 0.62135 0.0
H416 H 0.16507 0.07489 0.27596 0.0
H417 H 0.15787 0.0181 0.3664 0.0
H418 H 0.168 0.04499 0.22107 0.0
H419 H 0.16023 0.98831 0.3115 0.0
H420 H 0.1296 0.98815 0.13938 0.0
H421 H 0.13808 0.01879 0.19074 0.0
H422 H 0.18353 0.96897 0.25703 0.0
H423 H 0.17461 0.93794 0.20576 0.0
C424 C 0.16446 0.05604 0.28423 0.0
C425 C 0.1609 0.04889 0.3255 0.0
C426 C 0.16602 0.03891 0.25273 0.0
C427 C 0.16402 0.01428 0.26183 0.0
C428 C 0.16201 0.00711 0.3034 0.0
C429 C 0.1605 0.02423 0.3349 0.0
C430 C 0.14164 0.98375 0.1646 0.0
C431 C 0.15121 0.96052 0.16872 0.0
C432 C 0.14668 0.00143 0.19392 0.0
C433 C 0.16144 0.99633 0.22809 0.0
C434 C 0.17187 0.97337 0.2313 0.0
C435 C 0.16684 0.95564 0.20185 0.0
H436 H 0.22416 0.93924 0.61924 0.0
H437 H 0.1797 0.90352 0.52847 0.0
H438 H 0.25547 0.94477 0.56717 0.0
H439 H 0.21107 0.90874 0.47681 0.0
H440 H 0.26636 0.9312 0.38438 0.0
H441 H 0.23438 0.93711 0.435 0.0
H442 H 0.28294 0.91651 0.53305 0.0
H443 H 0.31498 0.91095 0.48268 0.0
C444 C 0.2209 0.93287 0.58807 0.0
C445 C 0.19954 0.92069 0.57812 0.0
C446 C 0.2389 0.93594 0.55832 0.0
C447 C 0.23584 0.92701 0.51798 0.0
C448 C 0.21393 0.91602 0.50749 0.0
C449 C 0.19599 0.91288 0.53722 0.0
C450 C 0.27033 0.92831 0.41681 0.0
C451 C 0.29315 0.92031 0.42944 0.0
C452 C 0.25197 0.9316 0.44577 0.0
C453 C 0.25605 0.92706 0.48797 0.0
C454 C 0.27924 0.92036 0.50082 0.0
C455 C 0.29758 0.91702 0.47188 0.0
H456 H 0.35531 0.00951 0.63736 0.0
H457 H 0.32973 0.06561 0.71866 0.0
H458 H 0.34895 0.98 0.69159 0.0
H459 H 0.32257 0.03584 0.77273 0.0
H460 H 0.35346 0.98392 0.87164 0.0
H461 H 0.34848 0.01339 0.81705 0.0
H462 H 0.32209 0.95794 0.73519 0.0
H463 H 0.32785 0.92814 0.78977 0.0
C464 C 0.34785 0.01549 0.66656 0.0
C465 C 0.3434 0.03997 0.67392 0.0
C466 C 0.344 0.99849 0.69763 0.0
C467 C 0.33544 0.00555 0.73673 0.0
C468 C 0.32962 0.02986 0.74323 0.0
C469 C 0.33362 0.04691 0.71219 0.0
C470 C 0.34628 0.97801 0.84221 0.0
C471 C 0.3414 0.95361 0.83487 0.0
C472 C 0.34322 0.995 0.81091 0.0
C473 C 0.33506 0.98804 0.77153 0.0
C474 C 0.32882 0.96383 0.76493 0.0
C475 C 0.332 0.94677 0.79627 0.0
H476 H 0.23892 0.10909 0.88376 0.0
H477 H 0.18538 0.07759 0.96409 0.0
H478 H 0.26931 0.10303 0.93656 0.0
H479 H 0.21609 0.07077 0.01668 0.0
H480 H 0.26704 0.10204 0.11677 0.0
H481 H 0.23736 0.09677 0.06265 0.0
H482 H 0.29345 0.07629 0.97705 0.0
H483 H 0.32342 0.08235 0.03122 0.0
C484 C 0.23372 0.1004 0.9124 0.0
C485 C 0.20965 0.09417 0.91997 0.0
C486 C 0.25124 0.09673 0.94263 0.0
C487 C 0.24514 0.08659 0.98108 0.0
C488 C 0.22131 0.07903 0.98769 0.0
C489 C 0.20373 0.08284 0.95749 0.0
C490 C 0.27307 0.0961 0.08659 0.0
C491 C 0.29765 0.09298 0.07814 0.0
C492 C 0.25597 0.09286 0.05554 0.0
C493 C 0.263 0.08629 0.01532 0.0
C494 C 0.28747 0.08178 0.00751 0.0
C495 C 0.30463 0.08513 0.0386 0.0
H496 H 0.82827 0.93287 0.70142 0.0
H497 H 0.86977 0.98404 0.63058 0.0
H498 H 0.81903 0.96408 0.75206 0.0
H499 H 0.86133 0.01484 0.68158 0.0
H500 H 0.84305 0.01451 0.85909 0.0
H501 H 0.84081 0.98449 0.80479 0.0
H502 H 0.83292 0.04072 0.71344 0.0
H503 H 0.83611 0.07088 0.76787 0.0
C504 C 0.83528 0.9508 0.69651 0.0
C505 C 0.84995 0.95592 0.6622 0.0
C506 C 0.83008 0.96867 0.72561 0.0
C507 C 0.83955 0.99197 0.72111 0.0
C508 C 0.8534 0.99724 0.68584 0.0
C509 C 0.85845 0.97946 0.65669 0.0
C510 C 0.84044 0.0205 0.82752 0.0
C511 C 0.84017 0.0451 0.81772 0.0
C512 C 0.83899 0.00323 0.7963 0.0
C513 C 0.83701 0.01016 0.75458 0.0
C514 C 0.83501 0.03477 0.74515 0.0
C515 C 0.83669 0.05206 0.77636 0.0
H516 H 0.82536 0.08635 0.46436 0.0
H517 H 0.7704 0.08276 0.37014 0.0
H518 H 0.79448 0.08516 0.5178 0.0
H519 H 0.73954 0.08248 0.42341 0.0
H520 H 0.73532 0.12522 0.58904 0.0
H521 H 0.76678 0.11494 0.54045 0.0
H522 H 0.71941 0.06398 0.48099 0.0
H523 H 0.68739 0.07493 0.52934 0.0
C524 C 0.80671 0.08499 0.45506 0.0
C525 C 0.80031 0.08506 0.41302 0.0
C526 C 0.78899 0.08445 0.48568 0.0
C527 C 0.76449 0.08424 0.47492 0.0
C528 C 0.7582 0.08254 0.43289 0.0
C529 C 0.77594 0.08283 0.40227 0.0
C530 C 0.73159 0.11167 0.56586 0.0
C531 C 0.70876 0.10105 0.56284 0.0
C532 C 0.74978 0.10556 0.53817 0.0
C533 C 0.74571 0.08854 0.50682 0.0
C534 C 0.72307 0.07734 0.50452 0.0
C535 C 0.70475 0.08355 0.53227 0.0
H536 H 0.66764 0.93116 0.28167 0.0
H537 H 0.64261 0.98824 0.36144 0.0
H538 H 0.6742 0.96021 0.22626 0.0
H539 H 0.64845 0.01705 0.3059 0.0
H540 H 0.66943 0.06749 0.20524 0.0
H541 H 0.67534 0.03837 0.26081 0.0
H542 H 0.6475 0.98217 0.18194 0.0
H543 H 0.64229 0.01101 0.1263 0.0
C544 C 0.66378 0.94993 0.28754 0.0
C545 C 0.6543 0.95734 0.32577 0.0
C546 C 0.66743 0.96656 0.25572 0.0
C547 C 0.6616 0.99093 0.26144 0.0
C548 C 0.65338 0.99849 0.30047 0.0
C549 C 0.64984 0.9819 0.3323 0.0
C550 C 0.66495 0.04884 0.1996 0.0
C551 C 0.65512 0.04161 0.16153 0.0
C552 C 0.66823 0.03217 0.23149 0.0
C553 C 0.66169 0.00797 0.226 0.0
C554 C 0.65301 0.00059 0.18718 0.0
C555 C 0.64983 0.0172 0.1553 0.0
H556 H 0.73358 0.90192 0.87949 0.0
H557 H 0.67809 0.91649 0.96967 0.0
H558 H 0.764 0.90635 0.93263 0.0
H559 H 0.70874 0.92181 0.02286 0.0
H560 H 0.76545 0.88776 0.11026 0.0
H561 H 0.73415 0.89472 0.05943 0.0
H562 H 0.78534 0.93092 0.98036 0.0
H563 H 0.81699 0.92315 0.03085 0.0
C564 C 0.72789 0.90661 0.91051 0.0
C565 C 0.70338 0.90846 0.9205 0.0
C566 C 0.7454 0.90935 0.94102 0.0
C567 C 0.73884 0.91421 0.98221 0.0
C568 C 0.71438 0.91759 0.99162 0.0
C569 C 0.69682 0.91467 0.9611 0.0
C570 C 0.77001 0.89749 0.08229 0.0
C571 C 0.79379 0.90456 0.0743 0.0
C572 C 0.75196 0.90168 0.0532 0.0
C573 C 0.75723 0.91321 0.01555 0.0
C574 C 0.78076 0.92157 0.00868 0.0
C575 C 0.79888 0.91721 0.03769 0.0
H576 H 0.64319 0.48571 0.63249 0.0
H577 H 0.66987 0.43134 0.7162 0.0
H578 H 0.64886 0.51608 0.68537 0.0
H579 H 0.67642 0.46201 0.76892 0.0
H580 H 0.66653 0.56984 0.78123 0.0
H581 H 0.67436 0.53954 0.72838 0.0
H582 H 0.64992 0.48416 0.8123 0.0
H583 H 0.64298 0.5142 0.8653 0.0
C584 C 0.65081 0.48031 0.66189 0.0
C585 C 0.65568 0.45604 0.67038 0.0
C586 C 0.65427 0.49782 0.69222 0.0
C587 C 0.66287 0.4915 0.73167 0.0
C588 C 0.6693 0.46743 0.73917 0.0
C589 C 0.66566 0.44986 0.70888 0.0
C590 C 0.66327 0.55113 0.78859 0.0
C591 C 0.6538 0.54446 0.82724 0.0
C592 C 0.66765 0.53377 0.75824 0.0
C593 C 0.66248 0.50941 0.76582 0.0
C594 C 0.65437 0.50267 0.80538 0.0
C595 C 0.65018 0.51998 0.83578 0.0
H596 H 0.7625 0.39389 0.88457 0.0
H597 H 0.81764 0.41715 0.96975 0.0
H598 H 0.73249 0.39804 0.93863 0.0
H599 H 0.78736 0.422 0.02377 0.0
H600 H 0.67966 0.41625 0.0369 0.0
H601 H 0.71007 0.42376 0.98405 0.0
H602 H 0.76447 0.39414 0.06471 0.0
H603 H 0.73431 0.38731 0.11777 0.0
C604 C 0.76816 0.40037 0.91463 0.0
C605 C 0.79252 0.40485 0.92301 0.0
C606 C 0.75088 0.40294 0.94562 0.0
C607 C 0.75752 0.41018 0.9857 0.0
C608 C 0.78171 0.41599 0.99342 0.0
C609 C 0.79904 0.41333 0.96241 0.0
C610 C 0.69818 0.41173 0.04358 0.0
C611 C 0.70452 0.40091 0.08134 0.0
C612 C 0.71559 0.41593 0.01322 0.0
C613 C 0.73968 0.40932 0.01993 0.0
C614 C 0.74616 0.39969 0.05858 0.0
C615 C 0.7288 0.39559 0.08896 0.0
H616 H 0.85612 0.48702 0.36409 0.0
H617 H 0.82619 0.43252 0.28402 0.0
H618 H 0.85013 0.51698 0.31052 0.0
H619 H 0.81946 0.4628 0.23061 0.0
H620 H 0.85108 0.51372 0.13041 0.0
H621 H 0.84569 0.48422 0.18492 0.0
H622 H 0.82334 0.54041 0.26885 0.0
H623 H 0.82948 0.57018 0.21436 0.0
C624 C 0.84778 0.48151 0.33534 0.0
C625 C 0.84197 0.4573 0.3281 0.0
C626 C 0.84415 0.49878 0.30465 0.0
C627 C 0.8345 0.49229 0.26604 0.0
C628 C 0.82735 0.46832 0.25972 0.0
C629 C 0.83109 0.45099 0.29041 0.0
C630 C 0.84469 0.51979 0.1603 0.0
C631 C 0.84106 0.54435 0.16821 0.0
C632 C 0.8414 0.5028 0.19156 0.0
C633 C 0.83427 0.50993 0.23145 0.0
C634 C 0.82926 0.53436 0.23867 0.0
C635 C 0.83266 0.55141 0.20739 0.0
H636 H 0.73481 0.60734 0.37857 0.0
H637 H 0.68068 0.57752 0.45962 0.0
H638 H 0.76522 0.60032 0.43094 0.0
H639 H 0.71139 0.56971 0.51177 0.0
H640 H 0.81913 0.5787 0.52475 0.0
H641 H 0.78875 0.5731 0.47117 0.0
H642 H 0.73358 0.59499 0.55751 0.0
H643 H 0.76368 0.59977 0.61112 0.0
C644 C 0.72947 0.5988 0.40726 0.0
C645 C 0.70525 0.59335 0.41518 0.0
C646 C 0.747 0.59457 0.43725 0.0
C647 C 0.74076 0.58464 0.4758 0.0
C648 C 0.71674 0.57781 0.48271 0.0
C649 C 0.69915 0.58218 0.45276 0.0
C650 C 0.80045 0.58189 0.53243 0.0
C651 C 0.79386 0.59 0.57202 0.0
C652 C 0.78305 0.57879 0.50168 0.0
C653 C 0.75873 0.58387 0.50983 0.0
C654 C 0.75206 0.59065 0.55014 0.0
C655 C 0.7694 0.5936 0.58089 0.0
H656 H 0.32905 0.43153 0.21528 0.0
H657 H 0.34958 0.48734 0.12922 0.0
H658 H 0.32276 0.46177 0.26884 0.0
H659 H 0.34417 0.51733 0.18285 0.0
H660 H 0.35573 0.51576 0.36217 0.0
H661 H 0.34945 0.48548 0.30937 0.0
H662 H 0.31868 0.53922 0.22858 0.0
H663 H 0.3258 0.56985 0.28122 0.0
C664 C 0.33198 0.45026 0.20766 0.0
C665 C 0.34014 0.457 0.16818 0.0
C666 C 0.3285 0.46758 0.23841 0.0
C667 C 0.33326 0.49198 0.23038 0.0
C668 C 0.34007 0.49879 0.19014 0.0
C669 C 0.34338 0.48151 0.15937 0.0
C670 C 0.34733 0.52112 0.33338 0.0
C671 C 0.34161 0.54529 0.32565 0.0
C672 C 0.34351 0.50365 0.30314 0.0
C673 C 0.33371 0.5099 0.26451 0.0
C674 C 0.32667 0.53387 0.2577 0.0
C675 C 0.33064 0.55141 0.28793 0.0
H676 H 0.17204 0.58913 0.03452 0.0
H677 H 0.23088 0.59314 0.12145 0.0
H678 H 0.20066 0.5853 0.97773 0.0
H679 H 0.2594 0.59023 0.06482 0.0
H680 H 0.30779 0.57607 0.95743 0.0
H681 H 0.27748 0.56788 0.01022 0.0
H682 H 0.22696 0.61284 0.94438 0.0
H683 H 0.25683 0.62027 0.89123 0.0
C684 C 0.19106 0.58894 0.04156 0.0
C685 C 0.19919 0.59178 0.08243 0.0
C686 C 0.20748 0.58689 0.00899 0.0
C687 C 0.23237 0.58783 0.01656 0.0
C688 C 0.24041 0.58922 0.05775 0.0
C689 C 0.22401 0.59106 0.0903 0.0
C690 C 0.29009 0.58391 0.954 0.0
C691 C 0.28479 0.59901 0.92036 0.0
C692 C 0.27274 0.5793 0.98434 0.0
C693 C 0.24979 0.58983 0.98179 0.0
C694 C 0.24428 0.60413 0.94718 0.0
C695 C 0.26153 0.60858 0.91678 0.0
H696 H 0.18779 0.47448 0.86483 0.0
H697 H 0.15839 0.43083 0.76651 0.0
H698 H 0.19385 0.50741 0.81595 0.0
H699 H 0.16426 0.46375 0.71795 0.0
H700 H 0.18769 0.52294 0.6332 0.0
H701 H 0.19357 0.48996 0.68202 0.0
H702 H 0.16462 0.53387 0.7803 0.0
H703 H 0.15893 0.56685 0.73179 0.0
C704 C 0.18299 0.47175 0.8327 0.0
C705 C 0.17234 0.45014 0.81965 0.0
C706 C 0.18637 0.49066 0.80477 0.0
C707 C 0.17936 0.48824 0.7632 0.0
C708 C 0.17004 0.46612 0.74969 0.0
C709 C 0.16652 0.4473 0.77762 0.0
C710 C 0.18298 0.52571 0.66538 0.0
C711 C 0.17257 0.54743 0.67853 0.0
C712 C 0.18627 0.50677 0.69327 0.0
C713 C 0.1794 0.50926 0.73491 0.0
C714 C 0.17029 0.53145 0.74851 0.0
C715 C 0.16687 0.55031 0.72061 0.0
H716 H 0.23513 0.40302 0.37465 0.0
H717 H 0.17811 0.41969 0.46083 0.0
H718 H 0.26436 0.40589 0.43018 0.0
H719 H 0.20755 0.4234 0.51633 0.0
H720 H 0.26009 0.38683 0.60782 0.0
H721 H 0.23069 0.39483 0.55416 0.0
H722 H 0.28544 0.42943 0.4802 0.0
H723 H 0.31516 0.42065 0.53362 0.0
C724 C 0.22888 0.40785 0.40529 0.0
C725 C 0.20425 0.41073 0.41346 0.0
C726 C 0.2457 0.40967 0.43717 0.0
C727 C 0.2383 0.41461 0.4779 0.0
C728 C 0.2138 0.41906 0.48549 0.0
C729 C 0.19694 0.41706 0.45363 0.0
C730 C 0.26584 0.39641 0.58036 0.0
C731 C 0.29004 0.40281 0.57475 0.0
C732 C 0.24889 0.4012 0.54965 0.0
C733 C 0.25569 0.41267 0.51267 0.0
C734 C 0.27968 0.4202 0.508 0.0
C735 C 0.29669 0.41527 0.53869 0.0
H736 H 0.09589 0.19535 0.41078 0.0
H737 H 0.16398 0.18553 0.34864 0.0
H738 H 0.09693 0.23801 0.39437 0.0
H739 H 0.16501 0.22857 0.33238 0.0
H740 H 0.16693 0.31194 0.36208 0.0
H741 H 0.16777 0.26844 0.37309 0.0
H742 H 0.09472 0.2633 0.32911 0.0
H743 H 0.09381 0.30661 0.31794 0.0
C744 C 0.11111 0.20229 0.39365 0.0
C745 C 0.12985 0.18705 0.38098 0.0
C746 C 0.11161 0.22672 0.38404 0.0
C747 C 0.13098 0.23655 0.36192 0.0
C748 C 0.1499 0.22143 0.34959 0.0
C749 C 0.14926 0.19683 0.35876 0.0
C750 C 0.15112 0.30149 0.35446 0.0
C751 C 0.13025 0.31274 0.33939 0.0
C752 C 0.15167 0.2766 0.36057 0.0
C753 C 0.13126 0.26257 0.3522 0.0
C754 C 0.11062 0.27374 0.33623 0.0
C755 C 0.11016 0.29853 0.32968 0.0
H756 H 0.94345 0.87211 0.70281 0.0
H757 H 0.94596 0.90779 0.58406 0.0
H758 H 0.98692 0.87538 0.70843 0.0
H759 H 0.98952 0.91154 0.59016 0.0
H760 H 0.06924 0.88771 0.59665 0.0
H761 H 0.0256 0.88679 0.58936 0.0
H762 H 0.01793 0.90515 0.71861 0.0
H763 H 0.06142 0.90554 0.72612 0.0
C764 C 0.95326 0.88079 0.67801 0.0
C765 C 0.94123 0.88969 0.643 0.0
C766 C 0.97819 0.88281 0.68135 0.0
C767 C 0.9917 0.89382 0.64982 0.0
C768 C 0.97967 0.90274 0.61479 0.0
C769 C 0.9547 0.9007 0.61141 0.0
C770 C 0.05823 0.89173 0.62342 0.0
C771 C 0.06881 0.89653 0.66203 0.0
C772 C 0.03321 0.89129 0.6192 0.0
C773 C 0.01827 0.8957 0.65349 0.0
C774 C 0.02891 0.90121 0.69176 0.0
C775 C 0.05387 0.90159 0.69599 0.0
H776 H 0.33377 0.80868 0.97449 0.0
H777 H 0.35819 0.81595 0.84811 0.0
H778 H 0.33351 0.76521 0.96706 0.0
H779 H 0.35836 0.77225 0.84095 0.0
H780 H 0.33565 0.69282 0.83368 0.0
H781 H 0.33267 0.73651 0.83861 0.0
H782 H 0.36347 0.7338 0.96124 0.0
H783 H 0.36601 0.69025 0.95669 0.0
C784 C 0.33901 0.80101 0.94503 0.0
C785 C 0.34614 0.8158 0.91196 0.0
C786 C 0.339 0.77606 0.94087 0.0
C787 C 0.34618 0.76524 0.90358 0.0
C788 C 0.35259 0.78003 0.87002 0.0
C789 C 0.35257 0.80506 0.87416 0.0
C790 C 0.34174 0.70156 0.86172 0.0
C791 C 0.35102 0.68804 0.89485 0.0
C792 C 0.34014 0.7266 0.86445 0.0
C793 C 0.34774 0.73864 0.90037 0.0
C794 C 0.35706 0.72508 0.9334 0.0
C795 C 0.35866 0.70009 0.93069 0.0
H796 H 0.44332 0.09316 0.21874 0.0
H797 H 0.43474 0.11105 0.08942 0.0
H798 H 0.48672 0.09306 0.21024 0.0
H799 H 0.47838 0.11142 0.08112 0.0
H800 H 0.55799 0.08904 0.07516 0.0
H801 H 0.51436 0.08607 0.08161 0.0
H802 H 0.51779 0.12283 0.1992 0.0
H803 H 0.56128 0.12538 0.19321 0.0
C804 C 0.45068 0.09702 0.18842 0.0
C805 C 0.43555 0.10226 0.1548 0.0
C806 C 0.4756 0.09711 0.18363 0.0
C807 C 0.48604 0.1025 0.14513 0.0
C808 C 0.47091 0.10704 0.11114 0.0
C809 C 0.4459 0.10691 0.11592 0.0
C810 C 0.54941 0.09644 0.10243 0.0
C811 C 0.56312 0.10739 0.13374 0.0
C812 C 0.52441 0.09484 0.106 0.0
C813 C 0.5126 0.10412 0.14099 0.0
C814 C 0.52634 0.11513 0.17217 0.0
C815 C 0.5513 0.11673 0.16861 0.0
H816 H 0.17618 0.6915 0.14613 0.0
H817 H 0.10348 0.70688 0.18488 0.0
H818 H 0.1839 0.73439 0.13856 0.0
H819 H 0.11086 0.74962 0.17591 0.0
H820 H 0.1343 0.8267 0.18245 0.0
H821 H 0.13133 0.78427 0.20067 0.0
H822 H 0.17318 0.76584 0.09249 0.0
H823 H 0.17686 0.80816 0.07523 0.0
C824 C 0.16186 0.70404 0.15309 0.0
C825 C 0.13918 0.69577 0.16588 0.0
C826 C 0.16623 0.72864 0.14854 0.0
C827 C 0.14797 0.74553 0.15635 0.0
C828 C 0.12548 0.73722 0.17018 0.0
C829 C 0.12117 0.71265 0.17506 0.0
C830 C 0.14312 0.81359 0.16288 0.0
C831 C 0.15572 0.82081 0.12728 0.0
C832 C 0.14128 0.78924 0.17316 0.0
C833 C 0.15184 0.77155 0.14789 0.0
C834 C 0.16508 0.77891 0.11302 0.0
C835 C 0.16708 0.80323 0.10295 0.0
H836 H 0.54597 0.85977 0.4407 0.0
H837 H 0.55883 0.92135 0.3622 0.0
H838 H 0.50281 0.86465 0.43106 0.0
H839 H 0.51566 0.92649 0.35325 0.0
H840 H 0.44083 0.90645 0.30316 0.0
H841 H 0.48366 0.90527 0.31768 0.0
H842 H 0.46864 0.89087 0.44651 0.0
H843 H 0.42557 0.8916 0.43182 0.0
C844 C 0.5396 0.87448 0.4217 0.0
C845 C 0.55585 0.89005 0.40195 0.0
C846 C 0.51483 0.87738 0.41642 0.0
C847 C 0.50579 0.89592 0.39128 0.0
C848 C 0.52206 0.91182 0.37233 0.0
C849 C 0.5468 0.90892 0.3776 0.0
C850 C 0.4466 0.90321 0.33468 0.0
C851 C 0.42976 0.89901 0.3663 0.0
C852 C 0.47119 0.90268 0.34304 0.0
C853 C 0.47958 0.89794 0.38324 0.0
C854 C 0.46274 0.89428 0.41511 0.0
C855 C 0.43808 0.89485 0.40674 0.0
H856 H 0.362 0.17517 0.67469 0.0
H857 H 0.3423 0.19053 0.54804 0.0
H858 H 0.3623 0.21817 0.68983 0.0
H859 H 0.34303 0.23334 0.56298 0.0
H860 H 0.32713 0.30808 0.61043 0.0
H861 H 0.32254 0.26485 0.60124 0.0
H862 H 0.38729 0.25285 0.67199 0.0
H863 H 0.39166 0.29605 0.68188 0.0
C864 C 0.35758 0.18768 0.65017 0.0
C865 C 0.35222 0.17942 0.61012 0.0
C866 C 0.35791 0.21232 0.65878 0.0
C867 C 0.35279 0.22918 0.62758 0.0
C868 C 0.3468 0.22084 0.58785 0.0
C869 C 0.34652 0.19626 0.57923 0.0
C870 C 0.34033 0.29622 0.62423 0.0
C871 C 0.35985 0.30552 0.64669 0.0
C872 C 0.33774 0.27145 0.61882 0.0
C873 C 0.3546 0.2554 0.63573 0.0
C874 C 0.37383 0.26469 0.65897 0.0
C875 C 0.37642 0.28948 0.66439 0.0
H876 H 0.05776 0.08765 0.80063 0.0
H877 H 0.07365 0.1089 0.9263 0.0
H878 H 0.01505 0.08873 0.81603 0.0
H879 H 0.03073 0.10944 0.94202 0.0
H880 H 0.95325 0.13992 0.93333 0.0
H881 H 0.99637 0.1343 0.92453 0.0
H882 H 0.98312 0.06963 0.85417 0.0
H883 H 0.93998 0.07557 0.86209 0.0
C884 C 0.05216 0.09223 0.83175 0.0
C885 C 0.06914 0.09833 0.86215 0.0
C886 C 0.02762 0.0927 0.84067 0.0
C887 C 0.01942 0.09925 0.88025 0.0
C888 C 0.03643 0.10464 0.91106 0.0
C889 C 0.06104 0.10417 0.90212 0.0
C890 C 0.95953 0.12441 0.91624 0.0
C891 C 0.94317 0.10833 0.89807 0.0
C892 C 0.98428 0.12108 0.91143 0.0
C893 C 0.99322 0.10157 0.88845 0.0
C894 C 0.97683 0.08507 0.87146 0.0
C895 C 0.9521 0.08843 0.87615 0.0
H896 H 0.88483 0.69915 0.69626 0.0
H897 H 0.83947 0.68591 0.59014 0.0
H898 H 0.88227 0.74229 0.68343 0.0
H899 H 0.83679 0.72904 0.57762 0.0
H900 H 0.86749 0.80297 0.5384 0.0
H901 H 0.86543 0.76026 0.55417 0.0
H902 H 0.85341 0.77671 0.68313 0.0
H903 H 0.85563 0.81966 0.66741 0.0
C904 C 0.87417 0.70544 0.6704 0.0
C905 C 0.8625 0.68908 0.64405 0.0
C906 C 0.87257 0.73016 0.66323 0.0
C907 C 0.85939 0.73904 0.62944 0.0
C908 C 0.8473 0.72271 0.60363 0.0
C909 C 0.84878 0.69801 0.61092 0.0
C910 C 0.86424 0.79753 0.5701 0.0
C911 C 0.86181 0.81471 0.60168 0.0
C912 C 0.86292 0.77303 0.57907 0.0
C913 C 0.85928 0.76513 0.61989 0.0
C914 C 0.85644 0.78229 0.65144 0.0
C915 C 0.85757 0.80686 0.64239 0.0
H916 H 0.94511 0.1096 0.27238 0.0
H917 H 0.93462 0.09889 0.40365 0.0
H918 H 0.98807 0.10429 0.28104 0.0
H919 H 0.97792 0.09306 0.41221 0.0
H920 H 0.05861 0.11563 0.41306 0.0
H921 H 0.0149 0.1168 0.40842 0.0
H922 H 0.01781 0.07401 0.297 0.0
H923 H 0.06151 0.07327 0.30108 0.0
C924 C 0.95194 0.10591 0.30311 0.0
C925 C 0.93641 0.10472 0.33736 0.0
C926 C 0.97662 0.10268 0.30801 0.0
C927 C 0.98644 0.09812 0.34728 0.0
C928 C 0.97092 0.09674 0.38159 0.0
C929 C 0.94612 0.09997 0.37667 0.0
C930 C 0.04992 0.10631 0.38774 0.0
C931 C 0.06356 0.09456 0.35719 0.0
C932 C 0.02484 0.10686 0.38524 0.0
C933 C 0.01288 0.09566 0.35217 0.0
C934 C 0.02651 0.08318 0.32247 0.0
C935 C 0.05156 0.08267 0.32492 0.0
H936 H 0.65811 0.30594 0.03376 0.0
H937 H 0.64442 0.30056 0.16512 0.0
H938 H 0.65745 0.26228 0.02834 0.0
H939 H 0.64328 0.2569 0.15948 0.0
H940 H 0.66123 0.1775 0.13926 0.0
H941 H 0.66726 0.22089 0.14509 0.0
H942 H 0.62653 0.23157 0.03277 0.0
H943 H 0.6209 0.18844 0.02653 0.0
C944 C 0.65507 0.29545 0.06152 0.0
C945 C 0.65112 0.30674 0.0998 0.0
C946 C 0.65456 0.27043 0.05836 0.0
C947 C 0.65009 0.25612 0.09341 0.0
C948 C 0.64697 0.26739 0.13196 0.0
C949 C 0.64748 0.29243 0.13513 0.0
C950 C 0.65368 0.18913 0.11574 0.0
C951 C 0.64057 0.17952 0.08246 0.0
C952 C 0.65705 0.21398 0.11917 0.0
C953 C 0.64743 0.22967 0.08933 0.0
C954 C 0.63452 0.21997 0.05592 0.0
C955 C 0.63114 0.19522 0.05253 0.0
H956 H 0.56941 0.88834 0.92636 0.0
H957 H 0.55125 0.899 0.79762 0.0
H958 H 0.52672 0.88758 0.94393 0.0
H959 H 0.50875 0.89787 0.81509 0.0
H960 H 0.43466 0.91557 0.86418 0.0
H961 H 0.47754 0.9203 0.85138 0.0
H962 H 0.49236 0.86055 0.93284 0.0
H963 H 0.44946 0.85602 0.94622 0.0
C964 C 0.55634 0.89066 0.90186 0.0
C965 C 0.56374 0.89367 0.86057 0.0
C966 C 0.53189 0.89007 0.9119 0.0
C967 C 0.51435 0.8926 0.8809 0.0
C968 C 0.5218 0.89615 0.83979 0.0
C969 C 0.54619 0.89667 0.82974 0.0
C970 C 0.44705 0.90351 0.87956 0.0
C971 C 0.43862 0.88532 0.90605 0.0
C972 C 0.47163 0.90617 0.87207 0.0
C973 C 0.48836 0.89074 0.89094 0.0
C974 C 0.47996 0.87289 0.91816 0.0
C975 C 0.45535 0.8702 0.92561 0.0
H976 H 0.82748 0.31131 0.87219 0.0
H977 H 0.90042 0.29973 0.83084 0.0
H978 H 0.82152 0.26804 0.87706 0.0
H979 H 0.89472 0.25649 0.83694 0.0
H980 H 0.87158 0.17924 0.81941 0.0
H981 H 0.87446 0.22245 0.80774 0.0
H982 H 0.83384 0.23523 0.91964 0.0
H983 H 0.83033 0.19217 0.93054 0.0
C984 C 0.84228 0.29953 0.86427 0.0
C985 C 0.86446 0.30896 0.85129 0.0
C986 C 0.83889 0.27471 0.86723 0.0
C987 C 0.85766 0.25874 0.85754 0.0
C988 C 0.87976 0.26821 0.84407 0.0
C989 C 0.88309 0.29304 0.84085 0.0
C990 C 0.86306 0.19129 0.84127 0.0
C991 C 0.85077 0.18226 0.87595 0.0
C992 C 0.86486 0.21607 0.83475 0.0
C993 C 0.85451 0.23236 0.86287 0.0
C994 C 0.84177 0.22325 0.89703 0.0
C995 C 0.83986 0.19851 0.90342 0.0
H996 H 0.55736 0.10003 0.69424 0.0
H997 H 0.57197 0.10776 0.56354 0.0
H998 H 0.51451 0.0993 0.68009 0.0
H999 H 0.52882 0.10663 0.54928 0.0
H1000 H 0.45059 0.13655 0.55213 0.0
H1001 H 0.49395 0.13294 0.56111 0.0
H1002 H 0.48303 0.07517 0.64846 0.0
H1003 H 0.43968 0.07903 0.64007 0.0
C1004 C 0.55145 0.10132 0.66239 0.0
C1005 C 0.56811 0.10407 0.63003 0.0
C1006 C 0.52683 0.10073 0.65426 0.0
C1007 C 0.51823 0.10291 0.61356 0.0
C1008 C 0.53489 0.10516 0.58102 0.0
C1009 C 0.5596 0.10566 0.58916 0.0
C1010 C 0.45744 0.12298 0.57307 0.0
C1011 C 0.44166 0.10823 0.59567 0.0
C1012 C 0.48231 0.1208 0.57798 0.0
C1013 C 0.49194 0.10384 0.60564 0.0
C1014 C 0.47616 0.08865 0.62736 0.0
C1015 C 0.45132 0.09081 0.62243 0.0
H1016 H 0.60431 0.70317 0.31574 0.0
H1017 H 0.66739 0.68938 0.39003 0.0
H1018 H 0.60925 0.74619 0.32701 0.0
H1019 H 0.67254 0.73244 0.40068 0.0
H1020 H 0.65309 0.80695 0.45417 0.0
H1021 H 0.65184 0.7642 0.43856 0.0
H1022 H 0.63545 0.78033 0.31087 0.0
H1023 H 0.6363 0.82322 0.32662 0.0
C1024 C 0.61934 0.70932 0.3342 0.0
C1025 C 0.63536 0.69283 0.35221 0.0
C1026 C 0.62227 0.73399 0.34041 0.0
C1027 C 0.64127 0.74274 0.3648 0.0
C1028 C 0.65754 0.72626 0.38217 0.0
C1029 C 0.65464 0.70159 0.37592 0.0
C1030 C 0.64941 0.80142 0.42267 0.0
C1031 C 0.64467 0.81851 0.39169 0.0
C1032 C 0.64883 0.77689 0.41367 0.0
C1033 C 0.64346 0.76885 0.3735 0.0
C1034 C 0.63932 0.78595 0.34225 0.0
C1035 C 0.63996 0.81052 0.35123 0.0
H1036 H 0.9305 0.88497 0.06315 0.0
H1037 H 0.94509 0.92483 0.17512 0.0
H1038 H 0.97351 0.88235 0.04933 0.0
H1039 H 0.988 0.92168 0.16187 0.0
H1040 H 0.0638 0.92683 0.11306 0.0
H1041 H 0.02066 0.9339 0.11784 0.0
H1042 H 0.00729 0.86095 0.07825 0.0
H1043 H 0.05038 0.85408 0.07243 0.0
C1044 C 0.94286 0.89335 0.08464 0.0
C1045 C 0.93435 0.905 0.12037 0.0
C1046 C 0.96752 0.89169 0.07687 0.0
C1047 C 0.98424 0.90161 0.10467 0.0
C1048 C 0.97566 0.91404 0.13957 0.0
C1049 C 0.95101 0.91574 0.14729 0.0
C1050 C 0.05165 0.91234 0.10511 0.0
C1051 C 0.06053 0.88984 0.09257 0.0
C1052 C 0.02691 0.91637 0.10802 0.0
C1053 C 0.01049 0.89798 0.0986 0.0
C1054 C 0.0194 0.87564 0.0852 0.0
C1055 C 0.04413 0.87163 0.08213 0.0
H1056 H 0.65927 0.80933 0.89688 0.0
H1057 H 0.61972 0.79967 0.78307 0.0
H1058 H 0.66419 0.76599 0.90281 0.0
H1059 H 0.62531 0.75636 0.78824 0.0
H1060 H 0.61281 0.68076 0.84032 0.0
H1061 H 0.61078 0.72386 0.82923 0.0
H1062 H 0.68355 0.73127 0.87417 0.0
H1063 H 0.68531 0.68804 0.88654 0.0
C1064 C 0.65185 0.79797 0.87288 0.0
C1065 C 0.63894 0.80793 0.83968 0.0
C1066 C 0.65482 0.7731 0.87611 0.0
C1067 C 0.6451 0.75763 0.84605 0.0
C1068 C 0.63268 0.76769 0.81232 0.0
C1069 C 0.62956 0.79254 0.80925 0.0
C1070 C 0.62847 0.69152 0.84756 0.0
C1071 C 0.64919 0.68095 0.86452 0.0
C1072 C 0.62735 0.71628 0.84095 0.0
C1073 C 0.64698 0.7311 0.85086 0.0
C1074 C 0.66796 0.72044 0.86679 0.0
C1075 C 0.66904 0.69564 0.87363 0.0
H1076 H 0.43848 0.41277 0.14693 0.0
H1077 H 0.44934 0.37474 0.03189 0.0
H1078 H 0.48176 0.41761 0.1543 0.0
H1079 H 0.49257 0.3803 0.03847 0.0
H1080 H 0.56746 0.36664 0.09226 0.0
H1081 H 0.52452 0.36509 0.07958 0.0
H1082 H 0.51697 0.43709 0.12804 0.0
H1083 H 0.56006 0.43833 0.14207 0.0
C1084 C 0.4501 0.40569 0.12295 0.0
C1085 C 0.44049 0.39318 0.08901 0.0
C1086 C 0.47493 0.40863 0.12702 0.0
C1087 C 0.49072 0.39928 0.09706 0.0
C1088 C 0.481 0.38735 0.06252 0.0
C1089 C 0.45619 0.38425 0.05864 0.0
C1090 C 0.55671 0.38225 0.09995 0.0
C1091 C 0.5672 0.40257 0.1184 0.0
C1092 C 0.53204 0.38141 0.09241 0.0
C1093 C 0.5172 0.40095 0.10283 0.0
C1094 C 0.5278 0.42157 0.12023 0.0
C1095 C 0.55252 0.42235 0.12802 0.0
H1096 H 0.83512 0.18682 0.3883 0.0
H1097 H 0.88214 0.20392 0.28599 0.0
H1098 H 0.83035 0.22946 0.40297 0.0
H1099 H 0.87791 0.24659 0.30139 0.0
H1100 H 0.85128 0.32298 0.32043 0.0
H1101 H 0.8508 0.28048 0.3016 0.0
H1102 H 0.85435 0.26121 0.43102 0.0
H1103 H 0.85417 0.30345 0.44979 0.0
C1104 C 0.84444 0.19968 0.36891 0.0
C1105 C 0.85915 0.19195 0.33614 0.0
C1106 C 0.84179 0.22415 0.37745 0.0
C1107 C 0.85389 0.24149 0.35358 0.0
C1108 C 0.86811 0.23376 0.32013 0.0
C1109 C 0.87067 0.20927 0.31146 0.0
C1110 C 0.85173 0.30964 0.34484 0.0
C1111 C 0.8528 0.31662 0.38661 0.0
C1112 C 0.85161 0.28529 0.33404 0.0
C1113 C 0.8526 0.2674 0.36477 0.0
C1114 C 0.85321 0.27445 0.40653 0.0
C1115 C 0.85325 0.29874 0.41731 0.0
H1116 H 0.94474 0.5994 0.70164 0.0
H1117 H 0.92917 0.60038 0.57063 0.0
H1118 H 0.9875 0.59872 0.68665 0.0
H1119 H 0.97218 0.59911 0.55556 0.0
H1120 H 0.04966 0.62991 0.55056 0.0
H1121 H 0.00651 0.62582 0.56123 0.0
H1122 H 0.0195 0.57447 0.65903 0.0
H1123 H 0.06265 0.57901 0.64908 0.0
C1124 C 0.95043 0.59915 0.66958 0.0
C1125 C 0.93352 0.60007 0.63734 0.0
C1126 C 0.975 0.5986 0.66097 0.0
C1127 C 0.9833 0.59888 0.61989 0.0
C1128 C 0.96638 0.59919 0.58756 0.0
C1129 C 0.94173 0.59976 0.59619 0.0
C1130 C 0.04331 0.61762 0.57415 0.0
C1131 C 0.05961 0.60497 0.59924 0.0
C1132 C 0.01855 0.61515 0.58008 0.0
C1133 C 0.00952 0.59992 0.61116 0.0
C1134 C 0.02585 0.58667 0.63531 0.0
C1135 C 0.05059 0.5892 0.62948 0.0
H1136 H 0.65967 0.19067 0.591 0.0
H1137 H 0.62843 0.19876 0.71265 0.0
H1138 H 0.66464 0.23402 0.58614 0.0
H1139 H 0.6341 0.24212 0.70836 0.0
H1140 H 0.61944 0.31888 0.66207 0.0
H1141 H 0.61749 0.27566 0.67218 0.0
H1142 H 0.68655 0.2678 0.61243 0.0
H1143 H 0.68816 0.31111 0.60116 0.0
C1144 C 0.65407 0.20169 0.61689 0.0
C1145 C 0.64349 0.19127 0.65209 0.0
C1146 C 0.6571 0.22656 0.61425 0.0
C1147 C 0.64977 0.24161 0.64685 0.0
C1148 C 0.63961 0.23111 0.6824 0.0
C1149 C 0.63644 0.20624 0.68494 0.0
C1150 C 0.63433 0.30799 0.65139 0.0
C1151 C 0.6539 0.31845 0.63056 0.0
C1152 C 0.63327 0.28316 0.65741 0.0
C1153 C 0.65181 0.26818 0.64297 0.0
C1154 C 0.67176 0.27875 0.62332 0.0
C1155 C 0.67276 0.30361 0.6171 0.0
H1156 H 0.04833 0.36171 0.93563 0.0
H1157 H 0.06145 0.42334 0.85739 0.0
H1158 H 0.00521 0.36691 0.92632 0.0
H1159 H 0.0183 0.42889 0.84893 0.0
H1160 H 0.9437 0.40882 0.79771 0.0
H1161 H 0.98643 0.40832 0.81306 0.0
H1162 H 0.97082 0.39231 0.94115 0.0
H1163 H 0.92788 0.39226 0.92554 0.0
C1164 C 0.04202 0.37656 0.91687 0.0
C1165 C 0.05834 0.39197 0.89693 0.0
C1166 C 0.01726 0.37964 0.91176 0.0
C1167 C 0.00828 0.39825 0.8867 0.0
C1168 C 0.02462 0.41413 0.86788 0.0
C1169 C 0.04936 0.41101 0.87287 0.0
C1170 C 0.94932 0.4054 0.82925 0.0
C1171 C 0.93237 0.40043 0.86034 0.0
C1172 C 0.97387 0.40526 0.83812 0.0
C1173 C 0.98208 0.40021 0.87832 0.0
C1174 C 0.96509 0.39594 0.90973 0.0
C1175 C 0.94049 0.39607 0.90084 0.0
H1176 H 0.91009 0.80316 0.14694 0.0
H1177 H 0.83421 0.80801 0.11967 0.0
H1178 H 0.90836 0.75968 0.13823 0.0
H1179 H 0.83255 0.76434 0.1111 0.0
H1180 H 0.8383 0.68211 0.1421 0.0
H1181 H 0.83839 0.72561 0.15411 0.0
H1182 H 0.90107 0.73268 0.07628 0.0
H1183 H 0.90099 0.68953 0.0641 0.0
C1184 C 0.89301 0.79495 0.13931 0.0
C1185 C 0.87232 0.80904 0.13375 0.0
C1186 C 0.89206 0.77007 0.13417 0.0
C1187 C 0.87035 0.75869 0.12381 0.0
C1188 C 0.84949 0.77266 0.1193 0.0
C1189 C 0.85049 0.79764 0.12397 0.0
C1190 C 0.85206 0.69299 0.12755 0.0
C1191 C 0.86964 0.68239 0.10218 0.0
C1192 C 0.85204 0.71785 0.13429 0.0
C1193 C 0.86982 0.73244 0.11629 0.0
C1194 C 0.88732 0.72182 0.09092 0.0
C1195 C 0.88717 0.69711 0.08377 0.0
H1196 H 0.55374 0.58789 0.29965 0.0
H1197 H 0.56967 0.61434 0.42235 0.0
H1198 H 0.51098 0.59035 0.31449 0.0
H1199 H 0.52675 0.61629 0.43754 0.0
H1200 H 0.44986 0.64699 0.42602 0.0
H1201 H 0.49286 0.64086 0.41656 0.0
H1202 H 0.47872 0.57341 0.35503 0.0
H1203 H 0.43569 0.5798 0.36362 0.0
C1204 C 0.54814 0.59392 0.33002 0.0
C1205 C 0.56514 0.60106 0.35971 0.0
C1206 C 0.52358 0.5952 0.33862 0.0
C1207 C 0.51541 0.60363 0.37715 0.0
C1208 C 0.53244 0.61007 0.40733 0.0
C1209 C 0.55704 0.60879 0.39872 0.0
C1210 C 0.45592 0.6308 0.41065 0.0
C1211 C 0.43933 0.61398 0.39532 0.0
C1212 C 0.4806 0.6272 0.40548 0.0
C1213 C 0.48925 0.60666 0.38497 0.0
C1214 C 0.47265 0.58959 0.37044 0.0
C1215 C 0.44798 0.59322 0.37551 0.0
H1216 H 0.36001 0.32272 0.17397 0.0
H1217 H 0.35021 0.30489 0.04491 0.0
H1218 H 0.36081 0.27996 0.19118 0.0
H1219 H 0.35141 0.26236 0.062 0.0
H1220 H 0.33413 0.18797 0.1094 0.0
H1221 H 0.32901 0.23088 0.09741 0.0
H1222 H 0.38804 0.24578 0.1803 0.0
H1223 H 0.39293 0.20284 0.19291 0.0
C1224 C 0.35789 0.30971 0.14932 0.0
C1225 C 0.35511 0.31722 0.10805 0.0
C1226 C 0.3585 0.28523 0.15916 0.0
C1227 C 0.35624 0.26776 0.12795 0.0
C1228 C 0.35291 0.27533 0.08685 0.0
C1229 C 0.35237 0.29975 0.07702 0.0
C1230 C 0.34594 0.20038 0.12528 0.0
C1231 C 0.36405 0.19196 0.15192 0.0
C1232 C 0.34306 0.22498 0.11826 0.0
C1233 C 0.35819 0.24174 0.13773 0.0
C1234 C 0.37592 0.23335 0.16516 0.0
C1235 C 0.37882 0.20873 0.17216 0.0
H1236 H 0.43724 0.60763 0.7919 0.0
H1237 H 0.42046 0.60393 0.92235 0.0
H1238 H 0.47993 0.60598 0.80792 0.0
H1239 H 0.46339 0.60212 0.93836 0.0
H1240 H 0.54086 0.63491 0.94464 0.0
H1241 H 0.49772 0.63095 0.93309 0.0
H1242 H 0.51119 0.57893 0.83669 0.0
H1243 H 0.55434 0.58298 0.84795 0.0
C1244 C 0.44265 0.60623 0.824 0.0
C1245 C 0.42547 0.60603 0.85587 0.0
C1246 C 0.46713 0.60512 0.83315 0.0
C1247 C 0.47501 0.60395 0.8744 0.0
C1248 C 0.45783 0.60322 0.90629 0.0
C1249 C 0.43328 0.60412 0.89711 0.0
C1250 C 0.53463 0.62248 0.92121 0.0
C1251 C 0.55104 0.60942 0.89698 0.0
C1252 C 0.5099 0.62009 0.9148 0.0
C1253 C 0.50109 0.6047 0.88387 0.0
C1254 C 0.51748 0.59113 0.86044 0.0
C1255 C 0.54219 0.5934 0.86701 0.0
H1256 H 0.14506 0.69454 0.55474 0.0
H1257 H 0.14364 0.67708 0.68506 0.0
H1258 H 0.14592 0.73706 0.5715 0.0
H1259 H 0.14498 0.71989 0.7019 0.0
H1260 H 0.11584 0.79815 0.70932 0.0
H1261 H 0.11868 0.75502 0.69687 0.0
H1262 H 0.17134 0.76784 0.60108 0.0
H1263 H 0.16814 0.81093 0.61287 0.0
C1264 C 0.14517 0.69976 0.58703 0.0
C1265 C 0.14421 0.68239 0.61856 0.0
C1266 C 0.14582 0.72418 0.59664 0.0
C1267 C 0.14556 0.73189 0.63804 0.0
C1268 C 0.14495 0.71453 0.66968 0.0
C1269 C 0.14432 0.69001 0.66004 0.0
C1270 C 0.12814 0.79176 0.68579 0.0
C1271 C 0.1416 0.808 0.66183 0.0
C1272 C 0.12988 0.76702 0.67883 0.0
C1273 C 0.14513 0.75799 0.6478 0.0
C1274 C 0.15912 0.77423 0.62474 0.0
C1275 C 0.15736 0.79893 0.63163 0.0
H1276 H 0.07058 0.39095 0.41731 0.0
H1277 H 0.05281 0.41545 0.29412 0.0
H1278 H 0.0279 0.38875 0.43421 0.0
H1279 H 0.01027 0.41273 0.3107 0.0
H1280 H 0.93547 0.423 0.36222 0.0
H1281 H 0.9783 0.42985 0.35177 0.0
H1282 H 0.99412 0.36343 0.41548 0.0
H1283 H 0.95135 0.35686 0.42679 0.0
C1284 C 0.0576 0.39603 0.39393 0.0
C1285 C 0.06511 0.40327 0.3543 0.0
C1286 C 0.03313 0.3946 0.40353 0.0
C1287 C 0.01566 0.4004 0.37373 0.0
C1288 C 0.02323 0.40837 0.33454 0.0
C1289 C 0.04766 0.40981 0.32496 0.0
C1290 C 0.9481 0.40991 0.37419 0.0
C1291 C 0.93999 0.38931 0.39515 0.0
C1292 C 0.97265 0.4138 0.36805 0.0
C1293 C 0.98965 0.39715 0.38265 0.0
C1294 C 0.98154 0.37678 0.40431 0.0
C1295 C 0.95699 0.37292 0.41054 0.0
H1296 H 0.35652 0.68127 0.32264 0.0
H1297 H 0.34338 0.69633 0.45189 0.0
H1298 H 0.35629 0.72433 0.30782 0.0
H1299 H 0.34365 0.73915 0.43726 0.0
H1300 H 0.32641 0.81419 0.3945 0.0
H1301 H 0.32169 0.77095 0.40312 0.0
H1302 H 0.38204 0.75887 0.32158 0.0
H1303 H 0.38644 0.80211 0.3122 0.0
C1304 C 0.35344 0.69373 0.34783 0.0
C1305 C 0.35005 0.68536 0.38847 0.0
C1306 C 0.35346 0.7184 0.33938 0.0
C1307 C 0.35002 0.73519 0.37137 0.0
C1308 C 0.34604 0.72674 0.41179 0.0
C1309 C 0.34604 0.70214 0.42022 0.0
C1310 C 0.33858 0.80232 0.37818 0.0
C1311 C 0.35692 0.81161 0.35289 0.0
C1312 C 0.33593 0.77753 0.38326 0.0
C1313 C 0.35158 0.76145 0.36325 0.0
C1314 C 0.36951 0.77074 0.33708 0.0
C1315 C 0.37214 0.79554 0.33193 0.0
H1316 H 0.94452 0.63631 0.17969 0.0
H1317 H 0.93881 0.57915 0.0897 0.0
H1318 H 0.98816 0.63264 0.17831 0.0
H1319 H 0.98261 0.57551 0.08845 0.0
H1320 H 0.06041 0.56097 0.13925 0.0
H1321 H 0.01653 0.56335 0.13707 0.0
H1322 H 0.0209 0.64056 0.1263 0.0
H1323 H 0.06458 0.63829 0.12846 0.0
C1324 C 0.95256 0.6229 0.15973 0.0
C1325 C 0.93821 0.60804 0.13477 0.0
C1326 C 0.97756 0.62092 0.15875 0.0
C1327 C 0.98876 0.60388 0.1331 0.0
C1328 C 0.97443 0.58872 0.10864 0.0
C1329 C 0.94939 0.59088 0.10927 0.0
C1330 C 0.052 0.57842 0.13606 0.0
C1331 C 0.06599 0.59944 0.13422 0.0
C1332 C 0.0269 0.57977 0.13469 0.0
C1333 C 0.01534 0.60216 0.13188 0.0
C1334 C 0.02934 0.62309 0.12906 0.0
C1335 C 0.05437 0.62175 0.13004 0.0
H1336 H 0.10049 0.19978 0.83489 0.0
H1337 H 0.17419 0.18822 0.87195 0.0
H1338 H 0.10636 0.24303 0.84014 0.0
H1339 H 0.18031 0.2315 0.87593 0.0
H1340 H 0.17286 0.30788 0.92796 0.0
H1341 H 0.16907 0.26473 0.91832 0.0
H1342 H 0.12603 0.27674 0.80893 0.0
H1343 H 0.12919 0.32001 0.81939 0.0
C1344 C 0.11801 0.20648 0.8438 0.0
C1345 C 0.13682 0.19056 0.85323 0.0
C1346 C 0.12144 0.2313 0.84651 0.0
C1347 C 0.14382 0.2408 0.85845 0.0
C1348 C 0.16273 0.22483 0.86727 0.0
C1349 C 0.15925 0.2 0.86483 0.0
C1350 C 0.16274 0.30135 0.90164 0.0
C1351 C 0.15122 0.3174 0.87457 0.0
C1352 C 0.16067 0.27655 0.89598 0.0
C1353 C 0.14715 0.2672 0.86294 0.0
C1354 C 0.13622 0.2833 0.83513 0.0
C1355 C 0.13818 0.30812 0.84095 0.0
H1356 H 0.43977 0.41058 0.69859 0.0
H1357 H 0.42522 0.38508 0.57478 0.0
H1358 H 0.48268 0.40912 0.68455 0.0
H1359 H 0.46827 0.3841 0.56046 0.0
H1360 H 0.54544 0.35427 0.57354 0.0
H1361 H 0.50231 0.35971 0.58209 0.0
H1362 H 0.51492 0.42714 0.64467 0.0
H1363 H 0.55813 0.42146 0.6369 0.0
C1364 C 0.44571 0.40497 0.66816 0.0
C1365 C 0.42906 0.39779 0.6379 0.0
C1366 C 0.47034 0.40426 0.66003 0.0
C1367 C 0.47892 0.39638 0.62144 0.0
C1368 C 0.46224 0.38992 0.59071 0.0
C1369 C 0.43757 0.39063 0.59884 0.0
C1370 C 0.53903 0.37032 0.58894 0.0
C1371 C 0.55523 0.38735 0.60479 0.0
C1372 C 0.51427 0.37352 0.59358 0.0
C1373 C 0.50516 0.39385 0.61412 0.0
C1374 C 0.52137 0.41113 0.62919 0.0
C1375 C 0.54613 0.40791 0.62459 0.0
H1376 H 0.1782 0.10995 0.5076 0.0
H1377 H 0.11052 0.0759 0.53701 0.0
H1378 H 0.18787 0.11201 0.5811 0.0
H1379 H 0.11978 0.07867 0.61031 0.0
H1380 H 0.14673 0.07468 0.74034 0.0
H1381 H 0.14434 0.06556 0.66665 0.0
H1382 H 0.17404 0.13544 0.63831 0.0
H1383 H 0.17717 0.14418 0.71173 0.0
C1384 C 0.16546 0.10277 0.52973 0.0
C1385 C 0.14349 0.09298 0.51651 0.0
C1386 C 0.17094 0.10406 0.57186 0.0
C1387 C 0.15451 0.09572 0.60167 0.0
C1388 C 0.13299 0.08502 0.58826 0.0
C1389 C 0.12759 0.08358 0.54616 0.0
C1390 C 0.15306 0.08794 0.71835 0.0
C1391 C 0.16196 0.11023 0.73186 0.0
C1392 C 0.15157 0.08277 0.67611 0.0
C1393 C 0.15881 0.09984 0.6465 0.0
C1394 C 0.16859 0.12174 0.66018 0.0
C1395 C 0.17022 0.12683 0.70236 0.0
H1396 H 0.1984 0.86343 0.78222 0.0
H1397 H 0.14949 0.92308 0.76646 0.0
H1398 H 0.20008 0.87152 0.85642 0.0
H1399 H 0.15105 0.93097 0.84053 0.0
H1400 H 0.16982 0.94812 0.97364 0.0
H1401 H 0.17715 0.94344 0.89944 0.0
H1402 H 0.16949 0.86653 0.91173 0.0
H1403 H 0.16236 0.87111 0.98558 0.0
C1404 C 0.18828 0.87845 0.79446 0.0
C1405 C 0.17362 0.89245 0.76854 0.0
C1406 C 0.18917 0.88302 0.83696 0.0
C1407 C 0.17556 0.90176 0.85429 0.0
C1408 C 0.16189 0.91652 0.82804 0.0
C1409 C 0.16088 0.91188 0.78562 0.0
C1410 C 0.17002 0.93021 0.96056 0.0
C1411 C 0.16531 0.91001 0.98539 0.0
C1412 C 0.17412 0.92755 0.91809 0.0
C1413 C 0.17385 0.90463 0.8998 0.0
C1414 C 0.17009 0.8844 0.92498 0.0
C1415 C 0.1658 0.88706 0.96726 0.0
H1416 H 0.32056 0.89959 0.01684 0.0
H1417 H 0.39145 0.92515 0.04909 0.0
H1418 H 0.30975 0.89841 0.08991 0.0
H1419 H 0.38097 0.9232 0.12201 0.0
H1420 H 0.35352 0.92958 0.25104 0.0
H1421 H 0.35752 0.93885 0.17765 0.0
H1422 H 0.31979 0.87329 0.14729 0.0
H1423 H 0.31509 0.86448 0.22054 0.0
C1424 C 0.33378 0.90513 0.03951 0.0
C1425 C 0.35694 0.91227 0.02721 0.0
C1426 C 0.32763 0.90432 0.0814 0.0
C1427 C 0.34455 0.91049 0.11191 0.0
C1428 C 0.36737 0.91861 0.09941 0.0
C1429 C 0.37345 0.91958 0.05753 0.0
C1430 C 0.34576 0.91735 0.22867 0.0
C1431 C 0.33418 0.89618 0.24157 0.0
C1432 C 0.34817 0.92259 0.1866 0.0
C1433 C 0.33921 0.9067 0.15651 0.0
C1434 C 0.32667 0.88609 0.16955 0.0
C1435 C 0.3241 0.88094 0.21162 0.0
H1436 H 0.38973 0.06771 0.46081 0.0
H1437 H 0.32331 0.10301 0.4942 0.0
H1438 H 0.3799 0.07235 0.38802 0.0
H1439 H 0.31306 0.10697 0.42118 0.0
H1440 H 0.32462 0.14232 0.29267 0.0
H1441 H 0.32728 0.13143 0.36536 0.0
H1442 H 0.35448 0.06138 0.33146 0.0
H1443 H 0.35255 0.0726 0.25863 0.0
C1444 C 0.37278 0.07602 0.45263 0.0
C1445 C 0.35744 0.08525 0.48327 0.0
C1446 C 0.36705 0.07855 0.41081 0.0
C1447 C 0.34575 0.09019 0.39869 0.0
C1448 C 0.32981 0.0983 0.42945 0.0
C1449 C 0.33563 0.09591 0.4713 0.0
C1450 C 0.33086 0.12447 0.30067 0.0
C1451 C 0.33866 0.10844 0.26992 0.0
C1452 C 0.33224 0.11815 0.34241 0.0
C1453 C 0.34129 0.09558 0.35431 0.0
C1454 C 0.34786 0.07907 0.32339 0.0
C1455 C 0.34664 0.08546 0.28164 0.0
H1456 H 0.82885 0.85541 0.27964 0.0
H1457 H 0.86244 0.92323 0.24944 0.0
H1458 H 0.83254 0.86453 0.35292 0.0
H1459 H 0.86553 0.93267 0.32292 0.0
H1460 H 0.89871 0.92154 0.45304 0.0
H1461 H 0.88961 0.91832 0.37969 0.0
H1462 H 0.81944 0.88973 0.40915 0.0
H1463 H 0.82882 0.89233 0.48271 0.0
C1464 C 0.83667 0.87245 0.28862 0.0
C1465 C 0.84557 0.88848 0.25873 0.0
C1466 C 0.83863 0.87777 0.33069 0.0
C1467 C 0.84944 0.89929 0.34382 0.0
C1468 C 0.85746 0.91577 0.31384 0.0
C1469 C 0.85558 0.9104 0.27173 0.0
C1470 C 0.88123 0.91482 0.44393 0.0
C1471 C 0.8646 0.90694 0.47369 0.0
C1472 C 0.87594 0.91312 0.40181 0.0
C1473 C 0.85385 0.90362 0.38852 0.0
C1474 C 0.83679 0.89675 0.41837 0.0
C1475 C 0.84212 0.89836 0.46052 0.0
H1476 H 0.83728 0.12284 0.003 0.0
H1477 H 0.87053 0.05369 0.02324 0.0
H1478 H 0.82827 0.12587 0.07634 0.0
H1479 H 0.86047 0.0561 0.09654 0.0
H1480 H 0.87223 0.08597 0.22713 0.0
H1481 H 0.8748 0.07755 0.15378 0.0
H1482 H 0.80641 0.11276 0.13458 0.0
H1483 H 0.80443 0.1222 0.20829 0.0
C1484 C 0.8422 0.10803 0.02303 0.0
C1485 C 0.85489 0.08816 0.00749 0.0
C1486 C 0.83687 0.10967 0.06515 0.0
C1487 C 0.84381 0.09132 0.0926 0.0
C1488 C 0.85535 0.07084 0.07651 0.0
C1489 C 0.86101 0.06937 0.03447 0.0
C1490 C 0.85758 0.09171 0.2074 0.0
C1491 C 0.83822 0.10495 0.22346 0.0
C1492 C 0.85896 0.0867 0.16521 0.0
C1493 C 0.84085 0.09451 0.13804 0.0
C1494 C 0.82092 0.10685 0.15445 0.0
C1495 C 0.81969 0.11215 0.19672 0.0
H1496 H 0.64272 0.0717 0.74236 0.0
H1497 H 0.68517 0.13352 0.77708 0.0
H1498 H 0.63862 0.06073 0.81505 0.0
H1499 H 0.68043 0.12304 0.84962 0.0
H1500 H 0.67819 0.0942 0.97806 0.0
H1501 H 0.68905 0.09588 0.90502 0.0
H1502 H 0.61629 0.07666 0.87194 0.0
H1503 H 0.60569 0.07422 0.94473 0.0
C1504 C 0.65135 0.08283 0.76548 0.0
C1505 C 0.66406 0.10362 0.75401 0.0
C1506 C 0.6489 0.07661 0.80715 0.0
C1507 C 0.65896 0.09113 0.83823 0.0
C1508 C 0.67266 0.11127 0.82654 0.0
C1509 C 0.67525 0.11739 0.78488 0.0
C1510 C 0.66462 0.08997 0.95516 0.0
C1511 C 0.64101 0.08433 0.96715 0.0
C1512 C 0.67082 0.09105 0.91331 0.0
C1513 C 0.6535 0.08666 0.88257 0.0
C1514 C 0.63018 0.07988 0.89471 0.0
C1515 C 0.62404 0.07864 0.93654 0.0
H1516 H 0.67437 0.89886 0.50782 0.0
H1517 H 0.60483 0.92809 0.53962 0.0
H1518 H 0.68445 0.89604 0.58106 0.0
H1519 H 0.61447 0.92443 0.61263 0.0
H1520 H 0.64093 0.92701 0.74277 0.0
H1521 H 0.63784 0.9376 0.66975 0.0
H1522 H 0.67285 0.87089 0.63697 0.0
H1523 H 0.67673 0.86082 0.70979 0.0
C1524 C 0.66129 0.90483 0.53044 0.0
C1525 C 0.63872 0.91351 0.51796 0.0
C1526 C 0.66701 0.90308 0.57243 0.0
C1527 C 0.6502 0.90977 0.60283 0.0
C1528 C 0.62801 0.91939 0.59017 0.0
C1529 C 0.62239 0.92135 0.54821 0.0
C1530 C 0.64827 0.91479 0.71994 0.0
C1531 C 0.65891 0.89299 0.73201 0.0
C1532 C 0.64638 0.92079 0.67807 0.0
C1533 C 0.65489 0.90501 0.64738 0.0
C1534 C 0.66638 0.88365 0.65968 0.0
C1535 C 0.66847 0.87778 0.70151 0.0
H1536 H 0.66871 0.612 0.00294 0.0
H1537 H 0.60349 0.57459 0.03645 0.0
H1538 H 0.67914 0.61577 0.07592 0.0
H1539 H 0.61343 0.57908 0.10923 0.0
H1540 H 0.64305 0.57691 0.23767 0.0
H1541 H 0.63942 0.56758 0.16427 0.0
H1542 H 0.66557 0.63858 0.13379 0.0
H1543 H 0.67001 0.64754 0.20699 0.0
C1544 C 0.65664 0.60451 0.02588 0.0
C1545 C 0.6352 0.59313 0.01394 0.0
C1546 C 0.66256 0.60678 0.06771 0.0
C1547 C 0.64706 0.59788 0.09852 0.0
C1548 C 0.62598 0.58585 0.08641 0.0
C1549 C 0.62017 0.58341 0.04461 0.0
C1550 C 0.64831 0.5904 0.21525 0.0
C1551 C 0.65665 0.61303 0.22813 0.0
C1552 C 0.6461 0.58511 0.17317 0.0
C1553 C 0.65197 0.6024 0.14306 0.0
C1554 C 0.66115 0.62471 0.15604 0.0
C1555 C 0.66356 0.62992 0.19809 0.0
H1556 H 0.60367 0.42292 0.46338 0.0
H1557 H 0.67105 0.38843 0.49324 0.0
H1558 H 0.61213 0.41818 0.39008 0.0
H1559 H 0.67996 0.38443 0.41968 0.0
H1560 H 0.66911 0.3507 0.29076 0.0
H1561 H 0.66578 0.36036 0.36382 0.0
H1562 H 0.63633 0.42994 0.33263 0.0
H1563 H 0.63889 0.41987 0.25932 0.0
C1564 C 0.6205 0.4147 0.45429 0.0
C1565 C 0.63657 0.40583 0.48412 0.0
C1566 C 0.62545 0.41213 0.41217 0.0
C1567 C 0.64669 0.4008 0.3989 0.0
C1568 C 0.66324 0.39284 0.42882 0.0
C1569 C 0.65819 0.39525 0.47098 0.0
C1570 C 0.66212 0.36815 0.29943 0.0
C1571 C 0.65405 0.38442 0.26925 0.0
C1572 C 0.66037 0.37378 0.34141 0.0
C1573 C 0.65068 0.39591 0.3542 0.0
C1574 C 0.64348 0.41257 0.32389 0.0
C1575 C 0.64507 0.40686 0.28187 0.0
H1576 H 0.85477 0.42604 0.74155 0.0
H1577 H 0.82323 0.35729 0.71131 0.0
H1578 H 0.8575 0.43567 0.66808 0.0
H1579 H 0.82666 0.36655 0.63808 0.0
H1580 H 0.82298 0.39354 0.50794 0.0
H1581 H 0.81331 0.39074 0.58138 0.0
H1582 H 0.88198 0.42253 0.61151 0.0
H1583 H 0.89127 0.42603 0.53827 0.0
C1584 C 0.84825 0.41306 0.71925 0.0
C1585 C 0.83896 0.39082 0.73225 0.0
C1586 C 0.84995 0.41852 0.67714 0.0
C1587 C 0.8425 0.40181 0.64712 0.0
C1588 C 0.8323 0.37998 0.66028 0.0
C1589 C 0.83048 0.37459 0.70235 0.0
C1590 C 0.83586 0.40022 0.53026 0.0
C1591 C 0.85797 0.40983 0.51729 0.0
C1592 C 0.83038 0.3985 0.57236 0.0
C1593 C 0.84694 0.40622 0.6024 0.0
C1594 C 0.86865 0.41668 0.58928 0.0
C1595 C 0.87407 0.41853 0.54721 0.0
H1596 H 0.82206 0.60449 0.98565 0.0
H1597 H 0.89092 0.57338 0.95474 0.0
H1598 H 0.81208 0.60688 0.91228 0.0
H1599 H 0.88132 0.57646 0.88165 0.0
H1600 H 0.85438 0.5722 0.75209 0.0
H1601 H 0.85701 0.56267 0.82555 0.0
H1602 H 0.8248 0.63124 0.85515 0.0
H1603 H 0.82146 0.64038 0.7818 0.0
C1604 C 0.83499 0.59801 0.96323 0.0
C1605 C 0.85737 0.58893 0.976 0.0
C1606 C 0.82933 0.5995 0.92118 0.0
C1607 C 0.84596 0.59205 0.89102 0.0
C1608 C 0.86793 0.58208 0.90397 0.0
C1609 C 0.87353 0.58047 0.94597 0.0
C1610 C 0.84755 0.58508 0.77429 0.0
C1611 C 0.83792 0.60714 0.76115 0.0
C1612 C 0.84917 0.57967 0.8164 0.0
C1613 C 0.84136 0.59628 0.84631 0.0
C1614 C 0.83076 0.6179 0.83302 0.0
C1615 C 0.82898 0.62322 0.7909 0.0
H1616 H 0.3222 0.35382 0.78861 0.0
H1617 H 0.3491 0.42394 0.7545 0.0
H1618 H 0.32569 0.36435 0.86132 0.0
H1619 H 0.35179 0.43483 0.82739 0.0
H1620 H 0.38719 0.42957 0.95641 0.0
H1621 H 0.37739 0.42448 0.88369 0.0
H1622 H 0.31155 0.3882 0.9175 0.0
H1623 H 0.32184 0.39255 0.99043 0.0
C1624 C 0.32841 0.37167 0.79662 0.0
C1625 C 0.33561 0.38795 0.76581 0.0
C1626 C 0.33027 0.37779 0.83839 0.0
C1627 C 0.33918 0.40041 0.85029 0.0
C1628 C 0.34529 0.4171 0.81934 0.0
C1629 C 0.34362 0.4109 0.77755 0.0
C1630 C 0.37047 0.42077 0.94837 0.0
C1631 C 0.35542 0.41124 0.97917 0.0
C1632 C 0.36475 0.41798 0.90659 0.0
C1633 C 0.34373 0.40578 0.89466 0.0
C1634 C 0.3281 0.39728 0.92559 0.0
C1635 C 0.33393 0.3999 0.96739 0.0
H1636 H 0.34862 0.57402 0.73818 0.0
H1637 H 0.31795 0.64302 0.7068 0.0
H1638 H 0.35238 0.56449 0.66482 0.0
H1639 H 0.32236 0.63381 0.63371 0.0
H1640 H 0.32082 0.60719 0.50341 0.0
H1641 H 0.30977 0.60949 0.5763 0.0
H1642 H 0.3781 0.57809 0.60976 0.0
H1643 H 0.38882 0.57514 0.53701 0.0
C1644 C 0.34249 0.58707 0.71566 0.0
C1645 C 0.3332 0.60938 0.7283 0.0
C1646 C 0.34477 0.58166 0.67362 0.0
C1647 C 0.33789 0.59846 0.64337 0.0
C1648 C 0.32759 0.62032 0.65612 0.0
C1649 C 0.32521 0.62568 0.69811 0.0
C1650 C 0.33334 0.60047 0.52632 0.0
C1651 C 0.35579 0.59118 0.51446 0.0
C1652 C 0.32705 0.6019 0.5681 0.0
C1653 C 0.34312 0.59417 0.59891 0.0
C1654 C 0.36515 0.58395 0.58687 0.0
C1655 C 0.37139 0.58241 0.54511 0.0
H1656 H 0.16483 0.62018 0.49603 0.0
H1657 H 0.13105 0.55114 0.47701 0.0
H1658 H 0.17182 0.62377 0.42228 0.0
H1659 H 0.13892 0.55429 0.40287 0.0
H1660 H 0.12545 0.58652 0.27268 0.0
H1661 H 0.12378 0.57673 0.34597 0.0
H1662 H 0.19318 0.6101 0.36374 0.0
H1663 H 0.19432 0.62077 0.29065 0.0
C1664 C 0.1593 0.60552 0.47616 0.0
C1665 C 0.14718 0.58546 0.49237 0.0
C1666 C 0.16349 0.60749 0.43375 0.0
C1667 C 0.15589 0.58935 0.40645 0.0
C1668 C 0.14465 0.56879 0.4229 0.0
C1669 C 0.14026 0.56691 0.46541 0.0
C1670 C 0.14048 0.59152 0.29216 0.0
C1671 C 0.15987 0.6047 0.27603 0.0
C1672 C 0.13961 0.58576 0.33421 0.0
C1673 C 0.15825 0.59281 0.36097 0.0
C1674 C 0.17825 0.60486 0.34425 0.0
C1675 C 0.17898 0.61088 0.3023 0.0
H1676 H 0.12818 0.41893 0.2264 0.0
H1677 H 0.19229 0.3765 0.20793 0.0
H1678 H 0.12626 0.427 0.15255 0.0
H1679 H 0.19107 0.38545 0.13415 0.0
H1680 H 0.13433 0.44885 0.01961 0.0
H1681 H 0.14266 0.44624 0.09363 0.0
H1682 H 0.16767 0.37328 0.07729 0.0
H1683 H 0.16033 0.37628 0.00356 0.0
C1684 C 0.14216 0.41174 0.20664 0.0
C1685 C 0.16023 0.39684 0.22288 0.0
C1686 C 0.14117 0.4165 0.16424 0.0
C1687 C 0.1584 0.40672 0.13718 0.0
C1688 C 0.17718 0.39283 0.15389 0.0
C1689 C 0.17798 0.3878 0.19622 0.0
C1690 C 0.14188 0.43239 0.03186 0.0
C1691 C 0.14656 0.41275 0.00577 0.0
C1692 C 0.14654 0.43082 0.07431 0.0
C1693 C 0.15573 0.4095 0.09161 0.0
C1694 C 0.16099 0.39014 0.06515 0.0
C1695 C 0.1566 0.39179 0.02277 0.0
loop_
_geom_bond_atom_site_label_1
_geom_bond_atom_site_label_2
_geom_bond_distance
_geom_bond_site_symmetry_2
_ccdc_geom_bond_type
C0 O1 1.160 . S
C0 O7 1.185 . S
O1 C0 1.160 . S
O2 Zn3 1.899 . S
O2 C10 1.284 . S
Zn3 O2 1.899 . S
Zn3 O4 2.032 . S
Zn3 O7 2.086 . S
Zn3 O12 1.977 . S
O4 Zn3 2.032 . S
O4 C8 1.278 . S
C5 O6 1.203 . S
C5 O12 1.267 . S
O6 C5 1.203 . S
O7 C0 1.185 . S
O7 Zn3 2.086 . S
C8 O4 1.278 . S
C8 O9 1.211 . S
O9 C8 1.211 . S
C10 O2 1.284 . S
C10 O11 1.273 . S
O11 C10 1.273 . S
O12 Zn3 1.977 . S
O12 C5 1.267 . S
C13 O14 1.160 . S
C13 O20 1.185 . S
O14 C13 1.160 . S
O15 Zn16 1.899 . S
O15 C23 1.284 . S
Zn16 O15 1.899 . S
Zn16 O17 2.032 . S
Zn16 O20 2.086 . S
Zn16 O25 1.977 . S
O17 Zn16 2.032 . S
O17 C21 1.278 . S
C18 O19 1.203 . S
C18 O25 1.267 . S
O19 C18 1.203 . S
O20 C13 1.185 . S
O20 Zn16 2.086 . S
C21 O17 1.278 . S
C21 O22 1.211 . S
O22 C21 1.211 . S
C23 O15 1.284 . S
C23 O24 1.273 . S
O24 C23 1.273 . S
O25 Zn16 1.977 . S
O25 C18 1.267 . S
C26 O27 1.160 . S
C26 O33 1.185 . S
O27 C26 1.160 . S
O28 Zn29 1.899 . S
O28 C36 1.284 . S
Zn29 O28 1.899 . S
Zn29 O30 2.032 . S
Zn29 O33 2.086 . S
Zn29 O38 1.977 . S
O30 Zn29 2.032 . S
O30 C34 1.278 . S
C31 O32 1.203 . S
C31 O38 1.267 . S
O32 C31 1.203 . S
O33 C26 1.185 . S
O33 Zn29 2.086 . S
C34 O30 1.278 . S
C34 O35 1.211 . S
O35 C34 1.211 . S
C36 O28 1.284 . S
C36 O37 1.273 . S
O37 C36 1.273 . S
O38 Zn29 1.977 . S
O38 C31 1.267 . S
C39 O40 1.160 . S
C39 O46 1.185 . S
O40 C39 1.160 . S
O41 Zn42 1.899 . S
O41 C49 1.284 . S
Zn42 O41 1.899 . S
Zn42 O43 2.032 . S
Zn42 O46 2.086 . S
Zn42 O51 1.977 . S
O43 Zn42 2.032 . S
O43 C47 1.278 . S
C44 O45 1.203 . S
C44 O51 1.267 . S
O45 C44 1.203 . S
O46 C39 1.185 . S
O46 Zn42 2.086 . S
C47 O43 1.278 . S
C47 O48 1.211 . S
O48 C47 1.211 . S
C49 O41 1.284 . S
C49 O50 1.273 . S
O50 C49 1.273 . S
O51 Zn42 1.977 . S
O51 C44 1.267 . S
C52 O53 1.160 . S
C52 O59 1.185 . S
O53 C52 1.160 . S
O54 Zn55 1.899 . S
O54 C62 1.284 . S
Zn55 O54 1.899 . S
Zn55 O56 2.032 . S
Zn55 O59 2.086 . S
Zn55 O64 1.977 . S
O56 Zn55 2.032 . S
O56 C60 1.278 . S
C57 O58 1.203 . S
C57 O64 1.267 . S
O58 C57 1.203 . S
O59 C52 1.185 . S
O59 Zn55 2.086 . S
C60 O56 1.278 . S
C60 O61 1.211 . S
O61 C60 1.211 . S
C62 O54 1.284 . S
C62 O63 1.273 . S
O63 C62 1.273 . S
O64 Zn55 1.977 . S
O64 C57 1.267 . S
C65 O66 1.160 . S
C65 O72 1.185 . S
O66 C65 1.160 . S
O67 Zn68 1.899 . S
O67 C75 1.284 . S
Zn68 O67 1.899 . S
Zn68 O69 2.032 . S
Zn68 O72 2.086 . S
Zn68 O77 1.977 . S
O69 Zn68 2.032 . S
O69 C73 1.278 . S
C70 O71 1.203 . S
C70 O77 1.267 . S
O71 C70 1.203 . S
O72 C65 1.185 . S
O72 Zn68 2.086 . S
C73 O69 1.278 . S
C73 O74 1.211 . S
O74 C73 1.211 . S
C75 O67 1.284 . S
C75 O76 1.273 . S
O76 C75 1.273 . S
O77 Zn68 1.977 . S
O77 C70 1.267 . S
C78 O79 1.160 . S
C78 O85 1.185 . S
O79 C78 1.160 . S
O80 Zn81 1.899 . S
O80 C88 1.284 . S
Zn81 O80 1.899 . S
Zn81 O82 2.032 . S
Zn81 O85 2.086 . S
Zn81 O90 1.977 . S
O82 Zn81 2.032 . S
O82 C86 1.278 . S
C83 O84 1.203 . S
C83 O90 1.267 . S
O84 C83 1.203 . S
O85 C78 1.185 . S
O85 Zn81 2.086 . S
C86 O82 1.278 . S
C86 O87 1.211 . S
O87 C86 1.211 . S
C88 O80 1.284 . S
C88 O89 1.273 . S
O89 C88 1.273 . S
O90 Zn81 1.977 . S
O90 C83 1.267 . S
C91 O92 1.160 . S
C91 O98 1.185 . S
O92 C91 1.160 . S
O93 Zn94 1.899 . S
O93 C101 1.284 . S
Zn94 O93 1.899 . S
Zn94 O95 2.032 . S
Zn94 O98 2.086 . S
Zn94 O103 1.977 . S
O95 Zn94 2.032 . S
O95 C99 1.278 . S
C96 O97 1.203 . S
C96 O103 1.267 . S
O97 C96 1.203 . S
O98 C91 1.185 . S
O98 Zn94 2.086 . S
C99 O95 1.278 . S
C99 O100 1.211 . S
O100 C99 1.211 . S
C101 O93 1.284 . S
C101 O102 1.273 . S
O102 C101 1.273 . S
O103 Zn94 1.977 . S
O103 C96 1.267 . S
C104 O105 1.160 . S
C104 O111 1.185 . S
O105 C104 1.160 . S
O106 Zn107 1.899 . S
O106 C114 1.284 . S
Zn107 O106 1.899 . S
Zn107 O108 2.032 . S
Zn107 O111 2.086 . S
Zn107 O116 1.977 . S
O108 Zn107 2.032 . S
O108 C112 1.278 . S
C109 O110 1.203 . S
C109 O116 1.267 . S
O110 C109 1.203 . S
O111 C104 1.185 . S
O111 Zn107 2.086 . S
C112 O108 1.278 . S
C112 O113 1.211 . S
O113 C112 1.211 . S
C114 O106 1.284 . S
C114 O115 1.273 . S
O115 C114 1.273 . S
O116 Zn107 1.977 . S
O116 C109 1.267 . S
C117 O118 1.160 . S
C117 O124 1.185 . S
O118 C117 1.160 . S
O119 Zn120 1.899 . S
O119 C127 1.284 . S
Zn120 O119 1.899 . S
Zn120 O121 2.032 . S
Zn120 O124 2.086 . S
Zn120 O129 1.977 . S
O121 Zn120 2.032 . S
O121 C125 1.278 . S
C122 O123 1.203 . S
C122 O129 1.267 . S
O123 C122 1.203 . S
O124 C117 1.185 . S
O124 Zn120 2.086 . S
C125 O121 1.278 . S
C125 O126 1.211 . S
O126 C125 1.211 . S
C127 O119 1.284 . S
C127 O128 1.273 . S
O128 C127 1.273 . S
O129 Zn120 1.977 . S
O129 C122 1.267 . S
C130 O131 1.160 . S
C130 O137 1.185 . S
O131 C130 1.160 . S
O132 Zn133 1.899 . S
O132 C140 1.284 . S
Zn133 O132 1.899 . S
Zn133 O134 2.032 . S
Zn133 O137 2.086 . S
Zn133 O142 1.977 . S
O134 Zn133 2.032 . S
O134 C138 1.278 . S
C135 O136 1.203 . S
C135 O142 1.267 . S
O136 C135 1.203 . S
O137 C130 1.185 . S
O137 Zn133 2.086 . S
C138 O134 1.278 . S
C138 O139 1.211 . S
O139 C138 1.211 . S
C140 O132 1.284 . S
C140 O141 1.273 . S
O141 C140 1.273 . S
O142 Zn133 1.977 . S
O142 C135 1.267 . S
C143 O144 1.160 . S
C143 O150 1.185 . S
O144 C143 1.160 . S
O145 Zn146 1.899 . S
O145 C153 1.284 . S
Zn146 O145 1.899 . S
Zn146 O147 2.032 . S
Zn146 O150 2.086 . S
Zn146 O155 1.977 . S
O147 Zn146 2.032 . S
O147 C151 1.278 . S
C148 O149 1.203 . S
C148 O155 1.267 . S
O149 C148 1.203 . S
O150 C143 1.185 . S
O150 Zn146 2.086 . S
C151 O147 1.278 . S
C151 O152 1.211 . S
O152 C151 1.211 . S
C153 O145 1.284 . S
C153 O154 1.273 . S
O154 C153 1.273 . S
O155 Zn146 1.977 . S
O155 C148 1.267 . S
C156 O157 1.160 . S
C156 O163 1.185 . S
O157 C156 1.160 . S
O158 Zn159 1.899 . S
O158 C166 1.284 . S
Zn159 O158 1.899 . S
Zn159 O160 2.032 . S
Zn159 O163 2.086 . S
Zn159 O168 1.977 . S
O160 Zn159 2.032 . S
O160 C164 1.278 . S
C161 O162 1.203 . S
C161 O168 1.267 . S
O162 C161 1.203 . S
O163 C156 1.185 . S
O163 Zn159 2.086 . S
C164 O160 1.278 . S
C164 O165 1.211 . S
O165 C164 1.211 . S
C166 O158 1.284 . S
C166 O167 1.273 . S
O167 C166 1.273 . S
O168 Zn159 1.977 . S
O168 C161 1.267 . S
C169 O170 1.160 . S
C169 O176 1.185 . S
O170 C169 1.160 . S
O171 Zn172 1.899 . S
O171 C179 1.284 . S
Zn172 O171 1.899 . S
Zn172 O173 2.032 . S
Zn172 O176 2.086 . S
Zn172 O181 1.977 . S
O173 Zn172 2.032 . S
O173 C177 1.278 . S
C174 O175 1.203 . S
C174 O181 1.267 . S
O175 C174 1.203 . S
O176 C169 1.185 . S
O176 Zn172 2.086 . S
C177 O173 1.278 . S
C177 O178 1.211 . S
O178 C177 1.211 . S
C179 O171 1.284 . S
C179 O180 1.273 . S
O180 C179 1.273 . S
O181 Zn172 1.977 . S
O181 C174 1.267 . S
C182 O183 1.160 . S
C182 O189 1.185 . S
O183 C182 1.160 . S
O184 Zn185 1.899 . S
O184 C192 1.284 . S
Zn185 O184 1.899 . S
Zn185 O186 2.032 . S
Zn185 O189 2.086 . S
Zn185 O194 1.977 . S
O186 Zn185 2.032 . S
O186 C190 1.278 . S
C187 O188 1.203 . S
C187 O194 1.267 . S
O188 C187 1.203 . S
O189 C182 1.185 . S
O189 Zn185 2.086 . S
C190 O186 1.278 . S
C190 O191 1.211 . S
O191 C190 1.211 . S
C192 O184 1.284 . S
C192 O193 1.273 . S
O193 C192 1.273 . S
O194 Zn185 1.977 . S
O194 C187 1.267 . S
C195 O196 1.160 . S
C195 O202 1.185 . S
O196 C195 1.160 . S
O197 Zn198 1.899 . S
O197 C205 1.284 . S
Zn198 O197 1.899 . S
Zn198 O199 2.032 . S
Zn198 O202 2.086 . S
Zn198 O207 1.977 . S
O199 Zn198 2.032 . S
O199 C203 1.278 . S
C200 O201 1.203 . S
C200 O207 1.267 . S
O201 C200 1.203 . S
O202 C195 1.185 . S
O202 Zn198 2.086 . S
C203 O199 1.278 . S
C203 O204 1.211 . S
O204 C203 1.211 . S
C205 O197 1.284 . S
C205 O206 1.273 . S
O206 C205 1.273 . S
O207 Zn198 1.977 . S
O207 C200 1.267 . S
C208 O209 1.160 . S
C208 O215 1.185 . S
O209 C208 1.160 . S
O210 Zn211 1.899 . S
O210 C218 1.284 . S
Zn211 O210 1.899 . S
Zn211 O212 2.032 . S
Zn211 O215 2.086 . S
Zn211 O220 1.977 . S
O212 Zn211 2.032 . S
O212 C216 1.278 . S
C213 O214 1.203 . S
C213 O220 1.267 . S
O214 C213 1.203 . S
O215 C208 1.185 . S
O215 Zn211 2.086 . S
C216 O212 1.278 . S
C216 O217 1.211 . S
O217 C216 1.211 . S
C218 O210 1.284 . S
C218 O219 1.273 . S
O219 C218 1.273 . S
O220 Zn211 1.977 . S
O220 C213 1.267 . S
C221 O222 1.160 . S
C221 O228 1.185 . S
O222 C221 1.160 . S
O223 Zn224 1.899 . S
O223 C231 1.284 . S
Zn224 O223 1.899 . S
Zn224 O225 2.032 . S
Zn224 O228 2.086 . S
Zn224 O233 1.977 . S
O225 Zn224 2.032 . S
O225 C229 1.278 . S
C226 O227 1.203 . S
C226 O233 1.267 . S
O227 C226 1.203 . S
O228 C221 1.185 . S
O228 Zn224 2.086 . S
C229 O225 1.278 . S
C229 O230 1.211 . S
O230 C229 1.211 . S
C231 O223 1.284 . S
C231 O232 1.273 . S
O232 C231 1.273 . S
O233 Zn224 1.977 . S
O233 C226 1.267 . S
C234 O235 1.160 . S
C234 O241 1.185 . S
O235 C234 1.160 . S
O236 Zn237 1.899 . S
O236 C244 1.284 . S
Zn237 O236 1.899 . S
Zn237 O238 2.032 . S
Zn237 O241 2.086 . S
Zn237 O246 1.977 . S
O238 Zn237 2.032 . S
O238 C242 1.278 . S
C239 O240 1.203 . S
C239 O246 1.267 . S
O240 C239 1.203 . S
O241 C234 1.185 . S
O241 Zn237 2.086 . S
C242 O238 1.278 . S
C242 O243 1.211 . S
O243 C242 1.211 . S
C244 O236 1.284 . S
C244 O245 1.273 . S
O245 C244 1.273 . S
O246 Zn237 1.977 . S
O246 C239 1.267 . S
C247 O248 1.160 . S
C247 O254 1.185 . S
O248 C247 1.160 . S
O249 Zn250 1.899 . S
O249 C257 1.284 . S
Zn250 O249 1.899 . S
Zn250 O251 2.032 . S
Zn250 O254 2.086 . S
Zn250 O259 1.977 . S
O251 Zn250 2.032 . S
O251 C255 1.278 . S
C252 O253 1.203 . S
C252 O259 1.267 . S
O253 C252 1.203 . S
O254 C247 1.185 . S
O254 Zn250 2.086 . S
C255 O251 1.278 . S
C255 O256 1.211 . S
O256 C255 1.211 . S
C257 O249 1.284 . S
C257 O258 1.273 . S
O258 C257 1.273 . S
O259 Zn250 1.977 . S
O259 C252 1.267 . S
C260 O261 1.160 . S
C260 O267 1.185 . S
O261 C260 1.160 . S
O262 Zn263 1.899 . S
O262 C270 1.284 . S
Zn263 O262 1.899 . S
Zn263 O264 2.032 . S
Zn263 O267 2.086 . S
Zn263 O272 1.977 . S
O264 Zn263 2.032 . S
O264 C268 1.278 . S
C265 O266 1.203 . S
C265 O272 1.267 . S
O266 C265 1.203 . S
O267 C260 1.185 . S
O267 Zn263 2.086 . S
C268 O264 1.278 . S
C268 O269 1.211 . S
O269 C268 1.211 . S
C270 O262 1.284 . S
C270 O271 1.273 . S
O271 C270 1.273 . S
O272 Zn263 1.977 . S
O272 C265 1.267 . S
C273 O274 1.160 . S
C273 O280 1.185 . S
O274 C273 1.160 . S
O275 Zn276 1.899 . S
O275 C283 1.284 . S
Zn276 O275 1.899 . S
Zn276 O277 2.032 . S
Zn276 O280 2.086 . S
Zn276 O285 1.977 . S
O277 Zn276 2.032 . S
O277 C281 1.278 . S
C278 O279 1.203 . S
C278 O285 1.267 . S
O279 C278 1.203 . S
O280 C273 1.185 . S
O280 Zn276 2.086 . S
C281 O277 1.278 . S
C281 O282 1.211 . S
O282 C281 1.211 . S
C283 O275 1.284 . S
C283 O284 1.273 . S
O284 C283 1.273 . S
O285 Zn276 1.977 . S
O285 C278 1.267 . S
C286 O287 1.160 . S
C286 O293 1.185 . S
O287 C286 1.160 . S
O288 Zn289 1.899 . S
O288 C296 1.284 . S
Zn289 O288 1.899 . S
Zn289 O290 2.032 . S
Zn289 O293 2.086 . S
Zn289 O298 1.977 . S
O290 Zn289 2.032 . S
O290 C294 1.278 . S
C291 O292 1.203 . S
C291 O298 1.267 . S
O292 C291 1.203 . S
O293 C286 1.185 . S
O293 Zn289 2.086 . S
C294 O290 1.278 . S
C294 O295 1.211 . S
O295 C294 1.211 . S
C296 O288 1.284 . S
C296 O297 1.273 . S
O297 C296 1.273 . S
O298 Zn289 1.977 . S
O298 C291 1.267 . S
C299 O300 1.160 . S
C299 O306 1.185 . S
O300 C299 1.160 . S
O301 Zn302 1.899 . S
O301 C309 1.284 . S
Zn302 O301 1.899 . S
Zn302 O303 2.032 . S
Zn302 O306 2.086 . S
Zn302 O311 1.977 . S
O303 Zn302 2.032 . S
O303 C307 1.278 . S
C304 O305 1.203 . S
C304 O311 1.267 . S
O305 C304 1.203 . S
O306 C299 1.185 . S
O306 Zn302 2.086 . S
C307 O303 1.278 . S
C307 O308 1.211 . S
O308 C307 1.211 . S
C309 O301 1.284 . S
C309 O310 1.273 . S
O310 C309 1.273 . S
O311 Zn302 1.977 . S
O311 C304 1.267 . S
C312 O313 1.160 . S
C312 O319 1.185 . S
O313 C312 1.160 . S
O314 Zn315 1.899 . S
O314 C322 1.284 . S
Zn315 O314 1.899 . S
Zn315 O316 2.032 . S
Zn315 O319 2.086 . S
Zn315 O324 1.977 . S
O316 Zn315 2.032 . S
O316 C320 1.278 . S
C317 O318 1.203 . S
C317 O324 1.267 . S
O318 C317 1.203 . S
O319 C312 1.185 . S
O319 Zn315 2.086 . S
C320 O316 1.278 . S
C320 O321 1.211 . S
O321 C320 1.211 . S
C322 O314 1.284 . S
C322 O323 1.273 . S
O323 C322 1.273 . S
O324 Zn315 1.977 . S
O324 C317 1.267 . S
C325 O326 1.160 . S
C325 O332 1.185 . S
O326 C325 1.160 . S
O327 Zn328 1.899 . S
O327 C335 1.284 . S
Zn328 O327 1.899 . S
Zn328 O329 2.032 . S
Zn328 O332 2.086 . S
Zn328 O337 1.977 . S
O329 Zn328 2.032 . S
O329 C333 1.278 . S
C330 O331 1.203 . S
C330 O337 1.267 . S
O331 C330 1.203 . S
O332 C325 1.185 . S
O332 Zn328 2.086 . S
C333 O329 1.278 . S
C333 O334 1.211 . S
O334 C333 1.211 . S
C335 O327 1.284 . S
C335 O336 1.273 . S
O336 C335 1.273 . S
O337 Zn328 1.977 . S
O337 C330 1.267 . S
C338 O339 1.160 . S
C338 O345 1.185 . S
O339 C338 1.160 . S
O340 Zn341 1.899 . S
O340 C348 1.284 . S
Zn341 O340 1.899 . S
Zn341 O342 2.032 . S
Zn341 O345 2.086 . S
Zn341 O350 1.977 . S
O342 Zn341 2.032 . S
O342 C346 1.278 . S
C343 O344 1.203 . S
C343 O350 1.267 . S
O344 C343 1.203 . S
O345 C338 1.185 . S
O345 Zn341 2.086 . S
C346 O342 1.278 . S
C346 O347 1.211 . S
O347 C346 1.211 . S
C348 O340 1.284 . S
C348 O349 1.273 . S
O349 C348 1.273 . S
O350 Zn341 1.977 . S
O350 C343 1.267 . S
C351 O352 1.160 . S
C351 O358 1.185 . S
O352 C351 1.160 . S
O353 Zn354 1.899 . S
O353 C361 1.284 . S
Zn354 O353 1.899 . S
Zn354 O355 2.032 . S
Zn354 O358 2.086 . S
Zn354 O363 1.977 . S
O355 Zn354 2.032 . S
O355 C359 1.278 . S
C356 O357 1.203 . S
C356 O363 1.267 . S
O357 C356 1.203 . S
O358 C351 1.185 . S
O358 Zn354 2.086 . S
C359 O355 1.278 . S
C359 O360 1.211 . S
O360 C359 1.211 . S
C361 O353 1.284 . S
C361 O362 1.273 . S
O362 C361 1.273 . S
O363 Zn354 1.977 . S
O363 C356 1.267 . S
C364 O365 1.160 . S
C364 O371 1.185 . S
O365 C364 1.160 . S
O366 Zn367 1.899 . S
O366 C374 1.284 . S
Zn367 O366 1.899 . S
Zn367 O368 2.032 . S
Zn367 O371 2.086 . S
Zn367 O376 1.977 . S
O368 Zn367 2.032 . S
O368 C372 1.278 . S
C369 O370 1.203 . S
C369 O376 1.267 . S
O370 C369 1.203 . S
O371 C364 1.185 . S
O371 Zn367 2.086 . S
C372 O368 1.278 . S
C372 O373 1.211 . S
O373 C372 1.211 . S
C374 O366 1.284 . S
C374 O375 1.273 . S
O375 C374 1.273 . S
O376 Zn367 1.977 . S
O376 C369 1.267 . S
C377 O378 1.160 . S
C377 O384 1.185 . S
O378 C377 1.160 . S
O379 Zn380 1.899 . S
O379 C387 1.284 . S
Zn380 O379 1.899 . S
Zn380 O381 2.032 . S
Zn380 O384 2.086 . S
Zn380 O389 1.977 . S
O381 Zn380 2.032 . S
O381 C385 1.278 . S
C382 O383 1.203 . S
C382 O389 1.267 . S
O383 C382 1.203 . S
O384 C377 1.185 . S
O384 Zn380 2.086 . S
C385 O381 1.278 . S
C385 O386 1.211 . S
O386 C385 1.211 . S
C387 O379 1.284 . S
C387 O388 1.273 . S
O388 C387 1.273 . S
O389 Zn380 1.977 . S
O389 C382 1.267 . S
C390 O391 1.160 . S
C390 O397 1.185 . S
O391 C390 1.160 . S
O392 Zn393 1.899 . S
O392 C400 1.284 . S
Zn393 O392 1.899 . S
Zn393 O394 2.032 . S
Zn393 O397 2.086 . S
Zn393 O402 1.977 . S
O394 Zn393 2.032 . S
O394 C398 1.278 . S
C395 O396 1.203 . S
C395 O402 1.267 . S
O396 C395 1.203 . S
O397 C390 1.185 . S
O397 Zn393 2.086 . S
C398 O394 1.278 . S
C398 O399 1.211 . S
O399 C398 1.211 . S
C400 O392 1.284 . S
C400 O401 1.273 . S
O401 C400 1.273 . S
O402 Zn393 1.977 . S
O402 C395 1.267 . S
C403 O404 1.160 . S
C403 O410 1.185 . S
O404 C403 1.160 . S
O405 Zn406 1.899 . S
O405 C413 1.284 . S
Zn406 O405 1.899 . S
Zn406 O407 2.032 . S
Zn406 O410 2.086 . S
Zn406 O415 1.977 . S
O407 Zn406 2.032 . S
O407 C411 1.278 . S
C408 O409 1.203 . S
C408 O415 1.267 . S
O409 C408 1.203 . S
O410 C403 1.185 . S
O410 Zn406 2.086 . S
C411 O407 1.278 . S
C411 O412 1.211 . S
O412 C411 1.211 . S
C413 O405 1.284 . S
C413 O414 1.273 . S
O414 C413 1.273 . S
O415 Zn406 1.977 . S
O415 C408 1.267 . S
H416 C424 0.950 . S
H417 C429 0.950 . S
H418 C426 0.950 . S
H419 C428 0.950 . S
H420 C430 0.950 . S
H421 C432 0.950 . S
H422 C434 0.950 . S
H423 C435 0.950 . S
C424 H416 0.950 . S
C424 C425 1.386 . S
C424 C426 1.391 . S
C425 C424 1.386 . S
C425 C429 1.393 . S
C426 H418 0.950 . S
C426 C424 1.391 . S
C426 C427 1.400 . S
C427 C426 1.400 . S
C427 C428 1.398 . S
C427 C433 1.491 1_545 S
C428 H419 0.950 . S
C428 C427 1.398 . S
C428 C429 1.391 . S
C429 H417 0.950 . S
C429 C425 1.393 . S
C429 C428 1.391 . S
C430 H420 0.950 . S
C430 C431 1.386 . S
C430 C432 1.391 . S
C431 C430 1.386 . S
C431 C435 1.393 . S
C432 H421 0.950 . S
C432 C430 1.391 . S
C432 C433 1.400 . S
C433 C427 1.491 1_565 S
C433 C432 1.400 . S
C433 C434 1.398 . S
C434 H422 0.950 . S
C434 C433 1.398 . S
C434 C435 1.391 . S
C435 H423 0.950 . S
C435 C431 1.393 . S
C435 C434 1.391 . S
H436 C444 0.950 . S
H437 C449 0.950 . S
H438 C446 0.950 . S
H439 C448 0.950 . S
H440 C450 0.950 . S
H441 C452 0.950 . S
H442 C454 0.950 . S
H443 C455 0.950 . S
C444 H436 0.950 . S
C444 C445 1.386 . S
C444 C446 1.391 . S
C445 C444 1.386 . S
C445 C449 1.393 . S
C446 H438 0.950 . S
C446 C444 1.391 . S
C446 C447 1.400 . S
C447 C446 1.400 . S
C447 C448 1.398 . S
C447 C453 1.491 . S
C448 H439 0.950 . S
C448 C447 1.398 . S
C448 C449 1.391 . S
C449 H437 0.950 . S
C449 C445 1.393 . S
C449 C448 1.391 . S
C450 H440 0.950 . S
C450 C451 1.386 . S
C450 C452 1.391 . S
C451 C450 1.386 . S
C451 C455 1.393 . S
C452 H441 0.950 . S
C452 C450 1.391 . S
C452 C453 1.400 . S
C453 C447 1.491 . S
C453 C452 1.400 . S
C453 C454 1.398 . S
C454 H442 0.950 . S
C454 C453 1.398 . S
C454 C455 1.391 . S
C455 H443 0.950 . S
C455 C451 1.393 . S
C455 C454 1.391 . S
H456 C464 0.950 . S
H457 C469 0.950 . S
H458 C466 0.950 1_565 S
H459 C468 0.950 . S
H460 C470 0.950 . S
H461 C472 0.950 1_545 S
H462 C474 0.950 . S
H463 C475 0.950 . S
C464 H456 0.950 . S
C464 C465 1.386 . S
C464 C466 1.391 . S
C465 C464 1.386 . S
C465 C469 1.393 . S
C466 H458 0.950 1_545 S
C466 C464 1.391 . S
C466 C467 1.400 . S
C467 C466 1.400 . S
C467 C468 1.398 . S
C467 C473 1.491 1_545 S
C468 H459 0.950 . S
C468 C467 1.398 . S
C468 C469 1.391 . S
C469 H457 0.950 . S
C469 C465 1.393 . S
C469 C468 1.391 . S
C470 H460 0.950 . S
C470 C471 1.386 . S
C470 C472 1.391 . S
C471 C470 1.386 . S
C471 C475 1.393 . S
C472 H461 0.950 1_565 S
C472 C470 1.391 . S
C472 C473 1.400 . S
C473 C467 1.491 1_565 S
C473 C472 1.400 . S
C473 C474 1.398 . S
C474 H462 0.950 . S
C474 C473 1.398 . S
C474 C475 1.391 . S
C475 H463 0.950 . S
C475 C471 1.393 . S
C475 C474 1.391 . S
H476 C484 0.950 . S
H477 C489 0.950 . S
H478 C486 0.950 . S
H479 C488 0.950 1_554 S
H480 C490 0.950 . S
H481 C492 0.950 . S
H482 C494 0.950 1_556 S
H483 C495 0.950 . S
C484 H476 0.950 . S
C484 C485 1.386 . S
C484 C486 1.391 . S
C485 C484 1.386 . S
C485 C489 1.393 . S
C486 H478 0.950 . S
C486 C484 1.391 . S
C486 C487 1.400 . S
C487 C486 1.400 . S
C487 C488 1.398 . S
C487 C493 1.491 1_556 S
C488 H479 0.950 1_556 S
C488 C487 1.398 . S
C488 C489 1.391 . S
C489 H477 0.950 . S
C489 C485 1.393 . S
C489 C488 1.391 . S
C490 H480 0.950 . S
C490 C491 1.386 . S
C490 C492 1.391 . S
C491 C490 1.386 . S
C491 C495 1.393 . S
C492 H481 0.950 . S
C492 C490 1.391 . S
C492 C493 1.400 . S
C493 C487 1.491 1_554 S
C493 C492 1.400 . S
C493 C494 1.398 . S
C494 H482 0.950 1_554 S
C494 C493 1.398 . S
C494 C495 1.391 . S
C495 H483 0.950 . S
C495 C491 1.393 . S
C495 C494 1.391 . S
H496 C504 0.950 . S
H497 C509 0.950 . S
H498 C506 0.950 . S
H499 C508 0.950 . S
H500 C510 0.950 . S
H501 C512 0.950 . S
H502 C514 0.950 . S
H503 C515 0.950 . S
C504 H496 0.950 . S
C504 C505 1.386 . S
C504 C506 1.391 . S
C505 C504 1.386 . S
C505 C509 1.393 . S
C506 H498 0.950 . S
C506 C504 1.391 . S
C506 C507 1.400 . S
C507 C506 1.400 . S
C507 C508 1.398 . S
C507 C513 1.491 1_565 S
C508 H499 0.950 . S
C508 C507 1.398 . S
C508 C509 1.391 . S
C509 H497 0.950 . S
C509 C505 1.393 . S
C509 C508 1.391 . S
C510 H500 0.950 . S
C510 C511 1.386 . S
C510 C512 1.391 . S
C511 C510 1.386 . S
C511 C515 1.393 . S
C512 H501 0.950 . S
C512 C510 1.391 . S
C512 C513 1.400 . S
C513 C507 1.491 1_545 S
C513 C512 1.400 . S
C513 C514 1.398 . S
C514 H502 0.950 . S
C514 C513 1.398 . S
C514 C515 1.391 . S
C515 H503 0.950 . S
C515 C511 1.393 . S
C515 C514 1.391 . S
H516 C524 0.950 . S
H517 C529 0.950 . S
H518 C526 0.950 . S
H519 C528 0.950 . S
H520 C530 0.950 . S
H521 C532 0.950 . S
H522 C534 0.950 . S
H523 C535 0.950 . S
C524 H516 0.950 . S
C524 C525 1.386 . S
C524 C526 1.391 . S
C525 C524 1.386 . S
C525 C529 1.393 . S
C526 H518 0.950 . S
C526 C524 1.391 . S
C526 C527 1.400 . S
C527 C526 1.400 . S
C527 C528 1.398 . S
C527 C533 1.491 . S
C528 H519 0.950 . S
C528 C527 1.398 . S
C528 C529 1.391 . S
C529 H517 0.950 . S
C529 C525 1.393 . S
C529 C528 1.391 . S
C530 H520 0.950 . S
C530 C531 1.386 . S
C530 C532 1.391 . S
C531 C530 1.386 . S
C531 C535 1.393 . S
C532 H521 0.950 . S
C532 C530 1.391 . S
C532 C533 1.400 . S
C533 C527 1.491 . S
C533 C532 1.400 . S
C533 C534 1.398 . S
C534 H522 0.950 . S
C534 C533 1.398 . S
C534 C535 1.391 . S
C535 H523 0.950 . S
C535 C531 1.393 . S
C535 C534 1.391 . S
H536 C544 0.950 . S
H537 C549 0.950 . S
H538 C546 0.950 . S
H539 C548 0.950 1_545 S
H540 C550 0.950 . S
H541 C552 0.950 . S
H542 C554 0.950 1_565 S
H543 C555 0.950 . S
C544 H536 0.950 . S
C544 C545 1.386 . S
C544 C546 1.391 . S
C545 C544 1.386 . S
C545 C549 1.393 . S
C546 H538 0.950 . S
C546 C544 1.391 . S
C546 C547 1.400 . S
C547 C546 1.400 . S
C547 C548 1.398 . S
C547 C553 1.491 1_565 S
C548 H539 0.950 1_565 S
C548 C547 1.398 . S
C548 C549 1.391 . S
C549 H537 0.950 . S
C549 C545 1.393 . S
C549 C548 1.391 . S
C550 H540 0.950 . S
C550 C551 1.386 . S
C550 C552 1.391 . S
C551 C550 1.386 . S
C551 C555 1.393 . S
C552 H541 0.950 . S
C552 C550 1.391 . S
C552 C553 1.400 . S
C553 C547 1.491 1_545 S
C553 C552 1.400 . S
C553 C554 1.398 . S
C554 H542 0.950 1_545 S
C554 C553 1.398 . S
C554 C555 1.391 . S
C555 H543 0.950 . S
C555 C551 1.393 . S
C555 C554 1.391 . S
H556 C564 0.950 . S
H557 C569 0.950 . S
H558 C566 0.950 . S
H559 C568 0.950 1_554 S
H560 C570 0.950 . S
H561 C572 0.950 . S
H562 C574 0.950 1_556 S
H563 C575 0.950 . S
C564 H556 0.950 . S
C564 C565 1.386 . S
C564 C566 1.391 . S
C565 C564 1.386 . S
C565 C569 1.393 . S
C566 H558 0.950 . S
C566 C564 1.391 . S
C566 C567 1.400 . S
C567 C566 1.400 . S
C567 C568 1.398 . S
C567 C573 1.491 1_556 S
C568 H559 0.950 1_556 S
C568 C567 1.398 . S
C568 C569 1.391 . S
C569 H557 0.950 . S
C569 C565 1.393 . S
C569 C568 1.391 . S
C570 H560 0.950 . S
C570 C571 1.386 . S
C570 C572 1.391 . S
C571 C570 1.386 . S
C571 C575 1.393 . S
C572 H561 0.950 . S
C572 C570 1.391 . S
C572 C573 1.400 . S
C573 C567 1.491 1_554 S
C573 C572 1.400 . S
C573 C574 1.398 . S
C574 H562 0.950 1_554 S
C574 C573 1.398 . S
C574 C575 1.391 . S
C575 H563 0.950 . S
C575 C571 1.393 . S
C575 C574 1.391 . S
H576 C584 0.950 . S
H577 C589 0.950 . S
H578 C586 0.950 . S
H579 C588 0.950 . S
H580 C590 0.950 . S
H581 C592 0.950 . S
H582 C594 0.950 . S
H583 C595 0.950 . S
C584 H576 0.950 . S
C584 C585 1.386 . S
C584 C586 1.391 . S
C585 C584 1.386 . S
C585 C589 1.393 . S
C586 H578 0.950 . S
C586 C584 1.391 . S
C586 C587 1.400 . S
C587 C586 1.400 . S
C587 C588 1.398 . S
C587 C593 1.491 . S
C588 H579 0.950 . S
C588 C587 1.398 . S
C588 C589 1.391 . S
C589 H577 0.950 . S
C589 C585 1.393 . S
C589 C588 1.391 . S
C590 H580 0.950 . S
C590 C591 1.386 . S
C590 C592 1.391 . S
C591 C590 1.386 . S
C591 C595 1.393 . S
C592 H581 0.950 . S
C592 C590 1.391 . S
C592 C593 1.400 . S
C593 C587 1.491 . S
C593 C592 1.400 . S
C593 C594 1.398 . S
C594 H582 0.950 . S
C594 C593 1.398 . S
C594 C595 1.391 . S
C595 H583 0.950 . S
C595 C591 1.393 . S
C595 C594 1.391 . S
H596 C604 0.950 . S
H597 C609 0.950 . S
H598 C606 0.950 . S
H599 C608 0.950 . S
H600 C610 0.950 . S
H601 C612 0.950 . S
H602 C614 0.950 . S
H603 C615 0.950 . S
C604 H596 0.950 . S
C604 C605 1.386 . S
C604 C606 1.391 . S
C605 C604 1.386 . S
C605 C609 1.393 . S
C606 H598 0.950 . S
C606 C604 1.391 . S
C606 C607 1.400 . S
C607 C606 1.400 . S
C607 C608 1.398 . S
C607 C613 1.491 1_556 S
C608 H599 0.950 . S
C608 C607 1.398 . S
C608 C609 1.391 . S
C609 H597 0.950 . S
C609 C605 1.393 . S
C609 C608 1.391 . S
C610 H600 0.950 . S
C610 C611 1.386 . S
C610 C612 1.391 . S
C611 C610 1.386 . S
C611 C615 1.393 . S
C612 H601 0.950 . S
C612 C610 1.391 . S
C612 C613 1.400 . S
C613 C607 1.491 1_554 S
C613 C612 1.400 . S
C613 C614 1.398 . S
C614 H602 0.950 . S
C614 C613 1.398 . S
C614 C615 1.391 . S
C615 H603 0.950 . S
C615 C611 1.393 . S
C615 C614 1.391 . S
H616 C624 0.950 . S
H617 C629 0.950 . S
H618 C626 0.950 . S
H619 C628 0.950 . S
H620 C630 0.950 . S
H621 C632 0.950 . S
H622 C634 0.950 . S
H623 C635 0.950 . S
C624 H616 0.950 . S
C624 C625 1.386 . S
C624 C626 1.391 . S
C625 C624 1.386 . S
C625 C629 1.393 . S
C626 H618 0.950 . S
C626 C624 1.391 . S
C626 C627 1.400 . S
C627 C626 1.400 . S
C627 C628 1.398 . S
C627 C633 1.491 . S
C628 H619 0.950 . S
C628 C627 1.398 . S
C628 C629 1.391 . S
C629 H617 0.950 . S
C629 C625 1.393 . S
C629 C628 1.391 . S
C630 H620 0.950 . S
C630 C631 1.386 . S
C630 C632 1.391 . S
C631 C630 1.386 . S
C631 C635 1.393 . S
C632 H621 0.950 . S
C632 C630 1.391 . S
C632 C633 1.400 . S
C633 C627 1.491 . S
C633 C632 1.400 . S
C633 C634 1.398 . S
C634 H622 0.950 . S
C634 C633 1.398 . S
C634 C635 1.391 . S
C635 H623 0.950 . S
C635 C631 1.393 . S
C635 C634 1.391 . S
H636 C644 0.950 . S
H637 C649 0.950 . S
H638 C646 0.950 . S
H639 C648 0.950 . S
H640 C650 0.950 . S
H641 C652 0.950 . S
H642 C654 0.950 . S
H643 C655 0.950 . S
C644 H636 0.950 . S
C644 C645 1.386 . S
C644 C646 1.391 . S
C645 C644 1.386 . S
C645 C649 1.393 . S
C646 H638 0.950 . S
C646 C644 1.391 . S
C646 C647 1.400 . S
C647 C646 1.400 . S
C647 C648 1.398 . S
C647 C653 1.491 . S
C648 H639 0.950 . S
C648 C647 1.398 . S
C648 C649 1.391 . S
C649 H637 0.950 . S
C649 C645 1.393 . S
C649 C648 1.391 . S
C650 H640 0.950 . S
C650 C651 1.386 . S
C650 C652 1.391 . S
C651 C650 1.386 . S
C651 C655 1.393 . S
C652 H641 0.950 . S
C652 C650 1.391 . S
C652 C653 1.400 . S
C653 C647 1.491 . S
C653 C652 1.400 . S
C653 C654 1.398 . S
C654 H642 0.950 . S
C654 C653 1.398 . S
C654 C655 1.391 . S
C655 H643 0.950 . S
C655 C651 1.393 . S
C655 C654 1.391 . S
H656 C664 0.950 . S
H657 C669 0.950 . S
H658 C666 0.950 . S
H659 C668 0.950 . S
H660 C670 0.950 . S
H661 C672 0.950 . S
H662 C674 0.950 . S
H663 C675 0.950 . S
C664 H656 0.950 . S
C664 C665 1.386 . S
C664 C666 1.391 . S
C665 C664 1.386 . S
C665 C669 1.393 . S
C666 H658 0.950 . S
C666 C664 1.391 . S
C666 C667 1.400 . S
C667 C666 1.400 . S
C667 C668 1.398 . S
C667 C673 1.491 . S
C668 H659 0.950 . S
C668 C667 1.398 . S
C668 C669 1.391 . S
C669 H657 0.950 . S
C669 C665 1.393 . S
C669 C668 1.391 . S
C670 H660 0.950 . S
C670 C671 1.386 . S
C670 C672 1.391 . S
C671 C670 1.386 . S
C671 C675 1.393 . S
C672 H661 0.950 . S
C672 C670 1.391 . S
C672 C673 1.400 . S
C673 C667 1.491 . S
C673 C672 1.400 . S
C673 C674 1.398 . S
C674 H662 0.950 . S
C674 C673 1.398 . S
C674 C675 1.391 . S
C675 H663 0.950 . S
C675 C671 1.393 . S
C675 C674 1.391 . S
H676 C684 0.950 . S
H677 C689 0.950 . S
H678 C686 0.950 1_556 S
H679 C688 0.950 . S
H680 C690 0.950 . S
H681 C692 0.950 1_554 S
H682 C694 0.950 . S
H683 C695 0.950 . S
C684 H676 0.950 . S
C684 C685 1.386 . S
C684 C686 1.391 . S
C685 C684 1.386 . S
C685 C689 1.393 . S
C686 H678 0.950 1_554 S
C686 C684 1.391 . S
C686 C687 1.400 . S
C687 C686 1.400 . S
C687 C688 1.398 . S
C687 C693 1.491 1_554 S
C688 H679 0.950 . S
C688 C687 1.398 . S
C688 C689 1.391 . S
C689 H677 0.950 . S
C689 C685 1.393 . S
C689 C688 1.391 . S
C690 H680 0.950 . S
C690 C691 1.386 . S
C690 C692 1.391 . S
C691 C690 1.386 . S
C691 C695 1.393 . S
C692 H681 0.950 1_556 S
C692 C690 1.391 . S
C692 C693 1.400 . S
C693 C687 1.491 1_556 S
C693 C692 1.400 . S
C693 C694 1.398 . S
C694 H682 0.950 . S
C694 C693 1.398 . S
C694 C695 1.391 . S
C695 H683 0.950 . S
C695 C691 1.393 . S
C695 C694 1.391 . S
H696 C704 0.950 . S
H697 C709 0.950 . S
H698 C706 0.950 . S
H699 C708 0.950 . S
H700 C710 0.950 . S
H701 C712 0.950 . S
H702 C714 0.950 . S
H703 C715 0.950 . S
C704 H696 0.950 . S
C704 C705 1.386 . S
C704 C706 1.391 . S
C705 C704 1.386 . S
C705 C709 1.393 . S
C706 H698 0.950 . S
C706 C704 1.391 . S
C706 C707 1.400 . S
C707 C706 1.400 . S
C707 C708 1.398 . S
C707 C713 1.491 . S
C708 H699 0.950 . S
C708 C707 1.398 . S
C708 C709 1.391 . S
C709 H697 0.950 . S
C709 C705 1.393 . S
C709 C708 1.391 . S
C710 H700 0.950 . S
C710 C711 1.386 . S
C710 C712 1.391 . S
C711 C710 1.386 . S
C711 C715 1.393 . S
C712 H701 0.950 . S
C712 C710 1.391 . S
C712 C713 1.400 . S
C713 C707 1.491 . S
C713 C712 1.400 . S
C713 C714 1.398 . S
C714 H702 0.950 . S
C714 C713 1.398 . S
C714 C715 1.391 . S
C715 H703 0.950 . S
C715 C711 1.393 . S
C715 C714 1.391 . S
H716 C724 0.950 . S
H717 C729 0.950 . S
H718 C726 0.950 . S
H719 C728 0.950 . S
H720 C730 0.950 . S
H721 C732 0.950 . S
H722 C734 0.950 . S
H723 C735 0.950 . S
C724 H716 0.950 . S
C724 C725 1.386 . S
C724 C726 1.391 . S
C725 C724 1.386 . S
C725 C729 1.393 . S
C726 H718 0.950 . S
C726 C724 1.391 . S
C726 C727 1.400 . S
C727 C726 1.400 . S
C727 C728 1.398 . S
C727 C733 1.491 . S
C728 H719 0.950 . S
C728 C727 1.398 . S
C728 C729 1.391 . S
C729 H717 0.950 . S
C729 C725 1.393 . S
C729 C728 1.391 . S
C730 H720 0.950 . S
C730 C731 1.386 . S
C730 C732 1.391 . S
C731 C730 1.386 . S
C731 C735 1.393 . S
C732 H721 0.950 . S
C732 C730 1.391 . S
C732 C733 1.400 . S
C733 C727 1.491 . S
C733 C732 1.400 . S
C733 C734 1.398 . S
C734 H722 0.950 . S
C734 C733 1.398 . S
C734 C735 1.391 . S
C735 H723 0.950 . S
C735 C731 1.393 . S
C735 C734 1.391 . S
H736 C744 0.950 . S
H737 C749 0.950 . S
H738 C746 0.950 . S
H739 C748 0.950 . S
H740 C750 0.950 . S
H741 C752 0.950 . S
H742 C754 0.950 . S
H743 C755 0.950 . S
C744 H736 0.950 . S
C744 C745 1.386 . S
C744 C746 1.391 . S
C745 C744 1.386 . S
C745 C749 1.393 . S
C746 H738 0.950 . S
C746 C744 1.391 . S
C746 C747 1.400 . S
C747 C746 1.400 . S
C747 C748 1.398 . S
C747 C753 1.491 . S
C748 H739 0.950 . S
C748 C747 1.398 . S
C748 C749 1.391 . S
C749 H737 0.950 . S
C749 C745 1.393 . S
C749 C748 1.391 . S
C750 H740 0.950 . S
C750 C751 1.386 . S
C750 C752 1.391 . S
C751 C750 1.386 . S
C751 C755 1.393 . S
C752 H741 0.950 . S
C752 C750 1.391 . S
C752 C753 1.400 . S
C753 C747 1.491 . S
C753 C752 1.400 . S
C753 C754 1.398 . S
C754 H742 0.950 . S
C754 C753 1.398 . S
C754 C755 1.391 . S
C755 H743 0.950 . S
C755 C751 1.393 . S
C755 C754 1.391 . S
H756 C764 0.950 . S
H757 C769 0.950 . S
H758 C766 0.950 . S
H759 C768 0.950 . S
H760 C770 0.950 . S
H761 C772 0.950 . S
H762 C774 0.950 . S
H763 C775 0.950 . S
C764 H756 0.950 . S
C764 C765 1.386 . S
C764 C766 1.391 . S
C765 C764 1.386 . S
C765 C769 1.393 . S
C766 H758 0.950 . S
C766 C764 1.391 . S
C766 C767 1.400 . S
C767 C766 1.400 . S
C767 C768 1.398 . S
C767 C773 1.491 1_655 S
C768 H759 0.950 . S
C768 C767 1.398 . S
C768 C769 1.391 . S
C769 H757 0.950 . S
C769 C765 1.393 . S
C769 C768 1.391 . S
C770 H760 0.950 . S
C770 C771 1.386 . S
C770 C772 1.391 . S
C771 C770 1.386 . S
C771 C775 1.393 . S
C772 H761 0.950 . S
C772 C770 1.391 . S
C772 C773 1.400 . S
C773 C767 1.491 1_455 S
C773 C772 1.400 . S
C773 C774 1.398 . S
C774 H762 0.950 . S
C774 C773 1.398 . S
C774 C775 1.391 . S
C775 H763 0.950 . S
C775 C771 1.393 . S
C775 C774 1.391 . S
H776 C784 0.950 . S
H777 C789 0.950 . S
H778 C786 0.950 . S
H779 C788 0.950 . S
H780 C790 0.950 . S
H781 C792 0.950 . S
H782 C794 0.950 . S
H783 C795 0.950 . S
C784 H776 0.950 . S
C784 C785 1.386 . S
C784 C786 1.391 . S
C785 C784 1.386 . S
C785 C789 1.393 . S
C786 H778 0.950 . S
C786 C784 1.391 . S
C786 C787 1.400 . S
C787 C786 1.400 . S
C787 C788 1.398 . S
C787 C793 1.491 . S
C788 H779 0.950 . S
C788 C787 1.398 . S
C788 C789 1.391 . S
C789 H777 0.950 . S
C789 C785 1.393 . S
C789 C788 1.391 . S
C790 H780 0.950 . S
C790 C791 1.386 . S
C790 C792 1.391 . S
C791 C790 1.386 . S
C791 C795 1.393 . S
C792 H781 0.950 . S
C792 C790 1.391 . S
C792 C793 1.400 . S
C793 C787 1.491 . S
C793 C792 1.400 . S
C793 C794 1.398 . S
C794 H782 0.950 . S
C794 C793 1.398 . S
C794 C795 1.391 . S
C795 H783 0.950 . S
C795 C791 1.393 . S
C795 C794 1.391 . S
H796 C804 0.950 . S
H797 C809 0.950 . S
H798 C806 0.950 . S
H799 C808 0.950 . S
H800 C810 0.950 . S
H801 C812 0.950 . S
H802 C814 0.950 . S
H803 C815 0.950 . S
C804 H796 0.950 . S
C804 C805 1.386 . S
C804 C806 1.391 . S
C805 C804 1.386 . S
C805 C809 1.393 . S
C806 H798 0.950 . S
C806 C804 1.391 . S
C806 C807 1.400 . S
C807 C806 1.400 . S
C807 C808 1.398 . S
C807 C813 1.491 . S
C808 H799 0.950 . S
C808 C807 1.398 . S
C808 C809 1.391 . S
C809 H797 0.950 . S
C809 C805 1.393 . S
C809 C808 1.391 . S
C810 H800 0.950 . S
C810 C811 1.386 . S
C810 C812 1.391 . S
C811 C810 1.386 . S
C811 C815 1.393 . S
C812 H801 0.950 . S
C812 C810 1.391 . S
C812 C813 1.400 . S
C813 C807 1.491 . S
C813 C812 1.400 . S
C813 C814 1.398 . S
C814 H802 0.950 . S
C814 C813 1.398 . S
C814 C815 1.391 . S
C815 H803 0.950 . S
C815 C811 1.393 . S
C815 C814 1.391 . S
H816 C824 0.950 . S
H817 C829 0.950 . S
H818 C826 0.950 . S
H819 C828 0.950 . S
H820 C830 0.950 . S
H821 C832 0.950 . S
H822 C834 0.950 . S
H823 C835 0.950 . S
C824 H816 0.950 . S
C824 C825 1.386 . S
C824 C826 1.391 . S
C825 C824 1.386 . S
C825 C829 1.393 . S
C826 H818 0.950 . S
C826 C824 1.391 . S
C826 C827 1.400 . S
C827 C826 1.400 . S
C827 C828 1.398 . S
C827 C833 1.491 . S
C828 H819 0.950 . S
C828 C827 1.398 . S
C828 C829 1.391 . S
C829 H817 0.950 . S
C829 C825 1.393 . S
C829 C828 1.391 . S
C830 H820 0.950 . S
C830 C831 1.386 . S
C830 C832 1.391 . S
C831 C830 1.386 . S
C831 C835 1.393 . S
C832 H821 0.950 . S
C832 C830 1.391 . S
C832 C833 1.400 . S
C833 C827 1.491 . S
C833 C832 1.400 . S
C833 C834 1.398 . S
C834 H822 0.950 . S
C834 C833 1.398 . S
C834 C835 1.391 . S
C835 H823 0.950 . S
C835 C831 1.393 . S
C835 C834 1.391 . S
H836 C844 0.950 . S
H837 C849 0.950 . S
H838 C846 0.950 . S
H839 C848 0.950 . S
H840 C850 0.950 . S
H841 C852 0.950 . S
H842 C854 0.950 . S
H843 C855 0.950 . S
C844 H836 0.950 . S
C844 C845 1.386 . S
C844 C846 1.391 . S
C845 C844 1.386 . S
C845 C849 1.393 . S
C846 H838 0.950 . S
C846 C844 1.391 . S
C846 C847 1.400 . S
C847 C846 1.400 . S
C847 C848 1.398 . S
C847 C853 1.491 . S
C848 H839 0.950 . S
C848 C847 1.398 . S
C848 C849 1.391 . S
C849 H837 0.950 . S
C849 C845 1.393 . S
C849 C848 1.391 . S
C850 H840 0.950 . S
C850 C851 1.386 . S
C850 C852 1.391 . S
C851 C850 1.386 . S
C851 C855 1.393 . S
C852 H841 0.950 . S
C852 C850 1.391 . S
C852 C853 1.400 . S
C853 C847 1.491 . S
C853 C852 1.400 . S
C853 C854 1.398 . S
C854 H842 0.950 . S
C854 C853 1.398 . S
C854 C855 1.391 . S
C855 H843 0.950 . S
C855 C851 1.393 . S
C855 C854 1.391 . S
H856 C864 0.950 . S
H857 C869 0.950 . S
H858 C866 0.950 . S
H859 C868 0.950 . S
H860 C870 0.950 . S
H861 C872 0.950 . S
H862 C874 0.950 . S
H863 C875 0.950 . S
C864 H856 0.950 . S
C864 C865 1.386 . S
C864 C866 1.391 . S
C865 C864 1.386 . S
C865 C869 1.393 . S
C866 H858 0.950 . S
C866 C864 1.391 . S
C866 C867 1.400 . S
C867 C866 1.400 . S
C867 C868 1.398 . S
C867 C873 1.491 . S
C868 H859 0.950 . S
C868 C867 1.398 . S
C868 C869 1.391 . S
C869 H857 0.950 . S
C869 C865 1.393 . S
C869 C868 1.391 . S
C870 H860 0.950 . S
C870 C871 1.386 . S
C870 C872 1.391 . S
C871 C870 1.386 . S
C871 C875 1.393 . S
C872 H861 0.950 . S
C872 C870 1.391 . S
C872 C873 1.400 . S
C873 C867 1.491 . S
C873 C872 1.400 . S
C873 C874 1.398 . S
C874 H862 0.950 . S
C874 C873 1.398 . S
C874 C875 1.391 . S
C875 H863 0.950 . S
C875 C871 1.393 . S
C875 C874 1.391 . S
H876 C884 0.950 . S
H877 C889 0.950 . S
H878 C886 0.950 . S
H879 C888 0.950 . S
H880 C890 0.950 . S
H881 C892 0.950 . S
H882 C894 0.950 . S
H883 C895 0.950 . S
C884 H876 0.950 . S
C884 C885 1.386 . S
C884 C886 1.391 . S
C885 C884 1.386 . S
C885 C889 1.393 . S
C886 H878 0.950 . S
C886 C884 1.391 . S
C886 C887 1.400 . S
C887 C886 1.400 . S
C887 C888 1.398 . S
C887 C893 1.491 1_455 S
C888 H879 0.950 . S
C888 C887 1.398 . S
C888 C889 1.391 . S
C889 H877 0.950 . S
C889 C885 1.393 . S
C889 C888 1.391 . S
C890 H880 0.950 . S
C890 C891 1.386 . S
C890 C892 1.391 . S
C891 C890 1.386 . S
C891 C895 1.393 . S
C892 H881 0.950 . S
C892 C890 1.391 . S
C892 C893 1.400 . S
C893 C887 1.491 1_655 S
C893 C892 1.400 . S
C893 C894 1.398 . S
C894 H882 0.950 . S
C894 C893 1.398 . S
C894 C895 1.391 . S
C895 H883 0.950 . S
C895 C891 1.393 . S
C895 C894 1.391 . S
H896 C904 0.950 . S
H897 C909 0.950 . S
H898 C906 0.950 . S
H899 C908 0.950 . S
H900 C910 0.950 . S
H901 C912 0.950 . S
H902 C914 0.950 . S
H903 C915 0.950 . S
C904 H896 0.950 . S
C904 C905 1.386 . S
C904 C906 1.391 . S
C905 C904 1.386 . S
C905 C909 1.393 . S
C906 H898 0.950 . S
C906 C904 1.391 . S
C906 C907 1.400 . S
C907 C906 1.400 . S
C907 C908 1.398 . S
C907 C913 1.491 . S
C908 H899 0.950 . S
C908 C907 1.398 . S
C908 C909 1.391 . S
C909 H897 0.950 . S
C909 C905 1.393 . S
C909 C908 1.391 . S
C910 H900 0.950 . S
C910 C911 1.386 . S
C910 C912 1.391 . S
C911 C910 1.386 . S
C911 C915 1.393 . S
C912 H901 0.950 . S
C912 C910 1.391 . S
C912 C913 1.400 . S
C913 C907 1.491 . S
C913 C912 1.400 . S
C913 C914 1.398 . S
C914 H902 0.950 . S
C914 C913 1.398 . S
C914 C915 1.391 . S
C915 H903 0.950 . S
C915 C911 1.393 . S
C915 C914 1.391 . S
H916 C924 0.950 . S
H917 C929 0.950 . S
H918 C926 0.950 . S
H919 C928 0.950 . S
H920 C930 0.950 . S
H921 C932 0.950 . S
H922 C934 0.950 . S
H923 C935 0.950 . S
C924 H916 0.950 . S
C924 C925 1.386 . S
C924 C926 1.391 . S
C925 C924 1.386 . S
C925 C929 1.393 . S
C926 H918 0.950 . S
C926 C924 1.391 . S
C926 C927 1.400 . S
C927 C926 1.400 . S
C927 C928 1.398 . S
C927 C933 1.491 1_655 S
C928 H919 0.950 . S
C928 C927 1.398 . S
C928 C929 1.391 . S
C929 H917 0.950 . S
C929 C925 1.393 . S
C929 C928 1.391 . S
C930 H920 0.950 . S
C930 C931 1.386 . S
C930 C932 1.391 . S
C931 C930 1.386 . S
C931 C935 1.393 . S
C932 H921 0.950 . S
C932 C930 1.391 . S
C932 C933 1.400 . S
C933 C927 1.491 1_455 S
C933 C932 1.400 . S
C933 C934 1.398 . S
C934 H922 0.950 . S
C934 C933 1.398 . S
C934 C935 1.391 . S
C935 H923 0.950 . S
C935 C931 1.393 . S
C935 C934 1.391 . S
H936 C944 0.950 . S
H937 C949 0.950 . S
H938 C946 0.950 . S
H939 C948 0.950 . S
H940 C950 0.950 . S
H941 C952 0.950 . S
H942 C954 0.950 . S
H943 C955 0.950 . S
C944 H936 0.950 . S
C944 C945 1.386 . S
C944 C946 1.391 . S
C945 C944 1.386 . S
C945 C949 1.393 . S
C946 H938 0.950 . S
C946 C944 1.391 . S
C946 C947 1.400 . S
C947 C946 1.400 . S
C947 C948 1.398 . S
C947 C953 1.491 . S
C948 H939 0.950 . S
C948 C947 1.398 . S
C948 C949 1.391 . S
C949 H937 0.950 . S
C949 C945 1.393 . S
C949 C948 1.391 . S
C950 H940 0.950 . S
C950 C951 1.386 . S
C950 C952 1.391 . S
C951 C950 1.386 . S
C951 C955 1.393 . S
C952 H941 0.950 . S
C952 C950 1.391 . S
C952 C953 1.400 . S
C953 C947 1.491 . S
C953 C952 1.400 . S
C953 C954 1.398 . S
C954 H942 0.950 . S
C954 C953 1.398 . S
C954 C955 1.391 . S
C955 H943 0.950 . S
C955 C951 1.393 . S
C955 C954 1.391 . S
H956 C964 0.950 . S
H957 C969 0.950 . S
H958 C966 0.950 . S
H959 C968 0.950 . S
H960 C970 0.950 . S
H961 C972 0.950 . S
H962 C974 0.950 . S
H963 C975 0.950 . S
C964 H956 0.950 . S
C964 C965 1.386 . S
C964 C966 1.391 . S
C965 C964 1.386 . S
C965 C969 1.393 . S
C966 H958 0.950 . S
C966 C964 1.391 . S
C966 C967 1.400 . S
C967 C966 1.400 . S
C967 C968 1.398 . S
C967 C973 1.491 . S
C968 H959 0.950 . S
C968 C967 1.398 . S
C968 C969 1.391 . S
C969 H957 0.950 . S
C969 C965 1.393 . S
C969 C968 1.391 . S
C970 H960 0.950 . S
C970 C971 1.386 . S
C970 C972 1.391 . S
C971 C970 1.386 . S
C971 C975 1.393 . S
C972 H961 0.950 . S
C972 C970 1.391 . S
C972 C973 1.400 . S
C973 C967 1.491 . S
C973 C972 1.400 . S
C973 C974 1.398 . S
C974 H962 0.950 . S
C974 C973 1.398 . S
C974 C975 1.391 . S
C975 H963 0.950 . S
C975 C971 1.393 . S
C975 C974 1.391 . S
H976 C984 0.950 . S
H977 C989 0.950 . S
H978 C986 0.950 . S
H979 C988 0.950 . S
H980 C990 0.950 . S
H981 C992 0.950 . S
H982 C994 0.950 . S
H983 C995 0.950 . S
C984 H976 0.950 . S
C984 C985 1.386 . S
C984 C986 1.391 . S
C985 C984 1.386 . S
C985 C989 1.393 . S
C986 H978 0.950 . S
C986 C984 1.391 . S
C986 C987 1.400 . S
C987 C986 1.400 . S
C987 C988 1.398 . S
C987 C993 1.491 . S
C988 H979 0.950 . S
C988 C987 1.398 . S
C988 C989 1.391 . S
C989 H977 0.950 . S
C989 C985 1.393 . S
C989 C988 1.391 . S
C990 H980 0.950 . S
C990 C991 1.386 . S
C990 C992 1.391 . S
C991 C990 1.386 . S
C991 C995 1.393 . S
C992 H981 0.950 . S
C992 C990 1.391 . S
C992 C993 1.400 . S
C993 C987 1.491 . S
C993 C992 1.400 . S
C993 C994 1.398 . S
C994 H982 0.950 . S
C994 C993 1.398 . S
C994 C995 1.391 . S
C995 H983 0.950 . S
C995 C991 1.393 . S
C995 C994 1.391 . S
H996 C1004 0.950 . S
H997 C1009 0.950 . S
H998 C1006 0.950 . S
H999 C1008 0.950 . S
H1000 C1010 0.950 . S
H1001 C1012 0.950 . S
H1002 C1014 0.950 . S
H1003 C1015 0.950 . S
C1004 H996 0.950 . S
C1004 C1005 1.386 . S
C1004 C1006 1.391 . S
C1005 C1004 1.386 . S
C1005 C1009 1.393 . S
C1006 H998 0.950 . S
C1006 C1004 1.391 . S
C1006 C1007 1.400 . S
C1007 C1006 1.400 . S
C1007 C1008 1.398 . S
C1007 C1013 1.491 . S
C1008 H999 0.950 . S
C1008 C1007 1.398 . S
C1008 C1009 1.391 . S
C1009 H997 0.950 . S
C1009 C1005 1.393 . S
C1009 C1008 1.391 . S
C1010 H1000 0.950 . S
C1010 C1011 1.386 . S
C1010 C1012 1.391 . S
C1011 C1010 1.386 . S
C1011 C1015 1.393 . S
C1012 H1001 0.950 . S
C1012 C1010 1.391 . S
C1012 C1013 1.400 . S
C1013 C1007 1.491 . S
C1013 C1012 1.400 . S
C1013 C1014 1.398 . S
C1014 H1002 0.950 . S
C1014 C1013 1.398 . S
C1014 C1015 1.391 . S
C1015 H1003 0.950 . S
C1015 C1011 1.393 . S
C1015 C1014 1.391 . S
H1016 C1024 0.950 . S
H1017 C1029 0.950 . S
H1018 C1026 0.950 . S
H1019 C1028 0.950 . S
H1020 C1030 0.950 . S
H1021 C1032 0.950 . S
H1022 C1034 0.950 . S
H1023 C1035 0.950 . S
C1024 H1016 0.950 . S
C1024 C1025 1.386 . S
C1024 C1026 1.391 . S
C1025 C1024 1.386 . S
C1025 C1029 1.393 . S
C1026 H1018 0.950 . S
C1026 C1024 1.391 . S
C1026 C1027 1.400 . S
C1027 C1026 1.400 . S
C1027 C1028 1.398 . S
C1027 C1033 1.491 . S
C1028 H1019 0.950 . S
C1028 C1027 1.398 . S
C1028 C1029 1.391 . S
C1029 H1017 0.950 . S
C1029 C1025 1.393 . S
C1029 C1028 1.391 . S
C1030 H1020 0.950 . S
C1030 C1031 1.386 . S
C1030 C1032 1.391 . S
C1031 C1030 1.386 . S
C1031 C1035 1.393 . S
C1032 H1021 0.950 . S
C1032 C1030 1.391 . S
C1032 C1033 1.400 . S
C1033 C1027 1.491 . S
C1033 C1032 1.400 . S
C1033 C1034 1.398 . S
C1034 H1022 0.950 . S
C1034 C1033 1.398 . S
C1034 C1035 1.391 . S
C1035 H1023 0.950 . S
C1035 C1031 1.393 . S
C1035 C1034 1.391 . S
H1036 C1044 0.950 . S
H1037 C1049 0.950 . S
H1038 C1046 0.950 . S
H1039 C1048 0.950 . S
H1040 C1050 0.950 . S
H1041 C1052 0.950 . S
H1042 C1054 0.950 . S
H1043 C1055 0.950 . S
C1044 H1036 0.950 . S
C1044 C1045 1.386 . S
C1044 C1046 1.391 . S
C1045 C1044 1.386 . S
C1045 C1049 1.393 . S
C1046 H1038 0.950 . S
C1046 C1044 1.391 . S
C1046 C1047 1.400 . S
C1047 C1046 1.400 . S
C1047 C1048 1.398 . S
C1047 C1053 1.491 1_655 S
C1048 H1039 0.950 . S
C1048 C1047 1.398 . S
C1048 C1049 1.391 . S
C1049 H1037 0.950 . S
C1049 C1045 1.393 . S
C1049 C1048 1.391 . S
C1050 H1040 0.950 . S
C1050 C1051 1.386 . S
C1050 C1052 1.391 . S
C1051 C1050 1.386 . S
C1051 C1055 1.393 . S
C1052 H1041 0.950 . S
C1052 C1050 1.391 . S
C1052 C1053 1.400 . S
C1053 C1047 1.491 1_455 S
C1053 C1052 1.400 . S
C1053 C1054 1.398 . S
C1054 H1042 0.950 . S
C1054 C1053 1.398 . S
C1054 C1055 1.391 . S
C1055 H1043 0.950 . S
C1055 C1051 1.393 . S
C1055 C1054 1.391 . S
H1056 C1064 0.950 . S
H1057 C1069 0.950 . S
H1058 C1066 0.950 . S
H1059 C1068 0.950 . S
H1060 C1070 0.950 . S
H1061 C1072 0.950 . S
H1062 C1074 0.950 . S
H1063 C1075 0.950 . S
C1064 H1056 0.950 . S
C1064 C1065 1.386 . S
C1064 C1066 1.391 . S
C1065 C1064 1.386 . S
C1065 C1069 1.393 . S
C1066 H1058 0.950 . S
C1066 C1064 1.391 . S
C1066 C1067 1.400 . S
C1067 C1066 1.400 . S
C1067 C1068 1.398 . S
C1067 C1073 1.491 . S
C1068 H1059 0.950 . S
C1068 C1067 1.398 . S
C1068 C1069 1.391 . S
C1069 H1057 0.950 . S
C1069 C1065 1.393 . S
C1069 C1068 1.391 . S
C1070 H1060 0.950 . S
C1070 C1071 1.386 . S
C1070 C1072 1.391 . S
C1071 C1070 1.386 . S
C1071 C1075 1.393 . S
C1072 H1061 0.950 . S
C1072 C1070 1.391 . S
C1072 C1073 1.400 . S
C1073 C1067 1.491 . S
C1073 C1072 1.400 . S
C1073 C1074 1.398 . S
C1074 H1062 0.950 . S
C1074 C1073 1.398 . S
C1074 C1075 1.391 . S
C1075 H1063 0.950 . S
C1075 C1071 1.393 . S
C1075 C1074 1.391 . S
H1076 C1084 0.950 . S
H1077 C1089 0.950 . S
H1078 C1086 0.950 . S
H1079 C1088 0.950 . S
H1080 C1090 0.950 . S
H1081 C1092 0.950 . S
H1082 C1094 0.950 . S
H1083 C1095 0.950 . S
C1084 H1076 0.950 . S
C1084 C1085 1.386 . S
C1084 C1086 1.391 . S
C1085 C1084 1.386 . S
C1085 C1089 1.393 . S
C1086 H1078 0.950 . S
C1086 C1084 1.391 . S
C1086 C1087 1.400 . S
C1087 C1086 1.400 . S
C1087 C1088 1.398 . S
C1087 C1093 1.491 . S
C1088 H1079 0.950 . S
C1088 C1087 1.398 . S
C1088 C1089 1.391 . S
C1089 H1077 0.950 . S
C1089 C1085 1.393 . S
C1089 C1088 1.391 . S
C1090 H1080 0.950 . S
C1090 C1091 1.386 . S
C1090 C1092 1.391 . S
C1091 C1090 1.386 . S
C1091 C1095 1.393 . S
C1092 H1081 0.950 . S
C1092 C1090 1.391 . S
C1092 C1093 1.400 . S
C1093 C1087 1.491 . S
C1093 C1092 1.400 . S
C1093 C1094 1.398 . S
C1094 H1082 0.950 . S
C1094 C1093 1.398 . S
C1094 C1095 1.391 . S
C1095 H1083 0.950 . S
C1095 C1091 1.393 . S
C1095 C1094 1.391 . S
H1096 C1104 0.950 . S
H1097 C1109 0.950 . S
H1098 C1106 0.950 . S
H1099 C1108 0.950 . S
H1100 C1110 0.950 . S
H1101 C1112 0.950 . S
H1102 C1114 0.950 . S
H1103 C1115 0.950 . S
C1104 H1096 0.950 . S
C1104 C1105 1.386 . S
C1104 C1106 1.391 . S
C1105 C1104 1.386 . S
C1105 C1109 1.393 . S
C1106 H1098 0.950 . S
C1106 C1104 1.391 . S
C1106 C1107 1.400 . S
C1107 C1106 1.400 . S
C1107 C1108 1.398 . S
C1107 C1113 1.491 . S
C1108 H1099 0.950 . S
C1108 C1107 1.398 . S
C1108 C1109 1.391 . S
C1109 H1097 0.950 . S
C1109 C1105 1.393 . S
C1109 C1108 1.391 . S
C1110 H1100 0.950 . S
C1110 C1111 1.386 . S
C1110 C1112 1.391 . S
C1111 C1110 1.386 . S
C1111 C1115 1.393 . S
C1112 H1101 0.950 . S
C1112 C1110 1.391 . S
C1112 C1113 1.400 . S
C1113 C1107 1.491 . S
C1113 C1112 1.400 . S
C1113 C1114 1.398 . S
C1114 H1102 0.950 . S
C1114 C1113 1.398 . S
C1114 C1115 1.391 . S
C1115 H1103 0.950 . S
C1115 C1111 1.393 . S
C1115 C1114 1.391 . S
H1116 C1124 0.950 . S
H1117 C1129 0.950 . S
H1118 C1126 0.950 . S
H1119 C1128 0.950 . S
H1120 C1130 0.950 . S
H1121 C1132 0.950 . S
H1122 C1134 0.950 . S
H1123 C1135 0.950 . S
C1124 H1116 0.950 . S
C1124 C1125 1.386 . S
C1124 C1126 1.391 . S
C1125 C1124 1.386 . S
C1125 C1129 1.393 . S
C1126 H1118 0.950 . S
C1126 C1124 1.391 . S
C1126 C1127 1.400 . S
C1127 C1126 1.400 . S
C1127 C1128 1.398 . S
C1127 C1133 1.491 1_655 S
C1128 H1119 0.950 . S
C1128 C1127 1.398 . S
C1128 C1129 1.391 . S
C1129 H1117 0.950 . S
C1129 C1125 1.393 . S
C1129 C1128 1.391 . S
C1130 H1120 0.950 . S
C1130 C1131 1.386 . S
C1130 C1132 1.391 . S
C1131 C1130 1.386 . S
C1131 C1135 1.393 . S
C1132 H1121 0.950 . S
C1132 C1130 1.391 . S
C1132 C1133 1.400 . S
C1133 C1127 1.491 1_455 S
C1133 C1132 1.400 . S
C1133 C1134 1.398 . S
C1134 H1122 0.950 . S
C1134 C1133 1.398 . S
C1134 C1135 1.391 . S
C1135 H1123 0.950 . S
C1135 C1131 1.393 . S
C1135 C1134 1.391 . S
H1136 C1144 0.950 . S
H1137 C1149 0.950 . S
H1138 C1146 0.950 . S
H1139 C1148 0.950 . S
H1140 C1150 0.950 . S
H1141 C1152 0.950 . S
H1142 C1154 0.950 . S
H1143 C1155 0.950 . S
C1144 H1136 0.950 . S
C1144 C1145 1.386 . S
C1144 C1146 1.391 . S
C1145 C1144 1.386 . S
C1145 C1149 1.393 . S
C1146 H1138 0.950 . S
C1146 C1144 1.391 . S
C1146 C1147 1.400 . S
C1147 C1146 1.400 . S
C1147 C1148 1.398 . S
C1147 C1153 1.491 . S
C1148 H1139 0.950 . S
C1148 C1147 1.398 . S
C1148 C1149 1.391 . S
C1149 H1137 0.950 . S
C1149 C1145 1.393 . S
C1149 C1148 1.391 . S
C1150 H1140 0.950 . S
C1150 C1151 1.386 . S
C1150 C1152 1.391 . S
C1151 C1150 1.386 . S
C1151 C1155 1.393 . S
C1152 H1141 0.950 . S
C1152 C1150 1.391 . S
C1152 C1153 1.400 . S
C1153 C1147 1.491 . S
C1153 C1152 1.400 . S
C1153 C1154 1.398 . S
C1154 H1142 0.950 . S
C1154 C1153 1.398 . S
C1154 C1155 1.391 . S
C1155 H1143 0.950 . S
C1155 C1151 1.393 . S
C1155 C1154 1.391 . S
H1156 C1164 0.950 . S
H1157 C1169 0.950 . S
H1158 C1166 0.950 . S
H1159 C1168 0.950 . S
H1160 C1170 0.950 . S
H1161 C1172 0.950 . S
H1162 C1174 0.950 . S
H1163 C1175 0.950 . S
C1164 H1156 0.950 . S
C1164 C1165 1.386 . S
C1164 C1166 1.391 . S
C1165 C1164 1.386 . S
C1165 C1169 1.393 . S
C1166 H1158 0.950 . S
C1166 C1164 1.391 . S
C1166 C1167 1.400 . S
C1167 C1166 1.400 . S
C1167 C1168 1.398 . S
C1167 C1173 1.491 1_455 S
C1168 H1159 0.950 . S
C1168 C1167 1.398 . S
C1168 C1169 1.391 . S
C1169 H1157 0.950 . S
C1169 C1165 1.393 . S
C1169 C1168 1.391 . S
C1170 H1160 0.950 . S
C1170 C1171 1.386 . S
C1170 C1172 1.391 . S
C1171 C1170 1.386 . S
C1171 C1175 1.393 . S
C1172 H1161 0.950 . S
C1172 C1170 1.391 . S
C1172 C1173 1.400 . S
C1173 C1167 1.491 1_655 S
C1173 C1172 1.400 . S
C1173 C1174 1.398 . S
C1174 H1162 0.950 . S
C1174 C1173 1.398 . S
C1174 C1175 1.391 . S
C1175 H1163 0.950 . S
C1175 C1171 1.393 . S
C1175 C1174 1.391 . S
H1176 C1184 0.950 . S
H1177 C1189 0.950 . S
H1178 C1186 0.950 . S
H1179 C1188 0.950 . S
H1180 C1190 0.950 . S
H1181 C1192 0.950 . S
H1182 C1194 0.950 . S
H1183 C1195 0.950 . S
C1184 H1176 0.950 . S
C1184 C1185 1.386 . S
C1184 C1186 1.391 . S
C1185 C1184 1.386 . S
C1185 C1189 1.393 . S
C1186 H1178 0.950 . S
C1186 C1184 1.391 . S
C1186 C1187 1.400 . S
C1187 C1186 1.400 . S
C1187 C1188 1.398 . S
C1187 C1193 1.491 . S
C1188 H1179 0.950 . S
C1188 C1187 1.398 . S
C1188 C1189 1.391 . S
C1189 H1177 0.950 . S
C1189 C1185 1.393 . S
C1189 C1188 1.391 . S
C1190 H1180 0.950 . S
C1190 C1191 1.386 . S
C1190 C1192 1.391 . S
C1191 C1190 1.386 . S
C1191 C1195 1.393 . S
C1192 H1181 0.950 . S
C1192 C1190 1.391 . S
C1192 C1193 1.400 . S
C1193 C1187 1.491 . S
C1193 C1192 1.400 . S
C1193 C1194 1.398 . S
C1194 H1182 0.950 . S
C1194 C1193 1.398 . S
C1194 C1195 1.391 . S
C1195 H1183 0.950 . S
C1195 C1191 1.393 . S
C1195 C1194 1.391 . S
H1196 C1204 0.950 . S
H1197 C1209 0.950 . S
H1198 C1206 0.950 . S
H1199 C1208 0.950 . S
H1200 C1210 0.950 . S
H1201 C1212 0.950 . S
H1202 C1214 0.950 . S
H1203 C1215 0.950 . S
C1204 H1196 0.950 . S
C1204 C1205 1.386 . S
C1204 C1206 1.391 . S
C1205 C1204 1.386 . S
C1205 C1209 1.393 . S
C1206 H1198 0.950 . S
C1206 C1204 1.391 . S
C1206 C1207 1.400 . S
C1207 C1206 1.400 . S
C1207 C1208 1.398 . S
C1207 C1213 1.491 . S
C1208 H1199 0.950 . S
C1208 C1207 1.398 . S
C1208 C1209 1.391 . S
C1209 H1197 0.950 . S
C1209 C1205 1.393 . S
C1209 C1208 1.391 . S
C1210 H1200 0.950 . S
C1210 C1211 1.386 . S
C1210 C1212 1.391 . S
C1211 C1210 1.386 . S
C1211 C1215 1.393 . S
C1212 H1201 0.950 . S
C1212 C1210 1.391 . S
C1212 C1213 1.400 . S
C1213 C1207 1.491 . S
C1213 C1212 1.400 . S
C1213 C1214 1.398 . S
C1214 H1202 0.950 . S
C1214 C1213 1.398 . S
C1214 C1215 1.391 . S
C1215 H1203 0.950 . S
C1215 C1211 1.393 . S
C1215 C1214 1.391 . S
H1216 C1224 0.950 . S
H1217 C1229 0.950 . S
H1218 C1226 0.950 . S
H1219 C1228 0.950 . S
H1220 C1230 0.950 . S
H1221 C1232 0.950 . S
H1222 C1234 0.950 . S
H1223 C1235 0.950 . S
C1224 H1216 0.950 . S
C1224 C1225 1.386 . S
C1224 C1226 1.391 . S
C1225 C1224 1.386 . S
C1225 C1229 1.393 . S
C1226 H1218 0.950 . S
C1226 C1224 1.391 . S
C1226 C1227 1.400 . S
C1227 C1226 1.400 . S
C1227 C1228 1.398 . S
C1227 C1233 1.491 . S
C1228 H1219 0.950 . S
C1228 C1227 1.398 . S
C1228 C1229 1.391 . S
C1229 H1217 0.950 . S
C1229 C1225 1.393 . S
C1229 C1228 1.391 . S
C1230 H1220 0.950 . S
C1230 C1231 1.386 . S
C1230 C1232 1.391 . S
C1231 C1230 1.386 . S
C1231 C1235 1.393 . S
C1232 H1221 0.950 . S
C1232 C1230 1.391 . S
C1232 C1233 1.400 . S
C1233 C1227 1.491 . S
C1233 C1232 1.400 . S
C1233 C1234 1.398 . S
C1234 H1222 0.950 . S
C1234 C1233 1.398 . S
C1234 C1235 1.391 . S
C1235 H1223 0.950 . S
C1235 C1231 1.393 . S
C1235 C1234 1.391 . S
H1236 C1244 0.950 . S
H1237 C1249 0.950 . S
H1238 C1246 0.950 . S
H1239 C1248 0.950 . S
H1240 C1250 0.950 . S
H1241 C1252 0.950 . S
H1242 C1254 0.950 . S
H1243 C1255 0.950 . S
C1244 H1236 0.950 . S
C1244 C1245 1.386 . S
C1244 C1246 1.391 . S
C1245 C1244 1.386 . S
C1245 C1249 1.393 . S
C1246 H1238 0.950 . S
C1246 C1244 1.391 . S
C1246 C1247 1.400 . S
C1247 C1246 1.400 . S
C1247 C1248 1.398 . S
C1247 C1253 1.491 . S
C1248 H1239 0.950 . S
C1248 C1247 1.398 . S
C1248 C1249 1.391 . S
C1249 H1237 0.950 . S
C1249 C1245 1.393 . S
C1249 C1248 1.391 . S
C1250 H1240 0.950 . S
C1250 C1251 1.386 . S
C1250 C1252 1.391 . S
C1251 C1250 1.386 . S
C1251 C1255 1.393 . S
C1252 H1241 0.950 . S
C1252 C1250 1.391 . S
C1252 C1253 1.400 . S
C1253 C1247 1.491 . S
C1253 C1252 1.400 . S
C1253 C1254 1.398 . S
C1254 H1242 0.950 . S
C1254 C1253 1.398 . S
C1254 C1255 1.391 . S
C1255 H1243 0.950 . S
C1255 C1251 1.393 . S
C1255 C1254 1.391 . S
H1256 C1264 0.950 . S
H1257 C1269 0.950 . S
H1258 C1266 0.950 . S
H1259 C1268 0.950 . S
H1260 C1270 0.950 . S
H1261 C1272 0.950 . S
H1262 C1274 0.950 . S
H1263 C1275 0.950 . S
C1264 H1256 0.950 . S
C1264 C1265 1.386 . S
C1264 C1266 1.391 . S
C1265 C1264 1.386 . S
C1265 C1269 1.393 . S
C1266 H1258 0.950 . S
C1266 C1264 1.391 . S
C1266 C1267 1.400 . S
C1267 C1266 1.400 . S
C1267 C1268 1.398 . S
C1267 C1273 1.491 . S
C1268 H1259 0.950 . S
C1268 C1267 1.398 . S
C1268 C1269 1.391 . S
C1269 H1257 0.950 . S
C1269 C1265 1.393 . S
C1269 C1268 1.391 . S
C1270 H1260 0.950 . S
C1270 C1271 1.386 . S
C1270 C1272 1.391 . S
C1271 C1270 1.386 . S
C1271 C1275 1.393 . S
C1272 H1261 0.950 . S
C1272 C1270 1.391 . S
C1272 C1273 1.400 . S
C1273 C1267 1.491 . S
C1273 C1272 1.400 . S
C1273 C1274 1.398 . S
C1274 H1262 0.950 . S
C1274 C1273 1.398 . S
C1274 C1275 1.391 . S
C1275 H1263 0.950 . S
C1275 C1271 1.393 . S
C1275 C1274 1.391 . S
H1276 C1284 0.950 . S
H1277 C1289 0.950 . S
H1278 C1286 0.950 . S
H1279 C1288 0.950 . S
H1280 C1290 0.950 . S
H1281 C1292 0.950 . S
H1282 C1294 0.950 . S
H1283 C1295 0.950 . S
C1284 H1276 0.950 . S
C1284 C1285 1.386 . S
C1284 C1286 1.391 . S
C1285 C1284 1.386 . S
C1285 C1289 1.393 . S
C1286 H1278 0.950 . S
C1286 C1284 1.391 . S
C1286 C1287 1.400 . S
C1287 C1286 1.400 . S
C1287 C1288 1.398 . S
C1287 C1293 1.491 1_455 S
C1288 H1279 0.950 . S
C1288 C1287 1.398 . S
C1288 C1289 1.391 . S
C1289 H1277 0.950 . S
C1289 C1285 1.393 . S
C1289 C1288 1.391 . S
C1290 H1280 0.950 . S
C1290 C1291 1.386 . S
C1290 C1292 1.391 . S
C1291 C1290 1.386 . S
C1291 C1295 1.393 . S
C1292 H1281 0.950 . S
C1292 C1290 1.391 . S
C1292 C1293 1.400 . S
C1293 C1287 1.491 1_655 S
C1293 C1292 1.400 . S
C1293 C1294 1.398 . S
C1294 H1282 0.950 . S
C1294 C1293 1.398 . S
C1294 C1295 1.391 . S
C1295 H1283 0.950 . S
C1295 C1291 1.393 . S
C1295 C1294 1.391 . S
H1296 C1304 0.950 . S
H1297 C1309 0.950 . S
H1298 C1306 0.950 . S
H1299 C1308 0.950 . S
H1300 C1310 0.950 . S
H1301 C1312 0.950 . S
H1302 C1314 0.950 . S
H1303 C1315 0.950 . S
C1304 H1296 0.950 . S
C1304 C1305 1.386 . S
C1304 C1306 1.391 . S
C1305 C1304 1.386 . S
C1305 C1309 1.393 . S
C1306 H1298 0.950 . S
C1306 C1304 1.391 . S
C1306 C1307 1.400 . S
C1307 C1306 1.400 . S
C1307 C1308 1.398 . S
C1307 C1313 1.491 . S
C1308 H1299 0.950 . S
C1308 C1307 1.398 . S
C1308 C1309 1.391 . S
C1309 H1297 0.950 . S
C1309 C1305 1.393 . S
C1309 C1308 1.391 . S
C1310 H1300 0.950 . S
C1310 C1311 1.386 . S
C1310 C1312 1.391 . S
C1311 C1310 1.386 . S
C1311 C1315 1.393 . S
C1312 H1301 0.950 . S
C1312 C1310 1.391 . S
C1312 C1313 1.400 . S
C1313 C1307 1.491 . S
C1313 C1312 1.400 . S
C1313 C1314 1.398 . S
C1314 H1302 0.950 . S
C1314 C1313 1.398 . S
C1314 C1315 1.391 . S
C1315 H1303 0.950 . S
C1315 C1311 1.393 . S
C1315 C1314 1.391 . S
H1316 C1324 0.950 . S
H1317 C1329 0.950 . S
H1318 C1326 0.950 . S
H1319 C1328 0.950 . S
H1320 C1330 0.950 . S
H1321 C1332 0.950 . S
H1322 C1334 0.950 . S
H1323 C1335 0.950 . S
C1324 H1316 0.950 . S
C1324 C1325 1.386 . S
C1324 C1326 1.391 . S
C1325 C1324 1.386 . S
C1325 C1329 1.393 . S
C1326 H1318 0.950 . S
C1326 C1324 1.391 . S
C1326 C1327 1.400 . S
C1327 C1326 1.400 . S
C1327 C1328 1.398 . S
C1327 C1333 1.491 1_655 S
C1328 H1319 0.950 . S
C1328 C1327 1.398 . S
C1328 C1329 1.391 . S
C1329 H1317 0.950 . S
C1329 C1325 1.393 . S
C1329 C1328 1.391 . S
C1330 H1320 0.950 . S
C1330 C1331 1.386 . S
C1330 C1332 1.391 . S
C1331 C1330 1.386 . S
C1331 C1335 1.393 . S
C1332 H1321 0.950 . S
C1332 C1330 1.391 . S
C1332 C1333 1.400 . S
C1333 C1327 1.491 1_455 S
C1333 C1332 1.400 . S
C1333 C1334 1.398 . S
C1334 H1322 0.950 . S
C1334 C1333 1.398 . S
C1334 C1335 1.391 . S
C1335 H1323 0.950 . S
C1335 C1331 1.393 . S
C1335 C1334 1.391 . S
H1336 C1344 0.950 . S
H1337 C1349 0.950 . S
H1338 C1346 0.950 . S
H1339 C1348 0.950 . S
H1340 C1350 0.950 . S
H1341 C1352 0.950 . S
H1342 C1354 0.950 . S
H1343 C1355 0.950 . S
C1344 H1336 0.950 . S
C1344 C1345 1.386 . S
C1344 C1346 1.391 . S
C1345 C1344 1.386 . S
C1345 C1349 1.393 . S
C1346 H1338 0.950 . S
C1346 C1344 1.391 . S
C1346 C1347 1.400 . S
C1347 C1346 1.400 . S
C1347 C1348 1.398 . S
C1347 C1353 1.491 . S
C1348 H1339 0.950 . S
C1348 C1347 1.398 . S
C1348 C1349 1.391 . S
C1349 H1337 0.950 . S
C1349 C1345 1.393 . S
C1349 C1348 1.391 . S
C1350 H1340 0.950 . S
C1350 C1351 1.386 . S
C1350 C1352 1.391 . S
C1351 C1350 1.386 . S
C1351 C1355 1.393 . S
C1352 H1341 0.950 . S
C1352 C1350 1.391 . S
C1352 C1353 1.400 . S
C1353 C1347 1.491 . S
C1353 C1352 1.400 . S
C1353 C1354 1.398 . S
C1354 H1342 0.950 . S
C1354 C1353 1.398 . S
C1354 C1355 1.391 . S
C1355 H1343 0.950 . S
C1355 C1351 1.393 . S
C1355 C1354 1.391 . S
H1356 C1364 0.950 . S
H1357 C1369 0.950 . S
H1358 C1366 0.950 . S
H1359 C1368 0.950 . S
H1360 C1370 0.950 . S
H1361 C1372 0.950 . S
H1362 C1374 0.950 . S
H1363 C1375 0.950 . S
C1364 H1356 0.950 . S
C1364 C1365 1.386 . S
C1364 C1366 1.391 . S
C1365 C1364 1.386 . S
C1365 C1369 1.393 . S
C1366 H1358 0.950 . S
C1366 C1364 1.391 . S
C1366 C1367 1.400 . S
C1367 C1366 1.400 . S
C1367 C1368 1.398 . S
C1367 C1373 1.491 . S
C1368 H1359 0.950 . S
C1368 C1367 1.398 . S
C1368 C1369 1.391 . S
C1369 H1357 0.950 . S
C1369 C1365 1.393 . S
C1369 C1368 1.391 . S
C1370 H1360 0.950 . S
C1370 C1371 1.386 . S
C1370 C1372 1.391 . S
C1371 C1370 1.386 . S
C1371 C1375 1.393 . S
C1372 H1361 0.950 . S
C1372 C1370 1.391 . S
C1372 C1373 1.400 . S
C1373 C1367 1.491 . S
C1373 C1372 1.400 . S
C1373 C1374 1.398 . S
C1374 H1362 0.950 . S
C1374 C1373 1.398 . S
C1374 C1375 1.391 . S
C1375 H1363 0.950 . S
C1375 C1371 1.393 . S
C1375 C1374 1.391 . S
H1376 C1384 0.950 . S
H1377 C1389 0.950 . S
H1378 C1386 0.950 . S
H1379 C1388 0.950 . S
H1380 C1390 0.950 . S
H1381 C1392 0.950 . S
H1382 C1394 0.950 . S
H1383 C1395 0.950 . S
C1384 H1376 0.950 . S
C1384 C1385 1.386 . S
C1384 C1386 1.391 . S
C1385 C1384 1.386 . S
C1385 C1389 1.393 . S
C1386 H1378 0.950 . S
C1386 C1384 1.391 . S
C1386 C1387 1.400 . S
C1387 C1386 1.400 . S
C1387 C1388 1.398 . S
C1387 C1393 1.491 . S
C1388 H1379 0.950 . S
C1388 C1387 1.398 . S
C1388 C1389 1.391 . S
C1389 H1377 0.950 . S
C1389 C1385 1.393 . S
C1389 C1388 1.391 . S
C1390 H1380 0.950 . S
C1390 C1391 1.386 . S
C1390 C1392 1.391 . S
C1391 C1390 1.386 . S
C1391 C1395 1.393 . S
C1392 H1381 0.950 . S
C1392 C1390 1.391 . S
C1392 C1393 1.400 . S
C1393 C1387 1.491 . S
C1393 C1392 1.400 . S
C1393 C1394 1.398 . S
C1394 H1382 0.950 . S
C1394 C1393 1.398 . S
C1394 C1395 1.391 . S
C1395 H1383 0.950 . S
C1395 C1391 1.393 . S
C1395 C1394 1.391 . S
H1396 C1404 0.950 . S
H1397 C1409 0.950 . S
H1398 C1406 0.950 . S
H1399 C1408 0.950 . S
H1400 C1410 0.950 . S
H1401 C1412 0.950 . S
H1402 C1414 0.950 . S
H1403 C1415 0.950 . S
C1404 H1396 0.950 . S
C1404 C1405 1.386 . S
C1404 C1406 1.391 . S
C1405 C1404 1.386 . S
C1405 C1409 1.393 . S
C1406 H1398 0.950 . S
C1406 C1404 1.391 . S
C1406 C1407 1.400 . S
C1407 C1406 1.400 . S
C1407 C1408 1.398 . S
C1407 C1413 1.491 . S
C1408 H1399 0.950 . S
C1408 C1407 1.398 . S
C1408 C1409 1.391 . S
C1409 H1397 0.950 . S
C1409 C1405 1.393 . S
C1409 C1408 1.391 . S
C1410 H1400 0.950 . S
C1410 C1411 1.386 . S
C1410 C1412 1.391 . S
C1411 C1410 1.386 . S
C1411 C1415 1.393 . S
C1412 H1401 0.950 . S
C1412 C1410 1.391 . S
C1412 C1413 1.400 . S
C1413 C1407 1.491 . S
C1413 C1412 1.400 . S
C1413 C1414 1.398 . S
C1414 H1402 0.950 . S
C1414 C1413 1.398 . S
C1414 C1415 1.391 . S
C1415 H1403 0.950 . S
C1415 C1411 1.393 . S
C1415 C1414 1.391 . S
H1416 C1424 0.950 . S
H1417 C1429 0.950 . S
H1418 C1426 0.950 . S
H1419 C1428 0.950 . S
H1420 C1430 0.950 . S
H1421 C1432 0.950 . S
H1422 C1434 0.950 . S
H1423 C1435 0.950 . S
C1424 H1416 0.950 . S
C1424 C1425 1.386 . S
C1424 C1426 1.391 . S
C1425 C1424 1.386 . S
C1425 C1429 1.393 . S
C1426 H1418 0.950 . S
C1426 C1424 1.391 . S
C1426 C1427 1.400 . S
C1427 C1426 1.400 . S
C1427 C1428 1.398 . S
C1427 C1433 1.491 . S
C1428 H1419 0.950 . S
C1428 C1427 1.398 . S
C1428 C1429 1.391 . S
C1429 H1417 0.950 . S
C1429 C1425 1.393 . S
C1429 C1428 1.391 . S
C1430 H1420 0.950 . S
C1430 C1431 1.386 . S
C1430 C1432 1.391 . S
C1431 C1430 1.386 . S
C1431 C1435 1.393 . S
C1432 H1421 0.950 . S
C1432 C1430 1.391 . S
C1432 C1433 1.400 . S
C1433 C1427 1.491 . S
C1433 C1432 1.400 . S
C1433 C1434 1.398 . S
C1434 H1422 0.950 . S
C1434 C1433 1.398 . S
C1434 C1435 1.391 . S
C1435 H1423 0.950 . S
C1435 C1431 1.393 . S
C1435 C1434 1.391 . S
H1436 C1444 0.950 . S
H1437 C1449 0.950 . S
H1438 C1446 0.950 . S
H1439 C1448 0.950 . S
H1440 C1450 0.950 . S
H1441 C1452 0.950 . S
H1442 C1454 0.950 . S
H1443 C1455 0.950 . S
C1444 H1436 0.950 . S
C1444 C1445 1.386 . S
C1444 C1446 1.391 . S
C1445 C1444 1.386 . S
C1445 C1449 1.393 . S
C1446 H1438 0.950 . S
C1446 C1444 1.391 . S
C1446 C1447 1.400 . S
C1447 C1446 1.400 . S
C1447 C1448 1.398 . S
C1447 C1453 1.491 . S
C1448 H1439 0.950 . S
C1448 C1447 1.398 . S
C1448 C1449 1.391 . S
C1449 H1437 0.950 . S
C1449 C1445 1.393 . S
C1449 C1448 1.391 . S
C1450 H1440 0.950 . S
C1450 C1451 1.386 . S
C1450 C1452 1.391 . S
C1451 C1450 1.386 . S
C1451 C1455 1.393 . S
C1452 H1441 0.950 . S
C1452 C1450 1.391 . S
C1452 C1453 1.400 . S
C1453 C1447 1.491 . S
C1453 C1452 1.400 . S
C1453 C1454 1.398 . S
C1454 H1442 0.950 . S
C1454 C1453 1.398 . S
C1454 C1455 1.391 . S
C1455 H1443 0.950 . S
C1455 C1451 1.393 . S
C1455 C1454 1.391 . S
H1456 C1464 0.950 . S
H1457 C1469 0.950 . S
H1458 C1466 0.950 . S
H1459 C1468 0.950 . S
H1460 C1470 0.950 . S
H1461 C1472 0.950 . S
H1462 C1474 0.950 . S
H1463 C1475 0.950 . S
C1464 H1456 0.950 . S
C1464 C1465 1.386 . S
C1464 C1466 1.391 . S
C1465 C1464 1.386 . S
C1465 C1469 1.393 . S
C1466 H1458 0.950 . S
C1466 C1464 1.391 . S
C1466 C1467 1.400 . S
C1467 C1466 1.400 . S
C1467 C1468 1.398 . S
C1467 C1473 1.491 . S
C1468 H1459 0.950 . S
C1468 C1467 1.398 . S
C1468 C1469 1.391 . S
C1469 H1457 0.950 . S
C1469 C1465 1.393 . S
C1469 C1468 1.391 . S
C1470 H1460 0.950 . S
C1470 C1471 1.386 . S
C1470 C1472 1.391 . S
C1471 C1470 1.386 . S
C1471 C1475 1.393 . S
C1472 H1461 0.950 . S
C1472 C1470 1.391 . S
C1472 C1473 1.400 . S
C1473 C1467 1.491 . S
C1473 C1472 1.400 . S
C1473 C1474 1.398 . S
C1474 H1462 0.950 . S
C1474 C1473 1.398 . S
C1474 C1475 1.391 . S
C1475 H1463 0.950 . S
C1475 C1471 1.393 . S
C1475 C1474 1.391 . S
H1476 C1484 0.950 . S
H1477 C1489 0.950 . S
H1478 C1486 0.950 . S
H1479 C1488 0.950 . S
H1480 C1490 0.950 . S
H1481 C1492 0.950 . S
H1482 C1494 0.950 . S
H1483 C1495 0.950 . S
C1484 H1476 0.950 . S
C1484 C1485 1.386 . S
C1484 C1486 1.391 . S
C1485 C1484 1.386 . S
C1485 C1489 1.393 . S
C1486 H1478 0.950 . S
C1486 C1484 1.391 . S
C1486 C1487 1.400 . S
C1487 C1486 1.400 . S
C1487 C1488 1.398 . S
C1487 C1493 1.491 . S
C1488 H1479 0.950 . S
C1488 C1487 1.398 . S
C1488 C1489 1.391 . S
C1489 H1477 0.950 . S
C1489 C1485 1.393 . S
C1489 C1488 1.391 . S
C1490 H1480 0.950 . S
C1490 C1491 1.386 . S
C1490 C1492 1.391 . S
C1491 C1490 1.386 . S
C1491 C1495 1.393 . S
C1492 H1481 0.950 . S
C1492 C1490 1.391 . S
C1492 C1493 1.400 . S
C1493 C1487 1.491 . S
C1493 C1492 1.400 . S
C1493 C1494 1.398 . S
C1494 H1482 0.950 . S
C1494 C1493 1.398 . S
C1494 C1495 1.391 . S
C1495 H1483 0.950 . S
C1495 C1491 1.393 . S
C1495 C1494 1.391 . S
H1496 C1504 0.950 . S
H1497 C1509 0.950 . S
H1498 C1506 0.950 . S
H1499 C1508 0.950 . S
H1500 C1510 0.950 . S
H1501 C1512 0.950 . S
H1502 C1514 0.950 . S
H1503 C1515 0.950 . S
C1504 H1496 0.950 . S
C1504 C1505 1.386 . S
C1504 C1506 1.391 . S
C1505 C1504 1.386 . S
C1505 C1509 1.393 . S
C1506 H1498 0.950 . S
C1506 C1504 1.391 . S
C1506 C1507 1.400 . S
C1507 C1506 1.400 . S
C1507 C1508 1.398 . S
C1507 C1513 1.491 . S
C1508 H1499 0.950 . S
C1508 C1507 1.398 . S
C1508 C1509 1.391 . S
C1509 H1497 0.950 . S
C1509 C1505 1.393 . S
C1509 C1508 1.391 . S
C1510 H1500 0.950 . S
C1510 C1511 1.386 . S
C1510 C1512 1.391 . S
C1511 C1510 1.386 . S
C1511 C1515 1.393 . S
C1512 H1501 0.950 . S
C1512 C1510 1.391 . S
C1512 C1513 1.400 . S
C1513 C1507 1.491 . S
C1513 C1512 1.400 . S
C1513 C1514 1.398 . S
C1514 H1502 0.950 . S
C1514 C1513 1.398 . S
C1514 C1515 1.391 . S
C1515 H1503 0.950 . S
C1515 C1511 1.393 . S
C1515 C1514 1.391 . S
H1516 C1524 0.950 . S
H1517 C1529 0.950 . S
H1518 C1526 0.950 . S
H1519 C1528 0.950 . S
H1520 C1530 0.950 . S
H1521 C1532 0.950 . S
H1522 C1534 0.950 . S
H1523 C1535 0.950 . S
C1524 H1516 0.950 . S
C1524 C1525 1.386 . S
C1524 C1526 1.391 . S
C1525 C1524 1.386 . S
C1525 C1529 1.393 . S
C1526 H1518 0.950 . S
C1526 C1524 1.391 . S
C1526 C1527 1.400 . S
C1527 C1526 1.400 . S
C1527 C1528 1.398 . S
C1527 C1533 1.491 . S
C1528 H1519 0.950 . S
C1528 C1527 1.398 . S
C1528 C1529 1.391 . S
C1529 H1517 0.950 . S
C1529 C1525 1.393 . S
C1529 C1528 1.391 . S
C1530 H1520 0.950 . S
C1530 C1531 1.386 . S
C1530 C1532 1.391 . S
C1531 C1530 1.386 . S
C1531 C1535 1.393 . S
C1532 H1521 0.950 . S
C1532 C1530 1.391 . S
C1532 C1533 1.400 . S
C1533 C1527 1.491 . S
C1533 C1532 1.400 . S
C1533 C1534 1.398 . S
C1534 H1522 0.950 . S
C1534 C1533 1.398 . S
C1534 C1535 1.391 . S
C1535 H1523 0.950 . S
C1535 C1531 1.393 . S
C1535 C1534 1.391 . S
H1536 C1544 0.950 . S
H1537 C1549 0.950 . S
H1538 C1546 0.950 . S
H1539 C1548 0.950 . S
H1540 C1550 0.950 . S
H1541 C1552 0.950 . S
H1542 C1554 0.950 . S
H1543 C1555 0.950 . S
C1544 H1536 0.950 . S
C1544 C1545 1.386 . S
C1544 C1546 1.391 . S
C1545 C1544 1.386 . S
C1545 C1549 1.393 . S
C1546 H1538 0.950 . S
C1546 C1544 1.391 . S
C1546 C1547 1.400 . S
C1547 C1546 1.400 . S
C1547 C1548 1.398 . S
C1547 C1553 1.491 . S
C1548 H1539 0.950 . S
C1548 C1547 1.398 . S
C1548 C1549 1.391 . S
C1549 H1537 0.950 . S
C1549 C1545 1.393 . S
C1549 C1548 1.391 . S
C1550 H1540 0.950 . S
C1550 C1551 1.386 . S
C1550 C1552 1.391 . S
C1551 C1550 1.386 . S
C1551 C1555 1.393 . S
C1552 H1541 0.950 . S
C1552 C1550 1.391 . S
C1552 C1553 1.400 . S
C1553 C1547 1.491 . S
C1553 C1552 1.400 . S
C1553 C1554 1.398 . S
C1554 H1542 0.950 . S
C1554 C1553 1.398 . S
C1554 C1555 1.391 . S
C1555 H1543 0.950 . S
C1555 C1551 1.393 . S
C1555 C1554 1.391 . S
H1556 C1564 0.950 . S
H1557 C1569 0.950 . S
H1558 C1566 0.950 . S
H1559 C1568 0.950 . S
H1560 C1570 0.950 . S
H1561 C1572 0.950 . S
H1562 C1574 0.950 . S
H1563 C1575 0.950 . S
C1564 H1556 0.950 . S
C1564 C1565 1.386 . S
C1564 C1566 1.391 . S
C1565 C1564 1.386 . S
C1565 C1569 1.393 . S
C1566 H1558 0.950 . S
C1566 C1564 1.391 . S
C1566 C1567 1.400 . S
C1567 C1566 1.400 . S
C1567 C1568 1.398 . S
C1567 C1573 1.491 . S
C1568 H1559 0.950 . S
C1568 C1567 1.398 . S
C1568 C1569 1.391 . S
C1569 H1557 0.950 . S
C1569 C1565 1.393 . S
C1569 C1568 1.391 . S
C1570 H1560 0.950 . S
C1570 C1571 1.386 . S
C1570 C1572 1.391 . S
C1571 C1570 1.386 . S
C1571 C1575 1.393 . S
C1572 H1561 0.950 . S
C1572 C1570 1.391 . S
C1572 C1573 1.400 . S
C1573 C1567 1.491 . S
C1573 C1572 1.400 . S
C1573 C1574 1.398 . S
C1574 H1562 0.950 . S
C1574 C1573 1.398 . S
C1574 C1575 1.391 . S
C1575 H1563 0.950 . S
C1575 C1571 1.393 . S
C1575 C1574 1.391 . S
H1576 C1584 0.950 . S
H1577 C1589 0.950 . S
H1578 C1586 0.950 . S
H1579 C1588 0.950 . S
H1580 C1590 0.950 . S
H1581 C1592 0.950 . S
H1582 C1594 0.950 . S
H1583 C1595 0.950 . S
C1584 H1576 0.950 . S
C1584 C1585 1.386 . S
C1584 C1586 1.391 . S
C1585 C1584 1.386 . S
C1585 C1589 1.393 . S
C1586 H1578 0.950 . S
C1586 C1584 1.391 . S
C1586 C1587 1.400 . S
C1587 C1586 1.400 . S
C1587 C1588 1.398 . S
C1587 C1593 1.491 . S
C1588 H1579 0.950 . S
C1588 C1587 1.398 . S
C1588 C1589 1.391 . S
C1589 H1577 0.950 . S
C1589 C1585 1.393 . S
C1589 C1588 1.391 . S
C1590 H1580 0.950 . S
C1590 C1591 1.386 . S
C1590 C1592 1.391 . S
C1591 C1590 1.386 . S
C1591 C1595 1.393 . S
C1592 H1581 0.950 . S
C1592 C1590 1.391 . S
C1592 C1593 1.400 . S
C1593 C1587 1.491 . S
C1593 C1592 1.400 . S
C1593 C1594 1.398 . S
C1594 H1582 0.950 . S
C1594 C1593 1.398 . S
C1594 C1595 1.391 . S
C1595 H1583 0.950 . S
C1595 C1591 1.393 . S
C1595 C1594 1.391 . S
H1596 C1604 0.950 . S
H1597 C1609 0.950 . S
H1598 C1606 0.950 . S
H1599 C1608 0.950 . S
H1600 C1610 0.950 . S
H1601 C1612 0.950 . S
H1602 C1614 0.950 . S
H1603 C1615 0.950 . S
C1604 H1596 0.950 . S
C1604 C1605 1.386 . S
C1604 C1606 1.391 . S
C1605 C1604 1.386 . S
C1605 C1609 1.393 . S
C1606 H1598 0.950 . S
C1606 C1604 1.391 . S
C1606 C1607 1.400 . S
C1607 C1606 1.400 . S
C1607 C1608 1.398 . S
C1607 C1613 1.491 . S
C1608 H1599 0.950 . S
C1608 C1607 1.398 . S
C1608 C1609 1.391 . S
C1609 H1597 0.950 . S
C1609 C1605 1.393 . S
C1609 C1608 1.391 . S
C1610 H1600 0.950 . S
C1610 C1611 1.386 . S
C1610 C1612 1.391 . S
C1611 C1610 1.386 . S
C1611 C1615 1.393 . S
C1612 H1601 0.950 . S
C1612 C1610 1.391 . S
C1612 C1613 1.400 . S
C1613 C1607 1.491 . S
C1613 C1612 1.400 . S
C1613 C1614 1.398 . S
C1614 H1602 0.950 . S
C1614 C1613 1.398 . S
C1614 C1615 1.391 . S
C1615 H1603 0.950 . S
C1615 C1611 1.393 . S
C1615 C1614 1.391 . S
H1616 C1624 0.950 . S
H1617 C1629 0.950 . S
H1618 C1626 0.950 . S
H1619 C1628 0.950 . S
H1620 C1630 0.950 . S
H1621 C1632 0.950 . S
H1622 C1634 0.950 . S
H1623 C1635 0.950 . S
C1624 H1616 0.950 . S
C1624 C1625 1.386 . S
C1624 C1626 1.391 . S
C1625 C1624 1.386 . S
C1625 C1629 1.393 . S
C1626 H1618 0.950 . S
C1626 C1624 1.391 . S
C1626 C1627 1.400 . S
C1627 C1626 1.400 . S
C1627 C1628 1.398 . S
C1627 C1633 1.491 . S
C1628 H1619 0.950 . S
C1628 C1627 1.398 . S
C1628 C1629 1.391 . S
C1629 H1617 0.950 . S
C1629 C1625 1.393 . S
C1629 C1628 1.391 . S
C1630 H1620 0.950 . S
C1630 C1631 1.386 . S
C1630 C1632 1.391 . S
C1631 C1630 1.386 . S
C1631 C1635 1.393 . S
C1632 H1621 0.950 . S
C1632 C1630 1.391 . S
C1632 C1633 1.400 . S
C1633 C1627 1.491 . S
C1633 C1632 1.400 . S
C1633 C1634 1.398 . S
C1634 H1622 0.950 . S
C1634 C1633 1.398 . S
C1634 C1635 1.391 . S
C1635 H1623 0.950 . S
C1635 C1631 1.393 . S
C1635 C1634 1.391 . S
H1636 C1644 0.950 . S
H1637 C1649 0.950 . S
H1638 C1646 0.950 . S
H1639 C1648 0.950 . S
H1640 C1650 0.950 . S
H1641 C1652 0.950 . S
H1642 C1654 0.950 . S
H1643 C1655 0.950 . S
C1644 H1636 0.950 . S
C1644 C1645 1.386 . S
C1644 C1646 1.391 . S
C1645 C1644 1.386 . S
C1645 C1649 1.393 . S
C1646 H1638 0.950 . S
C1646 C1644 1.391 . S
C1646 C1647 1.400 . S
C1647 C1646 1.400 . S
C1647 C1648 1.398 . S
C1647 C1653 1.491 . S
C1648 H1639 0.950 . S
C1648 C1647 1.398 . S
C1648 C1649 1.391 . S
C1649 H1637 0.950 . S
C1649 C1645 1.393 . S
C1649 C1648 1.391 . S
C1650 H1640 0.950 . S
C1650 C1651 1.386 . S
C1650 C1652 1.391 . S
C1651 C1650 1.386 . S
C1651 C1655 1.393 . S
C1652 H1641 0.950 . S
C1652 C1650 1.391 . S
C1652 C1653 1.400 . S
C1653 C1647 1.491 . S
C1653 C1652 1.400 . S
C1653 C1654 1.398 . S
C1654 H1642 0.950 . S
C1654 C1653 1.398 . S
C1654 C1655 1.391 . S
C1655 H1643 0.950 . S
C1655 C1651 1.393 . S
C1655 C1654 1.391 . S
H1656 C1664 0.950 . S
H1657 C1669 0.950 . S
H1658 C1666 0.950 . S
H1659 C1668 0.950 . S
H1660 C1670 0.950 . S
H1661 C1672 0.950 . S
H1662 C1674 0.950 . S
H1663 C1675 0.950 . S
C1664 H1656 0.950 . S
C1664 C1665 1.386 . S
C1664 C1666 1.391 . S
C1665 C1664 1.386 . S
C1665 C1669 1.393 . S
C1666 H1658 0.950 . S
C1666 C1664 1.391 . S
C1666 C1667 1.400 . S
C1667 C1666 1.400 . S
C1667 C1668 1.398 . S
C1667 C1673 1.491 . S
C1668 H1659 0.950 . S
C1668 C1667 1.398 . S
C1668 C1669 1.391 . S
C1669 H1657 0.950 . S
C1669 C1665 1.393 . S
C1669 C1668 1.391 . S
C1670 H1660 0.950 . S
C1670 C1671 1.386 . S
C1670 C1672 1.391 . S
C1671 C1670 1.386 . S
C1671 C1675 1.393 . S
C1672 H1661 0.950 . S
C1672 C1670 1.391 . S
C1672 C1673 1.400 . S
C1673 C1667 1.491 . S
C1673 C1672 1.400 . S
C1673 C1674 1.398 . S
C1674 H1662 0.950 . S
C1674 C1673 1.398 . S
C1674 C1675 1.391 . S
C1675 H1663 0.950 . S
C1675 C1671 1.393 . S
C1675 C1674 1.391 . S
H1676 C1684 0.950 . S
H1677 C1689 0.950 . S
H1678 C1686 0.950 . S
H1679 C1688 0.950 . S
H1680 C1690 0.950 . S
H1681 C1692 0.950 . S
H1682 C1694 0.950 . S
H1683 C1695 0.950 . S
C1684 H1676 0.950 . S
C1684 C1685 1.386 . S
C1684 C1686 1.391 . S
C1685 C1684 1.386 . S
C1685 C1689 1.393 . S
C1686 H1678 0.950 . S
C1686 C1684 1.391 . S
C1686 C1687 1.400 . S
C1687 C1686 1.400 . S
C1687 C1688 1.398 . S
C1687 C1693 1.491 . S
C1688 H1679 0.950 . S
C1688 C1687 1.398 . S
C1688 C1689 1.391 . S
C1689 H1677 0.950 . S
C1689 C1685 1.393 . S
C1689 C1688 1.391 . S
C1690 H1680 0.950 . S
C1690 C1691 1.386 . S
C1690 C1692 1.391 . S
C1691 C1690 1.386 . S
C1691 C1695 1.393 . S
C1692 H1681 0.950 . S
C1692 C1690 1.391 . S
C1692 C1693 1.400 . S
C1693 C1687 1.491 . S
C1693 C1692 1.400 . S
C1693 C1694 1.398 . S
C1694 H1682 0.950 . S
C1694 C1693 1.398 . S
C1694 C1695 1.391 . S
C1695 H1683 0.950 . S
C1695 C1691 1.393 . S
C1695 C1694 1.391 . S
C425 C0 1.288 . S
C431 C52 1.288 . S
C445 C13 1.287 . S
C451 C65 1.292 . S
C465 C78 1.288 . S
C471 C26 1.294 . S
C485 C91 1.294 . S
C491 C39 1.300 . S
C505 C104 1.299 . S
C511 C156 1.301 . S
C525 C117 1.301 . S
C531 C169 1.300 . S
C545 C182 1.289 . S
C551 C130 1.295 . S
C565 C143 1.297 . S
C571 C195 1.289 . S
C585 C260 1.301 . S
C591 C208 1.300 . S
C605 C273 1.301 . S
C611 C221 1.300 . S
C625 C234 1.297 . S
C631 C286 1.301 . S
C645 C299 1.300 . S
C651 C247 1.301 . S
C665 C312 1.300 . S
C671 C364 1.301 . S
C685 C377 1.287 . S
C691 C325 1.292 . S
C705 C390 1.301 . S
C711 C338 1.299 . S
C725 C351 1.302 . S
C731 C403 1.298 . S
C745 C5 1.396 . S
C751 C359 1.435 . S
C765 C112 1.438 . S
C771 C18 1.389 . S
C785 C31 1.391 . S
C791 C333 1.437 . S
C805 C44 1.389 . S
C811 C138 1.438 . S
C825 C385 1.446 . S
C831 C57 1.400 . S
C845 C190 1.451 . S
C851 C70 1.391 . S
C865 C83 1.382 . S
C871 C411 1.443 . S
C885 C96 1.408 . S
C891 C164 1.438 . S
C905 C255 1.436 . S
C911 C109 1.407 . S
C925 C122 1.394 . S
C931 C8 1.450 . S
C945 C229 1.450 . S
C951 C135 1.394 . S
C965 C148 1.402 . S
C971 C34 1.434 . S
C985 C281 1.448 . S
C991 C161 1.377 . S
C1005 C174 1.388 . S
C1011 C86 1.452 . S
C1025 C307 1.439 . S
C1031 C187 1.408 . S
C1045 C200 1.400 . S
C1051 C60 1.446 . S
C1065 C151 1.435 . S
C1071 C213 1.399 . S
C1085 C320 1.434 . S
C1091 C226 1.401 . S
C1105 C125 1.435 . S
C1111 C239 1.406 . S
C1125 C252 1.408 . S
C1131 C346 1.438 . S
C1145 C177 1.437 . S
C1151 C265 1.393 . S
C1165 C398 1.449 . S
C1171 C278 1.376 . S
C1185 C203 1.439 . S
C1191 C291 1.388 . S
C1205 C304 1.398 . S
C1211 C372 1.448 . S
C1225 C317 1.408 . S
C1231 C47 1.439 . S
C1245 C330 1.394 . S
C1251 C216 1.450 . S
C1265 C343 1.383 . S
C1271 C21 1.453 . S
C1285 C356 1.402 . S
C1291 C242 1.445 . S
C1305 C369 1.408 . S
C1311 C73 1.438 . S
C1325 C294 1.445 . S
C1331 C382 1.402 . S
C1345 C99 1.443 . S
C1351 C395 1.404 . S
C1365 C408 1.376 . S
C1371 C268 1.449 . S
C1385 C10 1.154 . S
C1391 C101 1.178 . S
C1405 C23 1.168 . S
C1411 C62 1.149 1_556 S
C1425 C36 1.151 1_554 S
C1431 C75 1.178 . S
C1445 C88 1.177 . S
C1451 C49 1.149 . S
C1465 C205 1.152 . S
C1471 C114 1.178 . S
C1485 C166 1.170 1_554 S
C1491 C127 1.148 . S
C1505 C179 1.172 . S
C1511 C140 1.165 1_556 S
C1525 C192 1.177 . S
C1531 C153 1.148 . S
C1545 C218 1.156 1_554 S
C1551 C309 1.177 . S
C1565 C270 1.177 . S
C1571 C231 1.157 . S
C1585 C283 1.158 . S
C1591 C244 1.177 . S
C1605 C296 1.157 1_556 S
C1611 C257 1.177 . S
C1625 C413 1.152 . S
C1631 C322 1.178 1_556 S
C1645 C335 1.178 . S
C1651 C374 1.151 . S
C1665 C348 1.166 . S
C1671 C387 1.150 . S
C1685 C361 1.172 . S
C1691 C400 1.165 1_554 S
