# Generated by pormake.
# Topology ukt, (4)-cn, num edge types: 1
# Building blocks:
#     Node 0, Type 0, BuildingBlock: QUQFOY_clean_sbu_1, # of connection points: 4
#     Node 1, Type 0, BuildingBlock: QUQFOY_clean_sbu_1, # of connection points: 4
#     Node 2, Type 0, BuildingBlock: QUQFOY_clean_sbu_1, # of connection points: 4
#     Node 3, Type 0, BuildingBlock: QUQFOY_clean_sbu_1, # of connection points: 4
#     Node 4, Type 0, BuildingBlock: QUQFOY_clean_sbu_1, # of connection points: 4
#     Node 5, Type 0, BuildingBlock: QUQFOY_clean_sbu_1, # of connection points: 4
#     Node 6, Type 0, BuildingBlock: QUQFOY_clean_sbu_1, # of connection points: 4
#     Node 7, Type 0, BuildingBlock: QUQFOY_clean_sbu_1, # of connection points: 4
#     Node 8, Type 0, BuildingBlock: QUQFOY_clean_sbu_1, # of connection points: 4
#     Node 9, Type 0, BuildingBlock: QUQFOY_clean_sbu_1, # of connection points: 4
#     Node 10, Type 0, BuildingBlock: QUQFOY_clean_sbu_1, # of connection points: 4
#     Node 11, Type 0, BuildingBlock: QUQFOY_clean_sbu_1, # of connection points: 4
#     Node 12, Type 0, BuildingBlock: QUQFOY_clean_sbu_1, # of connection points: 4
#     Node 13, Type 0, BuildingBlock: QUQFOY_clean_sbu_1, # of connection points: 4
#     Node 14, Type 0, BuildingBlock: QUQFOY_clean_sbu_1, # of connection points: 4
#     Node 15, Type 0, BuildingBlock: QUQFOY_clean_sbu_1, # of connection points: 4
#     Edge 16, Type (0, 0), BuildingBlock: UVAHIK_clean_linker_0, # of connection points: 2
#     Edge 17, Type (0, 0), BuildingBlock: UVAHIK_clean_linker_0, # of connection points: 2
#     Edge 18, Type (0, 0), BuildingBlock: UVAHIK_clean_linker_0, # of connection points: 2
#     Edge 19, Type (0, 0), BuildingBlock: UVAHIK_clean_linker_0, # of connection points: 2
#     Edge 20, Type (0, 0), BuildingBlock: UVAHIK_clean_linker_0, # of connection points: 2
#     Edge 21, Type (0, 0), BuildingBlock: UVAHIK_clean_linker_0, # of connection points: 2
#     Edge 22, Type (0, 0), BuildingBlock: UVAHIK_clean_linker_0, # of connection points: 2
#     Edge 23, Type (0, 0), BuildingBlock: UVAHIK_clean_linker_0, # of connection points: 2
#     Edge 24, Type (0, 0), BuildingBlock: UVAHIK_clean_linker_0, # of connection points: 2
#     Edge 25, Type (0, 0), BuildingBlock: UVAHIK_clean_linker_0, # of connection points: 2
#     Edge 26, Type (0, 0), BuildingBlock: UVAHIK_clean_linker_0, # of connection points: 2
#     Edge 27, Type (0, 0), BuildingBlock: UVAHIK_clean_linker_0, # of connection points: 2
#     Edge 28, Type (0, 0), BuildingBlock: UVAHIK_clean_linker_0, # of connection points: 2
#     Edge 29, Type (0, 0), BuildingBlock: UVAHIK_clean_linker_0, # of connection points: 2
#     Edge 30, Type (0, 0), BuildingBlock: UVAHIK_clean_linker_0, # of connection points: 2
#     Edge 31, Type (0, 0), BuildingBlock: UVAHIK_clean_linker_0, # of connection points: 2
#     Edge 32, Type (0, 0), BuildingBlock: UVAHIK_clean_linker_0, # of connection points: 2
#     Edge 33, Type (0, 0), BuildingBlock: UVAHIK_clean_linker_0, # of connection points: 2
#     Edge 34, Type (0, 0), BuildingBlock: UVAHIK_clean_linker_0, # of connection points: 2
#     Edge 35, Type (0, 0), BuildingBlock: UVAHIK_clean_linker_0, # of connection points: 2
#     Edge 36, Type (0, 0), BuildingBlock: UVAHIK_clean_linker_0, # of connection points: 2
#     Edge 37, Type (0, 0), BuildingBlock: UVAHIK_clean_linker_0, # of connection points: 2
#     Edge 38, Type (0, 0), BuildingBlock: UVAHIK_clean_linker_0, # of connection points: 2
#     Edge 39, Type (0, 0), BuildingBlock: UVAHIK_clean_linker_0, # of connection points: 2
#     Edge 40, Type (0, 0), BuildingBlock: UVAHIK_clean_linker_0, # of connection points: 2
#     Edge 41, Type (0, 0), BuildingBlock: UVAHIK_clean_linker_0, # of connection points: 2
#     Edge 42, Type (0, 0), BuildingBlock: UVAHIK_clean_linker_0, # of connection points: 2
#     Edge 43, Type (0, 0), BuildingBlock: UVAHIK_clean_linker_0, # of connection points: 2
#     Edge 44, Type (0, 0), BuildingBlock: UVAHIK_clean_linker_0, # of connection points: 2
#     Edge 45, Type (0, 0), BuildingBlock: UVAHIK_clean_linker_0, # of connection points: 2
#     Edge 46, Type (0, 0), BuildingBlock: UVAHIK_clean_linker_0, # of connection points: 2
#     Edge 47, Type (0, 0), BuildingBlock: UVAHIK_clean_linker_0, # of connection points: 2
# Relax obj value: 0.131
# Max RMSD: 0.090
# Mean RMSD: 0.090
data_MOF--net-ukt--node1-QUQFOY_clean_sbu_1--edge1-UVAHIK_clean_linker_0
_symmetry_space_group_name_H-M    P1
_symmetry_Int_Tables_number       1
_symmetry_cell_setting            triclinic
loop_
_symmetry_equiv_pos_as_xyz
'x, y, z'
_cell_length_a     56.609857
_cell_length_b     56.631753
_cell_length_c     51.36187
_cell_angle_alpha  89.99905
_cell_angle_beta   90.002085
_cell_angle_gamma 90.01269
loop_
_atom_site_label
_atom_site_type_symbol
_atom_site_fract_x
_atom_site_fract_y
_atom_site_fract_z
_atom_type_partial_charge
O0 O 0.56802 0.14317 0.0374 0.0
Cd1 Cd 0.53336 0.15262 0.04087 0.0
Cd2 Cd 0.55424 0.17396 0.08648 0.0
O3 O 0.58107 0.15041 0.07706 0.0
O4 O 0.5191 0.13243 0.01348 0.0
O5 O 0.51195 0.12747 0.05542 0.0
C6 C 0.50978 0.12 0.03177 0.0
C7 C 0.5513 0.18693 0.12978 0.0
C8 C 0.58401 0.14147 0.05459 0.0
C9 C 0.53463 0.20404 0.04084 0.0
O10 O 0.54692 0.20154 0.06137 0.0
O11 O 0.52515 0.18637 0.02984 0.0
O12 O 0.56882 0.19261 0.11515 0.0
O13 O 0.53577 0.17259 0.12034 0.0
O14 O 0.35856 0.56639 0.03804 0.0
Cd15 Cd 0.34647 0.53275 0.04302 0.0
Cd16 Cd 0.3292 0.5551 0.08828 0.0
O17 O 0.3558 0.57881 0.07854 0.0
O18 O 0.36511 0.51607 0.016 0.0
O19 O 0.37036 0.5104 0.05821 0.0
C20 C 0.37742 0.507 0.03457 0.0
C21 C 0.31761 0.55195 0.13199 0.0
C22 C 0.3635 0.58144 0.05548 0.0
C23 C 0.29561 0.5392 0.04442 0.0
O24 O 0.30011 0.55202 0.06414 0.0
O25 O 0.31174 0.52706 0.03368 0.0
O26 O 0.31441 0.57097 0.11878 0.0
O27 O 0.32869 0.53479 0.12083 0.0
O28 O 0.93048 0.35332 0.03324 0.0
Cd29 Cd 0.9651 0.34424 0.0378 0.0
Cd30 Cd 0.94347 0.32277 0.0834 0.0
O31 O 0.91717 0.34657 0.07289 0.0
O32 O 0.97987 0.36455 0.01087 0.0
O33 O 0.98572 0.36967 0.05305 0.0
C34 C 0.98842 0.37717 0.02948 0.0
C35 C 0.94363 0.30973 0.12685 0.0
C36 C 0.91441 0.35531 0.0503 0.0
C37 C 0.9647 0.29278 0.03841 0.0
O38 O 0.95204 0.2952 0.05868 0.0
O39 O 0.97397 0.31053 0.02735 0.0
O40 O 0.92706 0.30418 0.11088 0.0
O41 O 0.95993 0.32379 0.11857 0.0
O42 O 0.13912 0.93051 0.03728 0.0
Cd43 Cd 0.15104 0.96425 0.04199 0.0
Cd44 Cd 0.16799 0.94243 0.08742 0.0
O45 O 0.1414 0.91862 0.07801 0.0
O46 O 0.13235 0.98065 0.01481 0.0
O47 O 0.12704 0.98659 0.05696 0.0
C48 C 0.11998 0.98979 0.03329 0.0
C49 C 0.17972 0.94606 0.13104 0.0
C50 C 0.13399 0.91566 0.05487 0.0
C51 C 0.20175 0.95762 0.04343 0.0
O52 O 0.19707 0.94495 0.06322 0.0
O53 O 0.18576 0.9699 0.03263 0.0
O54 O 0.18276 0.92687 0.11811 0.0
O55 O 0.16868 0.96314 0.11968 0.0
O56 O 0.56777 0.35228 0.46657 0.0
Cd57 Cd 0.53263 0.34483 0.46339 0.0
Cd58 Cd 0.55222 0.32122 0.418 0.0
O59 O 0.58025 0.3435 0.42705 0.0
O60 O 0.51976 0.36618 0.49054 0.0
O61 O 0.5126 0.37098 0.44858 0.0
C62 C 0.51102 0.37887 0.47212 0.0
C63 C 0.54955 0.3074 0.37498 0.0
C64 C 0.58377 0.3527 0.4493 0.0
C65 C 0.5307 0.29339 0.46447 0.0
O66 O 0.54293 0.29469 0.44376 0.0
O67 O 0.52255 0.31183 0.47521 0.0
O68 O 0.5663 0.30103 0.39032 0.0
O69 O 0.53463 0.32278 0.38355 0.0
O70 O 0.14005 0.56498 0.46091 0.0
Cd71 Cd 0.15121 0.53095 0.45685 0.0
Cd72 Cd 0.17103 0.553 0.41157 0.0
O73 O 0.14545 0.57794 0.42092 0.0
O74 O 0.13217 0.51579 0.48464 0.0
O75 O 0.12656 0.50872 0.44278 0.0
C76 C 0.11954 0.50634 0.46658 0.0
C77 C 0.18282 0.55004 0.36791 0.0
C78 C 0.13673 0.58052 0.44354 0.0
C79 C 0.20262 0.53527 0.4565 0.0
O80 O 0.19939 0.54798 0.43638 0.0
O81 O 0.18555 0.52433 0.46706 0.0
O82 O 0.1871 0.56853 0.38164 0.0
O83 O 0.17081 0.53326 0.3786 0.0
O84 O 0.9306 0.14531 0.46782 0.0
Cd85 Cd 0.96568 0.15302 0.46463 0.0
Cd86 Cd 0.94538 0.17721 0.41881 0.0
O87 O 0.91773 0.15472 0.42861 0.0
O88 O 0.97876 0.13184 0.49185 0.0
O89 O 0.98595 0.12702 0.4499 0.0
C90 C 0.98765 0.11922 0.47346 0.0
C91 C 0.94536 0.19186 0.37595 0.0
C92 C 0.91445 0.14514 0.45071 0.0
C93 C 0.96786 0.20462 0.46529 0.0
O94 O 0.95569 0.20342 0.44452 0.0
O95 O 0.97564 0.18611 0.47623 0.0
O96 O 0.92958 0.19781 0.39266 0.0
O97 O 0.96098 0.17659 0.38311 0.0
O98 O 0.35241 0.92887 0.46121 0.0
Cd99 Cd 0.34443 0.96379 0.45716 0.0
Cd100 Cd 0.32512 0.94453 0.41082 0.0
O101 O 0.34913 0.91808 0.42019 0.0
O102 O 0.36451 0.97758 0.48494 0.0
O103 O 0.37066 0.98408 0.44304 0.0
C104 C 0.37774 0.98614 0.46686 0.0
C105 C 0.3139 0.94797 0.36697 0.0
C106 C 0.35585 0.91384 0.44332 0.0
C107 C 0.29326 0.96267 0.45542 0.0
O108 O 0.29649 0.95018 0.43514 0.0
O109 O 0.31049 0.97276 0.46665 0.0
O110 O 0.30878 0.92967 0.38065 0.0
O111 O 0.32638 0.9643 0.37782 0.0
O112 O 0.43006 0.85379 0.96409 0.0
Cd113 Cd 0.46451 0.84416 0.95918 0.0
Cd114 Cd 0.44369 0.82532 0.91342 0.0
O115 O 0.41802 0.84993 0.92354 0.0
O116 O 0.47996 0.86375 0.98629 0.0
O117 O 0.4855 0.86932 0.9441 0.0
C118 C 0.48856 0.87645 0.96777 0.0
C119 C 0.4466 0.81455 0.86942 0.0
C120 C 0.41468 0.85739 0.94659 0.0
C121 C 0.46209 0.79292 0.95728 0.0
O122 O 0.44932 0.7964 0.93727 0.0
O123 O 0.47255 0.80995 0.96844 0.0
O124 O 0.4283 0.80961 0.88318 0.0
O125 O 0.46322 0.82666 0.88029 0.0
O126 O 0.63948 0.42989 0.96199 0.0
Cd127 Cd 0.65112 0.46377 0.95785 0.0
Cd128 Cd 0.66851 0.4426 0.91173 0.0
O129 O 0.64238 0.41828 0.9212 0.0
O130 O 0.63244 0.47957 0.9855 0.0
O131 O 0.62684 0.48616 0.94351 0.0
C132 C 0.6199 0.48892 0.96729 0.0
C133 C 0.67947 0.44633 0.86788 0.0
C134 C 0.63475 0.41509 0.94421 0.0
C135 C 0.70208 0.4581 0.95585 0.0
O136 O 0.69768 0.44578 0.93572 0.0
O137 O 0.68582 0.46965 0.96714 0.0
O138 O 0.68325 0.42729 0.88086 0.0
O139 O 0.66833 0.46324 0.87942 0.0
O140 O 0.06707 0.6413 0.96265 0.0
Cd141 Cd 0.03301 0.65211 0.9573 0.0
Cd142 Cd 0.05519 0.67051 0.91207 0.0
O143 O 0.07996 0.64507 0.9224 0.0
O144 O 0.01667 0.63303 0.98421 0.0
O145 O 0.0114 0.62761 0.94197 0.0
C146 C 0.0079 0.62057 0.9656 0.0
C147 C 0.05294 0.68201 0.86823 0.0
C148 C 0.08264 0.63734 0.94545 0.0
C149 C 0.0372 0.70324 0.95583 0.0
O150 O 0.05023 0.69942 0.9361 0.0
O151 O 0.02593 0.68652 0.96662 0.0
O152 O 0.07134 0.68606 0.8822 0.0
O153 O 0.03591 0.67021 0.87873 0.0
O154 O 0.86012 0.06724 0.96069 0.0
Cd155 Cd 0.84717 0.0338 0.95683 0.0
Cd156 Cd 0.82971 0.05565 0.91123 0.0
O157 O 0.85668 0.07922 0.92008 0.0
O158 O 0.8655 0.01758 0.98446 0.0
O159 O 0.8706 0.0105 0.9425 0.0
C160 C 0.87763 0.00771 0.96625 0.0
C161 C 0.81828 0.05151 0.86757 0.0
C162 C 0.86493 0.08199 0.94289 0.0
C163 C 0.79637 0.04134 0.95594 0.0
O164 O 0.80082 0.05359 0.93577 0.0
O165 O 0.81242 0.02914 0.96675 0.0
O166 O 0.81509 0.07085 0.88021 0.0
O167 O 0.82905 0.03449 0.87935 0.0
O168 O 0.42874 0.63632 0.54175 0.0
Cd169 Cd 0.46167 0.65069 0.54583 0.0
Cd170 Cd 0.4385 0.66757 0.59054 0.0
O171 O 0.41566 0.63999 0.58193 0.0
O172 O 0.47876 0.63324 0.51818 0.0
O173 O 0.48608 0.62837 0.56011 0.0
C174 C 0.4893 0.62163 0.53633 0.0
C175 C 0.44283 0.67992 0.63385 0.0
C176 C 0.41364 0.63141 0.55917 0.0
C177 C 0.45176 0.70107 0.54581 0.0
O178 O 0.43923 0.69621 0.56565 0.0
O179 O 0.46506 0.68554 0.53569 0.0
O180 O 0.42319 0.68211 0.62151 0.0
O181 O 0.46 0.6694 0.62207 0.0
O182 O 0.8627 0.42791 0.54346 0.0
Cd183 Cd 0.84829 0.46088 0.54604 0.0
Cd184 Cd 0.83067 0.43867 0.59179 0.0
O185 O 0.85855 0.41589 0.584 0.0
O186 O 0.86612 0.47688 0.51787 0.0
O187 O 0.87077 0.48554 0.55952 0.0
C188 C 0.87779 0.4878 0.53571 0.0
C189 C 0.81756 0.44301 0.63485 0.0
C190 C 0.86754 0.4134 0.56149 0.0
C191 C 0.79774 0.45137 0.54609 0.0
O192 O 0.80232 0.43947 0.56647 0.0
O193 O 0.81351 0.46403 0.53542 0.0
O194 O 0.81556 0.42338 0.62245 0.0
O195 O 0.82834 0.46016 0.62331 0.0
O196 O 0.06792 0.85585 0.53669 0.0
Cd197 Cd 0.0342 0.84401 0.54191 0.0
Cd198 Cd 0.05689 0.8252 0.58646 0.0
O199 O 0.08145 0.851 0.57653 0.0
O200 O 0.01739 0.86313 0.51541 0.0
O201 O 0.01205 0.86777 0.55775 0.0
C202 C 0.00839 0.87511 0.53427 0.0
C203 C 0.05366 0.81404 0.63028 0.0
C204 C 0.08365 0.85955 0.55377 0.0
C205 C 0.03936 0.79284 0.54227 0.0
O206 O 0.05229 0.79645 0.56213 0.0
O207 O 0.02795 0.80961 0.53178 0.0
O208 O 0.07238 0.80984 0.61688 0.0
O209 O 0.03684 0.82569 0.61917 0.0
O210 O 0.63426 0.0692 0.54326 0.0
Cd211 Cd 0.64908 0.03638 0.54522 0.0
Cd212 Cd 0.66694 0.05853 0.59139 0.0
O213 O 0.63924 0.08152 0.5836 0.0
O214 O 0.63129 0.02044 0.51693 0.0
O215 O 0.62709 0.01116 0.55848 0.0
C216 C 0.61998 0.00903 0.53468 0.0
C217 C 0.68011 0.0543 0.63447 0.0
C218 C 0.62985 0.08388 0.56127 0.0
C219 C 0.69973 0.04606 0.54539 0.0
O220 O 0.69527 0.05756 0.56608 0.0
O221 O 0.68386 0.03375 0.53439 0.0
O222 O 0.6822 0.07385 0.62195 0.0
O223 O 0.66921 0.03716 0.62304 0.0
C224 C 0.53606 0.22938 0.00105 0.0
C225 C 0.53441 0.2274 0.02825 0.0
C226 C 0.54243 0.25093 0.98965 0.0
C227 C 0.57731 0.30253 0.00847 0.0
H228 H 0.5587 0.32871 0.94178 0.0
C229 C 0.61071 0.39234 0.97612 0.0
C230 C 0.62021 0.39424 0.95092 0.0
C231 C 0.59782 0.37251 0.9834 0.0
C232 C 0.56414 0.32141 0.96033 0.0
H233 H 0.53535 0.2467 0.06464 0.0
H234 H 0.54542 0.2844 0.04479 0.0
H235 H 0.53826 0.29369 0.95885 0.0
H236 H 0.62278 0.37712 0.91324 0.0
H237 H 0.60018 0.34202 0.92624 0.0
H238 H 0.60313 0.32992 0.0101 0.0
C239 C 0.54277 0.26924 0.03227 0.0
C240 C 0.55243 0.30147 0.97012 0.0
C241 C 0.53681 0.24772 0.04364 0.0
C242 C 0.61581 0.37609 0.93285 0.0
C243 C 0.60279 0.35611 0.94021 0.0
C244 C 0.58886 0.32234 0.9988 0.0
C245 C 0.54695 0.27078 0.00534 0.0
C246 C 0.55874 0.29203 0.99449 0.0
C247 C 0.59408 0.35399 0.96574 0.0
C248 C 0.58225 0.33218 0.97482 0.0
H249 H 0.53439 0.21391 0.98878 0.0
H250 H 0.54547 0.25156 0.96884 0.0
H251 H 0.5832 0.29525 0.02686 0.0
H252 H 0.61342 0.40608 0.99048 0.0
H253 H 0.59095 0.37155 0.00307 0.0
C254 C 0.1067 0.61639 0.97886 0.0
C255 C 0.10394 0.62376 0.9529 0.0
C256 C 0.12692 0.60436 0.98666 0.0
C257 C 0.17684 0.56851 0.96538 0.0
H258 H 0.20602 0.59353 0.02788 0.0
C259 C 0.26901 0.54005 0.00551 0.0
C260 C 0.27193 0.54081 0.03267 0.0
C261 C 0.24755 0.54696 0.99426 0.0
C262 C 0.19792 0.58601 0.01066 0.0
H263 H 0.12 0.6235 0.91454 0.0
H264 H 0.15568 0.60226 0.92841 0.0
H265 H 0.17097 0.61236 0.01044 0.0
H266 H 0.25424 0.54695 0.06945 0.0
H267 H 0.21666 0.55799 0.05 0.0
H268 H 0.20391 0.54195 0.96586 0.0
C269 C 0.14198 0.60593 0.94257 0.0
C270 C 0.17791 0.59694 1.00058 0.0
C271 C 0.12167 0.61818 0.93471 0.0
C272 C 0.25254 0.54654 0.04843 0.0
C273 C 0.23109 0.55305 0.03727 0.0
C274 C 0.19693 0.5574 0.97562 0.0
C275 C 0.1449 0.5993 0.96874 0.0
C276 C 0.16698 0.58816 0.97806 0.0
C277 C 0.22869 0.55446 0.01006 0.0
C278 C 0.20748 0.56588 0.99861 0.0
H279 H 0.09336 0.62016 0.9934 0.0
H280 H 0.12856 0.59914 0.00688 0.0
H281 H 0.16867 0.5614 0.948 0.0
H282 H 0.28375 0.53577 0.99293 0.0
H283 H 0.24628 0.54783 0.97325 0.0
C284 C 0.89101 0.10335 0.97402 0.0
C285 C 0.88026 0.10233 0.94937 0.0
C286 C 0.90442 0.12284 0.98128 0.0
C287 C 0.93688 0.17489 0.95849 0.0
H288 H 0.91961 0.19937 0.02637 0.0
C289 C 0.96366 0.26715 0.99889 0.0
C290 C 0.96557 0.26935 0.02605 0.0
C291 C 0.95784 0.24536 0.98774 0.0
C292 C 0.92507 0.19255 0.00762 0.0
H293 H 0.87611 0.1206 0.91253 0.0
H294 H 0.89961 0.15511 0.92551 0.0
H295 H 0.89993 0.16456 0.00971 0.0
H296 H 0.96568 0.25029 0.06259 0.0
H297 H 0.95671 0.21212 0.04314 0.0
H298 H 0.96205 0.2032 0.95652 0.0
C299 C 0.89758 0.14059 0.93906 0.0
C300 C 0.91364 0.17265 0.99799 0.0
C301 C 0.88404 0.12094 0.93171 0.0
C302 C 0.96401 0.24907 0.04161 0.0
C303 C 0.95866 0.22729 0.03047 0.0
C304 C 0.9485 0.19489 0.96824 0.0
C305 C 0.90744 0.14188 0.96414 0.0
C306 C 0.9195 0.16348 0.97346 0.0
C307 C 0.95415 0.22545 0.00361 0.0
C308 C 0.94282 0.20381 0.99305 0.0
H309 H 0.88883 0.08919 0.988 0.0
H310 H 0.91218 0.12317 1.00057 0.0
H311 H 0.94174 0.16811 0.93951 0.0
H312 H 0.96467 0.2826 0.98649 0.0
H313 H 0.95452 0.24456 0.96699 0.0
C314 C 0.37589 0.87656 0.93487 0.0
C315 C 0.3929 0.87034 0.95364 0.0
C316 C 0.3553 0.88858 0.94226 0.0
C317 C 0.31727 0.89647 0.99898 0.0
H318 H 0.29405 0.95333 0.96555 0.0
C319 C 0.24459 0.94902 0.04732 0.0
C320 C 0.22538 0.95553 0.03164 0.0
C321 C 0.26578 0.94187 0.03607 0.0
C322 C 0.30025 0.93736 0.97491 0.0
H323 H 0.40178 0.87234 0.99476 0.0
H324 H 0.36611 0.89296 0.00742 0.0
H325 H 0.32912 0.93326 0.94809 0.0
H326 H 0.21374 0.96139 0.99196 0.0
H327 H 0.25086 0.94834 0.97212 0.0
H328 H 0.28865 0.90013 0.0256 0.0
C329 C 0.36855 0.88845 0.98709 0.0
C330 C 0.32022 0.92588 0.9649 0.0
C331 C 0.38904 0.87667 0.97977 0.0
C332 C 0.22834 0.9565 0.00449 0.0
C333 C 0.24956 0.94901 0.99314 0.0
C334 C 0.29741 0.90779 0.00885 0.0
C335 C 0.35135 0.8943 0.96853 0.0
C336 C 0.32913 0.90558 0.9772 0.0
C337 C 0.26812 0.94068 0.00885 0.0
C338 C 0.28892 0.92863 0.99731 0.0
H339 H 0.37842 0.87204 0.91457 0.0
H340 H 0.34223 0.89287 0.9276 0.0
H341 H 0.32346 0.88056 0.0085 0.0
H342 H 0.24288 0.94843 0.06833 0.0
H343 H 0.28003 0.93625 0.04872 0.0
C344 C 0.52905 0.24963 0.46283 0.0
C345 C 0.52921 0.27038 0.4777 0.0
C346 C 0.53396 0.22794 0.47445 0.0
C347 C 0.54635 0.19713 0.53731 0.0
H348 H 0.591 0.16332 0.49383 0.0
C349 C 0.61148 0.12319 0.57241 0.0
C350 C 0.61379 0.10381 0.55547 0.0
C351 C 0.59762 0.14267 0.56526 0.0
C352 C 0.57836 0.17238 0.50613 0.0
H353 H 0.5327 0.28469 0.51662 0.0
H354 H 0.54214 0.24683 0.53688 0.0
H355 H 0.5716 0.19817 0.47695 0.0
H356 H 0.60209 0.08903 0.5186 0.0
H357 H 0.57818 0.12271 0.50637 0.0
H358 H 0.55405 0.17132 0.56683 0.0
C359 C 0.53778 0.24716 0.51636 0.0
C360 C 0.56707 0.19231 0.4964 0.0
C361 C 0.53236 0.26887 0.50477 0.0
C362 C 0.6011 0.10381 0.53194 0.0
C363 C 0.58735 0.12312 0.52488 0.0
C364 C 0.55786 0.17711 0.54717 0.0
C365 C 0.53977 0.22666 0.50105 0.0
C366 C 0.55077 0.20487 0.51171 0.0
C367 C 0.58594 0.14299 0.5411 0.0
C368 C 0.57383 0.16448 0.53153 0.0
H369 H 0.52643 0.25034 0.44195 0.0
H370 H 0.53457 0.21235 0.46224 0.0
H371 H 0.53392 0.20643 0.54962 0.0
H372 H 0.62095 0.12364 0.59072 0.0
H373 H 0.59684 0.15783 0.57809 0.0
C374 C 0.37439 0.61239 0.56925 0.0
C375 C 0.39343 0.6161 0.55212 0.0
C376 C 0.3546 0.59942 0.56115 0.0
C377 C 0.32293 0.58654 0.50143 0.0
H378 H 0.29117 0.53649 0.53923 0.0
C379 C 0.24624 0.53909 0.4537 0.0
C380 C 0.22602 0.5357 0.469 0.0
C381 C 0.26781 0.5445 0.46532 0.0
C382 C 0.29977 0.55055 0.52855 0.0
H383 H 0.4072 0.60785 0.51368 0.0
H384 H 0.37289 0.58557 0.49975 0.0
H385 H 0.32646 0.55517 0.55792 0.0
H386 H 0.21265 0.53376 0.50846 0.0
H387 H 0.25026 0.5441 0.52888 0.0
H388 H 0.29628 0.5828 0.47251 0.0
C389 C 0.37308 0.5929 0.51924 0.0
C390 C 0.31991 0.5612 0.53925 0.0
C391 C 0.39274 0.6057 0.52728 0.0
C392 C 0.22806 0.5362 0.49625 0.0
C393 C 0.24962 0.54211 0.50792 0.0
C394 C 0.30283 0.57614 0.49091 0.0
C395 C 0.35359 0.59011 0.53581 0.0
C396 C 0.33179 0.5791 0.52557 0.0
C397 C 0.2695 0.54726 0.49249 0.0
C398 C 0.29112 0.55781 0.50411 0.0
H399 H 0.37446 0.62007 0.58857 0.0
H400 H 0.33973 0.59752 0.57426 0.0
H401 H 0.33146 0.60066 0.49073 0.0
H402 H 0.24517 0.5385 0.43264 0.0
H403 H 0.28296 0.54756 0.45289 0.0
C404 C 0.88646 0.37434 0.57257 0.0
C405 C 0.88376 0.39364 0.55558 0.0
C406 C 0.90058 0.35506 0.5654 0.0
C407 C 0.92035 0.3256 0.50621 0.0
H408 H 0.96478 0.29194 0.55006 0.0
C409 C 0.96998 0.24837 0.46348 0.0
C410 C 0.96961 0.22765 0.47842 0.0
C411 C 0.96516 0.27012 0.47499 0.0
C412 C 0.95237 0.30114 0.53764 0.0
H413 H 0.89503 0.4085 0.51859 0.0
H414 H 0.91944 0.37518 0.50634 0.0
H415 H 0.94428 0.3269 0.56708 0.0
H416 H 0.9659 0.2135 0.51739 0.0
H417 H 0.95662 0.25148 0.53745 0.0
H418 H 0.92749 0.29986 0.47711 0.0
C419 C 0.91035 0.37466 0.5249 0.0
C420 C 0.94064 0.32108 0.5474 0.0
C421 C 0.89631 0.39376 0.53196 0.0
C422 C 0.9664 0.22928 0.50548 0.0
C423 C 0.96107 0.25106 0.51696 0.0
C424 C 0.93187 0.30577 0.49657 0.0
C425 C 0.91217 0.35486 0.54118 0.0
C426 C 0.92463 0.33355 0.53165 0.0
C427 C 0.95923 0.27152 0.50155 0.0
C428 C 0.94815 0.29334 0.51203 0.0
H429 H 0.87711 0.37381 0.59096 0.0
H430 H 0.90167 0.33996 0.57828 0.0
H431 H 0.90769 0.33452 0.49381 0.0
H432 H 0.97266 0.24757 0.4426 0.0
H433 H 0.96467 0.28567 0.46272 0.0
C434 C 0.10599 0.88338 0.52127 0.0
C435 C 0.10445 0.874 0.54656 0.0
C436 C 0.12565 0.89637 0.51362 0.0
C437 C 0.17633 0.931 0.53584 0.0
H438 H 0.20254 0.91187 0.46936 0.0
C439 C 0.26754 0.96106 0.49491 0.0
C440 C 0.26974 0.96224 0.46769 0.0
C441 C 0.2461 0.95421 0.50622 0.0
C442 C 0.19524 0.9178 0.48772 0.0
H443 H 0.12212 0.87166 0.58396 0.0
H444 H 0.15687 0.8945 0.57032 0.0
H445 H 0.16829 0.89148 0.48651 0.0
H446 H 0.25086 0.95987 0.43112 0.0
H447 H 0.21327 0.94904 0.4508 0.0
H448 H 0.20351 0.95744 0.53688 0.0
C449 C 0.14263 0.8917 0.55658 0.0
C450 C 0.17568 0.90597 0.49762 0.0
C451 C 0.12285 0.87853 0.5643 0.0
C452 C 0.24967 0.95881 0.45214 0.0
C453 C 0.22823 0.95238 0.46343 0.0
C454 C 0.19598 0.94301 0.5258 0.0
C455 C 0.14433 0.90038 0.531 0.0
C456 C 0.16585 0.91256 0.52162 0.0
C457 C 0.22654 0.94873 0.49045 0.0
C458 C 0.20547 0.93668 0.50145 0.0
H459 H 0.09208 0.88052 0.50713 0.0
H460 H 0.12631 0.90318 0.49391 0.0
H461 H 0.16902 0.93644 0.55438 0.0
H462 H 0.28282 0.96352 0.50732 0.0
H463 H 0.2454 0.9516 0.52709 0.0
C464 C 0.46153 0.76663 0.99634 0.0
C465 C 0.46199 0.76925 0.96914 0.0
C466 C 0.45545 0.74489 0.00745 0.0
C467 C 0.42003 0.69324 0.98909 0.0
H468 H 0.44063 0.66708 0.05508 0.0
C469 C 0.38756 0.60347 0.02295 0.0
C470 C 0.37828 0.602 0.04829 0.0
C471 C 0.4005 0.62311 0.01517 0.0
C472 C 0.43467 0.67435 0.03671 0.0
H473 H 0.45912 0.75088 0.9323 0.0
H474 H 0.44965 0.71278 0.95159 0.0
H475 H 0.46042 0.70218 0.03738 0.0
H476 H 0.37624 0.61965 0.08571 0.0
H477 H 0.39897 0.65439 0.07185 0.0
H478 H 0.39438 0.66564 0.98827 0.0
C479 C 0.45293 0.72762 0.96439 0.0
C480 C 0.44598 0.69436 0.02656 0.0
C481 C 0.45856 0.74937 0.95333 0.0
C482 C 0.38302 0.62034 0.06601 0.0
C483 C 0.39612 0.64012 0.05816 0.0
C484 C 0.40892 0.67331 0.99909 0.0
C485 C 0.45005 0.72543 0.99149 0.0
C486 C 0.43888 0.70389 0.00249 0.0
C487 C 0.40454 0.64183 0.03248 0.0
C488 C 0.4162 0.66353 0.02286 0.0
H489 H 0.46403 0.78176 0.00895 0.0
H490 H 0.4534 0.74382 0.02838 0.0
H491 H 0.41351 0.70052 0.97096 0.0
H492 H 0.38458 0.58957 0.00884 0.0
H493 H 0.40713 0.6238 0.99539 0.0
C494 C 0.74516 0.45097 0.95164 0.0
C495 C 0.72576 0.45627 0.96757 0.0
C496 C 0.76647 0.44377 0.9626 0.0
C497 C 0.80042 0.43631 0.0239 0.0
H498 H 0.82446 0.38157 0.98702 0.0
C499 C 0.87512 0.37347 0.06194 0.0
C500 C 0.89258 0.36822 0.04332 0.0
C501 C 0.85469 0.38583 0.0547 0.0
C502 C 0.81805 0.39691 0.99746 0.0
H503 H 0.71384 0.45999 0.00746 0.0
H504 H 0.75111 0.44679 0.02674 0.0
H505 H 0.78995 0.40201 0.97047 0.0
H506 H 0.90239 0.37221 0.00263 0.0
H507 H 0.86701 0.39342 0.99022 0.0
H508 H 0.82873 0.43071 0.05111 0.0
C509 C 0.74992 0.44848 0.00577 0.0
C510 C 0.79836 0.40875 0.9879 0.0
C511 C 0.7286 0.45606 0.99475 0.0
C512 C 0.88929 0.37577 0.01749 0.0
C513 C 0.86896 0.3879 0.01031 0.0
C514 C 0.82022 0.42431 0.03359 0.0
C515 C 0.76871 0.44126 0.98972 0.0
C516 C 0.78954 0.42884 0.00069 0.0
C517 C 0.85136 0.39289 0.02872 0.0
C518 C 0.8294 0.40473 0.02015 0.0
H519 H 0.74352 0.45131 0.93062 0.0
H520 H 0.78088 0.43905 0.94973 0.0
H521 H 0.79397 0.45168 0.03422 0.0
H522 H 0.87721 0.36802 0.08202 0.0
H523 H 0.8413 0.38942 0.06923 0.0
C524 C 0.04214 0.74665 0.95199 0.0
C525 C 0.03771 0.7269 0.9677 0.0
C526 C 0.0479 0.76828 0.96321 0.0
C527 C 0.05294 0.80184 0.0253 0.0
H528 H 0.10618 0.82976 0.98906 0.0
C529 C 0.11448 0.87682 0.06571 0.0
C530 C 0.11951 0.89488 0.04773 0.0
C531 C 0.10178 0.85677 0.05789 0.0
C532 C 0.09121 0.82228 0.9993 0.0
H533 H 0.03408 0.71455 0.00743 0.0
H534 H 0.04491 0.75233 0.02718 0.0
H535 H 0.08762 0.79465 0.9715 0.0
H536 H 0.11413 0.90653 0.00783 0.0
H537 H 0.09232 0.8718 0.99443 0.0
H538 H 0.05723 0.8296 0.05349 0.0
C539 C 0.04356 0.75121 0.00619 0.0
C540 C 0.08043 0.80224 0.98915 0.0
C541 C 0.03737 0.72958 0.9949 0.0
C542 C 0.11091 0.89286 0.02215 0.0
C543 C 0.09839 0.87294 0.0144 0.0
C544 C 0.06392 0.82197 0.03561 0.0
C545 C 0.04989 0.7705 0.9904 0.0
C546 C 0.06094 0.79194 0.00175 0.0
C547 C 0.09409 0.8545 0.03199 0.0
C548 C 0.08295 0.83252 0.02244 0.0
H549 H 0.0422 0.7451 0.93096 0.0
H550 H 0.05191 0.78301 0.9505 0.0
H551 H 0.038 0.79428 0.03549 0.0
H552 H 0.12074 0.87794 0.08559 0.0
H553 H 0.0987 0.84272 0.07179 0.0
C554 C 0.60987 0.12206 0.02177 0.0
C555 C 0.60611 0.12897 0.04773 0.0
C556 C 0.63056 0.11058 0.01457 0.0
C557 C 0.67937 0.07424 0.03668 0.0
H558 H 0.71033 0.09993 0.97556 0.0
C559 C 0.77044 0.04292 0.99542 0.0
C560 C 0.77296 0.04384 0.96821 0.0
C561 C 0.74951 0.05066 0.00718 0.0
C562 C 0.70175 0.0923 0.99243 0.0
H563 H 0.62098 0.12864 0.08666 0.0
H564 H 0.65753 0.10824 0.07384 0.0
H565 H 0.67568 0.11953 0.99308 0.0
H566 H 0.75494 0.05115 0.93187 0.0
H567 H 0.71828 0.06378 0.95223 0.0
H568 H 0.70546 0.04671 0.03565 0.0
C569 C 0.64423 0.1119 0.05923 0.0
C570 C 0.68202 0.10365 0.00257 0.0
C571 C 0.62344 0.12367 0.06648 0.0
C572 C 0.75358 0.0506 0.95291 0.0
C573 C 0.73267 0.058 0.96459 0.0
C574 C 0.69921 0.06272 0.0264 0.0
C575 C 0.64804 0.10558 0.0331 0.0
C576 C 0.67036 0.09453 0.02446 0.0
C577 C 0.73079 0.05921 0.99185 0.0
C578 C 0.71029 0.07141 0.00382 0.0
H579 H 0.59691 0.12571 0.00678 0.0
H580 H 0.63293 0.10562 0.99435 0.0
H581 H 0.6706 0.06686 0.05357 0.0
H582 H 0.78517 0.03783 0.00766 0.0
H583 H 0.74856 0.05132 0.02823 0.0
C584 C 0.45216 0.7271 0.50628 0.0
C585 C 0.44854 0.72425 0.53319 0.0
C586 C 0.44442 0.74764 0.49369 0.0
C587 C 0.39866 0.79254 0.50268 0.0
H588 H 0.43092 0.82828 0.44895 0.0
C589 C 0.37091 0.88562 0.47649 0.0
C590 C 0.3675 0.8913 0.45012 0.0
C591 C 0.38153 0.86446 0.48358 0.0
C592 C 0.42164 0.81819 0.46366 0.0
H593 H 0.43614 0.7414 0.56837 0.0
H594 H 0.42324 0.77725 0.54662 0.0
H595 H 0.44995 0.79319 0.46783 0.0
H596 H 0.37308 0.87937 0.41046 0.0
H597 H 0.39205 0.84201 0.42311 0.0
H598 H 0.37066 0.81758 0.49909 0.0
C599 C 0.4313 0.76341 0.53507 0.0
C600 C 0.43251 0.79823 0.47449 0.0
C601 C 0.43882 0.74295 0.54755 0.0
C602 C 0.37535 0.8754 0.43093 0.0
C603 C 0.38629 0.85416 0.43811 0.0
C604 C 0.38792 0.81237 0.492 0.0
C605 C 0.43307 0.76556 0.50789 0.0
C606 C 0.42134 0.78562 0.49462 0.0
C607 C 0.38916 0.84844 0.46454 0.0
C608 C 0.39952 0.82573 0.47289 0.0
H609 H 0.4596 0.71293 0.49474 0.0
H610 H 0.44608 0.74888 0.47272 0.0
H611 H 0.38929 0.78276 0.51758 0.0
H612 H 0.36517 0.89743 0.49182 0.0
H613 H 0.38382 0.8606 0.5041 0.0
C614 C 0.77194 0.44933 0.50647 0.0
C615 C 0.77448 0.44818 0.53367 0.0
C616 C 0.75115 0.44129 0.49461 0.0
C617 C 0.70417 0.39862 0.50866 0.0
H618 H 0.67141 0.42543 0.4493 0.0
C619 C 0.61127 0.37023 0.48176 0.0
C620 C 0.60652 0.36415 0.45575 0.0
C621 C 0.63242 0.38108 0.4885 0.0
C622 C 0.68065 0.41765 0.46565 0.0
H623 H 0.75661 0.44007 0.56991 0.0
H624 H 0.72026 0.42683 0.54938 0.0
H625 H 0.70655 0.44537 0.46686 0.0
H626 H 0.62016 0.36515 0.41629 0.0
H627 H 0.65753 0.38448 0.4283 0.0
H628 H 0.67824 0.37125 0.50792 0.0
C629 C 0.73452 0.43305 0.5371 0.0
C630 C 0.70065 0.42905 0.47573 0.0
C631 C 0.75526 0.44079 0.54887 0.0
C632 C 0.6234 0.36949 0.43651 0.0
C633 C 0.64465 0.38066 0.44331 0.0
C634 C 0.68428 0.38738 0.49873 0.0
C635 C 0.73263 0.43218 0.50983 0.0
C636 C 0.71224 0.4199 0.49775 0.0
C637 C 0.64938 0.38628 0.46945 0.0
C638 C 0.67202 0.39701 0.47752 0.0
H639 H 0.78653 0.45493 0.49431 0.0
H640 H 0.75016 0.44091 0.47355 0.0
H641 H 0.71315 0.39069 0.52511 0.0
H642 H 0.59869 0.36648 0.4971 0.0
H643 H 0.63551 0.3855 0.50875 0.0
C644 C 0.11906 0.62022 0.43258 0.0
C645 C 0.12258 0.60162 0.45033 0.0
C646 C 0.10646 0.64042 0.44009 0.0
C647 C 0.09367 0.67395 0.49867 0.0
H648 H 0.04243 0.70344 0.46054 0.0
C649 C 0.04385 0.74935 0.54541 0.0
C650 C 0.04009 0.76939 0.52995 0.0
C651 C 0.04978 0.72786 0.53397 0.0
C652 C 0.05682 0.69548 0.47129 0.0
H653 H 0.11463 0.58924 0.48944 0.0
H654 H 0.09304 0.62424 0.50233 0.0
H655 H 0.06192 0.66824 0.44264 0.0
H656 H 0.03791 0.78248 0.49039 0.0
H657 H 0.04914 0.74498 0.47027 0.0
H658 H 0.08932 0.70106 0.52696 0.0
C659 C 0.10019 0.62338 0.48278 0.0
C660 C 0.06796 0.67541 0.46102 0.0
C661 C 0.1126 0.60331 0.47533 0.0
C662 C 0.04065 0.7672 0.50271 0.0
C663 C 0.04708 0.74573 0.49122 0.0
C664 C 0.08276 0.69394 0.50877 0.0
C665 C 0.09737 0.6423 0.46547 0.0
C666 C 0.08625 0.66433 0.47489 0.0
C667 C 0.0527 0.72611 0.50683 0.0
C668 C 0.06395 0.70477 0.49547 0.0
H669 H 0.1264 0.61937 0.41312 0.0
H670 H 0.10452 0.65486 0.42642 0.0
H671 H 0.10806 0.66602 0.50949 0.0
H672 H 0.04321 0.75055 0.56646 0.0
H673 H 0.05321 0.71288 0.54651 0.0
C674 C 0.72558 0.04893 0.50589 0.0
C675 C 0.72305 0.04928 0.53311 0.0
C676 C 0.74651 0.05701 0.49434 0.0
C677 C 0.79434 0.09833 0.51006 0.0
H678 H 0.82618 0.07314 0.44925 0.0
C679 C 0.8873 0.12675 0.48298 0.0
C680 C 0.89177 0.13355 0.45713 0.0
C681 C 0.86616 0.11584 0.48967 0.0
C682 C 0.81722 0.08047 0.46604 0.0
H683 H 0.741 0.05599 0.56963 0.0
H684 H 0.77759 0.06926 0.54964 0.0
H685 H 0.79084 0.05319 0.46626 0.0
H686 H 0.87763 0.13375 0.41786 0.0
H687 H 0.8403 0.11432 0.42975 0.0
H688 H 0.82073 0.12527 0.51026 0.0
C689 C 0.76324 0.06366 0.53712 0.0
C690 C 0.79709 0.06906 0.4758 0.0
C691 C 0.74236 0.0559 0.54859 0.0
C692 C 0.87462 0.12884 0.43798 0.0
C693 C 0.85339 0.11762 0.4447 0.0
C694 C 0.81436 0.10958 0.50045 0.0
C695 C 0.76517 0.06534 0.5099 0.0
C696 C 0.78579 0.07763 0.49828 0.0
C697 C 0.84893 0.1113 0.47069 0.0
C698 C 0.82627 0.10052 0.4787 0.0
H699 H 0.71091 0.04395 0.49352 0.0
H700 H 0.74751 0.05804 0.47331 0.0
H701 H 0.7856 0.10585 0.5269 0.0
H702 H 0.9001 0.13 0.49825 0.0
H703 H 0.86328 0.11087 0.5098 0.0
C704 C 0.49901 0.91749 0.95387 0.0
C705 C 0.49763 0.90036 0.9736 0.0
C706 C 0.50139 0.9414 0.96024 0.0
C707 C 0.48673 0.98146 0.01416 0.0
H708 H 0.522 0.02758 0.97424 0.0
C709 C 0.49921 0.07898 0.04562 0.0
C710 C 0.5008 0.09608 0.02588 0.0
C711 C 0.49686 0.05507 0.03925 0.0
C712 C 0.51176 0.01495 0.98535 0.0
H713 H 0.49992 0.89459 0.01528 0.0
H714 H 0.5046 0.93614 0.02629 0.0
H715 H 0.52515 0.98582 0.96324 0.0
H716 H 0.4989 0.10183 0.98417 0.0
H717 H 0.4942 0.06028 0.97316 0.0
H718 H 0.47331 0.01059 0.03625 0.0
C719 C 0.50314 0.93122 0.00597 0.0
C720 C 0.51368 0.99102 0.97912 0.0
C721 C 0.50071 0.90738 0.99963 0.0
C722 C 0.49795 0.08904 0.99983 0.0
C723 C 0.49551 0.06521 0.99349 0.0
C724 C 0.48479 0.0054 0.02039 0.0
C725 C 0.50252 0.94857 0.98643 0.0
C726 C 0.50122 0.97399 0.99348 0.0
C727 C 0.49594 0.04787 0.01305 0.0
C728 C 0.49725 0.02244 0.00603 0.0
H729 H 0.49658 0.91267 0.93364 0.0
H730 H 0.50086 0.95432 0.94471 0.0
H731 H 0.4765 0.96883 0.02528 0.0
H732 H 0.50146 0.08383 0.06586 0.0
H733 H 0.49724 0.04216 0.0548 0.0
C734 C 0.41822 0.49585 0.04865 0.0
C735 C 0.40116 0.4974 0.02886 0.0
C736 C 0.44216 0.49354 0.04237 0.0
C737 C 0.48421 0.48132 0.98835 0.0
H738 H 0.52409 0.52591 0.02519 0.0
C739 C 0.57885 0.49976 0.95388 0.0
C740 C 0.5961 0.49811 0.97346 0.0
C741 C 0.55494 0.50173 0.96045 0.0
C742 C 0.51323 0.51328 0.01482 0.0
H743 H 0.39556 0.49543 0.98713 0.0
H744 H 0.43712 0.49133 0.97624 0.0
H745 H 0.48292 0.52118 0.0381 0.0
H746 H 0.60206 0.49952 0.01515 0.0
H747 H 0.56053 0.5031 0.02656 0.0
H748 H 0.51451 0.47347 0.96503 0.0
C749 C 0.43216 0.492 0.99659 0.0
C750 C 0.48967 0.51042 0.02234 0.0
C751 C 0.40828 0.49436 0.00285 0.0
C752 C 0.58918 0.50067 0.9996 0.0
C753 C 0.56534 0.50273 0.00615 0.0
C754 C 0.50776 0.48419 0.98082 0.0
C755 C 0.44945 0.4926 0.0162 0.0
C756 C 0.47487 0.49441 0.00919 0.0
C757 C 0.54788 0.50225 0.98671 0.0
C758 C 0.52254 0.50024 0.99393 0.0
H759 H 0.41332 0.49811 0.06889 0.0
H760 H 0.45504 0.49351 0.05796 0.0
H761 H 0.47335 0.46869 0.97797 0.0
H762 H 0.58358 0.49783 0.93355 0.0
H763 H 0.54192 0.50184 0.94501 0.0
C764 C 0.99719 0.57964 0.95167 0.0
C765 C 0.99827 0.59687 0.97131 0.0
C766 C 0.99461 0.55578 0.95815 0.0
C767 C 0.0086 0.51622 0.01269 0.0
H768 H 0.97503 0.46941 0.97199 0.0
C769 C 0.99771 0.41838 0.04371 0.0
C770 C 0.99699 0.40129 0.02389 0.0
C771 C -0.00042 0.44236 0.03748 0.0
C772 C 0.98479 0.48224 0.98334 0.0
H773 H 0.99508 0.60292 0.01287 0.0
H774 H 0.99002 0.56144 0.02406 0.0
H775 H 0.97128 0.51109 0.96086 0.0
H776 H -6e-05 0.39572 0.98223 0.0
H777 H 0.00377 0.4374 0.97146 0.0
H778 H 0.02215 0.48737 0.03513 0.0
C779 C 0.9919 0.56624 0.00375 0.0
C780 C 0.98252 0.50613 0.97703 0.0
C781 C 0.99454 0.59003 0.9973 0.0
C782 C 0.00022 0.40848 0.99794 0.0
C783 C 0.00215 0.43239 0.99173 0.0
C784 C 0.01087 0.49233 0.019 0.0
C785 C 0.99297 0.54877 0.98437 0.0
C786 C 0.9944 0.52341 0.99163 0.0
C787 C 0.00085 0.44965 0.01132 0.0
C788 C -0.00094 0.47505 0.00435 0.0
H789 H 0.0001 0.58432 0.93148 0.0
H790 H 0.99549 0.54276 0.94274 0.0
H791 H 0.01839 0.52905 0.02402 0.0
H792 H 0.99515 0.41342 0.06388 0.0
H793 H -0.00147 0.45521 0.05304 0.0
C794 C 0.08908 0.00203 0.00144 0.0
C795 C 0.09619 -0.0008 0.02748 0.0
C796 C 0.06519 0.00419 0.99512 0.0
C797 C 0.00775 0.98558 0.02092 0.0
H798 H 0.98275 0.02218 0.96342 0.0
C799 C 0.90823 0.99542 0.99842 0.0
C800 C 0.90125 0.99803 0.97231 0.0
C801 C 0.93208 0.99316 0.00489 0.0
C802 C 0.98955 0.01154 0.97927 0.0
H803 H 0.08399 -0.00136 0.06749 0.0
H804 H 0.04225 0.00289 0.05648 0.0
H805 H 0.02389 0.02716 0.97631 0.0
H806 H 0.91363 0.99808 0.93235 0.0
H807 H 0.95529 0.99371 0.94364 0.0
H808 H 0.97338 0.96999 0.0239 0.0
C809 C 0.05515 0.00285 0.0409 0.0
C810 C 0.01309 0.01454 0.98677 0.0
C811 C 0.0791 0.00075 0.04724 0.0
C812 C 0.91841 0.99613 0.95266 0.0
C813 C 0.94232 0.99396 0.95914 0.0
C814 C 0.9842 0.98259 0.01344 0.0
C815 C 0.04788 0.00358 0.01472 0.0
C816 C 0.02248 0.00159 0.00769 0.0
C817 C 0.94946 0.99348 0.98537 0.0
C818 C 0.97483 0.99551 0.99249 0.0
H819 H 0.10183 0.00096 0.98574 0.0
H820 H 0.06025 0.00471 0.97476 0.0
H821 H 0.01455 0.97493 0.03676 0.0
H822 H 0.89542 0.99676 0.01403 0.0
H823 H 0.93695 0.99282 0.02528 0.0
C824 C 0.50391 0.59229 0.50397 0.0
C825 C 0.50043 0.59872 0.53013 0.0
C826 C 0.5075 0.5687 0.49718 0.0
C827 C 0.51935 0.50863 0.52301 0.0
H828 H 0.47824 0.48922 0.46644 0.0
C829 C 0.50107 0.41077 0.50369 0.0
C830 C 0.5033 0.40327 0.47772 0.0
C831 C 0.49963 0.43476 0.50965 0.0
C832 C 0.48996 0.49436 0.48211 0.0
H833 H 0.50026 0.58579 0.56986 0.0
H834 H 0.50651 0.5446 0.55801 0.0
H835 H 0.4817 0.53094 0.47738 0.0
H836 H 0.50399 0.41494 0.43752 0.0
H837 H 0.50145 0.45691 0.44794 0.0
H838 H 0.52747 0.47201 0.52784 0.0
C839 C 0.50645 0.55776 0.54272 0.0
C840 C 0.49207 0.51829 0.48831 0.0
C841 C 0.50293 0.58142 0.54954 0.0
C842 C 0.50219 0.42016 0.45772 0.0
C843 C 0.50081 0.44423 0.4637 0.0
C844 C 0.51724 0.4847 0.51681 0.0
C845 C 0.50766 0.55104 0.51638 0.0
C846 C 0.50673 0.52571 0.5089 0.0
C847 C 0.50043 0.4518 0.48979 0.0
C848 C 0.5024 0.47727 0.49639 0.0
H849 H 0.5023 0.60526 0.48857 0.0
H850 H 0.50903 0.56416 0.47676 0.0
H851 H 0.53095 0.51377 0.5388 0.0
H852 H 0.50167 0.39818 0.51955 0.0
H853 H 0.4987 0.44001 0.52991 0.0
C854 C 0.08878 0.49524 0.49909 0.0
C855 C 0.09569 0.49737 0.4729 0.0
C856 C 0.06494 0.49331 0.5057 0.0
C857 C 0.0072 0.5111 0.47993 0.0
H858 H 0.98282 0.47562 0.53861 0.0
C859 C 0.90794 0.5003 0.50315 0.0
C860 C 0.90109 0.49808 0.52934 0.0
C861 C 0.93172 0.50294 0.49655 0.0
C862 C 0.98945 0.48595 0.52244 0.0
H863 H 0.08317 0.49702 0.43301 0.0
H864 H 0.0415 0.49317 0.44455 0.0
H865 H 0.02392 0.47067 0.52557 0.0
H866 H 0.91354 0.4992 0.56925 0.0
H867 H 0.95508 0.50422 0.55771 0.0
H868 H 0.97267 0.5263 0.47676 0.0
C869 C 0.05452 0.49356 0.45999 0.0
C870 C 0.01297 0.48298 0.51485 0.0
C871 C 0.07843 0.49544 0.45336 0.0
C872 C 0.91824 0.50083 0.54889 0.0
C873 C 0.94207 0.50338 0.54227 0.0
C874 C 0.98367 0.51406 0.48751 0.0
C875 C 0.04747 0.49345 0.48626 0.0
C876 C 0.02212 0.4955 0.49349 0.0
C877 C 0.94915 0.50339 0.51601 0.0
C878 C 0.97452 0.50153 0.50887 0.0
H879 H 0.10166 0.49662 0.51462 0.0
H880 H 0.06017 0.49328 0.52612 0.0
H881 H 0.01382 0.52142 0.46375 0.0
H882 H 0.89513 0.49831 0.48763 0.0
H883 H 0.93653 0.50292 0.47614 0.0
C884 C 0.99462 0.90594 0.50315 0.0
C885 C 0.9984 0.89875 0.52901 0.0
C886 C 0.99174 0.9298 0.49714 0.0
C887 C 0.98156 0.98939 0.5247 0.0
H888 H 0.0217 0.00931 0.46749 0.0
C889 C 0.99826 0.08757 0.50511 0.0
C890 C 0.99575 0.09495 0.47913 0.0
C891 C 0.00018 0.06362 0.51115 0.0
C892 C 0.01025 0.00404 0.48336 0.0
H893 H 1e-05 0.9107 0.56908 0.0
H894 H 0.99491 0.95239 0.55858 0.0
H895 H 0.0183 0.96748 0.47797 0.0
H896 H 0.995 0.08314 0.43899 0.0
H897 H 0.99828 0.04128 0.44952 0.0
H898 H 0.97349 0.02595 0.53009 0.0
C899 C 0.99422 0.93959 0.54293 0.0
C900 C 0.00821 0.98005 0.48931 0.0
C901 C 0.99707 0.91566 0.54897 0.0
C902 C 0.99702 0.07802 0.45919 0.0
C903 C -0.00117 0.054 0.46525 0.0
C904 C 0.98357 0.01338 0.51873 0.0
C905 C 0.99258 0.94698 0.51684 0.0
C906 C 0.99383 0.97244 0.51003 0.0
C907 C -0.00046 0.0465 0.49136 0.0
C908 C 0.99799 0.021 0.49802 0.0
H909 H 0.99535 0.89331 0.48733 0.0
H910 H 0.98988 0.93489 0.47691 0.0
H911 H 0.97021 0.98409 0.54064 0.0
H912 H 0.99755 0.1002 0.52093 0.0
H913 H 0.00134 0.05846 0.53142 0.0
C914 C 0.59001 0.99604 0.50211 0.0
C915 C 0.59697 0.99812 0.52829 0.0
C916 C 0.56631 0.99254 0.49566 0.0
C917 C 0.5082 0.0069 0.52229 0.0
H918 H 0.48467 0.97124 0.46332 0.0
C919 C 0.40898 0.99584 0.4994 0.0
C920 C 0.40193 0.99417 0.47322 0.0
C921 C 0.43284 0.99769 0.50591 0.0
C922 C 0.49104 0.98159 0.4796 0.0
H923 H 0.58487 0.9959 0.56827 0.0
H924 H 0.54348 0.98941 0.55698 0.0
H925 H 0.52608 0.96771 0.47591 0.0
H926 H 0.41428 0.99492 0.43327 0.0
H927 H 0.45602 -0.00135 0.44465 0.0
H928 H 0.47326 0.02095 0.52588 0.0
C929 C 0.55632 0.991 0.54145 0.0
C930 C 0.51473 0.97941 0.48693 0.0
C931 C 0.58009 0.99441 0.54792 0.0
C932 C 0.41913 0.99617 0.45363 0.0
C933 C 0.44307 0.99798 0.46016 0.0
C934 C 0.48454 0.00912 0.51493 0.0
C935 C 0.54906 0.99108 0.51526 0.0
C936 C 0.52358 0.99203 0.50837 0.0
C937 C 0.45023 0.99794 0.48639 0.0
C938 C 0.47567 0.99651 0.49349 0.0
H939 H 0.60262 -0.00124 0.48652 0.0
H940 H 0.56133 0.99266 0.4753 0.0
H941 H 0.51457 0.0173 0.53853 0.0
H942 H 0.39616 0.99437 0.51499 0.0
H943 H 0.4377 0.99755 0.52631 0.0
C944 C 0.53035 0.30408 0.33085 0.0
C945 C 0.54699 0.29607 0.34915 0.0
C946 C 0.52759 0.29232 0.307 0.0
C947 C 0.53737 0.23467 0.27562 0.0
H948 H 0.5404 0.26977 0.21092 0.0
C949 C 0.53061 0.19106 0.17299 0.0
C950 C 0.54855 0.19805 0.15569 0.0
C951 C 0.52754 0.20286 0.19676 0.0
C952 C 0.53939 0.25976 0.22886 0.0
H953 H 0.57373 0.26945 0.35676 0.0
H954 H 0.56876 0.24905 0.31551 0.0
H955 H 0.54002 0.29103 0.25239 0.0
H956 H 0.57733 0.22285 0.14984 0.0
H957 H 0.57184 0.24335 0.19096 0.0
H958 H 0.53728 0.20338 0.2521 0.0
C959 C 0.5578 0.2643 0.31955 0.0
C960 C 0.53899 0.27193 0.25254 0.0
C961 C 0.56078 0.27616 0.34311 0.0
C962 C 0.56337 0.21694 0.16271 0.0
C963 C 0.5601 0.22887 0.18617 0.0
C964 C 0.53747 0.22251 0.25193 0.0
C965 C 0.54114 0.27216 0.30129 0.0
C966 C 0.53857 0.25948 0.27617 0.0
C967 C 0.5421 0.22208 0.20339 0.0
C968 C 0.53907 0.23492 0.22834 0.0
H969 H 0.51943 0.31933 0.33498 0.0
H970 H 0.51462 0.29876 0.29321 0.0
H971 H 0.53681 0.22465 0.29358 0.0
H972 H 0.51888 0.17662 0.1681 0.0
H973 H 0.51353 0.19726 0.20973 0.0
C974 C 0.19656 0.52572 0.32986 0.0
C975 C 0.19291 0.54791 0.34145 0.0
C976 C 0.20895 0.52389 0.30629 0.0
C977 C 0.22774 0.55844 0.24902 0.0
H978 H 0.2808 0.51523 0.24552 0.0
C979 C 0.29851 0.56978 0.171 0.0
C980 C 0.30677 0.54956 0.15807 0.0
C981 C 0.28487 0.56776 0.19349 0.0
C982 C 0.26587 0.52717 0.24604 0.0
H983 H 0.19852 0.58558 0.33701 0.0
H984 H 0.21963 0.58242 0.29593 0.0
H985 H 0.2545 0.51445 0.28336 0.0
H986 H 0.30813 0.51133 0.15927 0.0
H987 H 0.28398 0.50774 0.19865 0.0
H988 H 0.23894 0.57129 0.21193 0.0
C989 C 0.21306 0.56643 0.30496 0.0
C990 C 0.25079 0.52668 0.26767 0.0
C991 C 0.20103 0.56823 0.32857 0.0
C992 C 0.30209 0.52724 0.16889 0.0
C993 C 0.28823 0.5252 0.19142 0.0
C994 C 0.24268 0.55885 0.22742 0.0
C995 C 0.21751 0.54424 0.29375 0.0
C996 C 0.23186 0.54267 0.26961 0.0
C997 C 0.27891 0.54545 0.20354 0.0
C998 C 0.26226 0.54362 0.2259 0.0
H999 H 0.19064 0.50975 0.33945 0.0
H1000 H 0.212 0.50657 0.29799 0.0
H1001 H 0.21306 0.5707 0.24975 0.0
H1002 H 0.30201 0.58725 0.16331 0.0
H1003 H 0.2786 0.58376 0.20275 0.0
C1004 C 0.96214 0.30459 0.17113 0.0
C1005 C 0.94425 0.29905 0.15317 0.0
C1006 C 0.96297 0.29329 0.19542 0.0
C1007 C 0.96802 0.25672 0.2391 0.0
H1008 H 0.90883 0.24255 0.27369 0.0
C1009 C 0.96212 0.1965 0.33074 0.0
C1010 C 0.94584 0.20328 0.35 0.0
C1011 C 0.96263 0.20816 0.30664 0.0
C1012 C 0.92558 0.24652 0.26448 0.0
H1013 H 0.91331 0.27719 0.14659 0.0
H1014 H 0.915 0.25738 0.18831 0.0
H1015 H 0.90851 0.2643 0.23306 0.0
H1016 H 0.91761 0.22785 0.35919 0.0
H1017 H 0.91883 0.24827 0.31781 0.0
H1018 H 0.98508 0.23948 0.27117 0.0
C1019 C 0.92813 0.27076 0.18409 0.0
C1020 C 0.92537 0.25877 0.24093 0.0
C1021 C 0.92722 0.28209 0.16002 0.0
C1022 C 0.93022 0.22195 0.34471 0.0
C1023 C 0.93083 0.23364 0.32085 0.0
C1024 C 0.96824 0.24454 0.26285 0.0
C1025 C 0.94596 0.27619 0.20216 0.0
C1026 C 0.94655 0.26393 0.22782 0.0
C1027 C 0.94693 0.22687 0.30142 0.0
C1028 C 0.94699 0.23931 0.27585 0.0
H1029 H 0.97555 0.31754 0.1664 0.0
H1030 H 0.97681 0.29808 0.20898 0.0
H1031 H 0.98466 0.26017 0.22941 0.0
H1032 H 0.97443 0.18221 0.33426 0.0
H1033 H 0.97511 0.20232 0.29202 0.0
C1034 C 0.30091 0.97266 0.32888 0.0
C1035 C 0.30425 0.95036 0.34035 0.0
C1036 C 0.28879 0.97473 0.30516 0.0
C1037 C 0.27028 0.94062 0.24743 0.0
H1038 H 0.21703 0.98363 0.24407 0.0
C1039 C 0.19909 0.92864 0.1701 0.0
C1040 C 0.19071 0.94873 0.15701 0.0
C1041 C 0.21289 0.93088 0.19245 0.0
C1042 C 0.23202 0.97176 0.24455 0.0
H1043 H 0.29844 0.91277 0.33554 0.0
H1044 H 0.27784 0.91633 0.2942 0.0
H1045 H 0.24334 0.98441 0.28193 0.0
H1046 H 0.18929 0.98697 0.15781 0.0
H1047 H 0.2137 0.99094 0.19697 0.0
H1048 H 0.25909 0.9278 0.21034 0.0
C1049 C 0.28442 0.93222 0.30344 0.0
C1050 C 0.24711 0.97225 0.26619 0.0
C1051 C 0.29616 0.93019 0.32719 0.0
C1052 C 0.19543 0.97115 0.16755 0.0
C1053 C 0.20944 0.97342 0.18995 0.0
C1054 C 0.25533 0.9402 0.22585 0.0
C1055 C 0.28023 0.9545 0.29235 0.0
C1056 C 0.26607 0.95629 0.26809 0.0
C1057 C 0.21888 0.95329 0.2022 0.0
C1058 C 0.23567 0.95533 0.22441 0.0
H1059 H 0.30682 0.98852 0.3387 0.0
H1060 H 0.28592 0.99211 0.29696 0.0
H1061 H 0.28498 0.9284 0.24815 0.0
H1062 H 0.19557 0.91109 0.16264 0.0
H1063 H 0.21927 0.91498 0.20182 0.0
C1064 C 0.42845 0.79695 0.82975 0.0
C1065 C 0.44874 0.80502 0.84272 0.0
C1066 C 0.43027 0.78526 0.80595 0.0
C1067 C 0.47021 0.74818 0.76818 0.0
H1068 H 0.42486 0.75961 0.71304 0.0
C1069 C 0.46831 0.69636 0.66966 0.0
C1070 C 0.44578 0.69124 0.65962 0.0
C1071 C 0.47075 0.7105 0.69192 0.0
C1072 C 0.43753 0.75602 0.72834 0.0
H1073 H 0.48689 0.80765 0.84062 0.0
H1074 H 0.49012 0.78689 0.79879 0.0
H1075 H 0.42571 0.78556 0.75079 0.0
H1076 H 0.40816 0.69558 0.66601 0.0
H1077 H 0.41236 0.71955 0.70493 0.0
H1078 H 0.48162 0.71822 0.74589 0.0
C1079 C 0.4728 0.7897 0.8072 0.0
C1080 C 0.43808 0.77099 0.7499 0.0
C1081 C 0.47094 0.80175 0.83097 0.0
C1082 C 0.42578 0.6994 0.67307 0.0
C1083 C 0.4282 0.71335 0.69527 0.0
C1084 C 0.4696 0.73308 0.74655 0.0
C1085 C 0.45247 0.78113 0.7946 0.0
C1086 C 0.45407 0.76696 0.77032 0.0
C1087 C 0.45069 0.7197 0.70454 0.0
C1088 C 0.45285 0.73653 0.72668 0.0
H1089 H 0.4111 0.79918 0.83831 0.0
H1090 H 0.4143 0.77867 0.79689 0.0
H1091 H 0.48262 0.74454 0.78372 0.0
H1092 H 0.48406 0.69039 0.65964 0.0
H1093 H 0.48833 0.71504 0.69858 0.0
C1094 C 0.8011 0.46851 0.67065 0.0
C1095 C 0.80577 0.44597 0.66037 0.0
C1096 C 0.78662 0.47107 0.69265 0.0
C1097 C 0.73939 0.43885 0.72738 0.0
H1098 H 0.75172 0.48208 0.78431 0.0
C1099 C 0.69656 0.42866 0.82768 0.0
C1100 C 0.6893 0.44887 0.84134 0.0
C1101 C 0.7086 0.4307 0.8041 0.0
C1102 C 0.74784 0.47022 0.76833 0.0
H1103 H 0.80022 0.40843 0.66607 0.0
H1104 H 0.77559 0.41283 0.70447 0.0
H1105 H 0.77854 0.48105 0.7469 0.0
H1106 H 0.68846 0.48713 0.84071 0.0
H1107 H 0.70978 0.49073 0.79927 0.0
H1108 H 0.70907 0.42762 0.74892 0.0
C1109 C 0.78245 0.42859 0.69522 0.0
C1110 C 0.76323 0.46958 0.74695 0.0
C1111 C 0.79677 0.42606 0.67331 0.0
C1112 C 0.69372 0.47124 0.83051 0.0
C1113 C 0.70609 0.4733 0.80695 0.0
C1114 C 0.72411 0.43945 0.74868 0.0
C1115 C 0.77661 0.45112 0.70472 0.0
C1116 C 0.75947 0.45346 0.72654 0.0
C1117 C 0.71388 0.45302 0.79367 0.0
C1118 C 0.72843 0.45474 0.76966 0.0
H1119 H 0.80772 0.4842 0.66104 0.0
H1120 H 0.78249 0.48866 0.69952 0.0
H1121 H 0.73559 0.42669 0.71165 0.0
H1122 H 0.69345 0.41117 0.83552 0.0
H1123 H 0.71457 0.41474 0.79452 0.0
C1124 C 0.02899 0.80037 0.66808 0.0
C1125 C 0.0513 0.8042 0.65682 0.0
C1126 C 0.02697 0.78817 0.69174 0.0
C1127 C 0.06081 0.77048 0.7499 0.0
H1128 H 0.0183 0.71683 0.75321 0.0
C1129 C 0.07142 0.70115 0.82962 0.0
C1130 C 0.05102 0.69257 0.84197 0.0
C1131 C 0.06974 0.71445 0.80685 0.0
C1132 C 0.03003 0.73193 0.75275 0.0
H1133 H 0.08898 0.7991 0.66196 0.0
H1134 H 0.08549 0.77834 0.70325 0.0
H1135 H 0.01787 0.74263 0.71496 0.0
H1136 H 0.01288 0.6903 0.83949 0.0
H1137 H 0.00986 0.71391 0.79967 0.0
H1138 H 0.07306 0.76 0.78747 0.0
C1139 C 0.06955 0.78461 0.69385 0.0
C1140 C 0.02975 0.74672 0.73087 0.0
C1141 C 0.07154 0.79645 0.67014 0.0
C1142 C 0.02892 0.6966 0.83033 0.0
C1143 C 0.0272 0.71014 0.80754 0.0
C1144 C 0.061 0.75585 0.77175 0.0
C1145 C 0.04725 0.77998 0.70472 0.0
C1146 C 0.04549 0.76586 0.72902 0.0
C1147 C 0.04759 0.71977 0.79595 0.0
C1148 C 0.04601 0.73607 0.77324 0.0
H1149 H 0.01307 0.80599 0.65815 0.0
H1150 H 0.00957 0.78497 0.69978 0.0
H1151 H 0.07287 0.78532 0.74921 0.0
H1152 H 0.08874 0.69814 0.83795 0.0
H1153 H 0.08586 0.72095 0.79804 0.0
C1154 C 0.69633 0.02889 0.6705 0.0
C1155 C 0.69192 0.0514 0.65999 0.0
C1156 C 0.71077 0.02635 0.69253 0.0
C1157 C 0.75836 0.05828 0.727 0.0
H1158 H 0.74535 0.01582 0.78444 0.0
C1159 C 0.80126 0.06897 0.8272 0.0
C1160 C 0.80825 0.04881 0.84114 0.0
C1161 C 0.78917 0.06684 0.80366 0.0
C1162 C 0.74942 0.02746 0.76832 0.0
H1163 H 0.69794 0.08892 0.6653 0.0
H1164 H 0.72251 0.08455 0.70374 0.0
H1165 H 0.71862 0.0168 0.74695 0.0
H1166 H 0.8085 0.01054 0.84103 0.0
H1167 H 0.78709 0.00679 0.79967 0.0
H1168 H 0.78878 0.06934 0.74847 0.0
C1169 C 0.71546 0.06879 0.69465 0.0
C1170 C 0.73408 0.02807 0.74689 0.0
C1171 C 0.70117 0.07131 0.67272 0.0
C1172 C 0.80346 0.02639 0.83063 0.0
C1173 C 0.79104 0.02424 0.80711 0.0
C1174 C 0.77358 0.05771 0.74835 0.0
C1175 C 0.72101 0.04628 0.7044 0.0
C1176 C 0.73809 0.04392 0.72628 0.0
C1177 C 0.78355 0.04448 0.79354 0.0
C1178 C 0.76902 0.0427 0.76952 0.0
H1179 H 0.68952 0.0132 0.66106 0.0
H1180 H 0.71469 0.00876 0.69959 0.0
H1181 H 0.76235 0.07022 0.71112 0.0
H1182 H 0.80466 0.0865 0.83478 0.0
H1183 H 0.78344 0.08278 0.79386 0.0
loop_
_geom_bond_atom_site_label_1
_geom_bond_atom_site_label_2
_geom_bond_distance
_geom_bond_site_symmetry_2
_ccdc_geom_bond_type
O0 Cd1 2.223 . S
O0 C8 1.315 . S
Cd1 O0 2.223 . S
Cd1 O4 2.297 . S
Cd1 O5 2.439 . S
Cd1 O11 2.240 . S
Cd2 O3 2.240 . S
Cd2 O10 2.223 . S
Cd2 O12 2.297 . S
Cd2 O13 2.439 . S
O3 Cd2 2.240 . S
O3 C8 1.279 . S
O4 Cd1 2.297 . S
O4 C6 1.247 . S
O5 Cd1 2.439 . S
O5 C6 1.208 . S
C6 O4 1.247 . S
C6 O5 1.208 . S
C7 O12 1.247 . S
C7 O13 1.208 . S
C8 O0 1.315 . S
C8 O3 1.279 . S
C9 O10 1.315 . S
C9 O11 1.279 . S
O10 Cd2 2.223 . S
O10 C9 1.315 . S
O11 Cd1 2.240 . S
O11 C9 1.279 . S
O12 Cd2 2.297 . S
O12 C7 1.247 . S
O13 Cd2 2.439 . S
O13 C7 1.208 . S
O14 Cd15 2.223 . S
O14 C22 1.315 . S
Cd15 O14 2.223 . S
Cd15 O18 2.297 . S
Cd15 O19 2.439 . S
Cd15 O25 2.240 . S
Cd16 O17 2.240 . S
Cd16 O24 2.223 . S
Cd16 O26 2.297 . S
Cd16 O27 2.439 . S
O17 Cd16 2.240 . S
O17 C22 1.279 . S
O18 Cd15 2.297 . S
O18 C20 1.247 . S
O19 Cd15 2.439 . S
O19 C20 1.208 . S
C20 O18 1.247 . S
C20 O19 1.208 . S
C21 O26 1.247 . S
C21 O27 1.208 . S
C22 O14 1.315 . S
C22 O17 1.279 . S
C23 O24 1.315 . S
C23 O25 1.279 . S
O24 Cd16 2.223 . S
O24 C23 1.315 . S
O25 Cd15 2.240 . S
O25 C23 1.279 . S
O26 Cd16 2.297 . S
O26 C21 1.247 . S
O27 Cd16 2.439 . S
O27 C21 1.208 . S
O28 Cd29 2.223 . S
O28 C36 1.315 . S
Cd29 O28 2.223 . S
Cd29 O32 2.297 . S
Cd29 O33 2.439 . S
Cd29 O39 2.240 . S
Cd30 O31 2.240 . S
Cd30 O38 2.223 . S
Cd30 O40 2.297 . S
Cd30 O41 2.439 . S
O31 Cd30 2.240 . S
O31 C36 1.279 . S
O32 Cd29 2.297 . S
O32 C34 1.247 . S
O33 Cd29 2.439 . S
O33 C34 1.208 . S
C34 O32 1.247 . S
C34 O33 1.208 . S
C35 O40 1.247 . S
C35 O41 1.208 . S
C36 O28 1.315 . S
C36 O31 1.279 . S
C37 O38 1.315 . S
C37 O39 1.279 . S
O38 Cd30 2.223 . S
O38 C37 1.315 . S
O39 Cd29 2.240 . S
O39 C37 1.279 . S
O40 Cd30 2.297 . S
O40 C35 1.247 . S
O41 Cd30 2.439 . S
O41 C35 1.208 . S
O42 Cd43 2.223 . S
O42 C50 1.315 . S
Cd43 O42 2.223 . S
Cd43 O46 2.297 . S
Cd43 O47 2.439 . S
Cd43 O53 2.240 . S
Cd44 O45 2.240 . S
Cd44 O52 2.223 . S
Cd44 O54 2.297 . S
Cd44 O55 2.439 . S
O45 Cd44 2.240 . S
O45 C50 1.279 . S
O46 Cd43 2.297 . S
O46 C48 1.247 . S
O47 Cd43 2.439 . S
O47 C48 1.208 . S
C48 O46 1.247 . S
C48 O47 1.208 . S
C49 O54 1.247 . S
C49 O55 1.208 . S
C50 O42 1.315 . S
C50 O45 1.279 . S
C51 O52 1.315 . S
C51 O53 1.279 . S
O52 Cd44 2.223 . S
O52 C51 1.315 . S
O53 Cd43 2.240 . S
O53 C51 1.279 . S
O54 Cd44 2.297 . S
O54 C49 1.247 . S
O55 Cd44 2.439 . S
O55 C49 1.208 . S
O56 Cd57 2.223 . S
O56 C64 1.315 . S
Cd57 O56 2.223 . S
Cd57 O60 2.297 . S
Cd57 O61 2.439 . S
Cd57 O67 2.240 . S
Cd58 O59 2.240 . S
Cd58 O66 2.223 . S
Cd58 O68 2.297 . S
Cd58 O69 2.439 . S
O59 Cd58 2.240 . S
O59 C64 1.279 . S
O60 Cd57 2.297 . S
O60 C62 1.247 . S
O61 Cd57 2.439 . S
O61 C62 1.208 . S
C62 O60 1.247 . S
C62 O61 1.208 . S
C63 O68 1.247 . S
C63 O69 1.208 . S
C64 O56 1.315 . S
C64 O59 1.279 . S
C65 O66 1.315 . S
C65 O67 1.279 . S
O66 Cd58 2.223 . S
O66 C65 1.315 . S
O67 Cd57 2.240 . S
O67 C65 1.279 . S
O68 Cd58 2.297 . S
O68 C63 1.247 . S
O69 Cd58 2.439 . S
O69 C63 1.208 . S
O70 Cd71 2.223 . S
O70 C78 1.315 . S
Cd71 O70 2.223 . S
Cd71 O74 2.297 . S
Cd71 O75 2.439 . S
Cd71 O81 2.240 . S
Cd72 O73 2.240 . S
Cd72 O80 2.223 . S
Cd72 O82 2.297 . S
Cd72 O83 2.439 . S
O73 Cd72 2.240 . S
O73 C78 1.279 . S
O74 Cd71 2.297 . S
O74 C76 1.247 . S
O75 Cd71 2.439 . S
O75 C76 1.208 . S
C76 O74 1.247 . S
C76 O75 1.208 . S
C77 O82 1.247 . S
C77 O83 1.208 . S
C78 O70 1.315 . S
C78 O73 1.279 . S
C79 O80 1.315 . S
C79 O81 1.279 . S
O80 Cd72 2.223 . S
O80 C79 1.315 . S
O81 Cd71 2.240 . S
O81 C79 1.279 . S
O82 Cd72 2.297 . S
O82 C77 1.247 . S
O83 Cd72 2.439 . S
O83 C77 1.208 . S
O84 Cd85 2.223 . S
O84 C92 1.315 . S
Cd85 O84 2.223 . S
Cd85 O88 2.297 . S
Cd85 O89 2.439 . S
Cd85 O95 2.240 . S
Cd86 O87 2.240 . S
Cd86 O94 2.223 . S
Cd86 O96 2.297 . S
Cd86 O97 2.439 . S
O87 Cd86 2.240 . S
O87 C92 1.279 . S
O88 Cd85 2.297 . S
O88 C90 1.247 . S
O89 Cd85 2.439 . S
O89 C90 1.208 . S
C90 O88 1.247 . S
C90 O89 1.208 . S
C91 O96 1.247 . S
C91 O97 1.208 . S
C92 O84 1.315 . S
C92 O87 1.279 . S
C93 O94 1.315 . S
C93 O95 1.279 . S
O94 Cd86 2.223 . S
O94 C93 1.315 . S
O95 Cd85 2.240 . S
O95 C93 1.279 . S
O96 Cd86 2.297 . S
O96 C91 1.247 . S
O97 Cd86 2.439 . S
O97 C91 1.208 . S
O98 Cd99 2.223 . S
O98 C106 1.315 . S
Cd99 O98 2.223 . S
Cd99 O102 2.297 . S
Cd99 O103 2.439 . S
Cd99 O109 2.240 . S
Cd100 O101 2.240 . S
Cd100 O108 2.223 . S
Cd100 O110 2.297 . S
Cd100 O111 2.439 . S
O101 Cd100 2.240 . S
O101 C106 1.279 . S
O102 Cd99 2.297 . S
O102 C104 1.247 . S
O103 Cd99 2.439 . S
O103 C104 1.208 . S
C104 O102 1.247 . S
C104 O103 1.208 . S
C105 O110 1.247 . S
C105 O111 1.208 . S
C106 O98 1.315 . S
C106 O101 1.279 . S
C107 O108 1.315 . S
C107 O109 1.279 . S
O108 Cd100 2.223 . S
O108 C107 1.315 . S
O109 Cd99 2.240 . S
O109 C107 1.279 . S
O110 Cd100 2.297 . S
O110 C105 1.247 . S
O111 Cd100 2.439 . S
O111 C105 1.208 . S
O112 Cd113 2.223 . S
O112 C120 1.315 . S
Cd113 O112 2.223 . S
Cd113 O116 2.297 . S
Cd113 O117 2.439 . S
Cd113 O123 2.240 . S
Cd114 O115 2.240 . S
Cd114 O122 2.223 . S
Cd114 O124 2.297 . S
Cd114 O125 2.439 . S
O115 Cd114 2.240 . S
O115 C120 1.279 . S
O116 Cd113 2.297 . S
O116 C118 1.247 . S
O117 Cd113 2.439 . S
O117 C118 1.208 . S
C118 O116 1.247 . S
C118 O117 1.208 . S
C119 O124 1.247 . S
C119 O125 1.208 . S
C120 O112 1.315 . S
C120 O115 1.279 . S
C121 O122 1.315 . S
C121 O123 1.279 . S
O122 Cd114 2.223 . S
O122 C121 1.315 . S
O123 Cd113 2.240 . S
O123 C121 1.279 . S
O124 Cd114 2.297 . S
O124 C119 1.247 . S
O125 Cd114 2.439 . S
O125 C119 1.208 . S
O126 Cd127 2.223 . S
O126 C134 1.315 . S
Cd127 O126 2.223 . S
Cd127 O130 2.297 . S
Cd127 O131 2.439 . S
Cd127 O137 2.240 . S
Cd128 O129 2.240 . S
Cd128 O136 2.223 . S
Cd128 O138 2.297 . S
Cd128 O139 2.439 . S
O129 Cd128 2.240 . S
O129 C134 1.279 . S
O130 Cd127 2.297 . S
O130 C132 1.247 . S
O131 Cd127 2.439 . S
O131 C132 1.208 . S
C132 O130 1.247 . S
C132 O131 1.208 . S
C133 O138 1.247 . S
C133 O139 1.208 . S
C134 O126 1.315 . S
C134 O129 1.279 . S
C135 O136 1.315 . S
C135 O137 1.279 . S
O136 Cd128 2.223 . S
O136 C135 1.315 . S
O137 Cd127 2.240 . S
O137 C135 1.279 . S
O138 Cd128 2.297 . S
O138 C133 1.247 . S
O139 Cd128 2.439 . S
O139 C133 1.208 . S
O140 Cd141 2.223 . S
O140 C148 1.315 . S
Cd141 O140 2.223 . S
Cd141 O144 2.297 . S
Cd141 O145 2.439 . S
Cd141 O151 2.240 . S
Cd142 O143 2.240 . S
Cd142 O150 2.223 . S
Cd142 O152 2.297 . S
Cd142 O153 2.439 . S
O143 Cd142 2.240 . S
O143 C148 1.279 . S
O144 Cd141 2.297 . S
O144 C146 1.247 . S
O145 Cd141 2.439 . S
O145 C146 1.208 . S
C146 O144 1.247 . S
C146 O145 1.208 . S
C147 O152 1.247 . S
C147 O153 1.208 . S
C148 O140 1.315 . S
C148 O143 1.279 . S
C149 O150 1.315 . S
C149 O151 1.279 . S
O150 Cd142 2.223 . S
O150 C149 1.315 . S
O151 Cd141 2.240 . S
O151 C149 1.279 . S
O152 Cd142 2.297 . S
O152 C147 1.247 . S
O153 Cd142 2.439 . S
O153 C147 1.208 . S
O154 Cd155 2.223 . S
O154 C162 1.315 . S
Cd155 O154 2.223 . S
Cd155 O158 2.297 . S
Cd155 O159 2.439 . S
Cd155 O165 2.240 . S
Cd156 O157 2.240 . S
Cd156 O164 2.223 . S
Cd156 O166 2.297 . S
Cd156 O167 2.439 . S
O157 Cd156 2.240 . S
O157 C162 1.279 . S
O158 Cd155 2.297 . S
O158 C160 1.247 . S
O159 Cd155 2.439 . S
O159 C160 1.208 . S
C160 O158 1.247 . S
C160 O159 1.208 . S
C161 O166 1.247 . S
C161 O167 1.208 . S
C162 O154 1.315 . S
C162 O157 1.279 . S
C163 O164 1.315 . S
C163 O165 1.279 . S
O164 Cd156 2.223 . S
O164 C163 1.315 . S
O165 Cd155 2.240 . S
O165 C163 1.279 . S
O166 Cd156 2.297 . S
O166 C161 1.247 . S
O167 Cd156 2.439 . S
O167 C161 1.208 . S
O168 Cd169 2.223 . S
O168 C176 1.315 . S
Cd169 O168 2.223 . S
Cd169 O172 2.297 . S
Cd169 O173 2.439 . S
Cd169 O179 2.240 . S
Cd170 O171 2.240 . S
Cd170 O178 2.223 . S
Cd170 O180 2.297 . S
Cd170 O181 2.439 . S
O171 Cd170 2.240 . S
O171 C176 1.279 . S
O172 Cd169 2.297 . S
O172 C174 1.247 . S
O173 Cd169 2.439 . S
O173 C174 1.208 . S
C174 O172 1.247 . S
C174 O173 1.208 . S
C175 O180 1.247 . S
C175 O181 1.208 . S
C176 O168 1.315 . S
C176 O171 1.279 . S
C177 O178 1.315 . S
C177 O179 1.279 . S
O178 Cd170 2.223 . S
O178 C177 1.315 . S
O179 Cd169 2.240 . S
O179 C177 1.279 . S
O180 Cd170 2.297 . S
O180 C175 1.247 . S
O181 Cd170 2.439 . S
O181 C175 1.208 . S
O182 Cd183 2.223 . S
O182 C190 1.315 . S
Cd183 O182 2.223 . S
Cd183 O186 2.297 . S
Cd183 O187 2.439 . S
Cd183 O193 2.240 . S
Cd184 O185 2.240 . S
Cd184 O192 2.223 . S
Cd184 O194 2.297 . S
Cd184 O195 2.439 . S
O185 Cd184 2.240 . S
O185 C190 1.279 . S
O186 Cd183 2.297 . S
O186 C188 1.247 . S
O187 Cd183 2.439 . S
O187 C188 1.208 . S
C188 O186 1.247 . S
C188 O187 1.208 . S
C189 O194 1.247 . S
C189 O195 1.208 . S
C190 O182 1.315 . S
C190 O185 1.279 . S
C191 O192 1.315 . S
C191 O193 1.279 . S
O192 Cd184 2.223 . S
O192 C191 1.315 . S
O193 Cd183 2.240 . S
O193 C191 1.279 . S
O194 Cd184 2.297 . S
O194 C189 1.247 . S
O195 Cd184 2.439 . S
O195 C189 1.208 . S
O196 Cd197 2.223 . S
O196 C204 1.315 . S
Cd197 O196 2.223 . S
Cd197 O200 2.297 . S
Cd197 O201 2.439 . S
Cd197 O207 2.240 . S
Cd198 O199 2.240 . S
Cd198 O206 2.223 . S
Cd198 O208 2.297 . S
Cd198 O209 2.439 . S
O199 Cd198 2.240 . S
O199 C204 1.279 . S
O200 Cd197 2.297 . S
O200 C202 1.247 . S
O201 Cd197 2.439 . S
O201 C202 1.208 . S
C202 O200 1.247 . S
C202 O201 1.208 . S
C203 O208 1.247 . S
C203 O209 1.208 . S
C204 O196 1.315 . S
C204 O199 1.279 . S
C205 O206 1.315 . S
C205 O207 1.279 . S
O206 Cd198 2.223 . S
O206 C205 1.315 . S
O207 Cd197 2.240 . S
O207 C205 1.279 . S
O208 Cd198 2.297 . S
O208 C203 1.247 . S
O209 Cd198 2.439 . S
O209 C203 1.208 . S
O210 Cd211 2.223 . S
O210 C218 1.315 . S
Cd211 O210 2.223 . S
Cd211 O214 2.297 . S
Cd211 O215 2.439 . S
Cd211 O221 2.240 . S
Cd212 O213 2.240 . S
Cd212 O220 2.223 . S
Cd212 O222 2.297 . S
Cd212 O223 2.439 . S
O213 Cd212 2.240 . S
O213 C218 1.279 . S
O214 Cd211 2.297 . S
O214 C216 1.247 . S
O215 Cd211 2.439 . S
O215 C216 1.208 . S
C216 O214 1.247 . S
C216 O215 1.208 . S
C217 O222 1.247 . S
C217 O223 1.208 . S
C218 O210 1.315 . S
C218 O213 1.279 . S
C219 O220 1.315 . S
C219 O221 1.279 . S
O220 Cd212 2.223 . S
O220 C219 1.315 . S
O221 Cd211 2.240 . S
O221 C219 1.279 . S
O222 Cd212 2.297 . S
O222 C217 1.247 . S
O223 Cd212 2.439 . S
O223 C217 1.208 . S
C224 C225 1.349 . S
C224 C226 1.327 . S
C224 H249 0.969 . S
C225 C224 1.349 . S
C225 C241 1.349 . S
C226 C224 1.327 . S
C226 C245 1.429 . S
C226 H250 0.950 1_554 S
C227 C244 1.574 . S
C227 C246 1.368 . S
C227 H251 0.949 . S
H228 C232 0.949 . S
C229 C230 1.349 . S
C229 C231 1.334 . S
C229 H252 0.950 1_556 S
C230 C229 1.349 . S
C230 C242 1.349 . S
C231 C229 1.334 . S
C231 C247 1.440 . S
C231 H253 0.932 1_556 S
C232 H228 0.949 . S
C232 C240 1.574 . S
C232 C248 1.368 . S
H233 C241 0.950 . S
H234 C239 0.950 . S
H235 C240 0.949 . S
H236 C242 0.950 . S
H237 C243 0.950 . S
H238 C244 0.949 . S
C239 H234 0.950 . S
C239 C241 1.327 . S
C239 C245 1.429 . S
C240 C232 1.574 . S
C240 H235 0.949 . S
C240 C246 1.368 1_556 S
C241 C225 1.349 . S
C241 H233 0.950 . S
C241 C239 1.327 . S
C242 C230 1.349 . S
C242 H236 0.950 . S
C242 C243 1.327 . S
C243 H237 0.950 . S
C243 C242 1.327 . S
C243 C247 1.429 . S
C244 C227 1.574 . S
C244 H238 0.949 . S
C244 C248 1.368 1_554 S
C245 C226 1.429 . S
C245 C239 1.429 . S
C245 C246 1.523 . S
C246 C227 1.368 . S
C246 C240 1.368 1_554 S
C246 C245 1.523 . S
C247 C231 1.440 . S
C247 C243 1.429 . S
C247 C248 1.523 . S
C248 C232 1.368 . S
C248 C244 1.368 1_556 S
C248 C247 1.523 . S
H249 C224 0.969 . S
H250 C226 0.950 1_556 S
H251 C227 0.949 . S
H252 C229 0.950 1_554 S
H253 C231 0.932 1_554 S
C254 C255 1.349 . S
C254 C256 1.327 . S
C254 H279 0.950 1_556 S
C255 C254 1.349 . S
C255 C271 1.349 . S
C256 C254 1.327 . S
C256 C275 1.429 . S
C256 H280 0.950 1_556 S
C257 C274 1.574 . S
C257 C276 1.368 . S
C257 H281 0.949 . S
H258 C262 0.949 . S
C259 C260 1.349 . S
C259 C261 1.327 . S
C259 H282 0.950 . S
C260 C259 1.349 . S
C260 C272 1.349 . S
C261 C259 1.327 . S
C261 C277 1.429 . S
C261 H283 0.950 1_554 S
C262 H258 0.949 . S
C262 C270 1.574 . S
C262 C278 1.368 . S
H263 C271 0.950 . S
H264 C269 0.950 . S
H265 C270 0.949 . S
H266 C272 0.950 . S
H267 C273 0.950 . S
H268 C274 0.949 . S
C269 H264 0.950 . S
C269 C271 1.327 . S
C269 C275 1.429 . S
C270 C262 1.574 . S
C270 H265 0.949 . S
C270 C276 1.368 1_554 S
C271 C255 1.349 . S
C271 H263 0.950 . S
C271 C269 1.327 . S
C272 C260 1.349 . S
C272 H266 0.950 . S
C272 C273 1.327 . S
C273 H267 0.950 . S
C273 C272 1.327 . S
C273 C277 1.429 . S
C274 C257 1.574 . S
C274 H268 0.949 . S
C274 C278 1.368 1_556 S
C275 C256 1.429 . S
C275 C269 1.429 . S
C275 C276 1.523 . S
C276 C257 1.368 . S
C276 C270 1.368 1_556 S
C276 C275 1.523 . S
C277 C261 1.429 . S
C277 C273 1.429 . S
C277 C278 1.523 . S
C278 C262 1.368 . S
C278 C274 1.368 1_554 S
C278 C277 1.523 . S
H279 C254 0.950 1_554 S
H280 C256 0.950 1_554 S
H281 C257 0.949 . S
H282 C259 0.950 . S
H283 C261 0.950 1_556 S
C284 C285 1.349 . S
C284 C286 1.334 . S
C284 H309 0.950 1_556 S
C285 C284 1.349 . S
C285 C301 1.349 . S
C286 C284 1.334 . S
C286 C305 1.439 . S
C286 H310 0.932 1_556 S
C287 C304 1.574 . S
C287 C306 1.368 . S
C287 H311 0.949 . S
H288 C292 0.949 . S
C289 C290 1.349 . S
C289 C291 1.327 . S
C289 H312 0.968 . S
C290 C289 1.349 . S
C290 C302 1.349 . S
C291 C289 1.327 . S
C291 C307 1.429 . S
C291 H313 0.950 1_554 S
C292 H288 0.949 . S
C292 C300 1.574 . S
C292 C308 1.368 . S
H293 C301 0.950 . S
H294 C299 0.950 . S
H295 C300 0.949 . S
H296 C302 0.950 . S
H297 C303 0.950 . S
H298 C304 0.949 . S
C299 H294 0.950 . S
C299 C301 1.327 . S
C299 C305 1.429 . S
C300 C292 1.574 . S
C300 H295 0.949 . S
C300 C306 1.368 1_554 S
C301 C285 1.349 . S
C301 H293 0.950 . S
C301 C299 1.327 . S
C302 C290 1.349 . S
C302 H296 0.950 . S
C302 C303 1.327 . S
C303 H297 0.950 . S
C303 C302 1.327 . S
C303 C307 1.429 . S
C304 C287 1.574 . S
C304 H298 0.949 . S
C304 C308 1.368 1_556 S
C305 C286 1.439 . S
C305 C299 1.429 . S
C305 C306 1.523 . S
C306 C287 1.368 . S
C306 C300 1.368 1_556 S
C306 C305 1.523 . S
C307 C291 1.429 . S
C307 C303 1.429 . S
C307 C308 1.523 . S
C308 C292 1.368 . S
C308 C304 1.368 1_554 S
C308 C307 1.523 . S
H309 C284 0.950 1_554 S
H310 C286 0.932 1_554 S
H311 C287 0.949 . S
H312 C289 0.968 . S
H313 C291 0.950 1_556 S
C314 C315 1.349 . S
C314 C316 1.327 . S
C314 H339 0.950 . S
C315 C314 1.349 . S
C315 C331 1.349 . S
C316 C314 1.327 . S
C316 C335 1.429 . S
C316 H340 0.950 . S
C317 C334 1.574 . S
C317 C336 1.368 1_554 S
C317 H341 0.949 . S
H318 C322 0.949 . S
C319 C320 1.349 . S
C319 C321 1.327 . S
C319 H342 0.950 . S
C320 C319 1.349 . S
C320 C332 1.349 . S
C321 C319 1.327 . S
C321 C337 1.429 . S
C321 H343 0.950 . S
C322 H318 0.949 . S
C322 C330 1.574 . S
C322 C338 1.368 1_556 S
H323 C331 0.950 1_554 S
H324 C329 0.955 1_554 S
H325 C330 0.949 . S
H326 C332 0.950 1_556 S
H327 C333 0.950 1_556 S
H328 C334 0.949 . S
C329 H324 0.955 1_556 S
C329 C331 1.325 . S
C329 C335 1.425 . S
C330 C322 1.574 . S
C330 H325 0.949 . S
C330 C336 1.368 . S
C331 C315 1.349 . S
C331 H323 0.950 1_556 S
C331 C329 1.325 . S
C332 C320 1.349 . S
C332 H326 0.950 1_554 S
C332 C333 1.327 . S
C333 H327 0.950 1_554 S
C333 C332 1.327 . S
C333 C337 1.429 . S
C334 C317 1.574 . S
C334 H328 0.949 . S
C334 C338 1.368 . S
C335 C316 1.429 . S
C335 C329 1.425 . S
C335 C336 1.523 . S
C336 C317 1.368 1_556 S
C336 C330 1.368 . S
C336 C335 1.523 . S
C337 C321 1.429 . S
C337 C333 1.429 . S
C337 C338 1.523 . S
C338 C322 1.368 1_554 S
C338 C334 1.368 . S
C338 C337 1.523 . S
H339 C314 0.950 . S
H340 C316 0.950 . S
H341 C317 0.949 . S
H342 C319 0.950 . S
H343 C321 0.950 . S
C344 C345 1.349 . S
C344 C346 1.327 . S
C344 H369 0.950 . S
C345 C344 1.349 . S
C345 C361 1.349 . S
C346 C344 1.327 . S
C346 C365 1.429 . S
C346 H370 0.950 . S
C347 C364 1.574 . S
C347 C366 1.368 . S
C347 H371 0.949 . S
H348 C352 0.949 . S
C349 C350 1.349 . S
C349 C351 1.327 . S
C349 H372 0.950 . S
C350 C349 1.349 . S
C350 C362 1.349 . S
C351 C349 1.327 . S
C351 C367 1.429 . S
C351 H373 0.950 . S
C352 H348 0.949 . S
C352 C360 1.574 . S
C352 C368 1.368 . S
H353 C361 0.950 . S
H354 C359 0.950 . S
H355 C360 0.949 . S
H356 C362 0.950 . S
H357 C363 0.950 . S
H358 C364 0.949 . S
C359 H354 0.950 . S
C359 C361 1.327 . S
C359 C365 1.429 . S
C360 C352 1.574 . S
C360 H355 0.949 . S
C360 C366 1.368 . S
C361 C345 1.349 . S
C361 H353 0.950 . S
C361 C359 1.327 . S
C362 C350 1.349 . S
C362 H356 0.950 . S
C362 C363 1.327 . S
C363 H357 0.950 . S
C363 C362 1.327 . S
C363 C367 1.429 . S
C364 C347 1.574 . S
C364 H358 0.949 . S
C364 C368 1.368 . S
C365 C346 1.429 . S
C365 C359 1.429 . S
C365 C366 1.523 . S
C366 C347 1.368 . S
C366 C360 1.368 . S
C366 C365 1.523 . S
C367 C351 1.429 . S
C367 C363 1.429 . S
C367 C368 1.523 . S
C368 C352 1.368 . S
C368 C364 1.368 . S
C368 C367 1.523 . S
H369 C344 0.950 . S
H370 C346 0.950 . S
H371 C347 0.949 . S
H372 C349 0.950 . S
H373 C351 0.950 . S
C374 C375 1.349 . S
C374 C376 1.327 . S
C374 H399 0.950 . S
C375 C374 1.349 . S
C375 C391 1.349 . S
C376 C374 1.327 . S
C376 C395 1.429 . S
C376 H400 0.950 . S
C377 C394 1.574 . S
C377 C396 1.368 . S
C377 H401 0.949 . S
H378 C382 0.949 . S
C379 C380 1.349 . S
C379 C381 1.327 . S
C379 H402 0.950 . S
C380 C379 1.349 . S
C380 C392 1.349 . S
C381 C379 1.327 . S
C381 C397 1.429 . S
C381 H403 0.950 . S
C382 H378 0.949 . S
C382 C390 1.574 . S
C382 C398 1.368 . S
H383 C391 0.950 . S
H384 C389 0.950 . S
H385 C390 0.949 . S
H386 C392 0.950 . S
H387 C393 0.950 . S
H388 C394 0.949 . S
C389 H384 0.950 . S
C389 C391 1.327 . S
C389 C395 1.429 . S
C390 C382 1.574 . S
C390 H385 0.949 . S
C390 C396 1.368 . S
C391 C375 1.349 . S
C391 H383 0.950 . S
C391 C389 1.327 . S
C392 C380 1.349 . S
C392 H386 0.950 . S
C392 C393 1.327 . S
C393 H387 0.950 . S
C393 C392 1.327 . S
C393 C397 1.429 . S
C394 C377 1.574 . S
C394 H388 0.949 . S
C394 C398 1.368 . S
C395 C376 1.429 . S
C395 C389 1.429 . S
C395 C396 1.523 . S
C396 C377 1.368 . S
C396 C390 1.368 . S
C396 C395 1.523 . S
C397 C381 1.429 . S
C397 C393 1.429 . S
C397 C398 1.523 . S
C398 C382 1.368 . S
C398 C394 1.368 . S
C398 C397 1.523 . S
H399 C374 0.950 . S
H400 C376 0.950 . S
H401 C377 0.949 . S
H402 C379 0.950 . S
H403 C381 0.950 . S
C404 C405 1.349 . S
C404 C406 1.327 . S
C404 H429 0.950 . S
C405 C404 1.349 . S
C405 C421 1.349 . S
C406 C404 1.327 . S
C406 C425 1.429 . S
C406 H430 0.950 . S
C407 C424 1.574 . S
C407 C426 1.368 . S
C407 H431 0.949 . S
H408 C412 0.949 . S
C409 C410 1.349 . S
C409 C411 1.327 . S
C409 H432 0.950 . S
C410 C409 1.349 . S
C410 C422 1.349 . S
C411 C409 1.327 . S
C411 C427 1.429 . S
C411 H433 0.950 . S
C412 H408 0.949 . S
C412 C420 1.574 . S
C412 C428 1.368 . S
H413 C421 0.950 . S
H414 C419 0.950 . S
H415 C420 0.949 . S
H416 C422 0.950 . S
H417 C423 0.950 . S
H418 C424 0.949 . S
C419 H414 0.950 . S
C419 C421 1.327 . S
C419 C425 1.429 . S
C420 C412 1.574 . S
C420 H415 0.949 . S
C420 C426 1.368 . S
C421 C405 1.349 . S
C421 H413 0.950 . S
C421 C419 1.327 . S
C422 C410 1.349 . S
C422 H416 0.950 . S
C422 C423 1.327 . S
C423 H417 0.950 . S
C423 C422 1.327 . S
C423 C427 1.429 . S
C424 C407 1.574 . S
C424 H418 0.949 . S
C424 C428 1.368 . S
C425 C406 1.429 . S
C425 C419 1.429 . S
C425 C426 1.523 . S
C426 C407 1.368 . S
C426 C420 1.368 . S
C426 C425 1.523 . S
C427 C411 1.429 . S
C427 C423 1.429 . S
C427 C428 1.523 . S
C428 C412 1.368 . S
C428 C424 1.368 . S
C428 C427 1.523 . S
H429 C404 0.950 . S
H430 C406 0.950 . S
H431 C407 0.949 . S
H432 C409 0.950 . S
H433 C411 0.950 . S
C434 C435 1.349 . S
C434 C436 1.327 . S
C434 H459 0.950 . S
C435 C434 1.349 . S
C435 C451 1.349 . S
C436 C434 1.327 . S
C436 C455 1.429 . S
C436 H460 0.950 . S
C437 C454 1.574 . S
C437 C456 1.368 . S
C437 H461 0.949 . S
H438 C442 0.949 . S
C439 C440 1.349 . S
C439 C441 1.327 . S
C439 H462 0.950 . S
C440 C439 1.349 . S
C440 C452 1.349 . S
C441 C439 1.327 . S
C441 C457 1.429 . S
C441 H463 0.950 . S
C442 H438 0.949 . S
C442 C450 1.574 . S
C442 C458 1.368 . S
H443 C451 0.950 . S
H444 C449 0.950 . S
H445 C450 0.949 . S
H446 C452 0.950 . S
H447 C453 0.950 . S
H448 C454 0.949 . S
C449 H444 0.950 . S
C449 C451 1.327 . S
C449 C455 1.429 . S
C450 C442 1.574 . S
C450 H445 0.949 . S
C450 C456 1.368 . S
C451 C435 1.349 . S
C451 H443 0.950 . S
C451 C449 1.327 . S
C452 C440 1.349 . S
C452 H446 0.950 . S
C452 C453 1.327 . S
C453 H447 0.950 . S
C453 C452 1.327 . S
C453 C457 1.429 . S
C454 C437 1.574 . S
C454 H448 0.949 . S
C454 C458 1.368 . S
C455 C436 1.429 . S
C455 C449 1.429 . S
C455 C456 1.523 . S
C456 C437 1.368 . S
C456 C450 1.368 . S
C456 C455 1.523 . S
C457 C441 1.429 . S
C457 C453 1.429 . S
C457 C458 1.523 . S
C458 C442 1.368 . S
C458 C454 1.368 . S
C458 C457 1.523 . S
H459 C434 0.950 . S
H460 C436 0.950 . S
H461 C437 0.949 . S
H462 C439 0.950 . S
H463 C441 0.950 . S
C464 C465 1.349 . S
C464 C466 1.327 . S
C464 H489 0.950 . S
C465 C464 1.349 . S
C465 C481 1.349 . S
C466 C464 1.327 . S
C466 C485 1.429 . S
C466 H490 0.950 1_556 S
C467 C484 1.574 . S
C467 C486 1.368 . S
C467 H491 0.949 . S
H468 C472 0.949 . S
C469 C470 1.349 . S
C469 C471 1.327 . S
C469 H492 0.950 . S
C470 C469 1.349 . S
C470 C482 1.349 . S
C471 C469 1.327 . S
C471 C487 1.429 . S
C471 H493 0.950 1_554 S
C472 H468 0.949 . S
C472 C480 1.574 . S
C472 C488 1.368 . S
H473 C481 0.950 . S
H474 C479 0.950 . S
H475 C480 0.949 . S
H476 C482 0.950 . S
H477 C483 0.950 . S
H478 C484 0.949 . S
C479 H474 0.950 . S
C479 C481 1.327 . S
C479 C485 1.429 . S
C480 C472 1.574 . S
C480 H475 0.949 . S
C480 C486 1.368 1_554 S
C481 C465 1.349 . S
C481 H473 0.950 . S
C481 C479 1.327 . S
C482 C470 1.349 . S
C482 H476 0.950 . S
C482 C483 1.327 . S
C483 H477 0.950 . S
C483 C482 1.327 . S
C483 C487 1.429 . S
C484 C467 1.574 . S
C484 H478 0.949 . S
C484 C488 1.368 1_556 S
C485 C466 1.429 . S
C485 C479 1.429 . S
C485 C486 1.523 . S
C486 C467 1.368 . S
C486 C480 1.368 1_556 S
C486 C485 1.523 . S
C487 C471 1.429 . S
C487 C483 1.429 . S
C487 C488 1.523 . S
C488 C472 1.368 . S
C488 C484 1.368 1_554 S
C488 C487 1.523 . S
H489 C464 0.950 . S
H490 C466 0.950 1_554 S
H491 C467 0.949 . S
H492 C469 0.950 . S
H493 C471 0.950 1_556 S
C494 C495 1.349 . S
C494 C496 1.327 . S
C494 H519 0.950 . S
C495 C494 1.349 . S
C495 C511 1.349 . S
C496 C494 1.327 . S
C496 C515 1.429 . S
C496 H520 0.950 . S
C497 C514 1.574 . S
C497 C516 1.368 1_554 S
C497 H521 0.949 . S
H498 C502 0.949 . S
C499 C500 1.349 . S
C499 C501 1.327 . S
C499 H522 0.950 . S
C500 C499 1.349 . S
C500 C512 1.349 . S
C501 C499 1.327 . S
C501 C517 1.429 . S
C501 H523 0.950 . S
C502 H498 0.949 . S
C502 C510 1.574 . S
C502 C518 1.368 1_556 S
H503 C511 0.950 . S
H504 C509 0.950 1_554 S
H505 C510 0.949 . S
H506 C512 0.950 1_556 S
H507 C513 0.950 1_556 S
H508 C514 0.949 . S
C509 H504 0.950 1_556 S
C509 C511 1.327 . S
C509 C515 1.429 . S
C510 C502 1.574 . S
C510 H505 0.949 . S
C510 C516 1.368 . S
C511 C495 1.349 . S
C511 H503 0.950 . S
C511 C509 1.327 . S
C512 C500 1.349 . S
C512 H506 0.950 1_554 S
C512 C513 1.327 . S
C513 H507 0.950 1_554 S
C513 C512 1.327 . S
C513 C517 1.429 . S
C514 C497 1.574 . S
C514 H508 0.949 . S
C514 C518 1.368 . S
C515 C496 1.429 . S
C515 C509 1.429 . S
C515 C516 1.523 . S
C516 C497 1.368 1_556 S
C516 C510 1.368 . S
C516 C515 1.523 . S
C517 C501 1.429 . S
C517 C513 1.429 . S
C517 C518 1.523 . S
C518 C502 1.368 1_554 S
C518 C514 1.368 . S
C518 C517 1.523 . S
H519 C494 0.950 . S
H520 C496 0.950 . S
H521 C497 0.949 . S
H522 C499 0.950 . S
H523 C501 0.950 . S
C524 C525 1.349 . S
C524 C526 1.327 . S
C524 H549 0.950 . S
C525 C524 1.349 . S
C525 C541 1.349 . S
C526 C524 1.327 . S
C526 C545 1.429 . S
C526 H550 0.950 . S
C527 C544 1.574 . S
C527 C546 1.368 1_554 S
C527 H551 0.949 . S
H528 C532 0.949 . S
C529 C530 1.349 . S
C529 C531 1.327 . S
C529 H552 0.950 . S
C530 C529 1.349 . S
C530 C542 1.349 . S
C531 C529 1.327 . S
C531 C547 1.429 . S
C531 H553 0.950 . S
C532 H528 0.949 . S
C532 C540 1.574 . S
C532 C548 1.368 1_556 S
H533 C541 0.950 . S
H534 C539 0.944 1_554 S
H535 C540 0.949 . S
H536 C542 0.950 . S
H537 C543 0.950 1_556 S
H538 C544 0.949 . S
C539 H534 0.944 1_556 S
C539 C541 1.327 . S
C539 C545 1.429 . S
C540 C532 1.574 . S
C540 H535 0.949 . S
C540 C546 1.368 . S
C541 C525 1.349 . S
C541 H533 0.950 . S
C541 C539 1.327 . S
C542 C530 1.349 . S
C542 H536 0.950 . S
C542 C543 1.327 . S
C543 H537 0.950 1_554 S
C543 C542 1.327 . S
C543 C547 1.429 . S
C544 C527 1.574 . S
C544 H538 0.949 . S
C544 C548 1.368 . S
C545 C526 1.429 . S
C545 C539 1.429 . S
C545 C546 1.523 . S
C546 C527 1.368 1_556 S
C546 C540 1.368 . S
C546 C545 1.523 . S
C547 C531 1.429 . S
C547 C543 1.429 . S
C547 C548 1.523 . S
C548 C532 1.368 1_554 S
C548 C544 1.368 . S
C548 C547 1.523 . S
H549 C524 0.950 . S
H550 C526 0.950 . S
H551 C527 0.949 . S
H552 C529 0.950 . S
H553 C531 0.950 . S
C554 C555 1.349 . S
C554 C556 1.327 . S
C554 H579 0.950 . S
C555 C554 1.349 . S
C555 C571 1.349 . S
C556 C554 1.327 . S
C556 C575 1.429 . S
C556 H580 0.950 1_554 S
C557 C574 1.574 . S
C557 C576 1.368 . S
C557 H581 0.949 . S
H558 C562 0.949 . S
C559 C560 1.349 . S
C559 C561 1.327 . S
C559 H582 0.950 . S
C560 C559 1.349 . S
C560 C572 1.349 . S
C561 C559 1.327 . S
C561 C577 1.429 . S
C561 H583 0.932 1_556 S
C562 H558 0.949 . S
C562 C570 1.574 . S
C562 C578 1.368 . S
H563 C571 0.950 . S
H564 C569 0.950 . S
H565 C570 0.949 . S
H566 C572 0.950 . S
H567 C573 0.950 . S
H568 C574 0.949 . S
C569 H564 0.950 . S
C569 C571 1.327 . S
C569 C575 1.429 . S
C570 C562 1.574 . S
C570 H565 0.949 . S
C570 C576 1.368 1_556 S
C571 C555 1.349 . S
C571 H563 0.950 . S
C571 C569 1.327 . S
C572 C560 1.349 . S
C572 H566 0.950 . S
C572 C573 1.327 . S
C573 H567 0.950 . S
C573 C572 1.327 . S
C573 C577 1.429 . S
C574 C557 1.574 . S
C574 H568 0.949 . S
C574 C578 1.368 1_554 S
C575 C556 1.429 . S
C575 C569 1.429 . S
C575 C576 1.523 . S
C576 C557 1.368 . S
C576 C570 1.368 1_554 S
C576 C575 1.523 . S
C577 C561 1.429 . S
C577 C573 1.429 . S
C577 C578 1.523 . S
C578 C562 1.368 . S
C578 C574 1.368 1_556 S
C578 C577 1.523 . S
H579 C554 0.950 . S
H580 C556 0.950 1_556 S
H581 C557 0.949 . S
H582 C559 0.950 . S
H583 C561 0.932 1_554 S
C584 C585 1.349 . S
C584 C586 1.327 . S
C584 H609 0.950 . S
C585 C584 1.349 . S
C585 C601 1.349 . S
C586 C584 1.327 . S
C586 C605 1.429 . S
C586 H610 0.950 . S
C587 C604 1.574 . S
C587 C606 1.368 . S
C587 H611 0.949 . S
H588 C592 0.949 . S
C589 C590 1.349 . S
C589 C591 1.327 . S
C589 H612 0.950 . S
C590 C589 1.349 . S
C590 C602 1.349 . S
C591 C589 1.327 . S
C591 C607 1.429 . S
C591 H613 0.950 . S
C592 H588 0.949 . S
C592 C600 1.574 . S
C592 C608 1.368 . S
H593 C601 0.950 . S
H594 C599 0.950 . S
H595 C600 0.949 . S
H596 C602 0.950 . S
H597 C603 0.950 . S
H598 C604 0.949 . S
C599 H594 0.950 . S
C599 C601 1.327 . S
C599 C605 1.429 . S
C600 C592 1.574 . S
C600 H595 0.949 . S
C600 C606 1.368 . S
C601 C585 1.349 . S
C601 H593 0.950 . S
C601 C599 1.327 . S
C602 C590 1.349 . S
C602 H596 0.950 . S
C602 C603 1.327 . S
C603 H597 0.950 . S
C603 C602 1.327 . S
C603 C607 1.429 . S
C604 C587 1.574 . S
C604 H598 0.949 . S
C604 C608 1.368 . S
C605 C586 1.429 . S
C605 C599 1.429 . S
C605 C606 1.523 . S
C606 C587 1.368 . S
C606 C600 1.368 . S
C606 C605 1.523 . S
C607 C591 1.429 . S
C607 C603 1.429 . S
C607 C608 1.523 . S
C608 C592 1.368 . S
C608 C604 1.368 . S
C608 C607 1.523 . S
H609 C584 0.950 . S
H610 C586 0.950 . S
H611 C587 0.949 . S
H612 C589 0.950 . S
H613 C591 0.950 . S
C614 C615 1.349 . S
C614 C616 1.327 . S
C614 H639 0.950 . S
C615 C614 1.349 . S
C615 C631 1.349 . S
C616 C614 1.327 . S
C616 C635 1.429 . S
C616 H640 0.950 . S
C617 C634 1.574 . S
C617 C636 1.368 . S
C617 H641 0.949 . S
H618 C622 0.949 . S
C619 C620 1.349 . S
C619 C621 1.327 . S
C619 H642 0.950 . S
C620 C619 1.349 . S
C620 C632 1.349 . S
C621 C619 1.327 . S
C621 C637 1.429 . S
C621 H643 0.950 . S
C622 H618 0.949 . S
C622 C630 1.574 . S
C622 C638 1.368 . S
H623 C631 0.950 . S
H624 C629 0.950 . S
H625 C630 0.949 . S
H626 C632 0.950 . S
H627 C633 0.950 . S
H628 C634 0.949 . S
C629 H624 0.950 . S
C629 C631 1.327 . S
C629 C635 1.429 . S
C630 C622 1.574 . S
C630 H625 0.949 . S
C630 C636 1.368 . S
C631 C615 1.349 . S
C631 H623 0.950 . S
C631 C629 1.327 . S
C632 C620 1.349 . S
C632 H626 0.950 . S
C632 C633 1.327 . S
C633 H627 0.950 . S
C633 C632 1.327 . S
C633 C637 1.429 . S
C634 C617 1.574 . S
C634 H628 0.949 . S
C634 C638 1.368 . S
C635 C616 1.429 . S
C635 C629 1.429 . S
C635 C636 1.523 . S
C636 C617 1.368 . S
C636 C630 1.368 . S
C636 C635 1.523 . S
C637 C621 1.429 . S
C637 C633 1.429 . S
C637 C638 1.523 . S
C638 C622 1.368 . S
C638 C634 1.368 . S
C638 C637 1.523 . S
H639 C614 0.950 . S
H640 C616 0.950 . S
H641 C617 0.949 . S
H642 C619 0.950 . S
H643 C621 0.950 . S
C644 C645 1.349 . S
C644 C646 1.327 . S
C644 H669 0.950 . S
C645 C644 1.349 . S
C645 C661 1.349 . S
C646 C644 1.327 . S
C646 C665 1.429 . S
C646 H670 0.950 . S
C647 C664 1.574 . S
C647 C666 1.368 . S
C647 H671 0.949 . S
H648 C652 0.949 . S
C649 C650 1.349 . S
C649 C651 1.327 . S
C649 H672 0.950 . S
C650 C649 1.349 . S
C650 C662 1.349 . S
C651 C649 1.327 . S
C651 C667 1.429 . S
C651 H673 0.950 . S
C652 H648 0.949 . S
C652 C660 1.574 . S
C652 C668 1.368 . S
H653 C661 0.950 . S
H654 C659 0.950 . S
H655 C660 0.949 . S
H656 C662 0.950 . S
H657 C663 0.950 . S
H658 C664 0.949 . S
C659 H654 0.950 . S
C659 C661 1.327 . S
C659 C665 1.429 . S
C660 C652 1.574 . S
C660 H655 0.949 . S
C660 C666 1.368 . S
C661 C645 1.349 . S
C661 H653 0.950 . S
C661 C659 1.327 . S
C662 C650 1.349 . S
C662 H656 0.950 . S
C662 C663 1.327 . S
C663 H657 0.950 . S
C663 C662 1.327 . S
C663 C667 1.429 . S
C664 C647 1.574 . S
C664 H658 0.949 . S
C664 C668 1.368 . S
C665 C646 1.429 . S
C665 C659 1.429 . S
C665 C666 1.523 . S
C666 C647 1.368 . S
C666 C660 1.368 . S
C666 C665 1.523 . S
C667 C651 1.429 . S
C667 C663 1.429 . S
C667 C668 1.523 . S
C668 C652 1.368 . S
C668 C664 1.368 . S
C668 C667 1.523 . S
H669 C644 0.950 . S
H670 C646 0.950 . S
H671 C647 0.949 . S
H672 C649 0.950 . S
H673 C651 0.950 . S
C674 C675 1.349 . S
C674 C676 1.327 . S
C674 H699 0.950 . S
C675 C674 1.349 . S
C675 C691 1.349 . S
C676 C674 1.327 . S
C676 C695 1.429 . S
C676 H700 0.950 . S
C677 C694 1.574 . S
C677 C696 1.368 . S
C677 H701 0.949 . S
H678 C682 0.949 . S
C679 C680 1.349 . S
C679 C681 1.327 . S
C679 H702 0.950 . S
C680 C679 1.349 . S
C680 C692 1.349 . S
C681 C679 1.327 . S
C681 C697 1.429 . S
C681 H703 0.950 . S
C682 H678 0.949 . S
C682 C690 1.574 . S
C682 C698 1.368 . S
H683 C691 0.950 . S
H684 C689 0.950 . S
H685 C690 0.949 . S
H686 C692 0.950 . S
H687 C693 0.950 . S
H688 C694 0.949 . S
C689 H684 0.950 . S
C689 C691 1.327 . S
C689 C695 1.429 . S
C690 C682 1.574 . S
C690 H685 0.949 . S
C690 C696 1.368 . S
C691 C675 1.349 . S
C691 H683 0.950 . S
C691 C689 1.327 . S
C692 C680 1.349 . S
C692 H686 0.950 . S
C692 C693 1.327 . S
C693 H687 0.950 . S
C693 C692 1.327 . S
C693 C697 1.429 . S
C694 C677 1.574 . S
C694 H688 0.949 . S
C694 C698 1.368 . S
C695 C676 1.429 . S
C695 C689 1.429 . S
C695 C696 1.523 . S
C696 C677 1.368 . S
C696 C690 1.368 . S
C696 C695 1.523 . S
C697 C681 1.429 . S
C697 C693 1.429 . S
C697 C698 1.523 . S
C698 C682 1.368 . S
C698 C694 1.368 . S
C698 C697 1.523 . S
H699 C674 0.950 . S
H700 C676 0.950 . S
H701 C677 0.949 . S
H702 C679 0.950 . S
H703 C681 0.950 . S
C704 C705 1.349 . S
C704 C706 1.327 . S
C704 H729 0.950 . S
C705 C704 1.349 . S
C705 C721 1.349 . S
C706 C704 1.327 . S
C706 C725 1.429 . S
C706 H730 0.950 . S
C707 C724 1.574 1_565 S
C707 C726 1.368 1_554 S
C707 H731 0.949 . S
H708 C712 0.949 . S
C709 C710 1.349 . S
C709 C711 1.327 . S
C709 H732 0.950 . S
C710 C709 1.349 . S
C710 C722 1.349 . S
C711 C709 1.327 . S
C711 C727 1.429 . S
C711 H733 0.950 . S
C712 H708 0.949 . S
C712 C720 1.574 1_545 S
C712 C728 1.368 1_556 S
H713 C721 0.950 . S
H714 C719 0.950 1_554 S
H715 C720 0.949 . S
H716 C722 0.950 . S
H717 C723 0.950 1_556 S
H718 C724 0.949 . S
C719 H714 0.950 1_556 S
C719 C721 1.327 . S
C719 C725 1.429 . S
C720 C712 1.574 1_565 S
C720 H715 0.949 . S
C720 C726 1.368 . S
C721 C705 1.349 . S
C721 H713 0.950 . S
C721 C719 1.327 . S
C722 C710 1.349 . S
C722 H716 0.950 . S
C722 C723 1.327 . S
C723 H717 0.950 1_554 S
C723 C722 1.327 . S
C723 C727 1.429 . S
C724 C707 1.574 1_545 S
C724 H718 0.949 . S
C724 C728 1.368 . S
C725 C706 1.429 . S
C725 C719 1.429 . S
C725 C726 1.523 . S
C726 C707 1.368 1_556 S
C726 C720 1.368 . S
C726 C725 1.523 . S
C727 C711 1.429 . S
C727 C723 1.429 . S
C727 C728 1.523 . S
C728 C712 1.368 1_554 S
C728 C724 1.368 . S
C728 C727 1.523 . S
H729 C704 0.950 . S
H730 C706 0.950 . S
H731 C707 0.949 . S
H732 C709 0.950 . S
H733 C711 0.950 . S
C734 C735 1.349 . S
C734 C736 1.327 . S
C734 H759 0.950 . S
C735 C734 1.349 . S
C735 C751 1.349 . S
C736 C734 1.327 . S
C736 C755 1.429 . S
C736 H760 0.950 . S
C737 C754 1.574 . S
C737 C756 1.368 1_556 S
C737 H761 0.949 . S
H738 C742 0.949 . S
C739 C740 1.349 . S
C739 C741 1.327 . S
C739 H762 0.950 . S
C740 C739 1.349 . S
C740 C752 1.349 . S
C741 C739 1.327 . S
C741 C757 1.429 . S
C741 H763 0.950 . S
C742 H738 0.949 . S
C742 C750 1.574 . S
C742 C758 1.368 1_554 S
H743 C751 0.950 . S
H744 C749 0.950 . S
H745 C750 0.949 . S
H746 C752 0.950 . S
H747 C753 0.950 . S
H748 C754 0.949 . S
C749 H744 0.950 . S
C749 C751 1.327 . S
C749 C755 1.429 . S
C750 C742 1.574 . S
C750 H745 0.949 . S
C750 C756 1.368 . S
C751 C735 1.349 . S
C751 H743 0.950 . S
C751 C749 1.327 . S
C752 C740 1.349 . S
C752 H746 0.950 . S
C752 C753 1.327 . S
C753 H747 0.950 . S
C753 C752 1.327 . S
C753 C757 1.429 . S
C754 C737 1.574 . S
C754 H748 0.949 . S
C754 C758 1.368 . S
C755 C736 1.429 . S
C755 C749 1.429 . S
C755 C756 1.523 . S
C756 C737 1.368 1_554 S
C756 C750 1.368 . S
C756 C755 1.523 . S
C757 C741 1.429 . S
C757 C753 1.429 . S
C757 C758 1.523 . S
C758 C742 1.368 1_556 S
C758 C754 1.368 . S
C758 C757 1.523 . S
H759 C734 0.950 . S
H760 C736 0.950 . S
H761 C737 0.949 . S
H762 C739 0.950 . S
H763 C741 0.950 . S
C764 C765 1.349 . S
C764 C766 1.327 . S
C764 H789 0.950 . S
C765 C764 1.349 . S
C765 C781 1.349 . S
C766 C764 1.327 . S
C766 C785 1.429 . S
C766 H790 0.950 . S
C767 C784 1.574 . S
C767 C786 1.368 1_654 S
C767 H791 0.949 . S
H768 C772 0.949 . S
C769 C770 1.349 . S
C769 C771 1.327 . S
C769 H792 0.950 . S
C770 C769 1.349 . S
C770 C782 1.349 . S
C771 C769 1.327 . S
C771 C787 1.429 . S
C771 H793 0.950 . S
C772 H768 0.949 . S
C772 C780 1.574 . S
C772 C788 1.368 1_456 S
H773 C781 0.950 1_655 S
H774 C779 0.950 1_554 S
H775 C780 0.949 . S
H776 C782 0.950 1_455 S
H777 C783 0.950 1_556 S
H778 C784 0.949 . S
C779 H774 0.950 1_556 S
C779 C781 1.327 1_655 S
C779 C785 1.429 1_655 S
C780 C772 1.574 . S
C780 H775 0.949 . S
C780 C786 1.368 . S
C781 C765 1.349 . S
C781 H773 0.950 1_455 S
C781 C779 1.327 1_455 S
C782 C770 1.349 . S
C782 H776 0.950 1_655 S
C782 C783 1.327 1_655 S
C783 H777 0.950 1_554 S
C783 C782 1.327 1_455 S
C783 C787 1.429 1_455 S
C784 C767 1.574 . S
C784 H778 0.949 . S
C784 C788 1.368 . S
C785 C766 1.429 . S
C785 C779 1.429 1_455 S
C785 C786 1.523 . S
C786 C767 1.368 1_456 S
C786 C780 1.368 . S
C786 C785 1.523 . S
C787 C771 1.429 . S
C787 C783 1.429 1_655 S
C787 C788 1.523 . S
C788 C772 1.368 1_654 S
C788 C784 1.368 . S
C788 C787 1.523 . S
H789 C764 0.950 . S
H790 C766 0.950 . S
H791 C767 0.949 . S
H792 C769 0.950 . S
H793 C771 0.950 . S
C794 C795 1.349 1_545 S
C794 C796 1.327 . S
C794 H819 0.950 . S
C795 C794 1.349 1_565 S
C795 C811 1.349 . S
C796 C794 1.327 . S
C796 C815 1.429 1_545 S
C796 H820 0.950 . S
C797 C814 1.574 1_454 S
C797 C816 1.368 . S
C797 H821 0.949 . S
H798 C802 0.949 . S
C799 C800 1.349 1_565 S
C799 C801 1.327 . S
C799 H822 0.950 . S
C800 C799 1.349 1_545 S
C800 C812 1.349 . S
C801 C799 1.327 . S
C801 C817 1.429 1_565 S
C801 H823 0.950 . S
C802 H798 0.949 . S
C802 C810 1.574 1_656 S
C802 C818 1.368 . S
H803 C811 0.950 . S
H804 C809 0.950 . S
H805 C810 0.949 . S
H806 C812 0.950 . S
H807 C813 0.950 . S
H808 C814 0.949 . S
C809 H804 0.950 . S
C809 C811 1.327 . S
C809 C815 1.429 . S
C810 C802 1.574 1_454 S
C810 H805 0.949 . S
C810 C816 1.368 1_545 S
C811 C795 1.349 . S
C811 H803 0.950 . S
C811 C809 1.327 . S
C812 C800 1.349 . S
C812 H806 0.950 . S
C812 C813 1.327 . S
C813 H807 0.950 . S
C813 C812 1.327 . S
C813 C817 1.429 . S
C814 C797 1.574 1_656 S
C814 H808 0.949 . S
C814 C818 1.368 1_565 S
C815 C796 1.429 1_565 S
C815 C809 1.429 . S
C815 C816 1.523 . S
C816 C797 1.368 . S
C816 C810 1.368 1_565 S
C816 C815 1.523 . S
C817 C801 1.429 1_545 S
C817 C813 1.429 . S
C817 C818 1.523 . S
C818 C802 1.368 . S
C818 C814 1.368 1_545 S
C818 C817 1.523 . S
H819 C794 0.950 . S
H820 C796 0.950 . S
H821 C797 0.949 . S
H822 C799 0.950 . S
H823 C801 0.950 . S
C824 C825 1.349 . S
C824 C826 1.327 . S
C824 H849 0.950 . S
C825 C824 1.349 . S
C825 C841 1.349 . S
C826 C824 1.327 . S
C826 C845 1.429 . S
C826 H850 0.950 . S
C827 C844 1.574 . S
C827 C846 1.368 . S
C827 H851 0.949 . S
H828 C832 0.949 . S
C829 C830 1.349 . S
C829 C831 1.327 . S
C829 H852 0.950 . S
C830 C829 1.349 . S
C830 C842 1.349 . S
C831 C829 1.327 . S
C831 C847 1.429 . S
C831 H853 0.950 . S
C832 H828 0.949 . S
C832 C840 1.574 . S
C832 C848 1.368 . S
H833 C841 0.950 . S
H834 C839 0.950 . S
H835 C840 0.949 . S
H836 C842 0.950 . S
H837 C843 0.950 . S
H838 C844 0.949 . S
C839 H834 0.950 . S
C839 C841 1.327 . S
C839 C845 1.429 . S
C840 C832 1.574 . S
C840 H835 0.949 . S
C840 C846 1.368 . S
C841 C825 1.349 . S
C841 H833 0.950 . S
C841 C839 1.327 . S
C842 C830 1.349 . S
C842 H836 0.950 . S
C842 C843 1.327 . S
C843 H837 0.950 . S
C843 C842 1.327 . S
C843 C847 1.429 . S
C844 C827 1.574 . S
C844 H838 0.949 . S
C844 C848 1.368 . S
C845 C826 1.429 . S
C845 C839 1.429 . S
C845 C846 1.523 . S
C846 C827 1.368 . S
C846 C840 1.368 . S
C846 C845 1.523 . S
C847 C831 1.429 . S
C847 C843 1.429 . S
C847 C848 1.523 . S
C848 C832 1.368 . S
C848 C844 1.368 . S
C848 C847 1.523 . S
H849 C824 0.950 . S
H850 C826 0.950 . S
H851 C827 0.949 . S
H852 C829 0.950 . S
H853 C831 0.950 . S
C854 C855 1.349 . S
C854 C856 1.327 . S
C854 H879 0.950 . S
C855 C854 1.349 . S
C855 C871 1.349 . S
C856 C854 1.327 . S
C856 C875 1.429 . S
C856 H880 0.950 . S
C857 C874 1.574 1_455 S
C857 C876 1.368 . S
C857 H881 0.949 . S
H858 C862 0.949 . S
C859 C860 1.349 . S
C859 C861 1.327 . S
C859 H882 0.950 . S
C860 C859 1.349 . S
C860 C872 1.349 . S
C861 C859 1.327 . S
C861 C877 1.429 . S
C861 H883 0.950 . S
C862 H858 0.949 . S
C862 C870 1.574 1_655 S
C862 C878 1.368 . S
H863 C871 0.950 . S
H864 C869 0.950 . S
H865 C870 0.949 . S
H866 C872 0.950 . S
H867 C873 0.950 . S
H868 C874 0.949 . S
C869 H864 0.950 . S
C869 C871 1.327 . S
C869 C875 1.429 . S
C870 C862 1.574 1_455 S
C870 H865 0.949 . S
C870 C876 1.368 . S
C871 C855 1.349 . S
C871 H863 0.950 . S
C871 C869 1.327 . S
C872 C860 1.349 . S
C872 H866 0.950 . S
C872 C873 1.327 . S
C873 H867 0.950 . S
C873 C872 1.327 . S
C873 C877 1.429 . S
C874 C857 1.574 1_655 S
C874 H868 0.949 . S
C874 C878 1.368 . S
C875 C856 1.429 . S
C875 C869 1.429 . S
C875 C876 1.523 . S
C876 C857 1.368 . S
C876 C870 1.368 . S
C876 C875 1.523 . S
C877 C861 1.429 . S
C877 C873 1.429 . S
C877 C878 1.523 . S
C878 C862 1.368 . S
C878 C874 1.368 . S
C878 C877 1.523 . S
H879 C854 0.950 . S
H880 C856 0.950 . S
H881 C857 0.949 . S
H882 C859 0.950 . S
H883 C861 0.950 . S
C884 C885 1.349 . S
C884 C886 1.327 . S
C884 H909 0.950 . S
C885 C884 1.349 . S
C885 C901 1.349 . S
C886 C884 1.327 . S
C886 C905 1.429 . S
C886 H910 0.950 1_455 S
C887 C904 1.574 1_565 S
C887 C906 1.368 . S
C887 H911 0.949 . S
H888 C892 0.949 . S
C889 C890 1.349 . S
C889 C891 1.327 . S
C889 H912 0.950 . S
C890 C889 1.349 . S
C890 C902 1.349 . S
C891 C889 1.327 . S
C891 C907 1.429 . S
C891 H913 0.950 1_655 S
C892 H888 0.949 . S
C892 C900 1.574 1_545 S
C892 C908 1.368 . S
H893 C901 0.950 . S
H894 C899 0.950 . S
H895 C900 0.949 . S
H896 C902 0.950 . S
H897 C903 0.950 . S
H898 C904 0.949 . S
C899 H894 0.950 . S
C899 C901 1.327 . S
C899 C905 1.429 . S
C900 C892 1.574 1_565 S
C900 H895 0.949 . S
C900 C906 1.368 1_655 S
C901 C885 1.349 . S
C901 H893 0.950 . S
C901 C899 1.327 . S
C902 C890 1.349 . S
C902 H896 0.950 . S
C902 C903 1.327 . S
C903 H897 0.950 . S
C903 C902 1.327 . S
C903 C907 1.429 . S
C904 C887 1.574 1_545 S
C904 H898 0.949 . S
C904 C908 1.368 1_455 S
C905 C886 1.429 . S
C905 C899 1.429 . S
C905 C906 1.523 . S
C906 C887 1.368 . S
C906 C900 1.368 1_455 S
C906 C905 1.523 . S
C907 C891 1.429 . S
C907 C903 1.429 . S
C907 C908 1.523 . S
C908 C892 1.368 . S
C908 C904 1.368 1_655 S
C908 C907 1.523 . S
H909 C884 0.950 . S
H910 C886 0.950 1_655 S
H911 C887 0.949 . S
H912 C889 0.950 . S
H913 C891 0.950 1_455 S
C914 C915 1.349 . S
C914 C916 1.327 . S
C914 H939 0.950 . S
C915 C914 1.349 . S
C915 C931 1.349 1_545 S
C916 C914 1.327 . S
C916 C935 1.429 . S
C916 H940 0.950 . S
C917 C934 1.574 . S
C917 C936 1.368 1_565 S
C917 H941 0.949 . S
H918 C922 0.949 . S
C919 C920 1.349 . S
C919 C921 1.327 . S
C919 H942 0.950 . S
C920 C919 1.349 . S
C920 C932 1.349 1_565 S
C921 C919 1.327 . S
C921 C937 1.429 . S
C921 H943 0.950 . S
C922 H918 0.949 . S
C922 C930 1.574 . S
C922 C938 1.368 1_545 S
H923 C931 0.950 . S
H924 C929 0.950 . S
H925 C930 0.949 . S
H926 C932 0.950 . S
H927 C933 0.950 . S
H928 C934 0.949 . S
C929 H924 0.950 . S
C929 C931 1.327 . S
C929 C935 1.429 1_565 S
C930 C922 1.574 . S
C930 H925 0.949 . S
C930 C936 1.368 . S
C931 C915 1.349 1_565 S
C931 H923 0.950 . S
C931 C929 1.327 . S
C932 C920 1.349 1_545 S
C932 H926 0.950 . S
C932 C933 1.327 . S
C933 H927 0.950 . S
C933 C932 1.327 . S
C933 C937 1.429 1_545 S
C934 C917 1.574 . S
C934 H928 0.949 . S
C934 C938 1.368 . S
C935 C916 1.429 . S
C935 C929 1.429 1_545 S
C935 C936 1.523 . S
C936 C917 1.368 1_545 S
C936 C930 1.368 . S
C936 C935 1.523 . S
C937 C921 1.429 . S
C937 C933 1.429 1_565 S
C937 C938 1.523 . S
C938 C922 1.368 1_565 S
C938 C934 1.368 . S
C938 C937 1.523 . S
H939 C914 0.950 . S
H940 C916 0.950 . S
H941 C917 0.949 . S
H942 C919 0.950 . S
H943 C921 0.950 . S
C944 C945 1.349 . S
C944 C946 1.327 . S
C944 H969 0.950 . S
C945 C944 1.349 . S
C945 C961 1.349 . S
C946 C944 1.327 . S
C946 C965 1.429 . S
C946 H970 0.950 . S
C947 C964 1.574 . S
C947 C966 1.368 . S
C947 H971 0.949 . S
H948 C952 0.949 . S
C949 C950 1.349 . S
C949 C951 1.327 . S
C949 H972 0.950 . S
C950 C949 1.349 . S
C950 C962 1.349 . S
C951 C949 1.327 . S
C951 C967 1.429 . S
C951 H973 0.950 . S
C952 H948 0.949 . S
C952 C960 1.574 . S
C952 C968 1.368 . S
H953 C961 0.950 . S
H954 C959 0.950 . S
H955 C960 0.949 . S
H956 C962 0.950 . S
H957 C963 0.950 . S
H958 C964 0.949 . S
C959 H954 0.950 . S
C959 C961 1.327 . S
C959 C965 1.429 . S
C960 C952 1.574 . S
C960 H955 0.949 . S
C960 C966 1.368 . S
C961 C945 1.349 . S
C961 H953 0.950 . S
C961 C959 1.327 . S
C962 C950 1.349 . S
C962 H956 0.950 . S
C962 C963 1.327 . S
C963 H957 0.950 . S
C963 C962 1.327 . S
C963 C967 1.429 . S
C964 C947 1.574 . S
C964 H958 0.949 . S
C964 C968 1.368 . S
C965 C946 1.429 . S
C965 C959 1.429 . S
C965 C966 1.523 . S
C966 C947 1.368 . S
C966 C960 1.368 . S
C966 C965 1.523 . S
C967 C951 1.429 . S
C967 C963 1.429 . S
C967 C968 1.523 . S
C968 C952 1.368 . S
C968 C964 1.368 . S
C968 C967 1.523 . S
H969 C944 0.950 . S
H970 C946 0.950 . S
H971 C947 0.949 . S
H972 C949 0.950 . S
H973 C951 0.950 . S
C974 C975 1.349 . S
C974 C976 1.327 . S
C974 H999 0.950 . S
C975 C974 1.349 . S
C975 C991 1.349 . S
C976 C974 1.327 . S
C976 C995 1.429 . S
C976 H1000 0.950 . S
C977 C994 1.574 . S
C977 C996 1.368 . S
C977 H1001 0.949 . S
H978 C982 0.949 . S
C979 C980 1.349 . S
C979 C981 1.327 . S
C979 H1002 0.950 . S
C980 C979 1.349 . S
C980 C992 1.349 . S
C981 C979 1.327 . S
C981 C997 1.429 . S
C981 H1003 0.950 . S
C982 H978 0.949 . S
C982 C990 1.574 . S
C982 C998 1.368 . S
H983 C991 0.950 . S
H984 C989 0.950 . S
H985 C990 0.949 . S
H986 C992 0.950 . S
H987 C993 0.950 . S
H988 C994 0.949 . S
C989 H984 0.950 . S
C989 C991 1.327 . S
C989 C995 1.429 . S
C990 C982 1.574 . S
C990 H985 0.949 . S
C990 C996 1.368 . S
C991 C975 1.349 . S
C991 H983 0.950 . S
C991 C989 1.327 . S
C992 C980 1.349 . S
C992 H986 0.950 . S
C992 C993 1.327 . S
C993 H987 0.950 . S
C993 C992 1.327 . S
C993 C997 1.429 . S
C994 C977 1.574 . S
C994 H988 0.949 . S
C994 C998 1.368 . S
C995 C976 1.429 . S
C995 C989 1.429 . S
C995 C996 1.523 . S
C996 C977 1.368 . S
C996 C990 1.368 . S
C996 C995 1.523 . S
C997 C981 1.429 . S
C997 C993 1.429 . S
C997 C998 1.523 . S
C998 C982 1.368 . S
C998 C994 1.368 . S
C998 C997 1.523 . S
H999 C974 0.950 . S
H1000 C976 0.950 . S
H1001 C977 0.949 . S
H1002 C979 0.950 . S
H1003 C981 0.950 . S
C1004 C1005 1.349 . S
C1004 C1006 1.327 . S
C1004 H1029 0.950 . S
C1005 C1004 1.349 . S
C1005 C1021 1.349 . S
C1006 C1004 1.327 . S
C1006 C1025 1.429 . S
C1006 H1030 0.950 . S
C1007 C1024 1.574 . S
C1007 C1026 1.368 . S
C1007 H1031 0.949 . S
H1008 C1012 0.949 . S
C1009 C1010 1.349 . S
C1009 C1011 1.327 . S
C1009 H1032 0.950 . S
C1010 C1009 1.349 . S
C1010 C1022 1.349 . S
C1011 C1009 1.327 . S
C1011 C1027 1.429 . S
C1011 H1033 0.950 . S
C1012 H1008 0.949 . S
C1012 C1020 1.574 . S
C1012 C1028 1.368 . S
H1013 C1021 0.950 . S
H1014 C1019 0.950 . S
H1015 C1020 0.949 . S
H1016 C1022 0.950 . S
H1017 C1023 0.950 . S
H1018 C1024 0.949 . S
C1019 H1014 0.950 . S
C1019 C1021 1.327 . S
C1019 C1025 1.429 . S
C1020 C1012 1.574 . S
C1020 H1015 0.949 . S
C1020 C1026 1.368 . S
C1021 C1005 1.349 . S
C1021 H1013 0.950 . S
C1021 C1019 1.327 . S
C1022 C1010 1.349 . S
C1022 H1016 0.950 . S
C1022 C1023 1.327 . S
C1023 H1017 0.950 . S
C1023 C1022 1.327 . S
C1023 C1027 1.429 . S
C1024 C1007 1.574 . S
C1024 H1018 0.949 . S
C1024 C1028 1.368 . S
C1025 C1006 1.429 . S
C1025 C1019 1.429 . S
C1025 C1026 1.523 . S
C1026 C1007 1.368 . S
C1026 C1020 1.368 . S
C1026 C1025 1.523 . S
C1027 C1011 1.429 . S
C1027 C1023 1.429 . S
C1027 C1028 1.523 . S
C1028 C1012 1.368 . S
C1028 C1024 1.368 . S
C1028 C1027 1.523 . S
H1029 C1004 0.950 . S
H1030 C1006 0.950 . S
H1031 C1007 0.949 . S
H1032 C1009 0.950 . S
H1033 C1011 0.950 . S
C1034 C1035 1.349 . S
C1034 C1036 1.327 . S
C1034 H1059 0.950 . S
C1035 C1034 1.349 . S
C1035 C1051 1.349 . S
C1036 C1034 1.327 . S
C1036 C1055 1.429 . S
C1036 H1060 0.950 . S
C1037 C1054 1.574 . S
C1037 C1056 1.368 . S
C1037 H1061 0.949 . S
H1038 C1042 0.949 . S
C1039 C1040 1.349 . S
C1039 C1041 1.327 . S
C1039 H1062 0.950 . S
C1040 C1039 1.349 . S
C1040 C1052 1.349 . S
C1041 C1039 1.327 . S
C1041 C1057 1.429 . S
C1041 H1063 0.950 . S
C1042 H1038 0.949 . S
C1042 C1050 1.574 . S
C1042 C1058 1.368 . S
H1043 C1051 0.950 . S
H1044 C1049 0.950 . S
H1045 C1050 0.949 . S
H1046 C1052 0.950 . S
H1047 C1053 0.950 . S
H1048 C1054 0.949 . S
C1049 H1044 0.950 . S
C1049 C1051 1.327 . S
C1049 C1055 1.429 . S
C1050 C1042 1.574 . S
C1050 H1045 0.949 . S
C1050 C1056 1.368 . S
C1051 C1035 1.349 . S
C1051 H1043 0.950 . S
C1051 C1049 1.327 . S
C1052 C1040 1.349 . S
C1052 H1046 0.950 . S
C1052 C1053 1.327 . S
C1053 H1047 0.950 . S
C1053 C1052 1.327 . S
C1053 C1057 1.429 . S
C1054 C1037 1.574 . S
C1054 H1048 0.949 . S
C1054 C1058 1.368 . S
C1055 C1036 1.429 . S
C1055 C1049 1.429 . S
C1055 C1056 1.523 . S
C1056 C1037 1.368 . S
C1056 C1050 1.368 . S
C1056 C1055 1.523 . S
C1057 C1041 1.429 . S
C1057 C1053 1.429 . S
C1057 C1058 1.523 . S
C1058 C1042 1.368 . S
C1058 C1054 1.368 . S
C1058 C1057 1.523 . S
H1059 C1034 0.950 . S
H1060 C1036 0.950 . S
H1061 C1037 0.949 . S
H1062 C1039 0.950 . S
H1063 C1041 0.950 . S
C1064 C1065 1.349 . S
C1064 C1066 1.327 . S
C1064 H1089 0.950 . S
C1065 C1064 1.349 . S
C1065 C1081 1.349 . S
C1066 C1064 1.327 . S
C1066 C1085 1.429 . S
C1066 H1090 0.950 . S
C1067 C1084 1.574 . S
C1067 C1086 1.368 . S
C1067 H1091 0.949 . S
H1068 C1072 0.949 . S
C1069 C1070 1.349 . S
C1069 C1071 1.327 . S
C1069 H1092 0.950 . S
C1070 C1069 1.349 . S
C1070 C1082 1.349 . S
C1071 C1069 1.327 . S
C1071 C1087 1.429 . S
C1071 H1093 0.950 . S
C1072 H1068 0.949 . S
C1072 C1080 1.574 . S
C1072 C1088 1.368 . S
H1073 C1081 0.950 . S
H1074 C1079 0.950 . S
H1075 C1080 0.949 . S
H1076 C1082 0.950 . S
H1077 C1083 0.950 . S
H1078 C1084 0.949 . S
C1079 H1074 0.950 . S
C1079 C1081 1.327 . S
C1079 C1085 1.429 . S
C1080 C1072 1.574 . S
C1080 H1075 0.949 . S
C1080 C1086 1.368 . S
C1081 C1065 1.349 . S
C1081 H1073 0.950 . S
C1081 C1079 1.327 . S
C1082 C1070 1.349 . S
C1082 H1076 0.950 . S
C1082 C1083 1.327 . S
C1083 H1077 0.950 . S
C1083 C1082 1.327 . S
C1083 C1087 1.429 . S
C1084 C1067 1.574 . S
C1084 H1078 0.949 . S
C1084 C1088 1.368 . S
C1085 C1066 1.429 . S
C1085 C1079 1.429 . S
C1085 C1086 1.523 . S
C1086 C1067 1.368 . S
C1086 C1080 1.368 . S
C1086 C1085 1.523 . S
C1087 C1071 1.429 . S
C1087 C1083 1.429 . S
C1087 C1088 1.523 . S
C1088 C1072 1.368 . S
C1088 C1084 1.368 . S
C1088 C1087 1.523 . S
H1089 C1064 0.950 . S
H1090 C1066 0.950 . S
H1091 C1067 0.949 . S
H1092 C1069 0.950 . S
H1093 C1071 0.950 . S
C1094 C1095 1.349 . S
C1094 C1096 1.327 . S
C1094 H1119 0.950 . S
C1095 C1094 1.349 . S
C1095 C1111 1.349 . S
C1096 C1094 1.327 . S
C1096 C1115 1.429 . S
C1096 H1120 0.950 . S
C1097 C1114 1.574 . S
C1097 C1116 1.368 . S
C1097 H1121 0.949 . S
H1098 C1102 0.949 . S
C1099 C1100 1.349 . S
C1099 C1101 1.327 . S
C1099 H1122 0.950 . S
C1100 C1099 1.349 . S
C1100 C1112 1.349 . S
C1101 C1099 1.327 . S
C1101 C1117 1.429 . S
C1101 H1123 0.950 . S
C1102 H1098 0.949 . S
C1102 C1110 1.574 . S
C1102 C1118 1.368 . S
H1103 C1111 0.950 . S
H1104 C1109 0.950 . S
H1105 C1110 0.949 . S
H1106 C1112 0.950 . S
H1107 C1113 0.950 . S
H1108 C1114 0.949 . S
C1109 H1104 0.950 . S
C1109 C1111 1.327 . S
C1109 C1115 1.429 . S
C1110 C1102 1.574 . S
C1110 H1105 0.949 . S
C1110 C1116 1.368 . S
C1111 C1095 1.349 . S
C1111 H1103 0.950 . S
C1111 C1109 1.327 . S
C1112 C1100 1.349 . S
C1112 H1106 0.950 . S
C1112 C1113 1.327 . S
C1113 H1107 0.950 . S
C1113 C1112 1.327 . S
C1113 C1117 1.429 . S
C1114 C1097 1.574 . S
C1114 H1108 0.949 . S
C1114 C1118 1.368 . S
C1115 C1096 1.429 . S
C1115 C1109 1.429 . S
C1115 C1116 1.523 . S
C1116 C1097 1.368 . S
C1116 C1110 1.368 . S
C1116 C1115 1.523 . S
C1117 C1101 1.429 . S
C1117 C1113 1.429 . S
C1117 C1118 1.523 . S
C1118 C1102 1.368 . S
C1118 C1114 1.368 . S
C1118 C1117 1.523 . S
H1119 C1094 0.950 . S
H1120 C1096 0.950 . S
H1121 C1097 0.949 . S
H1122 C1099 0.950 . S
H1123 C1101 0.950 . S
C1124 C1125 1.349 . S
C1124 C1126 1.327 . S
C1124 H1149 0.950 . S
C1125 C1124 1.349 . S
C1125 C1141 1.349 . S
C1126 C1124 1.327 . S
C1126 C1145 1.429 . S
C1126 H1150 0.950 . S
C1127 C1144 1.574 . S
C1127 C1146 1.368 . S
C1127 H1151 0.949 . S
H1128 C1132 0.949 . S
C1129 C1130 1.349 . S
C1129 C1131 1.327 . S
C1129 H1152 0.950 . S
C1130 C1129 1.349 . S
C1130 C1142 1.349 . S
C1131 C1129 1.327 . S
C1131 C1147 1.429 . S
C1131 H1153 0.950 . S
C1132 H1128 0.949 . S
C1132 C1140 1.574 . S
C1132 C1148 1.368 . S
H1133 C1141 0.950 . S
H1134 C1139 0.950 . S
H1135 C1140 0.949 . S
H1136 C1142 0.950 . S
H1137 C1143 0.950 . S
H1138 C1144 0.949 . S
C1139 H1134 0.950 . S
C1139 C1141 1.327 . S
C1139 C1145 1.429 . S
C1140 C1132 1.574 . S
C1140 H1135 0.949 . S
C1140 C1146 1.368 . S
C1141 C1125 1.349 . S
C1141 H1133 0.950 . S
C1141 C1139 1.327 . S
C1142 C1130 1.349 . S
C1142 H1136 0.950 . S
C1142 C1143 1.327 . S
C1143 H1137 0.950 . S
C1143 C1142 1.327 . S
C1143 C1147 1.429 . S
C1144 C1127 1.574 . S
C1144 H1138 0.949 . S
C1144 C1148 1.368 . S
C1145 C1126 1.429 . S
C1145 C1139 1.429 . S
C1145 C1146 1.523 . S
C1146 C1127 1.368 . S
C1146 C1140 1.368 . S
C1146 C1145 1.523 . S
C1147 C1131 1.429 . S
C1147 C1143 1.429 . S
C1147 C1148 1.523 . S
C1148 C1132 1.368 . S
C1148 C1144 1.368 . S
C1148 C1147 1.523 . S
H1149 C1124 0.950 . S
H1150 C1126 0.950 . S
H1151 C1127 0.949 . S
H1152 C1129 0.950 . S
H1153 C1131 0.950 . S
C1154 C1155 1.349 . S
C1154 C1156 1.327 . S
C1154 H1179 0.950 . S
C1155 C1154 1.349 . S
C1155 C1171 1.349 . S
C1156 C1154 1.327 . S
C1156 C1175 1.429 . S
C1156 H1180 0.950 . S
C1157 C1174 1.574 . S
C1157 C1176 1.368 . S
C1157 H1181 0.949 . S
H1158 C1162 0.949 . S
C1159 C1160 1.349 . S
C1159 C1161 1.327 . S
C1159 H1182 0.950 . S
C1160 C1159 1.349 . S
C1160 C1172 1.349 . S
C1161 C1159 1.327 . S
C1161 C1177 1.429 . S
C1161 H1183 0.950 . S
C1162 H1158 0.949 . S
C1162 C1170 1.574 . S
C1162 C1178 1.368 . S
H1163 C1171 0.950 . S
H1164 C1169 0.950 . S
H1165 C1170 0.949 . S
H1166 C1172 0.950 . S
H1167 C1173 0.950 . S
H1168 C1174 0.949 . S
C1169 H1164 0.950 . S
C1169 C1171 1.327 . S
C1169 C1175 1.429 . S
C1170 C1162 1.574 . S
C1170 H1165 0.949 . S
C1170 C1176 1.368 . S
C1171 C1155 1.349 . S
C1171 H1163 0.950 . S
C1171 C1169 1.327 . S
C1172 C1160 1.349 . S
C1172 H1166 0.950 . S
C1172 C1173 1.327 . S
C1173 H1167 0.950 . S
C1173 C1172 1.327 . S
C1173 C1177 1.429 . S
C1174 C1157 1.574 . S
C1174 H1168 0.949 . S
C1174 C1178 1.368 . S
C1175 C1156 1.429 . S
C1175 C1169 1.429 . S
C1175 C1176 1.523 . S
C1176 C1157 1.368 . S
C1176 C1170 1.368 . S
C1176 C1175 1.523 . S
C1177 C1161 1.429 . S
C1177 C1173 1.429 . S
C1177 C1178 1.523 . S
C1178 C1162 1.368 . S
C1178 C1174 1.368 . S
C1178 C1177 1.523 . S
H1179 C1154 0.950 . S
H1180 C1156 0.950 . S
H1181 C1157 0.949 . S
H1182 C1159 0.950 . S
H1183 C1161 0.950 . S
C225 C9 0.974 . S
C230 C134 0.996 . S
C255 C148 0.996 . S
C260 C23 0.974 . S
C285 C162 0.996 . S
C290 C37 0.974 . S
C315 C120 0.996 . S
C320 C51 0.974 . S
C345 C65 0.974 . S
C350 C218 0.996 . S
C375 C176 0.996 . S
C380 C79 0.974 . S
C405 C190 0.996 . S
C410 C93 0.974 . S
C435 C204 0.996 . S
C440 C107 0.974 . S
C465 C121 0.974 . S
C470 C22 0.996 . S
C495 C135 0.974 . S
C500 C36 0.996 . S
C525 C149 0.974 . S
C530 C50 0.996 . S
C555 C8 0.996 . S
C560 C163 0.974 . S
C585 C177 0.974 . S
C590 C106 0.996 . S
C615 C191 0.974 . S
C620 C64 0.996 . S
C645 C78 0.996 . S
C650 C205 0.974 . S
C675 C219 0.974 . S
C680 C92 0.996 . S
C705 C118 1.594 . S
C710 C6 1.594 . S
C735 C20 1.594 . S
C740 C132 1.594 . S
C765 C146 1.594 . S
C770 C34 1.594 . S
C795 C48 1.594 . S
C800 C160 1.594 . S
C825 C174 1.594 . S
C830 C62 1.594 . S
C855 C76 1.594 . S
C860 C188 1.594 . S
C885 C202 1.594 . S
C890 C90 1.594 . S
C915 C216 1.594 . S
C920 C104 1.594 . S
C945 C63 1.599 . S
C950 C7 1.599 . S
C975 C77 1.599 . S
C980 C21 1.599 . S
C1005 C35 1.599 . S
C1010 C91 1.599 . S
C1035 C105 1.599 . S
C1040 C49 1.599 . S
C1065 C119 1.599 . S
C1070 C175 1.599 . S
C1095 C189 1.599 . S
C1100 C133 1.599 . S
C1125 C203 1.599 . S
C1130 C147 1.599 . S
C1155 C217 1.599 . S
C1160 C161 1.599 . S
