# Generated by pormake.
# Topology umm, (4)-cn, num edge types: 1
# Building blocks:
#     Node 0, Type 0, BuildingBlock: CEKHIL_clean_sbu_0, # of connection points: 4
#     Node 1, Type 0, BuildingBlock: CEKHIL_clean_sbu_0, # of connection points: 4
#     Node 2, Type 0, BuildingBlock: CEKHIL_clean_sbu_0, # of connection points: 4
#     Node 3, Type 0, BuildingBlock: CEKHIL_clean_sbu_0, # of connection points: 4
#     Node 4, Type 0, BuildingBlock: CEKHIL_clean_sbu_0, # of connection points: 4
#     Node 5, Type 0, BuildingBlock: CEKHIL_clean_sbu_0, # of connection points: 4
#     Node 6, Type 0, BuildingBlock: CEKHIL_clean_sbu_0, # of connection points: 4
#     Node 7, Type 0, BuildingBlock: CEKHIL_clean_sbu_0, # of connection points: 4
#     Node 8, Type 0, BuildingBlock: CEKHIL_clean_sbu_0, # of connection points: 4
#     Node 9, Type 0, BuildingBlock: CEKHIL_clean_sbu_0, # of connection points: 4
#     Node 10, Type 0, BuildingBlock: CEKHIL_clean_sbu_0, # of connection points: 4
#     Node 11, Type 0, BuildingBlock: CEKHIL_clean_sbu_0, # of connection points: 4
#     Edge 12, Type (0, 0), BuildingBlock: EYOCIG_clean_linker_4, # of connection points: 2
#     Edge 13, Type (0, 0), BuildingBlock: EYOCIG_clean_linker_4, # of connection points: 2
#     Edge 14, Type (0, 0), BuildingBlock: EYOCIG_clean_linker_4, # of connection points: 2
#     Edge 15, Type (0, 0), BuildingBlock: EYOCIG_clean_linker_4, # of connection points: 2
#     Edge 16, Type (0, 0), BuildingBlock: EYOCIG_clean_linker_4, # of connection points: 2
#     Edge 17, Type (0, 0), BuildingBlock: EYOCIG_clean_linker_4, # of connection points: 2
#     Edge 18, Type (0, 0), BuildingBlock: EYOCIG_clean_linker_4, # of connection points: 2
#     Edge 19, Type (0, 0), BuildingBlock: EYOCIG_clean_linker_4, # of connection points: 2
#     Edge 20, Type (0, 0), BuildingBlock: EYOCIG_clean_linker_4, # of connection points: 2
#     Edge 21, Type (0, 0), BuildingBlock: EYOCIG_clean_linker_4, # of connection points: 2
#     Edge 22, Type (0, 0), BuildingBlock: EYOCIG_clean_linker_4, # of connection points: 2
#     Edge 23, Type (0, 0), BuildingBlock: EYOCIG_clean_linker_4, # of connection points: 2
#     Edge 24, Type (0, 0), BuildingBlock: EYOCIG_clean_linker_4, # of connection points: 2
#     Edge 25, Type (0, 0), BuildingBlock: EYOCIG_clean_linker_4, # of connection points: 2
#     Edge 26, Type (0, 0), BuildingBlock: EYOCIG_clean_linker_4, # of connection points: 2
#     Edge 27, Type (0, 0), BuildingBlock: EYOCIG_clean_linker_4, # of connection points: 2
#     Edge 28, Type (0, 0), BuildingBlock: EYOCIG_clean_linker_4, # of connection points: 2
#     Edge 29, Type (0, 0), BuildingBlock: EYOCIG_clean_linker_4, # of connection points: 2
#     Edge 30, Type (0, 0), BuildingBlock: EYOCIG_clean_linker_4, # of connection points: 2
#     Edge 31, Type (0, 0), BuildingBlock: EYOCIG_clean_linker_4, # of connection points: 2
#     Edge 32, Type (0, 0), BuildingBlock: EYOCIG_clean_linker_4, # of connection points: 2
#     Edge 33, Type (0, 0), BuildingBlock: EYOCIG_clean_linker_4, # of connection points: 2
#     Edge 34, Type (0, 0), BuildingBlock: EYOCIG_clean_linker_4, # of connection points: 2
#     Edge 35, Type (0, 0), BuildingBlock: EYOCIG_clean_linker_4, # of connection points: 2
# Relax obj value: 0.133
# Max RMSD: 0.387
# Mean RMSD: 0.251
data_MOF--net-umm--node1-CEKHIL_clean_sbu_0--edge1-EYOCIG_clean_linker_4
_symmetry_space_group_name_H-M    P1
_symmetry_Int_Tables_number       1
_symmetry_cell_setting            triclinic
loop_
_symmetry_equiv_pos_as_xyz
'x, y, z'
_cell_length_a     44.8174
_cell_length_b     41.36951
_cell_length_c     21.669053
_cell_angle_alpha  90.004092
_cell_angle_beta   90.011253
_cell_angle_gamma 117.52177
loop_
_atom_site_label
_atom_site_type_symbol
_atom_site_fract_x
_atom_site_fract_y
_atom_site_fract_z
_atom_type_partial_charge
Co0 Co 0.36941 0.5029 0.0772 0.0
O1 O 0.32664 0.50332 0.07492 0.0
O2 O 0.33584 0.46079 0.03069 0.0
C3 C 0.37929 0.51645 0.17788 0.0
O4 O 0.41313 0.49701 0.07277 0.0
Co5 Co 0.42942 0.57892 0.10242 0.0
O6 O 0.45548 0.55116 0.10384 0.0
C7 C 0.39956 0.56288 0.97995 0.0
C8 C 0.31539 0.47477 0.0405 0.0
C9 C 0.44457 0.51826 0.08625 0.0
O10 O 0.38166 0.53013 -0.00226 0.0
O11 O 0.41918 0.58855 0.01558 0.0
O12 O 0.36094 0.48294 0.16062 0.0
O13 O 0.38752 0.54075 0.13493 0.0
Co14 Co 0.8638 0.38035 0.41467 0.0
O15 O 0.82022 0.33749 0.40997 0.0
O16 O 0.8677 0.3389 0.37908 0.0
C17 C 0.85869 0.39695 0.51205 0.0
O18 O 0.91363 0.41998 0.41404 0.0
Co19 Co 0.86667 0.45662 0.42821 0.0
O20 O 0.91575 0.47416 0.43809 0.0
C21 C 0.85043 0.42021 0.30773 0.0
C22 C 0.83518 0.32043 0.38514 0.0
C23 C 0.93007 0.45453 0.42607 0.0
O24 O 0.85689 0.39522 0.32935 0.0
O25 O 0.85035 0.44591 0.3404 0.0
O26 O 0.86783 0.3718 0.50254 0.0
O27 O 0.84948 0.40824 0.46363 0.0
Co28 Co 0.42817 0.83921 0.74159 0.0
O29 O 0.41001 0.78709 0.73647 0.0
O30 O 0.46193 0.82714 0.70936 0.0
C31 C 0.40976 0.84223 0.83617 0.0
O32 O 0.45562 0.89458 0.74188 0.0
Co33 Co 0.37952 0.87317 0.74653 0.0
O34 O 0.42116 0.91944 0.7611 0.0
C35 C 0.38925 0.84422 0.62969 0.0
C36 C 0.43891 0.7934 0.71344 0.0
C37 C 0.4503 0.92206 0.75274 0.0
O38 O 0.41284 0.83987 0.65517 0.0
O39 O 0.37054 0.85492 0.65864 0.0
O40 O 0.4369 0.83877 0.82909 0.0
O41 O 0.39232 0.83923 0.78685 0.0
Co42 Co 0.65812 0.51059 0.07664 0.0
O43 O 0.70076 0.50986 0.07441 0.0
O44 O 0.69198 0.55283 0.0308 0.0
C45 C 0.64796 0.49656 0.17707 0.0
O46 O 0.61456 0.51683 0.07229 0.0
Co47 Co 0.59777 0.43463 0.1007 0.0
O48 O 0.57199 0.46268 0.10269 0.0
C49 C 0.628 0.4511 0.97857 0.0
C50 C 0.71225 0.53861 0.04045 0.0
C51 C 0.58308 0.49567 0.08557 0.0
O52 O 0.64593 0.48376 -0.00322 0.0
O53 O 0.60823 0.42532 0.01383 0.0
O54 O 0.6665 0.53013 0.16035 0.0
O55 O 0.6397 0.47246 0.13376 0.0
Co56 Co 0.16433 0.63304 0.41427 0.0
O57 O 0.20783 0.67599 0.40949 0.0
O58 O 0.16026 0.67434 0.37849 0.0
C59 C 0.16952 0.61663 0.51172 0.0
O60 O 0.11455 0.59326 0.41371 0.0
Co61 Co 0.16174 0.55691 0.42813 0.0
O62 O 0.11264 0.53921 0.43803 0.0
C63 C 0.17788 0.59318 0.30756 0.0
C64 C 0.19277 0.69293 0.38456 0.0
C65 C 0.09821 0.55872 0.42589 0.0
O66 O 0.1713 0.6181 0.32905 0.0
O67 O 0.17807 0.56758 0.34034 0.0
O68 O 0.16028 0.64169 0.50207 0.0
O69 O 0.17878 0.60533 0.46337 0.0
Co70 Co 0.60003 0.17419 0.74138 0.0
O71 O 0.61816 0.22632 0.7363 0.0
O72 O 0.56618 0.18625 0.70953 0.0
C73 C 0.61865 0.17118 0.83579 0.0
O74 O 0.57258 0.11883 0.74171 0.0
Co75 Co 0.6487 0.14026 0.7457 0.0
O76 O 0.6071 0.09398 0.76052 0.0
C77 C 0.63862 0.16913 0.62905 0.0
C78 C 0.5892 0.22 0.71353 0.0
C79 C 0.57793 0.09135 0.75242 0.0
O80 O 0.61512 0.17352 0.65481 0.0
O81 O 0.65741 0.15843 0.65775 0.0
O82 O 0.5915 0.17465 0.82896 0.0
O83 O 0.63599 0.17419 0.78632 0.0
Co84 Co 0.42795 0.58799 0.56795 0.0
O85 O 0.40992 0.62205 0.573 0.0
O86 O 0.46169 0.63371 0.60072 0.0
C87 C 0.40984 0.56684 0.47308 0.0
O88 O 0.4553 0.56 0.56786 0.0
Co89 Co 0.37919 0.5054 0.56222 0.0
O90 O 0.42082 0.5007 0.54815 0.0
C91 C 0.38849 0.54383 0.67921 0.0
C92 C 0.43876 0.64453 0.59642 0.0
C93 C 0.44996 0.5272 0.55687 0.0
O94 O 0.41229 0.57178 0.65412 0.0
O95 O 0.36981 0.51451 0.64994 0.0
O96 O 0.43701 0.59739 0.48057 0.0
O97 O 0.39221 0.55228 0.52216 0.0
Co98 Co 0.86388 0.48331 0.89468 0.0
O99 O 0.82034 0.48262 0.8996 0.0
O100 O 0.86786 0.5286 0.93075 0.0
C101 C 0.85872 0.46186 0.79709 0.0
O102 O 0.91369 0.49344 0.89516 0.0
Co103 Co 0.86657 0.40984 0.88033 0.0
O104 O 0.91566 0.44137 0.87048 0.0
C105 C 0.85042 0.42972 0.0011 0.0
C106 C 0.83534 0.51459 0.92471 0.0
C107 C 0.93006 0.4753 0.88281 0.0
O108 O 0.85695 0.46125 0.97979 0.0
O109 O 0.85026 0.404 0.96815 0.0
O110 O 0.86792 0.49615 0.80691 0.0
O111 O 0.84949 0.44122 0.84535 0.0
Co112 Co 0.3696 0.86614 0.23183 0.0
O113 O 0.32688 0.82285 0.23429 0.0
O114 O 0.33609 0.87458 0.27861 0.0
C115 C 0.37927 0.8625 0.13106 0.0
O116 O 0.41325 0.91586 0.23611 0.0
Co117 Co 0.4297 0.85043 0.20594 0.0
O118 O 0.45561 0.90428 0.20453 0.0
C119 C 0.4002 0.8366 0.32872 0.0
C120 C 0.31566 0.84013 0.26881 0.0
C121 C 0.44467 0.92617 0.22239 0.0
O122 O 0.38209 0.85123 0.31112 0.0
O123 O 0.41982 0.83071 0.2929 0.0
O124 O 0.36091 0.87758 0.14852 0.0
O125 O 0.38764 0.84649 0.17388 0.0
Co126 Co 0.59975 0.42511 0.56732 0.0
O127 O 0.61779 0.39105 0.57258 0.0
O128 O 0.56613 0.37954 0.6008 0.0
C129 C 0.61749 0.44579 0.47213 0.0
O130 O 0.57242 0.45312 0.56718 0.0
Co131 Co 0.64852 0.50769 0.56031 0.0
O132 O 0.60683 0.51233 0.54669 0.0
C133 C 0.63959 0.46987 0.67782 0.0
C134 C 0.58903 0.36869 0.59642 0.0
C135 C 0.57772 0.48588 0.55593 0.0
O136 O 0.61576 0.44175 0.65318 0.0
O137 O 0.65814 0.49906 0.64814 0.0
O138 O 0.59034 0.41528 0.48011 0.0
O139 O 0.6353 0.46059 0.52094 0.0
Co140 Co 0.16417 0.53042 0.89442 0.0
O141 O 0.20763 0.53093 0.8993 0.0
O142 O 0.16004 0.48505 0.93039 0.0
C143 C 0.16939 0.55194 0.7969 0.0
O144 O 0.11441 0.52049 0.89494 0.0
Co145 Co 0.16175 0.60404 0.88028 0.0
O146 O 0.11263 0.57268 0.87045 0.0
C147 C 0.17785 0.584 0.00096 0.0
C148 C 0.19254 0.49895 0.92434 0.0
C149 C 0.09814 0.53874 0.88269 0.0
O150 O 0.17119 0.55244 0.97957 0.0
O151 O 0.1781 0.60978 0.96807 0.0
O152 O 0.16008 0.51762 0.80665 0.0
O153 O 0.17869 0.57255 0.8452 0.0
Co154 Co 0.65832 0.14724 0.23168 0.0
O155 O 0.70105 0.19052 0.2343 0.0
O156 O 0.69173 0.13882 0.27885 0.0
C157 C 0.64885 0.15081 0.13077 0.0
O158 O 0.61465 0.09755 0.23588 0.0
Co159 Co 0.59829 0.16294 0.20509 0.0
O160 O 0.57233 0.1091 0.20391 0.0
C161 C 0.62751 0.17681 0.32812 0.0
C162 C 0.7122 0.17326 0.26905 0.0
C163 C 0.58325 0.08723 0.22201 0.0
O164 O 0.6457 0.16224 0.31074 0.0
O165 O 0.60793 0.18264 0.29209 0.0
O166 O 0.66715 0.13572 0.14852 0.0
O167 O 0.6404 0.16687 0.17341 0.0
C168 C 0.39045 0.53253 0.29631 0.0
C169 C 0.38566 0.52584 0.24198 0.0
C170 C 0.39509 0.5412 0.35978 0.0
C171 C 0.40011 0.55112 0.41279 0.0
C172 C 0.85912 0.42302 0.62427 0.0
C173 C 0.85885 0.41129 0.57293 0.0
C174 C 0.85913 0.43641 0.6847 0.0
C175 C 0.85888 0.44783 0.73609 0.0
C176 C 0.39488 0.8534 0.94917 0.0
C177 C 0.39994 0.84838 0.89625 0.0
C178 C 0.39025 0.85754 0.01258 0.0
C179 C 0.38552 0.85949 0.06691 0.0
C180 C 0.63652 0.47998 0.29525 0.0
C181 C 0.64142 0.48686 0.24101 0.0
C182 C 0.63187 0.47121 0.35866 0.0
C183 C 0.62695 0.46132 0.41168 0.0
C184 C 0.16914 0.59074 0.62403 0.0
C185 C 0.1694 0.60239 0.57265 0.0
C186 C 0.16911 0.57742 0.68451 0.0
C187 C 0.16931 0.56602 0.73592 0.0
C188 C 0.63818 0.15581 0.01214 0.0
C189 C 0.64278 0.15384 0.06653 0.0
C190 C 0.63364 0.15998 0.94869 0.0
C191 C 0.62859 0.16501 0.89577 0.0
C192 C 0.25829 0.46363 0.9874 0.0
C193 C 0.28393 0.46431 0.00772 0.0
C194 C 0.23168 0.47065 0.9653 0.0
C195 C 0.21195 0.48144 0.94796 0.0
C196 C 0.79586 0.25293 0.34448 0.0
C197 C 0.81565 0.28347 0.36171 0.0
C198 C 0.76922 0.21928 0.32242 0.0
C199 C 0.74359 0.19431 0.302 0.0
C200 C 0.44609 0.7383 0.66768 0.0
C201 C 0.44386 0.76421 0.68804 0.0
C202 C 0.44604 0.70682 0.6424 0.0
C203 C 0.44374 0.67866 0.62195 0.0
C204 C 0.76945 0.54973 -0.01222 0.0
C205 C 0.74379 0.54908 0.00798 0.0
C206 C 0.79608 0.54273 0.96573 0.0
C207 C 0.81585 0.532 0.94836 0.0
C208 C 0.23195 0.76043 0.34386 0.0
C209 C 0.2122 0.72988 0.36108 0.0
C210 C 0.25857 0.7941 0.32187 0.0
C211 C 0.28421 0.81909 0.30157 0.0
C212 C 0.5819 0.27508 0.66802 0.0
C213 C 0.58419 0.24918 0.68827 0.0
C214 C 0.58187 0.30652 0.64275 0.0
C215 C 0.58411 0.33462 0.62216 0.0
C216 C 0.49741 0.50593 0.07705 0.0
C217 C 0.47059 0.50683 0.07884 0.0
C218 C 0.53042 0.50834 0.07693 0.0
C219 C 0.55721 0.50735 0.07849 0.0
C220 C 0.99667 0.49375 0.42356 0.0
C221 C 0.96656 0.47342 0.42362 0.0
C222 C 0.03162 0.51935 0.42351 0.0
C223 C 0.06172 0.53972 0.4235 0.0
C224 C 0.52716 0.02482 0.75456 0.0
C225 C 0.54982 0.05552 0.75332 0.0
C226 C 0.5011 0.98859 0.75462 0.0
C227 C 0.47843 0.95788 0.7535 0.0
C228 C 0.50078 0.51157 0.55509 0.0
C229 C 0.47807 0.51951 0.55617 0.0
C230 C 0.52692 0.50155 0.55488 0.0
C231 C 0.54963 0.49359 0.55563 0.0
C232 C 0.03157 0.5117 0.88521 0.0
C233 C 0.06164 0.52132 0.88517 0.0
C234 C 0.99664 0.5025 0.88525 0.0
C235 C 0.96656 0.49283 0.88527 0.0
C236 C 0.49743 0.99142 0.23156 0.0
C237 C 0.47063 0.96366 0.22984 0.0
C238 C 0.53045 0.02202 0.23149 0.0
C239 C 0.55726 0.04976 0.22965 0.0
C240 C 0.38631 0.55425 0.79812 0.0
C241 C 0.38459 0.54615 0.74437 0.0
C242 C 0.39266 0.56462 0.86067 0.0
C243 C 0.39853 0.56881 0.91514 0.0
C244 C 0.84213 0.42018 0.18699 0.0
C245 C 0.84582 0.42086 0.24221 0.0
C246 C 0.84213 0.4212 0.1218 0.0
C247 C 0.8458 0.42428 0.06658 0.0
C248 C 0.38744 0.83194 0.51067 0.0
C249 C 0.38564 0.83819 0.56445 0.0
C250 C 0.39372 0.82804 0.44805 0.0
C251 C 0.39942 0.82973 0.39352 0.0
C252 C 0.64184 0.45998 0.79683 0.0
C253 C 0.6436 0.46794 0.74302 0.0
C254 C 0.63531 0.44966 0.85935 0.0
C255 C 0.62926 0.44539 0.91375 0.0
C256 C 0.18622 0.59236 0.12166 0.0
C257 C 0.18252 0.58939 0.06643 0.0
C258 C 0.18622 0.59326 0.18685 0.0
C259 C 0.18253 0.59251 0.24207 0.0
C260 C 0.64015 0.18138 0.51005 0.0
C261 C 0.64206 0.17514 0.5638 0.0
C262 C 0.63382 0.18532 0.44746 0.0
C263 C 0.62816 0.18367 0.3929 0.0
loop_
_geom_bond_atom_site_label_1
_geom_bond_atom_site_label_2
_geom_bond_distance
_geom_bond_site_symmetry_2
_ccdc_geom_bond_type
Co0 O1 2.216 . S
Co0 O2 2.091 . S
Co0 O4 2.004 . S
Co0 O10 2.021 1_554 S
Co0 O12 2.137 . S
Co0 O13 2.244 . S
O1 Co0 2.216 . S
O1 C8 1.247 . S
O2 Co0 2.091 . S
O2 C8 1.261 . S
C3 O12 1.247 . S
C3 O13 1.272 . S
O4 Co0 2.004 . S
O4 C9 1.259 . S
Co5 O6 2.061 . S
Co5 O11 2.052 . S
Co5 O13 2.135 . S
O6 Co5 2.061 . S
O6 C9 1.235 . S
C7 O10 1.238 . S
C7 O11 1.241 1_556 S
C8 O1 1.247 . S
C8 O2 1.261 . S
C9 O4 1.259 . S
C9 O6 1.235 . S
O10 Co0 2.021 1_556 S
O10 C7 1.238 . S
O11 Co5 2.052 . S
O11 C7 1.241 1_554 S
O12 Co0 2.137 . S
O12 C3 1.247 . S
O13 Co0 2.244 . S
O13 C3 1.272 . S
O13 Co5 2.135 . S
Co14 O15 2.216 . S
Co14 O16 2.091 . S
Co14 O18 2.004 . S
Co14 O24 2.021 . S
Co14 O26 2.137 . S
Co14 O27 2.244 . S
O15 Co14 2.216 . S
O15 C22 1.247 . S
O16 Co14 2.091 . S
O16 C22 1.261 . S
C17 O26 1.247 . S
C17 O27 1.272 . S
O18 Co14 2.004 . S
O18 C23 1.259 . S
Co19 O20 2.061 . S
Co19 O25 2.052 . S
Co19 O27 2.135 . S
O20 Co19 2.061 . S
O20 C23 1.235 . S
C21 O24 1.238 . S
C21 O25 1.241 . S
C22 O15 1.247 . S
C22 O16 1.261 . S
C23 O18 1.259 . S
C23 O20 1.235 . S
O24 Co14 2.021 . S
O24 C21 1.238 . S
O25 Co19 2.052 . S
O25 C21 1.241 . S
O26 Co14 2.137 . S
O26 C17 1.247 . S
O27 Co14 2.244 . S
O27 C17 1.272 . S
O27 Co19 2.135 . S
Co28 O29 2.216 . S
Co28 O30 2.091 . S
Co28 O32 2.004 . S
Co28 O38 2.021 . S
Co28 O40 2.137 . S
Co28 O41 2.244 . S
O29 Co28 2.216 . S
O29 C36 1.247 . S
O30 Co28 2.091 . S
O30 C36 1.261 . S
C31 O40 1.247 . S
C31 O41 1.272 . S
O32 Co28 2.004 . S
O32 C37 1.259 . S
Co33 O34 2.061 . S
Co33 O39 2.052 . S
Co33 O41 2.135 . S
O34 Co33 2.061 . S
O34 C37 1.235 . S
C35 O38 1.238 . S
C35 O39 1.241 . S
C36 O29 1.247 . S
C36 O30 1.261 . S
C37 O32 1.259 . S
C37 O34 1.235 . S
O38 Co28 2.021 . S
O38 C35 1.238 . S
O39 Co33 2.052 . S
O39 C35 1.241 . S
O40 Co28 2.137 . S
O40 C31 1.247 . S
O41 Co28 2.244 . S
O41 C31 1.272 . S
O41 Co33 2.135 . S
Co42 O43 2.216 . S
Co42 O44 2.091 . S
Co42 O46 2.004 . S
Co42 O52 2.021 1_554 S
Co42 O54 2.137 . S
Co42 O55 2.244 . S
O43 Co42 2.216 . S
O43 C50 1.247 . S
O44 Co42 2.091 . S
O44 C50 1.261 . S
C45 O54 1.247 . S
C45 O55 1.272 . S
O46 Co42 2.004 . S
O46 C51 1.259 . S
Co47 O48 2.061 . S
Co47 O53 2.052 . S
Co47 O55 2.135 . S
O48 Co47 2.061 . S
O48 C51 1.235 . S
C49 O52 1.238 . S
C49 O53 1.241 1_556 S
C50 O43 1.247 . S
C50 O44 1.261 . S
C51 O46 1.259 . S
C51 O48 1.235 . S
O52 Co42 2.021 1_556 S
O52 C49 1.238 . S
O53 Co47 2.052 . S
O53 C49 1.241 1_554 S
O54 Co42 2.137 . S
O54 C45 1.247 . S
O55 Co42 2.244 . S
O55 C45 1.272 . S
O55 Co47 2.135 . S
Co56 O57 2.216 . S
Co56 O58 2.091 . S
Co56 O60 2.004 . S
Co56 O66 2.021 . S
Co56 O68 2.137 . S
Co56 O69 2.244 . S
O57 Co56 2.216 . S
O57 C64 1.247 . S
O58 Co56 2.091 . S
O58 C64 1.261 . S
C59 O68 1.247 . S
C59 O69 1.272 . S
O60 Co56 2.004 . S
O60 C65 1.259 . S
Co61 O62 2.061 . S
Co61 O67 2.052 . S
Co61 O69 2.135 . S
O62 Co61 2.061 . S
O62 C65 1.235 . S
C63 O66 1.238 . S
C63 O67 1.241 . S
C64 O57 1.247 . S
C64 O58 1.261 . S
C65 O60 1.259 . S
C65 O62 1.235 . S
O66 Co56 2.021 . S
O66 C63 1.238 . S
O67 Co61 2.052 . S
O67 C63 1.241 . S
O68 Co56 2.137 . S
O68 C59 1.247 . S
O69 Co56 2.244 . S
O69 C59 1.272 . S
O69 Co61 2.135 . S
Co70 O71 2.216 . S
Co70 O72 2.091 . S
Co70 O74 2.004 . S
Co70 O80 2.021 . S
Co70 O82 2.137 . S
Co70 O83 2.244 . S
O71 Co70 2.216 . S
O71 C78 1.247 . S
O72 Co70 2.091 . S
O72 C78 1.261 . S
C73 O82 1.247 . S
C73 O83 1.272 . S
O74 Co70 2.004 . S
O74 C79 1.259 . S
Co75 O76 2.061 . S
Co75 O81 2.052 . S
Co75 O83 2.135 . S
O76 Co75 2.061 . S
O76 C79 1.235 . S
C77 O80 1.238 . S
C77 O81 1.241 . S
C78 O71 1.247 . S
C78 O72 1.261 . S
C79 O74 1.259 . S
C79 O76 1.235 . S
O80 Co70 2.021 . S
O80 C77 1.238 . S
O81 Co75 2.052 . S
O81 C77 1.241 . S
O82 Co70 2.137 . S
O82 C73 1.247 . S
O83 Co70 2.244 . S
O83 C73 1.272 . S
O83 Co75 2.135 . S
Co84 O85 2.216 . S
Co84 O86 2.091 . S
Co84 O88 2.004 . S
Co84 O94 2.021 . S
Co84 O96 2.137 . S
Co84 O97 2.244 . S
O85 Co84 2.216 . S
O85 C92 1.247 . S
O86 Co84 2.091 . S
O86 C92 1.261 . S
C87 O96 1.247 . S
C87 O97 1.272 . S
O88 Co84 2.004 . S
O88 C93 1.259 . S
Co89 O90 2.061 . S
Co89 O95 2.052 . S
Co89 O97 2.135 . S
O90 Co89 2.061 . S
O90 C93 1.235 . S
C91 O94 1.238 . S
C91 O95 1.241 . S
C92 O85 1.247 . S
C92 O86 1.261 . S
C93 O88 1.259 . S
C93 O90 1.235 . S
O94 Co84 2.021 . S
O94 C91 1.238 . S
O95 Co89 2.052 . S
O95 C91 1.241 . S
O96 Co84 2.137 . S
O96 C87 1.247 . S
O97 Co84 2.244 . S
O97 C87 1.272 . S
O97 Co89 2.135 . S
Co98 O99 2.216 . S
Co98 O100 2.091 . S
Co98 O102 2.004 . S
Co98 O108 2.021 1_556 S
Co98 O110 2.137 . S
Co98 O111 2.244 . S
O99 Co98 2.216 . S
O99 C106 1.247 . S
O100 Co98 2.091 . S
O100 C106 1.261 . S
C101 O110 1.247 . S
C101 O111 1.272 . S
O102 Co98 2.004 . S
O102 C107 1.259 . S
Co103 O104 2.061 . S
Co103 O109 2.052 1_556 S
Co103 O111 2.135 . S
O104 Co103 2.061 . S
O104 C107 1.235 . S
C105 O108 1.238 . S
C105 O109 1.241 . S
C106 O99 1.247 . S
C106 O100 1.261 . S
C107 O102 1.259 . S
C107 O104 1.235 . S
O108 Co98 2.021 1_554 S
O108 C105 1.238 . S
O109 Co103 2.052 1_554 S
O109 C105 1.241 . S
O110 Co98 2.137 . S
O110 C101 1.247 . S
O111 Co98 2.244 . S
O111 C101 1.272 . S
O111 Co103 2.135 . S
Co112 O113 2.216 . S
Co112 O114 2.091 . S
Co112 O116 2.004 . S
Co112 O122 2.021 . S
Co112 O124 2.137 . S
Co112 O125 2.244 . S
O113 Co112 2.216 . S
O113 C120 1.247 . S
O114 Co112 2.091 . S
O114 C120 1.261 . S
C115 O124 1.247 . S
C115 O125 1.272 . S
O116 Co112 2.004 . S
O116 C121 1.259 . S
Co117 O118 2.061 . S
Co117 O123 2.052 . S
Co117 O125 2.135 . S
O118 Co117 2.061 . S
O118 C121 1.235 . S
C119 O122 1.238 . S
C119 O123 1.241 . S
C120 O113 1.247 . S
C120 O114 1.261 . S
C121 O116 1.259 . S
C121 O118 1.235 . S
O122 Co112 2.021 . S
O122 C119 1.238 . S
O123 Co117 2.052 . S
O123 C119 1.241 . S
O124 Co112 2.137 . S
O124 C115 1.247 . S
O125 Co112 2.244 . S
O125 C115 1.272 . S
O125 Co117 2.135 . S
Co126 O127 2.216 . S
Co126 O128 2.091 . S
Co126 O130 2.004 . S
Co126 O136 2.021 . S
Co126 O138 2.137 . S
Co126 O139 2.244 . S
O127 Co126 2.216 . S
O127 C134 1.247 . S
O128 Co126 2.091 . S
O128 C134 1.261 . S
C129 O138 1.247 . S
C129 O139 1.272 . S
O130 Co126 2.004 . S
O130 C135 1.259 . S
Co131 O132 2.061 . S
Co131 O137 2.052 . S
Co131 O139 2.135 . S
O132 Co131 2.061 . S
O132 C135 1.235 . S
C133 O136 1.238 . S
C133 O137 1.241 . S
C134 O127 1.247 . S
C134 O128 1.261 . S
C135 O130 1.259 . S
C135 O132 1.235 . S
O136 Co126 2.021 . S
O136 C133 1.238 . S
O137 Co131 2.052 . S
O137 C133 1.241 . S
O138 Co126 2.137 . S
O138 C129 1.247 . S
O139 Co126 2.244 . S
O139 C129 1.272 . S
O139 Co131 2.135 . S
Co140 O141 2.216 . S
Co140 O142 2.091 . S
Co140 O144 2.004 . S
Co140 O150 2.021 1_556 S
Co140 O152 2.137 . S
Co140 O153 2.244 . S
O141 Co140 2.216 . S
O141 C148 1.247 . S
O142 Co140 2.091 . S
O142 C148 1.261 . S
C143 O152 1.247 . S
C143 O153 1.272 . S
O144 Co140 2.004 . S
O144 C149 1.259 . S
Co145 O146 2.061 . S
Co145 O151 2.052 1_556 S
Co145 O153 2.135 . S
O146 Co145 2.061 . S
O146 C149 1.235 . S
C147 O150 1.238 . S
C147 O151 1.241 . S
C148 O141 1.247 . S
C148 O142 1.261 . S
C149 O144 1.259 . S
C149 O146 1.235 . S
O150 Co140 2.021 1_554 S
O150 C147 1.238 . S
O151 Co145 2.052 1_554 S
O151 C147 1.241 . S
O152 Co140 2.137 . S
O152 C143 1.247 . S
O153 Co140 2.244 . S
O153 C143 1.272 . S
O153 Co145 2.135 . S
Co154 O155 2.216 . S
Co154 O156 2.091 . S
Co154 O158 2.004 . S
Co154 O164 2.021 . S
Co154 O166 2.137 . S
Co154 O167 2.244 . S
O155 Co154 2.216 . S
O155 C162 1.247 . S
O156 Co154 2.091 . S
O156 C162 1.261 . S
C157 O166 1.247 . S
C157 O167 1.272 . S
O158 Co154 2.004 . S
O158 C163 1.259 . S
Co159 O160 2.061 . S
Co159 O165 2.052 . S
Co159 O167 2.135 . S
O160 Co159 2.061 . S
O160 C163 1.235 . S
C161 O164 1.238 . S
C161 O165 1.241 . S
C162 O155 1.247 . S
C162 O156 1.261 . S
C163 O158 1.259 . S
C163 O160 1.235 . S
O164 Co154 2.021 . S
O164 C161 1.238 . S
O165 Co159 2.052 . S
O165 C161 1.241 . S
O166 Co154 2.137 . S
O166 C157 1.247 . S
O167 Co154 2.244 . S
O167 C157 1.272 . S
O167 Co159 2.135 . S
C168 C169 1.170 . S
C168 C170 1.380 . S
C169 C168 1.170 . S
C170 C168 1.380 . S
C170 C171 1.170 . S
C171 C170 1.170 . S
C172 C173 1.170 . S
C172 C174 1.380 . S
C173 C172 1.170 . S
C174 C172 1.380 . S
C174 C175 1.170 . S
C175 C174 1.170 . S
C176 C177 1.170 . S
C176 C178 1.380 1_556 S
C177 C176 1.170 . S
C178 C176 1.380 1_554 S
C178 C179 1.170 . S
C179 C178 1.170 . S
C180 C181 1.170 . S
C180 C182 1.380 . S
C181 C180 1.170 . S
C182 C180 1.380 . S
C182 C183 1.170 . S
C183 C182 1.170 . S
C184 C185 1.170 . S
C184 C186 1.380 . S
C185 C184 1.170 . S
C186 C184 1.380 . S
C186 C187 1.170 . S
C187 C186 1.170 . S
C188 C189 1.170 . S
C188 C190 1.380 1_554 S
C189 C188 1.170 . S
C190 C188 1.380 1_556 S
C190 C191 1.170 . S
C191 C190 1.170 . S
C192 C193 1.170 . S
C192 C194 1.380 1_554 S
C193 C192 1.170 . S
C194 C192 1.380 1_556 S
C194 C195 1.170 . S
C195 C194 1.170 . S
C196 C197 1.170 . S
C196 C198 1.380 . S
C197 C196 1.170 . S
C198 C196 1.380 . S
C198 C199 1.170 . S
C199 C198 1.170 . S
C200 C201 1.170 . S
C200 C202 1.380 . S
C201 C200 1.170 . S
C202 C200 1.380 . S
C202 C203 1.170 . S
C203 C202 1.170 . S
C204 C205 1.170 . S
C204 C206 1.380 1_554 S
C205 C204 1.170 . S
C206 C204 1.380 1_556 S
C206 C207 1.170 . S
C207 C206 1.170 . S
C208 C209 1.170 . S
C208 C210 1.380 . S
C209 C208 1.170 . S
C210 C208 1.380 . S
C210 C211 1.170 . S
C211 C210 1.170 . S
C212 C213 1.170 . S
C212 C214 1.380 . S
C213 C212 1.170 . S
C214 C212 1.380 . S
C214 C215 1.170 . S
C215 C214 1.170 . S
C216 C217 1.170 . S
C216 C218 1.380 . S
C217 C216 1.170 . S
C218 C216 1.380 . S
C218 C219 1.170 . S
C219 C218 1.170 . S
C220 C221 1.170 . S
C220 C222 1.380 1_655 S
C221 C220 1.170 . S
C222 C220 1.380 1_455 S
C222 C223 1.170 . S
C223 C222 1.170 . S
C224 C225 1.170 . S
C224 C226 1.380 1_545 S
C225 C224 1.170 . S
C226 C224 1.380 1_565 S
C226 C227 1.170 . S
C227 C226 1.170 . S
C228 C229 1.170 . S
C228 C230 1.380 . S
C229 C228 1.170 . S
C230 C228 1.380 . S
C230 C231 1.170 . S
C231 C230 1.170 . S
C232 C233 1.170 . S
C232 C234 1.380 1_455 S
C233 C232 1.170 . S
C234 C232 1.380 1_655 S
C234 C235 1.170 . S
C235 C234 1.170 . S
C236 C237 1.170 . S
C236 C238 1.380 1_565 S
C237 C236 1.170 . S
C238 C236 1.380 1_545 S
C238 C239 1.170 . S
C239 C238 1.170 . S
C240 C241 1.170 . S
C240 C242 1.380 . S
C241 C240 1.170 . S
C242 C240 1.380 . S
C242 C243 1.170 . S
C243 C242 1.170 . S
C244 C245 1.170 . S
C244 C246 1.380 . S
C245 C244 1.170 . S
C246 C244 1.380 . S
C246 C247 1.170 . S
C247 C246 1.170 . S
C248 C249 1.170 . S
C248 C250 1.380 . S
C249 C248 1.170 . S
C250 C248 1.380 . S
C250 C251 1.170 . S
C251 C250 1.170 . S
C252 C253 1.170 . S
C252 C254 1.380 . S
C253 C252 1.170 . S
C254 C252 1.380 . S
C254 C255 1.170 . S
C255 C254 1.170 . S
C256 C257 1.170 . S
C256 C258 1.380 . S
C257 C256 1.170 . S
C258 C256 1.380 . S
C258 C259 1.170 . S
C259 C258 1.170 . S
C260 C261 1.170 . S
C260 C262 1.380 . S
C261 C260 1.170 . S
C262 C260 1.380 . S
C262 C263 1.170 . S
C263 C262 1.170 . S
C169 C3 1.518 . S
C171 C87 1.539 . S
C173 C17 1.489 . S
C175 C101 1.486 . S
C177 C31 1.507 . S
C179 C115 1.545 . S
C181 C45 1.547 . S
C183 C129 1.505 . S
C185 C59 1.488 . S
C187 C143 1.494 . S
C189 C157 1.524 . S
C191 C73 1.530 . S
C193 C8 1.557 . S
C195 C148 1.684 . S
C197 C22 1.697 . S
C199 C162 1.564 . S
C201 C36 1.571 . S
C203 C92 1.556 . S
C205 C50 1.562 . S
C207 C106 1.682 . S
C209 C64 1.692 . S
C211 C120 1.554 . S
C213 C78 1.556 . S
C215 C134 1.569 . S
C217 C9 1.946 . S
C219 C51 1.995 . S
C221 C23 1.425 . S
C223 C65 1.378 . S
C225 C79 1.252 . S
C227 C37 1.282 . S
C229 C93 1.283 . S
C231 C135 1.244 . S
C233 C149 1.388 . S
C235 C107 1.429 . S
C237 C121 1.981 . S
C239 C163 1.951 . S
C241 C91 1.000 . S
C243 C7 0.997 . S
C245 C21 0.983 . S
C247 C105 0.987 . S
C249 C35 0.970 . S
C251 C119 0.999 . S
C253 C133 0.982 . S
C255 C49 0.983 . S
C257 C147 0.988 . S
C259 C63 0.983 . S
C261 C77 0.956 . S
C263 C161 0.990 . S
