# Generated by pormake.
# Topology tsi, (8)-cn, num edge types: 1
# Building blocks:
#     Node 0, Type 0, BuildingBlock: AJUNOK_clean_sbu_0, # of connection points: 8
#     Node 1, Type 0, BuildingBlock: AJUNOK_clean_sbu_0, # of connection points: 8
#     Node 2, Type 0, BuildingBlock: AJUNOK_clean_sbu_0, # of connection points: 8
#     Node 3, Type 0, BuildingBlock: AJUNOK_clean_sbu_0, # of connection points: 8
#     Edge 4, Type (0, 0), BuildingBlock: KIFKEQ_clean_linker_1, # of connection points: 2
#     Edge 5, Type (0, 0), BuildingBlock: KIFKEQ_clean_linker_1, # of connection points: 2
#     Edge 6, Type (0, 0), BuildingBlock: KIFKEQ_clean_linker_1, # of connection points: 2
#     Edge 7, Type (0, 0), BuildingBlock: KIFKEQ_clean_linker_1, # of connection points: 2
#     Edge 8, Type (0, 0), BuildingBlock: KIFKEQ_clean_linker_1, # of connection points: 2
#     Edge 9, Type (0, 0), BuildingBlock: KIFKEQ_clean_linker_1, # of connection points: 2
#     Edge 10, Type (0, 0), BuildingBlock: KIFKEQ_clean_linker_1, # of connection points: 2
#     Edge 11, Type (0, 0), BuildingBlock: KIFKEQ_clean_linker_1, # of connection points: 2
#     Edge 12, Type (0, 0), BuildingBlock: KIFKEQ_clean_linker_1, # of connection points: 2
#     Edge 13, Type (0, 0), BuildingBlock: KIFKEQ_clean_linker_1, # of connection points: 2
#     Edge 14, Type (0, 0), BuildingBlock: KIFKEQ_clean_linker_1, # of connection points: 2
#     Edge 15, Type (0, 0), BuildingBlock: KIFKEQ_clean_linker_1, # of connection points: 2
#     Edge 16, Type (0, 0), BuildingBlock: KIFKEQ_clean_linker_1, # of connection points: 2
#     Edge 17, Type (0, 0), BuildingBlock: KIFKEQ_clean_linker_1, # of connection points: 2
#     Edge 18, Type (0, 0), BuildingBlock: KIFKEQ_clean_linker_1, # of connection points: 2
#     Edge 19, Type (0, 0), BuildingBlock: KIFKEQ_clean_linker_1, # of connection points: 2
# Relax obj value: 0.179
# Max RMSD: 0.224
# Mean RMSD: 0.224
data_MOF--net-tsi--node1-AJUNOK_clean_sbu_0--edge1-KIFKEQ_clean_linker_1
_symmetry_space_group_name_H-M    P1
_symmetry_Int_Tables_number       1
_symmetry_cell_setting            triclinic
loop_
_symmetry_equiv_pos_as_xyz
'x, y, z'
_cell_length_a     16.091813
_cell_length_b     15.905913
_cell_length_c     75.489498
_cell_angle_alpha  89.975868
_cell_angle_beta   89.797563
_cell_angle_gamma 90.214907
loop_
_atom_site_label
_atom_site_type_symbol
_atom_site_fract_x
_atom_site_fract_y
_atom_site_fract_z
_atom_type_partial_charge
Cd0 Cd 0.06684 0.18411 0.41884 0.0
Cd1 Cd 0.064 0.35501 0.38579 0.0
C2 C 0.16284 0.10538 0.38508 0.0
N3 N 0.08683 0.13819 0.38892 0.0
C4 C 0.0483 0.12828 0.3583 0.0
C5 C 0.12962 0.10452 0.35375 0.0
C6 C 0.18627 0.08989 0.36752 0.0
C7 C 0.02828 0.14531 0.37602 0.0
H8 H 0.20738 0.09601 0.39558 0.0
H9 H 0.96664 0.16633 0.37926 0.0
C10 C 0.87814 0.25914 0.40217 0.0
C11 C 0.97795 0.41759 0.42378 0.0
C12 C 0.97289 0.45116 0.4409 0.0
C13 C 0.04568 0.46917 0.45044 0.0
C14 C 0.12235 0.45419 0.44204 0.0
C15 C 0.1245 0.42005 0.42491 0.0
N16 N 0.05299 0.3995 0.41627 0.0
H17 H 0.92145 0.40921 0.41637 0.0
H18 H 0.18368 0.41214 0.41836 0.0
C19 C 0.94843 0.32655 0.35072 0.0
N20 N 0.02959 0.32795 0.35572 0.0
C21 C 0.07235 0.31061 0.32542 0.0
C22 C 0.9888 0.30927 0.31989 0.0
C23 C 0.92673 0.31601 0.33297 0.0
C24 C 0.09135 0.32016 0.34345 0.0
H25 H 0.89982 0.33498 0.3604 0.0
H26 H 0.15554 0.32257 0.34764 0.0
C27 C 0.2433 0.26948 0.40065 0.0
C28 C 0.09857 0.03028 0.43611 0.0
N29 N 0.05903 0.24957 0.44659 0.0
C30 C 0.13215 0.2545 0.45552 0.0
C31 C 0.13301 0.25559 0.474 0.0
C32 C 0.05785 0.25044 0.48352 0.0
C33 C 0.98308 0.25366 0.47388 0.0
C34 C 0.98507 0.25199 0.45534 0.0
C35 C 0.11111 0.52133 0.38145 0.0
O36 O 0.91683 0.21356 0.41327 0.0
O37 O 0.91858 0.30702 0.3917 0.0
O38 O 0.20273 0.28512 0.38658 0.0
O39 O 0.20446 0.25221 0.4149 0.0
O40 O 0.02538 0.04981 0.43153 0.0
O41 O 0.15573 0.08156 0.43214 0.0
O42 O 0.16434 0.46302 0.38102 0.0
O43 O 0.03512 0.5 0.38048 0.0
H44 H 0.19023 0.2485 0.44843 0.0
H45 H 0.92773 0.24491 0.44806 0.0
H46 H 0.00197 0.13879 0.34818 0.0
H47 H 0.24888 0.06883 0.36472 0.0
H48 H 0.91225 0.46478 0.44643 0.0
H49 H 0.18038 0.46798 0.44866 0.0
H50 H 0.12278 0.30648 0.31595 0.0
H51 H 0.86144 0.31354 0.32961 0.0
H52 H 0.19242 0.25185 0.48062 0.0
H53 H 0.92344 0.25169 0.48054 0.0
Cd54 Cd 0.06184 0.844 0.66671 0.0
Cd55 Cd 0.87152 0.82713 0.63395 0.0
C56 C 0.09314 0.99648 0.6379 0.0
N57 N 0.08149 0.9117 0.63873 0.0
C58 C 0.10623 0.90149 0.60749 0.0
C59 C 0.10546 0.98988 0.60583 0.0
C60 C 0.10134 0.03718 0.62158 0.0
C61 C 0.09355 0.86385 0.62408 0.0
H62 H 0.09396 0.03321 0.64994 0.0
H63 H 0.09437 0.79627 0.62536 0.0
C64 C 0.95274 0.65149 0.65592 0.0
C65 C 0.72368 0.79138 0.6634 0.0
C66 C 0.68596 0.7788 0.68 0.0
C67 C 0.73403 0.78253 0.69555 0.0
C68 C 0.81945 0.79974 0.69376 0.0
C69 C 0.85441 0.81128 0.67696 0.0
N70 N 0.80678 0.80695 0.66214 0.0
H71 H 0.68654 0.78812 0.65151 0.0
H72 H 0.92004 0.82293 0.67578 0.0
C73 C 0.98301 0.70451 0.60672 0.0
N74 N 0.94303 0.7798 0.60787 0.0
C75 C 0.94583 0.79279 0.57616 0.0
C76 C 0.98609 0.71489 0.57452 0.0
C77 C 0.00609 0.67151 0.59018 0.0
C78 C 0.92537 0.82425 0.59294 0.0
H79 H 0.99559 0.66855 0.61852 0.0
H80 H 0.89195 0.88285 0.59397 0.0
C81 C 0.9327 0.0101 0.65727 0.0
C82 C 0.22954 0.83634 0.65907 0.0
N83 N 0.08212 0.85517 0.69743 0.0
C84 C 0.08347 0.93211 0.70528 0.0
C85 C 0.10598 0.94028 0.72309 0.0
C86 C 0.12835 0.86871 0.73293 0.0
C87 C 0.12454 0.78984 0.7245 0.0
C88 C 0.10125 0.78454 0.70668 0.0
C89 C 0.73121 0.85991 0.61282 0.0
O90 O 0.0068 0.69411 0.66446 0.0
O91 O 0.90427 0.6876 0.6451 0.0
O92 O 0.9115 0.97303 0.64297 0.0
O93 O 0.96894 0.96952 0.66958 0.0
O94 O 0.18385 0.77166 0.65723 0.0
O95 O 0.19954 0.8986 0.66741 0.0
O96 O 0.77671 0.91858 0.61867 0.0
O97 O 0.74911 0.7857 0.61756 0.0
H98 H 0.06944 0.98756 0.69758 0.0
H99 H 0.10118 0.7243 0.70003 0.0
H100 H 0.11554 0.8611 0.59615 0.0
H101 H 0.10236 0.10512 0.62149 0.0
H102 H 0.62011 0.76484 0.68059 0.0
H103 H 0.85934 0.80489 0.70523 0.0
H104 H 0.92756 0.82816 0.56456 0.0
H105 H 0.03771 0.6116 0.58969 0.0
H106 H 0.1067 1.00226 0.72901 0.0
H107 H 0.14233 0.73296 0.73136 0.0
Cd108 Cd 0.42485 0.63797 0.88544 0.0
Cd109 Cd 0.42183 0.79936 0.92198 0.0
C110 C 0.54093 0.65262 0.85046 0.0
N111 N 0.46145 0.66859 0.85562 0.0
C112 C 0.42612 0.70867 0.82591 0.0
C113 C 0.50804 0.69291 0.82028 0.0
C114 C 0.56561 0.66463 0.83287 0.0
C115 C 0.40375 0.69476 0.84367 0.0
H116 H 0.58516 0.6288 0.85993 0.0
H117 H 0.34035 0.70501 0.84795 0.0
C118 C 0.24601 0.72011 0.90241 0.0
C119 C 0.36482 0.71831 0.95916 0.0
C120 C 0.36688 0.71252 0.97766 0.0
C121 C 0.44208 0.72608 0.98664 0.0
C122 C 0.51512 0.73585 0.97654 0.0
C123 C 0.51043 0.74018 0.95805 0.0
N124 N 0.43559 0.73449 0.94981 0.0
H125 H 0.30562 0.71749 0.95243 0.0
H126 H 0.56536 0.75618 0.95046 0.0
C127 C 0.32165 0.89131 0.8908 0.0
N128 N 0.39711 0.85451 0.89312 0.0
C129 C 0.42739 0.87097 0.86221 0.0
C130 C 0.34544 0.89742 0.85909 0.0
C131 C 0.29381 0.91173 0.87383 0.0
C132 C 0.45179 0.84907 0.87938 0.0
H133 H 0.28044 0.89925 0.90202 0.0
H134 H 0.51342 0.82541 0.8815 0.0
C135 C 0.61033 0.7302 0.90251 0.0
C136 C 0.37392 0.47343 0.87886 0.0
N137 N 0.4391 0.58753 0.91522 0.0
C138 C 0.51474 0.56881 0.92221 0.0
C139 C 0.5213 0.53521 0.93927 0.0
C140 C 0.44932 0.51782 0.94926 0.0
C141 C 0.37192 0.53233 0.94125 0.0
C142 C 0.36836 0.56623 0.92414 0.0
C143 C 0.39098 0.95615 0.93805 0.0
O144 O 0.28727 0.70986 0.88812 0.0
O145 O 0.28405 0.7315 0.917 0.0
O146 O 0.57088 0.76936 0.91462 0.0
O147 O 0.57077 0.68677 0.8911 0.0
O148 O 0.32203 0.53293 0.87956 0.0
O149 O 0.45044 0.49329 0.87862 0.0
O150 O 0.46294 0.93692 0.93248 0.0
O151 O 0.33529 0.90028 0.93685 0.0
H152 H 0.57048 0.57691 0.91445 0.0
H153 H 0.30871 0.57389 0.91786 0.0
H154 H 0.37944 0.72959 0.81661 0.0
H155 H 0.6294 0.65181 0.82917 0.0
H156 H 0.30894 0.70601 0.98488 0.0
H157 H 0.57444 0.74623 0.98293 0.0
H158 H 0.47061 0.86131 0.85138 0.0
H159 H 0.23132 0.93551 0.87222 0.0
H160 H 0.58247 0.52112 0.94438 0.0
H161 H 0.31434 0.51898 0.94816 0.0
Cd162 Cd 0.64537 0.19101 0.13239 0.0
Cd163 Cd 0.43443 0.17468 0.16207 0.0
C164 C 0.52621 0.29272 0.10406 0.0
N165 N 0.57177 0.22123 0.10601 0.0
C166 C 0.56791 0.19721 0.07469 0.0
C167 C 0.52296 0.27187 0.07223 0.0
C168 C 0.49982 0.31841 0.08726 0.0
C169 C 0.59175 0.17301 0.09175 0.0
H170 H 0.51289 0.3318 0.1154 0.0
H171 H 0.62997 0.11788 0.09354 0.0
C172 C 0.56566 1.0039 0.15191 0.0
C173 C 0.38124 0.0797 0.19892 0.0
C174 C 0.34994 0.06996 0.21617 0.0
C175 C 0.31329 0.13869 0.22494 0.0
C176 C 0.30807 0.21554 0.21575 0.0
C177 C 0.34027 0.22249 0.19856 0.0
N178 N 0.37643 0.15529 0.19055 0.0
H179 H 0.41049 0.02719 0.19231 0.0
H180 H 0.3371 0.2819 0.19161 0.0
C181 C 0.37889 0.99582 0.14022 0.0
N182 N 0.40729 0.07645 0.13851 0.0
C183 C 0.41659 0.05989 0.10706 0.0
C184 C 0.39059 0.9759 0.10828 0.0
C185 C 0.37144 0.94362 0.12521 0.0
C186 C 0.42454 0.10838 0.12227 0.0
H187 H 0.36464 0.97112 0.15324 0.0
H188 H 0.44519 0.17191 0.12117 0.0
C189 C 0.55361 0.35974 0.15618 0.0
C190 C 0.79386 0.21604 0.1126 0.0
N191 N 0.70947 0.20763 0.16069 0.0
C192 C 0.75073 0.28092 0.16396 0.0
C193 C 0.78871 0.29507 0.18036 0.0
C194 C 0.78546 0.23279 0.19358 0.0
C195 C 0.74456 0.15686 0.18964 0.0
C196 C 0.70752 0.14542 0.17307 0.0
C197 C 0.31801 0.26636 0.14285 0.0
O198 O 0.60022 0.04102 0.13874 0.0
O199 O 0.52423 0.04561 0.16341 0.0
O200 O 0.50691 0.31601 0.16639 0.0
O201 O 0.59518 0.32444 0.144 0.0
O202 O 0.77498 0.14265 0.11796 0.0
O203 O 0.74493 0.27456 0.11683 0.0
O204 O 0.39526 0.27871 0.1405 0.0
O205 O 0.29528 0.2136 0.15466 0.0
H206 H 0.75408 0.32883 0.15381 0.0
H207 H 0.67784 0.08644 0.17018 0.0
H208 H 0.58681 0.15933 0.06347 0.0
H209 H 0.46609 0.37687 0.08594 0.0
H210 H 0.35642 0.00976 0.22271 0.0
H211 H 0.27931 0.26998 0.22177 0.0
H212 H 0.43268 0.08788 0.09443 0.0
H213 H 0.35069 0.87923 0.12681 0.0
H214 H 0.82099 0.35397 0.18257 0.0
H215 H 0.73997 0.10693 0.19935 0.0
H216 H 0.14523 0.59017 0.4658 0.0
H217 H 0.93524 0.42856 0.47694 0.0
H218 H 0.13719 0.64666 0.49582 0.0
H219 H 0.92579 0.48647 0.50669 0.0
H220 H 0.97328 0.54935 0.56431 0.0
H221 H 0.99336 0.48934 0.53494 0.0
H222 H 0.05238 0.73578 0.51431 0.0
H223 H 0.03579 0.79536 0.54388 0.0
C224 C 0.09769 0.56611 0.47465 0.0
C225 C 0.04124 0.50415 0.46886 0.0
C226 C 0.09246 0.59932 0.49186 0.0
C227 C 0.03088 0.57129 0.50381 0.0
C228 C 0.9748 0.50901 0.49802 0.0
C229 C 0.97973 0.47624 0.48082 0.0
C230 C 0.99199 0.59073 0.55362 0.0
C231 C 0.00273 0.6775 0.5566 0.0
C232 C 0.00241 0.55634 0.53665 0.0
C233 C 0.02389 0.60756 0.5221 0.0
C234 C 0.03642 0.69405 0.52515 0.0
C235 C 0.02594 0.72849 0.54213 0.0
H236 H 0.60013 0.58558 0.80001 0.0
H237 H 0.47424 0.82418 0.79776 0.0
H238 H 0.64897 0.60487 0.76975 0.0
H239 H 0.52479 0.84512 0.76748 0.0
H240 H 0.57856 0.82782 0.70787 0.0
H241 H 0.51871 0.80328 0.73718 0.0
H242 H 0.74635 0.68336 0.75357 0.0
H243 H 0.80378 0.703 0.72415 0.0
C244 C 0.58328 0.64259 0.79306 0.0
C245 C 0.53379 0.70368 0.80138 0.0
C246 C 0.61161 0.65393 0.77567 0.0
C247 C 0.59208 0.7272 0.76609 0.0
C248 C 0.5407 0.7875 0.77429 0.0
C249 C 0.51169 0.77568 0.79169 0.0
C250 C 0.61543 0.79507 0.71764 0.0
C251 C 0.69637 0.76766 0.7135 0.0
C252 C 0.5814 0.78197 0.73458 0.0
C253 C 0.62734 0.74116 0.74789 0.0
C254 C 0.70817 0.71381 0.7437 0.0
C255 C 0.74188 0.72639 0.72679 0.0
H256 H 0.34543 0.4046 0.96624 0.0
H257 H 0.56717 0.55382 0.97445 0.0
H258 H 0.35864 0.34736 0.99613 0.0
H259 H 0.58143 0.49401 1.00397 0.0
H260 H 0.37837 0.33688 0.05866 0.0
H261 H 0.35681 0.39795 0.02914 0.0
H262 H 0.61211 0.3452 1.01562 0.0
H263 H 0.63349 0.28403 0.04492 0.0
C264 C 0.39648 0.42607 0.97439 0.0
C265 C 0.45548 0.48382 0.96773 0.0
C266 C 0.4041 0.39285 0.99153 0.0
C267 C 0.47142 0.41564 1.00233 0.0
C268 C 0.52957 0.47421 0.99584 0.0
C269 C 0.52148 0.50818 0.97884 0.0
C270 C 0.42964 0.33806 0.04933 0.0
C271 C 0.50749 0.30517 0.05409 0.0
C272 C 0.41723 0.37268 0.03243 0.0
C273 C 0.4829 0.37667 1.0201 0.0
C274 C 0.56053 0.34362 1.02488 0.0
C275 C 0.57251 0.30782 0.0416 0.0
H276 H 0.85626 0.38174 0.30282 0.0
H277 H 0.06948 0.22419 0.29299 0.0
H278 H 0.81264 0.36373 0.27239 0.0
H279 H 0.0276 0.20905 0.26217 0.0
H280 H 0.86901 0.1199 0.2146 0.0
H281 H 0.92233 0.1412 0.24445 0.0
H282 H 0.84446 0.40066 0.2426 0.0
H283 H 0.78764 0.37832 0.21313 0.0
C284 C 0.89393 0.34273 0.29425 0.0
C285 C 0.96563 0.30256 0.3007 0.0
C286 C 0.86945 0.33358 0.2766 0.0
C287 C 0.9162 0.28462 0.26472 0.0
C288 C 0.98913 0.24615 0.27097 0.0
C289 C 0.01361 0.25532 0.28869 0.0
C290 C 0.86268 0.1814 0.22059 0.0
C291 C 0.8232 0.24714 0.21142 0.0
C292 C 0.89437 0.19393 0.23766 0.0
C293 C 0.8875 0.27259 0.24606 0.0
C294 C 0.84985 0.33884 0.23671 0.0
C295 C 0.81809 0.32629 0.21966 0.0
H296 H 0.32514 0.25555 0.25156 0.0
H297 H 0.23326 0.00505 0.241 0.0
H298 H 0.27861 0.2437 0.28213 0.0
H299 H 0.18973 0.99194 0.27193 0.0
H300 H 0.04709 0.03891 0.32492 0.0
H301 H 0.08973 0.04432 0.29377 0.0
H302 H 0.31675 0.1708 0.30879 0.0
H303 H 0.27365 0.16656 0.3397 0.0
C304 C 0.29469 0.19795 0.25569 0.0
C305 C 0.28323 0.13126 0.24369 0.0
C306 C 0.26897 0.19071 0.27336 0.0
C307 C 0.23122 0.11644 0.27963 0.0
C308 C 0.21836 0.05016 0.26759 0.0
C309 C 0.2442 0.05738 0.24987 0.0
C310 C 0.10626 0.06747 0.32154 0.0
C311 C 0.1571 0.10186 0.33485 0.0
C312 C 0.1311 0.06991 0.3037 0.0
C313 C 0.20656 0.10848 0.29869 0.0
C314 C 0.2577 0.14175 0.31207 0.0
C315 C 0.23344 0.13832 0.32987 0.0
H316 H 0.09993 0.76132 0.76089 0.0
H317 H 0.22562 0.99333 0.74743 0.0
H318 H 0.15323 0.7711 0.79093 0.0
H319 H 0.27494 0.00561 0.77776 0.0
H320 H 0.42326 0.95286 0.82856 0.0
H321 H 0.37068 0.94701 0.79832 0.0
H322 H 0.13779 0.84651 0.81774 0.0
H323 H 0.19145 0.84875 0.84774 0.0
C324 C 0.13873 0.81461 0.76431 0.0
C325 C 0.15821 0.87647 0.75162 0.0
C326 C 0.1685 0.82086 0.78167 0.0
C327 C 0.21828 0.88943 0.78691 0.0
C328 C 0.23755 0.95146 0.77424 0.0
C329 C 0.20808 0.94501 0.75685 0.0
C330 C 0.36084 0.92954 0.82638 0.0
C331 C 0.31163 0.9018 0.8407 0.0
C332 C 0.33032 0.92679 0.80902 0.0
C333 C 0.24996 0.8958 0.80547 0.0
C334 C 0.20039 0.86951 0.81984 0.0
C335 C 0.2308 0.87225 0.83716 0.0
H336 H 0.36135 0.64256 1.01389 0.0
H337 H 0.51859 0.85718 1.00297 0.0
H338 H 0.34451 0.6911 0.04471 0.0
H339 H 0.50113 0.90508 0.03339 0.0
H340 H 0.33156 0.02351 0.07596 0.0
H341 H 0.34771 0.95122 0.04776 0.0
H342 H 0.4534 0.73753 0.0745 0.0
H343 H 0.44042 0.81157 0.10303 0.0
C344 C 0.39335 0.69907 1.01813 0.0
C345 C 0.44153 0.74583 1.00597 0.0
C346 C 0.38391 0.72657 0.03573 0.0
C347 C 0.42117 0.80204 0.04133 0.0
C348 C 0.47165 0.84678 0.02938 0.0
C349 C 0.48216 0.81882 1.01199 0.0
C350 C 0.35807 0.96101 0.07595 0.0
C351 C 0.38618 0.92414 0.09178 0.0
C352 C 0.36695 0.91956 0.05977 0.0
C353 C 0.40268 0.83936 0.05895 0.0
C354 C 0.42565 0.79945 0.07481 0.0
C355 C 0.4178 0.84168 0.09112 0.0
H356 H 0.17008 0.2978 0.50941 0.0
H357 H 0.94792 0.1489 0.50149 0.0
H358 H 0.18556 0.23695 0.5388 0.0
H359 H 0.9595 0.09416 0.53122 0.0
H360 H 0.05169 0.92566 0.57391 0.0
H361 H 0.04014 0.99478 0.54574 0.0
H362 H 0.14102 0.22251 0.56838 0.0
H363 H 0.15914 0.15091 0.59646 0.0
C364 C 0.12371 0.25324 0.51397 0.0
C365 C 0.0584 0.22773 0.50278 0.0
C366 C 0.13214 0.2189 0.53099 0.0
C367 C 0.07484 0.15891 0.53737 0.0
C368 C 0.00648 0.13804 0.52664 0.0
C369 C -0.00125 0.17126 0.50959 0.0
C370 C 0.07273 0.98987 0.57307 0.0
C371 C 0.10486 0.03201 0.58797 0.0
C372 C 0.06464 0.03048 0.55678 0.0
C373 C 0.08742 0.11538 0.55474 0.0
C374 C 0.12227 0.15724 0.56937 0.0
C375 C 0.13146 0.11605 0.58569 0.0
H376 H 0.25136 0.9582 0.43694 0.0
H377 H 0.99207 0.90838 0.4479 0.0
H378 H 0.27024 0.81345 0.42807 0.0
H379 H 0.01245 0.76165 0.43996 0.0
H380 H 0.01764 0.66225 0.38303 0.0
H381 H 0.02583 0.76622 0.40646 0.0
H382 H 0.25639 0.65801 0.4246 0.0
H383 H 0.24976 0.55519 0.40072 0.0
C384 C 0.1996 0.91508 0.43855 0.0
C385 C 0.11878 0.94479 0.44171 0.0
C386 C 0.21072 0.83176 0.43356 0.0
C387 C 0.14115 0.77898 0.4322 0.0
C388 C 0.06588 0.80333 0.44013 0.0
C389 C 0.05422 0.88712 0.44469 0.0
C390 C 0.07135 0.66235 0.39166 0.0
C391 C 0.13241 0.60043 0.39017 0.0
C392 C 0.07481 0.71991 0.40542 0.0
C393 C 0.13934 0.71644 0.41793 0.0
C394 C 0.20476 0.65992 0.41543 0.0
C395 C 0.20171 0.60259 0.40152 0.0
H396 H 0.2685 0.98065 0.64226 0.0
H397 H 0.33787 0.71974 0.64686 0.0
H398 H 0.3623 0.99787 0.61736 0.0
H399 H 0.43873 0.73821 0.62329 0.0
H400 H 0.63381 0.75302 0.59353 0.0
H401 H 0.48292 0.76099 0.59441 0.0
H402 H 0.50128 0.01482 0.61466 0.0
H403 H 0.64979 0.00878 0.61234 0.0
C404 C 0.30587 0.9275 0.63822 0.0
C405 C 0.29832 0.84939 0.64676 0.0
C406 C 0.35887 0.93708 0.62378 0.0
C407 C 0.40867 0.86985 0.61816 0.0
C408 C 0.40022 0.79136 0.62677 0.0
C409 C 0.34457 0.78102 0.64073 0.0
C410 C 0.60493 0.81201 0.59716 0.0
C411 C 0.65217 0.8781 0.60421 0.0
C412 C 0.51861 0.81658 0.59777 0.0
C413 C 0.48095 0.88504 0.60637 0.0
C414 C 0.528 0.95889 0.60885 0.0
C415 C 0.61405 0.95542 0.60765 0.0
H416 H 0.23155 0.43024 0.89614 0.0
H417 H 0.46355 0.32991 0.87642 0.0
H418 H 0.22291 0.31665 0.91775 0.0
H419 H 0.45346 0.21541 0.89768 0.0
H420 H 0.49368 0.08854 0.9448 0.0
H421 H 0.47066 0.2253 0.93125 0.0
H422 H 0.21472 0.15828 0.92134 0.0
H423 H 0.23648 0.02331 0.93556 0.0
C424 C 0.27877 0.38188 0.89587 0.0
C425 C 0.34949 0.38965 0.88494 0.0
C426 C 0.27436 0.31793 0.90846 0.0
C427 C 0.33988 0.26081 0.90994 0.0
C428 C 0.40433 0.26178 0.89733 0.0
C429 C 0.40909 0.32582 0.88487 0.0
C430 C 0.43135 0.10502 0.94071 0.0
C431 C 0.36805 0.04438 0.94028 0.0
C432 C 0.41843 0.18263 0.93275 0.0
C433 C 0.34243 0.19909 0.92436 0.0
C434 C 0.27449 0.14563 0.92732 0.0
C435 C 0.28707 0.06847 0.93557 0.0
H436 H 0.32028 0.24835 0.10732 0.0
H437 H 0.17891 0.35305 0.15062 0.0
H438 H 0.19737 0.25515 0.08829 0.0
H439 H 0.05828 0.36526 0.13141 0.0
H440 H 0.84678 0.36902 0.10105 0.0
H441 H 0.99157 0.4119 0.09849 0.0
H442 H 0.0671 0.15259 0.10219 0.0
H443 H 0.92241 0.10927 0.10531 0.0
C444 C 0.26425 0.27732 0.11241 0.0
C445 C 0.25758 0.29933 0.13037 0.0
C446 C 0.19448 0.28153 0.10151 0.0
C447 C 0.11905 0.31083 0.10843 0.0
C448 C 0.1163 0.3435 0.12573 0.0
C449 C 0.18482 0.33616 0.13677 0.0
C450 C 0.89398 0.32066 0.10058 0.0
C451 C 0.87414 0.23615 0.10423 0.0
C452 C 0.97666 0.34542 0.09883 0.0
C453 C 0.03976 0.28565 0.10047 0.0
C454 C 0.01905 0.19975 0.10088 0.0
C455 C 0.93632 0.17499 0.1029 0.0
H456 H 0.97496 0.11353 0.68518 0.0
H457 H 0.8859 0.12097 0.63132 0.0
H458 H 0.97824 0.26708 0.68589 0.0
H459 H 0.89117 0.27371 0.63186 0.0
H460 H 0.05728 0.54297 0.67384 0.0
H461 H 0.05038 0.38915 0.67484 0.0
H462 H 0.82644 0.39456 0.6435 0.0
H463 H 0.83454 0.54672 0.64213 0.0
C464 C 0.95568 0.14773 0.6735 0.0
C465 C 0.92947 0.10417 0.65824 0.0
C466 C 0.95833 0.23613 0.67385 0.0
C467 C 0.93492 0.28379 0.65895 0.0
C468 C 0.90827 0.23996 0.64375 0.0
C469 C 0.90541 0.1518 0.64341 0.0
C470 C 0.00638 0.51128 0.66725 0.0
C471 C 0.94687 0.55787 0.65782 0.0
C472 C 0.00215 0.42281 0.66787 0.0
C473 C 0.93819 0.37845 0.6591 0.0
C474 C 0.87774 0.42558 0.65008 0.0
C475 C 0.88211 0.5135 0.64942 0.0
H476 H 0.71772 0.81584 0.92448 0.0
H477 H 0.71546 0.64807 0.87955 0.0
H478 H 0.86934 0.81613 0.92403 0.0
H479 H 0.86681 0.64655 0.87937 0.0
H480 H 0.1417 0.71821 0.87351 0.0
H481 H 0.99005 0.72411 0.8732 0.0
H482 H 0.98716 0.73274 0.93039 0.0
H483 H 0.13839 0.72894 0.93064 0.0
C484 C 0.74938 0.77887 0.91449 0.0
C485 C 0.70357 0.73203 0.90204 0.0
C486 C 0.8368 0.7785 0.91431 0.0
C487 C 0.88147 0.73111 0.90169 0.0
C488 C 0.83544 0.68484 0.88916 0.0
C489 C 0.74808 0.68533 0.88932 0.0
C490 C 0.10875 0.72128 0.88603 0.0
C491 C 0.15291 0.72292 0.9021 0.0
C492 C 0.02136 0.72431 0.88587 0.0
C493 C 0.97522 0.72892 0.90178 0.0
C494 C 0.01972 0.73063 0.91783 0.0
C495 C 0.10696 0.72783 0.91798 0.0
H496 H 0.67003 0.46417 0.1414 0.0
H497 H 0.44902 0.4702 0.17389 0.0
H498 H 0.67489 0.61658 0.14112 0.0
H499 H 0.45221 0.62424 0.17319 0.0
H500 H 0.51732 0.90448 0.18004 0.0
H501 H 0.51606 0.75146 0.18217 0.0
H502 H 0.61265 0.73527 0.12882 0.0
H503 H 0.6163 0.88819 0.12697 0.0
C504 C 0.62222 0.49798 0.14855 0.0
C505 C 0.55904 0.45392 0.15768 0.0
C506 C 0.62456 0.5862 0.14823 0.0
C507 C 0.56338 0.63434 0.1569 0.0
C508 C 0.5011 0.59028 0.16643 0.0
C509 C 0.49908 0.50149 0.16685 0.0
C510 C 0.539 0.86837 0.16879 0.0
C511 C 0.56797 0.90959 0.1534 0.0
C512 C 0.53755 0.78 0.16996 0.0
C513 C 0.56454 0.72944 0.15573 0.0
C514 C 0.59303 0.77097 0.14029 0.0
C515 C 0.59498 0.85932 0.13917 0.0
H516 H 0.76893 0.16229 0.42169 0.0
H517 H 0.7753 0.35472 0.38136 0.0
H518 H 0.61733 0.16249 0.42082 0.0
H519 H 0.62404 0.35637 0.38077 0.0
H520 H 0.35018 0.28675 0.37222 0.0
H521 H 0.50197 0.28131 0.37223 0.0
H522 H 0.49921 0.24321 0.42889 0.0
H523 H 0.34808 0.2467 0.42879 0.0
C524 C 0.73817 0.20482 0.41265 0.0
C525 C 0.78505 0.25835 0.40159 0.0
C526 C 0.65082 0.20537 0.41222 0.0
C527 C 0.60743 0.2596 0.40074 0.0
C528 C 0.65453 0.31276 0.38961 0.0
C529 C 0.74179 0.31214 0.39003 0.0
C530 C 0.38196 0.27727 0.38469 0.0
C531 C 0.33632 0.26726 0.40049 0.0
C532 C 0.46935 0.2745 0.38472 0.0
C533 C 0.51383 0.26171 0.40057 0.0
C534 C 0.46786 0.25175 0.41636 0.0
C535 C 0.3807 0.25438 0.41631 0.0
loop_
_geom_bond_atom_site_label_1
_geom_bond_atom_site_label_2
_geom_bond_distance
_geom_bond_site_symmetry_2
_ccdc_geom_bond_type
Cd0 N3 2.334 . S
Cd0 N29 2.304 . S
Cd0 O36 2.268 1_455 S
Cd0 O39 2.273 . S
Cd0 O40 2.417 1_445 S
Cd0 O41 2.330 1_545 S
Cd1 N16 2.304 . S
Cd1 N20 2.334 . S
Cd1 O37 2.273 . S
Cd1 O38 2.268 1_655 S
Cd1 O42 2.417 1_655 S
Cd1 O43 2.330 . S
C2 N3 1.332 . S
C2 C6 1.381 . S
C2 H8 0.931 . S
N3 Cd0 2.334 . S
N3 C2 1.332 . S
N3 C7 1.328 1_455 S
C4 C5 1.396 1_655 S
C4 C7 1.378 . S
C4 H46 0.931 . S
C5 C4 1.396 1_455 S
C5 C6 1.382 . S
C6 C2 1.381 . S
C6 C5 1.382 . S
C6 H47 0.930 . S
C7 N3 1.328 1_655 S
C7 C4 1.378 . S
C7 H9 0.930 . S
H8 C2 0.931 . S
H9 C7 0.930 . S
C10 O36 1.238 . S
C10 O37 1.253 . S
C11 C12 1.379 . S
C11 N16 1.337 . S
C11 H17 0.929 . S
C12 C11 1.379 . S
C12 C13 1.380 . S
C12 H48 0.929 . S
C13 C12 1.380 . S
C13 C14 1.399 1_655 S
C14 C13 1.399 1_455 S
C14 C15 1.376 . S
C14 H49 0.931 . S
C15 C14 1.376 . S
C15 N16 1.338 1_455 S
C15 H18 0.930 . S
N16 Cd1 2.304 . S
N16 C11 1.337 . S
N16 C15 1.338 1_655 S
H17 C11 0.929 . S
H18 C15 0.930 . S
C19 N20 1.332 . S
C19 C23 1.381 . S
C19 H25 0.931 . S
N20 Cd1 2.334 . S
N20 C19 1.332 . S
N20 C24 1.328 1_655 S
C21 C22 1.396 1_455 S
C21 C24 1.378 . S
C21 H50 0.931 . S
C22 C21 1.396 1_655 S
C22 C23 1.382 . S
C23 C19 1.381 . S
C23 C22 1.382 . S
C23 H51 0.930 . S
C24 N20 1.328 1_455 S
C24 C21 1.378 . S
C24 H26 0.930 . S
H25 C19 0.931 . S
H26 C24 0.930 . S
C27 O38 1.238 . S
C27 O39 1.253 . S
C28 O40 1.239 1_455 S
C28 O41 1.230 . S
N29 Cd0 2.304 . S
N29 C30 1.337 . S
N29 C34 1.338 1_455 S
C30 N29 1.337 . S
C30 C31 1.379 . S
C30 H44 0.929 . S
C31 C30 1.379 . S
C31 C32 1.380 . S
C31 H52 0.929 . S
C32 C31 1.380 . S
C32 C33 1.399 1_455 S
C33 C32 1.399 1_655 S
C33 C34 1.376 . S
C33 H53 0.931 . S
C34 N29 1.338 1_655 S
C34 C33 1.376 . S
C34 H45 0.930 . S
C35 O42 1.239 1_655 S
C35 O43 1.230 . S
O36 Cd0 2.268 1_655 S
O36 C10 1.238 . S
O37 Cd1 2.273 . S
O37 C10 1.253 . S
O38 Cd1 2.268 1_455 S
O38 C27 1.238 . S
O39 Cd0 2.273 . S
O39 C27 1.253 . S
O40 Cd0 2.417 1_665 S
O40 C28 1.239 1_655 S
O41 Cd0 2.330 1_565 S
O41 C28 1.230 . S
O42 Cd1 2.417 1_455 S
O42 C35 1.239 1_455 S
O43 Cd1 2.330 . S
O43 C35 1.230 . S
H44 C30 0.929 . S
H45 C34 0.930 . S
H46 C4 0.931 . S
H47 C6 0.930 . S
H48 C12 0.929 . S
H49 C14 0.931 . S
H50 C21 0.931 . S
H51 C23 0.930 . S
H52 C31 0.929 . S
H53 C33 0.931 . S
Cd54 N57 2.334 . S
Cd54 N83 2.304 . S
Cd54 O90 2.268 . S
Cd54 O93 2.273 . S
Cd54 O94 2.417 . S
Cd54 O95 2.330 . S
Cd55 N70 2.304 . S
Cd55 N74 2.334 . S
Cd55 O91 2.273 . S
Cd55 O92 2.268 . S
Cd55 O96 2.417 . S
Cd55 O97 2.330 . S
C56 N57 1.332 . S
C56 C60 1.381 . S
C56 H62 0.931 . S
N57 Cd54 2.334 . S
N57 C56 1.332 . S
N57 C61 1.328 . S
C58 C59 1.396 . S
C58 C61 1.378 . S
C58 H100 0.931 . S
C59 C58 1.396 . S
C59 C60 1.382 . S
C60 C56 1.381 . S
C60 C59 1.382 . S
C60 H101 0.930 . S
C61 N57 1.328 . S
C61 C58 1.378 . S
C61 H63 0.930 . S
H62 C56 0.931 . S
H63 C61 0.930 . S
C64 O90 1.238 1_655 S
C64 O91 1.253 . S
C65 C66 1.379 . S
C65 N70 1.337 . S
C65 H71 0.929 . S
C66 C65 1.379 . S
C66 C67 1.380 . S
C66 H102 0.929 . S
C67 C66 1.380 . S
C67 C68 1.399 . S
C68 C67 1.399 . S
C68 C69 1.376 . S
C68 H103 0.931 . S
C69 C68 1.376 . S
C69 N70 1.338 . S
C69 H72 0.930 . S
N70 Cd55 2.304 . S
N70 C65 1.337 . S
N70 C69 1.338 . S
H71 C65 0.929 . S
H72 C69 0.930 . S
C73 N74 1.332 . S
C73 C77 1.381 . S
C73 H79 0.931 . S
N74 Cd55 2.334 . S
N74 C73 1.332 . S
N74 C78 1.328 . S
C75 C76 1.396 . S
C75 C78 1.378 . S
C75 H104 0.931 . S
C76 C75 1.396 . S
C76 C77 1.382 . S
C77 C73 1.381 . S
C77 C76 1.382 . S
C77 H105 0.930 . S
C78 N74 1.328 . S
C78 C75 1.378 . S
C78 H80 0.930 . S
H79 C73 0.931 . S
H80 C78 0.930 . S
C81 O92 1.238 1_455 S
C81 O93 1.253 . S
C82 O94 1.239 . S
C82 O95 1.230 . S
N83 Cd54 2.304 . S
N83 C84 1.337 . S
N83 C88 1.338 . S
C84 N83 1.337 . S
C84 C85 1.379 . S
C84 H98 0.929 . S
C85 C84 1.379 . S
C85 C86 1.380 . S
C85 H106 0.929 . S
C86 C85 1.380 . S
C86 C87 1.399 . S
C87 C86 1.399 . S
C87 C88 1.376 . S
C87 H107 0.931 . S
C88 N83 1.338 . S
C88 C87 1.376 . S
C88 H99 0.930 . S
C89 O96 1.239 . S
C89 O97 1.230 . S
O90 Cd54 2.268 . S
O90 C64 1.238 1_455 S
O91 Cd55 2.273 . S
O91 C64 1.253 . S
O92 Cd55 2.268 . S
O92 C81 1.238 1_655 S
O93 Cd54 2.273 . S
O93 C81 1.253 . S
O94 Cd54 2.417 . S
O94 C82 1.239 . S
O95 Cd54 2.330 . S
O95 C82 1.230 . S
O96 Cd55 2.417 . S
O96 C89 1.239 . S
O97 Cd55 2.330 . S
O97 C89 1.230 . S
H98 C84 0.929 . S
H99 C88 0.930 . S
H100 C58 0.931 . S
H101 C60 0.930 . S
H102 C66 0.929 . S
H103 C68 0.931 . S
H104 C75 0.931 . S
H105 C77 0.930 . S
H106 C85 0.929 . S
H107 C87 0.931 . S
Cd108 N111 2.334 . S
Cd108 N137 2.304 . S
Cd108 O144 2.268 . S
Cd108 O147 2.273 . S
Cd108 O148 2.417 . S
Cd108 O149 2.330 . S
Cd109 N124 2.304 . S
Cd109 N128 2.334 . S
Cd109 O145 2.273 . S
Cd109 O146 2.268 . S
Cd109 O150 2.417 1_565 S
Cd109 O151 2.330 1_565 S
C110 N111 1.332 . S
C110 C114 1.381 . S
C110 H116 0.931 . S
N111 Cd108 2.334 . S
N111 C110 1.332 . S
N111 C115 1.328 . S
C112 C113 1.396 . S
C112 C115 1.378 . S
C112 H154 0.931 . S
C113 C112 1.396 . S
C113 C114 1.382 . S
C114 C110 1.381 . S
C114 C113 1.382 . S
C114 H155 0.930 . S
C115 N111 1.328 . S
C115 C112 1.378 . S
C115 H117 0.930 . S
H116 C110 0.931 . S
H117 C115 0.930 . S
C118 O144 1.238 . S
C118 O145 1.253 . S
C119 C120 1.379 . S
C119 N124 1.337 . S
C119 H125 0.929 . S
C120 C119 1.379 . S
C120 C121 1.380 . S
C120 H156 0.929 . S
C121 C120 1.380 . S
C121 C122 1.399 . S
C122 C121 1.399 . S
C122 C123 1.376 . S
C122 H157 0.931 . S
C123 C122 1.376 . S
C123 N124 1.338 . S
C123 H126 0.930 . S
N124 Cd109 2.304 . S
N124 C119 1.337 . S
N124 C123 1.338 . S
H125 C119 0.929 . S
H126 C123 0.930 . S
C127 N128 1.332 . S
C127 C131 1.381 . S
C127 H133 0.931 . S
N128 Cd109 2.334 . S
N128 C127 1.332 . S
N128 C132 1.328 . S
C129 C130 1.396 . S
C129 C132 1.378 . S
C129 H158 0.931 . S
C130 C129 1.396 . S
C130 C131 1.382 . S
C131 C127 1.381 . S
C131 C130 1.382 . S
C131 H159 0.930 . S
C132 N128 1.328 . S
C132 C129 1.378 . S
C132 H134 0.930 . S
H133 C127 0.931 . S
H134 C132 0.930 . S
C135 O146 1.238 . S
C135 O147 1.253 . S
C136 O148 1.239 . S
C136 O149 1.230 . S
N137 Cd108 2.304 . S
N137 C138 1.337 . S
N137 C142 1.338 . S
C138 N137 1.337 . S
C138 C139 1.379 . S
C138 H152 0.929 . S
C139 C138 1.379 . S
C139 C140 1.380 . S
C139 H160 0.929 . S
C140 C139 1.380 . S
C140 C141 1.399 . S
C141 C140 1.399 . S
C141 C142 1.376 . S
C141 H161 0.931 . S
C142 N137 1.338 . S
C142 C141 1.376 . S
C142 H153 0.930 . S
C143 O150 1.239 . S
C143 O151 1.230 . S
O144 Cd108 2.268 . S
O144 C118 1.238 . S
O145 Cd109 2.273 . S
O145 C118 1.253 . S
O146 Cd109 2.268 . S
O146 C135 1.238 . S
O147 Cd108 2.273 . S
O147 C135 1.253 . S
O148 Cd108 2.417 . S
O148 C136 1.239 . S
O149 Cd108 2.330 . S
O149 C136 1.230 . S
O150 Cd109 2.417 1_545 S
O150 C143 1.239 . S
O151 Cd109 2.330 1_545 S
O151 C143 1.230 . S
H152 C138 0.929 . S
H153 C142 0.930 . S
H154 C112 0.931 . S
H155 C114 0.930 . S
H156 C120 0.929 . S
H157 C122 0.931 . S
H158 C129 0.931 . S
H159 C131 0.930 . S
H160 C139 0.929 . S
H161 C141 0.931 . S
Cd162 N165 2.334 . S
Cd162 N191 2.304 . S
Cd162 O198 2.268 . S
Cd162 O201 2.273 . S
Cd162 O202 2.417 . S
Cd162 O203 2.330 . S
Cd163 N178 2.304 . S
Cd163 N182 2.334 . S
Cd163 O199 2.273 . S
Cd163 O200 2.268 . S
Cd163 O204 2.417 . S
Cd163 O205 2.330 . S
C164 N165 1.332 . S
C164 C168 1.381 . S
C164 H170 0.931 . S
N165 Cd162 2.334 . S
N165 C164 1.332 . S
N165 C169 1.328 . S
C166 C167 1.396 . S
C166 C169 1.378 . S
C166 H208 0.931 . S
C167 C166 1.396 . S
C167 C168 1.382 . S
C168 C164 1.381 . S
C168 C167 1.382 . S
C168 H209 0.930 . S
C169 N165 1.328 . S
C169 C166 1.378 . S
C169 H171 0.930 . S
H170 C164 0.931 . S
H171 C169 0.930 . S
C172 O198 1.238 . S
C172 O199 1.253 . S
C173 C174 1.379 . S
C173 N178 1.337 . S
C173 H179 0.929 . S
C174 C173 1.379 . S
C174 C175 1.380 . S
C174 H210 0.929 . S
C175 C174 1.380 . S
C175 C176 1.399 . S
C176 C175 1.399 . S
C176 C177 1.376 . S
C176 H211 0.931 . S
C177 C176 1.376 . S
C177 N178 1.338 . S
C177 H180 0.930 . S
N178 Cd163 2.304 . S
N178 C173 1.337 . S
N178 C177 1.338 . S
H179 C173 0.929 . S
H180 C177 0.930 . S
C181 N182 1.332 . S
C181 C185 1.381 . S
C181 H187 0.931 . S
N182 Cd163 2.334 . S
N182 C181 1.332 . S
N182 C186 1.328 . S
C183 C184 1.396 . S
C183 C186 1.378 . S
C183 H212 0.931 . S
C184 C183 1.396 . S
C184 C185 1.382 . S
C185 C181 1.381 . S
C185 C184 1.382 . S
C185 H213 0.930 . S
C186 N182 1.328 . S
C186 C183 1.378 . S
C186 H188 0.930 . S
H187 C181 0.931 . S
H188 C186 0.930 . S
C189 O200 1.238 . S
C189 O201 1.253 . S
C190 O202 1.239 . S
C190 O203 1.230 . S
N191 Cd162 2.304 . S
N191 C192 1.337 . S
N191 C196 1.338 . S
C192 N191 1.337 . S
C192 C193 1.379 . S
C192 H206 0.929 . S
C193 C192 1.379 . S
C193 C194 1.380 . S
C193 H214 0.929 . S
C194 C193 1.380 . S
C194 C195 1.399 . S
C195 C194 1.399 . S
C195 C196 1.376 . S
C195 H215 0.931 . S
C196 N191 1.338 . S
C196 C195 1.376 . S
C196 H207 0.930 . S
C197 O204 1.239 . S
C197 O205 1.230 . S
O198 Cd162 2.268 . S
O198 C172 1.238 . S
O199 Cd163 2.273 . S
O199 C172 1.253 . S
O200 Cd163 2.268 . S
O200 C189 1.238 . S
O201 Cd162 2.273 . S
O201 C189 1.253 . S
O202 Cd162 2.417 . S
O202 C190 1.239 . S
O203 Cd162 2.330 . S
O203 C190 1.230 . S
O204 Cd163 2.417 . S
O204 C197 1.239 . S
O205 Cd163 2.330 . S
O205 C197 1.230 . S
H206 C192 0.929 . S
H207 C196 0.930 . S
H208 C166 0.931 . S
H209 C168 0.930 . S
H210 C174 0.929 . S
H211 C176 0.931 . S
H212 C183 0.931 . S
H213 C185 0.930 . S
H214 C193 0.929 . S
H215 C195 0.931 . S
H216 C224 0.950 . S
H217 C229 0.950 . S
H218 C226 0.950 . S
H219 C228 0.950 . S
H220 C230 0.950 . S
H221 C232 0.950 . S
H222 C234 0.950 1_455 S
H223 C235 0.950 1_455 S
C224 H216 0.950 . S
C224 C225 1.386 1_455 S
C224 C226 1.391 . S
C225 C224 1.386 1_655 S
C225 C229 1.393 . S
C226 H218 0.950 . S
C226 C224 1.391 . S
C226 C227 1.400 1_455 S
C227 C226 1.400 1_655 S
C227 C228 1.398 . S
C227 C233 1.491 . S
C228 H219 0.950 . S
C228 C227 1.398 . S
C228 C229 1.391 . S
C229 H217 0.950 . S
C229 C225 1.393 . S
C229 C228 1.391 . S
C230 H220 0.950 . S
C230 C231 1.386 . S
C230 C232 1.391 . S
C231 C230 1.386 . S
C231 C235 1.393 . S
C232 H221 0.950 . S
C232 C230 1.391 . S
C232 C233 1.400 . S
C233 C227 1.491 . S
C233 C232 1.400 . S
C233 C234 1.398 . S
C234 H222 0.950 1_655 S
C234 C233 1.398 . S
C234 C235 1.391 . S
C235 H223 0.950 1_655 S
C235 C231 1.393 . S
C235 C234 1.391 . S
H236 C244 0.950 . S
H237 C249 0.950 . S
H238 C246 0.950 . S
H239 C248 0.950 . S
H240 C250 0.950 . S
H241 C252 0.950 . S
H242 C254 0.950 . S
H243 C255 0.950 . S
C244 H236 0.950 . S
C244 C245 1.386 . S
C244 C246 1.391 . S
C245 C244 1.386 . S
C245 C249 1.393 . S
C246 H238 0.950 . S
C246 C244 1.391 . S
C246 C247 1.400 . S
C247 C246 1.400 . S
C247 C248 1.398 . S
C247 C253 1.491 . S
C248 H239 0.950 . S
C248 C247 1.398 . S
C248 C249 1.391 . S
C249 H237 0.950 . S
C249 C245 1.393 . S
C249 C248 1.391 . S
C250 H240 0.950 . S
C250 C251 1.386 . S
C250 C252 1.391 . S
C251 C250 1.386 . S
C251 C255 1.393 . S
C252 H241 0.950 . S
C252 C250 1.391 . S
C252 C253 1.400 . S
C253 C247 1.491 . S
C253 C252 1.400 . S
C253 C254 1.398 . S
C254 H242 0.950 . S
C254 C253 1.398 . S
C254 C255 1.391 . S
C255 H243 0.950 . S
C255 C251 1.393 . S
C255 C254 1.391 . S
H256 C264 0.950 . S
H257 C269 0.950 . S
H258 C266 0.950 . S
H259 C268 0.950 1_554 S
H260 C270 0.950 . S
H261 C272 0.950 . S
H262 C274 0.950 1_556 S
H263 C275 0.950 . S
C264 H256 0.950 . S
C264 C265 1.386 . S
C264 C266 1.391 . S
C265 C264 1.386 . S
C265 C269 1.393 . S
C266 H258 0.950 . S
C266 C264 1.391 . S
C266 C267 1.400 . S
C267 C266 1.400 . S
C267 C268 1.398 . S
C267 C273 1.491 1_556 S
C268 H259 0.950 1_556 S
C268 C267 1.398 . S
C268 C269 1.391 . S
C269 H257 0.950 . S
C269 C265 1.393 . S
C269 C268 1.391 . S
C270 H260 0.950 . S
C270 C271 1.386 . S
C270 C272 1.391 . S
C271 C270 1.386 . S
C271 C275 1.393 . S
C272 H261 0.950 . S
C272 C270 1.391 . S
C272 C273 1.400 . S
C273 C267 1.491 1_554 S
C273 C272 1.400 . S
C273 C274 1.398 . S
C274 H262 0.950 1_554 S
C274 C273 1.398 . S
C274 C275 1.391 . S
C275 H263 0.950 . S
C275 C271 1.393 . S
C275 C274 1.391 . S
H276 C284 0.950 . S
H277 C289 0.950 . S
H278 C286 0.950 . S
H279 C288 0.950 . S
H280 C290 0.950 . S
H281 C292 0.950 . S
H282 C294 0.950 . S
H283 C295 0.950 . S
C284 H276 0.950 . S
C284 C285 1.386 . S
C284 C286 1.391 . S
C285 C284 1.386 . S
C285 C289 1.393 . S
C286 H278 0.950 . S
C286 C284 1.391 . S
C286 C287 1.400 . S
C287 C286 1.400 . S
C287 C288 1.398 . S
C287 C293 1.491 . S
C288 H279 0.950 . S
C288 C287 1.398 . S
C288 C289 1.391 . S
C289 H277 0.950 . S
C289 C285 1.393 . S
C289 C288 1.391 . S
C290 H280 0.950 . S
C290 C291 1.386 . S
C290 C292 1.391 . S
C291 C290 1.386 . S
C291 C295 1.393 . S
C292 H281 0.950 . S
C292 C290 1.391 . S
C292 C293 1.400 . S
C293 C287 1.491 . S
C293 C292 1.400 . S
C293 C294 1.398 . S
C294 H282 0.950 . S
C294 C293 1.398 . S
C294 C295 1.391 . S
C295 H283 0.950 . S
C295 C291 1.393 . S
C295 C294 1.391 . S
H296 C304 0.950 . S
H297 C309 0.950 . S
H298 C306 0.950 . S
H299 C308 0.950 . S
H300 C310 0.950 . S
H301 C312 0.950 . S
H302 C314 0.950 . S
H303 C315 0.950 . S
C304 H296 0.950 . S
C304 C305 1.386 . S
C304 C306 1.391 . S
C305 C304 1.386 . S
C305 C309 1.393 . S
C306 H298 0.950 . S
C306 C304 1.391 . S
C306 C307 1.400 . S
C307 C306 1.400 . S
C307 C308 1.398 . S
C307 C313 1.491 . S
C308 H299 0.950 . S
C308 C307 1.398 . S
C308 C309 1.391 . S
C309 H297 0.950 . S
C309 C305 1.393 . S
C309 C308 1.391 . S
C310 H300 0.950 . S
C310 C311 1.386 . S
C310 C312 1.391 . S
C311 C310 1.386 . S
C311 C315 1.393 . S
C312 H301 0.950 . S
C312 C310 1.391 . S
C312 C313 1.400 . S
C313 C307 1.491 . S
C313 C312 1.400 . S
C313 C314 1.398 . S
C314 H302 0.950 . S
C314 C313 1.398 . S
C314 C315 1.391 . S
C315 H303 0.950 . S
C315 C311 1.393 . S
C315 C314 1.391 . S
H316 C324 0.950 . S
H317 C329 0.950 . S
H318 C326 0.950 . S
H319 C328 0.950 . S
H320 C330 0.950 . S
H321 C332 0.950 . S
H322 C334 0.950 . S
H323 C335 0.950 . S
C324 H316 0.950 . S
C324 C325 1.386 . S
C324 C326 1.391 . S
C325 C324 1.386 . S
C325 C329 1.393 . S
C326 H318 0.950 . S
C326 C324 1.391 . S
C326 C327 1.400 . S
C327 C326 1.400 . S
C327 C328 1.398 . S
C327 C333 1.491 . S
C328 H319 0.950 . S
C328 C327 1.398 . S
C328 C329 1.391 . S
C329 H317 0.950 . S
C329 C325 1.393 . S
C329 C328 1.391 . S
C330 H320 0.950 . S
C330 C331 1.386 . S
C330 C332 1.391 . S
C331 C330 1.386 . S
C331 C335 1.393 . S
C332 H321 0.950 . S
C332 C330 1.391 . S
C332 C333 1.400 . S
C333 C327 1.491 . S
C333 C332 1.400 . S
C333 C334 1.398 . S
C334 H322 0.950 . S
C334 C333 1.398 . S
C334 C335 1.391 . S
C335 H323 0.950 . S
C335 C331 1.393 . S
C335 C334 1.391 . S
H336 C344 0.950 . S
H337 C349 0.950 . S
H338 C346 0.950 . S
H339 C348 0.950 . S
H340 C350 0.950 . S
H341 C352 0.950 . S
H342 C354 0.950 . S
H343 C355 0.950 . S
C344 H336 0.950 . S
C344 C345 1.386 . S
C344 C346 1.391 . S
C345 C344 1.386 . S
C345 C349 1.393 . S
C346 H338 0.950 . S
C346 C344 1.391 . S
C346 C347 1.400 1_565 S
C347 C346 1.400 1_545 S
C347 C348 1.398 . S
C347 C353 1.491 1_556 S
C348 H339 0.950 . S
C348 C347 1.398 . S
C348 C349 1.391 1_545 S
C349 H337 0.950 . S
C349 C345 1.393 . S
C349 C348 1.391 1_565 S
C350 H340 0.950 . S
C350 C351 1.386 . S
C350 C352 1.391 . S
C351 C350 1.386 . S
C351 C355 1.393 . S
C352 H341 0.950 . S
C352 C350 1.391 . S
C352 C353 1.400 . S
C353 C347 1.491 1_554 S
C353 C352 1.400 . S
C353 C354 1.398 . S
C354 H342 0.950 . S
C354 C353 1.398 . S
C354 C355 1.391 . S
C355 H343 0.950 . S
C355 C351 1.393 . S
C355 C354 1.391 . S
H356 C364 0.950 . S
H357 C369 0.950 . S
H358 C366 0.950 . S
H359 C368 0.950 . S
H360 C370 0.950 1_655 S
H361 C372 0.950 1_655 S
H362 C374 0.950 . S
H363 C375 0.950 . S
C364 H356 0.950 . S
C364 C365 1.386 . S
C364 C366 1.391 . S
C365 C364 1.386 . S
C365 C369 1.393 1_455 S
C366 H358 0.950 . S
C366 C364 1.391 . S
C366 C367 1.400 1_545 S
C367 C366 1.400 1_565 S
C367 C368 1.398 1_455 S
C367 C373 1.491 . S
C368 H359 0.950 . S
C368 C367 1.398 1_655 S
C368 C369 1.391 1_565 S
C369 H357 0.950 . S
C369 C365 1.393 1_655 S
C369 C368 1.391 1_545 S
C370 H360 0.950 1_455 S
C370 C371 1.386 . S
C370 C372 1.391 . S
C371 C370 1.386 . S
C371 C375 1.393 . S
C372 H361 0.950 1_455 S
C372 C370 1.391 . S
C372 C373 1.400 . S
C373 C367 1.491 . S
C373 C372 1.400 . S
C373 C374 1.398 . S
C374 H362 0.950 . S
C374 C373 1.398 . S
C374 C375 1.391 . S
C375 H363 0.950 . S
C375 C371 1.393 . S
C375 C374 1.391 . S
H376 C384 0.950 . S
H377 C389 0.950 . S
H378 C386 0.950 . S
H379 C388 0.950 . S
H380 C390 0.950 . S
H381 C392 0.950 . S
H382 C394 0.950 . S
H383 C395 0.950 . S
C384 H376 0.950 . S
C384 C385 1.386 1_655 S
C384 C386 1.391 . S
C385 C384 1.386 1_455 S
C385 C389 1.393 . S
C386 H378 0.950 . S
C386 C384 1.391 . S
C386 C387 1.400 1_655 S
C387 C386 1.400 1_455 S
C387 C388 1.398 . S
C387 C393 1.491 . S
C388 H379 0.950 . S
C388 C387 1.398 . S
C388 C389 1.391 . S
C389 H377 0.950 . S
C389 C385 1.393 . S
C389 C388 1.391 . S
C390 H380 0.950 . S
C390 C391 1.386 1_455 S
C390 C392 1.391 . S
C391 C390 1.386 1_655 S
C391 C395 1.393 . S
C392 H381 0.950 . S
C392 C390 1.391 . S
C392 C393 1.400 . S
C393 C387 1.491 . S
C393 C392 1.400 . S
C393 C394 1.398 1_455 S
C394 H382 0.950 . S
C394 C393 1.398 1_655 S
C394 C395 1.391 . S
C395 H383 0.950 . S
C395 C391 1.393 . S
C395 C394 1.391 . S
H396 C404 0.950 . S
H397 C409 0.950 . S
H398 C406 0.950 . S
H399 C408 0.950 . S
H400 C410 0.950 . S
H401 C412 0.950 . S
H402 C414 0.950 . S
H403 C415 0.950 . S
C404 H396 0.950 . S
C404 C405 1.386 . S
C404 C406 1.391 . S
C405 C404 1.386 . S
C405 C409 1.393 . S
C406 H398 0.950 . S
C406 C404 1.391 . S
C406 C407 1.400 . S
C407 C406 1.400 . S
C407 C408 1.398 . S
C407 C413 1.491 . S
C408 H399 0.950 . S
C408 C407 1.398 . S
C408 C409 1.391 . S
C409 H397 0.950 . S
C409 C405 1.393 . S
C409 C408 1.391 . S
C410 H400 0.950 . S
C410 C411 1.386 . S
C410 C412 1.391 . S
C411 C410 1.386 . S
C411 C415 1.393 . S
C412 H401 0.950 . S
C412 C410 1.391 . S
C412 C413 1.400 . S
C413 C407 1.491 . S
C413 C412 1.400 . S
C413 C414 1.398 . S
C414 H402 0.950 . S
C414 C413 1.398 . S
C414 C415 1.391 . S
C415 H403 0.950 . S
C415 C411 1.393 . S
C415 C414 1.391 . S
H416 C424 0.950 . S
H417 C429 0.950 . S
H418 C426 0.950 . S
H419 C428 0.950 . S
H420 C430 0.950 . S
H421 C432 0.950 . S
H422 C434 0.950 . S
H423 C435 0.950 . S
C424 H416 0.950 . S
C424 C425 1.386 . S
C424 C426 1.391 . S
C425 C424 1.386 . S
C425 C429 1.393 . S
C426 H418 0.950 . S
C426 C424 1.391 . S
C426 C427 1.400 . S
C427 C426 1.400 . S
C427 C428 1.398 . S
C427 C433 1.491 . S
C428 H419 0.950 . S
C428 C427 1.398 . S
C428 C429 1.391 . S
C429 H417 0.950 . S
C429 C425 1.393 . S
C429 C428 1.391 . S
C430 H420 0.950 . S
C430 C431 1.386 . S
C430 C432 1.391 . S
C431 C430 1.386 . S
C431 C435 1.393 . S
C432 H421 0.950 . S
C432 C430 1.391 . S
C432 C433 1.400 . S
C433 C427 1.491 . S
C433 C432 1.400 . S
C433 C434 1.398 . S
C434 H422 0.950 . S
C434 C433 1.398 . S
C434 C435 1.391 . S
C435 H423 0.950 . S
C435 C431 1.393 . S
C435 C434 1.391 . S
H436 C444 0.950 . S
H437 C449 0.950 . S
H438 C446 0.950 . S
H439 C448 0.950 . S
H440 C450 0.950 . S
H441 C452 0.950 . S
H442 C454 0.950 . S
H443 C455 0.950 . S
C444 H436 0.950 . S
C444 C445 1.386 . S
C444 C446 1.391 . S
C445 C444 1.386 . S
C445 C449 1.393 . S
C446 H438 0.950 . S
C446 C444 1.391 . S
C446 C447 1.400 . S
C447 C446 1.400 . S
C447 C448 1.398 . S
C447 C453 1.491 1_455 S
C448 H439 0.950 . S
C448 C447 1.398 . S
C448 C449 1.391 . S
C449 H437 0.950 . S
C449 C445 1.393 . S
C449 C448 1.391 . S
C450 H440 0.950 . S
C450 C451 1.386 . S
C450 C452 1.391 . S
C451 C450 1.386 . S
C451 C455 1.393 . S
C452 H441 0.950 . S
C452 C450 1.391 . S
C452 C453 1.400 . S
C453 C447 1.491 1_655 S
C453 C452 1.400 . S
C453 C454 1.398 . S
C454 H442 0.950 . S
C454 C453 1.398 . S
C454 C455 1.391 . S
C455 H443 0.950 . S
C455 C451 1.393 . S
C455 C454 1.391 . S
H456 C464 0.950 . S
H457 C469 0.950 . S
H458 C466 0.950 . S
H459 C468 0.950 . S
H460 C470 0.950 . S
H461 C472 0.950 . S
H462 C474 0.950 . S
H463 C475 0.951 . S
C464 H456 0.950 . S
C464 C465 1.386 . S
C464 C466 1.391 . S
C465 C464 1.386 . S
C465 C469 1.393 1_655 S
C466 H458 0.950 . S
C466 C464 1.391 . S
C466 C467 1.401 . S
C467 C466 1.401 . S
C467 C468 1.397 1_655 S
C467 C473 1.490 1_655 S
C468 H459 0.950 . S
C468 C467 1.397 1_455 S
C468 C469 1.391 . S
C469 H457 0.950 . S
C469 C465 1.393 1_455 S
C469 C468 1.391 . S
C470 H460 0.950 . S
C470 C471 1.386 . S
C470 C472 1.391 . S
C471 C470 1.386 . S
C471 C475 1.391 1_455 S
C472 H461 0.950 . S
C472 C470 1.391 . S
C472 C473 1.400 . S
C473 C467 1.490 1_455 S
C473 C472 1.400 . S
C473 C474 1.398 1_455 S
C474 H462 0.950 . S
C474 C473 1.398 1_655 S
C474 C475 1.392 . S
C475 H463 0.951 . S
C475 C471 1.391 1_655 S
C475 C474 1.392 . S
H476 C484 0.950 . S
H477 C489 0.950 . S
H478 C486 0.950 . S
H479 C488 0.950 . S
H480 C490 0.950 . S
H481 C492 0.950 . S
H482 C494 0.950 . S
H483 C495 0.950 . S
C484 H476 0.950 . S
C484 C485 1.386 . S
C484 C486 1.391 . S
C485 C484 1.386 . S
C485 C489 1.393 . S
C486 H478 0.950 . S
C486 C484 1.391 . S
C486 C487 1.400 . S
C487 C486 1.400 . S
C487 C488 1.398 . S
C487 C493 1.491 1_655 S
C488 H479 0.950 . S
C488 C487 1.398 . S
C488 C489 1.391 . S
C489 H477 0.950 . S
C489 C485 1.393 . S
C489 C488 1.391 . S
C490 H480 0.950 . S
C490 C491 1.386 . S
C490 C492 1.391 . S
C491 C490 1.386 . S
C491 C495 1.393 . S
C492 H481 0.950 . S
C492 C490 1.391 . S
C492 C493 1.400 . S
C493 C487 1.491 1_455 S
C493 C492 1.400 . S
C493 C494 1.398 . S
C494 H482 0.950 . S
C494 C493 1.398 . S
C494 C495 1.391 . S
C495 H483 0.950 . S
C495 C491 1.393 . S
C495 C494 1.391 . S
H496 C504 0.950 . S
H497 C509 0.950 . S
H498 C506 0.950 . S
H499 C508 0.950 . S
H500 C510 0.950 . S
H501 C512 0.950 . S
H502 C514 0.950 . S
H503 C515 0.950 . S
C504 H496 0.950 . S
C504 C505 1.386 . S
C504 C506 1.391 . S
C505 C504 1.386 . S
C505 C509 1.393 . S
C506 H498 0.950 . S
C506 C504 1.391 . S
C506 C507 1.400 . S
C507 C506 1.400 . S
C507 C508 1.398 . S
C507 C513 1.491 . S
C508 H499 0.950 . S
C508 C507 1.398 . S
C508 C509 1.391 . S
C509 H497 0.950 . S
C509 C505 1.393 . S
C509 C508 1.391 . S
C510 H500 0.950 . S
C510 C511 1.386 . S
C510 C512 1.391 . S
C511 C510 1.386 . S
C511 C515 1.393 . S
C512 H501 0.950 . S
C512 C510 1.391 . S
C512 C513 1.400 . S
C513 C507 1.491 . S
C513 C512 1.400 . S
C513 C514 1.398 . S
C514 H502 0.950 . S
C514 C513 1.398 . S
C514 C515 1.391 . S
C515 H503 0.950 . S
C515 C511 1.393 . S
C515 C514 1.391 . S
H516 C524 0.950 . S
H517 C529 0.950 . S
H518 C526 0.950 . S
H519 C528 0.950 . S
H520 C530 0.950 . S
H521 C532 0.950 . S
H522 C534 0.950 . S
H523 C535 0.950 . S
C524 H516 0.950 . S
C524 C525 1.386 . S
C524 C526 1.391 . S
C525 C524 1.386 . S
C525 C529 1.393 . S
C526 H518 0.950 . S
C526 C524 1.391 . S
C526 C527 1.400 . S
C527 C526 1.400 . S
C527 C528 1.398 . S
C527 C533 1.491 . S
C528 H519 0.950 . S
C528 C527 1.398 . S
C528 C529 1.391 . S
C529 H517 0.950 . S
C529 C525 1.393 . S
C529 C528 1.391 . S
C530 H520 0.950 . S
C530 C531 1.386 . S
C530 C532 1.391 . S
C531 C530 1.386 . S
C531 C535 1.393 . S
C532 H521 0.950 . S
C532 C530 1.391 . S
C532 C533 1.400 . S
C533 C527 1.491 . S
C533 C532 1.400 . S
C533 C534 1.398 . S
C534 H522 0.950 . S
C534 C533 1.398 . S
C534 C535 1.391 . S
C535 H523 0.950 . S
C535 C531 1.393 . S
C535 C534 1.391 . S
C225 C13 2.127 . S
C231 C76 2.132 . S
C245 C113 2.150 . S
C251 C67 2.145 . S
C265 C140 2.133 . S
C271 C167 2.137 . S
C285 C22 2.152 . S
C291 C194 2.148 . S
C305 C175 2.127 . S
C311 C5 2.132 . S
C325 C86 2.131 . S
C331 C130 2.135 . S
C345 C121 2.146 . S
C351 C184 2.151 . S
C365 C32 2.147 . S
C371 C59 2.152 . S
C385 C28 0.245 . S
C391 C35 0.248 . S
C405 C82 0.248 . S
C411 C89 0.246 . S
C425 C136 0.243 . S
C431 C143 0.241 . S
C445 C197 0.246 . S
C451 C190 0.242 . S
C465 C81 1.895 1_645 S
C471 C64 1.895 1_455 S
C485 C135 1.900 . S
C491 C118 1.900 . S
C505 C189 1.907 . S
C511 C172 1.907 1_565 S
C525 C10 1.896 . S
C531 C27 1.896 . S
