# Generated by pormake.
# Topology gie, (4)-cn, num edge types: 1
# Building blocks:
#     Node 0, Type 0, BuildingBlock: QUQFOY_clean_sbu_3, # of connection points: 4
#     Node 1, Type 0, BuildingBlock: QUQFOY_clean_sbu_3, # of connection points: 4
#     Node 2, Type 0, BuildingBlock: QUQFOY_clean_sbu_3, # of connection points: 4
#     Node 3, Type 0, BuildingBlock: QUQFOY_clean_sbu_3, # of connection points: 4
#     Node 4, Type 0, BuildingBlock: QUQFOY_clean_sbu_3, # of connection points: 4
#     Node 5, Type 0, BuildingBlock: QUQFOY_clean_sbu_3, # of connection points: 4
#     Node 6, Type 0, BuildingBlock: QUQFOY_clean_sbu_3, # of connection points: 4
#     Node 7, Type 0, BuildingBlock: QUQFOY_clean_sbu_3, # of connection points: 4
#     Node 8, Type 0, BuildingBlock: QUQFOY_clean_sbu_3, # of connection points: 4
#     Node 9, Type 0, BuildingBlock: QUQFOY_clean_sbu_3, # of connection points: 4
#     Node 10, Type 0, BuildingBlock: QUQFOY_clean_sbu_3, # of connection points: 4
#     Node 11, Type 0, BuildingBlock: QUQFOY_clean_sbu_3, # of connection points: 4
#     Node 12, Type 0, BuildingBlock: QUQFOY_clean_sbu_3, # of connection points: 4
#     Node 13, Type 0, BuildingBlock: QUQFOY_clean_sbu_3, # of connection points: 4
#     Node 14, Type 0, BuildingBlock: QUQFOY_clean_sbu_3, # of connection points: 4
#     Node 15, Type 0, BuildingBlock: QUQFOY_clean_sbu_3, # of connection points: 4
#     Node 16, Type 0, BuildingBlock: QUQFOY_clean_sbu_3, # of connection points: 4
#     Node 17, Type 0, BuildingBlock: QUQFOY_clean_sbu_3, # of connection points: 4
#     Node 18, Type 0, BuildingBlock: QUQFOY_clean_sbu_3, # of connection points: 4
#     Node 19, Type 0, BuildingBlock: QUQFOY_clean_sbu_3, # of connection points: 4
#     Node 20, Type 0, BuildingBlock: QUQFOY_clean_sbu_3, # of connection points: 4
#     Node 21, Type 0, BuildingBlock: QUQFOY_clean_sbu_3, # of connection points: 4
#     Node 22, Type 0, BuildingBlock: QUQFOY_clean_sbu_3, # of connection points: 4
#     Node 23, Type 0, BuildingBlock: QUQFOY_clean_sbu_3, # of connection points: 4
#     Node 24, Type 0, BuildingBlock: QUQFOY_clean_sbu_3, # of connection points: 4
#     Node 25, Type 0, BuildingBlock: QUQFOY_clean_sbu_3, # of connection points: 4
#     Node 26, Type 0, BuildingBlock: QUQFOY_clean_sbu_3, # of connection points: 4
#     Node 27, Type 0, BuildingBlock: QUQFOY_clean_sbu_3, # of connection points: 4
#     Node 28, Type 0, BuildingBlock: QUQFOY_clean_sbu_3, # of connection points: 4
#     Node 29, Type 0, BuildingBlock: QUQFOY_clean_sbu_3, # of connection points: 4
#     Node 30, Type 0, BuildingBlock: QUQFOY_clean_sbu_3, # of connection points: 4
#     Node 31, Type 0, BuildingBlock: QUQFOY_clean_sbu_3, # of connection points: 4
#     Node 32, Type 0, BuildingBlock: QUQFOY_clean_sbu_3, # of connection points: 4
#     Node 33, Type 0, BuildingBlock: QUQFOY_clean_sbu_3, # of connection points: 4
#     Node 34, Type 0, BuildingBlock: QUQFOY_clean_sbu_3, # of connection points: 4
#     Node 35, Type 0, BuildingBlock: QUQFOY_clean_sbu_3, # of connection points: 4
#     Node 36, Type 0, BuildingBlock: QUQFOY_clean_sbu_3, # of connection points: 4
#     Node 37, Type 0, BuildingBlock: QUQFOY_clean_sbu_3, # of connection points: 4
#     Node 38, Type 0, BuildingBlock: QUQFOY_clean_sbu_3, # of connection points: 4
#     Node 39, Type 0, BuildingBlock: QUQFOY_clean_sbu_3, # of connection points: 4
#     Node 40, Type 0, BuildingBlock: QUQFOY_clean_sbu_3, # of connection points: 4
#     Node 41, Type 0, BuildingBlock: QUQFOY_clean_sbu_3, # of connection points: 4
#     Node 42, Type 0, BuildingBlock: QUQFOY_clean_sbu_3, # of connection points: 4
#     Node 43, Type 0, BuildingBlock: QUQFOY_clean_sbu_3, # of connection points: 4
#     Node 44, Type 0, BuildingBlock: QUQFOY_clean_sbu_3, # of connection points: 4
#     Node 45, Type 0, BuildingBlock: QUQFOY_clean_sbu_3, # of connection points: 4
#     Node 46, Type 0, BuildingBlock: QUQFOY_clean_sbu_3, # of connection points: 4
#     Node 47, Type 0, BuildingBlock: QUQFOY_clean_sbu_3, # of connection points: 4
#     Node 48, Type 0, BuildingBlock: QUQFOY_clean_sbu_3, # of connection points: 4
#     Node 49, Type 0, BuildingBlock: QUQFOY_clean_sbu_3, # of connection points: 4
#     Node 50, Type 0, BuildingBlock: QUQFOY_clean_sbu_3, # of connection points: 4
#     Node 51, Type 0, BuildingBlock: QUQFOY_clean_sbu_3, # of connection points: 4
#     Node 52, Type 0, BuildingBlock: QUQFOY_clean_sbu_3, # of connection points: 4
#     Node 53, Type 0, BuildingBlock: QUQFOY_clean_sbu_3, # of connection points: 4
#     Node 54, Type 0, BuildingBlock: QUQFOY_clean_sbu_3, # of connection points: 4
#     Node 55, Type 0, BuildingBlock: QUQFOY_clean_sbu_3, # of connection points: 4
#     Node 56, Type 0, BuildingBlock: QUQFOY_clean_sbu_3, # of connection points: 4
#     Node 57, Type 0, BuildingBlock: QUQFOY_clean_sbu_3, # of connection points: 4
#     Node 58, Type 0, BuildingBlock: QUQFOY_clean_sbu_3, # of connection points: 4
#     Node 59, Type 0, BuildingBlock: QUQFOY_clean_sbu_3, # of connection points: 4
#     Node 60, Type 0, BuildingBlock: QUQFOY_clean_sbu_3, # of connection points: 4
#     Node 61, Type 0, BuildingBlock: QUQFOY_clean_sbu_3, # of connection points: 4
#     Node 62, Type 0, BuildingBlock: QUQFOY_clean_sbu_3, # of connection points: 4
#     Node 63, Type 0, BuildingBlock: QUQFOY_clean_sbu_3, # of connection points: 4
#     Node 64, Type 0, BuildingBlock: QUQFOY_clean_sbu_3, # of connection points: 4
#     Node 65, Type 0, BuildingBlock: QUQFOY_clean_sbu_3, # of connection points: 4
#     Node 66, Type 0, BuildingBlock: QUQFOY_clean_sbu_3, # of connection points: 4
#     Node 67, Type 0, BuildingBlock: QUQFOY_clean_sbu_3, # of connection points: 4
#     Node 68, Type 0, BuildingBlock: QUQFOY_clean_sbu_3, # of connection points: 4
#     Node 69, Type 0, BuildingBlock: QUQFOY_clean_sbu_3, # of connection points: 4
#     Node 70, Type 0, BuildingBlock: QUQFOY_clean_sbu_3, # of connection points: 4
#     Node 71, Type 0, BuildingBlock: QUQFOY_clean_sbu_3, # of connection points: 4
#     Node 72, Type 0, BuildingBlock: QUQFOY_clean_sbu_3, # of connection points: 4
#     Node 73, Type 0, BuildingBlock: QUQFOY_clean_sbu_3, # of connection points: 4
#     Node 74, Type 0, BuildingBlock: QUQFOY_clean_sbu_3, # of connection points: 4
#     Node 75, Type 0, BuildingBlock: QUQFOY_clean_sbu_3, # of connection points: 4
#     Node 76, Type 0, BuildingBlock: QUQFOY_clean_sbu_3, # of connection points: 4
#     Node 77, Type 0, BuildingBlock: QUQFOY_clean_sbu_3, # of connection points: 4
#     Node 78, Type 0, BuildingBlock: QUQFOY_clean_sbu_3, # of connection points: 4
#     Node 79, Type 0, BuildingBlock: QUQFOY_clean_sbu_3, # of connection points: 4
#     Node 80, Type 0, BuildingBlock: QUQFOY_clean_sbu_3, # of connection points: 4
#     Node 81, Type 0, BuildingBlock: QUQFOY_clean_sbu_3, # of connection points: 4
#     Node 82, Type 0, BuildingBlock: QUQFOY_clean_sbu_3, # of connection points: 4
#     Node 83, Type 0, BuildingBlock: QUQFOY_clean_sbu_3, # of connection points: 4
#     Node 84, Type 0, BuildingBlock: QUQFOY_clean_sbu_3, # of connection points: 4
#     Node 85, Type 0, BuildingBlock: QUQFOY_clean_sbu_3, # of connection points: 4
#     Node 86, Type 0, BuildingBlock: QUQFOY_clean_sbu_3, # of connection points: 4
#     Node 87, Type 0, BuildingBlock: QUQFOY_clean_sbu_3, # of connection points: 4
#     Node 88, Type 0, BuildingBlock: QUQFOY_clean_sbu_3, # of connection points: 4
#     Node 89, Type 0, BuildingBlock: QUQFOY_clean_sbu_3, # of connection points: 4
#     Node 90, Type 0, BuildingBlock: QUQFOY_clean_sbu_3, # of connection points: 4
#     Node 91, Type 0, BuildingBlock: QUQFOY_clean_sbu_3, # of connection points: 4
#     Node 92, Type 0, BuildingBlock: QUQFOY_clean_sbu_3, # of connection points: 4
#     Node 93, Type 0, BuildingBlock: QUQFOY_clean_sbu_3, # of connection points: 4
#     Node 94, Type 0, BuildingBlock: QUQFOY_clean_sbu_3, # of connection points: 4
#     Node 95, Type 0, BuildingBlock: QUQFOY_clean_sbu_3, # of connection points: 4
#     Edge 96, Type (0, 0), None
#     Edge 97, Type (0, 0), None
#     Edge 98, Type (0, 0), None
#     Edge 99, Type (0, 0), None
#     Edge 100, Type (0, 0), None
#     Edge 101, Type (0, 0), None
#     Edge 102, Type (0, 0), None
#     Edge 103, Type (0, 0), None
#     Edge 104, Type (0, 0), None
#     Edge 105, Type (0, 0), None
#     Edge 106, Type (0, 0), None
#     Edge 107, Type (0, 0), None
#     Edge 108, Type (0, 0), None
#     Edge 109, Type (0, 0), None
#     Edge 110, Type (0, 0), None
#     Edge 111, Type (0, 0), None
#     Edge 112, Type (0, 0), None
#     Edge 113, Type (0, 0), None
#     Edge 114, Type (0, 0), None
#     Edge 115, Type (0, 0), None
#     Edge 116, Type (0, 0), None
#     Edge 117, Type (0, 0), None
#     Edge 118, Type (0, 0), None
#     Edge 119, Type (0, 0), None
#     Edge 120, Type (0, 0), None
#     Edge 121, Type (0, 0), None
#     Edge 122, Type (0, 0), None
#     Edge 123, Type (0, 0), None
#     Edge 124, Type (0, 0), None
#     Edge 125, Type (0, 0), None
#     Edge 126, Type (0, 0), None
#     Edge 127, Type (0, 0), None
#     Edge 128, Type (0, 0), None
#     Edge 129, Type (0, 0), None
#     Edge 130, Type (0, 0), None
#     Edge 131, Type (0, 0), None
#     Edge 132, Type (0, 0), None
#     Edge 133, Type (0, 0), None
#     Edge 134, Type (0, 0), None
#     Edge 135, Type (0, 0), None
#     Edge 136, Type (0, 0), None
#     Edge 137, Type (0, 0), None
#     Edge 138, Type (0, 0), None
#     Edge 139, Type (0, 0), None
#     Edge 140, Type (0, 0), None
#     Edge 141, Type (0, 0), None
#     Edge 142, Type (0, 0), None
#     Edge 143, Type (0, 0), None
#     Edge 144, Type (0, 0), None
#     Edge 145, Type (0, 0), None
#     Edge 146, Type (0, 0), None
#     Edge 147, Type (0, 0), None
#     Edge 148, Type (0, 0), None
#     Edge 149, Type (0, 0), None
#     Edge 150, Type (0, 0), None
#     Edge 151, Type (0, 0), None
#     Edge 152, Type (0, 0), None
#     Edge 153, Type (0, 0), None
#     Edge 154, Type (0, 0), None
#     Edge 155, Type (0, 0), None
#     Edge 156, Type (0, 0), None
#     Edge 157, Type (0, 0), None
#     Edge 158, Type (0, 0), None
#     Edge 159, Type (0, 0), None
#     Edge 160, Type (0, 0), None
#     Edge 161, Type (0, 0), None
#     Edge 162, Type (0, 0), None
#     Edge 163, Type (0, 0), None
#     Edge 164, Type (0, 0), None
#     Edge 165, Type (0, 0), None
#     Edge 166, Type (0, 0), None
#     Edge 167, Type (0, 0), None
#     Edge 168, Type (0, 0), None
#     Edge 169, Type (0, 0), None
#     Edge 170, Type (0, 0), None
#     Edge 171, Type (0, 0), None
#     Edge 172, Type (0, 0), None
#     Edge 173, Type (0, 0), None
#     Edge 174, Type (0, 0), None
#     Edge 175, Type (0, 0), None
#     Edge 176, Type (0, 0), None
#     Edge 177, Type (0, 0), None
#     Edge 178, Type (0, 0), None
#     Edge 179, Type (0, 0), None
#     Edge 180, Type (0, 0), None
#     Edge 181, Type (0, 0), None
#     Edge 182, Type (0, 0), None
#     Edge 183, Type (0, 0), None
#     Edge 184, Type (0, 0), None
#     Edge 185, Type (0, 0), None
#     Edge 186, Type (0, 0), None
#     Edge 187, Type (0, 0), None
#     Edge 188, Type (0, 0), None
#     Edge 189, Type (0, 0), None
#     Edge 190, Type (0, 0), None
#     Edge 191, Type (0, 0), None
#     Edge 192, Type (0, 0), None
#     Edge 193, Type (0, 0), None
#     Edge 194, Type (0, 0), None
#     Edge 195, Type (0, 0), None
#     Edge 196, Type (0, 0), None
#     Edge 197, Type (0, 0), None
#     Edge 198, Type (0, 0), None
#     Edge 199, Type (0, 0), None
#     Edge 200, Type (0, 0), None
#     Edge 201, Type (0, 0), None
#     Edge 202, Type (0, 0), None
#     Edge 203, Type (0, 0), None
#     Edge 204, Type (0, 0), None
#     Edge 205, Type (0, 0), None
#     Edge 206, Type (0, 0), None
#     Edge 207, Type (0, 0), None
#     Edge 208, Type (0, 0), None
#     Edge 209, Type (0, 0), None
#     Edge 210, Type (0, 0), None
#     Edge 211, Type (0, 0), None
#     Edge 212, Type (0, 0), None
#     Edge 213, Type (0, 0), None
#     Edge 214, Type (0, 0), None
#     Edge 215, Type (0, 0), None
#     Edge 216, Type (0, 0), None
#     Edge 217, Type (0, 0), None
#     Edge 218, Type (0, 0), None
#     Edge 219, Type (0, 0), None
#     Edge 220, Type (0, 0), None
#     Edge 221, Type (0, 0), None
#     Edge 222, Type (0, 0), None
#     Edge 223, Type (0, 0), None
#     Edge 224, Type (0, 0), None
#     Edge 225, Type (0, 0), None
#     Edge 226, Type (0, 0), None
#     Edge 227, Type (0, 0), None
#     Edge 228, Type (0, 0), None
#     Edge 229, Type (0, 0), None
#     Edge 230, Type (0, 0), None
#     Edge 231, Type (0, 0), None
#     Edge 232, Type (0, 0), None
#     Edge 233, Type (0, 0), None
#     Edge 234, Type (0, 0), None
#     Edge 235, Type (0, 0), None
#     Edge 236, Type (0, 0), None
#     Edge 237, Type (0, 0), None
#     Edge 238, Type (0, 0), None
#     Edge 239, Type (0, 0), None
#     Edge 240, Type (0, 0), None
#     Edge 241, Type (0, 0), None
#     Edge 242, Type (0, 0), None
#     Edge 243, Type (0, 0), None
#     Edge 244, Type (0, 0), None
#     Edge 245, Type (0, 0), None
#     Edge 246, Type (0, 0), None
#     Edge 247, Type (0, 0), None
#     Edge 248, Type (0, 0), None
#     Edge 249, Type (0, 0), None
#     Edge 250, Type (0, 0), None
#     Edge 251, Type (0, 0), None
#     Edge 252, Type (0, 0), None
#     Edge 253, Type (0, 0), None
#     Edge 254, Type (0, 0), None
#     Edge 255, Type (0, 0), None
#     Edge 256, Type (0, 0), None
#     Edge 257, Type (0, 0), None
#     Edge 258, Type (0, 0), None
#     Edge 259, Type (0, 0), None
#     Edge 260, Type (0, 0), None
#     Edge 261, Type (0, 0), None
#     Edge 262, Type (0, 0), None
#     Edge 263, Type (0, 0), None
#     Edge 264, Type (0, 0), None
#     Edge 265, Type (0, 0), None
#     Edge 266, Type (0, 0), None
#     Edge 267, Type (0, 0), None
#     Edge 268, Type (0, 0), None
#     Edge 269, Type (0, 0), None
#     Edge 270, Type (0, 0), None
#     Edge 271, Type (0, 0), None
#     Edge 272, Type (0, 0), None
#     Edge 273, Type (0, 0), None
#     Edge 274, Type (0, 0), None
#     Edge 275, Type (0, 0), None
#     Edge 276, Type (0, 0), None
#     Edge 277, Type (0, 0), None
#     Edge 278, Type (0, 0), None
#     Edge 279, Type (0, 0), None
#     Edge 280, Type (0, 0), None
#     Edge 281, Type (0, 0), None
#     Edge 282, Type (0, 0), None
#     Edge 283, Type (0, 0), None
#     Edge 284, Type (0, 0), None
#     Edge 285, Type (0, 0), None
#     Edge 286, Type (0, 0), None
#     Edge 287, Type (0, 0), None
# Relax obj value: 0.122
# Max RMSD: 0.233
# Mean RMSD: 0.215
data_MOF--net-gie--node1-QUQFOY_clean_sbu_3--edge1-none
_symmetry_space_group_name_H-M    P1
_symmetry_Int_Tables_number       1
_symmetry_cell_setting            triclinic
loop_
_symmetry_equiv_pos_as_xyz
'x, y, z'
_cell_length_a     40.008472
_cell_length_b     42.684443
_cell_length_c     42.700783
_cell_angle_alpha  90.00123
_cell_angle_beta   89.998042
_cell_angle_gamma 89.997013
loop_
_atom_site_label
_atom_site_type_symbol
_atom_site_fract_x
_atom_site_fract_y
_atom_site_fract_z
_atom_type_partial_charge
C0 C 0.00625 0.09581 0.41601 0.0
O1 O -0.00871 0.12038 0.42508 0.0
Cd2 Cd 0.96467 0.15254 0.38566 0.0
O3 O 0.00272 0.08582 0.38815 0.0
Cd4 Cd 0.9735 0.09397 0.33843 0.0
C5 C 0.03197 0.14785 0.33272 0.0
O6 O 0.92542 0.12847 0.35098 0.0
O7 O 0.94631 0.12899 0.3041 0.0
O8 O 0.9433 0.04641 0.34488 0.0
C9 C 0.9244 0.13899 0.32307 0.0
O10 O 0.01375 0.16077 0.35352 0.0
C11 C 0.95097 0.03421 0.31876 0.0
O12 O 0.02482 0.12098 0.32148 0.0
O13 O 0.97143 0.04914 0.30147 0.0
C14 C 0.1636 0.7181 0.57365 0.0
O15 O 0.15694 0.73655 0.55128 0.0
Cd16 Cd 0.09896 0.75028 0.54587 0.0
O17 O 0.1427 0.7141 0.59564 0.0
Cd18 Cd 0.092 0.74076 0.61363 0.0
C19 C 0.05555 0.68573 0.57513 0.0
O20 O 0.07899 0.78827 0.58127 0.0
O21 O 0.03873 0.76229 0.60369 0.0
O22 O 0.12673 0.76786 0.64956 0.0
C23 C 0.04833 0.78647 0.58907 0.0
O24 O 0.06375 0.70429 0.55308 0.0
C25 C 0.10642 0.76694 0.67234 0.0
O26 O 0.0648 0.69071 0.60322 0.0
O27 O 0.08069 0.74967 0.66944 0.0
C28 C 0.45138 0.83281 0.91598 0.0
O29 O 0.46633 0.80823 0.92504 0.0
Cd30 Cd 0.49296 0.77609 0.88562 0.0
O31 O 0.45491 0.84281 0.88813 0.0
Cd32 Cd 0.48413 0.83469 0.83841 0.0
C33 C 0.42568 0.78079 0.83267 0.0
O34 O 0.53221 0.80019 0.85094 0.0
O35 O 0.51134 0.79969 0.80406 0.0
O36 O 0.51436 0.88223 0.8449 0.0
C37 C 0.53324 0.78968 0.82303 0.0
O38 O 0.44389 0.76787 0.85346 0.0
C39 C 0.50667 0.89446 0.8188 0.0
O40 O 0.43282 0.80767 0.82144 0.0
O41 O 0.48618 0.87957 0.80151 0.0
C42 C 0.29405 0.2105 0.07364 0.0
O43 O 0.30069 0.19204 0.05128 0.0
Cd44 Cd 0.35867 0.17831 0.04586 0.0
O45 O 0.31495 0.21451 0.09562 0.0
Cd46 Cd 0.36566 0.18784 0.1136 0.0
C47 C 0.40209 0.24287 0.07509 0.0
O48 O 0.37868 0.14032 0.08124 0.0
O49 O 0.41894 0.16633 0.10364 0.0
O50 O 0.33093 0.16073 0.14952 0.0
C51 C 0.40934 0.14214 0.08903 0.0
O52 O 0.39388 0.22431 0.05304 0.0
C53 C 0.35124 0.16166 0.17231 0.0
O54 O 0.39286 0.23789 0.10318 0.0
O55 O 0.37697 0.17893 0.16941 0.0
C56 C 0.00627 0.83281 0.0132 0.0
O57 O -0.00869 0.80823 0.00413 0.0
Cd58 Cd 0.96469 0.77608 0.04354 0.0
O59 O 0.00274 0.8428 0.04106 0.0
Cd60 Cd 0.97351 0.83465 0.09077 0.0
C61 C 0.03198 0.78075 0.09648 0.0
O62 O 0.92544 0.80016 0.07823 0.0
O63 O 0.94632 0.79963 0.12511 0.0
O64 O 0.9433 0.88221 0.08433 0.0
C65 C 0.92441 0.78963 0.10614 0.0
O66 O 0.01377 0.76784 0.07569 0.0
C67 C 0.951 0.89441 0.11044 0.0
O68 O 0.02483 0.80762 0.10773 0.0
O69 O 0.97148 0.87949 0.12772 0.0
C70 C 0.29402 0.71811 0.35562 0.0
O71 O 0.30066 0.73658 0.37798 0.0
Cd72 Cd 0.35864 0.75029 0.3834 0.0
O73 O 0.31493 0.7141 0.33364 0.0
Cd74 Cd 0.36564 0.74077 0.31567 0.0
C75 C 0.40206 0.68573 0.35417 0.0
O76 O 0.37866 0.78829 0.34803 0.0
O77 O 0.41892 0.76227 0.32562 0.0
O78 O 0.33091 0.7679 0.27975 0.0
C79 C 0.40932 0.78646 0.34024 0.0
O80 O 0.39385 0.7043 0.37622 0.0
C81 C 0.35122 0.76696 0.25696 0.0
O82 O 0.39283 0.69072 0.32608 0.0
O83 O 0.37695 0.74969 0.25986 0.0
C84 C 0.45139 0.0958 0.51324 0.0
O85 O 0.46634 0.12038 0.50417 0.0
Cd86 Cd 0.49296 0.15252 0.5436 0.0
O87 O 0.45492 0.0858 0.54109 0.0
Cd88 Cd 0.48415 0.09393 0.5908 0.0
C89 C 0.42567 0.14782 0.59655 0.0
O90 O 0.53222 0.12844 0.57827 0.0
O91 O 0.51134 0.12894 0.62515 0.0
O92 O 0.51439 0.0464 0.58432 0.0
C93 C 0.53324 0.13895 0.60619 0.0
O94 O 0.44388 0.16074 0.57575 0.0
C95 C 0.5067 0.03417 0.61043 0.0
O96 O 0.43283 0.12094 0.60778 0.0
O97 O 0.48621 0.04906 0.62772 0.0
C98 C 0.16359 0.21047 0.85559 0.0
O99 O 0.15694 0.19202 0.87795 0.0
Cd100 Cd 0.09896 0.17829 0.88336 0.0
O101 O 0.1427 0.21449 0.8336 0.0
Cd102 Cd 0.09199 0.18784 0.81561 0.0
C103 C 0.05555 0.24286 0.85414 0.0
O104 O 0.07899 0.14031 0.84795 0.0
O105 O 0.03872 0.16631 0.82555 0.0
O106 O 0.12672 0.16075 0.77966 0.0
C107 C 0.04833 0.14212 0.84016 0.0
O108 O 0.06375 0.22428 0.87619 0.0
C109 C 0.1064 0.16169 0.75688 0.0
O110 O 0.06479 0.23789 0.82604 0.0
O111 O 0.08067 0.17895 0.75979 0.0
C112 C 0.47884 -0.00012 0.09315 0.0
O113 O 0.48952 -0.01258 0.11826 0.0
Cd114 Cd 0.45166 0.95371 0.14852 0.0
O115 O 0.44993 -0.00655 0.08285 0.0
Cd116 Cd 0.39806 -0.03456 0.08577 0.0
C117 C 0.38765 0.00961 0.1515 0.0
O118 O 0.41615 0.92151 0.11704 0.0
O119 O 0.36357 0.92498 0.10685 0.0
O120 O 0.4063 0.94602 0.03384 0.0
C121 C 0.38651 0.91226 0.12289 0.0
O122 O 0.41219 -0.00583 0.16262 0.0
C123 C 0.37944 0.95712 0.02248 0.0
O124 O 0.37657 0.00498 0.12375 0.0
O125 O 0.36157 -0.02579 0.04031 0.0
C126 C 0.2014 0.1657 0.3461 0.0
O127 O 0.21635 0.17479 0.37067 0.0
Cd128 Cd 0.24297 0.13538 0.40284 0.0
O129 O 0.20493 0.13783 0.33614 0.0
Cd130 Cd 0.23416 0.0881 0.34432 0.0
C131 C 0.17568 0.08241 0.39819 0.0
O132 O 0.28224 0.10066 0.37881 0.0
O133 O 0.26134 0.05378 0.37935 0.0
O134 O 0.26437 0.09453 0.29677 0.0
C135 C 0.28325 0.07275 0.38935 0.0
O136 O 0.19389 0.10322 0.41109 0.0
C137 C 0.25672 0.06839 0.2846 0.0
O138 O 0.18284 0.07115 0.37133 0.0
O139 O 0.23626 0.05109 0.29954 0.0
C140 C 0.97879 0.9287 0.59311 0.0
O141 O 0.9681 0.94116 0.61822 0.0
Cd142 Cd 0.00595 -0.02512 0.64849 0.0
O143 O 0.0077 0.93514 0.58282 0.0
Cd144 Cd 0.05957 0.96316 0.58575 0.0
C145 C 0.06998 0.91899 0.65148 0.0
O146 O 0.04146 0.00708 0.61701 0.0
O147 O 0.09404 0.00362 0.60684 0.0
O148 O 0.05133 -0.01743 0.53382 0.0
C149 C 0.07109 0.01634 0.62287 0.0
O150 O 0.04542 0.93442 0.66259 0.0
C151 C 0.07819 -0.02851 0.52246 0.0
O152 O 0.08106 0.92362 0.62373 0.0
O153 O 0.09607 0.9544 0.54029 0.0
C154 C 0.25625 0.76297 0.84606 0.0
O155 O 0.24129 0.75387 0.87062 0.0
Cd156 Cd 0.21467 0.79328 0.90279 0.0
O157 O 0.25272 0.79084 0.83609 0.0
Cd158 Cd 0.22349 0.84057 0.84427 0.0
C159 C 0.28196 0.84624 0.89816 0.0
O160 O 0.17542 0.828 0.87875 0.0
O161 O 0.1963 0.87489 0.8793 0.0
O162 O 0.1933 0.83413 0.79672 0.0
C163 C 0.17439 0.85591 0.88929 0.0
O164 O 0.26374 0.82543 0.91105 0.0
C165 C 0.20095 0.86028 0.78455 0.0
O166 O 0.27481 0.85751 0.8713 0.0
O167 O 0.2214 0.87758 0.79949 0.0
C168 C 0.47882 0.9287 0.33611 0.0
O169 O 0.48951 0.94116 0.311 0.0
Cd170 Cd 0.45166 -0.02512 0.28073 0.0
O171 O 0.44992 0.93514 0.34641 0.0
Cd172 Cd 0.39805 0.96317 0.34348 0.0
C173 C 0.38763 0.919 0.27774 0.0
O174 O 0.41616 0.00708 0.31222 0.0
O175 O 0.36359 0.00366 0.32241 0.0
O176 O 0.40629 -0.01743 0.39541 0.0
C177 C 0.38654 0.01637 0.30637 0.0
O178 O 0.41218 0.93443 0.26663 0.0
C179 C 0.37943 -0.02851 0.40677 0.0
O180 O 0.37655 0.92364 0.30549 0.0
O181 O 0.36154 0.95441 0.38894 0.0
C182 C 0.25623 0.16566 0.58318 0.0
O183 O 0.24127 0.17475 0.55861 0.0
Cd184 Cd 0.21466 0.13535 0.52643 0.0
O185 O 0.2527 0.13778 0.59314 0.0
Cd186 Cd 0.22347 0.08806 0.58494 0.0
C187 C 0.28195 0.08239 0.53108 0.0
O188 O 0.1754 0.10063 0.55046 0.0
O189 O 0.19629 0.05374 0.5499 0.0
O190 O 0.19326 0.09449 0.63249 0.0
C191 C 0.17438 0.07272 0.53992 0.0
O192 O 0.26374 0.1032 0.51818 0.0
C193 C 0.20091 0.06835 0.64465 0.0
O194 O 0.2748 0.07112 0.55793 0.0
O195 O 0.22136 0.05104 0.62972 0.0
C196 C 0.97879 -0.0001 0.83612 0.0
O197 O 0.96811 -0.01256 0.81101 0.0
Cd198 Cd 0.00597 0.95373 0.78074 0.0
O199 O 0.0077 -0.00653 0.84641 0.0
Cd200 Cd 0.05958 -0.03453 0.84348 0.0
C201 C 0.06997 0.00965 0.77775 0.0
O202 O 0.0415 0.92154 0.81221 0.0
O203 O 0.09407 0.92503 0.82238 0.0
O204 O 0.05135 0.94605 0.8954 0.0
C205 C 0.07113 0.91229 0.80635 0.0
O206 O 0.04542 -0.00579 0.76664 0.0
C207 C 0.0782 0.95714 0.90677 0.0
O208 O 0.08105 0.00501 0.80549 0.0
O209 O 0.09608 -0.02577 0.88894 0.0
C210 C 0.20141 0.76291 0.08312 0.0
O211 O 0.21637 0.75382 0.05856 0.0
Cd212 Cd 0.24298 0.79323 0.02639 0.0
O213 O 0.20493 0.79078 0.09309 0.0
Cd214 Cd 0.23416 0.84051 0.08492 0.0
C215 C 0.17569 0.8462 0.03103 0.0
O216 O 0.28224 0.82795 0.05043 0.0
O217 O 0.26134 0.87484 0.04989 0.0
O218 O 0.26436 0.83408 0.13247 0.0
C219 C 0.28325 0.85587 0.0399 0.0
O220 O 0.19391 0.82539 0.01814 0.0
C221 C 0.2567 0.86022 0.14464 0.0
O222 O 0.18284 0.85746 0.05789 0.0
O223 O 0.23624 0.87751 0.12971 0.0
C224 C 0.04407 0.32341 -0.03158 0.0
O225 O 0.05072 0.30104 -0.01312 0.0
Cd226 Cd 0.10869 0.29562 0.00061 0.0
O227 O 0.06497 0.3454 -0.03559 0.0
Cd228 Cd 0.11568 0.3634 -0.00896 0.0
C229 C 0.15211 0.32483 0.93606 0.0
O230 O 0.12865 0.33106 0.03857 0.0
O231 O 0.16894 0.35344 0.01259 0.0
O232 O 0.08095 0.39939 0.01807 0.0
C233 C 0.15931 0.33883 0.03677 0.0
O234 O 0.14391 0.30279 0.95464 0.0
C235 C 0.10129 0.42216 0.01716 0.0
O236 O 0.14288 0.35294 0.94103 0.0
O237 O 0.12704 0.41923 -7e-05 0.0
C238 C 0.54417 0.10513 0.96083 0.0
O239 O 0.55083 0.12749 0.94238 0.0
Cd240 Cd 0.6088 0.13292 0.92864 0.0
O241 O 0.56506 0.08313 -0.03515 0.0
Cd242 Cd 0.61579 0.06511 0.93825 0.0
C243 C 0.6522 0.1037 -0.00679 0.0
O244 O 0.62874 0.09745 0.89071 0.0
O245 O 0.66904 0.07507 0.91668 0.0
O246 O 0.58105 0.0291 0.91126 0.0
C247 C 0.65941 0.08968 0.8925 0.0
O248 O 0.644 0.12574 -0.02537 0.0
C249 C 0.6014 0.00634 0.91216 0.0
O250 O 0.64297 0.07559 -0.01174 0.0
O251 O 0.62716 0.00928 0.92936 0.0
C252 C 0.2288 0.3428 0.17897 0.0
O253 O 0.23947 0.3679 0.19146 0.0
Cd254 Cd 0.20155 0.39815 0.22512 0.0
O255 O 0.19989 0.33249 0.18537 0.0
Cd256 Cd 0.14801 0.33543 0.21336 0.0
C257 C 0.13763 0.40113 0.16915 0.0
O258 O 0.16599 0.36671 0.25733 0.0
O259 O 0.1134 0.35667 0.25358 0.0
O260 O 0.15624 0.28352 0.23288 0.0
C261 C 0.13632 0.37262 0.26645 0.0
O262 O 0.16214 0.41226 0.18463 0.0
C263 C 0.1294 0.27212 0.22178 0.0
O264 O 0.12657 0.37337 0.17376 0.0
O265 O 0.11154 0.28992 0.20464 0.0
C266 C 0.91359 0.82339 0.46079 0.0
O267 O 0.90694 0.80102 0.44234 0.0
Cd268 Cd 0.84896 0.79561 0.42861 0.0
O269 O 0.8927 0.84539 0.4648 0.0
Cd270 Cd 0.84198 0.8634 0.43818 0.0
C271 C 0.80557 0.82485 0.49317 0.0
O272 O 0.82902 0.83105 0.39065 0.0
O273 O 0.78872 0.85343 0.41663 0.0
O274 O 0.87671 0.8994 0.41117 0.0
C275 C 0.79835 0.83883 0.39245 0.0
O276 O 0.81376 0.80279 0.4746 0.0
C277 C 0.85637 0.92217 0.41209 0.0
O278 O 0.8148 0.85295 0.4882 0.0
O279 O 0.83061 0.91923 0.42931 0.0
C280 C 0.72884 0.08581 0.17901 0.0
O281 O 0.71817 0.06071 0.19149 0.0
Cd282 Cd 0.75609 0.03046 0.22515 0.0
O283 O 0.75776 0.09611 0.18541 0.0
Cd284 Cd 0.80964 0.09319 0.21338 0.0
C285 C 0.82002 0.02748 0.16918 0.0
O286 O 0.79163 0.06192 0.25736 0.0
O287 O 0.84423 0.07196 0.25363 0.0
O288 O 0.8014 0.1451 0.23288 0.0
C289 C 0.8213 0.05601 0.26649 0.0
O290 O 0.7955 0.01636 0.18466 0.0
C291 C 0.82824 0.15649 0.22179 0.0
O292 O 0.83109 0.05525 0.17379 0.0
O293 O 0.84611 0.13869 0.20467 0.0
C294 C 0.41353 0.60517 0.46843 0.0
O295 O 0.40688 0.62754 0.48689 0.0
Cd296 Cd 0.3489 0.63296 0.50062 0.0
O297 O 0.39264 0.58317 0.46442 0.0
Cd298 Cd 0.34192 0.56517 0.49105 0.0
C299 C 0.30549 0.60374 0.43607 0.0
O300 O 0.32896 0.59752 0.53858 0.0
O301 O 0.28866 0.57513 0.5126 0.0
O302 O 0.37666 0.52919 0.51808 0.0
C303 C 0.29829 0.58974 0.53678 0.0
O304 O 0.31369 0.62579 0.45465 0.0
C305 C 0.35632 0.50642 0.51717 0.0
O306 O 0.31472 0.57563 0.44103 0.0
O307 O 0.33057 0.50934 0.49994 0.0
C308 C 0.22879 0.58582 0.25029 0.0
O309 O 0.23946 0.56071 0.2378 0.0
Cd310 Cd 0.20155 0.53047 0.20413 0.0
O311 O 0.19987 0.59612 0.24388 0.0
Cd312 Cd 0.148 0.59319 0.21588 0.0
C313 C 0.13762 0.52748 0.26009 0.0
O314 O 0.166 0.5619 0.17191 0.0
O315 O 0.11341 0.57195 0.17565 0.0
O316 O 0.15624 0.64509 0.19636 0.0
C317 C 0.13633 0.556 0.16279 0.0
O318 O 0.16213 0.51635 0.24462 0.0
C319 C 0.12939 0.65649 0.20745 0.0
O320 O 0.12655 0.55525 0.25547 0.0
O321 O 0.11153 0.6387 0.22459 0.0
C322 C 0.22881 0.34278 0.75028 0.0
O323 O 0.21813 0.36789 0.7378 0.0
Cd324 Cd 0.25602 0.39814 0.70412 0.0
O325 O 0.25772 0.33248 0.74387 0.0
Cd326 Cd 0.30959 0.33541 0.71587 0.0
C327 C 0.31998 0.40114 0.76005 0.0
O328 O 0.29155 0.36667 0.67192 0.0
O329 O 0.34414 0.35659 0.67556 0.0
O330 O 0.30137 0.28348 0.6964 0.0
C331 C 0.32121 0.37257 0.66274 0.0
O332 O 0.29545 0.41226 0.74459 0.0
C333 C 0.32822 0.2721 0.70749 0.0
O334 O 0.33106 0.37338 0.75543 0.0
O335 O 0.34608 0.28991 0.7246 0.0
C336 C 0.94111 0.82009 0.48298 0.0
O337 O 0.96429 0.80052 0.47762 0.0
Cd338 Cd -0.00295 0.77993 0.51986 0.0
O339 O 0.93776 0.83275 0.50979 0.0
Cd340 Cd 0.96236 0.83687 0.56222 0.0
C341 C 0.92653 0.76709 0.56764 0.0
O342 O 0.01933 0.81903 0.55314 0.0
O343 O -0.00041 0.81438 0.59995 0.0
O344 O 0.97431 0.89073 0.55378 0.0
C345 C 0.02384 0.81043 0.58129 0.0
O346 O 0.95008 0.75917 0.54918 0.0
C347 C 0.96337 0.90063 0.57987 0.0
O348 O 0.92301 0.79525 0.5772 0.0
O349 O 0.94789 0.88108 0.59712 0.0
C350 C 0.84221 0.1847 0.2361 0.0
O351 O 0.86753 0.19821 0.22437 0.0
Cd352 Cd 0.9041 0.22744 0.25921 0.0
O353 O 0.83337 0.19025 0.26405 0.0
Cd354 Cd 0.84489 0.22062 0.31041 0.0
C355 C 0.90502 0.16661 0.31393 0.0
O356 O 0.88257 0.26415 0.29675 0.0
O357 O 0.88394 0.24408 0.34363 0.0
O358 O 0.79601 0.25274 0.30658 0.0
C359 C 0.89504 0.26408 0.3243 0.0
O360 O 0.91735 0.18315 0.29196 0.0
C361 C 0.78289 0.244 0.3322 0.0
O362 O 0.87678 0.17323 0.32631 0.0
O363 O 0.79779 0.22252 0.34754 0.0
C364 C 0.51664 0.10844 -0.01699 0.0
O365 O 0.49346 0.128 -0.02238 0.0
Cd366 Cd 0.46066 0.14862 0.01983 0.0
O367 O 0.51997 0.09579 0.00983 0.0
Cd368 Cd 0.49532 0.09171 0.06224 0.0
C369 C 0.53116 0.16148 0.06764 0.0
O370 O 0.43836 0.10955 0.05313 0.0
O371 O 0.45808 0.11424 0.09994 0.0
O372 O 0.48335 0.03785 0.05382 0.0
C373 C 0.43383 0.11817 0.08127 0.0
O374 O 0.50762 0.16939 0.04916 0.0
C375 C 0.49428 0.02795 0.07991 0.0
O376 O 0.53467 0.13333 0.07723 0.0
O377 O 0.50975 0.0475 0.09716 0.0
C378 C 0.61543 0.74396 0.73607 0.0
O379 O 0.59013 0.73043 0.72432 0.0
Cd380 Cd 0.55354 0.70122 0.75917 0.0
O381 O 0.62424 0.7384 0.76403 0.0
Cd382 Cd 0.61271 0.70802 0.81038 0.0
C383 C 0.55261 0.76205 0.81389 0.0
O384 O 0.57503 0.66449 0.79671 0.0
O385 O 0.57364 0.68458 0.84359 0.0
O386 O 0.66159 0.6759 0.80654 0.0
C387 C 0.56255 0.66456 0.82426 0.0
O388 O 0.54028 0.74552 0.79191 0.0
C389 C 0.6747 0.68464 0.83216 0.0
O390 O 0.58084 0.75542 0.82628 0.0
O391 O 0.6598 0.70611 0.84751 0.0
C392 C 0.94111 0.1085 0.94626 0.0
O393 O 0.9643 0.12806 0.95162 0.0
Cd394 Cd -0.00295 0.14866 0.90938 0.0
O395 O 0.93776 0.09585 0.91945 0.0
Cd396 Cd 0.96236 0.09173 0.86702 0.0
C397 C 0.92652 0.16151 0.86161 0.0
O398 O 0.01932 0.10956 0.87608 0.0
O399 O -0.00042 0.11422 0.82928 0.0
O400 O 0.97429 0.03787 0.87545 0.0
C401 C 0.02384 0.11816 0.84794 0.0
O402 O 0.95008 0.16942 0.88007 0.0
C403 C 0.96336 0.02797 0.84937 0.0
O404 O 0.923 0.13335 0.85204 0.0
O405 O 0.94788 0.04752 0.83212 0.0
C406 C 0.61542 0.18466 0.69316 0.0
O407 O 0.59012 0.19819 0.7049 0.0
Cd408 Cd 0.55353 0.2274 0.67005 0.0
O409 O 0.62424 0.19022 0.6652 0.0
Cd410 Cd 0.61271 0.2206 0.61885 0.0
C411 C 0.55261 0.16658 0.61533 0.0
O412 O 0.57503 0.26412 0.63252 0.0
O413 O 0.57366 0.24405 0.58564 0.0
O414 O 0.6616 0.25272 0.6227 0.0
C415 C 0.56256 0.26406 0.60497 0.0
O416 O 0.54028 0.18311 0.63731 0.0
C417 C 0.67471 0.24399 0.59707 0.0
O418 O 0.58085 0.1732 0.60294 0.0
O419 O 0.65981 0.22252 0.58172 0.0
C420 C 0.51664 0.82016 0.44627 0.0
O421 O 0.49345 0.80061 0.45166 0.0
Cd422 Cd 0.46066 0.77998 0.40945 0.0
O423 O 0.51997 0.8328 0.41945 0.0
Cd424 Cd 0.4953 0.83688 0.36704 0.0
C425 C 0.53116 0.76711 0.36163 0.0
O426 O 0.43834 0.81905 0.37614 0.0
O427 O 0.45808 0.81434 0.32934 0.0
O428 O 0.48333 0.89075 0.37545 0.0
C429 C 0.43382 0.81042 0.348 0.0
O430 O 0.50762 0.7592 0.38012 0.0
C431 C 0.49426 0.90063 0.34936 0.0
O432 O 0.53466 0.79527 0.35205 0.0
O433 O 0.50974 0.88108 0.33212 0.0
C434 C 0.84224 0.74394 0.19312 0.0
O435 O 0.86755 0.7304 0.20485 0.0
Cd436 Cd 0.90412 0.70118 0.16999 0.0
O437 O 0.83341 0.73838 0.16516 0.0
Cd438 Cd 0.84491 0.708 0.1188 0.0
C439 C 0.90504 0.76201 0.11527 0.0
O440 O 0.88259 0.66448 0.13246 0.0
O441 O 0.88395 0.68454 0.08557 0.0
O442 O 0.79602 0.6759 0.12266 0.0
C443 C 0.89505 0.66453 0.10491 0.0
O444 O 0.91737 0.74547 0.13725 0.0
C445 C 0.7829 0.68464 0.09704 0.0
O446 O 0.87679 0.7554 0.1029 0.0
O447 O 0.7978 0.70611 0.08168 0.0
C448 C 0.5263 0.92106 0.80741 0.0
O449 O 0.5204 0.93392 0.78119 0.0
Cd450 Cd 0.56752 0.96216 0.75848 0.0
O451 O 0.55276 0.92752 0.8224 0.0
Cd452 Cd 0.60251 0.95938 0.82553 0.0
C453 C 0.62612 0.9036 0.77736 0.0
O454 O 0.59302 0.00308 0.78872 0.0
O455 O 0.64396 -0.01131 0.79863 0.0
O456 O 0.57546 -0.01539 0.86809 0.0
C457 C 0.62425 0.00753 0.78498 0.0
O458 O 0.60692 0.91884 0.75905 0.0
C459 C 0.59991 -0.01665 0.88693 0.0
O460 O 0.62968 0.91151 0.80597 0.0
O461 O 0.62584 -0.03159 0.8781 0.0
C462 C 0.76657 0.73273 0.57035 0.0
O463 O 0.74337 0.72736 0.55081 0.0
Cd464 Cd 0.7106 0.76963 0.53024 0.0
O465 O 0.76992 0.75954 0.58301 0.0
Cd466 Cd 0.74534 0.812 0.58716 0.0
C467 C 0.78115 0.8174 0.51739 0.0
O468 O 0.68838 0.80295 0.56933 0.0
O469 O 0.70811 0.84977 0.56472 0.0
O470 O 0.73345 0.80348 0.64099 0.0
C471 C 0.68385 0.83112 0.56075 0.0
O472 O 0.75758 0.79894 0.50948 0.0
C473 C 0.74435 0.82958 0.65092 0.0
O474 O 0.78469 0.82697 0.54554 0.0
O475 O 0.75979 0.84687 0.63139 0.0
C476 C 0.93134 0.00763 0.30735 0.0
O477 O 0.93717 -0.00514 0.28108 0.0
Cd478 Cd 0.89004 -0.0334 0.2584 0.0
O479 O 0.90492 0.00111 0.32239 0.0
Cd480 Cd 0.85521 -0.03079 0.3255 0.0
C481 C 0.8314 0.02504 0.27745 0.0
O482 O 0.86469 0.92558 0.28862 0.0
O483 O 0.81375 0.9399 0.2986 0.0
O484 O 0.88228 0.94392 0.36802 0.0
C485 C 0.83346 0.92108 0.28492 0.0
O486 O 0.85054 0.00985 0.25905 0.0
C487 C 0.85784 0.94517 0.38688 0.0
O488 O 0.82799 0.0171 0.30607 0.0
O489 O 0.83191 0.96012 0.37807 0.0
C490 C 0.69112 0.19589 0.07036 0.0
O491 O 0.71431 0.20126 0.05081 0.0
Cd492 Cd 0.74712 0.15901 0.03025 0.0
O493 O 0.68778 0.16908 0.08303 0.0
Cd494 Cd 0.7124 0.11664 0.0872 0.0
C495 C 0.67662 0.11117 0.01743 0.0
O496 O 0.76936 0.12572 0.06937 0.0
O497 O 0.74967 0.07889 0.06477 0.0
O498 O 0.72431 0.12514 0.14104 0.0
C499 C 0.77391 0.09756 0.0608 0.0
O500 O 0.70017 0.12964 0.00951 0.0
C501 C 0.71339 0.09904 0.15094 0.0
O502 O 0.67308 0.10162 0.04558 0.0
O503 O 0.69793 0.08176 0.13142 0.0
C504 C 0.52633 0.00758 0.62182 0.0
O505 O 0.52044 -0.00528 0.64804 0.0
Cd506 Cd 0.56756 -0.03353 0.67075 0.0
O507 O 0.55279 0.00111 0.60683 0.0
Cd508 Cd 0.60255 -0.03075 0.6037 0.0
C509 C 0.62616 0.02502 0.65187 0.0
O510 O 0.59305 0.92555 0.6405 0.0
O511 O 0.64399 0.93992 0.6306 0.0
O512 O 0.57549 0.94403 0.56114 0.0
C513 C 0.62427 0.92109 0.64425 0.0
O514 O 0.60696 0.00978 0.67018 0.0
C515 C 0.59994 0.94527 0.54229 0.0
O516 O 0.62972 0.01711 0.62326 0.0
O517 O 0.62587 0.9602 0.55113 0.0
C518 C 0.69111 0.73269 0.35888 0.0
O519 O 0.71432 0.72732 0.37842 0.0
Cd520 Cd 0.7471 0.76957 0.39899 0.0
O521 O 0.68777 0.75951 0.34622 0.0
Cd522 Cd 0.71239 0.81195 0.34207 0.0
C523 C 0.67659 0.81739 0.41183 0.0
O524 O 0.76936 0.80288 0.3599 0.0
O525 O 0.74963 0.84971 0.36452 0.0
O526 O 0.7243 0.80346 0.28823 0.0
C527 C 0.77388 0.83104 0.36849 0.0
O528 O 0.70014 0.79892 0.41975 0.0
C529 C 0.71338 0.82955 0.27831 0.0
O530 O 0.67306 0.82695 0.38368 0.0
O531 O 0.69794 0.84683 0.29785 0.0
C532 C 0.93139 0.921 0.12187 0.0
O533 O 0.93728 0.93382 0.1481 0.0
Cd534 Cd 0.89017 0.96206 0.17084 0.0
O535 O 0.90494 0.92751 0.10687 0.0
Cd536 Cd 0.85522 0.95941 0.10379 0.0
C537 C 0.83153 0.90358 0.15186 0.0
O538 O 0.86471 0.00306 0.14066 0.0
O539 O 0.81377 -0.01131 0.13073 0.0
O540 O 0.88227 -0.01531 0.06126 0.0
C541 C 0.83348 0.0075 0.1444 0.0
O542 O 0.85072 0.91879 0.17021 0.0
C543 C 0.85784 -0.01656 0.0424 0.0
O544 O 0.82801 0.91153 0.12326 0.0
O545 O 0.83191 -0.0315 0.05123 0.0
C546 C 0.76657 0.19589 0.85892 0.0
O547 O 0.74337 0.20126 0.87846 0.0
Cd548 Cd 0.71061 0.15898 0.89903 0.0
O549 O 0.76992 0.16907 0.84626 0.0
Cd550 Cd 0.74534 0.11662 0.84212 0.0
C551 C 0.78117 0.11121 0.91187 0.0
O552 O 0.68837 0.12565 0.85995 0.0
O553 O 0.70815 0.07883 0.86458 0.0
O554 O 0.73342 0.12513 0.78829 0.0
C555 C 0.68388 0.09748 0.86854 0.0
O556 O 0.7576 0.12967 0.91978 0.0
C557 C 0.74433 0.09905 0.77835 0.0
O558 O 0.7847 0.10165 0.88372 0.0
O559 O 0.75979 0.08176 0.79787 0.0
C560 C 0.86542 0.48583 0.93495 0.0
O561 O 0.84012 0.47407 0.94848 0.0
Cd562 Cd 0.80354 0.50892 -0.02228 0.0
O563 O 0.87423 0.5138 0.94052 0.0
Cd564 Cd 0.8627 0.56015 -0.02907 0.0
C565 C 0.8026 0.56367 0.91693 0.0
O566 O 0.82501 0.54647 0.01444 0.0
O567 O 0.82364 0.59337 -0.00563 0.0
O568 O 0.91158 0.55627 0.00303 0.0
C569 C 0.81254 0.57403 0.01437 0.0
O570 O 0.79028 0.54168 0.93345 0.0
C571 C 0.9247 0.5819 -0.00568 0.0
O572 O 0.83083 0.57607 0.92355 0.0
O573 O 0.90981 0.59728 -0.02714 0.0
C574 C 0.36547 0.94284 -0.00573 0.0
O575 O 0.34016 0.9546 -0.01924 0.0
Cd576 Cd 0.30357 0.91978 0.95152 0.0
O577 O 0.37429 0.91488 -0.01131 0.0
Cd578 Cd 0.36272 0.86854 0.95828 0.0
C579 C 0.30262 0.86501 0.01229 0.0
O580 O 0.32503 0.88224 0.91478 0.0
O581 O 0.32363 0.83534 0.93485 0.0
O582 O 0.41158 0.87238 0.92615 0.0
C583 C 0.31254 0.85468 0.91485 0.0
O584 O 0.2903 0.88701 -0.00423 0.0
C585 C 0.42468 0.84674 0.93486 0.0
O586 O 0.33086 0.85262 0.00566 0.0
O587 O 0.4098 0.83137 0.95633 0.0
C588 C 0.7763 0.55707 0.75798 0.0
O589 O 0.77044 0.5308 0.74519 0.0
Cd590 Cd 0.81756 0.50809 0.71693 0.0
O591 O 0.80272 0.5721 0.75144 0.0
Cd592 Cd 0.85241 0.57518 0.7195 0.0
C593 C 0.87621 0.52715 0.77534 0.0
O594 O 0.84293 0.53826 0.6759 0.0
O595 O 0.89387 0.54823 0.69023 0.0
O596 O 0.82535 0.6177 0.69418 0.0
C597 C 0.87416 0.53454 0.67143 0.0
O598 O 0.85705 0.50875 0.76016 0.0
C599 C 0.84979 0.63658 0.69542 0.0
O600 O 0.87966 0.55577 0.76737 0.0
O601 O 0.87571 0.62776 0.71038 0.0
C602 C 0.09216 -0.01423 0.49425 0.0
O603 O 0.11748 -0.02599 0.48074 0.0
Cd604 Cd 0.15407 0.00884 0.45151 0.0
O605 O 0.08334 0.01374 0.48868 0.0
Cd606 Cd 0.09491 0.06008 0.45829 0.0
C607 C 0.15501 0.06359 0.5123 0.0
O608 O 0.13261 0.04641 0.41479 0.0
O609 O 0.134 0.0933 0.43488 0.0
O610 O 0.04605 0.05624 0.42616 0.0
C611 C 0.1451 0.07396 0.41488 0.0
O612 O 0.16734 0.0416 0.49577 0.0
C613 C 0.03294 0.08188 0.43487 0.0
O614 O 0.12677 0.07599 0.50568 0.0
O615 O 0.04782 0.09724 0.45635 0.0
C616 C 0.18131 0.8717 0.75799 0.0
O617 O 0.18708 0.89803 0.74529 0.0
Cd618 Cd 0.13992 0.9207 0.71706 0.0
O619 O 0.15494 0.85661 0.75141 0.0
Cd620 Cd 0.10526 0.85353 0.71947 0.0
C621 C 0.08126 0.90144 0.77536 0.0
O622 O 0.11471 0.89054 0.67593 0.0
O623 O 0.06377 0.88047 0.69023 0.0
O624 O 0.13232 0.81105 0.69407 0.0
C625 C 0.08347 0.89421 0.67145 0.0
O626 O 0.10035 0.91994 0.76023 0.0
C627 C 0.1079 0.79216 0.69533 0.0
O628 O 0.07797 0.87281 0.76736 0.0
O629 O 0.08199 0.80094 0.71033 0.0
C630 C 0.59218 0.4428 0.43498 0.0
O631 O 0.61748 0.45456 0.44851 0.0
Cd632 Cd 0.65405 0.41973 0.47776 0.0
O633 O 0.58335 0.41484 0.44056 0.0
Cd634 Cd 0.59489 0.3685 0.47099 0.0
C635 C 0.655 0.36496 0.41699 0.0
O636 O 0.63258 0.38218 0.51449 0.0
O637 O 0.63396 0.33528 0.49442 0.0
O638 O 0.54601 0.37236 0.5031 0.0
C639 C 0.64506 0.35462 0.51443 0.0
O640 O 0.66732 0.38696 0.43351 0.0
C641 C 0.5329 0.34672 0.49439 0.0
O642 O 0.62676 0.35257 0.42361 0.0
O643 O 0.54779 0.33135 0.47293 0.0
C644 C 0.77628 0.37156 0.6713 0.0
O645 O 0.77042 0.39782 0.68409 0.0
Cd646 Cd 0.81754 0.42053 0.71233 0.0
O647 O 0.8027 0.35653 0.67783 0.0
Cd648 Cd 0.8524 0.35344 0.70976 0.0
C649 C 0.87618 0.40147 0.65392 0.0
O650 O 0.84292 0.39037 0.75337 0.0
O651 O 0.89386 0.3804 0.73901 0.0
O652 O 0.82534 0.31093 0.7351 0.0
C653 C 0.87415 0.39409 0.75783 0.0
O654 O 0.85702 0.41987 0.6691 0.0
C655 C 0.84978 0.29205 0.73386 0.0
O656 O 0.87964 0.37285 0.66189 0.0
O657 O 0.8757 0.30086 0.71889 0.0
C658 C 0.68133 0.55703 0.17124 0.0
O659 O 0.68718 0.53076 0.184 0.0
Cd660 Cd 0.64007 0.50803 0.21225 0.0
O661 O 0.65492 0.57207 0.1778 0.0
Cd662 Cd 0.60525 0.57512 0.20977 0.0
C663 C 0.58139 0.52716 0.15389 0.0
O664 O 0.61473 0.53816 0.25334 0.0
O665 O 0.56379 0.54814 0.23901 0.0
O666 O 0.63229 0.61762 0.23514 0.0
C667 C 0.5835 0.53444 0.25781 0.0
O668 O 0.60055 0.50873 0.16905 0.0
C669 C 0.60786 0.6365 0.2339 0.0
O670 O 0.57798 0.55577 0.16189 0.0
O671 O 0.58194 0.6277 0.21893 0.0
C672 C 0.50624 0.59583 0.91598 0.0
O673 O 0.49127 0.62041 0.92505 0.0
Cd674 Cd 0.46466 0.65256 0.88563 0.0
O675 O 0.50271 0.58584 0.88813 0.0
Cd676 Cd 0.47348 0.59399 0.83841 0.0
C677 C 0.53195 0.64788 0.8327 0.0
O678 O 0.4254 0.6285 0.85093 0.0
O679 O 0.44632 0.62902 0.80407 0.0
O680 O 0.44327 0.54644 0.84486 0.0
C681 C 0.4244 0.63902 0.82302 0.0
O682 O 0.51374 0.6608 0.85349 0.0
C683 C 0.45095 0.53424 0.81873 0.0
O684 O 0.52481 0.62101 0.82146 0.0
O685 O 0.47142 0.54916 0.80145 0.0
C686 C 0.66361 0.2181 0.07366 0.0
O687 O 0.65696 0.23655 0.0513 0.0
Cd688 Cd 0.59898 0.25028 0.04588 0.0
O689 O 0.64271 0.21408 0.09565 0.0
Cd690 Cd 0.59199 0.24073 0.11363 0.0
C691 C 0.55559 0.18571 0.07509 0.0
O692 O 0.57899 0.28826 0.08128 0.0
O693 O 0.53872 0.26226 0.10368 0.0
O694 O 0.62672 0.26782 0.14958 0.0
C695 C 0.54833 0.28644 0.08907 0.0
O696 O 0.56379 0.20428 0.05305 0.0
C697 C 0.6064 0.26689 0.17235 0.0
O698 O 0.56481 0.19068 0.10319 0.0
O699 O 0.58066 0.24963 0.16944 0.0
C700 C 0.95136 0.33278 0.41603 0.0
O701 O 0.96632 0.30821 0.4251 0.0
Cd702 Cd -0.00706 0.27606 0.38567 0.0
O703 O 0.95489 0.34278 0.38817 0.0
Cd704 Cd -0.01588 0.33464 0.33846 0.0
C705 C 0.92564 0.28076 0.33274 0.0
O706 O 0.0322 0.30013 0.35098 0.0
O707 O 0.0113 0.29961 0.30412 0.0
O708 O 0.01433 0.38219 0.3449 0.0
C709 C 0.03322 0.28961 0.32307 0.0
O710 O 0.94386 0.26783 0.35353 0.0
C711 C 0.00665 0.39439 0.31878 0.0
O712 O 0.93279 0.30763 0.3215 0.0
O713 O -0.01382 0.37947 0.3015 0.0
C714 C 0.79407 0.7105 0.57367 0.0
O715 O 0.80072 0.69205 0.55131 0.0
Cd716 Cd 0.8587 0.67829 0.5459 0.0
O717 O 0.81496 0.71452 0.59566 0.0
Cd718 Cd 0.86567 0.68789 0.61368 0.0
C719 C 0.9021 0.74287 0.5751 0.0
O720 O 0.87866 0.64034 0.58136 0.0
O721 O 0.91894 0.66633 0.60374 0.0
O722 O 0.83094 0.66085 0.64965 0.0
C723 C 0.90932 0.64214 0.58914 0.0
O724 O 0.8939 0.72428 0.55306 0.0
C725 C 0.85127 0.66178 0.67241 0.0
O726 O 0.89287 0.73792 0.60319 0.0
O727 O 0.87702 0.67903 0.66949 0.0
C728 C 0.50621 0.33279 0.51326 0.0
O729 O 0.49126 0.30821 0.50419 0.0
Cd730 Cd 0.46466 0.27604 0.54361 0.0
O731 O 0.50268 0.34278 0.54112 0.0
Cd732 Cd 0.47346 0.33461 0.59084 0.0
C733 C 0.53195 0.28073 0.59653 0.0
O734 O 0.42539 0.3001 0.57831 0.0
O735 O 0.4463 0.29957 0.62517 0.0
O736 O 0.44324 0.38216 0.5844 0.0
C737 C 0.42439 0.28957 0.60622 0.0
O738 O 0.51374 0.26782 0.57574 0.0
C739 C 0.45091 0.39435 0.61052 0.0
O740 O 0.5248 0.30761 0.60778 0.0
O741 O 0.47138 0.37943 0.62781 0.0
C742 C 0.79406 0.21811 0.8556 0.0
O743 O 0.80071 0.23657 0.87797 0.0
Cd744 Cd 0.85869 0.25031 0.88337 0.0
O745 O 0.81496 0.21409 0.83361 0.0
Cd746 Cd 0.86567 0.24073 0.8156 0.0
C747 C 0.90209 0.18573 0.85417 0.0
O748 O 0.87866 0.28827 0.84793 0.0
O749 O 0.91893 0.26227 0.82554 0.0
O750 O 0.83094 0.26779 0.77964 0.0
C751 C 0.90932 0.28646 0.84015 0.0
O752 O 0.89389 0.20431 0.87621 0.0
C753 C 0.85127 0.26685 0.75687 0.0
O754 O 0.89286 0.19069 0.82607 0.0
O755 O 0.87701 0.2496 0.75979 0.0
C756 C 0.9514 0.59582 0.01319 0.0
O757 O 0.96636 0.6204 0.00412 0.0
Cd758 Cd -0.00704 0.65255 0.04355 0.0
O759 O 0.95492 0.58583 0.04105 0.0
Cd760 Cd -0.01586 0.59398 0.09077 0.0
C761 C 0.92566 0.64786 0.09647 0.0
O762 O 0.03222 0.62848 0.07824 0.0
O763 O 0.01131 0.629 0.12511 0.0
O764 O 0.01436 0.54642 0.08433 0.0
C765 C 0.03323 0.639 0.10615 0.0
O766 O 0.94387 0.66078 0.07568 0.0
C767 C 0.00667 0.53423 0.11045 0.0
O768 O 0.93281 0.62099 0.10771 0.0
O769 O -0.0138 0.54915 0.12773 0.0
C770 C 0.66361 0.71048 0.35558 0.0
O771 O 0.65697 0.69202 0.37794 0.0
Cd772 Cd 0.59899 0.67831 0.38337 0.0
O773 O 0.6427 0.71451 0.3336 0.0
Cd774 Cd 0.59198 0.68787 0.31563 0.0
C775 C 0.55558 0.74289 0.35418 0.0
O776 O 0.57898 0.64034 0.34797 0.0
O777 O 0.53871 0.66635 0.32559 0.0
O778 O 0.6267 0.66077 0.27968 0.0
C779 C 0.54832 0.64216 0.34019 0.0
O780 O 0.56379 0.72431 0.37622 0.0
C781 C 0.60637 0.6617 0.25691 0.0
O782 O 0.5648 0.73791 0.32608 0.0
O783 O 0.58064 0.67897 0.25982 0.0
C784 C 0.9788 0.4999 0.59315 0.0
O785 O -0.01053 0.48741 0.61825 0.0
Cd786 Cd 0.95153 0.45375 0.64849 0.0
O787 O 0.94989 0.4935 0.58285 0.0
Cd788 Cd 0.89801 0.46551 0.58578 0.0
C789 C 0.88762 0.50974 0.65146 0.0
O790 O 0.91598 0.42152 0.61706 0.0
O791 O 0.86336 0.42531 0.60703 0.0
O792 O 0.90622 0.44596 0.5339 0.0
C793 C 0.88629 0.41244 0.62297 0.0
O794 O 0.91213 0.49426 0.66259 0.0
C795 C 0.8794 0.45709 0.5225 0.0
O796 O 0.87656 0.50513 0.6237 0.0
O797 O 0.86155 0.47425 0.54028 0.0
C798 C 0.70139 0.66577 0.84609 0.0
O799 O 0.71634 0.67485 0.87067 0.0
Cd800 Cd 0.74295 0.63544 0.90283 0.0
O801 O 0.70492 0.6379 0.83612 0.0
Cd802 Cd 0.73415 0.58817 0.84429 0.0
C803 C 0.67567 0.58247 0.89818 0.0
O804 O 0.78221 0.60073 0.87879 0.0
O805 O 0.76133 0.55383 0.87931 0.0
O806 O 0.76438 0.59461 0.79676 0.0
C807 C 0.78322 0.57281 0.88932 0.0
O808 O 0.69388 0.60328 0.91108 0.0
C809 C 0.75669 0.56848 0.78457 0.0
O810 O 0.68282 0.57121 0.87132 0.0
O811 O 0.7362 0.5512 0.79947 0.0
C812 C 0.47884 0.4287 0.09314 0.0
O813 O 0.46817 0.44118 0.11824 0.0
Cd814 Cd 0.50606 0.47487 0.14848 0.0
O815 O 0.50775 0.43512 0.08283 0.0
Cd816 Cd 0.55962 0.46313 0.08577 0.0
C817 C 0.57002 0.41893 0.15148 0.0
O818 O 0.5416 0.5071 0.11705 0.0
O819 O 0.59421 0.50341 0.10695 0.0
O820 O 0.55139 0.48264 0.03388 0.0
C821 C 0.57127 0.51622 0.12293 0.0
O822 O 0.54549 0.43439 0.1626 0.0
C823 C 0.57822 0.47153 0.02248 0.0
O824 O 0.58108 0.42354 0.12372 0.0
O825 O 0.59608 0.45439 0.04027 0.0
C826 C 0.7562 0.26287 0.34613 0.0
O827 O 0.74125 0.25377 0.3707 0.0
Cd828 Cd 0.71464 0.29318 0.40287 0.0
O829 O 0.75267 0.29073 0.33616 0.0
Cd830 Cd 0.72344 0.34047 0.34434 0.0
C831 C 0.78192 0.34615 0.39822 0.0
O832 O 0.67538 0.3279 0.37884 0.0
O833 O 0.69626 0.3748 0.37937 0.0
O834 O 0.69324 0.33404 0.2968 0.0
C835 C 0.67437 0.35582 0.38937 0.0
O836 O 0.76371 0.32534 0.41112 0.0
C837 C 0.70091 0.36017 0.28462 0.0
O838 O 0.77477 0.35741 0.37137 0.0
O839 O 0.72138 0.37746 0.29954 0.0
C840 C 0.9788 0.4287 0.83612 0.0
O841 O -0.01053 0.44117 0.81102 0.0
Cd842 Cd 0.95155 0.47485 0.78078 0.0
O843 O 0.94989 0.4351 0.84642 0.0
Cd844 Cd 0.89801 0.4631 0.84348 0.0
C845 C 0.88762 0.41888 0.77779 0.0
O846 O 0.916 0.50709 0.81219 0.0
O847 O 0.86338 0.50331 0.82223 0.0
O848 O 0.90622 0.48266 0.89535 0.0
C849 C 0.88631 0.51617 0.80629 0.0
O850 O 0.91214 0.43435 0.76667 0.0
C851 C 0.87939 0.47154 0.90674 0.0
O852 O 0.87656 0.42349 0.80555 0.0
O853 O 0.86155 0.45437 0.88897 0.0
C854 C 0.7562 0.66577 0.08312 0.0
O855 O 0.74126 0.67485 0.05854 0.0
Cd856 Cd 0.71464 0.63543 0.02638 0.0
O857 O 0.75267 0.6379 0.0931 0.0
Cd858 Cd 0.72346 0.58817 0.08493 0.0
C859 C 0.78194 0.58247 0.03105 0.0
O860 O 0.67539 0.60072 0.05044 0.0
O861 O 0.69628 0.55383 0.04991 0.0
O862 O 0.69324 0.59459 0.13247 0.0
C863 C 0.67437 0.5728 0.03991 0.0
O864 O 0.76373 0.60328 0.01814 0.0
C865 C 0.70093 0.56846 0.14465 0.0
O866 O 0.77479 0.57122 0.05791 0.0
O867 O 0.72142 0.55118 0.12974 0.0
C868 C 0.47883 0.49991 0.33611 0.0
O869 O 0.46815 0.48744 0.311 0.0
Cd870 Cd 0.50603 0.45374 0.28075 0.0
O871 O 0.50774 0.49348 0.34642 0.0
Cd872 Cd 0.55961 0.46546 0.34349 0.0
C873 C 0.57003 0.50965 0.27777 0.0
O874 O 0.54154 0.42152 0.31221 0.0
O875 O 0.59412 0.42506 0.32235 0.0
O876 O 0.55136 0.44599 0.3954 0.0
C877 C 0.57118 0.4123 0.30634 0.0
O878 O 0.54549 0.4942 0.26666 0.0
C879 C 0.57822 0.45708 0.40677 0.0
O880 O 0.5811 0.50502 0.30553 0.0
O881 O 0.59609 0.4742 0.38897 0.0
C882 C 0.7014 0.26287 0.58315 0.0
O883 O 0.71634 0.25379 0.55857 0.0
Cd884 Cd 0.74295 0.29322 0.52642 0.0
O885 O 0.70493 0.29073 0.59313 0.0
Cd886 Cd 0.73413 0.34047 0.58498 0.0
C887 C 0.67566 0.34618 0.5311 0.0
O888 O 0.7822 0.32792 0.55048 0.0
O889 O 0.76133 0.37482 0.54997 0.0
O890 O 0.76436 0.33402 0.63251 0.0
C891 C 0.78323 0.35584 0.53997 0.0
O892 O 0.69387 0.32537 0.51819 0.0
C893 C 0.75667 0.36014 0.64471 0.0
O894 O 0.6828 0.35743 0.55796 0.0
O895 O 0.73618 0.37743 0.62981 0.0
C896 C 0.54416 0.82348 0.46845 0.0
O897 O 0.55081 0.80111 0.48691 0.0
Cd898 Cd 0.60878 0.79568 0.50063 0.0
O899 O 0.56505 0.84547 0.46442 0.0
Cd900 Cd 0.61579 0.86348 0.49102 0.0
C901 C 0.65218 0.82486 0.43605 0.0
O902 O 0.62872 0.83115 0.53856 0.0
O903 O 0.66904 0.8535 0.51259 0.0
O904 O 0.58106 0.89951 0.51799 0.0
C905 C 0.65939 0.8389 0.53677 0.0
O906 O 0.64398 0.80283 0.45464 0.0
C907 C 0.60142 0.92226 0.51708 0.0
O908 O 0.64296 0.85298 0.441 0.0
O909 O 0.62719 0.91931 0.49987 0.0
C910 C 0.04405 0.60519 0.46086 0.0
O911 O 0.0507 0.62756 0.4424 0.0
Cd912 Cd 0.10867 0.63298 0.42867 0.0
O913 O 0.06495 0.5832 0.46486 0.0
Cd914 Cd 0.11566 0.5652 0.43821 0.0
C915 C 0.1521 0.60374 0.4932 0.0
O916 O 0.12863 0.59756 0.3907 0.0
O917 O 0.16892 0.57516 0.41667 0.0
O918 O 0.08093 0.52922 0.41117 0.0
C919 C 0.15929 0.58978 0.39249 0.0
O920 O 0.14389 0.6258 0.47464 0.0
C921 C 0.10126 0.50645 0.41208 0.0
O922 O 0.14286 0.57564 0.48823 0.0
O923 O 0.12701 0.50937 0.42931 0.0
C924 C 0.72887 0.84279 0.67898 0.0
O925 O 0.73952 0.86789 0.69148 0.0
Cd926 Cd 0.70153 0.89812 0.72509 0.0
O927 O 0.69995 0.83248 0.68534 0.0
Cd928 Cd 0.64805 0.83544 0.71327 0.0
C929 C 0.63771 0.90111 0.66904 0.0
O930 O 0.66592 0.86672 0.75732 0.0
O931 O 0.61329 0.85681 0.75328 0.0
O932 O 0.65623 0.78357 0.73291 0.0
C933 C 0.6362 0.87267 0.76627 0.0
O934 O 0.66219 0.91225 0.68455 0.0
C935 C 0.62942 0.77216 0.72177 0.0
O936 O 0.62667 0.87333 0.67362 0.0
O937 O 0.6116 0.78991 0.70455 0.0
C938 C 0.41356 0.32343 0.96082 0.0
O939 O 0.40692 0.30106 0.94237 0.0
Cd940 Cd 0.34894 0.29563 0.92864 0.0
O941 O 0.39266 0.34542 -0.03516 0.0
Cd942 Cd 0.34195 0.36341 0.93819 0.0
C943 C 0.30552 0.32487 -0.00681 0.0
O944 O 0.32897 0.33104 0.89068 0.0
O945 O 0.28869 0.35344 0.91665 0.0
O946 O 0.37668 0.39938 0.91113 0.0
C947 C 0.29831 0.33882 0.89248 0.0
O948 O 0.31373 0.30281 -0.02538 0.0
C949 C 0.35634 0.42215 0.91204 0.0
O950 O 0.31475 0.35297 -0.01179 0.0
O951 O 0.3306 0.41923 0.92928 0.0
C952 C 0.22879 0.58581 0.67899 0.0
O953 O 0.21812 0.56071 0.69148 0.0
Cd954 Cd 0.25603 0.53046 0.72514 0.0
O955 O 0.2577 0.59611 0.68539 0.0
Cd956 Cd 0.30959 0.59319 0.71336 0.0
C957 C 0.31995 0.52746 0.66917 0.0
O958 O 0.29159 0.56192 0.75733 0.0
O959 O 0.34418 0.57198 0.75362 0.0
O960 O 0.30137 0.64511 0.73285 0.0
C961 C 0.32126 0.55602 0.76647 0.0
O962 O 0.29544 0.51634 0.68464 0.0
C963 C 0.32821 0.65649 0.72175 0.0
O964 O 0.33103 0.55523 0.67378 0.0
O965 O 0.34607 0.63869 0.70462 0.0
C966 C 0.91361 0.10519 -0.03153 0.0
O967 O 0.90696 0.12757 -0.01309 0.0
Cd968 Cd 0.84899 0.13299 0.00064 0.0
O969 O 0.89271 0.0832 -0.03555 0.0
Cd970 Cd 0.84199 0.0652 -0.00892 0.0
C971 C 0.80559 0.10376 0.93608 0.0
O972 O 0.82904 0.09755 0.0386 0.0
O973 O 0.78873 0.07519 0.01263 0.0
O974 O 0.87671 0.0292 0.0181 0.0
C975 C 0.79837 0.08979 0.03681 0.0
O976 O 0.81379 0.12582 0.95466 0.0
C977 C 0.85636 0.00645 0.01719 0.0
O978 O 0.81481 0.07565 0.94106 0.0
O979 O 0.8306 0.00938 -4e-05 0.0
C980 C 0.72886 0.08584 0.75029 0.0
O981 O 0.73952 0.06073 0.7378 0.0
Cd982 Cd 0.70155 0.0305 0.70417 0.0
O983 O 0.69994 0.09615 0.74392 0.0
Cd984 Cd 0.64806 0.09318 0.71596 0.0
C985 C 0.6377 0.02751 0.7602 0.0
O986 O 0.66596 0.0619 0.67193 0.0
O987 O 0.61332 0.07182 0.67594 0.0
O988 O 0.65623 0.14505 0.69633 0.0
C989 C 0.63624 0.05595 0.66296 0.0
O990 O 0.66218 0.01637 0.74469 0.0
C991 C 0.62941 0.15646 0.70746 0.0
O992 O 0.62665 0.05529 0.75561 0.0
O993 O 0.61159 0.1387 0.72468 0.0
C994 C 0.72885 0.84277 0.25025 0.0
O995 O 0.71819 0.86789 0.23777 0.0
Cd996 Cd 0.75614 0.89812 0.20413 0.0
O997 O 0.75776 0.83246 0.24387 0.0
Cd998 Cd 0.80965 0.83542 0.21591 0.0
C999 C 0.82001 0.90111 0.26013 0.0
O1000 O 0.79173 0.86671 0.1719 0.0
O1001 O 0.84435 0.85672 0.17582 0.0
O1002 O 0.80144 0.78355 0.19631 0.0
C1003 C 0.82143 0.87263 0.16289 0.0
O1004 O 0.79551 0.91225 0.24464 0.0
C1005 C 0.82827 0.77214 0.20743 0.0
O1006 O 0.83106 0.87334 0.25554 0.0
O1007 O 0.84611 0.7899 0.22462 0.0
C1008 C 0.44108 0.32012 -0.01699 0.0
O1009 O 0.46426 0.30056 -0.02236 0.0
Cd1010 Cd 0.49704 0.27994 0.01986 0.0
O1011 O 0.43773 0.33277 0.00983 0.0
Cd1012 Cd 0.46236 0.33687 0.06225 0.0
C1013 C 0.42652 0.26709 0.06765 0.0
O1014 O 0.51932 0.31903 0.05316 0.0
O1015 O 0.49958 0.31435 0.09997 0.0
O1016 O 0.47432 0.39073 0.05381 0.0
C1017 C 0.52384 0.31041 0.0813 0.0
O1018 O 0.45007 0.25918 0.04918 0.0
C1019 C 0.46339 0.40063 0.0799 0.0
O1020 O 0.423 0.29525 0.07723 0.0
O1021 O 0.44792 0.38109 0.09716 0.0
C1022 C 0.34218 0.6847 0.73604 0.0
O1023 O 0.3675 0.69821 0.7243 0.0
Cd1024 Cd 0.40409 0.72744 0.75913 0.0
O1025 O 0.33335 0.69027 0.76399 0.0
Cd1026 Cd 0.34492 0.72067 0.81033 0.0
C1027 C 0.40502 0.66664 0.81387 0.0
O1028 O 0.38262 0.76418 0.79667 0.0
O1029 O 0.38399 0.74409 0.84354 0.0
O1030 O 0.29606 0.75283 0.8065 0.0
C1031 C 0.39509 0.7641 0.82422 0.0
O1032 O 0.41735 0.68317 0.79189 0.0
C1033 C 0.28295 0.74409 0.83213 0.0
O1034 O 0.37678 0.67327 0.82625 0.0
O1035 O 0.29782 0.72259 0.84747 0.0
C1036 C 0.01654 0.6085 0.48306 0.0
O1037 O -0.00664 0.62807 0.47769 0.0
Cd1038 Cd 0.96059 0.64867 0.51992 0.0
O1039 O 0.01989 0.59585 0.50987 0.0
Cd1040 Cd -0.00471 0.59173 0.5623 0.0
C1041 C 0.03112 0.66151 0.5677 0.0
O1042 O 0.93832 0.60957 0.55322 0.0
O1043 O 0.95805 0.61422 0.60003 0.0
O1044 O -0.01665 0.53787 0.55383 0.0
C1045 C 0.9338 0.61817 0.58137 0.0
O1046 O 0.00756 0.66942 0.54924 0.0
C1047 C -0.00574 0.52796 0.57992 0.0
O1048 O 0.03465 0.63335 0.57727 0.0
O1049 O 0.00973 0.5475 0.59719 0.0
C1050 C 0.11543 0.24392 0.23608 0.0
O1051 O 0.09011 0.23041 0.22435 0.0
Cd1052 Cd 0.05353 0.20118 0.25919 0.0
O1053 O 0.12427 0.23836 0.26404 0.0
Cd1054 Cd 0.11272 0.20798 0.31039 0.0
C1055 C 0.05259 0.26199 0.31392 0.0
O1056 O 0.07503 0.16446 0.29672 0.0
O1057 O 0.07366 0.18455 0.34361 0.0
O1058 O 0.16159 0.17583 0.30655 0.0
C1059 C 0.06256 0.16454 0.32427 0.0
O1060 O 0.04027 0.24546 0.29194 0.0
C1061 C 0.1747 0.18457 0.33218 0.0
O1062 O 0.08084 0.25537 0.3263 0.0
O1063 O 0.15982 0.20607 0.34752 0.0
C1064 C 0.44105 0.60848 0.44624 0.0
O1065 O 0.46423 0.62804 0.45162 0.0
Cd1066 Cd 0.49701 0.64866 0.4094 0.0
O1067 O 0.43771 0.59583 0.41943 0.0
Cd1068 Cd 0.46234 0.59174 0.36701 0.0
C1069 C 0.4265 0.66151 0.36161 0.0
O1070 O 0.5193 0.60958 0.3761 0.0
O1071 O 0.49957 0.61426 0.32929 0.0
O1072 O 0.47431 0.53788 0.37544 0.0
C1073 C 0.52382 0.61819 0.34796 0.0
O1074 O 0.45004 0.66942 0.38008 0.0
C1075 C 0.46339 0.52798 0.34935 0.0
O1076 O 0.42298 0.63336 0.35203 0.0
O1077 O 0.44791 0.54752 0.3321 0.0
C1078 C 0.11543 0.68469 0.19314 0.0
O1079 O 0.0901 0.69821 0.20487 0.0
Cd1080 Cd 0.05353 0.72744 0.17003 0.0
O1081 O 0.12427 0.69025 0.16519 0.0
Cd1082 Cd 0.11273 0.72063 0.11883 0.0
C1083 C 0.05261 0.66662 0.1153 0.0
O1084 O 0.07504 0.76415 0.13249 0.0
O1085 O 0.07368 0.74406 0.08561 0.0
O1086 O 0.1616 0.75277 0.12267 0.0
C1087 C 0.06257 0.76406 0.10494 0.0
O1088 O 0.04028 0.68315 0.13728 0.0
C1089 C 0.17471 0.74404 0.09705 0.0
O1090 O 0.08086 0.67323 0.10293 0.0
O1091 O 0.15984 0.72254 0.08171 0.0
C1092 C 0.01656 0.3201 0.94623 0.0
O1093 O -0.00663 0.30054 0.9516 0.0
Cd1094 Cd 0.9606 0.27994 0.90937 0.0
O1095 O 0.01991 0.33276 0.91942 0.0
Cd1096 Cd -0.00471 0.33687 0.86699 0.0
C1097 C 0.03112 0.26708 0.86158 0.0
O1098 O 0.93832 0.31903 0.87607 0.0
O1099 O 0.95806 0.31437 0.82926 0.0
O1100 O -0.01666 0.39073 0.87545 0.0
C1101 C 0.93381 0.31043 0.84793 0.0
O1102 O 0.00757 0.25917 0.88005 0.0
C1103 C -0.00574 0.40063 0.84935 0.0
O1104 O 0.03465 0.29524 0.85201 0.0
O1105 O 0.00973 0.38109 0.83209 0.0
C1106 C 0.34219 0.24389 0.6932 0.0
O1107 O 0.36751 0.23038 0.70493 0.0
Cd1108 Cd 0.40409 0.20114 0.67009 0.0
O1109 O 0.33335 0.23832 0.66524 0.0
Cd1110 Cd 0.3449 0.20793 0.6189 0.0
C1111 C 0.40502 0.26195 0.61536 0.0
O1112 O 0.38261 0.16441 0.63256 0.0
O1113 O 0.38397 0.1845 0.58568 0.0
O1114 O 0.29604 0.17578 0.62273 0.0
C1115 C 0.39508 0.1645 0.605 0.0
O1116 O 0.41735 0.24542 0.63734 0.0
C1117 C 0.28293 0.18452 0.59711 0.0
O1118 O 0.37677 0.25533 0.60299 0.0
O1119 O 0.2978 0.20602 0.58177 0.0
C1120 C 0.02628 0.42097 0.30736 0.0
O1121 O 0.02043 0.43375 0.2811 0.0
Cd1122 Cd 0.06755 0.462 0.25839 0.0
O1123 O 0.0527 0.42749 0.32239 0.0
Cd1124 Cd 0.1024 0.45941 0.32548 0.0
C1125 C 0.12621 0.40358 0.27742 0.0
O1126 O 0.09292 0.50304 0.28858 0.0
O1127 O 0.14386 0.4887 0.29855 0.0
O1128 O 0.07535 0.48473 0.36799 0.0
C1129 C 0.12415 0.5075 0.28486 0.0
O1130 O 0.10706 0.41876 0.25902 0.0
C1131 C 0.09978 0.48346 0.38685 0.0
O1132 O 0.12963 0.41152 0.30604 0.0
O1133 O 0.12571 0.4685 0.37804 0.0
C1134 C 0.26654 0.23271 0.07034 0.0
O1135 O 0.24335 0.22735 0.05078 0.0
Cd1136 Cd 0.21057 0.2696 0.03022 0.0
O1137 O 0.26988 0.25952 0.08301 0.0
Cd1138 Cd 0.24528 0.31197 0.08716 0.0
C1139 C 0.28109 0.31742 0.0174 0.0
O1140 O 0.18832 0.30289 0.06932 0.0
O1141 O 0.20803 0.34973 0.0647 0.0
O1142 O 0.23334 0.30348 0.14099 0.0
C1143 C 0.18379 0.33106 0.06074 0.0
O1144 O 0.25754 0.29895 0.00948 0.0
C1145 C 0.24426 0.32957 0.15091 0.0
O1146 O 0.28462 0.32697 0.04555 0.0
O1147 O 0.25973 0.34685 0.13138 0.0
C1148 C 0.43132 0.50766 0.80732 0.0
O1149 O 0.43715 0.49489 0.78104 0.0
Cd1150 Cd 0.39003 0.46664 0.75835 0.0
O1151 O 0.40491 0.50113 0.82236 0.0
Cd1152 Cd 0.3552 0.4692 0.82544 0.0
C1153 C 0.33137 0.52505 0.77742 0.0
O1154 O 0.36468 0.42559 0.78852 0.0
O1155 O 0.31374 0.43993 0.79851 0.0
O1156 O 0.38226 0.44387 0.86795 0.0
C1157 C 0.33345 0.42112 0.78482 0.0
O1158 O 0.35051 0.50987 0.759 0.0
C1159 C 0.35782 0.44514 0.88681 0.0
O1160 O 0.32797 0.5171 0.80604 0.0
O1161 O 0.3319 0.46011 0.87801 0.0
C1162 C 0.1911 0.69588 0.57035 0.0
O1163 O 0.21429 0.70125 0.55079 0.0
Cd1164 Cd 0.24706 0.65898 0.53023 0.0
O1165 O 0.18775 0.66908 0.58301 0.0
Cd1166 Cd 0.21234 0.61662 0.58717 0.0
C1167 C 0.17653 0.61119 0.51741 0.0
O1168 O 0.2693 0.62569 0.56933 0.0
O1169 O 0.24957 0.57885 0.56472 0.0
O1170 O 0.22427 0.62512 0.641 0.0
C1171 C 0.27382 0.59752 0.56075 0.0
O1172 O 0.20008 0.62965 0.50949 0.0
C1173 C 0.21334 0.59903 0.65092 0.0
O1174 O 0.17299 0.60163 0.54556 0.0
O1175 O 0.19787 0.58175 0.6314 0.0
C1176 C 0.0263 0.50764 0.12187 0.0
O1177 O 0.02045 0.49487 0.14814 0.0
Cd1178 Cd 0.06757 0.46661 0.17085 0.0
O1179 O 0.05272 0.50112 0.10684 0.0
Cd1180 Cd 0.10244 0.4692 0.10376 0.0
C1181 C 0.12623 0.52503 0.15182 0.0
O1182 O 0.09294 0.42558 0.14066 0.0
O1183 O 0.14389 0.43991 0.13068 0.0
O1184 O 0.07538 0.4439 0.06124 0.0
C1185 C 0.12417 0.42111 0.14437 0.0
O1186 O 0.10708 0.50985 0.17021 0.0
C1187 C 0.09981 0.44515 0.04238 0.0
O1188 O 0.12966 0.51709 0.1232 0.0
O1189 O 0.12574 0.46011 0.05119 0.0
C1190 C 0.1911 0.23268 0.85889 0.0
O1191 O 0.21429 0.22731 0.87845 0.0
Cd1192 Cd 0.24706 0.26957 0.89902 0.0
O1193 O 0.18776 0.25949 0.84623 0.0
Cd1194 Cd 0.21236 0.31194 0.84209 0.0
C1195 C 0.17654 0.31738 0.91185 0.0
O1196 O 0.26932 0.30287 0.85993 0.0
O1197 O 0.24958 0.3497 0.86456 0.0
O1198 O 0.2243 0.30346 0.78826 0.0
C1199 C 0.27383 0.33104 0.86852 0.0
O1200 O 0.20009 0.29891 0.91977 0.0
C1201 C 0.21337 0.32955 0.77835 0.0
O1202 O 0.17301 0.32694 0.8837 0.0
O1203 O 0.19789 0.34682 0.79788 0.0
C1204 C 0.43127 0.42093 0.62194 0.0
O1205 O 0.43709 0.43369 0.64822 0.0
Cd1206 Cd 0.38995 0.46195 0.6709 0.0
O1207 O 0.40487 0.42747 0.60689 0.0
Cd1208 Cd 0.35516 0.45939 0.60378 0.0
C1209 C 0.33131 0.40354 0.6518 0.0
O1210 O 0.36464 0.503 0.64069 0.0
O1211 O 0.3137 0.48869 0.63069 0.0
O1212 O 0.38223 0.48469 0.56127 0.0
C1213 C 0.33341 0.50748 0.64439 0.0
O1214 O 0.35044 0.41872 0.67023 0.0
C1215 C 0.35779 0.48343 0.5424 0.0
O1216 O 0.32793 0.41149 0.62318 0.0
O1217 O 0.33187 0.46847 0.55121 0.0
C1218 C 0.26652 0.6959 0.35891 0.0
O1219 O 0.24333 0.70127 0.37847 0.0
Cd1220 Cd 0.21055 0.65902 0.39904 0.0
O1221 O 0.26986 0.66909 0.34625 0.0
Cd1222 Cd 0.24525 0.61665 0.3421 0.0
C1223 C 0.28106 0.61119 0.41186 0.0
O1224 O 0.18829 0.62572 0.35994 0.0
O1225 O 0.20802 0.57889 0.36456 0.0
O1226 O 0.23331 0.62513 0.28827 0.0
C1227 C 0.18377 0.59756 0.36853 0.0
O1228 O 0.25751 0.62967 0.41978 0.0
C1229 C 0.24423 0.59904 0.27835 0.0
O1230 O 0.28459 0.60164 0.38371 0.0
O1231 O 0.25971 0.58177 0.29788 0.0
C1232 C 0.36546 -0.01423 0.43498 0.0
O1233 O 0.34014 -0.02599 0.44849 0.0
Cd1234 Cd 0.30356 0.00884 0.47773 0.0
O1235 O 0.37428 0.01373 0.44056 0.0
Cd1236 Cd 0.36272 0.06008 0.47096 0.0
C1237 C 0.30262 0.06361 0.41696 0.0
O1238 O 0.32503 0.04638 0.51446 0.0
O1239 O 0.32364 0.09329 0.4944 0.0
O1240 O 0.41159 0.05623 0.50308 0.0
C1241 C 0.31254 0.07394 0.51439 0.0
O1242 O 0.29029 0.04161 0.43348 0.0
C1243 C 0.42469 0.08187 0.49437 0.0
O1244 O 0.33086 0.076 0.42358 0.0
O1245 O 0.40981 0.09723 0.4729 0.0
C1246 C 0.86543 0.4428 0.4943 0.0
O1247 O 0.84012 0.45456 0.48078 0.0
Cd1248 Cd 0.80353 0.41972 0.45156 0.0
O1249 O 0.87425 0.41483 0.48873 0.0
Cd1250 Cd 0.86269 0.36849 0.45833 0.0
C1251 C 0.80259 0.36497 0.51235 0.0
O1252 O 0.82498 0.38216 0.41483 0.0
O1253 O 0.8236 0.33527 0.43492 0.0
O1254 O 0.91155 0.37234 0.42619 0.0
C1255 C 0.8125 0.3546 0.41492 0.0
O1256 O 0.79026 0.38697 0.49583 0.0
C1257 C 0.92466 0.34671 0.4349 0.0
O1258 O 0.83083 0.35258 0.50572 0.0
O1259 O 0.90979 0.33134 0.45638 0.0
C1260 C 0.27635 0.05695 0.25804 0.0
O1261 O 0.27058 0.03062 0.24535 0.0
Cd1262 Cd 0.31772 0.00794 0.2171 0.0
O1263 O 0.30272 0.07204 0.25145 0.0
Cd1264 Cd 0.35238 0.0751 0.21948 0.0
C1265 C 0.37641 0.0272 0.27538 0.0
O1266 O 0.34292 0.03807 0.17595 0.0
O1267 O 0.39386 0.04813 0.19025 0.0
O1268 O 0.32533 0.11757 0.19406 0.0
C1269 C 0.37416 0.03439 0.17147 0.0
O1270 O 0.35731 0.00869 0.26026 0.0
C1271 C 0.34975 0.13645 0.19531 0.0
O1272 O 0.37968 0.05583 0.26737 0.0
O1273 O 0.37566 0.12768 0.21031 0.0
C1274 C 0.59218 0.48582 -0.00573 0.0
O1275 O 0.61749 0.47407 -0.01925 0.0
Cd1276 Cd 0.65407 0.5089 0.95151 0.0
O1277 O 0.58335 0.51379 -0.0113 0.0
Cd1278 Cd 0.59491 0.56013 0.95828 0.0
C1279 C 0.65501 0.56366 0.0123 0.0
O1280 O 0.63261 0.54645 0.91478 0.0
O1281 O 0.63399 0.59335 0.93487 0.0
O1282 O 0.54605 0.55627 0.92614 0.0
C1283 C 0.64509 0.57401 0.91487 0.0
O1284 O 0.66734 0.54166 -0.00422 0.0
C1285 C 0.53294 0.58191 0.93485 0.0
O1286 O 0.62677 0.57605 0.00567 0.0
O1287 O 0.54781 0.59727 0.95634 0.0
C1288 C 0.6813 0.3716 0.25803 0.0
O1289 O 0.68711 0.3979 0.24531 0.0
Cd1290 Cd 0.63999 0.4206 0.21705 0.0
O1291 O 0.65491 0.35653 0.25146 0.0
Cd1292 Cd 0.60525 0.35347 0.21948 0.0
C1293 C 0.5813 0.40142 0.27536 0.0
O1294 O 0.61473 0.39045 0.17593 0.0
O1295 O 0.56378 0.38043 0.19023 0.0
O1296 O 0.63231 0.31098 0.1941 0.0
C1297 C 0.5835 0.39415 0.17145 0.0
O1298 O 0.60042 0.41989 0.26022 0.0
C1299 C 0.60788 0.2921 0.19535 0.0
O1300 O 0.57797 0.37279 0.26737 0.0
O1301 O 0.58196 0.30089 0.21033 0.0
C1302 C 0.09217 0.94285 0.93497 0.0
O1303 O 0.11749 0.95461 0.94848 0.0
Cd1304 Cd 0.15407 0.91978 -0.02229 0.0
O1305 O 0.08336 0.91489 0.94054 0.0
Cd1306 Cd 0.09493 0.86854 -0.02907 0.0
C1307 C 0.15503 0.86504 0.91691 0.0
O1308 O 0.13262 0.88221 0.01443 0.0
O1309 O 0.13402 0.83532 -0.00567 0.0
O1310 O 0.04607 0.87238 0.00305 0.0
C1311 C 0.14511 0.85465 0.01434 0.0
O1312 O 0.16735 0.88703 0.93344 0.0
C1313 C 0.03296 0.84674 -0.00567 0.0
O1314 O 0.12679 0.85264 0.92353 0.0
O1315 O 0.04785 0.83138 -0.02714 0.0
C1316 C 0.27632 0.87165 0.17121 0.0
O1317 O 0.27054 0.89798 0.18391 0.0
Cd1318 Cd 0.31768 0.92067 0.21215 0.0
O1319 O 0.30269 0.85657 0.1778 0.0
Cd1320 Cd 0.35236 0.85352 0.20978 0.0
C1321 C 0.37637 0.90141 0.15387 0.0
O1322 O 0.3429 0.89055 0.2533 0.0
O1323 O 0.39384 0.88049 0.23899 0.0
O1324 O 0.32531 0.81106 0.23521 0.0
C1325 C 0.37414 0.89423 0.25777 0.0
O1326 O 0.35727 0.91992 0.16899 0.0
C1327 C 0.34973 0.79217 0.23396 0.0
O1328 O 0.37966 0.87279 0.16188 0.0
O1329 O 0.37564 0.80094 0.21895 0.0
C1330 C 0.18127 0.05692 0.67122 0.0
O1331 O 0.18703 0.03059 0.68391 0.0
Cd1332 Cd 0.13988 0.00793 0.71216 0.0
O1333 O 0.1549 0.07201 0.6778 0.0
Cd1334 Cd 0.10522 0.0751 0.70975 0.0
C1335 C 0.08121 0.02719 0.65386 0.0
O1336 O 0.11468 0.0381 0.75328 0.0
O1337 O 0.06374 0.04816 0.739 0.0
O1338 O 0.1323 0.11758 0.73514 0.0
C1339 C 0.08345 0.03442 0.75777 0.0
O1340 O 0.1003 0.00868 0.66899 0.0
C1341 C 0.10787 0.13647 0.73389 0.0
O1342 O 0.07793 0.05582 0.66186 0.0
O1343 O 0.08196 0.12769 0.7189 0.0
loop_
_geom_bond_atom_site_label_1
_geom_bond_atom_site_label_2
_geom_bond_distance
_geom_bond_site_symmetry_2
_ccdc_geom_bond_type
C0 O1 1.306 . S
C0 O3 1.160 . S
O1 C0 1.306 . S
O1 Cd2 2.228 . S
Cd2 O1 2.228 . S
Cd2 O6 2.273 1_455 S
Cd2 O10 2.277 . S
O3 C0 1.160 . S
O3 Cd4 2.203 1_455 S
Cd4 O3 2.203 1_655 S
Cd4 O6 2.411 . S
Cd4 O7 2.333 . S
Cd4 O8 2.352 . S
Cd4 O12 2.277 1_655 S
Cd4 O13 2.356 . S
C5 O10 1.209 . S
C5 O12 1.226 . S
O6 Cd2 2.273 1_655 S
O6 Cd4 2.411 . S
O6 C9 1.320 . S
O7 Cd4 2.333 . S
O7 C9 1.214 . S
O8 Cd4 2.352 . S
O8 C11 1.258 . S
C9 O6 1.320 . S
C9 O7 1.214 . S
O10 Cd2 2.277 . S
O10 C5 1.209 . S
C11 O8 1.258 . S
C11 O13 1.282 . S
O12 Cd4 2.277 1_455 S
O12 C5 1.226 . S
O13 Cd4 2.356 . S
O13 C11 1.282 . S
C14 O15 1.306 . S
C14 O17 1.160 . S
O15 C14 1.306 . S
O15 Cd16 2.228 . S
Cd16 O15 2.228 . S
Cd16 O20 2.273 . S
Cd16 O24 2.277 . S
O17 C14 1.160 . S
O17 Cd18 2.203 . S
Cd18 O17 2.203 . S
Cd18 O20 2.411 . S
Cd18 O21 2.333 . S
Cd18 O22 2.352 . S
Cd18 O26 2.277 . S
Cd18 O27 2.356 . S
C19 O24 1.209 . S
C19 O26 1.226 . S
O20 Cd16 2.273 . S
O20 Cd18 2.411 . S
O20 C23 1.320 . S
O21 Cd18 2.333 . S
O21 C23 1.214 . S
O22 Cd18 2.352 . S
O22 C25 1.258 . S
C23 O20 1.320 . S
C23 O21 1.214 . S
O24 Cd16 2.277 . S
O24 C19 1.209 . S
C25 O22 1.258 . S
C25 O27 1.282 . S
O26 Cd18 2.277 . S
O26 C19 1.226 . S
O27 Cd18 2.356 . S
O27 C25 1.282 . S
C28 O29 1.306 . S
C28 O31 1.160 . S
O29 C28 1.306 . S
O29 Cd30 2.228 . S
Cd30 O29 2.228 . S
Cd30 O34 2.273 . S
Cd30 O38 2.277 . S
O31 C28 1.160 . S
O31 Cd32 2.203 . S
Cd32 O31 2.203 . S
Cd32 O34 2.411 . S
Cd32 O35 2.333 . S
Cd32 O36 2.352 . S
Cd32 O40 2.277 . S
Cd32 O41 2.356 . S
C33 O38 1.209 . S
C33 O40 1.226 . S
O34 Cd30 2.273 . S
O34 Cd32 2.411 . S
O34 C37 1.320 . S
O35 Cd32 2.333 . S
O35 C37 1.214 . S
O36 Cd32 2.352 . S
O36 C39 1.258 . S
C37 O34 1.320 . S
C37 O35 1.214 . S
O38 Cd30 2.277 . S
O38 C33 1.209 . S
C39 O36 1.258 . S
C39 O41 1.282 . S
O40 Cd32 2.277 . S
O40 C33 1.226 . S
O41 Cd32 2.356 . S
O41 C39 1.282 . S
C42 O43 1.306 . S
C42 O45 1.160 . S
O43 C42 1.306 . S
O43 Cd44 2.228 . S
Cd44 O43 2.228 . S
Cd44 O48 2.273 . S
Cd44 O52 2.277 . S
O45 C42 1.160 . S
O45 Cd46 2.203 . S
Cd46 O45 2.203 . S
Cd46 O48 2.411 . S
Cd46 O49 2.333 . S
Cd46 O50 2.352 . S
Cd46 O54 2.277 . S
Cd46 O55 2.356 . S
C47 O52 1.209 . S
C47 O54 1.226 . S
O48 Cd44 2.273 . S
O48 Cd46 2.411 . S
O48 C51 1.320 . S
O49 Cd46 2.333 . S
O49 C51 1.214 . S
O50 Cd46 2.352 . S
O50 C53 1.258 . S
C51 O48 1.320 . S
C51 O49 1.214 . S
O52 Cd44 2.277 . S
O52 C47 1.209 . S
C53 O50 1.258 . S
C53 O55 1.282 . S
O54 Cd46 2.277 . S
O54 C47 1.226 . S
O55 Cd46 2.356 . S
O55 C53 1.282 . S
C56 O57 1.306 . S
C56 O59 1.160 . S
O57 C56 1.306 . S
O57 Cd58 2.228 . S
Cd58 O57 2.228 . S
Cd58 O62 2.273 1_455 S
Cd58 O66 2.277 . S
O59 C56 1.160 . S
O59 Cd60 2.203 1_455 S
Cd60 O59 2.203 1_655 S
Cd60 O62 2.411 . S
Cd60 O63 2.333 . S
Cd60 O64 2.352 . S
Cd60 O68 2.277 1_655 S
Cd60 O69 2.356 . S
C61 O66 1.209 . S
C61 O68 1.226 . S
O62 Cd58 2.273 1_655 S
O62 Cd60 2.411 . S
O62 C65 1.320 . S
O63 Cd60 2.333 . S
O63 C65 1.214 . S
O64 Cd60 2.352 . S
O64 C67 1.258 . S
C65 O62 1.320 . S
C65 O63 1.214 . S
O66 Cd58 2.277 . S
O66 C61 1.209 . S
C67 O64 1.258 . S
C67 O69 1.282 . S
O68 Cd60 2.277 1_455 S
O68 C61 1.226 . S
O69 Cd60 2.356 . S
O69 C67 1.282 . S
C70 O71 1.306 . S
C70 O73 1.160 . S
O71 C70 1.306 . S
O71 Cd72 2.228 . S
Cd72 O71 2.228 . S
Cd72 O76 2.273 . S
Cd72 O80 2.277 . S
O73 C70 1.160 . S
O73 Cd74 2.203 . S
Cd74 O73 2.203 . S
Cd74 O76 2.411 . S
Cd74 O77 2.333 . S
Cd74 O78 2.352 . S
Cd74 O82 2.277 . S
Cd74 O83 2.356 . S
C75 O80 1.209 . S
C75 O82 1.226 . S
O76 Cd72 2.273 . S
O76 Cd74 2.411 . S
O76 C79 1.320 . S
O77 Cd74 2.333 . S
O77 C79 1.214 . S
O78 Cd74 2.352 . S
O78 C81 1.258 . S
C79 O76 1.320 . S
C79 O77 1.214 . S
O80 Cd72 2.277 . S
O80 C75 1.209 . S
C81 O78 1.258 . S
C81 O83 1.282 . S
O82 Cd74 2.277 . S
O82 C75 1.226 . S
O83 Cd74 2.356 . S
O83 C81 1.282 . S
C84 O85 1.306 . S
C84 O87 1.160 . S
O85 C84 1.306 . S
O85 Cd86 2.228 . S
Cd86 O85 2.228 . S
Cd86 O90 2.273 . S
Cd86 O94 2.277 . S
O87 C84 1.160 . S
O87 Cd88 2.203 . S
Cd88 O87 2.203 . S
Cd88 O90 2.411 . S
Cd88 O91 2.333 . S
Cd88 O92 2.352 . S
Cd88 O96 2.277 . S
Cd88 O97 2.356 . S
C89 O94 1.209 . S
C89 O96 1.226 . S
O90 Cd86 2.273 . S
O90 Cd88 2.411 . S
O90 C93 1.320 . S
O91 Cd88 2.333 . S
O91 C93 1.214 . S
O92 Cd88 2.352 . S
O92 C95 1.258 . S
C93 O90 1.320 . S
C93 O91 1.214 . S
O94 Cd86 2.277 . S
O94 C89 1.209 . S
C95 O92 1.258 . S
C95 O97 1.282 . S
O96 Cd88 2.277 . S
O96 C89 1.226 . S
O97 Cd88 2.356 . S
O97 C95 1.282 . S
C98 O99 1.306 . S
C98 O101 1.160 . S
O99 C98 1.306 . S
O99 Cd100 2.228 . S
Cd100 O99 2.228 . S
Cd100 O104 2.273 . S
Cd100 O108 2.277 . S
O101 C98 1.160 . S
O101 Cd102 2.203 . S
Cd102 O101 2.203 . S
Cd102 O104 2.411 . S
Cd102 O105 2.333 . S
Cd102 O106 2.352 . S
Cd102 O110 2.277 . S
Cd102 O111 2.356 . S
C103 O108 1.209 . S
C103 O110 1.226 . S
O104 Cd100 2.273 . S
O104 Cd102 2.411 . S
O104 C107 1.320 . S
O105 Cd102 2.333 . S
O105 C107 1.214 . S
O106 Cd102 2.352 . S
O106 C109 1.258 . S
C107 O104 1.320 . S
C107 O105 1.214 . S
O108 Cd100 2.277 . S
O108 C103 1.209 . S
C109 O106 1.258 . S
C109 O111 1.282 . S
O110 Cd102 2.277 . S
O110 C103 1.226 . S
O111 Cd102 2.356 . S
O111 C109 1.282 . S
C112 O113 1.306 . S
C112 O115 1.160 . S
O113 C112 1.306 . S
O113 Cd114 2.228 . S
Cd114 O113 2.228 . S
Cd114 O118 2.273 1_545 S
Cd114 O122 2.277 . S
O115 C112 1.160 . S
O115 Cd116 2.203 1_545 S
Cd116 O115 2.203 1_565 S
Cd116 O118 2.411 . S
Cd116 O119 2.333 . S
Cd116 O120 2.352 . S
Cd116 O124 2.277 1_565 S
Cd116 O125 2.356 . S
C117 O122 1.209 . S
C117 O124 1.226 . S
O118 Cd114 2.273 1_565 S
O118 Cd116 2.411 . S
O118 C121 1.320 . S
O119 Cd116 2.333 . S
O119 C121 1.214 . S
O120 Cd116 2.352 . S
O120 C123 1.258 . S
C121 O118 1.320 . S
C121 O119 1.214 . S
O122 Cd114 2.277 . S
O122 C117 1.209 . S
C123 O120 1.258 . S
C123 O125 1.282 . S
O124 Cd116 2.277 1_545 S
O124 C117 1.226 . S
O125 Cd116 2.356 . S
O125 C123 1.282 . S
C126 O127 1.306 . S
C126 O129 1.160 . S
O127 C126 1.306 . S
O127 Cd128 2.228 . S
Cd128 O127 2.228 . S
Cd128 O132 2.273 . S
Cd128 O136 2.277 . S
O129 C126 1.160 . S
O129 Cd130 2.203 . S
Cd130 O129 2.203 . S
Cd130 O132 2.411 . S
Cd130 O133 2.333 . S
Cd130 O134 2.352 . S
Cd130 O138 2.277 . S
Cd130 O139 2.356 . S
C131 O136 1.209 . S
C131 O138 1.226 . S
O132 Cd128 2.273 . S
O132 Cd130 2.411 . S
O132 C135 1.320 . S
O133 Cd130 2.333 . S
O133 C135 1.214 . S
O134 Cd130 2.352 . S
O134 C137 1.258 . S
C135 O132 1.320 . S
C135 O133 1.214 . S
O136 Cd128 2.277 . S
O136 C131 1.209 . S
C137 O134 1.258 . S
C137 O139 1.282 . S
O138 Cd130 2.277 . S
O138 C131 1.226 . S
O139 Cd130 2.356 . S
O139 C137 1.282 . S
C140 O141 1.306 . S
C140 O143 1.160 . S
O141 C140 1.306 . S
O141 Cd142 2.228 . S
Cd142 O141 2.228 . S
Cd142 O146 2.273 1_565 S
Cd142 O150 2.277 . S
O143 C140 1.160 . S
O143 Cd144 2.203 1_565 S
Cd144 O143 2.203 1_545 S
Cd144 O146 2.411 . S
Cd144 O147 2.333 . S
Cd144 O148 2.352 . S
Cd144 O152 2.277 1_545 S
Cd144 O153 2.356 . S
C145 O150 1.209 . S
C145 O152 1.226 . S
O146 Cd142 2.273 1_545 S
O146 Cd144 2.411 . S
O146 C149 1.320 . S
O147 Cd144 2.333 . S
O147 C149 1.214 . S
O148 Cd144 2.352 . S
O148 C151 1.258 . S
C149 O146 1.320 . S
C149 O147 1.214 . S
O150 Cd142 2.277 . S
O150 C145 1.209 . S
C151 O148 1.258 . S
C151 O153 1.282 . S
O152 Cd144 2.277 1_565 S
O152 C145 1.226 . S
O153 Cd144 2.356 . S
O153 C151 1.282 . S
C154 O155 1.306 . S
C154 O157 1.160 . S
O155 C154 1.306 . S
O155 Cd156 2.228 . S
Cd156 O155 2.228 . S
Cd156 O160 2.273 . S
Cd156 O164 2.277 . S
O157 C154 1.160 . S
O157 Cd158 2.203 . S
Cd158 O157 2.203 . S
Cd158 O160 2.411 . S
Cd158 O161 2.333 . S
Cd158 O162 2.352 . S
Cd158 O166 2.277 . S
Cd158 O167 2.356 . S
C159 O164 1.209 . S
C159 O166 1.226 . S
O160 Cd156 2.273 . S
O160 Cd158 2.411 . S
O160 C163 1.320 . S
O161 Cd158 2.333 . S
O161 C163 1.214 . S
O162 Cd158 2.352 . S
O162 C165 1.258 . S
C163 O160 1.320 . S
C163 O161 1.214 . S
O164 Cd156 2.277 . S
O164 C159 1.209 . S
C165 O162 1.258 . S
C165 O167 1.282 . S
O166 Cd158 2.277 . S
O166 C159 1.226 . S
O167 Cd158 2.356 . S
O167 C165 1.282 . S
C168 O169 1.306 . S
C168 O171 1.160 . S
O169 C168 1.306 . S
O169 Cd170 2.228 . S
Cd170 O169 2.228 . S
Cd170 O174 2.273 1_565 S
Cd170 O178 2.277 . S
O171 C168 1.160 . S
O171 Cd172 2.203 1_565 S
Cd172 O171 2.203 1_545 S
Cd172 O174 2.411 . S
Cd172 O175 2.333 . S
Cd172 O176 2.352 . S
Cd172 O180 2.277 1_545 S
Cd172 O181 2.356 . S
C173 O178 1.209 . S
C173 O180 1.226 . S
O174 Cd170 2.273 1_545 S
O174 Cd172 2.411 . S
O174 C177 1.320 . S
O175 Cd172 2.333 . S
O175 C177 1.214 . S
O176 Cd172 2.352 . S
O176 C179 1.258 . S
C177 O174 1.320 . S
C177 O175 1.214 . S
O178 Cd170 2.277 . S
O178 C173 1.209 . S
C179 O176 1.258 . S
C179 O181 1.282 . S
O180 Cd172 2.277 1_565 S
O180 C173 1.226 . S
O181 Cd172 2.356 . S
O181 C179 1.282 . S
C182 O183 1.306 . S
C182 O185 1.160 . S
O183 C182 1.306 . S
O183 Cd184 2.228 . S
Cd184 O183 2.228 . S
Cd184 O188 2.273 . S
Cd184 O192 2.277 . S
O185 C182 1.160 . S
O185 Cd186 2.203 . S
Cd186 O185 2.203 . S
Cd186 O188 2.411 . S
Cd186 O189 2.333 . S
Cd186 O190 2.352 . S
Cd186 O194 2.277 . S
Cd186 O195 2.356 . S
C187 O192 1.209 . S
C187 O194 1.226 . S
O188 Cd184 2.273 . S
O188 Cd186 2.411 . S
O188 C191 1.320 . S
O189 Cd186 2.333 . S
O189 C191 1.214 . S
O190 Cd186 2.352 . S
O190 C193 1.258 . S
C191 O188 1.320 . S
C191 O189 1.214 . S
O192 Cd184 2.277 . S
O192 C187 1.209 . S
C193 O190 1.258 . S
C193 O195 1.282 . S
O194 Cd186 2.277 . S
O194 C187 1.226 . S
O195 Cd186 2.356 . S
O195 C193 1.282 . S
C196 O197 1.306 . S
C196 O199 1.160 . S
O197 C196 1.306 . S
O197 Cd198 2.228 . S
Cd198 O197 2.228 . S
Cd198 O202 2.273 1_545 S
Cd198 O206 2.277 . S
O199 C196 1.160 . S
O199 Cd200 2.203 1_545 S
Cd200 O199 2.203 1_565 S
Cd200 O202 2.411 . S
Cd200 O203 2.333 . S
Cd200 O204 2.352 . S
Cd200 O208 2.277 1_565 S
Cd200 O209 2.356 . S
C201 O206 1.209 . S
C201 O208 1.226 . S
O202 Cd198 2.273 1_565 S
O202 Cd200 2.411 . S
O202 C205 1.320 . S
O203 Cd200 2.333 . S
O203 C205 1.214 . S
O204 Cd200 2.352 . S
O204 C207 1.258 . S
C205 O202 1.320 . S
C205 O203 1.214 . S
O206 Cd198 2.277 . S
O206 C201 1.209 . S
C207 O204 1.258 . S
C207 O209 1.282 . S
O208 Cd200 2.277 1_545 S
O208 C201 1.226 . S
O209 Cd200 2.356 . S
O209 C207 1.282 . S
C210 O211 1.306 . S
C210 O213 1.160 . S
O211 C210 1.306 . S
O211 Cd212 2.228 . S
Cd212 O211 2.228 . S
Cd212 O216 2.273 . S
Cd212 O220 2.277 . S
O213 C210 1.160 . S
O213 Cd214 2.203 . S
Cd214 O213 2.203 . S
Cd214 O216 2.411 . S
Cd214 O217 2.333 . S
Cd214 O218 2.352 . S
Cd214 O222 2.277 . S
Cd214 O223 2.356 . S
C215 O220 1.209 . S
C215 O222 1.226 . S
O216 Cd212 2.273 . S
O216 Cd214 2.411 . S
O216 C219 1.320 . S
O217 Cd214 2.333 . S
O217 C219 1.214 . S
O218 Cd214 2.352 . S
O218 C221 1.258 . S
C219 O216 1.320 . S
C219 O217 1.214 . S
O220 Cd212 2.277 . S
O220 C215 1.209 . S
C221 O218 1.258 . S
C221 O223 1.282 . S
O222 Cd214 2.277 . S
O222 C215 1.226 . S
O223 Cd214 2.356 . S
O223 C221 1.282 . S
C224 O225 1.306 . S
C224 O227 1.160 . S
O225 C224 1.306 . S
O225 Cd226 2.228 . S
Cd226 O225 2.228 . S
Cd226 O230 2.273 1_556 S
Cd226 O234 2.277 . S
O227 C224 1.160 . S
O227 Cd228 2.203 1_556 S
Cd228 O227 2.203 1_554 S
Cd228 O230 2.411 . S
Cd228 O231 2.333 . S
Cd228 O232 2.352 . S
Cd228 O236 2.277 1_554 S
Cd228 O237 2.356 . S
C229 O234 1.209 . S
C229 O236 1.226 . S
O230 Cd226 2.273 1_554 S
O230 Cd228 2.411 . S
O230 C233 1.320 . S
O231 Cd228 2.333 . S
O231 C233 1.214 . S
O232 Cd228 2.352 . S
O232 C235 1.258 . S
C233 O230 1.320 . S
C233 O231 1.214 . S
O234 Cd226 2.277 . S
O234 C229 1.209 . S
C235 O232 1.258 . S
C235 O237 1.282 . S
O236 Cd228 2.277 1_556 S
O236 C229 1.226 . S
O237 Cd228 2.356 . S
O237 C235 1.282 . S
C238 O239 1.306 . S
C238 O241 1.160 . S
O239 C238 1.306 . S
O239 Cd240 2.228 . S
Cd240 O239 2.228 . S
Cd240 O244 2.273 1_554 S
Cd240 O248 2.277 . S
O241 C238 1.160 . S
O241 Cd242 2.203 1_554 S
Cd242 O241 2.203 1_556 S
Cd242 O244 2.411 . S
Cd242 O245 2.333 . S
Cd242 O246 2.352 . S
Cd242 O250 2.277 1_556 S
Cd242 O251 2.356 . S
C243 O248 1.209 . S
C243 O250 1.226 . S
O244 Cd240 2.273 1_556 S
O244 Cd242 2.411 . S
O244 C247 1.320 . S
O245 Cd242 2.333 . S
O245 C247 1.214 . S
O246 Cd242 2.352 . S
O246 C249 1.258 . S
C247 O244 1.320 . S
C247 O245 1.214 . S
O248 Cd240 2.277 . S
O248 C243 1.209 . S
C249 O246 1.258 . S
C249 O251 1.282 . S
O250 Cd242 2.277 1_554 S
O250 C243 1.226 . S
O251 Cd242 2.356 . S
O251 C249 1.282 . S
C252 O253 1.306 . S
C252 O255 1.160 . S
O253 C252 1.306 . S
O253 Cd254 2.228 . S
Cd254 O253 2.228 . S
Cd254 O258 2.273 . S
Cd254 O262 2.277 . S
O255 C252 1.160 . S
O255 Cd256 2.203 . S
Cd256 O255 2.203 . S
Cd256 O258 2.411 . S
Cd256 O259 2.333 . S
Cd256 O260 2.352 . S
Cd256 O264 2.277 . S
Cd256 O265 2.356 . S
C257 O262 1.209 . S
C257 O264 1.226 . S
O258 Cd254 2.273 . S
O258 Cd256 2.411 . S
O258 C261 1.320 . S
O259 Cd256 2.333 . S
O259 C261 1.214 . S
O260 Cd256 2.352 . S
O260 C263 1.258 . S
C261 O258 1.320 . S
C261 O259 1.214 . S
O262 Cd254 2.277 . S
O262 C257 1.209 . S
C263 O260 1.258 . S
C263 O265 1.282 . S
O264 Cd256 2.277 . S
O264 C257 1.226 . S
O265 Cd256 2.356 . S
O265 C263 1.282 . S
C266 O267 1.306 . S
C266 O269 1.160 . S
O267 C266 1.306 . S
O267 Cd268 2.228 . S
Cd268 O267 2.228 . S
Cd268 O272 2.273 . S
Cd268 O276 2.277 . S
O269 C266 1.160 . S
O269 Cd270 2.203 . S
Cd270 O269 2.203 . S
Cd270 O272 2.411 . S
Cd270 O273 2.333 . S
Cd270 O274 2.352 . S
Cd270 O278 2.277 . S
Cd270 O279 2.356 . S
C271 O276 1.209 . S
C271 O278 1.226 . S
O272 Cd268 2.273 . S
O272 Cd270 2.411 . S
O272 C275 1.320 . S
O273 Cd270 2.333 . S
O273 C275 1.214 . S
O274 Cd270 2.352 . S
O274 C277 1.258 . S
C275 O272 1.320 . S
C275 O273 1.214 . S
O276 Cd268 2.277 . S
O276 C271 1.209 . S
C277 O274 1.258 . S
C277 O279 1.282 . S
O278 Cd270 2.277 . S
O278 C271 1.226 . S
O279 Cd270 2.356 . S
O279 C277 1.282 . S
C280 O281 1.306 . S
C280 O283 1.160 . S
O281 C280 1.306 . S
O281 Cd282 2.228 . S
Cd282 O281 2.228 . S
Cd282 O286 2.273 . S
Cd282 O290 2.277 . S
O283 C280 1.160 . S
O283 Cd284 2.203 . S
Cd284 O283 2.203 . S
Cd284 O286 2.411 . S
Cd284 O287 2.333 . S
Cd284 O288 2.352 . S
Cd284 O292 2.277 . S
Cd284 O293 2.356 . S
C285 O290 1.209 . S
C285 O292 1.226 . S
O286 Cd282 2.273 . S
O286 Cd284 2.411 . S
O286 C289 1.320 . S
O287 Cd284 2.333 . S
O287 C289 1.214 . S
O288 Cd284 2.352 . S
O288 C291 1.258 . S
C289 O286 1.320 . S
C289 O287 1.214 . S
O290 Cd282 2.277 . S
O290 C285 1.209 . S
C291 O288 1.258 . S
C291 O293 1.282 . S
O292 Cd284 2.277 . S
O292 C285 1.226 . S
O293 Cd284 2.356 . S
O293 C291 1.282 . S
C294 O295 1.306 . S
C294 O297 1.160 . S
O295 C294 1.306 . S
O295 Cd296 2.228 . S
Cd296 O295 2.228 . S
Cd296 O300 2.273 . S
Cd296 O304 2.277 . S
O297 C294 1.160 . S
O297 Cd298 2.203 . S
Cd298 O297 2.203 . S
Cd298 O300 2.411 . S
Cd298 O301 2.333 . S
Cd298 O302 2.352 . S
Cd298 O306 2.277 . S
Cd298 O307 2.356 . S
C299 O304 1.209 . S
C299 O306 1.226 . S
O300 Cd296 2.273 . S
O300 Cd298 2.411 . S
O300 C303 1.320 . S
O301 Cd298 2.333 . S
O301 C303 1.214 . S
O302 Cd298 2.352 . S
O302 C305 1.258 . S
C303 O300 1.320 . S
C303 O301 1.214 . S
O304 Cd296 2.277 . S
O304 C299 1.209 . S
C305 O302 1.258 . S
C305 O307 1.282 . S
O306 Cd298 2.277 . S
O306 C299 1.226 . S
O307 Cd298 2.356 . S
O307 C305 1.282 . S
C308 O309 1.306 . S
C308 O311 1.160 . S
O309 C308 1.306 . S
O309 Cd310 2.228 . S
Cd310 O309 2.228 . S
Cd310 O314 2.273 . S
Cd310 O318 2.277 . S
O311 C308 1.160 . S
O311 Cd312 2.203 . S
Cd312 O311 2.203 . S
Cd312 O314 2.411 . S
Cd312 O315 2.333 . S
Cd312 O316 2.352 . S
Cd312 O320 2.277 . S
Cd312 O321 2.356 . S
C313 O318 1.209 . S
C313 O320 1.226 . S
O314 Cd310 2.273 . S
O314 Cd312 2.411 . S
O314 C317 1.320 . S
O315 Cd312 2.333 . S
O315 C317 1.214 . S
O316 Cd312 2.352 . S
O316 C319 1.258 . S
C317 O314 1.320 . S
C317 O315 1.214 . S
O318 Cd310 2.277 . S
O318 C313 1.209 . S
C319 O316 1.258 . S
C319 O321 1.282 . S
O320 Cd312 2.277 . S
O320 C313 1.226 . S
O321 Cd312 2.356 . S
O321 C319 1.282 . S
C322 O323 1.306 . S
C322 O325 1.160 . S
O323 C322 1.306 . S
O323 Cd324 2.228 . S
Cd324 O323 2.228 . S
Cd324 O328 2.273 . S
Cd324 O332 2.277 . S
O325 C322 1.160 . S
O325 Cd326 2.203 . S
Cd326 O325 2.203 . S
Cd326 O328 2.411 . S
Cd326 O329 2.333 . S
Cd326 O330 2.352 . S
Cd326 O334 2.277 . S
Cd326 O335 2.356 . S
C327 O332 1.209 . S
C327 O334 1.226 . S
O328 Cd324 2.273 . S
O328 Cd326 2.411 . S
O328 C331 1.320 . S
O329 Cd326 2.333 . S
O329 C331 1.214 . S
O330 Cd326 2.352 . S
O330 C333 1.258 . S
C331 O328 1.320 . S
C331 O329 1.214 . S
O332 Cd324 2.277 . S
O332 C327 1.209 . S
C333 O330 1.258 . S
C333 O335 1.282 . S
O334 Cd326 2.277 . S
O334 C327 1.226 . S
O335 Cd326 2.356 . S
O335 C333 1.282 . S
C336 O337 1.306 . S
C336 O339 1.160 . S
O337 C336 1.306 . S
O337 Cd338 2.228 . S
Cd338 O337 2.228 . S
Cd338 O342 2.273 1_655 S
Cd338 O346 2.277 . S
O339 C336 1.160 . S
O339 Cd340 2.203 1_655 S
Cd340 O339 2.203 1_455 S
Cd340 O342 2.411 . S
Cd340 O343 2.333 . S
Cd340 O344 2.352 . S
Cd340 O348 2.277 1_455 S
Cd340 O349 2.356 . S
C341 O346 1.209 . S
C341 O348 1.226 . S
O342 Cd338 2.273 1_455 S
O342 Cd340 2.411 . S
O342 C345 1.320 . S
O343 Cd340 2.333 . S
O343 C345 1.214 . S
O344 Cd340 2.352 . S
O344 C347 1.258 . S
C345 O342 1.320 . S
C345 O343 1.214 . S
O346 Cd338 2.277 . S
O346 C341 1.209 . S
C347 O344 1.258 . S
C347 O349 1.282 . S
O348 Cd340 2.277 1_655 S
O348 C341 1.226 . S
O349 Cd340 2.356 . S
O349 C347 1.282 . S
C350 O351 1.306 . S
C350 O353 1.160 . S
O351 C350 1.306 . S
O351 Cd352 2.228 . S
Cd352 O351 2.228 . S
Cd352 O356 2.273 . S
Cd352 O360 2.277 . S
O353 C350 1.160 . S
O353 Cd354 2.203 . S
Cd354 O353 2.203 . S
Cd354 O356 2.411 . S
Cd354 O357 2.333 . S
Cd354 O358 2.352 . S
Cd354 O362 2.277 . S
Cd354 O363 2.356 . S
C355 O360 1.209 . S
C355 O362 1.226 . S
O356 Cd352 2.273 . S
O356 Cd354 2.411 . S
O356 C359 1.320 . S
O357 Cd354 2.333 . S
O357 C359 1.214 . S
O358 Cd354 2.352 . S
O358 C361 1.258 . S
C359 O356 1.320 . S
C359 O357 1.214 . S
O360 Cd352 2.277 . S
O360 C355 1.209 . S
C361 O358 1.258 . S
C361 O363 1.282 . S
O362 Cd354 2.277 . S
O362 C355 1.226 . S
O363 Cd354 2.356 . S
O363 C361 1.282 . S
C364 O365 1.306 . S
C364 O367 1.160 . S
O365 C364 1.306 . S
O365 Cd366 2.228 . S
Cd366 O365 2.228 . S
Cd366 O370 2.273 . S
Cd366 O374 2.277 . S
O367 C364 1.160 . S
O367 Cd368 2.203 . S
Cd368 O367 2.203 . S
Cd368 O370 2.411 . S
Cd368 O371 2.333 . S
Cd368 O372 2.352 . S
Cd368 O376 2.277 . S
Cd368 O377 2.356 . S
C369 O374 1.209 . S
C369 O376 1.226 . S
O370 Cd366 2.273 . S
O370 Cd368 2.411 . S
O370 C373 1.320 . S
O371 Cd368 2.333 . S
O371 C373 1.214 . S
O372 Cd368 2.352 . S
O372 C375 1.258 . S
C373 O370 1.320 . S
C373 O371 1.214 . S
O374 Cd366 2.277 . S
O374 C369 1.209 . S
C375 O372 1.258 . S
C375 O377 1.282 . S
O376 Cd368 2.277 . S
O376 C369 1.226 . S
O377 Cd368 2.356 . S
O377 C375 1.282 . S
C378 O379 1.306 . S
C378 O381 1.160 . S
O379 C378 1.306 . S
O379 Cd380 2.228 . S
Cd380 O379 2.228 . S
Cd380 O384 2.273 . S
Cd380 O388 2.277 . S
O381 C378 1.160 . S
O381 Cd382 2.203 . S
Cd382 O381 2.203 . S
Cd382 O384 2.411 . S
Cd382 O385 2.333 . S
Cd382 O386 2.352 . S
Cd382 O390 2.277 . S
Cd382 O391 2.356 . S
C383 O388 1.209 . S
C383 O390 1.226 . S
O384 Cd380 2.273 . S
O384 Cd382 2.411 . S
O384 C387 1.320 . S
O385 Cd382 2.333 . S
O385 C387 1.214 . S
O386 Cd382 2.352 . S
O386 C389 1.258 . S
C387 O384 1.320 . S
C387 O385 1.214 . S
O388 Cd380 2.277 . S
O388 C383 1.209 . S
C389 O386 1.258 . S
C389 O391 1.282 . S
O390 Cd382 2.277 . S
O390 C383 1.226 . S
O391 Cd382 2.356 . S
O391 C389 1.282 . S
C392 O393 1.306 . S
C392 O395 1.160 . S
O393 C392 1.306 . S
O393 Cd394 2.228 . S
Cd394 O393 2.228 . S
Cd394 O398 2.273 1_655 S
Cd394 O402 2.277 . S
O395 C392 1.160 . S
O395 Cd396 2.203 1_655 S
Cd396 O395 2.203 1_455 S
Cd396 O398 2.411 . S
Cd396 O399 2.333 . S
Cd396 O400 2.352 . S
Cd396 O404 2.277 1_455 S
Cd396 O405 2.356 . S
C397 O402 1.209 . S
C397 O404 1.226 . S
O398 Cd394 2.273 1_455 S
O398 Cd396 2.411 . S
O398 C401 1.320 . S
O399 Cd396 2.333 . S
O399 C401 1.214 . S
O400 Cd396 2.352 . S
O400 C403 1.258 . S
C401 O398 1.320 . S
C401 O399 1.214 . S
O402 Cd394 2.277 . S
O402 C397 1.209 . S
C403 O400 1.258 . S
C403 O405 1.282 . S
O404 Cd396 2.277 1_655 S
O404 C397 1.226 . S
O405 Cd396 2.356 . S
O405 C403 1.282 . S
C406 O407 1.306 . S
C406 O409 1.160 . S
O407 C406 1.306 . S
O407 Cd408 2.228 . S
Cd408 O407 2.228 . S
Cd408 O412 2.273 . S
Cd408 O416 2.277 . S
O409 C406 1.160 . S
O409 Cd410 2.203 . S
Cd410 O409 2.203 . S
Cd410 O412 2.411 . S
Cd410 O413 2.333 . S
Cd410 O414 2.352 . S
Cd410 O418 2.277 . S
Cd410 O419 2.356 . S
C411 O416 1.209 . S
C411 O418 1.226 . S
O412 Cd408 2.273 . S
O412 Cd410 2.411 . S
O412 C415 1.320 . S
O413 Cd410 2.333 . S
O413 C415 1.214 . S
O414 Cd410 2.352 . S
O414 C417 1.258 . S
C415 O412 1.320 . S
C415 O413 1.214 . S
O416 Cd408 2.277 . S
O416 C411 1.209 . S
C417 O414 1.258 . S
C417 O419 1.282 . S
O418 Cd410 2.277 . S
O418 C411 1.226 . S
O419 Cd410 2.356 . S
O419 C417 1.282 . S
C420 O421 1.306 . S
C420 O423 1.160 . S
O421 C420 1.306 . S
O421 Cd422 2.228 . S
Cd422 O421 2.228 . S
Cd422 O426 2.273 . S
Cd422 O430 2.277 . S
O423 C420 1.160 . S
O423 Cd424 2.203 . S
Cd424 O423 2.203 . S
Cd424 O426 2.411 . S
Cd424 O427 2.333 . S
Cd424 O428 2.352 . S
Cd424 O432 2.277 . S
Cd424 O433 2.356 . S
C425 O430 1.209 . S
C425 O432 1.226 . S
O426 Cd422 2.273 . S
O426 Cd424 2.411 . S
O426 C429 1.320 . S
O427 Cd424 2.333 . S
O427 C429 1.214 . S
O428 Cd424 2.352 . S
O428 C431 1.258 . S
C429 O426 1.320 . S
C429 O427 1.214 . S
O430 Cd422 2.277 . S
O430 C425 1.209 . S
C431 O428 1.258 . S
C431 O433 1.282 . S
O432 Cd424 2.277 . S
O432 C425 1.226 . S
O433 Cd424 2.356 . S
O433 C431 1.282 . S
C434 O435 1.306 . S
C434 O437 1.160 . S
O435 C434 1.306 . S
O435 Cd436 2.228 . S
Cd436 O435 2.228 . S
Cd436 O440 2.273 . S
Cd436 O444 2.277 . S
O437 C434 1.160 . S
O437 Cd438 2.203 . S
Cd438 O437 2.203 . S
Cd438 O440 2.411 . S
Cd438 O441 2.333 . S
Cd438 O442 2.352 . S
Cd438 O446 2.277 . S
Cd438 O447 2.356 . S
C439 O444 1.209 . S
C439 O446 1.226 . S
O440 Cd436 2.273 . S
O440 Cd438 2.411 . S
O440 C443 1.320 . S
O441 Cd438 2.333 . S
O441 C443 1.214 . S
O442 Cd438 2.352 . S
O442 C445 1.258 . S
C443 O440 1.320 . S
C443 O441 1.214 . S
O444 Cd436 2.277 . S
O444 C439 1.209 . S
C445 O442 1.258 . S
C445 O447 1.282 . S
O446 Cd438 2.277 . S
O446 C439 1.226 . S
O447 Cd438 2.356 . S
O447 C445 1.282 . S
C448 O449 1.306 . S
C448 O451 1.160 . S
O449 C448 1.306 . S
O449 Cd450 2.228 . S
Cd450 O449 2.228 . S
Cd450 O454 2.273 1_565 S
Cd450 O458 2.277 . S
O451 C448 1.160 . S
O451 Cd452 2.212 . S
Cd452 O451 2.212 . S
Cd452 O454 2.404 1_565 S
Cd452 O455 2.322 1_565 S
Cd452 O456 2.343 1_565 S
Cd452 O460 2.286 . S
Cd452 O461 2.352 1_565 S
C453 O458 1.209 . S
C453 O460 1.226 . S
O454 Cd450 2.273 1_545 S
O454 Cd452 2.404 1_545 S
O454 C457 1.320 . S
O455 Cd452 2.322 1_545 S
O455 C457 1.214 . S
O456 Cd452 2.343 1_545 S
O456 C459 1.258 . S
C457 O454 1.320 . S
C457 O455 1.214 . S
O458 Cd450 2.277 . S
O458 C453 1.209 . S
C459 O456 1.258 . S
C459 O461 1.282 . S
O460 Cd452 2.286 . S
O460 C453 1.226 . S
O461 Cd452 2.352 1_545 S
O461 C459 1.282 . S
C462 O463 1.306 . S
C462 O465 1.160 . S
O463 C462 1.306 . S
O463 Cd464 2.228 . S
Cd464 O463 2.228 . S
Cd464 O468 2.273 . S
Cd464 O472 2.277 . S
O465 C462 1.160 . S
O465 Cd466 2.203 . S
Cd466 O465 2.203 . S
Cd466 O468 2.411 . S
Cd466 O469 2.333 . S
Cd466 O470 2.352 . S
Cd466 O474 2.277 . S
Cd466 O475 2.356 . S
C467 O472 1.209 . S
C467 O474 1.226 . S
O468 Cd464 2.273 . S
O468 Cd466 2.411 . S
O468 C471 1.320 . S
O469 Cd466 2.333 . S
O469 C471 1.214 . S
O470 Cd466 2.352 . S
O470 C473 1.258 . S
C471 O468 1.320 . S
C471 O469 1.214 . S
O472 Cd464 2.277 . S
O472 C467 1.209 . S
C473 O470 1.258 . S
C473 O475 1.282 . S
O474 Cd466 2.277 . S
O474 C467 1.226 . S
O475 Cd466 2.356 . S
O475 C473 1.282 . S
C476 O477 1.306 . S
C476 O479 1.160 . S
O477 C476 1.306 . S
O477 Cd478 2.228 . S
Cd478 O477 2.228 . S
Cd478 O482 2.273 1_545 S
Cd478 O486 2.277 . S
O479 C476 1.160 . S
O479 Cd480 2.209 . S
Cd480 O479 2.209 . S
Cd480 O482 2.407 1_545 S
Cd480 O483 2.326 1_545 S
Cd480 O484 2.346 1_545 S
Cd480 O488 2.283 . S
Cd480 O489 2.354 1_545 S
C481 O486 1.209 . S
C481 O488 1.226 . S
O482 Cd478 2.273 1_565 S
O482 Cd480 2.407 1_565 S
O482 C485 1.320 . S
O483 Cd480 2.326 1_565 S
O483 C485 1.214 . S
O484 Cd480 2.346 1_565 S
O484 C487 1.258 . S
C485 O482 1.320 . S
C485 O483 1.214 . S
O486 Cd478 2.277 . S
O486 C481 1.209 . S
C487 O484 1.258 . S
C487 O489 1.282 . S
O488 Cd480 2.283 . S
O488 C481 1.226 . S
O489 Cd480 2.354 1_565 S
O489 C487 1.282 . S
C490 O491 1.306 . S
C490 O493 1.160 . S
O491 C490 1.306 . S
O491 Cd492 2.228 . S
Cd492 O491 2.228 . S
Cd492 O496 2.273 . S
Cd492 O500 2.277 . S
O493 C490 1.160 . S
O493 Cd494 2.203 . S
Cd494 O493 2.203 . S
Cd494 O496 2.411 . S
Cd494 O497 2.333 . S
Cd494 O498 2.352 . S
Cd494 O502 2.277 . S
Cd494 O503 2.356 . S
C495 O500 1.209 . S
C495 O502 1.226 . S
O496 Cd492 2.273 . S
O496 Cd494 2.411 . S
O496 C499 1.320 . S
O497 Cd494 2.333 . S
O497 C499 1.214 . S
O498 Cd494 2.352 . S
O498 C501 1.258 . S
C499 O496 1.320 . S
C499 O497 1.214 . S
O500 Cd492 2.277 . S
O500 C495 1.209 . S
C501 O498 1.258 . S
C501 O503 1.282 . S
O502 Cd494 2.277 . S
O502 C495 1.226 . S
O503 Cd494 2.356 . S
O503 C501 1.282 . S
C504 O505 1.306 . S
C504 O507 1.160 . S
O505 C504 1.306 . S
O505 Cd506 2.228 . S
Cd506 O505 2.228 . S
Cd506 O510 2.273 1_545 S
Cd506 O514 2.277 . S
O507 C504 1.160 . S
O507 Cd508 2.213 . S
Cd508 O507 2.213 . S
Cd508 O510 2.404 1_545 S
Cd508 O511 2.322 1_545 S
Cd508 O512 2.342 1_545 S
Cd508 O516 2.287 . S
Cd508 O517 2.352 1_545 S
C509 O514 1.209 . S
C509 O516 1.226 . S
O510 Cd506 2.273 1_565 S
O510 Cd508 2.404 1_565 S
O510 C513 1.320 . S
O511 Cd508 2.322 1_565 S
O511 C513 1.214 . S
O512 Cd508 2.342 1_565 S
O512 C515 1.258 . S
C513 O510 1.320 . S
C513 O511 1.214 . S
O514 Cd506 2.277 . S
O514 C509 1.209 . S
C515 O512 1.258 . S
C515 O517 1.282 . S
O516 Cd508 2.287 . S
O516 C509 1.226 . S
O517 Cd508 2.352 1_565 S
O517 C515 1.282 . S
C518 O519 1.306 . S
C518 O521 1.160 . S
O519 C518 1.306 . S
O519 Cd520 2.228 . S
Cd520 O519 2.228 . S
Cd520 O524 2.273 . S
Cd520 O528 2.277 . S
O521 C518 1.160 . S
O521 Cd522 2.203 . S
Cd522 O521 2.203 . S
Cd522 O524 2.411 . S
Cd522 O525 2.333 . S
Cd522 O526 2.352 . S
Cd522 O530 2.277 . S
Cd522 O531 2.356 . S
C523 O528 1.209 . S
C523 O530 1.226 . S
O524 Cd520 2.273 . S
O524 Cd522 2.411 . S
O524 C527 1.320 . S
O525 Cd522 2.333 . S
O525 C527 1.214 . S
O526 Cd522 2.352 . S
O526 C529 1.258 . S
C527 O524 1.320 . S
C527 O525 1.214 . S
O528 Cd520 2.277 . S
O528 C523 1.209 . S
C529 O526 1.258 . S
C529 O531 1.282 . S
O530 Cd522 2.277 . S
O530 C523 1.226 . S
O531 Cd522 2.356 . S
O531 C529 1.282 . S
C532 O533 1.306 . S
C532 O535 1.160 . S
O533 C532 1.306 . S
O533 Cd534 2.228 . S
Cd534 O533 2.228 . S
Cd534 O538 2.273 1_565 S
Cd534 O542 2.277 . S
O535 C532 1.160 . S
O535 Cd536 2.209 . S
Cd536 O535 2.209 . S
Cd536 O538 2.407 1_565 S
Cd536 O539 2.327 1_565 S
Cd536 O540 2.346 1_565 S
Cd536 O544 2.282 . S
Cd536 O545 2.354 1_565 S
C537 O542 1.209 . S
C537 O544 1.226 . S
O538 Cd534 2.273 1_545 S
O538 Cd536 2.407 1_545 S
O538 C541 1.320 . S
O539 Cd536 2.327 1_545 S
O539 C541 1.214 . S
O540 Cd536 2.346 1_545 S
O540 C543 1.258 . S
C541 O538 1.320 . S
C541 O539 1.214 . S
O542 Cd534 2.277 . S
O542 C537 1.209 . S
C543 O540 1.258 . S
C543 O545 1.282 . S
O544 Cd536 2.282 . S
O544 C537 1.226 . S
O545 Cd536 2.354 1_545 S
O545 C543 1.282 . S
C546 O547 1.306 . S
C546 O549 1.160 . S
O547 C546 1.306 . S
O547 Cd548 2.228 . S
Cd548 O547 2.228 . S
Cd548 O552 2.273 . S
Cd548 O556 2.277 . S
O549 C546 1.160 . S
O549 Cd550 2.203 . S
Cd550 O549 2.203 . S
Cd550 O552 2.411 . S
Cd550 O553 2.333 . S
Cd550 O554 2.352 . S
Cd550 O558 2.277 . S
Cd550 O559 2.356 . S
C551 O556 1.209 . S
C551 O558 1.226 . S
O552 Cd548 2.273 . S
O552 Cd550 2.411 . S
O552 C555 1.320 . S
O553 Cd550 2.333 . S
O553 C555 1.214 . S
O554 Cd550 2.352 . S
O554 C557 1.258 . S
C555 O552 1.320 . S
C555 O553 1.214 . S
O556 Cd548 2.277 . S
O556 C551 1.209 . S
C557 O554 1.258 . S
C557 O559 1.282 . S
O558 Cd550 2.277 . S
O558 C551 1.226 . S
O559 Cd550 2.356 . S
O559 C557 1.282 . S
C560 O561 1.306 . S
C560 O563 1.160 . S
O561 C560 1.306 . S
O561 Cd562 2.228 . S
Cd562 O561 2.228 . S
Cd562 O566 2.273 1_556 S
Cd562 O570 2.277 . S
O563 C560 1.160 . S
O563 Cd564 2.203 1_556 S
Cd564 O563 2.203 1_554 S
Cd564 O566 2.411 . S
Cd564 O567 2.333 . S
Cd564 O568 2.352 . S
Cd564 O572 2.277 1_554 S
Cd564 O573 2.356 . S
C565 O570 1.209 . S
C565 O572 1.226 . S
O566 Cd562 2.273 1_554 S
O566 Cd564 2.411 . S
O566 C569 1.320 . S
O567 Cd564 2.333 . S
O567 C569 1.214 . S
O568 Cd564 2.352 . S
O568 C571 1.258 . S
C569 O566 1.320 . S
C569 O567 1.214 . S
O570 Cd562 2.277 . S
O570 C565 1.209 . S
C571 O568 1.258 . S
C571 O573 1.282 . S
O572 Cd564 2.277 1_556 S
O572 C565 1.226 . S
O573 Cd564 2.356 . S
O573 C571 1.282 . S
C574 O575 1.306 . S
C574 O577 1.160 . S
O575 C574 1.306 . S
O575 Cd576 2.228 . S
Cd576 O575 2.228 . S
Cd576 O580 2.273 1_554 S
Cd576 O584 2.277 . S
O577 C574 1.160 . S
O577 Cd578 2.192 1_554 S
Cd578 O577 2.192 1_556 S
Cd578 O580 2.420 . S
Cd578 O581 2.346 . S
Cd578 O582 2.363 . S
Cd578 O586 2.264 1_556 S
Cd578 O587 2.361 . S
C579 O584 1.209 . S
C579 O586 1.226 . S
O580 Cd576 2.273 1_556 S
O580 Cd578 2.420 . S
O580 C583 1.320 . S
O581 Cd578 2.346 . S
O581 C583 1.214 . S
O582 Cd578 2.363 . S
O582 C585 1.258 . S
C583 O580 1.320 . S
C583 O581 1.214 . S
O584 Cd576 2.277 . S
O584 C579 1.209 . S
C585 O582 1.258 . S
C585 O587 1.282 . S
O586 Cd578 2.264 1_554 S
O586 C579 1.226 . S
O587 Cd578 2.361 . S
O587 C585 1.282 . S
C588 O589 1.306 . S
C588 O591 1.160 . S
O589 C588 1.306 . S
O589 Cd590 2.228 . S
Cd590 O589 2.228 . S
Cd590 O594 2.273 . S
Cd590 O598 2.277 . S
O591 C588 1.160 . S
O591 Cd592 2.203 . S
Cd592 O591 2.203 . S
Cd592 O594 2.411 . S
Cd592 O595 2.333 . S
Cd592 O596 2.352 . S
Cd592 O600 2.277 . S
Cd592 O601 2.356 . S
C593 O598 1.209 . S
C593 O600 1.226 . S
O594 Cd590 2.273 . S
O594 Cd592 2.411 . S
O594 C597 1.320 . S
O595 Cd592 2.333 . S
O595 C597 1.214 . S
O596 Cd592 2.352 . S
O596 C599 1.258 . S
C597 O594 1.320 . S
C597 O595 1.214 . S
O598 Cd590 2.277 . S
O598 C593 1.209 . S
C599 O596 1.258 . S
C599 O601 1.282 . S
O600 Cd592 2.277 . S
O600 C593 1.226 . S
O601 Cd592 2.356 . S
O601 C599 1.282 . S
C602 O603 1.306 . S
C602 O605 1.160 . S
O603 C602 1.306 . S
O603 Cd604 2.228 . S
Cd604 O603 2.228 . S
Cd604 O608 2.273 . S
Cd604 O612 2.277 . S
O605 C602 1.160 . S
O605 Cd606 2.203 . S
Cd606 O605 2.203 . S
Cd606 O608 2.411 . S
Cd606 O609 2.333 . S
Cd606 O610 2.352 . S
Cd606 O614 2.277 . S
Cd606 O615 2.356 . S
C607 O612 1.209 . S
C607 O614 1.226 . S
O608 Cd604 2.273 . S
O608 Cd606 2.411 . S
O608 C611 1.320 . S
O609 Cd606 2.333 . S
O609 C611 1.214 . S
O610 Cd606 2.352 . S
O610 C613 1.258 . S
C611 O608 1.320 . S
C611 O609 1.214 . S
O612 Cd604 2.277 . S
O612 C607 1.209 . S
C613 O610 1.258 . S
C613 O615 1.282 . S
O614 Cd606 2.277 . S
O614 C607 1.226 . S
O615 Cd606 2.356 . S
O615 C613 1.282 . S
C616 O617 1.306 . S
C616 O619 1.160 . S
O617 C616 1.306 . S
O617 Cd618 2.228 . S
Cd618 O617 2.228 . S
Cd618 O622 2.273 . S
Cd618 O626 2.277 . S
O619 C616 1.160 . S
O619 Cd620 2.203 . S
Cd620 O619 2.203 . S
Cd620 O622 2.411 . S
Cd620 O623 2.333 . S
Cd620 O624 2.352 . S
Cd620 O628 2.277 . S
Cd620 O629 2.356 . S
C621 O626 1.209 . S
C621 O628 1.226 . S
O622 Cd618 2.273 . S
O622 Cd620 2.411 . S
O622 C625 1.320 . S
O623 Cd620 2.333 . S
O623 C625 1.214 . S
O624 Cd620 2.352 . S
O624 C627 1.258 . S
C625 O622 1.320 . S
C625 O623 1.214 . S
O626 Cd618 2.277 . S
O626 C621 1.209 . S
C627 O624 1.258 . S
C627 O629 1.282 . S
O628 Cd620 2.277 . S
O628 C621 1.226 . S
O629 Cd620 2.356 . S
O629 C627 1.282 . S
C630 O631 1.306 . S
C630 O633 1.160 . S
O631 C630 1.306 . S
O631 Cd632 2.228 . S
Cd632 O631 2.228 . S
Cd632 O636 2.273 . S
Cd632 O640 2.277 . S
O633 C630 1.160 . S
O633 Cd634 2.203 . S
Cd634 O633 2.203 . S
Cd634 O636 2.411 . S
Cd634 O637 2.333 . S
Cd634 O638 2.352 . S
Cd634 O642 2.277 . S
Cd634 O643 2.356 . S
C635 O640 1.209 . S
C635 O642 1.226 . S
O636 Cd632 2.273 . S
O636 Cd634 2.411 . S
O636 C639 1.320 . S
O637 Cd634 2.333 . S
O637 C639 1.214 . S
O638 Cd634 2.352 . S
O638 C641 1.258 . S
C639 O636 1.320 . S
C639 O637 1.214 . S
O640 Cd632 2.277 . S
O640 C635 1.209 . S
C641 O638 1.258 . S
C641 O643 1.282 . S
O642 Cd634 2.277 . S
O642 C635 1.226 . S
O643 Cd634 2.356 . S
O643 C641 1.282 . S
C644 O645 1.306 . S
C644 O647 1.160 . S
O645 C644 1.306 . S
O645 Cd646 2.228 . S
Cd646 O645 2.228 . S
Cd646 O650 2.273 . S
Cd646 O654 2.277 . S
O647 C644 1.160 . S
O647 Cd648 2.203 . S
Cd648 O647 2.203 . S
Cd648 O650 2.411 . S
Cd648 O651 2.333 . S
Cd648 O652 2.352 . S
Cd648 O656 2.277 . S
Cd648 O657 2.356 . S
C649 O654 1.209 . S
C649 O656 1.226 . S
O650 Cd646 2.273 . S
O650 Cd648 2.411 . S
O650 C653 1.320 . S
O651 Cd648 2.333 . S
O651 C653 1.214 . S
O652 Cd648 2.352 . S
O652 C655 1.258 . S
C653 O650 1.320 . S
C653 O651 1.214 . S
O654 Cd646 2.277 . S
O654 C649 1.209 . S
C655 O652 1.258 . S
C655 O657 1.282 . S
O656 Cd648 2.277 . S
O656 C649 1.226 . S
O657 Cd648 2.356 . S
O657 C655 1.282 . S
C658 O659 1.306 . S
C658 O661 1.160 . S
O659 C658 1.306 . S
O659 Cd660 2.228 . S
Cd660 O659 2.228 . S
Cd660 O664 2.273 . S
Cd660 O668 2.277 . S
O661 C658 1.160 . S
O661 Cd662 2.203 . S
Cd662 O661 2.203 . S
Cd662 O664 2.411 . S
Cd662 O665 2.333 . S
Cd662 O666 2.352 . S
Cd662 O670 2.277 . S
Cd662 O671 2.356 . S
C663 O668 1.209 . S
C663 O670 1.226 . S
O664 Cd660 2.273 . S
O664 Cd662 2.411 . S
O664 C667 1.320 . S
O665 Cd662 2.333 . S
O665 C667 1.214 . S
O666 Cd662 2.352 . S
O666 C669 1.258 . S
C667 O664 1.320 . S
C667 O665 1.214 . S
O668 Cd660 2.277 . S
O668 C663 1.209 . S
C669 O666 1.258 . S
C669 O671 1.282 . S
O670 Cd662 2.277 . S
O670 C663 1.226 . S
O671 Cd662 2.356 . S
O671 C669 1.282 . S
C672 O673 1.306 . S
C672 O675 1.160 . S
O673 C672 1.306 . S
O673 Cd674 2.228 . S
Cd674 O673 2.228 . S
Cd674 O678 2.273 . S
Cd674 O682 2.277 . S
O675 C672 1.160 . S
O675 Cd676 2.203 . S
Cd676 O675 2.203 . S
Cd676 O678 2.411 . S
Cd676 O679 2.333 . S
Cd676 O680 2.352 . S
Cd676 O684 2.277 . S
Cd676 O685 2.356 . S
C677 O682 1.209 . S
C677 O684 1.226 . S
O678 Cd674 2.273 . S
O678 Cd676 2.411 . S
O678 C681 1.320 . S
O679 Cd676 2.333 . S
O679 C681 1.214 . S
O680 Cd676 2.352 . S
O680 C683 1.258 . S
C681 O678 1.320 . S
C681 O679 1.214 . S
O682 Cd674 2.277 . S
O682 C677 1.209 . S
C683 O680 1.258 . S
C683 O685 1.282 . S
O684 Cd676 2.277 . S
O684 C677 1.226 . S
O685 Cd676 2.356 . S
O685 C683 1.282 . S
C686 O687 1.306 . S
C686 O689 1.160 . S
O687 C686 1.306 . S
O687 Cd688 2.228 . S
Cd688 O687 2.228 . S
Cd688 O692 2.273 . S
Cd688 O696 2.277 . S
O689 C686 1.160 . S
O689 Cd690 2.203 . S
Cd690 O689 2.203 . S
Cd690 O692 2.411 . S
Cd690 O693 2.333 . S
Cd690 O694 2.352 . S
Cd690 O698 2.277 . S
Cd690 O699 2.356 . S
C691 O696 1.209 . S
C691 O698 1.226 . S
O692 Cd688 2.273 . S
O692 Cd690 2.411 . S
O692 C695 1.320 . S
O693 Cd690 2.333 . S
O693 C695 1.214 . S
O694 Cd690 2.352 . S
O694 C697 1.258 . S
C695 O692 1.320 . S
C695 O693 1.214 . S
O696 Cd688 2.277 . S
O696 C691 1.209 . S
C697 O694 1.258 . S
C697 O699 1.282 . S
O698 Cd690 2.277 . S
O698 C691 1.226 . S
O699 Cd690 2.356 . S
O699 C697 1.282 . S
C700 O701 1.306 . S
C700 O703 1.160 . S
O701 C700 1.306 . S
O701 Cd702 2.228 . S
Cd702 O701 2.228 . S
Cd702 O706 2.273 1_655 S
Cd702 O710 2.277 . S
O703 C700 1.160 . S
O703 Cd704 2.203 1_655 S
Cd704 O703 2.203 1_455 S
Cd704 O706 2.411 . S
Cd704 O707 2.333 . S
Cd704 O708 2.352 . S
Cd704 O712 2.277 1_455 S
Cd704 O713 2.356 . S
C705 O710 1.209 . S
C705 O712 1.226 . S
O706 Cd702 2.273 1_455 S
O706 Cd704 2.411 . S
O706 C709 1.320 . S
O707 Cd704 2.333 . S
O707 C709 1.214 . S
O708 Cd704 2.352 . S
O708 C711 1.258 . S
C709 O706 1.320 . S
C709 O707 1.214 . S
O710 Cd702 2.277 . S
O710 C705 1.209 . S
C711 O708 1.258 . S
C711 O713 1.282 . S
O712 Cd704 2.277 1_655 S
O712 C705 1.226 . S
O713 Cd704 2.356 . S
O713 C711 1.282 . S
C714 O715 1.306 . S
C714 O717 1.160 . S
O715 C714 1.306 . S
O715 Cd716 2.228 . S
Cd716 O715 2.228 . S
Cd716 O720 2.273 . S
Cd716 O724 2.277 . S
O717 C714 1.160 . S
O717 Cd718 2.203 . S
Cd718 O717 2.203 . S
Cd718 O720 2.411 . S
Cd718 O721 2.333 . S
Cd718 O722 2.352 . S
Cd718 O726 2.277 . S
Cd718 O727 2.356 . S
C719 O724 1.209 . S
C719 O726 1.226 . S
O720 Cd716 2.273 . S
O720 Cd718 2.411 . S
O720 C723 1.320 . S
O721 Cd718 2.333 . S
O721 C723 1.214 . S
O722 Cd718 2.352 . S
O722 C725 1.258 . S
C723 O720 1.320 . S
C723 O721 1.214 . S
O724 Cd716 2.277 . S
O724 C719 1.209 . S
C725 O722 1.258 . S
C725 O727 1.282 . S
O726 Cd718 2.277 . S
O726 C719 1.226 . S
O727 Cd718 2.356 . S
O727 C725 1.282 . S
C728 O729 1.306 . S
C728 O731 1.160 . S
O729 C728 1.306 . S
O729 Cd730 2.228 . S
Cd730 O729 2.228 . S
Cd730 O734 2.273 . S
Cd730 O738 2.277 . S
O731 C728 1.160 . S
O731 Cd732 2.203 . S
Cd732 O731 2.203 . S
Cd732 O734 2.411 . S
Cd732 O735 2.333 . S
Cd732 O736 2.352 . S
Cd732 O740 2.277 . S
Cd732 O741 2.356 . S
C733 O738 1.209 . S
C733 O740 1.226 . S
O734 Cd730 2.273 . S
O734 Cd732 2.411 . S
O734 C737 1.320 . S
O735 Cd732 2.333 . S
O735 C737 1.214 . S
O736 Cd732 2.352 . S
O736 C739 1.258 . S
C737 O734 1.320 . S
C737 O735 1.214 . S
O738 Cd730 2.277 . S
O738 C733 1.209 . S
C739 O736 1.258 . S
C739 O741 1.282 . S
O740 Cd732 2.277 . S
O740 C733 1.226 . S
O741 Cd732 2.356 . S
O741 C739 1.282 . S
C742 O743 1.306 . S
C742 O745 1.160 . S
O743 C742 1.306 . S
O743 Cd744 2.228 . S
Cd744 O743 2.228 . S
Cd744 O748 2.273 . S
Cd744 O752 2.277 . S
O745 C742 1.160 . S
O745 Cd746 2.203 . S
Cd746 O745 2.203 . S
Cd746 O748 2.411 . S
Cd746 O749 2.333 . S
Cd746 O750 2.352 . S
Cd746 O754 2.277 . S
Cd746 O755 2.356 . S
C747 O752 1.209 . S
C747 O754 1.226 . S
O748 Cd744 2.273 . S
O748 Cd746 2.411 . S
O748 C751 1.320 . S
O749 Cd746 2.333 . S
O749 C751 1.214 . S
O750 Cd746 2.352 . S
O750 C753 1.258 . S
C751 O748 1.320 . S
C751 O749 1.214 . S
O752 Cd744 2.277 . S
O752 C747 1.209 . S
C753 O750 1.258 . S
C753 O755 1.282 . S
O754 Cd746 2.277 . S
O754 C747 1.226 . S
O755 Cd746 2.356 . S
O755 C753 1.282 . S
C756 O757 1.306 . S
C756 O759 1.160 . S
O757 C756 1.306 . S
O757 Cd758 2.228 . S
Cd758 O757 2.228 . S
Cd758 O762 2.273 1_655 S
Cd758 O766 2.277 . S
O759 C756 1.160 . S
O759 Cd760 2.203 1_655 S
Cd760 O759 2.203 1_455 S
Cd760 O762 2.411 . S
Cd760 O763 2.333 . S
Cd760 O764 2.352 . S
Cd760 O768 2.277 1_455 S
Cd760 O769 2.356 . S
C761 O766 1.209 . S
C761 O768 1.226 . S
O762 Cd758 2.273 1_455 S
O762 Cd760 2.411 . S
O762 C765 1.320 . S
O763 Cd760 2.333 . S
O763 C765 1.214 . S
O764 Cd760 2.352 . S
O764 C767 1.258 . S
C765 O762 1.320 . S
C765 O763 1.214 . S
O766 Cd758 2.277 . S
O766 C761 1.209 . S
C767 O764 1.258 . S
C767 O769 1.282 . S
O768 Cd760 2.277 1_655 S
O768 C761 1.226 . S
O769 Cd760 2.356 . S
O769 C767 1.282 . S
C770 O771 1.306 . S
C770 O773 1.160 . S
O771 C770 1.306 . S
O771 Cd772 2.228 . S
Cd772 O771 2.228 . S
Cd772 O776 2.273 . S
Cd772 O780 2.277 . S
O773 C770 1.160 . S
O773 Cd774 2.203 . S
Cd774 O773 2.203 . S
Cd774 O776 2.411 . S
Cd774 O777 2.333 . S
Cd774 O778 2.352 . S
Cd774 O782 2.277 . S
Cd774 O783 2.356 . S
C775 O780 1.209 . S
C775 O782 1.226 . S
O776 Cd772 2.273 . S
O776 Cd774 2.411 . S
O776 C779 1.320 . S
O777 Cd774 2.333 . S
O777 C779 1.214 . S
O778 Cd774 2.352 . S
O778 C781 1.258 . S
C779 O776 1.320 . S
C779 O777 1.214 . S
O780 Cd772 2.277 . S
O780 C775 1.209 . S
C781 O778 1.258 . S
C781 O783 1.282 . S
O782 Cd774 2.277 . S
O782 C775 1.226 . S
O783 Cd774 2.356 . S
O783 C781 1.282 . S
C784 O785 1.306 . S
C784 O787 1.160 . S
O785 C784 1.306 . S
O785 Cd786 2.228 . S
Cd786 O785 2.228 . S
Cd786 O790 2.273 . S
Cd786 O794 2.277 . S
O787 C784 1.160 . S
O787 Cd788 2.203 . S
Cd788 O787 2.203 . S
Cd788 O790 2.411 . S
Cd788 O791 2.333 . S
Cd788 O792 2.352 . S
Cd788 O796 2.277 . S
Cd788 O797 2.356 . S
C789 O794 1.209 . S
C789 O796 1.226 . S
O790 Cd786 2.273 . S
O790 Cd788 2.411 . S
O790 C793 1.320 . S
O791 Cd788 2.333 . S
O791 C793 1.214 . S
O792 Cd788 2.352 . S
O792 C795 1.258 . S
C793 O790 1.320 . S
C793 O791 1.214 . S
O794 Cd786 2.277 . S
O794 C789 1.209 . S
C795 O792 1.258 . S
C795 O797 1.282 . S
O796 Cd788 2.277 . S
O796 C789 1.226 . S
O797 Cd788 2.356 . S
O797 C795 1.282 . S
C798 O799 1.306 . S
C798 O801 1.160 . S
O799 C798 1.306 . S
O799 Cd800 2.228 . S
Cd800 O799 2.228 . S
Cd800 O804 2.273 . S
Cd800 O808 2.277 . S
O801 C798 1.160 . S
O801 Cd802 2.203 . S
Cd802 O801 2.203 . S
Cd802 O804 2.411 . S
Cd802 O805 2.333 . S
Cd802 O806 2.352 . S
Cd802 O810 2.277 . S
Cd802 O811 2.356 . S
C803 O808 1.209 . S
C803 O810 1.226 . S
O804 Cd800 2.273 . S
O804 Cd802 2.411 . S
O804 C807 1.320 . S
O805 Cd802 2.333 . S
O805 C807 1.214 . S
O806 Cd802 2.352 . S
O806 C809 1.258 . S
C807 O804 1.320 . S
C807 O805 1.214 . S
O808 Cd800 2.277 . S
O808 C803 1.209 . S
C809 O806 1.258 . S
C809 O811 1.282 . S
O810 Cd802 2.277 . S
O810 C803 1.226 . S
O811 Cd802 2.356 . S
O811 C809 1.282 . S
C812 O813 1.306 . S
C812 O815 1.160 . S
O813 C812 1.306 . S
O813 Cd814 2.228 . S
Cd814 O813 2.228 . S
Cd814 O818 2.273 . S
Cd814 O822 2.277 . S
O815 C812 1.160 . S
O815 Cd816 2.203 . S
Cd816 O815 2.203 . S
Cd816 O818 2.411 . S
Cd816 O819 2.333 . S
Cd816 O820 2.352 . S
Cd816 O824 2.277 . S
Cd816 O825 2.356 . S
C817 O822 1.209 . S
C817 O824 1.226 . S
O818 Cd814 2.273 . S
O818 Cd816 2.411 . S
O818 C821 1.320 . S
O819 Cd816 2.333 . S
O819 C821 1.214 . S
O820 Cd816 2.352 . S
O820 C823 1.258 . S
C821 O818 1.320 . S
C821 O819 1.214 . S
O822 Cd814 2.277 . S
O822 C817 1.209 . S
C823 O820 1.258 . S
C823 O825 1.282 . S
O824 Cd816 2.277 . S
O824 C817 1.226 . S
O825 Cd816 2.356 . S
O825 C823 1.282 . S
C826 O827 1.306 . S
C826 O829 1.160 . S
O827 C826 1.306 . S
O827 Cd828 2.228 . S
Cd828 O827 2.228 . S
Cd828 O832 2.273 . S
Cd828 O836 2.277 . S
O829 C826 1.160 . S
O829 Cd830 2.203 . S
Cd830 O829 2.203 . S
Cd830 O832 2.411 . S
Cd830 O833 2.333 . S
Cd830 O834 2.352 . S
Cd830 O838 2.277 . S
Cd830 O839 2.356 . S
C831 O836 1.209 . S
C831 O838 1.226 . S
O832 Cd828 2.273 . S
O832 Cd830 2.411 . S
O832 C835 1.320 . S
O833 Cd830 2.333 . S
O833 C835 1.214 . S
O834 Cd830 2.352 . S
O834 C837 1.258 . S
C835 O832 1.320 . S
C835 O833 1.214 . S
O836 Cd828 2.277 . S
O836 C831 1.209 . S
C837 O834 1.258 . S
C837 O839 1.282 . S
O838 Cd830 2.277 . S
O838 C831 1.226 . S
O839 Cd830 2.356 . S
O839 C837 1.282 . S
C840 O841 1.306 . S
C840 O843 1.160 . S
O841 C840 1.306 . S
O841 Cd842 2.228 . S
Cd842 O841 2.228 . S
Cd842 O846 2.273 . S
Cd842 O850 2.277 . S
O843 C840 1.160 . S
O843 Cd844 2.203 . S
Cd844 O843 2.203 . S
Cd844 O846 2.411 . S
Cd844 O847 2.333 . S
Cd844 O848 2.352 . S
Cd844 O852 2.277 . S
Cd844 O853 2.356 . S
C845 O850 1.209 . S
C845 O852 1.226 . S
O846 Cd842 2.273 . S
O846 Cd844 2.411 . S
O846 C849 1.320 . S
O847 Cd844 2.333 . S
O847 C849 1.214 . S
O848 Cd844 2.352 . S
O848 C851 1.258 . S
C849 O846 1.320 . S
C849 O847 1.214 . S
O850 Cd842 2.277 . S
O850 C845 1.209 . S
C851 O848 1.258 . S
C851 O853 1.282 . S
O852 Cd844 2.277 . S
O852 C845 1.226 . S
O853 Cd844 2.356 . S
O853 C851 1.282 . S
C854 O855 1.306 . S
C854 O857 1.160 . S
O855 C854 1.306 . S
O855 Cd856 2.228 . S
Cd856 O855 2.228 . S
Cd856 O860 2.273 . S
Cd856 O864 2.277 . S
O857 C854 1.160 . S
O857 Cd858 2.203 . S
Cd858 O857 2.203 . S
Cd858 O860 2.411 . S
Cd858 O861 2.333 . S
Cd858 O862 2.352 . S
Cd858 O866 2.277 . S
Cd858 O867 2.356 . S
C859 O864 1.209 . S
C859 O866 1.226 . S
O860 Cd856 2.273 . S
O860 Cd858 2.411 . S
O860 C863 1.320 . S
O861 Cd858 2.333 . S
O861 C863 1.214 . S
O862 Cd858 2.352 . S
O862 C865 1.258 . S
C863 O860 1.320 . S
C863 O861 1.214 . S
O864 Cd856 2.277 . S
O864 C859 1.209 . S
C865 O862 1.258 . S
C865 O867 1.282 . S
O866 Cd858 2.277 . S
O866 C859 1.226 . S
O867 Cd858 2.356 . S
O867 C865 1.282 . S
C868 O869 1.306 . S
C868 O871 1.160 . S
O869 C868 1.306 . S
O869 Cd870 2.228 . S
Cd870 O869 2.228 . S
Cd870 O874 2.273 . S
Cd870 O878 2.277 . S
O871 C868 1.160 . S
O871 Cd872 2.203 . S
Cd872 O871 2.203 . S
Cd872 O874 2.411 . S
Cd872 O875 2.333 . S
Cd872 O876 2.352 . S
Cd872 O880 2.277 . S
Cd872 O881 2.356 . S
C873 O878 1.209 . S
C873 O880 1.226 . S
O874 Cd870 2.273 . S
O874 Cd872 2.411 . S
O874 C877 1.320 . S
O875 Cd872 2.333 . S
O875 C877 1.214 . S
O876 Cd872 2.352 . S
O876 C879 1.258 . S
C877 O874 1.320 . S
C877 O875 1.214 . S
O878 Cd870 2.277 . S
O878 C873 1.209 . S
C879 O876 1.258 . S
C879 O881 1.282 . S
O880 Cd872 2.277 . S
O880 C873 1.226 . S
O881 Cd872 2.356 . S
O881 C879 1.282 . S
C882 O883 1.306 . S
C882 O885 1.160 . S
O883 C882 1.306 . S
O883 Cd884 2.228 . S
Cd884 O883 2.228 . S
Cd884 O888 2.273 . S
Cd884 O892 2.277 . S
O885 C882 1.160 . S
O885 Cd886 2.203 . S
Cd886 O885 2.203 . S
Cd886 O888 2.411 . S
Cd886 O889 2.333 . S
Cd886 O890 2.352 . S
Cd886 O894 2.277 . S
Cd886 O895 2.356 . S
C887 O892 1.209 . S
C887 O894 1.226 . S
O888 Cd884 2.273 . S
O888 Cd886 2.411 . S
O888 C891 1.320 . S
O889 Cd886 2.333 . S
O889 C891 1.214 . S
O890 Cd886 2.352 . S
O890 C893 1.258 . S
C891 O888 1.320 . S
C891 O889 1.214 . S
O892 Cd884 2.277 . S
O892 C887 1.209 . S
C893 O890 1.258 . S
C893 O895 1.282 . S
O894 Cd886 2.277 . S
O894 C887 1.226 . S
O895 Cd886 2.356 . S
O895 C893 1.282 . S
C896 O897 1.306 . S
C896 O899 1.160 . S
O897 C896 1.306 . S
O897 Cd898 2.228 . S
Cd898 O897 2.228 . S
Cd898 O902 2.273 . S
Cd898 O906 2.277 . S
O899 C896 1.160 . S
O899 Cd900 2.203 . S
Cd900 O899 2.203 . S
Cd900 O902 2.411 . S
Cd900 O903 2.333 . S
Cd900 O904 2.352 . S
Cd900 O908 2.277 . S
Cd900 O909 2.356 . S
C901 O906 1.209 . S
C901 O908 1.226 . S
O902 Cd898 2.273 . S
O902 Cd900 2.411 . S
O902 C905 1.320 . S
O903 Cd900 2.333 . S
O903 C905 1.214 . S
O904 Cd900 2.352 . S
O904 C907 1.258 . S
C905 O902 1.320 . S
C905 O903 1.214 . S
O906 Cd898 2.277 . S
O906 C901 1.209 . S
C907 O904 1.258 . S
C907 O909 1.282 . S
O908 Cd900 2.277 . S
O908 C901 1.226 . S
O909 Cd900 2.356 . S
O909 C907 1.282 . S
C910 O911 1.306 . S
C910 O913 1.160 . S
O911 C910 1.306 . S
O911 Cd912 2.228 . S
Cd912 O911 2.228 . S
Cd912 O916 2.273 . S
Cd912 O920 2.277 . S
O913 C910 1.160 . S
O913 Cd914 2.203 . S
Cd914 O913 2.203 . S
Cd914 O916 2.411 . S
Cd914 O917 2.333 . S
Cd914 O918 2.352 . S
Cd914 O922 2.277 . S
Cd914 O923 2.356 . S
C915 O920 1.209 . S
C915 O922 1.226 . S
O916 Cd912 2.273 . S
O916 Cd914 2.411 . S
O916 C919 1.320 . S
O917 Cd914 2.333 . S
O917 C919 1.214 . S
O918 Cd914 2.352 . S
O918 C921 1.258 . S
C919 O916 1.320 . S
C919 O917 1.214 . S
O920 Cd912 2.277 . S
O920 C915 1.209 . S
C921 O918 1.258 . S
C921 O923 1.282 . S
O922 Cd914 2.277 . S
O922 C915 1.226 . S
O923 Cd914 2.356 . S
O923 C921 1.282 . S
C924 O925 1.306 . S
C924 O927 1.160 . S
O925 C924 1.306 . S
O925 Cd926 2.228 . S
Cd926 O925 2.228 . S
Cd926 O930 2.273 . S
Cd926 O934 2.277 . S
O927 C924 1.160 . S
O927 Cd928 2.203 . S
Cd928 O927 2.203 . S
Cd928 O930 2.411 . S
Cd928 O931 2.333 . S
Cd928 O932 2.352 . S
Cd928 O936 2.277 . S
Cd928 O937 2.356 . S
C929 O934 1.209 . S
C929 O936 1.226 . S
O930 Cd926 2.273 . S
O930 Cd928 2.411 . S
O930 C933 1.320 . S
O931 Cd928 2.333 . S
O931 C933 1.214 . S
O932 Cd928 2.352 . S
O932 C935 1.258 . S
C933 O930 1.320 . S
C933 O931 1.214 . S
O934 Cd926 2.277 . S
O934 C929 1.209 . S
C935 O932 1.258 . S
C935 O937 1.282 . S
O936 Cd928 2.277 . S
O936 C929 1.226 . S
O937 Cd928 2.356 . S
O937 C935 1.282 . S
C938 O939 1.306 . S
C938 O941 1.160 . S
O939 C938 1.306 . S
O939 Cd940 2.228 . S
Cd940 O939 2.228 . S
Cd940 O944 2.273 1_554 S
Cd940 O948 2.277 . S
O941 C938 1.160 . S
O941 Cd942 2.203 1_554 S
Cd942 O941 2.203 1_556 S
Cd942 O944 2.411 . S
Cd942 O945 2.333 . S
Cd942 O946 2.352 . S
Cd942 O950 2.277 1_556 S
Cd942 O951 2.356 . S
C943 O948 1.209 . S
C943 O950 1.226 . S
O944 Cd940 2.273 1_556 S
O944 Cd942 2.411 . S
O944 C947 1.320 . S
O945 Cd942 2.333 . S
O945 C947 1.214 . S
O946 Cd942 2.352 . S
O946 C949 1.258 . S
C947 O944 1.320 . S
C947 O945 1.214 . S
O948 Cd940 2.277 . S
O948 C943 1.209 . S
C949 O946 1.258 . S
C949 O951 1.282 . S
O950 Cd942 2.277 1_554 S
O950 C943 1.226 . S
O951 Cd942 2.356 . S
O951 C949 1.282 . S
C952 O953 1.306 . S
C952 O955 1.160 . S
O953 C952 1.306 . S
O953 Cd954 2.228 . S
Cd954 O953 2.228 . S
Cd954 O958 2.273 . S
Cd954 O962 2.277 . S
O955 C952 1.160 . S
O955 Cd956 2.203 . S
Cd956 O955 2.203 . S
Cd956 O958 2.411 . S
Cd956 O959 2.333 . S
Cd956 O960 2.352 . S
Cd956 O964 2.277 . S
Cd956 O965 2.356 . S
C957 O962 1.209 . S
C957 O964 1.226 . S
O958 Cd954 2.273 . S
O958 Cd956 2.411 . S
O958 C961 1.320 . S
O959 Cd956 2.333 . S
O959 C961 1.214 . S
O960 Cd956 2.352 . S
O960 C963 1.258 . S
C961 O958 1.320 . S
C961 O959 1.214 . S
O962 Cd954 2.277 . S
O962 C957 1.209 . S
C963 O960 1.258 . S
C963 O965 1.282 . S
O964 Cd956 2.277 . S
O964 C957 1.226 . S
O965 Cd956 2.356 . S
O965 C963 1.282 . S
C966 O967 1.306 . S
C966 O969 1.160 . S
O967 C966 1.306 . S
O967 Cd968 2.228 . S
Cd968 O967 2.228 . S
Cd968 O972 2.273 1_556 S
Cd968 O976 2.277 . S
O969 C966 1.160 . S
O969 Cd970 2.203 1_556 S
Cd970 O969 2.203 1_554 S
Cd970 O972 2.411 . S
Cd970 O973 2.333 . S
Cd970 O974 2.352 . S
Cd970 O978 2.277 1_554 S
Cd970 O979 2.356 . S
C971 O976 1.209 . S
C971 O978 1.226 . S
O972 Cd968 2.273 1_554 S
O972 Cd970 2.411 . S
O972 C975 1.320 . S
O973 Cd970 2.333 . S
O973 C975 1.214 . S
O974 Cd970 2.352 . S
O974 C977 1.258 . S
C975 O972 1.320 . S
C975 O973 1.214 . S
O976 Cd968 2.277 . S
O976 C971 1.209 . S
C977 O974 1.258 . S
C977 O979 1.282 . S
O978 Cd970 2.277 1_556 S
O978 C971 1.226 . S
O979 Cd970 2.356 . S
O979 C977 1.282 . S
C980 O981 1.306 . S
C980 O983 1.160 . S
O981 C980 1.306 . S
O981 Cd982 2.228 . S
Cd982 O981 2.228 . S
Cd982 O986 2.273 . S
Cd982 O990 2.277 . S
O983 C980 1.160 . S
O983 Cd984 2.203 . S
Cd984 O983 2.203 . S
Cd984 O986 2.411 . S
Cd984 O987 2.333 . S
Cd984 O988 2.352 . S
Cd984 O992 2.277 . S
Cd984 O993 2.356 . S
C985 O990 1.209 . S
C985 O992 1.226 . S
O986 Cd982 2.273 . S
O986 Cd984 2.411 . S
O986 C989 1.320 . S
O987 Cd984 2.333 . S
O987 C989 1.214 . S
O988 Cd984 2.352 . S
O988 C991 1.258 . S
C989 O986 1.320 . S
C989 O987 1.214 . S
O990 Cd982 2.277 . S
O990 C985 1.209 . S
C991 O988 1.258 . S
C991 O993 1.282 . S
O992 Cd984 2.277 . S
O992 C985 1.226 . S
O993 Cd984 2.356 . S
O993 C991 1.282 . S
C994 O995 1.306 . S
C994 O997 1.160 . S
O995 C994 1.306 . S
O995 Cd996 2.228 . S
Cd996 O995 2.228 . S
Cd996 O1000 2.273 . S
Cd996 O1004 2.277 . S
O997 C994 1.160 . S
O997 Cd998 2.203 . S
Cd998 O997 2.203 . S
Cd998 O1000 2.411 . S
Cd998 O1001 2.333 . S
Cd998 O1002 2.352 . S
Cd998 O1006 2.277 . S
Cd998 O1007 2.356 . S
C999 O1004 1.209 . S
C999 O1006 1.226 . S
O1000 Cd996 2.273 . S
O1000 Cd998 2.411 . S
O1000 C1003 1.320 . S
O1001 Cd998 2.333 . S
O1001 C1003 1.214 . S
O1002 Cd998 2.352 . S
O1002 C1005 1.258 . S
C1003 O1000 1.320 . S
C1003 O1001 1.214 . S
O1004 Cd996 2.277 . S
O1004 C999 1.209 . S
C1005 O1002 1.258 . S
C1005 O1007 1.282 . S
O1006 Cd998 2.277 . S
O1006 C999 1.226 . S
O1007 Cd998 2.356 . S
O1007 C1005 1.282 . S
C1008 O1009 1.306 . S
C1008 O1011 1.160 . S
O1009 C1008 1.306 . S
O1009 Cd1010 2.228 . S
Cd1010 O1009 2.228 . S
Cd1010 O1014 2.273 . S
Cd1010 O1018 2.277 . S
O1011 C1008 1.160 . S
O1011 Cd1012 2.203 . S
Cd1012 O1011 2.203 . S
Cd1012 O1014 2.411 . S
Cd1012 O1015 2.333 . S
Cd1012 O1016 2.352 . S
Cd1012 O1020 2.277 . S
Cd1012 O1021 2.356 . S
C1013 O1018 1.209 . S
C1013 O1020 1.226 . S
O1014 Cd1010 2.273 . S
O1014 Cd1012 2.411 . S
O1014 C1017 1.320 . S
O1015 Cd1012 2.333 . S
O1015 C1017 1.214 . S
O1016 Cd1012 2.352 . S
O1016 C1019 1.258 . S
C1017 O1014 1.320 . S
C1017 O1015 1.214 . S
O1018 Cd1010 2.277 . S
O1018 C1013 1.209 . S
C1019 O1016 1.258 . S
C1019 O1021 1.282 . S
O1020 Cd1012 2.277 . S
O1020 C1013 1.226 . S
O1021 Cd1012 2.356 . S
O1021 C1019 1.282 . S
C1022 O1023 1.306 . S
C1022 O1025 1.160 . S
O1023 C1022 1.306 . S
O1023 Cd1024 2.228 . S
Cd1024 O1023 2.228 . S
Cd1024 O1028 2.273 . S
Cd1024 O1032 2.277 . S
O1025 C1022 1.160 . S
O1025 Cd1026 2.203 . S
Cd1026 O1025 2.203 . S
Cd1026 O1028 2.411 . S
Cd1026 O1029 2.333 . S
Cd1026 O1030 2.352 . S
Cd1026 O1034 2.277 . S
Cd1026 O1035 2.356 . S
C1027 O1032 1.209 . S
C1027 O1034 1.226 . S
O1028 Cd1024 2.273 . S
O1028 Cd1026 2.411 . S
O1028 C1031 1.320 . S
O1029 Cd1026 2.333 . S
O1029 C1031 1.214 . S
O1030 Cd1026 2.352 . S
O1030 C1033 1.258 . S
C1031 O1028 1.320 . S
C1031 O1029 1.214 . S
O1032 Cd1024 2.277 . S
O1032 C1027 1.209 . S
C1033 O1030 1.258 . S
C1033 O1035 1.282 . S
O1034 Cd1026 2.277 . S
O1034 C1027 1.226 . S
O1035 Cd1026 2.356 . S
O1035 C1033 1.282 . S
C1036 O1037 1.306 . S
C1036 O1039 1.160 . S
O1037 C1036 1.306 . S
O1037 Cd1038 2.228 . S
Cd1038 O1037 2.228 . S
Cd1038 O1042 2.273 1_455 S
Cd1038 O1046 2.277 . S
O1039 C1036 1.160 . S
O1039 Cd1040 2.203 1_455 S
Cd1040 O1039 2.203 1_655 S
Cd1040 O1042 2.411 . S
Cd1040 O1043 2.333 . S
Cd1040 O1044 2.352 . S
Cd1040 O1048 2.277 1_655 S
Cd1040 O1049 2.356 . S
C1041 O1046 1.209 . S
C1041 O1048 1.226 . S
O1042 Cd1038 2.273 1_655 S
O1042 Cd1040 2.411 . S
O1042 C1045 1.320 . S
O1043 Cd1040 2.333 . S
O1043 C1045 1.214 . S
O1044 Cd1040 2.352 . S
O1044 C1047 1.258 . S
C1045 O1042 1.320 . S
C1045 O1043 1.214 . S
O1046 Cd1038 2.277 . S
O1046 C1041 1.209 . S
C1047 O1044 1.258 . S
C1047 O1049 1.282 . S
O1048 Cd1040 2.277 1_455 S
O1048 C1041 1.226 . S
O1049 Cd1040 2.356 . S
O1049 C1047 1.282 . S
C1050 O1051 1.306 . S
C1050 O1053 1.160 . S
O1051 C1050 1.306 . S
O1051 Cd1052 2.228 . S
Cd1052 O1051 2.228 . S
Cd1052 O1056 2.273 . S
Cd1052 O1060 2.277 . S
O1053 C1050 1.160 . S
O1053 Cd1054 2.203 . S
Cd1054 O1053 2.203 . S
Cd1054 O1056 2.411 . S
Cd1054 O1057 2.333 . S
Cd1054 O1058 2.352 . S
Cd1054 O1062 2.277 . S
Cd1054 O1063 2.356 . S
C1055 O1060 1.209 . S
C1055 O1062 1.226 . S
O1056 Cd1052 2.273 . S
O1056 Cd1054 2.411 . S
O1056 C1059 1.320 . S
O1057 Cd1054 2.333 . S
O1057 C1059 1.214 . S
O1058 Cd1054 2.352 . S
O1058 C1061 1.258 . S
C1059 O1056 1.320 . S
C1059 O1057 1.214 . S
O1060 Cd1052 2.277 . S
O1060 C1055 1.209 . S
C1061 O1058 1.258 . S
C1061 O1063 1.282 . S
O1062 Cd1054 2.277 . S
O1062 C1055 1.226 . S
O1063 Cd1054 2.356 . S
O1063 C1061 1.282 . S
C1064 O1065 1.306 . S
C1064 O1067 1.160 . S
O1065 C1064 1.306 . S
O1065 Cd1066 2.228 . S
Cd1066 O1065 2.228 . S
Cd1066 O1070 2.273 . S
Cd1066 O1074 2.277 . S
O1067 C1064 1.160 . S
O1067 Cd1068 2.203 . S
Cd1068 O1067 2.203 . S
Cd1068 O1070 2.411 . S
Cd1068 O1071 2.333 . S
Cd1068 O1072 2.352 . S
Cd1068 O1076 2.277 . S
Cd1068 O1077 2.356 . S
C1069 O1074 1.209 . S
C1069 O1076 1.226 . S
O1070 Cd1066 2.273 . S
O1070 Cd1068 2.411 . S
O1070 C1073 1.320 . S
O1071 Cd1068 2.333 . S
O1071 C1073 1.214 . S
O1072 Cd1068 2.352 . S
O1072 C1075 1.258 . S
C1073 O1070 1.320 . S
C1073 O1071 1.214 . S
O1074 Cd1066 2.277 . S
O1074 C1069 1.209 . S
C1075 O1072 1.258 . S
C1075 O1077 1.282 . S
O1076 Cd1068 2.277 . S
O1076 C1069 1.226 . S
O1077 Cd1068 2.356 . S
O1077 C1075 1.282 . S
C1078 O1079 1.306 . S
C1078 O1081 1.160 . S
O1079 C1078 1.306 . S
O1079 Cd1080 2.228 . S
Cd1080 O1079 2.228 . S
Cd1080 O1084 2.273 . S
Cd1080 O1088 2.277 . S
O1081 C1078 1.160 . S
O1081 Cd1082 2.203 . S
Cd1082 O1081 2.203 . S
Cd1082 O1084 2.411 . S
Cd1082 O1085 2.333 . S
Cd1082 O1086 2.352 . S
Cd1082 O1090 2.277 . S
Cd1082 O1091 2.356 . S
C1083 O1088 1.209 . S
C1083 O1090 1.226 . S
O1084 Cd1080 2.273 . S
O1084 Cd1082 2.411 . S
O1084 C1087 1.320 . S
O1085 Cd1082 2.333 . S
O1085 C1087 1.214 . S
O1086 Cd1082 2.352 . S
O1086 C1089 1.258 . S
C1087 O1084 1.320 . S
C1087 O1085 1.214 . S
O1088 Cd1080 2.277 . S
O1088 C1083 1.209 . S
C1089 O1086 1.258 . S
C1089 O1091 1.282 . S
O1090 Cd1082 2.277 . S
O1090 C1083 1.226 . S
O1091 Cd1082 2.356 . S
O1091 C1089 1.282 . S
C1092 O1093 1.306 . S
C1092 O1095 1.160 . S
O1093 C1092 1.306 . S
O1093 Cd1094 2.228 . S
Cd1094 O1093 2.228 . S
Cd1094 O1098 2.273 1_455 S
Cd1094 O1102 2.277 . S
O1095 C1092 1.160 . S
O1095 Cd1096 2.203 1_455 S
Cd1096 O1095 2.203 1_655 S
Cd1096 O1098 2.411 . S
Cd1096 O1099 2.333 . S
Cd1096 O1100 2.352 . S
Cd1096 O1104 2.277 1_655 S
Cd1096 O1105 2.356 . S
C1097 O1102 1.209 . S
C1097 O1104 1.226 . S
O1098 Cd1094 2.273 1_655 S
O1098 Cd1096 2.411 . S
O1098 C1101 1.320 . S
O1099 Cd1096 2.333 . S
O1099 C1101 1.214 . S
O1100 Cd1096 2.352 . S
O1100 C1103 1.258 . S
C1101 O1098 1.320 . S
C1101 O1099 1.214 . S
O1102 Cd1094 2.277 . S
O1102 C1097 1.209 . S
C1103 O1100 1.258 . S
C1103 O1105 1.282 . S
O1104 Cd1096 2.277 1_455 S
O1104 C1097 1.226 . S
O1105 Cd1096 2.356 . S
O1105 C1103 1.282 . S
C1106 O1107 1.306 . S
C1106 O1109 1.160 . S
O1107 C1106 1.306 . S
O1107 Cd1108 2.228 . S
Cd1108 O1107 2.228 . S
Cd1108 O1112 2.273 . S
Cd1108 O1116 2.277 . S
O1109 C1106 1.160 . S
O1109 Cd1110 2.203 . S
Cd1110 O1109 2.203 . S
Cd1110 O1112 2.411 . S
Cd1110 O1113 2.333 . S
Cd1110 O1114 2.352 . S
Cd1110 O1118 2.277 . S
Cd1110 O1119 2.356 . S
C1111 O1116 1.209 . S
C1111 O1118 1.226 . S
O1112 Cd1108 2.273 . S
O1112 Cd1110 2.411 . S
O1112 C1115 1.320 . S
O1113 Cd1110 2.333 . S
O1113 C1115 1.214 . S
O1114 Cd1110 2.352 . S
O1114 C1117 1.258 . S
C1115 O1112 1.320 . S
C1115 O1113 1.214 . S
O1116 Cd1108 2.277 . S
O1116 C1111 1.209 . S
C1117 O1114 1.258 . S
C1117 O1119 1.282 . S
O1118 Cd1110 2.277 . S
O1118 C1111 1.226 . S
O1119 Cd1110 2.356 . S
O1119 C1117 1.282 . S
C1120 O1121 1.306 . S
C1120 O1123 1.160 . S
O1121 C1120 1.306 . S
O1121 Cd1122 2.228 . S
Cd1122 O1121 2.228 . S
Cd1122 O1126 2.273 . S
Cd1122 O1130 2.277 . S
O1123 C1120 1.160 . S
O1123 Cd1124 2.203 . S
Cd1124 O1123 2.203 . S
Cd1124 O1126 2.411 . S
Cd1124 O1127 2.333 . S
Cd1124 O1128 2.352 . S
Cd1124 O1132 2.277 . S
Cd1124 O1133 2.356 . S
C1125 O1130 1.209 . S
C1125 O1132 1.226 . S
O1126 Cd1122 2.273 . S
O1126 Cd1124 2.411 . S
O1126 C1129 1.320 . S
O1127 Cd1124 2.333 . S
O1127 C1129 1.214 . S
O1128 Cd1124 2.352 . S
O1128 C1131 1.258 . S
C1129 O1126 1.320 . S
C1129 O1127 1.214 . S
O1130 Cd1122 2.277 . S
O1130 C1125 1.209 . S
C1131 O1128 1.258 . S
C1131 O1133 1.282 . S
O1132 Cd1124 2.277 . S
O1132 C1125 1.226 . S
O1133 Cd1124 2.356 . S
O1133 C1131 1.282 . S
C1134 O1135 1.306 . S
C1134 O1137 1.160 . S
O1135 C1134 1.306 . S
O1135 Cd1136 2.228 . S
Cd1136 O1135 2.228 . S
Cd1136 O1140 2.273 . S
Cd1136 O1144 2.277 . S
O1137 C1134 1.160 . S
O1137 Cd1138 2.203 . S
Cd1138 O1137 2.203 . S
Cd1138 O1140 2.411 . S
Cd1138 O1141 2.333 . S
Cd1138 O1142 2.352 . S
Cd1138 O1146 2.277 . S
Cd1138 O1147 2.356 . S
C1139 O1144 1.209 . S
C1139 O1146 1.226 . S
O1140 Cd1136 2.273 . S
O1140 Cd1138 2.411 . S
O1140 C1143 1.320 . S
O1141 Cd1138 2.333 . S
O1141 C1143 1.214 . S
O1142 Cd1138 2.352 . S
O1142 C1145 1.258 . S
C1143 O1140 1.320 . S
C1143 O1141 1.214 . S
O1144 Cd1136 2.277 . S
O1144 C1139 1.209 . S
C1145 O1142 1.258 . S
C1145 O1147 1.282 . S
O1146 Cd1138 2.277 . S
O1146 C1139 1.226 . S
O1147 Cd1138 2.356 . S
O1147 C1145 1.282 . S
C1148 O1149 1.306 . S
C1148 O1151 1.160 . S
O1149 C1148 1.306 . S
O1149 Cd1150 2.228 . S
Cd1150 O1149 2.228 . S
Cd1150 O1154 2.273 . S
Cd1150 O1158 2.277 . S
O1151 C1148 1.160 . S
O1151 Cd1152 2.203 . S
Cd1152 O1151 2.203 . S
Cd1152 O1154 2.411 . S
Cd1152 O1155 2.333 . S
Cd1152 O1156 2.352 . S
Cd1152 O1160 2.277 . S
Cd1152 O1161 2.356 . S
C1153 O1158 1.209 . S
C1153 O1160 1.226 . S
O1154 Cd1150 2.273 . S
O1154 Cd1152 2.411 . S
O1154 C1157 1.320 . S
O1155 Cd1152 2.333 . S
O1155 C1157 1.214 . S
O1156 Cd1152 2.352 . S
O1156 C1159 1.258 . S
C1157 O1154 1.320 . S
C1157 O1155 1.214 . S
O1158 Cd1150 2.277 . S
O1158 C1153 1.209 . S
C1159 O1156 1.258 . S
C1159 O1161 1.282 . S
O1160 Cd1152 2.277 . S
O1160 C1153 1.226 . S
O1161 Cd1152 2.356 . S
O1161 C1159 1.282 . S
C1162 O1163 1.306 . S
C1162 O1165 1.160 . S
O1163 C1162 1.306 . S
O1163 Cd1164 2.228 . S
Cd1164 O1163 2.228 . S
Cd1164 O1168 2.273 . S
Cd1164 O1172 2.277 . S
O1165 C1162 1.160 . S
O1165 Cd1166 2.203 . S
Cd1166 O1165 2.203 . S
Cd1166 O1168 2.411 . S
Cd1166 O1169 2.333 . S
Cd1166 O1170 2.352 . S
Cd1166 O1174 2.277 . S
Cd1166 O1175 2.356 . S
C1167 O1172 1.209 . S
C1167 O1174 1.226 . S
O1168 Cd1164 2.273 . S
O1168 Cd1166 2.411 . S
O1168 C1171 1.320 . S
O1169 Cd1166 2.333 . S
O1169 C1171 1.214 . S
O1170 Cd1166 2.352 . S
O1170 C1173 1.258 . S
C1171 O1168 1.320 . S
C1171 O1169 1.214 . S
O1172 Cd1164 2.277 . S
O1172 C1167 1.209 . S
C1173 O1170 1.258 . S
C1173 O1175 1.282 . S
O1174 Cd1166 2.277 . S
O1174 C1167 1.226 . S
O1175 Cd1166 2.356 . S
O1175 C1173 1.282 . S
C1176 O1177 1.306 . S
C1176 O1179 1.160 . S
O1177 C1176 1.306 . S
O1177 Cd1178 2.228 . S
Cd1178 O1177 2.228 . S
Cd1178 O1182 2.273 . S
Cd1178 O1186 2.277 . S
O1179 C1176 1.160 . S
O1179 Cd1180 2.203 . S
Cd1180 O1179 2.203 . S
Cd1180 O1182 2.411 . S
Cd1180 O1183 2.333 . S
Cd1180 O1184 2.352 . S
Cd1180 O1188 2.277 . S
Cd1180 O1189 2.356 . S
C1181 O1186 1.209 . S
C1181 O1188 1.226 . S
O1182 Cd1178 2.273 . S
O1182 Cd1180 2.411 . S
O1182 C1185 1.320 . S
O1183 Cd1180 2.333 . S
O1183 C1185 1.214 . S
O1184 Cd1180 2.352 . S
O1184 C1187 1.258 . S
C1185 O1182 1.320 . S
C1185 O1183 1.214 . S
O1186 Cd1178 2.277 . S
O1186 C1181 1.209 . S
C1187 O1184 1.258 . S
C1187 O1189 1.282 . S
O1188 Cd1180 2.277 . S
O1188 C1181 1.226 . S
O1189 Cd1180 2.356 . S
O1189 C1187 1.282 . S
C1190 O1191 1.306 . S
C1190 O1193 1.160 . S
O1191 C1190 1.306 . S
O1191 Cd1192 2.228 . S
Cd1192 O1191 2.228 . S
Cd1192 O1196 2.273 . S
Cd1192 O1200 2.277 . S
O1193 C1190 1.160 . S
O1193 Cd1194 2.203 . S
Cd1194 O1193 2.203 . S
Cd1194 O1196 2.411 . S
Cd1194 O1197 2.333 . S
Cd1194 O1198 2.352 . S
Cd1194 O1202 2.277 . S
Cd1194 O1203 2.356 . S
C1195 O1200 1.209 . S
C1195 O1202 1.226 . S
O1196 Cd1192 2.273 . S
O1196 Cd1194 2.411 . S
O1196 C1199 1.320 . S
O1197 Cd1194 2.333 . S
O1197 C1199 1.214 . S
O1198 Cd1194 2.352 . S
O1198 C1201 1.258 . S
C1199 O1196 1.320 . S
C1199 O1197 1.214 . S
O1200 Cd1192 2.277 . S
O1200 C1195 1.209 . S
C1201 O1198 1.258 . S
C1201 O1203 1.282 . S
O1202 Cd1194 2.277 . S
O1202 C1195 1.226 . S
O1203 Cd1194 2.356 . S
O1203 C1201 1.282 . S
C1204 O1205 1.306 . S
C1204 O1207 1.160 . S
O1205 C1204 1.306 . S
O1205 Cd1206 2.228 . S
Cd1206 O1205 2.228 . S
Cd1206 O1210 2.273 . S
Cd1206 O1214 2.277 . S
O1207 C1204 1.160 . S
O1207 Cd1208 2.203 . S
Cd1208 O1207 2.203 . S
Cd1208 O1210 2.411 . S
Cd1208 O1211 2.333 . S
Cd1208 O1212 2.352 . S
Cd1208 O1216 2.277 . S
Cd1208 O1217 2.356 . S
C1209 O1214 1.209 . S
C1209 O1216 1.226 . S
O1210 Cd1206 2.273 . S
O1210 Cd1208 2.411 . S
O1210 C1213 1.320 . S
O1211 Cd1208 2.333 . S
O1211 C1213 1.214 . S
O1212 Cd1208 2.352 . S
O1212 C1215 1.258 . S
C1213 O1210 1.320 . S
C1213 O1211 1.214 . S
O1214 Cd1206 2.277 . S
O1214 C1209 1.209 . S
C1215 O1212 1.258 . S
C1215 O1217 1.282 . S
O1216 Cd1208 2.277 . S
O1216 C1209 1.226 . S
O1217 Cd1208 2.356 . S
O1217 C1215 1.282 . S
C1218 O1219 1.306 . S
C1218 O1221 1.160 . S
O1219 C1218 1.306 . S
O1219 Cd1220 2.228 . S
Cd1220 O1219 2.228 . S
Cd1220 O1224 2.273 . S
Cd1220 O1228 2.277 . S
O1221 C1218 1.160 . S
O1221 Cd1222 2.203 . S
Cd1222 O1221 2.203 . S
Cd1222 O1224 2.411 . S
Cd1222 O1225 2.333 . S
Cd1222 O1226 2.352 . S
Cd1222 O1230 2.277 . S
Cd1222 O1231 2.356 . S
C1223 O1228 1.209 . S
C1223 O1230 1.226 . S
O1224 Cd1220 2.273 . S
O1224 Cd1222 2.411 . S
O1224 C1227 1.320 . S
O1225 Cd1222 2.333 . S
O1225 C1227 1.214 . S
O1226 Cd1222 2.352 . S
O1226 C1229 1.258 . S
C1227 O1224 1.320 . S
C1227 O1225 1.214 . S
O1228 Cd1220 2.277 . S
O1228 C1223 1.209 . S
C1229 O1226 1.258 . S
C1229 O1231 1.282 . S
O1230 Cd1222 2.277 . S
O1230 C1223 1.226 . S
O1231 Cd1222 2.356 . S
O1231 C1229 1.282 . S
C1232 O1233 1.306 . S
C1232 O1235 1.160 . S
O1233 C1232 1.306 . S
O1233 Cd1234 2.228 . S
Cd1234 O1233 2.228 . S
Cd1234 O1238 2.273 . S
Cd1234 O1242 2.277 . S
O1235 C1232 1.160 . S
O1235 Cd1236 2.203 . S
Cd1236 O1235 2.203 . S
Cd1236 O1238 2.411 . S
Cd1236 O1239 2.333 . S
Cd1236 O1240 2.352 . S
Cd1236 O1244 2.277 . S
Cd1236 O1245 2.356 . S
C1237 O1242 1.209 . S
C1237 O1244 1.226 . S
O1238 Cd1234 2.273 . S
O1238 Cd1236 2.411 . S
O1238 C1241 1.320 . S
O1239 Cd1236 2.333 . S
O1239 C1241 1.214 . S
O1240 Cd1236 2.352 . S
O1240 C1243 1.258 . S
C1241 O1238 1.320 . S
C1241 O1239 1.214 . S
O1242 Cd1234 2.277 . S
O1242 C1237 1.209 . S
C1243 O1240 1.258 . S
C1243 O1245 1.282 . S
O1244 Cd1236 2.277 . S
O1244 C1237 1.226 . S
O1245 Cd1236 2.356 . S
O1245 C1243 1.282 . S
C1246 O1247 1.306 . S
C1246 O1249 1.160 . S
O1247 C1246 1.306 . S
O1247 Cd1248 2.228 . S
Cd1248 O1247 2.228 . S
Cd1248 O1252 2.273 . S
Cd1248 O1256 2.277 . S
O1249 C1246 1.160 . S
O1249 Cd1250 2.203 . S
Cd1250 O1249 2.203 . S
Cd1250 O1252 2.411 . S
Cd1250 O1253 2.333 . S
Cd1250 O1254 2.352 . S
Cd1250 O1258 2.277 . S
Cd1250 O1259 2.356 . S
C1251 O1256 1.209 . S
C1251 O1258 1.226 . S
O1252 Cd1248 2.273 . S
O1252 Cd1250 2.411 . S
O1252 C1255 1.320 . S
O1253 Cd1250 2.333 . S
O1253 C1255 1.214 . S
O1254 Cd1250 2.352 . S
O1254 C1257 1.258 . S
C1255 O1252 1.320 . S
C1255 O1253 1.214 . S
O1256 Cd1248 2.277 . S
O1256 C1251 1.209 . S
C1257 O1254 1.258 . S
C1257 O1259 1.282 . S
O1258 Cd1250 2.277 . S
O1258 C1251 1.226 . S
O1259 Cd1250 2.356 . S
O1259 C1257 1.282 . S
C1260 O1261 1.306 . S
C1260 O1263 1.160 . S
O1261 C1260 1.306 . S
O1261 Cd1262 2.228 . S
Cd1262 O1261 2.228 . S
Cd1262 O1266 2.273 . S
Cd1262 O1270 2.277 . S
O1263 C1260 1.160 . S
O1263 Cd1264 2.203 . S
Cd1264 O1263 2.203 . S
Cd1264 O1266 2.411 . S
Cd1264 O1267 2.333 . S
Cd1264 O1268 2.352 . S
Cd1264 O1272 2.277 . S
Cd1264 O1273 2.356 . S
C1265 O1270 1.209 . S
C1265 O1272 1.226 . S
O1266 Cd1262 2.273 . S
O1266 Cd1264 2.411 . S
O1266 C1269 1.320 . S
O1267 Cd1264 2.333 . S
O1267 C1269 1.214 . S
O1268 Cd1264 2.352 . S
O1268 C1271 1.258 . S
C1269 O1266 1.320 . S
C1269 O1267 1.214 . S
O1270 Cd1262 2.277 . S
O1270 C1265 1.209 . S
C1271 O1268 1.258 . S
C1271 O1273 1.282 . S
O1272 Cd1264 2.277 . S
O1272 C1265 1.226 . S
O1273 Cd1264 2.356 . S
O1273 C1271 1.282 . S
C1274 O1275 1.306 . S
C1274 O1277 1.160 . S
O1275 C1274 1.306 . S
O1275 Cd1276 2.228 . S
Cd1276 O1275 2.228 . S
Cd1276 O1280 2.273 1_554 S
Cd1276 O1284 2.277 . S
O1277 C1274 1.160 . S
O1277 Cd1278 2.191 1_554 S
Cd1278 O1277 2.191 1_556 S
Cd1278 O1280 2.420 . S
Cd1278 O1281 2.346 . S
Cd1278 O1282 2.363 . S
Cd1278 O1286 2.264 1_556 S
Cd1278 O1287 2.361 . S
C1279 O1284 1.209 . S
C1279 O1286 1.226 . S
O1280 Cd1276 2.273 1_556 S
O1280 Cd1278 2.420 . S
O1280 C1283 1.320 . S
O1281 Cd1278 2.346 . S
O1281 C1283 1.214 . S
O1282 Cd1278 2.363 . S
O1282 C1285 1.258 . S
C1283 O1280 1.320 . S
C1283 O1281 1.214 . S
O1284 Cd1276 2.277 . S
O1284 C1279 1.209 . S
C1285 O1282 1.258 . S
C1285 O1287 1.282 . S
O1286 Cd1278 2.264 1_554 S
O1286 C1279 1.226 . S
O1287 Cd1278 2.361 . S
O1287 C1285 1.282 . S
C1288 O1289 1.306 . S
C1288 O1291 1.160 . S
O1289 C1288 1.306 . S
O1289 Cd1290 2.228 . S
Cd1290 O1289 2.228 . S
Cd1290 O1294 2.273 . S
Cd1290 O1298 2.277 . S
O1291 C1288 1.160 . S
O1291 Cd1292 2.203 . S
Cd1292 O1291 2.203 . S
Cd1292 O1294 2.411 . S
Cd1292 O1295 2.333 . S
Cd1292 O1296 2.352 . S
Cd1292 O1300 2.277 . S
Cd1292 O1301 2.356 . S
C1293 O1298 1.209 . S
C1293 O1300 1.226 . S
O1294 Cd1290 2.273 . S
O1294 Cd1292 2.411 . S
O1294 C1297 1.320 . S
O1295 Cd1292 2.333 . S
O1295 C1297 1.214 . S
O1296 Cd1292 2.352 . S
O1296 C1299 1.258 . S
C1297 O1294 1.320 . S
C1297 O1295 1.214 . S
O1298 Cd1290 2.277 . S
O1298 C1293 1.209 . S
C1299 O1296 1.258 . S
C1299 O1301 1.282 . S
O1300 Cd1292 2.277 . S
O1300 C1293 1.226 . S
O1301 Cd1292 2.356 . S
O1301 C1299 1.282 . S
C1302 O1303 1.306 . S
C1302 O1305 1.160 . S
O1303 C1302 1.306 . S
O1303 Cd1304 2.228 . S
Cd1304 O1303 2.228 . S
Cd1304 O1308 2.273 1_556 S
Cd1304 O1312 2.277 . S
O1305 C1302 1.160 . S
O1305 Cd1306 2.203 1_556 S
Cd1306 O1305 2.203 1_554 S
Cd1306 O1308 2.411 . S
Cd1306 O1309 2.333 . S
Cd1306 O1310 2.352 . S
Cd1306 O1314 2.277 1_554 S
Cd1306 O1315 2.356 . S
C1307 O1312 1.209 . S
C1307 O1314 1.226 . S
O1308 Cd1304 2.273 1_554 S
O1308 Cd1306 2.411 . S
O1308 C1311 1.320 . S
O1309 Cd1306 2.333 . S
O1309 C1311 1.214 . S
O1310 Cd1306 2.352 . S
O1310 C1313 1.258 . S
C1311 O1308 1.320 . S
C1311 O1309 1.214 . S
O1312 Cd1304 2.277 . S
O1312 C1307 1.209 . S
C1313 O1310 1.258 . S
C1313 O1315 1.282 . S
O1314 Cd1306 2.277 1_556 S
O1314 C1307 1.226 . S
O1315 Cd1306 2.356 . S
O1315 C1313 1.282 . S
C1316 O1317 1.306 . S
C1316 O1319 1.160 . S
O1317 C1316 1.306 . S
O1317 Cd1318 2.228 . S
Cd1318 O1317 2.228 . S
Cd1318 O1322 2.273 . S
Cd1318 O1326 2.277 . S
O1319 C1316 1.160 . S
O1319 Cd1320 2.203 . S
Cd1320 O1319 2.203 . S
Cd1320 O1322 2.411 . S
Cd1320 O1323 2.333 . S
Cd1320 O1324 2.352 . S
Cd1320 O1328 2.277 . S
Cd1320 O1329 2.356 . S
C1321 O1326 1.209 . S
C1321 O1328 1.226 . S
O1322 Cd1318 2.273 . S
O1322 Cd1320 2.411 . S
O1322 C1325 1.320 . S
O1323 Cd1320 2.333 . S
O1323 C1325 1.214 . S
O1324 Cd1320 2.352 . S
O1324 C1327 1.258 . S
C1325 O1322 1.320 . S
C1325 O1323 1.214 . S
O1326 Cd1318 2.277 . S
O1326 C1321 1.209 . S
C1327 O1324 1.258 . S
C1327 O1329 1.282 . S
O1328 Cd1320 2.277 . S
O1328 C1321 1.226 . S
O1329 Cd1320 2.356 . S
O1329 C1327 1.282 . S
C1330 O1331 1.306 . S
C1330 O1333 1.160 . S
O1331 C1330 1.306 . S
O1331 Cd1332 2.228 . S
Cd1332 O1331 2.228 . S
Cd1332 O1336 2.273 . S
Cd1332 O1340 2.277 . S
O1333 C1330 1.160 . S
O1333 Cd1334 2.203 . S
Cd1334 O1333 2.203 . S
Cd1334 O1336 2.411 . S
Cd1334 O1337 2.333 . S
Cd1334 O1338 2.352 . S
Cd1334 O1342 2.277 . S
Cd1334 O1343 2.356 . S
C1335 O1340 1.209 . S
C1335 O1342 1.226 . S
O1336 Cd1332 2.273 . S
O1336 Cd1334 2.411 . S
O1336 C1339 1.320 . S
O1337 Cd1334 2.333 . S
O1337 C1339 1.214 . S
O1338 Cd1334 2.352 . S
O1338 C1341 1.258 . S
C1339 O1336 1.320 . S
C1339 O1337 1.214 . S
O1340 Cd1332 2.277 . S
O1340 C1335 1.209 . S
C1341 O1338 1.258 . S
C1341 O1343 1.282 . S
O1342 Cd1334 2.277 . S
O1342 C1335 1.226 . S
O1343 Cd1334 2.356 . S
O1343 C1341 1.282 . S
C5 C1059 1.480 . S
C345 C23 1.531 . S
C1031 C33 1.507 . S
C373 C51 1.530 . S
C61 C1087 1.480 . S
C79 C429 1.530 . S
C1115 C89 1.507 . S
C107 C401 1.531 . S
C117 C1269 1.535 . S
C611 C131 1.515 . S
C145 C625 1.531 . S
C159 C583 1.501 . S
C173 C1325 1.535 . S
C187 C1241 1.501 . S
C201 C1339 1.531 . S
C215 C1311 1.514 . S
C1143 C233 1.529 . S
C247 C555 1.531 . S
C257 C1185 1.531 . S
C527 C275 1.528 . S
C285 C541 1.531 . S
C1171 C303 1.531 . S
C313 C1129 1.531 . S
C1157 C327 1.531 . S
C719 C341 1.472 . S
C9 C355 1.407 . S
C369 C691 1.479 . S
C383 C37 1.403 . S
C397 C747 1.472 . S
C93 C411 1.403 . S
C425 C775 1.479 . S
C439 C65 1.407 . S
C453 C933 1.507 . S
C271 C467 1.483 . S
C481 C289 1.512 . S
C243 C495 1.478 . S
C509 C989 1.506 . S
C523 C901 1.477 . S
C537 C1003 1.512 . S
C971 C551 1.483 . S
C807 C565 1.399 . S
C219 C579 1.407 . S
C849 C593 1.505 . S
C607 C191 1.399 . S
C621 C205 1.506 . S
C635 C835 1.407 . S
C793 C649 1.505 . S
C663 C821 1.506 . S
C387 C677 1.508 . S
C1017 C695 1.530 . S
C705 C359 1.480 . S
C1045 C723 1.531 . S
C733 C415 1.508 . S
C1101 C751 1.531 . S
C761 C443 1.480 . S
C1073 C779 1.530 . S
C597 C789 1.533 . S
C803 C1283 1.501 . S
C1297 C817 1.535 . S
C831 C1255 1.514 . S
C653 C845 1.533 . S
C859 C569 1.514 . S
C667 C873 1.535 . S
C639 C887 1.501 . S
C471 C905 1.531 . S
C1227 C919 1.528 . S
C929 C513 1.531 . S
C947 C1199 1.531 . S
C1213 C957 1.531 . S
C499 C975 1.528 . S
C457 C985 1.531 . S
C485 C999 1.531 . S
C1013 C47 1.479 . S
C1027 C681 1.403 . S
C1041 C19 1.471 . S
C1055 C709 1.408 . S
C75 C1069 1.479 . S
C765 C1083 1.408 . S
C103 C1097 1.472 . S
C737 C1111 1.403 . S
C1125 C261 1.512 . S
C943 C1139 1.477 . S
C1153 C961 1.506 . S
C1167 C915 1.484 . S
C317 C1181 1.512 . S
C229 C1195 1.484 . S
C1209 C331 1.506 . S
C299 C1223 1.477 . S
C1237 C135 1.407 . S
C1251 C891 1.399 . S
C177 C1265 1.506 . S
C1279 C863 1.407 . S
C877 C1293 1.506 . S
C1307 C163 1.399 . S
C1321 C121 1.506 . S
C1335 C149 1.506 . S
C0 C613 1.472 . S
C627 C25 1.482 . S
C585 C28 1.498 . S
C53 C1271 1.485 . S
C56 C1313 1.472 . S
C81 C1327 1.485 . S
C1243 C84 1.498 . S
C1341 C109 1.482 . S
C375 C112 1.708 . S
C126 C1061 1.501 . S
C347 C140 1.703 . S
C1033 C154 1.497 . S
C431 C168 1.708 . S
C182 C1117 1.497 . S
C196 C403 1.703 . S
C210 C1089 1.501 . S
C235 C1187 1.486 . S
C459 C249 1.484 . S
C252 C1145 1.708 . S
C277 C487 1.486 . S
C280 C501 1.709 . S
C305 C1215 1.484 . S
C1229 C308 1.708 . S
C1201 C322 1.711 . S
C266 C336 1.651 . S
C350 C291 1.603 . S
C364 C238 1.664 . S
C378 C935 1.618 . S
C966 C392 1.651 . S
C991 C406 1.618 . S
C420 C896 1.664 . S
C1005 C434 1.603 . S
C448 C39 1.584 . S
C714 C462 1.662 . S
C476 C11 1.579 . S
C686 C490 1.662 . S
C504 C95 1.584 . S
C770 C518 1.662 . S
C67 C532 1.579 . S
C742 C546 1.662 . S
C560 C851 1.621 . S
C574 C123 1.613 . S
C809 C588 1.582 . S
C602 C151 1.621 . S
C165 C616 1.582 . S
C879 C630 1.613 . S
C893 C644 1.582 . S
C865 C658 1.596 . S
C672 C1285 1.498 . S
C697 C1299 1.485 . S
C700 C1257 1.473 . S
C599 C725 1.482 . S
C728 C641 1.498 . S
C655 C753 1.482 . S
C571 C756 1.473 . S
C669 C781 1.485 . S
C784 C1047 1.707 . S
C389 C798 1.497 . S
C812 C1019 1.707 . S
C826 C361 1.501 . S
C840 C1103 1.707 . S
C854 C445 1.501 . S
C1075 C868 1.707 . S
C417 C882 1.497 . S
C907 C515 1.484 . S
C921 C1131 1.486 . S
C924 C473 1.711 . S
C1159 C949 1.484 . S
C952 C1173 1.711 . S
C977 C543 1.486 . S
C557 C980 1.711 . S
C994 C529 1.709 . S
C1008 C938 1.664 . S
C963 C1022 1.618 . S
C910 C1036 1.650 . S
C1050 C263 1.603 . S
C1064 C294 1.664 . S
C1078 C319 1.603 . S
C224 C1092 1.651 . S
C1106 C333 1.618 . S
C1120 C711 1.579 . S
C1134 C42 1.663 . S
C1148 C683 1.584 . S
C1162 C14 1.662 . S
C1176 C767 1.579 . S
C1190 C98 1.662 . S
C1204 C739 1.584 . S
C1218 C70 1.662 . S
C1232 C179 1.613 . S
C1246 C795 1.621 . S
C1260 C137 1.596 . S
C1274 C823 1.613 . S
C1288 C837 1.596 . S
C207 C1302 1.621 . S
C1316 C221 1.596 . S
C1330 C193 1.582 . S
