# Generated by pormake.
# Topology oof, (8)-cn, num edge types: 1
# Building blocks:
#     Node 0, Type 0, BuildingBlock: AJUNOK_clean_sbu_0, # of connection points: 8
#     Node 1, Type 0, BuildingBlock: AJUNOK_clean_sbu_0, # of connection points: 8
#     Node 2, Type 0, BuildingBlock: AJUNOK_clean_sbu_0, # of connection points: 8
#     Node 3, Type 0, BuildingBlock: AJUNOK_clean_sbu_0, # of connection points: 8
#     Edge 4, Type (0, 0), BuildingBlock: UVAHIK_clean_linker_0, # of connection points: 2
#     Edge 5, Type (0, 0), BuildingBlock: UVAHIK_clean_linker_0, # of connection points: 2
#     Edge 6, Type (0, 0), BuildingBlock: UVAHIK_clean_linker_0, # of connection points: 2
#     Edge 7, Type (0, 0), BuildingBlock: UVAHIK_clean_linker_0, # of connection points: 2
#     Edge 8, Type (0, 0), BuildingBlock: UVAHIK_clean_linker_0, # of connection points: 2
#     Edge 9, Type (0, 0), BuildingBlock: UVAHIK_clean_linker_0, # of connection points: 2
#     Edge 10, Type (0, 0), BuildingBlock: UVAHIK_clean_linker_0, # of connection points: 2
#     Edge 11, Type (0, 0), BuildingBlock: UVAHIK_clean_linker_0, # of connection points: 2
#     Edge 12, Type (0, 0), BuildingBlock: UVAHIK_clean_linker_0, # of connection points: 2
#     Edge 13, Type (0, 0), BuildingBlock: UVAHIK_clean_linker_0, # of connection points: 2
#     Edge 14, Type (0, 0), BuildingBlock: UVAHIK_clean_linker_0, # of connection points: 2
#     Edge 15, Type (0, 0), BuildingBlock: UVAHIK_clean_linker_0, # of connection points: 2
#     Edge 16, Type (0, 0), BuildingBlock: UVAHIK_clean_linker_0, # of connection points: 2
#     Edge 17, Type (0, 0), BuildingBlock: UVAHIK_clean_linker_0, # of connection points: 2
#     Edge 18, Type (0, 0), BuildingBlock: UVAHIK_clean_linker_0, # of connection points: 2
#     Edge 19, Type (0, 0), BuildingBlock: UVAHIK_clean_linker_0, # of connection points: 2
# Relax obj value: 0.076
# Max RMSD: 0.168
# Mean RMSD: 0.167
data_MOF--net-oof--node1-AJUNOK_clean_sbu_0--edge1-UVAHIK_clean_linker_0
_symmetry_space_group_name_H-M    P1
_symmetry_Int_Tables_number       1
_symmetry_cell_setting            triclinic
loop_
_symmetry_equiv_pos_as_xyz
'x, y, z'
_cell_length_a     17.618496
_cell_length_b     78.134717
_cell_length_c     25.749812
_cell_angle_alpha  103.48433
_cell_angle_beta   93.779522
_cell_angle_gamma 84.266369
loop_
_atom_site_label
_atom_site_type_symbol
_atom_site_fract_x
_atom_site_fract_y
_atom_site_fract_z
_atom_type_partial_charge
Cd0 Cd 0.86904 0.09727 0.20127 0.0
Cd1 Cd 0.93396 0.15097 0.31579 0.0
C2 C 0.94037 0.09574 0.08969 0.0
N3 N 0.89714 0.10704 0.12695 0.0
C4 C 0.86727 0.1266 0.06834 0.0
C5 C 0.91034 0.11498 0.02864 0.0
C6 C 0.94833 0.09954 0.0402 0.0
C7 C 0.86102 0.12227 0.11746 0.0
H8 H 0.96581 0.08336 0.09757 0.0
H9 H 0.82497 0.13071 0.1472 0.0
C10 C 0.77381 0.13967 0.2658 0.0
C11 C 0.85631 0.14848 0.42163 0.0
C12 C 0.84803 0.14351 0.46943 0.0
C13 C 0.89104 0.12845 0.47997 0.0
C14 C 0.9384 0.11818 0.44033 0.0
C15 C 0.94504 0.12367 0.39304 0.0
N16 N 0.90537 0.13877 0.38527 0.0
H17 H 0.82669 0.16061 0.41468 0.0
H18 H 0.98432 0.11633 0.36358 0.0
C19 C 0.86501 0.18386 0.27081 0.0
N20 N 0.90188 0.16766 0.25249 0.0
C21 C 0.90143 0.17275 0.16448 0.0
C22 C 0.86435 0.18972 0.18254 0.0
C23 C 0.84521 0.19509 0.23639 0.0
C24 C 0.91968 0.16186 0.20038 0.0
H25 H 0.85098 0.18804 0.31239 0.0
H26 H 0.94881 0.14888 0.18685 0.0
C27 C 0.02558 0.11305 0.22685 0.0
C28 C 0.79723 0.06996 0.12842 0.0
N29 N 0.89144 0.08453 0.27447 0.0
C30 C 0.94913 0.07144 0.26956 0.0
C31 C 0.96159 0.06127 0.30758 0.0
C32 C 0.91412 0.06457 0.35113 0.0
C33 C 0.85703 0.07873 0.35661 0.0
C34 C 0.84622 0.08855 0.31723 0.0
C35 C 0.03168 0.17571 0.37875 0.0
O36 O 0.82204 0.12639 0.25299 0.0
O37 O 0.79554 0.15315 0.29931 0.0
O38 O 0.97588 0.12289 0.25612 0.0
O39 O 0.00705 0.09812 0.20035 0.0
O40 O 0.76557 0.08567 0.13718 0.0
O41 O 0.85486 0.06705 0.15825 0.0
O42 O 0.05948 0.16236 0.34483 0.0
O43 O 0.95992 0.17715 0.38344 0.0
H44 H 0.98376 0.06848 0.23491 0.0
H45 H 0.80036 0.09897 0.31983 0.0
H46 H 0.83716 0.13865 0.061 0.0
H47 H 0.98052 0.09002 0.01033 0.0
H48 H 0.81175 0.15197 0.49906 0.0
H49 H 0.9718 0.10635 0.44654 0.0
H50 H 0.91781 0.16808 0.12344 0.0
H51 H 0.81509 0.20786 0.25191 0.0
H52 H 0.00686 0.05065 0.30229 0.0
H53 H 0.81911 0.08164 0.38958 0.0
Cd54 Cd 0.04981 0.84837 0.71617 0.0
Cd55 Cd 0.11681 0.90335 0.82363 0.0
C56 C 0.09482 0.8422 0.59561 0.0
N57 N 0.06284 0.85535 0.63427 0.0
C58 C 0.0465 0.87485 0.57452 0.0
C59 C 0.07887 0.86141 0.53372 0.0
C60 C 0.1038 0.84497 0.54494 0.0
C61 C 0.03938 0.87154 0.62501 0.0
H62 H 0.11321 0.82949 0.60423 0.0
H63 H 0.01468 0.88181 0.65663 0.0
C64 C 0.95849 0.88969 0.78654 0.0
C65 C 0.06184 0.90051 0.93512 0.0
C66 C 0.05651 0.89525 0.98272 0.0
C67 C 0.10135 0.88025 0.99203 0.0
C68 C 0.15017 0.87076 0.95203 0.0
C69 C 0.15401 0.87659 0.90485 0.0
N70 N 0.1105 0.89132 0.89768 0.0
H71 H 0.02827 0.91222 0.92839 0.0
H72 H 0.19218 0.86951 0.87427 0.0
C73 C 0.01682 0.93362 0.77852 0.0
N74 N 0.06297 0.91863 0.76108 0.0
C75 C 0.0678 0.9252 0.67536 0.0
C76 C 0.02145 0.94102 0.69262 0.0
C77 C -0.00561 0.94491 0.74461 0.0
C78 C 0.08822 0.91418 0.71056 0.0
H79 H -0.00013 0.93715 0.81955 0.0
H80 H 0.1272 0.90251 0.69849 0.0
C81 C 0.20551 0.86616 0.72713 0.0
C82 C 0.94696 0.82208 0.67298 0.0
N83 N 0.10161 0.83529 0.78434 0.0
C84 C 0.16019 0.82249 0.77355 0.0
C85 C 0.18458 0.81244 0.81076 0.0
C86 C 0.14772 0.81549 0.85927 0.0
C87 C 0.08913 0.82926 0.87005 0.0
C88 C 0.06675 0.83904 0.83172 0.0
C89 C 0.18943 0.93457 0.86841 0.0
O90 O 0.01042 0.87737 0.77173 0.0
O91 O 0.97783 0.90361 0.81886 0.0
O92 O 0.1614 0.87609 0.76072 0.0
O93 O 0.18376 0.85127 0.70255 0.0
O94 O 0.92147 0.8375 0.69711 0.0
O95 O 0.01893 0.8191 0.67034 0.0
O96 O 0.21196 0.92454 0.82484 0.0
O97 O 0.14317 0.92853 0.89379 0.0
H98 H 0.18573 0.81956 0.73506 0.0
H99 H 0.01972 0.84919 0.83888 0.0
H100 H 0.02717 0.88775 0.56749 0.0
H101 H 0.1283 0.83422 0.51445 0.0
H102 H 0.01926 0.90322 0.0126 0.0
H103 H 0.18513 0.85901 0.95717 0.0
H104 H 0.0912 0.92178 0.63607 0.0
H105 H 0.95791 0.9568 0.75959 0.0
H106 H 0.22919 0.8018 0.80047 0.0
H107 H 0.05981 0.83219 0.90719 0.0
Cd108 Cd 0.39407 0.59764 0.21794 0.0
Cd109 Cd 0.41914 0.65429 0.32646 0.0
C110 C 0.44194 0.5971 0.10155 0.0
N111 N 0.40205 0.60807 0.14139 0.0
C112 C 0.37039 0.62903 0.08734 0.0
C113 C 0.41131 0.61792 0.04548 0.0
C114 C 0.44782 0.60184 0.0532 0.0
C115 C 0.36659 0.62381 0.13543 0.0
H116 H 0.46867 0.58457 0.10735 0.0
H117 H 0.33467 0.63219 0.16767 0.0
C118 C 0.25982 0.63586 0.28237 0.0
C119 C 0.35484 0.65336 0.43793 0.0
C120 C 0.35144 0.64947 0.48782 0.0
C121 C 0.40183 0.63596 0.50166 0.0
C122 C 0.45322 0.62631 0.46371 0.0
C123 C 0.45487 0.63073 0.41424 0.0
N124 N 0.40649 0.64414 0.40273 0.0
H125 H 0.31819 0.6642 0.42791 0.0
H126 H 0.49604 0.62378 0.38557 0.0
C127 C 0.31419 0.68087 0.26866 0.0
N128 N 0.37437 0.66843 0.25887 0.0
C129 C 0.38973 0.67497 0.17423 0.0
C130 C 0.32891 0.68823 0.1838 0.0
C131 C 0.29012 0.6909 0.23139 0.0
C132 C 0.41174 0.66521 0.21261 0.0
H133 H 0.28632 0.68335 0.30621 0.0
H134 H 0.45964 0.65534 0.20603 0.0
C135 C 0.52548 0.62095 0.23883 0.0
C136 C 0.3666 0.56269 0.16302 0.0
N137 N 0.43118 0.5913 0.3003 0.0
C138 C 0.49996 0.58191 0.30266 0.0
C139 C 0.51829 0.57315 0.34379 0.0
C140 C 0.46552 0.57417 0.38333 0.0
C141 C 0.39739 0.58521 0.38209 0.0
C142 C 0.38076 0.59349 0.33952 0.0
C143 C 0.50195 0.6831 0.38111 0.0
O144 O 0.30551 0.62289 0.26053 0.0
O145 O 0.28514 0.64924 0.31465 0.0
O146 O 0.47245 0.62731 0.27043 0.0
O147 O 0.52165 0.60542 0.21096 0.0
O148 O 0.31471 0.57509 0.16089 0.0
O149 O 0.42601 0.56669 0.19174 0.0
O150 O 0.53575 0.66926 0.35264 0.0
O151 O 0.43005 0.6834 0.38372 0.0
H152 H 0.53814 0.58003 0.2702 0.0
H153 H 0.32592 0.60082 0.3362 0.0
H154 H 0.34149 0.64153 0.08284 0.0
H155 H 0.47873 0.59277 0.0216 0.0
H156 H 0.31191 0.65749 0.51603 0.0
H157 H 0.49246 0.61565 0.4724 0.0
H158 H 0.42068 0.67233 0.13783 0.0
H159 H 0.24374 0.70115 0.24084 0.0
H160 H 0.57089 0.56465 0.34207 0.0
H161 H 0.35565 0.58678 0.41224 0.0
Cd162 Cd 0.59088 0.34243 0.69049 0.0
Cd163 Cd 0.66918 0.39526 0.79813 0.0
C164 C 0.61549 0.34023 0.56843 0.0
N165 N 0.59335 0.35253 0.61257 0.0
C166 C 0.57018 0.37468 0.56174 0.0
C167 C 0.59033 0.36205 0.51503 0.0
C168 C 0.61462 0.34472 0.51914 0.0
C169 C 0.57216 0.36959 0.61046 0.0
H170 H 0.63322 0.32683 0.5715 0.0
H171 H 0.55539 0.37916 0.64631 0.0
C172 C 0.50508 0.38426 0.76414 0.0
C173 C 0.59629 0.40546 0.91334 0.0
C174 C 0.58156 0.40424 0.96491 0.0
C175 C 0.60282 0.38839 0.98117 0.0
C176 C 0.63693 0.37396 0.9442 0.0
C177 C 0.65098 0.37581 0.89311 0.0
N178 N 0.6307 0.39138 0.87888 0.0
H179 H 0.5825 0.41781 0.90123 0.0
H180 H 0.68067 0.36508 0.8654 0.0
C181 C 0.58115 0.42838 0.75893 0.0
N182 N 0.62577 0.41322 0.74037 0.0
C183 C 0.63403 0.4207 0.65626 0.0
C184 C 0.58905 0.43659 0.67466 0.0
C185 C 0.56142 0.44024 0.72636 0.0
C186 C 0.65177 0.40911 0.69004 0.0
H187 H 0.56298 0.43149 0.79964 0.0
H188 H 0.68808 0.39707 0.67677 0.0
C189 C 0.74631 0.35829 0.7022 0.0
C190 C 0.49053 0.31558 0.6472 0.0
N191 N 0.64307 0.32945 0.75862 0.0
C192 C 0.69741 0.31576 0.74555 0.0
C193 C 0.72214 0.30555 0.78216 0.0
C194 C 0.6903 0.30941 0.83261 0.0
C195 C 0.63634 0.32408 0.84581 0.0
C196 C 0.61279 0.33389 0.80768 0.0
C197 C 0.76809 0.42083 0.85335 0.0
O198 O 0.55412 0.37145 0.74754 0.0
O199 O 0.52879 0.39792 0.79553 0.0
O200 O 0.70139 0.36696 0.7373 0.0
O201 O 0.72579 0.34373 0.67403 0.0
O202 O 0.46449 0.33042 0.67513 0.0
O203 O 0.56181 0.3135 0.64025 0.0
O204 O 0.76048 0.40717 0.87047 0.0
O205 O 0.74354 0.42038 0.80579 0.0
H206 H 0.71925 0.31234 0.70582 0.0
H207 H 0.56836 0.34462 0.81645 0.0
H208 H 0.55101 0.38819 0.56045 0.0
H209 H 0.63254 0.33466 0.48452 0.0
H210 H 0.55477 0.41565 0.99197 0.0
H211 H 0.6555 0.36161 0.95531 0.0
H212 H 0.65611 0.41742 0.61653 0.0
H213 H 0.52764 0.45249 0.74224 0.0
H214 H 0.76435 0.29445 0.77063 0.0
H215 H 0.60992 0.32739 0.8841 0.0
C216 C 0.84228 0.12335 0.94848 0.0
C217 C 0.91064 0.11805 0.97395 0.0
C218 C 0.84076 0.12453 0.89513 0.0
C219 C 0.96276 0.12787 0.78738 0.0
H220 H 0.79596 0.1079 0.69443 0.0
C221 C 0.96113 0.11978 0.55921 0.0
C222 C 0.89179 0.1246 0.53389 0.0
C223 C 0.96356 0.11818 0.61222 0.0
C224 C 0.84251 0.11369 0.71991 0.0
H225 H 0.03153 0.11048 0.96412 0.0
H226 H 0.02881 0.11245 0.87075 0.0
H227 H 0.80018 0.10775 0.78912 0.0
H228 H 0.7701 0.13076 0.54376 0.0
H229 H 0.77447 0.12827 0.63653 0.0
H230 H 0.00488 0.13393 0.71831 0.0
C231 C 0.97644 0.11573 0.89209 0.0
C232 C 0.84488 0.11363 0.7742 0.0
C233 C 0.97791 0.11448 0.94541 0.0
C234 C 0.82454 0.12719 0.56226 0.0
C235 C 0.82697 0.12561 0.61531 0.0
C236 C 0.9603 0.12799 0.7331 0.0
C237 C 0.90758 0.12049 0.86612 0.0
C238 C 0.90495 0.12074 0.80855 0.0
C239 C 0.89673 0.12138 0.64121 0.0
C240 C 0.90011 0.1209 0.69871 0.0
H241 H 0.78933 0.126 0.96919 0.0
H242 H 0.78703 0.12846 0.87643 0.0
H243 H 0.00932 0.13364 0.81294 0.0
H244 H 0.01418 0.11789 0.53878 0.0
H245 H 0.01805 0.11463 0.6307 0.0
C246 C 0.02127 0.87161 0.45332 0.0
C247 C 0.08444 0.86412 0.47904 0.0
C248 C 0.02438 0.87276 0.40013 0.0
C249 C 0.15645 0.87315 0.2958 0.0
H250 H -0.01285 0.85744 0.1981 0.0
C251 C 0.16666 0.86952 0.06997 0.0
C252 C 0.09926 0.87529 0.04433 0.0
C253 C 0.16571 0.86676 0.12169 0.0
C254 C 0.03456 0.86208 0.22486 0.0
H255 H 0.20125 0.85257 0.47005 0.0
H256 H 0.20693 0.85472 0.37721 0.0
H257 H 0.98371 0.85666 0.29195 0.0
H258 H 0.97717 0.88164 0.05206 0.0
H259 H 0.97597 0.87754 0.14251 0.0
H260 H 0.20664 0.87902 0.22934 0.0
C261 C 0.15494 0.85962 0.39808 0.0
C262 C 0.03254 0.86161 0.27867 0.0
C263 C 0.15154 0.8583 0.45106 0.0
C264 C 0.03047 0.87753 0.07089 0.0
C265 C 0.02962 0.87493 0.12269 0.0
C266 C 0.15816 0.87381 0.2421 0.0
C267 C 0.09102 0.86662 0.37182 0.0
C268 C 0.09334 0.86718 0.31473 0.0
C269 C 0.09742 0.86979 0.14918 0.0
C270 C 0.09711 0.86833 0.20589 0.0
H271 H 0.96865 0.87609 0.4738 0.0
H272 H 0.97453 0.87839 0.38105 0.0
H273 H 0.20386 0.87767 0.3228 0.0
H274 H 0.22079 0.86775 0.05093 0.0
H275 H 0.21881 0.86246 0.14036 0.0
C276 C 0.34482 0.62811 0.9677 0.0
C277 C 0.41273 0.62241 0.99277 0.0
C278 C 0.3445 0.63032 0.91539 0.0
C279 C 0.46748 0.636 0.81125 0.0
H280 H 0.30823 0.61452 0.71375 0.0
C281 C 0.47324 0.62943 0.58361 0.0
C282 C 0.4034 0.63278 0.55648 0.0
C283 C 0.47504 0.6279 0.63669 0.0
C284 C 0.35255 0.62079 0.7405 0.0
H285 H 0.53416 0.61545 0.98401 0.0
H286 H 0.53367 0.61936 0.89257 0.0
H287 H 0.30959 0.61377 0.80781 0.0
H288 H 0.28051 0.6365 0.56349 0.0
H289 H 0.28374 0.63437 0.6563 0.0
H290 H 0.51007 0.64321 0.74415 0.0
C291 C 0.48069 0.62206 0.91326 0.0
C292 C 0.35328 0.62036 0.79443 0.0
C293 C 0.48089 0.61971 0.9654 0.0
C294 C 0.33537 0.63414 0.58335 0.0
C295 C 0.33719 0.63271 0.63647 0.0
C296 C 0.46646 0.63655 0.75733 0.0
C297 C 0.41219 0.62703 0.88731 0.0
C298 C 0.41072 0.62796 0.83038 0.0
C299 C 0.40709 0.62975 0.66401 0.0
C300 C 0.40898 0.62894 0.72126 0.0
H301 H 0.29138 0.63017 0.98772 0.0
H302 H 0.29104 0.63438 0.8966 0.0
H303 H 0.51211 0.64209 0.83815 0.0
H304 H 0.52683 0.6285 0.56439 0.0
H305 H 0.52982 0.62533 0.65637 0.0
C306 C 0.61052 0.40126 0.08008 0.0
C307 C 0.5932 0.38721 0.03711 0.0
C308 C 0.60482 0.39991 0.13282 0.0
C309 C 0.51723 0.37508 0.21557 0.0
H310 H 0.68292 0.39007 0.31769 0.0
C311 C 0.5572 0.35456 0.41669 0.0
C312 C 0.58432 0.36662 0.46191 0.0
C313 C 0.55368 0.35838 0.36627 0.0
C314 C 0.63552 0.38609 0.28999 0.0
H315 H 0.55477 0.36086 0.01593 0.0
H316 H 0.54558 0.35842 0.10807 0.0
H317 H 0.68493 0.39425 0.22693 0.0
H318 H 0.62773 0.39235 0.4896 0.0
H319 H 0.6199 0.39923 0.40146 0.0
H320 H 0.46792 0.36684 0.27845 0.0
C321 C 0.56305 0.37054 0.1009 0.0
C322 C 0.63676 0.38846 0.23789 0.0
C323 C 0.56904 0.37186 0.04813 0.0
C324 C 0.60627 0.3828 0.45563 0.0
C325 C 0.60254 0.38666 0.40503 0.0
C326 C 0.51582 0.37278 0.2677 0.0
C327 C 0.58143 0.3845 0.14385 0.0
C328 C 0.57808 0.38279 0.19992 0.0
C329 C 0.57665 0.37443 0.35968 0.0
C330 C 0.57545 0.37804 0.30538 0.0
H331 H 0.63019 0.41319 0.07302 0.0
H332 H 0.61874 0.41095 0.165 0.0
H333 H 0.47052 0.37085 0.18752 0.0
H334 H 0.53854 0.3421 0.42017 0.0
H335 H 0.53433 0.34855 0.33225 0.0
C336 C 0.6648 0.1249 0.21276 0.0
C337 C 0.69791 0.14042 0.2385 0.0
C338 C 0.59023 0.1258 0.19083 0.0
C339 C 0.41694 0.15349 0.22382 0.0
H340 H 0.32972 0.11853 0.10919 0.0
C341 C 0.10716 0.13751 0.22826 0.0
C342 C 0.09844 0.11936 0.21779 0.0
C343 C 0.17392 0.14352 0.21534 0.0
C344 C 0.35321 0.12843 0.14128 0.0
H345 H 0.68291 0.16907 0.25638 0.0
H346 H 0.55254 0.17061 0.21845 0.0
H347 H 0.46519 0.12307 0.1101 0.0
H348 H 0.1521 0.0932 0.18505 0.0
H349 H 0.26993 0.10354 0.1648 0.0
H350 H 0.30744 0.15797 0.25745 0.0
C351 C 0.58344 0.15777 0.21612 0.0
C352 C 0.43054 0.13108 0.14159 0.0
C353 C 0.6577 0.15687 0.23826 0.0
C354 C 0.15748 0.10729 0.19389 0.0
C355 C 0.22448 0.11326 0.18143 0.0
C356 C 0.34003 0.15074 0.22378 0.0
C357 C 0.54781 0.14224 0.19421 0.0
C358 C 0.46391 0.14296 0.18446 0.0
C359 C 0.23366 0.13144 0.19209 0.0
C360 C 0.3084 0.13748 0.18417 0.0
H361 H 0.695 0.11208 0.212 0.0
H362 H 0.56414 0.11358 0.17462 0.0
H363 H 0.44091 0.16272 0.25754 0.0
H364 H 0.06176 0.1471 0.24534 0.0
H365 H 0.17875 0.15762 0.22365 0.0
C366 C 0.82067 0.90045 0.7883 0.0
C367 C 0.88034 0.88903 0.76267 0.0
C368 C 0.74734 0.90065 0.76441 0.0
C369 C 0.62521 0.87166 0.67186 0.0
H370 H 0.48239 0.91351 0.70144 0.0
C371 C 0.30745 0.8642 0.66282 0.0
C372 C 0.27531 0.87235 0.71199 0.0
C373 C 0.37595 0.86926 0.64941 0.0
C374 C 0.52171 0.90174 0.69228 0.0
H375 H 0.91142 0.86968 0.69074 0.0
H376 H 0.78291 0.86974 0.64906 0.0
H377 H 0.61964 0.91649 0.71375 0.0
H378 H 0.28638 0.89292 0.78396 0.0
H379 H 0.40721 0.90152 0.76135 0.0
H380 H 0.52789 0.85682 0.65309 0.0
C381 C 0.79248 0.87835 0.68802 0.0
C382 C 0.60014 0.90343 0.69947 0.0
C383 C 0.86583 0.87813 0.71212 0.0
C384 C 0.31028 0.88638 0.74601 0.0
C385 C 0.37903 0.89141 0.73271 0.0
C386 C 0.54699 0.86998 0.66441 0.0
C387 C 0.73222 0.88952 0.71413 0.0
C388 C 0.65235 0.88831 0.69245 0.0
C389 C 0.41384 0.88249 0.68507 0.0
C390 C 0.49442 0.88492 0.67758 0.0
H391 H 0.83047 0.90913 0.82714 0.0
H392 H 0.70202 0.90914 0.78621 0.0
H393 H 0.66374 0.85973 0.66599 0.0
H394 H 0.28043 0.85367 0.63507 0.0
H395 H 0.40085 0.86235 0.61209 0.0
C396 C 0.59818 0.63122 0.17479 0.0
C397 C 0.58313 0.6317 0.22799 0.0
C398 C 0.66092 0.63901 0.16331 0.0
C399 C 0.82535 0.66415 0.22296 0.0
H400 H 0.94418 0.62145 0.15327 0.0
C401 C 0.12491 0.64724 0.29832 0.0
C402 C 0.17921 0.63699 0.26413 0.0
C403 C 0.05067 0.65074 0.27907 0.0
C404 C 0.91244 0.63374 0.17144 0.0
H405 H 0.61757 0.64132 0.3108 0.0
H406 H 0.72755 0.65509 0.29118 0.0
H407 H 0.80651 0.62322 0.14298 0.0
H408 H 0.19925 0.62228 0.18308 0.0
H409 H 0.06942 0.62864 0.14891 0.0
H410 H 0.93163 0.67438 0.25326 0.0
C411 C 0.69019 0.64909 0.25827 0.0
C412 C 0.83311 0.63478 0.16538 0.0
C413 C 0.62751 0.64122 0.26969 0.0
C414 C 0.15785 0.63 0.21045 0.0
C415 C 0.08372 0.63377 0.19084 0.0
C416 C 0.90494 0.66325 0.22826 0.0
C417 C 0.70972 0.64721 0.20496 0.0
C418 C 0.78894 0.64945 0.19428 0.0
C419 C 0.02938 0.64433 0.22488 0.0
C420 C 0.94891 0.64749 0.20591 0.0
H421 H 0.56345 0.62412 0.14206 0.0
H422 H 0.67464 0.63745 0.12196 0.0
H423 H 0.79234 0.67572 0.24485 0.0
H424 H 0.14015 0.65273 0.33992 0.0
H425 H 0.00981 0.65835 0.30699 0.0
C426 C 0.84627 0.37972 0.72652 0.0
C427 C 0.81471 0.36573 0.68978 0.0
C428 C 0.91503 0.38559 0.71647 0.0
C429 C 0.08736 0.36555 0.65208 0.0
H430 H 0.15855 0.41205 0.70537 0.0
C431 C 0.40632 0.37298 0.69405 0.0
C432 C 0.42539 0.3843 0.74297 0.0
C433 C 0.33155 0.37349 0.67264 0.0
C434 C 0.13951 0.39898 0.69035 0.0
H435 H 0.82516 0.34826 0.61115 0.0
H436 H 0.94529 0.35847 0.59372 0.0
H437 H 0.02133 0.40886 0.69244 0.0
H438 H 0.38183 0.40533 0.80754 0.0
H439 H 0.25025 0.40559 0.77189 0.0
H440 H 0.20387 0.35538 0.65345 0.0
C441 C 0.91793 0.36463 0.63075 0.0
C442 C 0.06107 0.39719 0.68266 0.0
C443 C 0.84958 0.3587 0.64095 0.0
C444 C 0.36851 0.39636 0.76984 0.0
C445 C 0.29333 0.39668 0.74893 0.0
C446 C 0.16534 0.3673 0.66024 0.0
C447 C 0.95309 0.37759 0.66941 0.0
C448 C 0.03429 0.38035 0.66548 0.0
C449 C 0.27373 0.38512 0.70028 0.0
C450 C 0.19234 0.38394 0.68161 0.0
H451 H 0.81989 0.38554 0.76414 0.0
H452 H 0.94087 0.39554 0.74719 0.0
H453 H 0.06868 0.35236 0.6393 0.0
H454 H 0.44937 0.36386 0.67188 0.0
H455 H 0.31899 0.36462 0.63464 0.0
C456 C 0.36243 0.30311 0.63182 0.0
C457 C 0.44107 0.30128 0.62317 0.0
C458 C 0.31675 0.2894 0.60836 0.0
C459 C 0.32893 0.24128 0.54642 0.0
H460 H 0.12927 0.25209 0.4833 0.0
C461 C 0.1584 0.18832 0.40363 0.0
C462 C 0.07944 0.18936 0.41037 0.0
C463 C 0.2021 0.20176 0.43222 0.0
C464 C 0.18458 0.24886 0.50127 0.0
H465 H 0.5332 0.2837 0.58289 0.0
H466 H 0.45387 0.26009 0.54167 0.0
H467 H 0.20509 0.27612 0.52889 0.0
H468 H 0.98472 0.20514 0.45302 0.0
H469 H 0.06081 0.22843 0.50275 0.0
H470 H 0.30874 0.21401 0.5181 0.0
C471 C 0.42744 0.2719 0.56725 0.0
C472 C 0.22797 0.26264 0.52751 0.0
C473 C 0.47291 0.28552 0.59066 0.0
C474 C 0.04538 0.20396 0.44672 0.0
C475 C 0.08888 0.21738 0.47505 0.0
C476 C 0.28566 0.22751 0.52002 0.0
C477 C 0.34883 0.27362 0.57581 0.0
C478 C 0.30093 0.25902 0.5501 0.0
C479 C 0.16763 0.21651 0.4679 0.0
C480 C 0.21316 0.23113 0.49688 0.0
H481 H 0.33623 0.31509 0.65674 0.0
H482 H 0.25648 0.2911 0.61616 0.0
H483 H 0.38432 0.23801 0.56418 0.0
H484 H 0.18628 0.17727 0.37579 0.0
H485 H 0.26257 0.20079 0.42548 0.0
C486 C 0.72395 0.30411 0.92437 0.0
C487 C 0.70939 0.29742 0.86945 0.0
C488 C 0.74144 0.2926 0.95862 0.0
C489 C 0.80708 0.24578 0.95735 0.0
H490 H 0.72801 0.25741 0.09949 0.0
C491 C 0.82306 0.19569 0.09242 0.0
C492 C 0.84699 0.20198 0.14612 0.0
C493 C 0.80644 0.20736 0.05863 0.0
C494 C 0.75092 0.25406 0.06001 0.0
H495 H 0.69911 0.2735 0.80766 0.0
H496 H 0.7282 0.2535 0.86719 0.0
H497 H 0.69879 0.2779 0.04099 0.0
H498 H 0.87403 0.22546 0.20581 0.0
H499 H 0.84359 0.24575 0.14716 0.0
H500 H 0.85816 0.2218 0.97627 0.0
C501 C 0.72853 0.26757 0.88379 0.0
C502 C 0.73446 0.26582 0.02655 0.0
C503 C 0.71172 0.27904 0.84962 0.0
C504 C 0.85412 0.22018 0.16506 0.0
C505 C 0.8369 0.23183 0.13145 0.0
C506 C 0.82297 0.23396 0.99065 0.0
C507 C 0.744 0.27417 0.93869 0.0
C508 C 0.76232 0.26182 0.97477 0.0
C509 C 0.81289 0.22556 0.07791 0.0
C510 C 0.79513 0.23799 0.04232 0.0
H511 H 0.72289 0.31822 0.9407 0.0
H512 H 0.75396 0.29815 1.00056 0.0
H513 H 0.83071 0.2424 0.91812 0.0
H514 H 0.81597 0.18181 0.07666 0.0
H515 H 0.78733 0.20218 0.01761 0.0
C516 C 0.50465 0.71333 0.44074 0.0
C517 C 0.54416 0.69805 0.41091 0.0
C518 C 0.54439 0.72724 0.47063 0.0
C519 C 0.73196 0.73647 0.5362 0.0
H520 H 0.6687 0.78533 0.53439 0.0
C521 C 0.92785 0.79171 0.61953 0.0
C522 C 0.89606 0.80823 0.64742 0.0
C523 C 0.88115 0.77865 0.59351 0.0
C524 C 0.6864 0.77178 0.53599 0.0
H525 H 0.65625 0.68551 0.38805 0.0
H526 H 0.72568 0.7098 0.44038 0.0
H527 H 0.59448 0.76184 0.48213 0.0
H528 H 0.78996 0.824 0.67017 0.0
H529 H 0.70783 0.80096 0.62502 0.0
H530 H 0.82358 0.74626 0.58998 0.0
C531 C 0.66395 0.71093 0.44105 0.0
C532 C 0.64405 0.75833 0.50592 0.0
C533 C 0.6242 0.69707 0.41088 0.0
C534 C 0.81616 0.81138 0.64903 0.0
C535 C 0.76917 0.79824 0.62291 0.0
C536 C 0.77396 0.74987 0.5664 0.0
C537 C 0.62451 0.7261 0.47161 0.0
C538 C 0.66714 0.74051 0.50509 0.0
C539 C 0.80126 0.78171 0.5948 0.0
C540 C 0.75251 0.76767 0.56602 0.0
H541 H 0.44293 0.71451 0.44148 0.0
H542 H 0.51247 0.73871 0.49398 0.0
H543 H 0.75019 0.72289 0.53732 0.0
H544 H -0.01086 0.78887 0.61716 0.0
H545 H 0.90786 0.76623 0.57145 0.0
C546 C 0.36726 0.7066 0.1236 0.0
C547 C 0.30921 0.70004 0.14636 0.0
C548 C 0.34936 0.71881 0.09179 0.0
C549 C 0.19163 0.73745 0.01364 0.0
H550 H 0.3167 0.77687 0.03535 0.0
C551 C 0.10801 0.79719 0.91928 0.0
C552 C 0.16658 0.80351 0.89628 0.0
C553 C 0.12506 0.7848 0.95062 0.0
C554 C 0.28167 0.76586 0.02843 0.0
H555 H 0.18663 0.70072 0.15197 0.0
H556 H 0.15539 0.72227 0.09713 0.0
H557 H 0.34696 0.75429 0.0865 0.0
H558 H 0.28913 0.80214 0.88948 0.0
H559 H 0.31892 0.78039 0.94384 0.0
H560 H 0.12621 0.74908 0.95564 0.0
C561 C 0.21479 0.71788 0.1036 0.0
C562 C 0.29908 0.75289 0.05767 0.0
C563 C 0.23271 0.70565 0.13546 0.0
C564 C 0.24271 0.79744 0.90634 0.0
C565 C 0.25979 0.78509 0.93784 0.0
C566 C 0.17415 0.75044 0.98443 0.0
C567 C 0.27299 0.72478 0.08199 0.0
C568 C 0.25439 0.7385 0.05056 0.0
C569 C 0.20109 0.77847 0.95984 0.0
C570 C 0.21904 0.76479 0.99144 0.0
H571 H 0.42681 0.70272 0.13164 0.0
H572 H 0.39553 0.72366 0.07512 0.0
H573 H 0.15663 0.72643 0.00669 0.0
H574 H 0.04869 0.80143 0.91179 0.0
H575 H 0.07859 0.78014 0.96752 0.0
C576 C 0.80199 0.0637 0.0307 0.0
C577 C 0.78899 0.05758 0.07627 0.0
C578 C 0.8377 0.05228 0.9873 0.0
C579 C 0.90516 0.00707 0.92295 0.0
H580 H 0.11073 0.02212 0.94699 0.0
C581 C 0.18336 0.96396 0.93067 0.0
C582 C 0.18883 0.95389 0.87802 0.0
C583 C 0.14277 0.98061 0.94082 0.0
C584 C 0.0534 0.018 0.93867 0.0
H585 H 0.79095 0.03441 0.10888 0.0
H586 H 0.84787 0.01419 0.03138 0.0
H587 H 0.00235 0.04248 0.98423 0.0
H588 H 0.16559 0.95425 0.79452 0.0
H589 H 0.09229 0.98307 0.81258 0.0
H590 H 0.95678 0.98232 0.87934 0.0
C591 C 0.83295 0.02786 0.02983 0.0
C592 C -0.00851 0.02959 0.95975 0.0
C593 C 0.79966 0.03939 0.07399 0.0
C594 C 0.16291 0.96179 0.83552 0.0
C595 C 0.12014 0.9782 0.84572 0.0
C596 C 0.96681 0.99566 0.90064 0.0
C597 C 0.85741 0.03449 0.98812 0.0
C598 C 0.91734 0.02397 0.95379 0.0
C599 C 0.10628 0.9872 0.89849 0.0
C600 C 0.0416 1.00082 0.91009 0.0
H601 H 0.79522 0.07771 0.03173 0.0
H602 H 0.85616 0.05765 0.95553 0.0
H603 H 0.84869 0.00241 0.9185 0.0
H604 H 0.20217 0.9581 0.96406 0.0
H605 H 0.13245 0.98735 0.98187 0.0
C606 C 0.91995 0.05899 0.4438 0.0
C607 C 0.92134 0.05247 0.38816 0.0
C608 C 0.9279 0.04733 0.47805 0.0
C609 C 0.90573 1.00117 0.48127 0.0
H610 H 0.04787 0.00956 0.6041 0.0
C611 C -0.0059 0.94822 0.60241 0.0
C612 C 0.00547 0.95393 0.6581 0.0
C613 C 0.9817 0.96045 0.57016 0.0
C614 C 0.00704 0.00713 0.57045 0.0
H615 H 0.92994 0.02868 0.32475 0.0
H616 H 0.94406 0.00842 0.38433 0.0
H617 H 0.02809 0.03087 0.54776 0.0
H618 H 0.01344 0.97712 0.72326 0.0
H619 H -0.01143 0.99833 0.66755 0.0
H620 H 0.88399 0.97754 0.50397 0.0
C621 C 0.9369 0.02249 0.40157 0.0
C622 C -0.00415 0.01935 0.53816 0.0
C623 C 0.92965 0.03411 0.36749 0.0
C624 C 0.00359 0.97219 0.68068 0.0
C625 C -0.00943 0.9844 0.64855 0.0
C626 C 0.91643 0.98902 0.51377 0.0
C627 C 0.93633 0.02895 0.4572 0.0
C628 C 0.94549 0.01644 0.49302 0.0
C629 C 0.9799 0.97871 0.59284 0.0
C630 C 0.96757 0.99178 0.55862 0.0
H631 H 0.91384 0.07309 0.46079 0.0
H632 H 0.92679 0.05266 0.5208 0.0
H633 H 0.86582 0.99868 0.44707 0.0
H634 H -0.00546 0.93428 0.58364 0.0
H635 H 0.97465 0.95556 0.52733 0.0
C636 C 0.36972 0.54443 0.07113 0.0
C637 C 0.36862 0.54529 0.12612 0.0
C638 C 0.40872 0.52996 0.03773 0.0
C639 C 0.51065 0.48559 0.03067 0.0
H640 H 0.66415 0.50342 0.96069 0.0
C641 C 0.76235 0.43909 0.94612 0.0
C642 C 0.76978 0.43819 0.8915 0.0
C643 C 0.72237 0.45375 0.97777 0.0
C644 C 0.62155 0.49821 0.97978 0.0
H645 H 0.39793 0.53106 0.18831 0.0
H646 H 0.46295 0.50554 0.12996 0.0
H647 H 0.55807 0.52345 1.00157 0.0
H648 H 0.7566 0.45345 0.83054 0.0
H649 H 0.68738 0.4789 0.88551 0.0
H650 H 0.57363 0.46036 0.00889 0.0
C651 C 0.43517 0.51599 0.11243 0.0
C652 C 0.56032 0.50964 0.00269 0.0
C653 C 0.39733 0.53054 0.14585 0.0
C654 C 0.75031 0.45356 0.8722 0.0
C655 C 0.70998 0.46818 0.90375 0.0
C656 C 0.57162 0.47415 0.00761 0.0
C657 C 0.44572 0.51613 0.05892 0.0
C658 C 0.50454 0.50347 0.02873 0.0
C659 C 0.69035 0.46778 0.95545 0.0
C660 C 0.62831 0.48036 0.9824 0.0
H661 H 0.34904 0.5558 0.05525 0.0
H662 H 0.41498 0.53025 0.99638 0.0
H663 H 0.46839 0.48045 0.05028 0.0
H664 H 0.77825 0.42764 0.96269 0.0
H665 H 0.71086 0.4534 0.01831 0.0
C666 C 0.50164 0.4584 0.63682 0.0
C667 C 0.57494 0.44987 0.6417 0.0
C668 C 0.48958 0.4718 0.60875 0.0
C669 C 0.58744 0.50562 0.57046 0.0
H670 H 0.4201 0.50644 0.46532 0.0
C671 C 0.55183 0.55678 0.43848 0.0
C672 C 0.47774 0.56217 0.42112 0.0
C673 C 0.5637 0.54353 0.46719 0.0
C674 C 0.46629 0.50665 0.49529 0.0
H675 H 0.69298 0.44859 0.62101 0.0
H676 H 0.67193 0.47214 0.5722 0.0
H677 H 0.44013 0.48208 0.51029 0.0
H678 H 0.35773 0.55813 0.42293 0.0
H679 H 0.37801 0.53612 0.47588 0.0
H680 H 0.61263 0.53038 0.55695 0.0
C681 C 0.62391 0.4684 0.58997 0.0
C682 C 0.47798 0.49259 0.52072 0.0
C683 C 0.63577 0.45483 0.61741 0.0
C684 C 0.41564 0.5546 0.43592 0.0
C685 C 0.42742 0.5416 0.46546 0.0
C686 C 0.57509 0.51984 0.54566 0.0
C687 C 0.55082 0.47709 0.58572 0.0
C688 C 0.53877 0.49192 0.55841 0.0
C689 C 0.5017 0.53553 0.48028 0.0
C690 C 0.51436 0.52055 0.50764 0.0
H691 H 0.45377 0.45477 0.65504 0.0
H692 H 0.43274 0.47835 0.60625 0.0
H693 H 0.63425 0.50551 0.59989 0.0
H694 H 0.60113 0.56248 0.42885 0.0
H695 H 0.62185 0.53919 0.47749 0.0
loop_
_geom_bond_atom_site_label_1
_geom_bond_atom_site_label_2
_geom_bond_distance
_geom_bond_site_symmetry_2
_ccdc_geom_bond_type
Cd0 N3 2.334 1_455 S
Cd0 N29 2.304 . S
Cd0 O36 2.268 1_455 S
Cd0 O39 2.273 . S
Cd0 O40 2.417 1_455 S
Cd0 O41 2.330 . S
Cd1 N16 2.304 1_655 S
Cd1 N20 2.334 . S
Cd1 O37 2.273 . S
Cd1 O38 2.268 1_655 S
Cd1 O42 2.417 1_655 S
Cd1 O43 2.330 . S
C2 N3 1.332 1_455 S
C2 C6 1.381 . S
C2 H8 0.931 . S
N3 Cd0 2.334 1_655 S
N3 C2 1.332 1_655 S
N3 C7 1.328 . S
C4 C5 1.396 . S
C4 C7 1.378 . S
C4 H46 0.931 . S
C5 C4 1.396 . S
C5 C6 1.382 1_655 S
C6 C2 1.381 . S
C6 C5 1.382 1_455 S
C6 H47 0.930 . S
C7 N3 1.328 . S
C7 C4 1.378 . S
C7 H9 0.930 . S
H8 C2 0.931 . S
H9 C7 0.930 . S
C10 O36 1.238 . S
C10 O37 1.253 . S
C11 C12 1.379 . S
C11 N16 1.337 1_655 S
C11 H17 0.929 . S
C12 C11 1.379 . S
C12 C13 1.380 1_655 S
C12 H48 0.929 . S
C13 C12 1.380 1_455 S
C13 C14 1.399 . S
C14 C13 1.399 . S
C14 C15 1.376 . S
C14 H49 0.931 . S
C15 C14 1.376 . S
C15 N16 1.338 . S
C15 H18 0.930 . S
N16 Cd1 2.304 1_455 S
N16 C11 1.337 1_455 S
N16 C15 1.338 . S
H17 C11 0.929 . S
H18 C15 0.930 . S
C19 N20 1.332 . S
C19 C23 1.381 . S
C19 H25 0.931 . S
N20 Cd1 2.334 . S
N20 C19 1.332 . S
N20 C24 1.328 1_655 S
C21 C22 1.396 1_455 S
C21 C24 1.378 . S
C21 H50 0.931 . S
C22 C21 1.396 1_655 S
C22 C23 1.382 . S
C23 C19 1.381 . S
C23 C22 1.382 . S
C23 H51 0.930 . S
C24 N20 1.328 1_455 S
C24 C21 1.378 . S
C24 H26 0.930 . S
H25 C19 0.931 . S
H26 C24 0.930 . S
C27 O38 1.238 . S
C27 O39 1.253 . S
C28 O40 1.239 . S
C28 O41 1.230 1_655 S
N29 Cd0 2.304 . S
N29 C30 1.337 . S
N29 C34 1.338 1_455 S
C30 N29 1.337 . S
C30 C31 1.379 . S
C30 H44 0.929 . S
C31 C30 1.379 . S
C31 C32 1.380 . S
C31 H52 0.929 . S
C32 C31 1.380 . S
C32 C33 1.399 1_455 S
C33 C32 1.399 1_655 S
C33 C34 1.376 . S
C33 H53 0.931 . S
C34 N29 1.338 1_655 S
C34 C33 1.376 . S
C34 H45 0.930 . S
C35 O42 1.239 . S
C35 O43 1.230 1_455 S
O36 Cd0 2.268 1_655 S
O36 C10 1.238 . S
O37 Cd1 2.273 . S
O37 C10 1.253 . S
O38 Cd1 2.268 1_455 S
O38 C27 1.238 . S
O39 Cd0 2.273 . S
O39 C27 1.253 . S
O40 Cd0 2.417 1_655 S
O40 C28 1.239 . S
O41 Cd0 2.330 . S
O41 C28 1.230 1_455 S
O42 Cd1 2.417 1_455 S
O42 C35 1.239 . S
O43 Cd1 2.330 . S
O43 C35 1.230 1_655 S
H44 C30 0.929 . S
H45 C34 0.930 . S
H46 C4 0.931 . S
H47 C6 0.930 . S
H48 C12 0.929 . S
H49 C14 0.931 . S
H50 C21 0.931 . S
H51 C23 0.930 . S
H52 C31 0.929 . S
H53 C33 0.931 . S
Cd54 N57 2.334 . S
Cd54 N83 2.304 . S
Cd54 O90 2.268 1_455 S
Cd54 O93 2.273 . S
Cd54 O94 2.417 1_455 S
Cd54 O95 2.330 . S
Cd55 N70 2.304 . S
Cd55 N74 2.334 . S
Cd55 O91 2.273 1_455 S
Cd55 O92 2.268 . S
Cd55 O96 2.417 . S
Cd55 O97 2.330 1_455 S
C56 N57 1.332 . S
C56 C60 1.381 . S
C56 H62 0.931 . S
N57 Cd54 2.334 . S
N57 C56 1.332 . S
N57 C61 1.328 1_455 S
C58 C59 1.396 1_655 S
C58 C61 1.378 . S
C58 H100 0.931 . S
C59 C58 1.396 1_455 S
C59 C60 1.382 . S
C60 C56 1.381 . S
C60 C59 1.382 . S
C60 H101 0.930 . S
C61 N57 1.328 1_655 S
C61 C58 1.378 . S
C61 H63 0.930 . S
H62 C56 0.931 . S
H63 C61 0.930 . S
C64 O90 1.238 . S
C64 O91 1.253 . S
C65 C66 1.379 . S
C65 N70 1.337 1_655 S
C65 H71 0.929 . S
C66 C65 1.379 . S
C66 C67 1.380 1_655 S
C66 H102 0.929 . S
C67 C66 1.380 1_455 S
C67 C68 1.399 . S
C68 C67 1.399 . S
C68 C69 1.376 . S
C68 H103 0.931 . S
C69 C68 1.376 . S
C69 N70 1.338 . S
C69 H72 0.930 . S
N70 Cd55 2.304 . S
N70 C65 1.337 1_455 S
N70 C69 1.338 . S
H71 C65 0.929 . S
H72 C69 0.930 . S
C73 N74 1.332 1_655 S
C73 C77 1.381 . S
C73 H79 0.931 . S
N74 Cd55 2.334 . S
N74 C73 1.332 1_455 S
N74 C78 1.328 . S
C75 C76 1.396 1_455 S
C75 C78 1.378 . S
C75 H104 0.931 . S
C76 C75 1.396 1_655 S
C76 C77 1.382 . S
C77 C73 1.381 . S
C77 C76 1.382 . S
C77 H105 0.930 . S
C78 N74 1.328 . S
C78 C75 1.378 . S
C78 H80 0.930 . S
H79 C73 0.931 . S
H80 C78 0.930 . S
C81 O92 1.238 . S
C81 O93 1.253 . S
C82 O94 1.239 . S
C82 O95 1.230 1_655 S
N83 Cd54 2.304 . S
N83 C84 1.337 . S
N83 C88 1.338 1_455 S
C84 N83 1.337 . S
C84 C85 1.379 . S
C84 H98 0.929 . S
C85 C84 1.379 . S
C85 C86 1.380 . S
C85 H106 0.929 . S
C86 C85 1.380 . S
C86 C87 1.399 1_455 S
C87 C86 1.399 1_655 S
C87 C88 1.376 . S
C87 H107 0.931 . S
C88 N83 1.338 1_655 S
C88 C87 1.376 . S
C88 H99 0.930 . S
C89 O96 1.239 . S
C89 O97 1.230 1_455 S
O90 Cd54 2.268 1_655 S
O90 C64 1.238 . S
O91 Cd55 2.273 1_655 S
O91 C64 1.253 . S
O92 Cd55 2.268 . S
O92 C81 1.238 . S
O93 Cd54 2.273 . S
O93 C81 1.253 . S
O94 Cd54 2.417 1_655 S
O94 C82 1.239 . S
O95 Cd54 2.330 . S
O95 C82 1.230 1_455 S
O96 Cd55 2.417 . S
O96 C89 1.239 . S
O97 Cd55 2.330 1_655 S
O97 C89 1.230 1_655 S
H98 C84 0.929 . S
H99 C88 0.930 . S
H100 C58 0.931 . S
H101 C60 0.930 . S
H102 C66 0.929 . S
H103 C68 0.931 . S
H104 C75 0.931 . S
H105 C77 0.930 . S
H106 C85 0.929 . S
H107 C87 0.931 . S
Cd108 N111 2.334 . S
Cd108 N137 2.304 . S
Cd108 O144 2.268 . S
Cd108 O147 2.273 . S
Cd108 O148 2.417 . S
Cd108 O149 2.330 . S
Cd109 N124 2.304 . S
Cd109 N128 2.334 . S
Cd109 O145 2.273 . S
Cd109 O146 2.268 . S
Cd109 O150 2.417 . S
Cd109 O151 2.330 . S
C110 N111 1.332 . S
C110 C114 1.381 . S
C110 H116 0.931 . S
N111 Cd108 2.334 . S
N111 C110 1.332 . S
N111 C115 1.328 . S
C112 C113 1.396 . S
C112 C115 1.378 . S
C112 H154 0.931 . S
C113 C112 1.396 . S
C113 C114 1.382 . S
C114 C110 1.381 . S
C114 C113 1.382 . S
C114 H155 0.930 . S
C115 N111 1.328 . S
C115 C112 1.378 . S
C115 H117 0.930 . S
H116 C110 0.931 . S
H117 C115 0.930 . S
C118 O144 1.238 . S
C118 O145 1.253 . S
C119 C120 1.379 . S
C119 N124 1.337 . S
C119 H125 0.929 . S
C120 C119 1.379 . S
C120 C121 1.380 . S
C120 H156 0.929 . S
C121 C120 1.380 . S
C121 C122 1.399 . S
C122 C121 1.399 . S
C122 C123 1.376 . S
C122 H157 0.931 . S
C123 C122 1.376 . S
C123 N124 1.338 . S
C123 H126 0.930 . S
N124 Cd109 2.304 . S
N124 C119 1.337 . S
N124 C123 1.338 . S
H125 C119 0.929 . S
H126 C123 0.930 . S
C127 N128 1.332 . S
C127 C131 1.381 . S
C127 H133 0.931 . S
N128 Cd109 2.334 . S
N128 C127 1.332 . S
N128 C132 1.328 . S
C129 C130 1.396 . S
C129 C132 1.378 . S
C129 H158 0.931 . S
C130 C129 1.396 . S
C130 C131 1.382 . S
C131 C127 1.381 . S
C131 C130 1.382 . S
C131 H159 0.930 . S
C132 N128 1.328 . S
C132 C129 1.378 . S
C132 H134 0.930 . S
H133 C127 0.931 . S
H134 C132 0.930 . S
C135 O146 1.238 . S
C135 O147 1.253 . S
C136 O148 1.239 . S
C136 O149 1.230 . S
N137 Cd108 2.304 . S
N137 C138 1.337 . S
N137 C142 1.338 . S
C138 N137 1.337 . S
C138 C139 1.379 . S
C138 H152 0.929 . S
C139 C138 1.379 . S
C139 C140 1.380 . S
C139 H160 0.929 . S
C140 C139 1.380 . S
C140 C141 1.399 . S
C141 C140 1.399 . S
C141 C142 1.376 . S
C141 H161 0.931 . S
C142 N137 1.338 . S
C142 C141 1.376 . S
C142 H153 0.930 . S
C143 O150 1.239 . S
C143 O151 1.230 . S
O144 Cd108 2.268 . S
O144 C118 1.238 . S
O145 Cd109 2.273 . S
O145 C118 1.253 . S
O146 Cd109 2.268 . S
O146 C135 1.238 . S
O147 Cd108 2.273 . S
O147 C135 1.253 . S
O148 Cd108 2.417 . S
O148 C136 1.239 . S
O149 Cd108 2.330 . S
O149 C136 1.230 . S
O150 Cd109 2.417 . S
O150 C143 1.239 . S
O151 Cd109 2.330 . S
O151 C143 1.230 . S
H152 C138 0.929 . S
H153 C142 0.930 . S
H154 C112 0.931 . S
H155 C114 0.930 . S
H156 C120 0.929 . S
H157 C122 0.931 . S
H158 C129 0.931 . S
H159 C131 0.930 . S
H160 C139 0.929 . S
H161 C141 0.931 . S
Cd162 N165 2.334 . S
Cd162 N191 2.304 . S
Cd162 O198 2.268 . S
Cd162 O201 2.273 . S
Cd162 O202 2.417 . S
Cd162 O203 2.330 . S
Cd163 N178 2.304 . S
Cd163 N182 2.334 . S
Cd163 O199 2.273 . S
Cd163 O200 2.268 . S
Cd163 O204 2.417 . S
Cd163 O205 2.330 . S
C164 N165 1.332 . S
C164 C168 1.381 . S
C164 H170 0.931 . S
N165 Cd162 2.334 . S
N165 C164 1.332 . S
N165 C169 1.328 . S
C166 C167 1.396 . S
C166 C169 1.378 . S
C166 H208 0.931 . S
C167 C166 1.396 . S
C167 C168 1.382 . S
C168 C164 1.381 . S
C168 C167 1.382 . S
C168 H209 0.930 . S
C169 N165 1.328 . S
C169 C166 1.378 . S
C169 H171 0.930 . S
H170 C164 0.931 . S
H171 C169 0.930 . S
C172 O198 1.238 . S
C172 O199 1.253 . S
C173 C174 1.379 . S
C173 N178 1.337 . S
C173 H179 0.929 . S
C174 C173 1.379 . S
C174 C175 1.380 . S
C174 H210 0.929 . S
C175 C174 1.380 . S
C175 C176 1.399 . S
C176 C175 1.399 . S
C176 C177 1.376 . S
C176 H211 0.931 . S
C177 C176 1.376 . S
C177 N178 1.338 . S
C177 H180 0.930 . S
N178 Cd163 2.304 . S
N178 C173 1.337 . S
N178 C177 1.338 . S
H179 C173 0.929 . S
H180 C177 0.930 . S
C181 N182 1.332 . S
C181 C185 1.381 . S
C181 H187 0.931 . S
N182 Cd163 2.334 . S
N182 C181 1.332 . S
N182 C186 1.328 . S
C183 C184 1.396 . S
C183 C186 1.378 . S
C183 H212 0.931 . S
C184 C183 1.396 . S
C184 C185 1.382 . S
C185 C181 1.381 . S
C185 C184 1.382 . S
C185 H213 0.930 . S
C186 N182 1.328 . S
C186 C183 1.378 . S
C186 H188 0.930 . S
H187 C181 0.931 . S
H188 C186 0.930 . S
C189 O200 1.238 . S
C189 O201 1.253 . S
C190 O202 1.239 . S
C190 O203 1.230 . S
N191 Cd162 2.304 . S
N191 C192 1.337 . S
N191 C196 1.338 . S
C192 N191 1.337 . S
C192 C193 1.379 . S
C192 H206 0.929 . S
C193 C192 1.379 . S
C193 C194 1.380 . S
C193 H214 0.929 . S
C194 C193 1.380 . S
C194 C195 1.399 . S
C195 C194 1.399 . S
C195 C196 1.376 . S
C195 H215 0.931 . S
C196 N191 1.338 . S
C196 C195 1.376 . S
C196 H207 0.930 . S
C197 O204 1.239 . S
C197 O205 1.230 . S
O198 Cd162 2.268 . S
O198 C172 1.238 . S
O199 Cd163 2.273 . S
O199 C172 1.253 . S
O200 Cd163 2.268 . S
O200 C189 1.238 . S
O201 Cd162 2.273 . S
O201 C189 1.253 . S
O202 Cd162 2.417 . S
O202 C190 1.239 . S
O203 Cd162 2.330 . S
O203 C190 1.230 . S
O204 Cd163 2.417 . S
O204 C197 1.239 . S
O205 Cd163 2.330 . S
O205 C197 1.230 . S
H206 C192 0.929 . S
H207 C196 0.930 . S
H208 C166 0.931 . S
H209 C168 0.930 . S
H210 C174 0.929 . S
H211 C176 0.931 . S
H212 C183 0.931 . S
H213 C185 0.930 . S
H214 C193 0.929 . S
H215 C195 0.931 . S
C216 C217 1.349 . S
C216 C218 1.327 . S
C216 H241 0.950 . S
C217 C216 1.349 . S
C217 C233 1.349 1_655 S
C218 C216 1.327 . S
C218 C237 1.429 . S
C218 H242 0.950 . S
C219 C236 1.574 . S
C219 C238 1.360 1_455 S
C219 H243 0.949 . S
H220 C224 0.949 . S
C221 C222 1.349 . S
C221 C223 1.327 . S
C221 H244 0.950 . S
C222 C221 1.349 . S
C222 C234 1.349 1_455 S
C223 C221 1.327 . S
C223 C239 1.429 . S
C223 H245 0.950 . S
C224 H220 0.949 . S
C224 C232 1.574 . S
C224 C240 1.368 1_655 S
H225 C233 0.950 . S
H226 C231 0.950 . S
H227 C232 0.949 . S
H228 C234 0.950 . S
H229 C235 0.950 . S
H230 C236 0.949 . S
C231 H226 0.950 . S
C231 C233 1.327 . S
C231 C237 1.429 1_455 S
C232 C224 1.574 . S
C232 H227 0.949 . S
C232 C238 1.375 . S
C233 C217 1.349 1_455 S
C233 H225 0.950 . S
C233 C231 1.327 . S
C234 C222 1.349 1_655 S
C234 H228 0.950 . S
C234 C235 1.327 . S
C235 H229 0.950 . S
C235 C234 1.327 . S
C235 C239 1.429 1_655 S
C236 C219 1.574 . S
C236 H230 0.949 . S
C236 C240 1.368 . S
C237 C218 1.429 . S
C237 C231 1.429 1_655 S
C237 C238 1.525 . S
C238 C219 1.360 1_655 S
C238 C232 1.375 . S
C238 C237 1.525 . S
C239 C223 1.429 . S
C239 C235 1.429 1_455 S
C239 C240 1.523 . S
C240 C224 1.368 1_455 S
C240 C236 1.368 . S
C240 C239 1.523 . S
H241 C216 0.950 . S
H242 C218 0.950 . S
H243 C219 0.949 . S
H244 C221 0.950 . S
H245 C223 0.950 . S
C246 C247 1.349 1_655 S
C246 C248 1.327 . S
C246 H271 0.950 . S
C247 C246 1.349 1_455 S
C247 C263 1.349 . S
C248 C246 1.327 . S
C248 C267 1.429 1_655 S
C248 H272 0.950 . S
C249 C266 1.574 . S
C249 C268 1.368 . S
C249 H273 0.949 . S
H250 C254 0.949 . S
C251 C252 1.349 . S
C251 C253 1.327 . S
C251 H274 0.950 . S
C252 C251 1.349 . S
C252 C264 1.349 . S
C253 C251 1.327 . S
C253 C269 1.429 . S
C253 H275 0.950 . S
C254 H250 0.949 . S
C254 C262 1.574 . S
C254 C270 1.368 1_655 S
H255 C263 0.950 . S
H256 C261 0.950 . S
H257 C262 0.949 . S
H258 C264 0.950 1_655 S
H259 C265 0.950 . S
H260 C266 0.949 . S
C261 H256 0.950 . S
C261 C263 1.327 . S
C261 C267 1.429 . S
C262 C254 1.574 . S
C262 H257 0.949 . S
C262 C268 1.368 1_655 S
C263 C247 1.349 . S
C263 H255 0.950 . S
C263 C261 1.327 . S
C264 C252 1.349 . S
C264 H258 0.950 1_455 S
C264 C265 1.327 1_455 S
C265 H259 0.950 . S
C265 C264 1.327 1_655 S
C265 C269 1.429 1_655 S
C266 C249 1.574 . S
C266 H260 0.949 . S
C266 C270 1.368 . S
C267 C248 1.429 1_455 S
C267 C261 1.429 . S
C267 C268 1.523 . S
C268 C249 1.368 . S
C268 C262 1.368 1_455 S
C268 C267 1.523 . S
C269 C253 1.429 . S
C269 C265 1.429 1_455 S
C269 C270 1.523 . S
C270 C254 1.368 1_455 S
C270 C266 1.368 . S
C270 C269 1.523 . S
H271 C246 0.950 . S
H272 C248 0.950 . S
H273 C249 0.949 . S
H274 C251 0.950 . S
H275 C253 0.950 . S
C276 C277 1.349 . S
C276 C278 1.327 . S
C276 H301 0.950 . S
C277 C276 1.349 . S
C277 C293 1.349 . S
C278 C276 1.327 . S
C278 C297 1.429 . S
C278 H302 0.950 . S
C279 C296 1.574 . S
C279 C298 1.368 . S
C279 H303 0.949 . S
H280 C284 0.949 . S
C281 C282 1.349 . S
C281 C283 1.327 . S
C281 H304 0.950 . S
C282 C281 1.349 . S
C282 C294 1.349 . S
C283 C281 1.327 . S
C283 C299 1.429 . S
C283 H305 0.950 . S
C284 H280 0.949 . S
C284 C292 1.574 . S
C284 C300 1.368 . S
H285 C293 0.950 . S
H286 C291 0.950 . S
H287 C292 0.949 . S
H288 C294 0.950 . S
H289 C295 0.950 . S
H290 C296 0.949 . S
C291 H286 0.950 . S
C291 C293 1.327 . S
C291 C297 1.429 . S
C292 C284 1.574 . S
C292 H287 0.949 . S
C292 C298 1.368 . S
C293 C277 1.349 . S
C293 H285 0.950 . S
C293 C291 1.327 . S
C294 C282 1.349 . S
C294 H288 0.950 . S
C294 C295 1.327 . S
C295 H289 0.950 . S
C295 C294 1.327 . S
C295 C299 1.429 . S
C296 C279 1.574 . S
C296 H290 0.949 . S
C296 C300 1.368 . S
C297 C278 1.429 . S
C297 C291 1.429 . S
C297 C298 1.523 . S
C298 C279 1.368 . S
C298 C292 1.368 . S
C298 C297 1.523 . S
C299 C283 1.429 . S
C299 C295 1.429 . S
C299 C300 1.523 . S
C300 C284 1.368 . S
C300 C296 1.368 . S
C300 C299 1.523 . S
H301 C276 0.950 . S
H302 C278 0.950 . S
H303 C279 0.949 . S
H304 C281 0.950 . S
H305 C283 0.950 . S
C306 C307 1.349 . S
C306 C308 1.327 . S
C306 H331 0.950 . S
C307 C306 1.349 . S
C307 C323 1.349 . S
C308 C306 1.327 . S
C308 C327 1.429 . S
C308 H332 0.950 . S
C309 C326 1.574 . S
C309 C328 1.368 . S
C309 H333 0.949 . S
H310 C314 0.949 . S
C311 C312 1.349 . S
C311 C313 1.327 . S
C311 H334 0.950 . S
C312 C311 1.349 . S
C312 C324 1.349 . S
C313 C311 1.327 . S
C313 C329 1.429 . S
C313 H335 0.950 . S
C314 H310 0.949 . S
C314 C322 1.574 . S
C314 C330 1.368 . S
H315 C323 0.950 . S
H316 C321 0.950 . S
H317 C322 0.949 . S
H318 C324 0.950 . S
H319 C325 0.950 . S
H320 C326 0.949 . S
C321 H316 0.950 . S
C321 C323 1.327 . S
C321 C327 1.429 . S
C322 C314 1.574 . S
C322 H317 0.949 . S
C322 C328 1.368 . S
C323 C307 1.349 . S
C323 H315 0.950 . S
C323 C321 1.327 . S
C324 C312 1.349 . S
C324 H318 0.950 . S
C324 C325 1.327 . S
C325 H319 0.950 . S
C325 C324 1.327 . S
C325 C329 1.429 . S
C326 C309 1.574 . S
C326 H320 0.949 . S
C326 C330 1.368 . S
C327 C308 1.429 . S
C327 C321 1.429 . S
C327 C328 1.523 . S
C328 C309 1.368 . S
C328 C322 1.368 . S
C328 C327 1.523 . S
C329 C313 1.429 . S
C329 C325 1.429 . S
C329 C330 1.523 . S
C330 C314 1.368 . S
C330 C326 1.368 . S
C330 C329 1.523 . S
H331 C306 0.950 . S
H332 C308 0.950 . S
H333 C309 0.949 . S
H334 C311 0.950 . S
H335 C313 0.950 . S
C336 C337 1.349 . S
C336 C338 1.327 . S
C336 H361 0.950 . S
C337 C336 1.349 . S
C337 C353 1.349 . S
C338 C336 1.327 . S
C338 C357 1.429 . S
C338 H362 0.950 . S
C339 C356 1.574 . S
C339 C358 1.368 . S
C339 H363 0.949 . S
H340 C344 0.949 . S
C341 C342 1.349 . S
C341 C343 1.327 . S
C341 H364 0.950 . S
C342 C341 1.349 . S
C342 C354 1.349 . S
C343 C341 1.327 . S
C343 C359 1.429 . S
C343 H365 0.950 . S
C344 H340 0.949 . S
C344 C352 1.574 . S
C344 C360 1.368 . S
H345 C353 0.950 . S
H346 C351 0.950 . S
H347 C352 0.949 . S
H348 C354 0.950 . S
H349 C355 0.950 . S
H350 C356 0.949 . S
C351 H346 0.950 . S
C351 C353 1.327 . S
C351 C357 1.429 . S
C352 C344 1.574 . S
C352 H347 0.949 . S
C352 C358 1.368 . S
C353 C337 1.349 . S
C353 H345 0.950 . S
C353 C351 1.327 . S
C354 C342 1.349 . S
C354 H348 0.950 . S
C354 C355 1.327 . S
C355 H349 0.950 . S
C355 C354 1.327 . S
C355 C359 1.429 . S
C356 C339 1.574 . S
C356 H350 0.949 . S
C356 C360 1.368 . S
C357 C338 1.429 . S
C357 C351 1.429 . S
C357 C358 1.523 . S
C358 C339 1.368 . S
C358 C352 1.368 . S
C358 C357 1.523 . S
C359 C343 1.429 . S
C359 C355 1.429 . S
C359 C360 1.523 . S
C360 C344 1.368 . S
C360 C356 1.368 . S
C360 C359 1.523 . S
H361 C336 0.950 . S
H362 C338 0.950 . S
H363 C339 0.949 . S
H364 C341 0.950 . S
H365 C343 0.950 . S
C366 C367 1.349 . S
C366 C368 1.327 . S
C366 H391 0.950 . S
C367 C366 1.349 . S
C367 C383 1.349 . S
C368 C366 1.327 . S
C368 C387 1.429 . S
C368 H392 0.950 . S
C369 C386 1.574 . S
C369 C388 1.368 . S
C369 H393 0.949 . S
H370 C374 0.949 . S
C371 C372 1.349 . S
C371 C373 1.327 . S
C371 H394 0.950 . S
C372 C371 1.349 . S
C372 C384 1.349 . S
C373 C371 1.327 . S
C373 C389 1.429 . S
C373 H395 0.950 . S
C374 H370 0.949 . S
C374 C382 1.574 . S
C374 C390 1.368 . S
H375 C383 0.950 . S
H376 C381 0.950 . S
H377 C382 0.949 . S
H378 C384 0.950 . S
H379 C385 0.950 . S
H380 C386 0.949 . S
C381 H376 0.950 . S
C381 C383 1.327 . S
C381 C387 1.429 . S
C382 C374 1.574 . S
C382 H377 0.949 . S
C382 C388 1.368 . S
C383 C367 1.349 . S
C383 H375 0.950 . S
C383 C381 1.327 . S
C384 C372 1.349 . S
C384 H378 0.950 . S
C384 C385 1.327 . S
C385 H379 0.950 . S
C385 C384 1.327 . S
C385 C389 1.429 . S
C386 C369 1.574 . S
C386 H380 0.949 . S
C386 C390 1.368 . S
C387 C368 1.429 . S
C387 C381 1.429 . S
C387 C388 1.523 . S
C388 C369 1.368 . S
C388 C382 1.368 . S
C388 C387 1.523 . S
C389 C373 1.429 . S
C389 C385 1.429 . S
C389 C390 1.523 . S
C390 C374 1.368 . S
C390 C386 1.368 . S
C390 C389 1.523 . S
H391 C366 0.950 . S
H392 C368 0.950 . S
H393 C369 0.949 . S
H394 C371 0.950 . S
H395 C373 0.950 . S
C396 C397 1.349 . S
C396 C398 1.327 . S
C396 H421 0.950 . S
C397 C396 1.349 . S
C397 C413 1.349 . S
C398 C396 1.327 . S
C398 C417 1.429 . S
C398 H422 0.950 . S
C399 C416 1.574 1_655 S
C399 C418 1.368 . S
C399 H423 0.949 . S
H400 C404 0.949 . S
C401 C402 1.349 . S
C401 C403 1.327 . S
C401 H424 0.950 . S
C402 C401 1.349 . S
C402 C414 1.349 . S
C403 C401 1.327 . S
C403 C419 1.429 . S
C403 H425 0.950 . S
C404 H400 0.949 . S
C404 C412 1.574 1_455 S
C404 C420 1.368 . S
H405 C413 0.950 . S
H406 C411 0.950 . S
H407 C412 0.949 . S
H408 C414 0.950 . S
H409 C415 0.950 . S
H410 C416 0.949 . S
C411 H406 0.950 . S
C411 C413 1.327 . S
C411 C417 1.429 . S
C412 C404 1.574 1_655 S
C412 H407 0.949 . S
C412 C418 1.368 . S
C413 C397 1.349 . S
C413 H405 0.950 . S
C413 C411 1.327 . S
C414 C402 1.349 . S
C414 H408 0.950 . S
C414 C415 1.327 . S
C415 H409 0.950 . S
C415 C414 1.327 . S
C415 C419 1.429 . S
C416 C399 1.574 1_455 S
C416 H410 0.949 . S
C416 C420 1.368 . S
C417 C398 1.429 . S
C417 C411 1.429 . S
C417 C418 1.523 . S
C418 C399 1.368 . S
C418 C412 1.368 . S
C418 C417 1.523 . S
C419 C403 1.429 . S
C419 C415 1.429 . S
C419 C420 1.523 . S
C420 C404 1.368 . S
C420 C416 1.368 . S
C420 C419 1.523 . S
H421 C396 0.950 . S
H422 C398 0.950 . S
H423 C399 0.949 . S
H424 C401 0.950 . S
H425 C403 0.950 . S
C426 C427 1.349 . S
C426 C428 1.327 . S
C426 H451 0.950 . S
C427 C426 1.349 . S
C427 C443 1.349 . S
C428 C426 1.327 . S
C428 C447 1.429 . S
C428 H452 0.950 . S
C429 C446 1.574 1_655 S
C429 C448 1.368 . S
C429 H453 0.949 . S
H430 C434 0.949 . S
C431 C432 1.349 . S
C431 C433 1.327 . S
C431 H454 0.950 . S
C432 C431 1.349 . S
C432 C444 1.349 . S
C433 C431 1.327 . S
C433 C449 1.429 . S
C433 H455 0.950 . S
C434 H430 0.949 . S
C434 C442 1.574 1_455 S
C434 C450 1.368 . S
H435 C443 0.950 . S
H436 C441 0.950 . S
H437 C442 0.949 . S
H438 C444 0.950 . S
H439 C445 0.950 . S
H440 C446 0.949 . S
C441 H436 0.950 . S
C441 C443 1.327 . S
C441 C447 1.429 . S
C442 C434 1.574 1_655 S
C442 H437 0.949 . S
C442 C448 1.368 . S
C443 C427 1.349 . S
C443 H435 0.950 . S
C443 C441 1.327 . S
C444 C432 1.349 . S
C444 H438 0.950 . S
C444 C445 1.327 . S
C445 H439 0.950 . S
C445 C444 1.327 . S
C445 C449 1.429 . S
C446 C429 1.574 1_455 S
C446 H440 0.949 . S
C446 C450 1.368 . S
C447 C428 1.429 . S
C447 C441 1.429 . S
C447 C448 1.523 . S
C448 C429 1.368 . S
C448 C442 1.368 . S
C448 C447 1.523 . S
C449 C433 1.429 . S
C449 C445 1.429 . S
C449 C450 1.523 . S
C450 C434 1.368 . S
C450 C446 1.368 . S
C450 C449 1.523 . S
H451 C426 0.950 . S
H452 C428 0.950 . S
H453 C429 0.949 . S
H454 C431 0.950 . S
H455 C433 0.950 . S
C456 C457 1.349 . S
C456 C458 1.327 . S
C456 H481 0.950 . S
C457 C456 1.349 . S
C457 C473 1.349 . S
C458 C456 1.327 . S
C458 C477 1.429 . S
C458 H482 0.950 . S
C459 C476 1.574 . S
C459 C478 1.368 . S
C459 H483 0.949 . S
H460 C464 0.949 . S
C461 C462 1.349 . S
C461 C463 1.327 . S
C461 H484 0.950 . S
C462 C461 1.349 . S
C462 C474 1.349 . S
C463 C461 1.327 . S
C463 C479 1.429 . S
C463 H485 0.950 . S
C464 H460 0.949 . S
C464 C472 1.574 . S
C464 C480 1.368 . S
H465 C473 0.950 . S
H466 C471 0.950 . S
H467 C472 0.949 . S
H468 C474 0.950 . S
H469 C475 0.950 . S
H470 C476 0.949 . S
C471 H466 0.950 . S
C471 C473 1.327 . S
C471 C477 1.429 . S
C472 C464 1.574 . S
C472 H467 0.949 . S
C472 C478 1.368 . S
C473 C457 1.349 . S
C473 H465 0.950 . S
C473 C471 1.327 . S
C474 C462 1.349 . S
C474 H468 0.950 . S
C474 C475 1.327 . S
C475 H469 0.950 . S
C475 C474 1.327 . S
C475 C479 1.429 . S
C476 C459 1.574 . S
C476 H470 0.949 . S
C476 C480 1.368 . S
C477 C458 1.429 . S
C477 C471 1.429 . S
C477 C478 1.523 . S
C478 C459 1.368 . S
C478 C472 1.368 . S
C478 C477 1.523 . S
C479 C463 1.429 . S
C479 C475 1.429 . S
C479 C480 1.523 . S
C480 C464 1.368 . S
C480 C476 1.368 . S
C480 C479 1.523 . S
H481 C456 0.950 . S
H482 C458 0.950 . S
H483 C459 0.949 . S
H484 C461 0.950 . S
H485 C463 0.950 . S
C486 C487 1.349 . S
C486 C488 1.327 . S
C486 H511 0.950 . S
C487 C486 1.349 . S
C487 C503 1.349 . S
C488 C486 1.327 . S
C488 C507 1.429 . S
C488 H512 0.950 1_556 S
C489 C506 1.574 . S
C489 C508 1.368 . S
C489 H513 0.949 . S
H490 C494 0.949 . S
C491 C492 1.349 . S
C491 C493 1.327 . S
C491 H514 0.950 . S
C492 C491 1.349 . S
C492 C504 1.349 . S
C493 C491 1.327 . S
C493 C509 1.429 . S
C493 H515 0.950 1_554 S
C494 H490 0.949 . S
C494 C502 1.574 . S
C494 C510 1.368 . S
H495 C503 0.950 . S
H496 C501 0.950 . S
H497 C502 0.949 . S
H498 C504 0.950 . S
H499 C505 0.950 . S
H500 C506 0.949 . S
C501 H496 0.950 . S
C501 C503 1.327 . S
C501 C507 1.429 . S
C502 C494 1.574 . S
C502 H497 0.949 . S
C502 C508 1.368 1_554 S
C503 C487 1.349 . S
C503 H495 0.950 . S
C503 C501 1.327 . S
C504 C492 1.349 . S
C504 H498 0.950 . S
C504 C505 1.327 . S
C505 H499 0.950 . S
C505 C504 1.327 . S
C505 C509 1.429 . S
C506 C489 1.574 . S
C506 H500 0.949 . S
C506 C510 1.368 1_556 S
C507 C488 1.429 . S
C507 C501 1.429 . S
C507 C508 1.523 . S
C508 C489 1.368 . S
C508 C502 1.368 1_556 S
C508 C507 1.523 . S
C509 C493 1.429 . S
C509 C505 1.429 . S
C509 C510 1.523 . S
C510 C494 1.368 . S
C510 C506 1.368 1_554 S
C510 C509 1.523 . S
H511 C486 0.950 . S
H512 C488 0.950 1_554 S
H513 C489 0.949 . S
H514 C491 0.950 . S
H515 C493 0.950 1_556 S
C516 C517 1.349 . S
C516 C518 1.327 . S
C516 H541 0.950 . S
C517 C516 1.349 . S
C517 C533 1.349 . S
C518 C516 1.327 . S
C518 C537 1.429 . S
C518 H542 0.950 . S
C519 C536 1.574 . S
C519 C538 1.368 . S
C519 H543 0.949 . S
H520 C524 0.949 . S
C521 C522 1.349 . S
C521 C523 1.327 . S
C521 H544 0.950 . S
C522 C521 1.349 . S
C522 C534 1.349 . S
C523 C521 1.327 . S
C523 C539 1.429 . S
C523 H545 0.950 . S
C524 H520 0.949 . S
C524 C532 1.574 . S
C524 C540 1.368 . S
H525 C533 0.950 . S
H526 C531 0.950 . S
H527 C532 0.949 . S
H528 C534 0.950 . S
H529 C535 0.950 . S
H530 C536 0.949 . S
C531 H526 0.950 . S
C531 C533 1.327 . S
C531 C537 1.429 . S
C532 C524 1.574 . S
C532 H527 0.949 . S
C532 C538 1.368 . S
C533 C517 1.349 . S
C533 H525 0.950 . S
C533 C531 1.327 . S
C534 C522 1.349 . S
C534 H528 0.950 . S
C534 C535 1.327 . S
C535 H529 0.950 . S
C535 C534 1.327 . S
C535 C539 1.429 . S
C536 C519 1.574 . S
C536 H530 0.949 . S
C536 C540 1.368 . S
C537 C518 1.429 . S
C537 C531 1.429 . S
C537 C538 1.523 . S
C538 C519 1.368 . S
C538 C532 1.368 . S
C538 C537 1.523 . S
C539 C523 1.429 . S
C539 C535 1.429 . S
C539 C540 1.523 . S
C540 C524 1.368 . S
C540 C536 1.368 . S
C540 C539 1.523 . S
H541 C516 0.950 . S
H542 C518 0.950 . S
H543 C519 0.949 . S
H544 C521 0.950 . S
H545 C523 0.950 . S
C546 C547 1.349 . S
C546 C548 1.327 . S
C546 H571 0.950 . S
C547 C546 1.349 . S
C547 C563 1.349 . S
C548 C546 1.327 . S
C548 C567 1.429 . S
C548 H572 0.950 . S
C549 C566 1.574 . S
C549 C568 1.368 1_556 S
C549 H573 0.949 . S
H550 C554 0.949 . S
C551 C552 1.349 . S
C551 C553 1.327 . S
C551 H574 0.950 . S
C552 C551 1.349 . S
C552 C564 1.349 . S
C553 C551 1.327 . S
C553 C569 1.429 . S
C553 H575 0.950 . S
C554 H550 0.949 . S
C554 C562 1.574 . S
C554 C570 1.368 1_554 S
H555 C563 0.950 . S
H556 C561 0.950 1_556 S
H557 C562 0.949 . S
H558 C564 0.950 . S
H559 C565 0.950 1_554 S
H560 C566 0.949 . S
C561 H556 0.950 1_554 S
C561 C563 1.327 . S
C561 C567 1.429 . S
C562 C554 1.574 . S
C562 H557 0.949 . S
C562 C568 1.368 . S
C563 C547 1.349 . S
C563 H555 0.950 . S
C563 C561 1.327 . S
C564 C552 1.349 . S
C564 H558 0.950 . S
C564 C565 1.327 . S
C565 H559 0.950 1_556 S
C565 C564 1.327 . S
C565 C569 1.429 . S
C566 C549 1.574 . S
C566 H560 0.949 . S
C566 C570 1.368 . S
C567 C548 1.429 . S
C567 C561 1.429 . S
C567 C568 1.523 . S
C568 C549 1.368 1_554 S
C568 C562 1.368 . S
C568 C567 1.523 . S
C569 C553 1.429 . S
C569 C565 1.429 . S
C569 C570 1.523 . S
C570 C554 1.368 1_556 S
C570 C566 1.368 . S
C570 C569 1.523 . S
H571 C546 0.950 . S
H572 C548 0.950 . S
H573 C549 0.949 . S
H574 C551 0.950 . S
H575 C553 0.950 . S
C576 C577 1.349 1_455 S
C576 C578 1.327 . S
C576 H601 0.950 . S
C577 C576 1.349 1_655 S
C577 C593 1.349 . S
C578 C576 1.327 . S
C578 C597 1.429 1_455 S
C578 H602 0.950 . S
C579 C596 1.574 1_544 S
C579 C598 1.368 1_655 S
C579 H603 0.949 . S
H580 C584 0.949 . S
C581 C582 1.349 1_655 S
C581 C583 1.327 . S
C581 H604 0.950 . S
C582 C581 1.349 1_455 S
C582 C594 1.349 . S
C583 C581 1.327 . S
C583 C599 1.429 1_655 S
C583 H605 0.950 . S
C584 H580 0.949 . S
C584 C592 1.574 1_566 S
C584 C600 1.368 . S
H585 C593 0.950 . S
H586 C591 0.950 . S
H587 C592 0.949 . S
H588 C594 0.950 . S
H589 C595 0.950 . S
H590 C596 0.949 . S
C591 H586 0.950 . S
C591 C593 1.327 . S
C591 C597 1.429 . S
C592 C584 1.574 1_544 S
C592 H587 0.949 . S
C592 C598 1.368 . S
C593 C577 1.349 . S
C593 H585 0.950 . S
C593 C591 1.327 . S
C594 C582 1.349 . S
C594 H588 0.950 . S
C594 C595 1.327 . S
C595 H589 0.950 . S
C595 C594 1.327 . S
C595 C599 1.429 . S
C596 C579 1.574 1_566 S
C596 H590 0.949 . S
C596 C600 1.368 1_655 S
C597 C578 1.429 1_655 S
C597 C591 1.429 . S
C597 C598 1.523 1_655 S
C598 C579 1.368 1_455 S
C598 C592 1.368 . S
C598 C597 1.523 1_455 S
C599 C583 1.429 1_455 S
C599 C595 1.429 . S
C599 C600 1.523 . S
C600 C584 1.368 . S
C600 C596 1.368 1_455 S
C600 C599 1.523 . S
H601 C576 0.950 . S
H602 C578 0.950 . S
H603 C579 0.949 . S
H604 C581 0.950 . S
H605 C583 0.950 . S
C606 C607 1.349 1_655 S
C606 C608 1.327 . S
C606 H631 0.950 . S
C607 C606 1.349 1_455 S
C607 C623 1.349 . S
C608 C606 1.327 . S
C608 C627 1.429 1_655 S
C608 H632 0.950 . S
C609 C626 1.614 . S
C609 C628 1.340 1_565 S
C609 H633 0.950 . S
H610 C614 0.950 . S
C611 C612 1.349 1_455 S
C611 C613 1.327 . S
C611 H634 0.950 . S
C612 C611 1.349 1_655 S
C612 C624 1.349 . S
C613 C611 1.327 . S
C613 C629 1.422 1_455 S
C613 H635 0.950 . S
C614 H610 0.950 . S
C614 C622 1.603 . S
C614 C630 1.347 1_645 S
H615 C623 0.950 . S
H616 C621 0.950 . S
H617 C622 0.949 . S
H618 C624 0.950 . S
H619 C625 0.950 . S
H620 C626 0.949 . S
C621 H616 0.950 . S
C621 C623 1.327 . S
C621 C627 1.429 . S
C622 C614 1.603 . S
C622 H617 0.949 . S
C622 C628 1.368 1_655 S
C623 C607 1.349 . S
C623 H615 0.950 . S
C623 C621 1.327 . S
C624 C612 1.349 . S
C624 H618 0.950 . S
C624 C625 1.327 . S
C625 H619 0.950 . S
C625 C624 1.327 . S
C625 C629 1.437 . S
C626 C609 1.614 . S
C626 H620 0.949 . S
C626 C630 1.368 . S
C627 C608 1.429 1_455 S
C627 C621 1.429 . S
C627 C628 1.523 . S
C628 C609 1.340 1_545 S
C628 C622 1.368 1_455 S
C628 C627 1.523 . S
C629 C613 1.422 1_655 S
C629 C625 1.437 . S
C629 C630 1.521 1_655 S
C630 C614 1.347 1_465 S
C630 C626 1.368 . S
C630 C629 1.521 1_455 S
H631 C606 0.950 . S
H632 C608 0.950 . S
H633 C609 0.950 . S
H634 C611 0.950 . S
H635 C613 0.950 . S
C636 C637 1.349 . S
C636 C638 1.327 . S
C636 H661 0.950 . S
C637 C636 1.349 . S
C637 C653 1.349 . S
C638 C636 1.327 . S
C638 C657 1.429 . S
C638 H662 0.950 . S
C639 C656 1.574 1_554 S
C639 C658 1.368 . S
C639 H663 0.949 . S
H640 C644 0.949 . S
C641 C642 1.349 . S
C641 C643 1.327 . S
C641 H664 0.950 . S
C642 C641 1.349 . S
C642 C654 1.349 . S
C643 C641 1.327 . S
C643 C659 1.429 . S
C643 H665 0.950 . S
C644 H640 0.949 . S
C644 C652 1.574 1_556 S
C644 C660 1.368 . S
H645 C653 0.950 . S
H646 C651 0.950 . S
H647 C652 0.949 . S
H648 C654 0.950 . S
H649 C655 0.950 . S
H650 C656 0.949 . S
C651 H646 0.950 . S
C651 C653 1.327 . S
C651 C657 1.429 . S
C652 C644 1.574 1_554 S
C652 H647 0.949 . S
C652 C658 1.368 . S
C653 C637 1.349 . S
C653 H645 0.950 . S
C653 C651 1.327 . S
C654 C642 1.349 . S
C654 H648 0.950 . S
C654 C655 1.327 . S
C655 H649 0.950 . S
C655 C654 1.327 . S
C655 C659 1.429 . S
C656 C639 1.574 1_556 S
C656 H650 0.949 . S
C656 C660 1.368 . S
C657 C638 1.429 . S
C657 C651 1.429 . S
C657 C658 1.523 . S
C658 C639 1.368 . S
C658 C652 1.368 . S
C658 C657 1.523 . S
C659 C643 1.429 . S
C659 C655 1.429 . S
C659 C660 1.523 . S
C660 C644 1.368 . S
C660 C656 1.368 . S
C660 C659 1.523 . S
H661 C636 0.950 . S
H662 C638 0.950 . S
H663 C639 0.949 . S
H664 C641 0.950 . S
H665 C643 0.950 . S
C666 C667 1.349 . S
C666 C668 1.327 . S
C666 H691 0.950 . S
C667 C666 1.349 . S
C667 C683 1.349 . S
C668 C666 1.327 . S
C668 C687 1.429 . S
C668 H692 0.950 . S
C669 C686 1.574 . S
C669 C688 1.368 . S
C669 H693 0.949 . S
H670 C674 0.949 . S
C671 C672 1.349 . S
C671 C673 1.327 . S
C671 H694 0.950 . S
C672 C671 1.349 . S
C672 C684 1.349 . S
C673 C671 1.327 . S
C673 C689 1.429 . S
C673 H695 0.950 . S
C674 H670 0.949 . S
C674 C682 1.574 . S
C674 C690 1.368 . S
H675 C683 0.950 . S
H676 C681 0.950 . S
H677 C682 0.949 . S
H678 C684 0.950 . S
H679 C685 0.950 . S
H680 C686 0.949 . S
C681 H676 0.950 . S
C681 C683 1.327 . S
C681 C687 1.429 . S
C682 C674 1.574 . S
C682 H677 0.949 . S
C682 C688 1.368 . S
C683 C667 1.349 . S
C683 H675 0.950 . S
C683 C681 1.327 . S
C684 C672 1.349 . S
C684 H678 0.950 . S
C684 C685 1.327 . S
C685 H679 0.950 . S
C685 C684 1.327 . S
C685 C689 1.429 . S
C686 C669 1.574 . S
C686 H680 0.949 . S
C686 C690 1.368 . S
C687 C668 1.429 . S
C687 C681 1.429 . S
C687 C688 1.523 . S
C688 C669 1.368 . S
C688 C682 1.368 . S
C688 C687 1.523 . S
C689 C673 1.429 . S
C689 C685 1.429 . S
C689 C690 1.523 . S
C690 C674 1.368 . S
C690 C686 1.368 . S
C690 C689 1.523 . S
H691 C666 0.950 . S
H692 C668 0.950 . S
H693 C669 0.949 . S
H694 C671 0.950 . S
H695 C673 0.950 . S
C217 C5 1.965 1_556 S
C222 C13 1.967 . S
C247 C59 1.966 . S
C252 C67 1.967 1_554 S
C277 C113 1.965 1_556 S
C282 C121 1.967 . S
C307 C175 1.967 1_554 S
C312 C167 1.966 . S
C337 C10 0.481 . S
C342 C27 0.481 . S
C367 C64 0.481 . S
C372 C81 0.481 . S
C397 C135 0.481 . S
C402 C118 0.481 . S
C427 C189 0.481 . S
C432 C172 0.481 . S
C457 C190 1.442 . S
C462 C35 1.442 . S
C487 C194 2.315 . S
C492 C22 2.311 . S
C517 C143 1.443 . S
C522 C82 1.443 . S
C547 C130 2.311 . S
C552 C86 2.316 . S
C577 C28 0.357 . S
C582 C89 0.357 . S
C607 C32 2.078 . S
C612 C76 2.081 . S
C637 C136 0.357 . S
C642 C197 0.357 . S
C667 C184 2.080 . S
C672 C140 2.078 . S
