# Generated by pormake.
# Topology mon, (4)-cn, num edge types: 1
# Building blocks:
#     Node 0, Type 0, BuildingBlock: ICAMEG_clean_sbu_1, # of connection points: 4
#     Node 1, Type 0, BuildingBlock: ICAMEG_clean_sbu_1, # of connection points: 4
#     Node 2, Type 0, BuildingBlock: ICAMEG_clean_sbu_1, # of connection points: 4
#     Node 3, Type 0, BuildingBlock: ICAMEG_clean_sbu_1, # of connection points: 4
#     Node 4, Type 0, BuildingBlock: ICAMEG_clean_sbu_1, # of connection points: 4
#     Node 5, Type 0, BuildingBlock: ICAMEG_clean_sbu_1, # of connection points: 4
#     Node 6, Type 0, BuildingBlock: ICAMEG_clean_sbu_1, # of connection points: 4
#     Node 7, Type 0, BuildingBlock: ICAMEG_clean_sbu_1, # of connection points: 4
#     Node 8, Type 0, BuildingBlock: ICAMEG_clean_sbu_1, # of connection points: 4
#     Node 9, Type 0, BuildingBlock: ICAMEG_clean_sbu_1, # of connection points: 4
#     Node 10, Type 0, BuildingBlock: ICAMEG_clean_sbu_1, # of connection points: 4
#     Node 11, Type 0, BuildingBlock: ICAMEG_clean_sbu_1, # of connection points: 4
#     Node 12, Type 0, BuildingBlock: ICAMEG_clean_sbu_1, # of connection points: 4
#     Node 13, Type 0, BuildingBlock: ICAMEG_clean_sbu_1, # of connection points: 4
#     Node 14, Type 0, BuildingBlock: ICAMEG_clean_sbu_1, # of connection points: 4
#     Node 15, Type 0, BuildingBlock: ICAMEG_clean_sbu_1, # of connection points: 4
#     Edge 16, Type (0, 0), BuildingBlock: KIFKEQ_clean_linker_1, # of connection points: 2
#     Edge 17, Type (0, 0), BuildingBlock: KIFKEQ_clean_linker_1, # of connection points: 2
#     Edge 18, Type (0, 0), BuildingBlock: KIFKEQ_clean_linker_1, # of connection points: 2
#     Edge 19, Type (0, 0), BuildingBlock: KIFKEQ_clean_linker_1, # of connection points: 2
#     Edge 20, Type (0, 0), BuildingBlock: KIFKEQ_clean_linker_1, # of connection points: 2
#     Edge 21, Type (0, 0), BuildingBlock: KIFKEQ_clean_linker_1, # of connection points: 2
#     Edge 22, Type (0, 0), BuildingBlock: KIFKEQ_clean_linker_1, # of connection points: 2
#     Edge 23, Type (0, 0), BuildingBlock: KIFKEQ_clean_linker_1, # of connection points: 2
#     Edge 24, Type (0, 0), BuildingBlock: KIFKEQ_clean_linker_1, # of connection points: 2
#     Edge 25, Type (0, 0), BuildingBlock: KIFKEQ_clean_linker_1, # of connection points: 2
#     Edge 26, Type (0, 0), BuildingBlock: KIFKEQ_clean_linker_1, # of connection points: 2
#     Edge 27, Type (0, 0), BuildingBlock: KIFKEQ_clean_linker_1, # of connection points: 2
#     Edge 28, Type (0, 0), BuildingBlock: KIFKEQ_clean_linker_1, # of connection points: 2
#     Edge 29, Type (0, 0), BuildingBlock: KIFKEQ_clean_linker_1, # of connection points: 2
#     Edge 30, Type (0, 0), BuildingBlock: KIFKEQ_clean_linker_1, # of connection points: 2
#     Edge 31, Type (0, 0), BuildingBlock: KIFKEQ_clean_linker_1, # of connection points: 2
#     Edge 32, Type (0, 0), BuildingBlock: KIFKEQ_clean_linker_1, # of connection points: 2
#     Edge 33, Type (0, 0), BuildingBlock: KIFKEQ_clean_linker_1, # of connection points: 2
#     Edge 34, Type (0, 0), BuildingBlock: KIFKEQ_clean_linker_1, # of connection points: 2
#     Edge 35, Type (0, 0), BuildingBlock: KIFKEQ_clean_linker_1, # of connection points: 2
#     Edge 36, Type (0, 0), BuildingBlock: KIFKEQ_clean_linker_1, # of connection points: 2
#     Edge 37, Type (0, 0), BuildingBlock: KIFKEQ_clean_linker_1, # of connection points: 2
#     Edge 38, Type (0, 0), BuildingBlock: KIFKEQ_clean_linker_1, # of connection points: 2
#     Edge 39, Type (0, 0), BuildingBlock: KIFKEQ_clean_linker_1, # of connection points: 2
#     Edge 40, Type (0, 0), BuildingBlock: KIFKEQ_clean_linker_1, # of connection points: 2
#     Edge 41, Type (0, 0), BuildingBlock: KIFKEQ_clean_linker_1, # of connection points: 2
#     Edge 42, Type (0, 0), BuildingBlock: KIFKEQ_clean_linker_1, # of connection points: 2
#     Edge 43, Type (0, 0), BuildingBlock: KIFKEQ_clean_linker_1, # of connection points: 2
#     Edge 44, Type (0, 0), BuildingBlock: KIFKEQ_clean_linker_1, # of connection points: 2
#     Edge 45, Type (0, 0), BuildingBlock: KIFKEQ_clean_linker_1, # of connection points: 2
#     Edge 46, Type (0, 0), BuildingBlock: KIFKEQ_clean_linker_1, # of connection points: 2
#     Edge 47, Type (0, 0), BuildingBlock: KIFKEQ_clean_linker_1, # of connection points: 2
# Relax obj value: 0.221
# Max RMSD: 0.232
# Mean RMSD: 0.232
data_MOF--net-mon--node1-ICAMEG_clean_sbu_1--edge1-KIFKEQ_clean_linker_1
_symmetry_space_group_name_H-M    P1
_symmetry_Int_Tables_number       1
_symmetry_cell_setting            triclinic
loop_
_symmetry_equiv_pos_as_xyz
'x, y, z'
_cell_length_a     34.95266
_cell_length_b     35.005522
_cell_length_c     96.208948
_cell_angle_alpha  90.001231
_cell_angle_beta   89.982375
_cell_angle_gamma 90.084245
loop_
_atom_site_label
_atom_site_type_symbol
_atom_site_fract_x
_atom_site_fract_y
_atom_site_fract_z
_atom_type_partial_charge
Co0 Co 1.00484 0.9791 0.58287 0.0
Co1 Co 0.02678 0.03976 0.60928 0.0
O2 O 0.02292 0.02908 0.5893 0.0
C3 C 0.06271 0.00599 0.56138 0.0
O4 O 0.07383 0.03401 0.56947 0.0
C5 C 0.99475 0.11266 0.59753 0.0
O6 O 0.96843 0.0937 0.59065 0.0
O7 O 0.9708 0.02927 0.61136 0.0
O8 O 0.97019 0.97423 0.59945 0.0
H9 H 1.00156 0.01533 0.65996 0.0
H10 H 0.99879 0.04775 0.56457 0.0
O11 O 0.03799 0.98178 0.56563 0.0
H12 H 0.86785 0.99629 0.56794 0.0
H13 H 0.9618 0.88209 0.54744 0.0
H14 H 0.99029 0.90507 0.59693 0.0
H15 H 0.92106 0.96481 0.58018 0.0
H16 H 0.9828 0.94568 0.55541 0.0
O17 O 0.01765 0.09526 0.6056 0.0
H18 H 0.99837 1.00168 0.63487 0.0
H19 H 0.06151 0.10259 0.6261 0.0
H20 H 0.96904 0.84115 0.58941 0.0
H21 H 0.94659 0.0797 0.55201 0.0
H22 H 0.95465 0.82932 0.5645 0.0
H23 H 0.88046 0.05405 0.55365 0.0
O24 O 0.04707 0.95407 0.59353 0.0
H25 H 0.14323 0.09805 0.58699 0.0
H26 H 0.09674 0.01327 0.62428 0.0
H27 H 0.16601 0.02406 0.62158 0.0
H28 H 0.1897 0.06681 0.60285 0.0
H29 H 0.07421 0.0861 0.58994 0.0
H30 H 0.06514 0.11749 0.6511 0.0
H31 H 0.03515 0.07363 0.66824 0.0
O32 O 0.03773 0.98484 0.61365 0.0
C33 C 0.95541 0.99726 0.60822 0.0
C34 C 0.01478 0.03465 0.6526 0.0
C35 C 0.05042 0.092 0.64763 0.0
N36 N 0.0298 0.0512 0.629 0.0
C37 C 0.0131 0.02703 0.63837 0.0
C38 C 0.04816 0.08346 0.63347 0.0
C39 C 0.03361 0.06737 0.65724 0.0
C40 C 0.97038 0.03586 0.56515 0.0
N41 N 0.96334 1.00384 0.57287 0.0
C42 C 0.94078 0.05433 0.55809 0.0
C43 C 0.90367 0.03999 0.55905 0.0
C44 C 0.89658 0.00759 0.56706 0.0
C45 C 0.92689 0.98988 0.57397 0.0
C46 C 0.96798 0.88689 0.55832 0.0
C47 C 0.98396 0.90023 0.58608 0.0
C48 C 0.98002 0.92282 0.56289 0.0
N49 N 0.98768 0.92916 0.57664 0.0
C50 C 0.97199 0.86393 0.58188 0.0
C51 C 0.96395 0.8573 0.5679 0.0
C52 C 0.05115 0.95686 0.6067 0.0
C53 C 0.13328 0.07932 0.59518 0.0
C54 C 0.10677 0.03159 0.616 0.0
C55 C 0.14606 0.03774 0.61457 0.0
C56 C 0.15933 0.06176 0.60407 0.0
N57 N 0.08136 0.0488 0.6072 0.0
C58 C 0.09419 0.07248 0.59692 0.0
Co59 Co 0.3085 0.73364 0.83163 0.0
Co60 Co 0.23569 0.76541 0.85247 0.0
O61 O 0.25638 0.75281 0.83412 0.0
C62 C 0.30005 0.79392 0.80955 0.0
O63 O 0.28277 0.81649 0.81843 0.0
C64 C 0.15948 0.72809 0.85213 0.0
O65 O 0.17013 0.70932 0.86331 0.0
O66 O 0.24759 0.7125 0.85916 0.0
O67 O 0.30538 0.70396 0.84933 0.0
H68 H 0.23457 0.76698 0.90472 0.0
H69 H 0.25112 0.72378 0.80919 0.0
O70 O 0.31289 0.76164 0.81348 0.0
H71 H 0.29416 0.59355 0.82081 0.0
H72 H 0.41921 0.68138 0.80402 0.0
H73 H 0.3753 0.72354 0.85025 0.0
H74 H 0.32103 0.64936 0.83303 0.0
H75 H 0.35313 0.70413 0.80742 0.0
O76 O 0.18356 0.74924 0.8458 0.0
H77 H 0.26046 0.75198 0.88152 0.0
H78 H 0.16536 0.80596 0.86239 0.0
H79 H 0.44153 0.70072 0.84734 0.0
H80 H 0.22383 0.66878 0.79658 0.0
H81 H 0.46388 0.67945 0.82408 0.0
H82 H 0.24531 0.60308 0.80239 0.0
O83 O 0.32959 0.77835 0.84204 0.0
H84 H 0.18474 0.86226 0.81864 0.0
H85 H 0.25139 0.84398 0.8633 0.0
H86 H 0.23917 0.90924 0.85482 0.0
H87 H 0.20543 0.91873 0.83236 0.0
H88 H 0.19818 0.79748 0.82738 0.0
H89 H 0.13838 0.82149 0.88538 0.0
H90 H 0.17305 0.80197 0.90676 0.0
O91 O 0.28689 0.7826 0.85937 0.0
C92 C 0.27925 0.69455 0.85792 0.0
C93 C 0.21916 0.77559 0.89549 0.0
C94 C 0.16519 0.80619 0.88463 0.0
N95 N 0.21444 0.77787 0.8706 0.0
C96 C 0.23367 0.76711 0.88232 0.0
C97 C 0.18061 0.79728 0.87164 0.0
C98 C 0.18465 0.79523 0.89662 0.0
C99 C 0.26082 0.69531 0.8117 0.0
N100 N 0.28781 0.68984 0.82177 0.0
C101 C 0.24517 0.66427 0.80456 0.0
C102 C 0.25721 0.62741 0.80783 0.0
C103 C 0.28461 0.62204 0.81817 0.0
C104 C 0.29965 0.65376 0.82508 0.0
C105 C 0.4098 0.69057 0.81421 0.0
C106 C 0.38475 0.7142 0.84011 0.0
C107 C 0.37245 0.70361 0.81619 0.0
N108 N 0.36032 0.71509 0.82903 0.0
C109 C 0.42232 0.70137 0.83852 0.0
C110 C 0.43485 0.68947 0.82547 0.0
C111 C 0.31958 0.78997 0.8541 0.0
C112 C 0.19934 0.85851 0.82847 0.0
C113 C 0.23704 0.8478 0.85346 0.0
C114 C 0.23001 0.88486 0.84874 0.0
C115 C 0.21103 0.89017 0.83615 0.0
N116 N 0.22541 0.81685 0.84588 0.0
C117 C 0.20684 0.82187 0.83352 0.0
Co118 Co 0.53086 0.02827 0.08156 0.0
Co119 Co 0.51517 0.96771 0.109 0.0
O120 O 0.51627 0.97772 0.08883 0.0
C121 C 0.47105 0.99768 0.0614 0.0
O122 O 0.46343 0.96864 0.06955 0.0
C123 C 0.53985 0.89301 0.09562 0.0
O124 O 0.54817 0.91026 0.08391 0.0
O125 O 0.5702 0.98286 0.11042 0.0
O126 O 0.56835 0.03554 0.09718 0.0
H127 H 0.54312 0.99876 0.159 0.0
H128 H 0.53639 0.95975 0.06303 0.0
O129 O 0.4947 0.02343 0.06522 0.0
H130 H 0.66526 0.01678 0.0631 0.0
H131 H 0.56293 0.12506 0.04452 0.0
H132 H 0.54462 0.1036 0.09474 0.0
H133 H 0.61322 0.04595 0.07666 0.0
H134 H 0.54631 0.06108 0.05338 0.0
O135 O 0.5294 0.91235 0.10619 0.0
H136 H 0.54262 0.01035 0.13374 0.0
H137 H 0.48678 0.90406 0.12702 0.0
H138 H 0.56159 0.16795 0.08633 0.0
H139 H 0.58727 0.93013 0.04912 0.0
H140 H 0.57085 0.17901 0.06105 0.0
H141 H 0.65243 0.95852 0.04911 0.0
O142 O 0.48958 0.05244 0.09294 0.0
H143 H 0.40133 0.90035 0.08816 0.0
H144 H 0.44489 0.98798 0.125 0.0
H145 H 0.37653 0.97163 0.12331 0.0
H146 H 0.3543 0.92734 0.10482 0.0
H147 H 0.46925 0.91797 0.09008 0.0
H148 H 0.48696 0.89121 0.15221 0.0
H149 H 0.51516 0.93881 0.1684 0.0
O150 O 0.49978 0.02172 0.11298 0.0
C151 C 0.58434 0.01474 0.10642 0.0
C152 C 0.53074 0.9778 0.15205 0.0
C153 C 0.49928 0.91742 0.14824 0.0
N154 N 0.51476 0.95792 0.12888 0.0
C155 C 0.53036 0.98421 0.13773 0.0
C156 C 0.49942 0.92479 0.13397 0.0
C157 C 0.51507 0.94415 0.15732 0.0
C158 C 0.56432 0.97273 0.06298 0.0
N159 N 0.57148 0.00483 0.07064 0.0
C160 C 0.59321 0.95561 0.05513 0.0
C161 C 0.62977 0.97149 0.05515 0.0
C162 C 0.63699 1.00413 0.06301 0.0
C163 C 0.60738 0.02043 0.07073 0.0
C164 C 0.559 0.12059 0.05556 0.0
C165 C 0.54877 0.10811 0.08373 0.0
C166 C 0.54945 0.08444 0.06065 0.0
N167 N 0.54464 0.07852 0.07459 0.0
C168 C 0.5583 0.14465 0.07903 0.0
C169 C 0.56346 0.15084 0.06484 0.0
C170 C 0.48545 0.0493 0.10608 0.0
C171 C 0.41066 0.91962 0.09628 0.0
C172 C 0.43551 0.96901 0.11683 0.0
C173 C 0.39672 0.95969 0.11598 0.0
C174 C 0.38428 0.93481 0.10562 0.0
N175 N 0.46131 0.95397 0.10765 0.0
C176 C 0.44923 0.92959 0.09746 0.0
Co177 Co 0.23382 0.26549 0.33023 0.0
Co178 Co 0.29923 0.25229 0.35634 0.0
O179 O 0.28573 0.2521 0.33643 0.0
C180 C 0.26074 0.20416 0.31007 0.0
O181 O 0.2891 0.19452 0.31826 0.0
C182 C 0.37072 0.27733 0.34088 0.0
O183 O 0.35116 0.28204 0.32939 0.0
O184 O 0.2831 0.30687 0.35785 0.0
O185 O 0.22826 0.30302 0.34589 0.0
H186 H 0.27605 0.28108 0.40684 0.0
H187 H 0.29811 0.27102 0.30993 0.0
O188 O 0.23669 0.22943 0.31389 0.0
H189 H 0.24095 0.39952 0.31124 0.0
H190 H 0.13052 0.29548 0.29535 0.0
H191 H 0.16036 0.27736 0.345 0.0
H192 H 0.21455 0.34758 0.3256 0.0
H193 H 0.19622 0.28034 0.30282 0.0
O194 O 0.35376 0.26813 0.35215 0.0
H195 H 0.26005 0.27917 0.38191 0.0
H196 H 0.36704 0.22725 0.37293 0.0
H197 H 0.09434 0.29283 0.33799 0.0
H198 H 0.32496 0.32183 0.2952 0.0
H199 H 0.07906 0.30198 0.313 0.0
H200 H 0.29649 0.38677 0.29582 0.0
O201 O 0.21262 0.22396 0.34221 0.0
H202 H 0.36562 0.13889 0.33489 0.0
H203 H 0.28273 0.18269 0.37315 0.0
H204 H 0.30042 0.11476 0.37168 0.0
H205 H 0.34235 0.09243 0.35249 0.0
H206 H 0.34674 0.20633 0.3366 0.0
H207 H 0.38429 0.22889 0.39776 0.0
H208 H 0.33859 0.25582 0.41492 0.0
O209 O 0.24613 0.23571 0.36159 0.0
C210 C 0.25016 0.31986 0.35458 0.0
C211 C 0.2962 0.26922 0.39947 0.0
C212 C 0.35696 0.23999 0.39437 0.0
N213 N 0.31251 0.25308 0.37595 0.0
C214 C 0.28727 0.26801 0.38533 0.0
C215 C 0.34707 0.23927 0.38031 0.0
C216 C 0.33129 0.25508 0.40399 0.0
C217 C 0.28525 0.29898 0.31021 0.0
N218 N 0.25477 0.30616 0.3187 0.0
C219 C 0.30074 0.32776 0.30187 0.0
C220 C 0.2848 0.36419 0.30224 0.0
C221 C 0.2537 0.37137 0.3109 0.0
C222 C 0.23901 0.34187 0.3191 0.0
C223 C 0.13682 0.29157 0.30627 0.0
C224 C 0.154 0.28144 0.33411 0.0
C225 C 0.17397 0.28285 0.31057 0.0
N226 N 0.1822 0.27806 0.32435 0.0
C227 C 0.11653 0.29014 0.3302 0.0
C228 C 0.10797 0.29524 0.31618 0.0
C229 C 0.21781 0.22052 0.35529 0.0
C230 C 0.3475 0.14829 0.34335 0.0
C231 C 0.30081 0.17328 0.3647 0.0
C232 C 0.31083 0.13473 0.36396 0.0
C233 C 0.33437 0.12222 0.3532 0.0
N234 N 0.31394 0.1988 0.35503 0.0
C235 C 0.33689 0.18663 0.34443 0.0
Co236 Co 0.99542 0.02419 0.43511 0.0
Co237 Co 0.01575 0.9737 0.40586 0.0
O238 O 0.01304 0.97724 0.42617 0.0
C239 C 0.05316 0.03461 0.45771 0.0
O240 O 0.06149 0.06828 0.45247 0.0
C241 C 0.987 0.89719 0.41555 0.0
O242 O 0.9675 0.91366 0.42553 0.0
O243 O 0.96009 0.9857 0.40463 0.0
O244 O 0.95941 0.03558 0.41927 0.0
H245 H 0.98896 0.01708 0.357 0.0
H246 H 0.9924 0.95178 0.45112 0.0
O247 O 0.02988 0.01261 0.45134 0.0
H248 H 0.85948 0.99862 0.45006 0.0
H249 H 0.95164 0.10533 0.47541 0.0
H250 H 0.98228 0.10331 0.42538 0.0
H251 H 0.91106 0.03503 0.43867 0.0
H252 H 0.97254 0.04572 0.46409 0.0
O253 O 0.00529 0.91732 0.40675 0.0
H254 H 0.98742 0.02157 0.38255 0.0
H255 H 0.04847 0.91713 0.38588 0.0
H256 H 0.96133 0.16352 0.43628 0.0
H257 H 0.9418 0.91486 0.46289 0.0
H258 H 0.94587 0.16479 0.46148 0.0
H259 H 0.87472 0.93814 0.46236 0.0
O260 O 0.03728 0.05301 0.42542 0.0
H261 H 0.13192 0.90913 0.4257 0.0
H262 H 0.08557 1.00294 0.39141 0.0
H263 H 0.15477 0.99073 0.39343 0.0
H264 H 0.17836 0.9434 0.41063 0.0
H265 H 0.06296 0.92254 0.42346 0.0
H266 H 0.05041 0.91138 0.36036 0.0
H267 H 0.02062 0.96166 0.34573 0.0
O268 O 0.02761 0.02942 0.40408 0.0
C269 C 0.94464 0.01619 0.40933 0.0
C270 C 1.00206 0.99499 0.36326 0.0
C271 C 0.03649 0.93564 0.36515 0.0
N272 N 0.01775 0.96962 0.38574 0.0
C273 C 1.0013 0.99739 0.37775 0.0
C274 C 0.03514 0.93897 0.37961 0.0
C275 C 0.0198 0.96388 0.35694 0.0
C276 C 0.96338 0.96237 0.45096 0.0
N277 N 0.95479 0.99559 0.4442 0.0
C278 C 0.9348 0.94121 0.4576 0.0
C279 C 0.89717 0.95425 0.45727 0.0
C280 C 0.88859 0.98814 0.45035 0.0
C281 C 0.91791 0.00853 0.44384 0.0
C282 C 0.95832 0.10515 0.46443 0.0
C283 C 0.97562 0.10363 0.43635 0.0
C284 C 0.97022 0.0715 0.45796 0.0
N285 N 0.97873 0.07104 0.44408 0.0
C286 C 0.96375 0.1378 0.44247 0.0
C287 C 0.95508 0.1385 0.4566 0.0
C288 C 0.04172 0.05435 0.41225 0.0
C289 C 0.12198 0.92971 0.41813 0.0
C290 C 0.09557 0.98237 0.39895 0.0
C291 C 0.13481 0.97553 0.40003 0.0
C292 C 0.14803 0.94898 0.40968 0.0
N293 N 0.07016 0.96322 0.40723 0.0
C294 C 0.08294 0.93732 0.41677 0.0
Co295 Co 0.23479 0.7254 0.68603 0.0
Co296 Co 0.29237 0.74797 0.65876 0.0
O297 O 0.28445 0.74293 0.67895 0.0
C298 C 0.25677 0.78756 0.70671 0.0
O299 O 0.26915 0.81087 0.69702 0.0
C300 C 0.36935 0.72468 0.6707 0.0
O301 O 0.35348 0.71273 0.68226 0.0
O302 O 0.27974 0.69261 0.65628 0.0
O303 O 0.2265 0.69246 0.66922 0.0
H304 H 0.25838 0.72667 0.60858 0.0
H305 H 0.30336 0.71767 0.70392 0.0
O306 O 0.24167 0.75565 0.70352 0.0
H307 H 0.25186 0.5871 0.69939 0.0
H308 H 0.14151 0.68039 0.72254 0.0
H309 H 0.15838 0.71494 0.67324 0.0
H310 H 0.21974 0.64131 0.68802 0.0
H311 H 0.20456 0.70064 0.71373 0.0
O312 O 0.34865 0.7364 0.66066 0.0
H313 H 0.24901 0.72234 0.63391 0.0
H314 H 0.35264 0.78302 0.64074 0.0
H315 H 0.0949 0.69448 0.68159 0.0
H316 H 0.33611 0.66441 0.71567 0.0
H317 H 0.08614 0.67705 0.70641 0.0
H318 H 0.31046 0.59849 0.7134 0.0
O319 O 0.20955 0.76952 0.67649 0.0
H320 H 0.35375 0.86121 0.68213 0.0
H321 H 0.2674 0.81953 0.64455 0.0
H322 H 0.28009 0.88818 0.64783 0.0
H323 H 0.32373 0.90945 0.66668 0.0
H324 H 0.33981 0.79295 0.67865 0.0
H325 H 0.3633 0.7877 0.61547 0.0
H326 H 0.3159 0.75951 0.59919 0.0
O327 O 0.23723 0.76102 0.65575 0.0
C328 C 0.24785 0.6776 0.6599 0.0
C329 C 0.27926 0.73906 0.61556 0.0
C330 C 0.33817 0.77325 0.61943 0.0
N331 N 0.3003 0.75227 0.63883 0.0
C332 C 0.2741 0.73671 0.62993 0.0
C333 C 0.33207 0.77033 0.63374 0.0
C334 C 0.31154 0.75746 0.6103 0.0
C335 C 0.29195 0.68912 0.70289 0.0
N336 N 0.25986 0.68263 0.69513 0.0
C337 C 0.31066 0.65904 0.70957 0.0
C338 C 0.29628 0.62207 0.70828 0.0
C339 C 0.26345 0.61566 0.7004 0.0
C340 C 0.24552 0.64645 0.69388 0.0
C341 C 0.14496 0.68793 0.71171 0.0
C342 C 0.15486 0.70732 0.68405 0.0
C343 C 0.18059 0.69959 0.70666 0.0
N344 N 0.18523 0.70895 0.69297 0.0
C345 C 0.11882 0.69579 0.68872 0.0
C346 C 0.11391 0.68604 0.70265 0.0
C347 C 0.21102 0.77512 0.66337 0.0
C348 C 0.33492 0.85229 0.67381 0.0
C349 C 0.28641 0.82848 0.6528 0.0
C350 C 0.29351 0.86743 0.65459 0.0
C351 C 0.318 0.87934 0.66516 0.0
N352 N 0.30334 0.80203 0.66126 0.0
C353 C 0.32712 0.81357 0.67172 0.0
Co354 Co 0.53582 0.98633 0.93567 0.0
Co355 Co 0.51747 0.041 0.90723 0.0
O356 O 0.51881 0.0345 0.92744 0.0
C357 C 0.47706 0.97276 0.95777 0.0
O358 O 0.46981 0.93926 0.9522 0.0
C359 C 0.5447 0.11665 0.91857 0.0
O360 O 0.56348 0.09945 0.92857 0.0
O361 O 0.57324 0.02882 0.9062 0.0
O362 O 0.57295 0.9772 0.92004 0.0
H363 H 0.54773 0.00457 0.85789 0.0
H364 H 0.53733 0.05669 0.95289 0.0
O365 O 0.50005 0.99574 0.95173 0.0
H366 H 0.67041 0.01023 0.95245 0.0
H367 H 0.57718 0.90002 0.97488 0.0
H368 H 0.54983 0.90857 0.9247 0.0
H369 H 0.61988 0.97523 0.93992 0.0
H370 H 0.5569 0.96103 0.96444 0.0
O371 O 0.52785 0.09718 0.90921 0.0
H372 H 0.54756 0.99657 0.88332 0.0
H373 H 0.48562 0.10005 0.88802 0.0
H374 H 0.57014 0.84703 0.93472 0.0
H375 H 0.58684 0.09213 0.96581 0.0
H376 H 0.58393 0.84246 0.95999 0.0
H377 H 0.654 0.06904 0.96559 0.0
O378 O 0.49496 0.95848 0.92503 0.0
H379 H 0.40026 0.10319 0.92732 0.0
H380 H 0.44849 0.01434 0.89164 0.0
H381 H 0.37925 0.02675 0.89326 0.0
H382 H 0.35471 0.07161 0.91116 0.0
H383 H 0.46925 0.08963 0.92544 0.0
H384 H 0.48538 0.10934 0.86263 0.0
H385 H 0.51649 0.06132 0.84736 0.0
O386 O 0.50553 0.98578 0.90436 0.0
C387 C 0.5883 0.99767 0.91052 0.0
C388 C 0.5341 0.02572 0.86442 0.0
C389 C 0.49916 0.08454 0.86709 0.0
N390 N 0.51675 0.04787 0.88719 0.0
C391 C 0.53391 0.02134 0.87885 0.0
C392 C 0.49957 0.07922 0.88148 0.0
C393 C 0.51659 0.05757 0.85853 0.0
C394 C 0.56638 0.04615 0.95288 0.0
N395 N 0.5756 0.01382 0.94567 0.0
C396 C 0.59435 0.06649 0.96015 0.0
C397 C 0.63203 0.05356 0.96 0.0
C398 C 0.64126 0.02061 0.95261 0.0
C399 C 0.61254 1.00102 0.94546 0.0
C400 C 0.57121 0.90163 0.96386 0.0
C401 C 0.55574 0.90683 0.93571 0.0
C402 C 0.55968 0.9361 0.95788 0.0
N403 N 0.55204 0.93836 0.94396 0.0
C404 C 0.56726 0.8719 0.94132 0.0
C405 C 0.575 0.86936 0.9555 0.0
C406 C 0.49128 0.95923 0.9118 0.0
C407 C 0.41061 0.0837 0.91944 0.0
C408 C 0.43807 0.0338 0.89949 0.0
C409 C 0.39881 0.04077 0.90034 0.0
C410 C 0.38507 0.06594 0.91038 0.0
N411 N 0.463 0.0515 0.90836 0.0
C412 C 0.44969 0.07601 0.91829 0.0
Co413 Co 0.29637 0.27264 0.18638 0.0
Co414 Co 0.23307 0.25418 0.15997 0.0
O415 O 0.24526 0.25653 0.17997 0.0
C416 C 0.2721 0.21026 0.20657 0.0
O417 O 0.24568 0.19782 0.19802 0.0
C418 C 0.15906 0.27898 0.17408 0.0
O419 O 0.17697 0.28746 0.18565 0.0
O420 O 0.24736 0.30924 0.15784 0.0
O421 O 0.30128 0.30922 0.17042 0.0
H422 H 0.25849 0.27962 0.10937 0.0
H423 H 0.23084 0.2762 0.20608 0.0
O424 O 0.29411 0.23763 0.20302 0.0
H425 H 0.2815 0.4075 0.2039 0.0
H426 H 0.396 0.31018 0.22173 0.0
H427 H 0.37017 0.28679 0.17206 0.0
H428 H 0.31135 0.35601 0.19026 0.0
H429 H 0.33153 0.29133 0.21391 0.0
O430 O 0.17782 0.26813 0.16341 0.0
H431 H 0.27273 0.28073 0.13445 0.0
H432 H 0.16806 0.22363 0.14306 0.0
H433 H 0.43496 0.30594 0.17943 0.0
H434 H 0.20052 0.32662 0.22008 0.0
H435 H 0.44823 0.31776 0.20443 0.0
H436 H 0.22574 0.39293 0.21902 0.0
O437 O 0.3203 0.2313 0.17498 0.0
H438 H 0.16877 0.14134 0.18264 0.0
H439 H 0.2525 0.18316 0.14432 0.0
H440 H 0.23683 0.11492 0.14677 0.0
H441 H 0.19446 0.09356 0.166 0.0
H442 H 0.18581 0.20913 0.17997 0.0
H443 H 0.15254 0.22219 0.11807 0.0
H444 H 0.19799 0.25021 0.10102 0.0
O445 O 0.28686 0.23907 0.15536 0.0
C446 C 0.27936 0.32419 0.16132 0.0
C447 C 0.23844 0.26733 0.11669 0.0
C448 C 0.17896 0.23515 0.12158 0.0
N449 N 0.22121 0.25241 0.14024 0.0
C450 C 0.24635 0.26787 0.13092 0.0
C451 C 0.18782 0.23623 0.13573 0.0
C452 C 0.20449 0.25085 0.11202 0.0
C453 C 0.24228 0.30481 0.20564 0.0
N454 N 0.27291 0.313 0.19733 0.0
C455 C 0.22484 0.33334 0.21356 0.0
C456 C 0.23896 0.37054 0.21294 0.0
C457 C 0.2702 0.37873 0.20445 0.0
C458 C 0.28687 0.34947 0.19667 0.0
C459 C 0.39057 0.30513 0.21081 0.0
C460 C 0.37564 0.29202 0.18295 0.0
C461 C 0.35414 0.29432 0.20631 0.0
N462 N 0.34701 0.28807 0.19252 0.0
C463 C 0.41242 0.3028 0.18707 0.0
C464 C 0.41986 0.30939 0.20109 0.0
C465 C 0.31557 0.22588 0.16196 0.0
C466 C 0.18714 0.15028 0.17418 0.0
C467 C 0.23438 0.17417 0.1528 0.0
C468 C 0.22543 0.13544 0.15409 0.0
C469 C 0.20163 0.12349 0.16487 0.0
N470 N 0.22001 0.20038 0.16196 0.0
C471 C 0.19672 0.18878 0.17256 0.0
Co472 Co 0.73675 0.23935 0.18555 0.0
Co473 Co 0.79787 0.25792 0.15853 0.0
O474 O 0.78702 0.25636 0.17865 0.0
C475 C 0.76163 0.30189 0.20566 0.0
O476 O 0.7897 0.31259 0.19749 0.0
C477 C 0.87225 0.2319 0.1718 0.0
O478 O 0.854 0.21624 0.18227 0.0
O479 O 0.78551 0.20224 0.15692 0.0
O480 O 0.7323 0.20157 0.16993 0.0
H481 H 0.77097 0.2288 0.10829 0.0
H482 H 0.80448 0.23823 0.20439 0.0
O483 O 0.73866 0.27553 0.20187 0.0
H484 H 0.7552 0.10632 0.20441 0.0
H485 H 0.63966 0.20172 0.22184 0.0
H486 H 0.66286 0.22194 0.17181 0.0
H487 H 0.72348 0.1562 0.19056 0.0
H488 H 0.70324 0.22176 0.21346 0.0
O489 O 0.85369 0.24681 0.16178 0.0
H490 H 0.75807 0.22838 0.13347 0.0
H491 H 0.86058 0.29033 0.14094 0.0
H492 H 0.59894 0.20151 0.17974 0.0
H493 H 0.83657 0.18952 0.21863 0.0
H494 H 0.587 0.19129 0.20492 0.0
H495 H 0.81208 0.12289 0.21867 0.0
O496 O 0.71107 0.27932 0.17397 0.0
H497 H 0.85983 0.37383 0.17978 0.0
H498 H 0.77401 0.32752 0.14277 0.0
H499 H 0.78714 0.39644 0.14479 0.0
H500 H 0.83048 0.42004 0.16336 0.0
H501 H 0.84542 0.30522 0.17753 0.0
H502 H 0.87475 0.29116 0.11585 0.0
H503 H 0.8297 0.26034 0.09932 0.0
O504 O 0.74336 0.27039 0.15418 0.0
C505 C 0.75408 0.18668 0.16076 0.0
C506 C 0.79086 0.24228 0.11539 0.0
C507 C 0.84912 0.27722 0.11963 0.0
N508 N 0.80866 0.25906 0.13871 0.0
C509 C 0.78372 0.24211 0.12967 0.0
C510 C 0.84105 0.27646 0.13385 0.0
C511 C 0.82382 0.25996 0.11036 0.0
C512 C 0.79318 0.20957 0.20449 0.0
N513 N 0.76186 0.20032 0.19668 0.0
C514 C 0.8117 0.18197 0.21251 0.0
C515 C 0.79801 0.14457 0.21251 0.0
C516 C 0.76615 0.13526 0.2045 0.0
C517 C 0.7484 0.16362 0.1966 0.0
C518 C 0.64451 0.20607 0.21084 0.0
C519 C 0.65796 0.21741 0.18278 0.0
C520 C 0.68043 0.21757 0.20603 0.0
N521 N 0.68684 0.22293 0.19214 0.0
C522 C 0.62167 0.2059 0.18721 0.0
C523 C 0.61498 0.2002 0.20134 0.0
C524 C 0.71481 0.2836 0.16085 0.0
C525 C 0.84093 0.36391 0.17163 0.0
C526 C 0.79256 0.33751 0.15098 0.0
C527 C 0.80006 0.37661 0.15202 0.0
C528 C 0.82441 0.38982 0.16243 0.0
N529 N 0.80884 0.31222 0.16005 0.0
C530 C 0.83276 0.32502 0.17027 0.0
Co531 Co 0.78085 0.77422 0.68459 0.0
Co532 Co 0.7268 0.76175 0.65541 0.0
O533 O 0.73244 0.76042 0.67568 0.0
C534 C 0.79134 0.71313 0.70596 0.0
O535 O 0.82491 0.70548 0.70049 0.0
C536 C 0.65186 0.79035 0.66699 0.0
O537 O 0.66941 0.80594 0.67762 0.0
O538 O 0.74258 0.81683 0.65515 0.0
O539 O 0.79247 0.81272 0.66975 0.0
H540 H 0.76786 0.79462 0.60677 0.0
H541 H 0.70961 0.77592 0.70138 0.0
O542 O 0.76911 0.73684 0.69995 0.0
H543 H 0.76102 0.90698 0.70365 0.0
H544 H 0.86647 0.8079 0.72504 0.0
H545 H 0.85995 0.78614 0.67446 0.0
H546 H 0.79484 0.85708 0.69046 0.0
H547 H 0.80526 0.79123 0.71385 0.0
O548 O 0.6711 0.7752 0.65719 0.0
H549 H 0.77443 0.79137 0.63224 0.0
H550 H 0.66672 0.73571 0.6354 0.0
H551 H 0.92174 0.80284 0.68523 0.0
H552 H 0.67533 0.82471 0.71499 0.0
H553 H 0.92529 0.81381 0.7107 0.0
H554 H 0.7009 0.89088 0.71613 0.0
O555 O 0.80778 0.73394 0.6734 0.0
H556 H 0.6568 0.64671 0.67379 0.0
H557 H 0.74883 0.69303 0.6388 0.0
H558 H 0.73196 0.62471 0.63943 0.0
H559 H 0.68545 0.60114 0.65698 0.0
H560 H 0.6749 0.71471 0.67292 0.0
H561 H 0.65884 0.73865 0.60996 0.0
H562 H 0.70971 0.76815 0.59545 0.0
O563 O 0.78137 0.74667 0.65271 0.0
C564 C 0.77392 0.82991 0.66016 0.0
C565 C 0.74547 0.78172 0.61298 0.0
C566 C 0.68427 0.75037 0.61477 0.0
N567 N 0.72093 0.76352 0.63534 0.0
C568 C 0.74903 0.77979 0.62742 0.0
C569 C 0.6888 0.74898 0.62919 0.0
C570 C 0.71284 0.76688 0.60664 0.0
C571 C 0.72124 0.8045 0.70196 0.0
N572 N 0.75427 0.81354 0.6951 0.0
C573 C 0.70155 0.83208 0.70962 0.0
C574 C 0.71586 0.86921 0.71023 0.0
C575 C 0.74954 0.87827 0.70321 0.0
C576 C 0.76844 0.84993 0.69566 0.0
C577 C 0.86531 0.80314 0.71393 0.0
C578 C 0.86125 0.79079 0.68555 0.0
C579 C 0.83072 0.79365 0.70753 0.0
N580 N 0.82901 0.78752 0.6935 0.0
C581 C 0.89632 0.80029 0.69159 0.0
C582 C 0.89829 0.80645 0.70588 0.0
C583 C 0.80726 0.73116 0.66013 0.0
C584 C 0.67701 0.65665 0.66607 0.0
C585 C 0.72878 0.68303 0.64652 0.0
C586 C 0.71923 0.64429 0.6468 0.0
C587 C 0.69312 0.63109 0.65664 0.0
N588 N 0.71272 0.70801 0.65575 0.0
C589 C 0.68728 0.6952 0.66549 0.0
Co590 Co 0.79454 0.24296 0.32956 0.0
Co591 Co 0.72925 0.25715 0.35565 0.0
O592 O 0.74273 0.25689 0.33573 0.0
C593 C 0.76832 0.30423 0.30923 0.0
O594 O 0.73987 0.31418 0.31733 0.0
C595 C 0.65737 0.23276 0.34029 0.0
O596 O 0.67664 0.22838 0.32871 0.0
O597 O 0.74496 0.20248 0.3573 0.0
O598 O 0.79981 0.20571 0.34531 0.0
H599 H 0.7523 0.22918 0.40622 0.0
H600 H 0.73024 0.23759 0.30929 0.0
O601 O 0.79202 0.27874 0.31313 0.0
H602 H 0.78613 0.10857 0.31097 0.0
H603 H 0.89756 0.21124 0.29475 0.0
H604 H 0.86791 0.23081 0.34435 0.0
H605 H 0.81307 0.16058 0.32516 0.0
H606 H 0.832 0.22716 0.30219 0.0
O607 O 0.6746 0.2416 0.35153 0.0
H608 H 0.76827 0.23048 0.38128 0.0
H609 H 0.66164 0.28298 0.37221 0.0
H610 H 0.93377 0.21456 0.33737 0.0
H611 H 0.70284 0.18669 0.29474 0.0
H612 H 0.94896 0.20467 0.31241 0.0
H613 H 0.73067 0.12149 0.29555 0.0
O614 O 0.81607 0.28456 0.34142 0.0
H615 H 0.66398 0.3708 0.33392 0.0
H616 H 0.74622 0.32687 0.37232 0.0
H617 H 0.72914 0.39493 0.3707 0.0
H618 H 0.68754 0.41733 0.35143 0.0
H619 H 0.68224 0.30324 0.33578 0.0
H620 H 0.64442 0.28195 0.39705 0.0
H621 H 0.68996 0.25503 0.41426 0.0
O622 O 0.78247 0.27343 0.36084 0.0
C623 C 0.77781 0.1892 0.35406 0.0
C624 C 0.73223 0.24103 0.39882 0.0
C625 C 0.67166 0.27059 0.39367 0.0
N626 N 0.71599 0.25682 0.37527 0.0
C627 C 0.74114 0.2419 0.38468 0.0
C628 C 0.68154 0.27096 0.37961 0.0
C629 C 0.69724 0.25551 0.40333 0.0
C630 C 0.74281 0.20951 0.30965 0.0
N631 N 0.77325 0.20223 0.31815 0.0
C632 C 0.72702 0.18068 0.30141 0.0
C633 C 0.74261 0.14411 0.30188 0.0
C634 C 0.77366 0.13683 0.31055 0.0
C635 C 0.78866 0.16638 0.31865 0.0
C636 C 0.89129 0.21546 0.30566 0.0
C637 C 0.87423 0.22642 0.33347 0.0
C638 C 0.85424 0.22463 0.30994 0.0
N639 N 0.84606 0.22982 0.32371 0.0
C640 C 0.91161 0.21728 0.32958 0.0
C641 C 0.92012 0.21176 0.31557 0.0
C642 C 0.81087 0.28831 0.35449 0.0
C643 C 0.68195 0.36137 0.34241 0.0
C644 C 0.72826 0.3363 0.36385 0.0
C645 C 0.7186 0.37493 0.36301 0.0
C646 C 0.69524 0.38747 0.35222 0.0
N647 N 0.71496 0.31074 0.35422 0.0
C648 C 0.69221 0.32295 0.34358 0.0
Co649 Co 0.74054 0.77276 0.83009 0.0
Co650 Co 0.80248 0.75589 0.85709 0.0
O651 O 0.79143 0.75787 0.83701 0.0
C652 C 0.76958 0.71288 0.8097 0.0
O653 O 0.79871 0.70476 0.81775 0.0
C654 C 0.87662 0.78188 0.84348 0.0
O655 O 0.85925 0.78931 0.83172 0.0
O656 O 0.78717 0.81056 0.85902 0.0
O657 O 0.73421 0.80982 0.84588 0.0
H658 H 0.77367 0.78069 0.90749 0.0
H659 H 0.80818 0.77814 0.81111 0.0
O660 O 0.7444 0.73696 0.81361 0.0
H661 H 0.75271 0.90736 0.81207 0.0
H662 H 0.64236 0.80619 0.79371 0.0
H663 H 0.66577 0.78656 0.84375 0.0
H664 H 0.72353 0.85527 0.82562 0.0
H665 H 0.70665 0.78904 0.80216 0.0
O666 O 0.85752 0.77101 0.85406 0.0
H667 H 0.76082 0.78151 0.88231 0.0
H668 H 0.86734 0.72728 0.87448 0.0
H669 H 0.60112 0.80404 0.83575 0.0
H670 H 0.8378 0.82909 0.79721 0.0
H671 H 0.58907 0.81397 0.81056 0.0
H672 H 0.81019 0.89441 0.79765 0.0
O673 O 0.71641 0.73146 0.84148 0.0
H674 H 0.86999 0.64403 0.83512 0.0
H675 H 0.78325 0.68468 0.87267 0.0
H676 H 0.80007 0.6167 0.87043 0.0
H677 H 0.84393 0.59593 0.85158 0.0
H678 H 0.85188 0.71153 0.83758 0.0
H679 H 0.88144 0.72617 0.89957 0.0
H680 H 0.83436 0.75288 0.91628 0.0
O681 O 0.74877 0.73987 0.86131 0.0
C682 C 0.75529 0.82504 0.85522 0.0
C683 C 0.79441 0.76895 0.90032 0.0
C684 C 0.85491 0.7384 0.89587 0.0
N685 N 0.81328 0.75451 0.8769 0.0
C686 C 0.78728 0.76931 0.88603 0.0
C687 C 0.84682 0.73927 0.88166 0.0
C688 C 0.82847 0.75337 0.90524 0.0
C689 C 0.79556 0.80617 0.81126 0.0
N690 N 0.7639 0.81341 0.81916 0.0
C691 C 0.81267 0.83508 0.80341 0.0
C692 C 0.79723 0.87173 0.80368 0.0
C693 C 0.76502 0.87901 0.81178 0.0
C694 C 0.74871 0.84939 0.8195 0.0
C695 C 0.64725 0.80197 0.80471 0.0
C696 C 0.66083 0.791 0.83278 0.0
C697 C 0.68359 0.79213 0.80956 0.0
N698 N 0.69004 0.78694 0.82345 0.0
C699 C 0.62413 0.80082 0.82831 0.0
C700 C 0.61738 0.80635 0.81417 0.0
C701 C 0.72037 0.72656 0.85456 0.0
C702 C 0.85092 0.65271 0.8434 0.0
C703 C 0.80202 0.67594 0.86435 0.0
C704 C 0.81161 0.63736 0.86318 0.0
C705 C 0.83625 0.62574 0.85262 0.0
N706 N 0.81655 0.70233 0.85528 0.0
C707 C 0.84069 0.69105 0.84489 0.0
Co708 Co 0.4952 0.46591 0.07755 0.0
Co709 Co 0.51651 0.53407 0.10195 0.0
O710 O 0.51182 0.51756 0.08254 0.0
C711 C 0.55991 0.48382 0.05772 0.0
O712 O 0.57616 0.50608 0.06696 0.0
C713 C 0.47902 0.6106 0.10187 0.0
O714 O 0.45722 0.5989 0.11216 0.0
O715 O 0.46178 0.5196 0.10557 0.0
O716 O 0.45913 0.4645 0.09368 0.0
H717 H 0.49789 0.52236 0.15358 0.0
H718 H 0.49205 0.5292 0.05709 0.0
O719 O 0.5296 0.4654 0.06076 0.0
H720 H 0.36036 0.47902 0.05957 0.0
H721 H 0.45627 0.36053 0.04473 0.0
H722 H 0.48029 0.39525 0.09364 0.0
H723 H 0.41173 0.45033 0.07364 0.0
H724 H 0.47592 0.426 0.05095 0.0
O725 O 0.50162 0.58713 0.09595 0.0
H726 H 0.49276 0.50201 0.12913 0.0
H727 H 0.55096 0.60237 0.11604 0.0
H728 H 0.46032 0.32954 0.08788 0.0
H729 H 0.4417 0.55845 0.04268 0.0
H730 H 0.44818 0.31181 0.06328 0.0
H731 H 0.37526 0.53341 0.04388 0.0
O732 O 0.53654 0.44361 0.08942 0.0
H733 H 0.62423 0.59639 0.07562 0.0
H734 H 0.59063 0.51712 0.11619 0.0
H735 H 0.65818 0.53317 0.1118 0.0
H736 H 0.67538 0.57331 0.09144 0.0
H737 H 0.55712 0.57884 0.08019 0.0
H738 H 0.55674 0.62377 0.14035 0.0
H739 H 0.53005 0.58368 0.15933 0.0
O740 O 0.53255 0.48187 0.10807 0.0
C741 C 0.44578 0.48761 0.10272 0.0
C742 C 0.50954 0.54014 0.1454 0.0
C743 C 0.54258 0.59704 0.13798 0.0
N744 N 0.52122 0.55108 0.12113 0.0
C745 C 0.50664 0.52881 0.13153 0.0
C746 C 0.53917 0.58478 0.12422 0.0
C747 C 0.52761 0.57453 0.14862 0.0
C748 C 0.46328 0.51796 0.05762 0.0
N749 N 0.4549 0.48799 0.0662 0.0
C750 C 0.43485 0.53473 0.04946 0.0
C751 C 0.39758 0.5207 0.05015 0.0
C752 C 0.3892 0.49021 0.05896 0.0
C753 C 0.41837 0.47418 0.06696 0.0
C754 C 0.46146 0.36791 0.05549 0.0
C755 C 0.47489 0.38782 0.08291 0.0
C756 C 0.47273 0.40492 0.05908 0.0
N757 N 0.47911 0.41452 0.07266 0.0
C758 C 0.46367 0.35054 0.07971 0.0
C759 C 0.4569 0.3406 0.0659 0.0
C760 C 0.54357 0.45113 0.10218 0.0
C761 C 0.6171 0.57897 0.08456 0.0
C762 C 0.59783 0.53413 0.10719 0.0
C763 C 0.63616 0.54336 0.10482 0.0
C764 C 0.64579 0.56594 0.09341 0.0
N765 N 0.5698 0.54701 0.09847 0.0
C766 C 0.57907 0.56915 0.08726 0.0
Co767 Co 0.02181 0.53106 0.58035 0.0
Co768 Co 1.00199 0.47156 0.60756 0.0
O769 O 1.00347 0.4819 0.58752 0.0
C770 C 0.96016 0.50484 0.56017 0.0
O771 O 0.95054 0.47634 0.56829 0.0
C772 C 0.03356 0.39823 0.59589 0.0
O773 O 0.05999 0.41677 0.5889 0.0
O774 O 0.05812 0.4821 0.60892 0.0
O775 O 0.06014 0.53499 0.59579 0.0
H776 H 0.03261 0.49731 0.65774 0.0
H777 H 0.02202 0.46018 0.56294 0.0
O778 O 0.98511 0.52921 0.5641 0.0
H779 H 0.15393 0.5095 0.56092 0.0
H780 H 0.06032 0.6257 0.54338 0.0
H781 H 0.04204 0.60477 0.59363 0.0
H782 H 0.10473 0.54329 0.57445 0.0
H783 H 0.03889 0.56309 0.55217 0.0
O784 O 0.01079 0.41603 0.60389 0.0
H785 H 0.03279 0.51049 0.63258 0.0
H786 H 0.96951 0.40886 0.62507 0.0
H787 H 0.06392 0.6677 0.58528 0.0
H788 H 0.07006 0.42595 0.54911 0.0
H789 H 0.07318 0.6785 0.55999 0.0
H790 H 0.1367 0.45047 0.54802 0.0
O791 O 0.9829 0.55824 0.59201 0.0
H792 H 0.88366 0.41284 0.58681 0.0
H793 H 0.93343 0.49714 0.62365 0.0
H794 H 0.864 0.48612 0.62186 0.0
H795 H 0.83865 0.44358 0.60335 0.0
H796 H 0.95287 0.42512 0.58886 0.0
H797 H 0.96886 0.39449 0.65015 0.0
H798 H 1.00046 0.43894 0.66669 0.0
O799 O 0.9914 0.52639 0.61195 0.0
C800 C 0.07471 0.51277 0.60489 0.0
C801 C 0.0187 0.47774 0.65065 0.0
C802 C 0.98297 0.42001 0.64638 0.0
N803 N 1.00114 0.46054 0.62734 0.0
C804 C 0.01868 0.48507 0.63638 0.0
C805 C 0.98355 0.42825 0.63218 0.0
C806 C 1.00068 0.44498 0.65565 0.0
C807 C 0.05058 0.47165 0.56235 0.0
N808 N 0.0601 0.50437 0.5693 0.0
C809 C 0.07786 0.45185 0.55457 0.0
C810 C 0.11525 0.46555 0.55399 0.0
C811 C 0.12494 0.49864 0.56123 0.0
C812 C 0.0969 0.51766 0.5689 0.0
C813 C 0.05641 0.62135 0.55442 0.0
C814 C 0.04618 0.60916 0.58261 0.0
C815 C 0.04412 0.58598 0.55947 0.0
N816 N 0.03936 0.58018 0.57342 0.0
C817 C 0.05849 0.6449 0.57794 0.0
C818 C 0.06364 0.65095 0.56375 0.0
C819 C 0.97893 0.55509 0.60518 0.0
C820 C 0.89433 0.43153 0.5949 0.0
C821 C 0.92266 0.47909 0.61544 0.0
C822 C 0.88329 0.47271 0.61454 0.0
C823 C 0.86909 0.4488 0.60417 0.0
N824 N 0.94726 0.46224 0.60625 0.0
C825 C 0.93352 0.43859 0.59611 0.0
Co826 Co 0.50144 0.53455 0.93595 0.0
Co827 Co 0.51593 0.47492 0.90799 0.0
O828 O 0.51607 0.48454 0.92822 0.0
C829 C 0.56531 0.50597 0.95474 0.0
O830 O 0.57393 0.4784 0.94607 0.0
C831 C 0.4893 0.4007 0.92118 0.0
O832 O 0.47897 0.41825 0.93261 0.0
O833 O 0.46088 0.49017 0.90683 0.0
O834 O 0.46161 0.54096 0.9211 0.0
H835 H 0.48723 0.50707 0.85814 0.0
H836 H 0.50081 0.465 0.95393 0.0
O837 O 0.53974 0.53042 0.95158 0.0
H838 H 0.37105 0.51872 0.95764 0.0
H839 H 0.47211 0.62974 0.97383 0.0
H840 H 0.48384 0.60961 0.92328 0.0
H841 H 0.41993 0.55021 0.94319 0.0
H842 H 0.48914 0.56643 0.9645 0.0
O843 O 0.50163 0.4197 0.9108 0.0
H844 H 0.48858 0.5183 0.88341 0.0
H845 H 0.54314 0.41136 0.88973 0.0
H846 H 0.46632 0.67329 0.93217 0.0
H847 H 0.45329 0.43312 0.96879 0.0
H848 H 0.46038 0.68368 0.95761 0.0
H849 H 0.38768 0.45978 0.97067 0.0
O850 O 0.54057 0.56035 0.92397 0.0
H851 H 0.62979 0.40581 0.92781 0.0
H852 H 0.58587 0.49591 0.89186 0.0
H853 H 0.65414 0.47907 0.89313 0.0
H854 H 0.67654 0.43354 0.91117 0.0
H855 H 0.56194 0.42399 0.92633 0.0
H856 H 0.54211 0.39885 0.86453 0.0
H857 H 0.51409 0.44695 0.84853 0.0
O858 O 0.53119 0.5288 0.90405 0.0
C859 C 0.446 0.52094 0.91154 0.0
C860 C 0.49943 0.48584 0.865 0.0
C861 C 0.53017 0.42509 0.86859 0.0
N862 N 0.51558 0.46539 0.88809 0.0
C863 C 0.50023 0.49202 0.87934 0.0
C864 C 0.53046 0.43225 0.88288 0.0
C865 C 0.5145 0.45211 0.85962 0.0
C866 C 0.47262 0.47719 0.95478 0.0
N867 N 0.46329 0.50951 0.94759 0.0
C868 C 0.44567 0.4588 0.96318 0.0
C869 C 0.40886 0.47372 0.9642 0.0
C870 C 0.39949 0.50671 0.95687 0.0
C871 C 0.42721 0.52428 0.94859 0.0
C872 C 0.47459 0.62556 0.96272 0.0
C873 C 0.48112 0.61383 0.93436 0.0
C874 C 0.48439 0.5898 0.95737 0.0
N875 N 0.48735 0.58424 0.94334 0.0
C876 C 0.47128 0.64999 0.93933 0.0
C877 C 0.46799 0.65581 0.95361 0.0
C878 C 0.54466 0.55697 0.91084 0.0
C879 C 0.62039 0.42563 0.91988 0.0
C880 C 0.59535 0.47643 0.89984 0.0
C881 C 0.63408 0.46682 0.90046 0.0
C882 C 0.64661 0.44124 0.91056 0.0
N883 N 0.56973 0.46102 0.90902 0.0
C884 C 0.58188 0.43591 0.91895 0.0
Co885 Co 0.03069 0.48605 0.4346 0.0
Co886 Co 0.01173 0.53696 0.40531 0.0
O887 O 0.01367 0.53315 0.42562 0.0
C888 C 0.97181 0.47566 0.45682 0.0
O889 O 0.96373 0.44201 0.45152 0.0
C890 C 0.04064 0.61312 0.41528 0.0
O891 O 0.05965 0.59638 0.42531 0.0
O892 O 0.06734 0.52458 0.40431 0.0
O893 O 0.06734 0.47468 0.41895 0.0
H894 H 0.0399 0.494 0.3565 0.0
H895 H 0.03326 0.55828 0.45073 0.0
O896 O 0.99551 0.49761 0.45064 0.0
H897 H 0.16603 0.51095 0.45035 0.0
H898 H 0.07228 0.40436 0.47505 0.0
H899 H 0.04402 0.40698 0.42485 0.0
H900 H 0.11483 0.47486 0.43861 0.0
H901 H 0.0521 0.46415 0.46368 0.0
O902 O 0.02256 0.59325 0.40635 0.0
H903 H 0.04051 0.48917 0.38205 0.0
H904 H 0.98015 0.59404 0.38529 0.0
H905 H 0.06425 0.3466 0.43579 0.0
H906 H 0.08347 0.59486 0.46285 0.0
H907 H 0.07851 0.34503 0.46107 0.0
H908 H 0.15047 0.57133 0.46266 0.0
O909 O 0.98918 0.45746 0.42465 0.0
H910 H 0.89534 0.60216 0.42473 0.0
H911 H 0.94222 0.50838 0.39051 0.0
H912 H 0.87305 0.5211 0.39223 0.0
H913 H 0.84919 0.56842 0.4094 0.0
H914 H 0.96426 0.58825 0.42278 0.0
H915 H 0.97914 0.60012 0.35977 0.0
H916 H 0.00906 0.54981 0.34519 0.0
O917 O 0.99955 0.48134 0.40339 0.0
C918 C 0.0825 0.49401 0.40907 0.0
C919 C 0.02675 0.51611 0.36274 0.0
C920 C 0.99271 0.57569 0.36458 0.0
N921 N 0.01046 0.54131 0.38519 0.0
C922 C 0.02698 0.51352 0.37723 0.0
C923 C 0.99353 0.57217 0.37904 0.0
C924 C 0.00947 0.54744 0.3564 0.0
C925 C 0.06224 0.54758 0.45073 0.0
N926 N 0.07101 0.51441 0.44396 0.0
C927 C 0.09061 0.56855 0.45755 0.0
C928 C 0.1282 0.55537 0.45742 0.0
C929 C 0.13696 0.52154 0.45049 0.0
C930 C 0.10785 0.50133 0.44378 0.0
C931 C 0.06613 0.40467 0.46402 0.0
C932 C 0.05016 0.40653 0.43585 0.0
C933 C 0.05464 0.43843 0.45753 0.0
N934 N 0.0468 0.43906 0.4436 0.0
C935 C 0.06162 0.37226 0.44199 0.0
C936 C 0.06962 0.3714 0.45618 0.0
C937 C 0.9852 0.45629 0.41146 0.0
C938 C 0.90539 0.58159 0.41717 0.0
C939 C 0.9321 0.52894 0.39804 0.0
C940 C 0.89287 0.53607 0.39894 0.0
C941 C 0.87951 0.56262 0.40858 0.0
N942 N 0.95735 0.54781 0.40646 0.0
C943 C 0.94442 0.5737 0.41598 0.0
H944 H 0.05743 0.15485 0.60438 0.0
H945 H 0.94499 0.16498 0.58609 0.0
H946 H 0.06697 0.22331 0.602 0.0
H947 H 0.95466 0.23417 0.58379 0.0
H948 H 0.97034 0.35684 0.60265 0.0
H949 H 0.96088 0.2882 0.60113 0.0
H950 H 0.07422 0.27548 0.58393 0.0
H951 H 0.0838 0.34489 0.58536 0.0
C952 C 0.03469 0.17167 0.59981 0.0
C953 C 1.0002 0.1544 0.59555 0.0
C954 C 0.04041 0.21094 0.59833 0.0
C955 C 0.01166 0.23417 0.59269 0.0
C956 C 0.9773 0.21697 0.58823 0.0
C957 C 0.97176 0.1774 0.58953 0.0
C958 C 0.99331 0.33957 0.59846 0.0
C959 C 0.02806 0.3564 0.59424 0.0
C960 C 0.98765 0.30018 0.59748 0.0
C961 C 0.01673 0.27639 0.5924 0.0
C962 C 0.05133 0.29313 0.58795 0.0
C963 C 0.05681 0.33282 0.58874 0.0
H964 H 0.92758 0.78094 0.82169 0.0
H965 H 0.92158 0.77372 0.86647 0.0
H966 H 0.99579 0.76568 0.82263 0.0
H967 H 0.98946 0.75912 0.8674 0.0
H968 H 0.09887 0.69237 0.86468 0.0
H969 H 0.0311 0.70642 0.86182 0.0
H970 H 0.05836 0.78875 0.82987 0.0
H971 H 0.12611 0.77411 0.8325 0.0
C972 C 0.94089 0.77678 0.83174 0.0
C973 C 0.91897 0.77834 0.844 0.0
C974 C 0.98001 0.76793 0.83228 0.0
C975 C 0.99806 0.76047 0.84508 0.0
C976 C 0.97637 0.76363 0.85734 0.0
C977 C 0.93742 0.7724 0.8568 0.0
C978 C 0.09044 0.71302 0.85689 0.0
C979 C 0.1181 0.73219 0.84888 0.0
C980 C 0.05154 0.72141 0.85534 0.0
C981 C 0.03922 0.74925 0.84578 0.0
C982 C 0.06673 0.76709 0.8373 0.0
C983 C 0.10567 0.75867 0.83883 0.0
H984 H 0.44424 0.67079 0.11507 0.0
H985 H 0.52665 0.64493 0.08296 0.0
H986 H 0.4597 0.73849 0.11299 0.0
H987 H 0.54282 0.71236 0.08115 0.0
H988 H 0.539 0.84259 0.07372 0.0
H989 H 0.52188 0.77494 0.07425 0.0
H990 H 0.51171 0.78026 0.11896 0.0
H991 H 0.52806 0.84778 0.1184 0.0
C992 C 0.46536 0.6795 0.10746 0.0
C993 C 0.48423 0.65221 0.09924 0.0
C994 C 0.47459 0.71836 0.10637 0.0
C995 C 0.50299 0.73101 0.09704 0.0
C996 C 0.5207 0.70386 0.0884 0.0
C997 C 0.51143 0.66503 0.08948 0.0
C998 C 0.53361 0.8292 0.08368 0.0
C999 C 0.5348 0.85079 0.09601 0.0
C1000 C 0.5237 0.79035 0.08399 0.0
C1001 C 0.51481 0.77209 0.09664 0.0
C1002 C 0.51736 0.79346 0.10899 0.0
C1003 C 0.52716 0.83221 0.10868 0.0
H1004 H 0.60669 0.2215 0.36155 0.0
H1005 H 0.6126 0.25244 0.3182 0.0
H1006 H 0.53789 0.23227 0.3614 0.0
H1007 H 0.54449 0.26599 0.31817 0.0
H1008 H 0.41492 0.25824 0.31857 0.0
H1009 H 0.48303 0.24471 0.31825 0.0
H1010 H 0.49073 0.27727 0.36156 0.0
H1011 H 0.42194 0.28803 0.362 0.0
C1012 C 0.59318 0.23057 0.35196 0.0
C1013 C 0.61504 0.23572 0.33986 0.0
C1014 C 0.55368 0.23736 0.3519 0.0
C1015 C 0.53505 0.25054 0.33981 0.0
C1016 C 0.55715 0.25524 0.32766 0.0
C1017 C 0.59646 0.24752 0.32765 0.0
C1018 C 0.4313 0.26292 0.32798 0.0
C1019 C 0.41304 0.27439 0.34029 0.0
C1020 C 0.47061 0.25521 0.32781 0.0
C1021 C 0.49302 0.25958 0.3399 0.0
C1022 C 0.4747 0.27243 0.3521 0.0
C1023 C 0.43521 0.27922 0.35234 0.0
H1024 H 0.01657 0.85414 0.39453 0.0
H1025 H 0.97039 0.84501 0.43606 0.0
H1026 H 0.03117 0.78625 0.39464 0.0
H1027 H 0.98478 0.77653 0.4361 0.0
H1028 H 0.05633 0.66477 0.43605 0.0
H1029 H 0.04207 0.73328 0.43622 0.0
H1030 H 0.9979 0.72467 0.39442 0.0
H1031 H 0.01238 0.65676 0.39418 0.0
C1032 C 0.00918 0.83758 0.40366 0.0
C1033 C 0.9922 0.85509 0.41528 0.0
C1034 C 0.0175 0.79857 0.4037 0.0
C1035 C 0.00929 0.77595 0.41539 0.0
C1036 C 0.99188 0.79327 0.42698 0.0
C1037 C 0.98324 0.83241 0.4269 0.0
C1038 C 0.04402 0.67763 0.42685 0.0
C1039 C 0.03562 0.65525 0.4151 0.0
C1040 C 0.03544 0.71678 0.427 0.0
C1041 C 0.01867 0.73442 0.41535 0.0
C1042 C 0.01106 0.71211 0.40353 0.0
C1043 C 0.01932 0.67308 0.40341 0.0
H1044 H 0.42284 0.71724 0.69153 0.0
H1045 H 0.41114 0.74826 0.64828 0.0
H1046 H 0.49061 0.73455 0.69066 0.0
H1047 H 0.47798 0.7667 0.64755 0.0
H1048 H 0.60749 0.75905 0.6466 0.0
H1049 H 0.54057 0.74128 0.64774 0.0
H1050 H 0.53281 0.78954 0.68897 0.0
H1051 H 0.60075 0.80632 0.68801 0.0
C1052 C 0.4347 0.72748 0.68182 0.0
C1053 C 0.41138 0.73128 0.66998 0.0
C1054 C 0.47348 0.7379 0.68136 0.0
C1055 C 0.48989 0.75231 0.66905 0.0
C1056 C 0.46663 0.75536 0.65717 0.0
C1057 C 0.42806 0.74489 0.65762 0.0
C1058 C 0.59162 0.76621 0.6559 0.0
C1059 C 0.60972 0.78419 0.66722 0.0
C1060 C 0.55299 0.75609 0.65653 0.0
C1061 C 0.53108 0.76382 0.66846 0.0
C1062 C 0.54889 0.78259 0.67969 0.0
C1063 C 0.58776 0.79267 0.67908 0.0
H1064 H 0.50536 0.35583 0.89876 0.0
H1065 H 0.48389 0.3498 0.94293 0.0
H1066 H 0.52041 0.28829 0.89842 0.0
H1067 H 0.49787 0.28129 0.9425 0.0
H1068 H 0.56646 0.16858 0.93864 0.0
H1069 H 0.55133 0.23685 0.93953 0.0
H1070 H 0.49153 0.22715 0.9004 0.0
H1071 H 0.50745 0.15995 0.8993 0.0
C1072 C 0.50335 0.34001 0.9084 0.0
C1073 C 0.49344 0.35843 0.92088 0.0
C1074 C 0.51185 0.30105 0.90819 0.0
C1075 C 0.51049 0.27917 0.92044 0.0
C1076 C 0.49975 0.29735 0.9329 0.0
C1077 C 0.49124 0.33653 0.93312 0.0
C1078 C 0.55049 0.18119 0.93016 0.0
C1079 C 0.5384 0.15867 0.91887 0.0
C1080 C 0.54141 0.22023 0.93075 0.0
C1081 C 0.52012 0.23762 0.92005 0.0
C1082 C 0.50841 0.21503 0.90874 0.0
C1083 C 0.51748 0.17625 0.90814 0.0
H1084 H 0.10819 0.28654 0.19581 0.0
H1085 H 0.11348 0.26216 0.15184 0.0
H1086 H 0.03919 0.27463 0.1955 0.0
H1087 H 0.04546 0.24893 0.15164 0.0
H1088 H 0.91755 0.26496 0.15205 0.0
H1089 H 0.98533 0.27866 0.15306 0.0
H1090 H 0.992 0.22413 0.19327 0.0
H1091 H 0.92309 0.21152 0.19247 0.0
C1092 C 0.0947 0.27887 0.18607 0.0
C1093 C 0.11658 0.27539 0.17385 0.0
C1094 C 0.05516 0.27156 0.18592 0.0
C1095 C 0.03653 0.26063 0.17356 0.0
C1096 C 0.05846 0.25776 0.16133 0.0
C1097 C 0.09776 0.26518 0.16147 0.0
C1098 C 0.93327 0.25567 0.16112 0.0
C1099 C 0.91459 0.23701 0.17217 0.0
C1100 C 0.97245 0.26341 0.16167 0.0
C1101 C 0.99446 0.25248 0.17323 0.0
C1102 C 0.97595 0.23344 0.18427 0.0
C1103 C 0.93648 0.22581 0.18374 0.0
H1104 H 0.1063 0.07007 0.47442 0.0
H1105 H 0.02271 0.97914 0.47432 0.0
H1106 H 0.11702 0.05985 0.49922 0.0
H1107 H 0.03159 0.97032 0.49901 0.0
H1108 H 0.06062 0.94677 0.54287 0.0
H1109 H 0.06678 0.94996 0.51769 0.0
H1110 H 0.08862 0.07138 0.52056 0.0
H1111 H 0.08481 0.06741 0.54575 0.0
C1112 C 0.09043 0.0477 0.47966 0.0
C1113 C 0.06366 0.02548 0.47233 0.0
C1114 C 0.09626 0.04204 0.49395 0.0
C1115 C 0.075 0.0144 0.50134 0.0
C1116 C 0.04918 0.9914 0.49382 0.0
C1117 C 0.04386 0.99663 0.47954 0.0
C1118 C 0.06757 0.97396 0.53811 0.0
C1119 C 0.07215 0.00682 0.54633 0.0
C1120 C 0.07068 0.97596 0.52361 0.0
C1121 C 0.07751 0.01111 0.51688 0.0
C1122 C 0.08379 0.04365 0.52522 0.0
C1123 C 0.08147 0.04145 0.53974 0.0
H1124 H 0.25926 0.84905 0.79535 0.0
H1125 H 0.34064 0.75768 0.78935 0.0
H1126 H 0.25131 0.85399 0.77 0.0
H1127 H 0.33238 0.76258 0.76434 0.0
H1128 H 0.25212 0.73631 0.72779 0.0
H1129 H 0.2663 0.74522 0.75214 0.0
H1130 H 0.2924 0.86394 0.74475 0.0
H1131 H 0.27836 0.85505 0.71979 0.0
C1132 C 0.27612 0.83072 0.78867 0.0
C1133 C 0.30014 0.80256 0.79441 0.0
C1134 C 0.27161 0.83365 0.77417 0.0
C1135 C 0.29095 0.80839 0.76526 0.0
C1136 C 0.31687 0.78217 0.77099 0.0
C1137 C 0.32149 0.77935 0.78535 0.0
C1138 C 0.26054 0.76456 0.7312 0.0
C1139 C 0.264 0.79501 0.72172 0.0
C1140 C 0.26892 0.76952 0.74522 0.0
C1141 C 0.28073 0.80514 0.75031 0.0
C1142 C 0.28334 0.83614 0.74104 0.0
C1143 C 0.27542 0.83102 0.7268 0.0
H1144 H 0.45307 0.93489 0.04577 0.0
H1145 H 0.46509 0.05737 0.04325 0.0
H1146 H 0.44754 0.93133 0.02061 0.0
H1147 H 0.45719 0.05435 0.01813 0.0
H1148 H 0.50238 0.03062 0.97446 0.0
H1149 H 0.49355 0.03793 0.9992 0.0
H1150 H 0.41692 0.9408 0.99946 0.0
H1151 H 0.42766 0.93228 0.97456 0.0
C1152 C 0.45327 0.96123 0.03986 0.0
C1153 C 0.4598 0.99639 0.04652 0.0
C1154 C 0.44998 0.95925 0.02536 0.0
C1155 C 0.45248 0.99249 0.01712 0.0
C1156 C 0.45628 0.02793 0.02396 0.0
C1157 C 0.46036 0.02979 0.03843 0.0
C1158 C 0.48316 0.01106 0.97969 0.0
C1159 C 0.46594 0.98067 0.97245 0.0
C1160 C 0.47782 0.01543 0.994 0.0
C1161 C 0.45455 0.98992 1.00155 0.0
C1162 C 0.4357 0.96063 0.99415 0.0
C1163 C 0.44152 0.95592 0.97981 0.0
H1164 H 0.32844 0.22169 0.22578 0.0
H1165 H 0.21629 0.17145 0.22096 0.0
H1166 H 0.32521 0.21102 0.25074 0.0
H1167 H 0.21322 0.16042 0.24605 0.0
H1168 H 0.20265 0.21107 0.29123 0.0
H1169 H 0.20633 0.20371 0.26611 0.0
H1170 H 0.32287 0.16429 0.26984 0.0
H1171 H 0.31935 0.17205 0.29507 0.0
C1172 C 0.30335 0.20768 0.23001 0.0
C1173 C 0.27249 0.19771 0.22134 0.0
C1174 C 0.30161 0.20133 0.24435 0.0
C1175 C 0.26886 0.18504 0.25045 0.0
C1176 C 0.23871 0.17339 0.24171 0.0
C1177 C 0.24059 0.17945 0.22731 0.0
C1178 C 0.22887 0.20013 0.28675 0.0
C1179 C 0.26082 0.19248 0.2952 0.0
C1180 C 0.23089 0.19569 0.27231 0.0
C1181 C 0.26501 0.18371 0.26591 0.0
C1182 C 0.2963 0.17403 0.27442 0.0
C1183 C 0.29418 0.17817 0.2889 0.0
H1184 H 0.81778 0.33853 0.22059 0.0
H1185 H 0.70354 0.29245 0.22436 0.0
H1186 H 0.81979 0.34863 0.24574 0.0
H1187 H 0.70575 0.30207 0.24939 0.0
H1188 H 0.71102 0.33816 0.29409 0.0
H1189 H 0.70873 0.34707 0.26889 0.0
H1190 H 0.82434 0.30473 0.26552 0.0
H1191 H 0.82681 0.29631 0.29061 0.0
C1192 C 0.79281 0.33126 0.22672 0.0
C1193 C 0.76062 0.31438 0.22044 0.0
C1194 C 0.79408 0.33678 0.24116 0.0
C1195 C 0.76306 0.32588 0.24964 0.0
C1196 C 0.73005 0.31112 0.24322 0.0
C1197 C 0.72889 0.30537 0.22883 0.0
C1198 C 0.73625 0.3316 0.28801 0.0
C1199 C 0.76899 0.31622 0.29439 0.0
C1200 C 0.73483 0.33641 0.27354 0.0
C1201 C 0.76622 0.32631 0.26513 0.0
C1202 C 0.79972 0.31313 0.27164 0.0
C1203 C 0.80105 0.30807 0.28606 0.0
H1204 H 0.73365 0.73941 0.72257 0.0
H1205 H 0.83109 0.66374 0.72291 0.0
H1206 H 0.72688 0.73218 0.74739 0.0
H1207 H 0.823 0.65452 0.7479 0.0
H1208 H 0.83139 0.6931 0.79383 0.0
H1209 H 0.83379 0.68605 0.7687 0.0
H1210 H 0.71073 0.69807 0.76681 0.0
H1211 H 0.70896 0.70755 0.79187 0.0
C1212 C 0.75308 0.72028 0.72788 0.0
C1213 C 0.78315 0.70241 0.72066 0.0
C1214 C 0.74903 0.71588 0.74224 0.0
C1215 C 0.77449 0.69288 0.74989 0.0
C1216 C 0.80327 0.67318 0.74252 0.0
C1217 C 0.8077 0.6781 0.72812 0.0
C1218 C 0.80478 0.69355 0.78806 0.0
C1219 C 0.77001 0.70116 0.79486 0.0
C1220 C 0.80608 0.68936 0.77357 0.0
C1221 C 0.77252 0.69199 0.7655 0.0
C1222 C 0.73742 0.69699 0.7725 0.0
C1223 C 0.73626 0.702 0.78694 0.0
H1224 H 0.56206 0.56238 0.97433 0.0
H1225 H 0.5957 0.44472 0.96867 0.0
H1226 H 0.57008 0.55565 0.99937 0.0
H1227 H 0.60385 0.43807 0.99379 0.0
H1228 H 0.60325 0.53802 0.04433 0.0
H1229 H 0.61451 0.54347 0.01926 0.0
H1230 H 0.55528 0.43665 0.01274 0.0
H1231 H 0.54408 0.43121 0.03764 0.0
C1232 C 0.57204 0.5353 0.9784 0.0
C1233 C 0.57795 0.50401 0.96947 0.0
C1234 C 0.57681 0.53151 0.99278 0.0
C1235 C 0.58729 0.49622 0.99862 0.0
C1236 C 0.59536 0.46553 0.98963 0.0
C1237 C 0.59098 0.46944 0.97521 0.0
C1238 C 0.59341 0.5153 0.03756 0.0
C1239 C 0.57259 0.48428 0.04298 0.0
C1240 C 0.59963 0.51856 0.0232 0.0
C1241 C 0.58567 0.49058 0.01398 0.0
C1242 C 0.56677 0.45854 0.01952 0.0
C1243 C 0.56014 0.45553 0.03382 0.0
H1244 H 0.95956 0.56427 0.54174 0.0
H1245 H 0.93866 0.44302 0.54464 0.0
H1246 H 0.95338 0.56089 0.51656 0.0
H1247 H 0.93478 0.43896 0.51946 0.0
H1248 H 0.91854 0.43945 0.47329 0.0
H1249 H 0.9065 0.44981 0.498 0.0
H1250 H 0.99 0.54113 0.49809 0.0
H1251 H 1.00023 0.5321 0.47348 0.0
C1252 C 0.9532 0.53693 0.53699 0.0
C1253 C 0.94968 0.50393 0.54521 0.0
C1254 C 0.95011 0.53483 0.5225 0.0
C1255 C 0.94433 0.49949 0.51578 0.0
C1256 C 0.93882 0.46682 0.52412 0.0
C1257 C 0.94115 0.46909 0.53864 0.0
C1258 C 0.93369 0.46224 0.47856 0.0
C1259 C 0.96038 0.48487 0.47134 0.0
C1260 C 0.92709 0.46799 0.49281 0.0
C1261 C 0.94743 0.49616 0.50026 0.0
C1262 C 0.97309 0.5196 0.49284 0.0
C1263 C 0.97921 0.51425 0.47861 0.0
H1264 H 0.18236 0.76207 0.63769 0.0
H1265 H 0.17362 0.83931 0.67248 0.0
H1266 H 0.14057 0.80286 0.62406 0.0
H1267 H 0.13297 0.8815 0.65863 0.0
H1268 H 0.03995 0.93861 0.63385 0.0
H1269 H 0.074 0.89216 0.64785 0.0
H1270 H 0.14179 0.86076 0.61203 0.0
H1271 H 0.10616 0.90635 0.59784 0.0
C1272 C 0.17122 0.78782 0.64245 0.0
C1273 C 0.18121 0.79755 0.65616 0.0
C1274 C 0.14757 0.81148 0.63457 0.0
C1275 C 0.1337 0.84596 0.64008 0.0
C1276 C 0.14266 0.85502 0.65402 0.0
C1277 C 0.16595 0.83089 0.66201 0.0
C1278 C 0.06196 0.92159 0.62891 0.0
C1279 C 0.07047 0.92628 0.61471 0.0
C1280 C 0.08175 0.89507 0.63701 0.0
C1281 C 0.11106 0.87276 0.6312 0.0
C1282 C 0.11906 0.87694 0.61689 0.0
C1283 C 0.09877 0.90319 0.60871 0.0
H1284 H 0.30587 0.82404 0.87919 0.0
H1285 H 0.39591 0.80425 0.84923 0.0
H1286 H 0.34997 0.85962 0.89371 0.0
H1287 H 0.44059 0.83897 0.8641 0.0
H1288 H 0.49106 0.94664 0.88393 0.0
H1289 H 0.45208 0.90302 0.87073 0.0
H1290 H 0.40481 0.85749 0.9088 0.0
H1291 H 0.44358 0.90282 0.92225 0.0
C1292 C 0.33516 0.82709 0.87569 0.0
C1293 C 0.34711 0.81166 0.86287 0.0
C1294 C 0.36065 0.84717 0.88416 0.0
C1295 C 0.39894 0.85227 0.88014 0.0
C1296 C 0.41115 0.83614 0.86746 0.0
C1297 C 0.38553 0.81621 0.8589 0.0
C1298 C 0.47263 0.92728 0.88962 0.0
C1299 C 0.47023 0.92869 0.90423 0.0
C1300 C 0.45041 0.90181 0.88196 0.0
C1301 C 0.42513 0.87663 0.88863 0.0
C1302 C 0.42364 0.87687 0.9033 0.0
C1303 C 0.44604 0.90261 0.91103 0.0
H1304 H 0.46975 0.04931 0.13389 0.0
H1305 H 0.45269 0.11624 0.09665 0.0
H1306 H 0.43211 0.09429 0.14708 0.0
H1307 H 0.41608 0.16274 0.11015 0.0
H1308 H 0.31283 0.20828 0.13432 0.0
H1309 H 0.35608 0.16897 0.12099 0.0
H1310 H 0.42812 0.15533 0.15715 0.0
H1311 H 0.38339 0.19361 0.17082 0.0
C1312 C 0.45821 0.07383 0.12847 0.0
C1313 C 0.46387 0.07867 0.11407 0.0
C1314 C 0.43689 0.10006 0.13616 0.0
C1315 C 0.42085 0.13234 0.12976 0.0
C1316 C 0.42739 0.13788 0.11542 0.0
C1317 C 0.44854 0.1113 0.10766 0.0
C1318 C 0.3378 0.19694 0.13953 0.0
C1319 C 0.34414 0.20372 0.15379 0.0
C1320 C 0.36302 0.17464 0.13176 0.0
C1321 C 0.39573 0.15869 0.13791 0.0
C1322 C 0.40285 0.16649 0.15208 0.0
C1323 C 0.3773 0.18863 0.15993 0.0
H1324 H 0.02451 0.09063 0.38828 0.0
H1325 H 0.10899 0.0869 0.4209 0.0
H1326 H 0.06482 0.13376 0.37493 0.0
H1327 H 0.15068 0.12874 0.40725 0.0
H1328 H 0.20827 0.22429 0.38341 0.0
H1329 H 0.16359 0.189 0.39784 0.0
H1330 H 0.11985 0.13181 0.3613 0.0
H1331 H 0.16355 0.16867 0.34677 0.0
C1332 C 0.05171 0.09945 0.39264 0.0
C1333 C 0.06364 0.08556 0.40564 0.0
C1334 C 0.07512 0.12379 0.3849 0.0
C1335 C 0.11152 0.13435 0.3898 0.0
C1336 C 0.12276 0.12163 0.40313 0.0
C1337 C 0.0989 0.09769 0.41101 0.0
C1338 C 0.189 0.2043 0.37842 0.0
C1339 C 0.18957 0.1993 0.36389 0.0
C1340 C 0.16345 0.1838 0.38675 0.0
C1341 C 0.13797 0.15729 0.38084 0.0
C1342 C 0.13844 0.15244 0.36627 0.0
C1343 C 0.1637 0.17341 0.3579 0.0
H1344 H 0.91467 0.9963 0.38386 0.0
H1345 H 0.89916 0.07515 0.41797 0.0
H1346 H 0.86701 0.03148 0.37038 0.0
H1347 H 0.85147 0.10971 0.40457 0.0
H1348 H 0.75328 0.15667 0.37869 0.0
H1349 H 0.78664 0.10802 0.39246 0.0
H1350 H 0.87195 0.09767 0.36025 0.0
H1351 H 0.83972 0.14628 0.34678 0.0
C1352 C 0.90061 0.02055 0.38862 0.0
C1353 C 0.91122 0.03305 0.40197 0.0
C1354 C 0.87334 0.04075 0.38087 0.0
C1355 C 0.85559 0.07351 0.38638 0.0
C1356 C 0.86431 0.08443 0.40006 0.0
C1357 C 0.89191 0.06463 0.40772 0.0
C1358 C 0.77875 0.14351 0.37445 0.0
C1359 C 0.79372 0.15562 0.3616 0.0
C1360 C 0.79791 0.11573 0.38236 0.0
C1361 C 0.83192 0.09893 0.37743 0.0
C1362 C 0.84558 0.10957 0.36428 0.0
C1363 C 0.82698 0.13768 0.35654 0.0
H1364 H 0.62809 0.07542 0.09819 0.0
H1365 H 0.61729 0.99233 0.1312 0.0
H1366 H 0.67705 0.10881 0.11126 0.0
H1367 H 0.66645 0.02651 0.14444 0.0
H1368 H 0.6964 0.13944 0.16914 0.0
H1369 H 0.66374 0.09065 0.15584 0.0
H1370 H 0.74268 0.1076 0.12189 0.0
H1371 H 0.77633 0.15658 0.13543 0.0
C1372 C 0.63669 0.06365 0.10811 0.0
C1373 C 0.61837 0.03112 0.11363 0.0
C1374 C 0.66506 0.08285 0.11559 0.0
C1375 C 0.67567 0.07046 0.12892 0.0
C1376 C 0.65875 0.03691 0.13422 0.0
C1377 C 0.63064 0.01726 0.12661 0.0
C1378 C 0.7077 0.13225 0.15901 0.0
C1379 C 0.73904 0.15235 0.15338 0.0
C1380 C 0.68888 0.10398 0.15138 0.0
C1381 C 0.70043 0.09525 0.13778 0.0
C1382 C 0.73294 0.11387 0.13233 0.0
C1383 C 0.7523 0.14186 0.14011 0.0
H1384 H 0.69508 0.86986 0.84745 0.0
H1385 H 0.77845 0.856 0.88023 0.0
H1386 H 0.66278 0.91862 0.86092 0.0
H1387 H 0.74534 0.90492 0.89389 0.0
H1388 H 0.63337 0.93834 0.91892 0.0
H1389 H 0.68091 0.90398 0.90547 0.0
H1390 H 0.66685 0.9838 0.87167 0.0
H1391 H 0.61923 0.01888 0.88526 0.0
C1392 C 0.70711 0.87771 0.85742 0.0
C1393 C 0.73944 0.85868 0.86274 0.0
C1394 C 0.68854 0.90594 0.86513 0.0
C1395 C 0.70139 0.91568 0.8785 0.0
C1396 C 0.73463 0.8979 0.88364 0.0
C1397 C 0.75367 0.86994 0.87579 0.0
C1398 C 0.64092 0.94929 0.90876 0.0
C1399 C 0.62198 0.98128 0.90315 0.0
C1400 C 0.66844 0.92956 0.90106 0.0
C1401 C 0.67754 0.94095 0.88746 0.0
C1402 C 0.66021 0.97412 0.88209 0.0
C1403 C 0.63298 0.99429 0.8899 0.0
H1404 H 0.759 0.86535 0.63493 0.0
H1405 H 0.83305 0.87112 0.67086 0.0
H1406 H 0.79973 0.91259 0.62313 0.0
H1407 H 0.87241 0.91824 0.65932 0.0
H1408 H 0.96464 0.93967 0.6261 0.0
H1409 H 0.91594 0.90572 0.6393 0.0
H1410 H 0.82937 0.98184 0.62328 0.0
H1411 H 0.87912 0.01644 0.61001 0.0
C1412 C 0.7832 0.87729 0.64046 0.0
C1413 C 0.79291 0.86383 0.6538 0.0
C1414 C 0.80645 0.90445 0.63372 0.0
C1415 C 0.83965 0.91865 0.64022 0.0
C1416 C 0.84745 0.90736 0.65392 0.0
C1417 C 0.82459 0.88034 0.66058 0.0
C1418 C 0.93534 0.94972 0.62566 0.0
C1419 C 0.92565 0.9811 0.61734 0.0
C1420 C 0.9074 0.93027 0.63319 0.0
C1421 C 0.86878 0.94127 0.63244 0.0
C1422 C 0.8589 0.9728 0.62408 0.0
C1423 C 0.88727 0.99279 0.61664 0.0
H1424 H 0.64948 0.32039 0.17 0.0
H1425 H 0.71336 0.29375 0.13276 0.0
H1426 H 0.60401 0.35706 0.15598 0.0
H1427 H 0.66924 0.3309 0.11903 0.0
H1428 H 0.57018 0.37957 0.09507 0.0
H1429 H 0.60659 0.33542 0.10961 0.0
H1430 H 0.60235 0.41619 0.14354 0.0
H1431 H 0.56521 0.45941 0.12932 0.0
C1432 C 0.65383 0.32222 0.15887 0.0
C1433 C 0.68538 0.30431 0.1526 0.0
C1434 C 0.62789 0.34339 0.15082 0.0
C1435 C 0.63293 0.34711 0.13633 0.0
C1436 C 0.66393 0.32832 0.13008 0.0
C1437 C 0.68961 0.30721 0.13806 0.0
C1438 C 0.5769 0.38781 0.10565 0.0
C1439 C 0.56505 0.42333 0.1109 0.0
C1440 C 0.59787 0.36253 0.114 0.0
C1441 C 0.60763 0.37222 0.12779 0.0
C1442 C 0.59501 0.40738 0.13309 0.0
C1443 C 0.57397 0.43247 0.1248 0.0
H1444 H 0.82137 0.28392 0.38254 0.0
H1445 H 0.86415 0.34106 0.3459 0.0
H1446 H 0.86572 0.31976 0.39691 0.0
H1447 H 0.90748 0.37848 0.36037 0.0
H1448 H 1.00244 0.42123 0.38723 0.0
H1449 H 0.96276 0.37764 0.37384 0.0
H1450 H 0.87747 0.38006 0.40643 0.0
H1451 H 0.91857 0.42237 0.42011 0.0
C1452 C 0.84015 0.30435 0.37753 0.0
C1453 C 0.83912 0.30965 0.36303 0.0
C1454 C 0.86551 0.32518 0.38584 0.0
C1455 C 0.8903 0.35231 0.37991 0.0
C1456 C 0.88943 0.35739 0.36535 0.0
C1457 C 0.86438 0.33609 0.35701 0.0
C1458 C 0.97549 0.4118 0.39163 0.0
C1459 C 0.96356 0.42509 0.40471 0.0
C1460 C 0.95245 0.38716 0.38387 0.0
C1461 C 0.9164 0.37569 0.38885 0.0
C1462 C 0.90515 0.38786 0.40225 0.0
C1463 C 0.92866 0.4121 0.41014 0.0
H1464 H 0.95098 0.6247 0.59626 0.0
H1465 H 0.9626 0.55441 0.63294 0.0
H1466 H 0.91571 0.67176 0.60991 0.0
H1467 H 0.92556 0.59956 0.6462 0.0
H1468 H 0.87192 0.6952 0.67044 0.0
H1469 H 0.91883 0.65792 0.65732 0.0
H1470 H 0.85586 0.67993 0.61947 0.0
H1471 H 0.81124 0.71849 0.63223 0.0
C1472 C 0.94587 0.61913 0.60718 0.0
C1473 C 0.95908 0.58529 0.61335 0.0
C1474 C 0.9254 0.64602 0.61503 0.0
C1475 C 0.91711 0.63946 0.62922 0.0
C1476 C 0.93153 0.60616 0.63543 0.0
C1477 C 0.95245 0.57976 0.62767 0.0
C1478 C 0.86843 0.69229 0.65931 0.0
C1479 C 0.83736 0.70952 0.65251 0.0
C1480 C 0.89521 0.67071 0.65175 0.0
C1481 C 0.89127 0.66551 0.63724 0.0
C1482 C 0.86061 0.68358 0.63051 0.0
C1483 C 0.83442 0.70544 0.63797 0.0
H1484 H 0.65121 0.69707 0.84568 0.0
H1485 H 0.72259 0.7084 0.88214 0.0
H1486 H 0.60453 0.66123 0.85942 0.0
H1487 H 0.67738 0.67148 0.89553 0.0
H1488 H 0.57928 0.62332 0.9201 0.0
H1489 H 0.6172 0.66852 0.90643 0.0
H1490 H 0.59738 0.60065 0.86958 0.0
H1491 H 0.55852 0.55708 0.88292 0.0
C1492 C 0.6571 0.69179 0.85656 0.0
C1493 C 0.69102 0.70528 0.86268 0.0
C1494 C 0.63039 0.67111 0.86446 0.0
C1495 C 0.63712 0.66318 0.87864 0.0
C1496 C 0.67071 0.6774 0.88475 0.0
C1497 C 0.69706 0.69827 0.87694 0.0
C1498 C 0.58277 0.61832 0.90906 0.0
C1499 C 0.56616 0.58618 0.90272 0.0
C1500 C 0.6047 0.64412 0.9012 0.0
C1501 C 0.61071 0.63822 0.88685 0.0
C1502 C 0.59311 0.60665 0.88051 0.0
C1503 C 0.57105 0.58123 0.88829 0.0
H1504 H 0.41878 0.50985 0.88488 0.0
H1505 H 0.39426 0.56976 0.92305 0.0
H1506 H 0.37049 0.54804 0.87298 0.0
H1507 H 0.34423 0.60526 0.91163 0.0
H1508 H 0.31038 0.70431 0.8832 0.0
H1509 H 0.34391 0.65685 0.89688 0.0
H1510 H 0.30799 0.56885 0.86808 0.0
H1511 H 0.27558 0.61757 0.85409 0.0
C1512 C 0.40243 0.53032 0.89085 0.0
C1513 C 0.41114 0.53716 0.9049 0.0
C1514 C 0.37439 0.55215 0.88404 0.0
C1515 C 0.35381 0.58066 0.89122 0.0
C1516 C 0.36025 0.58473 0.90557 0.0
C1517 C 0.38882 0.56381 0.91222 0.0
C1518 C 0.30833 0.67459 0.88014 0.0
C1519 C 0.28946 0.66436 0.86786 0.0
C1520 C 0.32776 0.64715 0.88795 0.0
C1521 C 0.3288 0.60859 0.88369 0.0
C1522 C 0.30829 0.59817 0.87166 0.0
C1523 C 0.28913 0.62589 0.86375 0.0
H1524 H 0.12349 0.56885 0.59623 0.0
H1525 H 0.10549 0.48891 0.62984 0.0
H1526 H 0.17354 0.60011 0.60941 0.0
H1527 H 0.15596 0.5208 0.64317 0.0
H1528 H 0.18689 0.63354 0.66734 0.0
H1529 H 0.15436 0.58527 0.6539 0.0
H1530 H 0.23743 0.59818 0.62102 0.0
H1531 H 0.27107 0.64684 0.63476 0.0
C1532 C 0.1308 0.55722 0.6063 0.0
C1533 C 0.10996 0.52648 0.61201 0.0
C1534 C 0.15983 0.57517 0.61385 0.0
C1535 C 0.16864 0.5632 0.62739 0.0
C1536 C 0.14959 0.53092 0.63279 0.0
C1537 C 0.12073 0.51256 0.62514 0.0
C1538 C 0.19919 0.62556 0.65744 0.0
C1539 C 0.23185 0.64431 0.6522 0.0
C1540 C 0.18041 0.59754 0.64972 0.0
C1541 C 0.19324 0.58771 0.63638 0.0
C1542 C 0.22678 0.60521 0.63127 0.0
C1543 C 0.24611 0.63302 0.63916 0.0
H1544 H 0.12769 0.43512 0.41795 0.0
H1545 H 0.1131 0.51351 0.38365 0.0
H1546 H 0.1756 0.40026 0.40474 0.0
H1547 H 0.16092 0.47798 0.37035 0.0
H1548 H 0.18807 0.36232 0.34716 0.0
H1549 H 0.15569 0.41124 0.36044 0.0
H1550 H 0.24089 0.40198 0.39271 0.0
H1551 H 0.27445 0.35306 0.37912 0.0
C1552 C 0.1352 0.44547 0.4077 0.0
C1553 C 0.11608 0.47701 0.40184 0.0
C1554 C 0.16291 0.4255 0.40015 0.0
C1555 C 0.17192 0.43619 0.38647 0.0
C1556 C 0.15437 0.4689 0.38085 0.0
C1557 C 0.127 0.48929 0.38849 0.0
C1558 C 0.20076 0.37123 0.35689 0.0
C1559 C 0.23406 0.35353 0.36201 0.0
C1560 C 0.18207 0.39951 0.36451 0.0
C1561 C 0.19567 0.41056 0.37763 0.0
C1562 C 0.22968 0.39396 0.38263 0.0
C1563 C 0.24895 0.36603 0.37482 0.0
H1564 H 0.41946 0.51252 0.12831 0.0
H1565 H 0.39638 0.43039 0.09584 0.0
H1566 H 0.37139 0.48109 0.143 0.0
H1567 H 0.34868 0.39995 0.11023 0.0
H1568 H 0.25392 0.3555 0.13664 0.0
H1569 H 0.28647 0.40384 0.1225 0.0
H1570 H 0.37222 0.41704 0.15443 0.0
H1571 H 0.34032 0.36905 0.16839 0.0
C1572 C 0.40361 0.4885 0.12415 0.0
C1573 C 0.41215 0.47398 0.11087 0.0
C1574 C 0.37615 0.47041 0.13258 0.0
C1575 C 0.35617 0.43791 0.1278 0.0
C1576 C 0.36301 0.42514 0.11421 0.0
C1577 C 0.39069 0.44269 0.10593 0.0
C1578 C 0.27923 0.36929 0.14077 0.0
C1579 C 0.29454 0.35796 0.15364 0.0
C1580 C 0.29796 0.39695 0.13265 0.0
C1581 C 0.33208 0.41425 0.13731 0.0
C1582 C 0.34583 0.40474 0.15056 0.0
C1583 C 0.32749 0.37688 0.15857 0.0
loop_
_geom_bond_atom_site_label_1
_geom_bond_atom_site_label_2
_geom_bond_distance
_geom_bond_site_symmetry_2
_ccdc_geom_bond_type
Co0 O2 2.143 1_665 S
Co0 O8 2.074 . S
Co0 O11 2.093 1_655 S
Co0 O24 2.097 1_655 S
Co0 N41 2.151 . S
Co0 N49 2.214 . S
Co1 O2 2.160 . S
Co1 O7 2.058 1_455 S
Co1 O17 2.057 . S
Co1 O32 2.037 1_545 S
Co1 N36 2.145 . S
Co1 N57 2.257 . S
O2 Co0 2.143 1_445 S
O2 Co1 2.160 . S
C3 O4 1.278 . S
C3 O11 1.224 1_545 S
O4 C3 1.278 . S
C5 O6 1.245 . S
C5 O17 1.232 1_655 S
O6 C5 1.245 . S
O7 Co1 2.058 1_655 S
O7 C33 1.269 1_545 S
O8 Co0 2.074 . S
O8 C33 1.257 . S
H9 C34 0.930 . S
H10 C40 0.930 . S
O11 Co0 2.093 1_455 S
O11 C3 1.224 1_565 S
H12 C44 0.929 . S
H13 C46 0.930 . S
H14 C47 0.930 1_455 S
H15 C45 0.929 . S
H16 C48 0.928 . S
O17 Co1 2.057 . S
O17 C5 1.232 1_455 S
H18 C37 0.929 . S
H19 C38 0.929 . S
H20 C50 0.931 . S
H21 C42 0.929 . S
H22 C51 0.930 . S
H23 C43 0.931 . S
O24 Co0 2.097 1_455 S
O24 C52 1.214 . S
H25 C53 0.929 . S
H26 C54 0.929 . S
H27 C55 0.930 . S
H28 C56 0.929 . S
H29 C58 0.930 . S
H30 C35 0.930 . S
H31 C39 0.930 . S
O32 Co1 2.037 1_565 S
O32 C52 1.234 . S
C33 O7 1.269 1_565 S
C33 O8 1.257 . S
C34 H9 0.930 . S
C34 C37 1.388 . S
C34 C39 1.418 . S
C35 H30 0.930 . S
C35 C38 1.404 . S
C35 C39 1.353 . S
N36 Co1 2.145 . S
N36 C37 1.397 . S
N36 C38 1.334 . S
C37 H18 0.929 . S
C37 C34 1.388 . S
C37 N36 1.397 . S
C38 H19 0.929 . S
C38 C35 1.404 . S
C38 N36 1.334 . S
C39 H31 0.930 . S
C39 C34 1.418 . S
C39 C35 1.353 . S
C40 H10 0.930 . S
C40 N41 1.330 1_545 S
C40 C42 1.446 . S
N41 Co0 2.151 . S
N41 C40 1.330 1_565 S
N41 C45 1.418 . S
C42 H21 0.929 . S
C42 C40 1.446 . S
C42 C43 1.332 1_545 S
C43 H23 0.931 . S
C43 C42 1.332 1_565 S
C43 C44 1.267 . S
C44 H12 0.929 . S
C44 C43 1.267 . S
C44 C45 1.251 . S
C45 H15 0.929 . S
C45 N41 1.418 . S
C45 C44 1.251 . S
C46 H13 0.930 . S
C46 C48 1.406 . S
C46 C51 1.261 . S
C47 H14 0.930 1_655 S
C47 N49 1.325 . S
C47 C50 1.357 . S
C48 H16 0.928 . S
C48 C46 1.406 . S
C48 N49 1.261 . S
N49 Co0 2.214 . S
N49 C47 1.325 . S
N49 C48 1.261 . S
C50 H20 0.931 . S
C50 C47 1.357 . S
C50 C51 1.312 . S
C51 H22 0.930 . S
C51 C46 1.261 . S
C51 C50 1.312 . S
C52 O24 1.214 . S
C52 O32 1.234 . S
C53 H25 0.929 . S
C53 C56 1.391 . S
C53 C58 1.391 . S
C54 H26 0.929 . S
C54 C55 1.390 . S
C54 N57 1.391 . S
C55 H27 0.930 . S
C55 C54 1.390 . S
C55 C56 1.392 . S
C56 H28 0.929 . S
C56 C53 1.391 . S
C56 C55 1.392 . S
N57 Co1 2.257 . S
N57 C54 1.391 . S
N57 C58 1.388 . S
C58 H29 0.930 . S
C58 C53 1.391 . S
C58 N57 1.388 . S
Co59 O61 2.143 . S
Co59 O67 2.074 . S
Co59 O70 2.093 . S
Co59 O83 2.097 . S
Co59 N100 2.151 . S
Co59 N108 2.214 . S
Co60 O61 2.160 . S
Co60 O66 2.058 . S
Co60 O76 2.057 . S
Co60 O91 2.037 . S
Co60 N95 2.145 . S
Co60 N116 2.257 . S
O61 Co59 2.143 . S
O61 Co60 2.160 . S
C62 O63 1.278 . S
C62 O70 1.224 . S
O63 C62 1.278 . S
C64 O65 1.245 . S
C64 O76 1.232 . S
O65 C64 1.245 . S
O66 Co60 2.058 . S
O66 C92 1.269 . S
O67 Co59 2.074 . S
O67 C92 1.257 . S
H68 C93 0.930 . S
H69 C99 0.930 . S
O70 Co59 2.093 . S
O70 C62 1.224 . S
H71 C103 0.929 . S
H72 C105 0.930 . S
H73 C106 0.930 . S
H74 C104 0.929 . S
H75 C107 0.928 . S
O76 Co60 2.057 . S
O76 C64 1.232 . S
H77 C96 0.929 . S
H78 C97 0.929 . S
H79 C109 0.931 . S
H80 C101 0.929 . S
H81 C110 0.930 . S
H82 C102 0.931 . S
O83 Co59 2.097 . S
O83 C111 1.214 . S
H84 C112 0.929 . S
H85 C113 0.929 . S
H86 C114 0.930 . S
H87 C115 0.929 . S
H88 C117 0.930 . S
H89 C94 0.930 . S
H90 C98 0.930 . S
O91 Co60 2.037 . S
O91 C111 1.234 . S
C92 O66 1.269 . S
C92 O67 1.257 . S
C93 H68 0.930 . S
C93 C96 1.388 . S
C93 C98 1.418 . S
C94 H89 0.930 . S
C94 C97 1.404 . S
C94 C98 1.353 . S
N95 Co60 2.145 . S
N95 C96 1.397 . S
N95 C97 1.334 . S
C96 H77 0.929 . S
C96 C93 1.388 . S
C96 N95 1.397 . S
C97 H78 0.929 . S
C97 C94 1.404 . S
C97 N95 1.334 . S
C98 H90 0.930 . S
C98 C93 1.418 . S
C98 C94 1.353 . S
C99 H69 0.930 . S
C99 N100 1.330 . S
C99 C101 1.446 . S
N100 Co59 2.151 . S
N100 C99 1.330 . S
N100 C104 1.418 . S
C101 H80 0.929 . S
C101 C99 1.446 . S
C101 C102 1.332 . S
C102 H82 0.931 . S
C102 C101 1.332 . S
C102 C103 1.267 . S
C103 H71 0.929 . S
C103 C102 1.267 . S
C103 C104 1.251 . S
C104 H74 0.929 . S
C104 N100 1.418 . S
C104 C103 1.251 . S
C105 H72 0.930 . S
C105 C107 1.406 . S
C105 C110 1.261 . S
C106 H73 0.930 . S
C106 N108 1.325 . S
C106 C109 1.357 . S
C107 H75 0.928 . S
C107 C105 1.406 . S
C107 N108 1.261 . S
N108 Co59 2.214 . S
N108 C106 1.325 . S
N108 C107 1.261 . S
C109 H79 0.931 . S
C109 C106 1.357 . S
C109 C110 1.312 . S
C110 H81 0.930 . S
C110 C105 1.261 . S
C110 C109 1.312 . S
C111 O83 1.214 . S
C111 O91 1.234 . S
C112 H84 0.929 . S
C112 C115 1.391 . S
C112 C117 1.391 . S
C113 H85 0.929 . S
C113 C114 1.390 . S
C113 N116 1.391 . S
C114 H86 0.930 . S
C114 C113 1.390 . S
C114 C115 1.392 . S
C115 H87 0.929 . S
C115 C112 1.391 . S
C115 C114 1.392 . S
N116 Co60 2.257 . S
N116 C113 1.391 . S
N116 C117 1.388 . S
C117 H88 0.930 . S
C117 C112 1.391 . S
C117 N116 1.388 . S
Co118 O120 2.143 1_545 S
Co118 O126 2.074 . S
Co118 O129 2.093 . S
Co118 O142 2.097 . S
Co118 N159 2.151 . S
Co118 N167 2.214 . S
Co119 O120 2.160 . S
Co119 O125 2.058 . S
Co119 O135 2.057 . S
Co119 O150 2.037 1_565 S
Co119 N154 2.145 . S
Co119 N175 2.257 . S
O120 Co118 2.143 1_565 S
O120 Co119 2.160 . S
C121 O122 1.278 . S
C121 O129 1.224 1_565 S
O122 C121 1.278 . S
C123 O124 1.245 . S
C123 O135 1.232 . S
O124 C123 1.245 . S
O125 Co119 2.058 . S
O125 C151 1.269 1_565 S
O126 Co118 2.074 . S
O126 C151 1.257 . S
H127 C152 0.930 . S
H128 C158 0.930 . S
O129 Co118 2.093 . S
O129 C121 1.224 1_545 S
H130 C162 0.929 . S
H131 C164 0.930 . S
H132 C165 0.930 . S
H133 C163 0.929 . S
H134 C166 0.928 . S
O135 Co119 2.057 . S
O135 C123 1.232 . S
H136 C155 0.929 . S
H137 C156 0.929 . S
H138 C168 0.931 . S
H139 C160 0.929 . S
H140 C169 0.930 . S
H141 C161 0.931 . S
O142 Co118 2.097 . S
O142 C170 1.214 . S
H143 C171 0.929 . S
H144 C172 0.929 . S
H145 C173 0.930 . S
H146 C174 0.929 . S
H147 C176 0.930 . S
H148 C153 0.930 . S
H149 C157 0.930 . S
O150 Co119 2.037 1_545 S
O150 C170 1.234 . S
C151 O125 1.269 1_545 S
C151 O126 1.257 . S
C152 H127 0.930 . S
C152 C155 1.388 . S
C152 C157 1.418 . S
C153 H148 0.930 . S
C153 C156 1.404 . S
C153 C157 1.353 . S
N154 Co119 2.145 . S
N154 C155 1.397 . S
N154 C156 1.334 . S
C155 H136 0.929 . S
C155 C152 1.388 . S
C155 N154 1.397 . S
C156 H137 0.929 . S
C156 C153 1.404 . S
C156 N154 1.334 . S
C157 H149 0.930 . S
C157 C152 1.418 . S
C157 C153 1.353 . S
C158 H128 0.930 . S
C158 N159 1.330 1_565 S
C158 C160 1.446 . S
N159 Co118 2.151 . S
N159 C158 1.330 1_545 S
N159 C163 1.418 . S
C160 H139 0.929 . S
C160 C158 1.446 . S
C160 C161 1.332 1_565 S
C161 H141 0.931 . S
C161 C160 1.332 1_545 S
C161 C162 1.267 . S
C162 H130 0.929 . S
C162 C161 1.267 . S
C162 C163 1.251 . S
C163 H133 0.929 . S
C163 N159 1.418 . S
C163 C162 1.251 . S
C164 H131 0.930 . S
C164 C166 1.406 . S
C164 C169 1.261 . S
C165 H132 0.930 . S
C165 N167 1.325 . S
C165 C168 1.357 . S
C166 H134 0.928 . S
C166 C164 1.406 . S
C166 N167 1.261 . S
N167 Co118 2.214 . S
N167 C165 1.325 . S
N167 C166 1.261 . S
C168 H138 0.931 . S
C168 C165 1.357 . S
C168 C169 1.312 . S
C169 H140 0.930 . S
C169 C164 1.261 . S
C169 C168 1.312 . S
C170 O142 1.214 . S
C170 O150 1.234 . S
C171 H143 0.929 . S
C171 C174 1.391 . S
C171 C176 1.391 . S
C172 H144 0.929 . S
C172 C173 1.390 . S
C172 N175 1.391 . S
C173 H145 0.930 . S
C173 C172 1.390 . S
C173 C174 1.392 . S
C174 H146 0.929 . S
C174 C171 1.391 . S
C174 C173 1.392 . S
N175 Co119 2.257 . S
N175 C172 1.391 . S
N175 C176 1.388 . S
C176 H147 0.930 . S
C176 C171 1.391 . S
C176 N175 1.388 . S
Co177 O179 2.143 . S
Co177 O185 2.074 . S
Co177 O188 2.093 . S
Co177 O201 2.097 . S
Co177 N218 2.151 . S
Co177 N226 2.214 . S
Co178 O179 2.160 . S
Co178 O184 2.058 . S
Co178 O194 2.057 . S
Co178 O209 2.037 . S
Co178 N213 2.145 . S
Co178 N234 2.257 . S
O179 Co177 2.143 . S
O179 Co178 2.160 . S
C180 O181 1.278 . S
C180 O188 1.224 . S
O181 C180 1.278 . S
C182 O183 1.245 . S
C182 O194 1.232 . S
O183 C182 1.245 . S
O184 Co178 2.058 . S
O184 C210 1.269 . S
O185 Co177 2.074 . S
O185 C210 1.257 . S
H186 C211 0.930 . S
H187 C217 0.930 . S
O188 Co177 2.093 . S
O188 C180 1.224 . S
H189 C221 0.929 . S
H190 C223 0.930 . S
H191 C224 0.930 . S
H192 C222 0.929 . S
H193 C225 0.928 . S
O194 Co178 2.057 . S
O194 C182 1.232 . S
H195 C214 0.929 . S
H196 C215 0.929 . S
H197 C227 0.931 . S
H198 C219 0.929 . S
H199 C228 0.930 . S
H200 C220 0.931 . S
O201 Co177 2.097 . S
O201 C229 1.214 . S
H202 C230 0.929 . S
H203 C231 0.929 . S
H204 C232 0.930 . S
H205 C233 0.929 . S
H206 C235 0.930 . S
H207 C212 0.930 . S
H208 C216 0.930 . S
O209 Co178 2.037 . S
O209 C229 1.234 . S
C210 O184 1.269 . S
C210 O185 1.257 . S
C211 H186 0.930 . S
C211 C214 1.388 . S
C211 C216 1.418 . S
C212 H207 0.930 . S
C212 C215 1.404 . S
C212 C216 1.353 . S
N213 Co178 2.145 . S
N213 C214 1.397 . S
N213 C215 1.334 . S
C214 H195 0.929 . S
C214 C211 1.388 . S
C214 N213 1.397 . S
C215 H196 0.929 . S
C215 C212 1.404 . S
C215 N213 1.334 . S
C216 H208 0.930 . S
C216 C211 1.418 . S
C216 C212 1.353 . S
C217 H187 0.930 . S
C217 N218 1.330 . S
C217 C219 1.446 . S
N218 Co177 2.151 . S
N218 C217 1.330 . S
N218 C222 1.418 . S
C219 H198 0.929 . S
C219 C217 1.446 . S
C219 C220 1.332 . S
C220 H200 0.931 . S
C220 C219 1.332 . S
C220 C221 1.267 . S
C221 H189 0.929 . S
C221 C220 1.267 . S
C221 C222 1.251 . S
C222 H192 0.929 . S
C222 N218 1.418 . S
C222 C221 1.251 . S
C223 H190 0.930 . S
C223 C225 1.406 . S
C223 C228 1.261 . S
C224 H191 0.930 . S
C224 N226 1.325 . S
C224 C227 1.357 . S
C225 H193 0.928 . S
C225 C223 1.406 . S
C225 N226 1.261 . S
N226 Co177 2.214 . S
N226 C224 1.325 . S
N226 C225 1.261 . S
C227 H197 0.931 . S
C227 C224 1.357 . S
C227 C228 1.312 . S
C228 H199 0.930 . S
C228 C223 1.261 . S
C228 C227 1.312 . S
C229 O201 1.214 . S
C229 O209 1.234 . S
C230 H202 0.929 . S
C230 C233 1.391 . S
C230 C235 1.391 . S
C231 H203 0.929 . S
C231 C232 1.390 . S
C231 N234 1.391 . S
C232 H204 0.930 . S
C232 C231 1.390 . S
C232 C233 1.392 . S
C233 H205 0.929 . S
C233 C230 1.391 . S
C233 C232 1.392 . S
N234 Co178 2.257 . S
N234 C231 1.391 . S
N234 C235 1.388 . S
C235 H206 0.930 . S
C235 C230 1.391 . S
C235 N234 1.388 . S
Co236 O238 2.143 1_645 S
Co236 O244 2.074 . S
Co236 O247 2.093 1_655 S
Co236 O260 2.097 1_655 S
Co236 N277 2.151 . S
Co236 N285 2.214 . S
Co237 O238 2.160 . S
Co237 O243 2.058 1_455 S
Co237 O253 2.057 . S
Co237 O268 2.037 1_565 S
Co237 N272 2.145 . S
Co237 N293 2.257 . S
O238 Co236 2.143 1_465 S
O238 Co237 2.160 . S
C239 O240 1.278 . S
C239 O247 1.224 1_565 S
O240 C239 1.278 . S
C241 O242 1.245 . S
C241 O253 1.232 1_655 S
O242 C241 1.245 . S
O243 Co237 2.058 1_655 S
O243 C269 1.269 1_565 S
O244 Co236 2.074 . S
O244 C269 1.257 . S
H245 C270 0.930 . S
H246 C276 0.930 . S
O247 Co236 2.093 1_455 S
O247 C239 1.224 1_545 S
H248 C280 0.929 . S
H249 C282 0.930 . S
H250 C283 0.930 1_455 S
H251 C281 0.929 . S
H252 C284 0.928 . S
O253 Co237 2.057 . S
O253 C241 1.232 1_455 S
H254 C273 0.929 . S
H255 C274 0.929 . S
H256 C286 0.931 . S
H257 C278 0.929 . S
H258 C287 0.930 . S
H259 C279 0.931 . S
O260 Co236 2.097 1_455 S
O260 C288 1.214 . S
H261 C289 0.929 . S
H262 C290 0.929 . S
H263 C291 0.930 . S
H264 C292 0.929 . S
H265 C294 0.930 . S
H266 C271 0.930 . S
H267 C275 0.930 . S
O268 Co237 2.037 1_545 S
O268 C288 1.234 . S
C269 O243 1.269 1_545 S
C269 O244 1.257 . S
C270 H245 0.930 . S
C270 C273 1.388 . S
C270 C275 1.418 . S
C271 H266 0.930 . S
C271 C274 1.404 . S
C271 C275 1.353 . S
N272 Co237 2.145 . S
N272 C273 1.397 . S
N272 C274 1.334 . S
C273 H254 0.929 . S
C273 C270 1.388 . S
C273 N272 1.397 . S
C274 H255 0.929 . S
C274 C271 1.404 . S
C274 N272 1.334 . S
C275 H267 0.930 . S
C275 C270 1.418 . S
C275 C271 1.353 . S
C276 H246 0.930 . S
C276 N277 1.330 1_565 S
C276 C278 1.446 . S
N277 Co236 2.151 . S
N277 C276 1.330 1_545 S
N277 C281 1.418 . S
C278 H257 0.929 . S
C278 C276 1.446 . S
C278 C279 1.332 1_565 S
C279 H259 0.931 . S
C279 C278 1.332 1_545 S
C279 C280 1.267 . S
C280 H248 0.929 . S
C280 C279 1.267 . S
C280 C281 1.251 . S
C281 H251 0.929 . S
C281 N277 1.418 . S
C281 C280 1.251 . S
C282 H249 0.930 . S
C282 C284 1.406 . S
C282 C287 1.261 . S
C283 H250 0.930 1_655 S
C283 N285 1.325 . S
C283 C286 1.357 . S
C284 H252 0.928 . S
C284 C282 1.406 . S
C284 N285 1.261 . S
N285 Co236 2.214 . S
N285 C283 1.325 . S
N285 C284 1.261 . S
C286 H256 0.931 . S
C286 C283 1.357 . S
C286 C287 1.312 . S
C287 H258 0.930 . S
C287 C282 1.261 . S
C287 C286 1.312 . S
C288 O260 1.214 . S
C288 O268 1.234 . S
C289 H261 0.929 . S
C289 C292 1.391 . S
C289 C294 1.391 . S
C290 H262 0.929 . S
C290 C291 1.390 . S
C290 N293 1.391 . S
C291 H263 0.930 . S
C291 C290 1.390 . S
C291 C292 1.392 . S
C292 H264 0.929 . S
C292 C289 1.391 . S
C292 C291 1.392 . S
N293 Co237 2.257 . S
N293 C290 1.391 . S
N293 C294 1.388 . S
C294 H265 0.930 . S
C294 C289 1.391 . S
C294 N293 1.388 . S
Co295 O297 2.143 . S
Co295 O303 2.074 . S
Co295 O306 2.093 . S
Co295 O319 2.097 . S
Co295 N336 2.151 . S
Co295 N344 2.214 . S
Co296 O297 2.160 . S
Co296 O302 2.058 . S
Co296 O312 2.057 . S
Co296 O327 2.037 . S
Co296 N331 2.145 . S
Co296 N352 2.257 . S
O297 Co295 2.143 . S
O297 Co296 2.160 . S
C298 O299 1.278 . S
C298 O306 1.224 . S
O299 C298 1.278 . S
C300 O301 1.245 . S
C300 O312 1.232 . S
O301 C300 1.245 . S
O302 Co296 2.058 . S
O302 C328 1.269 . S
O303 Co295 2.074 . S
O303 C328 1.257 . S
H304 C329 0.930 . S
H305 C335 0.930 . S
O306 Co295 2.093 . S
O306 C298 1.224 . S
H307 C339 0.929 . S
H308 C341 0.930 . S
H309 C342 0.930 . S
H310 C340 0.929 . S
H311 C343 0.928 . S
O312 Co296 2.057 . S
O312 C300 1.232 . S
H313 C332 0.929 . S
H314 C333 0.929 . S
H315 C345 0.931 . S
H316 C337 0.929 . S
H317 C346 0.930 . S
H318 C338 0.931 . S
O319 Co295 2.097 . S
O319 C347 1.214 . S
H320 C348 0.929 . S
H321 C349 0.929 . S
H322 C350 0.930 . S
H323 C351 0.929 . S
H324 C353 0.930 . S
H325 C330 0.930 . S
H326 C334 0.930 . S
O327 Co296 2.037 . S
O327 C347 1.234 . S
C328 O302 1.269 . S
C328 O303 1.257 . S
C329 H304 0.930 . S
C329 C332 1.388 . S
C329 C334 1.418 . S
C330 H325 0.930 . S
C330 C333 1.404 . S
C330 C334 1.353 . S
N331 Co296 2.145 . S
N331 C332 1.397 . S
N331 C333 1.334 . S
C332 H313 0.929 . S
C332 C329 1.388 . S
C332 N331 1.397 . S
C333 H314 0.929 . S
C333 C330 1.404 . S
C333 N331 1.334 . S
C334 H326 0.930 . S
C334 C329 1.418 . S
C334 C330 1.353 . S
C335 H305 0.930 . S
C335 N336 1.330 . S
C335 C337 1.446 . S
N336 Co295 2.151 . S
N336 C335 1.330 . S
N336 C340 1.418 . S
C337 H316 0.929 . S
C337 C335 1.446 . S
C337 C338 1.332 . S
C338 H318 0.931 . S
C338 C337 1.332 . S
C338 C339 1.267 . S
C339 H307 0.929 . S
C339 C338 1.267 . S
C339 C340 1.251 . S
C340 H310 0.929 . S
C340 N336 1.418 . S
C340 C339 1.251 . S
C341 H308 0.930 . S
C341 C343 1.406 . S
C341 C346 1.261 . S
C342 H309 0.930 . S
C342 N344 1.325 . S
C342 C345 1.357 . S
C343 H311 0.928 . S
C343 C341 1.406 . S
C343 N344 1.261 . S
N344 Co295 2.214 . S
N344 C342 1.325 . S
N344 C343 1.261 . S
C345 H315 0.931 . S
C345 C342 1.357 . S
C345 C346 1.312 . S
C346 H317 0.930 . S
C346 C341 1.261 . S
C346 C345 1.312 . S
C347 O319 1.214 . S
C347 O327 1.234 . S
C348 H320 0.929 . S
C348 C351 1.391 . S
C348 C353 1.391 . S
C349 H321 0.929 . S
C349 C350 1.390 . S
C349 N352 1.391 . S
C350 H322 0.930 . S
C350 C349 1.390 . S
C350 C351 1.392 . S
C351 H323 0.929 . S
C351 C348 1.391 . S
C351 C350 1.392 . S
N352 Co296 2.257 . S
N352 C349 1.391 . S
N352 C353 1.388 . S
C353 H324 0.930 . S
C353 C348 1.391 . S
C353 N352 1.388 . S
Co354 O356 2.143 1_565 S
Co354 O362 2.074 . S
Co354 O365 2.093 . S
Co354 O378 2.097 . S
Co354 N395 2.151 . S
Co354 N403 2.214 . S
Co355 O356 2.160 . S
Co355 O361 2.058 . S
Co355 O371 2.057 . S
Co355 O386 2.037 1_545 S
Co355 N390 2.145 . S
Co355 N411 2.257 . S
O356 Co354 2.143 1_545 S
O356 Co355 2.160 . S
C357 O358 1.278 . S
C357 O365 1.224 1_545 S
O358 C357 1.278 . S
C359 O360 1.245 . S
C359 O371 1.232 . S
O360 C359 1.245 . S
O361 Co355 2.058 . S
O361 C387 1.269 1_545 S
O362 Co354 2.074 . S
O362 C387 1.257 . S
H363 C388 0.930 . S
H364 C394 0.930 . S
O365 Co354 2.093 . S
O365 C357 1.224 1_565 S
H366 C398 0.929 . S
H367 C400 0.930 . S
H368 C401 0.930 . S
H369 C399 0.929 . S
H370 C402 0.928 . S
O371 Co355 2.057 . S
O371 C359 1.232 . S
H372 C391 0.929 . S
H373 C392 0.929 . S
H374 C404 0.931 . S
H375 C396 0.929 . S
H376 C405 0.930 . S
H377 C397 0.931 . S
O378 Co354 2.097 . S
O378 C406 1.214 . S
H379 C407 0.929 . S
H380 C408 0.929 . S
H381 C409 0.930 . S
H382 C410 0.929 . S
H383 C412 0.930 . S
H384 C389 0.930 . S
H385 C393 0.930 . S
O386 Co355 2.037 1_565 S
O386 C406 1.234 . S
C387 O361 1.269 1_565 S
C387 O362 1.257 . S
C388 H363 0.930 . S
C388 C391 1.388 . S
C388 C393 1.418 . S
C389 H384 0.930 . S
C389 C392 1.404 . S
C389 C393 1.353 . S
N390 Co355 2.145 . S
N390 C391 1.397 . S
N390 C392 1.334 . S
C391 H372 0.929 . S
C391 C388 1.388 . S
C391 N390 1.397 . S
C392 H373 0.929 . S
C392 C389 1.404 . S
C392 N390 1.334 . S
C393 H385 0.930 . S
C393 C388 1.418 . S
C393 C389 1.353 . S
C394 H364 0.930 . S
C394 N395 1.330 1_545 S
C394 C396 1.446 . S
N395 Co354 2.151 . S
N395 C394 1.330 1_565 S
N395 C399 1.418 . S
C396 H375 0.929 . S
C396 C394 1.446 . S
C396 C397 1.332 1_545 S
C397 H377 0.931 . S
C397 C396 1.332 1_565 S
C397 C398 1.267 . S
C398 H366 0.929 . S
C398 C397 1.267 . S
C398 C399 1.251 . S
C399 H369 0.929 . S
C399 N395 1.418 . S
C399 C398 1.251 . S
C400 H367 0.930 . S
C400 C402 1.406 . S
C400 C405 1.261 . S
C401 H368 0.930 . S
C401 N403 1.325 . S
C401 C404 1.357 . S
C402 H370 0.928 . S
C402 C400 1.406 . S
C402 N403 1.261 . S
N403 Co354 2.214 . S
N403 C401 1.325 . S
N403 C402 1.261 . S
C404 H374 0.931 . S
C404 C401 1.357 . S
C404 C405 1.312 . S
C405 H376 0.930 . S
C405 C400 1.261 . S
C405 C404 1.312 . S
C406 O378 1.214 . S
C406 O386 1.234 . S
C407 H379 0.929 . S
C407 C410 1.391 . S
C407 C412 1.391 . S
C408 H380 0.929 . S
C408 C409 1.390 . S
C408 N411 1.391 . S
C409 H381 0.930 . S
C409 C408 1.390 . S
C409 C410 1.392 . S
C410 H382 0.929 . S
C410 C407 1.391 . S
C410 C409 1.392 . S
N411 Co355 2.257 . S
N411 C408 1.391 . S
N411 C412 1.388 . S
C412 H383 0.930 . S
C412 C407 1.391 . S
C412 N411 1.388 . S
Co413 O415 2.143 . S
Co413 O421 2.074 . S
Co413 O424 2.093 . S
Co413 O437 2.097 . S
Co413 N454 2.151 . S
Co413 N462 2.214 . S
Co414 O415 2.160 . S
Co414 O420 2.058 . S
Co414 O430 2.057 . S
Co414 O445 2.037 . S
Co414 N449 2.145 . S
Co414 N470 2.257 . S
O415 Co413 2.143 . S
O415 Co414 2.160 . S
C416 O417 1.278 . S
C416 O424 1.224 . S
O417 C416 1.278 . S
C418 O419 1.245 . S
C418 O430 1.232 . S
O419 C418 1.245 . S
O420 Co414 2.058 . S
O420 C446 1.269 . S
O421 Co413 2.074 . S
O421 C446 1.257 . S
H422 C447 0.930 . S
H423 C453 0.930 . S
O424 Co413 2.093 . S
O424 C416 1.224 . S
H425 C457 0.929 . S
H426 C459 0.930 . S
H427 C460 0.930 . S
H428 C458 0.929 . S
H429 C461 0.928 . S
O430 Co414 2.057 . S
O430 C418 1.232 . S
H431 C450 0.929 . S
H432 C451 0.929 . S
H433 C463 0.931 . S
H434 C455 0.929 . S
H435 C464 0.930 . S
H436 C456 0.931 . S
O437 Co413 2.097 . S
O437 C465 1.214 . S
H438 C466 0.929 . S
H439 C467 0.929 . S
H440 C468 0.930 . S
H441 C469 0.929 . S
H442 C471 0.930 . S
H443 C448 0.930 . S
H444 C452 0.930 . S
O445 Co414 2.037 . S
O445 C465 1.234 . S
C446 O420 1.269 . S
C446 O421 1.257 . S
C447 H422 0.930 . S
C447 C450 1.388 . S
C447 C452 1.418 . S
C448 H443 0.930 . S
C448 C451 1.404 . S
C448 C452 1.353 . S
N449 Co414 2.145 . S
N449 C450 1.397 . S
N449 C451 1.334 . S
C450 H431 0.929 . S
C450 C447 1.388 . S
C450 N449 1.397 . S
C451 H432 0.929 . S
C451 C448 1.404 . S
C451 N449 1.334 . S
C452 H444 0.930 . S
C452 C447 1.418 . S
C452 C448 1.353 . S
C453 H423 0.930 . S
C453 N454 1.330 . S
C453 C455 1.446 . S
N454 Co413 2.151 . S
N454 C453 1.330 . S
N454 C458 1.418 . S
C455 H434 0.929 . S
C455 C453 1.446 . S
C455 C456 1.332 . S
C456 H436 0.931 . S
C456 C455 1.332 . S
C456 C457 1.267 . S
C457 H425 0.929 . S
C457 C456 1.267 . S
C457 C458 1.251 . S
C458 H428 0.929 . S
C458 N454 1.418 . S
C458 C457 1.251 . S
C459 H426 0.930 . S
C459 C461 1.406 . S
C459 C464 1.261 . S
C460 H427 0.930 . S
C460 N462 1.325 . S
C460 C463 1.357 . S
C461 H429 0.928 . S
C461 C459 1.406 . S
C461 N462 1.261 . S
N462 Co413 2.214 . S
N462 C460 1.325 . S
N462 C461 1.261 . S
C463 H433 0.931 . S
C463 C460 1.357 . S
C463 C464 1.312 . S
C464 H435 0.930 . S
C464 C459 1.261 . S
C464 C463 1.312 . S
C465 O437 1.214 . S
C465 O445 1.234 . S
C466 H438 0.929 . S
C466 C469 1.391 . S
C466 C471 1.391 . S
C467 H439 0.929 . S
C467 C468 1.390 . S
C467 N470 1.391 . S
C468 H440 0.930 . S
C468 C467 1.390 . S
C468 C469 1.392 . S
C469 H441 0.929 . S
C469 C466 1.391 . S
C469 C468 1.392 . S
N470 Co414 2.257 . S
N470 C467 1.391 . S
N470 C471 1.388 . S
C471 H442 0.930 . S
C471 C466 1.391 . S
C471 N470 1.388 . S
Co472 O474 2.143 . S
Co472 O480 2.074 . S
Co472 O483 2.093 . S
Co472 O496 2.097 . S
Co472 N513 2.151 . S
Co472 N521 2.214 . S
Co473 O474 2.160 . S
Co473 O479 2.058 . S
Co473 O489 2.057 . S
Co473 O504 2.037 . S
Co473 N508 2.145 . S
Co473 N529 2.257 . S
O474 Co472 2.143 . S
O474 Co473 2.160 . S
C475 O476 1.278 . S
C475 O483 1.224 . S
O476 C475 1.278 . S
C477 O478 1.245 . S
C477 O489 1.232 . S
O478 C477 1.245 . S
O479 Co473 2.058 . S
O479 C505 1.269 . S
O480 Co472 2.074 . S
O480 C505 1.257 . S
H481 C506 0.930 . S
H482 C512 0.930 . S
O483 Co472 2.093 . S
O483 C475 1.224 . S
H484 C516 0.929 . S
H485 C518 0.930 . S
H486 C519 0.930 . S
H487 C517 0.929 . S
H488 C520 0.928 . S
O489 Co473 2.057 . S
O489 C477 1.232 . S
H490 C509 0.929 . S
H491 C510 0.929 . S
H492 C522 0.931 . S
H493 C514 0.929 . S
H494 C523 0.930 . S
H495 C515 0.931 . S
O496 Co472 2.097 . S
O496 C524 1.214 . S
H497 C525 0.929 . S
H498 C526 0.929 . S
H499 C527 0.930 . S
H500 C528 0.929 . S
H501 C530 0.930 . S
H502 C507 0.930 . S
H503 C511 0.930 . S
O504 Co473 2.037 . S
O504 C524 1.234 . S
C505 O479 1.269 . S
C505 O480 1.257 . S
C506 H481 0.930 . S
C506 C509 1.388 . S
C506 C511 1.418 . S
C507 H502 0.930 . S
C507 C510 1.404 . S
C507 C511 1.353 . S
N508 Co473 2.145 . S
N508 C509 1.397 . S
N508 C510 1.334 . S
C509 H490 0.929 . S
C509 C506 1.388 . S
C509 N508 1.397 . S
C510 H491 0.929 . S
C510 C507 1.404 . S
C510 N508 1.334 . S
C511 H503 0.930 . S
C511 C506 1.418 . S
C511 C507 1.353 . S
C512 H482 0.930 . S
C512 N513 1.330 . S
C512 C514 1.446 . S
N513 Co472 2.151 . S
N513 C512 1.330 . S
N513 C517 1.418 . S
C514 H493 0.929 . S
C514 C512 1.446 . S
C514 C515 1.332 . S
C515 H495 0.931 . S
C515 C514 1.332 . S
C515 C516 1.267 . S
C516 H484 0.929 . S
C516 C515 1.267 . S
C516 C517 1.251 . S
C517 H487 0.929 . S
C517 N513 1.418 . S
C517 C516 1.251 . S
C518 H485 0.930 . S
C518 C520 1.406 . S
C518 C523 1.261 . S
C519 H486 0.930 . S
C519 N521 1.325 . S
C519 C522 1.357 . S
C520 H488 0.928 . S
C520 C518 1.406 . S
C520 N521 1.261 . S
N521 Co472 2.214 . S
N521 C519 1.325 . S
N521 C520 1.261 . S
C522 H492 0.931 . S
C522 C519 1.357 . S
C522 C523 1.312 . S
C523 H494 0.930 . S
C523 C518 1.261 . S
C523 C522 1.312 . S
C524 O496 1.214 . S
C524 O504 1.234 . S
C525 H497 0.929 . S
C525 C528 1.391 . S
C525 C530 1.391 . S
C526 H498 0.929 . S
C526 C527 1.390 . S
C526 N529 1.391 . S
C527 H499 0.930 . S
C527 C526 1.390 . S
C527 C528 1.392 . S
C528 H500 0.929 . S
C528 C525 1.391 . S
C528 C527 1.392 . S
N529 Co473 2.257 . S
N529 C526 1.391 . S
N529 C530 1.388 . S
C530 H501 0.930 . S
C530 C525 1.391 . S
C530 N529 1.388 . S
Co531 O533 2.143 . S
Co531 O539 2.074 . S
Co531 O542 2.093 . S
Co531 O555 2.097 . S
Co531 N572 2.151 . S
Co531 N580 2.214 . S
Co532 O533 2.160 . S
Co532 O538 2.058 . S
Co532 O548 2.057 . S
Co532 O563 2.037 . S
Co532 N567 2.145 . S
Co532 N588 2.257 . S
O533 Co531 2.143 . S
O533 Co532 2.160 . S
C534 O535 1.278 . S
C534 O542 1.224 . S
O535 C534 1.278 . S
C536 O537 1.245 . S
C536 O548 1.232 . S
O537 C536 1.245 . S
O538 Co532 2.058 . S
O538 C564 1.269 . S
O539 Co531 2.074 . S
O539 C564 1.257 . S
H540 C565 0.930 . S
H541 C571 0.930 . S
O542 Co531 2.093 . S
O542 C534 1.224 . S
H543 C575 0.929 . S
H544 C577 0.930 . S
H545 C578 0.930 . S
H546 C576 0.929 . S
H547 C579 0.928 . S
O548 Co532 2.057 . S
O548 C536 1.232 . S
H549 C568 0.929 . S
H550 C569 0.929 . S
H551 C581 0.931 . S
H552 C573 0.929 . S
H553 C582 0.930 . S
H554 C574 0.931 . S
O555 Co531 2.097 . S
O555 C583 1.214 . S
H556 C584 0.929 . S
H557 C585 0.929 . S
H558 C586 0.930 . S
H559 C587 0.929 . S
H560 C589 0.930 . S
H561 C566 0.930 . S
H562 C570 0.930 . S
O563 Co532 2.037 . S
O563 C583 1.234 . S
C564 O538 1.269 . S
C564 O539 1.257 . S
C565 H540 0.930 . S
C565 C568 1.388 . S
C565 C570 1.418 . S
C566 H561 0.930 . S
C566 C569 1.404 . S
C566 C570 1.353 . S
N567 Co532 2.145 . S
N567 C568 1.397 . S
N567 C569 1.334 . S
C568 H549 0.929 . S
C568 C565 1.388 . S
C568 N567 1.397 . S
C569 H550 0.929 . S
C569 C566 1.404 . S
C569 N567 1.334 . S
C570 H562 0.930 . S
C570 C565 1.418 . S
C570 C566 1.353 . S
C571 H541 0.930 . S
C571 N572 1.330 . S
C571 C573 1.446 . S
N572 Co531 2.151 . S
N572 C571 1.330 . S
N572 C576 1.418 . S
C573 H552 0.929 . S
C573 C571 1.446 . S
C573 C574 1.332 . S
C574 H554 0.931 . S
C574 C573 1.332 . S
C574 C575 1.267 . S
C575 H543 0.929 . S
C575 C574 1.267 . S
C575 C576 1.251 . S
C576 H546 0.929 . S
C576 N572 1.418 . S
C576 C575 1.251 . S
C577 H544 0.930 . S
C577 C579 1.406 . S
C577 C582 1.261 . S
C578 H545 0.930 . S
C578 N580 1.325 . S
C578 C581 1.357 . S
C579 H547 0.928 . S
C579 C577 1.406 . S
C579 N580 1.261 . S
N580 Co531 2.214 . S
N580 C578 1.325 . S
N580 C579 1.261 . S
C581 H551 0.931 . S
C581 C578 1.357 . S
C581 C582 1.312 . S
C582 H553 0.930 . S
C582 C577 1.261 . S
C582 C581 1.312 . S
C583 O555 1.214 . S
C583 O563 1.234 . S
C584 H556 0.929 . S
C584 C587 1.391 . S
C584 C589 1.391 . S
C585 H557 0.929 . S
C585 C586 1.390 . S
C585 N588 1.391 . S
C586 H558 0.930 . S
C586 C585 1.390 . S
C586 C587 1.392 . S
C587 H559 0.929 . S
C587 C584 1.391 . S
C587 C586 1.392 . S
N588 Co532 2.257 . S
N588 C585 1.391 . S
N588 C589 1.388 . S
C589 H560 0.930 . S
C589 C584 1.391 . S
C589 N588 1.388 . S
Co590 O592 2.143 . S
Co590 O598 2.074 . S
Co590 O601 2.093 . S
Co590 O614 2.097 . S
Co590 N631 2.151 . S
Co590 N639 2.214 . S
Co591 O592 2.160 . S
Co591 O597 2.058 . S
Co591 O607 2.057 . S
Co591 O622 2.037 . S
Co591 N626 2.145 . S
Co591 N647 2.257 . S
O592 Co590 2.143 . S
O592 Co591 2.160 . S
C593 O594 1.278 . S
C593 O601 1.224 . S
O594 C593 1.278 . S
C595 O596 1.245 . S
C595 O607 1.232 . S
O596 C595 1.245 . S
O597 Co591 2.058 . S
O597 C623 1.269 . S
O598 Co590 2.074 . S
O598 C623 1.257 . S
H599 C624 0.930 . S
H600 C630 0.930 . S
O601 Co590 2.093 . S
O601 C593 1.224 . S
H602 C634 0.929 . S
H603 C636 0.930 . S
H604 C637 0.930 . S
H605 C635 0.929 . S
H606 C638 0.928 . S
O607 Co591 2.057 . S
O607 C595 1.232 . S
H608 C627 0.929 . S
H609 C628 0.929 . S
H610 C640 0.931 . S
H611 C632 0.929 . S
H612 C641 0.930 . S
H613 C633 0.931 . S
O614 Co590 2.097 . S
O614 C642 1.214 . S
H615 C643 0.929 . S
H616 C644 0.929 . S
H617 C645 0.930 . S
H618 C646 0.929 . S
H619 C648 0.930 . S
H620 C625 0.930 . S
H621 C629 0.930 . S
O622 Co591 2.037 . S
O622 C642 1.234 . S
C623 O597 1.269 . S
C623 O598 1.257 . S
C624 H599 0.930 . S
C624 C627 1.388 . S
C624 C629 1.418 . S
C625 H620 0.930 . S
C625 C628 1.404 . S
C625 C629 1.353 . S
N626 Co591 2.145 . S
N626 C627 1.397 . S
N626 C628 1.334 . S
C627 H608 0.929 . S
C627 C624 1.388 . S
C627 N626 1.397 . S
C628 H609 0.929 . S
C628 C625 1.404 . S
C628 N626 1.334 . S
C629 H621 0.930 . S
C629 C624 1.418 . S
C629 C625 1.353 . S
C630 H600 0.930 . S
C630 N631 1.330 . S
C630 C632 1.446 . S
N631 Co590 2.151 . S
N631 C630 1.330 . S
N631 C635 1.418 . S
C632 H611 0.929 . S
C632 C630 1.446 . S
C632 C633 1.332 . S
C633 H613 0.931 . S
C633 C632 1.332 . S
C633 C634 1.267 . S
C634 H602 0.929 . S
C634 C633 1.267 . S
C634 C635 1.251 . S
C635 H605 0.929 . S
C635 N631 1.418 . S
C635 C634 1.251 . S
C636 H603 0.930 . S
C636 C638 1.406 . S
C636 C641 1.261 . S
C637 H604 0.930 . S
C637 N639 1.325 . S
C637 C640 1.357 . S
C638 H606 0.928 . S
C638 C636 1.406 . S
C638 N639 1.261 . S
N639 Co590 2.214 . S
N639 C637 1.325 . S
N639 C638 1.261 . S
C640 H610 0.931 . S
C640 C637 1.357 . S
C640 C641 1.312 . S
C641 H612 0.930 . S
C641 C636 1.261 . S
C641 C640 1.312 . S
C642 O614 1.214 . S
C642 O622 1.234 . S
C643 H615 0.929 . S
C643 C646 1.391 . S
C643 C648 1.391 . S
C644 H616 0.929 . S
C644 C645 1.390 . S
C644 N647 1.391 . S
C645 H617 0.930 . S
C645 C644 1.390 . S
C645 C646 1.392 . S
C646 H618 0.929 . S
C646 C643 1.391 . S
C646 C645 1.392 . S
N647 Co591 2.257 . S
N647 C644 1.391 . S
N647 C648 1.388 . S
C648 H619 0.930 . S
C648 C643 1.391 . S
C648 N647 1.388 . S
Co649 O651 2.143 . S
Co649 O657 2.074 . S
Co649 O660 2.093 . S
Co649 O673 2.097 . S
Co649 N690 2.151 . S
Co649 N698 2.214 . S
Co650 O651 2.160 . S
Co650 O656 2.058 . S
Co650 O666 2.057 . S
Co650 O681 2.037 . S
Co650 N685 2.145 . S
Co650 N706 2.257 . S
O651 Co649 2.143 . S
O651 Co650 2.160 . S
C652 O653 1.278 . S
C652 O660 1.224 . S
O653 C652 1.278 . S
C654 O655 1.245 . S
C654 O666 1.232 . S
O655 C654 1.245 . S
O656 Co650 2.058 . S
O656 C682 1.269 . S
O657 Co649 2.074 . S
O657 C682 1.257 . S
H658 C683 0.930 . S
H659 C689 0.930 . S
O660 Co649 2.093 . S
O660 C652 1.224 . S
H661 C693 0.929 . S
H662 C695 0.930 . S
H663 C696 0.930 . S
H664 C694 0.929 . S
H665 C697 0.928 . S
O666 Co650 2.057 . S
O666 C654 1.232 . S
H667 C686 0.929 . S
H668 C687 0.929 . S
H669 C699 0.931 . S
H670 C691 0.929 . S
H671 C700 0.930 . S
H672 C692 0.931 . S
O673 Co649 2.097 . S
O673 C701 1.214 . S
H674 C702 0.929 . S
H675 C703 0.929 . S
H676 C704 0.930 . S
H677 C705 0.929 . S
H678 C707 0.930 . S
H679 C684 0.930 . S
H680 C688 0.930 . S
O681 Co650 2.037 . S
O681 C701 1.234 . S
C682 O656 1.269 . S
C682 O657 1.257 . S
C683 H658 0.930 . S
C683 C686 1.388 . S
C683 C688 1.418 . S
C684 H679 0.930 . S
C684 C687 1.404 . S
C684 C688 1.353 . S
N685 Co650 2.145 . S
N685 C686 1.397 . S
N685 C687 1.334 . S
C686 H667 0.929 . S
C686 C683 1.388 . S
C686 N685 1.397 . S
C687 H668 0.929 . S
C687 C684 1.404 . S
C687 N685 1.334 . S
C688 H680 0.930 . S
C688 C683 1.418 . S
C688 C684 1.353 . S
C689 H659 0.930 . S
C689 N690 1.330 . S
C689 C691 1.446 . S
N690 Co649 2.151 . S
N690 C689 1.330 . S
N690 C694 1.418 . S
C691 H670 0.929 . S
C691 C689 1.446 . S
C691 C692 1.332 . S
C692 H672 0.931 . S
C692 C691 1.332 . S
C692 C693 1.267 . S
C693 H661 0.929 . S
C693 C692 1.267 . S
C693 C694 1.251 . S
C694 H664 0.929 . S
C694 N690 1.418 . S
C694 C693 1.251 . S
C695 H662 0.930 . S
C695 C697 1.406 . S
C695 C700 1.261 . S
C696 H663 0.930 . S
C696 N698 1.325 . S
C696 C699 1.357 . S
C697 H665 0.928 . S
C697 C695 1.406 . S
C697 N698 1.261 . S
N698 Co649 2.214 . S
N698 C696 1.325 . S
N698 C697 1.261 . S
C699 H669 0.931 . S
C699 C696 1.357 . S
C699 C700 1.312 . S
C700 H671 0.930 . S
C700 C695 1.261 . S
C700 C699 1.312 . S
C701 O673 1.214 . S
C701 O681 1.234 . S
C702 H674 0.929 . S
C702 C705 1.391 . S
C702 C707 1.391 . S
C703 H675 0.929 . S
C703 C704 1.390 . S
C703 N706 1.391 . S
C704 H676 0.930 . S
C704 C703 1.390 . S
C704 C705 1.392 . S
C705 H677 0.929 . S
C705 C702 1.391 . S
C705 C704 1.392 . S
N706 Co650 2.257 . S
N706 C703 1.391 . S
N706 C707 1.388 . S
C707 H678 0.930 . S
C707 C702 1.391 . S
C707 N706 1.388 . S
Co708 O710 2.143 . S
Co708 O716 2.074 . S
Co708 O719 2.093 . S
Co708 O732 2.097 . S
Co708 N749 2.151 . S
Co708 N757 2.214 . S
Co709 O710 2.160 . S
Co709 O715 2.058 . S
Co709 O725 2.057 . S
Co709 O740 2.037 . S
Co709 N744 2.145 . S
Co709 N765 2.257 . S
O710 Co708 2.143 . S
O710 Co709 2.160 . S
C711 O712 1.278 . S
C711 O719 1.224 . S
O712 C711 1.278 . S
C713 O714 1.245 . S
C713 O725 1.232 . S
O714 C713 1.245 . S
O715 Co709 2.058 . S
O715 C741 1.269 . S
O716 Co708 2.074 . S
O716 C741 1.257 . S
H717 C742 0.930 . S
H718 C748 0.930 . S
O719 Co708 2.093 . S
O719 C711 1.224 . S
H720 C752 0.929 . S
H721 C754 0.930 . S
H722 C755 0.930 . S
H723 C753 0.929 . S
H724 C756 0.928 . S
O725 Co709 2.057 . S
O725 C713 1.232 . S
H726 C745 0.929 . S
H727 C746 0.929 . S
H728 C758 0.931 . S
H729 C750 0.929 . S
H730 C759 0.930 . S
H731 C751 0.931 . S
O732 Co708 2.097 . S
O732 C760 1.214 . S
H733 C761 0.929 . S
H734 C762 0.929 . S
H735 C763 0.930 . S
H736 C764 0.929 . S
H737 C766 0.930 . S
H738 C743 0.930 . S
H739 C747 0.930 . S
O740 Co709 2.037 . S
O740 C760 1.234 . S
C741 O715 1.269 . S
C741 O716 1.257 . S
C742 H717 0.930 . S
C742 C745 1.388 . S
C742 C747 1.418 . S
C743 H738 0.930 . S
C743 C746 1.404 . S
C743 C747 1.353 . S
N744 Co709 2.145 . S
N744 C745 1.397 . S
N744 C746 1.334 . S
C745 H726 0.929 . S
C745 C742 1.388 . S
C745 N744 1.397 . S
C746 H727 0.929 . S
C746 C743 1.404 . S
C746 N744 1.334 . S
C747 H739 0.930 . S
C747 C742 1.418 . S
C747 C743 1.353 . S
C748 H718 0.930 . S
C748 N749 1.330 . S
C748 C750 1.446 . S
N749 Co708 2.151 . S
N749 C748 1.330 . S
N749 C753 1.418 . S
C750 H729 0.929 . S
C750 C748 1.446 . S
C750 C751 1.332 . S
C751 H731 0.931 . S
C751 C750 1.332 . S
C751 C752 1.267 . S
C752 H720 0.929 . S
C752 C751 1.267 . S
C752 C753 1.251 . S
C753 H723 0.929 . S
C753 N749 1.418 . S
C753 C752 1.251 . S
C754 H721 0.930 . S
C754 C756 1.406 . S
C754 C759 1.261 . S
C755 H722 0.930 . S
C755 N757 1.325 . S
C755 C758 1.357 . S
C756 H724 0.928 . S
C756 C754 1.406 . S
C756 N757 1.261 . S
N757 Co708 2.214 . S
N757 C755 1.325 . S
N757 C756 1.261 . S
C758 H728 0.931 . S
C758 C755 1.357 . S
C758 C759 1.312 . S
C759 H730 0.930 . S
C759 C754 1.261 . S
C759 C758 1.312 . S
C760 O732 1.214 . S
C760 O740 1.234 . S
C761 H733 0.929 . S
C761 C764 1.391 . S
C761 C766 1.391 . S
C762 H734 0.929 . S
C762 C763 1.390 . S
C762 N765 1.391 . S
C763 H735 0.930 . S
C763 C762 1.390 . S
C763 C764 1.392 . S
C764 H736 0.929 . S
C764 C761 1.391 . S
C764 C763 1.392 . S
N765 Co709 2.257 . S
N765 C762 1.391 . S
N765 C766 1.388 . S
C766 H737 0.930 . S
C766 C761 1.391 . S
C766 N765 1.388 . S
Co767 O769 2.143 . S
Co767 O775 2.074 . S
Co767 O778 2.099 . S
Co767 O791 2.097 1_455 S
Co767 N808 2.151 . S
Co767 N816 2.214 . S
Co768 O769 2.160 1_655 S
Co768 O774 2.058 1_655 S
Co768 O784 2.057 1_655 S
Co768 O799 2.037 . S
Co768 N803 2.145 . S
Co768 N824 2.257 . S
O769 Co767 2.143 . S
O769 Co768 2.160 1_455 S
C770 O771 1.278 . S
C770 O778 1.217 1_655 S
O771 C770 1.278 . S
C772 O773 1.245 . S
C772 O784 1.232 . S
O773 C772 1.245 . S
O774 Co768 2.058 1_455 S
O774 C800 1.269 . S
O775 Co767 2.074 . S
O775 C800 1.257 . S
H776 C801 0.930 . S
H777 C807 0.930 . S
O778 Co767 2.099 . S
O778 C770 1.217 1_455 S
H779 C811 0.929 . S
H780 C813 0.930 . S
H781 C814 0.930 . S
H782 C812 0.929 . S
H783 C815 0.928 . S
O784 Co768 2.057 1_455 S
O784 C772 1.232 . S
H785 C804 0.929 . S
H786 C805 0.929 . S
H787 C817 0.931 . S
H788 C809 0.929 . S
H789 C818 0.930 . S
H790 C810 0.931 . S
O791 Co767 2.097 1_655 S
O791 C819 1.214 . S
H792 C820 0.929 . S
H793 C821 0.929 . S
H794 C822 0.930 . S
H795 C823 0.929 . S
H796 C825 0.930 . S
H797 C802 0.930 . S
H798 C806 0.930 . S
O799 Co768 2.037 . S
O799 C819 1.234 . S
C800 O774 1.269 . S
C800 O775 1.257 . S
C801 H776 0.930 . S
C801 C804 1.388 . S
C801 C806 1.418 . S
C802 H797 0.930 . S
C802 C805 1.404 . S
C802 C806 1.353 . S
N803 Co768 2.145 . S
N803 C804 1.397 . S
N803 C805 1.334 . S
C804 H785 0.929 . S
C804 C801 1.388 . S
C804 N803 1.397 . S
C805 H786 0.929 . S
C805 C802 1.404 . S
C805 N803 1.334 . S
C806 H798 0.930 . S
C806 C801 1.418 . S
C806 C802 1.353 . S
C807 H777 0.930 . S
C807 N808 1.330 . S
C807 C809 1.446 . S
N808 Co767 2.151 . S
N808 C807 1.330 . S
N808 C812 1.418 . S
C809 H788 0.929 . S
C809 C807 1.446 . S
C809 C810 1.332 . S
C810 H790 0.931 . S
C810 C809 1.332 . S
C810 C811 1.267 . S
C811 H779 0.929 . S
C811 C810 1.267 . S
C811 C812 1.251 . S
C812 H782 0.929 . S
C812 N808 1.418 . S
C812 C811 1.251 . S
C813 H780 0.930 . S
C813 C815 1.406 . S
C813 C818 1.261 . S
C814 H781 0.930 . S
C814 N816 1.325 . S
C814 C817 1.357 . S
C815 H783 0.928 . S
C815 C813 1.406 . S
C815 N816 1.261 . S
N816 Co767 2.214 . S
N816 C814 1.325 . S
N816 C815 1.261 . S
C817 H787 0.931 . S
C817 C814 1.357 . S
C817 C818 1.312 . S
C818 H789 0.930 . S
C818 C813 1.261 . S
C818 C817 1.312 . S
C819 O791 1.214 . S
C819 O799 1.234 . S
C820 H792 0.929 . S
C820 C823 1.391 . S
C820 C825 1.391 . S
C821 H793 0.929 . S
C821 C822 1.390 . S
C821 N824 1.391 . S
C822 H794 0.930 . S
C822 C821 1.390 . S
C822 C823 1.392 . S
C823 H795 0.929 . S
C823 C820 1.391 . S
C823 C822 1.392 . S
N824 Co768 2.257 . S
N824 C821 1.391 . S
N824 C825 1.388 . S
C825 H796 0.930 . S
C825 C820 1.391 . S
C825 N824 1.388 . S
Co826 O828 2.143 . S
Co826 O834 2.074 . S
Co826 O837 2.093 . S
Co826 O850 2.097 . S
Co826 N867 2.151 . S
Co826 N875 2.214 . S
Co827 O828 2.160 . S
Co827 O833 2.058 . S
Co827 O843 2.057 . S
Co827 O858 2.037 . S
Co827 N862 2.145 . S
Co827 N883 2.257 . S
O828 Co826 2.143 . S
O828 Co827 2.160 . S
C829 O830 1.278 . S
C829 O837 1.224 . S
O830 C829 1.278 . S
C831 O832 1.245 . S
C831 O843 1.232 . S
O832 C831 1.245 . S
O833 Co827 2.058 . S
O833 C859 1.269 . S
O834 Co826 2.074 . S
O834 C859 1.257 . S
H835 C860 0.930 . S
H836 C866 0.930 . S
O837 Co826 2.093 . S
O837 C829 1.224 . S
H838 C870 0.929 . S
H839 C872 0.930 . S
H840 C873 0.930 . S
H841 C871 0.929 . S
H842 C874 0.928 . S
O843 Co827 2.057 . S
O843 C831 1.232 . S
H844 C863 0.929 . S
H845 C864 0.929 . S
H846 C876 0.931 . S
H847 C868 0.929 . S
H848 C877 0.930 . S
H849 C869 0.931 . S
O850 Co826 2.097 . S
O850 C878 1.214 . S
H851 C879 0.929 . S
H852 C880 0.929 . S
H853 C881 0.930 . S
H854 C882 0.929 . S
H855 C884 0.930 . S
H856 C861 0.930 . S
H857 C865 0.930 . S
O858 Co827 2.037 . S
O858 C878 1.234 . S
C859 O833 1.269 . S
C859 O834 1.257 . S
C860 H835 0.930 . S
C860 C863 1.388 . S
C860 C865 1.418 . S
C861 H856 0.930 . S
C861 C864 1.404 . S
C861 C865 1.353 . S
N862 Co827 2.145 . S
N862 C863 1.397 . S
N862 C864 1.334 . S
C863 H844 0.929 . S
C863 C860 1.388 . S
C863 N862 1.397 . S
C864 H845 0.929 . S
C864 C861 1.404 . S
C864 N862 1.334 . S
C865 H857 0.930 . S
C865 C860 1.418 . S
C865 C861 1.353 . S
C866 H836 0.930 . S
C866 N867 1.330 . S
C866 C868 1.446 . S
N867 Co826 2.151 . S
N867 C866 1.330 . S
N867 C871 1.418 . S
C868 H847 0.929 . S
C868 C866 1.446 . S
C868 C869 1.332 . S
C869 H849 0.931 . S
C869 C868 1.332 . S
C869 C870 1.267 . S
C870 H838 0.929 . S
C870 C869 1.267 . S
C870 C871 1.251 . S
C871 H841 0.929 . S
C871 N867 1.418 . S
C871 C870 1.251 . S
C872 H839 0.930 . S
C872 C874 1.406 . S
C872 C877 1.261 . S
C873 H840 0.930 . S
C873 N875 1.325 . S
C873 C876 1.357 . S
C874 H842 0.928 . S
C874 C872 1.406 . S
C874 N875 1.261 . S
N875 Co826 2.214 . S
N875 C873 1.325 . S
N875 C874 1.261 . S
C876 H846 0.931 . S
C876 C873 1.357 . S
C876 C877 1.312 . S
C877 H848 0.930 . S
C877 C872 1.261 . S
C877 C876 1.312 . S
C878 O850 1.214 . S
C878 O858 1.234 . S
C879 H851 0.929 . S
C879 C882 1.391 . S
C879 C884 1.391 . S
C880 H852 0.929 . S
C880 C881 1.390 . S
C880 N883 1.391 . S
C881 H853 0.930 . S
C881 C880 1.390 . S
C881 C882 1.392 . S
C882 H854 0.929 . S
C882 C879 1.391 . S
C882 C881 1.392 . S
N883 Co827 2.257 . S
N883 C880 1.391 . S
N883 C884 1.388 . S
C884 H855 0.930 . S
C884 C879 1.391 . S
C884 N883 1.388 . S
Co885 O887 2.143 . S
Co885 O893 2.074 . S
Co885 O896 2.099 . S
Co885 O909 2.097 1_455 S
Co885 N926 2.151 . S
Co885 N934 2.214 . S
Co886 O887 2.160 1_655 S
Co886 O892 2.058 1_655 S
Co886 O902 2.057 1_655 S
Co886 O917 2.037 . S
Co886 N921 2.145 . S
Co886 N942 2.257 . S
O887 Co885 2.143 . S
O887 Co886 2.160 1_455 S
C888 O889 1.278 . S
C888 O896 1.217 1_655 S
O889 C888 1.278 . S
C890 O891 1.245 . S
C890 O902 1.232 . S
O891 C890 1.245 . S
O892 Co886 2.058 1_455 S
O892 C918 1.269 . S
O893 Co885 2.074 . S
O893 C918 1.257 . S
H894 C919 0.930 . S
H895 C925 0.930 . S
O896 Co885 2.099 . S
O896 C888 1.217 1_455 S
H897 C929 0.929 . S
H898 C931 0.930 . S
H899 C932 0.930 . S
H900 C930 0.929 . S
H901 C933 0.928 . S
O902 Co886 2.057 1_455 S
O902 C890 1.232 . S
H903 C922 0.929 . S
H904 C923 0.929 . S
H905 C935 0.931 . S
H906 C927 0.929 . S
H907 C936 0.930 . S
H908 C928 0.931 . S
O909 Co885 2.097 1_655 S
O909 C937 1.214 . S
H910 C938 0.929 . S
H911 C939 0.929 . S
H912 C940 0.930 . S
H913 C941 0.929 . S
H914 C943 0.930 . S
H915 C920 0.930 . S
H916 C924 0.930 . S
O917 Co886 2.037 . S
O917 C937 1.234 . S
C918 O892 1.269 . S
C918 O893 1.257 . S
C919 H894 0.930 . S
C919 C922 1.388 . S
C919 C924 1.418 . S
C920 H915 0.930 . S
C920 C923 1.404 . S
C920 C924 1.353 . S
N921 Co886 2.145 . S
N921 C922 1.397 . S
N921 C923 1.334 . S
C922 H903 0.929 . S
C922 C919 1.388 . S
C922 N921 1.397 . S
C923 H904 0.929 . S
C923 C920 1.404 . S
C923 N921 1.334 . S
C924 H916 0.930 . S
C924 C919 1.418 . S
C924 C920 1.353 . S
C925 H895 0.930 . S
C925 N926 1.330 . S
C925 C927 1.446 . S
N926 Co885 2.151 . S
N926 C925 1.330 . S
N926 C930 1.418 . S
C927 H906 0.929 . S
C927 C925 1.446 . S
C927 C928 1.332 . S
C928 H908 0.931 . S
C928 C927 1.332 . S
C928 C929 1.267 . S
C929 H897 0.929 . S
C929 C928 1.267 . S
C929 C930 1.251 . S
C930 H900 0.929 . S
C930 N926 1.418 . S
C930 C929 1.251 . S
C931 H898 0.930 . S
C931 C933 1.406 . S
C931 C936 1.261 . S
C932 H899 0.930 . S
C932 N934 1.325 . S
C932 C935 1.357 . S
C933 H901 0.928 . S
C933 C931 1.406 . S
C933 N934 1.261 . S
N934 Co885 2.214 . S
N934 C932 1.325 . S
N934 C933 1.261 . S
C935 H905 0.931 . S
C935 C932 1.357 . S
C935 C936 1.312 . S
C936 H907 0.930 . S
C936 C931 1.261 . S
C936 C935 1.312 . S
C937 O909 1.214 . S
C937 O917 1.234 . S
C938 H910 0.929 . S
C938 C941 1.391 . S
C938 C943 1.391 . S
C939 H911 0.929 . S
C939 C940 1.390 . S
C939 N942 1.391 . S
C940 H912 0.930 . S
C940 C939 1.390 . S
C940 C941 1.392 . S
C941 H913 0.929 . S
C941 C938 1.391 . S
C941 C940 1.392 . S
N942 Co886 2.257 . S
N942 C939 1.391 . S
N942 C943 1.388 . S
C943 H914 0.930 . S
C943 C938 1.391 . S
C943 N942 1.388 . S
H944 C952 0.950 . S
H945 C957 0.950 . S
H946 C954 0.950 . S
H947 C956 0.950 . S
H948 C958 0.950 . S
H949 C960 0.950 . S
H950 C962 0.950 . S
H951 C963 0.950 . S
C952 H944 0.950 . S
C952 C953 1.386 1_455 S
C952 C954 1.391 . S
C953 C952 1.386 1_655 S
C953 C957 1.393 . S
C954 H946 0.950 . S
C954 C952 1.391 . S
C954 C955 1.400 . S
C955 C954 1.400 . S
C955 C956 1.398 1_455 S
C955 C961 1.491 . S
C956 H947 0.950 . S
C956 C955 1.398 1_655 S
C956 C957 1.391 . S
C957 H945 0.950 . S
C957 C953 1.393 . S
C957 C956 1.391 . S
C958 H948 0.950 . S
C958 C959 1.386 1_655 S
C958 C960 1.391 . S
C959 C958 1.386 1_455 S
C959 C963 1.393 . S
C960 H949 0.950 . S
C960 C958 1.391 . S
C960 C961 1.400 1_655 S
C961 C955 1.491 . S
C961 C960 1.400 1_455 S
C961 C962 1.398 . S
C962 H950 0.950 . S
C962 C961 1.398 . S
C962 C963 1.391 . S
C963 H951 0.950 . S
C963 C959 1.393 . S
C963 C962 1.391 . S
H964 C972 0.950 . S
H965 C977 0.950 . S
H966 C974 0.950 . S
H967 C976 0.950 . S
H968 C978 0.950 . S
H969 C980 0.950 . S
H970 C982 0.950 . S
H971 C983 0.950 . S
C972 H964 0.950 . S
C972 C973 1.386 . S
C972 C974 1.391 . S
C973 C972 1.386 . S
C973 C977 1.393 . S
C974 H966 0.950 . S
C974 C972 1.391 . S
C974 C975 1.400 . S
C975 C974 1.400 . S
C975 C976 1.398 . S
C975 C981 1.491 1_655 S
C976 H967 0.950 . S
C976 C975 1.398 . S
C976 C977 1.391 . S
C977 H965 0.950 . S
C977 C973 1.393 . S
C977 C976 1.391 . S
C978 H968 0.950 . S
C978 C979 1.386 . S
C978 C980 1.391 . S
C979 C978 1.386 . S
C979 C983 1.393 . S
C980 H969 0.950 . S
C980 C978 1.391 . S
C980 C981 1.400 . S
C981 C975 1.491 1_455 S
C981 C980 1.400 . S
C981 C982 1.398 . S
C982 H970 0.950 . S
C982 C981 1.398 . S
C982 C983 1.391 . S
C983 H971 0.950 . S
C983 C979 1.393 . S
C983 C982 1.391 . S
H984 C992 0.950 . S
H985 C997 0.950 . S
H986 C994 0.950 . S
H987 C996 0.950 . S
H988 C998 0.950 . S
H989 C1000 0.950 . S
H990 C1002 0.950 . S
H991 C1003 0.950 . S
C992 H984 0.950 . S
C992 C993 1.386 . S
C992 C994 1.391 . S
C993 C992 1.386 . S
C993 C997 1.393 . S
C994 H986 0.950 . S
C994 C992 1.391 . S
C994 C995 1.400 . S
C995 C994 1.400 . S
C995 C996 1.398 . S
C995 C1001 1.491 . S
C996 H987 0.950 . S
C996 C995 1.398 . S
C996 C997 1.391 . S
C997 H985 0.950 . S
C997 C993 1.393 . S
C997 C996 1.391 . S
C998 H988 0.950 . S
C998 C999 1.386 . S
C998 C1000 1.391 . S
C999 C998 1.386 . S
C999 C1003 1.393 . S
C1000 H989 0.950 . S
C1000 C998 1.391 . S
C1000 C1001 1.400 . S
C1001 C995 1.491 . S
C1001 C1000 1.400 . S
C1001 C1002 1.398 . S
C1002 H990 0.950 . S
C1002 C1001 1.398 . S
C1002 C1003 1.391 . S
C1003 H991 0.950 . S
C1003 C999 1.393 . S
C1003 C1002 1.391 . S
H1004 C1012 0.950 . S
H1005 C1017 0.950 . S
H1006 C1014 0.950 . S
H1007 C1016 0.950 . S
H1008 C1018 0.950 . S
H1009 C1020 0.950 . S
H1010 C1022 0.950 . S
H1011 C1023 0.950 . S
C1012 H1004 0.950 . S
C1012 C1013 1.386 . S
C1012 C1014 1.391 . S
C1013 C1012 1.386 . S
C1013 C1017 1.393 . S
C1014 H1006 0.950 . S
C1014 C1012 1.391 . S
C1014 C1015 1.400 . S
C1015 C1014 1.400 . S
C1015 C1016 1.398 . S
C1015 C1021 1.491 . S
C1016 H1007 0.950 . S
C1016 C1015 1.398 . S
C1016 C1017 1.391 . S
C1017 H1005 0.950 . S
C1017 C1013 1.393 . S
C1017 C1016 1.391 . S
C1018 H1008 0.950 . S
C1018 C1019 1.386 . S
C1018 C1020 1.391 . S
C1019 C1018 1.386 . S
C1019 C1023 1.393 . S
C1020 H1009 0.950 . S
C1020 C1018 1.391 . S
C1020 C1021 1.400 . S
C1021 C1015 1.491 . S
C1021 C1020 1.400 . S
C1021 C1022 1.398 . S
C1022 H1010 0.950 . S
C1022 C1021 1.398 . S
C1022 C1023 1.391 . S
C1023 H1011 0.950 . S
C1023 C1019 1.393 . S
C1023 C1022 1.391 . S
H1024 C1032 0.950 . S
H1025 C1037 0.950 . S
H1026 C1034 0.950 . S
H1027 C1036 0.950 . S
H1028 C1038 0.950 1_655 S
H1029 C1040 0.950 . S
H1030 C1042 0.950 . S
H1031 C1043 0.950 . S
C1032 H1024 0.950 . S
C1032 C1033 1.386 1_455 S
C1032 C1034 1.391 . S
C1033 C1032 1.386 1_655 S
C1033 C1037 1.393 . S
C1034 H1026 0.950 . S
C1034 C1032 1.391 . S
C1034 C1035 1.400 . S
C1035 C1034 1.400 . S
C1035 C1036 1.398 1_455 S
C1035 C1041 1.491 . S
C1036 H1027 0.950 . S
C1036 C1035 1.398 1_655 S
C1036 C1037 1.391 . S
C1037 H1025 0.950 . S
C1037 C1033 1.393 . S
C1037 C1036 1.391 . S
C1038 H1028 0.950 1_455 S
C1038 C1039 1.386 . S
C1038 C1040 1.391 1_455 S
C1039 C1038 1.386 . S
C1039 C1043 1.393 . S
C1040 H1029 0.950 . S
C1040 C1038 1.391 1_655 S
C1040 C1041 1.400 1_655 S
C1041 C1035 1.491 . S
C1041 C1040 1.400 1_455 S
C1041 C1042 1.398 . S
C1042 H1030 0.950 . S
C1042 C1041 1.398 . S
C1042 C1043 1.391 . S
C1043 H1031 0.950 . S
C1043 C1039 1.393 . S
C1043 C1042 1.391 . S
H1044 C1052 0.950 . S
H1045 C1057 0.950 . S
H1046 C1054 0.950 . S
H1047 C1056 0.950 . S
H1048 C1058 0.950 . S
H1049 C1060 0.950 . S
H1050 C1062 0.950 . S
H1051 C1063 0.950 . S
C1052 H1044 0.950 . S
C1052 C1053 1.386 . S
C1052 C1054 1.391 . S
C1053 C1052 1.386 . S
C1053 C1057 1.393 . S
C1054 H1046 0.950 . S
C1054 C1052 1.391 . S
C1054 C1055 1.400 . S
C1055 C1054 1.400 . S
C1055 C1056 1.398 . S
C1055 C1061 1.491 . S
C1056 H1047 0.950 . S
C1056 C1055 1.398 . S
C1056 C1057 1.391 . S
C1057 H1045 0.950 . S
C1057 C1053 1.393 . S
C1057 C1056 1.391 . S
C1058 H1048 0.950 . S
C1058 C1059 1.386 . S
C1058 C1060 1.391 . S
C1059 C1058 1.386 . S
C1059 C1063 1.393 . S
C1060 H1049 0.950 . S
C1060 C1058 1.391 . S
C1060 C1061 1.400 . S
C1061 C1055 1.491 . S
C1061 C1060 1.400 . S
C1061 C1062 1.398 . S
C1062 H1050 0.950 . S
C1062 C1061 1.398 . S
C1062 C1063 1.391 . S
C1063 H1051 0.950 . S
C1063 C1059 1.393 . S
C1063 C1062 1.391 . S
H1064 C1072 0.950 . S
H1065 C1077 0.950 . S
H1066 C1074 0.950 . S
H1067 C1076 0.950 . S
H1068 C1078 0.950 . S
H1069 C1080 0.950 . S
H1070 C1082 0.950 . S
H1071 C1083 0.950 . S
C1072 H1064 0.950 . S
C1072 C1073 1.386 . S
C1072 C1074 1.391 . S
C1073 C1072 1.386 . S
C1073 C1077 1.393 . S
C1074 H1066 0.950 . S
C1074 C1072 1.391 . S
C1074 C1075 1.400 . S
C1075 C1074 1.400 . S
C1075 C1076 1.398 . S
C1075 C1081 1.491 . S
C1076 H1067 0.950 . S
C1076 C1075 1.398 . S
C1076 C1077 1.391 . S
C1077 H1065 0.950 . S
C1077 C1073 1.393 . S
C1077 C1076 1.391 . S
C1078 H1068 0.950 . S
C1078 C1079 1.386 . S
C1078 C1080 1.391 . S
C1079 C1078 1.386 . S
C1079 C1083 1.393 . S
C1080 H1069 0.950 . S
C1080 C1078 1.391 . S
C1080 C1081 1.400 . S
C1081 C1075 1.491 . S
C1081 C1080 1.400 . S
C1081 C1082 1.398 . S
C1082 H1070 0.950 . S
C1082 C1081 1.398 . S
C1082 C1083 1.391 . S
C1083 H1071 0.950 . S
C1083 C1079 1.393 . S
C1083 C1082 1.391 . S
H1084 C1092 0.950 . S
H1085 C1097 0.950 . S
H1086 C1094 0.950 . S
H1087 C1096 0.950 . S
H1088 C1098 0.950 . S
H1089 C1100 0.950 . S
H1090 C1102 0.950 . S
H1091 C1103 0.950 . S
C1092 H1084 0.950 . S
C1092 C1093 1.386 . S
C1092 C1094 1.391 . S
C1093 C1092 1.386 . S
C1093 C1097 1.393 . S
C1094 H1086 0.950 . S
C1094 C1092 1.391 . S
C1094 C1095 1.400 . S
C1095 C1094 1.400 . S
C1095 C1096 1.398 . S
C1095 C1101 1.491 1_455 S
C1096 H1087 0.950 . S
C1096 C1095 1.398 . S
C1096 C1097 1.391 . S
C1097 H1085 0.950 . S
C1097 C1093 1.393 . S
C1097 C1096 1.391 . S
C1098 H1088 0.950 . S
C1098 C1099 1.386 . S
C1098 C1100 1.391 . S
C1099 C1098 1.386 . S
C1099 C1103 1.393 . S
C1100 H1089 0.950 . S
C1100 C1098 1.391 . S
C1100 C1101 1.400 . S
C1101 C1095 1.491 1_655 S
C1101 C1100 1.400 . S
C1101 C1102 1.398 . S
C1102 H1090 0.950 . S
C1102 C1101 1.398 . S
C1102 C1103 1.391 . S
C1103 H1091 0.950 . S
C1103 C1099 1.393 . S
C1103 C1102 1.391 . S
H1104 C1112 0.950 . S
H1105 C1117 0.950 1_655 S
H1106 C1114 0.950 . S
H1107 C1116 0.950 1_655 S
H1108 C1118 0.950 1_655 S
H1109 C1120 0.950 1_655 S
H1110 C1122 0.950 . S
H1111 C1123 0.950 . S
C1112 H1104 0.950 . S
C1112 C1113 1.386 . S
C1112 C1114 1.391 . S
C1113 C1112 1.386 . S
C1113 C1117 1.393 . S
C1114 H1106 0.950 . S
C1114 C1112 1.391 . S
C1114 C1115 1.400 . S
C1115 C1114 1.400 . S
C1115 C1116 1.398 1_565 S
C1115 C1121 1.491 1_565 S
C1116 H1107 0.950 1_455 S
C1116 C1115 1.398 1_545 S
C1116 C1117 1.391 1_545 S
C1117 H1105 0.950 1_455 S
C1117 C1113 1.393 . S
C1117 C1116 1.391 1_565 S
C1118 H1108 0.950 1_455 S
C1118 C1119 1.386 . S
C1118 C1120 1.391 . S
C1119 C1118 1.386 . S
C1119 C1123 1.393 . S
C1120 H1109 0.950 1_455 S
C1120 C1118 1.391 . S
C1120 C1121 1.400 . S
C1121 C1115 1.491 1_545 S
C1121 C1120 1.400 . S
C1121 C1122 1.398 1_545 S
C1122 H1110 0.950 . S
C1122 C1121 1.398 1_565 S
C1122 C1123 1.391 1_565 S
C1123 H1111 0.950 . S
C1123 C1119 1.393 . S
C1123 C1122 1.391 1_545 S
H1124 C1132 0.950 . S
H1125 C1137 0.950 . S
H1126 C1134 0.950 . S
H1127 C1136 0.950 . S
H1128 C1138 0.950 . S
H1129 C1140 0.950 . S
H1130 C1142 0.950 . S
H1131 C1143 0.950 . S
C1132 H1124 0.950 . S
C1132 C1133 1.386 . S
C1132 C1134 1.391 . S
C1133 C1132 1.386 . S
C1133 C1137 1.393 . S
C1134 H1126 0.950 . S
C1134 C1132 1.391 . S
C1134 C1135 1.400 . S
C1135 C1134 1.400 . S
C1135 C1136 1.398 . S
C1135 C1141 1.491 . S
C1136 H1127 0.950 . S
C1136 C1135 1.398 . S
C1136 C1137 1.391 . S
C1137 H1125 0.950 . S
C1137 C1133 1.393 . S
C1137 C1136 1.391 . S
C1138 H1128 0.950 . S
C1138 C1139 1.386 . S
C1138 C1140 1.391 . S
C1139 C1138 1.386 . S
C1139 C1143 1.393 . S
C1140 H1129 0.950 . S
C1140 C1138 1.391 . S
C1140 C1141 1.400 . S
C1141 C1135 1.491 . S
C1141 C1140 1.400 . S
C1141 C1142 1.398 . S
C1142 H1130 0.950 . S
C1142 C1141 1.398 . S
C1142 C1143 1.391 . S
C1143 H1131 0.950 . S
C1143 C1139 1.393 . S
C1143 C1142 1.391 . S
H1144 C1152 0.950 . S
H1145 C1157 0.950 . S
H1146 C1154 0.950 . S
H1147 C1156 0.950 . S
H1148 C1158 0.950 . S
H1149 C1160 0.950 . S
H1150 C1162 0.950 . S
H1151 C1163 0.950 . S
C1152 H1144 0.950 . S
C1152 C1153 1.386 . S
C1152 C1154 1.391 . S
C1153 C1152 1.386 . S
C1153 C1157 1.393 1_565 S
C1154 H1146 0.950 . S
C1154 C1152 1.391 . S
C1154 C1155 1.400 . S
C1155 C1154 1.400 . S
C1155 C1156 1.398 1_565 S
C1155 C1161 1.491 1_564 S
C1156 H1147 0.950 . S
C1156 C1155 1.398 1_545 S
C1156 C1157 1.391 . S
C1157 H1145 0.950 . S
C1157 C1153 1.393 1_545 S
C1157 C1156 1.391 . S
C1158 H1148 0.950 . S
C1158 C1159 1.386 . S
C1158 C1160 1.391 . S
C1159 C1158 1.386 . S
C1159 C1163 1.393 1_545 S
C1160 H1149 0.950 . S
C1160 C1158 1.391 . S
C1160 C1161 1.400 . S
C1161 C1155 1.491 1_546 S
C1161 C1160 1.400 . S
C1161 C1162 1.398 1_545 S
C1162 H1150 0.950 . S
C1162 C1161 1.398 1_565 S
C1162 C1163 1.391 . S
C1163 H1151 0.950 . S
C1163 C1159 1.393 1_565 S
C1163 C1162 1.391 . S
H1164 C1172 0.950 . S
H1165 C1177 0.950 . S
H1166 C1174 0.950 . S
H1167 C1176 0.950 . S
H1168 C1178 0.950 . S
H1169 C1180 0.950 . S
H1170 C1182 0.950 . S
H1171 C1183 0.950 . S
C1172 H1164 0.950 . S
C1172 C1173 1.386 . S
C1172 C1174 1.391 . S
C1173 C1172 1.386 . S
C1173 C1177 1.393 . S
C1174 H1166 0.950 . S
C1174 C1172 1.391 . S
C1174 C1175 1.400 . S
C1175 C1174 1.400 . S
C1175 C1176 1.398 . S
C1175 C1181 1.491 . S
C1176 H1167 0.950 . S
C1176 C1175 1.398 . S
C1176 C1177 1.391 . S
C1177 H1165 0.950 . S
C1177 C1173 1.393 . S
C1177 C1176 1.391 . S
C1178 H1168 0.950 . S
C1178 C1179 1.386 . S
C1178 C1180 1.391 . S
C1179 C1178 1.386 . S
C1179 C1183 1.393 . S
C1180 H1169 0.950 . S
C1180 C1178 1.391 . S
C1180 C1181 1.400 . S
C1181 C1175 1.491 . S
C1181 C1180 1.400 . S
C1181 C1182 1.398 . S
C1182 H1170 0.950 . S
C1182 C1181 1.398 . S
C1182 C1183 1.391 . S
C1183 H1171 0.950 . S
C1183 C1179 1.393 . S
C1183 C1182 1.391 . S
H1184 C1192 0.950 . S
H1185 C1197 0.950 . S
H1186 C1194 0.950 . S
H1187 C1196 0.950 . S
H1188 C1198 0.950 . S
H1189 C1200 0.950 . S
H1190 C1202 0.950 . S
H1191 C1203 0.950 . S
C1192 H1184 0.950 . S
C1192 C1193 1.386 . S
C1192 C1194 1.391 . S
C1193 C1192 1.386 . S
C1193 C1197 1.393 . S
C1194 H1186 0.950 . S
C1194 C1192 1.391 . S
C1194 C1195 1.400 . S
C1195 C1194 1.400 . S
C1195 C1196 1.398 . S
C1195 C1201 1.491 . S
C1196 H1187 0.950 . S
C1196 C1195 1.398 . S
C1196 C1197 1.391 . S
C1197 H1185 0.950 . S
C1197 C1193 1.393 . S
C1197 C1196 1.391 . S
C1198 H1188 0.950 . S
C1198 C1199 1.386 . S
C1198 C1200 1.391 . S
C1199 C1198 1.386 . S
C1199 C1203 1.393 . S
C1200 H1189 0.950 . S
C1200 C1198 1.391 . S
C1200 C1201 1.400 . S
C1201 C1195 1.491 . S
C1201 C1200 1.400 . S
C1201 C1202 1.398 . S
C1202 H1190 0.950 . S
C1202 C1201 1.398 . S
C1202 C1203 1.391 . S
C1203 H1191 0.950 . S
C1203 C1199 1.393 . S
C1203 C1202 1.391 . S
H1204 C1212 0.950 . S
H1205 C1217 0.950 . S
H1206 C1214 0.950 . S
H1207 C1216 0.950 . S
H1208 C1218 0.950 . S
H1209 C1220 0.950 . S
H1210 C1222 0.950 . S
H1211 C1223 0.950 . S
C1212 H1204 0.950 . S
C1212 C1213 1.386 . S
C1212 C1214 1.391 . S
C1213 C1212 1.386 . S
C1213 C1217 1.393 . S
C1214 H1206 0.950 . S
C1214 C1212 1.391 . S
C1214 C1215 1.400 . S
C1215 C1214 1.400 . S
C1215 C1216 1.398 . S
C1215 C1221 1.491 . S
C1216 H1207 0.950 . S
C1216 C1215 1.398 . S
C1216 C1217 1.391 . S
C1217 H1205 0.950 . S
C1217 C1213 1.393 . S
C1217 C1216 1.391 . S
C1218 H1208 0.950 . S
C1218 C1219 1.386 . S
C1218 C1220 1.391 . S
C1219 C1218 1.386 . S
C1219 C1223 1.393 . S
C1220 H1209 0.950 . S
C1220 C1218 1.391 . S
C1220 C1221 1.400 . S
C1221 C1215 1.491 . S
C1221 C1220 1.400 . S
C1221 C1222 1.398 . S
C1222 H1210 0.950 . S
C1222 C1221 1.398 . S
C1222 C1223 1.391 . S
C1223 H1211 0.950 . S
C1223 C1219 1.393 . S
C1223 C1222 1.391 . S
H1224 C1232 0.950 . S
H1225 C1237 0.950 . S
H1226 C1234 0.950 . S
H1227 C1236 0.950 . S
H1228 C1238 0.950 . S
H1229 C1240 0.950 . S
H1230 C1242 0.950 . S
H1231 C1243 0.950 . S
C1232 H1224 0.950 . S
C1232 C1233 1.386 . S
C1232 C1234 1.391 . S
C1233 C1232 1.386 . S
C1233 C1237 1.393 . S
C1234 H1226 0.950 . S
C1234 C1232 1.391 . S
C1234 C1235 1.400 . S
C1235 C1234 1.400 . S
C1235 C1236 1.398 . S
C1235 C1241 1.491 1_556 S
C1236 H1227 0.950 . S
C1236 C1235 1.398 . S
C1236 C1237 1.391 . S
C1237 H1225 0.950 . S
C1237 C1233 1.393 . S
C1237 C1236 1.391 . S
C1238 H1228 0.950 . S
C1238 C1239 1.386 . S
C1238 C1240 1.391 . S
C1239 C1238 1.386 . S
C1239 C1243 1.393 . S
C1240 H1229 0.950 . S
C1240 C1238 1.391 . S
C1240 C1241 1.400 . S
C1241 C1235 1.491 1_554 S
C1241 C1240 1.400 . S
C1241 C1242 1.398 . S
C1242 H1230 0.950 . S
C1242 C1241 1.398 . S
C1242 C1243 1.391 . S
C1243 H1231 0.950 . S
C1243 C1239 1.393 . S
C1243 C1242 1.391 . S
H1244 C1252 0.950 . S
H1245 C1257 0.950 . S
H1246 C1254 0.950 . S
H1247 C1256 0.950 . S
H1248 C1258 0.950 . S
H1249 C1260 0.950 . S
H1250 C1262 0.950 . S
H1251 C1263 0.950 . S
C1252 H1244 0.950 . S
C1252 C1253 1.386 1_455 S
C1252 C1254 1.391 . S
C1253 C1252 1.386 1_655 S
C1253 C1257 1.393 . S
C1254 H1246 0.950 . S
C1254 C1252 1.391 . S
C1254 C1255 1.400 1_455 S
C1255 C1254 1.400 1_655 S
C1255 C1256 1.398 . S
C1255 C1261 1.491 . S
C1256 H1247 0.950 . S
C1256 C1255 1.398 . S
C1256 C1257 1.391 . S
C1257 H1245 0.950 . S
C1257 C1253 1.393 . S
C1257 C1256 1.391 . S
C1258 H1248 0.950 . S
C1258 C1259 1.386 . S
C1258 C1260 1.391 . S
C1259 C1258 1.386 . S
C1259 C1263 1.393 1_655 S
C1260 H1249 0.950 . S
C1260 C1258 1.391 . S
C1260 C1261 1.400 . S
C1261 C1255 1.491 . S
C1261 C1260 1.400 . S
C1261 C1262 1.398 1_655 S
C1262 H1250 0.950 . S
C1262 C1261 1.398 1_455 S
C1262 C1263 1.391 . S
C1263 H1251 0.950 . S
C1263 C1259 1.393 1_455 S
C1263 C1262 1.391 . S
H1264 C1272 0.950 . S
H1265 C1277 0.950 . S
H1266 C1274 0.950 . S
H1267 C1276 0.950 . S
H1268 C1278 0.950 . S
H1269 C1280 0.950 . S
H1270 C1282 0.950 . S
H1271 C1283 0.950 . S
C1272 H1264 0.950 . S
C1272 C1273 1.386 . S
C1272 C1274 1.391 . S
C1273 C1272 1.386 . S
C1273 C1277 1.393 . S
C1274 H1266 0.950 . S
C1274 C1272 1.391 . S
C1274 C1275 1.400 . S
C1275 C1274 1.400 . S
C1275 C1276 1.398 . S
C1275 C1281 1.491 . S
C1276 H1267 0.950 . S
C1276 C1275 1.398 . S
C1276 C1277 1.391 . S
C1277 H1265 0.950 . S
C1277 C1273 1.393 . S
C1277 C1276 1.391 . S
C1278 H1268 0.950 . S
C1278 C1279 1.386 . S
C1278 C1280 1.391 . S
C1279 C1278 1.386 . S
C1279 C1283 1.393 . S
C1280 H1269 0.950 . S
C1280 C1278 1.391 . S
C1280 C1281 1.400 . S
C1281 C1275 1.491 . S
C1281 C1280 1.400 . S
C1281 C1282 1.398 . S
C1282 H1270 0.950 . S
C1282 C1281 1.398 . S
C1282 C1283 1.391 . S
C1283 H1271 0.950 . S
C1283 C1279 1.393 . S
C1283 C1282 1.391 . S
H1284 C1292 0.950 . S
H1285 C1297 0.950 . S
H1286 C1294 0.950 . S
H1287 C1296 0.950 . S
H1288 C1298 0.950 . S
H1289 C1300 0.950 . S
H1290 C1302 0.950 . S
H1291 C1303 0.950 . S
C1292 H1284 0.950 . S
C1292 C1293 1.386 . S
C1292 C1294 1.391 . S
C1293 C1292 1.386 . S
C1293 C1297 1.393 . S
C1294 H1286 0.950 . S
C1294 C1292 1.391 . S
C1294 C1295 1.400 . S
C1295 C1294 1.400 . S
C1295 C1296 1.398 . S
C1295 C1301 1.491 . S
C1296 H1287 0.950 . S
C1296 C1295 1.398 . S
C1296 C1297 1.391 . S
C1297 H1285 0.950 . S
C1297 C1293 1.393 . S
C1297 C1296 1.391 . S
C1298 H1288 0.950 . S
C1298 C1299 1.386 . S
C1298 C1300 1.391 . S
C1299 C1298 1.386 . S
C1299 C1303 1.393 . S
C1300 H1289 0.950 . S
C1300 C1298 1.391 . S
C1300 C1301 1.400 . S
C1301 C1295 1.491 . S
C1301 C1300 1.400 . S
C1301 C1302 1.398 . S
C1302 H1290 0.950 . S
C1302 C1301 1.398 . S
C1302 C1303 1.391 . S
C1303 H1291 0.950 . S
C1303 C1299 1.393 . S
C1303 C1302 1.391 . S
H1304 C1312 0.950 . S
H1305 C1317 0.950 . S
H1306 C1314 0.950 . S
H1307 C1316 0.950 . S
H1308 C1318 0.950 . S
H1309 C1320 0.950 . S
H1310 C1322 0.950 . S
H1311 C1323 0.950 . S
C1312 H1304 0.950 . S
C1312 C1313 1.386 . S
C1312 C1314 1.391 . S
C1313 C1312 1.386 . S
C1313 C1317 1.393 . S
C1314 H1306 0.950 . S
C1314 C1312 1.391 . S
C1314 C1315 1.400 . S
C1315 C1314 1.400 . S
C1315 C1316 1.398 . S
C1315 C1321 1.491 . S
C1316 H1307 0.950 . S
C1316 C1315 1.398 . S
C1316 C1317 1.391 . S
C1317 H1305 0.950 . S
C1317 C1313 1.393 . S
C1317 C1316 1.391 . S
C1318 H1308 0.950 . S
C1318 C1319 1.386 . S
C1318 C1320 1.391 . S
C1319 C1318 1.386 . S
C1319 C1323 1.393 . S
C1320 H1309 0.950 . S
C1320 C1318 1.391 . S
C1320 C1321 1.400 . S
C1321 C1315 1.491 . S
C1321 C1320 1.400 . S
C1321 C1322 1.398 . S
C1322 H1310 0.950 . S
C1322 C1321 1.398 . S
C1322 C1323 1.391 . S
C1323 H1311 0.950 . S
C1323 C1319 1.393 . S
C1323 C1322 1.391 . S
H1324 C1332 0.950 . S
H1325 C1337 0.950 . S
H1326 C1334 0.950 . S
H1327 C1336 0.950 . S
H1328 C1338 0.950 . S
H1329 C1340 0.950 . S
H1330 C1342 0.950 . S
H1331 C1343 0.950 . S
C1332 H1324 0.950 . S
C1332 C1333 1.386 . S
C1332 C1334 1.391 . S
C1333 C1332 1.386 . S
C1333 C1337 1.393 . S
C1334 H1326 0.950 . S
C1334 C1332 1.391 . S
C1334 C1335 1.400 . S
C1335 C1334 1.400 . S
C1335 C1336 1.398 . S
C1335 C1341 1.491 . S
C1336 H1327 0.950 . S
C1336 C1335 1.398 . S
C1336 C1337 1.391 . S
C1337 H1325 0.950 . S
C1337 C1333 1.393 . S
C1337 C1336 1.391 . S
C1338 H1328 0.950 . S
C1338 C1339 1.386 . S
C1338 C1340 1.391 . S
C1339 C1338 1.386 . S
C1339 C1343 1.393 . S
C1340 H1329 0.950 . S
C1340 C1338 1.391 . S
C1340 C1341 1.400 . S
C1341 C1335 1.491 . S
C1341 C1340 1.400 . S
C1341 C1342 1.398 . S
C1342 H1330 0.950 . S
C1342 C1341 1.398 . S
C1342 C1343 1.391 . S
C1343 H1331 0.950 . S
C1343 C1339 1.393 . S
C1343 C1342 1.391 . S
H1344 C1352 0.950 . S
H1345 C1357 0.950 . S
H1346 C1354 0.950 . S
H1347 C1356 0.950 . S
H1348 C1358 0.950 . S
H1349 C1360 0.950 . S
H1350 C1362 0.950 . S
H1351 C1363 0.950 . S
C1352 H1344 0.950 . S
C1352 C1353 1.386 . S
C1352 C1354 1.391 . S
C1353 C1352 1.386 . S
C1353 C1357 1.393 . S
C1354 H1346 0.950 . S
C1354 C1352 1.391 . S
C1354 C1355 1.400 . S
C1355 C1354 1.400 . S
C1355 C1356 1.398 . S
C1355 C1361 1.491 . S
C1356 H1347 0.950 . S
C1356 C1355 1.398 . S
C1356 C1357 1.391 . S
C1357 H1345 0.950 . S
C1357 C1353 1.393 . S
C1357 C1356 1.391 . S
C1358 H1348 0.950 . S
C1358 C1359 1.386 . S
C1358 C1360 1.391 . S
C1359 C1358 1.386 . S
C1359 C1363 1.393 . S
C1360 H1349 0.950 . S
C1360 C1358 1.391 . S
C1360 C1361 1.400 . S
C1361 C1355 1.491 . S
C1361 C1360 1.400 . S
C1361 C1362 1.398 . S
C1362 H1350 0.950 . S
C1362 C1361 1.398 . S
C1362 C1363 1.391 . S
C1363 H1351 0.950 . S
C1363 C1359 1.393 . S
C1363 C1362 1.391 . S
H1364 C1372 0.950 . S
H1365 C1377 0.966 . S
H1366 C1374 0.950 . S
H1367 C1376 0.950 . S
H1368 C1378 0.950 . S
H1369 C1380 0.950 . S
H1370 C1382 0.950 . S
H1371 C1383 0.950 . S
C1372 H1364 0.950 . S
C1372 C1373 1.386 . S
C1372 C1374 1.391 . S
C1373 C1372 1.386 . S
C1373 C1377 1.393 . S
C1374 H1366 0.950 . S
C1374 C1372 1.391 . S
C1374 C1375 1.400 . S
C1375 C1374 1.400 . S
C1375 C1376 1.398 . S
C1375 C1381 1.491 . S
C1376 H1367 0.950 . S
C1376 C1375 1.398 . S
C1376 C1377 1.391 . S
C1377 H1365 0.966 . S
C1377 C1373 1.393 . S
C1377 C1376 1.391 . S
C1378 H1368 0.950 . S
C1378 C1379 1.386 . S
C1378 C1380 1.391 . S
C1379 C1378 1.386 . S
C1379 C1383 1.393 . S
C1380 H1369 0.950 . S
C1380 C1378 1.391 . S
C1380 C1381 1.400 . S
C1381 C1375 1.491 . S
C1381 C1380 1.400 . S
C1381 C1382 1.398 . S
C1382 H1370 0.950 . S
C1382 C1381 1.398 . S
C1382 C1383 1.391 . S
C1383 H1371 0.950 . S
C1383 C1379 1.393 . S
C1383 C1382 1.391 . S
H1384 C1392 0.950 . S
H1385 C1397 0.950 . S
H1386 C1394 0.950 . S
H1387 C1396 0.950 . S
H1388 C1398 0.950 . S
H1389 C1400 0.950 . S
H1390 C1402 0.950 . S
H1391 C1403 0.950 . S
C1392 H1384 0.950 . S
C1392 C1393 1.386 . S
C1392 C1394 1.391 . S
C1393 C1392 1.386 . S
C1393 C1397 1.393 . S
C1394 H1386 0.950 . S
C1394 C1392 1.391 . S
C1394 C1395 1.400 . S
C1395 C1394 1.400 . S
C1395 C1396 1.398 . S
C1395 C1401 1.491 . S
C1396 H1387 0.950 . S
C1396 C1395 1.398 . S
C1396 C1397 1.391 . S
C1397 H1385 0.950 . S
C1397 C1393 1.393 . S
C1397 C1396 1.391 . S
C1398 H1388 0.950 . S
C1398 C1399 1.386 . S
C1398 C1400 1.391 . S
C1399 C1398 1.386 . S
C1399 C1403 1.393 . S
C1400 H1389 0.950 . S
C1400 C1398 1.391 . S
C1400 C1401 1.400 . S
C1401 C1395 1.491 . S
C1401 C1400 1.400 . S
C1401 C1402 1.398 . S
C1402 H1390 0.950 . S
C1402 C1401 1.398 . S
C1402 C1403 1.391 . S
C1403 H1391 0.950 . S
C1403 C1399 1.393 . S
C1403 C1402 1.391 . S
H1404 C1412 0.950 . S
H1405 C1417 0.950 . S
H1406 C1414 0.950 . S
H1407 C1416 0.950 . S
H1408 C1418 0.950 . S
H1409 C1420 0.950 . S
H1410 C1422 0.950 . S
H1411 C1423 0.950 . S
C1412 H1404 0.950 . S
C1412 C1413 1.386 . S
C1412 C1414 1.391 . S
C1413 C1412 1.386 . S
C1413 C1417 1.393 . S
C1414 H1406 0.950 . S
C1414 C1412 1.391 . S
C1414 C1415 1.400 . S
C1415 C1414 1.400 . S
C1415 C1416 1.398 . S
C1415 C1421 1.491 . S
C1416 H1407 0.950 . S
C1416 C1415 1.398 . S
C1416 C1417 1.391 . S
C1417 H1405 0.950 . S
C1417 C1413 1.393 . S
C1417 C1416 1.391 . S
C1418 H1408 0.950 . S
C1418 C1419 1.386 . S
C1418 C1420 1.391 . S
C1419 C1418 1.386 . S
C1419 C1423 1.393 . S
C1420 H1409 0.950 . S
C1420 C1418 1.391 . S
C1420 C1421 1.400 . S
C1421 C1415 1.491 . S
C1421 C1420 1.400 . S
C1421 C1422 1.398 . S
C1422 H1410 0.950 . S
C1422 C1421 1.398 . S
C1422 C1423 1.391 . S
C1423 H1411 0.950 . S
C1423 C1419 1.393 . S
C1423 C1422 1.391 . S
H1424 C1432 0.950 . S
H1425 C1437 0.950 . S
H1426 C1434 0.950 . S
H1427 C1436 0.950 . S
H1428 C1438 0.950 . S
H1429 C1440 0.950 . S
H1430 C1442 0.950 . S
H1431 C1443 0.950 . S
C1432 H1424 0.950 . S
C1432 C1433 1.386 . S
C1432 C1434 1.391 . S
C1433 C1432 1.386 . S
C1433 C1437 1.393 . S
C1434 H1426 0.950 . S
C1434 C1432 1.391 . S
C1434 C1435 1.400 . S
C1435 C1434 1.400 . S
C1435 C1436 1.398 . S
C1435 C1441 1.491 . S
C1436 H1427 0.950 . S
C1436 C1435 1.398 . S
C1436 C1437 1.391 . S
C1437 H1425 0.950 . S
C1437 C1433 1.393 . S
C1437 C1436 1.391 . S
C1438 H1428 0.950 . S
C1438 C1439 1.386 . S
C1438 C1440 1.391 . S
C1439 C1438 1.386 . S
C1439 C1443 1.393 . S
C1440 H1429 0.950 . S
C1440 C1438 1.391 . S
C1440 C1441 1.400 . S
C1441 C1435 1.491 . S
C1441 C1440 1.400 . S
C1441 C1442 1.398 . S
C1442 H1430 0.950 . S
C1442 C1441 1.398 . S
C1442 C1443 1.391 . S
C1443 H1431 0.950 . S
C1443 C1439 1.393 . S
C1443 C1442 1.391 . S
H1444 C1452 0.950 . S
H1445 C1457 0.950 . S
H1446 C1454 0.950 . S
H1447 C1456 0.950 . S
H1448 C1458 0.950 . S
H1449 C1460 0.950 . S
H1450 C1462 0.950 . S
H1451 C1463 0.950 . S
C1452 H1444 0.950 . S
C1452 C1453 1.386 . S
C1452 C1454 1.391 . S
C1453 C1452 1.386 . S
C1453 C1457 1.393 . S
C1454 H1446 0.950 . S
C1454 C1452 1.391 . S
C1454 C1455 1.400 . S
C1455 C1454 1.400 . S
C1455 C1456 1.398 . S
C1455 C1461 1.491 . S
C1456 H1447 0.950 . S
C1456 C1455 1.398 . S
C1456 C1457 1.391 . S
C1457 H1445 0.950 . S
C1457 C1453 1.393 . S
C1457 C1456 1.391 . S
C1458 H1448 0.950 . S
C1458 C1459 1.386 . S
C1458 C1460 1.391 . S
C1459 C1458 1.386 . S
C1459 C1463 1.393 . S
C1460 H1449 0.950 . S
C1460 C1458 1.391 . S
C1460 C1461 1.400 . S
C1461 C1455 1.491 . S
C1461 C1460 1.400 . S
C1461 C1462 1.398 . S
C1462 H1450 0.950 . S
C1462 C1461 1.398 . S
C1462 C1463 1.391 . S
C1463 H1451 0.950 . S
C1463 C1459 1.393 . S
C1463 C1462 1.391 . S
H1464 C1472 0.950 . S
H1465 C1477 0.950 . S
H1466 C1474 0.950 . S
H1467 C1476 0.950 . S
H1468 C1478 0.950 . S
H1469 C1480 0.950 . S
H1470 C1482 0.950 . S
H1471 C1483 0.950 . S
C1472 H1464 0.950 . S
C1472 C1473 1.386 . S
C1472 C1474 1.391 . S
C1473 C1472 1.386 . S
C1473 C1477 1.393 . S
C1474 H1466 0.950 . S
C1474 C1472 1.391 . S
C1474 C1475 1.400 . S
C1475 C1474 1.400 . S
C1475 C1476 1.398 . S
C1475 C1481 1.491 . S
C1476 H1467 0.950 . S
C1476 C1475 1.398 . S
C1476 C1477 1.391 . S
C1477 H1465 0.950 . S
C1477 C1473 1.393 . S
C1477 C1476 1.391 . S
C1478 H1468 0.950 . S
C1478 C1479 1.386 . S
C1478 C1480 1.391 . S
C1479 C1478 1.386 . S
C1479 C1483 1.393 . S
C1480 H1469 0.950 . S
C1480 C1478 1.391 . S
C1480 C1481 1.400 . S
C1481 C1475 1.491 . S
C1481 C1480 1.400 . S
C1481 C1482 1.398 . S
C1482 H1470 0.950 . S
C1482 C1481 1.398 . S
C1482 C1483 1.391 . S
C1483 H1471 0.950 . S
C1483 C1479 1.393 . S
C1483 C1482 1.391 . S
H1484 C1492 0.950 . S
H1485 C1497 0.950 . S
H1486 C1494 0.950 . S
H1487 C1496 0.950 . S
H1488 C1498 0.950 . S
H1489 C1500 0.950 . S
H1490 C1502 0.950 . S
H1491 C1503 0.950 . S
C1492 H1484 0.950 . S
C1492 C1493 1.386 . S
C1492 C1494 1.391 . S
C1493 C1492 1.386 . S
C1493 C1497 1.393 . S
C1494 H1486 0.950 . S
C1494 C1492 1.391 . S
C1494 C1495 1.400 . S
C1495 C1494 1.400 . S
C1495 C1496 1.398 . S
C1495 C1501 1.491 . S
C1496 H1487 0.950 . S
C1496 C1495 1.398 . S
C1496 C1497 1.391 . S
C1497 H1485 0.950 . S
C1497 C1493 1.393 . S
C1497 C1496 1.391 . S
C1498 H1488 0.950 . S
C1498 C1499 1.386 . S
C1498 C1500 1.391 . S
C1499 C1498 1.386 . S
C1499 C1503 1.393 . S
C1500 H1489 0.950 . S
C1500 C1498 1.391 . S
C1500 C1501 1.400 . S
C1501 C1495 1.491 . S
C1501 C1500 1.400 . S
C1501 C1502 1.398 . S
C1502 H1490 0.950 . S
C1502 C1501 1.398 . S
C1502 C1503 1.391 . S
C1503 H1491 0.950 . S
C1503 C1499 1.393 . S
C1503 C1502 1.391 . S
H1504 C1512 0.950 . S
H1505 C1517 0.950 . S
H1506 C1514 0.950 . S
H1507 C1516 0.950 . S
H1508 C1518 0.950 . S
H1509 C1520 0.950 . S
H1510 C1522 0.950 . S
H1511 C1523 0.950 . S
C1512 H1504 0.950 . S
C1512 C1513 1.386 . S
C1512 C1514 1.391 . S
C1513 C1512 1.386 . S
C1513 C1517 1.393 . S
C1514 H1506 0.950 . S
C1514 C1512 1.391 . S
C1514 C1515 1.400 . S
C1515 C1514 1.400 . S
C1515 C1516 1.398 . S
C1515 C1521 1.491 . S
C1516 H1507 0.950 . S
C1516 C1515 1.398 . S
C1516 C1517 1.391 . S
C1517 H1505 0.950 . S
C1517 C1513 1.393 . S
C1517 C1516 1.391 . S
C1518 H1508 0.950 . S
C1518 C1519 1.386 . S
C1518 C1520 1.391 . S
C1519 C1518 1.386 . S
C1519 C1523 1.393 . S
C1520 H1509 0.950 . S
C1520 C1518 1.391 . S
C1520 C1521 1.400 . S
C1521 C1515 1.491 . S
C1521 C1520 1.400 . S
C1521 C1522 1.398 . S
C1522 H1510 0.950 . S
C1522 C1521 1.398 . S
C1522 C1523 1.391 . S
C1523 H1511 0.950 . S
C1523 C1519 1.393 . S
C1523 C1522 1.391 . S
H1524 C1532 0.950 . S
H1525 C1537 0.950 . S
H1526 C1534 0.950 . S
H1527 C1536 0.950 . S
H1528 C1538 0.950 . S
H1529 C1540 0.950 . S
H1530 C1542 0.950 . S
H1531 C1543 0.950 . S
C1532 H1524 0.950 . S
C1532 C1533 1.386 . S
C1532 C1534 1.391 . S
C1533 C1532 1.386 . S
C1533 C1537 1.393 . S
C1534 H1526 0.950 . S
C1534 C1532 1.391 . S
C1534 C1535 1.400 . S
C1535 C1534 1.400 . S
C1535 C1536 1.398 . S
C1535 C1541 1.491 . S
C1536 H1527 0.950 . S
C1536 C1535 1.398 . S
C1536 C1537 1.391 . S
C1537 H1525 0.950 . S
C1537 C1533 1.393 . S
C1537 C1536 1.391 . S
C1538 H1528 0.950 . S
C1538 C1539 1.386 . S
C1538 C1540 1.391 . S
C1539 C1538 1.386 . S
C1539 C1543 1.393 . S
C1540 H1529 0.950 . S
C1540 C1538 1.391 . S
C1540 C1541 1.400 . S
C1541 C1535 1.491 . S
C1541 C1540 1.400 . S
C1541 C1542 1.398 . S
C1542 H1530 0.950 . S
C1542 C1541 1.398 . S
C1542 C1543 1.391 . S
C1543 H1531 0.950 . S
C1543 C1539 1.393 . S
C1543 C1542 1.391 . S
H1544 C1552 0.950 . S
H1545 C1557 0.950 . S
H1546 C1554 0.950 . S
H1547 C1556 0.950 . S
H1548 C1558 0.950 . S
H1549 C1560 0.950 . S
H1550 C1562 0.950 . S
H1551 C1563 0.950 . S
C1552 H1544 0.950 . S
C1552 C1553 1.386 . S
C1552 C1554 1.391 . S
C1553 C1552 1.386 . S
C1553 C1557 1.393 . S
C1554 H1546 0.950 . S
C1554 C1552 1.391 . S
C1554 C1555 1.400 . S
C1555 C1554 1.400 . S
C1555 C1556 1.398 . S
C1555 C1561 1.491 . S
C1556 H1547 0.950 . S
C1556 C1555 1.398 . S
C1556 C1557 1.391 . S
C1557 H1545 0.950 . S
C1557 C1553 1.393 . S
C1557 C1556 1.391 . S
C1558 H1548 0.950 . S
C1558 C1559 1.386 . S
C1558 C1560 1.391 . S
C1559 C1558 1.386 . S
C1559 C1563 1.393 . S
C1560 H1549 0.950 . S
C1560 C1558 1.391 . S
C1560 C1561 1.400 . S
C1561 C1555 1.491 . S
C1561 C1560 1.400 . S
C1561 C1562 1.398 . S
C1562 H1550 0.950 . S
C1562 C1561 1.398 . S
C1562 C1563 1.391 . S
C1563 H1551 0.950 . S
C1563 C1559 1.393 . S
C1563 C1562 1.391 . S
H1564 C1572 0.950 . S
H1565 C1577 0.950 . S
H1566 C1574 0.950 . S
H1567 C1576 0.950 . S
H1568 C1578 0.950 . S
H1569 C1580 0.950 . S
H1570 C1582 0.950 . S
H1571 C1583 0.950 . S
C1572 H1564 0.950 . S
C1572 C1573 1.386 . S
C1572 C1574 1.391 . S
C1573 C1572 1.386 . S
C1573 C1577 1.393 . S
C1574 H1566 0.950 . S
C1574 C1572 1.391 . S
C1574 C1575 1.400 . S
C1575 C1574 1.400 . S
C1575 C1576 1.398 . S
C1575 C1581 1.491 . S
C1576 H1567 0.950 . S
C1576 C1575 1.398 . S
C1576 C1577 1.391 . S
C1577 H1565 0.950 . S
C1577 C1573 1.393 . S
C1577 C1576 1.391 . S
C1578 H1568 0.950 . S
C1578 C1579 1.386 . S
C1578 C1580 1.391 . S
C1579 C1578 1.386 . S
C1579 C1583 1.393 . S
C1580 H1569 0.950 . S
C1580 C1578 1.391 . S
C1580 C1581 1.400 . S
C1581 C1575 1.491 . S
C1581 C1580 1.400 . S
C1581 C1582 1.398 . S
C1582 H1570 0.950 . S
C1582 C1581 1.398 . S
C1582 C1583 1.391 . S
C1583 H1571 0.950 . S
C1583 C1579 1.393 . S
C1583 C1582 1.391 . S
C953 C5 1.285 . S
C959 C772 1.288 . S
C973 C654 1.289 . S
C979 C64 1.286 . S
C993 C713 1.288 . S
C999 C123 1.284 . S
C1013 C595 1.280 . S
C1019 C182 1.279 . S
C1033 C241 1.280 . S
C1039 C890 1.283 . S
C1053 C300 1.294 . S
C1059 C536 1.296 . S
C1073 C831 1.279 . S
C1079 C359 1.278 . S
C1093 C418 1.297 . S
C1099 C477 1.296 . S
C1113 C239 1.636 . S
C1119 C3 1.636 . S
C1133 C62 1.636 . S
C1139 C298 1.637 . S
C1153 C121 1.636 . S
C1159 C357 1.636 . S
C1173 C416 1.638 . S
C1179 C180 1.642 . S
C1193 C475 1.642 . S
C1199 C593 1.639 . S
C1213 C534 1.645 . S
C1219 C652 1.644 . S
C1233 C829 1.645 . S
C1239 C711 1.645 . S
C1253 C770 1.645 . S
C1259 C888 1.645 . S
C1273 C347 1.396 . S
C1279 C52 1.393 . S
C1293 C111 1.390 . S
C1299 C406 1.388 . S
C1313 C170 1.398 . S
C1319 C465 1.397 . S
C1333 C288 1.399 . S
C1339 C229 1.399 . S
C1353 C269 1.688 . S
C1359 C623 1.684 . S
C1373 C151 1.683 . S
C1379 C505 1.689 . S
C1393 C682 1.672 . S
C1399 C387 1.682 . S
C1413 C564 1.681 . S
C1419 C33 1.671 . S
C1433 C524 1.388 . S
C1439 C760 1.391 . S
C1453 C642 1.390 . S
C1459 C937 1.388 . S
C1473 C819 1.395 . S
C1479 C583 1.397 . S
C1493 C701 1.397 . S
C1499 C878 1.398 . S
C1513 C859 1.683 . S
C1519 C92 1.673 . S
C1533 C800 1.670 . S
C1539 C328 1.670 . S
C1553 C918 1.669 . S
C1559 C210 1.673 . S
C1573 C741 1.688 . S
C1579 C446 1.686 . S
