# Generated by pormake.
# Topology unp, (4)-cn, num edge types: 1
# Building blocks:
#     Node 0, Type 0, BuildingBlock: UXUYUI_clean_sbu_0, # of connection points: 4
#     Node 1, Type 0, BuildingBlock: UXUYUI_clean_sbu_0, # of connection points: 4
#     Node 2, Type 0, BuildingBlock: UXUYUI_clean_sbu_0, # of connection points: 4
#     Node 3, Type 0, BuildingBlock: UXUYUI_clean_sbu_0, # of connection points: 4
#     Node 4, Type 0, BuildingBlock: UXUYUI_clean_sbu_0, # of connection points: 4
#     Node 5, Type 0, BuildingBlock: UXUYUI_clean_sbu_0, # of connection points: 4
#     Node 6, Type 0, BuildingBlock: UXUYUI_clean_sbu_0, # of connection points: 4
#     Node 7, Type 0, BuildingBlock: UXUYUI_clean_sbu_0, # of connection points: 4
#     Node 8, Type 0, BuildingBlock: UXUYUI_clean_sbu_0, # of connection points: 4
#     Node 9, Type 0, BuildingBlock: UXUYUI_clean_sbu_0, # of connection points: 4
#     Node 10, Type 0, BuildingBlock: UXUYUI_clean_sbu_0, # of connection points: 4
#     Node 11, Type 0, BuildingBlock: UXUYUI_clean_sbu_0, # of connection points: 4
#     Node 12, Type 0, BuildingBlock: UXUYUI_clean_sbu_0, # of connection points: 4
#     Node 13, Type 0, BuildingBlock: UXUYUI_clean_sbu_0, # of connection points: 4
#     Node 14, Type 0, BuildingBlock: UXUYUI_clean_sbu_0, # of connection points: 4
#     Node 15, Type 0, BuildingBlock: UXUYUI_clean_sbu_0, # of connection points: 4
#     Node 16, Type 0, BuildingBlock: UXUYUI_clean_sbu_0, # of connection points: 4
#     Node 17, Type 0, BuildingBlock: UXUYUI_clean_sbu_0, # of connection points: 4
#     Edge 18, Type (0, 0), BuildingBlock: KIFKEQ_clean_linker_1, # of connection points: 2
#     Edge 19, Type (0, 0), BuildingBlock: KIFKEQ_clean_linker_1, # of connection points: 2
#     Edge 20, Type (0, 0), BuildingBlock: KIFKEQ_clean_linker_1, # of connection points: 2
#     Edge 21, Type (0, 0), BuildingBlock: KIFKEQ_clean_linker_1, # of connection points: 2
#     Edge 22, Type (0, 0), BuildingBlock: KIFKEQ_clean_linker_1, # of connection points: 2
#     Edge 23, Type (0, 0), BuildingBlock: KIFKEQ_clean_linker_1, # of connection points: 2
#     Edge 24, Type (0, 0), BuildingBlock: KIFKEQ_clean_linker_1, # of connection points: 2
#     Edge 25, Type (0, 0), BuildingBlock: KIFKEQ_clean_linker_1, # of connection points: 2
#     Edge 26, Type (0, 0), BuildingBlock: KIFKEQ_clean_linker_1, # of connection points: 2
#     Edge 27, Type (0, 0), BuildingBlock: KIFKEQ_clean_linker_1, # of connection points: 2
#     Edge 28, Type (0, 0), BuildingBlock: KIFKEQ_clean_linker_1, # of connection points: 2
#     Edge 29, Type (0, 0), BuildingBlock: KIFKEQ_clean_linker_1, # of connection points: 2
#     Edge 30, Type (0, 0), BuildingBlock: KIFKEQ_clean_linker_1, # of connection points: 2
#     Edge 31, Type (0, 0), BuildingBlock: KIFKEQ_clean_linker_1, # of connection points: 2
#     Edge 32, Type (0, 0), BuildingBlock: KIFKEQ_clean_linker_1, # of connection points: 2
#     Edge 33, Type (0, 0), BuildingBlock: KIFKEQ_clean_linker_1, # of connection points: 2
#     Edge 34, Type (0, 0), BuildingBlock: KIFKEQ_clean_linker_1, # of connection points: 2
#     Edge 35, Type (0, 0), BuildingBlock: KIFKEQ_clean_linker_1, # of connection points: 2
#     Edge 36, Type (0, 0), BuildingBlock: KIFKEQ_clean_linker_1, # of connection points: 2
#     Edge 37, Type (0, 0), BuildingBlock: KIFKEQ_clean_linker_1, # of connection points: 2
#     Edge 38, Type (0, 0), BuildingBlock: KIFKEQ_clean_linker_1, # of connection points: 2
#     Edge 39, Type (0, 0), BuildingBlock: KIFKEQ_clean_linker_1, # of connection points: 2
#     Edge 40, Type (0, 0), BuildingBlock: KIFKEQ_clean_linker_1, # of connection points: 2
#     Edge 41, Type (0, 0), BuildingBlock: KIFKEQ_clean_linker_1, # of connection points: 2
#     Edge 42, Type (0, 0), BuildingBlock: KIFKEQ_clean_linker_1, # of connection points: 2
#     Edge 43, Type (0, 0), BuildingBlock: KIFKEQ_clean_linker_1, # of connection points: 2
#     Edge 44, Type (0, 0), BuildingBlock: KIFKEQ_clean_linker_1, # of connection points: 2
#     Edge 45, Type (0, 0), BuildingBlock: KIFKEQ_clean_linker_1, # of connection points: 2
#     Edge 46, Type (0, 0), BuildingBlock: KIFKEQ_clean_linker_1, # of connection points: 2
#     Edge 47, Type (0, 0), BuildingBlock: KIFKEQ_clean_linker_1, # of connection points: 2
#     Edge 48, Type (0, 0), BuildingBlock: KIFKEQ_clean_linker_1, # of connection points: 2
#     Edge 49, Type (0, 0), BuildingBlock: KIFKEQ_clean_linker_1, # of connection points: 2
#     Edge 50, Type (0, 0), BuildingBlock: KIFKEQ_clean_linker_1, # of connection points: 2
#     Edge 51, Type (0, 0), BuildingBlock: KIFKEQ_clean_linker_1, # of connection points: 2
#     Edge 52, Type (0, 0), BuildingBlock: KIFKEQ_clean_linker_1, # of connection points: 2
#     Edge 53, Type (0, 0), BuildingBlock: KIFKEQ_clean_linker_1, # of connection points: 2
# Relax obj value: 0.501
# Max RMSD: 0.229
# Mean RMSD: 0.224
data_MOF--net-unp--node1-UXUYUI_clean_sbu_0--edge1-KIFKEQ_clean_linker_1
_symmetry_space_group_name_H-M    P1
_symmetry_Int_Tables_number       1
_symmetry_cell_setting            triclinic
loop_
_symmetry_equiv_pos_as_xyz
'x, y, z'
_cell_length_a     63.442351
_cell_length_b     63.448496
_cell_length_c     104.94534
_cell_angle_alpha  90.223812
_cell_angle_beta   89.782127
_cell_angle_gamma 120.53045
loop_
_atom_site_label
_atom_site_type_symbol
_atom_site_fract_x
_atom_site_fract_y
_atom_site_fract_z
_atom_type_partial_charge
Li0 Li 0.18555 0.21848 0.08796 0.0
Li1 Li 0.19608 0.22914 0.11081 0.0
Li2 Li 0.17516 0.18726 0.104 0.0
Li3 Li 0.15368 0.20964 0.10441 0.0
C4 C 0.22092 0.2018 0.09994 0.0
N5 N 0.24469 0.17576 0.10273 0.0
C6 C 0.23281 0.2031 0.11135 0.0
C7 C 0.22122 0.18737 0.08992 0.0
C8 C 0.24472 0.18978 0.11258 0.0
C9 C 0.2333 0.1743 0.09153 0.0
C10 C 0.17848 0.2603 0.10439 0.0
C11 C 0.17105 0.27789 0.12306 0.0
N12 N 0.17332 0.2967 0.11585 0.0
C13 C 0.18075 0.2798 0.09716 0.0
C14 C 0.1736 0.25931 0.11744 0.0
C15 C 0.17807 0.29803 0.10313 0.0
C16 C 0.17904 0.22667 0.06225 0.0
N17 N 0.19522 0.22701 0.0708 0.0
C18 C 0.22304 0.23175 0.05416 0.0
C19 C 0.2172 0.23024 0.06708 0.0
C20 C 0.20613 0.23006 0.04501 0.0
C21 C 0.18419 0.22826 0.04922 0.0
H22 H 0.16162 0.22391 0.06553 0.0
H23 H 0.22968 0.23039 0.07412 0.0
C24 C 0.21936 0.24652 0.1343 0.0
N25 N 0.22022 0.25233 0.1218 0.0
C26 C 0.23767 0.26255 0.14259 0.0
C27 C 0.25725 0.2904 0.12499 0.0
C28 C 0.23845 0.27383 0.11704 0.0
C29 C 0.25711 0.28469 0.13792 0.0
H30 H 0.20478 0.22913 0.13774 0.0
H31 H 0.23858 0.27786 0.10702 0.0
C32 C 0.14076 0.17004 0.08218 0.0
N33 N 0.11387 0.13335 0.0647 0.0
C34 C 0.11564 0.15425 0.084 0.0
C35 C 0.15214 0.16718 0.07141 0.0
C36 C 0.10239 0.1358 0.07508 0.0
C37 C 0.13825 0.14852 0.0627 0.0
C38 C 0.14905 0.18338 0.12632 0.0
C39 C 0.13053 0.16231 0.12043 0.0
C40 C 0.14824 0.18624 0.1395 0.0
C41 C 0.11152 0.14444 0.1278 0.0
C42 C 0.1289 0.16796 0.14655 0.0
N43 N 0.11109 0.14761 0.1406 0.0
C44 C 0.17794 0.15145 0.11891 0.0
C45 C 0.16641 0.13959 0.09748 0.0
C46 C 0.1761 0.12898 0.12156 0.0
N47 N 0.17276 0.15618 0.10706 0.0
C48 C 0.16421 0.11693 0.0997 0.0
C49 C 0.16886 0.11123 0.1119 0.0
H50 H 0.18346 0.16513 0.12633 0.0
H51 H 0.16307 0.14382 0.08808 0.0
C52 C 0.10821 0.20184 0.09662 0.0
N53 N 0.12276 0.20705 0.107 0.0
C54 C 0.08394 0.19591 0.09803 0.0
C55 C 0.09062 0.20269 0.12071 0.0
C56 C 0.11475 0.20833 0.11885 0.0
C57 C 0.07462 0.19563 0.11025 0.0
H58 H 0.11516 0.20115 0.08729 0.0
H59 H 0.1268 0.21289 0.12694 0.0
O60 O 0.20854 0.21411 0.0987 0.0
O61 O 0.18105 0.24234 0.09864 0.0
O62 O 0.15391 0.18865 0.09067 0.0
O63 O 0.16776 0.20133 0.1193 0.0
H64 H 0.23262 0.21408 0.11922 0.0
H65 H 0.21185 0.18594 0.08108 0.0
H66 H 0.2539 0.19051 0.12138 0.0
H67 H 0.23352 0.16291 0.0839 0.0
H68 H 0.16726 0.27735 0.13315 0.0
H69 H 0.18452 0.28081 0.08704 0.0
H70 H 0.1718 0.24439 0.1232 0.0
H71 H 0.17977 0.31323 0.09766 0.0
H72 H 0.24004 0.23288 0.0514 0.0
H73 H 0.17079 0.2273 0.04252 0.0
H74 H 0.2371 0.25721 0.15243 0.0
H75 H 0.27186 0.30733 0.12105 0.0
H76 H 0.10639 0.1562 0.09221 0.0
H77 H 0.17158 0.17885 0.06991 0.0
H78 H 0.08296 0.12347 0.07639 0.0
H79 H 0.14688 0.14604 0.05438 0.0
H80 H 0.13089 0.1597 0.1103 0.0
H81 H 0.16229 0.2025 0.14422 0.0
H82 H 0.0971 0.12804 0.12335 0.0
H83 H 0.12803 0.16997 0.15675 0.0
H84 H 0.18022 0.12557 0.13107 0.0
H85 H 0.15827 0.10381 0.09197 0.0
H86 H 0.07232 0.19033 0.08969 0.0
H87 H 0.0844 0.20317 0.13027 0.0
Li88 Li 0.82071 0.00953 0.1061 0.0
Li89 Li 0.79959 0.96447 0.10703 0.0
Li90 Li 0.79052 0.98491 0.08924 0.0
Li91 Li 0.77536 0.98292 0.11083 0.0
C92 C 0.84116 0.99535 0.0854 0.0
N93 N 0.88013 0.01301 0.0686 0.0
C94 C 0.85524 0.98416 0.08453 0.0
C95 C 0.84676 0.01535 0.07761 0.0
C96 C 0.87492 0.99341 0.07601 0.0
C97 C 0.86654 0.02404 0.0692 0.0
C98 C 0.81087 0.97895 0.13093 0.0
C99 C 0.80105 0.9483 0.14705 0.0
N100 N 0.82491 0.96018 0.15071 0.0
C101 C 0.83524 0.99097 0.13493 0.0
C102 C 0.79357 0.95756 0.1371 0.0
C103 C 0.842 0.98115 0.14492 0.0
C104 C 0.85216 0.06005 0.11273 0.0
N105 N 0.85096 0.03871 0.10938 0.0
C106 C 0.89451 0.05842 0.10867 0.0
C107 C 0.87154 0.03743 0.10776 0.0
C108 C 0.89633 0.08084 0.11161 0.0
C109 C 0.87492 0.08155 0.11397 0.0
H110 H 0.83548 0.06047 0.11412 0.0
H111 H 0.87013 0.0201 0.1056 0.0
C112 C 0.78848 0.91516 0.11145 0.0
N113 N 0.80601 0.93927 0.11129 0.0
C114 C 0.79475 0.89751 0.11432 0.0
C115 C 0.83677 0.92999 0.11691 0.0
C116 C 0.82971 0.94689 0.11401 0.0
C117 C 0.81925 0.90488 0.11703 0.0
H118 H 0.76975 0.90964 0.10921 0.0
H119 H 0.84325 0.96619 0.11373 0.0
C120 C 0.79104 0.03013 0.09325 0.0
N121 N 0.78763 0.06633 0.08047 0.0
C122 C 0.76868 0.02942 0.09261 0.0
C123 C 0.81177 0.04959 0.08761 0.0
C124 C 0.76729 0.04779 0.08604 0.0
C125 C 0.80966 0.06761 0.08113 0.0
C126 C 0.74289 0.94054 0.09985 0.0
C127 C 0.72809 0.94009 0.0899 0.0
C128 C 0.73216 0.92609 0.11063 0.0
C129 C 0.70269 0.92541 0.09099 0.0
C130 C 0.70668 0.91169 0.11137 0.0
N131 N 0.6926 0.91166 0.10162 0.0
C132 C 0.79621 0.97544 0.06377 0.0
C133 C 0.77213 0.99403 0.06619 0.0
C134 C 0.79655 0.97804 0.05058 0.0
N135 N 0.78507 0.98441 0.07131 0.0
C136 C 0.77154 0.99653 0.05298 0.0
C137 C 0.78456 0.9892 0.04511 0.0
H138 H 0.80562 0.96704 0.06803 0.0
H139 H 0.7627 0.00026 0.07231 0.0
C140 C 0.75327 0.98459 0.13363 0.0
N141 N 0.74945 0.98122 0.12087 0.0
C142 C 0.7356 0.98464 0.14154 0.0
C143 C 0.71018 0.97752 0.12307 0.0
C144 C 0.72836 0.97758 0.1155 0.0
C145 C 0.7138 0.98133 0.13627 0.0
H146 H 0.7703 0.9878 0.13765 0.0
H147 H 0.72577 0.97508 0.10533 0.0
O148 O 0.82188 0.98657 0.09376 0.0
O149 O 0.80399 0.98803 0.12101 0.0
O150 O 0.79273 0.01234 0.09974 0.0
O151 O 0.76777 0.95487 0.09896 0.0
H152 H 0.85102 0.96844 0.09032 0.0
H153 H 0.83566 0.02375 0.07788 0.0
H154 H 0.88601 0.98497 0.07528 0.0
H155 H 0.87101 0.03948 0.06311 0.0
H156 H 0.7879 0.93167 0.15185 0.0
H157 H 0.84883 0.00761 0.13031 0.0
H158 H 0.77462 0.94811 0.13417 0.0
H159 H 0.86083 0.99018 0.14807 0.0
H160 H 0.91073 0.05721 0.10702 0.0
H161 H 0.87578 0.09861 0.11632 0.0
H162 H 0.78064 0.87836 0.11435 0.0
H163 H 0.85595 0.93656 0.11864 0.0
H164 H 0.7525 0.01475 0.09702 0.0
H165 H 0.82942 0.05102 0.08833 0.0
H166 H 0.75004 0.04731 0.08539 0.0
H167 H 0.82556 0.0827 0.07669 0.0
H168 H 0.73613 0.95106 0.08146 0.0
H169 H 0.74336 0.92615 0.11839 0.0
H170 H 0.691 0.92497 0.08339 0.0
H171 H 0.69811 0.90056 0.1197 0.0
H172 H 0.80643 0.97182 0.04473 0.0
H173 H 0.76193 0.00503 0.04902 0.0
H174 H 0.73941 0.98816 0.15162 0.0
H175 H 0.69359 0.97478 0.11862 0.0
Li176 Li 0.99195 0.82449 0.10695 0.0
Li177 Li 0.037 0.84885 0.10947 0.0
Li178 Li 0.0167 0.81706 0.09147 0.0
Li179 Li 0.01391 0.80481 0.11437 0.0
C180 C 0.01504 0.8647 0.08777 0.0
N181 N 0.01242 0.89971 0.07344 0.0
C182 C 0.02218 0.88762 0.09304 0.0
C183 C 0.00651 0.85954 0.07523 0.0
C184 C 0.02076 0.9051 0.08563 0.0
C185 C 0.0053 0.87749 0.06814 0.0
C186 C 0.01613 0.83547 0.13537 0.0
C187 C 0.04008 0.83783 0.15369 0.0
N188 N 0.02571 0.84299 0.16117 0.0
C189 C 0.00161 0.84082 0.14323 0.0
C190 C 0.03555 0.834 0.14063 0.0
C191 C 0.00675 0.84456 0.15625 0.0
C192 C 0.94856 0.81519 0.11948 0.0
N193 N 0.96256 0.82563 0.10895 0.0
C194 C 0.93491 0.83802 0.10164 0.0
C195 C 0.95591 0.83653 0.09999 0.0
C196 C 0.92025 0.82784 0.11254 0.0
C197 C 0.92718 0.81601 0.12146 0.0
H198 H 0.95405 0.80625 0.12636 0.0
H199 H 0.96688 0.84421 0.09157 0.0
C200 C 0.07974 0.89371 0.10377 0.0
N201 N 0.06335 0.88094 0.11315 0.0
C202 C 0.09665 0.91866 0.10537 0.0
C203 C 0.08033 0.91638 0.12649 0.0
C204 C 0.06365 0.89167 0.12444 0.0
C205 C 0.09655 0.93044 0.11674 0.0
H206 H 0.0788 0.88482 0.0948 0.0
H207 H 0.05023 0.88151 0.13167 0.0
C208 C 0.96302 0.77936 0.10022 0.0
N209 N 0.9126 0.75444 0.09856 0.0
C210 C 0.9488 0.76313 0.10984 0.0
C211 C 0.95164 0.78285 0.08972 0.0
C212 C 0.92332 0.7507 0.10883 0.0
C213 C 0.92612 0.77011 0.08907 0.0
C214 C 0.06306 0.81956 0.10485 0.0
C215 C 0.06559 0.80349 0.09671 0.0
C216 C 0.08064 0.83227 0.11423 0.0
C217 C 0.08537 0.79987 0.09834 0.0
C218 C 0.10016 0.82815 0.11555 0.0
N219 N 0.10208 0.81214 0.10766 0.0
C220 C 0.03546 0.82567 0.06618 0.0
C221 C 0.00057 0.78671 0.07016 0.0
C222 C 0.03418 0.82046 0.05315 0.0
N223 N 0.01843 0.80902 0.07429 0.0
C224 C 0.99843 0.78086 0.05724 0.0
C225 C 0.01506 0.79805 0.04854 0.0
H226 H 0.04937 0.84334 0.06976 0.0
H227 H 0.98745 0.77374 0.07685 0.0
C228 C 0.99908 0.77561 0.13632 0.0
N229 N 0.01188 0.77997 0.12527 0.0
C230 C 0.99678 0.75751 0.14463 0.0
C231 C 0.01956 0.74754 0.12971 0.0
C232 C 0.02182 0.7662 0.12177 0.0
C233 C 0.00707 0.74323 0.14134 0.0
H234 H 0.99029 0.78594 0.13861 0.0
H235 H 0.03106 0.76934 0.11273 0.0
O236 O 0.01675 0.8475 0.09476 0.0
O237 O 0.0111 0.83147 0.12263 0.0
O238 O 0.98796 0.79222 0.10121 0.0
O239 O 0.044 0.82356 0.10326 0.0
H240 H 0.02875 0.89187 0.10275 0.0
H241 H 0.00065 0.8418 0.07105 0.0
H242 H 0.02628 0.92295 0.08956 0.0
H243 H 0.99868 0.87373 0.05844 0.0
H244 H 0.05498 0.83662 0.15789 0.0
H245 H 0.98658 0.84215 0.13931 0.0
H246 H 0.04675 0.82959 0.13471 0.0
H247 H 0.99566 0.84871 0.16245 0.0
H248 H 0.93066 0.84769 0.09458 0.0
H249 H 0.91629 0.80755 0.1299 0.0
H250 H 0.10864 0.92886 0.09754 0.0
H251 H 0.07981 0.92462 0.13546 0.0
H252 H 0.95735 0.76031 0.11805 0.0
H253 H 0.96242 0.79559 0.08227 0.0
H254 H 0.91206 0.73814 0.11623 0.0
H255 H 0.91705 0.77277 0.08106 0.0
H256 H 0.0523 0.79381 0.08927 0.0
H257 H 0.07941 0.84539 0.12032 0.0
H258 H 0.08746 0.78733 0.09218 0.0
H259 H 0.11386 0.83778 0.12281 0.0
H260 H 0.04725 0.83421 0.04669 0.0
H261 H 0.98363 0.76329 0.05404 0.0
H262 H 0.98642 0.7542 0.15337 0.0
H263 H 0.02741 0.73658 0.12681 0.0
Li264 Li 0.22656 0.19426 0.88689 0.0
Li265 Li 0.21781 0.18243 0.90965 0.0
Li266 Li 0.20967 0.15189 0.89261 0.0
Li267 Li 0.18518 0.17104 0.89439 0.0
C268 C 0.2603 0.17923 0.89161 0.0
N269 N 0.29723 0.1773 0.87858 0.0
C270 C 0.28113 0.18295 0.89808 0.0
C271 C 0.25825 0.17453 0.87851 0.0
C272 C 0.2996 0.1819 0.89133 0.0
C273 C 0.27711 0.17363 0.87209 0.0
C274 C 0.19805 0.21649 0.89927 0.0
C275 C 0.1693 0.22635 0.90859 0.0
N276 N 0.17092 0.23937 0.89799 0.0
C277 C 0.19954 0.23007 0.8885 0.0
C278 C 0.18294 0.21472 0.90944 0.0
C279 C 0.18565 0.24148 0.88803 0.0
C280 C 0.24222 0.21694 0.86326 0.0
N281 N 0.24769 0.21976 0.87586 0.0
C282 C 0.28034 0.26074 0.87252 0.0
C283 C 0.26651 0.24091 0.88061 0.0
C284 C 0.2745 0.25864 0.8595 0.0
C285 C 0.25552 0.23618 0.85485 0.0
H286 H 0.22708 0.19996 0.8598 0.0
H287 H 0.27023 0.24261 0.89073 0.0
C288 C 0.22772 0.17607 0.93518 0.0
N289 N 0.22708 0.19196 0.92678 0.0
C290 C 0.22996 0.18129 0.94822 0.0
C291 C 0.23198 0.21957 0.94356 0.0
C292 C 0.22982 0.21367 0.93064 0.0
C293 C 0.2314 0.20299 0.95259 0.0
H294 H 0.22527 0.15883 0.93181 0.0
H295 H 0.22909 0.22587 0.92372 0.0
C296 C 0.18057 0.14633 0.87181 0.0
N297 N 0.14397 0.10755 0.85829 0.0
C298 C 0.16129 0.12666 0.87823 0.0
C299 C 0.18114 0.14624 0.85849 0.0
C300 C 0.14299 0.10725 0.87123 0.0
C301 C 0.16249 0.12648 0.85183 0.0
C302 C 0.17134 0.13688 0.91602 0.0
C303 C 0.15688 0.11143 0.91494 0.0
C304 C 0.16811 0.14869 0.92649 0.0
C305 C 0.1394 0.09825 0.9243 0.0
C306 C 0.15046 0.13486 0.93566 0.0
N307 N 0.13659 0.11014 0.93439 0.0
C308 C 0.20493 0.10683 0.89902 0.0
C309 C 0.20775 0.11439 0.8768 0.0
C310 C 0.19864 0.0826 0.89686 0.0
N311 N 0.20837 0.12182 0.88904 0.0
C312 C 0.20123 0.09024 0.87419 0.0
C313 C 0.19576 0.07382 0.8843 0.0
H314 H 0.20563 0.11329 0.90865 0.0
H315 H 0.21097 0.12678 0.86902 0.0
C316 C 0.14994 0.17585 0.88064 0.0
N317 N 0.15333 0.16698 0.89175 0.0
C318 C 0.12735 0.17358 0.87788 0.0
C319 C 0.11207 0.15301 0.89802 0.0
C320 C 0.13495 0.15581 0.90041 0.0
C321 C 0.10797 0.16191 0.88662 0.0
H322 H 0.16486 0.1847 0.87389 0.0
H323 H 0.13778 0.14882 0.90914 0.0
O324 O 0.2421 0.18019 0.89812 0.0
O325 O 0.21104 0.20469 0.89978 0.0
O326 O 0.19894 0.16549 0.87845 0.0
O327 O 0.18887 0.14999 0.90703 0.0
H328 H 0.28298 0.18659 0.90823 0.0
H329 H 0.24229 0.1716 0.87332 0.0
H330 H 0.31583 0.18474 0.89622 0.0
H331 H 0.27575 0.17001 0.86196 0.0
H332 H 0.15739 0.22498 0.91634 0.0
H333 H 0.21108 0.23158 0.88053 0.0
H334 H 0.18153 0.20424 0.91783 0.0
H335 H 0.18651 0.25194 0.87973 0.0
H336 H 0.29468 0.2778 0.8765 0.0
H337 H 0.25067 0.23366 0.84485 0.0
H338 H 0.22979 0.16813 0.95482 0.0
H339 H 0.23273 0.23634 0.94645 0.0
H340 H 0.16038 0.12634 0.88848 0.0
H341 H 0.19591 0.16116 0.85331 0.0
H342 H 0.12802 0.09194 0.87611 0.0
H343 H 0.16278 0.12617 0.84153 0.0
H344 H 0.15907 0.10191 0.90694 0.0
H345 H 0.17882 0.16834 0.92745 0.0
H346 H 0.12807 0.07857 0.92356 0.0
H347 H 0.14775 0.14379 0.94378 0.0
H348 H 0.19439 0.07046 0.90492 0.0
H349 H 0.19944 0.08419 0.86439 0.0
H350 H 0.12513 0.18091 0.86902 0.0
H351 H 0.09758 0.14342 0.90494 0.0
Li352 Li 0.80446 0.01369 0.88492 0.0
Li353 Li 0.81702 0.01467 0.90684 0.0
Li354 Li 0.84696 0.03189 0.88933 0.0
Li355 Li 0.8205 0.98761 0.89171 0.0
C356 C 0.81398 0.05624 0.89356 0.0
N357 N 0.78973 0.08118 0.8886 0.0
C358 C 0.7971 0.05569 0.90235 0.0
C359 C 0.8187 0.06963 0.8823 0.0
C360 C 0.785 0.0684 0.89965 0.0
C361 C 0.80618 0.08205 0.87995 0.0
C362 C 0.77407 0.96247 0.89718 0.0
C363 C 0.75738 0.92197 0.90595 0.0
N364 N 0.74232 0.91254 0.8957 0.0
C365 C 0.75842 0.95238 0.88673 0.0
C366 C 0.77353 0.94717 0.90689 0.0
C367 C 0.74249 0.92709 0.88617 0.0
C368 C 0.78254 0.01727 0.86207 0.0
N369 N 0.78006 0.01447 0.87491 0.0
C370 C 0.74008 0.00925 0.87407 0.0
C371 C 0.75951 0.01076 0.881 0.0
C372 C 0.7418 0.01144 0.86074 0.0
C373 C 0.76355 0.01591 0.85475 0.0
H374 H 0.79894 0.01984 0.85747 0.0
H375 H 0.75802 0.00838 0.89123 0.0
C376 C 0.82777 0.03623 0.93144 0.0
N377 N 0.81043 0.01775 0.92422 0.0
C378 C 0.82474 0.03625 0.94462 0.0
C379 C 0.78493 -0.00026 0.94246 0.0
C380 C 0.78899 0.00011 0.92936 0.0
C381 C 0.80329 0.01755 0.95025 0.0
H382 H 0.84443 0.0503 0.92704 0.0
H383 H 0.77536 0.98586 0.92336 0.0
C384 C 0.8448 0.01387 0.86649 0.0
N385 N 0.88085 0.0287 0.8481 0.0
C386 C 0.85629 0.00035 0.8643 0.0
C387 C 0.85151 0.03484 0.85927 0.0
C388 C 0.8745 0.00817 0.85496 0.0
C389 C 0.86983 0.04207 0.85005 0.0
C390 C 0.85641 0.01424 0.91511 0.0
C391 C 0.87795 0.03618 0.91787 0.0
C392 C 0.84558 0.99623 0.92451 0.0
C393 C 0.88825 0.03973 0.93 0.0
C394 C 0.85641 0.00052 0.93653 0.0
N395 N 0.87735 0.02199 0.939 0.0
C396 C 0.88751 0.07965 0.88296 0.0
C397 C 0.89509 0.04677 0.88424 0.0
C398 C 0.91219 0.096 0.88019 0.0
N399 N 0.87961 0.05559 0.88495 0.0
C400 C 0.91973 0.06233 0.88147 0.0
C401 C 0.92865 0.08734 0.87946 0.0
H402 H 0.87477 0.08616 0.88366 0.0
H403 H 0.88829 0.0276 0.88606 0.0
C404 C 0.80619 0.94072 0.88057 0.0
N405 N 0.81964 0.95725 0.88978 0.0
C406 C 0.8069 0.91911 0.87924 0.0
C407 C 0.83533 0.93218 0.89683 0.0
C408 C 0.83415 0.95343 0.89776 0.0
C409 C 0.82162 0.91466 0.88748 0.0
H410 H 0.7952 0.94446 0.87415 0.0
H411 H 0.8453 0.96714 0.90469 0.0
O412 O 0.82561 0.0435 0.8959 0.0
O413 O 0.7901 0.98713 0.89781 0.0
O414 O 0.82727 0.00679 0.87576 0.0
O415 O 0.84589 0.01049 0.90332 0.0
H416 H 0.79322 0.04537 0.91109 0.0
H417 H 0.83164 0.07015 0.87539 0.0
H418 H 0.77179 0.06804 0.90633 0.0
H419 H 0.8095 0.09234 0.87124 0.0
H420 H 0.75687 0.90991 0.91335 0.0
H421 H 0.75873 0.9639 0.87908 0.0
H422 H 0.78565 0.95466 0.91499 0.0
H423 H 0.73033 0.91902 0.87812 0.0
H424 H 0.72371 0.00596 0.87906 0.0
H425 H 0.76549 0.0173 0.84449 0.0
H426 H 0.83918 0.05036 0.95038 0.0
H427 H 0.76819 0.98504 0.94652 0.0
H428 H 0.85141 0.98413 0.86982 0.0
H429 H 0.84297 0.04564 0.86093 0.0
H430 H 0.88363 0.99795 0.8532 0.0
H431 H 0.87535 0.05837 0.84447 0.0
H432 H 0.8865 0.05044 0.9108 0.0
H433 H 0.82877 0.97925 0.9226 0.0
H434 H 0.90487 0.05665 0.93227 0.0
H435 H 0.84811 0.98681 0.94391 0.0
H436 H 0.91834 0.11515 0.8787 0.0
H437 H 0.9318 0.05492 0.88131 0.0
H438 H 0.79615 0.90612 0.87186 0.0
H439 H 0.8475 0.92989 0.90313 0.0
Li440 Li 0.00478 0.82043 0.89427 0.0
Li441 Li 0.96047 0.79774 0.89338 0.0
Li442 Li 0.9827 0.78966 0.91039 0.0
Li443 Li 0.98343 0.77824 0.88784 0.0
C444 C 0.98527 0.83668 0.91602 0.0
N445 N 0.99243 0.87127 0.93426 0.0
C446 C 0.97432 0.8509 0.91466 0.0
C447 C -9e-05 0.84012 0.92667 0.0
C448 C 0.97817 0.86828 0.92398 0.0
C449 C 0.00328 0.85767 0.93577 0.0
C450 C 0.98439 0.82408 0.87164 0.0
C451 C 0.98386 0.84089 0.85114 0.0
N452 N 0.98488 0.86051 0.85705 0.0
C453 C 0.98546 0.84443 0.87749 0.0
C454 C 0.98361 0.8223 0.85835 0.0
C455 C 0.98569 0.86264 0.86996 0.0
C456 C 0.04632 0.85496 0.8801 0.0
N457 N 0.03384 0.85158 0.8912 0.0
C458 C 0.06322 0.8919 0.89814 0.0
C459 C 0.0419 0.86955 0.90014 0.0
C460 C 0.0767 0.89593 0.88686 0.0
C461 C 0.06794 0.87709 0.87772 0.0
H462 H 0.0396 0.84035 0.87314 0.0
H463 H 0.03194 0.86667 0.90887 0.0
C464 C 0.9205 0.80255 0.90041 0.0
N465 N 0.93201 0.79969 0.89019 0.0
C466 C 0.90159 0.80743 0.89866 0.0
C467 C 0.90573 0.80479 0.87589 0.0
C468 C 0.92449 0.79987 0.87809 0.0
C469 C 0.89448 0.80931 0.88625 0.0
H470 H 0.92674 0.80208 0.90993 0.0
H471 H 0.93355 0.79698 0.87012 0.0
C472 C 0.03562 0.80585 0.89888 0.0
N473 N 0.08588 0.83124 0.89604 0.0
C474 C 0.04627 0.80248 0.88797 0.0
C475 C 0.05051 0.822 0.90839 0.0
C476 C 0.07173 0.8155 0.88671 0.0
C477 C 0.07589 0.83472 0.90676 0.0
C478 C 0.93401 0.74715 0.89394 0.0
C479 C 0.91663 0.72745 0.90115 0.0
C480 C 0.93032 0.74798 0.88087 0.0
C481 C 0.89579 0.70886 0.89516 0.0
C482 C 0.90925 0.72903 0.87523 0.0
N483 N 0.89256 0.71003 0.88243 0.0
C484 C 0.96524 0.77975 0.93577 0.0
C485 C 0.00241 0.7803 0.93196 0.0
C486 C 0.96745 0.77758 0.94888 0.0
N487 N 0.98288 0.78155 0.9277 0.0
C488 C 0.0055 0.77847 0.94498 0.0
C489 C 0.98813 0.77759 0.95361 0.0
H490 H 0.95006 0.78108 0.93208 0.0
H491 H 0.01608 0.78169 0.9253 0.0
C492 C 0.98922 0.75902 0.86486 0.0
N493 N 0.98393 0.75428 0.87744 0.0
C494 C 0.99043 0.74186 0.85704 0.0
C495 C 0.98042 0.71516 0.87527 0.0
C496 C 0.97934 0.73285 0.88274 0.0
C497 C 0.98622 0.71967 0.86226 0.0
H498 H 0.99296 0.77634 0.86098 0.0
H499 H 0.97511 0.72966 0.89279 0.0
O500 O 0.98133 0.81927 0.90708 0.0
O501 O 0.98401 0.80586 0.87878 0.0
O502 O 0.01071 0.79376 0.90013 0.0
O503 O 0.95451 0.76544 0.8997 0.0
H504 H 0.96304 0.84863 0.90648 0.0
H505 H 0.00898 0.82973 0.92777 0.0
H506 H 0.96981 0.87941 0.92303 0.0
H507 H 0.01462 0.86056 0.94402 0.0
H508 H 0.98321 0.83971 0.84085 0.0
H509 H 0.98616 0.84624 0.88773 0.0
H510 H 0.98268 0.80665 0.85364 0.0
H511 H 0.98651 0.87847 0.87438 0.0
H512 H 0.06885 0.90602 0.90535 0.0
H513 H 0.07778 0.8793 0.86891 0.0
H514 H 0.89357 0.81099 0.90692 0.0
H515 H 0.90053 0.80571 0.86618 0.0
H516 H 0.035 0.79011 0.88051 0.0
H517 H 0.04255 0.82499 0.91685 0.0
H518 H 0.08023 0.81317 0.87829 0.0
H519 H 0.08764 0.84744 0.91399 0.0
H520 H 0.91925 0.72656 0.91128 0.0
H521 H 0.94358 0.76304 0.87512 0.0
H522 H 0.88218 0.6935 0.90062 0.0
H523 H 0.90616 0.72943 0.86512 0.0
H524 H 0.95379 0.77714 0.95528 0.0
H525 H 0.02156 0.7783 0.94829 0.0
H526 H 0.99539 0.74626 0.84712 0.0
H527 H 0.97692 0.69823 0.87964 0.0
Li528 Li 0.8595 0.55372 0.44732 0.0
Li529 Li 0.84777 0.54277 0.425 0.0
Li530 Li 0.81574 0.53084 0.44233 0.0
Li531 Li 0.8392 0.50961 0.44005 0.0
C532 C 0.84638 0.58754 0.43782 0.0
N533 N 0.8578 0.63542 0.44109 0.0
C534 C 0.86184 0.60552 0.42915 0.0
C535 C 0.83647 0.59383 0.44804 0.0
C536 C 0.86745 0.62965 0.431 0.0
C537 C 0.84255 0.61816 0.44957 0.0
C538 C 0.89207 0.543 0.42877 0.0
C539 C 0.9132 0.53195 0.41341 0.0
N540 N 0.9341 0.55363 0.41558 0.0
C541 C 0.91382 0.56506 0.43095 0.0
C542 C 0.89179 0.52619 0.42002 0.0
C543 C 0.93486 0.57014 0.42416 0.0
C544 C 0.88993 0.56588 0.46812 0.0
N545 N 0.8839 0.57631 0.45862 0.0
C546 C 0.91432 0.61629 0.46556 0.0
C547 C 0.89568 0.60101 0.45717 0.0
C548 C 0.92115 0.60602 0.4754 0.0
C549 C 0.90857 0.58041 0.47663 0.0
H550 H 0.88054 0.54616 0.46889 0.0
H551 H 0.89107 0.60896 0.4494 0.0
C552 C 0.83794 0.54126 0.39884 0.0
N553 N 0.85597 0.55223 0.40768 0.0
C554 C 0.84361 0.54463 0.38588 0.0
C555 C 0.88611 0.57158 0.39135 0.0
C556 C 0.87955 0.56798 0.4042 0.0
C557 C 0.86807 0.55934 0.38203 0.0
H558 H 0.81926 0.52915 0.40185 0.0
H559 H 0.8934 0.5772 0.41139 0.0
C560 C 0.82392 0.52147 0.46755 0.0
N561 N 0.80488 0.51716 0.49174 0.0
C562 C 0.81196 0.49872 0.4736 0.0
C563 C 0.82645 0.54207 0.47384 0.0
C564 C 0.80237 0.4969 0.48582 0.0
C565 C 0.81664 0.53951 0.48606 0.0
C566 C 0.80435 0.49045 0.42064 0.0
C567 C 0.77909 0.47509 0.42212 0.0
C568 C 0.81701 0.48423 0.41192 0.0
C569 C 0.76698 0.45354 0.41497 0.0
C570 C 0.80425 0.46253 0.40495 0.0
N571 N 0.77971 0.44774 0.40662 0.0
C572 C 0.77509 0.53899 0.44356 0.0
C573 C 0.76985 0.5025 0.45269 0.0
C574 C 0.7508 0.5319 0.44642 0.0
N575 N 0.78398 0.52419 0.4467 0.0
C576 C 0.74569 0.49484 0.45582 0.0
C577 C 0.73577 0.50948 0.4526 0.0
H578 H 0.78665 0.55597 0.43859 0.0
H579 H 0.77715 0.49074 0.45466 0.0
C580 C 0.85685 0.47643 0.44264 0.0
N581 N 0.83666 0.47868 0.44208 0.0
C582 C 0.85432 0.45324 0.44347 0.0
C583 C 0.81036 0.43537 0.44326 0.0
C584 C 0.81374 0.45882 0.44272 0.0
C585 C 0.83081 0.43244 0.44353 0.0
H586 H 0.87488 0.49259 0.44233 0.0
H587 H 0.79804 0.4612 0.44268 0.0
O588 O 0.84059 0.56384 0.4361 0.0
O589 O 0.87131 0.53777 0.43532 0.0
O590 O 0.83339 0.52353 0.45559 0.0
O591 O 0.81653 0.5115 0.42766 0.0
H592 H 0.8695 0.60089 0.42113 0.0
H593 H 0.82413 0.58007 0.4547 0.0
H594 H 0.87949 0.64378 0.42442 0.0
H595 H 0.83509 0.62332 0.45746 0.0
H596 H 0.9132 0.51916 0.40656 0.0
H597 H 0.9144 0.57822 0.43774 0.0
H598 H 0.87526 0.50884 0.41839 0.0
H599 H 0.95179 0.58721 0.42569 0.0
H600 H 0.92338 0.63591 0.46427 0.0
H601 H 0.91353 0.57157 0.48385 0.0
H602 H 0.82919 0.53485 0.37896 0.0
H603 H 0.90513 0.58337 0.38871 0.0
H604 H 0.81 0.48263 0.46887 0.0
H605 H 0.83601 0.55985 0.46937 0.0
H606 H 0.79295 0.47939 0.4906 0.0
H607 H 0.81842 0.55529 0.49104 0.0
H608 H 0.76896 0.47971 0.42875 0.0
H609 H 0.83646 0.49608 0.41052 0.0
H610 H 0.74746 0.44142 0.41607 0.0
H611 H 0.81384 0.45747 0.39819 0.0
H612 H 0.74378 0.54363 0.44371 0.0
H613 H 0.7346 0.4771 0.46023 0.0
H614 H 0.87045 0.45152 0.44374 0.0
H615 H 0.79197 0.41965 0.44348 0.0
Li616 Li 0.48098 0.32856 0.44136 0.0
Li617 Li 0.46052 0.28371 0.4405 0.0
Li618 Li 0.45064 0.30639 0.4251 0.0
Li619 Li 0.4377 0.30218 0.44719 0.0
C620 C 0.48923 0.3069 0.41565 0.0
N621 N 0.50095 0.30415 0.39056 0.0
C622 C 0.48405 0.28446 0.41045 0.0
C623 C 0.50052 0.32797 0.40813 0.0
C624 C 0.49013 0.28346 0.39774 0.0
C625 C 0.50621 0.32618 0.39545 0.0
C626 C 0.47591 0.29565 0.46407 0.0
C627 C 0.47032 0.26341 0.47828 0.0
N628 N 0.4949 0.27522 0.48025 0.0
C629 C 0.5011 0.30754 0.46629 0.0
C630 C 0.46036 0.27348 0.47017 0.0
C631 C 0.51035 0.2969 0.47449 0.0
C632 C 0.51406 0.37376 0.45405 0.0
N633 N 0.51161 0.35706 0.44511 0.0
C634 C 0.55467 0.37876 0.4413 0.0
C635 C 0.53132 0.35916 0.43879 0.0
C636 C 0.55769 0.39644 0.4503 0.0
C637 C 0.53711 0.39403 0.45666 0.0
H638 H 0.49819 0.37126 0.45923 0.0
H639 H 0.52899 0.34533 0.43199 0.0
C640 C 0.45021 0.23436 0.44471 0.0
N641 N 0.46751 0.25825 0.44286 0.0
C642 C 0.45725 0.21712 0.44713 0.0
C643 C 0.49957 0.24949 0.44559 0.0
C644 C 0.49176 0.26595 0.44311 0.0
C645 C 0.48227 0.22475 0.44774 0.0
H646 H 0.43103 0.22877 0.44445 0.0
H647 H 0.50505 0.28506 0.44153 0.0
C648 C 0.4612 0.35632 0.43877 0.0
N649 N 0.47934 0.40539 0.44376 0.0
C650 C 0.45231 0.36345 0.44913 0.0
C651 C 0.47935 0.37419 0.43096 0.0
C652 C 0.46169 0.38834 0.45148 0.0
C653 C 0.48828 0.39889 0.43364 0.0
C654 C 0.4034 0.26258 0.43602 0.0
C655 C 0.38794 0.26526 0.42758 0.0
C656 C 0.39349 0.24705 0.44652 0.0
C657 C 0.36273 0.25244 0.42985 0.0
C658 C 0.3682 0.2346 0.44847 0.0
N659 N 0.35347 0.23754 0.44017 0.0
C660 C 0.43573 0.28889 0.39979 0.0
C661 C 0.44757 0.33037 0.40342 0.0
C662 C 0.43396 0.29166 0.3867 0.0
N663 N 0.44307 0.30832 0.40777 0.0
C664 C 0.44632 0.33403 0.39043 0.0
C665 C 0.43999 0.31468 0.38189 0.0
H666 H 0.43228 0.27155 0.40354 0.0
H667 H 0.45295 0.34536 0.40997 0.0
C668 C 0.41522 0.29724 0.47099 0.0
N669 N 0.41301 0.29986 0.45831 0.0
C670 C 0.39915 0.29853 0.47961 0.0
C671 C 0.3783 0.30436 0.46194 0.0
C672 C 0.39485 0.30303 0.45364 0.0
C673 C 0.38077 0.30271 0.47513 0.0
H674 H 0.43004 0.29513 0.47445 0.0
H675 H 0.39389 0.30561 0.44353 0.0
O676 O 0.4828 0.30815 0.42797 0.0
O677 O 0.46655 0.30545 0.45581 0.0
O678 O 0.45218 0.33201 0.43628 0.0
O679 O 0.42813 0.2752 0.43405 0.0
H680 H 0.47516 0.26795 0.41611 0.0
H681 H 0.5045 0.34545 0.412 0.0
H682 H 0.48612 0.2662 0.39356 0.0
H683 H 0.51474 0.34229 0.38948 0.0
H684 H 0.45853 0.24615 0.48297 0.0
H685 H 0.51343 0.32468 0.46164 0.0
H686 H 0.44084 0.26393 0.46849 0.0
H687 H 0.52982 0.30583 0.47624 0.0
H688 H 0.57025 0.38006 0.43629 0.0
H689 H 0.53896 0.40725 0.46379 0.0
H690 H 0.44337 0.19817 0.44872 0.0
H691 H 0.51902 0.25605 0.44569 0.0
H692 H 0.43841 0.34998 0.45534 0.0
H693 H 0.48683 0.36908 0.42306 0.0
H694 H 0.45499 0.3941 0.45947 0.0
H695 H 0.50243 0.41288 0.42773 0.0
H696 H 0.39534 0.27725 0.41943 0.0
H697 H 0.40523 0.24488 0.45317 0.0
H698 H 0.35054 0.25441 0.42343 0.0
H699 H 0.36028 0.22265 0.4566 0.0
H700 H 0.42908 0.27635 0.38036 0.0
H701 H 0.45077 0.35195 0.38707 0.0
H702 H 0.40157 0.29704 0.48972 0.0
H703 H 0.36462 0.30798 0.45811 0.0
Li704 Li 0.65586 0.14703 0.43788 0.0
Li705 Li 0.70057 0.17244 0.43858 0.0
Li706 Li 0.67981 0.14207 0.42155 0.0
Li707 Li 0.68156 0.12968 0.44322 0.0
C708 C 0.68157 0.1821 0.41374 0.0
N709 N 0.68994 0.2019 0.38955 0.0
C710 C 0.70461 0.20171 0.41046 0.0
C711 C 0.66277 0.17262 0.40472 0.0
C712 C 0.70846 0.21147 0.39818 0.0
C713 C 0.66738 0.18284 0.39253 0.0
C714 C 0.68586 0.17043 0.46258 0.0
C715 C 0.71652 0.19384 0.4784 0.0
N716 N 0.70373 0.20481 0.48192 0.0
C717 C 0.67294 0.18184 0.46639 0.0
C718 C 0.70776 0.17635 0.46867 0.0
C719 C 0.6823 0.1992 0.47618 0.0
C720 C 0.61144 0.13475 0.45121 0.0
N721 N 0.62641 0.14722 0.44126 0.0
C722 C 0.60011 0.16198 0.43504 0.0
C723 C 0.62124 0.1608 0.43331 0.0
C724 C 0.58416 0.14924 0.44515 0.0
C725 C 0.59005 0.13554 0.45335 0.0
H726 H 0.61617 0.12431 0.45749 0.0
H727 H 0.63371 0.17104 0.42571 0.0
C728 C 0.75014 0.21224 0.44082 0.0
N729 N 0.72604 0.20482 0.44228 0.0
C730 C 0.76797 0.23689 0.44259 0.0
C731 C 0.73578 0.24533 0.44774 0.0
C732 C 0.71865 0.22079 0.44559 0.0
C733 C 0.76075 0.2537 0.44607 0.0
H734 H 0.75544 0.1992 0.43794 0.0
H735 H 0.69933 0.21451 0.44626 0.0
C736 C 0.62857 0.10041 0.43342 0.0
N737 N 0.57904 0.07007 0.43777 0.0
C738 C 0.62044 0.08448 0.44383 0.0
C739 C 0.61149 0.10088 0.42522 0.0
C740 C 0.59532 0.06927 0.44585 0.0
C741 C 0.58654 0.08543 0.42759 0.0
C742 C 0.72298 0.13839 0.43269 0.0
C743 C 0.7211 0.12121 0.4237 0.0
C744 C 0.73826 0.14372 0.44324 0.0
C745 C 0.73438 0.10939 0.42551 0.0
C746 C 0.7512 0.13147 0.44472 0.0
N747 N 0.749 0.1147 0.4359 0.0
C748 C 0.70068 0.14942 0.39683 0.0
C749 C 0.65946 0.11724 0.39855 0.0
C750 C 0.70003 0.14658 0.38361 0.0
N751 N 0.68036 0.13521 0.40394 0.0
C752 C 0.65794 0.11384 0.38538 0.0
C753 C 0.67825 0.12893 0.37768 0.0
H754 H 0.71711 0.16351 0.40141 0.0
H755 H 0.64367 0.10606 0.40442 0.0
C756 C 0.68465 0.10754 0.46594 0.0
N757 N 0.68296 0.10537 0.45305 0.0
C758 C 0.68316 0.0886 0.47334 0.0
C759 C 0.67886 0.06584 0.45404 0.0
C760 C 0.68026 0.08515 0.44702 0.0
C761 C 0.67983 0.0672 0.46742 0.0
H762 H 0.68625 0.12357 0.4705 0.0
H763 H 0.67848 0.08374 0.43676 0.0
O764 O 0.67757 0.17192 0.42563 0.0
O765 O 0.67715 0.1536 0.45291 0.0
O766 O 0.6531 0.11572 0.43138 0.0
O767 O 0.70984 0.14986 0.4312 0.0
H768 H 0.71945 0.2092 0.41724 0.0
H769 H 0.64494 0.15718 0.407 0.0
H770 H 0.72622 0.22659 0.39551 0.0
H771 H 0.65307 0.17553 0.38543 0.0
H772 H 0.73352 0.19871 0.48314 0.0
H773 H 0.656 0.17752 0.46177 0.0
H774 H 0.71799 0.16772 0.46582 0.0
H775 H 0.67257 0.20827 0.47918 0.0
H776 H 0.59666 0.17332 0.4287 0.0
H777 H 0.57828 0.12555 0.46129 0.0
H778 H 0.78709 0.24281 0.4411 0.0
H779 H 0.72949 0.25787 0.45012 0.0
H780 H 0.63332 0.08396 0.45034 0.0
H781 H 0.61741 0.11343 0.41727 0.0
H782 H 0.58878 0.0569 0.45388 0.0
H783 H 0.57313 0.08576 0.42139 0.0
H784 H 0.70932 0.11687 0.41549 0.0
H785 H 0.73996 0.15703 0.45026 0.0
H786 H 0.733 0.09595 0.41867 0.0
H787 H 0.76298 0.13529 0.45288 0.0
H788 H 0.71627 0.15835 0.37808 0.0
H789 H 0.64069 0.10018 0.38127 0.0
H790 H 0.68349 0.0903 0.48362 0.0
H791 H 0.67651 0.04983 0.44905 0.0
Li792 Li 0.88631 0.53191 0.22484 0.0
Li793 Li 0.87383 0.51766 0.24604 0.0
Li794 Li 0.8658 0.4879 0.2279 0.0
Li795 Li 0.84347 0.51096 0.23028 0.0
C796 C 0.92126 0.52132 0.23232 0.0
N797 N 0.96952 0.5373 0.22633 0.0
C798 C 0.93995 0.54349 0.23722 0.0
C799 C 0.9271 0.50723 0.22441 0.0
C800 C 0.96424 0.55128 0.23406 0.0
C801 C 0.95162 0.51563 0.22149 0.0
C802 C 0.87621 0.56039 0.24584 0.0
C803 C 0.86754 0.57584 0.26499 0.0
N804 N 0.89012 0.59624 0.26431 0.0
C805 C 0.89937 0.58151 0.24536 0.0
C806 C 0.86016 0.55754 0.25575 0.0
C807 C 0.90603 0.59943 0.25476 0.0
C808 C 0.90216 0.57531 0.21234 0.0
N809 N 0.90899 0.55847 0.2143 0.0
C810 C 0.9443 0.58106 0.20109 0.0
C811 C 0.92929 0.56062 0.20859 0.0
C812 C 0.93804 0.59914 0.19927 0.0
C813 C 0.91641 0.59581 0.20486 0.0
H814 H 0.88543 0.57271 0.21656 0.0
H815 H 0.9338 0.5465 0.20967 0.0
C816 C 0.86472 0.50674 0.27215 0.0
N817 N 0.88119 0.52323 0.26378 0.0
C818 C 0.86746 0.51159 0.2852 0.0
C819 C 0.90455 0.5499 0.28083 0.0
C820 C 0.90135 0.54407 0.26788 0.0
C821 C 0.88722 0.53372 0.28962 0.0
H822 H 0.84905 0.49015 0.26867 0.0
H823 H 0.91441 0.5567 0.26108 0.0
C824 C 0.86508 0.51323 0.20285 0.0
N825 N 0.88034 0.53086 0.17851 0.0
C826 C 0.85651 0.52713 0.19696 0.0
C827 C 0.88124 0.5081 0.19637 0.0
C828 C 0.86449 0.53593 0.18464 0.0
C829 C 0.88878 0.51723 0.18406 0.0
C830 C 0.81898 0.47202 0.24438 0.0
C831 C 0.80516 0.4496 0.23812 0.0
C832 C 0.80742 0.4802 0.25274 0.0
C833 C 0.77993 0.43585 0.24023 0.0
C834 C 0.78214 0.46595 0.25456 0.0
N835 N 0.76903 0.44426 0.24831 0.0
C836 C 0.8698 0.44562 0.23054 0.0
C837 C 0.84746 0.44625 0.21264 0.0
C838 C 0.86327 0.42145 0.22788 0.0
N839 N 0.86147 0.45725 0.22306 0.0
C840 C 0.84029 0.42208 0.2097 0.0
C841 C 0.84771 0.40909 0.21754 0.0
H842 H 0.88081 0.45484 0.23882 0.0
H843 H 0.84076 0.45586 0.207 0.0
C844 C 0.80659 0.52382 0.23239 0.0
N845 N 0.8127 0.50816 0.22697 0.0
C846 C 0.78327 0.52044 0.23059 0.0
C847 C 0.77341 0.48555 0.21718 0.0
C848 C 0.79686 0.48954 0.2193 0.0
C849 C 0.76626 0.50093 0.223 0.0
H850 H 0.81969 0.53877 0.23823 0.0
H851 H 0.80231 0.47745 0.21506 0.0
O852 O 0.89742 0.51313 0.23548 0.0
O853 O 0.86936 0.54254 0.23674 0.0
O854 O 0.85808 0.5051 0.21503 0.0
O855 O 0.8436 0.48611 0.24216 0.0
H856 H 0.93574 0.55469 0.24328 0.0
H857 H 0.91287 0.49005 0.22051 0.0
H858 H 0.97888 0.56845 0.23773 0.0
H859 H 0.95641 0.50495 0.21535 0.0
H860 H 0.85535 0.57376 0.27275 0.0
H861 H 0.91229 0.5839 0.23796 0.0
H862 H 0.84235 0.54119 0.25643 0.0
H863 H 0.92392 0.61581 0.25452 0.0
H864 H 0.96069 0.58274 0.19688 0.0
H865 H 0.91033 0.60875 0.20335 0.0
H866 H 0.85371 0.49869 0.29172 0.0
H867 H 0.92015 0.56703 0.28394 0.0
H868 H 0.84405 0.5313 0.2019 0.0
H869 H 0.88811 0.49746 0.20086 0.0
H870 H 0.85814 0.54686 0.17997 0.0
H871 H 0.90142 0.51357 0.17895 0.0
H872 H 0.81376 0.44295 0.23164 0.0
H873 H 0.81779 0.49751 0.25765 0.0
H874 H 0.769 0.41853 0.23539 0.0
H875 H 0.77294 0.47216 0.26092 0.0
H876 H 0.86973 0.41233 0.23408 0.0
H877 H 0.82792 0.41332 0.20179 0.0
H878 H 0.77858 0.53289 0.2351 0.0
H879 H 0.76077 0.47015 0.21136 0.0
Li880 Li 0.46246 0.35455 0.2216 0.0
Li881 Li 0.47463 0.3533 0.24368 0.0
Li882 Li 0.50426 0.37658 0.22667 0.0
Li883 Li 0.482 0.33125 0.22595 0.0
C884 C 0.4914 0.40664 0.23554 0.0
N885 N 0.51955 0.45676 0.23864 0.0
C886 C 0.49788 0.41676 0.24775 0.0
C887 C 0.49901 0.42202 0.22491 0.0
C888 C 0.51217 0.44215 0.24912 0.0
C889 C 0.51331 0.4473 0.22668 0.0
C890 C 0.43854 0.30435 0.23997 0.0
C891 C 0.43972 0.27663 0.25522 0.0
N892 N 0.41492 0.26252 0.25464 0.0
C893 C 0.41307 0.28957 0.23951 0.0
C894 C 0.45198 0.29784 0.24788 0.0
C895 C 0.40147 0.26849 0.247 0.0
C896 C 0.41874 0.33009 0.20852 0.0
N897 N 0.43677 0.35297 0.21174 0.0
C898 C 0.41677 0.37067 0.20058 0.0
C899 C 0.43618 0.37317 0.208 0.0
C900 C 0.39781 0.34717 0.19719 0.0
C901 C 0.399 0.32674 0.20123 0.0
H902 H 0.41988 0.31442 0.21154 0.0
H903 H 0.45076 0.39115 0.21073 0.0
C904 C 0.48629 0.36343 0.26963 0.0
N905 N 0.46738 0.35186 0.26133 0.0
C906 C 0.48195 0.36098 0.28274 0.0
C907 C 0.4387 0.33512 0.27849 0.0
C908 C 0.44384 0.33844 0.26546 0.0
C909 C 0.45795 0.34625 0.28727 0.0
H910 H 0.5048 0.37415 0.26605 0.0
H911 H 0.42908 0.32986 0.25866 0.0
C912 C 0.4801 0.35151 0.19993 0.0
N913 N 0.45915 0.34482 0.17612 0.0
C914 C 0.46658 0.32801 0.19473 0.0
C915 C 0.48312 0.37162 0.19299 0.0
C916 C 0.45611 0.32501 0.18269 0.0
C917 C 0.47233 0.36785 0.18098 0.0
C918 C 0.52393 0.35171 0.24365 0.0
C919 C 0.54543 0.36089 0.23647 0.0
C920 C 0.52245 0.34098 0.25549 0.0
C921 C 0.56497 0.35904 0.24119 0.0
C922 C 0.54239 0.33945 0.25988 0.0
N923 N 0.56307 0.34844 0.2527 0.0
C924 C 0.54997 0.41617 0.2342 0.0
C925 C 0.54562 0.40838 0.21196 0.0
C926 C 0.57497 0.43268 0.23274 0.0
N927 N 0.53606 0.404 0.22392 0.0
C928 C 0.57053 0.42474 0.21006 0.0
C929 C 0.5857 0.43649 0.22059 0.0
H930 H 0.54196 0.41182 0.24363 0.0
H931 H 0.53424 0.39809 0.204 0.0
C932 C 0.4652 0.28041 0.22085 0.0
N933 N 0.48488 0.30351 0.22152 0.0
C934 C 0.46839 0.26064 0.21804 0.0
C935 C 0.51182 0.28894 0.21603 0.0
C936 C 0.50775 0.30808 0.21878 0.0
C937 C 0.49203 0.26474 0.21575 0.0
H938 H 0.44699 0.27723 0.22247 0.0
H939 H 0.5229 0.32663 0.21873 0.0
O940 O 0.47768 0.38181 0.23399 0.0
O941 O 0.45009 0.32523 0.23281 0.0
O942 O 0.48987 0.35472 0.21187 0.0
O943 O 0.50472 0.35384 0.23933 0.0
H944 H 0.49198 0.40516 0.25607 0.0
H945 H 0.49428 0.41449 0.21539 0.0
H946 H 0.5174 0.45023 0.25851 0.0
H947 H 0.51951 0.4594 0.21853 0.0
H948 H 0.44992 0.27139 0.26137 0.0
H949 H 0.40237 0.2944 0.23348 0.0
H950 H 0.47165 0.30894 0.24827 0.0
H951 H 0.38177 0.2569 0.24676 0.0
H952 H 0.41644 0.38685 0.19765 0.0
H953 H 0.38498 0.30834 0.19862 0.0
H954 H 0.49726 0.36978 0.28926 0.0
H955 H 0.41994 0.32387 0.28166 0.0
H956 H 0.46395 0.31224 0.2 0.0
H957 H 0.4934 0.38991 0.1969 0.0
H958 H 0.44547 0.30692 0.17858 0.0
H959 H 0.47436 0.38322 0.17554 0.0
H960 H 0.54694 0.36907 0.22725 0.0
H961 H 0.50611 0.33391 0.26127 0.0
H962 H 0.58165 0.36599 0.23569 0.0
H963 H 0.54145 0.33117 0.26901 0.0
H964 H 0.58602 0.44105 0.24114 0.0
H965 H 0.57803 0.42732 0.20053 0.0
H966 H 0.45251 0.24239 0.21762 0.0
H967 H 0.53041 0.29312 0.2144 0.0
Li968 Li 0.61997 0.13377 0.22201 0.0
Li969 Li 0.665 0.15325 0.22103 0.0
Li970 Li 0.63706 0.10874 0.21765 0.0
Li971 Li 0.64222 0.12612 0.23898 0.0
C972 C 0.63112 0.14239 0.19737 0.0
N973 N 0.61039 0.15536 0.17809 0.0
C974 C 0.64408 0.1657 0.19195 0.0
C975 C 0.60776 0.12556 0.19286 0.0
C976 C 0.63325 0.17193 0.18224 0.0
C977 C 0.59755 0.13251 0.18315 0.0
C978 C 0.65047 0.17165 0.24442 0.0
C979 C 0.67905 0.19626 0.2608 0.0
N980 N 0.66145 0.19946 0.26634 0.0
C981 C 0.63269 0.17526 0.25021 0.0
C982 C 0.67388 0.1823 0.24969 0.0
C983 C 0.63859 0.18936 0.26131 0.0
C984 C 0.571 0.12511 0.22146 0.0
N985 N 0.59502 0.14116 0.21897 0.0
C986 C 0.58595 0.17154 0.21223 0.0
C987 C 0.60274 0.16407 0.21459 0.0
C988 C 0.56109 0.15553 0.21481 0.0
C989 C 0.55356 0.13209 0.21954 0.0
H990 H 0.56548 0.10711 0.22512 0.0
H991 H 0.62204 0.17663 0.21304 0.0
C992 C 0.71532 0.18609 0.21274 0.0
N993 N 0.69362 0.18348 0.21663 0.0
C994 C 0.73558 0.20942 0.21067 0.0
C995 C 0.71028 0.22672 0.21573 0.0
C996 C 0.69074 0.20319 0.21794 0.0
C997 C 0.73313 0.23005 0.21224 0.0
H998 H 0.7171 0.17024 0.21132 0.0
H999 H 0.67321 0.20061 0.22083 0.0
C1000 C 0.59724 0.07771 0.23026 0.0
N1001 N 0.57042 0.02722 0.22951 0.0
C1002 C 0.60036 0.06409 0.23972 0.0
C1003 C 0.58032 0.06571 0.22051 0.0
C1004 C 0.58665 0.03856 0.23915 0.0
C1005 C 0.56699 0.04015 0.22027 0.0
C1006 C 0.69059 0.12988 0.22673 0.0
C1007 C 0.69655 0.12012 0.21628 0.0
C1008 C 0.7087 0.1444 0.23557 0.0
C1009 C 0.72052 0.12495 0.21491 0.0
C1010 C 0.73246 0.14884 0.23384 0.0
N1011 N 0.73783 0.1391 0.22364 0.0
C1012 C 0.6309 0.08065 0.19564 0.0
C1013 C 0.63678 0.0644 0.2147 0.0
C1014 C 0.63198 0.06271 0.18843 0.0
N1015 N 0.63374 0.08141 0.20848 0.0
C1016 C 0.63781 0.04602 0.20788 0.0
C1017 C 0.63609 0.04542 0.19452 0.0
H1018 H 0.62901 0.09469 0.19091 0.0
H1019 H 0.63949 0.06576 0.2249 0.0
C1020 C 0.62899 0.12405 0.26499 0.0
N1021 N 0.64433 0.12184 0.25673 0.0
C1022 C 0.63196 0.12311 0.27812 0.0
C1023 C 0.66584 0.11674 0.27395 0.0
C1024 C 0.66209 0.11762 0.26092 0.0
C1025 C 0.6509 0.11987 0.28272 0.0
H1026 H 0.6148 0.12706 0.26137 0.0
H1027 H 0.67353 0.11518 0.25415 0.0
O1028 O 0.64127 0.1361 0.20703 0.0
O1029 O 0.6449 0.15757 0.23368 0.0
O1030 O 0.61071 0.1027 0.23056 0.0
O1031 O 0.66713 0.12505 0.22836 0.0
H1032 H 0.66226 0.17887 0.19525 0.0
H1033 H 0.59752 0.10744 0.19693 0.0
H1034 H 0.64301 0.18995 0.17801 0.0
H1035 H 0.5794 0.11974 0.17964 0.0
H1036 H 0.69706 0.20453 0.26503 0.0
H1037 H 0.61448 0.16711 0.24621 0.0
H1038 H 0.68784 0.17971 0.24528 0.0
H1039 H 0.62499 0.19224 0.26594 0.0
H1040 H 0.59241 0.18993 0.20882 0.0
H1041 H 0.5345 0.11943 0.22175 0.0
H1042 H 0.7529 0.21133 0.20785 0.0
H1043 H 0.70773 0.24222 0.2171 0.0
H1044 H 0.61337 0.07312 0.24734 0.0
H1045 H 0.57761 0.07602 0.21317 0.0
H1046 H 0.58896 0.02776 0.24636 0.0
H1047 H 0.55393 0.0306 0.21274 0.0
H1048 H 0.68294 0.10911 0.20925 0.0
H1049 H 0.70451 0.15229 0.24364 0.0
H1050 H 0.72538 0.11753 0.20688 0.0
H1051 H 0.74665 0.16008 0.2406 0.0
H1052 H 0.63103 0.0633 0.17815 0.0
H1053 H 0.64078 0.03295 0.21298 0.0
H1054 H 0.62008 0.12562 0.2846 0.0
H1055 H 0.68031 0.11372 0.27712 0.0
Li1056 Li 0.52201 0.87622 0.75546 0.0
Li1057 Li 0.53517 0.88929 0.77663 0.0
Li1058 Li 0.51564 0.84696 0.77287 0.0
Li1059 Li 0.49231 0.86978 0.77381 0.0
C1060 C 0.556 0.86178 0.75711 0.0
N1061 N 0.57383 0.84021 0.7407 0.0
C1062 C 0.58124 0.8717 0.75566 0.0
C1063 C 0.53991 0.84091 0.75015 0.0
C1064 C 0.58988 0.86054 0.74734 0.0
C1065 C 0.54924 0.83025 0.74193 0.0
C1066 C 0.53043 0.92501 0.76658 0.0
C1067 C 0.53485 0.96268 0.77461 0.0
N1068 N 0.55758 0.97521 0.76934 0.0
C1069 C 0.55372 0.93825 0.76112 0.0
C1070 C 0.52079 0.93727 0.77329 0.0
C1071 C 0.56721 0.96363 0.76268 0.0
C1072 C 0.5074 0.87389 0.72987 0.0
N1073 N 0.5271 0.88158 0.73761 0.0
C1074 C 0.55376 0.89189 0.71965 0.0
C1075 C 0.55008 0.89132 0.73279 0.0
C1076 C 0.53361 0.8828 0.71137 0.0
C1077 C 0.51025 0.87437 0.71665 0.0
H1078 H 0.48936 0.86662 0.73398 0.0
H1079 H 0.56552 0.89786 0.73915 0.0
C1080 C 0.58308 0.91511 0.78556 0.0
N1081 N 0.56143 0.91452 0.78637 0.0
C1082 C 0.60289 0.9314 0.79298 0.0
C1083 C 0.57794 0.94651 0.80197 0.0
C1084 C 0.55855 0.9299 0.79431 0.0
C1085 C 0.60043 0.94724 0.80143 0.0
H1086 H 0.58473 0.90233 0.77944 0.0
H1087 H 0.54102 0.92879 0.79498 0.0
C1088 C 0.47143 0.82492 0.75643 0.0
N1089 N 0.43088 0.78232 0.74792 0.0
C1090 C 0.45065 0.81257 0.76414 0.0
C1091 C 0.47145 0.81562 0.74432 0.0
C1092 C 0.43038 0.79106 0.7597 0.0
C1093 C 0.45082 0.79405 0.74021 0.0
C1094 C 0.51938 0.86952 0.79916 0.0
C1095 C 0.53766 0.8647 0.80286 0.0
C1096 C 0.51191 0.88167 0.80753 0.0
C1097 C 0.54844 0.87247 0.81484 0.0
C1098 C 0.52311 0.88909 0.81944 0.0
N1099 N 0.54101 0.8844 0.82281 0.0
C1100 C 0.53337 0.8141 0.77713 0.0
C1101 C 0.49059 0.79688 0.7795 0.0
C1102 C 0.53111 0.79124 0.77893 0.0
N1103 N 0.51312 0.81632 0.77694 0.0
C1104 C 0.4875 0.77374 0.78149 0.0
C1105 C 0.50787 0.77063 0.78092 0.0
H1106 H 0.55128 0.82997 0.77568 0.0
H1107 H 0.47494 0.79924 0.77988 0.0
C1108 C 0.4501 0.87182 0.76849 0.0
N1109 N 0.46145 0.86609 0.77763 0.0
C1110 C 0.42562 0.86519 0.76999 0.0
C1111 C 0.42539 0.84792 0.79053 0.0
C1112 C 0.44992 0.855 0.78866 0.0
C1113 C 0.41269 0.85232 0.78094 0.0
H1114 H 0.45975 0.88049 0.75978 0.0
H1115 H 0.45929 0.85023 0.79564 0.0
O1116 O 0.54733 0.87289 0.76506 0.0
O1117 O 0.51702 0.90017 0.76524 0.0
O1118 O 0.49128 0.8464 0.76053 0.0
O1119 O 0.50903 0.86255 0.78736 0.0
H1120 H 0.59408 0.88801 0.76082 0.0
H1121 H 0.52044 0.83281 0.75121 0.0
H1122 H 0.60935 0.86807 0.74613 0.0
H1123 H 0.53692 0.81404 0.73655 0.0
H1124 H 0.5277 0.97243 0.77985 0.0
H1125 H 0.56136 0.92896 0.75587 0.0
H1126 H 0.50272 0.92722 0.77751 0.0
H1127 H 0.58535 0.97412 0.7586 0.0
H1128 H 0.5721 0.89848 0.71609 0.0
H1129 H 0.49424 0.86779 0.71067 0.0
H1130 H 0.61967 0.93087 0.79247 0.0
H1131 H 0.57526 0.95839 0.80836 0.0
H1132 H 0.45028 0.81926 0.77357 0.0
H1133 H 0.48718 0.8249 0.73811 0.0
H1134 H 0.41426 0.7813 0.76562 0.0
H1135 H 0.45065 0.78667 0.73088 0.0
H1136 H 0.54368 0.85537 0.79646 0.0
H1137 H 0.49788 0.88567 0.80477 0.0
H1138 H 0.56276 0.86906 0.81779 0.0
H1139 H 0.51765 0.89868 0.82599 0.0
H1140 H 0.54733 0.78967 0.77869 0.0
H1141 H 0.46924 0.75833 0.78304 0.0
H1142 H 0.41665 0.86924 0.76243 0.0
H1143 H 0.41612 0.83775 0.79903 0.0
Li1144 Li 0.15821 0.66594 0.77593 0.0
Li1145 Li 0.13786 0.62144 0.77635 0.0
Li1146 Li 0.12822 0.64259 0.75984 0.0
Li1147 Li 0.11484 0.64038 0.78171 0.0
C1148 C 0.16538 0.63966 0.75113 0.0
N1149 N 0.17457 0.62981 0.72669 0.0
C1150 C 0.16138 0.61646 0.74802 0.0
C1151 C 0.17404 0.65784 0.74176 0.0
C1152 C 0.16618 0.61186 0.73563 0.0
C1153 C 0.17854 0.65249 0.72948 0.0
C1154 C 0.1512 0.63489 0.80021 0.0
C1155 C 0.14282 0.60355 0.81568 0.0
N1156 N 0.16706 0.61498 0.81855 0.0
C1157 C 0.17602 0.6464 0.80334 0.0
C1158 C 0.13443 0.61336 0.80647 0.0
C1159 C 0.18367 0.63602 0.81263 0.0
C1160 C 0.1928 0.70836 0.79011 0.0
N1161 N 0.18845 0.69541 0.7791 0.0
C1162 C 0.22793 0.72449 0.77106 0.0
C1163 C 0.20554 0.70293 0.76972 0.0
C1164 C 0.23303 0.73827 0.78229 0.0
C1165 C 0.21527 0.72995 0.79197 0.0
H1166 H 0.17887 0.70187 0.79745 0.0
H1167 H 0.20185 0.69213 0.76119 0.0
C1168 C 0.12649 0.57178 0.78016 0.0
N1169 N 0.14413 0.59585 0.77987 0.0
C1170 C 0.13285 0.55397 0.78236 0.0
C1171 C 0.17517 0.58623 0.78414 0.0
C1172 C 0.16808 0.60327 0.78174 0.0
C1173 C 0.1575 0.56121 0.7844 0.0
H1174 H 0.10761 0.56641 0.77848 0.0
H1175 H 0.18172 0.62251 0.78117 0.0
C1176 C 0.13966 0.69357 0.77281 0.0
N1177 N 0.16067 0.74276 0.77854 0.0
C1178 C 0.13346 0.70095 0.78409 0.0
C1179 C 0.15659 0.71124 0.76445 0.0
C1180 C 0.14424 0.7259 0.7868 0.0
C1181 C 0.16702 0.736 0.76753 0.0
C1182 C 0.08089 0.59932 0.77108 0.0
C1183 C 0.06554 0.60102 0.76214 0.0
C1184 C 0.07075 0.58425 0.78172 0.0
C1185 C 0.04025 0.58778 0.76408 0.0
C1186 C 0.04537 0.57134 0.78333 0.0
N1187 N 0.03077 0.57336 0.77456 0.0
C1188 C 0.11348 0.62287 0.73496 0.0
C1189 C 0.12243 0.6637 0.73767 0.0
C1190 C 0.11066 0.62421 0.72185 0.0
N1191 N 0.11991 0.64271 0.74248 0.0
C1192 C 0.11988 0.66589 0.72464 0.0
C1193 C 0.11444 0.64616 0.71649 0.0
H1194 H 0.1114 0.60632 0.73909 0.0
H1195 H 0.12721 0.67905 0.74389 0.0
C1196 C 0.08904 0.63691 0.80454 0.0
N1197 N 0.08924 0.63899 0.79166 0.0
C1198 C 0.0716 0.6388 0.81181 0.0
C1199 C 0.05449 0.64407 0.79236 0.0
C1200 C 0.07235 0.64227 0.78549 0.0
C1201 C 0.05433 0.64296 0.80573 0.0
H1202 H 0.10304 0.63484 0.80921 0.0
H1203 H 0.07328 0.64433 0.77525 0.0
O1204 O 0.1604 0.64442 0.76317 0.0
O1205 O 0.14341 0.64453 0.79099 0.0
O1206 O 0.12975 0.66921 0.77013 0.0
O1207 O 0.10571 0.61238 0.76942 0.0
H1208 H 0.15443 0.60203 0.75503 0.0
H1209 H 0.1766 0.67571 0.74384 0.0
H1210 H 0.16312 0.59397 0.73311 0.0
H1211 H 0.185 0.66632 0.72213 0.0
H1212 H 0.13006 0.5868 0.82053 0.0
H1213 H 0.18927 0.66298 0.79855 0.0
H1214 H 0.11519 0.60417 0.80412 0.0
H1215 H 0.20283 0.64465 0.8151 0.0
H1216 H 0.24137 0.73005 0.7635 0.0
H1217 H 0.21866 0.74009 0.80079 0.0
H1218 H 0.11874 0.53481 0.78242 0.0
H1219 H 0.19444 0.59255 0.78534 0.0
H1220 H 0.12065 0.68763 0.79076 0.0
H1221 H 0.16207 0.70591 0.75583 0.0
H1222 H 0.13963 0.73186 0.7955 0.0
H1223 H 0.18029 0.74984 0.7612 0.0
H1224 H 0.07309 0.61263 0.75386 0.0
H1225 H 0.08237 0.58272 0.78871 0.0
H1226 H 0.02815 0.58902 0.75728 0.0
H1227 H 0.03728 0.55973 0.79156 0.0
H1228 H 0.10603 0.6084 0.71596 0.0
H1229 H 0.12317 0.68323 0.72096 0.0
H1230 H 0.07246 0.63828 0.8221 0.0
H1231 H 0.04141 0.64704 0.78727 0.0
Li1232 Li 0.33615 0.48962 0.76998 0.0
Li1233 Li 0.38228 0.51181 0.77107 0.0
Li1234 Li 0.35898 0.48041 0.75365 0.0
Li1235 Li 0.35758 0.46943 0.77526 0.0
C1236 C 0.36319 0.53368 0.75349 0.0
N1237 N 0.36838 0.5778 0.74602 0.0
C1238 C 0.36728 0.55152 0.76258 0.0
C1239 C 0.36133 0.53813 0.74062 0.0
C1240 C 0.37002 0.57377 0.7586 0.0
C1241 C 0.36406 0.56056 0.73704 0.0
C1242 C 0.36067 0.49079 0.79699 0.0
C1243 C 0.38645 0.49113 0.81393 0.0
N1244 N 0.36625 0.47744 0.82123 0.0
C1245 C 0.34019 0.47685 0.80468 0.0
C1246 C 0.38401 0.49804 0.80165 0.0
C1247 C 0.34338 0.47022 0.81689 0.0
C1248 C 0.29004 0.47536 0.78069 0.0
N1249 N 0.30743 0.49171 0.77259 0.0
C1250 C 0.2826 0.50899 0.76779 0.0
C1251 C 0.30391 0.50811 0.76605 0.0
C1252 C 0.26452 0.49267 0.77627 0.0
C1253 C 0.26841 0.47564 0.78277 0.0
H1254 H 0.29285 0.46186 0.78539 0.0
H1255 H 0.3174 0.52037 0.75934 0.0
C1256 C 0.4278 0.55407 0.76537 0.0
N1257 N 0.40998 0.54302 0.77433 0.0
C1258 C 0.44592 0.57867 0.76677 0.0
C1259 C 0.42742 0.57958 0.78679 0.0
C1260 C 0.40977 0.55504 0.78503 0.0
C1261 C 0.44547 0.59194 0.77744 0.0
H1262 H 0.42729 0.54409 0.75688 0.0
H1263 H 0.39501 0.54598 0.79183 0.0
C1264 C 0.30934 0.44837 0.75566 0.0
N1265 N 0.26913 0.43032 0.73976 0.0
C1266 C 0.29131 0.42359 0.75601 0.0
C1267 C 0.30687 0.46395 0.74718 0.0
C1268 C 0.27114 0.41482 0.7479 0.0
C1269 C 0.28642 0.45449 0.73924 0.0
C1270 C 0.39809 0.472 0.76514 0.0
C1271 C 0.3866 0.44825 0.7602 0.0
C1272 C 0.42082 0.48173 0.7711 0.0
C1273 C 0.39794 0.4344 0.7615 0.0
C1274 C 0.43158 0.46731 0.77218 0.0
N1275 N 0.42 0.44413 0.76742 0.0
C1276 C 0.37448 0.4919 0.72823 0.0
C1277 C 0.34398 0.45045 0.7315 0.0
C1278 C 0.37248 0.48855 0.71504 0.0
N1279 N 0.35965 0.47322 0.73611 0.0
C1280 C 0.3411 0.44636 0.71839 0.0
C1281 C 0.35492 0.46576 0.70994 0.0
H1282 H 0.38718 0.50968 0.73219 0.0
H1283 H 0.33286 0.4357 0.73798 0.0
C1284 C 0.33079 0.42441 0.78681 0.0
N1285 N 0.35415 0.44341 0.7859 0.0
C1286 C 0.32532 0.40422 0.7943 0.0
C1287 C 0.36797 0.42369 0.8002 0.0
C1288 C 0.37266 0.44353 0.79248 0.0
C1289 C 0.34403 0.40362 0.80107 0.0
H1290 H 0.31629 0.42509 0.78185 0.0
H1291 H 0.39099 0.4591 0.79191 0.0
O1292 O 0.36066 0.51182 0.75714 0.0
O1293 O 0.35793 0.4971 0.78491 0.0
O1294 O 0.32911 0.45711 0.76364 0.0
O1295 O 0.38729 0.48581 0.764 0.0
H1296 H 0.36796 0.54807 0.7726 0.0
H1297 H 0.35754 0.52433 0.73348 0.0
H1298 H 0.37331 0.58778 0.76553 0.0
H1299 H 0.36266 0.56424 0.72711 0.0
H1300 H 0.40439 0.49648 0.81762 0.0
H1301 H 0.32201 0.47107 0.80126 0.0
H1302 H 0.40006 0.5085 0.79576 0.0
H1303 H 0.32767 0.45933 0.82292 0.0
H1304 H 0.28046 0.52256 0.76265 0.0
H1305 H 0.25476 0.46252 0.78925 0.0
H1306 H 0.4596 0.5874 0.75937 0.0
H1307 H 0.42595 0.58909 0.79503 0.0
H1308 H 0.2929 0.41118 0.76243 0.0
H1309 H 0.32054 0.48312 0.74664 0.0
H1310 H 0.25709 0.39568 0.74808 0.0
H1311 H 0.28432 0.46636 0.73265 0.0
H1312 H 0.36901 0.44054 0.75553 0.0
H1313 H 0.42994 0.50015 0.77492 0.0
H1314 H 0.38921 0.41592 0.75781 0.0
H1315 H 0.44912 0.47452 0.77683 0.0
H1316 H 0.38408 0.50387 0.70893 0.0
H1317 H 0.32731 0.42848 0.71498 0.0
H1318 H 0.3065 0.38941 0.79499 0.0
H1319 H 0.38286 0.42395 0.80535 0.0
Li1320 Li 0.55434 0.8611 0.55109 0.0
Li1321 Li 0.54028 0.84936 0.57292 0.0
Li1322 Li 0.53024 0.81844 0.55615 0.0
Li1323 Li 0.51073 0.84355 0.55666 0.0
C1324 C 0.58734 0.85289 0.56177 0.0
N1325 N 0.63747 0.87618 0.55867 0.0
C1326 C 0.60283 0.86984 0.57084 0.0
C1327 C 0.59731 0.84758 0.5512 0.0
C1328 C 0.62815 0.88146 0.56908 0.0
C1329 C 0.62271 0.85962 0.54978 0.0
C1330 C 0.53165 0.89122 0.56122 0.0
C1331 C 0.50563 0.90697 0.56752 0.0
N1332 N 0.5154 0.92387 0.55806 0.0
C1333 C 0.54142 0.90874 0.55154 0.0
C1334 C 0.51361 0.89032 0.56928 0.0
C1335 C 0.53297 0.92509 0.55011 0.0
C1336 C 0.57688 0.88295 0.52784 0.0
N1337 N 0.57975 0.88503 0.54069 0.0
C1338 C 0.6161 0.92411 0.53856 0.0
C1339 C 0.59897 0.90497 0.54614 0.0
C1340 C 0.61314 0.92292 0.52526 0.0
C1341 C 0.59342 0.90173 0.51991 0.0
H1342 H 0.56112 0.86719 0.52376 0.0
H1343 H 0.60046 0.90643 0.5564 0.0
C1344 C 0.55309 0.84303 0.59805 0.0
N1345 N 0.54738 0.85682 0.59053 0.0
C1346 C 0.55526 0.8468 0.61123 0.0
C1347 C 0.5466 0.87947 0.60856 0.0
C1348 C 0.54474 0.87515 0.59547 0.0
C1349 C 0.55153 0.86495 0.61669 0.0
H1350 H 0.55525 0.82865 0.59384 0.0
H1351 H 0.54049 0.88602 0.5893 0.0
C1352 C 0.51736 0.81983 0.53211 0.0
N1353 N 0.50073 0.78523 0.51288 0.0
C1354 C 0.49285 0.80814 0.52834 0.0
C1355 C 0.53346 0.81412 0.52601 0.0
C1356 C 0.48479 0.79066 0.51862 0.0
C1357 C 0.52468 0.79651 0.51634 0.0
C1358 C 0.50055 0.80988 0.58097 0.0
C1359 C 0.50447 0.79134 0.58527 0.0
C1360 C 0.48939 0.81899 0.589 0.0
C1361 C 0.49731 0.78232 0.59762 0.0
C1362 C 0.48256 0.80954 0.6013 0.0
N1363 N 0.48663 0.79156 0.60532 0.0
C1364 C 0.53832 0.77777 0.5525 0.0
C1365 C 0.49809 0.77062 0.54981 0.0
C1366 C 0.5303 0.75323 0.54963 0.0
N1367 N 0.52214 0.78586 0.55246 0.0
C1368 C 0.48946 0.7463 0.54661 0.0
C1369 C 0.50562 0.73735 0.5465 0.0
H1370 H 0.55732 0.79029 0.55479 0.0
H1371 H 0.48559 0.77748 0.55014 0.0
C1372 C 0.47768 0.85742 0.54568 0.0
N1373 N 0.48023 0.84145 0.55324 0.0
C1374 C 0.4544 0.85392 0.54331 0.0
C1375 C 0.43697 0.81714 0.55604 0.0
C1376 C 0.46046 0.82158 0.55836 0.0
C1377 C 0.43376 0.83338 0.54843 0.0
H1378 H 0.49361 0.87267 0.54139 0.0
H1379 H 0.46287 0.80883 0.56406 0.0
O1380 O 0.56254 0.84145 0.56329 0.0
O1381 O 0.53981 0.87516 0.56284 0.0
O1382 O 0.52551 0.83669 0.54176 0.0
O1383 O 0.50799 0.8194 0.56903 0.0
H1384 H 0.59539 0.87411 0.57909 0.0
H1385 H 0.58554 0.83441 0.54414 0.0
H1386 H 0.64037 0.89471 0.57598 0.0
H1387 H 0.63069 0.85581 0.5416 0.0
H1388 H 0.4916 0.90638 0.57365 0.0
H1389 H 0.55533 0.90973 0.54518 0.0
H1390 H 0.50557 0.87667 0.5767 0.0
H1391 H 0.54037 0.93874 0.54266 0.0
H1392 H 0.6311 0.93997 0.54311 0.0
H1393 H 0.59003 0.90015 0.50975 0.0
H1394 H 0.55949 0.83541 0.61708 0.0
H1395 H 0.54327 0.89346 0.61228 0.0
H1396 H 0.48015 0.81236 0.53294 0.0
H1397 H 0.55248 0.82303 0.5288 0.0
H1398 H 0.46585 0.78137 0.51565 0.0
H1399 H 0.53689 0.79179 0.5116 0.0
H1400 H 0.51319 0.78417 0.57918 0.0
H1401 H 0.48631 0.83341 0.58581 0.0
H1402 H 0.50033 0.76805 0.60111 0.0
H1403 H 0.47408 0.81654 0.60766 0.0
H1404 H 0.54317 0.7468 0.54974 0.0
H1405 H 0.47022 0.73444 0.54449 0.0
H1406 H 0.45249 0.86665 0.53727 0.0
H1407 H 0.42142 0.8011 0.56014 0.0
Li1408 Li 0.14909 0.65838 0.56196 0.0
Li1409 Li 0.17547 0.7035 0.56088 0.0
Li1410 Li 0.14525 0.68314 0.57819 0.0
Li1411 Li 0.13189 0.68431 0.55629 0.0
C1412 C 0.18605 0.68371 0.58536 0.0
N1413 N 0.20893 0.69031 0.60861 0.0
C1414 C 0.20713 0.70596 0.58822 0.0
C1415 C 0.17669 0.66476 0.59429 0.0
C1416 C 0.21842 0.70894 0.60004 0.0
C1417 C 0.18848 0.66848 0.606 0.0
C1418 C 0.16689 0.68975 0.53559 0.0
C1419 C 0.17821 0.72061 0.51944 0.0
N1420 N 0.18894 0.71031 0.5126 0.0
C1421 C 0.17793 0.67939 0.52839 0.0
C1422 C 0.16693 0.71046 0.53109 0.0
C1423 C 0.18902 0.6901 0.51679 0.0
C1424 C 0.13381 0.61213 0.54982 0.0
N1425 N 0.1488 0.6287 0.55865 0.0
C1426 C 0.16563 0.60371 0.56392 0.0
C1427 C 0.16466 0.62497 0.56556 0.0
C1428 C 0.1502 0.58603 0.55501 0.0
C1429 C 0.13418 0.59048 0.54785 0.0
H1430 H 0.12157 0.61572 0.54433 0.0
H1431 H 0.17682 0.63866 0.57226 0.0
C1432 C 0.21611 0.75261 0.55886 0.0
N1433 N 0.2073 0.72855 0.55623 0.0
C1434 C 0.24025 0.77006 0.55568 0.0
C1435 C 0.24535 0.73758 0.54696 0.0
C1436 C 0.22136 0.72083 0.55045 0.0
C1437 C 0.25517 0.76254 0.54965 0.0
H1438 H 0.20456 0.75816 0.56364 0.0
H1439 H 0.21399 0.70151 0.54875 0.0
C1440 C 0.10248 0.6318 0.56796 0.0
N1441 N 0.0707 0.58183 0.56685 0.0
C1442 C 0.08411 0.62182 0.55872 0.0
C1443 C 0.10456 0.61638 0.5767 0.0
C1444 C 0.06825 0.5965 0.5583 0.0
C1445 C 0.08837 0.59116 0.57596 0.0
C1446 C 0.14419 0.7286 0.56863 0.0
C1447 C 0.12841 0.72684 0.57845 0.0
C1448 C 0.15169 0.74708 0.55953 0.0
C1449 C 0.12011 0.74344 0.57888 0.0
C1450 C 0.14293 0.76329 0.56027 0.0
N1451 N 0.12745 0.76115 0.56985 0.0
C1452 C 0.15464 0.70049 0.60396 0.0
C1453 C 0.11678 0.66419 0.6001 0.0
C1454 C 0.15046 0.69784 0.6171 0.0
N1455 N 0.13823 0.68327 0.59583 0.0
C1456 C 0.11184 0.66085 0.61311 0.0
C1457 C 0.12912 0.67739 0.62182 0.0
H1458 H 0.17141 0.71569 0.60028 0.0
H1459 H 0.10374 0.65113 0.59343 0.0
C1460 C 0.10405 0.67333 0.53432 0.0
N1461 N 0.10789 0.68492 0.54573 0.0
C1462 C 0.0854 0.67069 0.52631 0.0
C1463 C 0.07522 0.69247 0.54177 0.0
C1464 C 0.09392 0.69441 0.54957 0.0
C1465 C 0.07051 0.68015 0.53002 0.0
H1466 H 0.11487 0.66524 0.53166 0.0
H1467 H 0.09672 0.70286 0.55881 0.0
O1468 O 0.17474 0.68044 0.57384 0.0
O1469 O 0.15619 0.67967 0.54703 0.0
O1470 O 0.11828 0.65654 0.56848 0.0
O1471 O 0.15275 0.71272 0.56814 0.0
H1472 H 0.21465 0.72081 0.58143 0.0
H1473 H 0.16037 0.64744 0.59225 0.0
H1474 H 0.23471 0.72608 0.60239 0.0
H1475 H 0.18135 0.65403 0.61303 0.0
H1476 H 0.17842 0.73667 0.51584 0.0
H1477 H 0.17801 0.66334 0.53177 0.0
H1478 H 0.15834 0.71857 0.53652 0.0
H1479 H 0.19771 0.68234 0.51113 0.0
H1480 H 0.17877 0.60142 0.56938 0.0
H1481 H 0.12202 0.57735 0.54086 0.0
H1482 H 0.24723 0.78914 0.55797 0.0
H1483 H 0.25639 0.73093 0.54261 0.0
H1484 H 0.0821 0.63346 0.55195 0.0
H1485 H 0.11868 0.62379 0.5839 0.0
H1486 H 0.05398 0.58852 0.55119 0.0
H1487 H 0.08988 0.57901 0.58261 0.0
H1488 H 0.12248 0.71271 0.5856 0.0
H1489 H 0.16418 0.74894 0.55198 0.0
H1490 H 0.10779 0.74222 0.58638 0.0
H1491 H 0.14851 0.77763 0.55326 0.0
H1492 H 0.16427 0.71102 0.6235 0.0
H1493 H 0.09489 0.64519 0.61634 0.0
H1494 H 0.08211 0.66044 0.51755 0.0
H1495 H 0.06432 0.70016 0.54502 0.0
Li1496 Li 0.28141 0.46029 0.55541 0.0
Li1497 Li 0.32643 0.48105 0.55463 0.0
Li1498 Li 0.29986 0.43636 0.55111 0.0
Li1499 Li 0.30421 0.45372 0.57235 0.0
C1500 C 0.29238 0.46933 0.53105 0.0
N1501 N 0.2701 0.48154 0.51228 0.0
C1502 C 0.30312 0.49352 0.52686 0.0
C1503 C 0.27047 0.45131 0.52561 0.0
C1504 C 0.29153 0.49933 0.51737 0.0
C1505 C 0.25944 0.45787 0.51616 0.0
C1506 C 0.30761 0.49606 0.57855 0.0
C1507 C 0.33149 0.51942 0.59663 0.0
N1508 N 0.31124 0.51835 0.60174 0.0
C1509 C 0.28705 0.49527 0.58393 0.0
C1510 C 0.33005 0.50832 0.58489 0.0
C1511 C 0.28926 0.50665 0.59568 0.0
C1512 C 0.23169 0.4493 0.5523 0.0
N1513 N 0.25585 0.46668 0.55207 0.0
C1514 C 0.24654 0.49787 0.54759 0.0
C1515 C 0.26348 0.49055 0.5498 0.0
C1516 C 0.22141 0.4805 0.54787 0.0
C1517 C 0.21399 0.45589 0.55025 0.0
H1518 H 0.22617 0.43046 0.55424 0.0
H1519 H 0.28283 0.50397 0.54989 0.0
C1520 C 0.37472 0.5144 0.54395 0.0
N1521 N 0.35456 0.51165 0.55014 0.0
C1522 C 0.39444 0.53785 0.54134 0.0
C1523 C 0.37168 0.55495 0.5509 0.0
C1524 C 0.35269 0.53134 0.55347 0.0
C1525 C 0.39294 0.55846 0.5448 0.0
H1526 H 0.37554 0.49851 0.54101 0.0
H1527 H 0.33628 0.52874 0.55807 0.0
C1528 C 0.25923 0.40462 0.56379 0.0
N1529 N 0.23123 0.35416 0.56353 0.0
C1530 C 0.26051 0.39111 0.57393 0.0
C1531 C 0.24351 0.39252 0.55359 0.0
C1532 C 0.24624 0.36559 0.57361 0.0
C1533 C 0.22958 0.36698 0.55361 0.0
C1534 C 0.35387 0.46066 0.55994 0.0
C1535 C 0.36049 0.4501 0.55017 0.0
C1536 C 0.37198 0.47839 0.56782 0.0
C1537 C 0.38513 0.45744 0.54845 0.0
C1538 C 0.39642 0.48526 0.56579 0.0
N1539 N 0.40244 0.47472 0.55623 0.0
C1540 C 0.29886 0.41005 0.5292 0.0
C1541 C 0.29779 0.39114 0.54881 0.0
C1542 C 0.30109 0.39226 0.52247 0.0
N1543 N 0.29771 0.40938 0.54212 0.0
C1544 C 0.29947 0.37269 0.54247 0.0
C1545 C 0.30197 0.3735 0.52913 0.0
H1546 H 0.29933 0.42511 0.52415 0.0
H1547 H 0.29756 0.39144 0.5591 0.0
C1548 C 0.28871 0.44723 0.59824 0.0
N1549 N 0.30636 0.44929 0.59009 0.0
C1550 C 0.29158 0.44617 0.61137 0.0
C1551 C 0.33023 0.44844 0.60738 0.0
C1552 C 0.32655 0.44934 0.59436 0.0
C1553 C 0.31279 0.44716 0.61612 0.0
H1554 H 0.27264 0.44687 0.59454 0.0
H1555 H 0.34006 0.45053 0.58768 0.0
O1556 O 0.30318 0.46336 0.54051 0.0
O1557 O 0.30576 0.48474 0.56715 0.0
O1558 O 0.27311 0.42959 0.56391 0.0
O1559 O 0.3298 0.45349 0.56189 0.0
H1560 H 0.32011 0.50767 0.53096 0.0
H1561 H 0.26199 0.4325 0.52872 0.0
H1562 H 0.29955 0.51799 0.51408 0.0
H1563 H 0.24238 0.44414 0.51192 0.0
H1564 H 0.34871 0.52886 0.60168 0.0
H1565 H 0.26955 0.48582 0.57913 0.0
H1566 H 0.34613 0.50912 0.58082 0.0
H1567 H 0.27349 0.50612 0.6 0.0
H1568 H 0.25307 0.51711 0.54608 0.0
H1569 H 0.19478 0.44198 0.55057 0.0
H1570 H 0.41044 0.53985 0.53647 0.0
H1571 H 0.36984 0.57034 0.5538 0.0
H1572 H 0.27253 0.40021 0.58191 0.0
H1573 H 0.24222 0.40273 0.54571 0.0
H1574 H 0.24714 0.35488 0.58135 0.0
H1575 H 0.21745 0.35735 0.54575 0.0
H1576 H 0.34683 0.43641 0.54395 0.0
H1577 H 0.36725 0.48689 0.57538 0.0
H1578 H 0.3905 0.44941 0.54093 0.0
H1579 H 0.41061 0.49899 0.57179 0.0
H1580 H 0.30347 0.39407 0.51224 0.0
H1581 H 0.29968 0.35846 0.54802 0.0
H1582 H 0.27743 0.44474 0.61773 0.0
H1583 H 0.34697 0.44951 0.61055 0.0
H1584 H 0.39912 0.37165 0.17551 0.0
H1585 H 0.34949 0.31458 0.20106 0.0
H1586 H 0.36496 0.36228 0.16127 0.0
H1587 H 0.31563 0.30478 0.18677 0.0
H1588 H 0.25546 0.29789 0.16259 0.0
H1589 H 0.28966 0.3185 0.1774 0.0
H1590 H 0.33994 0.32751 0.14714 0.0
H1591 H 0.30584 0.30709 0.13237 0.0
C1592 C 0.38086 0.3574 0.17817 0.0
C1593 C 0.37696 0.34366 0.18931 0.0
C1594 C 0.36136 0.35192 0.16999 0.0
C1595 C 0.33762 0.33272 0.17286 0.0
C1596 C 0.33362 0.31985 0.18433 0.0
C1597 C 0.35306 0.32526 0.19245 0.0
C1598 C 0.27387 0.30457 0.15909 0.0
C1599 C 0.27795 0.30061 0.14636 0.0
C1600 C 0.29343 0.31637 0.16755 0.0
C1601 C 0.31746 0.32438 0.16348 0.0
C1602 C 0.32168 0.32179 0.15056 0.0
C1603 C 0.30212 0.31005 0.14208 0.0
H1604 H 0.68933 0.00526 0.13073 0.0
H1605 H 0.69824 0.96321 0.16029 0.0
H1606 H 0.66508 0.01459 0.14518 0.0
H1607 H 0.67397 0.97266 0.1748 0.0
H1608 H 0.67068 0.03296 0.19916 0.0
H1609 H 0.68387 0.0114 0.18514 0.0
H1610 H 0.62761 -0.00043 0.15816 0.0
H1611 H 0.61404 0.02101 0.17236 0.0
C1612 C 0.68556 0.99745 0.14021 0.0
C1613 C 0.69596 0.98374 0.14442 0.0
C1614 C 0.67162 0.00278 0.1485 0.0
C1615 C 0.66779 0.99454 0.16117 0.0
C1616 C 0.67694 0.97959 0.16515 0.0
C1617 C 0.69087 0.97423 0.15685 0.0
C1618 C 0.66054 0.02512 0.19044 0.0
C1619 C 0.64137 0.02889 0.18686 0.0
C1620 C 0.66816 0.01274 0.18238 0.0
C1621 C 0.65688 0.00391 0.1705 0.0
C1622 C 0.63686 0.00649 0.16719 0.0
C1623 C 0.62914 0.01879 0.1753 0.0
H1624 H 0.96278 0.60247 0.1771 0.0
H1625 H 0.94842 0.64585 0.20372 0.0
H1626 H 0.98535 0.63825 0.16351 0.0
H1627 H 0.96924 0.6809 0.1898 0.0
H1628 H 0.01716 0.74563 0.16663 0.0
H1629 H 0.00604 0.71152 0.18109 0.0
H1630 H 0.97588 0.66108 0.14938 0.0
H1631 H 0.98819 0.69541 0.13494 0.0
C1632 C 0.9646 0.61966 0.18012 0.0
C1633 C 0.9535 0.6212 0.19143 0.0
C1634 C 0.97729 0.64011 0.17225 0.0
C1635 C 0.97898 0.66247 0.17547 0.0
C1636 C 0.96865 0.66415 0.18703 0.0
C1637 C 0.95627 0.64386 0.19494 0.0
C1638 C 0.00855 0.72723 0.16279 0.0
C1639 C 0.00334 0.72302 0.14974 0.0
C1640 C 0.00203 0.70767 0.17105 0.0
C1641 C 0.98967 0.68345 0.16646 0.0
C1642 C 0.98559 0.67944 0.15326 0.0
C1643 C 0.99252 0.69907 0.14497 0.0
H1644 H 0.31556 0.35556 0.79486 0.0
H1645 H 0.35898 0.40345 0.82551 0.0
H1646 H 0.30111 0.32037 0.80889 0.0
H1647 H 0.34438 0.36807 0.83964 0.0
H1648 H 0.32349 0.29328 0.85819 0.0
H1649 H 0.34332 0.32845 0.84376 0.0
H1650 H 0.27305 0.30744 0.82724 0.0
H1651 H 0.25338 0.27271 0.84156 0.0
C1652 C 0.32212 0.35851 0.80459 0.0
C1653 C 0.33809 0.38224 0.80916 0.0
C1654 C 0.31384 0.33839 0.81262 0.0
C1655 C 0.3213 0.34153 0.82542 0.0
C1656 C 0.33839 0.36511 0.82981 0.0
C1657 C 0.34673 0.38533 0.82174 0.0
C1658 C 0.31234 0.29629 0.85149 0.0
C1659 C 0.28692 0.28005 0.85089 0.0
C1660 C 0.32368 0.31637 0.84324 0.0
C1661 C 0.30977 0.32047 0.83426 0.0
C1662 C 0.28435 0.3044 0.83383 0.0
C1663 C 0.27308 0.28448 0.84204 0.0
H1664 H 0.69416 0.97592 0.86418 0.0
H1665 H 0.74109 0.0367 0.83976 0.0
H1666 H 0.65968 0.96545 0.85029 0.0
H1667 H 0.70636 0.02633 0.82582 0.0
H1668 H 0.64927 0.97396 0.79593 0.0
H1669 H 0.68297 0.99362 0.81095 0.0
H1670 H 0.6314 0.97646 0.84178 0.0
H1671 H 0.5976 0.95575 0.82678 0.0
C1672 C 0.69698 0.98744 0.85601 0.0
C1673 C 0.72039 0.00706 0.85303 0.0
C1674 C 0.67716 0.98147 0.84803 0.0
C1675 C 0.68025 0.99501 0.8369 0.0
C1676 C 0.70345 0.01531 0.83422 0.0
C1677 C 0.72333 0.02125 0.84219 0.0
C1678 C 0.64514 0.97456 0.8059 0.0
C1679 C 0.62077 0.96297 0.81019 0.0
C1680 C 0.66447 0.98611 0.81451 0.0
C1681 C 0.65989 0.98641 0.8276 0.0
C1682 C 0.63553 0.9762 0.83178 0.0
C1683 C 0.61617 0.96458 0.82316 0.0
H1684 H 0.0427 0.67799 0.80086 0.0
H1685 H 0.0297 0.62139 0.8279 0.0
H1686 H 0.02052 0.69114 0.81442 0.0
H1687 H 0.00745 0.63479 0.84162 0.0
H1688 H 0.00968 0.6952 0.86868 0.0
H1689 H 0.02054 0.6715 0.85468 0.0
H1690 H 0.98138 0.68115 0.8238 0.0
H1691 H 0.9706 0.70503 0.83784 0.0
C1692 C 0.03453 0.66789 0.80955 0.0
C1693 C 0.03806 0.64867 0.81331 0.0
C1694 C 0.02177 0.67546 0.81734 0.0
C1695 C 0.01227 0.66405 0.82912 0.0
C1696 C 0.01484 0.64412 0.83266 0.0
C1697 C 0.0276 0.63649 0.82482 0.0
C1698 C 0.00286 0.69174 0.859 0.0
C1699 C 0.98956 0.70223 0.85431 0.0
C1700 C 0.00904 0.6781 0.85097 0.0
C1701 C 0.00202 0.67466 0.8381 0.0
C1702 C 0.98742 0.68387 0.83362 0.0
C1703 C 0.98128 0.69755 0.84164 0.0
H1704 H 0.96426 0.64767 0.46928 0.0
H1705 H 0.92552 0.5998 0.50087 0.0
H1706 H -0.00013 0.67093 0.48278 0.0
H1707 H 0.96166 0.62184 0.51406 0.0
H1708 H 0.02511 0.67003 0.5381 0.0
H1709 H 0.9889 0.65752 0.52522 0.0
H1710 H 0.03073 0.66501 0.49118 0.0
H1711 H 0.06731 0.67937 0.50396 0.0
C1712 C 0.96319 0.64224 0.47914 0.0
C1713 C 0.94205 0.62165 0.48394 0.0
C1714 C 0.98379 0.6554 0.48684 0.0
C1715 C 0.98384 0.64814 0.49948 0.0
C1716 C 0.96231 0.62819 0.50442 0.0
C1717 C 0.94165 0.61524 0.49678 0.0
C1718 C 0.0268 0.66976 0.52784 0.0
C1719 C 0.04915 0.67543 0.5221 0.0
C1720 C 0.00589 0.6622 0.52045 0.0
C1721 C 0.0067 0.65981 0.50716 0.0
C1722 C 0.02934 0.66674 0.50137 0.0
C1723 C 0.05031 0.67462 0.50874 0.0
H1724 H 0.33007 0.35505 0.53779 0.0
H1725 H 0.28844 0.35402 0.50499 0.0
H1726 H 0.34486 0.33239 0.52591 0.0
H1727 H 0.30499 0.33303 0.49276 0.0
H1728 H 0.33144 0.28587 0.47454 0.0
H1729 H 0.3084 0.29775 0.48866 0.0
H1730 H 0.37462 0.3444 0.50976 0.0
H1731 H 0.39719 0.33216 0.49595 0.0
C1732 C 0.32367 0.34968 0.52811 0.0
C1733 C 0.30821 0.35671 0.52234 0.0
C1734 C 0.33254 0.33698 0.52121 0.0
C1735 C 0.3266 0.33137 0.50828 0.0
C1736 C 0.30996 0.33703 0.5027 0.0
C1737 C 0.30076 0.34943 0.50968 0.0
C1738 C 0.3409 0.29846 0.4823 0.0
C1739 C 0.36607 0.30799 0.48419 0.0
C1740 C 0.32776 0.30531 0.49036 0.0
C1741 C 0.3396 0.32198 0.50039 0.0
C1742 C 0.36469 0.33107 0.50237 0.0
C1743 C 0.37771 0.32409 0.49441 0.0
H1744 H 0.64728 0.01884 0.4627 0.0
H1745 H 0.7018 0.06693 0.48988 0.0
H1746 H 0.63635 0.98416 0.47656 0.0
H1747 H 0.69039 0.03207 0.50389 0.0
H1748 H 0.63137 0.97131 0.53079 0.0
H1749 H 0.65237 0.00603 0.51652 0.0
H1750 H 0.65086 0.95821 0.4867 0.0
H1751 H 0.63025 0.92331 0.5011 0.0
C1752 C 0.65737 0.02198 0.47148 0.0
C1753 C 0.67534 0.04575 0.4752 0.0
C1754 C 0.65106 0.00204 0.47944 0.0
C1755 C 0.66244 0.00542 0.49133 0.0
C1756 C 0.68111 0.02899 0.49484 0.0
C1757 C 0.68757 0.04894 0.48683 0.0
C1758 C 0.63613 0.96819 0.52133 0.0
C1759 C 0.62892 0.94441 0.51708 0.0
C1760 C 0.64816 0.98816 0.51313 0.0
C1761 C 0.65312 0.98481 0.50047 0.0
C1762 C 0.64697 0.96126 0.49637 0.0
C1763 C 0.6351 0.94129 0.50461 0.0
H1764 H 0.04293 0.2016 0.09498 0.0
H1765 H 0.0456 0.16644 0.12965 0.0
H1766 H 0.99828 0.17859 0.09593 0.0
H1767 H 0.00115 0.14411 0.13072 0.0
H1768 H 0.91896 0.11222 0.1315 0.0
H1769 H 0.96178 0.14585 0.13229 0.0
H1770 H 0.97083 0.13284 0.09275 0.0
H1771 H 0.92843 0.09933 0.09208 0.0
C1772 C 0.03406 0.1893 0.10291 0.0
C1773 C 0.04791 0.1856 0.11212 0.0
C1774 C 0.00851 0.17625 0.10347 0.0
C1775 C 0.99628 0.15944 0.11334 0.0
C1776 C 0.01009 0.15713 0.12307 0.0
C1777 C 0.03563 0.17 0.12245 0.0
C1778 C 0.93009 0.11701 0.12296 0.0
C1779 C 0.92065 0.10327 0.11175 0.0
C1780 C 0.9545 0.13611 0.12341 0.0
C1781 C 0.96959 0.14195 0.11258 0.0
C1782 C 0.95959 0.12898 0.1012 0.0
C1783 C 0.93541 0.10972 0.10082 0.0
H1784 H 0.85309 0.90768 0.13405 0.0
H1785 H 0.80345 0.86113 0.10473 0.0
H1786 H 0.87229 0.88304 0.13436 0.0
H1787 H 0.82156 0.83529 0.10565 0.0
H1788 H 0.88788 0.82688 0.09496 0.0
H1789 H 0.85844 0.84004 0.09798 0.0
H1790 H 0.87293 0.84722 0.13847 0.0
H1791 H 0.90392 0.83596 0.13528 0.0
C1792 C 0.84594 0.89185 0.12784 0.0
C1793 C 0.82716 0.88677 0.11913 0.0
C1794 C 0.85672 0.87741 0.12815 0.0
C1795 C 0.84877 0.85729 0.11988 0.0
C1796 C 0.82855 0.85097 0.11195 0.0
C1797 C 0.81793 0.86562 0.11154 0.0
C1798 C 0.88483 0.83127 0.10452 0.0
C1799 C 0.89883 0.831 0.11481 0.0
C1800 C 0.86754 0.83842 0.1063 0.0
C1801 C 0.86348 0.84511 0.11846 0.0
C1802 C 0.87598 0.84279 0.12892 0.0
C1803 C 0.89357 0.83598 0.12711 0.0
H1804 H 0.17882 0.08231 0.09646 0.0
H1805 H 0.14908 0.0836 0.13339 0.0
H1806 H 0.16477 0.0391 0.09918 0.0
H1807 H 0.13645 0.04081 0.13645 0.0
H1808 H 0.08169 0.96041 0.12666 0.0
H1809 H 0.10368 0.00464 0.12726 0.0
H1810 H 0.16652 0.00654 0.1099 0.0
H1811 H 0.14414 0.96174 0.10921 0.0
C1812 C 0.16964 0.07349 0.10526 0.0
C1813 C 0.16458 0.08634 0.11457 0.0
C1814 C 0.1619 0.04876 0.1069 0.0
C1815 C 0.1491 0.03634 0.11795 0.0
C1816 C 0.14577 0.04969 0.12769 0.0
C1817 C 0.15331 0.07435 0.126 0.0
C1818 C 0.1004 0.97016 0.12324 0.0
C1819 C 0.11119 0.9575 0.11794 0.0
C1820 C 0.11308 0.99563 0.1236 0.0
C1821 C 0.13696 0.00923 0.1187 0.0
C1822 C 0.14806 0.99661 0.11366 0.0
C1823 C 0.13527 0.97099 0.11325 0.0
H1824 H 0.11194 0.92463 0.90415 0.0
H1825 H 0.09258 0.92185 0.8645 0.0
H1826 H 0.14452 0.96668 0.90159 0.0
H1827 H 0.12649 0.96354 0.86166 0.0
H1828 H 0.15771 0.04645 0.86845 0.0
H1829 H 0.13311 0.0022 0.86732 0.0
H1830 H 0.18246 0.99649 0.89351 0.0
H1831 H 0.20655 0.04108 0.89499 0.0
C1832 C 0.11488 0.93289 0.89482 0.0
C1833 C 0.09921 0.92003 0.88462 0.0
C1834 C 0.13393 0.95697 0.89327 0.0
C1835 C 0.13807 0.96877 0.88143 0.0
C1836 C 0.12352 0.95527 0.87099 0.0
C1837 C 0.10424 0.93121 0.87258 0.0
C1838 C 0.16366 0.03574 0.87371 0.0
C1839 C 0.18393 0.04718 0.88188 0.0
C1840 C 0.14956 0.01027 0.87304 0.0
C1841 C 0.15556 0.9956 0.88043 0.0
C1842 C 0.17692 0.00715 0.88792 0.0
C1843 C 0.19083 0.03268 0.88873 0.0
H1844 H 0.08416 0.15003 0.86363 0.0
H1845 H 0.0757 0.16453 0.90302 0.0
H1846 H 0.04184 0.13834 0.85953 0.0
H1847 H 0.03307 0.15137 0.89913 0.0
H1848 H 0.95791 0.13282 0.88987 0.0
H1849 H 0.00251 0.157 0.88944 0.0
H1850 H 0.00404 0.1031 0.86473 0.0
H1851 H 0.95966 0.07981 0.86461 0.0
C1852 C 0.07342 0.1511 0.87138 0.0
C1853 C 0.08325 0.15784 0.88371 0.0
C1854 C 0.04904 0.14411 0.86906 0.0
C1855 C 0.03387 0.14353 0.87903 0.0
C1856 C 0.04416 0.15172 0.89118 0.0
C1857 C 0.06856 0.15889 0.89347 0.0
C1858 C 0.96778 0.12656 0.88403 0.0
C1859 C 0.95527 0.10418 0.87745 0.0
C1860 C 0.99337 0.14027 0.8839 0.0
C1861 C 0.00695 0.13182 0.87724 0.0
C1862 C 0.9943 0.11032 0.86992 0.0
C1863 C 0.96879 0.09674 0.86999 0.0
H1864 H 0.85163 0.79616 0.8989 0.0
H1865 H 0.89896 0.84349 0.86911 0.0
H1866 H 0.82728 0.816 0.89768 0.0
H1867 H 0.87506 0.86353 0.86802 0.0
H1868 H 0.82655 0.89431 0.8654 0.0
H1869 H 0.83779 0.8629 0.86339 0.0
H1870 H 0.83508 0.85532 0.90438 0.0
H1871 H 0.82281 0.88574 0.9063 0.0
C1872 C 0.85664 0.8106 0.89199 0.0
C1873 C 0.87733 0.8184 0.88418 0.0
C1874 C 0.84273 0.82199 0.8913 0.0
C1875 C 0.84933 0.84155 0.88285 0.0
C1876 C 0.86918 0.84832 0.87452 0.0
C1877 C 0.88297 0.83685 0.87516 0.0
C1878 C 0.82764 0.88538 0.87394 0.0
C1879 C 0.82418 0.89277 0.88602 0.0
C1880 C 0.83433 0.86756 0.8728 0.0
C1881 C 0.83771 0.85682 0.88373 0.0
C1882 C 0.83252 0.86303 0.89574 0.0
C1883 C 0.82578 0.88073 0.89686 0.0
H1884 H 0.70888 0.48671 0.47383 0.0
H1885 H 0.70284 0.51038 0.43618 0.0
H1886 H 0.66435 0.4629 0.4755 0.0
H1887 H 0.65828 0.48676 0.43793 0.0
H1888 H 0.59489 0.39233 0.4598 0.0
H1889 H 0.63737 0.4247 0.46262 0.0
H1890 H 0.61917 0.47824 0.44997 0.0
H1891 H 0.57625 0.44551 0.4473 0.0
C1892 C 0.69803 0.48722 0.46602 0.0
C1893 C 0.70933 0.50001 0.45477 0.0
C1894 C 0.67258 0.47366 0.467 0.0
C1895 C 0.65792 0.47272 0.45677 0.0
C1896 C 0.66916 0.48726 0.44598 0.0
C1897 C 0.69468 0.50079 0.44498 0.0
C1898 C 0.59994 0.41109 0.45785 0.0
C1899 C 0.58252 0.41657 0.45333 0.0
C1900 C 0.62416 0.42963 0.45954 0.0
C1901 C 0.63153 0.454 0.45656 0.0
C1902 C 0.61393 0.4596 0.45234 0.0
C1903 C 0.58948 0.441 0.45086 0.0
H1904 H 0.51871 0.23084 0.46369 0.0
H1905 H 0.46504 0.17923 0.43733 0.0
H1906 H 0.53775 0.20598 0.46484 0.0
H1907 H 0.48361 0.1537 0.43882 0.0
H1908 H 0.55183 0.14735 0.42748 0.0
H1909 H 0.52169 0.15984 0.43027 0.0
H1910 H 0.53656 0.16869 0.47069 0.0
H1911 H 0.56754 0.15706 0.46778 0.0
C1912 C 0.5107 0.21388 0.45833 0.0
C1913 C 0.49071 0.20722 0.45022 0.0
C1914 C 0.52142 0.19943 0.45912 0.0
C1915 C 0.51236 0.17792 0.45182 0.0
C1916 C 0.49124 0.17034 0.44442 0.0
C1917 C 0.48048 0.18485 0.44364 0.0
C1918 C 0.54843 0.15164 0.43699 0.0
C1919 C 0.5624 0.15172 0.44736 0.0
C1920 C 0.5309 0.15852 0.43863 0.0
C1921 C 0.5269 0.16557 0.45069 0.0
C1922 C 0.5395 0.16374 0.46124 0.0
C1923 C 0.55709 0.15687 0.4596 0.0
H1924 H 0.80861 0.3975 0.42547 0.0
H1925 H 0.84444 0.41153 0.46196 0.0
H1926 H 0.79811 0.35476 0.42655 0.0
H1927 H 0.83349 0.36842 0.46321 0.0
H1928 H 0.76659 0.28471 0.46554 0.0
H1929 H 0.7899 0.32946 0.46504 0.0
H1930 H 0.81745 0.32726 0.42769 0.0
H1931 H 0.79428 0.28244 0.42825 0.0
C1932 C 0.81454 0.39141 0.43362 0.0
C1933 C 0.82724 0.40759 0.44364 0.0
C1934 C 0.8087 0.36707 0.43421 0.0
C1935 C 0.81506 0.35835 0.44495 0.0
C1936 C 0.82843 0.37475 0.45483 0.0
C1937 C 0.83471 0.3993 0.45411 0.0
C1938 C 0.77816 0.29385 0.45739 0.0
C1939 C 0.77859 0.28023 0.44691 0.0
C1940 C 0.79158 0.3194 0.45713 0.0
C1941 C 0.80533 0.33175 0.44629 0.0
C1942 C 0.8069 0.31812 0.43613 0.0
C1943 C 0.79379 0.29255 0.43648 0.0
H1944 H 0.73577 0.26713 0.19807 0.0
H1945 H 0.77795 0.24943 0.22342 0.0
H1946 H 0.76847 0.30999 0.19809 0.0
H1947 H 0.81075 0.29247 0.22351 0.0
H1948 H 0.83722 0.3835 0.19497 0.0
H1949 H 0.81321 0.33916 0.19216 0.0
H1950 H 0.81058 0.32963 0.23294 0.0
H1951 H 0.83372 0.37374 0.23585 0.0
C1952 C 0.75226 0.27241 0.20347 0.0
C1953 C 0.75435 0.25509 0.21079 0.0
C1954 C 0.77103 0.29686 0.20341 0.0
C1955 C 0.79211 0.30453 0.21082 0.0
C1956 C 0.79464 0.28702 0.21774 0.0
C1957 C 0.77599 0.26245 0.21764 0.0
C1958 C 0.83167 0.37197 0.20335 0.0
C1959 C 0.83717 0.3823 0.21565 0.0
C1960 C 0.81804 0.34659 0.20171 0.0
C1961 C 0.80994 0.33101 0.21233 0.0
C1962 C 0.81682 0.3412 0.22457 0.0
C1963 C 0.83017 0.36656 0.22622 0.0
H1964 H 0.73872 0.48889 0.2013 0.0
H1965 H 0.73636 0.50137 0.24162 0.0
H1966 H 0.6958 0.47727 0.19943 0.0
H1967 H 0.69344 0.4894 0.23983 0.0
H1968 H 0.61927 0.47959 0.23208 0.0
H1969 H 0.66384 0.49895 0.2316 0.0
H1970 H 0.6575 0.44276 0.2058 0.0
H1971 H 0.61329 0.42372 0.20619 0.0
C1972 C 0.72902 0.4892 0.20975 0.0
C1973 C 0.74085 0.4959 0.22162 0.0
C1974 C 0.70445 0.48253 0.20869 0.0
C1975 C 0.6911 0.48225 0.21949 0.0
C1976 C 0.70321 0.48976 0.23128 0.0
C1977 C 0.72782 0.49657 0.23232 0.0
C1978 C 0.62748 0.47158 0.22621 0.0
C1979 C 0.61274 0.45014 0.21917 0.0
C1980 C 0.65298 0.48261 0.22596 0.0
C1981 C 0.66427 0.47237 0.2187 0.0
C1982 C 0.64951 0.45143 0.21132 0.0
C1983 C 0.62409 0.44048 0.21154 0.0
H1984 H 0.52493 0.26328 0.19936 0.0
H1985 H 0.469 0.21935 0.22694 0.0
H1986 H 0.53655 0.23246 0.19802 0.0
H1987 H 0.4794 0.18745 0.22487 0.0
H1988 H 0.53273 0.15903 0.23313 0.0
H1989 H 0.51113 0.18158 0.23185 0.0
H1990 H 0.52847 0.19395 0.19166 0.0
H1991 H 0.55125 0.17255 0.19327 0.0
C1992 C 0.51486 0.24686 0.20502 0.0
C1993 C 0.49638 0.24409 0.21346 0.0
C1994 C 0.52124 0.22887 0.20408 0.0
C1995 C 0.50905 0.20738 0.21141 0.0
C1996 C 0.48952 0.20393 0.21926 0.0
C1997 C 0.48332 0.22212 0.22032 0.0
C1998 C 0.53138 0.16614 0.22399 0.0
C1999 C 0.54373 0.16432 0.21333 0.0
C2000 C 0.51892 0.17901 0.22321 0.0
C2001 C 0.51832 0.19 0.21168 0.0
C2002 C 0.52911 0.18636 0.20078 0.0
C2003 C 0.54195 0.17392 0.20164 0.0
H2004 H 0.25617 0.77643 0.76588 0.0
H2005 H 0.26483 0.74986 0.80211 0.0
H2006 H 0.29897 0.80906 0.76641 0.0
H2007 H 0.30791 0.78207 0.80254 0.0
H2008 H 0.37966 0.83014 0.7618 0.0
H2009 H 0.33547 0.80733 0.76326 0.0
H2010 H 0.33973 0.82508 0.80332 0.0
H2011 H 0.38443 0.84817 0.80184 0.0
C2012 C 0.26722 0.77784 0.77404 0.0
C2013 C 0.25737 0.76051 0.78388 0.0
C2014 C 0.29173 0.79643 0.77433 0.0
C2015 C 0.30701 0.7979 0.78439 0.0
C2016 C 0.29665 0.78157 0.79468 0.0
C2017 C 0.272 0.76308 0.79444 0.0
C2018 C 0.37128 0.82983 0.77086 0.0
C2019 C 0.38566 0.84106 0.7817 0.0
C2020 C 0.34582 0.81668 0.77171 0.0
C2021 C 0.33398 0.81438 0.78341 0.0
C2022 C 0.34829 0.82629 0.79419 0.0
C2023 C 0.37387 0.83951 0.79334 0.0
H2024 H 0.23643 0.49811 0.75848 0.0
H2025 H 0.2423 0.4907 0.799 0.0
H2026 H 0.20439 0.50771 0.76221 0.0
H2027 H 0.2095 0.49952 0.80275 0.0
H2028 H 0.18974 0.5618 0.80167 0.0
H2029 H 0.20995 0.53793 0.80088 0.0
H2030 H 0.16341 0.49556 0.76958 0.0
H2031 H 0.14367 0.52008 0.77015 0.0
C2032 C 0.23053 0.4981 0.76818 0.0
C2033 C 0.2422 0.49414 0.77846 0.0
C2034 C 0.2119 0.50327 0.77032 0.0
C2035 C 0.20449 0.50457 0.7828 0.0
C2036 C 0.21501 0.49893 0.79304 0.0
C2037 C 0.23367 0.49372 0.79089 0.0
C2038 C 0.18353 0.54707 0.79479 0.0
C2039 C 0.16547 0.54308 0.78582 0.0
C2040 C 0.19493 0.53319 0.79441 0.0
C2041 C 0.18852 0.51504 0.78504 0.0
C2042 C 0.169 0.50968 0.77678 0.0
C2043 C 0.15754 0.52356 0.77717 0.0
H2044 H 0.528 0.75059 0.76562 0.0
H2045 H 0.47996 0.73459 0.79797 0.0
H2046 H 0.51869 0.70816 0.76537 0.0
H2047 H 0.47041 0.69217 0.79762 0.0
H2048 H 0.45966 0.6251 0.75803 0.0
H2049 H 0.48014 0.66939 0.75975 0.0
H2050 H 0.48764 0.66459 0.80035 0.0
H2051 H 0.46757 0.6201 0.79862 0.0
C2052 C 0.51583 0.73812 0.77282 0.0
C2053 C 0.50456 0.74582 0.78176 0.0
C2054 C 0.51038 0.71383 0.77262 0.0
C2055 C 0.49377 0.69685 0.78144 0.0
C2056 C 0.48346 0.70488 0.79077 0.0
C2057 C 0.48873 0.72909 0.7909 0.0
C2058 C 0.46637 0.63344 0.76727 0.0
C2059 C 0.46173 0.61896 0.77821 0.0
C2060 C 0.47807 0.65889 0.76826 0.0
C2061 C 0.48526 0.67042 0.78021 0.0
C2062 C 0.48195 0.65612 0.79104 0.0
C2063 C 0.47041 0.63067 0.79005 0.0
H2064 H 0.50805 0.70341 0.56128 0.0
H2065 H 0.48085 0.7125 0.52537 0.0
H2066 H 0.48416 0.65895 0.55864 0.0
H2067 H 0.45765 0.6682 0.52242 0.0
H2068 H 0.38941 0.59568 0.53445 0.0
H2069 H 0.42107 0.63843 0.53286 0.0
H2070 H 0.47423 0.62124 0.54744 0.0
H2071 H 0.44198 0.57816 0.54936 0.0
C2072 C 0.4976 0.69584 0.55262 0.0
C2073 C 0.49598 0.71121 0.5436 0.0
C2074 C 0.48395 0.6704 0.55107 0.0
C2075 C 0.46862 0.65998 0.54041 0.0
C2076 C 0.46878 0.67559 0.53088 0.0
C2077 C 0.48215 0.70093 0.53252 0.0
C2078 C 0.4079 0.60099 0.5372 0.0
C2079 C 0.41318 0.58367 0.54216 0.0
C2080 C 0.42617 0.62548 0.53616 0.0
C2081 C 0.45026 0.63334 0.54003 0.0
C2082 C 0.45582 0.61581 0.54447 0.0
C2083 C 0.43744 0.59115 0.54548 0.0
H2084 H 0.289 0.7979 0.56537 0.0
H2085 H 0.28053 0.7662 0.52791 0.0
H2086 H 0.3334 0.82023 0.56265 0.0
H2087 H 0.32489 0.78858 0.52516 0.0
H2088 H 0.39687 0.79188 0.5382 0.0
H2089 H 0.35406 0.78016 0.53627 0.0
H2090 H 0.3711 0.85097 0.55073 0.0
H2091 H 0.41433 0.86267 0.55266 0.0
C2092 C 0.2966 0.79633 0.5564 0.0
C2093 C 0.28137 0.77999 0.54694 0.0
C2094 C 0.32203 0.80914 0.55483 0.0
C2095 C 0.33262 0.80584 0.54377 0.0
C2096 C 0.31724 0.79112 0.53389 0.0
C2097 C 0.29188 0.77831 0.53546 0.0
C2098 C 0.39151 0.80506 0.54075 0.0
C2099 C 0.40873 0.82807 0.54564 0.0
C2100 C 0.36705 0.79847 0.53956 0.0
C2101 C 0.35921 0.81467 0.54334 0.0
C2102 C 0.37664 0.83811 0.54778 0.0
C2103 C 0.4013 0.84484 0.54882 0.0
H2104 H 0.22202 0.51285 0.53061 0.0
H2105 H 0.18041 0.46704 0.56224 0.0
H2106 H 0.19794 0.53282 0.53124 0.0
H2107 H 0.15553 0.48638 0.56257 0.0
H2108 H 0.15457 0.55758 0.57302 0.0
H2109 H 0.16545 0.5264 0.56967 0.0
H2110 H 0.15997 0.53225 0.52894 0.0
H2111 H 0.15013 0.5644 0.53233 0.0
C2112 C 0.20732 0.50668 0.53752 0.0
C2113 C 0.20341 0.48872 0.54653 0.0
C2114 C 0.19329 0.51792 0.53779 0.0
C2115 C 0.17496 0.51142 0.54707 0.0
C2116 C 0.16978 0.49209 0.55544 0.0
C2117 C 0.18387 0.48084 0.55517 0.0
C2118 C 0.15546 0.55205 0.56335 0.0
C2119 C 0.15201 0.56383 0.55294 0.0
C2120 C 0.16137 0.53389 0.56142 0.0
C2121 C 0.16385 0.52696 0.54902 0.0
C2122 C 0.15859 0.53745 0.53861 0.0
C2123 C 0.15272 0.55571 0.54055 0.0
H2124 H 0.24942 0.25452 0.0317 0.0
H2125 H 0.17276 0.20062 0.02714 0.0
H2126 H 0.25697 0.24792 0.00965 0.0
H2127 H 0.18005 0.19509 0.00499 0.0
H2128 H 0.20366 0.16948 0.97081 0.0
H2129 H 0.19883 0.1769 0.99305 0.0
H2130 H 0.24986 0.25412 0.98785 0.0
H2131 H 0.25578 0.24649 0.96571 0.0
C2132 C 0.23414 0.24142 0.02598 0.0
C2133 C 0.21049 0.22807 0.03123 0.0
C2134 C 0.23844 0.23781 0.01329 0.0
C2135 C 0.21916 0.2208 0.00557 0.0
C2136 C 0.19542 0.20798 0.01073 0.0
C2137 C 0.19115 0.21149 0.0234 0.0
C2138 C 0.21431 0.18798 0.97445 0.0
C2139 C 0.23012 0.20738 0.96643 0.0
C2140 C 0.21121 0.1923 0.98718 0.0
C2141 C 0.22368 0.21617 0.99221 0.0
C2142 C 0.24003 0.2355 0.98431 0.0
C2143 C 0.24324 0.23115 0.97158 0.0
H2144 H 0.76669 0.01508 0.96509 0.0
H2145 H 0.83423 0.01439 0.96672 0.0
H2146 H 0.76224 0.00986 0.98819 0.0
H2147 H 0.82928 0.00764 0.98961 0.0
H2148 H 0.8265 0.01607 0.03185 0.0
H2149 H 0.83124 0.02507 0.00915 0.0
H2150 H 0.75261 0.98183 0.00457 0.0
H2151 H 0.74811 0.97431 0.02752 0.0
C2152 C 0.78052 0.01374 0.97045 0.0
C2153 C 0.80091 0.01537 0.96424 0.0
C2154 C 0.77791 0.01051 0.98366 0.0
C2155 C 0.79538 0.00829 0.99087 0.0
C2156 C 0.81573 0.00986 0.98451 0.0
C2157 C 0.81857 0.01361 0.97138 0.0
C2158 C 0.8103 0.00861 0.02593 0.0
C2159 C 0.78697 0.99443 0.03133 0.0
C2160 C 0.81296 0.01359 0.0129 0.0
C2161 C 0.79234 0.004 0.0049 0.0
C2162 C 0.76892 0.98988 0.0104 0.0
C2163 C 0.76627 0.98536 0.02352 0.0
H2164 H 0.02961 0.80918 0.96635 0.0
H2165 H 0.95642 0.74833 0.97211 0.0
H2166 H 0.03631 0.81286 0.98926 0.0
H2167 H 0.96333 0.75115 0.99508 0.0
H2168 H 0.973 0.78227 0.03528 0.0
H2169 H 0.96677 0.77599 0.01242 0.0
H2170 H 0.04246 0.79595 0.0077 0.0
H2171 H 0.04878 0.80325 0.03062 0.0
C2172 C 0.01512 0.79628 0.97255 0.0
C2173 C 0.9925 0.77848 0.96749 0.0
C2174 C 0.01897 0.79829 0.9857 0.0
C2175 C 0.00037 0.78232 0.9941 0.0
C2176 C 0.97792 0.76409 0.98895 0.0
C2177 C 0.97396 0.76234 0.9758 0.0
C2178 C 0.98823 0.78511 0.02934 0.0
C2179 C 0.01136 0.79321 0.03469 0.0
C2180 C 0.98465 0.78139 0.01623 0.0
C2181 C 0.00407 0.78537 0.00814 0.0
C2182 C 0.02717 0.79309 0.01357 0.0
C2183 C 0.03082 0.79717 0.0267 0.0
H2184 H 0.88471 0.50651 0.31021 0.0
H2185 H 0.8926 0.57581 0.29956 0.0
H2186 H 0.88352 0.51618 0.33272 0.0
H2187 H 0.89115 0.5854 0.32208 0.0
H2188 H 0.84754 0.56804 0.36138 0.0
H2189 H 0.85579 0.56471 0.33886 0.0
H2190 H 0.91152 0.54835 0.34968 0.0
H2191 H 0.90342 0.55185 0.37217 0.0
C2192 C 0.88643 0.52389 0.31272 0.0
C2193 C 0.88877 0.54044 0.30322 0.0
C2194 C 0.88588 0.52948 0.32556 0.0
C2195 C 0.88724 0.55152 0.32908 0.0
C2196 C 0.89002 0.56827 0.31958 0.0
C2197 C 0.891 0.56287 0.30675 0.0
C2198 C 0.86177 0.56408 0.35891 0.0
C2199 C 0.87485 0.56019 0.36847 0.0
C2200 C 0.86657 0.56231 0.34607 0.0
C2201 C 0.88423 0.5562 0.34259 0.0
C2202 C 0.89776 0.55298 0.35214 0.0
C2203 C 0.89324 0.55515 0.36497 0.0
H2204 H 0.43187 0.30231 0.29919 0.0
H2205 H 0.47359 0.38 0.3064 0.0
H2206 H 0.42661 0.29448 0.32204 0.0
H2207 H 0.46745 0.37245 0.32925 0.0
H2208 H 0.47797 0.35067 0.36873 0.0
H2209 H 0.48112 0.35816 0.34591 0.0
H2210 H 0.40778 0.29654 0.34096 0.0
H2211 H 0.40527 0.28852 0.36386 0.0
C2212 C 0.43952 0.31771 0.3057 0.0
C2213 C 0.45322 0.34174 0.30108 0.0
C2214 C 0.43644 0.31327 0.3188 0.0
C2215 C 0.44672 0.33281 0.32756 0.0
C2216 C 0.45977 0.3569 0.32284 0.0
C2217 C 0.46317 0.3613 0.30976 0.0
C2218 C 0.4625 0.33883 0.36274 0.0
C2219 C 0.44133 0.31911 0.36802 0.0
C2220 C 0.46421 0.34318 0.34966 0.0
C2221 C 0.44462 0.32811 0.34154 0.0
C2222 C 0.42336 0.30835 0.34687 0.0
C2223 C 0.42182 0.30379 0.35998 0.0
H2224 H 0.65349 0.08743 0.36306 0.0
H2225 H 0.69797 0.16619 0.36026 0.0
H2226 H 0.64721 0.08478 0.34005 0.0
H2227 H 0.69222 0.16334 0.33724 0.0
H2228 H 0.69474 0.14486 0.29494 0.0
H2229 H 0.70252 0.14643 0.31782 0.0
H2230 H 0.62531 0.09803 0.32465 0.0
H2231 H 0.61753 0.09631 0.30174 0.0
C2232 C 0.66197 0.10417 0.35756 0.0
C2233 C 0.67617 0.12704 0.36355 0.0
C2234 C 0.65839 0.10262 0.34439 0.0
C2235 C 0.66915 0.12385 0.33689 0.0
C2236 C 0.6839 0.14665 0.34278 0.0
C2237 C 0.68729 0.14824 0.35597 0.0
C2238 C 0.67947 0.1344 0.30133 0.0
C2239 C 0.65553 0.12043 0.29658 0.0
C2240 C 0.68391 0.13545 0.31441 0.0
C2241 C 0.66453 0.12233 0.32299 0.0
C2242 C 0.64061 0.10814 0.31823 0.0
C2243 C 0.63614 0.10732 0.30515 0.0
H2244 H 0.56884 0.90759 0.63032 0.0
H2245 H 0.53378 0.82922 0.63497 0.0
H2246 H 0.56452 0.91214 0.65302 0.0
H2247 H 0.53106 0.83394 0.65781 0.0
H2248 H 0.50278 0.84648 0.69499 0.0
H2249 H 0.50823 0.84283 0.67236 0.0
H2250 H 0.57815 0.91015 0.6736 0.0
H2251 H 0.57186 0.91475 0.69608 0.0
C2252 C 0.56039 0.89133 0.63619 0.0
C2253 C 0.55145 0.86801 0.63075 0.0
C2254 C 0.55821 0.89398 0.64927 0.0
C2255 C 0.54727 0.8734 0.65729 0.0
C2256 C 0.53914 0.85017 0.65191 0.0
C2257 C 0.54109 0.84749 0.63881 0.0
C2258 C 0.51911 0.8608 0.69041 0.0
C2259 C 0.53681 0.88098 0.69741 0.0
C2260 C 0.52246 0.85845 0.67744 0.0
C2261 C 0.54375 0.87607 0.67112 0.0
C2262 C 0.56142 0.89632 0.6781 0.0
C2263 C 0.55794 0.8988 0.69106 0.0
H2264 H 0.13739 0.7098 0.64121 0.0
H2265 H 0.11282 0.63374 0.63375 0.0
H2266 H 0.13241 0.70136 0.6641 0.0
H2267 H 0.10734 0.62526 0.65652 0.0
H2268 H 0.13249 0.62881 0.69815 0.0
H2269 H 0.1347 0.63587 0.67527 0.0
H2270 H 0.09905 0.678 0.68014 0.0
H2271 H 0.09634 0.67055 0.70306 0.0
C2272 C 0.13086 0.6913 0.64445 0.0
C2273 C 0.12543 0.67243 0.63569 0.0
C2274 C 0.1278 0.68643 0.65753 0.0
C2275 C 0.11947 0.66264 0.66207 0.0
C2276 C 0.11395 0.64379 0.6533 0.0
C2277 C 0.11686 0.64862 0.64025 0.0
C2278 C 0.12465 0.63915 0.69435 0.0
C2279 C 0.11421 0.64908 0.70246 0.0
C2280 C 0.12603 0.64329 0.68123 0.0
C2281 C 0.11714 0.65757 0.67594 0.0
C2282 C 0.10637 0.66722 0.68399 0.0
C2283 C 0.10483 0.66294 0.69711 0.0
H2284 H 0.30197 0.47081 0.63461 0.0
H2285 H 0.33412 0.4255 0.62923 0.0
H2286 H 0.31144 0.47405 0.6572 0.0
H2287 H 0.34514 0.43016 0.65165 0.0
H2288 H 0.34201 0.42523 0.69499 0.0
H2289 H 0.33005 0.41934 0.67268 0.0
H2290 H 0.34559 0.49395 0.67079 0.0
H2291 H 0.35573 0.49925 0.69326 0.0
C2292 C 0.31092 0.4614 0.63824 0.0
C2293 C 0.31733 0.44795 0.63006 0.0
C2294 C 0.31674 0.4636 0.65118 0.0
C2295 C 0.32936 0.45264 0.65626 0.0
C2296 C 0.33529 0.43873 0.64812 0.0
C2297 C 0.32924 0.43632 0.6352 0.0
C2298 C 0.34266 0.44032 0.68986 0.0
C2299 C 0.34981 0.46271 0.696 0.0
C2300 C 0.33607 0.43703 0.67699 0.0
C2301 C 0.3367 0.45612 0.66991 0.0
C2302 C 0.34441 0.47867 0.67598 0.0
C2303 C 0.35072 0.48187 0.68886 0.0
loop_
_geom_bond_atom_site_label_1
_geom_bond_atom_site_label_2
_geom_bond_distance
_geom_bond_site_symmetry_2
_ccdc_geom_bond_type
Li0 N17 1.990 . S
Li0 O60 1.956 . S
Li0 O61 1.970 . S
Li0 O62 1.961 . S
Li1 N25 1.990 . S
Li1 O60 1.970 . S
Li1 O61 1.956 . S
Li1 O63 1.961 . S
Li2 N47 1.990 . S
Li2 O60 1.961 . S
Li2 O62 1.956 . S
Li2 O63 1.970 . S
Li3 N53 1.990 . S
Li3 O61 1.961 . S
Li3 O62 1.970 . S
Li3 O63 1.956 . S
C4 C6 1.348 . S
C4 C7 1.356 . S
C4 O60 1.325 . S
N5 C8 1.314 . S
N5 C9 1.279 . S
C6 C4 1.348 . S
C6 C8 1.353 . S
C6 H64 0.929 . S
C7 C4 1.356 . S
C7 C9 1.358 . S
C7 H65 0.930 . S
C8 N5 1.314 . S
C8 C6 1.353 . S
C8 H66 0.930 . S
C9 N5 1.279 . S
C9 C7 1.358 . S
C9 H67 0.930 . S
C10 C13 1.348 . S
C10 C14 1.356 . S
C10 O61 1.325 . S
C11 N12 1.279 . S
C11 C14 1.358 . S
C11 H68 0.930 . S
N12 C11 1.279 . S
N12 C15 1.314 . S
C13 C10 1.348 . S
C13 C15 1.353 . S
C13 H69 0.929 . S
C14 C10 1.356 . S
C14 C11 1.358 . S
C14 H70 0.930 . S
C15 N12 1.314 . S
C15 C13 1.353 . S
C15 H71 0.930 . S
C16 N17 1.314 . S
C16 C21 1.353 . S
C16 H22 0.930 . S
N17 Li0 1.990 . S
N17 C16 1.314 . S
N17 C19 1.279 . S
C18 C19 1.358 . S
C18 C20 1.356 . S
C18 H72 0.930 . S
C19 N17 1.279 . S
C19 C18 1.358 . S
C19 H23 0.930 . S
C20 C18 1.356 . S
C20 C21 1.348 . S
C21 C16 1.353 . S
C21 C20 1.348 . S
C21 H73 0.929 . S
H22 C16 0.930 . S
H23 C19 0.930 . S
C24 N25 1.314 . S
C24 C26 1.353 . S
C24 H30 0.930 . S
N25 Li1 1.990 . S
N25 C24 1.314 . S
N25 C28 1.279 . S
C26 C24 1.353 . S
C26 C29 1.348 . S
C26 H74 0.929 . S
C27 C28 1.358 . S
C27 C29 1.356 . S
C27 H75 0.930 . S
C28 N25 1.279 . S
C28 C27 1.358 . S
C28 H31 0.930 . S
C29 C26 1.348 . S
C29 C27 1.356 . S
H30 C24 0.930 . S
H31 C28 0.930 . S
C32 C34 1.348 . S
C32 C35 1.356 . S
C32 O62 1.325 . S
N33 C36 1.314 . S
N33 C37 1.279 . S
C34 C32 1.348 . S
C34 C36 1.353 . S
C34 H76 0.929 . S
C35 C32 1.356 . S
C35 C37 1.358 . S
C35 H77 0.930 . S
C36 N33 1.314 . S
C36 C34 1.353 . S
C36 H78 0.930 . S
C37 N33 1.279 . S
C37 C35 1.358 . S
C37 H79 0.930 . S
C38 C39 1.348 . S
C38 C40 1.356 . S
C38 O63 1.325 . S
C39 C38 1.348 . S
C39 C41 1.353 . S
C39 H80 0.929 . S
C40 C38 1.356 . S
C40 C42 1.358 . S
C40 H81 0.930 . S
C41 C39 1.353 . S
C41 N43 1.314 . S
C41 H82 0.930 . S
C42 C40 1.358 . S
C42 N43 1.279 . S
C42 H83 0.930 . S
N43 C41 1.314 . S
N43 C42 1.279 . S
C44 C46 1.353 . S
C44 N47 1.314 . S
C44 H50 0.930 . S
C45 N47 1.279 . S
C45 C48 1.358 . S
C45 H51 0.930 . S
C46 C44 1.353 . S
C46 C49 1.348 . S
C46 H84 0.929 . S
N47 Li2 1.990 . S
N47 C44 1.314 . S
N47 C45 1.279 . S
C48 C45 1.358 . S
C48 C49 1.356 . S
C48 H85 0.930 . S
C49 C46 1.348 . S
C49 C48 1.356 . S
H50 C44 0.930 . S
H51 C45 0.930 . S
C52 N53 1.314 . S
C52 C54 1.353 . S
C52 H58 0.930 . S
N53 Li3 1.990 . S
N53 C52 1.314 . S
N53 C56 1.279 . S
C54 C52 1.353 . S
C54 C57 1.348 . S
C54 H86 0.929 . S
C55 C56 1.358 . S
C55 C57 1.356 . S
C55 H87 0.930 . S
C56 N53 1.279 . S
C56 C55 1.358 . S
C56 H59 0.930 . S
C57 C54 1.348 . S
C57 C55 1.356 . S
H58 C52 0.930 . S
H59 C56 0.930 . S
O60 Li0 1.956 . S
O60 Li1 1.970 . S
O60 Li2 1.961 . S
O60 C4 1.325 . S
O61 Li0 1.970 . S
O61 Li1 1.956 . S
O61 Li3 1.961 . S
O61 C10 1.325 . S
O62 Li0 1.961 . S
O62 Li2 1.956 . S
O62 Li3 1.970 . S
O62 C32 1.325 . S
O63 Li1 1.961 . S
O63 Li2 1.970 . S
O63 Li3 1.956 . S
O63 C38 1.325 . S
H64 C6 0.929 . S
H65 C7 0.930 . S
H66 C8 0.930 . S
H67 C9 0.930 . S
H68 C11 0.930 . S
H69 C13 0.929 . S
H70 C14 0.930 . S
H71 C15 0.930 . S
H72 C18 0.930 . S
H73 C21 0.929 . S
H74 C26 0.929 . S
H75 C27 0.930 . S
H76 C34 0.929 . S
H77 C35 0.930 . S
H78 C36 0.930 . S
H79 C37 0.930 . S
H80 C39 0.929 . S
H81 C40 0.930 . S
H82 C41 0.930 . S
H83 C42 0.930 . S
H84 C46 0.929 . S
H85 C48 0.930 . S
H86 C54 0.929 . S
H87 C55 0.930 . S
Li88 N105 1.990 . S
Li88 O148 1.956 1_545 S
Li88 O149 1.970 . S
Li88 O150 1.961 . S
Li89 N113 1.990 . S
Li89 O148 1.970 . S
Li89 O149 1.956 1_565 S
Li89 O151 1.961 . S
Li90 N135 1.991 . S
Li90 O148 1.968 . S
Li90 O150 1.948 1_565 S
Li90 O151 1.975 . S
Li91 N141 1.990 . S
Li91 O149 1.961 . S
Li91 O150 1.970 . S
Li91 O151 1.956 1_545 S
C92 C94 1.348 . S
C92 C95 1.356 1_565 S
C92 O148 1.325 . S
N93 C96 1.314 . S
N93 C97 1.279 1_565 S
C94 C92 1.348 . S
C94 C96 1.353 . S
C94 H152 0.929 . S
C95 C92 1.356 1_545 S
C95 C97 1.358 . S
C95 H153 0.930 . S
C96 N93 1.314 . S
C96 C94 1.353 . S
C96 H154 0.930 . S
C97 N93 1.279 1_545 S
C97 C95 1.358 . S
C97 H155 0.930 . S
C98 C101 1.348 . S
C98 C102 1.356 1_545 S
C98 O149 1.325 . S
C99 N100 1.279 1_565 S
C99 C102 1.358 . S
C99 H156 0.930 . S
N100 C99 1.279 1_545 S
N100 C103 1.314 . S
C101 C98 1.348 . S
C101 C103 1.353 . S
C101 H157 0.929 . S
C102 C98 1.356 1_565 S
C102 C99 1.358 . S
C102 H158 0.930 . S
C103 N100 1.314 . S
C103 C101 1.353 . S
C103 H159 0.930 . S
C104 N105 1.314 . S
C104 C109 1.353 . S
C104 H110 0.930 . S
N105 Li88 1.990 . S
N105 C104 1.314 . S
N105 C107 1.279 . S
C106 C107 1.358 . S
C106 C108 1.356 . S
C106 H160 0.930 . S
C107 N105 1.279 . S
C107 C106 1.358 . S
C107 H111 0.930 . S
C108 C106 1.356 . S
C108 C109 1.348 . S
C109 C104 1.353 . S
C109 C108 1.348 . S
C109 H161 0.929 . S
H110 C104 0.930 . S
H111 C107 0.930 . S
C112 N113 1.314 . S
C112 C114 1.353 . S
C112 H118 0.930 . S
N113 Li89 1.990 . S
N113 C112 1.314 . S
N113 C116 1.279 . S
C114 C112 1.353 . S
C114 C117 1.348 . S
C114 H162 0.929 . S
C115 C116 1.358 . S
C115 C117 1.356 . S
C115 H163 0.930 . S
C116 N113 1.279 . S
C116 C115 1.358 . S
C116 H119 0.930 . S
C117 C114 1.348 . S
C117 C115 1.356 . S
H118 C112 0.930 . S
H119 C116 0.930 . S
C120 C122 1.348 . S
C120 C123 1.356 . S
C120 O150 1.325 . S
N121 C124 1.314 . S
N121 C125 1.279 . S
C122 C120 1.348 . S
C122 C124 1.353 . S
C122 H164 0.929 . S
C123 C120 1.356 . S
C123 C125 1.358 . S
C123 H165 0.930 . S
C124 N121 1.314 . S
C124 C122 1.353 . S
C124 H166 0.930 . S
C125 N121 1.279 . S
C125 C123 1.358 . S
C125 H167 0.930 . S
C126 C127 1.348 . S
C126 C128 1.356 . S
C126 O151 1.325 . S
C127 C126 1.348 . S
C127 C129 1.353 . S
C127 H168 0.929 . S
C128 C126 1.356 . S
C128 C130 1.358 . S
C128 H169 0.930 . S
C129 C127 1.353 . S
C129 N131 1.314 . S
C129 H170 0.930 . S
C130 C128 1.358 . S
C130 N131 1.279 . S
C130 H171 0.930 . S
N131 C129 1.314 . S
N131 C130 1.279 . S
C132 C134 1.353 . S
C132 N135 1.326 . S
C132 H138 0.930 . S
C133 N135 1.266 1_545 S
C133 C136 1.358 . S
C133 H139 0.930 . S
C134 C132 1.353 . S
C134 C137 1.348 . S
C134 H172 0.929 . S
N135 Li90 1.991 . S
N135 C132 1.326 . S
N135 C133 1.266 1_565 S
C136 C133 1.358 . S
C136 C137 1.356 1_545 S
C136 H173 0.930 . S
C137 C134 1.348 . S
C137 C136 1.356 1_565 S
H138 C132 0.930 . S
H139 C133 0.930 . S
C140 N141 1.314 . S
C140 C142 1.353 . S
C140 H146 0.930 . S
N141 Li91 1.990 . S
N141 C140 1.314 . S
N141 C144 1.279 1_545 S
C142 C140 1.353 . S
C142 C145 1.348 . S
C142 H174 0.929 . S
C143 C144 1.371 . S
C143 C145 1.342 1_565 S
C143 H175 0.931 . S
C144 N141 1.279 1_565 S
C144 C143 1.371 . S
C144 H147 0.930 . S
C145 C142 1.348 . S
C145 C143 1.342 1_545 S
H146 C140 0.930 . S
H147 C144 0.930 . S
O148 Li88 1.956 1_565 S
O148 Li89 1.970 . S
O148 Li90 1.968 . S
O148 C92 1.325 . S
O149 Li88 1.970 . S
O149 Li89 1.956 1_545 S
O149 Li91 1.961 . S
O149 C98 1.325 . S
O150 Li88 1.961 . S
O150 Li90 1.948 1_545 S
O150 Li91 1.970 . S
O150 C120 1.325 . S
O151 Li89 1.961 . S
O151 Li90 1.975 . S
O151 Li91 1.956 1_565 S
O151 C126 1.325 . S
H152 C94 0.929 . S
H153 C95 0.930 . S
H154 C96 0.930 . S
H155 C97 0.930 . S
H156 C99 0.930 . S
H157 C101 0.929 . S
H158 C102 0.930 . S
H159 C103 0.930 . S
H160 C106 0.930 . S
H161 C109 0.929 . S
H162 C114 0.929 . S
H163 C115 0.930 . S
H164 C122 0.929 . S
H165 C123 0.930 . S
H166 C124 0.930 . S
H167 C125 0.930 . S
H168 C127 0.929 . S
H169 C128 0.930 . S
H170 C129 0.930 . S
H171 C130 0.930 . S
H172 C134 0.929 . S
H173 C136 0.930 . S
H174 C142 0.929 . S
H175 C143 0.931 . S
Li176 N193 1.990 . S
Li176 O236 1.956 1_655 S
Li176 O237 1.970 . S
Li176 O238 1.961 . S
Li177 N201 1.990 . S
Li177 O236 1.970 . S
Li177 O237 1.956 1_455 S
Li177 O239 1.961 . S
Li178 N223 1.990 . S
Li178 O236 1.958 . S
Li178 O238 1.951 1_455 S
Li178 O239 1.977 . S
Li179 N229 1.990 . S
Li179 O237 1.961 . S
Li179 O238 1.970 . S
Li179 O239 1.956 1_655 S
C180 C182 1.348 . S
C180 C183 1.356 1_455 S
C180 O236 1.325 . S
N181 C184 1.314 . S
N181 C185 1.279 1_455 S
C182 C180 1.348 . S
C182 C184 1.353 . S
C182 H240 0.929 . S
C183 C180 1.356 1_655 S
C183 C185 1.358 . S
C183 H241 0.930 . S
C184 N181 1.314 . S
C184 C182 1.353 . S
C184 H242 0.930 . S
C185 N181 1.279 1_655 S
C185 C183 1.358 . S
C185 H243 0.930 . S
C186 C189 1.348 . S
C186 C190 1.356 1_655 S
C186 O237 1.325 . S
C187 N188 1.279 1_455 S
C187 C190 1.358 . S
C187 H244 0.930 . S
N188 C187 1.279 1_655 S
N188 C191 1.314 . S
C189 C186 1.348 . S
C189 C191 1.353 . S
C189 H245 0.929 . S
C190 C186 1.356 1_455 S
C190 C187 1.358 . S
C190 H246 0.930 . S
C191 N188 1.314 . S
C191 C189 1.353 . S
C191 H247 0.930 . S
C192 N193 1.314 . S
C192 C197 1.353 . S
C192 H198 0.930 . S
N193 Li176 1.990 . S
N193 C192 1.314 . S
N193 C195 1.279 . S
C194 C195 1.358 . S
C194 C196 1.356 . S
C194 H248 0.930 . S
C195 N193 1.279 . S
C195 C194 1.358 . S
C195 H199 0.930 . S
C196 C194 1.356 . S
C196 C197 1.348 . S
C197 C192 1.353 . S
C197 C196 1.348 . S
C197 H249 0.929 . S
H198 C192 0.930 . S
H199 C195 0.930 . S
C200 N201 1.314 . S
C200 C202 1.353 . S
C200 H206 0.930 . S
N201 Li177 1.990 . S
N201 C200 1.314 . S
N201 C204 1.279 . S
C202 C200 1.353 . S
C202 C205 1.348 . S
C202 H250 0.929 . S
C203 C204 1.358 . S
C203 C205 1.356 . S
C203 H251 0.930 . S
C204 N201 1.279 . S
C204 C203 1.358 . S
C204 H207 0.930 . S
C205 C202 1.348 . S
C205 C203 1.356 . S
H206 C200 0.930 . S
H207 C204 0.930 . S
C208 C210 1.348 . S
C208 C211 1.356 . S
C208 O238 1.325 . S
N209 C212 1.314 . S
N209 C213 1.279 . S
C210 C208 1.348 . S
C210 C212 1.353 . S
C210 H252 0.929 . S
C211 C208 1.356 . S
C211 C213 1.358 . S
C211 H253 0.930 . S
C212 N209 1.314 . S
C212 C210 1.353 . S
C212 H254 0.930 . S
C213 N209 1.279 . S
C213 C211 1.358 . S
C213 H255 0.930 . S
C214 C215 1.348 . S
C214 C216 1.356 . S
C214 O239 1.325 . S
C215 C214 1.348 . S
C215 C217 1.353 . S
C215 H256 0.929 . S
C216 C214 1.356 . S
C216 C218 1.358 . S
C216 H257 0.930 . S
C217 C215 1.353 . S
C217 N219 1.314 . S
C217 H258 0.930 . S
C218 C216 1.358 . S
C218 N219 1.279 . S
C218 H259 0.930 . S
N219 C217 1.314 . S
N219 C218 1.279 . S
C220 C222 1.353 . S
C220 N223 1.319 . S
C220 H226 0.930 . S
C221 N223 1.277 1_655 S
C221 C224 1.358 . S
C221 H227 0.930 . S
C222 C220 1.353 . S
C222 C225 1.348 . S
C222 H260 0.929 . S
N223 Li178 1.990 . S
N223 C220 1.319 . S
N223 C221 1.277 1_455 S
C224 C221 1.358 . S
C224 C225 1.356 1_655 S
C224 H261 0.930 . S
C225 C222 1.348 . S
C225 C224 1.356 1_455 S
H226 C220 0.930 . S
H227 C221 0.930 . S
C228 N229 1.314 . S
C228 C230 1.353 . S
C228 H234 0.930 . S
N229 Li179 1.990 . S
N229 C228 1.314 . S
N229 C232 1.279 1_655 S
C230 C228 1.353 . S
C230 C233 1.348 . S
C230 H262 0.929 . S
C231 C232 1.363 1_655 S
C231 C233 1.367 . S
C231 H263 0.914 1_655 S
C232 N229 1.279 1_455 S
C232 C231 1.363 1_455 S
C232 H235 0.930 . S
C233 C230 1.348 . S
C233 C231 1.367 . S
H234 C228 0.930 . S
H235 C232 0.930 . S
O236 Li176 1.956 1_455 S
O236 Li177 1.970 . S
O236 Li178 1.958 . S
O236 C180 1.325 . S
O237 Li176 1.970 . S
O237 Li177 1.956 1_655 S
O237 Li179 1.961 . S
O237 C186 1.325 . S
O238 Li176 1.961 . S
O238 Li178 1.951 1_655 S
O238 Li179 1.970 . S
O238 C208 1.325 . S
O239 Li177 1.961 . S
O239 Li178 1.977 . S
O239 Li179 1.956 1_455 S
O239 C214 1.325 . S
H240 C182 0.929 . S
H241 C183 0.930 . S
H242 C184 0.930 . S
H243 C185 0.930 . S
H244 C187 0.930 . S
H245 C189 0.929 . S
H246 C190 0.930 . S
H247 C191 0.930 . S
H248 C194 0.930 . S
H249 C197 0.929 . S
H250 C202 0.929 . S
H251 C203 0.930 . S
H252 C210 0.929 . S
H253 C211 0.930 . S
H254 C212 0.930 . S
H255 C213 0.930 . S
H256 C215 0.929 . S
H257 C216 0.930 . S
H258 C217 0.930 . S
H259 C218 0.930 . S
H260 C222 0.929 . S
H261 C224 0.930 . S
H262 C230 0.929 . S
H263 C231 0.914 1_455 S
Li264 N281 1.990 . S
Li264 O324 1.956 . S
Li264 O325 1.970 . S
Li264 O326 1.961 . S
Li265 N289 1.990 . S
Li265 O324 1.970 . S
Li265 O325 1.956 . S
Li265 O327 1.961 . S
Li266 N311 1.990 . S
Li266 O324 1.961 . S
Li266 O326 1.956 . S
Li266 O327 1.970 . S
Li267 N317 1.990 . S
Li267 O325 1.961 . S
Li267 O326 1.970 . S
Li267 O327 1.956 . S
C268 C270 1.348 . S
C268 C271 1.356 . S
C268 O324 1.325 . S
N269 C272 1.314 . S
N269 C273 1.279 . S
C270 C268 1.348 . S
C270 C272 1.353 . S
C270 H328 0.929 . S
C271 C268 1.356 . S
C271 C273 1.358 . S
C271 H329 0.930 . S
C272 N269 1.314 . S
C272 C270 1.353 . S
C272 H330 0.930 . S
C273 N269 1.279 . S
C273 C271 1.358 . S
C273 H331 0.930 . S
C274 C277 1.348 . S
C274 C278 1.356 . S
C274 O325 1.325 . S
C275 N276 1.279 . S
C275 C278 1.358 . S
C275 H332 0.930 . S
N276 C275 1.279 . S
N276 C279 1.314 . S
C277 C274 1.348 . S
C277 C279 1.353 . S
C277 H333 0.929 . S
C278 C274 1.356 . S
C278 C275 1.358 . S
C278 H334 0.930 . S
C279 N276 1.314 . S
C279 C277 1.353 . S
C279 H335 0.930 . S
C280 N281 1.314 . S
C280 C285 1.353 . S
C280 H286 0.930 . S
N281 Li264 1.990 . S
N281 C280 1.314 . S
N281 C283 1.279 . S
C282 C283 1.358 . S
C282 C284 1.356 . S
C282 H336 0.930 . S
C283 N281 1.279 . S
C283 C282 1.358 . S
C283 H287 0.930 . S
C284 C282 1.356 . S
C284 C285 1.348 . S
C285 C280 1.353 . S
C285 C284 1.348 . S
C285 H337 0.929 . S
H286 C280 0.930 . S
H287 C283 0.930 . S
C288 N289 1.314 . S
C288 C290 1.353 . S
C288 H294 0.930 . S
N289 Li265 1.990 . S
N289 C288 1.314 . S
N289 C292 1.279 . S
C290 C288 1.353 . S
C290 C293 1.348 . S
C290 H338 0.929 . S
C291 C292 1.358 . S
C291 C293 1.356 . S
C291 H339 0.930 . S
C292 N289 1.279 . S
C292 C291 1.358 . S
C292 H295 0.930 . S
C293 C290 1.348 . S
C293 C291 1.356 . S
H294 C288 0.930 . S
H295 C292 0.930 . S
C296 C298 1.348 . S
C296 C299 1.356 . S
C296 O326 1.325 . S
N297 C300 1.314 . S
N297 C301 1.279 . S
C298 C296 1.348 . S
C298 C300 1.353 . S
C298 H340 0.929 . S
C299 C296 1.356 . S
C299 C301 1.358 . S
C299 H341 0.930 . S
C300 N297 1.314 . S
C300 C298 1.353 . S
C300 H342 0.930 . S
C301 N297 1.279 . S
C301 C299 1.358 . S
C301 H343 0.930 . S
C302 C303 1.348 . S
C302 C304 1.356 . S
C302 O327 1.325 . S
C303 C302 1.348 . S
C303 C305 1.353 . S
C303 H344 0.929 . S
C304 C302 1.356 . S
C304 C306 1.358 . S
C304 H345 0.930 . S
C305 C303 1.353 . S
C305 N307 1.314 . S
C305 H346 0.930 . S
C306 C304 1.358 . S
C306 N307 1.279 . S
C306 H347 0.930 . S
N307 C305 1.314 . S
N307 C306 1.279 . S
C308 C310 1.353 . S
C308 N311 1.314 . S
C308 H314 0.930 . S
C309 N311 1.279 . S
C309 C312 1.358 . S
C309 H315 0.930 . S
C310 C308 1.353 . S
C310 C313 1.348 . S
C310 H348 0.929 . S
N311 Li266 1.990 . S
N311 C308 1.314 . S
N311 C309 1.279 . S
C312 C309 1.358 . S
C312 C313 1.356 . S
C312 H349 0.930 . S
C313 C310 1.348 . S
C313 C312 1.356 . S
H314 C308 0.930 . S
H315 C309 0.930 . S
C316 N317 1.314 . S
C316 C318 1.353 . S
C316 H322 0.930 . S
N317 Li267 1.990 . S
N317 C316 1.314 . S
N317 C320 1.279 . S
C318 C316 1.353 . S
C318 C321 1.348 . S
C318 H350 0.929 . S
C319 C320 1.358 . S
C319 C321 1.356 . S
C319 H351 0.930 . S
C320 N317 1.279 . S
C320 C319 1.358 . S
C320 H323 0.930 . S
C321 C318 1.348 . S
C321 C319 1.356 . S
H322 C316 0.930 . S
H323 C320 0.930 . S
O324 Li264 1.956 . S
O324 Li265 1.970 . S
O324 Li266 1.961 . S
O324 C268 1.325 . S
O325 Li264 1.970 . S
O325 Li265 1.956 . S
O325 Li267 1.961 . S
O325 C274 1.325 . S
O326 Li264 1.961 . S
O326 Li266 1.956 . S
O326 Li267 1.970 . S
O326 C296 1.325 . S
O327 Li265 1.961 . S
O327 Li266 1.970 . S
O327 Li267 1.956 . S
O327 C302 1.325 . S
H328 C270 0.929 . S
H329 C271 0.930 . S
H330 C272 0.930 . S
H331 C273 0.930 . S
H332 C275 0.930 . S
H333 C277 0.929 . S
H334 C278 0.930 . S
H335 C279 0.930 . S
H336 C282 0.930 . S
H337 C285 0.929 . S
H338 C290 0.929 . S
H339 C291 0.930 . S
H340 C298 0.929 . S
H341 C299 0.930 . S
H342 C300 0.930 . S
H343 C301 0.930 . S
H344 C303 0.929 . S
H345 C304 0.930 . S
H346 C305 0.930 . S
H347 C306 0.930 . S
H348 C310 0.929 . S
H349 C312 0.930 . S
H350 C318 0.929 . S
H351 C319 0.930 . S
Li352 N369 1.990 . S
Li352 O412 1.956 1_565 S
Li352 O413 1.970 . S
Li352 O414 1.961 . S
Li353 N377 1.990 . S
Li353 O412 1.977 . S
Li353 O413 1.951 1_545 S
Li353 O415 1.958 . S
Li354 N399 1.990 . S
Li354 O412 1.961 . S
Li354 O414 1.956 1_545 S
Li354 O415 1.970 . S
Li355 N405 1.990 . S
Li355 O413 1.961 . S
Li355 O414 1.970 . S
Li355 O415 1.956 1_565 S
C356 C358 1.348 . S
C356 C359 1.356 . S
C356 O412 1.325 . S
N357 C360 1.314 . S
N357 C361 1.279 . S
C358 C356 1.348 . S
C358 C360 1.353 . S
C358 H416 0.929 . S
C359 C356 1.356 . S
C359 C361 1.358 . S
C359 H417 0.930 . S
C360 N357 1.314 . S
C360 C358 1.353 . S
C360 H418 0.930 . S
C361 N357 1.279 . S
C361 C359 1.358 . S
C361 H419 0.930 . S
C362 C365 1.348 . S
C362 C366 1.356 . S
C362 O413 1.325 . S
C363 N364 1.279 . S
C363 C366 1.358 . S
C363 H420 0.930 . S
N364 C363 1.279 . S
N364 C367 1.314 . S
C365 C362 1.348 . S
C365 C367 1.353 . S
C365 H421 0.929 . S
C366 C362 1.356 . S
C366 C363 1.358 . S
C366 H422 0.930 . S
C367 N364 1.314 . S
C367 C365 1.353 . S
C367 H423 0.930 . S
C368 N369 1.314 . S
C368 C373 1.353 . S
C368 H374 0.930 . S
N369 Li352 1.990 . S
N369 C368 1.314 . S
N369 C371 1.279 1_565 S
C370 C371 1.363 1_565 S
C370 C372 1.367 . S
C370 H424 0.914 1_565 S
C371 N369 1.279 1_545 S
C371 C370 1.363 1_545 S
C371 H375 0.930 . S
C372 C370 1.367 . S
C372 C373 1.348 . S
C373 C368 1.353 . S
C373 C372 1.348 . S
C373 H425 0.929 . S
H374 C368 0.930 . S
H375 C371 0.930 . S
C376 N377 1.319 . S
C376 C378 1.353 . S
C376 H382 0.930 . S
N377 Li353 1.990 . S
N377 C376 1.319 . S
N377 C380 1.277 1_545 S
C378 C376 1.353 . S
C378 C381 1.348 . S
C378 H426 0.929 . S
C379 C380 1.358 . S
C379 C381 1.356 1_565 S
C379 H427 0.930 . S
C380 N377 1.277 1_565 S
C380 C379 1.358 . S
C380 H383 0.930 . S
C381 C378 1.348 . S
C381 C379 1.356 1_545 S
H382 C376 0.930 . S
H383 C380 0.930 . S
C384 C386 1.348 . S
C384 C387 1.356 1_565 S
C384 O414 1.325 . S
N385 C388 1.314 . S
N385 C389 1.279 1_565 S
C386 C384 1.348 . S
C386 C388 1.353 . S
C386 H428 0.929 . S
C387 C384 1.356 1_545 S
C387 C389 1.358 . S
C387 H429 0.930 . S
C388 N385 1.314 . S
C388 C386 1.353 . S
C388 H430 0.930 . S
C389 N385 1.279 1_545 S
C389 C387 1.358 . S
C389 H431 0.930 . S
C390 C391 1.348 . S
C390 C392 1.356 1_545 S
C390 O415 1.325 . S
C391 C390 1.348 . S
C391 C393 1.353 . S
C391 H432 0.929 . S
C392 C390 1.356 1_565 S
C392 C394 1.358 . S
C392 H433 0.930 . S
C393 C391 1.353 . S
C393 N395 1.314 . S
C393 H434 0.930 . S
C394 C392 1.358 . S
C394 N395 1.279 1_565 S
C394 H435 0.930 . S
N395 C393 1.314 . S
N395 C394 1.279 1_545 S
C396 C398 1.353 . S
C396 N399 1.314 . S
C396 H402 0.930 . S
C397 N399 1.279 . S
C397 C400 1.358 . S
C397 H403 0.930 . S
C398 C396 1.353 . S
C398 C401 1.348 . S
C398 H436 0.929 . S
N399 Li354 1.990 . S
N399 C396 1.314 . S
N399 C397 1.279 . S
C400 C397 1.358 . S
C400 C401 1.356 . S
C400 H437 0.930 . S
C401 C398 1.348 . S
C401 C400 1.356 . S
H402 C396 0.930 . S
H403 C397 0.930 . S
C404 N405 1.314 . S
C404 C406 1.353 . S
C404 H410 0.930 . S
N405 Li355 1.990 . S
N405 C404 1.314 . S
N405 C408 1.279 . S
C406 C404 1.353 . S
C406 C409 1.348 . S
C406 H438 0.929 . S
C407 C408 1.358 . S
C407 C409 1.356 . S
C407 H439 0.930 . S
C408 N405 1.279 . S
C408 C407 1.358 . S
C408 H411 0.930 . S
C409 C406 1.348 . S
C409 C407 1.356 . S
H410 C404 0.930 . S
H411 C408 0.930 . S
O412 Li352 1.956 1_545 S
O412 Li353 1.977 . S
O412 Li354 1.961 . S
O412 C356 1.325 . S
O413 Li352 1.970 . S
O413 Li353 1.951 1_565 S
O413 Li355 1.961 . S
O413 C362 1.325 . S
O414 Li352 1.961 . S
O414 Li354 1.956 1_565 S
O414 Li355 1.970 . S
O414 C384 1.325 . S
O415 Li353 1.958 . S
O415 Li354 1.970 . S
O415 Li355 1.956 1_545 S
O415 C390 1.325 . S
H416 C358 0.929 . S
H417 C359 0.930 . S
H418 C360 0.930 . S
H419 C361 0.930 . S
H420 C363 0.930 . S
H421 C365 0.929 . S
H422 C366 0.930 . S
H423 C367 0.930 . S
H424 C370 0.914 1_545 S
H425 C373 0.929 . S
H426 C378 0.929 . S
H427 C379 0.930 . S
H428 C386 0.929 . S
H429 C387 0.930 . S
H430 C388 0.930 . S
H431 C389 0.930 . S
H432 C391 0.929 . S
H433 C392 0.930 . S
H434 C393 0.930 . S
H435 C394 0.930 . S
H436 C398 0.929 . S
H437 C400 0.930 . S
H438 C406 0.929 . S
H439 C407 0.930 . S
Li440 N457 1.990 . S
Li440 O500 1.956 1_455 S
Li440 O501 1.970 . S
Li440 O502 1.961 . S
Li441 N465 1.990 . S
Li441 O500 1.970 . S
Li441 O501 1.956 1_655 S
Li441 O503 1.961 . S
Li442 N487 1.991 . S
Li442 O500 1.968 . S
Li442 O502 1.948 1_655 S
Li442 O503 1.975 . S
Li443 N493 1.990 . S
Li443 O501 1.961 . S
Li443 O502 1.970 . S
Li443 O503 1.956 1_455 S
C444 C446 1.348 . S
C444 C447 1.356 1_655 S
C444 O500 1.325 . S
N445 C448 1.314 . S
N445 C449 1.279 1_655 S
C446 C444 1.348 . S
C446 C448 1.353 . S
C446 H504 0.929 . S
C447 C444 1.356 1_455 S
C447 C449 1.358 . S
C447 H505 0.930 . S
C448 N445 1.314 . S
C448 C446 1.353 . S
C448 H506 0.930 . S
C449 N445 1.279 1_455 S
C449 C447 1.358 . S
C449 H507 0.930 . S
C450 C453 1.348 . S
C450 C454 1.356 1_455 S
C450 O501 1.325 . S
C451 N452 1.279 1_655 S
C451 C454 1.358 . S
C451 H508 0.930 . S
N452 C451 1.279 1_455 S
N452 C455 1.314 . S
C453 C450 1.348 . S
C453 C455 1.353 . S
C453 H509 0.929 . S
C454 C450 1.356 1_655 S
C454 C451 1.358 . S
C454 H510 0.930 . S
C455 N452 1.314 . S
C455 C453 1.353 . S
C455 H511 0.930 . S
C456 N457 1.314 . S
C456 C461 1.353 . S
C456 H462 0.930 . S
N457 Li440 1.990 . S
N457 C456 1.314 . S
N457 C459 1.279 . S
C458 C459 1.358 . S
C458 C460 1.356 . S
C458 H512 0.930 . S
C459 N457 1.279 . S
C459 C458 1.358 . S
C459 H463 0.930 . S
C460 C458 1.356 . S
C460 C461 1.348 . S
C461 C456 1.353 . S
C461 C460 1.348 . S
C461 H513 0.929 . S
H462 C456 0.930 . S
H463 C459 0.930 . S
C464 N465 1.314 . S
C464 C466 1.353 . S
C464 H470 0.930 . S
N465 Li441 1.990 . S
N465 C464 1.314 . S
N465 C468 1.279 . S
C466 C464 1.353 . S
C466 C469 1.348 . S
C466 H514 0.929 . S
C467 C468 1.358 . S
C467 C469 1.356 . S
C467 H515 0.930 . S
C468 N465 1.279 . S
C468 C467 1.358 . S
C468 H471 0.930 . S
C469 C466 1.348 . S
C469 C467 1.356 . S
H470 C464 0.930 . S
H471 C468 0.930 . S
C472 C474 1.348 . S
C472 C475 1.356 . S
C472 O502 1.325 . S
N473 C476 1.314 . S
N473 C477 1.279 . S
C474 C472 1.348 . S
C474 C476 1.353 . S
C474 H516 0.929 . S
C475 C472 1.356 . S
C475 C477 1.358 . S
C475 H517 0.930 . S
C476 N473 1.314 . S
C476 C474 1.353 . S
C476 H518 0.930 . S
C477 N473 1.279 . S
C477 C475 1.358 . S
C477 H519 0.930 . S
C478 C479 1.348 . S
C478 C480 1.356 . S
C478 O503 1.325 . S
C479 C478 1.348 . S
C479 C481 1.353 . S
C479 H520 0.929 . S
C480 C478 1.356 . S
C480 C482 1.358 . S
C480 H521 0.930 . S
C481 C479 1.353 . S
C481 N483 1.314 . S
C481 H522 0.930 . S
C482 C480 1.358 . S
C482 N483 1.279 . S
C482 H523 0.930 . S
N483 C481 1.314 . S
N483 C482 1.279 . S
C484 C486 1.353 . S
C484 N487 1.326 . S
C484 H490 0.930 . S
C485 N487 1.266 1_455 S
C485 C488 1.358 . S
C485 H491 0.930 . S
C486 C484 1.353 . S
C486 C489 1.348 . S
C486 H524 0.929 . S
N487 Li442 1.991 . S
N487 C484 1.326 . S
N487 C485 1.266 1_655 S
C488 C485 1.358 . S
C488 C489 1.356 1_455 S
C488 H525 0.930 . S
C489 C486 1.348 . S
C489 C488 1.356 1_655 S
H490 C484 0.930 . S
H491 C485 0.930 . S
C492 N493 1.314 . S
C492 C494 1.353 . S
C492 H498 0.930 . S
N493 Li443 1.990 . S
N493 C492 1.314 . S
N493 C496 1.279 1_455 S
C494 C492 1.353 . S
C494 C497 1.348 . S
C494 H526 0.929 . S
C495 C496 1.371 . S
C495 C497 1.342 1_655 S
C495 H527 0.931 . S
C496 N493 1.279 1_655 S
C496 C495 1.371 . S
C496 H499 0.930 . S
C497 C494 1.348 . S
C497 C495 1.342 1_455 S
H498 C492 0.930 . S
H499 C496 0.930 . S
O500 Li440 1.956 1_655 S
O500 Li441 1.970 . S
O500 Li442 1.968 . S
O500 C444 1.325 . S
O501 Li440 1.970 . S
O501 Li441 1.956 1_455 S
O501 Li443 1.961 . S
O501 C450 1.325 . S
O502 Li440 1.961 . S
O502 Li442 1.948 1_455 S
O502 Li443 1.970 . S
O502 C472 1.325 . S
O503 Li441 1.961 . S
O503 Li442 1.975 . S
O503 Li443 1.956 1_655 S
O503 C478 1.325 . S
H504 C446 0.929 . S
H505 C447 0.930 . S
H506 C448 0.930 . S
H507 C449 0.930 . S
H508 C451 0.930 . S
H509 C453 0.929 . S
H510 C454 0.930 . S
H511 C455 0.930 . S
H512 C458 0.930 . S
H513 C461 0.929 . S
H514 C466 0.929 . S
H515 C467 0.930 . S
H516 C474 0.929 . S
H517 C475 0.930 . S
H518 C476 0.930 . S
H519 C477 0.930 . S
H520 C479 0.929 . S
H521 C480 0.930 . S
H522 C481 0.930 . S
H523 C482 0.930 . S
H524 C486 0.929 . S
H525 C488 0.930 . S
H526 C494 0.929 . S
H527 C495 0.931 . S
Li528 N545 1.990 . S
Li528 O588 1.956 . S
Li528 O589 1.970 . S
Li528 O590 1.961 . S
Li529 N553 1.990 . S
Li529 O588 1.970 . S
Li529 O589 1.956 . S
Li529 O591 1.961 . S
Li530 N575 1.990 . S
Li530 O588 1.961 . S
Li530 O590 1.956 . S
Li530 O591 1.970 . S
Li531 N581 1.990 . S
Li531 O589 1.961 . S
Li531 O590 1.970 . S
Li531 O591 1.956 . S
C532 C534 1.348 . S
C532 C535 1.356 . S
C532 O588 1.325 . S
N533 C536 1.314 . S
N533 C537 1.279 . S
C534 C532 1.348 . S
C534 C536 1.353 . S
C534 H592 0.929 . S
C535 C532 1.356 . S
C535 C537 1.358 . S
C535 H593 0.930 . S
C536 N533 1.314 . S
C536 C534 1.353 . S
C536 H594 0.930 . S
C537 N533 1.279 . S
C537 C535 1.358 . S
C537 H595 0.930 . S
C538 C541 1.348 . S
C538 C542 1.356 . S
C538 O589 1.325 . S
C539 N540 1.279 . S
C539 C542 1.358 . S
C539 H596 0.930 . S
N540 C539 1.279 . S
N540 C543 1.314 . S
C541 C538 1.348 . S
C541 C543 1.353 . S
C541 H597 0.929 . S
C542 C538 1.356 . S
C542 C539 1.358 . S
C542 H598 0.930 . S
C543 N540 1.314 . S
C543 C541 1.353 . S
C543 H599 0.930 . S
C544 N545 1.314 . S
C544 C549 1.353 . S
C544 H550 0.930 . S
N545 Li528 1.990 . S
N545 C544 1.314 . S
N545 C547 1.279 . S
C546 C547 1.358 . S
C546 C548 1.356 . S
C546 H600 0.930 . S
C547 N545 1.279 . S
C547 C546 1.358 . S
C547 H551 0.930 . S
C548 C546 1.356 . S
C548 C549 1.348 . S
C549 C544 1.353 . S
C549 C548 1.348 . S
C549 H601 0.929 . S
H550 C544 0.930 . S
H551 C547 0.930 . S
C552 N553 1.314 . S
C552 C554 1.353 . S
C552 H558 0.930 . S
N553 Li529 1.990 . S
N553 C552 1.314 . S
N553 C556 1.279 . S
C554 C552 1.353 . S
C554 C557 1.348 . S
C554 H602 0.929 . S
C555 C556 1.358 . S
C555 C557 1.356 . S
C555 H603 0.930 . S
C556 N553 1.279 . S
C556 C555 1.358 . S
C556 H559 0.930 . S
C557 C554 1.348 . S
C557 C555 1.356 . S
H558 C552 0.930 . S
H559 C556 0.930 . S
C560 C562 1.348 . S
C560 C563 1.356 . S
C560 O590 1.325 . S
N561 C564 1.314 . S
N561 C565 1.279 . S
C562 C560 1.348 . S
C562 C564 1.353 . S
C562 H604 0.929 . S
C563 C560 1.356 . S
C563 C565 1.358 . S
C563 H605 0.930 . S
C564 N561 1.314 . S
C564 C562 1.353 . S
C564 H606 0.930 . S
C565 N561 1.279 . S
C565 C563 1.358 . S
C565 H607 0.930 . S
C566 C567 1.348 . S
C566 C568 1.356 . S
C566 O591 1.325 . S
C567 C566 1.348 . S
C567 C569 1.353 . S
C567 H608 0.929 . S
C568 C566 1.356 . S
C568 C570 1.358 . S
C568 H609 0.930 . S
C569 C567 1.353 . S
C569 N571 1.314 . S
C569 H610 0.930 . S
C570 C568 1.358 . S
C570 N571 1.279 . S
C570 H611 0.930 . S
N571 C569 1.314 . S
N571 C570 1.279 . S
C572 C574 1.353 . S
C572 N575 1.314 . S
C572 H578 0.930 . S
C573 N575 1.279 . S
C573 C576 1.358 . S
C573 H579 0.930 . S
C574 C572 1.353 . S
C574 C577 1.348 . S
C574 H612 0.929 . S
N575 Li530 1.990 . S
N575 C572 1.314 . S
N575 C573 1.279 . S
C576 C573 1.358 . S
C576 C577 1.356 . S
C576 H613 0.930 . S
C577 C574 1.348 . S
C577 C576 1.356 . S
H578 C572 0.930 . S
H579 C573 0.930 . S
C580 N581 1.314 . S
C580 C582 1.353 . S
C580 H586 0.930 . S
N581 Li531 1.990 . S
N581 C580 1.314 . S
N581 C584 1.279 . S
C582 C580 1.353 . S
C582 C585 1.348 . S
C582 H614 0.929 . S
C583 C584 1.358 . S
C583 C585 1.356 . S
C583 H615 0.930 . S
C584 N581 1.279 . S
C584 C583 1.358 . S
C584 H587 0.930 . S
C585 C582 1.348 . S
C585 C583 1.356 . S
H586 C580 0.930 . S
H587 C584 0.930 . S
O588 Li528 1.956 . S
O588 Li529 1.970 . S
O588 Li530 1.961 . S
O588 C532 1.325 . S
O589 Li528 1.970 . S
O589 Li529 1.956 . S
O589 Li531 1.961 . S
O589 C538 1.325 . S
O590 Li528 1.961 . S
O590 Li530 1.956 . S
O590 Li531 1.970 . S
O590 C560 1.325 . S
O591 Li529 1.961 . S
O591 Li530 1.970 . S
O591 Li531 1.956 . S
O591 C566 1.325 . S
H592 C534 0.929 . S
H593 C535 0.930 . S
H594 C536 0.930 . S
H595 C537 0.930 . S
H596 C539 0.930 . S
H597 C541 0.929 . S
H598 C542 0.930 . S
H599 C543 0.930 . S
H600 C546 0.930 . S
H601 C549 0.929 . S
H602 C554 0.929 . S
H603 C555 0.930 . S
H604 C562 0.929 . S
H605 C563 0.930 . S
H606 C564 0.930 . S
H607 C565 0.930 . S
H608 C567 0.929 . S
H609 C568 0.930 . S
H610 C569 0.930 . S
H611 C570 0.930 . S
H612 C574 0.929 . S
H613 C576 0.930 . S
H614 C582 0.929 . S
H615 C583 0.930 . S
Li616 N633 1.990 . S
Li616 O676 1.956 . S
Li616 O677 1.970 . S
Li616 O678 1.961 . S
Li617 N641 1.990 . S
Li617 O676 1.970 . S
Li617 O677 1.956 . S
Li617 O679 1.961 . S
Li618 N663 1.990 . S
Li618 O676 1.961 . S
Li618 O678 1.956 . S
Li618 O679 1.970 . S
Li619 N669 1.990 . S
Li619 O677 1.961 . S
Li619 O678 1.970 . S
Li619 O679 1.956 . S
C620 C622 1.348 . S
C620 C623 1.356 . S
C620 O676 1.325 . S
N621 C624 1.314 . S
N621 C625 1.279 . S
C622 C620 1.348 . S
C622 C624 1.353 . S
C622 H680 0.929 . S
C623 C620 1.356 . S
C623 C625 1.358 . S
C623 H681 0.930 . S
C624 N621 1.314 . S
C624 C622 1.353 . S
C624 H682 0.930 . S
C625 N621 1.279 . S
C625 C623 1.358 . S
C625 H683 0.930 . S
C626 C629 1.348 . S
C626 C630 1.356 . S
C626 O677 1.325 . S
C627 N628 1.279 . S
C627 C630 1.358 . S
C627 H684 0.930 . S
N628 C627 1.279 . S
N628 C631 1.314 . S
C629 C626 1.348 . S
C629 C631 1.353 . S
C629 H685 0.929 . S
C630 C626 1.356 . S
C630 C627 1.358 . S
C630 H686 0.930 . S
C631 N628 1.314 . S
C631 C629 1.353 . S
C631 H687 0.930 . S
C632 N633 1.314 . S
C632 C637 1.353 . S
C632 H638 0.930 . S
N633 Li616 1.990 . S
N633 C632 1.314 . S
N633 C635 1.279 . S
C634 C635 1.358 . S
C634 C636 1.356 . S
C634 H688 0.930 . S
C635 N633 1.279 . S
C635 C634 1.358 . S
C635 H639 0.930 . S
C636 C634 1.356 . S
C636 C637 1.348 . S
C637 C632 1.353 . S
C637 C636 1.348 . S
C637 H689 0.929 . S
H638 C632 0.930 . S
H639 C635 0.930 . S
C640 N641 1.314 . S
C640 C642 1.353 . S
C640 H646 0.930 . S
N641 Li617 1.990 . S
N641 C640 1.314 . S
N641 C644 1.279 . S
C642 C640 1.353 . S
C642 C645 1.348 . S
C642 H690 0.929 . S
C643 C644 1.358 . S
C643 C645 1.356 . S
C643 H691 0.930 . S
C644 N641 1.279 . S
C644 C643 1.358 . S
C644 H647 0.930 . S
C645 C642 1.348 . S
C645 C643 1.356 . S
H646 C640 0.930 . S
H647 C644 0.930 . S
C648 C650 1.348 . S
C648 C651 1.356 . S
C648 O678 1.325 . S
N649 C652 1.314 . S
N649 C653 1.279 . S
C650 C648 1.348 . S
C650 C652 1.353 . S
C650 H692 0.929 . S
C651 C648 1.356 . S
C651 C653 1.358 . S
C651 H693 0.930 . S
C652 N649 1.314 . S
C652 C650 1.353 . S
C652 H694 0.930 . S
C653 N649 1.279 . S
C653 C651 1.358 . S
C653 H695 0.930 . S
C654 C655 1.348 . S
C654 C656 1.356 . S
C654 O679 1.325 . S
C655 C654 1.348 . S
C655 C657 1.353 . S
C655 H696 0.929 . S
C656 C654 1.356 . S
C656 C658 1.358 . S
C656 H697 0.930 . S
C657 C655 1.353 . S
C657 N659 1.314 . S
C657 H698 0.930 . S
C658 C656 1.358 . S
C658 N659 1.279 . S
C658 H699 0.930 . S
N659 C657 1.314 . S
N659 C658 1.279 . S
C660 C662 1.353 . S
C660 N663 1.314 . S
C660 H666 0.930 . S
C661 N663 1.279 . S
C661 C664 1.358 . S
C661 H667 0.930 . S
C662 C660 1.353 . S
C662 C665 1.348 . S
C662 H700 0.929 . S
N663 Li618 1.990 . S
N663 C660 1.314 . S
N663 C661 1.279 . S
C664 C661 1.358 . S
C664 C665 1.356 . S
C664 H701 0.930 . S
C665 C662 1.348 . S
C665 C664 1.356 . S
H666 C660 0.930 . S
H667 C661 0.930 . S
C668 N669 1.314 . S
C668 C670 1.353 . S
C668 H674 0.930 . S
N669 Li619 1.990 . S
N669 C668 1.314 . S
N669 C672 1.279 . S
C670 C668 1.353 . S
C670 C673 1.348 . S
C670 H702 0.929 . S
C671 C672 1.358 . S
C671 C673 1.356 . S
C671 H703 0.930 . S
C672 N669 1.279 . S
C672 C671 1.358 . S
C672 H675 0.930 . S
C673 C670 1.348 . S
C673 C671 1.356 . S
H674 C668 0.930 . S
H675 C672 0.930 . S
O676 Li616 1.956 . S
O676 Li617 1.970 . S
O676 Li618 1.961 . S
O676 C620 1.325 . S
O677 Li616 1.970 . S
O677 Li617 1.956 . S
O677 Li619 1.961 . S
O677 C626 1.325 . S
O678 Li616 1.961 . S
O678 Li618 1.956 . S
O678 Li619 1.970 . S
O678 C648 1.325 . S
O679 Li617 1.961 . S
O679 Li618 1.970 . S
O679 Li619 1.956 . S
O679 C654 1.325 . S
H680 C622 0.929 . S
H681 C623 0.930 . S
H682 C624 0.930 . S
H683 C625 0.930 . S
H684 C627 0.930 . S
H685 C629 0.929 . S
H686 C630 0.930 . S
H687 C631 0.930 . S
H688 C634 0.930 . S
H689 C637 0.929 . S
H690 C642 0.929 . S
H691 C643 0.930 . S
H692 C650 0.929 . S
H693 C651 0.930 . S
H694 C652 0.930 . S
H695 C653 0.930 . S
H696 C655 0.929 . S
H697 C656 0.930 . S
H698 C657 0.930 . S
H699 C658 0.930 . S
H700 C662 0.929 . S
H701 C664 0.930 . S
H702 C670 0.929 . S
H703 C671 0.930 . S
Li704 N721 1.990 . S
Li704 O764 1.956 . S
Li704 O765 1.970 . S
Li704 O766 1.961 . S
Li705 N729 1.990 . S
Li705 O764 1.970 . S
Li705 O765 1.956 . S
Li705 O767 1.961 . S
Li706 N751 1.990 . S
Li706 O764 1.961 . S
Li706 O766 1.956 . S
Li706 O767 1.970 . S
Li707 N757 1.990 . S
Li707 O765 1.961 . S
Li707 O766 1.970 . S
Li707 O767 1.956 . S
C708 C710 1.348 . S
C708 C711 1.356 . S
C708 O764 1.325 . S
N709 C712 1.314 . S
N709 C713 1.279 . S
C710 C708 1.348 . S
C710 C712 1.353 . S
C710 H768 0.929 . S
C711 C708 1.356 . S
C711 C713 1.358 . S
C711 H769 0.930 . S
C712 N709 1.314 . S
C712 C710 1.353 . S
C712 H770 0.930 . S
C713 N709 1.279 . S
C713 C711 1.358 . S
C713 H771 0.930 . S
C714 C717 1.348 . S
C714 C718 1.356 . S
C714 O765 1.325 . S
C715 N716 1.279 . S
C715 C718 1.358 . S
C715 H772 0.930 . S
N716 C715 1.279 . S
N716 C719 1.314 . S
C717 C714 1.348 . S
C717 C719 1.353 . S
C717 H773 0.929 . S
C718 C714 1.356 . S
C718 C715 1.358 . S
C718 H774 0.930 . S
C719 N716 1.314 . S
C719 C717 1.353 . S
C719 H775 0.930 . S
C720 N721 1.314 . S
C720 C725 1.353 . S
C720 H726 0.930 . S
N721 Li704 1.990 . S
N721 C720 1.314 . S
N721 C723 1.279 . S
C722 C723 1.358 . S
C722 C724 1.356 . S
C722 H776 0.930 . S
C723 N721 1.279 . S
C723 C722 1.358 . S
C723 H727 0.930 . S
C724 C722 1.356 . S
C724 C725 1.348 . S
C725 C720 1.353 . S
C725 C724 1.348 . S
C725 H777 0.929 . S
H726 C720 0.930 . S
H727 C723 0.930 . S
C728 N729 1.314 . S
C728 C730 1.353 . S
C728 H734 0.930 . S
N729 Li705 1.990 . S
N729 C728 1.314 . S
N729 C732 1.279 . S
C730 C728 1.353 . S
C730 C733 1.348 . S
C730 H778 0.929 . S
C731 C732 1.358 . S
C731 C733 1.356 . S
C731 H779 0.930 . S
C732 N729 1.279 . S
C732 C731 1.358 . S
C732 H735 0.930 . S
C733 C730 1.348 . S
C733 C731 1.356 . S
H734 C728 0.930 . S
H735 C732 0.930 . S
C736 C738 1.348 . S
C736 C739 1.356 . S
C736 O766 1.325 . S
N737 C740 1.314 . S
N737 C741 1.279 . S
C738 C736 1.348 . S
C738 C740 1.353 . S
C738 H780 0.929 . S
C739 C736 1.356 . S
C739 C741 1.358 . S
C739 H781 0.930 . S
C740 N737 1.314 . S
C740 C738 1.353 . S
C740 H782 0.930 . S
C741 N737 1.279 . S
C741 C739 1.358 . S
C741 H783 0.930 . S
C742 C743 1.348 . S
C742 C744 1.356 . S
C742 O767 1.325 . S
C743 C742 1.348 . S
C743 C745 1.353 . S
C743 H784 0.929 . S
C744 C742 1.356 . S
C744 C746 1.358 . S
C744 H785 0.930 . S
C745 C743 1.353 . S
C745 N747 1.314 . S
C745 H786 0.930 . S
C746 C744 1.358 . S
C746 N747 1.279 . S
C746 H787 0.930 . S
N747 C745 1.314 . S
N747 C746 1.279 . S
C748 C750 1.353 . S
C748 N751 1.314 . S
C748 H754 0.930 . S
C749 N751 1.279 . S
C749 C752 1.358 . S
C749 H755 0.930 . S
C750 C748 1.353 . S
C750 C753 1.348 . S
C750 H788 0.929 . S
N751 Li706 1.990 . S
N751 C748 1.314 . S
N751 C749 1.279 . S
C752 C749 1.358 . S
C752 C753 1.356 . S
C752 H789 0.930 . S
C753 C750 1.348 . S
C753 C752 1.356 . S
H754 C748 0.930 . S
H755 C749 0.930 . S
C756 N757 1.314 . S
C756 C758 1.353 . S
C756 H762 0.930 . S
N757 Li707 1.990 . S
N757 C756 1.314 . S
N757 C760 1.279 . S
C758 C756 1.353 . S
C758 C761 1.348 . S
C758 H790 0.929 . S
C759 C760 1.358 . S
C759 C761 1.356 . S
C759 H791 0.930 . S
C760 N757 1.279 . S
C760 C759 1.358 . S
C760 H763 0.930 . S
C761 C758 1.348 . S
C761 C759 1.356 . S
H762 C756 0.930 . S
H763 C760 0.930 . S
O764 Li704 1.956 . S
O764 Li705 1.970 . S
O764 Li706 1.961 . S
O764 C708 1.325 . S
O765 Li704 1.970 . S
O765 Li705 1.956 . S
O765 Li707 1.961 . S
O765 C714 1.325 . S
O766 Li704 1.961 . S
O766 Li706 1.956 . S
O766 Li707 1.970 . S
O766 C736 1.325 . S
O767 Li705 1.961 . S
O767 Li706 1.970 . S
O767 Li707 1.956 . S
O767 C742 1.325 . S
H768 C710 0.929 . S
H769 C711 0.930 . S
H770 C712 0.930 . S
H771 C713 0.930 . S
H772 C715 0.930 . S
H773 C717 0.929 . S
H774 C718 0.930 . S
H775 C719 0.930 . S
H776 C722 0.930 . S
H777 C725 0.929 . S
H778 C730 0.929 . S
H779 C731 0.930 . S
H780 C738 0.929 . S
H781 C739 0.930 . S
H782 C740 0.930 . S
H783 C741 0.930 . S
H784 C743 0.929 . S
H785 C744 0.930 . S
H786 C745 0.930 . S
H787 C746 0.930 . S
H788 C750 0.929 . S
H789 C752 0.930 . S
H790 C758 0.929 . S
H791 C759 0.930 . S
Li792 N809 1.990 . S
Li792 O852 1.956 . S
Li792 O853 1.970 . S
Li792 O854 1.961 . S
Li793 N817 1.990 . S
Li793 O852 1.970 . S
Li793 O853 1.956 . S
Li793 O855 1.961 . S
Li794 N839 1.990 . S
Li794 O852 1.961 . S
Li794 O854 1.956 . S
Li794 O855 1.970 . S
Li795 N845 1.990 . S
Li795 O853 1.961 . S
Li795 O854 1.970 . S
Li795 O855 1.956 . S
C796 C798 1.348 . S
C796 C799 1.356 . S
C796 O852 1.325 . S
N797 C800 1.314 . S
N797 C801 1.279 . S
C798 C796 1.348 . S
C798 C800 1.353 . S
C798 H856 0.929 . S
C799 C796 1.356 . S
C799 C801 1.358 . S
C799 H857 0.930 . S
C800 N797 1.314 . S
C800 C798 1.353 . S
C800 H858 0.930 . S
C801 N797 1.279 . S
C801 C799 1.358 . S
C801 H859 0.930 . S
C802 C805 1.348 . S
C802 C806 1.356 . S
C802 O853 1.325 . S
C803 N804 1.279 . S
C803 C806 1.358 . S
C803 H860 0.930 . S
N804 C803 1.279 . S
N804 C807 1.314 . S
C805 C802 1.348 . S
C805 C807 1.353 . S
C805 H861 0.929 . S
C806 C802 1.356 . S
C806 C803 1.358 . S
C806 H862 0.930 . S
C807 N804 1.314 . S
C807 C805 1.353 . S
C807 H863 0.930 . S
C808 N809 1.314 . S
C808 C813 1.353 . S
C808 H814 0.930 . S
N809 Li792 1.990 . S
N809 C808 1.314 . S
N809 C811 1.279 . S
C810 C811 1.358 . S
C810 C812 1.356 . S
C810 H864 0.930 . S
C811 N809 1.279 . S
C811 C810 1.358 . S
C811 H815 0.930 . S
C812 C810 1.356 . S
C812 C813 1.348 . S
C813 C808 1.353 . S
C813 C812 1.348 . S
C813 H865 0.929 . S
H814 C808 0.930 . S
H815 C811 0.930 . S
C816 N817 1.314 . S
C816 C818 1.353 . S
C816 H822 0.930 . S
N817 Li793 1.990 . S
N817 C816 1.314 . S
N817 C820 1.279 . S
C818 C816 1.353 . S
C818 C821 1.348 . S
C818 H866 0.929 . S
C819 C820 1.358 . S
C819 C821 1.356 . S
C819 H867 0.930 . S
C820 N817 1.279 . S
C820 C819 1.358 . S
C820 H823 0.930 . S
C821 C818 1.348 . S
C821 C819 1.356 . S
H822 C816 0.930 . S
H823 C820 0.930 . S
C824 C826 1.348 . S
C824 C827 1.356 . S
C824 O854 1.325 . S
N825 C828 1.314 . S
N825 C829 1.279 . S
C826 C824 1.348 . S
C826 C828 1.353 . S
C826 H868 0.929 . S
C827 C824 1.356 . S
C827 C829 1.358 . S
C827 H869 0.930 . S
C828 N825 1.314 . S
C828 C826 1.353 . S
C828 H870 0.930 . S
C829 N825 1.279 . S
C829 C827 1.358 . S
C829 H871 0.930 . S
C830 C831 1.348 . S
C830 C832 1.356 . S
C830 O855 1.325 . S
C831 C830 1.348 . S
C831 C833 1.353 . S
C831 H872 0.929 . S
C832 C830 1.356 . S
C832 C834 1.358 . S
C832 H873 0.930 . S
C833 C831 1.353 . S
C833 N835 1.314 . S
C833 H874 0.930 . S
C834 C832 1.358 . S
C834 N835 1.279 . S
C834 H875 0.930 . S
N835 C833 1.314 . S
N835 C834 1.279 . S
C836 C838 1.353 . S
C836 N839 1.314 . S
C836 H842 0.930 . S
C837 N839 1.279 . S
C837 C840 1.358 . S
C837 H843 0.930 . S
C838 C836 1.353 . S
C838 C841 1.348 . S
C838 H876 0.929 . S
N839 Li794 1.990 . S
N839 C836 1.314 . S
N839 C837 1.279 . S
C840 C837 1.358 . S
C840 C841 1.356 . S
C840 H877 0.930 . S
C841 C838 1.348 . S
C841 C840 1.356 . S
H842 C836 0.930 . S
H843 C837 0.930 . S
C844 N845 1.314 . S
C844 C846 1.353 . S
C844 H850 0.930 . S
N845 Li795 1.990 . S
N845 C844 1.314 . S
N845 C848 1.279 . S
C846 C844 1.353 . S
C846 C849 1.348 . S
C846 H878 0.929 . S
C847 C848 1.358 . S
C847 C849 1.356 . S
C847 H879 0.930 . S
C848 N845 1.279 . S
C848 C847 1.358 . S
C848 H851 0.930 . S
C849 C846 1.348 . S
C849 C847 1.356 . S
H850 C844 0.930 . S
H851 C848 0.930 . S
O852 Li792 1.956 . S
O852 Li793 1.970 . S
O852 Li794 1.961 . S
O852 C796 1.325 . S
O853 Li792 1.970 . S
O853 Li793 1.956 . S
O853 Li795 1.961 . S
O853 C802 1.325 . S
O854 Li792 1.961 . S
O854 Li794 1.956 . S
O854 Li795 1.970 . S
O854 C824 1.325 . S
O855 Li793 1.961 . S
O855 Li794 1.970 . S
O855 Li795 1.956 . S
O855 C830 1.325 . S
H856 C798 0.929 . S
H857 C799 0.930 . S
H858 C800 0.930 . S
H859 C801 0.930 . S
H860 C803 0.930 . S
H861 C805 0.929 . S
H862 C806 0.930 . S
H863 C807 0.930 . S
H864 C810 0.930 . S
H865 C813 0.929 . S
H866 C818 0.929 . S
H867 C819 0.930 . S
H868 C826 0.929 . S
H869 C827 0.930 . S
H870 C828 0.930 . S
H871 C829 0.930 . S
H872 C831 0.929 . S
H873 C832 0.930 . S
H874 C833 0.930 . S
H875 C834 0.930 . S
H876 C838 0.929 . S
H877 C840 0.930 . S
H878 C846 0.929 . S
H879 C847 0.930 . S
Li880 N897 1.990 . S
Li880 O940 1.956 . S
Li880 O941 1.970 . S
Li880 O942 1.961 . S
Li881 N905 1.990 . S
Li881 O940 1.970 . S
Li881 O941 1.956 . S
Li881 O943 1.961 . S
Li882 N927 1.990 . S
Li882 O940 1.961 . S
Li882 O942 1.956 . S
Li882 O943 1.970 . S
Li883 N933 1.990 . S
Li883 O941 1.961 . S
Li883 O942 1.970 . S
Li883 O943 1.956 . S
C884 C886 1.348 . S
C884 C887 1.356 . S
C884 O940 1.325 . S
N885 C888 1.314 . S
N885 C889 1.279 . S
C886 C884 1.348 . S
C886 C888 1.353 . S
C886 H944 0.929 . S
C887 C884 1.356 . S
C887 C889 1.358 . S
C887 H945 0.930 . S
C888 N885 1.314 . S
C888 C886 1.353 . S
C888 H946 0.930 . S
C889 N885 1.279 . S
C889 C887 1.358 . S
C889 H947 0.930 . S
C890 C893 1.348 . S
C890 C894 1.356 . S
C890 O941 1.325 . S
C891 N892 1.279 . S
C891 C894 1.358 . S
C891 H948 0.930 . S
N892 C891 1.279 . S
N892 C895 1.314 . S
C893 C890 1.348 . S
C893 C895 1.353 . S
C893 H949 0.929 . S
C894 C890 1.356 . S
C894 C891 1.358 . S
C894 H950 0.930 . S
C895 N892 1.314 . S
C895 C893 1.353 . S
C895 H951 0.930 . S
C896 N897 1.314 . S
C896 C901 1.353 . S
C896 H902 0.930 . S
N897 Li880 1.990 . S
N897 C896 1.314 . S
N897 C899 1.279 . S
C898 C899 1.358 . S
C898 C900 1.356 . S
C898 H952 0.930 . S
C899 N897 1.279 . S
C899 C898 1.358 . S
C899 H903 0.930 . S
C900 C898 1.356 . S
C900 C901 1.348 . S
C901 C896 1.353 . S
C901 C900 1.348 . S
C901 H953 0.929 . S
H902 C896 0.930 . S
H903 C899 0.930 . S
C904 N905 1.314 . S
C904 C906 1.353 . S
C904 H910 0.930 . S
N905 Li881 1.990 . S
N905 C904 1.314 . S
N905 C908 1.279 . S
C906 C904 1.353 . S
C906 C909 1.348 . S
C906 H954 0.929 . S
C907 C908 1.358 . S
C907 C909 1.356 . S
C907 H955 0.930 . S
C908 N905 1.279 . S
C908 C907 1.358 . S
C908 H911 0.930 . S
C909 C906 1.348 . S
C909 C907 1.356 . S
H910 C904 0.930 . S
H911 C908 0.930 . S
C912 C914 1.348 . S
C912 C915 1.356 . S
C912 O942 1.325 . S
N913 C916 1.314 . S
N913 C917 1.279 . S
C914 C912 1.348 . S
C914 C916 1.353 . S
C914 H956 0.929 . S
C915 C912 1.356 . S
C915 C917 1.358 . S
C915 H957 0.930 . S
C916 N913 1.314 . S
C916 C914 1.353 . S
C916 H958 0.930 . S
C917 N913 1.279 . S
C917 C915 1.358 . S
C917 H959 0.930 . S
C918 C919 1.348 . S
C918 C920 1.356 . S
C918 O943 1.325 . S
C919 C918 1.348 . S
C919 C921 1.353 . S
C919 H960 0.929 . S
C920 C918 1.356 . S
C920 C922 1.358 . S
C920 H961 0.930 . S
C921 C919 1.353 . S
C921 N923 1.314 . S
C921 H962 0.930 . S
C922 C920 1.358 . S
C922 N923 1.279 . S
C922 H963 0.930 . S
N923 C921 1.314 . S
N923 C922 1.279 . S
C924 C926 1.353 . S
C924 N927 1.314 . S
C924 H930 0.930 . S
C925 N927 1.279 . S
C925 C928 1.358 . S
C925 H931 0.930 . S
C926 C924 1.353 . S
C926 C929 1.348 . S
C926 H964 0.929 . S
N927 Li882 1.990 . S
N927 C924 1.314 . S
N927 C925 1.279 . S
C928 C925 1.358 . S
C928 C929 1.356 . S
C928 H965 0.930 . S
C929 C926 1.348 . S
C929 C928 1.356 . S
H930 C924 0.930 . S
H931 C925 0.930 . S
C932 N933 1.314 . S
C932 C934 1.353 . S
C932 H938 0.930 . S
N933 Li883 1.990 . S
N933 C932 1.314 . S
N933 C936 1.279 . S
C934 C932 1.353 . S
C934 C937 1.348 . S
C934 H966 0.929 . S
C935 C936 1.358 . S
C935 C937 1.356 . S
C935 H967 0.930 . S
C936 N933 1.279 . S
C936 C935 1.358 . S
C936 H939 0.930 . S
C937 C934 1.348 . S
C937 C935 1.356 . S
H938 C932 0.930 . S
H939 C936 0.930 . S
O940 Li880 1.956 . S
O940 Li881 1.970 . S
O940 Li882 1.961 . S
O940 C884 1.325 . S
O941 Li880 1.970 . S
O941 Li881 1.956 . S
O941 Li883 1.961 . S
O941 C890 1.325 . S
O942 Li880 1.961 . S
O942 Li882 1.956 . S
O942 Li883 1.970 . S
O942 C912 1.325 . S
O943 Li881 1.961 . S
O943 Li882 1.970 . S
O943 Li883 1.956 . S
O943 C918 1.325 . S
H944 C886 0.929 . S
H945 C887 0.930 . S
H946 C888 0.930 . S
H947 C889 0.930 . S
H948 C891 0.930 . S
H949 C893 0.929 . S
H950 C894 0.930 . S
H951 C895 0.930 . S
H952 C898 0.930 . S
H953 C901 0.929 . S
H954 C906 0.929 . S
H955 C907 0.930 . S
H956 C914 0.929 . S
H957 C915 0.930 . S
H958 C916 0.930 . S
H959 C917 0.930 . S
H960 C919 0.929 . S
H961 C920 0.930 . S
H962 C921 0.930 . S
H963 C922 0.930 . S
H964 C926 0.929 . S
H965 C928 0.930 . S
H966 C934 0.929 . S
H967 C935 0.930 . S
Li968 N985 1.990 . S
Li968 O1028 1.956 . S
Li968 O1029 1.970 . S
Li968 O1030 1.961 . S
Li969 N993 1.990 . S
Li969 O1028 1.970 . S
Li969 O1029 1.956 . S
Li969 O1031 1.961 . S
Li970 N1015 1.990 . S
Li970 O1028 1.961 . S
Li970 O1030 1.956 . S
Li970 O1031 1.970 . S
Li971 N1021 1.990 . S
Li971 O1029 1.961 . S
Li971 O1030 1.970 . S
Li971 O1031 1.956 . S
C972 C974 1.348 . S
C972 C975 1.356 . S
C972 O1028 1.325 . S
N973 C976 1.314 . S
N973 C977 1.279 . S
C974 C972 1.348 . S
C974 C976 1.353 . S
C974 H1032 0.929 . S
C975 C972 1.356 . S
C975 C977 1.358 . S
C975 H1033 0.930 . S
C976 N973 1.314 . S
C976 C974 1.353 . S
C976 H1034 0.930 . S
C977 N973 1.279 . S
C977 C975 1.358 . S
C977 H1035 0.930 . S
C978 C981 1.348 . S
C978 C982 1.356 . S
C978 O1029 1.325 . S
C979 N980 1.279 . S
C979 C982 1.358 . S
C979 H1036 0.930 . S
N980 C979 1.279 . S
N980 C983 1.314 . S
C981 C978 1.348 . S
C981 C983 1.353 . S
C981 H1037 0.929 . S
C982 C978 1.356 . S
C982 C979 1.358 . S
C982 H1038 0.930 . S
C983 N980 1.314 . S
C983 C981 1.353 . S
C983 H1039 0.930 . S
C984 N985 1.314 . S
C984 C989 1.353 . S
C984 H990 0.930 . S
N985 Li968 1.990 . S
N985 C984 1.314 . S
N985 C987 1.279 . S
C986 C987 1.358 . S
C986 C988 1.356 . S
C986 H1040 0.930 . S
C987 N985 1.279 . S
C987 C986 1.358 . S
C987 H991 0.930 . S
C988 C986 1.356 . S
C988 C989 1.348 . S
C989 C984 1.353 . S
C989 C988 1.348 . S
C989 H1041 0.929 . S
H990 C984 0.930 . S
H991 C987 0.930 . S
C992 N993 1.314 . S
C992 C994 1.353 . S
C992 H998 0.930 . S
N993 Li969 1.990 . S
N993 C992 1.314 . S
N993 C996 1.279 . S
C994 C992 1.353 . S
C994 C997 1.348 . S
C994 H1042 0.929 . S
C995 C996 1.358 . S
C995 C997 1.356 . S
C995 H1043 0.930 . S
C996 N993 1.279 . S
C996 C995 1.358 . S
C996 H999 0.930 . S
C997 C994 1.348 . S
C997 C995 1.356 . S
H998 C992 0.930 . S
H999 C996 0.930 . S
C1000 C1002 1.348 . S
C1000 C1003 1.356 . S
C1000 O1030 1.325 . S
N1001 C1004 1.314 . S
N1001 C1005 1.279 . S
C1002 C1000 1.348 . S
C1002 C1004 1.353 . S
C1002 H1044 0.929 . S
C1003 C1000 1.356 . S
C1003 C1005 1.358 . S
C1003 H1045 0.930 . S
C1004 N1001 1.314 . S
C1004 C1002 1.353 . S
C1004 H1046 0.930 . S
C1005 N1001 1.279 . S
C1005 C1003 1.358 . S
C1005 H1047 0.930 . S
C1006 C1007 1.348 . S
C1006 C1008 1.356 . S
C1006 O1031 1.325 . S
C1007 C1006 1.348 . S
C1007 C1009 1.353 . S
C1007 H1048 0.929 . S
C1008 C1006 1.356 . S
C1008 C1010 1.358 . S
C1008 H1049 0.930 . S
C1009 C1007 1.353 . S
C1009 N1011 1.314 . S
C1009 H1050 0.930 . S
C1010 C1008 1.358 . S
C1010 N1011 1.279 . S
C1010 H1051 0.930 . S
N1011 C1009 1.314 . S
N1011 C1010 1.279 . S
C1012 C1014 1.353 . S
C1012 N1015 1.314 . S
C1012 H1018 0.930 . S
C1013 N1015 1.279 . S
C1013 C1016 1.358 . S
C1013 H1019 0.930 . S
C1014 C1012 1.353 . S
C1014 C1017 1.348 . S
C1014 H1052 0.929 . S
N1015 Li970 1.990 . S
N1015 C1012 1.314 . S
N1015 C1013 1.279 . S
C1016 C1013 1.358 . S
C1016 C1017 1.356 . S
C1016 H1053 0.930 . S
C1017 C1014 1.348 . S
C1017 C1016 1.356 . S
H1018 C1012 0.930 . S
H1019 C1013 0.930 . S
C1020 N1021 1.314 . S
C1020 C1022 1.353 . S
C1020 H1026 0.930 . S
N1021 Li971 1.990 . S
N1021 C1020 1.314 . S
N1021 C1024 1.279 . S
C1022 C1020 1.353 . S
C1022 C1025 1.348 . S
C1022 H1054 0.929 . S
C1023 C1024 1.358 . S
C1023 C1025 1.356 . S
C1023 H1055 0.930 . S
C1024 N1021 1.279 . S
C1024 C1023 1.358 . S
C1024 H1027 0.930 . S
C1025 C1022 1.348 . S
C1025 C1023 1.356 . S
H1026 C1020 0.930 . S
H1027 C1024 0.930 . S
O1028 Li968 1.956 . S
O1028 Li969 1.970 . S
O1028 Li970 1.961 . S
O1028 C972 1.325 . S
O1029 Li968 1.970 . S
O1029 Li969 1.956 . S
O1029 Li971 1.961 . S
O1029 C978 1.325 . S
O1030 Li968 1.961 . S
O1030 Li970 1.956 . S
O1030 Li971 1.970 . S
O1030 C1000 1.325 . S
O1031 Li969 1.961 . S
O1031 Li970 1.970 . S
O1031 Li971 1.956 . S
O1031 C1006 1.325 . S
H1032 C974 0.929 . S
H1033 C975 0.930 . S
H1034 C976 0.930 . S
H1035 C977 0.930 . S
H1036 C979 0.930 . S
H1037 C981 0.929 . S
H1038 C982 0.930 . S
H1039 C983 0.930 . S
H1040 C986 0.930 . S
H1041 C989 0.929 . S
H1042 C994 0.929 . S
H1043 C995 0.930 . S
H1044 C1002 0.929 . S
H1045 C1003 0.930 . S
H1046 C1004 0.930 . S
H1047 C1005 0.930 . S
H1048 C1007 0.929 . S
H1049 C1008 0.930 . S
H1050 C1009 0.930 . S
H1051 C1010 0.930 . S
H1052 C1014 0.929 . S
H1053 C1016 0.930 . S
H1054 C1022 0.929 . S
H1055 C1023 0.930 . S
Li1056 N1073 1.990 . S
Li1056 O1116 1.956 . S
Li1056 O1117 1.970 . S
Li1056 O1118 1.961 . S
Li1057 N1081 1.990 . S
Li1057 O1116 1.970 . S
Li1057 O1117 1.956 . S
Li1057 O1119 1.961 . S
Li1058 N1103 1.990 . S
Li1058 O1116 1.961 . S
Li1058 O1118 1.956 . S
Li1058 O1119 1.970 . S
Li1059 N1109 1.990 . S
Li1059 O1117 1.961 . S
Li1059 O1118 1.970 . S
Li1059 O1119 1.956 . S
C1060 C1062 1.348 . S
C1060 C1063 1.356 . S
C1060 O1116 1.325 . S
N1061 C1064 1.314 . S
N1061 C1065 1.279 . S
C1062 C1060 1.348 . S
C1062 C1064 1.353 . S
C1062 H1120 0.929 . S
C1063 C1060 1.356 . S
C1063 C1065 1.358 . S
C1063 H1121 0.930 . S
C1064 N1061 1.314 . S
C1064 C1062 1.353 . S
C1064 H1122 0.930 . S
C1065 N1061 1.279 . S
C1065 C1063 1.358 . S
C1065 H1123 0.930 . S
C1066 C1069 1.348 . S
C1066 C1070 1.356 . S
C1066 O1117 1.325 . S
C1067 N1068 1.279 . S
C1067 C1070 1.358 . S
C1067 H1124 0.930 . S
N1068 C1067 1.279 . S
N1068 C1071 1.314 . S
C1069 C1066 1.348 . S
C1069 C1071 1.353 . S
C1069 H1125 0.929 . S
C1070 C1066 1.356 . S
C1070 C1067 1.358 . S
C1070 H1126 0.930 . S
C1071 N1068 1.314 . S
C1071 C1069 1.353 . S
C1071 H1127 0.930 . S
C1072 N1073 1.314 . S
C1072 C1077 1.353 . S
C1072 H1078 0.930 . S
N1073 Li1056 1.990 . S
N1073 C1072 1.314 . S
N1073 C1075 1.279 . S
C1074 C1075 1.358 . S
C1074 C1076 1.356 . S
C1074 H1128 0.930 . S
C1075 N1073 1.279 . S
C1075 C1074 1.358 . S
C1075 H1079 0.930 . S
C1076 C1074 1.356 . S
C1076 C1077 1.348 . S
C1077 C1072 1.353 . S
C1077 C1076 1.348 . S
C1077 H1129 0.929 . S
H1078 C1072 0.930 . S
H1079 C1075 0.930 . S
C1080 N1081 1.314 . S
C1080 C1082 1.353 . S
C1080 H1086 0.930 . S
N1081 Li1057 1.990 . S
N1081 C1080 1.314 . S
N1081 C1084 1.279 . S
C1082 C1080 1.353 . S
C1082 C1085 1.348 . S
C1082 H1130 0.929 . S
C1083 C1084 1.358 . S
C1083 C1085 1.356 . S
C1083 H1131 0.930 . S
C1084 N1081 1.279 . S
C1084 C1083 1.358 . S
C1084 H1087 0.930 . S
C1085 C1082 1.348 . S
C1085 C1083 1.356 . S
H1086 C1080 0.930 . S
H1087 C1084 0.930 . S
C1088 C1090 1.348 . S
C1088 C1091 1.356 . S
C1088 O1118 1.325 . S
N1089 C1092 1.314 . S
N1089 C1093 1.279 . S
C1090 C1088 1.348 . S
C1090 C1092 1.353 . S
C1090 H1132 0.929 . S
C1091 C1088 1.356 . S
C1091 C1093 1.358 . S
C1091 H1133 0.930 . S
C1092 N1089 1.314 . S
C1092 C1090 1.353 . S
C1092 H1134 0.930 . S
C1093 N1089 1.279 . S
C1093 C1091 1.358 . S
C1093 H1135 0.930 . S
C1094 C1095 1.348 . S
C1094 C1096 1.356 . S
C1094 O1119 1.325 . S
C1095 C1094 1.348 . S
C1095 C1097 1.353 . S
C1095 H1136 0.929 . S
C1096 C1094 1.356 . S
C1096 C1098 1.358 . S
C1096 H1137 0.930 . S
C1097 C1095 1.353 . S
C1097 N1099 1.314 . S
C1097 H1138 0.930 . S
C1098 C1096 1.358 . S
C1098 N1099 1.279 . S
C1098 H1139 0.930 . S
N1099 C1097 1.314 . S
N1099 C1098 1.279 . S
C1100 C1102 1.353 . S
C1100 N1103 1.314 . S
C1100 H1106 0.930 . S
C1101 N1103 1.279 . S
C1101 C1104 1.358 . S
C1101 H1107 0.930 . S
C1102 C1100 1.353 . S
C1102 C1105 1.348 . S
C1102 H1140 0.929 . S
N1103 Li1058 1.990 . S
N1103 C1100 1.314 . S
N1103 C1101 1.279 . S
C1104 C1101 1.358 . S
C1104 C1105 1.356 . S
C1104 H1141 0.930 . S
C1105 C1102 1.348 . S
C1105 C1104 1.356 . S
H1106 C1100 0.930 . S
H1107 C1101 0.930 . S
C1108 N1109 1.314 . S
C1108 C1110 1.353 . S
C1108 H1114 0.930 . S
N1109 Li1059 1.990 . S
N1109 C1108 1.314 . S
N1109 C1112 1.279 . S
C1110 C1108 1.353 . S
C1110 C1113 1.348 . S
C1110 H1142 0.929 . S
C1111 C1112 1.358 . S
C1111 C1113 1.356 . S
C1111 H1143 0.930 . S
C1112 N1109 1.279 . S
C1112 C1111 1.358 . S
C1112 H1115 0.930 . S
C1113 C1110 1.348 . S
C1113 C1111 1.356 . S
H1114 C1108 0.930 . S
H1115 C1112 0.930 . S
O1116 Li1056 1.956 . S
O1116 Li1057 1.970 . S
O1116 Li1058 1.961 . S
O1116 C1060 1.325 . S
O1117 Li1056 1.970 . S
O1117 Li1057 1.956 . S
O1117 Li1059 1.961 . S
O1117 C1066 1.325 . S
O1118 Li1056 1.961 . S
O1118 Li1058 1.956 . S
O1118 Li1059 1.970 . S
O1118 C1088 1.325 . S
O1119 Li1057 1.961 . S
O1119 Li1058 1.970 . S
O1119 Li1059 1.956 . S
O1119 C1094 1.325 . S
H1120 C1062 0.929 . S
H1121 C1063 0.930 . S
H1122 C1064 0.930 . S
H1123 C1065 0.930 . S
H1124 C1067 0.930 . S
H1125 C1069 0.929 . S
H1126 C1070 0.930 . S
H1127 C1071 0.930 . S
H1128 C1074 0.930 . S
H1129 C1077 0.929 . S
H1130 C1082 0.929 . S
H1131 C1083 0.930 . S
H1132 C1090 0.929 . S
H1133 C1091 0.930 . S
H1134 C1092 0.930 . S
H1135 C1093 0.930 . S
H1136 C1095 0.929 . S
H1137 C1096 0.930 . S
H1138 C1097 0.930 . S
H1139 C1098 0.930 . S
H1140 C1102 0.929 . S
H1141 C1104 0.930 . S
H1142 C1110 0.929 . S
H1143 C1111 0.930 . S
Li1144 N1161 1.990 . S
Li1144 O1204 1.956 . S
Li1144 O1205 1.970 . S
Li1144 O1206 1.961 . S
Li1145 N1169 1.990 . S
Li1145 O1204 1.970 . S
Li1145 O1205 1.956 . S
Li1145 O1207 1.961 . S
Li1146 N1191 1.990 . S
Li1146 O1204 1.961 . S
Li1146 O1206 1.956 . S
Li1146 O1207 1.970 . S
Li1147 N1197 1.990 . S
Li1147 O1205 1.961 . S
Li1147 O1206 1.970 . S
Li1147 O1207 1.956 . S
C1148 C1150 1.348 . S
C1148 C1151 1.356 . S
C1148 O1204 1.325 . S
N1149 C1152 1.314 . S
N1149 C1153 1.279 . S
C1150 C1148 1.348 . S
C1150 C1152 1.353 . S
C1150 H1208 0.929 . S
C1151 C1148 1.356 . S
C1151 C1153 1.358 . S
C1151 H1209 0.930 . S
C1152 N1149 1.314 . S
C1152 C1150 1.353 . S
C1152 H1210 0.930 . S
C1153 N1149 1.279 . S
C1153 C1151 1.358 . S
C1153 H1211 0.930 . S
C1154 C1157 1.348 . S
C1154 C1158 1.356 . S
C1154 O1205 1.325 . S
C1155 N1156 1.279 . S
C1155 C1158 1.358 . S
C1155 H1212 0.930 . S
N1156 C1155 1.279 . S
N1156 C1159 1.314 . S
C1157 C1154 1.348 . S
C1157 C1159 1.353 . S
C1157 H1213 0.929 . S
C1158 C1154 1.356 . S
C1158 C1155 1.358 . S
C1158 H1214 0.930 . S
C1159 N1156 1.314 . S
C1159 C1157 1.353 . S
C1159 H1215 0.930 . S
C1160 N1161 1.314 . S
C1160 C1165 1.353 . S
C1160 H1166 0.930 . S
N1161 Li1144 1.990 . S
N1161 C1160 1.314 . S
N1161 C1163 1.279 . S
C1162 C1163 1.358 . S
C1162 C1164 1.356 . S
C1162 H1216 0.930 . S
C1163 N1161 1.279 . S
C1163 C1162 1.358 . S
C1163 H1167 0.930 . S
C1164 C1162 1.356 . S
C1164 C1165 1.348 . S
C1165 C1160 1.353 . S
C1165 C1164 1.348 . S
C1165 H1217 0.929 . S
H1166 C1160 0.930 . S
H1167 C1163 0.930 . S
C1168 N1169 1.314 . S
C1168 C1170 1.353 . S
C1168 H1174 0.930 . S
N1169 Li1145 1.990 . S
N1169 C1168 1.314 . S
N1169 C1172 1.279 . S
C1170 C1168 1.353 . S
C1170 C1173 1.348 . S
C1170 H1218 0.929 . S
C1171 C1172 1.358 . S
C1171 C1173 1.356 . S
C1171 H1219 0.930 . S
C1172 N1169 1.279 . S
C1172 C1171 1.358 . S
C1172 H1175 0.930 . S
C1173 C1170 1.348 . S
C1173 C1171 1.356 . S
H1174 C1168 0.930 . S
H1175 C1172 0.930 . S
C1176 C1178 1.348 . S
C1176 C1179 1.356 . S
C1176 O1206 1.325 . S
N1177 C1180 1.314 . S
N1177 C1181 1.279 . S
C1178 C1176 1.348 . S
C1178 C1180 1.353 . S
C1178 H1220 0.929 . S
C1179 C1176 1.356 . S
C1179 C1181 1.358 . S
C1179 H1221 0.930 . S
C1180 N1177 1.314 . S
C1180 C1178 1.353 . S
C1180 H1222 0.930 . S
C1181 N1177 1.279 . S
C1181 C1179 1.358 . S
C1181 H1223 0.930 . S
C1182 C1183 1.348 . S
C1182 C1184 1.356 . S
C1182 O1207 1.325 . S
C1183 C1182 1.348 . S
C1183 C1185 1.353 . S
C1183 H1224 0.929 . S
C1184 C1182 1.356 . S
C1184 C1186 1.358 . S
C1184 H1225 0.930 . S
C1185 C1183 1.353 . S
C1185 N1187 1.314 . S
C1185 H1226 0.930 . S
C1186 C1184 1.358 . S
C1186 N1187 1.279 . S
C1186 H1227 0.930 . S
N1187 C1185 1.314 . S
N1187 C1186 1.279 . S
C1188 C1190 1.353 . S
C1188 N1191 1.314 . S
C1188 H1194 0.930 . S
C1189 N1191 1.279 . S
C1189 C1192 1.358 . S
C1189 H1195 0.930 . S
C1190 C1188 1.353 . S
C1190 C1193 1.348 . S
C1190 H1228 0.929 . S
N1191 Li1146 1.990 . S
N1191 C1188 1.314 . S
N1191 C1189 1.279 . S
C1192 C1189 1.358 . S
C1192 C1193 1.356 . S
C1192 H1229 0.930 . S
C1193 C1190 1.348 . S
C1193 C1192 1.356 . S
H1194 C1188 0.930 . S
H1195 C1189 0.930 . S
C1196 N1197 1.314 . S
C1196 C1198 1.353 . S
C1196 H1202 0.930 . S
N1197 Li1147 1.990 . S
N1197 C1196 1.314 . S
N1197 C1200 1.279 . S
C1198 C1196 1.353 . S
C1198 C1201 1.348 . S
C1198 H1230 0.929 . S
C1199 C1200 1.358 . S
C1199 C1201 1.356 . S
C1199 H1231 0.930 . S
C1200 N1197 1.279 . S
C1200 C1199 1.358 . S
C1200 H1203 0.930 . S
C1201 C1198 1.348 . S
C1201 C1199 1.356 . S
H1202 C1196 0.930 . S
H1203 C1200 0.930 . S
O1204 Li1144 1.956 . S
O1204 Li1145 1.970 . S
O1204 Li1146 1.961 . S
O1204 C1148 1.325 . S
O1205 Li1144 1.970 . S
O1205 Li1145 1.956 . S
O1205 Li1147 1.961 . S
O1205 C1154 1.325 . S
O1206 Li1144 1.961 . S
O1206 Li1146 1.956 . S
O1206 Li1147 1.970 . S
O1206 C1176 1.325 . S
O1207 Li1145 1.961 . S
O1207 Li1146 1.970 . S
O1207 Li1147 1.956 . S
O1207 C1182 1.325 . S
H1208 C1150 0.929 . S
H1209 C1151 0.930 . S
H1210 C1152 0.930 . S
H1211 C1153 0.930 . S
H1212 C1155 0.930 . S
H1213 C1157 0.929 . S
H1214 C1158 0.930 . S
H1215 C1159 0.930 . S
H1216 C1162 0.930 . S
H1217 C1165 0.929 . S
H1218 C1170 0.929 . S
H1219 C1171 0.930 . S
H1220 C1178 0.929 . S
H1221 C1179 0.930 . S
H1222 C1180 0.930 . S
H1223 C1181 0.930 . S
H1224 C1183 0.929 . S
H1225 C1184 0.930 . S
H1226 C1185 0.930 . S
H1227 C1186 0.930 . S
H1228 C1190 0.929 . S
H1229 C1192 0.930 . S
H1230 C1198 0.929 . S
H1231 C1199 0.930 . S
Li1232 N1249 1.990 . S
Li1232 O1292 1.956 . S
Li1232 O1293 1.970 . S
Li1232 O1294 1.961 . S
Li1233 N1257 1.990 . S
Li1233 O1292 1.970 . S
Li1233 O1293 1.956 . S
Li1233 O1295 1.961 . S
Li1234 N1279 1.990 . S
Li1234 O1292 1.961 . S
Li1234 O1294 1.956 . S
Li1234 O1295 1.970 . S
Li1235 N1285 1.990 . S
Li1235 O1293 1.961 . S
Li1235 O1294 1.970 . S
Li1235 O1295 1.956 . S
C1236 C1238 1.348 . S
C1236 C1239 1.356 . S
C1236 O1292 1.325 . S
N1237 C1240 1.314 . S
N1237 C1241 1.279 . S
C1238 C1236 1.348 . S
C1238 C1240 1.353 . S
C1238 H1296 0.929 . S
C1239 C1236 1.356 . S
C1239 C1241 1.358 . S
C1239 H1297 0.930 . S
C1240 N1237 1.314 . S
C1240 C1238 1.353 . S
C1240 H1298 0.930 . S
C1241 N1237 1.279 . S
C1241 C1239 1.358 . S
C1241 H1299 0.930 . S
C1242 C1245 1.348 . S
C1242 C1246 1.356 . S
C1242 O1293 1.325 . S
C1243 N1244 1.279 . S
C1243 C1246 1.358 . S
C1243 H1300 0.930 . S
N1244 C1243 1.279 . S
N1244 C1247 1.314 . S
C1245 C1242 1.348 . S
C1245 C1247 1.353 . S
C1245 H1301 0.929 . S
C1246 C1242 1.356 . S
C1246 C1243 1.358 . S
C1246 H1302 0.930 . S
C1247 N1244 1.314 . S
C1247 C1245 1.353 . S
C1247 H1303 0.930 . S
C1248 N1249 1.314 . S
C1248 C1253 1.353 . S
C1248 H1254 0.930 . S
N1249 Li1232 1.990 . S
N1249 C1248 1.314 . S
N1249 C1251 1.279 . S
C1250 C1251 1.358 . S
C1250 C1252 1.356 . S
C1250 H1304 0.930 . S
C1251 N1249 1.279 . S
C1251 C1250 1.358 . S
C1251 H1255 0.930 . S
C1252 C1250 1.356 . S
C1252 C1253 1.348 . S
C1253 C1248 1.353 . S
C1253 C1252 1.348 . S
C1253 H1305 0.929 . S
H1254 C1248 0.930 . S
H1255 C1251 0.930 . S
C1256 N1257 1.314 . S
C1256 C1258 1.353 . S
C1256 H1262 0.930 . S
N1257 Li1233 1.990 . S
N1257 C1256 1.314 . S
N1257 C1260 1.279 . S
C1258 C1256 1.353 . S
C1258 C1261 1.348 . S
C1258 H1306 0.929 . S
C1259 C1260 1.358 . S
C1259 C1261 1.356 . S
C1259 H1307 0.930 . S
C1260 N1257 1.279 . S
C1260 C1259 1.358 . S
C1260 H1263 0.930 . S
C1261 C1258 1.348 . S
C1261 C1259 1.356 . S
H1262 C1256 0.930 . S
H1263 C1260 0.930 . S
C1264 C1266 1.348 . S
C1264 C1267 1.356 . S
C1264 O1294 1.325 . S
N1265 C1268 1.314 . S
N1265 C1269 1.279 . S
C1266 C1264 1.348 . S
C1266 C1268 1.353 . S
C1266 H1308 0.929 . S
C1267 C1264 1.356 . S
C1267 C1269 1.358 . S
C1267 H1309 0.930 . S
C1268 N1265 1.314 . S
C1268 C1266 1.353 . S
C1268 H1310 0.930 . S
C1269 N1265 1.279 . S
C1269 C1267 1.358 . S
C1269 H1311 0.930 . S
C1270 C1271 1.348 . S
C1270 C1272 1.356 . S
C1270 O1295 1.325 . S
C1271 C1270 1.348 . S
C1271 C1273 1.353 . S
C1271 H1312 0.929 . S
C1272 C1270 1.356 . S
C1272 C1274 1.358 . S
C1272 H1313 0.930 . S
C1273 C1271 1.353 . S
C1273 N1275 1.314 . S
C1273 H1314 0.930 . S
C1274 C1272 1.358 . S
C1274 N1275 1.279 . S
C1274 H1315 0.930 . S
N1275 C1273 1.314 . S
N1275 C1274 1.279 . S
C1276 C1278 1.353 . S
C1276 N1279 1.314 . S
C1276 H1282 0.930 . S
C1277 N1279 1.279 . S
C1277 C1280 1.358 . S
C1277 H1283 0.930 . S
C1278 C1276 1.353 . S
C1278 C1281 1.348 . S
C1278 H1316 0.929 . S
N1279 Li1234 1.990 . S
N1279 C1276 1.314 . S
N1279 C1277 1.279 . S
C1280 C1277 1.358 . S
C1280 C1281 1.356 . S
C1280 H1317 0.930 . S
C1281 C1278 1.348 . S
C1281 C1280 1.356 . S
H1282 C1276 0.930 . S
H1283 C1277 0.930 . S
C1284 N1285 1.314 . S
C1284 C1286 1.353 . S
C1284 H1290 0.930 . S
N1285 Li1235 1.990 . S
N1285 C1284 1.314 . S
N1285 C1288 1.279 . S
C1286 C1284 1.353 . S
C1286 C1289 1.348 . S
C1286 H1318 0.929 . S
C1287 C1288 1.358 . S
C1287 C1289 1.356 . S
C1287 H1319 0.930 . S
C1288 N1285 1.279 . S
C1288 C1287 1.358 . S
C1288 H1291 0.930 . S
C1289 C1286 1.348 . S
C1289 C1287 1.356 . S
H1290 C1284 0.930 . S
H1291 C1288 0.930 . S
O1292 Li1232 1.956 . S
O1292 Li1233 1.970 . S
O1292 Li1234 1.961 . S
O1292 C1236 1.325 . S
O1293 Li1232 1.970 . S
O1293 Li1233 1.956 . S
O1293 Li1235 1.961 . S
O1293 C1242 1.325 . S
O1294 Li1232 1.961 . S
O1294 Li1234 1.956 . S
O1294 Li1235 1.970 . S
O1294 C1264 1.325 . S
O1295 Li1233 1.961 . S
O1295 Li1234 1.970 . S
O1295 Li1235 1.956 . S
O1295 C1270 1.325 . S
H1296 C1238 0.929 . S
H1297 C1239 0.930 . S
H1298 C1240 0.930 . S
H1299 C1241 0.930 . S
H1300 C1243 0.930 . S
H1301 C1245 0.929 . S
H1302 C1246 0.930 . S
H1303 C1247 0.930 . S
H1304 C1250 0.930 . S
H1305 C1253 0.929 . S
H1306 C1258 0.929 . S
H1307 C1259 0.930 . S
H1308 C1266 0.929 . S
H1309 C1267 0.930 . S
H1310 C1268 0.930 . S
H1311 C1269 0.930 . S
H1312 C1271 0.929 . S
H1313 C1272 0.930 . S
H1314 C1273 0.930 . S
H1315 C1274 0.930 . S
H1316 C1278 0.929 . S
H1317 C1280 0.930 . S
H1318 C1286 0.929 . S
H1319 C1287 0.930 . S
Li1320 N1337 1.990 . S
Li1320 O1380 1.956 . S
Li1320 O1381 1.970 . S
Li1320 O1382 1.961 . S
Li1321 N1345 1.990 . S
Li1321 O1380 1.970 . S
Li1321 O1381 1.956 . S
Li1321 O1383 1.961 . S
Li1322 N1367 1.990 . S
Li1322 O1380 1.961 . S
Li1322 O1382 1.956 . S
Li1322 O1383 1.970 . S
Li1323 N1373 1.990 . S
Li1323 O1381 1.961 . S
Li1323 O1382 1.970 . S
Li1323 O1383 1.956 . S
C1324 C1326 1.348 . S
C1324 C1327 1.356 . S
C1324 O1380 1.325 . S
N1325 C1328 1.314 . S
N1325 C1329 1.279 . S
C1326 C1324 1.348 . S
C1326 C1328 1.353 . S
C1326 H1384 0.929 . S
C1327 C1324 1.356 . S
C1327 C1329 1.358 . S
C1327 H1385 0.930 . S
C1328 N1325 1.314 . S
C1328 C1326 1.353 . S
C1328 H1386 0.930 . S
C1329 N1325 1.279 . S
C1329 C1327 1.358 . S
C1329 H1387 0.930 . S
C1330 C1333 1.348 . S
C1330 C1334 1.356 . S
C1330 O1381 1.325 . S
C1331 N1332 1.279 . S
C1331 C1334 1.358 . S
C1331 H1388 0.930 . S
N1332 C1331 1.279 . S
N1332 C1335 1.314 . S
C1333 C1330 1.348 . S
C1333 C1335 1.353 . S
C1333 H1389 0.929 . S
C1334 C1330 1.356 . S
C1334 C1331 1.358 . S
C1334 H1390 0.930 . S
C1335 N1332 1.314 . S
C1335 C1333 1.353 . S
C1335 H1391 0.930 . S
C1336 N1337 1.314 . S
C1336 C1341 1.353 . S
C1336 H1342 0.930 . S
N1337 Li1320 1.990 . S
N1337 C1336 1.314 . S
N1337 C1339 1.279 . S
C1338 C1339 1.358 . S
C1338 C1340 1.356 . S
C1338 H1392 0.930 . S
C1339 N1337 1.279 . S
C1339 C1338 1.358 . S
C1339 H1343 0.930 . S
C1340 C1338 1.356 . S
C1340 C1341 1.348 . S
C1341 C1336 1.353 . S
C1341 C1340 1.348 . S
C1341 H1393 0.929 . S
H1342 C1336 0.930 . S
H1343 C1339 0.930 . S
C1344 N1345 1.314 . S
C1344 C1346 1.353 . S
C1344 H1350 0.930 . S
N1345 Li1321 1.990 . S
N1345 C1344 1.314 . S
N1345 C1348 1.279 . S
C1346 C1344 1.353 . S
C1346 C1349 1.348 . S
C1346 H1394 0.929 . S
C1347 C1348 1.358 . S
C1347 C1349 1.356 . S
C1347 H1395 0.930 . S
C1348 N1345 1.279 . S
C1348 C1347 1.358 . S
C1348 H1351 0.930 . S
C1349 C1346 1.348 . S
C1349 C1347 1.356 . S
H1350 C1344 0.930 . S
H1351 C1348 0.930 . S
C1352 C1354 1.348 . S
C1352 C1355 1.356 . S
C1352 O1382 1.325 . S
N1353 C1356 1.314 . S
N1353 C1357 1.279 . S
C1354 C1352 1.348 . S
C1354 C1356 1.353 . S
C1354 H1396 0.929 . S
C1355 C1352 1.356 . S
C1355 C1357 1.358 . S
C1355 H1397 0.930 . S
C1356 N1353 1.314 . S
C1356 C1354 1.353 . S
C1356 H1398 0.930 . S
C1357 N1353 1.279 . S
C1357 C1355 1.358 . S
C1357 H1399 0.930 . S
C1358 C1359 1.348 . S
C1358 C1360 1.356 . S
C1358 O1383 1.325 . S
C1359 C1358 1.348 . S
C1359 C1361 1.353 . S
C1359 H1400 0.929 . S
C1360 C1358 1.356 . S
C1360 C1362 1.358 . S
C1360 H1401 0.930 . S
C1361 C1359 1.353 . S
C1361 N1363 1.314 . S
C1361 H1402 0.930 . S
C1362 C1360 1.358 . S
C1362 N1363 1.279 . S
C1362 H1403 0.930 . S
N1363 C1361 1.314 . S
N1363 C1362 1.279 . S
C1364 C1366 1.353 . S
C1364 N1367 1.314 . S
C1364 H1370 0.930 . S
C1365 N1367 1.279 . S
C1365 C1368 1.358 . S
C1365 H1371 0.930 . S
C1366 C1364 1.353 . S
C1366 C1369 1.348 . S
C1366 H1404 0.929 . S
N1367 Li1322 1.990 . S
N1367 C1364 1.314 . S
N1367 C1365 1.279 . S
C1368 C1365 1.358 . S
C1368 C1369 1.356 . S
C1368 H1405 0.930 . S
C1369 C1366 1.348 . S
C1369 C1368 1.356 . S
H1370 C1364 0.930 . S
H1371 C1365 0.930 . S
C1372 N1373 1.314 . S
C1372 C1374 1.353 . S
C1372 H1378 0.930 . S
N1373 Li1323 1.990 . S
N1373 C1372 1.314 . S
N1373 C1376 1.279 . S
C1374 C1372 1.353 . S
C1374 C1377 1.348 . S
C1374 H1406 0.929 . S
C1375 C1376 1.358 . S
C1375 C1377 1.356 . S
C1375 H1407 0.930 . S
C1376 N1373 1.279 . S
C1376 C1375 1.358 . S
C1376 H1379 0.930 . S
C1377 C1374 1.348 . S
C1377 C1375 1.356 . S
H1378 C1372 0.930 . S
H1379 C1376 0.930 . S
O1380 Li1320 1.956 . S
O1380 Li1321 1.970 . S
O1380 Li1322 1.961 . S
O1380 C1324 1.325 . S
O1381 Li1320 1.970 . S
O1381 Li1321 1.956 . S
O1381 Li1323 1.961 . S
O1381 C1330 1.325 . S
O1382 Li1320 1.961 . S
O1382 Li1322 1.956 . S
O1382 Li1323 1.970 . S
O1382 C1352 1.325 . S
O1383 Li1321 1.961 . S
O1383 Li1322 1.970 . S
O1383 Li1323 1.956 . S
O1383 C1358 1.325 . S
H1384 C1326 0.929 . S
H1385 C1327 0.930 . S
H1386 C1328 0.930 . S
H1387 C1329 0.930 . S
H1388 C1331 0.930 . S
H1389 C1333 0.929 . S
H1390 C1334 0.930 . S
H1391 C1335 0.930 . S
H1392 C1338 0.930 . S
H1393 C1341 0.929 . S
H1394 C1346 0.929 . S
H1395 C1347 0.930 . S
H1396 C1354 0.929 . S
H1397 C1355 0.930 . S
H1398 C1356 0.930 . S
H1399 C1357 0.930 . S
H1400 C1359 0.929 . S
H1401 C1360 0.930 . S
H1402 C1361 0.930 . S
H1403 C1362 0.930 . S
H1404 C1366 0.929 . S
H1405 C1368 0.930 . S
H1406 C1374 0.929 . S
H1407 C1375 0.930 . S
Li1408 N1425 1.990 . S
Li1408 O1468 1.956 . S
Li1408 O1469 1.970 . S
Li1408 O1470 1.961 . S
Li1409 N1433 1.990 . S
Li1409 O1468 1.970 . S
Li1409 O1469 1.956 . S
Li1409 O1471 1.961 . S
Li1410 N1455 1.990 . S
Li1410 O1468 1.961 . S
Li1410 O1470 1.956 . S
Li1410 O1471 1.970 . S
Li1411 N1461 1.990 . S
Li1411 O1469 1.961 . S
Li1411 O1470 1.970 . S
Li1411 O1471 1.956 . S
C1412 C1414 1.348 . S
C1412 C1415 1.356 . S
C1412 O1468 1.325 . S
N1413 C1416 1.314 . S
N1413 C1417 1.279 . S
C1414 C1412 1.348 . S
C1414 C1416 1.353 . S
C1414 H1472 0.929 . S
C1415 C1412 1.356 . S
C1415 C1417 1.358 . S
C1415 H1473 0.930 . S
C1416 N1413 1.314 . S
C1416 C1414 1.353 . S
C1416 H1474 0.930 . S
C1417 N1413 1.279 . S
C1417 C1415 1.358 . S
C1417 H1475 0.930 . S
C1418 C1421 1.348 . S
C1418 C1422 1.356 . S
C1418 O1469 1.325 . S
C1419 N1420 1.279 . S
C1419 C1422 1.358 . S
C1419 H1476 0.930 . S
N1420 C1419 1.279 . S
N1420 C1423 1.314 . S
C1421 C1418 1.348 . S
C1421 C1423 1.353 . S
C1421 H1477 0.929 . S
C1422 C1418 1.356 . S
C1422 C1419 1.358 . S
C1422 H1478 0.930 . S
C1423 N1420 1.314 . S
C1423 C1421 1.353 . S
C1423 H1479 0.930 . S
C1424 N1425 1.314 . S
C1424 C1429 1.353 . S
C1424 H1430 0.930 . S
N1425 Li1408 1.990 . S
N1425 C1424 1.314 . S
N1425 C1427 1.279 . S
C1426 C1427 1.358 . S
C1426 C1428 1.356 . S
C1426 H1480 0.930 . S
C1427 N1425 1.279 . S
C1427 C1426 1.358 . S
C1427 H1431 0.930 . S
C1428 C1426 1.356 . S
C1428 C1429 1.348 . S
C1429 C1424 1.353 . S
C1429 C1428 1.348 . S
C1429 H1481 0.929 . S
H1430 C1424 0.930 . S
H1431 C1427 0.930 . S
C1432 N1433 1.314 . S
C1432 C1434 1.353 . S
C1432 H1438 0.930 . S
N1433 Li1409 1.990 . S
N1433 C1432 1.314 . S
N1433 C1436 1.279 . S
C1434 C1432 1.353 . S
C1434 C1437 1.348 . S
C1434 H1482 0.929 . S
C1435 C1436 1.358 . S
C1435 C1437 1.356 . S
C1435 H1483 0.930 . S
C1436 N1433 1.279 . S
C1436 C1435 1.358 . S
C1436 H1439 0.930 . S
C1437 C1434 1.348 . S
C1437 C1435 1.356 . S
H1438 C1432 0.930 . S
H1439 C1436 0.930 . S
C1440 C1442 1.348 . S
C1440 C1443 1.356 . S
C1440 O1470 1.325 . S
N1441 C1444 1.314 . S
N1441 C1445 1.279 . S
C1442 C1440 1.348 . S
C1442 C1444 1.353 . S
C1442 H1484 0.929 . S
C1443 C1440 1.356 . S
C1443 C1445 1.358 . S
C1443 H1485 0.930 . S
C1444 N1441 1.314 . S
C1444 C1442 1.353 . S
C1444 H1486 0.930 . S
C1445 N1441 1.279 . S
C1445 C1443 1.358 . S
C1445 H1487 0.930 . S
C1446 C1447 1.348 . S
C1446 C1448 1.356 . S
C1446 O1471 1.325 . S
C1447 C1446 1.348 . S
C1447 C1449 1.353 . S
C1447 H1488 0.929 . S
C1448 C1446 1.356 . S
C1448 C1450 1.358 . S
C1448 H1489 0.930 . S
C1449 C1447 1.353 . S
C1449 N1451 1.314 . S
C1449 H1490 0.930 . S
C1450 C1448 1.358 . S
C1450 N1451 1.279 . S
C1450 H1491 0.930 . S
N1451 C1449 1.314 . S
N1451 C1450 1.279 . S
C1452 C1454 1.353 . S
C1452 N1455 1.314 . S
C1452 H1458 0.930 . S
C1453 N1455 1.279 . S
C1453 C1456 1.358 . S
C1453 H1459 0.930 . S
C1454 C1452 1.353 . S
C1454 C1457 1.348 . S
C1454 H1492 0.929 . S
N1455 Li1410 1.990 . S
N1455 C1452 1.314 . S
N1455 C1453 1.279 . S
C1456 C1453 1.358 . S
C1456 C1457 1.356 . S
C1456 H1493 0.930 . S
C1457 C1454 1.348 . S
C1457 C1456 1.356 . S
H1458 C1452 0.930 . S
H1459 C1453 0.930 . S
C1460 N1461 1.314 . S
C1460 C1462 1.353 . S
C1460 H1466 0.930 . S
N1461 Li1411 1.990 . S
N1461 C1460 1.314 . S
N1461 C1464 1.279 . S
C1462 C1460 1.353 . S
C1462 C1465 1.348 . S
C1462 H1494 0.929 . S
C1463 C1464 1.358 . S
C1463 C1465 1.356 . S
C1463 H1495 0.930 . S
C1464 N1461 1.279 . S
C1464 C1463 1.358 . S
C1464 H1467 0.930 . S
C1465 C1462 1.348 . S
C1465 C1463 1.356 . S
H1466 C1460 0.930 . S
H1467 C1464 0.930 . S
O1468 Li1408 1.956 . S
O1468 Li1409 1.970 . S
O1468 Li1410 1.961 . S
O1468 C1412 1.325 . S
O1469 Li1408 1.970 . S
O1469 Li1409 1.956 . S
O1469 Li1411 1.961 . S
O1469 C1418 1.325 . S
O1470 Li1408 1.961 . S
O1470 Li1410 1.956 . S
O1470 Li1411 1.970 . S
O1470 C1440 1.325 . S
O1471 Li1409 1.961 . S
O1471 Li1410 1.970 . S
O1471 Li1411 1.956 . S
O1471 C1446 1.325 . S
H1472 C1414 0.929 . S
H1473 C1415 0.930 . S
H1474 C1416 0.930 . S
H1475 C1417 0.930 . S
H1476 C1419 0.930 . S
H1477 C1421 0.929 . S
H1478 C1422 0.930 . S
H1479 C1423 0.930 . S
H1480 C1426 0.930 . S
H1481 C1429 0.929 . S
H1482 C1434 0.929 . S
H1483 C1435 0.930 . S
H1484 C1442 0.929 . S
H1485 C1443 0.930 . S
H1486 C1444 0.930 . S
H1487 C1445 0.930 . S
H1488 C1447 0.929 . S
H1489 C1448 0.930 . S
H1490 C1449 0.930 . S
H1491 C1450 0.930 . S
H1492 C1454 0.929 . S
H1493 C1456 0.930 . S
H1494 C1462 0.929 . S
H1495 C1463 0.930 . S
Li1496 N1513 1.990 . S
Li1496 O1556 1.956 . S
Li1496 O1557 1.970 . S
Li1496 O1558 1.961 . S
Li1497 N1521 1.990 . S
Li1497 O1556 1.970 . S
Li1497 O1557 1.956 . S
Li1497 O1559 1.961 . S
Li1498 N1543 1.990 . S
Li1498 O1556 1.961 . S
Li1498 O1558 1.956 . S
Li1498 O1559 1.970 . S
Li1499 N1549 1.990 . S
Li1499 O1557 1.961 . S
Li1499 O1558 1.970 . S
Li1499 O1559 1.956 . S
C1500 C1502 1.348 . S
C1500 C1503 1.356 . S
C1500 O1556 1.325 . S
N1501 C1504 1.314 . S
N1501 C1505 1.279 . S
C1502 C1500 1.348 . S
C1502 C1504 1.353 . S
C1502 H1560 0.929 . S
C1503 C1500 1.356 . S
C1503 C1505 1.358 . S
C1503 H1561 0.930 . S
C1504 N1501 1.314 . S
C1504 C1502 1.353 . S
C1504 H1562 0.930 . S
C1505 N1501 1.279 . S
C1505 C1503 1.358 . S
C1505 H1563 0.930 . S
C1506 C1509 1.348 . S
C1506 C1510 1.356 . S
C1506 O1557 1.325 . S
C1507 N1508 1.279 . S
C1507 C1510 1.358 . S
C1507 H1564 0.930 . S
N1508 C1507 1.279 . S
N1508 C1511 1.314 . S
C1509 C1506 1.348 . S
C1509 C1511 1.353 . S
C1509 H1565 0.929 . S
C1510 C1506 1.356 . S
C1510 C1507 1.358 . S
C1510 H1566 0.930 . S
C1511 N1508 1.314 . S
C1511 C1509 1.353 . S
C1511 H1567 0.930 . S
C1512 N1513 1.314 . S
C1512 C1517 1.353 . S
C1512 H1518 0.930 . S
N1513 Li1496 1.990 . S
N1513 C1512 1.314 . S
N1513 C1515 1.279 . S
C1514 C1515 1.358 . S
C1514 C1516 1.356 . S
C1514 H1568 0.930 . S
C1515 N1513 1.279 . S
C1515 C1514 1.358 . S
C1515 H1519 0.930 . S
C1516 C1514 1.356 . S
C1516 C1517 1.348 . S
C1517 C1512 1.353 . S
C1517 C1516 1.348 . S
C1517 H1569 0.929 . S
H1518 C1512 0.930 . S
H1519 C1515 0.930 . S
C1520 N1521 1.314 . S
C1520 C1522 1.353 . S
C1520 H1526 0.930 . S
N1521 Li1497 1.990 . S
N1521 C1520 1.314 . S
N1521 C1524 1.279 . S
C1522 C1520 1.353 . S
C1522 C1525 1.348 . S
C1522 H1570 0.929 . S
C1523 C1524 1.358 . S
C1523 C1525 1.356 . S
C1523 H1571 0.930 . S
C1524 N1521 1.279 . S
C1524 C1523 1.358 . S
C1524 H1527 0.930 . S
C1525 C1522 1.348 . S
C1525 C1523 1.356 . S
H1526 C1520 0.930 . S
H1527 C1524 0.930 . S
C1528 C1530 1.348 . S
C1528 C1531 1.356 . S
C1528 O1558 1.325 . S
N1529 C1532 1.314 . S
N1529 C1533 1.279 . S
C1530 C1528 1.348 . S
C1530 C1532 1.353 . S
C1530 H1572 0.929 . S
C1531 C1528 1.356 . S
C1531 C1533 1.358 . S
C1531 H1573 0.930 . S
C1532 N1529 1.314 . S
C1532 C1530 1.353 . S
C1532 H1574 0.930 . S
C1533 N1529 1.279 . S
C1533 C1531 1.358 . S
C1533 H1575 0.930 . S
C1534 C1535 1.348 . S
C1534 C1536 1.356 . S
C1534 O1559 1.325 . S
C1535 C1534 1.348 . S
C1535 C1537 1.353 . S
C1535 H1576 0.929 . S
C1536 C1534 1.356 . S
C1536 C1538 1.358 . S
C1536 H1577 0.930 . S
C1537 C1535 1.353 . S
C1537 N1539 1.314 . S
C1537 H1578 0.930 . S
C1538 C1536 1.358 . S
C1538 N1539 1.279 . S
C1538 H1579 0.930 . S
N1539 C1537 1.314 . S
N1539 C1538 1.279 . S
C1540 C1542 1.353 . S
C1540 N1543 1.314 . S
C1540 H1546 0.930 . S
C1541 N1543 1.279 . S
C1541 C1544 1.358 . S
C1541 H1547 0.930 . S
C1542 C1540 1.353 . S
C1542 C1545 1.348 . S
C1542 H1580 0.929 . S
N1543 Li1498 1.990 . S
N1543 C1540 1.314 . S
N1543 C1541 1.279 . S
C1544 C1541 1.358 . S
C1544 C1545 1.356 . S
C1544 H1581 0.930 . S
C1545 C1542 1.348 . S
C1545 C1544 1.356 . S
H1546 C1540 0.930 . S
H1547 C1541 0.930 . S
C1548 N1549 1.314 . S
C1548 C1550 1.353 . S
C1548 H1554 0.930 . S
N1549 Li1499 1.990 . S
N1549 C1548 1.314 . S
N1549 C1552 1.279 . S
C1550 C1548 1.353 . S
C1550 C1553 1.348 . S
C1550 H1582 0.929 . S
C1551 C1552 1.358 . S
C1551 C1553 1.356 . S
C1551 H1583 0.930 . S
C1552 N1549 1.279 . S
C1552 C1551 1.358 . S
C1552 H1555 0.930 . S
C1553 C1550 1.348 . S
C1553 C1551 1.356 . S
H1554 C1548 0.930 . S
H1555 C1552 0.930 . S
O1556 Li1496 1.956 . S
O1556 Li1497 1.970 . S
O1556 Li1498 1.961 . S
O1556 C1500 1.325 . S
O1557 Li1496 1.970 . S
O1557 Li1497 1.956 . S
O1557 Li1499 1.961 . S
O1557 C1506 1.325 . S
O1558 Li1496 1.961 . S
O1558 Li1498 1.956 . S
O1558 Li1499 1.970 . S
O1558 C1528 1.325 . S
O1559 Li1497 1.961 . S
O1559 Li1498 1.970 . S
O1559 Li1499 1.956 . S
O1559 C1534 1.325 . S
H1560 C1502 0.929 . S
H1561 C1503 0.930 . S
H1562 C1504 0.930 . S
H1563 C1505 0.930 . S
H1564 C1507 0.930 . S
H1565 C1509 0.929 . S
H1566 C1510 0.930 . S
H1567 C1511 0.930 . S
H1568 C1514 0.930 . S
H1569 C1517 0.929 . S
H1570 C1522 0.929 . S
H1571 C1523 0.930 . S
H1572 C1530 0.929 . S
H1573 C1531 0.930 . S
H1574 C1532 0.930 . S
H1575 C1533 0.930 . S
H1576 C1535 0.929 . S
H1577 C1536 0.930 . S
H1578 C1537 0.930 . S
H1579 C1538 0.930 . S
H1580 C1542 0.929 . S
H1581 C1544 0.930 . S
H1582 C1550 0.929 . S
H1583 C1551 0.930 . S
H1584 C1592 0.950 . S
H1585 C1597 0.950 . S
H1586 C1594 0.950 . S
H1587 C1596 0.950 . S
H1588 C1598 0.950 . S
H1589 C1600 0.950 . S
H1590 C1602 0.950 . S
H1591 C1603 0.950 . S
C1592 H1584 0.950 . S
C1592 C1593 1.386 . S
C1592 C1594 1.391 . S
C1593 C1592 1.386 . S
C1593 C1597 1.393 . S
C1594 H1586 0.950 . S
C1594 C1592 1.391 . S
C1594 C1595 1.400 . S
C1595 C1594 1.400 . S
C1595 C1596 1.398 . S
C1595 C1601 1.491 . S
C1596 H1587 0.950 . S
C1596 C1595 1.398 . S
C1596 C1597 1.391 . S
C1597 H1585 0.950 . S
C1597 C1593 1.393 . S
C1597 C1596 1.391 . S
C1598 H1588 0.950 . S
C1598 C1599 1.386 . S
C1598 C1600 1.391 . S
C1599 C1598 1.386 . S
C1599 C1603 1.393 . S
C1600 H1589 0.950 . S
C1600 C1598 1.391 . S
C1600 C1601 1.400 . S
C1601 C1595 1.491 . S
C1601 C1600 1.400 . S
C1601 C1602 1.398 . S
C1602 H1590 0.950 . S
C1602 C1601 1.398 . S
C1602 C1603 1.391 . S
C1603 H1591 0.950 . S
C1603 C1599 1.393 . S
C1603 C1602 1.391 . S
H1604 C1612 0.950 . S
H1605 C1617 0.950 . S
H1606 C1614 0.950 . S
H1607 C1616 0.950 . S
H1608 C1618 0.950 . S
H1609 C1620 0.950 . S
H1610 C1622 0.950 . S
H1611 C1623 0.950 . S
C1612 H1604 0.950 . S
C1612 C1613 1.386 . S
C1612 C1614 1.391 . S
C1613 C1612 1.386 . S
C1613 C1617 1.393 . S
C1614 H1606 0.950 . S
C1614 C1612 1.391 . S
C1614 C1615 1.400 . S
C1615 C1614 1.400 . S
C1615 C1616 1.398 . S
C1615 C1621 1.491 . S
C1616 H1607 0.950 . S
C1616 C1615 1.398 . S
C1616 C1617 1.391 . S
C1617 H1605 0.950 . S
C1617 C1613 1.393 . S
C1617 C1616 1.391 . S
C1618 H1608 0.950 . S
C1618 C1619 1.386 . S
C1618 C1620 1.391 . S
C1619 C1618 1.386 . S
C1619 C1623 1.393 . S
C1620 H1609 0.950 . S
C1620 C1618 1.391 . S
C1620 C1621 1.400 . S
C1621 C1615 1.491 . S
C1621 C1620 1.400 . S
C1621 C1622 1.398 . S
C1622 H1610 0.950 . S
C1622 C1621 1.398 . S
C1622 C1623 1.391 . S
C1623 H1611 0.950 . S
C1623 C1619 1.393 . S
C1623 C1622 1.391 . S
H1624 C1632 0.950 . S
H1625 C1637 0.950 . S
H1626 C1634 0.950 . S
H1627 C1636 0.950 . S
H1628 C1638 0.950 . S
H1629 C1640 0.950 . S
H1630 C1642 0.950 . S
H1631 C1643 0.950 . S
C1632 H1624 0.950 . S
C1632 C1633 1.386 . S
C1632 C1634 1.391 . S
C1633 C1632 1.386 . S
C1633 C1637 1.393 . S
C1634 H1626 0.950 . S
C1634 C1632 1.391 . S
C1634 C1635 1.400 . S
C1635 C1634 1.400 . S
C1635 C1636 1.398 . S
C1635 C1641 1.491 . S
C1636 H1627 0.950 . S
C1636 C1635 1.398 . S
C1636 C1637 1.391 . S
C1637 H1625 0.950 . S
C1637 C1633 1.393 . S
C1637 C1636 1.391 . S
C1638 H1628 0.950 . S
C1638 C1639 1.386 . S
C1638 C1640 1.391 . S
C1639 C1638 1.386 . S
C1639 C1643 1.393 . S
C1640 H1629 0.950 . S
C1640 C1638 1.391 . S
C1640 C1641 1.400 . S
C1641 C1635 1.491 . S
C1641 C1640 1.400 . S
C1641 C1642 1.398 . S
C1642 H1630 0.950 . S
C1642 C1641 1.398 . S
C1642 C1643 1.391 . S
C1643 H1631 0.950 . S
C1643 C1639 1.393 . S
C1643 C1642 1.391 . S
H1644 C1652 0.950 . S
H1645 C1657 0.950 . S
H1646 C1654 0.950 . S
H1647 C1656 0.950 . S
H1648 C1658 0.950 . S
H1649 C1660 0.950 . S
H1650 C1662 0.950 . S
H1651 C1663 0.950 . S
C1652 H1644 0.950 . S
C1652 C1653 1.386 . S
C1652 C1654 1.391 . S
C1653 C1652 1.386 . S
C1653 C1657 1.393 . S
C1654 H1646 0.950 . S
C1654 C1652 1.391 . S
C1654 C1655 1.400 . S
C1655 C1654 1.400 . S
C1655 C1656 1.398 . S
C1655 C1661 1.491 . S
C1656 H1647 0.950 . S
C1656 C1655 1.398 . S
C1656 C1657 1.391 . S
C1657 H1645 0.950 . S
C1657 C1653 1.393 . S
C1657 C1656 1.391 . S
C1658 H1648 0.950 . S
C1658 C1659 1.386 . S
C1658 C1660 1.391 . S
C1659 C1658 1.386 . S
C1659 C1663 1.393 . S
C1660 H1649 0.950 . S
C1660 C1658 1.391 . S
C1660 C1661 1.400 . S
C1661 C1655 1.491 . S
C1661 C1660 1.400 . S
C1661 C1662 1.398 . S
C1662 H1650 0.950 . S
C1662 C1661 1.398 . S
C1662 C1663 1.391 . S
C1663 H1651 0.950 . S
C1663 C1659 1.393 . S
C1663 C1662 1.391 . S
H1664 C1672 0.984 . S
H1665 C1677 0.950 . S
H1666 C1674 0.950 . S
H1667 C1676 0.950 . S
H1668 C1678 0.950 . S
H1669 C1680 0.950 . S
H1670 C1682 0.950 . S
H1671 C1683 0.950 . S
C1672 H1664 0.984 . S
C1672 C1673 1.386 . S
C1672 C1674 1.391 . S
C1673 C1672 1.386 . S
C1673 C1677 1.393 . S
C1674 H1666 0.950 . S
C1674 C1672 1.391 . S
C1674 C1675 1.400 . S
C1675 C1674 1.400 . S
C1675 C1676 1.398 . S
C1675 C1681 1.491 . S
C1676 H1667 0.950 . S
C1676 C1675 1.398 . S
C1676 C1677 1.391 . S
C1677 H1665 0.950 . S
C1677 C1673 1.393 . S
C1677 C1676 1.391 . S
C1678 H1668 0.950 . S
C1678 C1679 1.386 . S
C1678 C1680 1.391 . S
C1679 C1678 1.386 . S
C1679 C1683 1.393 . S
C1680 H1669 0.950 . S
C1680 C1678 1.391 . S
C1680 C1681 1.400 . S
C1681 C1675 1.491 . S
C1681 C1680 1.400 . S
C1681 C1682 1.398 . S
C1682 H1670 0.950 . S
C1682 C1681 1.398 . S
C1682 C1683 1.391 . S
C1683 H1671 0.950 . S
C1683 C1679 1.393 . S
C1683 C1682 1.391 . S
H1684 C1692 0.950 . S
H1685 C1697 0.950 . S
H1686 C1694 0.950 . S
H1687 C1696 0.950 . S
H1688 C1698 0.950 . S
H1689 C1700 0.950 . S
H1690 C1702 0.950 . S
H1691 C1703 0.950 . S
C1692 H1684 0.950 . S
C1692 C1693 1.386 . S
C1692 C1694 1.391 . S
C1693 C1692 1.386 . S
C1693 C1697 1.393 . S
C1694 H1686 0.950 . S
C1694 C1692 1.391 . S
C1694 C1695 1.400 . S
C1695 C1694 1.400 . S
C1695 C1696 1.398 . S
C1695 C1701 1.491 . S
C1696 H1687 0.950 . S
C1696 C1695 1.398 . S
C1696 C1697 1.391 . S
C1697 H1685 0.950 . S
C1697 C1693 1.393 . S
C1697 C1696 1.391 . S
C1698 H1688 0.950 . S
C1698 C1699 1.386 . S
C1698 C1700 1.391 . S
C1699 C1698 1.386 . S
C1699 C1703 1.393 . S
C1700 H1689 0.950 . S
C1700 C1698 1.391 . S
C1700 C1701 1.400 . S
C1701 C1695 1.491 . S
C1701 C1700 1.400 . S
C1701 C1702 1.398 . S
C1702 H1690 0.950 . S
C1702 C1701 1.398 . S
C1702 C1703 1.391 . S
C1703 H1691 0.950 . S
C1703 C1699 1.393 . S
C1703 C1702 1.391 . S
H1704 C1712 0.950 . S
H1705 C1717 0.950 . S
H1706 C1714 0.933 1_455 S
H1707 C1716 0.950 . S
H1708 C1718 0.950 . S
H1709 C1720 0.950 1_655 S
H1710 C1722 0.950 . S
H1711 C1723 0.950 . S
C1712 H1704 0.950 . S
C1712 C1713 1.386 . S
C1712 C1714 1.391 . S
C1713 C1712 1.386 . S
C1713 C1717 1.393 . S
C1714 H1706 0.933 1_655 S
C1714 C1712 1.391 . S
C1714 C1715 1.400 . S
C1715 C1714 1.400 . S
C1715 C1716 1.398 . S
C1715 C1721 1.491 1_655 S
C1716 H1707 0.950 . S
C1716 C1715 1.398 . S
C1716 C1717 1.391 . S
C1717 H1705 0.950 . S
C1717 C1713 1.393 . S
C1717 C1716 1.391 . S
C1718 H1708 0.950 . S
C1718 C1719 1.386 . S
C1718 C1720 1.391 . S
C1719 C1718 1.386 . S
C1719 C1723 1.393 . S
C1720 H1709 0.950 1_455 S
C1720 C1718 1.391 . S
C1720 C1721 1.400 . S
C1721 C1715 1.491 1_455 S
C1721 C1720 1.400 . S
C1721 C1722 1.398 . S
C1722 H1710 0.950 . S
C1722 C1721 1.398 . S
C1722 C1723 1.391 . S
C1723 H1711 0.950 . S
C1723 C1719 1.393 . S
C1723 C1722 1.391 . S
H1724 C1732 0.950 . S
H1725 C1737 0.950 . S
H1726 C1734 0.950 . S
H1727 C1736 0.950 . S
H1728 C1738 0.950 . S
H1729 C1740 0.950 . S
H1730 C1742 0.950 . S
H1731 C1743 0.950 . S
C1732 H1724 0.950 . S
C1732 C1733 1.386 . S
C1732 C1734 1.391 . S
C1733 C1732 1.386 . S
C1733 C1737 1.393 . S
C1734 H1726 0.950 . S
C1734 C1732 1.391 . S
C1734 C1735 1.400 . S
C1735 C1734 1.400 . S
C1735 C1736 1.398 . S
C1735 C1741 1.491 . S
C1736 H1727 0.950 . S
C1736 C1735 1.398 . S
C1736 C1737 1.391 . S
C1737 H1725 0.950 . S
C1737 C1733 1.393 . S
C1737 C1736 1.391 . S
C1738 H1728 0.950 . S
C1738 C1739 1.386 . S
C1738 C1740 1.391 . S
C1739 C1738 1.386 . S
C1739 C1743 1.393 . S
C1740 H1729 0.950 . S
C1740 C1738 1.391 . S
C1740 C1741 1.400 . S
C1741 C1735 1.491 . S
C1741 C1740 1.400 . S
C1741 C1742 1.398 . S
C1742 H1730 0.950 . S
C1742 C1741 1.398 . S
C1742 C1743 1.391 . S
C1743 H1731 0.950 . S
C1743 C1739 1.393 . S
C1743 C1742 1.391 . S
H1744 C1752 0.950 . S
H1745 C1757 0.950 . S
H1746 C1754 0.950 1_565 S
H1747 C1756 0.950 . S
H1748 C1758 0.950 . S
H1749 C1760 0.950 . S
H1750 C1762 0.950 . S
H1751 C1763 0.950 . S
C1752 H1744 0.950 . S
C1752 C1753 1.386 . S
C1752 C1754 1.391 . S
C1753 C1752 1.386 . S
C1753 C1757 1.393 . S
C1754 H1746 0.950 1_545 S
C1754 C1752 1.391 . S
C1754 C1755 1.400 . S
C1755 C1754 1.400 . S
C1755 C1756 1.398 . S
C1755 C1761 1.491 1_545 S
C1756 H1747 0.950 . S
C1756 C1755 1.398 . S
C1756 C1757 1.391 . S
C1757 H1745 0.950 . S
C1757 C1753 1.393 . S
C1757 C1756 1.391 . S
C1758 H1748 0.950 . S
C1758 C1759 1.386 . S
C1758 C1760 1.391 . S
C1759 C1758 1.386 . S
C1759 C1763 1.393 . S
C1760 H1749 0.950 . S
C1760 C1758 1.391 . S
C1760 C1761 1.400 . S
C1761 C1755 1.491 1_565 S
C1761 C1760 1.400 . S
C1761 C1762 1.398 . S
C1762 H1750 0.950 . S
C1762 C1761 1.398 . S
C1762 C1763 1.391 . S
C1763 H1751 0.950 . S
C1763 C1759 1.393 . S
C1763 C1762 1.391 . S
H1764 C1772 0.950 . S
H1765 C1777 0.950 . S
H1766 C1774 0.950 . S
H1767 C1776 0.950 . S
H1768 C1778 0.950 . S
H1769 C1780 0.950 . S
H1770 C1782 0.950 . S
H1771 C1783 0.950 . S
C1772 H1764 0.950 . S
C1772 C1773 1.386 . S
C1772 C1774 1.391 . S
C1773 C1772 1.386 . S
C1773 C1777 1.393 . S
C1774 H1766 0.950 . S
C1774 C1772 1.391 . S
C1774 C1775 1.400 . S
C1775 C1774 1.400 . S
C1775 C1776 1.398 . S
C1775 C1781 1.491 1_455 S
C1776 H1767 0.950 . S
C1776 C1775 1.398 . S
C1776 C1777 1.391 . S
C1777 H1765 0.950 . S
C1777 C1773 1.393 . S
C1777 C1776 1.391 . S
C1778 H1768 0.950 . S
C1778 C1779 1.386 . S
C1778 C1780 1.391 . S
C1779 C1778 1.386 . S
C1779 C1783 1.393 . S
C1780 H1769 0.950 . S
C1780 C1778 1.391 . S
C1780 C1781 1.400 . S
C1781 C1775 1.491 1_655 S
C1781 C1780 1.400 . S
C1781 C1782 1.398 . S
C1782 H1770 0.950 . S
C1782 C1781 1.398 . S
C1782 C1783 1.391 . S
C1783 H1771 0.950 . S
C1783 C1779 1.393 . S
C1783 C1782 1.391 . S
H1784 C1792 0.950 . S
H1785 C1797 0.950 . S
H1786 C1794 0.950 . S
H1787 C1796 0.950 . S
H1788 C1798 0.950 . S
H1789 C1800 0.950 . S
H1790 C1802 0.950 . S
H1791 C1803 0.950 . S
C1792 H1784 0.950 . S
C1792 C1793 1.386 . S
C1792 C1794 1.391 . S
C1793 C1792 1.386 . S
C1793 C1797 1.393 . S
C1794 H1786 0.950 . S
C1794 C1792 1.391 . S
C1794 C1795 1.400 . S
C1795 C1794 1.400 . S
C1795 C1796 1.398 . S
C1795 C1801 1.491 . S
C1796 H1787 0.950 . S
C1796 C1795 1.398 . S
C1796 C1797 1.391 . S
C1797 H1785 0.950 . S
C1797 C1793 1.393 . S
C1797 C1796 1.391 . S
C1798 H1788 0.950 . S
C1798 C1799 1.386 . S
C1798 C1800 1.391 . S
C1799 C1798 1.386 . S
C1799 C1803 1.393 . S
C1800 H1789 0.950 . S
C1800 C1798 1.391 . S
C1800 C1801 1.400 . S
C1801 C1795 1.491 . S
C1801 C1800 1.400 . S
C1801 C1802 1.398 . S
C1802 H1790 0.950 . S
C1802 C1801 1.398 . S
C1802 C1803 1.391 . S
C1803 H1791 0.950 . S
C1803 C1799 1.393 . S
C1803 C1802 1.391 . S
H1804 C1812 0.950 . S
H1805 C1817 0.950 . S
H1806 C1814 0.950 . S
H1807 C1816 0.950 . S
H1808 C1818 0.950 . S
H1809 C1820 0.950 . S
H1810 C1822 0.950 . S
H1811 C1823 0.950 . S
C1812 H1804 0.950 . S
C1812 C1813 1.386 . S
C1812 C1814 1.391 . S
C1813 C1812 1.386 . S
C1813 C1817 1.393 . S
C1814 H1806 0.950 . S
C1814 C1812 1.391 . S
C1814 C1815 1.400 . S
C1815 C1814 1.400 . S
C1815 C1816 1.398 . S
C1815 C1821 1.491 1_545 S
C1816 H1807 0.950 . S
C1816 C1815 1.398 . S
C1816 C1817 1.391 . S
C1817 H1805 0.950 . S
C1817 C1813 1.393 . S
C1817 C1816 1.391 . S
C1818 H1808 0.950 . S
C1818 C1819 1.386 . S
C1818 C1820 1.391 . S
C1819 C1818 1.386 . S
C1819 C1823 1.393 . S
C1820 H1809 0.950 . S
C1820 C1818 1.391 . S
C1820 C1821 1.400 . S
C1821 C1815 1.491 1_565 S
C1821 C1820 1.400 . S
C1821 C1822 1.398 . S
C1822 H1810 0.950 . S
C1822 C1821 1.398 . S
C1822 C1823 1.391 . S
C1823 H1811 0.950 . S
C1823 C1819 1.393 . S
C1823 C1822 1.391 . S
H1824 C1832 0.950 . S
H1825 C1837 0.950 . S
H1826 C1834 0.950 . S
H1827 C1836 0.950 . S
H1828 C1838 0.950 . S
H1829 C1840 0.950 . S
H1830 C1842 0.950 . S
H1831 C1843 0.950 . S
C1832 H1824 0.950 . S
C1832 C1833 1.386 . S
C1832 C1834 1.391 . S
C1833 C1832 1.386 . S
C1833 C1837 1.393 . S
C1834 H1826 0.950 . S
C1834 C1832 1.391 . S
C1834 C1835 1.400 . S
C1835 C1834 1.400 . S
C1835 C1836 1.398 . S
C1835 C1841 1.491 1_565 S
C1836 H1827 0.950 . S
C1836 C1835 1.398 . S
C1836 C1837 1.391 . S
C1837 H1825 0.950 . S
C1837 C1833 1.393 . S
C1837 C1836 1.391 . S
C1838 H1828 0.950 . S
C1838 C1839 1.386 . S
C1838 C1840 1.391 . S
C1839 C1838 1.386 . S
C1839 C1843 1.393 . S
C1840 H1829 0.950 . S
C1840 C1838 1.391 . S
C1840 C1841 1.400 . S
C1841 C1835 1.491 1_545 S
C1841 C1840 1.400 . S
C1841 C1842 1.398 . S
C1842 H1830 0.950 . S
C1842 C1841 1.398 . S
C1842 C1843 1.391 . S
C1843 H1831 0.950 . S
C1843 C1839 1.393 . S
C1843 C1842 1.391 . S
H1844 C1852 0.950 . S
H1845 C1857 0.950 . S
H1846 C1854 0.950 . S
H1847 C1856 0.950 . S
H1848 C1858 0.950 . S
H1849 C1860 0.950 . S
H1850 C1862 0.950 . S
H1851 C1863 0.950 . S
C1852 H1844 0.950 . S
C1852 C1853 1.386 . S
C1852 C1854 1.391 . S
C1853 C1852 1.386 . S
C1853 C1857 1.393 . S
C1854 H1846 0.950 . S
C1854 C1852 1.391 . S
C1854 C1855 1.400 . S
C1855 C1854 1.400 . S
C1855 C1856 1.398 . S
C1855 C1861 1.491 1_455 S
C1856 H1847 0.950 . S
C1856 C1855 1.398 . S
C1856 C1857 1.391 . S
C1857 H1845 0.950 . S
C1857 C1853 1.393 . S
C1857 C1856 1.391 . S
C1858 H1848 0.950 . S
C1858 C1859 1.386 . S
C1858 C1860 1.391 . S
C1859 C1858 1.386 . S
C1859 C1863 1.393 . S
C1860 H1849 0.950 . S
C1860 C1858 1.391 . S
C1860 C1861 1.400 . S
C1861 C1855 1.491 1_655 S
C1861 C1860 1.400 . S
C1861 C1862 1.398 . S
C1862 H1850 0.950 . S
C1862 C1861 1.398 . S
C1862 C1863 1.391 . S
C1863 H1851 0.950 . S
C1863 C1859 1.393 . S
C1863 C1862 1.391 . S
H1864 C1872 0.950 . S
H1865 C1877 0.950 . S
H1866 C1874 0.950 . S
H1867 C1876 0.950 . S
H1868 C1878 0.950 . S
H1869 C1880 0.950 . S
H1870 C1882 0.950 . S
H1871 C1883 0.950 . S
C1872 H1864 0.950 . S
C1872 C1873 1.386 . S
C1872 C1874 1.391 . S
C1873 C1872 1.386 . S
C1873 C1877 1.393 . S
C1874 H1866 0.950 . S
C1874 C1872 1.391 . S
C1874 C1875 1.400 . S
C1875 C1874 1.400 . S
C1875 C1876 1.398 . S
C1875 C1881 1.491 . S
C1876 H1867 0.950 . S
C1876 C1875 1.398 . S
C1876 C1877 1.391 . S
C1877 H1865 0.950 . S
C1877 C1873 1.393 . S
C1877 C1876 1.391 . S
C1878 H1868 0.950 . S
C1878 C1879 1.386 . S
C1878 C1880 1.391 . S
C1879 C1878 1.386 . S
C1879 C1883 1.393 . S
C1880 H1869 0.950 . S
C1880 C1878 1.391 . S
C1880 C1881 1.400 . S
C1881 C1875 1.491 . S
C1881 C1880 1.400 . S
C1881 C1882 1.398 . S
C1882 H1870 0.950 . S
C1882 C1881 1.398 . S
C1882 C1883 1.391 . S
C1883 H1871 0.950 . S
C1883 C1879 1.393 . S
C1883 C1882 1.391 . S
H1884 C1892 0.950 . S
H1885 C1897 0.950 . S
H1886 C1894 0.950 . S
H1887 C1896 0.950 . S
H1888 C1898 0.950 . S
H1889 C1900 0.950 . S
H1890 C1902 0.950 . S
H1891 C1903 0.950 . S
C1892 H1884 0.950 . S
C1892 C1893 1.386 . S
C1892 C1894 1.391 . S
C1893 C1892 1.386 . S
C1893 C1897 1.393 . S
C1894 H1886 0.950 . S
C1894 C1892 1.391 . S
C1894 C1895 1.400 . S
C1895 C1894 1.400 . S
C1895 C1896 1.398 . S
C1895 C1901 1.491 . S
C1896 H1887 0.950 . S
C1896 C1895 1.398 . S
C1896 C1897 1.391 . S
C1897 H1885 0.950 . S
C1897 C1893 1.393 . S
C1897 C1896 1.391 . S
C1898 H1888 0.950 . S
C1898 C1899 1.386 . S
C1898 C1900 1.391 . S
C1899 C1898 1.386 . S
C1899 C1903 1.393 . S
C1900 H1889 0.950 . S
C1900 C1898 1.391 . S
C1900 C1901 1.400 . S
C1901 C1895 1.491 . S
C1901 C1900 1.400 . S
C1901 C1902 1.398 . S
C1902 H1890 0.950 . S
C1902 C1901 1.398 . S
C1902 C1903 1.391 . S
C1903 H1891 0.950 . S
C1903 C1899 1.393 . S
C1903 C1902 1.391 . S
H1904 C1912 0.950 . S
H1905 C1917 0.950 . S
H1906 C1914 0.950 . S
H1907 C1916 0.950 . S
H1908 C1918 0.950 . S
H1909 C1920 0.950 . S
H1910 C1922 0.950 . S
H1911 C1923 0.950 . S
C1912 H1904 0.950 . S
C1912 C1913 1.386 . S
C1912 C1914 1.391 . S
C1913 C1912 1.386 . S
C1913 C1917 1.393 . S
C1914 H1906 0.950 . S
C1914 C1912 1.391 . S
C1914 C1915 1.400 . S
C1915 C1914 1.400 . S
C1915 C1916 1.398 . S
C1915 C1921 1.491 . S
C1916 H1907 0.950 . S
C1916 C1915 1.398 . S
C1916 C1917 1.391 . S
C1917 H1905 0.950 . S
C1917 C1913 1.393 . S
C1917 C1916 1.391 . S
C1918 H1908 0.950 . S
C1918 C1919 1.386 . S
C1918 C1920 1.391 . S
C1919 C1918 1.386 . S
C1919 C1923 1.393 . S
C1920 H1909 0.950 . S
C1920 C1918 1.391 . S
C1920 C1921 1.400 . S
C1921 C1915 1.491 . S
C1921 C1920 1.400 . S
C1921 C1922 1.398 . S
C1922 H1910 0.950 . S
C1922 C1921 1.398 . S
C1922 C1923 1.391 . S
C1923 H1911 0.950 . S
C1923 C1919 1.393 . S
C1923 C1922 1.391 . S
H1924 C1932 0.950 . S
H1925 C1937 0.950 . S
H1926 C1934 0.950 . S
H1927 C1936 0.950 . S
H1928 C1938 0.950 . S
H1929 C1940 0.950 . S
H1930 C1942 0.950 . S
H1931 C1943 0.950 . S
C1932 H1924 0.950 . S
C1932 C1933 1.386 . S
C1932 C1934 1.391 . S
C1933 C1932 1.386 . S
C1933 C1937 1.393 . S
C1934 H1926 0.950 . S
C1934 C1932 1.391 . S
C1934 C1935 1.400 . S
C1935 C1934 1.400 . S
C1935 C1936 1.398 . S
C1935 C1941 1.491 . S
C1936 H1927 0.950 . S
C1936 C1935 1.398 . S
C1936 C1937 1.391 . S
C1937 H1925 0.950 . S
C1937 C1933 1.393 . S
C1937 C1936 1.391 . S
C1938 H1928 0.950 . S
C1938 C1939 1.386 . S
C1938 C1940 1.391 . S
C1939 C1938 1.386 . S
C1939 C1943 1.393 . S
C1940 H1929 0.950 . S
C1940 C1938 1.391 . S
C1940 C1941 1.400 . S
C1941 C1935 1.491 . S
C1941 C1940 1.400 . S
C1941 C1942 1.398 . S
C1942 H1930 0.950 . S
C1942 C1941 1.398 . S
C1942 C1943 1.391 . S
C1943 H1931 0.950 . S
C1943 C1939 1.393 . S
C1943 C1942 1.391 . S
H1944 C1952 0.950 . S
H1945 C1957 0.950 . S
H1946 C1954 0.950 . S
H1947 C1956 0.950 . S
H1948 C1958 0.950 . S
H1949 C1960 0.950 . S
H1950 C1962 0.950 . S
H1951 C1963 0.950 . S
C1952 H1944 0.950 . S
C1952 C1953 1.386 . S
C1952 C1954 1.391 . S
C1953 C1952 1.386 . S
C1953 C1957 1.393 . S
C1954 H1946 0.950 . S
C1954 C1952 1.391 . S
C1954 C1955 1.400 . S
C1955 C1954 1.400 . S
C1955 C1956 1.398 . S
C1955 C1961 1.491 . S
C1956 H1947 0.950 . S
C1956 C1955 1.398 . S
C1956 C1957 1.391 . S
C1957 H1945 0.950 . S
C1957 C1953 1.393 . S
C1957 C1956 1.391 . S
C1958 H1948 0.950 . S
C1958 C1959 1.386 . S
C1958 C1960 1.391 . S
C1959 C1958 1.386 . S
C1959 C1963 1.393 . S
C1960 H1949 0.950 . S
C1960 C1958 1.391 . S
C1960 C1961 1.400 . S
C1961 C1955 1.491 . S
C1961 C1960 1.400 . S
C1961 C1962 1.398 . S
C1962 H1950 0.950 . S
C1962 C1961 1.398 . S
C1962 C1963 1.391 . S
C1963 H1951 0.950 . S
C1963 C1959 1.393 . S
C1963 C1962 1.391 . S
H1964 C1972 0.950 . S
H1965 C1977 0.950 . S
H1966 C1974 0.950 . S
H1967 C1976 0.950 . S
H1968 C1978 0.950 . S
H1969 C1980 0.950 . S
H1970 C1982 0.950 . S
H1971 C1983 0.950 . S
C1972 H1964 0.950 . S
C1972 C1973 1.386 . S
C1972 C1974 1.391 . S
C1973 C1972 1.386 . S
C1973 C1977 1.393 . S
C1974 H1966 0.950 . S
C1974 C1972 1.391 . S
C1974 C1975 1.400 . S
C1975 C1974 1.400 . S
C1975 C1976 1.398 . S
C1975 C1981 1.491 . S
C1976 H1967 0.950 . S
C1976 C1975 1.398 . S
C1976 C1977 1.391 . S
C1977 H1965 0.950 . S
C1977 C1973 1.393 . S
C1977 C1976 1.391 . S
C1978 H1968 0.950 . S
C1978 C1979 1.386 . S
C1978 C1980 1.391 . S
C1979 C1978 1.386 . S
C1979 C1983 1.393 . S
C1980 H1969 0.950 . S
C1980 C1978 1.391 . S
C1980 C1981 1.400 . S
C1981 C1975 1.491 . S
C1981 C1980 1.400 . S
C1981 C1982 1.398 . S
C1982 H1970 0.950 . S
C1982 C1981 1.398 . S
C1982 C1983 1.391 . S
C1983 H1971 0.950 . S
C1983 C1979 1.393 . S
C1983 C1982 1.391 . S
H1984 C1992 0.950 . S
H1985 C1997 0.950 . S
H1986 C1994 0.950 . S
H1987 C1996 0.950 . S
H1988 C1998 0.950 . S
H1989 C2000 0.950 . S
H1990 C2002 0.950 . S
H1991 C2003 0.950 . S
C1992 H1984 0.950 . S
C1992 C1993 1.386 . S
C1992 C1994 1.391 . S
C1993 C1992 1.386 . S
C1993 C1997 1.393 . S
C1994 H1986 0.950 . S
C1994 C1992 1.391 . S
C1994 C1995 1.400 . S
C1995 C1994 1.400 . S
C1995 C1996 1.398 . S
C1995 C2001 1.491 . S
C1996 H1987 0.950 . S
C1996 C1995 1.398 . S
C1996 C1997 1.391 . S
C1997 H1985 0.950 . S
C1997 C1993 1.393 . S
C1997 C1996 1.391 . S
C1998 H1988 0.950 . S
C1998 C1999 1.386 . S
C1998 C2000 1.391 . S
C1999 C1998 1.386 . S
C1999 C2003 1.393 . S
C2000 H1989 0.950 . S
C2000 C1998 1.391 . S
C2000 C2001 1.400 . S
C2001 C1995 1.491 . S
C2001 C2000 1.400 . S
C2001 C2002 1.398 . S
C2002 H1990 0.950 . S
C2002 C2001 1.398 . S
C2002 C2003 1.391 . S
C2003 H1991 0.950 . S
C2003 C1999 1.393 . S
C2003 C2002 1.391 . S
H2004 C2012 0.950 . S
H2005 C2017 0.950 . S
H2006 C2014 0.950 . S
H2007 C2016 0.950 . S
H2008 C2018 0.950 . S
H2009 C2020 0.950 . S
H2010 C2022 0.950 . S
H2011 C2023 0.950 . S
C2012 H2004 0.950 . S
C2012 C2013 1.386 . S
C2012 C2014 1.391 . S
C2013 C2012 1.386 . S
C2013 C2017 1.393 . S
C2014 H2006 0.950 . S
C2014 C2012 1.391 . S
C2014 C2015 1.400 . S
C2015 C2014 1.400 . S
C2015 C2016 1.398 . S
C2015 C2021 1.491 . S
C2016 H2007 0.950 . S
C2016 C2015 1.398 . S
C2016 C2017 1.391 . S
C2017 H2005 0.950 . S
C2017 C2013 1.393 . S
C2017 C2016 1.391 . S
C2018 H2008 0.950 . S
C2018 C2019 1.386 . S
C2018 C2020 1.391 . S
C2019 C2018 1.386 . S
C2019 C2023 1.393 . S
C2020 H2009 0.950 . S
C2020 C2018 1.391 . S
C2020 C2021 1.400 . S
C2021 C2015 1.491 . S
C2021 C2020 1.400 . S
C2021 C2022 1.398 . S
C2022 H2010 0.950 . S
C2022 C2021 1.398 . S
C2022 C2023 1.391 . S
C2023 H2011 0.950 . S
C2023 C2019 1.393 . S
C2023 C2022 1.391 . S
H2024 C2032 0.950 . S
H2025 C2037 0.950 . S
H2026 C2034 0.950 . S
H2027 C2036 0.950 . S
H2028 C2038 0.950 . S
H2029 C2040 0.950 . S
H2030 C2042 0.950 . S
H2031 C2043 0.950 . S
C2032 H2024 0.950 . S
C2032 C2033 1.386 . S
C2032 C2034 1.391 . S
C2033 C2032 1.386 . S
C2033 C2037 1.393 . S
C2034 H2026 0.950 . S
C2034 C2032 1.391 . S
C2034 C2035 1.400 . S
C2035 C2034 1.400 . S
C2035 C2036 1.398 . S
C2035 C2041 1.491 . S
C2036 H2027 0.950 . S
C2036 C2035 1.398 . S
C2036 C2037 1.391 . S
C2037 H2025 0.950 . S
C2037 C2033 1.393 . S
C2037 C2036 1.391 . S
C2038 H2028 0.950 . S
C2038 C2039 1.386 . S
C2038 C2040 1.391 . S
C2039 C2038 1.386 . S
C2039 C2043 1.393 . S
C2040 H2029 0.950 . S
C2040 C2038 1.391 . S
C2040 C2041 1.400 . S
C2041 C2035 1.491 . S
C2041 C2040 1.400 . S
C2041 C2042 1.398 . S
C2042 H2030 0.950 . S
C2042 C2041 1.398 . S
C2042 C2043 1.391 . S
C2043 H2031 0.950 . S
C2043 C2039 1.393 . S
C2043 C2042 1.391 . S
H2044 C2052 0.950 . S
H2045 C2057 0.950 . S
H2046 C2054 0.950 . S
H2047 C2056 0.950 . S
H2048 C2058 0.950 . S
H2049 C2060 0.950 . S
H2050 C2062 0.950 . S
H2051 C2063 0.950 . S
C2052 H2044 0.950 . S
C2052 C2053 1.386 . S
C2052 C2054 1.391 . S
C2053 C2052 1.386 . S
C2053 C2057 1.393 . S
C2054 H2046 0.950 . S
C2054 C2052 1.391 . S
C2054 C2055 1.400 . S
C2055 C2054 1.400 . S
C2055 C2056 1.398 . S
C2055 C2061 1.491 . S
C2056 H2047 0.950 . S
C2056 C2055 1.398 . S
C2056 C2057 1.391 . S
C2057 H2045 0.950 . S
C2057 C2053 1.393 . S
C2057 C2056 1.391 . S
C2058 H2048 0.950 . S
C2058 C2059 1.386 . S
C2058 C2060 1.391 . S
C2059 C2058 1.386 . S
C2059 C2063 1.393 . S
C2060 H2049 0.950 . S
C2060 C2058 1.391 . S
C2060 C2061 1.400 . S
C2061 C2055 1.491 . S
C2061 C2060 1.400 . S
C2061 C2062 1.398 . S
C2062 H2050 0.950 . S
C2062 C2061 1.398 . S
C2062 C2063 1.391 . S
C2063 H2051 0.950 . S
C2063 C2059 1.393 . S
C2063 C2062 1.391 . S
H2064 C2072 0.950 . S
H2065 C2077 0.950 . S
H2066 C2074 0.950 . S
H2067 C2076 0.950 . S
H2068 C2078 0.950 . S
H2069 C2080 0.950 . S
H2070 C2082 0.950 . S
H2071 C2083 0.950 . S
C2072 H2064 0.950 . S
C2072 C2073 1.386 . S
C2072 C2074 1.391 . S
C2073 C2072 1.386 . S
C2073 C2077 1.393 . S
C2074 H2066 0.950 . S
C2074 C2072 1.391 . S
C2074 C2075 1.400 . S
C2075 C2074 1.400 . S
C2075 C2076 1.398 . S
C2075 C2081 1.491 . S
C2076 H2067 0.950 . S
C2076 C2075 1.398 . S
C2076 C2077 1.391 . S
C2077 H2065 0.950 . S
C2077 C2073 1.393 . S
C2077 C2076 1.391 . S
C2078 H2068 0.950 . S
C2078 C2079 1.386 . S
C2078 C2080 1.391 . S
C2079 C2078 1.386 . S
C2079 C2083 1.393 . S
C2080 H2069 0.950 . S
C2080 C2078 1.391 . S
C2080 C2081 1.400 . S
C2081 C2075 1.491 . S
C2081 C2080 1.400 . S
C2081 C2082 1.398 . S
C2082 H2070 0.950 . S
C2082 C2081 1.398 . S
C2082 C2083 1.391 . S
C2083 H2071 0.950 . S
C2083 C2079 1.393 . S
C2083 C2082 1.391 . S
H2084 C2092 0.950 . S
H2085 C2097 0.950 . S
H2086 C2094 0.950 . S
H2087 C2096 0.950 . S
H2088 C2098 0.950 . S
H2089 C2100 0.950 . S
H2090 C2102 0.950 . S
H2091 C2103 0.950 . S
C2092 H2084 0.950 . S
C2092 C2093 1.386 . S
C2092 C2094 1.391 . S
C2093 C2092 1.386 . S
C2093 C2097 1.393 . S
C2094 H2086 0.950 . S
C2094 C2092 1.391 . S
C2094 C2095 1.400 . S
C2095 C2094 1.400 . S
C2095 C2096 1.398 . S
C2095 C2101 1.491 . S
C2096 H2087 0.950 . S
C2096 C2095 1.398 . S
C2096 C2097 1.391 . S
C2097 H2085 0.950 . S
C2097 C2093 1.393 . S
C2097 C2096 1.391 . S
C2098 H2088 0.950 . S
C2098 C2099 1.386 . S
C2098 C2100 1.391 . S
C2099 C2098 1.386 . S
C2099 C2103 1.393 . S
C2100 H2089 0.950 . S
C2100 C2098 1.391 . S
C2100 C2101 1.400 . S
C2101 C2095 1.491 . S
C2101 C2100 1.400 . S
C2101 C2102 1.398 . S
C2102 H2090 0.950 . S
C2102 C2101 1.398 . S
C2102 C2103 1.391 . S
C2103 H2091 0.950 . S
C2103 C2099 1.393 . S
C2103 C2102 1.391 . S
H2104 C2112 0.950 . S
H2105 C2117 0.950 . S
H2106 C2114 0.950 . S
H2107 C2116 0.950 . S
H2108 C2118 0.950 . S
H2109 C2120 0.950 . S
H2110 C2122 0.950 . S
H2111 C2123 0.950 . S
C2112 H2104 0.950 . S
C2112 C2113 1.386 . S
C2112 C2114 1.391 . S
C2113 C2112 1.386 . S
C2113 C2117 1.393 . S
C2114 H2106 0.950 . S
C2114 C2112 1.391 . S
C2114 C2115 1.400 . S
C2115 C2114 1.400 . S
C2115 C2116 1.398 . S
C2115 C2121 1.491 . S
C2116 H2107 0.950 . S
C2116 C2115 1.398 . S
C2116 C2117 1.391 . S
C2117 H2105 0.950 . S
C2117 C2113 1.393 . S
C2117 C2116 1.391 . S
C2118 H2108 0.950 . S
C2118 C2119 1.386 . S
C2118 C2120 1.391 . S
C2119 C2118 1.386 . S
C2119 C2123 1.393 . S
C2120 H2109 0.950 . S
C2120 C2118 1.391 . S
C2120 C2121 1.400 . S
C2121 C2115 1.491 . S
C2121 C2120 1.400 . S
C2121 C2122 1.398 . S
C2122 H2110 0.950 . S
C2122 C2121 1.398 . S
C2122 C2123 1.391 . S
C2123 H2111 0.950 . S
C2123 C2119 1.393 . S
C2123 C2122 1.391 . S
H2124 C2132 0.950 . S
H2125 C2137 0.950 . S
H2126 C2134 0.950 . S
H2127 C2136 0.950 . S
H2128 C2138 0.950 . S
H2129 C2140 0.950 . S
H2130 C2142 0.950 . S
H2131 C2143 0.950 . S
C2132 H2124 0.950 . S
C2132 C2133 1.386 . S
C2132 C2134 1.391 . S
C2133 C2132 1.386 . S
C2133 C2137 1.393 . S
C2134 H2126 0.950 . S
C2134 C2132 1.391 . S
C2134 C2135 1.400 . S
C2135 C2134 1.400 . S
C2135 C2136 1.398 . S
C2135 C2141 1.491 1_554 S
C2136 H2127 0.950 . S
C2136 C2135 1.398 . S
C2136 C2137 1.391 . S
C2137 H2125 0.950 . S
C2137 C2133 1.393 . S
C2137 C2136 1.391 . S
C2138 H2128 0.950 . S
C2138 C2139 1.386 . S
C2138 C2140 1.391 . S
C2139 C2138 1.386 . S
C2139 C2143 1.393 . S
C2140 H2129 0.950 . S
C2140 C2138 1.391 . S
C2140 C2141 1.400 . S
C2141 C2135 1.491 1_556 S
C2141 C2140 1.400 . S
C2141 C2142 1.398 . S
C2142 H2130 0.950 . S
C2142 C2141 1.398 . S
C2142 C2143 1.391 . S
C2143 H2131 0.950 . S
C2143 C2139 1.393 . S
C2143 C2142 1.391 . S
H2144 C2152 0.950 . S
H2145 C2157 0.950 . S
H2146 C2154 0.950 . S
H2147 C2156 0.950 . S
H2148 C2158 0.950 . S
H2149 C2160 0.950 . S
H2150 C2162 0.950 . S
H2151 C2163 0.980 . S
C2152 H2144 0.950 . S
C2152 C2153 1.386 . S
C2152 C2154 1.391 . S
C2153 C2152 1.386 . S
C2153 C2157 1.393 1_545 S
C2154 H2146 0.950 . S
C2154 C2152 1.391 . S
C2154 C2155 1.417 . S
C2155 C2154 1.417 . S
C2155 C2156 1.383 1_545 S
C2155 C2161 1.491 1_546 S
C2156 H2147 0.950 . S
C2156 C2155 1.383 1_565 S
C2156 C2157 1.391 . S
C2157 H2145 0.950 . S
C2157 C2153 1.393 1_565 S
C2157 C2156 1.391 . S
C2158 H2148 0.950 . S
C2158 C2159 1.386 . S
C2158 C2160 1.391 . S
C2159 C2158 1.386 . S
C2159 C2163 1.361 1_565 S
C2160 H2149 0.950 . S
C2160 C2158 1.391 . S
C2160 C2161 1.431 . S
C2161 C2155 1.491 1_564 S
C2161 C2160 1.431 . S
C2161 C2162 1.370 1_565 S
C2162 H2150 0.950 . S
C2162 C2161 1.370 1_545 S
C2162 C2163 1.395 . S
C2163 H2151 0.980 . S
C2163 C2159 1.361 1_545 S
C2163 C2162 1.395 . S
H2164 C2172 0.950 . S
H2165 C2177 0.950 . S
H2166 C2174 0.950 . S
H2167 C2176 0.950 . S
H2168 C2178 0.950 . S
H2169 C2180 0.950 . S
H2170 C2182 0.950 . S
H2171 C2183 0.950 . S
C2172 H2164 0.950 . S
C2172 C2173 1.386 1_455 S
C2172 C2174 1.391 . S
C2173 C2172 1.386 1_655 S
C2173 C2177 1.393 . S
C2174 H2166 0.950 . S
C2174 C2172 1.391 . S
C2174 C2175 1.355 1_455 S
C2175 C2174 1.355 1_655 S
C2175 C2176 1.447 . S
C2175 C2181 1.488 1_656 S
C2176 H2167 0.950 . S
C2176 C2175 1.447 . S
C2176 C2177 1.391 . S
C2177 H2165 0.950 . S
C2177 C2173 1.393 . S
C2177 C2176 1.391 . S
C2178 H2168 0.950 . S
C2178 C2179 1.386 1_655 S
C2178 C2180 1.391 . S
C2179 C2178 1.386 1_455 S
C2179 C2183 1.393 . S
C2180 H2169 0.950 . S
C2180 C2178 1.391 . S
C2180 C2181 1.400 1_655 S
C2181 C2175 1.488 1_454 S
C2181 C2180 1.400 1_455 S
C2181 C2182 1.398 . S
C2182 H2170 0.950 . S
C2182 C2181 1.398 . S
C2182 C2183 1.391 . S
C2183 H2171 0.950 . S
C2183 C2179 1.393 . S
C2183 C2182 1.391 . S
H2184 C2192 0.950 . S
H2185 C2197 0.950 . S
H2186 C2194 0.950 . S
H2187 C2196 0.950 . S
H2188 C2198 0.950 . S
H2189 C2200 0.950 . S
H2190 C2202 0.950 . S
H2191 C2203 0.950 . S
C2192 H2184 0.950 . S
C2192 C2193 1.386 . S
C2192 C2194 1.391 . S
C2193 C2192 1.386 . S
C2193 C2197 1.393 . S
C2194 H2186 0.950 . S
C2194 C2192 1.391 . S
C2194 C2195 1.400 . S
C2195 C2194 1.400 . S
C2195 C2196 1.398 . S
C2195 C2201 1.491 . S
C2196 H2187 0.950 . S
C2196 C2195 1.398 . S
C2196 C2197 1.391 . S
C2197 H2185 0.950 . S
C2197 C2193 1.393 . S
C2197 C2196 1.391 . S
C2198 H2188 0.950 . S
C2198 C2199 1.386 . S
C2198 C2200 1.391 . S
C2199 C2198 1.386 . S
C2199 C2203 1.393 . S
C2200 H2189 0.950 . S
C2200 C2198 1.391 . S
C2200 C2201 1.400 . S
C2201 C2195 1.491 . S
C2201 C2200 1.400 . S
C2201 C2202 1.398 . S
C2202 H2190 0.950 . S
C2202 C2201 1.398 . S
C2202 C2203 1.391 . S
C2203 H2191 0.950 . S
C2203 C2199 1.393 . S
C2203 C2202 1.391 . S
H2204 C2212 0.950 . S
H2205 C2217 0.950 . S
H2206 C2214 0.950 . S
H2207 C2216 0.950 . S
H2208 C2218 0.950 . S
H2209 C2220 0.950 . S
H2210 C2222 0.950 . S
H2211 C2223 0.950 . S
C2212 H2204 0.950 . S
C2212 C2213 1.386 . S
C2212 C2214 1.391 . S
C2213 C2212 1.386 . S
C2213 C2217 1.393 . S
C2214 H2206 0.950 . S
C2214 C2212 1.391 . S
C2214 C2215 1.400 . S
C2215 C2214 1.400 . S
C2215 C2216 1.398 . S
C2215 C2221 1.491 . S
C2216 H2207 0.950 . S
C2216 C2215 1.398 . S
C2216 C2217 1.391 . S
C2217 H2205 0.950 . S
C2217 C2213 1.393 . S
C2217 C2216 1.391 . S
C2218 H2208 0.950 . S
C2218 C2219 1.386 . S
C2218 C2220 1.391 . S
C2219 C2218 1.386 . S
C2219 C2223 1.393 . S
C2220 H2209 0.950 . S
C2220 C2218 1.391 . S
C2220 C2221 1.400 . S
C2221 C2215 1.491 . S
C2221 C2220 1.400 . S
C2221 C2222 1.398 . S
C2222 H2210 0.950 . S
C2222 C2221 1.398 . S
C2222 C2223 1.391 . S
C2223 H2211 0.950 . S
C2223 C2219 1.393 . S
C2223 C2222 1.391 . S
H2224 C2232 0.950 . S
H2225 C2237 0.950 . S
H2226 C2234 0.950 . S
H2227 C2236 0.950 . S
H2228 C2238 0.950 . S
H2229 C2240 0.950 . S
H2230 C2242 0.950 . S
H2231 C2243 0.950 . S
C2232 H2224 0.950 . S
C2232 C2233 1.386 . S
C2232 C2234 1.391 . S
C2233 C2232 1.386 . S
C2233 C2237 1.393 . S
C2234 H2226 0.950 . S
C2234 C2232 1.391 . S
C2234 C2235 1.400 . S
C2235 C2234 1.400 . S
C2235 C2236 1.398 . S
C2235 C2241 1.491 . S
C2236 H2227 0.950 . S
C2236 C2235 1.398 . S
C2236 C2237 1.391 . S
C2237 H2225 0.950 . S
C2237 C2233 1.393 . S
C2237 C2236 1.391 . S
C2238 H2228 0.950 . S
C2238 C2239 1.386 . S
C2238 C2240 1.391 . S
C2239 C2238 1.386 . S
C2239 C2243 1.393 . S
C2240 H2229 0.950 . S
C2240 C2238 1.391 . S
C2240 C2241 1.400 . S
C2241 C2235 1.491 . S
C2241 C2240 1.400 . S
C2241 C2242 1.398 . S
C2242 H2230 0.950 . S
C2242 C2241 1.398 . S
C2242 C2243 1.391 . S
C2243 H2231 0.950 . S
C2243 C2239 1.393 . S
C2243 C2242 1.391 . S
H2244 C2252 0.950 . S
H2245 C2257 0.950 . S
H2246 C2254 0.950 . S
H2247 C2256 0.950 . S
H2248 C2258 0.950 . S
H2249 C2260 0.950 . S
H2250 C2262 0.950 . S
H2251 C2263 0.950 . S
C2252 H2244 0.950 . S
C2252 C2253 1.386 . S
C2252 C2254 1.391 . S
C2253 C2252 1.386 . S
C2253 C2257 1.393 . S
C2254 H2246 0.950 . S
C2254 C2252 1.391 . S
C2254 C2255 1.400 . S
C2255 C2254 1.400 . S
C2255 C2256 1.398 . S
C2255 C2261 1.491 . S
C2256 H2247 0.950 . S
C2256 C2255 1.398 . S
C2256 C2257 1.391 . S
C2257 H2245 0.950 . S
C2257 C2253 1.393 . S
C2257 C2256 1.391 . S
C2258 H2248 0.950 . S
C2258 C2259 1.386 . S
C2258 C2260 1.391 . S
C2259 C2258 1.386 . S
C2259 C2263 1.393 . S
C2260 H2249 0.950 . S
C2260 C2258 1.391 . S
C2260 C2261 1.400 . S
C2261 C2255 1.491 . S
C2261 C2260 1.400 . S
C2261 C2262 1.398 . S
C2262 H2250 0.950 . S
C2262 C2261 1.398 . S
C2262 C2263 1.391 . S
C2263 H2251 0.950 . S
C2263 C2259 1.393 . S
C2263 C2262 1.391 . S
H2264 C2272 0.950 . S
H2265 C2277 0.950 . S
H2266 C2274 0.950 . S
H2267 C2276 0.950 . S
H2268 C2278 0.950 . S
H2269 C2280 0.950 . S
H2270 C2282 0.950 . S
H2271 C2283 0.950 . S
C2272 H2264 0.950 . S
C2272 C2273 1.386 . S
C2272 C2274 1.391 . S
C2273 C2272 1.386 . S
C2273 C2277 1.393 . S
C2274 H2266 0.950 . S
C2274 C2272 1.391 . S
C2274 C2275 1.400 . S
C2275 C2274 1.400 . S
C2275 C2276 1.398 . S
C2275 C2281 1.491 . S
C2276 H2267 0.950 . S
C2276 C2275 1.398 . S
C2276 C2277 1.391 . S
C2277 H2265 0.950 . S
C2277 C2273 1.393 . S
C2277 C2276 1.391 . S
C2278 H2268 0.950 . S
C2278 C2279 1.386 . S
C2278 C2280 1.391 . S
C2279 C2278 1.386 . S
C2279 C2283 1.393 . S
C2280 H2269 0.950 . S
C2280 C2278 1.391 . S
C2280 C2281 1.400 . S
C2281 C2275 1.491 . S
C2281 C2280 1.400 . S
C2281 C2282 1.398 . S
C2282 H2270 0.950 . S
C2282 C2281 1.398 . S
C2282 C2283 1.391 . S
C2283 H2271 0.950 . S
C2283 C2279 1.393 . S
C2283 C2282 1.391 . S
H2284 C2292 0.950 . S
H2285 C2297 0.950 . S
H2286 C2294 0.950 . S
H2287 C2296 0.950 . S
H2288 C2298 0.950 . S
H2289 C2300 0.950 . S
H2290 C2302 0.950 . S
H2291 C2303 0.950 . S
C2292 H2284 0.950 . S
C2292 C2293 1.386 . S
C2292 C2294 1.391 . S
C2293 C2292 1.386 . S
C2293 C2297 1.393 . S
C2294 H2286 0.950 . S
C2294 C2292 1.391 . S
C2294 C2295 1.400 . S
C2295 C2294 1.400 . S
C2295 C2296 1.398 . S
C2295 C2301 1.491 . S
C2296 H2287 0.950 . S
C2296 C2295 1.398 . S
C2296 C2297 1.391 . S
C2297 H2285 0.950 . S
C2297 C2293 1.393 . S
C2297 C2296 1.391 . S
C2298 H2288 0.950 . S
C2298 C2299 1.386 . S
C2298 C2300 1.391 . S
C2299 C2298 1.386 . S
C2299 C2303 1.393 . S
C2300 H2289 0.950 . S
C2300 C2298 1.391 . S
C2300 C2301 1.400 . S
C2301 C2295 1.491 . S
C2301 C2300 1.400 . S
C2301 C2302 1.398 . S
C2302 H2290 0.950 . S
C2302 C2301 1.398 . S
C2302 C2303 1.391 . S
C2303 H2291 0.950 . S
C2303 C2299 1.393 . S
C2303 C2302 1.391 . S
C1593 C900 0.762 . S
C1599 C29 0.784 . S
C1613 C145 0.754 . S
C1619 C1017 0.728 . S
C1633 C812 0.734 . S
C1639 C233 0.757 . S
C1653 C1289 0.773 . S
C1659 C284 0.761 . S
C1673 C372 0.755 . S
C1679 C1085 0.742 . S
C1693 C1201 0.758 . S
C1699 C497 0.731 . S
C1713 C548 0.812 . S
C1719 C1465 0.791 . S
C1733 C1545 0.787 . S
C1739 C673 0.772 . S
C1753 C761 0.806 . S
C1759 C1340 0.787 . S
C1773 C57 0.943 . S
C1779 C108 1.046 . S
C1793 C117 0.942 . S
C1799 C196 0.986 . S
C1813 C49 1.059 . S
C1819 C205 0.964 . S
C1833 C460 1.048 . S
C1839 C313 0.950 . S
C1853 C321 1.055 . S
C1859 C401 1.006 . S
C1873 C469 0.905 . S
C1879 C409 0.992 . S
C1893 C577 1.001 . S
C1899 C636 1.093 . S
C1913 C645 1.005 . S
C1919 C724 1.058 . S
C1933 C585 1.055 . S
C1939 C733 0.947 . S
C1953 C997 1.102 . S
C1959 C841 1.013 . S
C1973 C849 1.035 . S
C1979 C929 0.971 . S
C1993 C937 1.056 . S
C1999 C988 1.004 . S
C2013 C1164 1.104 . S
C2019 C1113 1.012 . S
C2033 C1252 1.060 . S
C2039 C1173 0.953 . S
C2053 C1105 1.036 . S
C2059 C1261 0.964 . S
C2073 C1369 0.974 . S
C2079 C1525 1.094 . S
C2093 C1437 0.946 . S
C2099 C1377 1.056 . S
C2113 C1516 0.980 . S
C2119 C1428 1.060 . S
C2133 C20 1.594 . S
C2139 C293 1.598 . S
C2153 C381 1.549 . S
C2159 C137 1.539 . S
C2173 C489 1.535 . S
C2179 C225 1.558 . S
C2193 C821 1.610 . S
C2199 C557 1.596 . S
C2213 C909 1.570 . S
C2219 C665 1.586 . S
C2233 C753 1.593 . S
C2239 C1025 1.605 . S
C2253 C1349 1.596 . S
C2259 C1076 1.602 . S
C2273 C1457 1.599 . S
C2279 C1193 1.595 . S
C2293 C1553 1.586 . S
C2299 C1281 1.582 . S
