# Generated by pormake.
# Topology unr, (4)-cn, num edge types: 1
# Building blocks:
#     Node 0, Type 0, BuildingBlock: AZAVOO_clean_sbu_0, # of connection points: 4
#     Node 1, Type 0, BuildingBlock: AZAVOO_clean_sbu_0, # of connection points: 4
#     Node 2, Type 0, BuildingBlock: AZAVOO_clean_sbu_0, # of connection points: 4
#     Node 3, Type 0, BuildingBlock: AZAVOO_clean_sbu_0, # of connection points: 4
#     Node 4, Type 0, BuildingBlock: AZAVOO_clean_sbu_0, # of connection points: 4
#     Node 5, Type 0, BuildingBlock: AZAVOO_clean_sbu_0, # of connection points: 4
#     Node 6, Type 0, BuildingBlock: AZAVOO_clean_sbu_0, # of connection points: 4
#     Node 7, Type 0, BuildingBlock: AZAVOO_clean_sbu_0, # of connection points: 4
#     Node 8, Type 0, BuildingBlock: AZAVOO_clean_sbu_0, # of connection points: 4
#     Node 9, Type 0, BuildingBlock: AZAVOO_clean_sbu_0, # of connection points: 4
#     Node 10, Type 0, BuildingBlock: AZAVOO_clean_sbu_0, # of connection points: 4
#     Node 11, Type 0, BuildingBlock: AZAVOO_clean_sbu_0, # of connection points: 4
#     Node 12, Type 0, BuildingBlock: AZAVOO_clean_sbu_0, # of connection points: 4
#     Node 13, Type 0, BuildingBlock: AZAVOO_clean_sbu_0, # of connection points: 4
#     Node 14, Type 0, BuildingBlock: AZAVOO_clean_sbu_0, # of connection points: 4
#     Node 15, Type 0, BuildingBlock: AZAVOO_clean_sbu_0, # of connection points: 4
#     Node 16, Type 0, BuildingBlock: AZAVOO_clean_sbu_0, # of connection points: 4
#     Node 17, Type 0, BuildingBlock: AZAVOO_clean_sbu_0, # of connection points: 4
#     Node 18, Type 0, BuildingBlock: AZAVOO_clean_sbu_0, # of connection points: 4
#     Node 19, Type 0, BuildingBlock: AZAVOO_clean_sbu_0, # of connection points: 4
#     Node 20, Type 0, BuildingBlock: AZAVOO_clean_sbu_0, # of connection points: 4
#     Node 21, Type 0, BuildingBlock: AZAVOO_clean_sbu_0, # of connection points: 4
#     Node 22, Type 0, BuildingBlock: AZAVOO_clean_sbu_0, # of connection points: 4
#     Node 23, Type 0, BuildingBlock: AZAVOO_clean_sbu_0, # of connection points: 4
#     Node 24, Type 0, BuildingBlock: AZAVOO_clean_sbu_0, # of connection points: 4
#     Node 25, Type 0, BuildingBlock: AZAVOO_clean_sbu_0, # of connection points: 4
#     Node 26, Type 0, BuildingBlock: AZAVOO_clean_sbu_0, # of connection points: 4
#     Node 27, Type 0, BuildingBlock: AZAVOO_clean_sbu_0, # of connection points: 4
#     Node 28, Type 0, BuildingBlock: AZAVOO_clean_sbu_0, # of connection points: 4
#     Node 29, Type 0, BuildingBlock: AZAVOO_clean_sbu_0, # of connection points: 4
#     Node 30, Type 0, BuildingBlock: AZAVOO_clean_sbu_0, # of connection points: 4
#     Node 31, Type 0, BuildingBlock: AZAVOO_clean_sbu_0, # of connection points: 4
#     Node 32, Type 0, BuildingBlock: AZAVOO_clean_sbu_0, # of connection points: 4
#     Node 33, Type 0, BuildingBlock: AZAVOO_clean_sbu_0, # of connection points: 4
#     Node 34, Type 0, BuildingBlock: AZAVOO_clean_sbu_0, # of connection points: 4
#     Node 35, Type 0, BuildingBlock: AZAVOO_clean_sbu_0, # of connection points: 4
#     Edge 36, Type (0, 0), BuildingBlock: TEMPAE_clean_linker_10, # of connection points: 2
#     Edge 37, Type (0, 0), BuildingBlock: TEMPAE_clean_linker_10, # of connection points: 2
#     Edge 38, Type (0, 0), BuildingBlock: TEMPAE_clean_linker_10, # of connection points: 2
#     Edge 39, Type (0, 0), BuildingBlock: TEMPAE_clean_linker_10, # of connection points: 2
#     Edge 40, Type (0, 0), BuildingBlock: TEMPAE_clean_linker_10, # of connection points: 2
#     Edge 41, Type (0, 0), BuildingBlock: TEMPAE_clean_linker_10, # of connection points: 2
#     Edge 42, Type (0, 0), BuildingBlock: TEMPAE_clean_linker_10, # of connection points: 2
#     Edge 43, Type (0, 0), BuildingBlock: TEMPAE_clean_linker_10, # of connection points: 2
#     Edge 44, Type (0, 0), BuildingBlock: TEMPAE_clean_linker_10, # of connection points: 2
#     Edge 45, Type (0, 0), BuildingBlock: TEMPAE_clean_linker_10, # of connection points: 2
#     Edge 46, Type (0, 0), BuildingBlock: TEMPAE_clean_linker_10, # of connection points: 2
#     Edge 47, Type (0, 0), BuildingBlock: TEMPAE_clean_linker_10, # of connection points: 2
#     Edge 48, Type (0, 0), BuildingBlock: TEMPAE_clean_linker_10, # of connection points: 2
#     Edge 49, Type (0, 0), BuildingBlock: TEMPAE_clean_linker_10, # of connection points: 2
#     Edge 50, Type (0, 0), BuildingBlock: TEMPAE_clean_linker_10, # of connection points: 2
#     Edge 51, Type (0, 0), BuildingBlock: TEMPAE_clean_linker_10, # of connection points: 2
#     Edge 52, Type (0, 0), BuildingBlock: TEMPAE_clean_linker_10, # of connection points: 2
#     Edge 53, Type (0, 0), BuildingBlock: TEMPAE_clean_linker_10, # of connection points: 2
#     Edge 54, Type (0, 0), BuildingBlock: TEMPAE_clean_linker_10, # of connection points: 2
#     Edge 55, Type (0, 0), BuildingBlock: TEMPAE_clean_linker_10, # of connection points: 2
#     Edge 56, Type (0, 0), BuildingBlock: TEMPAE_clean_linker_10, # of connection points: 2
#     Edge 57, Type (0, 0), BuildingBlock: TEMPAE_clean_linker_10, # of connection points: 2
#     Edge 58, Type (0, 0), BuildingBlock: TEMPAE_clean_linker_10, # of connection points: 2
#     Edge 59, Type (0, 0), BuildingBlock: TEMPAE_clean_linker_10, # of connection points: 2
#     Edge 60, Type (0, 0), BuildingBlock: TEMPAE_clean_linker_10, # of connection points: 2
#     Edge 61, Type (0, 0), BuildingBlock: TEMPAE_clean_linker_10, # of connection points: 2
#     Edge 62, Type (0, 0), BuildingBlock: TEMPAE_clean_linker_10, # of connection points: 2
#     Edge 63, Type (0, 0), BuildingBlock: TEMPAE_clean_linker_10, # of connection points: 2
#     Edge 64, Type (0, 0), BuildingBlock: TEMPAE_clean_linker_10, # of connection points: 2
#     Edge 65, Type (0, 0), BuildingBlock: TEMPAE_clean_linker_10, # of connection points: 2
#     Edge 66, Type (0, 0), BuildingBlock: TEMPAE_clean_linker_10, # of connection points: 2
#     Edge 67, Type (0, 0), BuildingBlock: TEMPAE_clean_linker_10, # of connection points: 2
#     Edge 68, Type (0, 0), BuildingBlock: TEMPAE_clean_linker_10, # of connection points: 2
#     Edge 69, Type (0, 0), BuildingBlock: TEMPAE_clean_linker_10, # of connection points: 2
#     Edge 70, Type (0, 0), BuildingBlock: TEMPAE_clean_linker_10, # of connection points: 2
#     Edge 71, Type (0, 0), BuildingBlock: TEMPAE_clean_linker_10, # of connection points: 2
#     Edge 72, Type (0, 0), BuildingBlock: TEMPAE_clean_linker_10, # of connection points: 2
#     Edge 73, Type (0, 0), BuildingBlock: TEMPAE_clean_linker_10, # of connection points: 2
#     Edge 74, Type (0, 0), BuildingBlock: TEMPAE_clean_linker_10, # of connection points: 2
#     Edge 75, Type (0, 0), BuildingBlock: TEMPAE_clean_linker_10, # of connection points: 2
#     Edge 76, Type (0, 0), BuildingBlock: TEMPAE_clean_linker_10, # of connection points: 2
#     Edge 77, Type (0, 0), BuildingBlock: TEMPAE_clean_linker_10, # of connection points: 2
#     Edge 78, Type (0, 0), BuildingBlock: TEMPAE_clean_linker_10, # of connection points: 2
#     Edge 79, Type (0, 0), BuildingBlock: TEMPAE_clean_linker_10, # of connection points: 2
#     Edge 80, Type (0, 0), BuildingBlock: TEMPAE_clean_linker_10, # of connection points: 2
#     Edge 81, Type (0, 0), BuildingBlock: TEMPAE_clean_linker_10, # of connection points: 2
#     Edge 82, Type (0, 0), BuildingBlock: TEMPAE_clean_linker_10, # of connection points: 2
#     Edge 83, Type (0, 0), BuildingBlock: TEMPAE_clean_linker_10, # of connection points: 2
#     Edge 84, Type (0, 0), BuildingBlock: TEMPAE_clean_linker_10, # of connection points: 2
#     Edge 85, Type (0, 0), BuildingBlock: TEMPAE_clean_linker_10, # of connection points: 2
#     Edge 86, Type (0, 0), BuildingBlock: TEMPAE_clean_linker_10, # of connection points: 2
#     Edge 87, Type (0, 0), BuildingBlock: TEMPAE_clean_linker_10, # of connection points: 2
#     Edge 88, Type (0, 0), BuildingBlock: TEMPAE_clean_linker_10, # of connection points: 2
#     Edge 89, Type (0, 0), BuildingBlock: TEMPAE_clean_linker_10, # of connection points: 2
#     Edge 90, Type (0, 0), BuildingBlock: TEMPAE_clean_linker_10, # of connection points: 2
#     Edge 91, Type (0, 0), BuildingBlock: TEMPAE_clean_linker_10, # of connection points: 2
#     Edge 92, Type (0, 0), BuildingBlock: TEMPAE_clean_linker_10, # of connection points: 2
#     Edge 93, Type (0, 0), BuildingBlock: TEMPAE_clean_linker_10, # of connection points: 2
#     Edge 94, Type (0, 0), BuildingBlock: TEMPAE_clean_linker_10, # of connection points: 2
#     Edge 95, Type (0, 0), BuildingBlock: TEMPAE_clean_linker_10, # of connection points: 2
#     Edge 96, Type (0, 0), BuildingBlock: TEMPAE_clean_linker_10, # of connection points: 2
#     Edge 97, Type (0, 0), BuildingBlock: TEMPAE_clean_linker_10, # of connection points: 2
#     Edge 98, Type (0, 0), BuildingBlock: TEMPAE_clean_linker_10, # of connection points: 2
#     Edge 99, Type (0, 0), BuildingBlock: TEMPAE_clean_linker_10, # of connection points: 2
#     Edge 100, Type (0, 0), BuildingBlock: TEMPAE_clean_linker_10, # of connection points: 2
#     Edge 101, Type (0, 0), BuildingBlock: TEMPAE_clean_linker_10, # of connection points: 2
#     Edge 102, Type (0, 0), BuildingBlock: TEMPAE_clean_linker_10, # of connection points: 2
#     Edge 103, Type (0, 0), BuildingBlock: TEMPAE_clean_linker_10, # of connection points: 2
#     Edge 104, Type (0, 0), BuildingBlock: TEMPAE_clean_linker_10, # of connection points: 2
#     Edge 105, Type (0, 0), BuildingBlock: TEMPAE_clean_linker_10, # of connection points: 2
#     Edge 106, Type (0, 0), BuildingBlock: TEMPAE_clean_linker_10, # of connection points: 2
#     Edge 107, Type (0, 0), BuildingBlock: TEMPAE_clean_linker_10, # of connection points: 2
# Relax obj value: 0.383
# Max RMSD: 0.232
# Mean RMSD: 0.232
data_MOF--net-unr--node1-AZAVOO_clean_sbu_0--edge1-TEMPAE_clean_linker_10
_symmetry_space_group_name_H-M    P1
_symmetry_Int_Tables_number       1
_symmetry_cell_setting            triclinic
loop_
_symmetry_equiv_pos_as_xyz
'x, y, z'
_cell_length_a     44.102607
_cell_length_b     44.113835
_cell_length_c     136.33043
_cell_angle_alpha  90.005025
_cell_angle_beta   89.987458
_cell_angle_gamma 119.99634
loop_
_atom_site_label
_atom_site_type_symbol
_atom_site_fract_x
_atom_site_fract_y
_atom_site_fract_z
_atom_type_partial_charge
Mg0 Mg 0.18764 0.19874 0.18908 0.0
O1 O 0.15925 0.13946 0.1894 0.0
O2 O 0.10509 0.117 0.1952 0.0
Mg3 Mg 0.10093 0.1645 0.20025 0.0
C4 C 0.12951 0.11327 0.19143 0.0
C5 C 0.26129 0.21366 0.1798 0.0
O6 O 0.26433 0.24311 0.17657 0.0
O7 O 0.19917 0.20192 0.20569 0.0
O8 O 0.14444 0.17895 0.21142 0.0
O9 O 0.15895 0.1923 0.17487 0.0
O10 O 0.14005 0.19845 0.18932 0.0
C11 C 0.17725 0.19191 0.21279 0.0
C12 C 0.13423 0.19167 0.18015 0.0
O13 O 0.23517 0.19346 0.18509 0.0
Mg14 Mg 0.80235 0.99072 0.19303 0.0
O15 O 0.86163 0.0253 0.19204 0.0
O16 O 0.888 0.00495 0.20177 0.0
Mg17 Mg 0.84418 0.95563 0.20908 0.0
C18 C 0.88922 0.02707 0.19552 0.0
C19 C 0.80041 0.04203 0.17677 0.0
O20 O 0.7964 0.01766 0.17051 0.0
O21 O 0.79918 0.01069 0.20842 0.0
O22 O 0.82411 0.98669 0.21747 0.0
O23 O 0.80689 0.95721 0.18115 0.0
O24 O 0.80737 0.94787 0.197 0.0
C25 C 0.80906 0.00484 0.21666 0.0
C26 C 0.8107 0.9397 0.1882 0.0
O27 O 0.80104 0.03681 0.18592 0.0
Mg28 Mg 0.01392 0.80657 0.19176 0.0
O29 O 0.97963 0.83152 0.1919 0.0
O30 O 0.0069 0.88247 0.19981 0.0
Mg31 Mg 0.05806 0.88833 0.20594 0.0
C32 C 0.98105 0.85957 0.19483 0.0
C33 C 0.95492 0.75949 0.17724 0.0
O34 O 0.97424 0.787 0.17175 0.0
O35 O 0.99938 0.78767 0.2078 0.0
O36 O 0.03011 0.83948 0.21533 0.0
O37 O 0.04216 0.84175 0.17875 0.0
O38 O 0.05901 0.85508 0.1941 0.0
C39 C 0.01064 0.80629 0.21557 0.0
C40 C 0.06269 0.86465 0.1851 0.0
O41 O 0.96537 0.75822 0.18585 0.0
Mg42 Mg 0.20259 0.18563 0.3081 0.0
O43 O 0.14313 0.15991 0.30833 0.0
O44 O 0.11914 0.10977 0.29998 0.0
Mg45 Mg 0.16451 0.10355 0.29405 0.0
C46 C 0.11638 0.13223 0.30523 0.0
C47 C 0.18999 0.23323 0.32231 0.0
O48 O 0.17772 0.20425 0.32745 0.0
O49 O 0.20588 0.20383 0.29201 0.0
O50 O 0.18525 0.15203 0.28449 0.0
O51 O 0.1969 0.15151 0.32121 0.0
O52 O 0.19888 0.13709 0.30586 0.0
C53 C 0.19867 0.18518 0.28424 0.0
C54 C 0.19381 0.12816 0.31491 0.0
O55 O 0.20383 0.23483 0.314 0.0
Mg56 Mg 0.81184 0.01344 0.31082 0.0
O57 O 0.83788 0.97989 0.31037 0.0
O58 O 0.88898 0.00738 0.30248 0.0
Mg59 Mg 0.89392 0.05855 0.29678 0.0
C60 C 0.86598 0.98142 0.30739 0.0
C61 C 0.76699 0.9502 0.32423 0.0
O62 O 0.79765 0.96541 0.3286 0.0
O63 O 0.79356 0.00066 0.29473 0.0
O64 O 0.84562 0.02859 0.28715 0.0
O65 O 0.8459 0.03931 0.32398 0.0
O66 O 0.86038 0.05853 0.30877 0.0
C67 C 0.81233 0.00976 0.28695 0.0
C68 C 0.86926 0.06042 0.31781 0.0
O69 O 0.76295 0.96454 0.31663 0.0
Mg70 Mg 0.98138 0.79519 0.31043 0.0
O71 O 0.014 0.85467 0.31034 0.0
O72 O 0.98393 0.87847 0.3042 0.0
Mg73 Mg 0.93252 0.83238 0.29852 0.0
C74 C 0.01129 0.88135 0.30827 0.0
C75 C 0.04709 0.81417 0.3227 0.0
O76 O 0.03149 0.82791 0.32772 0.0
O77 O 0.99173 0.79231 0.29396 0.0
O78 O 0.96204 0.81689 0.2878 0.0
O79 O 0.95758 0.80164 0.32434 0.0
O80 O 0.93526 0.79753 0.30958 0.0
C81 C 0.98127 0.80309 0.2867 0.0
C82 C 0.9351 0.80392 0.31874 0.0
O83 O 0.03211 0.79649 0.31503 0.0
Mg84 Mg 0.80971 0.79619 0.81043 0.0
O85 O 0.83623 0.85572 0.80924 0.0
O86 O 0.88672 0.87725 0.80107 0.0
Mg87 Mg 0.89147 0.82975 0.7964 0.0
C88 C 0.86426 0.88145 0.80588 0.0
C89 C 0.76494 0.81678 0.82306 0.0
O90 O 0.79609 0.83458 0.82708 0.0
O91 O 0.79136 0.78882 0.79433 0.0
O92 O 0.84292 0.80867 0.7867 0.0
O93 O 0.84297 0.80639 0.82377 0.0
O94 O 0.85842 0.79944 0.80887 0.0
C95 C 0.80974 0.79525 0.78654 0.0
C96 C 0.8669 0.80848 0.81785 0.0
O97 O 0.76071 0.79647 0.81591 0.0
Mg98 Mg 0.20062 0.0144 0.80931 0.0
O99 O 0.14084 0.98436 0.80946 0.0
O100 O 0.11913 0.00985 0.79986 0.0
Mg101 Mg 0.16674 0.0568 0.79295 0.0
C102 C 0.115 0.9859 0.80586 0.0
C103 C 0.21604 0.95387 0.81704 0.0
O104 O 0.24493 0.96935 0.81182 0.0
O105 O 0.20237 0.99273 0.79403 0.0
O106 O 0.18083 0.02022 0.78505 0.0
O107 O 0.19764 0.04826 0.82115 0.0
O108 O 0.20062 0.06004 0.80532 0.0
C109 C 0.19286 0.99938 0.78582 0.0
C110 C 0.196 0.0672 0.81414 0.0
O111 O 0.19598 0.96679 0.81727 0.0
Mg112 Mg 0.98304 0.18755 0.80875 0.0
O113 O 0.0174 0.16275 0.80811 0.0
O114 O 0.98885 0.10957 0.80144 0.0
Mg115 Mg 0.93694 0.10317 0.79589 0.0
C116 C 0.01579 0.13414 0.80565 0.0
C117 C 0.0421 0.23955 0.82264 0.0
O118 O 0.0209 0.21554 0.82886 0.0
O119 O 0.99368 0.20327 0.79246 0.0
O120 O 0.96642 0.1499 0.78564 0.0
O121 O 0.9601 0.15524 0.82236 0.0
O122 O 0.93792 0.13817 0.80754 0.0
C123 C 0.98471 0.18316 0.78497 0.0
C124 C 0.9382 0.13071 0.81662 0.0
O125 O 0.03294 0.23708 0.81369 0.0
Mg126 Mg 0.79664 0.81025 0.69185 0.0
O127 O 0.85638 0.83763 0.69187 0.0
O128 O 0.87954 0.88916 0.69947 0.0
Mg129 Mg 0.83317 0.89172 0.70609 0.0
C130 C 0.88282 0.86642 0.69451 0.0
C131 C 0.81658 0.76833 0.67788 0.0
O132 O 0.83155 0.79953 0.67384 0.0
O133 O 0.79383 0.79156 0.70778 0.0
O134 O 0.8184 0.84346 0.71544 0.0
O135 O 0.80263 0.84436 0.67892 0.0
O136 O 0.79881 0.85792 0.69431 0.0
C137 C 0.80479 0.81025 0.71555 0.0
C138 C 0.80517 0.8673 0.68529 0.0
O139 O 0.79781 0.76279 0.6855 0.0
Mg140 Mg 0.18816 0.98592 0.69179 0.0
O141 O 0.16072 0.0177 0.69276 0.0
O142 O 0.11153 0.98995 0.70152 0.0
Mg143 Mg 0.10771 0.93803 0.70627 0.0
C144 C 0.13327 0.01592 0.69636 0.0
C145 C 0.24915 0.04196 0.67806 0.0
O146 O 0.23874 0.01568 0.67191 0.0
O147 O 0.20749 0.99764 0.7078 0.0
O148 O 0.15667 0.96549 0.71573 0.0
O149 O 0.15373 0.96028 0.67864 0.0
O150 O 0.14059 0.93989 0.69376 0.0
C151 C 0.1898 0.98549 0.71569 0.0
C152 C 0.13102 0.93825 0.6848 0.0
O153 O 0.235 0.03674 0.68647 0.0
Mg154 Mg 0.01137 0.2002 0.69014 0.0
O155 O 0.98084 0.1416 0.69213 0.0
O156 O 0.01093 0.12149 0.70026 0.0
Mg157 Mg 0.06266 0.17103 0.70443 0.0
C158 C 0.98366 0.11638 0.6956 0.0
C159 C 0.95149 0.21609 0.68186 0.0
O160 O 0.97522 0.24949 0.68213 0.0
O161 O 0.00056 0.20895 0.70612 0.0
O162 O 0.03443 0.19204 0.71389 0.0
O163 O 0.03406 0.18874 0.67695 0.0
O164 O 0.05844 0.19946 0.69165 0.0
C165 C 0.0137 0.20435 0.71395 0.0
C166 C 0.05721 0.18883 0.6828 0.0
O167 O 0.95942 0.19352 0.6847 0.0
Mg168 Mg 0.85703 0.53469 0.52579 0.0
O169 O 0.82666 0.47491 0.52638 0.0
O170 O 0.77601 0.45252 0.53451 0.0
Mg171 Mg 0.77616 0.4996 0.54168 0.0
C172 C 0.79795 0.44882 0.52927 0.0
C173 C 0.92527 0.54728 0.51285 0.0
O174 O 0.93227 0.57944 0.51112 0.0
O175 O 0.88453 0.54013 0.541 0.0
O176 O 0.83079 0.51929 0.54561 0.0
O177 O 0.81817 0.52986 0.51401 0.0
O178 O 0.80942 0.53472 0.52963 0.0
C179 C 0.86224 0.53063 0.5479 0.0
C180 C 0.79772 0.52962 0.52085 0.0
O181 O 0.89905 0.52725 0.51813 0.0
Mg182 Mg 0.46278 0.31722 0.52413 0.0
O183 O 0.5221 0.3519 0.52502 0.0
O184 O 0.54629 0.32274 0.5316 0.0
Mg185 Mg 0.50068 0.2703 0.53677 0.0
C186 C 0.54893 0.35006 0.52756 0.0
C187 C 0.47771 0.38002 0.51109 0.0
O188 O 0.4904 0.36358 0.50601 0.0
O189 O 0.45731 0.32695 0.54047 0.0
O190 O 0.48293 0.29899 0.54718 0.0
O191 O 0.47205 0.29486 0.51038 0.0
O192 O 0.46717 0.27211 0.52512 0.0
C193 C 0.46803 0.31734 0.54793 0.0
C194 C 0.47469 0.27269 0.516 0.0
O195 O 0.46243 0.36683 0.5192 0.0
Mg196 Mg 0.67952 0.14486 0.52381 0.0
O197 O 0.6467 0.17113 0.52471 0.0
O198 O 0.67532 0.22206 0.53265 0.0
Mg199 Mg 0.72848 0.22804 0.53711 0.0
C200 C 0.64869 0.19912 0.52793 0.0
C201 C 0.62251 0.08303 0.51067 0.0
O202 O 0.64716 0.09669 0.50396 0.0
O203 O 0.67034 0.12814 0.54009 0.0
O204 O 0.70388 0.18051 0.5471 0.0
O205 O 0.70256 0.1781 0.51024 0.0
O206 O 0.72524 0.19321 0.52508 0.0
C207 C 0.68433 0.14738 0.54764 0.0
C208 C 0.72519 0.2017 0.5161 0.0
O209 O 0.62887 0.09593 0.51926 0.0
Mg210 Mg 0.86773 0.52183 0.64363 0.0
O211 O 0.80873 0.4974 0.64246 0.0
O212 O 0.78509 0.44434 0.63568 0.0
Mg213 Mg 0.83087 0.43472 0.63253 0.0
C214 C 0.78232 0.46925 0.63949 0.0
C215 C 0.87753 0.58738 0.65525 0.0
O216 O 0.8905 0.57494 0.66174 0.0
O217 O 0.87526 0.53366 0.62703 0.0
O218 O 0.85445 0.47913 0.62144 0.0
O219 O 0.85671 0.49369 0.65806 0.0
O220 O 0.86282 0.47211 0.64406 0.0
C221 C 0.86897 0.51206 0.62001 0.0
C222 C 0.85437 0.46746 0.65317 0.0
O223 O 0.86815 0.57266 0.64692 0.0
Mg224 Mg 0.47478 0.3472 0.64306 0.0
O225 O 0.49775 0.31107 0.64258 0.0
O226 O 0.54903 0.33679 0.63481 0.0
Mg227 Mg 0.55687 0.38915 0.62905 0.0
C228 C 0.52516 0.31113 0.63964 0.0
C229 C 0.42915 0.28557 0.65657 0.0
O230 O 0.46009 0.30021 0.66077 0.0
O231 O 0.45625 0.33385 0.62705 0.0
O232 O 0.50813 0.36129 0.61936 0.0
O233 O 0.50881 0.37206 0.65626 0.0
O234 O 0.52463 0.39106 0.64109 0.0
C235 C 0.47478 0.34298 0.61924 0.0
C236 C 0.5329 0.39256 0.65017 0.0
O237 O 0.42509 0.29991 0.64897 0.0
Mg238 Mg 0.65175 0.13516 0.64196 0.0
O239 O 0.68346 0.19466 0.64369 0.0
O240 O 0.65847 0.21966 0.63519 0.0
Mg241 Mg 0.60943 0.1752 0.62801 0.0
C242 C 0.68248 0.22163 0.64082 0.0
C243 C 0.70807 0.14152 0.6572 0.0
O244 O 0.68706 0.14577 0.66315 0.0
O245 O 0.67107 0.13737 0.62607 0.0
O246 O 0.64331 0.16174 0.61857 0.0
O247 O 0.61807 0.13501 0.65462 0.0
O248 O 0.60668 0.13729 0.63901 0.0
C249 C 0.66354 0.14887 0.61837 0.0
C250 C 0.59894 0.1384 0.648 0.0
O251 O 0.69967 0.13473 0.64821 0.0
Mg252 Mg 0.48245 0.1297 0.14275 0.0
O253 O 0.5089 0.18911 0.14314 0.0
O254 O 0.5615 0.21365 0.13611 0.0
Mg255 Mg 0.5665 0.16847 0.12959 0.0
C256 C 0.5377 0.21605 0.14078 0.0
C257 C 0.43495 0.14259 0.15696 0.0
O258 O 0.46301 0.1523 0.16235 0.0
O259 O 0.46633 0.12843 0.12655 0.0
O260 O 0.5197 0.15365 0.11977 0.0
O261 O 0.51567 0.13468 0.15602 0.0
O262 O 0.53065 0.1324 0.14073 0.0
C263 C 0.48658 0.14004 0.11908 0.0
C264 C 0.53913 0.1374 0.14982 0.0
O265 O 0.43364 0.13003 0.14846 0.0
Mg266 Mg 0.87217 0.34864 0.14326 0.0
O267 O 0.81275 0.31546 0.14257 0.0
O268 O 0.78967 0.34527 0.13579 0.0
Mg269 Mg 0.83633 0.39806 0.13092 0.0
C270 C 0.78631 0.31793 0.14002 0.0
C271 C 0.85249 0.2823 0.15521 0.0
O272 O 0.83623 0.29619 0.15983 0.0
O273 O 0.87761 0.33932 0.1268 0.0
O274 O 0.85721 0.37252 0.12051 0.0
O275 O 0.86348 0.37126 0.15714 0.0
O276 O 0.86909 0.39436 0.14244 0.0
C277 C 0.87085 0.35313 0.11947 0.0
C278 C 0.86145 0.39384 0.15153 0.0
O279 O 0.87197 0.29861 0.14794 0.0
Mg280 Mg 0.65459 0.51882 0.14244 0.0
O281 O 0.68468 0.48934 0.14287 0.0
O282 O 0.65725 0.43921 0.13458 0.0
Mg283 Mg 0.60924 0.43845 0.12782 0.0
C284 C 0.6824 0.46082 0.13999 0.0
C285 C 0.71111 0.59291 0.15257 0.0
O286 O 0.6866 0.60154 0.15269 0.0
O287 O 0.67223 0.53791 0.12661 0.0
O288 O 0.64372 0.48679 0.1186 0.0
O289 O 0.62387 0.485 0.15517 0.0
O290 O 0.60819 0.47226 0.13966 0.0
C291 C 0.66417 0.51986 0.11871 0.0
C292 C 0.60338 0.46267 0.14869 0.0
O293 O 0.70452 0.56369 0.14896 0.0
Mg294 Mg 0.46834 0.14609 0.02426 0.0
O295 O 0.52768 0.17436 0.02449 0.0
O296 O 0.54938 0.22432 0.03287 0.0
Mg297 Mg 0.50156 0.22805 0.03808 0.0
C298 C 0.55349 0.20249 0.02772 0.0
C299 C 0.46996 0.08974 0.01015 0.0
O300 O 0.46249 0.10624 0.00339 0.0
O301 O 0.46314 0.12835 0.04044 0.0
O302 O 0.48063 0.17994 0.04777 0.0
O303 O 0.47495 0.17982 0.011 0.0
O304 O 0.4689 0.19313 0.02619 0.0
C305 C 0.46815 0.14692 0.04812 0.0
C306 C 0.47546 0.20236 0.01718 0.0
O307 O 0.47187 0.09884 0.01907 0.0
Mg308 Mg 0.85448 0.31729 0.02429 0.0
O309 O 0.82884 0.35105 0.02447 0.0
O310 O 0.77539 0.32193 0.03107 0.0
Mg311 Mg 0.76704 0.26809 0.03553 0.0
C312 C 0.80022 0.34914 0.02704 0.0
C313 C 0.90372 0.3814 0.01196 0.0
O314 O 0.87553 0.36466 0.00651 0.0
O315 O 0.86622 0.32556 0.04098 0.0
O316 O 0.81132 0.29405 0.04649 0.0
O317 O 0.82549 0.29568 0.01006 0.0
O318 O 0.80511 0.27171 0.02451 0.0
C319 C 0.8441 0.31304 0.04803 0.0
C320 C 0.79972 0.27303 0.01533 0.0
O321 O 0.90492 0.36786 0.0201 0.0
Mg322 Mg 0.68103 0.5352 0.02395 0.0
O323 O 0.64838 0.47634 0.02548 0.0
O324 O 0.67702 0.45377 0.03318 0.0
Mg325 Mg 0.72965 0.50158 0.0376 0.0
C326 C 0.65003 0.45013 0.02867 0.0
C327 C 0.62407 0.5527 0.01432 0.0
O328 O 0.6499 0.58465 0.01274 0.0
O329 O 0.67097 0.5431 0.04007 0.0
O330 O 0.70241 0.52259 0.04752 0.0
O331 O 0.70292 0.52441 0.01048 0.0
O332 O 0.72704 0.53239 0.02517 0.0
C333 C 0.6829 0.5363 0.04779 0.0
C334 C 0.72583 0.52325 0.01616 0.0
O335 O 0.62995 0.53084 0.01874 0.0
Mg336 Mg 0.52206 0.8713 0.85879 0.0
O337 O 0.49628 0.81198 0.85787 0.0
O338 O 0.44425 0.78656 0.86523 0.0
Mg339 Mg 0.43957 0.83072 0.87256 0.0
C340 C 0.46775 0.78476 0.86023 0.0
C341 C 0.57669 0.86973 0.84395 0.0
O342 O 0.55665 0.87255 0.83732 0.0
O343 O 0.53934 0.87161 0.87472 0.0
O344 O 0.48706 0.84496 0.88217 0.0
O345 O 0.48787 0.86819 0.84589 0.0
O346 O 0.47419 0.86835 0.86142 0.0
C347 C 0.52034 0.85925 0.88239 0.0
C348 C 0.46511 0.86525 0.85239 0.0
O349 O 0.57042 0.87098 0.85299 0.0
Mg350 Mg 0.13175 0.65432 0.8572 0.0
O351 O 0.19097 0.68932 0.85758 0.0
O352 O 0.21598 0.66126 0.8643 0.0
Mg353 Mg 0.17085 0.60903 0.86987 0.0
C354 C 0.21814 0.68795 0.85998 0.0
C355 C 0.13263 0.71154 0.84358 0.0
O356 O 0.12887 0.68823 0.83698 0.0
O357 O 0.1261 0.66388 0.87348 0.0
O358 O 0.15216 0.63677 0.88043 0.0
O359 O 0.14077 0.63183 0.84345 0.0
O360 O 0.13623 0.60943 0.85824 0.0
C361 C 0.13662 0.65456 0.88103 0.0
C362 C 0.14323 0.60958 0.8491 0.0
O363 O 0.13187 0.70412 0.85262 0.0
Mg364 Mg 0.34348 0.4757 0.85779 0.0
O365 O 0.31005 0.50156 0.85813 0.0
O366 O 0.33107 0.54608 0.86866 0.0
Mg367 Mg 0.3809 0.54957 0.87503 0.0
C368 C 0.30858 0.5266 0.86228 0.0
C369 C 0.28615 0.40009 0.84814 0.0
O370 O 0.30522 0.38666 0.85116 0.0
O371 O 0.32366 0.44917 0.87293 0.0
O372 O 0.35087 0.49667 0.8825 0.0
O373 O 0.37615 0.51534 0.84624 0.0
O374 O 0.38746 0.52293 0.86207 0.0
C375 C 0.33184 0.46369 0.88138 0.0
C376 C 0.39446 0.53571 0.85336 0.0
O377 O 0.29642 0.43214 0.84976 0.0
Mg378 Mg 0.54367 0.85863 0.97671 0.0
O379 O 0.48471 0.83707 0.97674 0.0
O380 O 0.45756 0.78754 0.9681 0.0
Mg381 Mg 0.50065 0.77909 0.96149 0.0
C382 C 0.45701 0.81091 0.97348 0.0
C383 C 0.52787 0.90357 0.99083 0.0
O384 O 0.50936 0.8721 0.99461 0.0
O385 O 0.54899 0.88022 0.961 0.0
O386 O 0.5233 0.8295 0.9527 0.0
O387 O 0.53516 0.82037 0.98905 0.0
O388 O 0.53687 0.80959 0.97335 0.0
C389 C 0.53921 0.86285 0.95298 0.0
C390 C 0.53179 0.79853 0.98221 0.0
O391 O 0.54776 0.90791 0.98356 0.0
Mg392 Mg 0.1436 0.67657 0.97534 0.0
O393 O 0.16488 0.6394 0.97481 0.0
O394 O 0.20656 0.65518 0.96349 0.0
Mg395 Mg 0.21872 0.7102 0.95861 0.0
C396 C 0.18668 0.63417 0.97009 0.0
C397 C 0.07516 0.62648 0.98923 0.0
O398 O 0.07579 0.65425 0.99296 0.0
O399 O 0.11877 0.65987 0.95987 0.0
O400 O 0.16703 0.6851 0.95053 0.0
O401 O 0.18243 0.7049 0.98753 0.0
O402 O 0.19367 0.71775 0.97182 0.0
C403 C 0.13389 0.66784 0.9515 0.0
C404 C 0.2049 0.7223 0.98071 0.0
O405 O 0.09673 0.62997 0.98254 0.0
Mg406 Mg 0.32143 0.46414 0.9753 0.0
O407 O 0.35674 0.52345 0.97446 0.0
O408 O 0.3292 0.54798 0.96714 0.0
Mg409 Mg 0.27593 0.50269 0.9623 0.0
C410 C 0.35588 0.55043 0.97154 0.0
C411 C 0.38043 0.473 0.98915 0.0
O412 O 0.35994 0.47835 0.995 0.0
O413 O 0.33089 0.45742 0.959 0.0
O414 O 0.30284 0.48247 0.95205 0.0
O415 O 0.29875 0.47341 0.98899 0.0
O416 O 0.27669 0.46917 0.97419 0.0
C417 C 0.32081 0.46713 0.95143 0.0
C418 C 0.27666 0.47602 0.98334 0.0
O419 O 0.37086 0.46388 0.98032 0.0
Mg420 Mg 0.14174 0.45889 0.47547 0.0
O421 O 0.16501 0.51811 0.47516 0.0
O422 O 0.21492 0.54241 0.46668 0.0
Mg423 Mg 0.22066 0.49788 0.46005 0.0
C424 C 0.1925 0.54497 0.47201 0.0
C425 C 0.09505 0.47161 0.4901 0.0
O426 O 0.12461 0.48507 0.49501 0.0
O427 O 0.11982 0.45261 0.45979 0.0
O428 O 0.1701 0.47659 0.45133 0.0
O429 O 0.17936 0.46848 0.48797 0.0
O430 O 0.19077 0.46436 0.47245 0.0
C431 C 0.13682 0.46156 0.45172 0.0
C432 C 0.20177 0.47177 0.48131 0.0
O433 O 0.0928 0.45669 0.48194 0.0
Mg434 Mg 0.5364 0.68336 0.47863 0.0
O435 O 0.47746 0.65297 0.4773 0.0
O436 O 0.45698 0.68607 0.47127 0.0
Mg437 Mg 0.50578 0.73911 0.46758 0.0
C438 C 0.45202 0.6572 0.47485 0.0
C439 C 0.54742 0.62462 0.48884 0.0
O440 O 0.57262 0.65131 0.49355 0.0
O441 O 0.54308 0.67799 0.46196 0.0
O442 O 0.52549 0.7145 0.45648 0.0
O443 O 0.52676 0.70269 0.49295 0.0
O444 O 0.53635 0.73082 0.47889 0.0
C445 C 0.53782 0.69419 0.45496 0.0
C446 C 0.52717 0.72778 0.48792 0.0
O447 O 0.53062 0.63014 0.48218 0.0
Mg448 Mg 0.32126 0.85373 0.47511 0.0
O449 O 0.35606 0.82893 0.47605 0.0
O450 O 0.33449 0.78084 0.46683 0.0
Mg451 Mg 0.28561 0.77565 0.45939 0.0
C452 C 0.35722 0.80244 0.47282 0.0
C453 C 0.37974 0.89681 0.49016 0.0
O454 O 0.36496 0.86533 0.49402 0.0
O455 O 0.34131 0.87618 0.45964 0.0
O456 O 0.31814 0.82636 0.45098 0.0
O457 O 0.2882 0.81624 0.4871 0.0
O458 O 0.27859 0.80565 0.47127 0.0
C459 C 0.33618 0.85964 0.45154 0.0
C460 C 0.27078 0.79456 0.48012 0.0
O461 O 0.36626 0.90177 0.48251 0.0
Mg462 Mg 0.13599 0.47794 0.3573 0.0
O463 O 0.19532 0.50617 0.35755 0.0
O464 O 0.21798 0.55741 0.36527 0.0
Mg465 Mg 0.17048 0.56013 0.37105 0.0
C466 C 0.22154 0.5347 0.36039 0.0
C467 C 0.12432 0.41071 0.3449 0.0
O468 O 0.09874 0.41251 0.34052 0.0
O469 O 0.13192 0.46061 0.37343 0.0
O470 O 0.15468 0.5128 0.38087 0.0
O471 O 0.14212 0.51124 0.34408 0.0
O472 O 0.1366 0.525 0.3593 0.0
C473 C 0.14137 0.47965 0.38116 0.0
C474 C 0.14294 0.53398 0.35025 0.0
O475 O 0.14104 0.43182 0.35181 0.0
Mg476 Mg 0.52173 0.65202 0.35962 0.0
O477 O 0.49319 0.68283 0.3588 0.0
O478 O 0.43893 0.65138 0.36458 0.0
Mg479 Mg 0.4346 0.60087 0.37072 0.0
C480 C 0.4631 0.67898 0.36051 0.0
C481 C 0.58399 0.70848 0.34678 0.0
O482 O 0.57246 0.68213 0.34061 0.0
O483 O 0.53266 0.6639 0.37619 0.0
O484 O 0.47787 0.63184 0.38174 0.0
O485 O 0.49346 0.62665 0.34554 0.0
O486 O 0.47431 0.60475 0.36027 0.0
C487 C 0.51046 0.65248 0.38323 0.0
C488 C 0.46858 0.60377 0.35103 0.0
O489 O 0.57008 0.70357 0.35523 0.0
Mg490 Mg 0.34498 0.868 0.35788 0.0
O491 O 0.31254 0.80866 0.35847 0.0
O492 O 0.33885 0.78612 0.36734 0.0
Mg493 Mg 0.38827 0.83329 0.37354 0.0
C494 C 0.31383 0.78243 0.36183 0.0
C495 C 0.29187 0.87899 0.34386 0.0
O496 O 0.31975 0.90177 0.33899 0.0
O497 O 0.32939 0.87469 0.37355 0.0
O498 O 0.35763 0.85321 0.38219 0.0
O499 O 0.3742 0.8602 0.34543 0.0
O500 O 0.39038 0.86595 0.36093 0.0
C501 C 0.33831 0.86705 0.3817 0.0
C502 C 0.39449 0.85884 0.35207 0.0
O503 O 0.2954 0.86427 0.35143 0.0
C504 C 0.07571 0.18594 0.17976 0.0
C505 C 0.09736 0.17254 0.17707 0.0
C506 C 0.03956 0.16375 0.181 0.0
C507 C 0.02506 0.12721 0.17979 0.0
C508 C 0.04631 0.11404 0.17612 0.0
C509 C 0.08227 0.13706 0.17465 0.0
C510 C 0.01784 0.17912 0.18468 0.0
C511 C 0.03198 0.07525 0.17479 0.0
C512 C 0.9536 0.06705 0.19749 0.0
C513 C 0.92357 0.05414 0.19166 0.0
C514 C 0.98655 0.09155 0.19376 0.0
C515 C 0.98973 0.10265 0.18386 0.0
C516 C 0.95941 0.08989 0.17796 0.0
C517 C 0.9266 0.06606 0.18196 0.0
C518 C 0.01805 0.1053 0.20042 0.0
C519 C 0.96172 0.10083 0.16737 0.0
H520 H 0.08751 0.21336 0.18174 0.0
H521 H 0.09911 0.12659 0.17273 0.0
H522 H 0.99153 0.16608 0.18125 0.0
H523 H 0.01419 0.17504 0.19273 0.0
H524 H 0.03076 0.20768 0.18321 0.0
H525 H 0.0267 0.06243 0.18209 0.0
H526 H 0.00682 0.06331 0.17073 0.0
H527 H 0.05057 0.06957 0.17081 0.0
H528 H 0.95128 0.0581 0.20501 0.0
H529 H 0.90342 0.0559 0.1774 0.0
H530 H 0.03168 0.1343 0.20067 0.0
H531 H 0.03675 0.09771 0.19748 0.0
H532 H 0.01094 0.09514 0.20802 0.0
H533 H 0.97557 0.12978 0.16678 0.0
H534 H 0.93551 0.08996 0.16391 0.0
H535 H 0.97718 0.09172 0.16315 0.0
C536 C 0.82769 0.89794 0.19478 0.0
C537 C 0.82543 0.91637 0.18669 0.0
C538 C 0.84972 0.88368 0.19464 0.0
C539 C 0.86844 0.88607 0.18599 0.0
C540 C 0.86226 0.90003 0.17734 0.0
C541 C 0.84126 0.91575 0.17783 0.0
C542 C 0.85551 0.86919 0.20406 0.0
C543 C 0.87968 0.90046 0.16779 0.0
C544 C 0.95806 0.90046 0.19223 0.0
C545 C 0.95263 0.86637 0.19191 0.0
C546 C 0.93153 0.90749 0.18954 0.0
C547 C 0.89838 0.87959 0.18664 0.0
C548 C 0.89313 0.84528 0.18588 0.0
C549 C 0.92038 0.83909 0.1885 0.0
C550 C 0.93851 0.94463 0.19027 0.0
C551 C 0.8584 0.81475 0.18275 0.0
H552 H 0.81414 0.8968 0.20152 0.0
H553 H 0.83885 0.92909 0.17146 0.0
H554 H 0.85193 0.84277 0.20281 0.0
H555 H 0.8828 0.88634 0.20662 0.0
H556 H 0.83744 0.86745 0.20999 0.0
H557 H 0.86737 0.90607 0.16146 0.0
H558 H 0.90774 0.92089 0.16807 0.0
H559 H 0.87833 0.87494 0.16656 0.0
H560 H 0.98302 0.92171 0.19468 0.0
H561 H 0.91603 0.81265 0.18813 0.0
H562 H 0.92205 0.94634 0.19617 0.0
H563 H 0.93139 0.95253 0.18332 0.0
H564 H 0.96638 0.96364 0.19191 0.0
H565 H 0.84098 0.80422 0.18923 0.0
H566 H 0.8616 0.79325 0.17962 0.0
H567 H 0.84519 0.82275 0.17725 0.0
C568 C 0.09059 0.04808 0.19071 0.0
C569 C 0.12306 0.07786 0.18883 0.0
C570 C 0.08457 0.01451 0.18841 0.0
C571 C 0.11149 0.01054 0.18396 0.0
C572 C 0.144 0.04061 0.18177 0.0
C573 C 0.1494 0.0738 0.18426 0.0
C574 C 0.04977 0.98316 0.19109 0.0
C575 C 0.17388 0.03856 0.17703 0.0
C576 C 0.10652 0.92483 0.19013 0.0
C577 C 0.08311 0.90259 0.18296 0.0
C578 C 0.1174 0.96052 0.19029 0.0
C579 C 0.10643 0.97478 0.18273 0.0
C580 C 0.08741 0.95353 0.17465 0.0
C581 C 0.07516 0.9173 0.17495 0.0
C582 C 0.13832 0.9823 0.19895 0.0
C583 C 0.07853 0.96876 0.16596 0.0
H584 H 0.06996 0.05092 0.19414 0.0
H585 H 0.1746 0.0966 0.18266 0.0
H586 H 0.03641 0.96814 0.1844 0.0
H587 H 0.05388 0.96544 0.196 0.0
H588 H 0.03216 0.9907 0.19484 0.0
H589 H 0.1963 0.04885 0.1822 0.0
H590 H 0.16707 0.01173 0.17479 0.0
H591 H 0.18298 0.05571 0.17045 0.0
H592 H 0.11402 0.91378 0.19612 0.0
H593 H 0.05781 0.90043 0.16925 0.0
H594 H 0.12357 0.99309 0.20279 0.0
H595 H 0.16338 0.00474 0.19638 0.0
H596 H 0.14424 0.96699 0.2043 0.0
H597 H 0.0568 0.97344 0.16791 0.0
H598 H 0.07034 0.95091 0.15953 0.0
H599 H 0.10142 0.99432 0.16386 0.0
C600 C 0.17764 0.06777 0.31024 0.0
C601 C 0.1765 0.09042 0.31727 0.0
C602 C 0.15279 0.03209 0.31023 0.0
C603 C 0.12736 0.01836 0.31776 0.0
C604 C 0.12942 0.04013 0.32568 0.0
C605 C 0.1537 0.07626 0.32527 0.0
C606 C 0.15154 0.01006 0.30158 0.0
C607 C 0.10429 0.02578 0.33419 0.0
C608 C 0.03883 0.94668 0.30891 0.0
C609 C 0.04025 0.91641 0.31116 0.0
C610 C 0.06643 0.97996 0.31144 0.0
C611 C 0.09605 0.98308 0.31645 0.0
C612 C 0.09696 0.95258 0.31914 0.0
C613 C 0.06923 0.91967 0.31638 0.0
C614 C 0.06446 0.01189 0.30839 0.0
C615 C 0.1276 0.95451 0.32465 0.0
H616 H 0.19605 0.0785 0.30421 0.0
H617 H 0.15308 0.09353 0.33082 0.0
H618 H 0.15007 0.98549 0.3041 0.0
H619 H 0.12764 0.00274 0.29719 0.0
H620 H 0.1747 0.0241 0.29671 0.0
H621 H 0.11356 0.04395 0.34055 0.0
H622 H 0.07835 0.02164 0.33191 0.0
H623 H 0.10066 1.00007 0.33654 0.0
H624 H 0.01644 0.94448 0.305 0.0
H625 H 0.07052 0.89647 0.31828 0.0
H626 H 0.08606 0.0279 0.3032 0.0
H627 H 0.06778 0.02849 0.31486 0.0
H628 H 0.03919 0.00494 0.3048 0.0
H629 H 0.14888 0.95969 0.3194 0.0
H630 H 0.12022 0.92952 0.32848 0.0
H631 H 0.13817 0.97604 0.33011 0.0
C632 C 0.92888 0.11005 0.31516 0.0
C633 C 0.90691 0.07863 0.32004 0.0
C634 C 0.96476 0.1222 0.31417 0.0
C635 C 0.97884 0.10215 0.31809 0.0
C636 C 0.95734 0.07213 0.32384 0.0
C637 C 0.92146 0.06072 0.32478 0.0
C638 C 0.98666 0.15446 0.30805 0.0
C639 C 0.97144 0.05023 0.32822 0.0
C640 C 0.05121 0.10106 0.30327 0.0
C641 C 0.08125 0.125 0.30841 0.0
C642 C 0.01779 0.09349 0.30637 0.0
C643 C 0.01425 0.10965 0.31495 0.0
C644 C 0.04443 0.1335 0.32025 0.0
C645 C 0.07759 0.14117 0.31685 0.0
C646 C 0.98623 0.06839 0.30041 0.0
C647 C 0.04167 0.15076 0.3295 0.0
H648 H 0.91747 0.12371 0.31144 0.0
H649 H 0.90437 0.03607 0.32841 0.0
H650 H 0.01257 0.17136 0.31148 0.0
H651 H 0.99127 0.14644 0.30074 0.0
H652 H 0.97353 0.17013 0.30697 0.0
H653 H 0.9532 0.03128 0.33371 0.0
H654 H 0.97547 0.0353 0.32231 0.0
H655 H 0.99717 0.06712 0.33176 0.0
H656 H 0.05384 0.08849 0.29675 0.0
H657 H 0.10067 0.15939 0.32095 0.0
H658 H 0.97164 0.0815 0.29797 0.0
H659 H 0.96817 0.04566 0.30498 0.0
H660 H 0.99351 0.05854 0.29383 0.0
H661 H 0.02911 0.16659 0.32788 0.0
H662 H 0.06763 0.16805 0.3329 0.0
H663 H 0.02481 0.1305 0.33491 0.0
C664 C 0.85918 0.93521 0.31923 0.0
C665 C 0.87312 0.95339 0.31042 0.0
C666 C 0.86686 0.90959 0.32248 0.0
C667 C 0.88836 0.90142 0.31666 0.0
C668 C 0.90209 0.91936 0.30768 0.0
C669 C 0.89473 0.94551 0.30474 0.0
C670 C 0.85239 0.89167 0.33219 0.0
C671 C 0.92445 0.91082 0.30114 0.0
C672 C 0.93816 0.85735 0.32567 0.0
C673 C 0.91803 0.82394 0.32159 0.0
C674 C 0.92755 0.88243 0.32476 0.0
C675 C 0.89601 0.87356 0.31975 0.0
C676 C 0.87395 0.83871 0.31656 0.0
C677 C 0.88533 0.81435 0.3175 0.0
C678 C 0.95173 0.91926 0.32831 0.0
C679 C 0.84009 0.82805 0.31121 0.0
H680 H 0.8429 0.94161 0.32373 0.0
H681 H 0.90551 0.95948 0.29793 0.0
H682 H 0.83715 0.86288 0.33119 0.0
H683 H 0.87432 0.89732 0.33725 0.0
H684 H 0.83526 0.90032 0.33571 0.0
H685 H 0.93189 0.92614 0.29422 0.0
H686 H 0.9487 0.91639 0.30507 0.0
H687 H 0.91023 0.88254 0.29928 0.0
H688 H 0.96381 0.86503 0.32865 0.0
H689 H 0.87001 0.78858 0.31425 0.0
H690 H 0.93673 0.92998 0.33202 0.0
H691 H 0.96533 0.93636 0.32193 0.0
H692 H 0.9719 0.9205 0.33343 0.0
H693 H 0.82433 0.83736 0.31518 0.0
H694 H 0.82405 0.79921 0.3103 0.0
H695 H 0.84601 0.8403 0.30383 0.0
C696 C 0.92799 0.82108 0.8166 0.0
C697 C 0.90426 0.83083 0.82008 0.0
C698 C 0.96366 0.84581 0.81566 0.0
C699 C 0.9755 0.88129 0.81798 0.0
C700 C 0.95193 0.8908 0.82211 0.0
C701 C 0.91653 0.86524 0.82323 0.0
C702 C 0.98797 0.83446 0.81136 0.0
C703 C 0.96335 0.92842 0.82453 0.0
C704 C 0.07369 0.94422 0.81833 0.0
C705 C 0.07927 0.95953 0.80899 0.0
C706 C 0.03995 0.91925 0.82146 0.0
C707 C 0.01129 0.90879 0.81501 0.0
C708 C 0.01683 0.92402 0.80555 0.0
C709 C 0.05071 0.94959 0.80271 0.0
C710 C 0.03494 0.9041 0.83165 0.0
C711 C 0.98701 0.91295 0.79838 0.0
H712 H 0.91826 0.79451 0.81404 0.0
H713 H 0.89795 0.87293 0.82569 0.0
H714 H 0.9949 0.84442 0.80374 0.0
H715 H 0.01266 0.84557 0.81563 0.0
H716 H 0.97583 0.8055 0.81121 0.0
H717 H 0.94315 0.93083 0.82877 0.0
H718 H 0.98811 0.94053 0.82879 0.0
H719 H 0.96841 0.94357 0.81763 0.0
H720 H 0.09569 0.95215 0.82325 0.0
H721 H 0.05499 0.96125 0.79547 0.0
H722 H 0.02329 0.87528 0.83124 0.0
H723 H 0.01638 0.9093 0.83581 0.0
H724 H 0.05993 0.91522 0.8358 0.0
H725 H 0.97452 0.88443 0.79693 0.0
H726 H 0.99577 0.9271 0.79128 0.0
H727 H 0.96665 0.91779 0.80155 0.0
C728 C 0.04354 0.09668 0.80657 0.0
C729 C 0.0455 0.12895 0.80826 0.0
C730 C 0.07146 0.09147 0.80904 0.0
C731 C 0.10205 0.11916 0.81336 0.0
C732 C 0.10384 0.15146 0.81536 0.0
C733 C 0.07562 0.15604 0.81274 0.0
C734 C 0.06854 0.05654 0.80679 0.0
C735 C 0.13574 0.18142 0.82009 0.0
C736 C 0.15856 0.08468 0.82366 0.0
C737 C 0.1801 0.08946 0.81557 0.0
C738 C 0.13519 0.09762 0.82351 0.0
C739 C 0.13289 0.11471 0.81498 0.0
C740 C 0.15724 0.12279 0.80728 0.0
C741 C 0.18113 0.11077 0.8078 0.0
C742 C 0.11094 0.0903 0.8321 0.0
C743 C 0.15561 0.14066 0.79801 0.0
H744 H 0.02024 0.07546 0.80326 0.0
H745 H 0.07733 0.18103 0.81417 0.0
H746 H 0.08933 0.06023 0.80152 0.0
H747 H 0.07247 0.04502 0.81356 0.0
H748 H 0.0427 0.03753 0.8036 0.0
H749 H 0.13069 0.20243 0.82264 0.0
H750 H 0.14459 0.17203 0.82642 0.0
H751 H 0.15755 0.19299 0.81472 0.0
H752 H 0.15804 0.06872 0.82978 0.0
H753 H 0.19861 0.11552 0.80167 0.0
H754 H 0.08483 0.06763 0.83036 0.0
H755 H 0.10742 0.11307 0.83362 0.0
H756 H 0.1209 0.08401 0.83884 0.0
H757 H 0.13175 0.1225 0.79382 0.0
H758 H 0.17876 0.1485 0.79322 0.0
H759 H 0.15378 0.16424 0.79974 0.0
C760 C 0.86321 0.92332 0.81794 0.0
C761 C 0.87259 0.91719 0.80862 0.0
C762 C 0.87235 0.95725 0.82097 0.0
C763 C 0.89062 0.9856 0.81443 0.0
C764 C 0.89976 0.97946 0.80496 0.0
C765 C 0.89112 0.94536 0.80223 0.0
C766 C 0.86289 0.9628 0.8312 0.0
C767 C 0.91855 0.00893 0.79769 0.0
C768 C 0.88852 0.07015 0.81597 0.0
C769 C 0.9225 0.09352 0.8192 0.0
C770 C 0.8767 0.03425 0.81515 0.0
C771 C 0.89988 0.02173 0.81736 0.0
C772 C 0.9334 0.04492 0.82131 0.0
C773 C 0.94419 0.08062 0.82229 0.0
C774 C 0.84057 0.01039 0.81108 0.0
C775 C 0.959 0.03267 0.82367 0.0
H776 H 0.84952 0.90165 0.82299 0.0
H777 H 0.89843 0.94062 0.79503 0.0
H778 H 0.88711 0.98007 0.83537 0.0
H779 H 0.84725 0.97614 0.83088 0.0
H780 H 0.84773 0.93782 0.83528 0.0
H781 H 0.92274 0.99961 0.79052 0.0
H782 H 0.90325 0.02231 0.79643 0.0
H783 H 0.94437 0.02868 0.80068 0.0
H784 H 0.87201 0.08032 0.81345 0.0
H785 H 0.97078 0.09886 0.82458 0.0
H786 H 0.82701 0.98569 0.81534 0.0
H787 H 0.84283 0.00344 0.8034 0.0
H788 H 0.82413 0.02296 0.81115 0.0
H789 H 0.98212 0.05272 0.82778 0.0
H790 H 0.96837 0.02684 0.81676 0.0
H791 H 0.94608 0.00818 0.82804 0.0
C792 C 0.93255 0.07518 0.68539 0.0
C793 C 0.95598 0.08037 0.69306 0.0
C794 C 0.90692 0.0415 0.6825 0.0
C795 C 0.90414 0.0122 0.68751 0.0
C796 C 0.92773 0.01712 0.69523 0.0
C797 C 0.95364 0.05119 0.69785 0.0
C798 C 0.88274 0.03729 0.67411 0.0
C799 C 0.92523 0.9864 0.70082 0.0
C800 C 0.81808 0.92726 0.68902 0.0
C801 C 0.82494 0.9051 0.68325 0.0
C802 C 0.84296 0.96276 0.69004 0.0
C803 C 0.87537 0.97642 0.68508 0.0
C804 C 0.8811 0.95489 0.67851 0.0
C805 C 0.85569 0.91928 0.67767 0.0
C806 C 0.83575 0.98474 0.69712 0.0
C807 C 0.9151 0.96876 0.67296 0.0
H808 H 0.93449 0.09752 0.6815 0.0
H809 H 0.97179 0.05498 0.70372 0.0
H810 H 0.8841 0.02012 0.66838 0.0
H811 H 0.85528 0.02444 0.67673 0.0
H812 H 0.88931 0.06274 0.67071 0.0
H813 H 0.94558 0.99463 0.70661 0.0
H814 H 0.89906 0.97137 0.7043 0.0
H815 H 0.92807 0.96842 0.69571 0.0
H816 H 0.79433 0.91615 0.69338 0.0
H817 H 0.86128 0.90207 0.67332 0.0
H818 H 0.84194 0.01003 0.69373 0.0
H819 H 0.85282 0.99074 0.70366 0.0
H820 H 0.80804 0.9712 0.6996 0.0
H821 H 0.9225 0.99434 0.66952 0.0
H822 H 0.91354 0.95031 0.66717 0.0
H823 H 0.93634 0.97307 0.67812 0.0
C824 C 0.07824 0.9301 0.67561 0.0
C825 C 0.09317 0.91829 0.68263 0.0
C826 C 0.04205 0.91797 0.67572 0.0
C827 C 0.02086 0.89425 0.68312 0.0
C828 C 0.03539 0.87975 0.68956 0.0
C829 C 0.07126 0.89151 0.6891 0.0
C830 C 0.02716 0.93287 0.66846 0.0
C831 C 0.01396 0.85465 0.69763 0.0
C832 C 0.94814 0.90433 0.69461 0.0
C833 C 0.91814 0.87415 0.6913 0.0
C834 C 0.98166 0.91177 0.69168 0.0
C835 C 0.98532 0.88862 0.68521 0.0
C836 C 0.95515 0.85872 0.68159 0.0
C837 C 0.92194 0.85171 0.68473 0.0
C838 C 0.01324 0.94387 0.69578 0.0
C839 C 0.95796 0.83389 0.67451 0.0
H840 H 0.09502 0.95066 0.67055 0.0
H841 H 0.0827 0.88185 0.69442 0.0
H842 H 0.00091 0.91241 0.6659 0.0
H843 H 0.02411 0.95376 0.67205 0.0
H844 H 0.04457 0.9444 0.66199 0.0
H845 H 0.02851 0.84367 0.70149 0.0
H846 H 0.00659 0.86853 0.70309 0.0
H847 H 0.98938 0.8327 0.69465 0.0
H848 H 0.94552 0.92192 0.69963 0.0
H849 H 0.89895 0.82851 0.68202 0.0
H850 H 0.03005 0.96069 0.68973 0.0
H851 H 0.02922 0.93588 0.7002 0.0
H852 H 0.00587 0.95972 0.70049 0.0
H853 H 0.97432 0.84859 0.66812 0.0
H854 H 0.93195 0.81327 0.67181 0.0
H855 H 0.97105 0.82097 0.67812 0.0
C856 C 0.10745 0.1784 0.68322 0.0
C857 C 0.07231 0.16629 0.68093 0.0
C858 C 0.11983 0.15489 0.68451 0.0
C859 C 0.09596 0.11842 0.68401 0.0
C860 C 0.06079 0.10622 0.6812 0.0
C861 C 0.04964 0.13046 0.67943 0.0
C862 C 0.15785 0.169 0.68707 0.0
C863 C 0.0342 0.0676 0.68089 0.0
C864 C 0.12913 0.05384 0.68359 0.0
C865 C 0.12471 0.04294 0.69341 0.0
C866 C 0.11994 0.07841 0.68041 0.0
C867 C 0.10686 0.09308 0.68727 0.0
C868 C 0.10321 0.0828 0.69726 0.0
C869 C 0.11162 0.05732 0.70019 0.0
C870 C 0.12358 0.08815 0.66968 0.0
C871 C 0.09023 0.09859 0.70484 0.0
H872 H 0.12481 0.20614 0.68448 0.0
H873 H 0.02231 0.12113 0.6778 0.0
H874 H 0.16007 0.16333 0.69488 0.0
H875 H 0.16908 0.15602 0.68259 0.0
H876 H 0.17374 0.19774 0.68591 0.0
H877 H 0.00863 0.06238 0.67787 0.0
H878 H 0.04409 0.05338 0.67641 0.0
H879 H 0.02977 0.05668 0.68843 0.0
H880 H 0.13891 0.04234 0.67833 0.0
H881 H 0.10843 0.04899 0.70778 0.0
H882 H 0.13955 0.11696 0.66881 0.0
H883 H 0.09738 0.07985 0.66653 0.0
H884 H 0.13587 0.07573 0.66538 0.0
H885 H 0.10719 0.12749 0.7049 0.0
H886 H 0.08987 0.08857 0.71234 0.0
H887 H 0.06336 0.09273 0.70295 0.0
C888 C 0.58802 0.4124 0.52241 0.0
C889 C 0.58406 0.38004 0.52531 0.0
C890 C 0.62115 0.44097 0.52023 0.0
C891 C 0.65103 0.43708 0.52094 0.0
C892 C 0.64712 0.40429 0.52368 0.0
C893 C 0.61372 0.37624 0.52584 0.0
C894 C 0.62414 0.4755 0.51746 0.0
C895 C 0.6784 0.3992 0.52479 0.0
C896 C 0.74246 0.49535 0.51103 0.0
C897 C 0.75951 0.51443 0.51945 0.0
C898 C 0.70593 0.4729 0.51103 0.0
C899 C 0.68681 0.46778 0.51983 0.0
C900 C 0.70353 0.48948 0.52802 0.0
C901 C 0.73926 0.51401 0.52746 0.0
C902 C 0.68816 0.45304 0.50182 0.0
C903 C 0.6847 0.48581 0.5376 0.0
H904 H 0.56524 0.41563 0.52198 0.0
H905 H 0.61089 0.35131 0.528 0.0
H906 H 0.63319 0.49315 0.52392 0.0
H907 H 0.64357 0.48847 0.5115 0.0
H908 H 0.59859 0.47228 0.51508 0.0
H909 H 0.67069 0.37161 0.52644 0.0
H910 H 0.69433 0.40714 0.51799 0.0
H911 H 0.69537 0.41609 0.53082 0.0
H912 H 0.75768 0.49649 0.50466 0.0
H913 H 0.75191 0.5307 0.53373 0.0
H914 H 0.66268 0.45201 0.5008 0.0
H915 H 0.68286 0.42574 0.50243 0.0
H916 H 0.70467 0.46521 0.49523 0.0
H917 H 0.67243 0.50245 0.53736 0.0
H918 H 0.70316 0.49474 0.5439 0.0
H919 H 0.66386 0.45846 0.53906 0.0
C920 C 0.48454 0.22228 0.51557 0.0
C921 C 0.49628 0.25731 0.51325 0.0
C922 C 0.50816 0.20986 0.51637 0.0
C923 C 0.54446 0.23356 0.51525 0.0
C924 C 0.55608 0.26834 0.51216 0.0
C925 C 0.53164 0.27965 0.51102 0.0
C926 C 0.49445 0.17225 0.51933 0.0
C927 C 0.59456 0.29447 0.51094 0.0
C928 C 0.60786 0.22168 0.53146 0.0
C929 C 0.62121 0.20691 0.52491 0.0
C930 C 0.58204 0.22946 0.52845 0.0
C931 C 0.57037 0.22351 0.51857 0.0
C932 C 0.584 0.20876 0.51191 0.0
C933 C 0.60897 0.20024 0.5152 0.0
C934 C 0.56733 0.24423 0.53584 0.0
C935 C 0.57266 0.2025 0.50131 0.0
H936 H 0.45718 0.20517 0.5174 0.0
H937 H 0.54073 0.30693 0.50938 0.0
H938 H 0.50879 0.16101 0.51551 0.0
H939 H 0.49827 0.17102 0.52733 0.0
H940 H 0.46606 0.15575 0.5177 0.0
H941 H 0.60784 0.29958 0.51816 0.0
H942 H 0.60701 0.28373 0.50605 0.0
H943 H 0.59915 0.31978 0.50789 0.0
H944 H 0.61728 0.22667 0.53896 0.0
H945 H 0.6197 0.1892 0.51009 0.0
H946 H 0.53843 0.22743 0.53623 0.0
H947 H 0.57308 0.27067 0.53349 0.0
H948 H 0.57828 0.24618 0.5433 0.0
H949 H 0.54372 0.18649 0.5008 0.0
H950 H 0.58434 0.18906 0.49721 0.0
H951 H 0.58056 0.22787 0.49766 0.0
C952 C 0.72572 0.2539 0.50887 0.0
C953 C 0.74326 0.23939 0.51383 0.0
C954 C 0.73669 0.28968 0.50988 0.0
C955 C 0.76548 0.31096 0.51606 0.0
C956 C 0.78513 0.29696 0.5203 0.0
C957 C 0.77396 0.26142 0.51903 0.0
C958 C 0.71568 0.30393 0.50502 0.0
C959 C 0.81567 0.3184 0.52705 0.0
C960 C 0.80659 0.40973 0.51771 0.0
C961 C 0.7892 0.41344 0.52587 0.0
C962 C 0.79834 0.37656 0.51422 0.0
C963 C 0.77259 0.34632 0.51911 0.0
C964 C 0.75493 0.34983 0.52734 0.0
C965 C 0.76316 0.38336 0.53055 0.0
C966 C 0.81725 0.37388 0.50531 0.0
C967 C 0.72783 0.31817 0.5329 0.0
H968 H 0.70172 0.23686 0.50495 0.0
H969 H 0.78744 0.25011 0.5229 0.0
H970 H 0.69902 0.307 0.51057 0.0
H971 H 0.73325 0.33013 0.50181 0.0
H972 H 0.6984 0.28623 0.49916 0.0
H973 H 0.83081 0.30508 0.5287 0.0
H974 H 0.83365 0.3444 0.52383 0.0
H975 H 0.80573 0.32286 0.53407 0.0
H976 H 0.82648 0.43283 0.51396 0.0
H977 H 0.74963 0.38601 0.53684 0.0
H978 H 0.79798 0.3575 0.49963 0.0
H979 H 0.83236 0.36086 0.5073 0.0
H980 H 0.83555 0.39991 0.50211 0.0
H981 H 0.70607 0.30085 0.52793 0.0
H982 H 0.71678 0.3254 0.53921 0.0
H983 H 0.73969 0.3028 0.53568 0.0
C984 C 0.84421 0.40754 0.65557 0.0
C985 C 0.83207 0.43126 0.65649 0.0
C986 C 0.82065 0.37141 0.655 0.0
C987 C 0.78421 0.35915 0.65484 0.0
C988 C 0.77196 0.38289 0.65656 0.0
C989 C 0.7962 0.41869 0.6576 0.0
C990 C 0.83495 0.34699 0.65355 0.0
C991 C 0.73341 0.37117 0.65622 0.0
C992 C 0.72692 0.28397 0.63781 0.0
C993 C 0.70951 0.25623 0.64439 0.0
C994 C 0.75231 0.31723 0.64112 0.0
C995 C 0.75942 0.32313 0.6513 0.0
C996 C 0.74197 0.29503 0.65798 0.0
C997 C 0.71752 0.26169 0.65442 0.0
C998 C 0.77126 0.34619 0.63371 0.0
C999 C 0.74862 0.30038 0.66887 0.0
H1000 H 0.87201 0.41741 0.6546 0.0
H1001 H 0.7869 0.43717 0.65818 0.0
H1002 H 0.8184 0.32156 0.65728 0.0
H1003 H 0.83522 0.34174 0.6456 0.0
H1004 H 0.86216 0.35864 0.65636 0.0
H1005 H 0.72797 0.39182 0.65885 0.0
H1006 H 0.72393 0.36457 0.64854 0.0
H1007 H 0.71814 0.34726 0.6607 0.0
H1008 H 0.72093 0.27948 0.63005 0.0
H1009 H 0.70385 0.24009 0.6595 0.0
H1010 H 0.79997 0.35749 0.63447 0.0
H1011 H 0.76544 0.36755 0.6351 0.0
H1012 H 0.76374 0.33691 0.62604 0.0
H1013 H 0.77702 0.3122 0.6704 0.0
H1014 H 0.73418 0.27551 0.67304 0.0
H1015 H 0.74047 0.31892 0.6716 0.0
C1016 C 0.58411 0.38625 0.65386 0.0
C1017 C 0.57015 0.40832 0.65259 0.0
C1018 C 0.62003 0.39891 0.65259 0.0
C1019 C 0.64254 0.43484 0.65046 0.0
C1020 C 0.62892 0.45789 0.65025 0.0
C1021 C 0.59261 0.44412 0.65104 0.0
C1022 C 0.63325 0.37324 0.65263 0.0
C1023 C 0.65217 0.49659 0.64844 0.0
C1024 C 0.73998 0.46733 0.65177 0.0
C1025 C 0.74736 0.46336 0.642 0.0
C1026 C 0.70609 0.45881 0.65463 0.0
C1027 C 0.67935 0.44725 0.64749 0.0
C1028 C 0.68725 0.44513 0.63751 0.0
C1029 C 0.72109 0.45247 0.63491 0.0
C1030 C 0.69862 0.46081 0.66535 0.0
C1031 C 0.65971 0.43421 0.62962 0.0
H1032 H 0.56655 0.35847 0.65495 0.0
H1033 H 0.5816 0.46103 0.64995 0.0
H1034 H 0.65754 0.38342 0.65705 0.0
H1035 H 0.61349 0.34726 0.65557 0.0
H1036 H 0.63974 0.36957 0.64502 0.0
H1037 H 0.63908 0.51157 0.65056 0.0
H1038 H 0.67707 0.50704 0.65258 0.0
H1039 H 0.65877 0.50109 0.64053 0.0
H1040 H 0.76045 0.47574 0.65724 0.0
H1041 H 0.72707 0.44981 0.62735 0.0
H1042 H 0.68127 0.43401 0.66821 0.0
H1043 H 0.68464 0.47567 0.6663 0.0
H1044 H 0.72289 0.47336 0.66984 0.0
H1045 H 0.63914 0.40652 0.63076 0.0
H1046 H 0.67083 0.4369 0.62214 0.0
H1047 H 0.64686 0.4503 0.63004 0.0
C1048 C 0.55164 0.14907 0.64265 0.0
C1049 C 0.5746 0.15143 0.65012 0.0
C1050 C 0.53774 0.17142 0.64247 0.0
C1051 C 0.54563 0.19553 0.65021 0.0
C1052 C 0.56393 0.19389 0.65856 0.0
C1053 C 0.57887 0.17216 0.65836 0.0
C1054 C 0.51838 0.17211 0.63341 0.0
C1055 C 0.57044 0.21734 0.66729 0.0
C1056 C 0.56286 0.28382 0.64112 0.0
C1057 C 0.53043 0.28173 0.64261 0.0
C1058 C 0.5685 0.25656 0.64404 0.0
C1059 C 0.54102 0.22632 0.64856 0.0
C1060 C 0.50856 0.2245 0.65041 0.0
C1061 C 0.5036 0.25215 0.64736 0.0
C1062 C 0.60366 0.25972 0.64197 0.0
C1063 C 0.47864 0.1931 0.65532 0.0
H1064 H 0.54739 0.13219 0.6364 0.0
H1065 H 0.59603 0.17359 0.66426 0.0
H1066 H 0.49405 0.17209 0.63544 0.0
H1067 H 0.53509 0.19651 0.62923 0.0
H1068 H 0.51146 0.14945 0.6285 0.0
H1069 H 0.57794 0.20776 0.67387 0.0
H1070 H 0.59199 0.24412 0.66558 0.0
H1071 H 0.54676 0.21911 0.66901 0.0
H1072 H 0.58393 0.30678 0.63763 0.0
H1073 H 0.4785 0.25035 0.64866 0.0
H1074 H 0.6003 0.23869 0.63685 0.0
H1075 H 0.61514 0.2564 0.64884 0.0
H1076 H 0.62257 0.28541 0.63869 0.0
H1077 H 0.46367 0.17277 0.64973 0.0
H1078 H 0.46028 0.20003 0.65891 0.0
H1079 H 0.4882 0.18151 0.66089 0.0
C1080 C 0.72071 0.28858 0.13936 0.0
C1081 C 0.75095 0.28925 0.14284 0.0
C1082 C 0.68727 0.26191 0.14219 0.0
C1083 C 0.68394 0.23552 0.14877 0.0
C1084 C 0.71432 0.23653 0.15251 0.0
C1085 C 0.74739 0.2631 0.14942 0.0
C1086 C 0.65544 0.26151 0.13794 0.0
C1087 C 0.71189 0.20935 0.1597 0.0
C1088 C 0.59153 0.18313 0.15884 0.0
C1089 C 0.57686 0.15537 0.15214 0.0
C1090 C 0.62748 0.2081 0.15845 0.0
C1091 C 0.64862 0.20544 0.15103 0.0
C1092 C 0.63446 0.17551 0.14494 0.0
C1093 C 0.59892 0.1505 0.14572 0.0
C1094 C 0.64209 0.23878 0.1654 0.0
C1095 C 0.65568 0.17171 0.13682 0.0
H1096 H 0.72313 0.30868 0.13432 0.0
H1097 H 0.7705 0.26346 0.15225 0.0
H1098 H 0.63977 0.23712 0.13366 0.0
H1099 H 0.63849 0.26167 0.14392 0.0
H1100 H 0.66246 0.28428 0.13307 0.0
H1101 H 0.73784 0.21597 0.16273 0.0
H1102 H 0.69423 0.20658 0.16586 0.0
H1103 H 0.70054 0.1835 0.15603 0.0
H1104 H 0.57461 0.18703 0.16382 0.0
H1105 H 0.58761 0.12881 0.14059 0.0
H1106 H 0.64459 0.26206 0.16154 0.0
H1107 H 0.66856 0.24535 0.16797 0.0
H1108 H 0.62482 0.23344 0.17187 0.0
H1109 H 0.66044 0.19112 0.13098 0.0
H1110 H 0.64206 0.14516 0.1335 0.0
H1111 H 0.68155 0.17708 0.13956 0.0
C1112 C 0.80944 0.39202 0.1593 0.0
C1113 C 0.84116 0.41084 0.15423 0.0
C1114 C 0.78372 0.40193 0.15867 0.0
C1115 C 0.79004 0.43104 0.1528 0.0
C1116 C 0.82344 0.45205 0.14852 0.0
C1117 C 0.84867 0.44179 0.14937 0.0
C1118 C 0.74876 0.37938 0.16355 0.0
C1119 C 0.83137 0.4832 0.14216 0.0
C1120 C 0.71417 0.42718 0.13855 0.0
C1121 C 0.7091 0.45224 0.14344 0.0
C1122 C 0.74004 0.41963 0.14165 0.0
C1123 C 0.76079 0.43695 0.14998 0.0
C1124 C 0.75503 0.46144 0.15514 0.0
C1125 C 0.72949 0.46903 0.15175 0.0
C1126 C 0.74578 0.39374 0.13585 0.0
C1127 C 0.77588 0.47966 0.1642 0.0
H1128 H 0.80338 0.36783 0.16297 0.0
H1129 H 0.87323 0.45627 0.14543 0.0
H1130 H 0.73883 0.39575 0.16685 0.0
H1131 H 0.72943 0.36218 0.15799 0.0
H1132 H 0.75033 0.36251 0.16935 0.0
H1133 H 0.85961 0.4989 0.14028 0.0
H1134 H 0.81617 0.47394 0.13524 0.0
H1135 H 0.82338 0.50048 0.14587 0.0
H1136 H 0.69845 0.41403 0.13216 0.0
H1137 H 0.72533 0.48801 0.15568 0.0
H1138 H 0.74237 0.37202 0.14068 0.0
H1139 H 0.77299 0.40674 0.133 0.0
H1140 H 0.72742 0.38248 0.12957 0.0
H1141 H 0.77204 0.45992 0.16984 0.0
H1142 H 0.76821 0.49806 0.16737 0.0
H1143 H 0.80424 0.49447 0.16246 0.0
C1144 C 0.57463 0.28143 0.14109 0.0
C1145 C 0.54371 0.25098 0.14376 0.0
C1146 C 0.58024 0.31461 0.14367 0.0
C1147 C 0.55433 0.31747 0.14909 0.0
C1148 C 0.52356 0.28686 0.15209 0.0
C1149 C 0.51855 0.25398 0.14935 0.0
C1150 C 0.61345 0.34669 0.14029 0.0
C1151 C 0.49555 0.28879 0.15797 0.0
C1152 C 0.59099 0.40986 0.15858 0.0
C1153 C 0.58222 0.42485 0.15082 0.0
C1154 C 0.57895 0.37371 0.15869 0.0
C1155 C 0.5585 0.35265 0.15076 0.0
C1156 C 0.54655 0.36715 0.14352 0.0
C1157 C 0.55803 0.40298 0.14376 0.0
C1158 C 0.59079 0.35876 0.1668 0.0
C1159 C 0.52498 0.34587 0.13487 0.0
H1160 H 0.59428 0.27943 0.13682 0.0
H1161 H 0.49467 0.23062 0.15155 0.0
H1162 H 0.60684 0.36215 0.1352 0.0
H1163 H 0.62741 0.36374 0.14664 0.0
H1164 H 0.63158 0.33994 0.13649 0.0
H1165 H 0.47566 0.2628 0.16088 0.0
H1166 H 0.50738 0.30724 0.1642 0.0
H1167 H 0.48199 0.29886 0.15328 0.0
H1168 H 0.60939 0.42657 0.16413 0.0
H1169 H 0.55055 0.41444 0.13787 0.0
H1170 H 0.61281 0.35558 0.16414 0.0
H1171 H 0.56932 0.33256 0.16904 0.0
H1172 H 0.59986 0.37616 0.17333 0.0
H1173 H 0.54177 0.34068 0.12988 0.0
H1174 H 0.51399 0.35969 0.13064 0.0
H1175 H 0.50314 0.32021 0.1373 0.0
C1176 C 0.62033 0.3846 0.02973 0.0
C1177 C 0.62133 0.41468 0.02599 0.0
C1178 C 0.59413 0.35109 0.02679 0.0
C1179 C 0.56872 0.34761 0.01981 0.0
C1180 C 0.56984 0.37785 0.01592 0.0
C1181 C 0.59582 0.41095 0.01915 0.0
C1182 C 0.59339 0.31936 0.03124 0.0
C1183 C 0.54352 0.37536 0.00841 0.0
C1184 C 0.52161 0.25635 0.0089 0.0
C1185 C 0.4924 0.24013 0.01509 0.0
C1186 C 0.5454 0.29246 0.00973 0.0
C1187 C 0.54002 0.31217 0.01705 0.0
C1188 C 0.50869 0.29646 0.02256 0.0
C1189 C 0.48493 0.26077 0.02135 0.0
C1190 C 0.57771 0.30884 0.00337 0.0
C1191 C 0.502 0.31617 0.03055 0.0
H1192 H 0.63999 0.3872 0.03496 0.0
H1193 H 0.5964 0.43398 0.01614 0.0
H1194 H 0.56786 0.30268 0.03492 0.0
H1195 H 0.59608 0.30333 0.02541 0.0
H1196 H 0.61466 0.32653 0.03669 0.0
H1197 H 0.55196 0.40089 0.00476 0.0
H1198 H 0.53923 0.35563 0.00271 0.0
H1199 H 0.51802 0.3669 0.01204 0.0
H1200 H 0.5275 0.2405 0.00405 0.0
H1201 H 0.46212 0.24821 0.02609 0.0
H1202 H 0.60059 0.31271 0.00775 0.0
H1203 H 0.5833 0.33491 0.00071 0.0
H1204 H 0.57495 0.29212 0.99696 0.0
H1205 H 0.51986 0.32057 0.0368 0.0
H1206 H 0.47461 0.30156 0.03328 0.0
H1207 H 0.50746 0.34218 0.02791 0.0
C1208 C 0.75121 0.28149 0.00981 0.0
C1209 C 0.76317 0.25841 0.01221 0.0
C1210 C 0.71583 0.27158 0.01104 0.0
C1211 C 0.69187 0.23739 0.01442 0.0
C1212 C 0.70327 0.21277 0.01568 0.0
C1213 C 0.73898 0.22381 0.01473 0.0
C1214 C 0.70498 0.29882 0.00972 0.0
C1215 C 0.67849 0.17577 0.01898 0.0
C1216 C 0.61753 0.22725 0.03081 0.0
C1217 C 0.58891 0.21141 0.02444 0.0
C1218 C 0.65111 0.23539 0.02765 0.0
C1219 C 0.65629 0.22867 0.01779 0.0
C1220 C 0.6275 0.21329 0.01128 0.0
C1221 C 0.59406 0.2044 0.01473 0.0
C1222 C 0.68101 0.25091 0.03489 0.0
C1223 C 0.63208 0.20651 0.00068 0.0
H1224 H 0.77007 0.30842 0.00802 0.0
H1225 H 0.7484 0.20614 0.01671 0.0
H1226 H 0.67963 0.28767 0.00577 0.0
H1227 H 0.70139 0.30767 0.01702 0.0
H1228 H 0.72496 0.32207 0.00563 0.0
H1229 H 0.69004 0.1586 0.01805 0.0
H1230 H 0.67217 0.1759 0.02685 0.0
H1231 H 0.65356 0.16436 0.01483 0.0
H1232 H 0.61349 0.23258 0.03832 0.0
H1233 H 0.57194 0.19259 0.00974 0.0
H1234 H 0.70164 0.27699 0.0323 0.0
H1235 H 0.69298 0.23402 0.03544 0.0
H1236 H 0.6725 0.25382 0.04233 0.0
H1237 H 0.65017 0.2316 0.99699 0.0
H1238 H 0.60687 0.19368 0.99662 0.0
H1239 H 0.64409 0.18966 1.0002 0.0
C1240 C 0.78596 0.39542 0.03138 0.0
C1241 C 0.79439 0.378 0.02428 0.0
C1242 C 0.7791 0.42212 0.02868 0.0
C1243 C 0.77931 0.4304 0.01861 0.0
C1244 C 0.78861 0.41327 0.01145 0.0
C1245 C 0.79658 0.38758 0.0144 0.0
C1246 C 0.77074 0.44085 0.03657 0.0
C1247 C 0.78904 0.42129 0.00067 0.0
C1248 C 0.71835 0.46508 0.01277 0.0
C1249 C 0.74092 0.50115 0.01371 0.0
C1250 C 0.73075 0.44162 0.01402 0.0
C1251 C 0.76696 0.45483 0.01563 0.0
C1252 C 0.79039 0.49144 0.01542 0.0
C1253 C 0.77689 0.51424 0.0148 0.0
C1254 C 0.70467 0.40286 0.01452 0.0
C1255 C 0.82935 0.50671 0.01663 0.0
H1256 H 0.78486 0.38821 0.03903 0.0
H1257 H 0.80332 0.37406 0.00894 0.0
H1258 H 0.78809 0.46957 0.03584 0.0
H1259 H 0.74338 0.4352 0.03571 0.0
H1260 H 0.77394 0.43293 0.04406 0.0
H1261 H 0.79983 0.408 0.99613 0.0
H1262 H 0.76198 0.41262 0.99816 0.0
H1263 H 0.8048 0.44993 0.9994 0.0
H1264 H 0.69048 0.45507 0.01198 0.0
H1265 H 0.79425 0.54221 0.01561 0.0
H1266 H 0.70374 0.39339 0.02212 0.0
H1267 H 0.71286 0.38809 0.00965 0.0
H1268 H 0.67784 0.39672 0.01243 0.0
H1269 H 0.8357 0.50823 0.02455 0.0
H1270 H 0.84408 0.53357 0.01353 0.0
H1271 H 0.8385 0.49018 0.01301 0.0
C1272 C 0.28311 0.71476 0.85839 0.0
C1273 C 0.25293 0.71723 0.85702 0.0
C1274 C 0.31614 0.74211 0.85559 0.0
C1275 C 0.31919 0.77276 0.85128 0.0
C1276 C 0.28872 0.77489 0.84949 0.0
C1277 C 0.25596 0.74719 0.85243 0.0
C1278 C 0.34796 0.73864 0.85759 0.0
C1279 C 0.29075 0.80661 0.84461 0.0
C1280 C 0.40591 0.85134 0.85763 0.0
C1281 C 0.42741 0.85027 0.85021 0.0
C1282 C 0.36994 0.82762 0.85776 0.0
C1283 C 0.35464 0.80383 0.84989 0.0
C1284 C 0.37532 0.80661 0.8416 0.0
C1285 C 0.41183 0.82939 0.84193 0.0
C1286 C 0.34934 0.8253 0.86687 0.0
C1287 C 0.35955 0.78349 0.83274 0.0
H1288 H 0.28102 0.6915 0.86173 0.0
H1289 H 0.23275 0.74918 0.85117 0.0
H1290 H 0.36275 0.74221 0.8507 0.0
H1291 H 0.36569 0.75937 0.86277 0.0
H1292 H 0.34099 0.71274 0.86075 0.0
H1293 H 0.26443 0.80274 0.84287 0.0
H1294 H 0.30442 0.82973 0.84948 0.0
H1295 H 0.3062 0.81276 0.83774 0.0
H1296 H 0.41774 0.86839 0.8639 0.0
H1297 H 0.42817 0.82892 0.83606 0.0
H1298 H 0.34211 0.80055 0.8708 0.0
H1299 H 0.32472 0.82483 0.86494 0.0
H1300 H 0.36448 0.84747 0.87198 0.0
H1301 H 0.3588 0.75826 0.83396 0.0
H1302 H 0.37546 0.79582 0.82607 0.0
H1303 H 0.33237 0.7778 0.83143 0.0
C1304 C 0.15011 0.55745 0.84837 0.0
C1305 C 0.16357 0.59294 0.84627 0.0
C1306 C 0.17238 0.54344 0.84927 0.0
C1307 C 0.20902 0.56597 0.84848 0.0
C1308 C 0.22243 0.60127 0.84558 0.0
C1309 C 0.19934 0.6142 0.84434 0.0
C1310 C 0.15683 0.50542 0.85205 0.0
C1311 C 0.26133 0.62629 0.84478 0.0
C1312 C 0.26808 0.54989 0.86534 0.0
C1313 C 0.28171 0.53493 0.85893 0.0
C1314 C 0.24358 0.5591 0.86206 0.0
C1315 C 0.23332 0.55419 0.85206 0.0
C1316 C 0.24685 0.53888 0.84557 0.0
C1317 C 0.2706 0.52906 0.84911 0.0
C1318 C 0.22891 0.57443 0.86929 0.0
C1319 C 0.23688 0.5336 0.83486 0.0
H1320 H 0.12244 0.54119 0.84997 0.0
H1321 H 0.20975 0.64182 0.84288 0.0
H1322 H 0.17051 0.49341 0.84826 0.0
H1323 H 0.15988 0.50342 0.86006 0.0
H1324 H 0.12849 0.4901 0.85024 0.0
H1325 H 0.27311 0.63195 0.85223 0.0
H1326 H 0.27408 0.61443 0.84047 0.0
H1327 H 0.2673 0.65149 0.84132 0.0
H1328 H 0.27642 0.55419 0.87294 0.0
H1329 H 0.28136 0.51777 0.8441 0.0
H1330 H 0.19989 0.55867 0.86935 0.0
H1331 H 0.23618 0.60139 0.86702 0.0
H1332 H 0.23858 0.57535 0.87687 0.0
H1333 H 0.20798 0.51882 0.83405 0.0
H1334 H 0.24799 0.51933 0.83091 0.0
H1335 H 0.24648 0.55941 0.83128 0.0
C1336 C 0.43396 0.59483 0.86026 0.0
C1337 C 0.4168 0.57406 0.85207 0.0
C1338 C 0.44671 0.6309 0.86019 0.0
C1339 C 0.44479 0.64708 0.85144 0.0
C1340 C 0.43256 0.62711 0.84272 0.0
C1341 C 0.4178 0.59051 0.84317 0.0
C1342 C 0.45936 0.65103 0.86969 0.0
C1343 C 0.43321 0.64411 0.83307 0.0
C1344 C 0.42781 0.72123 0.85683 0.0
C1345 C 0.46176 0.75015 0.85699 0.0
C1346 C 0.42177 0.68791 0.85428 0.0
C1347 C 0.45051 0.68324 0.85195 0.0
C1348 C 0.48472 0.71265 0.85157 0.0
C1349 C 0.48993 0.74581 0.85409 0.0
C1350 C 0.38474 0.65735 0.85461 0.0
C1351 C 0.51614 0.70916 0.84902 0.0
H1352 H 0.43542 0.58263 0.867 0.0
H1353 H 0.40572 0.5748 0.83669 0.0
H1354 H 0.48609 0.67372 0.86877 0.0
H1355 H 0.44194 0.6614 0.87181 0.0
H1356 H 0.45974 0.63458 0.87581 0.0
H1357 H 0.42871 0.62635 0.82677 0.0
H1358 H 0.41255 0.65144 0.83302 0.0
H1359 H 0.45876 0.66847 0.83206 0.0
H1360 H 0.40591 0.72451 0.85888 0.0
H1361 H 0.5163 0.76811 0.8541 0.0
H1362 H 0.38236 0.63922 0.86059 0.0
H1363 H 0.37819 0.64244 0.84764 0.0
H1364 H 0.36516 0.66579 0.85587 0.0
H1365 H 0.52635 0.70343 0.85578 0.0
H1366 H 0.53754 0.73387 0.84586 0.0
H1367 H 0.50933 0.68755 0.84373 0.0
C1368 C 0.41352 0.58884 0.97985 0.0
C1369 C 0.38535 0.58554 0.97419 0.0
C1370 C 0.44058 0.6218 0.98289 0.0
C1371 C 0.43963 0.65223 0.98012 0.0
C1372 C 0.41128 0.64908 0.97444 0.0
C1373 C 0.38453 0.61584 0.97156 0.0
C1374 C 0.47019 0.62403 0.989 0.0
C1375 C 0.40945 0.68095 0.97125 0.0
C1376 C 0.49028 0.74322 0.99109 0.0
C1377 C 0.51536 0.76039 0.98375 0.0
C1378 C 0.46732 0.7068 0.99058 0.0
C1379 C 0.46926 0.68772 0.98245 0.0
C1380 C 0.49685 0.70455 0.97562 0.0
C1381 C 0.51989 0.74055 0.97646 0.0
C1382 C 0.43911 0.68939 0.99824 0.0
C1383 C 0.49983 0.68549 0.96679 0.0
H1384 H 0.41437 0.56561 0.98199 0.0
H1385 H 0.36289 0.61364 0.96725 0.0
H1386 H 0.49482 0.63663 0.98469 0.0
H1387 H 0.47446 0.64052 0.99557 0.0
H1388 H 0.46515 0.59784 0.99141 0.0
H1389 H 0.38537 0.67398 0.96698 0.0
H1390 H 0.41008 0.69638 0.97775 0.0
H1391 H 0.43256 0.69814 0.96666 0.0
H1392 H 0.48679 0.75841 0.99676 0.0
H1393 H 0.53973 0.75375 0.97086 0.0
H1394 H 0.43524 0.66327 1.00019 0.0
H1395 H 0.41399 0.6855 0.99527 0.0
H1396 H 0.44544 0.70552 0.005 0.0
H1397 H 0.49843 0.66066 0.96902 0.0
H1398 H 0.52459 0.70153 0.96268 0.0
H1399 H 0.47757 0.67871 0.96175 0.0
C1400 C 0.26056 0.72348 0.97796 0.0
C1401 C 0.24284 0.73845 0.98248 0.0
C1402 C 0.29696 0.73983 0.97801 0.0
C1403 C 0.31653 0.77196 0.98302 0.0
C1404 C 0.2988 0.78637 0.98824 0.0
C1405 C 0.26188 0.76949 0.98783 0.0
C1406 C 0.31436 0.72312 0.97236 0.0
C1407 C 0.31864 0.82005 0.99391 0.0
C1408 C 0.40817 0.78738 0.98543 0.0
C1409 C 0.42322 0.80601 0.97679 0.0
C1410 C 0.37442 0.77954 0.98827 0.0
C1411 C 0.35535 0.79024 0.98222 0.0
C1412 C 0.37187 0.81173 0.97395 0.0
C1413 C 0.40572 0.81929 0.9713 0.0
C1414 C 0.35814 0.7574 0.99728 0.0
C1415 C 0.35269 0.82413 0.9674 0.0
H1416 H 0.24592 0.69905 0.97418 0.0
H1417 H 0.24812 0.78106 0.9914 0.0
H1418 H 0.33154 0.74127 0.96657 0.0
H1419 H 0.33105 0.71777 0.97732 0.0
H1420 H 0.2951 0.69812 0.96881 0.0
H1421 H 0.30173 0.82274 0.99948 0.0
H1422 H 0.34178 0.8217 0.99764 0.0
H1423 H 0.32817 0.84249 0.98878 0.0
H1424 H 0.42227 0.77778 0.98975 0.0
H1425 H 0.41793 0.83434 0.96473 0.0
H1426 H 0.33969 0.73003 0.99503 0.0
H1427 H 0.343 0.767 0.00145 0.0
H1428 H 0.3782 0.75728 0.00218 0.0
H1429 H 0.3329 0.80174 0.96301 0.0
H1430 H 0.3707 0.84497 0.96227 0.0
H1431 H 0.3386 0.83426 0.97183 0.0
C1432 C 0.19997 0.58629 0.96704 0.0
C1433 C 0.19332 0.60655 0.97362 0.0
C1434 C 0.21001 0.56261 0.97046 0.0
C1435 C 0.21447 0.56007 0.98068 0.0
C1436 C 0.20692 0.57993 0.98735 0.0
C1437 C 0.19602 0.60267 0.98374 0.0
C1438 C 0.21731 0.54141 0.96313 0.0
C1439 C 0.21249 0.57879 0.99824 0.0
C1440 C 0.22419 0.48155 0.98624 0.0
C1441 C 0.26062 0.4968 0.98622 0.0
C1442 C 0.20857 0.50247 0.98561 0.0
C1443 C 0.23005 0.53902 0.9842 0.0
C1444 C 0.26692 0.55464 0.98496 0.0
C1445 C 0.28165 0.53322 0.98628 0.0
C1446 C 0.16917 0.48515 0.98568 0.0
C1447 C 0.29155 0.5933 0.98336 0.0
H1448 H 0.19774 0.58934 0.95922 0.0
H1449 H 0.1914 0.61886 0.98882 0.0
H1450 H 0.24531 0.54877 0.96353 0.0
H1451 H 0.2015 0.51314 0.9649 0.0
H1452 H 0.21126 0.54542 0.95549 0.0
H1453 H 0.20164 0.59261 0.00253 0.0
H1454 H 0.20023 0.55129 0.00082 0.0
H1455 H 0.24098 0.59143 0.99977 0.0
H1456 H 0.20799 0.45326 0.98621 0.0
H1457 H 0.30987 0.54492 0.98636 0.0
H1458 H 0.15944 0.48162 0.97803 0.0
H1459 H 0.1605 0.50157 0.98959 0.0
H1460 H 0.15699 0.45901 0.98924 0.0
H1461 H 0.27878 0.60934 0.98413 0.0
H1462 H 0.30268 0.59726 0.97585 0.0
H1463 H 0.3138 0.60321 0.98859 0.0
C1464 C 0.26216 0.49143 0.47561 0.0
C1465 C 0.24008 0.49182 0.48296 0.0
C1466 C 0.29749 0.51732 0.47516 0.0
C1467 C 0.31173 0.54306 0.48259 0.0
C1468 C 0.2906 0.54107 0.49069 0.0
C1469 C 0.25471 0.51575 0.4907 0.0
C1470 C 0.31881 0.51856 0.46633 0.0
C1471 C 0.30541 0.56682 0.49905 0.0
C1472 C 0.41086 0.5981 0.48186 0.0
C1473 C 0.41598 0.62835 0.47695 0.0
C1474 C 0.37717 0.57083 0.48418 0.0
C1475 C 0.34772 0.57345 0.48136 0.0
C1476 C 0.35265 0.60406 0.47653 0.0
C1477 C 0.38671 0.63125 0.47445 0.0
C1478 C 0.37327 0.53901 0.4895 0.0
C1479 C 0.32189 0.60777 0.47334 0.0
H1480 H 0.25119 0.47227 0.46976 0.0
H1481 H 0.23791 0.51602 0.49647 0.0
H1482 H 0.32918 0.54412 0.46253 0.0
H1483 H 0.34156 0.51613 0.46867 0.0
H1484 H 0.30326 0.49739 0.46098 0.0
H1485 H 0.28785 0.55778 0.50555 0.0
H1486 H 0.33149 0.57106 0.50124 0.0
H1487 H 0.30889 0.59242 0.49668 0.0
H1488 H 0.43323 0.5956 0.48394 0.0
H1489 H 0.39035 0.65462 0.47077 0.0
H1490 H 0.36557 0.5173 0.4842 0.0
H1491 H 0.3525 0.53001 0.49517 0.0
H1492 H 0.39811 0.54427 0.49305 0.0
H1493 H 0.30444 0.58564 0.46848 0.0
H1494 H 0.33015 0.63268 0.46936 0.0
H1495 H 0.30632 0.6068 0.47984 0.0
C1496 C 0.47173 0.72349 0.49351 0.0
C1497 C 0.50692 0.74454 0.49086 0.0
C1498 C 0.44779 0.73538 0.49215 0.0
C1499 C 0.45964 0.76922 0.48821 0.0
C1500 C 0.49589 0.7919 0.48663 0.0
C1501 C 0.51907 0.77917 0.48792 0.0
C1502 C 0.40939 0.71041 0.49397 0.0
C1503 C 0.50978 0.82824 0.4825 0.0
C1504 C 0.39643 0.77715 0.4709 0.0
C1505 C 0.38455 0.79543 0.47663 0.0
C1506 C 0.42136 0.76917 0.47454 0.0
C1507 C 0.43397 0.77875 0.48427 0.0
C1508 C 0.42212 0.79734 0.49009 0.0
C1509 C 0.3978 0.80577 0.48616 0.0
C1510 C 0.43397 0.75019 0.46798 0.0
C1511 C 0.43443 0.80754 0.50053 0.0
H1512 H 0.46216 0.69647 0.4956 0.0
H1513 H 0.54626 0.79528 0.48577 0.0
H1514 H 0.39729 0.7239 0.49782 0.0
H1515 H 0.3957 0.70084 0.48684 0.0
H1516 H 0.40503 0.68738 0.49837 0.0
H1517 H 0.53869 0.84436 0.48325 0.0
H1518 H 0.50306 0.82629 0.4746 0.0
H1519 H 0.49764 0.84192 0.48621 0.0
H1520 H 0.38638 0.76929 0.46352 0.0
H1521 H 0.38835 0.81955 0.49067 0.0
H1522 H 0.42558 0.72393 0.47106 0.0
H1523 H 0.46298 0.76468 0.46762 0.0
H1524 H 0.42354 0.74689 0.4604 0.0
H1525 H 0.42459 0.78358 0.50508 0.0
H1526 H 0.42511 0.82453 0.50378 0.0
H1527 H 0.46343 0.82149 0.5009 0.0
C1528 C 0.22807 0.73576 0.47386 0.0
C1529 C 0.24821 0.7565 0.48173 0.0
C1530 C 0.21455 0.69959 0.47383 0.0
C1531 C 0.21981 0.68344 0.4821 0.0
C1532 C 0.23596 0.70358 0.49062 0.0
C1533 C 0.25056 0.74018 0.49029 0.0
C1534 C 0.19767 0.67929 0.46456 0.0
C1535 C 0.24033 0.68694 0.49976 0.0
C1536 C 0.1733 0.58461 0.47955 0.0
C1537 C 0.19965 0.58007 0.4752 0.0
C1538 C 0.17992 0.61791 0.48249 0.0
C1539 C 0.21368 0.64726 0.48106 0.0
C1540 C 0.24081 0.64249 0.47718 0.0
C1541 C 0.23337 0.60905 0.47421 0.0
C1542 C 0.15039 0.62176 0.48673 0.0
C1543 C 0.27736 0.67301 0.47562 0.0
H1544 H 0.22509 0.74815 0.46735 0.0
H1545 H 0.26558 0.75602 0.49647 0.0
H1546 H 0.2141 0.66919 0.46139 0.0
H1547 H 0.17166 0.65641 0.46623 0.0
H1548 H 0.19433 0.69555 0.45892 0.0
H1549 H 0.24571 0.70402 0.50628 0.0
H1550 H 0.21656 0.66127 0.50119 0.0
H1551 H 0.26263 0.68227 0.49878 0.0
H1552 H 0.14723 0.56227 0.48047 0.0
H1553 H 0.25401 0.60572 0.47103 0.0
H1554 H 0.13961 0.63146 0.48097 0.0
H1555 H 0.15984 0.64104 0.49282 0.0
H1556 H 0.12876 0.59639 0.48948 0.0
H1557 H 0.27705 0.6895 0.46951 0.0
H1558 H 0.29639 0.66435 0.47379 0.0
H1559 H 0.28676 0.68967 0.48227 0.0
C1560 C 0.26227 0.74291 0.35137 0.0
C1561 C 0.28679 0.74692 0.35858 0.0
C1562 C 0.23722 0.70966 0.34794 0.0
C1563 C 0.23622 0.67961 0.35194 0.0
C1564 C 0.26117 0.68344 0.35912 0.0
C1565 C 0.28626 0.71703 0.36231 0.0
C1566 C 0.21154 0.70671 0.34015 0.0
C1567 C 0.26084 0.65196 0.36362 0.0
C1568 C 0.15284 0.59281 0.35415 0.0
C1569 C 0.16004 0.57167 0.34801 0.0
C1570 C 0.17639 0.62871 0.35499 0.0
C1571 C 0.20743 0.644 0.34934 0.0
C1572 C 0.21261 0.6236 0.34221 0.0
C1573 C 0.18887 0.58739 0.34168 0.0
C1574 C 0.16983 0.64927 0.36274 0.0
C1575 C 0.24472 0.63933 0.33577 0.0
H1576 H 0.26267 0.76581 0.34832 0.0
H1577 H 0.30528 0.71983 0.36779 0.0
H1578 H 0.21035 0.68906 0.33417 0.0
H1579 H 0.18492 0.69511 0.34335 0.0
H1580 H 0.21851 0.73255 0.33694 0.0
H1581 H 0.28248 0.65943 0.36895 0.0
H1582 H 0.23557 0.63548 0.36744 0.0
H1583 H 0.26314 0.63562 0.3578 0.0
H1584 H 0.13034 0.58064 0.35899 0.0
H1585 H 0.19456 0.57114 0.33693 0.0
H1586 H 0.17438 0.67458 0.35976 0.0
H1587 H 0.18841 0.65518 0.3689 0.0
H1588 H 0.14275 0.63462 0.36569 0.0
H1589 H 0.25051 0.66531 0.33297 0.0
H1590 H 0.24159 0.62213 0.32944 0.0
H1591 H 0.26764 0.64323 0.34013 0.0
C1592 C 0.2865 0.56603 0.36271 0.0
C1593 C 0.25689 0.54201 0.35747 0.0
C1594 C 0.32001 0.57275 0.36002 0.0
C1595 C 0.32414 0.55575 0.35171 0.0
C1596 C 0.29436 0.53184 0.3463 0.0
C1597 C 0.26105 0.52498 0.3493 0.0
C1598 C 0.35097 0.59762 0.36617 0.0
C1599 C 0.29767 0.51346 0.33737 0.0
C1600 C 0.41806 0.60298 0.3427 0.0
C1601 C 0.43167 0.58507 0.3479 0.0
C1602 C 0.38215 0.59195 0.34318 0.0
C1603 C 0.35968 0.56245 0.34898 0.0
C1604 C 0.37282 0.54219 0.35332 0.0
C1605 C 0.40867 0.5537 0.35267 0.0
C1606 C 0.36906 0.614 0.33834 0.0
C1607 C 0.35001 0.51064 0.35959 0.0
H1608 H 0.28342 0.57911 0.36905 0.0
H1609 H 0.23825 0.50656 0.34514 0.0
H1610 H 0.3629 0.58328 0.36962 0.0
H1611 H 0.37111 0.61816 0.36143 0.0
H1612 H 0.34374 0.61036 0.37202 0.0
H1613 H 0.27202 0.49638 0.33378 0.0
H1614 H 0.31555 0.53305 0.33195 0.0
H1615 H 0.30933 0.49718 0.33945 0.0
H1616 H 0.43583 0.62753 0.33913 0.0
H1617 H 0.41929 0.53998 0.35675 0.0
H1618 H 0.36544 0.63004 0.34399 0.0
H1619 H 0.34332 0.5972 0.33479 0.0
H1620 H 0.38779 0.63194 0.33276 0.0
H1621 H 0.34562 0.51956 0.36679 0.0
H1622 H 0.36235 0.49437 0.36093 0.0
H1623 H 0.32404 0.49405 0.35616 0.0
C1624 C 0.43621 0.84086 0.35803 0.0
C1625 C 0.41491 0.84097 0.35041 0.0
C1626 C 0.44647 0.81561 0.35844 0.0
C1627 C 0.43805 0.79193 0.35054 0.0
C1628 C 0.42136 0.79556 0.3421 0.0
C1629 C 0.40904 0.81949 0.34223 0.0
C1630 C 0.46442 0.8132 0.36762 0.0
C1631 C 0.41473 0.77283 0.33319 0.0
C1632 C 0.48267 0.73787 0.35304 0.0
C1633 C 0.45601 0.70704 0.35734 0.0
C1634 C 0.47668 0.76499 0.35018 0.0
C1635 C 0.4433 0.76135 0.35171 0.0
C1636 C 0.41589 0.72978 0.35569 0.0
C1637 C 0.42262 0.70308 0.35846 0.0
C1638 C 0.50652 0.79794 0.34586 0.0
C1639 C 0.37996 0.72495 0.35758 0.0
H1640 H 0.44258 0.85881 0.36413 0.0
H1641 H 0.39339 0.82002 0.33618 0.0
H1642 H 0.45376 0.78562 0.36996 0.0
H1643 H 0.49275 0.82444 0.36615 0.0
H1644 H 0.46156 0.82789 0.37383 0.0
H1645 H 0.40889 0.78391 0.32661 0.0
H1646 H 0.43774 0.76976 0.3316 0.0
H1647 H 0.39204 0.7464 0.33457 0.0
H1648 H 0.50855 0.7412 0.35204 0.0
H1649 H 0.40182 0.67944 0.36172 0.0
H1650 H 0.51849 0.81817 0.35166 0.0
H1651 H 0.49715 0.80855 0.33995 0.0
H1652 H 0.52729 0.79334 0.34285 0.0
H1653 H 0.38177 0.74347 0.36337 0.0
H1654 H 0.36085 0.6979 0.35997 0.0
H1655 H 0.36964 0.73089 0.35088 0.0
C1656 C 0.22925 0.19288 0.26857 0.0
C1657 C 0.20854 0.20135 0.27447 0.0
C1658 C 0.23102 0.19799 0.25841 0.0
C1659 C 0.21133 0.2117 0.25404 0.0
C1660 C 0.19313 0.22354 0.2601 0.0
C1661 C 0.19187 0.21812 0.27031 0.0
C1662 C 0.25071 0.18493 0.25229 0.0
C1663 C 0.17217 0.23869 0.25573 0.0
C1664 C 0.21861 0.22673 0.22635 0.0
C1665 C 0.1891 0.19604 0.22308 0.0
C1666 C 0.22623 0.2326 0.23644 0.0
C1667 C 0.20413 0.20687 0.24332 0.0
C1668 C 0.17506 0.17533 0.23996 0.0
C1669 C 0.16779 0.17049 0.22991 0.0
C1670 C 0.25716 0.26666 0.23978 0.0
C1671 C 0.15124 0.14675 0.24698 0.0
H1672 H 0.24207 0.1798 0.27184 0.0
H1673 H 0.17558 0.22432 0.27488 0.0
H1674 H 0.23175 0.15965 0.24884 0.0
H1675 H 0.26545 0.20359 0.24632 0.0
H1676 H 0.2693 0.18072 0.25678 0.0
H1677 H 0.16533 0.25262 0.26131 0.0
H1678 H 0.18686 0.25707 0.24968 0.0
H1679 H 0.14752 0.21723 0.25259 0.0
H1680 H 0.23475 0.24675 0.22107 0.0
H1681 H 0.14497 0.14673 0.22737 0.0
H1682 H 0.27443 0.2616 0.24459 0.0
H1683 H 0.24781 0.28154 0.24417 0.0
H1684 H 0.27282 0.28317 0.23351 0.0
H1685 H 0.16664 0.13819 0.25145 0.0
H1686 H 0.13022 0.12353 0.24313 0.0
H1687 H 0.13882 0.15685 0.25211 0.0
C1688 C 0.82329 0.03958 0.23193 0.0
C1689 C 0.7981 0.01358 0.22589 0.0
C1690 C 0.81753 0.03955 0.24206 0.0
C1691 C 0.78637 0.01211 0.24622 0.0
C1692 C 0.7595 0.98786 0.23999 0.0
C1693 C 0.76567 0.98902 0.22986 0.0
C1694 C 0.84646 0.06659 0.2484 0.0
C1695 C 0.72599 0.95817 0.24409 0.0
C1696 C 0.80676 0.98466 0.27046 0.0
C1697 C 0.79616 0.00147 0.27718 0.0
C1698 C 0.80117 0.98572 0.26038 0.0
C1699 C 0.78537 0.00488 0.25693 0.0
C1700 C 0.77239 0.01986 0.26375 0.0
C1701 C 0.77784 0.01784 0.27385 0.0
C1702 C 0.81475 0.96864 0.2534 0.0
C1703 C 0.75556 0.04059 0.2604 0.0
H1704 H 0.84856 0.05819 0.22886 0.0
H1705 H 0.74649 0.96848 0.22518 0.0
H1706 H 0.83562 0.07598 0.25423 0.0
H1707 H 0.86046 0.05461 0.25203 0.0
H1708 H 0.86574 0.08941 0.24403 0.0
H1709 H 0.70525 0.94628 0.2384 0.0
H1710 H 0.7311 0.93757 0.24693 0.0
H1711 H 0.71616 0.96715 0.25029 0.0
H1712 H 0.82136 0.97246 0.27306 0.0
H1713 H 0.77038 0.03153 0.27906 0.0
H1714 H 0.83789 0.98914 0.24941 0.0
H1715 H 0.79454 0.95277 0.24786 0.0
H1716 H 0.82261 0.95148 0.25727 0.0
H1717 H 0.77624 0.06679 0.25788 0.0
H1718 H 0.7407 0.04427 0.26642 0.0
H1719 H 0.73766 0.02763 0.25413 0.0
C1720 C 0.98912 0.76777 0.27354 0.0
C1721 C 0.98954 0.79839 0.27652 0.0
C1722 C 0.99128 0.76119 0.26352 0.0
C1723 C 0.99445 0.7861 0.25643 0.0
C1724 C 0.99623 0.81762 0.25949 0.0
C1725 C 0.99352 0.82321 0.26947 0.0
C1726 C 0.98904 0.72723 0.26051 0.0
C1727 C 0.00044 0.84535 0.25222 0.0
C1728 C 0.03379 0.79926 0.23126 0.0
C1729 C 0.00453 0.79012 0.22533 0.0
C1730 C 0.03047 0.79452 0.24143 0.0
C1731 C 0.99699 0.78044 0.24577 0.0
C1732 C 0.96691 0.76772 0.23969 0.0
C1733 C 0.97105 0.77284 0.22947 0.0
C1734 C 0.06327 0.80857 0.24757 0.0
C1735 C 0.93071 0.75205 0.24404 0.0
H1736 H 0.98552 0.74832 0.27898 0.0
H1737 H 0.99394 0.84696 0.27177 0.0
H1738 H 0.96493 0.71151 0.25612 0.0
H1739 H 0.01157 0.73238 0.25577 0.0
H1740 H 0.98855 0.71147 0.26692 0.0
H1741 H 0.00226 0.86875 0.25586 0.0
H1742 H 0.0244 0.85385 0.24776 0.0
H1743 H 0.97783 0.83443 0.24711 0.0
H1744 H 0.05971 0.81271 0.228 0.0
H1745 H 0.94848 0.76607 0.22488 0.0
H1746 H 0.05962 0.79063 0.25372 0.0
H1747 H 0.06929 0.83411 0.25078 0.0
H1748 H 0.08616 0.81262 0.24314 0.0
H1749 H 0.92738 0.734 0.25014 0.0
H1750 H 0.91004 0.73761 0.23846 0.0
H1751 H 0.92695 0.77327 0.24709 0.0
C1752 C 0.7659 0.77249 0.72893 0.0
C1753 C 0.79974 0.79399 0.72526 0.0
C1754 C 0.7603 0.7656 0.73905 0.0
C1755 C 0.7893 0.78034 0.74554 0.0
C1756 C 0.82369 0.79974 0.74169 0.0
C1757 C 0.82841 0.80665 0.73161 0.0
C1758 C 0.7233 0.74491 0.74286 0.0
C1759 C 0.85546 0.81541 0.74829 0.0
C1760 C 0.78847 0.81009 0.7715 0.0
C1761 C 0.79309 0.78568 0.77685 0.0
C1762 C 0.78386 0.80684 0.76128 0.0
C1763 C 0.78427 0.77869 0.75637 0.0
C1764 C 0.78588 0.75239 0.7619 0.0
C1765 C 0.79054 0.75636 0.77209 0.0
C1766 C 0.78202 0.83538 0.75567 0.0
C1767 C 0.78621 0.72191 0.75697 0.0
H1768 H 0.7437 0.76336 0.72402 0.0
H1769 H 0.85452 0.82361 0.72874 0.0
H1770 H 0.72114 0.72596 0.74855 0.0
H1771 H 0.71589 0.76305 0.74633 0.0
H1772 H 0.70432 0.7305 0.73689 0.0
H1773 H 0.88031 0.82676 0.74406 0.0
H1774 H 0.85575 0.83644 0.75283 0.0
H1775 H 0.85449 0.79529 0.75336 0.0
H1776 H 0.79118 0.8331 0.77519 0.0
H1777 H 0.79478 0.73786 0.77626 0.0
H1778 H 0.76124 0.82398 0.75 0.0
H1779 H 0.80729 0.85195 0.75186 0.0
H1780 H 0.77682 0.85239 0.76057 0.0
H1781 H 0.76616 0.71077 0.7511 0.0
H1782 H 0.7814 0.70087 0.76228 0.0
H1783 H 0.81213 0.73112 0.7535 0.0
C1784 C 0.23238 0.99805 0.77309 0.0
C1785 C 0.1983 0.98586 0.77654 0.0
C1786 C 0.23873 0.997 0.76301 0.0
C1787 C 0.21026 0.98337 0.75635 0.0
C1788 C 0.17557 0.96781 0.76 0.0
C1789 C 0.17007 0.96951 0.77005 0.0
C1790 C 0.27602 0.01344 0.75944 0.0
C1791 C 0.14431 0.95235 0.75321 0.0
C1792 C 0.21197 0.01925 0.73108 0.0
C1793 C 0.20733 0.99131 0.72521 0.0
C1794 C 0.21665 0.01866 0.74126 0.0
C1795 C 0.21613 0.98914 0.74559 0.0
C1796 C 0.21477 0.96248 0.73953 0.0
C1797 C 0.21017 0.96381 0.72938 0.0
C1798 C 0.21842 0.04786 0.74745 0.0
C1799 C 0.21441 0.93076 0.74381 0.0
H1800 H 0.25425 0.01131 0.7781 0.0
H1801 H 0.14377 0.96049 0.77275 0.0
H1802 H 0.27836 0.99798 0.75337 0.0
H1803 H 0.28439 0.04002 0.75657 0.0
H1804 H 0.29417 0.01589 0.76543 0.0
H1805 H 0.11919 0.93784 0.75728 0.0
H1806 H 0.14394 0.97364 0.74897 0.0
H1807 H 0.14601 0.93427 0.74788 0.0
H1808 H 0.20908 0.04013 0.72785 0.0
H1809 H 0.20594 0.9419 0.72481 0.0
H1810 H 0.23909 0.05608 0.75312 0.0
H1811 H 0.19307 0.03843 0.7513 0.0
H1812 H 0.22374 0.07103 0.74296 0.0
H1813 H 0.23357 0.93831 0.74988 0.0
H1814 H 0.22039 0.9163 0.73818 0.0
H1815 H 0.18807 0.91278 0.74687 0.0
C1816 C 0.03322 0.24017 0.72901 0.0
C1817 C 0.00583 0.21368 0.72359 0.0
C1818 C 0.03018 0.24293 0.73917 0.0
C1819 C 0.99929 0.21799 0.744 0.0
C1820 C 0.9704 0.19312 0.7384 0.0
C1821 C 0.97404 0.19128 0.7282 0.0
C1822 C 0.06142 0.27014 0.74481 0.0
C1823 C 0.93698 0.16607 0.74326 0.0
C1824 C 0.0076 0.18253 0.7685 0.0
C1825 C 0.99445 0.19769 0.775 0.0
C1826 C 0.01074 0.19029 0.75848 0.0
C1827 C 0.99972 0.21329 0.75481 0.0
C1828 C 0.98782 0.22992 0.76141 0.0
C1829 C 0.98554 0.22208 0.7715 0.0
C1830 C 0.02433 0.1725 0.75176 0.0
C1831 C 0.97577 0.25445 0.75777 0.0
H1832 H 0.05795 0.25724 0.7254 0.0
H1833 H 0.95311 0.17046 0.724 0.0
H1834 H 0.05316 0.28143 0.7508 0.0
H1835 H 0.07535 0.25767 0.7482 0.0
H1836 H 0.08011 0.29167 0.73997 0.0
H1837 H 0.91535 0.15245 0.73789 0.0
H1838 H 0.94154 0.14622 0.74692 0.0
H1839 H 0.92869 0.1783 0.74898 0.0
H1840 H 0.01437 0.1636 0.77125 0.0
H1841 H 0.97483 0.23334 0.77654 0.0
H1842 H 0.04622 0.19222 0.74722 0.0
H1843 H 0.00325 0.15466 0.74668 0.0
H1844 H 0.03373 0.15703 0.75586 0.0
H1845 H 0.99547 0.27425 0.75273 0.0
H1846 H 0.97094 0.26816 0.76389 0.0
H1847 H 0.95113 0.23941 0.75356 0.0
C1848 C 0.90488 0.55433 0.56211 0.0
C1849 C 0.87078 0.53404 0.55847 0.0
C1850 C 0.91097 0.55826 0.57232 0.0
C1851 C 0.88232 0.54135 0.5789 0.0
C1852 C 0.84794 0.52153 0.57519 0.0
C1853 C 0.84271 0.518 0.5651 0.0
C1854 C 0.94791 0.57987 0.57608 0.0
C1855 C 0.81649 0.50274 0.58187 0.0
C1856 C 0.88558 0.50375 0.60329 0.0
C1857 C 0.87897 0.5244 0.6098 0.0
C1858 C 0.88997 0.51106 0.59326 0.0
C1859 C 0.88771 0.53983 0.58959 0.0
C1860 C 0.88357 0.56237 0.59619 0.0
C1861 C 0.87936 0.55444 0.60628 0.0
C1862 C 0.89372 0.48597 0.58649 0.0
C1863 C 0.88095 0.59323 0.5925 0.0
H1864 H 0.92657 0.56721 0.55703 0.0
H1865 H 0.81617 0.50222 0.5624 0.0
H1866 H 0.94931 0.59892 0.58163 0.0
H1867 H 0.95598 0.5626 0.57976 0.0
H1868 H 0.96681 0.59431 0.5701 0.0
H1869 H 0.79134 0.49061 0.57777 0.0
H1870 H 0.81803 0.48179 0.58595 0.0
H1871 H 0.81609 0.52112 0.58735 0.0
H1872 H 0.88595 0.48082 0.60599 0.0
H1873 H 0.8744 0.57054 0.6113 0.0
H1874 H 0.91508 0.50046 0.58112 0.0
H1875 H 0.86911 0.47055 0.58228 0.0
H1876 H 0.89918 0.46741 0.59056 0.0
H1877 H 0.90222 0.60864 0.58718 0.0
H1878 H 0.88234 0.61069 0.59857 0.0
H1879 H 0.85573 0.58378 0.5886 0.0
C1880 C 0.42918 0.31423 0.56167 0.0
C1881 C 0.4629 0.32646 0.55793 0.0
C1882 C 0.42387 0.31569 0.57181 0.0
C1883 C 0.45307 0.33018 0.57822 0.0
C1884 C 0.4873 0.34449 0.57432 0.0
C1885 C 0.49171 0.34201 0.56424 0.0
C1886 C 0.38702 0.29986 0.5757 0.0
C1887 C 0.51928 0.36081 0.58084 0.0
C1888 C 0.45547 0.36024 0.60433 0.0
C1889 C 0.45814 0.33435 0.60954 0.0
C1890 C 0.45044 0.35771 0.59413 0.0
C1891 C 0.44843 0.32872 0.58907 0.0
C1892 C 0.44814 0.30108 0.59446 0.0
C1893 C 0.45327 0.30437 0.60467 0.0
C1894 C 0.45089 0.38773 0.58869 0.0
C1895 C 0.4458 0.26959 0.58938 0.0
H1896 H 0.40688 0.30155 0.55677 0.0
H1897 H 0.51774 0.35116 0.5613 0.0
H1898 H 0.38026 0.27556 0.5798 0.0
H1899 H 0.38488 0.31804 0.5809 0.0
H1900 H 0.36757 0.29327 0.56973 0.0
H1901 H 0.54403 0.37329 0.57657 0.0
H1902 H 0.51892 0.38087 0.58567 0.0
H1903 H 0.51917 0.34043 0.58564 0.0
H1904 H 0.45992 0.38372 0.60812 0.0
H1905 H 0.45604 0.28472 0.60871 0.0
H1906 H 0.43085 0.37798 0.58281 0.0
H1907 H 0.47684 0.40377 0.58516 0.0
H1908 H 0.44621 0.40488 0.59368 0.0
H1909 H 0.42497 0.25947 0.58371 0.0
H1910 H 0.44038 0.24818 0.59462 0.0
H1911 H 0.47096 0.27731 0.58562 0.0
C1912 C 0.71134 0.14012 0.56257 0.0
C1913 C 0.68071 0.13194 0.55741 0.0
C1914 C 0.71091 0.13621 0.57277 0.0
C1915 C 0.67911 0.12433 0.57791 0.0
C1916 C 0.64747 0.11252 0.5726 0.0
C1917 C 0.64864 0.1165 0.56234 0.0
C1918 C 0.74516 0.14875 0.57809 0.0
C1919 C 0.61296 0.0994 0.57781 0.0
C1920 C 0.67325 0.11344 0.60572 0.0
C1921 C 0.67535 0.14495 0.60858 0.0
C1922 C 0.67553 0.10649 0.59574 0.0
C1923 C 0.68012 0.13175 0.58858 0.0
C1924 C 0.68465 0.1645 0.59157 0.0
C1925 C 0.68217 0.17063 0.60152 0.0
C1926 C 0.67097 0.07147 0.59283 0.0
C1927 C 0.69024 0.19253 0.58423 0.0
H1928 H 0.73616 0.15214 0.5587 0.0
H1929 H 0.62506 0.11051 0.55833 0.0
H1930 H 0.75415 0.17527 0.58112 0.0
H1931 H 0.74199 0.13126 0.58433 0.0
H1932 H 0.76585 0.15028 0.57312 0.0
H1933 H 0.59041 0.08542 0.57273 0.0
H1934 H 0.61027 0.08157 0.5839 0.0
H1935 H 0.61185 0.12195 0.58102 0.0
H1936 H 0.66751 0.09339 0.61117 0.0
H1937 H 0.68388 0.19504 0.60375 0.0
H1938 H 0.69102 0.07475 0.58736 0.0
H1939 H 0.64495 0.05544 0.58935 0.0
H1940 H 0.67271 0.05688 0.59925 0.0
H1941 H 0.71306 0.19878 0.57948 0.0
H1942 H 0.69477 0.21706 0.58782 0.0
H1943 H 0.66695 0.1829 0.57941 0.0
C1944 C 0.47132 0.11285 0.06235 0.0
C1945 C 0.45633 0.13064 0.05782 0.0
C1946 C 0.46802 0.10708 0.07255 0.0
C1947 C 0.44942 0.11952 0.0782 0.0
C1948 C 0.43102 0.13384 0.07342 0.0
C1949 C 0.43487 0.13939 0.06328 0.0
C1950 C 0.48761 0.09123 0.07738 0.0
C1951 C 0.41077 0.14731 0.0791 0.0
C1952 C 0.44256 0.10596 0.10596 0.0
C1953 C 0.47258 0.13653 0.10906 0.0
C1954 C 0.43404 0.10001 0.09591 0.0
C1955 C 0.45604 0.1253 0.08893 0.0
C1956 C 0.48523 0.15699 0.09214 0.0
C1957 C 0.49306 0.16214 0.10214 0.0
C1958 C 0.40255 0.06611 0.09275 0.0
C1959 C 0.50911 0.18508 0.085 0.0
H1960 H 0.488 0.10623 0.05811 0.0
H1961 H 0.42315 0.15303 0.05972 0.0
H1962 H 0.51189 0.11233 0.08079 0.0
H1963 H 0.47164 0.07285 0.08328 0.0
H1964 H 0.49504 0.07709 0.07202 0.0
H1965 H 0.39234 0.15077 0.07431 0.0
H1966 H 0.3958 0.12933 0.08518 0.0
H1967 H 0.42938 0.17309 0.08236 0.0
H1968 H 0.42693 0.08596 0.1113 0.0
H1969 H 0.51617 0.18591 0.10454 0.0
H1970 H 0.41139 0.04963 0.08896 0.0
H1971 H 0.38647 0.07113 0.08745 0.0
H1972 H 0.38585 0.05117 0.09907 0.0
H1973 H 0.52158 0.17459 0.08002 0.0
H1974 H 0.5301 0.20857 0.08875 0.0
H1975 H 0.49379 0.19334 0.08039 0.0
C1976 C 0.83022 0.31351 0.06566 0.0
C1977 C 0.85541 0.31978 0.05844 0.0
C1978 C 0.83873 0.31791 0.07562 0.0
C1979 C 0.87347 0.32892 0.07855 0.0
C1980 C 0.89916 0.33503 0.07136 0.0
C1981 C 0.88986 0.33054 0.06134 0.0
C1982 C 0.81051 0.31162 0.08299 0.0
C1983 C 0.93634 0.3464 0.07426 0.0
C1984 C 0.88923 0.37575 0.10263 0.0
C1985 C 0.87963 0.34833 0.10934 0.0
C1986 C 0.89095 0.37069 0.09256 0.0
C1987 C 0.88276 0.33725 0.08909 0.0
C1988 C 0.87637 0.31034 0.0959 0.0
C1989 C 0.87492 0.31622 0.10601 0.0
C1990 C 0.89786 0.40017 0.08563 0.0
C1991 C 0.86796 0.27446 0.09247 0.0
H1992 H 0.80354 0.30537 0.06354 0.0
H1993 H 0.90935 0.33504 0.05582 0.0
H1994 H 0.80831 0.29236 0.08858 0.0
H1995 H 0.81748 0.33637 0.08687 0.0
H1996 H 0.78446 0.3017 0.07951 0.0
H1997 H 0.95304 0.34938 0.06781 0.0
H1998 H 0.94799 0.37171 0.07823 0.0
H1999 H 0.93664 0.32694 0.07935 0.0
H2000 H 0.89363 0.40089 0.10521 0.0
H2001 H 0.86774 0.29506 0.11119 0.0
H2002 H 0.87292 0.39463 0.0821 0.0
H2003 H 0.91616 0.40242 0.07972 0.0
H2004 H 0.90897 0.42574 0.08947 0.0
H2005 H 0.84049 0.25995 0.08984 0.0
H2006 H 0.87092 0.25911 0.09848 0.0
H2007 H 0.88508 0.27638 0.08626 0.0
C2008 C 0.69258 0.52573 0.10269 0.0
C2009 C 0.67543 0.53694 0.1091 0.0
C2010 C 0.6945 0.53293 0.09263 0.0
C2011 C 0.67801 0.55102 0.08886 0.0
C2012 C 0.66258 0.56437 0.09541 0.0
C2013 C 0.66163 0.55729 0.1055 0.0
C2014 C 0.71188 0.51878 0.08596 0.0
C2015 C 0.64457 0.58356 0.0917 0.0
C2016 C 0.70159 0.57543 0.06222 0.0
C2017 C 0.67565 0.54533 0.05754 0.0
C2018 C 0.70099 0.57942 0.07243 0.0
C2019 C 0.67406 0.55234 0.07804 0.0
C2020 C 0.64617 0.52332 0.07319 0.0
C2021 C 0.64744 0.52006 0.06298 0.0
C2022 C 0.73094 0.61092 0.07726 0.0
C2023 C 0.61673 0.49401 0.07888 0.0
H2024 H 0.70276 0.50956 0.10549 0.0
H2025 H 0.64762 0.56522 0.11046 0.0
H2026 H 0.6917 0.49719 0.08144 0.0
H2027 H 0.73024 0.53947 0.08087 0.0
H2028 H 0.72655 0.5086 0.09012 0.0
H2029 H 0.6397 0.59767 0.09769 0.0
H2030 H 0.66031 0.60258 0.08589 0.0
H2031 H 0.61901 0.56446 0.08842 0.0
H2032 H 0.7237 0.59467 0.05798 0.0
H2033 H 0.62776 0.49652 0.05934 0.0
H2034 H 0.74907 0.60323 0.08059 0.0
H2035 H 0.72133 0.62103 0.08324 0.0
H2036 H 0.74592 0.63232 0.07192 0.0
H2037 H 0.62665 0.47835 0.08262 0.0
H2038 H 0.59464 0.47629 0.07404 0.0
H2039 H 0.60675 0.50464 0.08461 0.0
C2040 C 0.57778 0.87893 0.93866 0.0
C2041 C 0.55048 0.88041 0.94346 0.0
C2042 C 0.58095 0.88158 0.92842 0.0
C2043 C 0.55627 0.88603 0.92292 0.0
C2044 C 0.53098 0.89136 0.92786 0.0
C2045 C 0.52809 0.88802 0.93811 0.0
C2046 C 0.608 0.87535 0.92349 0.0
C2047 C 0.50456 0.89678 0.92226 0.0
C2048 C 0.56188 0.89807 0.89521 0.0
C2049 C 0.53638 0.86454 0.89215 0.0
C2050 C 0.56997 0.90541 0.90522 0.0
C2051 C 0.55244 0.87841 0.91222 0.0
C2052 C 0.52882 0.84388 0.90902 0.0
C2053 C 0.52082 0.83749 0.89904 0.0
C2054 C 0.59519 0.94249 0.90834 0.0
C2055 C 0.51019 0.81403 0.9162 0.0
H2056 H 0.59457 0.87223 0.94283 0.0
H2057 H 0.50653 0.88838 0.94184 0.0
H2058 H 0.59517 0.84804 0.92073 0.0
H2059 H 0.61989 0.89301 0.91711 0.0
H2060 H 0.62913 0.87916 0.92865 0.0
H2061 H 0.49093 0.90651 0.92708 0.0
H2062 H 0.51739 0.91566 0.91617 0.0
H2063 H 0.48462 0.87155 0.91899 0.0
H2064 H 0.57347 0.9191 0.88988 0.0
H2065 H 0.50102 0.8116 0.89664 0.0
H2066 H 0.61358 0.94309 0.91399 0.0
H2067 H 0.58031 0.95406 0.91167 0.0
H2068 H 0.61052 0.95911 0.90205 0.0
H2069 H 0.52923 0.81306 0.92132 0.0
H2070 H 0.49543 0.7883 0.91245 0.0
H2071 H 0.49148 0.81815 0.92065 0.0
C2072 C 0.11239 0.63007 0.93693 0.0
C2073 C 0.11385 0.65772 0.94232 0.0
C2074 C 0.1083 0.62861 0.9267 0.0
C2075 C 0.10604 0.65575 0.9218 0.0
C2076 C 0.10364 0.68159 0.92736 0.0
C2077 C 0.10774 0.68234 0.93759 0.0
C2078 C 0.11058 0.60032 0.92109 0.0
C2079 C 0.10093 0.71079 0.92245 0.0
C2080 C 0.15551 0.67849 0.89774 0.0
C2081 C 0.12842 0.66154 0.89094 0.0
C2082 C 0.14831 0.6788 0.90774 0.0
C2083 C 0.11311 0.66066 0.91105 0.0
C2084 C 0.08555 0.64483 0.90413 0.0
C2085 C 0.09357 0.64572 0.89411 0.0
C2086 C 0.17856 0.69677 0.91482 0.0
C2087 C 0.04779 0.62486 0.90736 0.0
H2088 H 0.11791 0.61151 0.94058 0.0
H2089 H 0.10968 0.70419 0.94176 0.0
H2090 H 0.09112 0.59008 0.91505 0.0
H2091 H 0.13699 0.61144 0.91775 0.0
H2092 H 0.10622 0.5782 0.92592 0.0
H2093 H 0.09214 0.7242 0.92767 0.0
H2094 H 0.12702 0.73039 0.91956 0.0
H2095 H 0.08252 0.70083 0.91617 0.0
H2096 H 0.18244 0.6904 0.89525 0.0
H2097 H 0.07266 0.63199 0.88883 0.0
H2098 H 0.18021 0.67688 0.91941 0.0
H2099 H 0.17442 0.71423 0.91982 0.0
H2100 H 0.20398 0.71254 0.91099 0.0
H2101 H 0.04238 0.59985 0.91081 0.0
H2102 H 0.0295 0.61877 0.9011 0.0
H2103 H 0.04239 0.63985 0.91294 0.0
C2104 C 0.29356 0.43357 0.89564 0.0
C2105 C 0.32421 0.44286 0.89039 0.0
C2106 C 0.29233 0.42822 0.90584 0.0
C2107 C 0.32281 0.43339 0.91083 0.0
C2108 C 0.35221 0.43852 0.90534 0.0
C2109 C 0.35248 0.44309 0.89515 0.0
C2110 C 0.25996 0.42143 0.9114 0.0
C2111 C 0.38523 0.44412 0.91028 0.0
C2112 C 0.33792 0.48512 0.93424 0.0
C2113 C 0.328 0.45937 0.94146 0.0
C2114 C 0.33791 0.47712 0.9243 0.0
C2115 C 0.3269 0.4422 0.92148 0.0
C2116 C 0.31853 0.41635 0.9288 0.0
C2117 C 0.31939 0.42533 0.93876 0.0
C2118 C 0.34809 0.50588 0.91681 0.0
C2119 C 0.30654 0.37885 0.92612 0.0
H2120 H 0.27188 0.43384 0.89198 0.0
H2121 H 0.37636 0.45074 0.89107 0.0
H2122 H 0.25447 0.40261 0.91747 0.0
H2123 H 0.26421 0.44629 0.91468 0.0
H2124 H 0.23669 0.41101 0.90653 0.0
H2125 H 0.40236 0.44007 0.90511 0.0
H2126 H 0.40004 0.47138 0.91307 0.0
H2127 H 0.37915 0.42628 0.91663 0.0
H2128 H 0.34455 0.51143 0.93635 0.0
H2129 H 0.31116 0.40528 0.94436 0.0
H2130 H 0.32489 0.50054 0.91235 0.0
H2131 H 0.3682 0.50676 0.91174 0.0
H2132 H 0.3586 0.53204 0.92027 0.0
H2133 H 0.2789 0.36602 0.92363 0.0
H2134 H 0.30812 0.36392 0.93247 0.0
H2135 H 0.32228 0.37733 0.91999 0.0
C2136 C 0.11754 0.42251 0.43742 0.0
C2137 C 0.11861 0.45101 0.44227 0.0
C2138 C 0.11393 0.41921 0.4272 0.0
C2139 C 0.11134 0.44512 0.42175 0.0
C2140 C 0.10841 0.47174 0.42676 0.0
C2141 C 0.11252 0.47462 0.437 0.0
C2142 C 0.11731 0.39052 0.42219 0.0
C2143 C 0.10491 0.49948 0.42125 0.0
C2144 C 0.16136 0.47805 0.39794 0.0
C2145 C 0.13451 0.46378 0.39097 0.0
C2146 C 0.15422 0.47053 0.40792 0.0
C2147 C 0.11915 0.44883 0.41105 0.0
C2148 C 0.09209 0.43288 0.40399 0.0
C2149 C 0.10017 0.44039 0.39397 0.0
C2150 C 0.18406 0.48757 0.41517 0.0
C2151 C 0.05442 0.40993 0.40703 0.0
H2152 H 0.12293 0.40465 0.44152 0.0
H2153 H 0.11401 0.497 0.44076 0.0
H2154 H 0.09931 0.37981 0.41584 0.0
H2155 H 0.14443 0.40146 0.41939 0.0
H2156 H 0.11185 0.3688 0.42732 0.0
H2157 H 0.0964 0.51402 0.42613 0.0
H2158 H 0.1306 0.51849 0.41801 0.0
H2159 H 0.08586 0.48771 0.41515 0.0
H2160 H 0.18783 0.49645 0.39559 0.0
H2161 H 0.07932 0.43003 0.38857 0.0
H2162 H 0.18351 0.46773 0.42028 0.0
H2163 H 0.18125 0.50707 0.41962 0.0
H2164 H 0.21 0.5011 0.41149 0.0
H2165 H 0.05202 0.39042 0.41257 0.0
H2166 H 0.03726 0.39593 0.40069 0.0
H2167 H 0.04481 0.42633 0.41049 0.0
C2168 C 0.55631 0.67367 0.39657 0.0
C2169 C 0.52172 0.66175 0.39357 0.0
C2170 C 0.56553 0.67949 0.40658 0.0
C2171 C 0.53957 0.67337 0.41368 0.0
C2172 C 0.50482 0.66183 0.41064 0.0
C2173 C 0.4964 0.65623 0.40068 0.0
C2174 C 0.60283 0.69178 0.40957 0.0
C2175 C 0.47635 0.65558 0.41791 0.0
C2176 C 0.54138 0.65863 0.44103 0.0
C2177 C 0.54593 0.69034 0.44466 0.0
C2178 C 0.54244 0.65356 0.43086 0.0
C2179 C 0.54834 0.6809 0.42427 0.0
C2180 C 0.55617 0.71391 0.42801 0.0
C2181 C 0.55481 0.71817 0.43814 0.0
C2182 C 0.53431 0.61808 0.42713 0.0
C2183 C 0.56272 0.74385 0.4213 0.0
H2184 H 0.57593 0.67772 0.39114 0.0
H2185 H 0.46965 0.64734 0.39845 0.0
H2186 H 0.6133 0.71609 0.41399 0.0
H2187 H 0.60367 0.67168 0.41427 0.0
H2188 H 0.62023 0.69684 0.40315 0.0
H2189 H 0.45046 0.6458 0.41434 0.0
H2190 H 0.47389 0.63621 0.4235 0.0
H2191 H 0.48325 0.68027 0.42181 0.0
H2192 H 0.53473 0.63713 0.44605 0.0
H2193 H 0.55909 0.74303 0.44093 0.0
H2194 H 0.55239 0.6208 0.4211 0.0
H2195 H 0.50731 0.60416 0.42414 0.0
H2196 H 0.5362 0.60176 0.43304 0.0
H2197 H 0.5812 0.74685 0.41536 0.0
H2198 H 0.57345 0.76905 0.42532 0.0
H2199 H 0.53773 0.73824 0.41779 0.0
C2200 C 0.33161 0.89826 0.4391 0.0
C2201 C 0.34667 0.87836 0.44212 0.0
C2202 C 0.32999 0.90507 0.42908 0.0
C2203 C 0.34403 0.89185 0.42204 0.0
C2204 C 0.36252 0.87501 0.42521 0.0
C2205 C 0.36326 0.86815 0.43521 0.0
C2206 C 0.31028 0.92331 0.42604 0.0
C2207 C 0.37872 0.86123 0.41799 0.0
C2208 C 0.30552 0.85427 0.39728 0.0
C2209 C 0.33127 0.87878 0.39105 0.0
C2210 C 0.30711 0.86022 0.40743 0.0
C2211 C 0.33573 0.89096 0.41141 0.0
C2212 C 0.35977 0.91729 0.40501 0.0
C2213 C 0.35719 0.91086 0.39487 0.0
C2214 C 0.28036 0.83183 0.41397 0.0
C2215 C 0.39057 0.9504 0.4089 0.0
H2216 H 0.31819 0.90558 0.44444 0.0
H2217 H 0.37459 0.85247 0.43757 0.0
H2218 H 0.32301 0.94086 0.41969 0.0
H2219 H 0.28339 0.90341 0.42378 0.0
H2220 H 0.30826 0.93883 0.43216 0.0
H2221 H 0.39575 0.85278 0.42167 0.0
H2222 H 0.35769 0.83842 0.41402 0.0
H2223 H 0.39452 0.88149 0.41246 0.0
H2224 H 0.2859 0.82923 0.39432 0.0
H2225 H 0.37753 0.9295 0.39004 0.0
H2226 H 0.2719 0.84325 0.41988 0.0
H2227 H 0.29225 0.81757 0.4175 0.0
H2228 H 0.25692 0.81266 0.40979 0.0
H2229 H 0.38292 0.96064 0.41529 0.0
H2230 H 0.40206 0.97106 0.40318 0.0
H2231 H 0.41112 0.94464 0.41138 0.0
C2232 C 0.31897 0.22635 0.17269 0.0
C2233 C 0.28632 0.20233 0.17667 0.0
C2234 C 0.34243 0.21555 0.16951 0.0
C2235 C 0.33275 0.17975 0.17017 0.0
C2236 C 0.29965 0.15532 0.17408 0.0
C2237 C 0.27703 0.16695 0.17738 0.0
C2238 C 0.37763 0.24246 0.16546 0.0
C2239 C 0.28811 0.1169 0.17487 0.0
C2240 C 0.38195 0.14846 0.15392 0.0
C2241 C 0.407 0.14938 0.16044 0.0
C2242 C 0.35731 0.15783 0.15701 0.0
C2243 C 0.35753 0.16806 0.16688 0.0
C2244 C 0.38204 0.16796 0.17355 0.0
C2245 C 0.40656 0.15881 0.17025 0.0
C2246 C 0.33141 0.15736 0.14969 0.0
C2247 C 0.38281 0.17818 0.18416 0.0
H2248 H 0.32633 0.2537 0.17213 0.0
H2249 H 0.25173 0.14811 0.18038 0.0
H2250 H 0.39889 0.24259 0.16985 0.0
H2251 H 0.38049 0.23557 0.15782 0.0
H2252 H 0.38129 0.26927 0.1655 0.0
H2253 H 0.25979 0.10071 0.1766 0.0
H2254 H 0.29341 0.10718 0.16794 0.0
H2255 H 0.3032 0.11306 0.18077 0.0
H2256 H 0.38215 0.14131 0.14632 0.0
H2257 H 0.42568 0.15939 0.17536 0.0
H2258 H 0.3353 0.1841 0.14887 0.0
H2259 H 0.30429 0.14027 0.15238 0.0
H2260 H 0.33403 0.14789 0.14236 0.0
H2261 H 0.38836 0.20561 0.18462 0.0
H2262 H 0.40292 0.17587 0.18848 0.0
H2263 H 0.35686 0.16136 0.18759 0.0
C2264 C 0.82913 0.10666 0.179 0.0
C2265 C 0.80829 0.07697 0.17327 0.0
C2266 C 0.83797 0.14025 0.17575 0.0
C2267 C 0.82486 0.14421 0.16666 0.0
C2268 C 0.80375 0.11432 0.16083 0.0
C2269 C 0.79614 0.08105 0.16415 0.0
C2270 C 0.86122 0.17149 0.18208 0.0
C2271 C 0.78872 0.11744 0.15119 0.0
C2272 C 0.81717 0.22576 0.16406 0.0
C2273 C 0.84597 0.24714 0.15808 0.0
C2274 C 0.80966 0.19201 0.16671 0.0
C2275 C 0.83192 0.17949 0.1635 0.0
C2276 C 0.86125 0.20102 0.15753 0.0
C2277 C 0.86773 0.2345 0.1548 0.0
C2278 C 0.77782 0.16972 0.17296 0.0
C2279 C 0.88604 0.18888 0.15416 0.0
H2280 H 0.8391 0.1037 0.18599 0.0
H2281 H 0.78009 0.05814 0.15969 0.0
H2282 H 0.88395 0.19104 0.17776 0.0
H2283 H 0.84651 0.18438 0.18458 0.0
H2284 H 0.87112 0.16415 0.18863 0.0
H2285 H 0.77277 0.09169 0.14754 0.0
H2286 H 0.77202 0.12934 0.15241 0.0
H2287 H 0.81012 0.13501 0.14616 0.0
H2288 H 0.80013 0.23526 0.16659 0.0
H2289 H 0.89008 0.25095 0.15021 0.0
H2290 H 0.78591 0.16341 0.18002 0.0
H2291 H 0.76051 0.14456 0.16919 0.0
H2292 H 0.76248 0.18288 0.17455 0.0
H2293 H 0.89789 0.18344 0.16062 0.0
H2294 H 0.90739 0.20857 0.14946 0.0
H2295 H 0.87155 0.16409 0.14998 0.0
C2296 C 0.89392 0.71087 0.18058 0.0
C2297 C 0.91971 0.7326 0.17384 0.0
C2298 C 0.85952 0.68757 0.17751 0.0
C2299 C 0.85089 0.68561 0.16744 0.0
C2300 C 0.87706 0.70682 0.16057 0.0
C2301 C 0.91107 0.73024 0.16386 0.0
C2302 C 0.83227 0.66555 0.18506 0.0
C2303 C 0.86903 0.7051 0.14975 0.0
C2304 C 0.7707 0.6049 0.15754 0.0
C2305 C 0.74644 0.61658 0.15666 0.0
C2306 C 0.80449 0.62685 0.16121 0.0
C2307 C 0.81448 0.66146 0.16404 0.0
C2308 C 0.79005 0.67332 0.16331 0.0
C2309 C 0.75626 0.6507 0.15965 0.0
C2310 C 0.82968 0.61313 0.16192 0.0
C2311 C 0.79977 0.71007 0.16628 0.0
H2312 H 0.90034 0.71279 0.18832 0.0
H2313 H 0.93091 0.7469 0.15861 0.0
H2314 H 0.81067 0.67156 0.18495 0.0
H2315 H 0.82071 0.63738 0.18326 0.0
H2316 H 0.84324 0.67005 0.1926 0.0
H2317 H 0.89256 0.7226 0.14533 0.0
H2318 H 0.8582 0.67789 0.14705 0.0
H2319 H 0.84883 0.71265 0.1485 0.0
H2320 H 0.76333 0.5785 0.15533 0.0
H2321 H 0.73771 0.65991 0.15901 0.0
H2322 H 0.83989 0.61621 0.16951 0.0
H2323 H 0.85246 0.62856 0.15704 0.0
H2324 H 0.81734 0.58508 0.15983 0.0
H2325 H 0.80892 0.71495 0.174 0.0
H2326 H 0.77749 0.71496 0.16554 0.0
H2327 H 0.82172 0.72929 0.16166 0.0
C2328 C 0.11268 0.35607 0.33608 0.0
C2329 C 0.13552 0.38598 0.34145 0.0
C2330 C 0.12317 0.33242 0.33286 0.0
C2331 C 0.15753 0.33923 0.33491 0.0
C2332 C 0.18097 0.36985 0.34013 0.0
C2333 C 0.16957 0.39266 0.34341 0.0
C2334 C 0.09731 0.29986 0.32741 0.0
C2335 C 0.21802 0.37845 0.34229 0.0
C2336 C 0.17085 0.26057 0.33516 0.0
C2337 C 0.18461 0.26208 0.32577 0.0
C2338 C 0.16278 0.28601 0.3383 0.0
C2339 C 0.16843 0.31361 0.3319 0.0
C2340 C 0.18331 0.31593 0.32253 0.0
C2341 C 0.19126 0.29015 0.31958 0.0
C2342 C 0.14735 0.28284 0.3484 0.0
C2343 C 0.18989 0.34507 0.3155 0.0
H2344 H 0.08638 0.35081 0.33453 0.0
H2345 H 0.18756 0.41603 0.34744 0.0
H2346 H 0.10819 0.29877 0.32016 0.0
H2347 H 0.09259 0.27627 0.33157 0.0
H2348 H 0.07182 0.2987 0.32624 0.0
H2349 H 0.23351 0.40422 0.34597 0.0
H2350 H 0.21769 0.35795 0.34707 0.0
H2351 H 0.2315 0.37875 0.33539 0.0
H2352 H 0.1658 0.23912 0.34002 0.0
H2353 H 0.20186 0.29153 0.31231 0.0
H2354 H 0.12058 0.27903 0.34775 0.0
H2355 H 0.1633 0.30733 0.35261 0.0
H2356 H 0.14588 0.26063 0.35263 0.0
H2357 H 0.16454 0.34233 0.31318 0.0
H2358 H 0.20439 0.34492 0.30886 0.0
H2359 H 0.20502 0.37086 0.31917 0.0
C2360 C 0.6134 0.77365 0.34838 0.0
C2361 C 0.6107 0.74417 0.34362 0.0
C2362 C 0.63748 0.80766 0.3452 0.0
C2363 C 0.65988 0.81236 0.33719 0.0
C2364 C 0.65737 0.7827 0.33239 0.0
C2365 C 0.63259 0.74896 0.33561 0.0
C2366 C 0.63887 0.83857 0.35039 0.0
C2367 C 0.68111 0.78661 0.32392 0.0
C2368 C 0.70535 0.89937 0.32352 0.0
C2369 C 0.73882 0.91564 0.32776 0.0
C2370 C 0.67919 0.86596 0.3266 0.0
C2371 C 0.68678 0.84829 0.33404 0.0
C2372 C 0.7204 0.86473 0.3384 0.0
C2373 C 0.74591 0.89817 0.33523 0.0
C2374 C 0.64355 0.84938 0.32183 0.0
C2375 C 0.72964 0.84676 0.34631 0.0
H2376 H 0.59619 0.77014 0.35448 0.0
H2377 H 0.63059 0.72629 0.3319 0.0
H2378 H 0.66522 0.85523 0.35362 0.0
H2379 H 0.6344 0.85495 0.34506 0.0
H2380 H 0.61904 0.83044 0.35633 0.0
H2381 H 0.67571 0.76094 0.32094 0.0
H2382 H 0.67792 0.80181 0.31793 0.0
H2383 H 0.70885 0.80142 0.32631 0.0
H2384 H 0.69963 0.91266 0.31774 0.0
H2385 H 0.77171 0.91039 0.33854 0.0
H2386 H 0.62295 0.84193 0.3275 0.0
H2387 H 0.6382 0.82504 0.31798 0.0
H2388 H 0.64135 0.86712 0.31646 0.0
H2389 H 0.71159 0.84034 0.35263 0.0
H2390 H 0.75695 0.86315 0.34897 0.0
H2391 H 0.72641 0.82174 0.34348 0.0
C2392 C 0.1014 0.81018 0.31989 0.0
C2393 C 0.08261 0.82163 0.32562 0.0
C2394 C 0.13569 0.81874 0.32245 0.0
C2395 C 0.1515 0.83917 0.33094 0.0
C2396 C 0.13253 0.85051 0.33678 0.0
C2397 C 0.09841 0.84166 0.33405 0.0
C2398 C 0.15508 0.8061 0.31606 0.0
C2399 C 0.14835 0.87224 0.34589 0.0
C2400 C 0.22735 0.83728 0.34355 0.0
C2401 C 0.2562 0.8687 0.34032 0.0
C2402 C 0.1933 0.82686 0.34033 0.0
C2403 C 0.1878 0.84862 0.33381 0.0
C2404 C 0.21683 0.88023 0.33044 0.0
C2405 C 0.25074 0.88976 0.33367 0.0
C2406 C 0.16317 0.79278 0.34401 0.0
C2407 C 0.21196 0.90427 0.32355 0.0
H2408 H 0.08946 0.79481 0.31336 0.0
H2409 H 0.08421 0.85073 0.33852 0.0
H2410 H 0.17953 0.82878 0.31326 0.0
H2411 H 0.16276 0.78982 0.32044 0.0
H2412 H 0.13914 0.79045 0.30972 0.0
H2413 H 0.13004 0.8788 0.34967 0.0
H2414 H 0.15599 0.85793 0.35111 0.0
H2415 H 0.17247 0.89697 0.34396 0.0
H2416 H 0.23137 0.82059 0.34859 0.0
H2417 H 0.2729 0.91403 0.33113 0.0
H2418 H 0.14783 0.77612 0.33774 0.0
H2419 H 0.14523 0.79806 0.34846 0.0
H2420 H 0.17209 0.77787 0.34858 0.0
H2421 H 0.1984 0.88992 0.31679 0.0
H2422 H 0.23724 0.92757 0.32147 0.0
H2423 H 0.19516 0.9133 0.32705 0.0
C2424 C 0.70135 0.79934 0.82379 0.0
C2425 C 0.73622 0.82244 0.82644 0.0
C2426 C 0.6743 0.80536 0.8268 0.0
C2427 C 0.68248 0.83555 0.83241 0.0
C2428 C 0.71761 0.85878 0.83515 0.0
C2429 C 0.74397 0.8518 0.8322 0.0
C2430 C 0.63704 0.77959 0.82392 0.0
C2431 C 0.72749 0.89139 0.84106 0.0
C2432 C 0.62015 0.87164 0.83181 0.0
C2433 C 0.60397 0.86138 0.841 0.0
C2434 C 0.64572 0.86332 0.82891 0.0
C2435 C 0.65456 0.84347 0.83525 0.0
C2436 C 0.63768 0.83239 0.84446 0.0
C2437 C 0.6129 0.84184 0.84727 0.0
C2438 C 0.66362 0.87618 0.81911 0.0
C2439 C 0.64562 0.81036 0.85131 0.0
H2440 H 0.69518 0.7765 0.81939 0.0
H2441 H 0.77087 0.86989 0.83424 0.0
H2442 H 0.61996 0.7709 0.8305 0.0
H2443 H 0.62698 0.79242 0.81893 0.0
H2444 H 0.63475 0.75618 0.82016 0.0
H2445 H 0.75604 0.90682 0.84256 0.0
H2446 H 0.71961 0.90827 0.83706 0.0
H2447 H 0.7133 0.88427 0.84816 0.0
H2448 H 0.61323 0.88666 0.82694 0.0
H2449 H 0.59994 0.83327 0.85431 0.0
H2450 H 0.65925 0.85365 0.81449 0.0
H2451 H 0.6923 0.89278 0.8202 0.0
H2452 H 0.65401 0.89162 0.81508 0.0
H2453 H 0.63991 0.78566 0.8476 0.0
H2454 H 0.63008 0.80374 0.85819 0.0
H2455 H 0.67384 0.82438 0.85323 0.0
C2456 C 0.15995 0.7757 0.84702 0.0
C2457 C 0.14254 0.74752 0.8405 0.0
C2458 C 0.17271 0.81034 0.84388 0.0
C2459 C 0.16745 0.81687 0.83404 0.0
C2460 C 0.14902 0.78844 0.82752 0.0
C2461 C 0.13703 0.75414 0.83081 0.0
C2462 C 0.19251 0.83997 0.85103 0.0
C2463 C 0.14244 0.79428 0.817 0.0
C2464 C 0.17247 0.90233 0.8268 0.0
C2465 C 0.20512 0.9201 0.82207 0.0
C2466 C 0.16033 0.86918 0.83098 0.0
C2467 C 0.18138 0.85337 0.83048 0.0
C2468 C 0.21491 0.87165 0.82605 0.0
C2469 C 0.22634 0.90477 0.82187 0.0
C2470 C 0.12446 0.85058 0.83564 0.0
C2471 C 0.2383 0.85579 0.82549 0.0
H2472 H 0.16465 0.7708 0.8545 0.0
H2473 H 0.12355 0.73248 0.82574 0.0
H2474 H 0.21958 0.85723 0.84834 0.0
H2475 H 0.17985 0.8562 0.8516 0.0
H2476 H 0.19387 0.83046 0.85848 0.0
H2477 H 0.12669 0.76932 0.81296 0.0
H2478 H 0.12847 0.80934 0.81676 0.0
H2479 H 0.16775 0.81 0.81313 0.0
H2480 H 0.15587 0.91396 0.82705 0.0
H2481 H 0.25167 0.91836 0.81829 0.0
H2482 H 0.12609 0.84221 0.8432 0.0
H2483 H 0.10704 0.82662 0.83139 0.0
H2484 H 0.11222 0.8673 0.83595 0.0
H2485 H 0.24204 0.84783 0.83291 0.0
H2486 H 0.26439 0.87418 0.82233 0.0
H2487 H 0.22572 0.83184 0.82089 0.0
C2488 C 0.23956 0.34274 0.84116 0.0
C2489 C 0.25148 0.37792 0.84345 0.0
C2490 C 0.20597 0.32137 0.83719 0.0
C2491 C 0.18369 0.33544 0.83556 0.0
C2492 C 0.19587 0.37111 0.83766 0.0
C2493 C 0.22958 0.39189 0.84154 0.0
C2494 C 0.194 0.28351 0.83493 0.0
C2495 C 0.17292 0.3871 0.8361 0.0
C2496 C 0.10422 0.28549 0.819 0.0
C2497 C 0.07769 0.26641 0.82587 0.0
C2498 C 0.13883 0.30834 0.82203 0.0
C2499 C 0.14699 0.31239 0.83217 0.0
C2500 C 0.12008 0.29404 0.83913 0.0
C2501 C 0.08585 0.27118 0.8359 0.0
C2502 C 0.16682 0.32748 0.81439 0.0
C2503 C 0.12757 0.29802 0.85001 0.0
H2504 H 0.2563 0.33175 0.84256 0.0
H2505 H 0.23846 0.41905 0.84327 0.0
H2506 H 0.17142 0.26625 0.83968 0.0
H2507 H 0.18497 0.27745 0.82721 0.0
H2508 H 0.21506 0.27705 0.83611 0.0
H2509 H 0.18713 0.41578 0.83746 0.0
H2510 H 0.16257 0.38223 0.8285 0.0
H2511 H 0.15009 0.37463 0.84113 0.0
H2512 H 0.0982 0.28182 0.81123 0.0
H2513 H 0.06549 0.25666 0.84126 0.0
H2514 H 0.18663 0.31904 0.81483 0.0
H2515 H 0.1806 0.35606 0.81581 0.0
H2516 H 0.15598 0.32259 0.80683 0.0
H2517 H 0.14605 0.2887 0.85185 0.0
H2518 H 0.10347 0.28308 0.85447 0.0
H2519 H 0.14029 0.32602 0.85212 0.0
C2520 C 0.88558 0.63605 0.66635 0.0
C2521 C 0.87003 0.61545 0.65801 0.0
C2522 C 0.87694 0.66121 0.6694 0.0
C2523 C 0.8517 0.66543 0.66409 0.0
C2524 C 0.83607 0.64485 0.65563 0.0
C2525 C 0.84565 0.62033 0.65264 0.0
C2526 C 0.89458 0.68305 0.67837 0.0
C2527 C 0.80878 0.64831 0.64983 0.0
C2528 C 0.806 0.70688 0.67759 0.0
C2529 C 0.82419 0.74136 0.67408 0.0
C2530 C 0.81429 0.68171 0.67428 0.0
C2531 C 0.84169 0.6914 0.66739 0.0
C2532 C 0.85995 0.72609 0.66377 0.0
C2533 C 0.85086 0.75057 0.66712 0.0
C2534 C 0.79399 0.64485 0.67823 0.0
C2535 C 0.88955 0.73756 0.65651 0.0
H2536 H 0.90447 0.63245 0.67051 0.0
H2537 H 0.83327 0.60428 0.64624 0.0
H2538 H 0.90741 0.71129 0.67652 0.0
H2539 H 0.87475 0.67792 0.68411 0.0
H2540 H 0.91458 0.67747 0.68147 0.0
H2541 H 0.79894 0.63017 0.64347 0.0
H2542 H 0.7863 0.64283 0.65464 0.0
H2543 H 0.81988 0.67551 0.6471 0.0
H2544 H 0.78534 0.69957 0.68295 0.0
H2545 H 0.86523 0.77721 0.6644 0.0
H2546 H 0.81185 0.63843 0.68229 0.0
H2547 H 0.78261 0.62592 0.67208 0.0
H2548 H 0.7725 0.64115 0.68322 0.0
H2549 H 0.9108 0.7343 0.65977 0.0
H2550 H 0.90065 0.76533 0.65426 0.0
H2551 H 0.88029 0.72087 0.64985 0.0
C2552 C 0.40763 0.2342 0.6678 0.0
C2553 C 0.40089 0.25122 0.66013 0.0
C2554 C 0.38232 0.20057 0.67085 0.0
C2555 C 0.34933 0.18346 0.66614 0.0
C2556 C 0.34194 0.2008 0.65857 0.0
C2557 C 0.36787 0.23447 0.65562 0.0
C2558 C 0.39124 0.18299 0.67896 0.0
C2559 C 0.30687 0.18353 0.65347 0.0
C2560 C 0.29807 0.08402 0.66722 0.0
C2561 C 0.27495 0.07804 0.67499 0.0
C2562 C 0.32237 0.11825 0.66424 0.0
C2563 C 0.32298 0.14708 0.66902 0.0
C2564 C 0.29924 0.14115 0.67675 0.0
C2565 C 0.27578 0.10672 0.67971 0.0
C2566 C 0.34768 0.12359 0.65607 0.0
C2567 C 0.29872 0.17115 0.68193 0.0
H2568 H 0.43306 0.24687 0.67133 0.0
H2569 H 0.36242 0.24745 0.6497 0.0
H2570 H 0.3716 0.17471 0.68493 0.0
H2571 H 0.39043 0.15906 0.67608 0.0
H2572 H 0.41762 0.20037 0.68211 0.0
H2573 H 0.3047 0.20111 0.64803 0.0
H2574 H 0.3027 0.15958 0.64963 0.0
H2575 H 0.28552 0.17532 0.65893 0.0
H2576 H 0.29753 0.06194 0.66356 0.0
H2577 H 0.25765 0.10227 0.68565 0.0
H2578 H 0.37499 0.13917 0.65877 0.0
H2579 H 0.34462 0.13864 0.65001 0.0
H2580 H 0.34375 0.09844 0.65308 0.0
H2581 H 0.32394 0.18741 0.68578 0.0
H2582 H 0.27715 0.16202 0.68738 0.0
H2583 H 0.29573 0.18827 0.67652 0.0
C2584 C 0.76964 0.15536 0.65394 0.0
C2585 C 0.74289 0.14861 0.66067 0.0
C2586 C 0.80368 0.16545 0.65714 0.0
C2587 C 0.81106 0.16843 0.66731 0.0
C2588 C 0.78388 0.16045 0.67414 0.0
C2589 C 0.75021 0.15088 0.67074 0.0
C2590 C 0.83196 0.17383 0.64962 0.0
C2591 C 0.79056 0.16274 0.68505 0.0
C2592 C 0.89252 0.16838 0.67642 0.0
C2593 C 0.91574 0.20419 0.67804 0.0
C2594 C 0.85859 0.15642 0.67281 0.0
C2595 C 0.84739 0.18078 0.67084 0.0
C2596 C 0.87071 0.21696 0.6724 0.0
C2597 C 0.90465 0.22824 0.67595 0.0
C2598 C 0.83466 0.11766 0.67118 0.0
C2599 C 0.85971 0.24374 0.67038 0.0
H2600 H 0.76427 0.15382 0.64614 0.0
H2601 H 0.72965 0.14552 0.67599 0.0
H2602 H 0.85278 0.20164 0.65033 0.0
H2603 H 0.84435 0.15765 0.65095 0.0
H2604 H 0.82174 0.16923 0.642 0.0
H2605 H 0.76629 0.15408 0.6894 0.0
H2606 H 0.80215 0.14636 0.68712 0.0
H2607 H 0.80974 0.19012 0.6871 0.0
H2608 H 0.90088 0.14955 0.67794 0.0
H2609 H 0.92237 0.25591 0.67717 0.0
H2610 H 0.82549 0.11268 0.66346 0.0
H2611 H 0.81114 0.10801 0.6759 0.0
H2612 H 0.84771 0.10224 0.67282 0.0
H2613 H 0.8515 0.24199 0.66261 0.0
H2614 H 0.88104 0.2709 0.67186 0.0
H2615 H 0.83681 0.23827 0.675 0.0
C2616 C 0.03927 0.47237 0.48713 0.0
C2617 C 0.06654 0.47768 0.49348 0.0
C2618 C 0.0143 0.48167 0.48991 0.0
C2619 C 0.01651 0.49638 0.4993 0.0
C2620 C 0.04312 0.50044 0.50589 0.0
C2621 C 0.06789 0.49122 0.50288 0.0
C2622 C 0.98635 0.47693 0.48268 0.0
C2623 C 0.046 0.5154 0.51603 0.0
C2624 C 0.97888 0.55624 0.50382 0.0
C2625 C 0.94788 0.53402 0.50889 0.0
C2626 C 0.00101 0.54405 0.50044 0.0
C2627 C 0.99193 0.50881 0.50217 0.0
C2628 C 0.96022 0.48603 0.50704 0.0
C2629 C 0.93863 0.49889 0.51034 0.0
C2630 C 0.03452 0.56908 0.49521 0.0
C2631 C 0.94946 0.44825 0.50898 0.0
H2632 H 0.03806 0.46201 0.47984 0.0
H2633 H 0.08871 0.49519 0.50786 0.0
H2634 H 0.96009 0.46267 0.48614 0.0
H2635 H 0.99067 0.50294 0.4804 0.0
H2636 H 0.98634 0.4624 0.47602 0.0
H2637 H 0.06699 0.51507 0.52045 0.0
H2638 H 0.05164 0.54283 0.51547 0.0
H2639 H 0.0208 0.50035 0.52 0.0
H2640 H 0.98618 0.58333 0.50262 0.0
H2641 H 0.91458 0.48135 0.51417 0.0
H2642 H 0.03579 0.5581 0.488 0.0
H2643 H 0.05735 0.57268 0.49956 0.0
H2644 H 0.03699 0.59512 0.49401 0.0
H2645 H 0.94918 0.43503 0.50203 0.0
H2646 H 0.92316 0.4335 0.51243 0.0
H2647 H 0.96882 0.44695 0.5139 0.0
C2648 C 0.47865 0.43679 0.51394 0.0
C2649 C 0.48395 0.41461 0.50769 0.0
C2650 C 0.48751 0.47078 0.51096 0.0
C2651 C 0.50179 0.48272 0.50149 0.0
C2652 C 0.50617 0.46003 0.49506 0.0
C2653 C 0.49729 0.42636 0.49824 0.0
C2654 C 0.48233 0.49419 0.51801 0.0
C2655 C 0.52106 0.47162 0.48488 0.0
C2656 C 0.5018 0.56133 0.49003 0.0
C2657 C 0.53613 0.58828 0.49191 0.0
C2658 C 0.49002 0.52702 0.49329 0.0
C2659 C 0.51332 0.51929 0.49838 0.0
C2660 C 0.54809 0.54634 0.50022 0.0
C2661 C 0.55896 0.58059 0.49706 0.0
C2662 C 0.4526 0.49909 0.49132 0.0
C2663 C 0.57389 0.53901 0.50549 0.0
H2664 H 0.46844 0.42796 0.52126 0.0
H2665 H 0.50129 0.40934 0.49332 0.0
H2666 H 0.50799 0.5175 0.51976 0.0
H2667 H 0.46588 0.50376 0.51458 0.0
H2668 H 0.46977 0.48059 0.52497 0.0
H2669 H 0.52163 0.45039 0.48065 0.0
H2670 H 0.50533 0.4806 0.48074 0.0
H2671 H 0.54814 0.49413 0.48538 0.0
H2672 H 0.48384 0.56719 0.48618 0.0
H2673 H 0.58549 0.60132 0.49853 0.0
H2674 H 0.43904 0.48748 0.49834 0.0
H2675 H 0.45201 0.47765 0.48692 0.0
H2676 H 0.43772 0.50946 0.48734 0.0
H2677 H 0.56378 0.52816 0.51288 0.0
H2678 H 0.6 0.56286 0.50631 0.0
H2679 H 0.57711 0.51904 0.50141 0.0
C2680 C 0.58062 0.03585 0.49935 0.0
C2681 C 0.58674 0.0548 0.50809 0.0
C2682 C 0.54661 0.00996 0.49667 0.0
C2683 C 0.51797 0.00326 0.5028 0.0
C2684 C 0.524 0.02229 0.51164 0.0
C2685 C 0.55832 0.04761 0.51422 0.0
C2686 C 0.54129 0.98984 0.48726 0.0
C2687 C 0.49414 0.01623 0.51831 0.0
C2688 C 0.42786 0.95952 0.49091 0.0
C2689 C 0.41398 0.92466 0.49392 0.0
C2690 C 0.46138 0.98554 0.49392 0.0
C2691 C 0.4817 0.97635 0.49996 0.0
C2692 C 0.46764 0.94128 0.50311 0.0
C2693 C 0.43388 0.91594 0.50011 0.0
C2694 C 0.47526 0.02277 0.49054 0.0
C2695 C 0.4886 0.93031 0.50944 0.0
H2696 H 0.60244 0.0412 0.4946 0.0
H2697 H 0.56277 0.06232 0.52095 0.0
H2698 H 0.52754 0.96132 0.4888 0.0
H2699 H 0.5245 0.99469 0.48219 0.0
H2700 H 0.5664 0.99725 0.4835 0.0
H2701 H 0.50322 0.03333 0.5249 0.0
H2702 H 0.47527 0.02125 0.51426 0.0
H2703 H 0.47977 0.98854 0.52075 0.0
H2704 H 0.4126 0.96644 0.48613 0.0
H2705 H 0.42351 0.889 0.5024 0.0
H2706 H 0.49864 0.03102 0.48584 0.0
H2707 H 0.48362 0.04068 0.49694 0.0
H2708 H 0.4555 0.02596 0.48631 0.0
H2709 H 0.51271 0.93537 0.5055 0.0
H2710 H 0.47359 0.90213 0.51143 0.0
H2711 H 0.49692 0.94603 0.51628 0.0
C2712 C 0.46842 0.04556 0.99831 0.0
C2713 C 0.47903 0.06281 0.00736 0.0
C2714 C 0.47734 0.02028 0.99559 0.0
C2715 C 0.49798 0.01266 0.00198 0.0
C2716 C 0.5093 0.03049 0.01104 0.0
C2717 C 0.49938 0.05506 0.01367 0.0
C2718 C 0.46426 0.00136 0.98593 0.0
C2719 C 0.53193 0.02363 0.01797 0.0
C2720 C 0.4923 0.92418 0.99985 0.0
C2721 C 0.52182 0.93211 0.99413 0.0
C2722 C 0.48427 0.95014 0.00242 0.0
C2723 C 0.50662 0.98508 0.99936 0.0
C2724 C 0.53696 0.99349 0.99379 0.0
C2725 C 0.54404 0.96682 0.99116 0.0
C2726 C 0.45145 0.94002 0.00826 0.0
C2727 C 0.56172 0.03057 0.99054 0.0
H2728 H 0.4527 0.05147 0.99341 0.0
H2729 H 0.5081 0.06867 0.02062 0.0
H2730 H 0.48666 0.00524 0.98133 0.0
H2731 H 0.44771 0.97282 0.98726 0.0
H2732 H 0.44868 0.0105 0.98177 0.0
H2733 H 0.5396 0.04063 0.02457 0.0
H2734 H 0.51774 0.99589 0.02037 0.0
H2735 H 0.55603 0.02809 0.01414 0.0
H2736 H 0.4748 0.89739 0.0021 0.0
H2737 H 0.56689 0.97312 0.98675 0.0
H2738 H 0.43402 0.94672 0.00408 0.0
H2739 H 0.4582 0.955 0.01523 0.0
H2740 H 0.43671 0.91163 0.01002 0.0
H2741 H 0.54803 0.0394 0.98546 0.0
H2742 H 0.5852 0.03312 0.98675 0.0
H2743 H 0.5704 0.04845 0.99695 0.0
C2744 C 0.93068 0.4292 0.99953 0.0
C2745 C 0.93179 0.41669 0.00891 0.0
C2746 C 0.95506 0.46342 0.99666 0.0
C2747 C 0.98129 0.4859 0.00333 0.0
C2748 C 0.98318 0.47325 0.01273 0.0
C2749 C 0.9584 0.43874 0.01542 0.0
C2750 C 0.95235 0.47568 0.98652 0.0
C2751 C 0.01096 0.49638 0.02001 0.0
C2752 C 0.05951 0.56425 0.99176 0.0
C2753 C 0.05149 0.591 0.99322 0.0
C2754 C 0.03761 0.53031 0.99534 0.0
C2755 C 0.00653 0.52263 1.00038 0.0
C2756 C 0.99848 0.54959 0.00201 0.0
C2757 C 0.02125 0.58358 0.99848 0.0
C2758 C 0.04745 0.50252 0.99356 0.0
C2759 C 0.96535 0.54229 0.00725 0.0
H2760 H 0.91038 0.41233 0.99442 0.0
H2761 H 0.95941 0.42932 0.02268 0.0
H2762 H 0.94791 0.49825 0.98708 0.0
H2763 H 0.97726 0.48476 0.98247 0.0
H2764 H 0.93073 0.45477 0.98216 0.0
H2765 H 0.01006 0.48208 0.02681 0.0
H2766 H 0.03734 0.50734 0.01668 0.0
H2767 H 0.00743 0.51879 0.02202 0.0
H2768 H 0.08311 0.56986 0.98782 0.0
H2769 H 0.01495 0.60412 0.99965 0.0
H2770 H 0.02792 0.48202 0.98865 0.0
H2771 H 0.04719 0.48959 0.00057 0.0
H2772 H 0.07377 0.51335 0.99017 0.0
H2773 H 0.94224 0.52327 0.00295 0.0
H2774 H 0.96367 0.56636 0.00834 0.0
H2775 H 0.96383 0.53024 0.01451 0.0
C2776 C 0.44206 0.48688 0.98589 0.0
C2777 C 0.4157 0.4816 0.99258 0.0
C2778 C 0.47643 0.4984 0.98908 0.0
C2779 C 0.48448 0.50446 0.99921 0.0
C2780 C 0.45777 0.49837 0.006 0.0
C2781 C 0.42377 0.48713 0.00261 0.0
C2782 C 0.50425 0.50457 0.98163 0.0
C2783 C 0.46521 0.50424 0.01686 0.0
C2784 C 0.5646 0.50483 0.00948 0.0
C2785 C 0.58856 0.54081 0.01036 0.0
C2786 C 0.53099 0.49269 0.00564 0.0
C2787 C 0.52078 0.51708 0.00275 0.0
C2788 C 0.54479 0.55345 0.00359 0.0
C2789 C 0.57855 0.5649 0.00732 0.0
C2790 C 0.50629 0.45373 0.00478 0.0
C2791 C 0.53465 0.58021 0.00067 0.0
H2792 H 0.43607 0.48291 0.97812 0.0
H2793 H 0.40353 0.48302 0.00783 0.0
H2794 H 0.52556 0.53229 0.98191 0.0
H2795 H 0.51607 0.48816 0.98339 0.0
H2796 H 0.49372 0.4985 0.97404 0.0
H2797 H 0.44142 0.49789 0.0212 0.0
H2798 H 0.47604 0.48787 0.01957 0.0
H2799 H 0.48523 0.53197 0.01824 0.0
H2800 H 0.57221 0.48599 0.01171 0.0
H2801 H 0.59692 0.5927 0.00799 0.0
H2802 H 0.49615 0.44688 0.99718 0.0
H2803 H 0.48343 0.44577 0.00968 0.0
H2804 H 0.51903 0.4383 0.00677 0.0
H2805 H 0.5262 0.57642 0.99289 0.0
H2806 H 0.55651 0.60749 0.00164 0.0
H2807 H 0.5121 0.57666 0.00515 0.0
loop_
_geom_bond_atom_site_label_1
_geom_bond_atom_site_label_2
_geom_bond_distance
_geom_bond_site_symmetry_2
_ccdc_geom_bond_type
Mg0 O1 2.028 . S
Mg0 O7 1.986 . S
Mg0 O9 2.114 . S
Mg0 O10 2.251 . S
Mg0 O13 2.010 . S
O1 Mg0 2.028 . S
O1 C4 1.250 . S
O2 Mg3 2.028 . S
O2 C4 1.248 . S
Mg3 O2 2.028 . S
Mg3 O8 2.032 . S
Mg3 O10 2.079 . S
C4 O1 1.250 . S
C4 O2 1.248 . S
C5 O6 1.264 . S
C5 O13 1.249 . S
O6 C5 1.264 . S
O7 Mg0 1.986 . S
O7 C11 1.246 . S
O8 Mg3 2.032 . S
O8 C11 1.259 . S
O9 Mg0 2.114 . S
O9 C12 1.252 . S
O10 Mg0 2.251 . S
O10 Mg3 2.079 . S
O10 C12 1.273 . S
C11 O7 1.246 . S
C11 O8 1.259 . S
C12 O9 1.252 . S
C12 O10 1.273 . S
O13 Mg0 2.010 . S
O13 C5 1.249 . S
Mg14 O15 2.028 . S
Mg14 O21 1.986 . S
Mg14 O23 2.114 1_545 S
Mg14 O24 2.251 1_545 S
Mg14 O27 2.010 . S
O15 Mg14 2.028 . S
O15 C18 1.250 . S
O16 Mg17 2.028 1_545 S
O16 C18 1.248 . S
Mg17 O16 2.028 1_565 S
Mg17 O22 2.032 . S
Mg17 O24 2.079 . S
C18 O15 1.250 . S
C18 O16 1.248 . S
C19 O20 1.264 . S
C19 O27 1.249 . S
O20 C19 1.264 . S
O21 Mg14 1.986 . S
O21 C25 1.246 . S
O22 Mg17 2.032 . S
O22 C25 1.259 1_565 S
O23 Mg14 2.114 1_565 S
O23 C26 1.252 . S
O24 Mg14 2.251 1_565 S
O24 Mg17 2.079 . S
O24 C26 1.273 . S
C25 O21 1.246 . S
C25 O22 1.259 1_545 S
C26 O23 1.252 . S
C26 O24 1.273 . S
O27 Mg14 2.010 . S
O27 C19 1.249 . S
Mg28 O29 2.028 . S
Mg28 O35 1.986 . S
Mg28 O37 2.114 1_655 S
Mg28 O38 2.251 1_655 S
Mg28 O41 2.010 . S
O29 Mg28 2.028 . S
O29 C32 1.250 . S
O30 Mg31 2.028 1_655 S
O30 C32 1.248 . S
Mg31 O30 2.028 1_455 S
Mg31 O36 2.032 . S
Mg31 O38 2.079 . S
C32 O29 1.250 . S
C32 O30 1.248 . S
C33 O34 1.264 . S
C33 O41 1.249 . S
O34 C33 1.264 . S
O35 Mg28 1.986 . S
O35 C39 1.246 . S
O36 Mg31 2.032 . S
O36 C39 1.259 1_455 S
O37 Mg28 2.114 1_455 S
O37 C40 1.252 . S
O38 Mg28 2.251 1_455 S
O38 Mg31 2.079 . S
O38 C40 1.273 . S
C39 O35 1.246 . S
C39 O36 1.259 1_655 S
C40 O37 1.252 . S
C40 O38 1.273 . S
O41 Mg28 2.010 . S
O41 C33 1.249 . S
Mg42 O43 2.028 . S
Mg42 O49 1.986 . S
Mg42 O51 2.114 . S
Mg42 O52 2.251 . S
Mg42 O55 2.010 . S
O43 Mg42 2.028 . S
O43 C46 1.250 . S
O44 Mg45 2.028 . S
O44 C46 1.248 . S
Mg45 O44 2.028 . S
Mg45 O50 2.032 . S
Mg45 O52 2.079 . S
C46 O43 1.250 . S
C46 O44 1.248 . S
C47 O48 1.264 . S
C47 O55 1.249 . S
O48 C47 1.264 . S
O49 Mg42 1.986 . S
O49 C53 1.246 . S
O50 Mg45 2.032 . S
O50 C53 1.259 . S
O51 Mg42 2.114 . S
O51 C54 1.252 . S
O52 Mg42 2.251 . S
O52 Mg45 2.079 . S
O52 C54 1.273 . S
C53 O49 1.246 . S
C53 O50 1.259 . S
C54 O51 1.252 . S
C54 O52 1.273 . S
O55 Mg42 2.010 . S
O55 C47 1.249 . S
Mg56 O57 2.028 . S
Mg56 O63 1.986 . S
Mg56 O65 2.114 1_565 S
Mg56 O66 2.251 1_565 S
Mg56 O69 2.010 . S
O57 Mg56 2.028 . S
O57 C60 1.250 . S
O58 Mg59 2.028 1_565 S
O58 C60 1.248 . S
Mg59 O58 2.028 1_545 S
Mg59 O64 2.032 . S
Mg59 O66 2.079 . S
C60 O57 1.250 . S
C60 O58 1.248 . S
C61 O62 1.264 . S
C61 O69 1.249 . S
O62 C61 1.264 . S
O63 Mg56 1.986 . S
O63 C67 1.246 . S
O64 Mg59 2.032 . S
O64 C67 1.259 1_545 S
O65 Mg56 2.114 1_545 S
O65 C68 1.252 . S
O66 Mg56 2.251 1_545 S
O66 Mg59 2.079 . S
O66 C68 1.273 . S
C67 O63 1.246 . S
C67 O64 1.259 1_565 S
C68 O65 1.252 . S
C68 O66 1.273 . S
O69 Mg56 2.010 . S
O69 C61 1.249 . S
Mg70 O71 2.028 . S
Mg70 O77 1.986 . S
Mg70 O79 2.114 1_455 S
Mg70 O80 2.251 1_455 S
Mg70 O83 2.010 . S
O71 Mg70 2.028 . S
O71 C74 1.250 . S
O72 Mg73 2.028 1_455 S
O72 C74 1.248 . S
Mg73 O72 2.028 1_655 S
Mg73 O78 2.032 . S
Mg73 O80 2.079 . S
C74 O71 1.250 . S
C74 O72 1.248 . S
C75 O76 1.264 . S
C75 O83 1.249 . S
O76 C75 1.264 . S
O77 Mg70 1.986 . S
O77 C81 1.246 . S
O78 Mg73 2.032 . S
O78 C81 1.259 1_655 S
O79 Mg70 2.114 1_655 S
O79 C82 1.252 . S
O80 Mg70 2.251 1_655 S
O80 Mg73 2.079 . S
O80 C82 1.273 . S
C81 O77 1.246 . S
C81 O78 1.259 1_455 S
C82 O79 1.252 . S
C82 O80 1.273 . S
O83 Mg70 2.010 . S
O83 C75 1.249 . S
Mg84 O85 2.028 . S
Mg84 O91 1.986 . S
Mg84 O93 2.114 . S
Mg84 O94 2.251 . S
Mg84 O97 2.010 . S
O85 Mg84 2.028 . S
O85 C88 1.250 . S
O86 Mg87 2.028 . S
O86 C88 1.248 . S
Mg87 O86 2.028 . S
Mg87 O92 2.032 . S
Mg87 O94 2.079 . S
C88 O85 1.250 . S
C88 O86 1.248 . S
C89 O90 1.264 . S
C89 O97 1.249 . S
O90 C89 1.264 . S
O91 Mg84 1.986 . S
O91 C95 1.246 . S
O92 Mg87 2.032 . S
O92 C95 1.259 . S
O93 Mg84 2.114 . S
O93 C96 1.252 . S
O94 Mg84 2.251 . S
O94 Mg87 2.079 . S
O94 C96 1.273 . S
C95 O91 1.246 . S
C95 O92 1.259 . S
C96 O93 1.252 . S
C96 O94 1.273 . S
O97 Mg84 2.010 . S
O97 C89 1.249 . S
Mg98 O99 2.028 . S
Mg98 O105 1.986 . S
Mg98 O107 2.114 1_565 S
Mg98 O108 2.251 1_565 S
Mg98 O111 2.010 . S
O99 Mg98 2.028 . S
O99 C102 1.250 . S
O100 Mg101 2.028 1_565 S
O100 C102 1.248 . S
Mg101 O100 2.028 1_545 S
Mg101 O106 2.032 . S
Mg101 O108 2.079 . S
C102 O99 1.250 . S
C102 O100 1.248 . S
C103 O104 1.264 . S
C103 O111 1.249 . S
O104 C103 1.264 . S
O105 Mg98 1.986 . S
O105 C109 1.246 . S
O106 Mg101 2.032 . S
O106 C109 1.259 1_545 S
O107 Mg98 2.114 1_545 S
O107 C110 1.252 . S
O108 Mg98 2.251 1_545 S
O108 Mg101 2.079 . S
O108 C110 1.273 . S
C109 O105 1.246 . S
C109 O106 1.259 1_565 S
C110 O107 1.252 . S
C110 O108 1.273 . S
O111 Mg98 2.010 . S
O111 C103 1.249 . S
Mg112 O113 2.028 . S
Mg112 O119 1.986 . S
Mg112 O121 2.114 1_455 S
Mg112 O122 2.251 1_455 S
Mg112 O125 2.010 . S
O113 Mg112 2.028 . S
O113 C116 1.250 . S
O114 Mg115 2.028 1_455 S
O114 C116 1.248 . S
Mg115 O114 2.028 1_655 S
Mg115 O120 2.032 . S
Mg115 O122 2.079 . S
C116 O113 1.250 . S
C116 O114 1.248 . S
C117 O118 1.264 . S
C117 O125 1.249 . S
O118 C117 1.264 . S
O119 Mg112 1.986 . S
O119 C123 1.246 . S
O120 Mg115 2.032 . S
O120 C123 1.259 1_655 S
O121 Mg112 2.114 1_655 S
O121 C124 1.252 . S
O122 Mg112 2.251 1_655 S
O122 Mg115 2.079 . S
O122 C124 1.273 . S
C123 O119 1.246 . S
C123 O120 1.259 1_455 S
C124 O121 1.252 . S
C124 O122 1.273 . S
O125 Mg112 2.010 . S
O125 C117 1.249 . S
Mg126 O127 2.028 . S
Mg126 O133 1.986 . S
Mg126 O135 2.114 . S
Mg126 O136 2.251 . S
Mg126 O139 2.010 . S
O127 Mg126 2.028 . S
O127 C130 1.250 . S
O128 Mg129 2.028 . S
O128 C130 1.248 . S
Mg129 O128 2.028 . S
Mg129 O134 2.032 . S
Mg129 O136 2.079 . S
C130 O127 1.250 . S
C130 O128 1.248 . S
C131 O132 1.264 . S
C131 O139 1.249 . S
O132 C131 1.264 . S
O133 Mg126 1.986 . S
O133 C137 1.246 . S
O134 Mg129 2.032 . S
O134 C137 1.259 . S
O135 Mg126 2.114 . S
O135 C138 1.252 . S
O136 Mg126 2.251 . S
O136 Mg129 2.079 . S
O136 C138 1.273 . S
C137 O133 1.246 . S
C137 O134 1.259 . S
C138 O135 1.252 . S
C138 O136 1.273 . S
O139 Mg126 2.010 . S
O139 C131 1.249 . S
Mg140 O141 2.028 . S
Mg140 O147 1.986 . S
Mg140 O149 2.114 1_545 S
Mg140 O150 2.251 1_545 S
Mg140 O153 2.010 . S
O141 Mg140 2.028 . S
O141 C144 1.250 . S
O142 Mg143 2.028 1_545 S
O142 C144 1.248 . S
Mg143 O142 2.028 1_565 S
Mg143 O148 2.032 . S
Mg143 O150 2.079 . S
C144 O141 1.250 . S
C144 O142 1.248 . S
C145 O146 1.264 . S
C145 O153 1.249 . S
O146 C145 1.264 . S
O147 Mg140 1.986 . S
O147 C151 1.246 . S
O148 Mg143 2.032 . S
O148 C151 1.259 1_565 S
O149 Mg140 2.114 1_565 S
O149 C152 1.252 . S
O150 Mg140 2.251 1_565 S
O150 Mg143 2.079 . S
O150 C152 1.273 . S
C151 O147 1.246 . S
C151 O148 1.259 1_545 S
C152 O149 1.252 . S
C152 O150 1.273 . S
O153 Mg140 2.010 . S
O153 C145 1.249 . S
Mg154 O155 2.028 . S
Mg154 O161 1.986 . S
Mg154 O163 2.114 1_655 S
Mg154 O164 2.251 1_655 S
Mg154 O167 2.010 . S
O155 Mg154 2.028 . S
O155 C158 1.250 . S
O156 Mg157 2.028 1_655 S
O156 C158 1.248 . S
Mg157 O156 2.028 1_455 S
Mg157 O162 2.032 . S
Mg157 O164 2.079 . S
C158 O155 1.250 . S
C158 O156 1.248 . S
C159 O160 1.264 . S
C159 O167 1.249 . S
O160 C159 1.264 . S
O161 Mg154 1.986 . S
O161 C165 1.246 . S
O162 Mg157 2.032 . S
O162 C165 1.259 1_455 S
O163 Mg154 2.114 1_455 S
O163 C166 1.252 . S
O164 Mg154 2.251 1_455 S
O164 Mg157 2.079 . S
O164 C166 1.273 . S
C165 O161 1.246 . S
C165 O162 1.259 1_655 S
C166 O163 1.252 . S
C166 O164 1.273 . S
O167 Mg154 2.010 . S
O167 C159 1.249 . S
Mg168 O169 2.028 . S
Mg168 O175 1.986 . S
Mg168 O177 2.114 . S
Mg168 O178 2.251 . S
Mg168 O181 2.010 . S
O169 Mg168 2.028 . S
O169 C172 1.250 . S
O170 Mg171 2.028 . S
O170 C172 1.248 . S
Mg171 O170 2.028 . S
Mg171 O176 2.032 . S
Mg171 O178 2.079 . S
C172 O169 1.250 . S
C172 O170 1.248 . S
C173 O174 1.264 . S
C173 O181 1.249 . S
O174 C173 1.264 . S
O175 Mg168 1.986 . S
O175 C179 1.246 . S
O176 Mg171 2.032 . S
O176 C179 1.259 . S
O177 Mg168 2.114 . S
O177 C180 1.252 . S
O178 Mg168 2.251 . S
O178 Mg171 2.079 . S
O178 C180 1.273 . S
C179 O175 1.246 . S
C179 O176 1.259 . S
C180 O177 1.252 . S
C180 O178 1.273 . S
O181 Mg168 2.010 . S
O181 C173 1.249 . S
Mg182 O183 2.028 . S
Mg182 O189 1.986 . S
Mg182 O191 2.114 . S
Mg182 O192 2.251 . S
Mg182 O195 2.010 . S
O183 Mg182 2.028 . S
O183 C186 1.250 . S
O184 Mg185 2.028 . S
O184 C186 1.248 . S
Mg185 O184 2.028 . S
Mg185 O190 2.032 . S
Mg185 O192 2.079 . S
C186 O183 1.250 . S
C186 O184 1.248 . S
C187 O188 1.264 . S
C187 O195 1.249 . S
O188 C187 1.264 . S
O189 Mg182 1.986 . S
O189 C193 1.246 . S
O190 Mg185 2.032 . S
O190 C193 1.259 . S
O191 Mg182 2.114 . S
O191 C194 1.252 . S
O192 Mg182 2.251 . S
O192 Mg185 2.079 . S
O192 C194 1.273 . S
C193 O189 1.246 . S
C193 O190 1.259 . S
C194 O191 1.252 . S
C194 O192 1.273 . S
O195 Mg182 2.010 . S
O195 C187 1.249 . S
Mg196 O197 2.028 . S
Mg196 O203 1.986 . S
Mg196 O205 2.114 . S
Mg196 O206 2.251 . S
Mg196 O209 2.010 . S
O197 Mg196 2.028 . S
O197 C200 1.250 . S
O198 Mg199 2.028 . S
O198 C200 1.248 . S
Mg199 O198 2.028 . S
Mg199 O204 2.032 . S
Mg199 O206 2.079 . S
C200 O197 1.250 . S
C200 O198 1.248 . S
C201 O202 1.264 . S
C201 O209 1.249 . S
O202 C201 1.264 . S
O203 Mg196 1.986 . S
O203 C207 1.246 . S
O204 Mg199 2.032 . S
O204 C207 1.259 . S
O205 Mg196 2.114 . S
O205 C208 1.252 . S
O206 Mg196 2.251 . S
O206 Mg199 2.079 . S
O206 C208 1.273 . S
C207 O203 1.246 . S
C207 O204 1.259 . S
C208 O205 1.252 . S
C208 O206 1.273 . S
O209 Mg196 2.010 . S
O209 C201 1.249 . S
Mg210 O211 2.028 . S
Mg210 O217 1.986 . S
Mg210 O219 2.114 . S
Mg210 O220 2.251 . S
Mg210 O223 2.010 . S
O211 Mg210 2.028 . S
O211 C214 1.250 . S
O212 Mg213 2.028 . S
O212 C214 1.248 . S
Mg213 O212 2.028 . S
Mg213 O218 2.032 . S
Mg213 O220 2.079 . S
C214 O211 1.250 . S
C214 O212 1.248 . S
C215 O216 1.264 . S
C215 O223 1.249 . S
O216 C215 1.264 . S
O217 Mg210 1.986 . S
O217 C221 1.246 . S
O218 Mg213 2.032 . S
O218 C221 1.259 . S
O219 Mg210 2.114 . S
O219 C222 1.252 . S
O220 Mg210 2.251 . S
O220 Mg213 2.079 . S
O220 C222 1.273 . S
C221 O217 1.246 . S
C221 O218 1.259 . S
C222 O219 1.252 . S
C222 O220 1.273 . S
O223 Mg210 2.010 . S
O223 C215 1.249 . S
Mg224 O225 2.028 . S
Mg224 O231 1.986 . S
Mg224 O233 2.114 . S
Mg224 O234 2.251 . S
Mg224 O237 2.010 . S
O225 Mg224 2.028 . S
O225 C228 1.250 . S
O226 Mg227 2.028 . S
O226 C228 1.248 . S
Mg227 O226 2.028 . S
Mg227 O232 2.032 . S
Mg227 O234 2.079 . S
C228 O225 1.250 . S
C228 O226 1.248 . S
C229 O230 1.264 . S
C229 O237 1.249 . S
O230 C229 1.264 . S
O231 Mg224 1.986 . S
O231 C235 1.246 . S
O232 Mg227 2.032 . S
O232 C235 1.259 . S
O233 Mg224 2.114 . S
O233 C236 1.252 . S
O234 Mg224 2.251 . S
O234 Mg227 2.079 . S
O234 C236 1.273 . S
C235 O231 1.246 . S
C235 O232 1.259 . S
C236 O233 1.252 . S
C236 O234 1.273 . S
O237 Mg224 2.010 . S
O237 C229 1.249 . S
Mg238 O239 2.028 . S
Mg238 O245 1.986 . S
Mg238 O247 2.114 . S
Mg238 O248 2.251 . S
Mg238 O251 2.010 . S
O239 Mg238 2.028 . S
O239 C242 1.250 . S
O240 Mg241 2.028 . S
O240 C242 1.248 . S
Mg241 O240 2.028 . S
Mg241 O246 2.032 . S
Mg241 O248 2.079 . S
C242 O239 1.250 . S
C242 O240 1.248 . S
C243 O244 1.264 . S
C243 O251 1.249 . S
O244 C243 1.264 . S
O245 Mg238 1.986 . S
O245 C249 1.246 . S
O246 Mg241 2.032 . S
O246 C249 1.259 . S
O247 Mg238 2.114 . S
O247 C250 1.252 . S
O248 Mg238 2.251 . S
O248 Mg241 2.079 . S
O248 C250 1.273 . S
C249 O245 1.246 . S
C249 O246 1.259 . S
C250 O247 1.252 . S
C250 O248 1.273 . S
O251 Mg238 2.010 . S
O251 C243 1.249 . S
Mg252 O253 2.028 . S
Mg252 O259 1.986 . S
Mg252 O261 2.114 . S
Mg252 O262 2.251 . S
Mg252 O265 2.010 . S
O253 Mg252 2.028 . S
O253 C256 1.250 . S
O254 Mg255 2.028 . S
O254 C256 1.248 . S
Mg255 O254 2.028 . S
Mg255 O260 2.032 . S
Mg255 O262 2.079 . S
C256 O253 1.250 . S
C256 O254 1.248 . S
C257 O258 1.264 . S
C257 O265 1.249 . S
O258 C257 1.264 . S
O259 Mg252 1.986 . S
O259 C263 1.246 . S
O260 Mg255 2.032 . S
O260 C263 1.259 . S
O261 Mg252 2.114 . S
O261 C264 1.252 . S
O262 Mg252 2.251 . S
O262 Mg255 2.079 . S
O262 C264 1.273 . S
C263 O259 1.246 . S
C263 O260 1.259 . S
C264 O261 1.252 . S
C264 O262 1.273 . S
O265 Mg252 2.010 . S
O265 C257 1.249 . S
Mg266 O267 2.028 . S
Mg266 O273 1.986 . S
Mg266 O275 2.114 . S
Mg266 O276 2.251 . S
Mg266 O279 2.010 . S
O267 Mg266 2.028 . S
O267 C270 1.250 . S
O268 Mg269 2.028 . S
O268 C270 1.248 . S
Mg269 O268 2.028 . S
Mg269 O274 2.032 . S
Mg269 O276 2.079 . S
C270 O267 1.250 . S
C270 O268 1.248 . S
C271 O272 1.264 . S
C271 O279 1.249 . S
O272 C271 1.264 . S
O273 Mg266 1.986 . S
O273 C277 1.246 . S
O274 Mg269 2.032 . S
O274 C277 1.259 . S
O275 Mg266 2.114 . S
O275 C278 1.252 . S
O276 Mg266 2.251 . S
O276 Mg269 2.079 . S
O276 C278 1.273 . S
C277 O273 1.246 . S
C277 O274 1.259 . S
C278 O275 1.252 . S
C278 O276 1.273 . S
O279 Mg266 2.010 . S
O279 C271 1.249 . S
Mg280 O281 2.028 . S
Mg280 O287 1.986 . S
Mg280 O289 2.114 . S
Mg280 O290 2.251 . S
Mg280 O293 2.010 . S
O281 Mg280 2.028 . S
O281 C284 1.250 . S
O282 Mg283 2.028 . S
O282 C284 1.248 . S
Mg283 O282 2.028 . S
Mg283 O288 2.032 . S
Mg283 O290 2.079 . S
C284 O281 1.250 . S
C284 O282 1.248 . S
C285 O286 1.264 . S
C285 O293 1.249 . S
O286 C285 1.264 . S
O287 Mg280 1.986 . S
O287 C291 1.246 . S
O288 Mg283 2.032 . S
O288 C291 1.259 . S
O289 Mg280 2.114 . S
O289 C292 1.252 . S
O290 Mg280 2.251 . S
O290 Mg283 2.079 . S
O290 C292 1.273 . S
C291 O287 1.246 . S
C291 O288 1.259 . S
C292 O289 1.252 . S
C292 O290 1.273 . S
O293 Mg280 2.010 . S
O293 C285 1.249 . S
Mg294 O295 2.028 . S
Mg294 O301 1.986 . S
Mg294 O303 2.114 . S
Mg294 O304 2.251 . S
Mg294 O307 2.010 . S
O295 Mg294 2.028 . S
O295 C298 1.250 . S
O296 Mg297 2.028 . S
O296 C298 1.248 . S
Mg297 O296 2.028 . S
Mg297 O302 2.032 . S
Mg297 O304 2.079 . S
C298 O295 1.250 . S
C298 O296 1.248 . S
C299 O300 1.264 . S
C299 O307 1.249 . S
O300 C299 1.264 . S
O301 Mg294 1.986 . S
O301 C305 1.246 . S
O302 Mg297 2.032 . S
O302 C305 1.259 . S
O303 Mg294 2.114 . S
O303 C306 1.252 . S
O304 Mg294 2.251 . S
O304 Mg297 2.079 . S
O304 C306 1.273 . S
C305 O301 1.246 . S
C305 O302 1.259 . S
C306 O303 1.252 . S
C306 O304 1.273 . S
O307 Mg294 2.010 . S
O307 C299 1.249 . S
Mg308 O309 2.028 . S
Mg308 O315 1.986 . S
Mg308 O317 2.114 . S
Mg308 O318 2.251 . S
Mg308 O321 2.010 . S
O309 Mg308 2.028 . S
O309 C312 1.250 . S
O310 Mg311 2.028 . S
O310 C312 1.248 . S
Mg311 O310 2.028 . S
Mg311 O316 2.032 . S
Mg311 O318 2.079 . S
C312 O309 1.250 . S
C312 O310 1.248 . S
C313 O314 1.264 . S
C313 O321 1.249 . S
O314 C313 1.264 . S
O315 Mg308 1.986 . S
O315 C319 1.246 . S
O316 Mg311 2.032 . S
O316 C319 1.259 . S
O317 Mg308 2.114 . S
O317 C320 1.252 . S
O318 Mg308 2.251 . S
O318 Mg311 2.079 . S
O318 C320 1.273 . S
C319 O315 1.246 . S
C319 O316 1.259 . S
C320 O317 1.252 . S
C320 O318 1.273 . S
O321 Mg308 2.010 . S
O321 C313 1.249 . S
Mg322 O323 2.028 . S
Mg322 O329 1.986 . S
Mg322 O331 2.114 . S
Mg322 O332 2.251 . S
Mg322 O335 2.010 . S
O323 Mg322 2.028 . S
O323 C326 1.250 . S
O324 Mg325 2.028 . S
O324 C326 1.248 . S
Mg325 O324 2.028 . S
Mg325 O330 2.032 . S
Mg325 O332 2.079 . S
C326 O323 1.250 . S
C326 O324 1.248 . S
C327 O328 1.264 . S
C327 O335 1.249 . S
O328 C327 1.264 . S
O329 Mg322 1.986 . S
O329 C333 1.246 . S
O330 Mg325 2.032 . S
O330 C333 1.259 . S
O331 Mg322 2.114 . S
O331 C334 1.252 . S
O332 Mg322 2.251 . S
O332 Mg325 2.079 . S
O332 C334 1.273 . S
C333 O329 1.246 . S
C333 O330 1.259 . S
C334 O331 1.252 . S
C334 O332 1.273 . S
O335 Mg322 2.010 . S
O335 C327 1.249 . S
Mg336 O337 2.028 . S
Mg336 O343 1.986 . S
Mg336 O345 2.114 . S
Mg336 O346 2.251 . S
Mg336 O349 2.010 . S
O337 Mg336 2.028 . S
O337 C340 1.250 . S
O338 Mg339 2.028 . S
O338 C340 1.248 . S
Mg339 O338 2.028 . S
Mg339 O344 2.032 . S
Mg339 O346 2.079 . S
C340 O337 1.250 . S
C340 O338 1.248 . S
C341 O342 1.264 . S
C341 O349 1.249 . S
O342 C341 1.264 . S
O343 Mg336 1.986 . S
O343 C347 1.246 . S
O344 Mg339 2.032 . S
O344 C347 1.259 . S
O345 Mg336 2.114 . S
O345 C348 1.252 . S
O346 Mg336 2.251 . S
O346 Mg339 2.079 . S
O346 C348 1.273 . S
C347 O343 1.246 . S
C347 O344 1.259 . S
C348 O345 1.252 . S
C348 O346 1.273 . S
O349 Mg336 2.010 . S
O349 C341 1.249 . S
Mg350 O351 2.028 . S
Mg350 O357 1.986 . S
Mg350 O359 2.114 . S
Mg350 O360 2.251 . S
Mg350 O363 2.010 . S
O351 Mg350 2.028 . S
O351 C354 1.250 . S
O352 Mg353 2.028 . S
O352 C354 1.248 . S
Mg353 O352 2.028 . S
Mg353 O358 2.032 . S
Mg353 O360 2.079 . S
C354 O351 1.250 . S
C354 O352 1.248 . S
C355 O356 1.264 . S
C355 O363 1.249 . S
O356 C355 1.264 . S
O357 Mg350 1.986 . S
O357 C361 1.246 . S
O358 Mg353 2.032 . S
O358 C361 1.259 . S
O359 Mg350 2.114 . S
O359 C362 1.252 . S
O360 Mg350 2.251 . S
O360 Mg353 2.079 . S
O360 C362 1.273 . S
C361 O357 1.246 . S
C361 O358 1.259 . S
C362 O359 1.252 . S
C362 O360 1.273 . S
O363 Mg350 2.010 . S
O363 C355 1.249 . S
Mg364 O365 2.028 . S
Mg364 O371 1.986 . S
Mg364 O373 2.114 . S
Mg364 O374 2.251 . S
Mg364 O377 2.010 . S
O365 Mg364 2.028 . S
O365 C368 1.250 . S
O366 Mg367 2.028 . S
O366 C368 1.248 . S
Mg367 O366 2.028 . S
Mg367 O372 2.032 . S
Mg367 O374 2.079 . S
C368 O365 1.250 . S
C368 O366 1.248 . S
C369 O370 1.264 . S
C369 O377 1.249 . S
O370 C369 1.264 . S
O371 Mg364 1.986 . S
O371 C375 1.246 . S
O372 Mg367 2.032 . S
O372 C375 1.259 . S
O373 Mg364 2.114 . S
O373 C376 1.252 . S
O374 Mg364 2.251 . S
O374 Mg367 2.079 . S
O374 C376 1.273 . S
C375 O371 1.246 . S
C375 O372 1.259 . S
C376 O373 1.252 . S
C376 O374 1.273 . S
O377 Mg364 2.010 . S
O377 C369 1.249 . S
Mg378 O379 2.028 . S
Mg378 O385 1.986 . S
Mg378 O387 2.114 . S
Mg378 O388 2.251 . S
Mg378 O391 2.010 . S
O379 Mg378 2.028 . S
O379 C382 1.250 . S
O380 Mg381 2.028 . S
O380 C382 1.248 . S
Mg381 O380 2.028 . S
Mg381 O386 2.032 . S
Mg381 O388 2.079 . S
C382 O379 1.250 . S
C382 O380 1.248 . S
C383 O384 1.264 . S
C383 O391 1.249 . S
O384 C383 1.264 . S
O385 Mg378 1.986 . S
O385 C389 1.246 . S
O386 Mg381 2.032 . S
O386 C389 1.259 . S
O387 Mg378 2.114 . S
O387 C390 1.252 . S
O388 Mg378 2.251 . S
O388 Mg381 2.079 . S
O388 C390 1.273 . S
C389 O385 1.246 . S
C389 O386 1.259 . S
C390 O387 1.252 . S
C390 O388 1.273 . S
O391 Mg378 2.010 . S
O391 C383 1.249 . S
Mg392 O393 2.028 . S
Mg392 O399 1.986 . S
Mg392 O401 2.114 . S
Mg392 O402 2.251 . S
Mg392 O405 2.010 . S
O393 Mg392 2.028 . S
O393 C396 1.250 . S
O394 Mg395 2.028 . S
O394 C396 1.248 . S
Mg395 O394 2.028 . S
Mg395 O400 2.032 . S
Mg395 O402 2.079 . S
C396 O393 1.250 . S
C396 O394 1.248 . S
C397 O398 1.264 . S
C397 O405 1.249 . S
O398 C397 1.264 . S
O399 Mg392 1.986 . S
O399 C403 1.246 . S
O400 Mg395 2.032 . S
O400 C403 1.259 . S
O401 Mg392 2.114 . S
O401 C404 1.252 . S
O402 Mg392 2.251 . S
O402 Mg395 2.079 . S
O402 C404 1.273 . S
C403 O399 1.246 . S
C403 O400 1.259 . S
C404 O401 1.252 . S
C404 O402 1.273 . S
O405 Mg392 2.010 . S
O405 C397 1.249 . S
Mg406 O407 2.028 . S
Mg406 O413 1.986 . S
Mg406 O415 2.114 . S
Mg406 O416 2.251 . S
Mg406 O419 2.010 . S
O407 Mg406 2.028 . S
O407 C410 1.250 . S
O408 Mg409 2.028 . S
O408 C410 1.248 . S
Mg409 O408 2.028 . S
Mg409 O414 2.032 . S
Mg409 O416 2.079 . S
C410 O407 1.250 . S
C410 O408 1.248 . S
C411 O412 1.264 . S
C411 O419 1.249 . S
O412 C411 1.264 . S
O413 Mg406 1.986 . S
O413 C417 1.246 . S
O414 Mg409 2.032 . S
O414 C417 1.259 . S
O415 Mg406 2.114 . S
O415 C418 1.252 . S
O416 Mg406 2.251 . S
O416 Mg409 2.079 . S
O416 C418 1.273 . S
C417 O413 1.246 . S
C417 O414 1.259 . S
C418 O415 1.252 . S
C418 O416 1.273 . S
O419 Mg406 2.010 . S
O419 C411 1.249 . S
Mg420 O421 2.028 . S
Mg420 O427 1.986 . S
Mg420 O429 2.114 . S
Mg420 O430 2.251 . S
Mg420 O433 2.010 . S
O421 Mg420 2.028 . S
O421 C424 1.250 . S
O422 Mg423 2.028 . S
O422 C424 1.248 . S
Mg423 O422 2.028 . S
Mg423 O428 2.032 . S
Mg423 O430 2.079 . S
C424 O421 1.250 . S
C424 O422 1.248 . S
C425 O426 1.264 . S
C425 O433 1.249 . S
O426 C425 1.264 . S
O427 Mg420 1.986 . S
O427 C431 1.246 . S
O428 Mg423 2.032 . S
O428 C431 1.259 . S
O429 Mg420 2.114 . S
O429 C432 1.252 . S
O430 Mg420 2.251 . S
O430 Mg423 2.079 . S
O430 C432 1.273 . S
C431 O427 1.246 . S
C431 O428 1.259 . S
C432 O429 1.252 . S
C432 O430 1.273 . S
O433 Mg420 2.010 . S
O433 C425 1.249 . S
Mg434 O435 2.028 . S
Mg434 O441 1.986 . S
Mg434 O443 2.114 . S
Mg434 O444 2.251 . S
Mg434 O447 2.010 . S
O435 Mg434 2.028 . S
O435 C438 1.250 . S
O436 Mg437 2.028 . S
O436 C438 1.248 . S
Mg437 O436 2.028 . S
Mg437 O442 2.032 . S
Mg437 O444 2.079 . S
C438 O435 1.250 . S
C438 O436 1.248 . S
C439 O440 1.264 . S
C439 O447 1.249 . S
O440 C439 1.264 . S
O441 Mg434 1.986 . S
O441 C445 1.246 . S
O442 Mg437 2.032 . S
O442 C445 1.259 . S
O443 Mg434 2.114 . S
O443 C446 1.252 . S
O444 Mg434 2.251 . S
O444 Mg437 2.079 . S
O444 C446 1.273 . S
C445 O441 1.246 . S
C445 O442 1.259 . S
C446 O443 1.252 . S
C446 O444 1.273 . S
O447 Mg434 2.010 . S
O447 C439 1.249 . S
Mg448 O449 2.028 . S
Mg448 O455 1.986 . S
Mg448 O457 2.114 . S
Mg448 O458 2.251 . S
Mg448 O461 2.010 . S
O449 Mg448 2.028 . S
O449 C452 1.250 . S
O450 Mg451 2.028 . S
O450 C452 1.248 . S
Mg451 O450 2.028 . S
Mg451 O456 2.032 . S
Mg451 O458 2.079 . S
C452 O449 1.250 . S
C452 O450 1.248 . S
C453 O454 1.264 . S
C453 O461 1.249 . S
O454 C453 1.264 . S
O455 Mg448 1.986 . S
O455 C459 1.246 . S
O456 Mg451 2.032 . S
O456 C459 1.259 . S
O457 Mg448 2.114 . S
O457 C460 1.252 . S
O458 Mg448 2.251 . S
O458 Mg451 2.079 . S
O458 C460 1.273 . S
C459 O455 1.246 . S
C459 O456 1.259 . S
C460 O457 1.252 . S
C460 O458 1.273 . S
O461 Mg448 2.010 . S
O461 C453 1.249 . S
Mg462 O463 2.028 . S
Mg462 O469 1.986 . S
Mg462 O471 2.114 . S
Mg462 O472 2.251 . S
Mg462 O475 2.010 . S
O463 Mg462 2.028 . S
O463 C466 1.250 . S
O464 Mg465 2.028 . S
O464 C466 1.248 . S
Mg465 O464 2.028 . S
Mg465 O470 2.032 . S
Mg465 O472 2.079 . S
C466 O463 1.250 . S
C466 O464 1.248 . S
C467 O468 1.264 . S
C467 O475 1.249 . S
O468 C467 1.264 . S
O469 Mg462 1.986 . S
O469 C473 1.246 . S
O470 Mg465 2.032 . S
O470 C473 1.259 . S
O471 Mg462 2.114 . S
O471 C474 1.252 . S
O472 Mg462 2.251 . S
O472 Mg465 2.079 . S
O472 C474 1.273 . S
C473 O469 1.246 . S
C473 O470 1.259 . S
C474 O471 1.252 . S
C474 O472 1.273 . S
O475 Mg462 2.010 . S
O475 C467 1.249 . S
Mg476 O477 2.028 . S
Mg476 O483 1.986 . S
Mg476 O485 2.114 . S
Mg476 O486 2.251 . S
Mg476 O489 2.010 . S
O477 Mg476 2.028 . S
O477 C480 1.250 . S
O478 Mg479 2.028 . S
O478 C480 1.248 . S
Mg479 O478 2.028 . S
Mg479 O484 2.032 . S
Mg479 O486 2.079 . S
C480 O477 1.250 . S
C480 O478 1.248 . S
C481 O482 1.264 . S
C481 O489 1.249 . S
O482 C481 1.264 . S
O483 Mg476 1.986 . S
O483 C487 1.246 . S
O484 Mg479 2.032 . S
O484 C487 1.259 . S
O485 Mg476 2.114 . S
O485 C488 1.252 . S
O486 Mg476 2.251 . S
O486 Mg479 2.079 . S
O486 C488 1.273 . S
C487 O483 1.246 . S
C487 O484 1.259 . S
C488 O485 1.252 . S
C488 O486 1.273 . S
O489 Mg476 2.010 . S
O489 C481 1.249 . S
Mg490 O491 2.028 . S
Mg490 O497 1.986 . S
Mg490 O499 2.114 . S
Mg490 O500 2.251 . S
Mg490 O503 2.010 . S
O491 Mg490 2.028 . S
O491 C494 1.250 . S
O492 Mg493 2.028 . S
O492 C494 1.248 . S
Mg493 O492 2.028 . S
Mg493 O498 2.032 . S
Mg493 O500 2.079 . S
C494 O491 1.250 . S
C494 O492 1.248 . S
C495 O496 1.264 . S
C495 O503 1.249 . S
O496 C495 1.264 . S
O497 Mg490 1.986 . S
O497 C501 1.246 . S
O498 Mg493 2.032 . S
O498 C501 1.259 . S
O499 Mg490 2.114 . S
O499 C502 1.252 . S
O500 Mg490 2.251 . S
O500 Mg493 2.079 . S
O500 C502 1.273 . S
C501 O497 1.246 . S
C501 O498 1.259 . S
C502 O499 1.252 . S
C502 O500 1.273 . S
O503 Mg490 2.010 . S
O503 C495 1.249 . S
C504 C505 1.391 . S
C504 C506 1.394 . S
C504 H520 0.931 . S
C505 C504 1.391 . S
C505 C509 1.376 . S
C506 C504 1.394 . S
C506 C507 1.369 . S
C506 C510 1.531 . S
C507 C506 1.369 . S
C507 C508 1.410 . S
C507 C515 1.503 1_455 S
C508 C507 1.410 . S
C508 C509 1.392 . S
C508 C511 1.511 . S
C509 C505 1.376 . S
C509 C508 1.392 . S
C509 H521 0.929 . S
C510 C506 1.531 . S
C510 H522 0.938 1_455 S
C510 H523 0.962 . S
C510 H524 0.960 . S
C511 C508 1.511 . S
C511 H525 0.961 . S
C511 H526 0.961 . S
C511 H527 0.961 . S
C512 C513 1.370 . S
C512 C514 1.363 . S
C512 H528 0.931 . S
C513 C512 1.370 . S
C513 C517 1.408 . S
C514 C512 1.363 . S
C514 C515 1.370 . S
C514 C518 1.524 1_655 S
C515 C507 1.503 1_655 S
C515 C514 1.370 . S
C515 C516 1.403 . S
C516 C515 1.403 . S
C516 C517 1.404 . S
C516 C519 1.539 . S
C517 C513 1.408 . S
C517 C516 1.404 . S
C517 H529 0.930 . S
C518 C514 1.524 1_455 S
C518 H530 0.956 . S
C518 H531 0.961 . S
C518 H532 0.961 1_455 S
C519 C516 1.539 . S
C519 H533 0.958 . S
C519 H534 0.961 . S
C519 H535 0.960 1_655 S
H520 C504 0.931 . S
H521 C509 0.929 . S
H522 C510 0.938 1_655 S
H523 C510 0.962 . S
H524 C510 0.960 . S
H525 C511 0.961 . S
H526 C511 0.961 . S
H527 C511 0.961 . S
H528 C512 0.931 . S
H529 C517 0.930 . S
H530 C518 0.956 . S
H531 C518 0.961 . S
H532 C518 0.961 1_655 S
H533 C519 0.958 . S
H534 C519 0.961 . S
H535 C519 0.960 1_455 S
C536 C537 1.391 . S
C536 C538 1.394 . S
C536 H552 0.931 . S
C537 C536 1.391 . S
C537 C541 1.376 . S
C538 C536 1.394 . S
C538 C539 1.369 . S
C538 C542 1.531 . S
C539 C538 1.369 . S
C539 C540 1.410 . S
C539 C547 1.503 . S
C540 C539 1.410 . S
C540 C541 1.392 . S
C540 C543 1.511 . S
C541 C537 1.376 . S
C541 C540 1.392 . S
C541 H553 0.929 . S
C542 C538 1.531 . S
C542 H554 0.960 . S
C542 H555 0.962 . S
C542 H556 0.960 . S
C543 C540 1.511 . S
C543 H557 0.961 . S
C543 H558 0.961 . S
C543 H559 0.961 . S
C544 C545 1.370 . S
C544 C546 1.363 . S
C544 H560 0.931 . S
C545 C544 1.370 . S
C545 C549 1.408 . S
C546 C544 1.363 . S
C546 C547 1.370 . S
C546 C550 1.524 . S
C547 C539 1.503 . S
C547 C546 1.370 . S
C547 C548 1.403 . S
C548 C547 1.403 . S
C548 C549 1.404 . S
C548 C551 1.539 . S
C549 C545 1.408 . S
C549 C548 1.404 . S
C549 H561 0.930 . S
C550 C546 1.524 . S
C550 H562 0.956 . S
C550 H563 0.961 . S
C550 H564 0.961 . S
C551 C548 1.539 . S
C551 H565 0.958 . S
C551 H566 0.961 . S
C551 H567 0.960 . S
H552 C536 0.931 . S
H553 C541 0.929 . S
H554 C542 0.960 . S
H555 C542 0.962 . S
H556 C542 0.960 . S
H557 C543 0.961 . S
H558 C543 0.961 . S
H559 C543 0.961 . S
H560 C544 0.931 . S
H561 C549 0.930 . S
H562 C550 0.956 . S
H563 C550 0.961 . S
H564 C550 0.961 . S
H565 C551 0.958 . S
H566 C551 0.961 . S
H567 C551 0.960 . S
C568 C569 1.391 . S
C568 C570 1.394 . S
C568 H584 0.931 . S
C569 C568 1.391 . S
C569 C573 1.376 . S
C570 C568 1.394 . S
C570 C571 1.369 . S
C570 C574 1.529 1_545 S
C571 C570 1.369 . S
C571 C572 1.410 . S
C571 C579 1.503 1_545 S
C572 C571 1.410 . S
C572 C573 1.392 . S
C572 C575 1.511 . S
C573 C569 1.376 . S
C573 C572 1.392 . S
C573 H585 0.929 . S
C574 C570 1.529 1_565 S
C574 H586 0.980 . S
C574 H587 0.966 . S
C574 H588 0.939 1_565 S
C575 C572 1.511 . S
C575 H589 0.961 . S
C575 H590 0.961 1_545 S
C575 H591 0.961 . S
C576 C577 1.370 . S
C576 C578 1.363 . S
C576 H592 0.931 . S
C577 C576 1.370 . S
C577 C581 1.408 . S
C578 C576 1.363 . S
C578 C579 1.370 . S
C578 C582 1.524 . S
C579 C571 1.503 1_565 S
C579 C578 1.370 . S
C579 C580 1.403 . S
C580 C579 1.403 . S
C580 C581 1.404 . S
C580 C583 1.539 . S
C581 C577 1.408 . S
C581 C580 1.404 . S
C581 H593 0.930 . S
C582 C578 1.524 . S
C582 H594 0.956 . S
C582 H595 0.961 . S
C582 H596 0.961 . S
C583 C580 1.539 . S
C583 H597 0.958 . S
C583 H598 0.961 . S
C583 H599 0.960 . S
H584 C568 0.931 . S
H585 C573 0.929 . S
H586 C574 0.980 . S
H587 C574 0.966 . S
H588 C574 0.939 1_545 S
H589 C575 0.961 . S
H590 C575 0.961 1_565 S
H591 C575 0.961 . S
H592 C576 0.931 . S
H593 C581 0.930 . S
H594 C582 0.956 . S
H595 C582 0.961 . S
H596 C582 0.961 . S
H597 C583 0.958 . S
H598 C583 0.961 . S
H599 C583 0.960 . S
C600 C601 1.391 . S
C600 C602 1.394 . S
C600 H616 0.931 . S
C601 C600 1.391 . S
C601 C605 1.376 . S
C602 C600 1.394 . S
C602 C603 1.369 . S
C602 C606 1.531 . S
C603 C602 1.369 . S
C603 C604 1.410 . S
C603 C611 1.503 1_545 S
C604 C603 1.410 . S
C604 C605 1.392 . S
C604 C607 1.511 . S
C605 C601 1.376 . S
C605 C604 1.392 . S
C605 H617 0.929 . S
C606 C602 1.531 . S
C606 H618 0.960 . S
C606 H619 0.962 . S
C606 H620 0.960 . S
C607 C604 1.511 . S
C607 H621 0.961 . S
C607 H622 0.961 . S
C607 H623 0.961 . S
C608 C609 1.370 . S
C608 C610 1.363 . S
C608 H624 0.931 . S
C609 C608 1.370 . S
C609 C613 1.408 . S
C610 C608 1.363 . S
C610 C611 1.370 . S
C610 C614 1.524 1_565 S
C611 C603 1.503 1_565 S
C611 C610 1.370 . S
C611 C612 1.403 . S
C612 C611 1.403 . S
C612 C613 1.404 . S
C612 C615 1.539 . S
C613 C609 1.408 . S
C613 C612 1.404 . S
C613 H625 0.930 . S
C614 C610 1.524 1_545 S
C614 H626 0.956 . S
C614 H627 0.961 . S
C614 H628 0.961 1_545 S
C615 C612 1.539 . S
C615 H629 0.958 . S
C615 H630 0.961 . S
C615 H631 0.960 1_565 S
H616 C600 0.931 . S
H617 C605 0.929 . S
H618 C606 0.960 . S
H619 C606 0.962 . S
H620 C606 0.960 . S
H621 C607 0.961 . S
H622 C607 0.961 . S
H623 C607 0.961 . S
H624 C608 0.931 . S
H625 C613 0.930 . S
H626 C614 0.956 . S
H627 C614 0.961 . S
H628 C614 0.961 1_565 S
H629 C615 0.958 . S
H630 C615 0.961 . S
H631 C615 0.960 1_545 S
C632 C633 1.391 . S
C632 C634 1.394 . S
C632 H648 0.931 . S
C633 C632 1.391 . S
C633 C637 1.376 . S
C634 C632 1.394 . S
C634 C635 1.369 . S
C634 C638 1.531 . S
C635 C634 1.369 . S
C635 C636 1.410 . S
C635 C643 1.503 1_655 S
C636 C635 1.410 . S
C636 C637 1.392 . S
C636 C639 1.511 . S
C637 C633 1.376 . S
C637 C636 1.392 . S
C637 H649 0.929 . S
C638 C634 1.531 . S
C638 H650 0.960 . S
C638 H651 0.962 . S
C638 H652 0.960 . S
C639 C636 1.511 . S
C639 H653 0.961 . S
C639 H654 0.961 . S
C639 H655 0.961 . S
C640 C641 1.370 . S
C640 C642 1.363 . S
C640 H656 0.931 . S
C641 C640 1.370 . S
C641 C645 1.408 . S
C642 C640 1.363 . S
C642 C643 1.370 . S
C642 C646 1.524 1_455 S
C643 C635 1.503 1_455 S
C643 C642 1.370 . S
C643 C644 1.403 . S
C644 C643 1.403 . S
C644 C645 1.404 . S
C644 C647 1.539 . S
C645 C641 1.408 . S
C645 C644 1.404 . S
C645 H657 0.930 . S
C646 C642 1.524 1_655 S
C646 H658 0.956 . S
C646 H659 0.961 . S
C646 H660 0.961 1_655 S
C647 C644 1.539 . S
C647 H661 0.958 . S
C647 H662 0.961 . S
C647 H663 0.960 1_455 S
H648 C632 0.931 . S
H649 C637 0.929 . S
H650 C638 0.960 . S
H651 C638 0.962 . S
H652 C638 0.960 . S
H653 C639 0.961 . S
H654 C639 0.961 . S
H655 C639 0.961 . S
H656 C640 0.931 . S
H657 C645 0.930 . S
H658 C646 0.956 . S
H659 C646 0.961 . S
H660 C646 0.961 1_455 S
H661 C647 0.958 . S
H662 C647 0.961 . S
H663 C647 0.960 1_655 S
C664 C665 1.391 . S
C664 C666 1.394 . S
C664 H680 0.931 . S
C665 C664 1.391 . S
C665 C669 1.376 . S
C666 C664 1.394 . S
C666 C667 1.369 . S
C666 C670 1.531 . S
C667 C666 1.369 . S
C667 C668 1.410 . S
C667 C675 1.503 . S
C668 C667 1.410 . S
C668 C669 1.392 . S
C668 C671 1.511 . S
C669 C665 1.376 . S
C669 C668 1.392 . S
C669 H681 0.929 . S
C670 C666 1.531 . S
C670 H682 0.960 . S
C670 H683 0.962 . S
C670 H684 0.960 . S
C671 C668 1.511 . S
C671 H685 0.961 . S
C671 H686 0.961 . S
C671 H687 0.961 . S
C672 C673 1.370 . S
C672 C674 1.363 . S
C672 H688 0.931 . S
C673 C672 1.370 . S
C673 C677 1.408 . S
C674 C672 1.363 . S
C674 C675 1.370 . S
C674 C678 1.524 . S
C675 C667 1.503 . S
C675 C674 1.370 . S
C675 C676 1.403 . S
C676 C675 1.403 . S
C676 C677 1.404 . S
C676 C679 1.539 . S
C677 C673 1.408 . S
C677 C676 1.404 . S
C677 H689 0.930 . S
C678 C674 1.524 . S
C678 H690 0.956 . S
C678 H691 0.961 . S
C678 H692 0.961 . S
C679 C676 1.539 . S
C679 H693 0.958 . S
C679 H694 0.961 . S
C679 H695 0.960 . S
H680 C664 0.931 . S
H681 C669 0.929 . S
H682 C670 0.960 . S
H683 C670 0.962 . S
H684 C670 0.960 . S
H685 C671 0.961 . S
H686 C671 0.961 . S
H687 C671 0.961 . S
H688 C672 0.931 . S
H689 C677 0.930 . S
H690 C678 0.956 . S
H691 C678 0.961 . S
H692 C678 0.961 . S
H693 C679 0.958 . S
H694 C679 0.961 . S
H695 C679 0.960 . S
C696 C697 1.391 . S
C696 C698 1.394 . S
C696 H712 0.931 . S
C697 C696 1.391 . S
C697 C701 1.376 . S
C698 C696 1.394 . S
C698 C699 1.369 . S
C698 C702 1.531 . S
C699 C698 1.369 . S
C699 C700 1.410 . S
C699 C707 1.503 1_655 S
C700 C699 1.410 . S
C700 C701 1.392 . S
C700 C703 1.511 . S
C701 C697 1.376 . S
C701 C700 1.392 . S
C701 H713 0.929 . S
C702 C698 1.531 . S
C702 H714 0.960 . S
C702 H715 0.962 . S
C702 H716 0.960 . S
C703 C700 1.511 . S
C703 H717 0.961 . S
C703 H718 0.961 . S
C703 H719 0.961 . S
C704 C705 1.370 . S
C704 C706 1.363 . S
C704 H720 0.931 . S
C705 C704 1.370 . S
C705 C709 1.408 . S
C706 C704 1.363 . S
C706 C707 1.370 . S
C706 C710 1.524 . S
C707 C699 1.503 1_455 S
C707 C706 1.370 . S
C707 C708 1.403 . S
C708 C707 1.403 . S
C708 C709 1.404 . S
C708 C711 1.543 . S
C709 C705 1.408 . S
C709 C708 1.404 . S
C709 H721 0.930 . S
C710 C706 1.524 . S
C710 H722 0.956 1_455 S
C710 H723 0.961 1_455 S
C710 H724 0.961 . S
C711 C708 1.543 . S
C711 H725 0.961 1_455 S
C711 H726 0.962 . S
C711 H727 0.952 1_455 S
H712 C696 0.931 . S
H713 C701 0.929 . S
H714 C702 0.960 . S
H715 C702 0.962 . S
H716 C702 0.960 . S
H717 C703 0.961 . S
H718 C703 0.961 . S
H719 C703 0.961 . S
H720 C704 0.931 . S
H721 C709 0.930 . S
H722 C710 0.956 1_655 S
H723 C710 0.961 1_655 S
H724 C710 0.961 . S
H725 C711 0.961 1_655 S
H726 C711 0.962 . S
H727 C711 0.952 1_655 S
C728 C729 1.391 . S
C728 C730 1.394 . S
C728 H744 0.931 . S
C729 C728 1.391 . S
C729 C733 1.376 . S
C730 C728 1.394 . S
C730 C731 1.369 . S
C730 C734 1.531 . S
C731 C730 1.369 . S
C731 C732 1.410 . S
C731 C739 1.503 . S
C732 C731 1.410 . S
C732 C733 1.392 . S
C732 C735 1.511 . S
C733 C729 1.376 . S
C733 C732 1.392 . S
C733 H745 0.929 . S
C734 C730 1.531 . S
C734 H746 0.960 . S
C734 H747 0.962 . S
C734 H748 0.960 . S
C735 C732 1.511 . S
C735 H749 0.961 . S
C735 H750 0.961 . S
C735 H751 0.961 . S
C736 C737 1.370 . S
C736 C738 1.363 . S
C736 H752 0.931 . S
C737 C736 1.370 . S
C737 C741 1.408 . S
C738 C736 1.363 . S
C738 C739 1.370 . S
C738 C742 1.524 . S
C739 C731 1.503 . S
C739 C738 1.370 . S
C739 C740 1.403 . S
C740 C739 1.403 . S
C740 C741 1.404 . S
C740 C743 1.539 . S
C741 C737 1.408 . S
C741 C740 1.404 . S
C741 H753 0.930 . S
C742 C738 1.524 . S
C742 H754 0.956 . S
C742 H755 0.961 . S
C742 H756 0.961 . S
C743 C740 1.539 . S
C743 H757 0.958 . S
C743 H758 0.961 . S
C743 H759 0.960 . S
H744 C728 0.931 . S
H745 C733 0.929 . S
H746 C734 0.960 . S
H747 C734 0.962 . S
H748 C734 0.960 . S
H749 C735 0.961 . S
H750 C735 0.961 . S
H751 C735 0.961 . S
H752 C736 0.931 . S
H753 C741 0.930 . S
H754 C742 0.956 . S
H755 C742 0.961 . S
H756 C742 0.961 . S
H757 C743 0.958 . S
H758 C743 0.961 . S
H759 C743 0.960 . S
C760 C761 1.391 . S
C760 C762 1.394 . S
C760 H776 0.931 . S
C761 C760 1.391 . S
C761 C765 1.376 . S
C762 C760 1.394 . S
C762 C763 1.369 . S
C762 C766 1.531 . S
C763 C762 1.369 . S
C763 C764 1.410 . S
C763 C771 1.503 1_565 S
C764 C763 1.410 . S
C764 C765 1.392 . S
C764 C767 1.511 1_565 S
C765 C761 1.376 . S
C765 C764 1.392 . S
C765 H777 0.929 . S
C766 C762 1.531 . S
C766 H778 0.960 1_565 S
C766 H779 0.962 . S
C766 H780 0.960 . S
C767 C764 1.511 1_545 S
C767 H781 0.961 1_545 S
C767 H782 0.961 . S
C767 H783 0.961 . S
C768 C769 1.370 . S
C768 C770 1.363 . S
C768 H784 0.931 . S
C769 C768 1.370 . S
C769 C773 1.408 . S
C770 C768 1.363 . S
C770 C771 1.370 . S
C770 C774 1.524 . S
C771 C763 1.503 1_545 S
C771 C770 1.370 . S
C771 C772 1.403 . S
C772 C771 1.403 . S
C772 C773 1.404 . S
C772 C775 1.539 . S
C773 C769 1.408 . S
C773 C772 1.404 . S
C773 H785 0.930 . S
C774 C770 1.524 . S
C774 H786 0.956 . S
C774 H787 0.961 . S
C774 H788 0.961 . S
C775 C772 1.539 . S
C775 H789 0.958 . S
C775 H790 0.961 . S
C775 H791 0.960 . S
H776 C760 0.931 . S
H777 C765 0.929 . S
H778 C766 0.960 1_545 S
H779 C766 0.962 . S
H780 C766 0.960 . S
H781 C767 0.961 1_565 S
H782 C767 0.961 . S
H783 C767 0.961 . S
H784 C768 0.931 . S
H785 C773 0.930 . S
H786 C774 0.956 . S
H787 C774 0.961 . S
H788 C774 0.961 . S
H789 C775 0.958 . S
H790 C775 0.961 . S
H791 C775 0.960 . S
C792 C793 1.391 . S
C792 C794 1.394 . S
C792 H808 0.931 . S
C793 C792 1.391 . S
C793 C797 1.376 . S
C794 C792 1.394 . S
C794 C795 1.369 . S
C794 C798 1.531 . S
C795 C794 1.369 . S
C795 C796 1.410 . S
C795 C803 1.503 1_545 S
C796 C795 1.410 . S
C796 C797 1.392 . S
C796 C799 1.511 1_545 S
C797 C793 1.376 . S
C797 C796 1.392 . S
C797 H809 0.929 . S
C798 C794 1.531 . S
C798 H810 0.960 1_545 S
C798 H811 0.962 . S
C798 H812 0.960 . S
C799 C796 1.511 1_565 S
C799 H813 0.961 1_565 S
C799 H814 0.961 . S
C799 H815 0.961 . S
C800 C801 1.370 . S
C800 C802 1.363 . S
C800 H816 0.931 . S
C801 C800 1.370 . S
C801 C805 1.408 . S
C802 C800 1.363 . S
C802 C803 1.370 . S
C802 C806 1.524 . S
C803 C795 1.503 1_565 S
C803 C802 1.370 . S
C803 C804 1.403 . S
C804 C803 1.403 . S
C804 C805 1.404 . S
C804 C807 1.539 . S
C805 C801 1.408 . S
C805 C804 1.404 . S
C805 H817 0.930 . S
C806 C802 1.524 . S
C806 H818 0.956 . S
C806 H819 0.961 . S
C806 H820 0.961 . S
C807 C804 1.539 . S
C807 H821 0.958 . S
C807 H822 0.961 . S
C807 H823 0.960 . S
H808 C792 0.931 . S
H809 C797 0.929 . S
H810 C798 0.960 1_565 S
H811 C798 0.962 . S
H812 C798 0.960 . S
H813 C799 0.961 1_545 S
H814 C799 0.961 . S
H815 C799 0.961 . S
H816 C800 0.931 . S
H817 C805 0.930 . S
H818 C806 0.956 . S
H819 C806 0.961 . S
H820 C806 0.961 . S
H821 C807 0.958 . S
H822 C807 0.961 . S
H823 C807 0.960 . S
C824 C825 1.391 . S
C824 C826 1.394 . S
C824 H840 0.931 . S
C825 C824 1.391 . S
C825 C829 1.376 . S
C826 C824 1.394 . S
C826 C827 1.369 . S
C826 C830 1.531 . S
C827 C826 1.369 . S
C827 C828 1.410 . S
C827 C835 1.503 1_455 S
C828 C827 1.410 . S
C828 C829 1.392 . S
C828 C831 1.511 . S
C829 C825 1.376 . S
C829 C828 1.392 . S
C829 H841 0.929 . S
C830 C826 1.531 . S
C830 H842 0.960 . S
C830 H843 0.962 . S
C830 H844 0.960 . S
C831 C828 1.511 . S
C831 H845 0.961 . S
C831 H846 0.961 . S
C831 H847 0.961 . S
C832 C833 1.370 . S
C832 C834 1.363 . S
C832 H848 0.931 . S
C833 C832 1.370 . S
C833 C837 1.408 . S
C834 C832 1.363 . S
C834 C835 1.370 . S
C834 C838 1.524 1_655 S
C835 C827 1.503 1_655 S
C835 C834 1.370 . S
C835 C836 1.403 . S
C836 C835 1.403 . S
C836 C837 1.404 . S
C836 C839 1.539 . S
C837 C833 1.408 . S
C837 C836 1.404 . S
C837 H849 0.930 . S
C838 C834 1.524 1_455 S
C838 H850 0.956 . S
C838 H851 0.961 . S
C838 H852 0.961 1_455 S
C839 C836 1.539 . S
C839 H853 0.958 . S
C839 H854 0.961 . S
C839 H855 0.960 1_655 S
H840 C824 0.931 . S
H841 C829 0.929 . S
H842 C830 0.960 . S
H843 C830 0.962 . S
H844 C830 0.960 . S
H845 C831 0.961 . S
H846 C831 0.961 . S
H847 C831 0.961 . S
H848 C832 0.931 . S
H849 C837 0.930 . S
H850 C838 0.956 . S
H851 C838 0.961 . S
H852 C838 0.961 1_655 S
H853 C839 0.958 . S
H854 C839 0.961 . S
H855 C839 0.960 1_455 S
C856 C857 1.391 . S
C856 C858 1.394 . S
C856 H872 0.931 . S
C857 C856 1.391 . S
C857 C861 1.376 . S
C858 C856 1.394 . S
C858 C859 1.369 . S
C858 C862 1.531 . S
C859 C858 1.369 . S
C859 C860 1.410 . S
C859 C867 1.503 . S
C860 C859 1.410 . S
C860 C861 1.392 . S
C860 C863 1.511 . S
C861 C857 1.376 . S
C861 C860 1.392 . S
C861 H873 0.929 . S
C862 C858 1.531 . S
C862 H874 0.960 . S
C862 H875 0.962 . S
C862 H876 0.960 . S
C863 C860 1.511 . S
C863 H877 0.961 . S
C863 H878 0.961 . S
C863 H879 0.961 . S
C864 C865 1.370 . S
C864 C866 1.363 . S
C864 H880 0.931 . S
C865 C864 1.370 . S
C865 C869 1.408 . S
C866 C864 1.363 . S
C866 C867 1.370 . S
C866 C870 1.524 . S
C867 C859 1.503 . S
C867 C866 1.370 . S
C867 C868 1.403 . S
C868 C867 1.403 . S
C868 C869 1.404 . S
C868 C871 1.539 . S
C869 C865 1.408 . S
C869 C868 1.404 . S
C869 H881 0.930 . S
C870 C866 1.524 . S
C870 H882 0.956 . S
C870 H883 0.961 . S
C870 H884 0.961 . S
C871 C868 1.539 . S
C871 H885 0.958 . S
C871 H886 0.961 . S
C871 H887 0.960 . S
H872 C856 0.931 . S
H873 C861 0.929 . S
H874 C862 0.960 . S
H875 C862 0.962 . S
H876 C862 0.960 . S
H877 C863 0.961 . S
H878 C863 0.961 . S
H879 C863 0.961 . S
H880 C864 0.931 . S
H881 C869 0.930 . S
H882 C870 0.956 . S
H883 C870 0.961 . S
H884 C870 0.961 . S
H885 C871 0.958 . S
H886 C871 0.961 . S
H887 C871 0.960 . S
C888 C889 1.391 . S
C888 C890 1.394 . S
C888 H904 0.931 . S
C889 C888 1.391 . S
C889 C893 1.376 . S
C890 C888 1.394 . S
C890 C891 1.369 . S
C890 C894 1.531 . S
C891 C890 1.369 . S
C891 C892 1.410 . S
C891 C899 1.503 . S
C892 C891 1.410 . S
C892 C893 1.392 . S
C892 C895 1.511 . S
C893 C889 1.376 . S
C893 C892 1.392 . S
C893 H905 0.929 . S
C894 C890 1.531 . S
C894 H906 0.960 . S
C894 H907 0.962 . S
C894 H908 0.960 . S
C895 C892 1.511 . S
C895 H909 0.961 . S
C895 H910 0.961 . S
C895 H911 0.961 . S
C896 C897 1.370 . S
C896 C898 1.363 . S
C896 H912 0.931 . S
C897 C896 1.370 . S
C897 C901 1.408 . S
C898 C896 1.363 . S
C898 C899 1.370 . S
C898 C902 1.524 . S
C899 C891 1.503 . S
C899 C898 1.370 . S
C899 C900 1.403 . S
C900 C899 1.403 . S
C900 C901 1.404 . S
C900 C903 1.539 . S
C901 C897 1.408 . S
C901 C900 1.404 . S
C901 H913 0.930 . S
C902 C898 1.524 . S
C902 H914 0.956 . S
C902 H915 0.961 . S
C902 H916 0.961 . S
C903 C900 1.539 . S
C903 H917 0.958 . S
C903 H918 0.961 . S
C903 H919 0.960 . S
H904 C888 0.931 . S
H905 C893 0.929 . S
H906 C894 0.960 . S
H907 C894 0.962 . S
H908 C894 0.960 . S
H909 C895 0.961 . S
H910 C895 0.961 . S
H911 C895 0.961 . S
H912 C896 0.931 . S
H913 C901 0.930 . S
H914 C902 0.956 . S
H915 C902 0.961 . S
H916 C902 0.961 . S
H917 C903 0.958 . S
H918 C903 0.961 . S
H919 C903 0.960 . S
C920 C921 1.391 . S
C920 C922 1.394 . S
C920 H936 0.931 . S
C921 C920 1.391 . S
C921 C925 1.376 . S
C922 C920 1.394 . S
C922 C923 1.369 . S
C922 C926 1.531 . S
C923 C922 1.369 . S
C923 C924 1.410 . S
C923 C931 1.503 . S
C924 C923 1.410 . S
C924 C925 1.392 . S
C924 C927 1.511 . S
C925 C921 1.376 . S
C925 C924 1.392 . S
C925 H937 0.929 . S
C926 C922 1.531 . S
C926 H938 0.960 . S
C926 H939 0.962 . S
C926 H940 0.960 . S
C927 C924 1.511 . S
C927 H941 0.961 . S
C927 H942 0.961 . S
C927 H943 0.961 . S
C928 C929 1.370 . S
C928 C930 1.363 . S
C928 H944 0.931 . S
C929 C928 1.370 . S
C929 C933 1.408 . S
C930 C928 1.363 . S
C930 C931 1.370 . S
C930 C934 1.524 . S
C931 C923 1.503 . S
C931 C930 1.370 . S
C931 C932 1.403 . S
C932 C931 1.403 . S
C932 C933 1.404 . S
C932 C935 1.539 . S
C933 C929 1.408 . S
C933 C932 1.404 . S
C933 H945 0.930 . S
C934 C930 1.524 . S
C934 H946 0.956 . S
C934 H947 0.961 . S
C934 H948 0.961 . S
C935 C932 1.539 . S
C935 H949 0.958 . S
C935 H950 0.961 . S
C935 H951 0.960 . S
H936 C920 0.931 . S
H937 C925 0.929 . S
H938 C926 0.960 . S
H939 C926 0.962 . S
H940 C926 0.960 . S
H941 C927 0.961 . S
H942 C927 0.961 . S
H943 C927 0.961 . S
H944 C928 0.931 . S
H945 C933 0.930 . S
H946 C934 0.956 . S
H947 C934 0.961 . S
H948 C934 0.961 . S
H949 C935 0.958 . S
H950 C935 0.961 . S
H951 C935 0.960 . S
C952 C953 1.391 . S
C952 C954 1.394 . S
C952 H968 0.931 . S
C953 C952 1.391 . S
C953 C957 1.376 . S
C954 C952 1.394 . S
C954 C955 1.369 . S
C954 C958 1.531 . S
C955 C954 1.369 . S
C955 C956 1.410 . S
C955 C963 1.503 . S
C956 C955 1.410 . S
C956 C957 1.392 . S
C956 C959 1.511 . S
C957 C953 1.376 . S
C957 C956 1.392 . S
C957 H969 0.929 . S
C958 C954 1.531 . S
C958 H970 0.960 . S
C958 H971 0.962 . S
C958 H972 0.960 . S
C959 C956 1.511 . S
C959 H973 0.961 . S
C959 H974 0.961 . S
C959 H975 0.961 . S
C960 C961 1.370 . S
C960 C962 1.363 . S
C960 H976 0.931 . S
C961 C960 1.370 . S
C961 C965 1.408 . S
C962 C960 1.363 . S
C962 C963 1.370 . S
C962 C966 1.524 . S
C963 C955 1.503 . S
C963 C962 1.370 . S
C963 C964 1.403 . S
C964 C963 1.403 . S
C964 C965 1.404 . S
C964 C967 1.539 . S
C965 C961 1.408 . S
C965 C964 1.404 . S
C965 H977 0.930 . S
C966 C962 1.524 . S
C966 H978 0.956 . S
C966 H979 0.961 . S
C966 H980 0.961 . S
C967 C964 1.539 . S
C967 H981 0.958 . S
C967 H982 0.961 . S
C967 H983 0.960 . S
H968 C952 0.931 . S
H969 C957 0.929 . S
H970 C958 0.960 . S
H971 C958 0.962 . S
H972 C958 0.960 . S
H973 C959 0.961 . S
H974 C959 0.961 . S
H975 C959 0.961 . S
H976 C960 0.931 . S
H977 C965 0.930 . S
H978 C966 0.956 . S
H979 C966 0.961 . S
H980 C966 0.961 . S
H981 C967 0.958 . S
H982 C967 0.961 . S
H983 C967 0.960 . S
C984 C985 1.391 . S
C984 C986 1.394 . S
C984 H1000 0.931 . S
C985 C984 1.391 . S
C985 C989 1.376 . S
C986 C984 1.394 . S
C986 C987 1.369 . S
C986 C990 1.531 . S
C987 C986 1.369 . S
C987 C988 1.410 . S
C987 C995 1.503 . S
C988 C987 1.410 . S
C988 C989 1.392 . S
C988 C991 1.511 . S
C989 C985 1.376 . S
C989 C988 1.392 . S
C989 H1001 0.929 . S
C990 C986 1.531 . S
C990 H1002 0.960 . S
C990 H1003 0.962 . S
C990 H1004 0.960 . S
C991 C988 1.511 . S
C991 H1005 0.961 . S
C991 H1006 0.961 . S
C991 H1007 0.961 . S
C992 C993 1.370 . S
C992 C994 1.363 . S
C992 H1008 0.931 . S
C993 C992 1.370 . S
C993 C997 1.408 . S
C994 C992 1.363 . S
C994 C995 1.370 . S
C994 C998 1.524 . S
C995 C987 1.503 . S
C995 C994 1.370 . S
C995 C996 1.403 . S
C996 C995 1.403 . S
C996 C997 1.404 . S
C996 C999 1.539 . S
C997 C993 1.408 . S
C997 C996 1.404 . S
C997 H1009 0.930 . S
C998 C994 1.524 . S
C998 H1010 0.956 . S
C998 H1011 0.961 . S
C998 H1012 0.961 . S
C999 C996 1.539 . S
C999 H1013 0.958 . S
C999 H1014 0.961 . S
C999 H1015 0.960 . S
H1000 C984 0.931 . S
H1001 C989 0.929 . S
H1002 C990 0.960 . S
H1003 C990 0.962 . S
H1004 C990 0.960 . S
H1005 C991 0.961 . S
H1006 C991 0.961 . S
H1007 C991 0.961 . S
H1008 C992 0.931 . S
H1009 C997 0.930 . S
H1010 C998 0.956 . S
H1011 C998 0.961 . S
H1012 C998 0.961 . S
H1013 C999 0.958 . S
H1014 C999 0.961 . S
H1015 C999 0.960 . S
C1016 C1017 1.391 . S
C1016 C1018 1.394 . S
C1016 H1032 0.931 . S
C1017 C1016 1.391 . S
C1017 C1021 1.376 . S
C1018 C1016 1.394 . S
C1018 C1019 1.369 . S
C1018 C1022 1.531 . S
C1019 C1018 1.369 . S
C1019 C1020 1.410 . S
C1019 C1027 1.503 . S
C1020 C1019 1.410 . S
C1020 C1021 1.392 . S
C1020 C1023 1.511 . S
C1021 C1017 1.376 . S
C1021 C1020 1.392 . S
C1021 H1033 0.929 . S
C1022 C1018 1.531 . S
C1022 H1034 0.960 . S
C1022 H1035 0.962 . S
C1022 H1036 0.960 . S
C1023 C1020 1.511 . S
C1023 H1037 0.961 . S
C1023 H1038 0.961 . S
C1023 H1039 0.961 . S
C1024 C1025 1.370 . S
C1024 C1026 1.363 . S
C1024 H1040 0.931 . S
C1025 C1024 1.370 . S
C1025 C1029 1.408 . S
C1026 C1024 1.363 . S
C1026 C1027 1.370 . S
C1026 C1030 1.524 . S
C1027 C1019 1.503 . S
C1027 C1026 1.370 . S
C1027 C1028 1.403 . S
C1028 C1027 1.403 . S
C1028 C1029 1.404 . S
C1028 C1031 1.539 . S
C1029 C1025 1.408 . S
C1029 C1028 1.404 . S
C1029 H1041 0.930 . S
C1030 C1026 1.524 . S
C1030 H1042 0.956 . S
C1030 H1043 0.961 . S
C1030 H1044 0.961 . S
C1031 C1028 1.539 . S
C1031 H1045 0.958 . S
C1031 H1046 0.961 . S
C1031 H1047 0.960 . S
H1032 C1016 0.931 . S
H1033 C1021 0.929 . S
H1034 C1022 0.960 . S
H1035 C1022 0.962 . S
H1036 C1022 0.960 . S
H1037 C1023 0.961 . S
H1038 C1023 0.961 . S
H1039 C1023 0.961 . S
H1040 C1024 0.931 . S
H1041 C1029 0.930 . S
H1042 C1030 0.956 . S
H1043 C1030 0.961 . S
H1044 C1030 0.961 . S
H1045 C1031 0.958 . S
H1046 C1031 0.961 . S
H1047 C1031 0.960 . S
C1048 C1049 1.391 . S
C1048 C1050 1.394 . S
C1048 H1064 0.931 . S
C1049 C1048 1.391 . S
C1049 C1053 1.376 . S
C1050 C1048 1.394 . S
C1050 C1051 1.369 . S
C1050 C1054 1.531 . S
C1051 C1050 1.369 . S
C1051 C1052 1.410 . S
C1051 C1059 1.503 . S
C1052 C1051 1.410 . S
C1052 C1053 1.392 . S
C1052 C1055 1.511 . S
C1053 C1049 1.376 . S
C1053 C1052 1.392 . S
C1053 H1065 0.929 . S
C1054 C1050 1.531 . S
C1054 H1066 0.960 . S
C1054 H1067 0.962 . S
C1054 H1068 0.960 . S
C1055 C1052 1.511 . S
C1055 H1069 0.961 . S
C1055 H1070 0.961 . S
C1055 H1071 0.961 . S
C1056 C1057 1.370 . S
C1056 C1058 1.363 . S
C1056 H1072 0.931 . S
C1057 C1056 1.370 . S
C1057 C1061 1.408 . S
C1058 C1056 1.363 . S
C1058 C1059 1.370 . S
C1058 C1062 1.524 . S
C1059 C1051 1.503 . S
C1059 C1058 1.370 . S
C1059 C1060 1.403 . S
C1060 C1059 1.403 . S
C1060 C1061 1.404 . S
C1060 C1063 1.539 . S
C1061 C1057 1.408 . S
C1061 C1060 1.404 . S
C1061 H1073 0.930 . S
C1062 C1058 1.524 . S
C1062 H1074 0.956 . S
C1062 H1075 0.961 . S
C1062 H1076 0.961 . S
C1063 C1060 1.539 . S
C1063 H1077 0.958 . S
C1063 H1078 0.961 . S
C1063 H1079 0.960 . S
H1064 C1048 0.931 . S
H1065 C1053 0.929 . S
H1066 C1054 0.960 . S
H1067 C1054 0.962 . S
H1068 C1054 0.960 . S
H1069 C1055 0.961 . S
H1070 C1055 0.961 . S
H1071 C1055 0.961 . S
H1072 C1056 0.931 . S
H1073 C1061 0.930 . S
H1074 C1062 0.956 . S
H1075 C1062 0.961 . S
H1076 C1062 0.961 . S
H1077 C1063 0.958 . S
H1078 C1063 0.961 . S
H1079 C1063 0.960 . S
C1080 C1081 1.391 . S
C1080 C1082 1.394 . S
C1080 H1096 0.931 . S
C1081 C1080 1.391 . S
C1081 C1085 1.376 . S
C1082 C1080 1.394 . S
C1082 C1083 1.369 . S
C1082 C1086 1.531 . S
C1083 C1082 1.369 . S
C1083 C1084 1.410 . S
C1083 C1091 1.503 . S
C1084 C1083 1.410 . S
C1084 C1085 1.392 . S
C1084 C1087 1.511 . S
C1085 C1081 1.376 . S
C1085 C1084 1.392 . S
C1085 H1097 0.929 . S
C1086 C1082 1.531 . S
C1086 H1098 0.960 . S
C1086 H1099 0.962 . S
C1086 H1100 0.960 . S
C1087 C1084 1.511 . S
C1087 H1101 0.961 . S
C1087 H1102 0.961 . S
C1087 H1103 0.961 . S
C1088 C1089 1.370 . S
C1088 C1090 1.363 . S
C1088 H1104 0.931 . S
C1089 C1088 1.370 . S
C1089 C1093 1.408 . S
C1090 C1088 1.363 . S
C1090 C1091 1.370 . S
C1090 C1094 1.524 . S
C1091 C1083 1.503 . S
C1091 C1090 1.370 . S
C1091 C1092 1.403 . S
C1092 C1091 1.403 . S
C1092 C1093 1.404 . S
C1092 C1095 1.539 . S
C1093 C1089 1.408 . S
C1093 C1092 1.404 . S
C1093 H1105 0.930 . S
C1094 C1090 1.524 . S
C1094 H1106 0.956 . S
C1094 H1107 0.961 . S
C1094 H1108 0.961 . S
C1095 C1092 1.539 . S
C1095 H1109 0.958 . S
C1095 H1110 0.961 . S
C1095 H1111 0.960 . S
H1096 C1080 0.931 . S
H1097 C1085 0.929 . S
H1098 C1086 0.960 . S
H1099 C1086 0.962 . S
H1100 C1086 0.960 . S
H1101 C1087 0.961 . S
H1102 C1087 0.961 . S
H1103 C1087 0.961 . S
H1104 C1088 0.931 . S
H1105 C1093 0.930 . S
H1106 C1094 0.956 . S
H1107 C1094 0.961 . S
H1108 C1094 0.961 . S
H1109 C1095 0.958 . S
H1110 C1095 0.961 . S
H1111 C1095 0.960 . S
C1112 C1113 1.391 . S
C1112 C1114 1.394 . S
C1112 H1128 0.931 . S
C1113 C1112 1.391 . S
C1113 C1117 1.376 . S
C1114 C1112 1.394 . S
C1114 C1115 1.369 . S
C1114 C1118 1.531 . S
C1115 C1114 1.369 . S
C1115 C1116 1.410 . S
C1115 C1123 1.503 . S
C1116 C1115 1.410 . S
C1116 C1117 1.392 . S
C1116 C1119 1.511 . S
C1117 C1113 1.376 . S
C1117 C1116 1.392 . S
C1117 H1129 0.929 . S
C1118 C1114 1.531 . S
C1118 H1130 0.960 . S
C1118 H1131 0.962 . S
C1118 H1132 0.960 . S
C1119 C1116 1.511 . S
C1119 H1133 0.961 . S
C1119 H1134 0.961 . S
C1119 H1135 0.961 . S
C1120 C1121 1.370 . S
C1120 C1122 1.363 . S
C1120 H1136 0.931 . S
C1121 C1120 1.370 . S
C1121 C1125 1.408 . S
C1122 C1120 1.363 . S
C1122 C1123 1.370 . S
C1122 C1126 1.524 . S
C1123 C1115 1.503 . S
C1123 C1122 1.370 . S
C1123 C1124 1.403 . S
C1124 C1123 1.403 . S
C1124 C1125 1.404 . S
C1124 C1127 1.539 . S
C1125 C1121 1.408 . S
C1125 C1124 1.404 . S
C1125 H1137 0.930 . S
C1126 C1122 1.524 . S
C1126 H1138 0.956 . S
C1126 H1139 0.961 . S
C1126 H1140 0.961 . S
C1127 C1124 1.539 . S
C1127 H1141 0.958 . S
C1127 H1142 0.961 . S
C1127 H1143 0.960 . S
H1128 C1112 0.931 . S
H1129 C1117 0.929 . S
H1130 C1118 0.960 . S
H1131 C1118 0.962 . S
H1132 C1118 0.960 . S
H1133 C1119 0.961 . S
H1134 C1119 0.961 . S
H1135 C1119 0.961 . S
H1136 C1120 0.931 . S
H1137 C1125 0.930 . S
H1138 C1126 0.956 . S
H1139 C1126 0.961 . S
H1140 C1126 0.961 . S
H1141 C1127 0.958 . S
H1142 C1127 0.961 . S
H1143 C1127 0.960 . S
C1144 C1145 1.391 . S
C1144 C1146 1.394 . S
C1144 H1160 0.931 . S
C1145 C1144 1.391 . S
C1145 C1149 1.376 . S
C1146 C1144 1.394 . S
C1146 C1147 1.369 . S
C1146 C1150 1.531 . S
C1147 C1146 1.369 . S
C1147 C1148 1.410 . S
C1147 C1155 1.503 . S
C1148 C1147 1.410 . S
C1148 C1149 1.392 . S
C1148 C1151 1.511 . S
C1149 C1145 1.376 . S
C1149 C1148 1.392 . S
C1149 H1161 0.929 . S
C1150 C1146 1.531 . S
C1150 H1162 0.960 . S
C1150 H1163 0.962 . S
C1150 H1164 0.960 . S
C1151 C1148 1.511 . S
C1151 H1165 0.961 . S
C1151 H1166 0.961 . S
C1151 H1167 0.961 . S
C1152 C1153 1.370 . S
C1152 C1154 1.363 . S
C1152 H1168 0.931 . S
C1153 C1152 1.370 . S
C1153 C1157 1.408 . S
C1154 C1152 1.363 . S
C1154 C1155 1.370 . S
C1154 C1158 1.524 . S
C1155 C1147 1.503 . S
C1155 C1154 1.370 . S
C1155 C1156 1.403 . S
C1156 C1155 1.403 . S
C1156 C1157 1.404 . S
C1156 C1159 1.539 . S
C1157 C1153 1.408 . S
C1157 C1156 1.404 . S
C1157 H1169 0.930 . S
C1158 C1154 1.524 . S
C1158 H1170 0.956 . S
C1158 H1171 0.961 . S
C1158 H1172 0.961 . S
C1159 C1156 1.539 . S
C1159 H1173 0.958 . S
C1159 H1174 0.961 . S
C1159 H1175 0.960 . S
H1160 C1144 0.931 . S
H1161 C1149 0.929 . S
H1162 C1150 0.960 . S
H1163 C1150 0.962 . S
H1164 C1150 0.960 . S
H1165 C1151 0.961 . S
H1166 C1151 0.961 . S
H1167 C1151 0.961 . S
H1168 C1152 0.931 . S
H1169 C1157 0.930 . S
H1170 C1158 0.956 . S
H1171 C1158 0.961 . S
H1172 C1158 0.961 . S
H1173 C1159 0.958 . S
H1174 C1159 0.961 . S
H1175 C1159 0.960 . S
C1176 C1177 1.391 . S
C1176 C1178 1.394 . S
C1176 H1192 0.931 . S
C1177 C1176 1.391 . S
C1177 C1181 1.376 . S
C1178 C1176 1.394 . S
C1178 C1179 1.369 . S
C1178 C1182 1.531 . S
C1179 C1178 1.369 . S
C1179 C1180 1.410 . S
C1179 C1187 1.503 . S
C1180 C1179 1.410 . S
C1180 C1181 1.392 . S
C1180 C1183 1.511 . S
C1181 C1177 1.376 . S
C1181 C1180 1.392 . S
C1181 H1193 0.929 . S
C1182 C1178 1.531 . S
C1182 H1194 0.960 . S
C1182 H1195 0.962 . S
C1182 H1196 0.960 . S
C1183 C1180 1.511 . S
C1183 H1197 0.961 . S
C1183 H1198 0.961 . S
C1183 H1199 0.961 . S
C1184 C1185 1.370 . S
C1184 C1186 1.363 . S
C1184 H1200 0.931 . S
C1185 C1184 1.370 . S
C1185 C1189 1.408 . S
C1186 C1184 1.363 . S
C1186 C1187 1.370 . S
C1186 C1190 1.524 . S
C1187 C1179 1.503 . S
C1187 C1186 1.370 . S
C1187 C1188 1.403 . S
C1188 C1187 1.403 . S
C1188 C1189 1.404 . S
C1188 C1191 1.539 . S
C1189 C1185 1.408 . S
C1189 C1188 1.404 . S
C1189 H1201 0.930 . S
C1190 C1186 1.524 . S
C1190 H1202 0.956 . S
C1190 H1203 0.961 . S
C1190 H1204 0.978 . S
C1191 C1188 1.539 . S
C1191 H1205 0.958 . S
C1191 H1206 0.961 . S
C1191 H1207 0.960 . S
H1192 C1176 0.931 . S
H1193 C1181 0.929 . S
H1194 C1182 0.960 . S
H1195 C1182 0.962 . S
H1196 C1182 0.960 . S
H1197 C1183 0.961 . S
H1198 C1183 0.961 . S
H1199 C1183 0.961 . S
H1200 C1184 0.931 . S
H1201 C1189 0.930 . S
H1202 C1190 0.956 . S
H1203 C1190 0.961 . S
H1204 C1190 0.978 . S
H1205 C1191 0.958 . S
H1206 C1191 0.961 . S
H1207 C1191 0.960 . S
C1208 C1209 1.391 . S
C1208 C1210 1.394 . S
C1208 H1224 0.931 . S
C1209 C1208 1.391 . S
C1209 C1213 1.376 . S
C1210 C1208 1.394 . S
C1210 C1211 1.369 . S
C1210 C1214 1.531 . S
C1211 C1210 1.369 . S
C1211 C1212 1.410 . S
C1211 C1219 1.503 . S
C1212 C1211 1.410 . S
C1212 C1213 1.392 . S
C1212 C1215 1.511 . S
C1213 C1209 1.376 . S
C1213 C1212 1.392 . S
C1213 H1225 0.929 . S
C1214 C1210 1.531 . S
C1214 H1226 0.960 . S
C1214 H1227 0.962 . S
C1214 H1228 0.960 . S
C1215 C1212 1.511 . S
C1215 H1229 0.961 . S
C1215 H1230 0.961 . S
C1215 H1231 0.961 . S
C1216 C1217 1.370 . S
C1216 C1218 1.363 . S
C1216 H1232 0.931 . S
C1217 C1216 1.370 . S
C1217 C1221 1.408 . S
C1218 C1216 1.363 . S
C1218 C1219 1.370 . S
C1218 C1222 1.524 . S
C1219 C1211 1.503 . S
C1219 C1218 1.370 . S
C1219 C1220 1.403 . S
C1220 C1219 1.403 . S
C1220 C1221 1.404 . S
C1220 C1223 1.539 . S
C1221 C1217 1.408 . S
C1221 C1220 1.404 . S
C1221 H1233 0.930 . S
C1222 C1218 1.524 . S
C1222 H1234 0.956 . S
C1222 H1235 0.961 . S
C1222 H1236 0.961 . S
C1223 C1220 1.539 . S
C1223 H1237 0.958 . S
C1223 H1238 0.961 1_554 S
C1223 H1239 0.960 . S
H1224 C1208 0.931 . S
H1225 C1213 0.929 . S
H1226 C1214 0.960 . S
H1227 C1214 0.962 . S
H1228 C1214 0.960 . S
H1229 C1215 0.961 . S
H1230 C1215 0.961 . S
H1231 C1215 0.961 . S
H1232 C1216 0.931 . S
H1233 C1221 0.930 . S
H1234 C1222 0.956 . S
H1235 C1222 0.961 . S
H1236 C1222 0.961 . S
H1237 C1223 0.958 . S
H1238 C1223 0.961 1_556 S
H1239 C1223 0.960 . S
C1240 C1241 1.391 . S
C1240 C1242 1.394 . S
C1240 H1256 0.931 . S
C1241 C1240 1.391 . S
C1241 C1245 1.376 . S
C1242 C1240 1.394 . S
C1242 C1243 1.369 . S
C1242 C1246 1.531 . S
C1243 C1242 1.369 . S
C1243 C1244 1.410 . S
C1243 C1251 1.503 . S
C1244 C1243 1.410 . S
C1244 C1245 1.392 . S
C1244 C1247 1.511 . S
C1245 C1241 1.376 . S
C1245 C1244 1.392 . S
C1245 H1257 0.929 . S
C1246 C1242 1.531 . S
C1246 H1258 0.960 . S
C1246 H1259 0.962 . S
C1246 H1260 0.960 . S
C1247 C1244 1.511 . S
C1247 H1261 0.961 . S
C1247 H1262 0.961 . S
C1247 H1263 0.987 . S
C1248 C1249 1.370 . S
C1248 C1250 1.363 . S
C1248 H1264 0.931 . S
C1249 C1248 1.370 . S
C1249 C1253 1.408 . S
C1250 C1248 1.363 . S
C1250 C1251 1.370 . S
C1250 C1254 1.524 . S
C1251 C1243 1.503 . S
C1251 C1250 1.370 . S
C1251 C1252 1.403 . S
C1252 C1251 1.403 . S
C1252 C1253 1.404 . S
C1252 C1255 1.539 . S
C1253 C1249 1.408 . S
C1253 C1252 1.404 . S
C1253 H1265 0.930 . S
C1254 C1250 1.524 . S
C1254 H1266 0.956 . S
C1254 H1267 0.961 . S
C1254 H1268 0.961 . S
C1255 C1252 1.539 . S
C1255 H1269 0.958 . S
C1255 H1270 0.961 . S
C1255 H1271 0.960 . S
H1256 C1240 0.931 . S
H1257 C1245 0.929 . S
H1258 C1246 0.960 . S
H1259 C1246 0.962 . S
H1260 C1246 0.960 . S
H1261 C1247 0.961 . S
H1262 C1247 0.961 . S
H1263 C1247 0.987 . S
H1264 C1248 0.931 . S
H1265 C1253 0.930 . S
H1266 C1254 0.956 . S
H1267 C1254 0.961 . S
H1268 C1254 0.961 . S
H1269 C1255 0.958 . S
H1270 C1255 0.961 . S
H1271 C1255 0.960 . S
C1272 C1273 1.391 . S
C1272 C1274 1.394 . S
C1272 H1288 0.931 . S
C1273 C1272 1.391 . S
C1273 C1277 1.376 . S
C1274 C1272 1.394 . S
C1274 C1275 1.369 . S
C1274 C1278 1.531 . S
C1275 C1274 1.369 . S
C1275 C1276 1.410 . S
C1275 C1283 1.503 . S
C1276 C1275 1.410 . S
C1276 C1277 1.392 . S
C1276 C1279 1.511 . S
C1277 C1273 1.376 . S
C1277 C1276 1.392 . S
C1277 H1289 0.929 . S
C1278 C1274 1.531 . S
C1278 H1290 0.960 . S
C1278 H1291 0.962 . S
C1278 H1292 0.960 . S
C1279 C1276 1.511 . S
C1279 H1293 0.961 . S
C1279 H1294 0.961 . S
C1279 H1295 0.961 . S
C1280 C1281 1.370 . S
C1280 C1282 1.363 . S
C1280 H1296 0.931 . S
C1281 C1280 1.370 . S
C1281 C1285 1.408 . S
C1282 C1280 1.363 . S
C1282 C1283 1.370 . S
C1282 C1286 1.524 . S
C1283 C1275 1.503 . S
C1283 C1282 1.370 . S
C1283 C1284 1.403 . S
C1284 C1283 1.403 . S
C1284 C1285 1.404 . S
C1284 C1287 1.539 . S
C1285 C1281 1.408 . S
C1285 C1284 1.404 . S
C1285 H1297 0.930 . S
C1286 C1282 1.524 . S
C1286 H1298 0.956 . S
C1286 H1299 0.961 . S
C1286 H1300 0.961 . S
C1287 C1284 1.539 . S
C1287 H1301 0.958 . S
C1287 H1302 0.961 . S
C1287 H1303 0.960 . S
H1288 C1272 0.931 . S
H1289 C1277 0.929 . S
H1290 C1278 0.960 . S
H1291 C1278 0.962 . S
H1292 C1278 0.960 . S
H1293 C1279 0.961 . S
H1294 C1279 0.961 . S
H1295 C1279 0.961 . S
H1296 C1280 0.931 . S
H1297 C1285 0.930 . S
H1298 C1286 0.956 . S
H1299 C1286 0.961 . S
H1300 C1286 0.961 . S
H1301 C1287 0.958 . S
H1302 C1287 0.961 . S
H1303 C1287 0.960 . S
C1304 C1305 1.391 . S
C1304 C1306 1.394 . S
C1304 H1320 0.931 . S
C1305 C1304 1.391 . S
C1305 C1309 1.376 . S
C1306 C1304 1.394 . S
C1306 C1307 1.369 . S
C1306 C1310 1.531 . S
C1307 C1306 1.369 . S
C1307 C1308 1.410 . S
C1307 C1315 1.503 . S
C1308 C1307 1.410 . S
C1308 C1309 1.392 . S
C1308 C1311 1.511 . S
C1309 C1305 1.376 . S
C1309 C1308 1.392 . S
C1309 H1321 0.929 . S
C1310 C1306 1.531 . S
C1310 H1322 0.960 . S
C1310 H1323 0.962 . S
C1310 H1324 0.960 . S
C1311 C1308 1.511 . S
C1311 H1325 0.961 . S
C1311 H1326 0.961 . S
C1311 H1327 0.961 . S
C1312 C1313 1.370 . S
C1312 C1314 1.363 . S
C1312 H1328 0.931 . S
C1313 C1312 1.370 . S
C1313 C1317 1.408 . S
C1314 C1312 1.363 . S
C1314 C1315 1.370 . S
C1314 C1318 1.524 . S
C1315 C1307 1.503 . S
C1315 C1314 1.370 . S
C1315 C1316 1.403 . S
C1316 C1315 1.403 . S
C1316 C1317 1.404 . S
C1316 C1319 1.539 . S
C1317 C1313 1.408 . S
C1317 C1316 1.404 . S
C1317 H1329 0.930 . S
C1318 C1314 1.524 . S
C1318 H1330 0.956 . S
C1318 H1331 0.961 . S
C1318 H1332 0.961 . S
C1319 C1316 1.539 . S
C1319 H1333 0.958 . S
C1319 H1334 0.961 . S
C1319 H1335 0.960 . S
H1320 C1304 0.931 . S
H1321 C1309 0.929 . S
H1322 C1310 0.960 . S
H1323 C1310 0.962 . S
H1324 C1310 0.960 . S
H1325 C1311 0.961 . S
H1326 C1311 0.961 . S
H1327 C1311 0.961 . S
H1328 C1312 0.931 . S
H1329 C1317 0.930 . S
H1330 C1318 0.956 . S
H1331 C1318 0.961 . S
H1332 C1318 0.961 . S
H1333 C1319 0.958 . S
H1334 C1319 0.961 . S
H1335 C1319 0.960 . S
C1336 C1337 1.391 . S
C1336 C1338 1.394 . S
C1336 H1352 0.931 . S
C1337 C1336 1.391 . S
C1337 C1341 1.376 . S
C1338 C1336 1.394 . S
C1338 C1339 1.369 . S
C1338 C1342 1.531 . S
C1339 C1338 1.369 . S
C1339 C1340 1.410 . S
C1339 C1347 1.503 . S
C1340 C1339 1.410 . S
C1340 C1341 1.392 . S
C1340 C1343 1.511 . S
C1341 C1337 1.376 . S
C1341 C1340 1.392 . S
C1341 H1353 0.929 . S
C1342 C1338 1.531 . S
C1342 H1354 0.960 . S
C1342 H1355 0.962 . S
C1342 H1356 0.960 . S
C1343 C1340 1.511 . S
C1343 H1357 0.961 . S
C1343 H1358 0.961 . S
C1343 H1359 0.961 . S
C1344 C1345 1.370 . S
C1344 C1346 1.363 . S
C1344 H1360 0.931 . S
C1345 C1344 1.370 . S
C1345 C1349 1.408 . S
C1346 C1344 1.363 . S
C1346 C1347 1.370 . S
C1346 C1350 1.524 . S
C1347 C1339 1.503 . S
C1347 C1346 1.370 . S
C1347 C1348 1.403 . S
C1348 C1347 1.403 . S
C1348 C1349 1.404 . S
C1348 C1351 1.539 . S
C1349 C1345 1.408 . S
C1349 C1348 1.404 . S
C1349 H1361 0.930 . S
C1350 C1346 1.524 . S
C1350 H1362 0.956 . S
C1350 H1363 0.961 . S
C1350 H1364 0.961 . S
C1351 C1348 1.539 . S
C1351 H1365 0.958 . S
C1351 H1366 0.961 . S
C1351 H1367 0.960 . S
H1352 C1336 0.931 . S
H1353 C1341 0.929 . S
H1354 C1342 0.960 . S
H1355 C1342 0.962 . S
H1356 C1342 0.960 . S
H1357 C1343 0.961 . S
H1358 C1343 0.961 . S
H1359 C1343 0.961 . S
H1360 C1344 0.931 . S
H1361 C1349 0.930 . S
H1362 C1350 0.956 . S
H1363 C1350 0.961 . S
H1364 C1350 0.961 . S
H1365 C1351 0.958 . S
H1366 C1351 0.961 . S
H1367 C1351 0.960 . S
C1368 C1369 1.391 . S
C1368 C1370 1.394 . S
C1368 H1384 0.931 . S
C1369 C1368 1.391 . S
C1369 C1373 1.376 . S
C1370 C1368 1.394 . S
C1370 C1371 1.369 . S
C1370 C1374 1.531 . S
C1371 C1370 1.369 . S
C1371 C1372 1.410 . S
C1371 C1379 1.503 . S
C1372 C1371 1.410 . S
C1372 C1373 1.392 . S
C1372 C1375 1.511 . S
C1373 C1369 1.376 . S
C1373 C1372 1.392 . S
C1373 H1385 0.929 . S
C1374 C1370 1.531 . S
C1374 H1386 0.960 . S
C1374 H1387 0.962 . S
C1374 H1388 0.960 . S
C1375 C1372 1.511 . S
C1375 H1389 0.961 . S
C1375 H1390 0.961 . S
C1375 H1391 0.961 . S
C1376 C1377 1.370 . S
C1376 C1378 1.363 . S
C1376 H1392 0.931 . S
C1377 C1376 1.370 . S
C1377 C1381 1.408 . S
C1378 C1376 1.363 . S
C1378 C1379 1.370 . S
C1378 C1382 1.524 . S
C1379 C1371 1.503 . S
C1379 C1378 1.370 . S
C1379 C1380 1.403 . S
C1380 C1379 1.403 . S
C1380 C1381 1.404 . S
C1380 C1383 1.539 . S
C1381 C1377 1.408 . S
C1381 C1380 1.404 . S
C1381 H1393 0.930 . S
C1382 C1378 1.524 . S
C1382 H1394 0.956 . S
C1382 H1395 0.961 . S
C1382 H1396 0.870 1_556 S
C1383 C1380 1.539 . S
C1383 H1397 0.958 . S
C1383 H1398 0.961 . S
C1383 H1399 0.960 . S
H1384 C1368 0.931 . S
H1385 C1373 0.929 . S
H1386 C1374 0.960 . S
H1387 C1374 0.962 . S
H1388 C1374 0.960 . S
H1389 C1375 0.961 . S
H1390 C1375 0.961 . S
H1391 C1375 0.961 . S
H1392 C1376 0.931 . S
H1393 C1381 0.930 . S
H1394 C1382 0.956 . S
H1395 C1382 0.961 . S
H1396 C1382 0.870 1_554 S
H1397 C1383 0.958 . S
H1398 C1383 0.961 . S
H1399 C1383 0.960 . S
C1400 C1401 1.391 . S
C1400 C1402 1.394 . S
C1400 H1416 0.931 . S
C1401 C1400 1.391 . S
C1401 C1405 1.376 . S
C1402 C1400 1.394 . S
C1402 C1403 1.369 . S
C1402 C1406 1.531 . S
C1403 C1402 1.369 . S
C1403 C1404 1.410 . S
C1403 C1411 1.503 . S
C1404 C1403 1.410 . S
C1404 C1405 1.392 . S
C1404 C1407 1.511 . S
C1405 C1401 1.376 . S
C1405 C1404 1.392 . S
C1405 H1417 0.929 . S
C1406 C1402 1.531 . S
C1406 H1418 0.960 . S
C1406 H1419 0.962 . S
C1406 H1420 0.960 . S
C1407 C1404 1.511 . S
C1407 H1421 0.961 . S
C1407 H1422 0.961 . S
C1407 H1423 0.961 . S
C1408 C1409 1.370 . S
C1408 C1410 1.363 . S
C1408 H1424 0.931 . S
C1409 C1408 1.370 . S
C1409 C1413 1.408 . S
C1410 C1408 1.363 . S
C1410 C1411 1.370 . S
C1410 C1414 1.524 . S
C1411 C1403 1.503 . S
C1411 C1410 1.370 . S
C1411 C1412 1.403 . S
C1412 C1411 1.403 . S
C1412 C1413 1.404 . S
C1412 C1415 1.539 . S
C1413 C1409 1.408 . S
C1413 C1412 1.404 . S
C1413 H1425 0.930 . S
C1414 C1410 1.524 . S
C1414 H1426 0.956 . S
C1414 H1427 0.961 . S
C1414 H1428 0.961 . S
C1415 C1412 1.539 . S
C1415 H1429 0.958 . S
C1415 H1430 0.961 . S
C1415 H1431 0.960 . S
H1416 C1400 0.931 . S
H1417 C1405 0.929 . S
H1418 C1406 0.960 . S
H1419 C1406 0.962 . S
H1420 C1406 0.960 . S
H1421 C1407 0.961 . S
H1422 C1407 0.961 . S
H1423 C1407 0.961 . S
H1424 C1408 0.931 . S
H1425 C1413 0.930 . S
H1426 C1414 0.956 . S
H1427 C1414 0.961 . S
H1428 C1414 0.961 . S
H1429 C1415 0.958 . S
H1430 C1415 0.961 . S
H1431 C1415 0.960 . S
C1432 C1433 1.391 . S
C1432 C1434 1.394 . S
C1432 H1448 0.931 . S
C1433 C1432 1.391 . S
C1433 C1437 1.376 . S
C1434 C1432 1.394 . S
C1434 C1435 1.369 . S
C1434 C1438 1.531 . S
C1435 C1434 1.369 . S
C1435 C1436 1.410 . S
C1435 C1443 1.503 . S
C1436 C1435 1.410 . S
C1436 C1437 1.392 . S
C1436 C1439 1.511 . S
C1437 C1433 1.376 . S
C1437 C1436 1.392 . S
C1437 H1449 0.929 . S
C1438 C1434 1.531 . S
C1438 H1450 0.960 . S
C1438 H1451 0.962 . S
C1438 H1452 0.960 . S
C1439 C1436 1.511 . S
C1439 H1453 0.961 . S
C1439 H1454 0.961 . S
C1439 H1455 0.961 . S
C1440 C1441 1.370 . S
C1440 C1442 1.363 . S
C1440 H1456 0.931 . S
C1441 C1440 1.370 . S
C1441 C1445 1.408 . S
C1442 C1440 1.363 . S
C1442 C1443 1.370 . S
C1442 C1446 1.524 . S
C1443 C1435 1.503 . S
C1443 C1442 1.370 . S
C1443 C1444 1.403 . S
C1444 C1443 1.403 . S
C1444 C1445 1.404 . S
C1444 C1447 1.539 . S
C1445 C1441 1.408 . S
C1445 C1444 1.404 . S
C1445 H1457 0.930 . S
C1446 C1442 1.524 . S
C1446 H1458 0.956 . S
C1446 H1459 0.961 . S
C1446 H1460 0.961 . S
C1447 C1444 1.539 . S
C1447 H1461 0.958 . S
C1447 H1462 0.961 . S
C1447 H1463 0.960 . S
H1448 C1432 0.931 . S
H1449 C1437 0.929 . S
H1450 C1438 0.960 . S
H1451 C1438 0.962 . S
H1452 C1438 0.960 . S
H1453 C1439 0.961 . S
H1454 C1439 0.961 . S
H1455 C1439 0.961 . S
H1456 C1440 0.931 . S
H1457 C1445 0.930 . S
H1458 C1446 0.956 . S
H1459 C1446 0.961 . S
H1460 C1446 0.961 . S
H1461 C1447 0.958 . S
H1462 C1447 0.961 . S
H1463 C1447 0.960 . S
C1464 C1465 1.391 . S
C1464 C1466 1.394 . S
C1464 H1480 0.931 . S
C1465 C1464 1.391 . S
C1465 C1469 1.376 . S
C1466 C1464 1.394 . S
C1466 C1467 1.369 . S
C1466 C1470 1.531 . S
C1467 C1466 1.369 . S
C1467 C1468 1.410 . S
C1467 C1475 1.503 . S
C1468 C1467 1.410 . S
C1468 C1469 1.392 . S
C1468 C1471 1.511 . S
C1469 C1465 1.376 . S
C1469 C1468 1.392 . S
C1469 H1481 0.929 . S
C1470 C1466 1.531 . S
C1470 H1482 0.960 . S
C1470 H1483 0.962 . S
C1470 H1484 0.960 . S
C1471 C1468 1.511 . S
C1471 H1485 0.961 . S
C1471 H1486 0.961 . S
C1471 H1487 0.961 . S
C1472 C1473 1.370 . S
C1472 C1474 1.363 . S
C1472 H1488 0.931 . S
C1473 C1472 1.370 . S
C1473 C1477 1.408 . S
C1474 C1472 1.363 . S
C1474 C1475 1.370 . S
C1474 C1478 1.524 . S
C1475 C1467 1.503 . S
C1475 C1474 1.370 . S
C1475 C1476 1.403 . S
C1476 C1475 1.403 . S
C1476 C1477 1.404 . S
C1476 C1479 1.539 . S
C1477 C1473 1.408 . S
C1477 C1476 1.404 . S
C1477 H1489 0.930 . S
C1478 C1474 1.524 . S
C1478 H1490 0.956 . S
C1478 H1491 0.961 . S
C1478 H1492 0.961 . S
C1479 C1476 1.539 . S
C1479 H1493 0.958 . S
C1479 H1494 0.961 . S
C1479 H1495 0.960 . S
H1480 C1464 0.931 . S
H1481 C1469 0.929 . S
H1482 C1470 0.960 . S
H1483 C1470 0.962 . S
H1484 C1470 0.960 . S
H1485 C1471 0.961 . S
H1486 C1471 0.961 . S
H1487 C1471 0.961 . S
H1488 C1472 0.931 . S
H1489 C1477 0.930 . S
H1490 C1478 0.956 . S
H1491 C1478 0.961 . S
H1492 C1478 0.961 . S
H1493 C1479 0.958 . S
H1494 C1479 0.961 . S
H1495 C1479 0.960 . S
C1496 C1497 1.391 . S
C1496 C1498 1.394 . S
C1496 H1512 0.931 . S
C1497 C1496 1.391 . S
C1497 C1501 1.376 . S
C1498 C1496 1.394 . S
C1498 C1499 1.369 . S
C1498 C1502 1.531 . S
C1499 C1498 1.369 . S
C1499 C1500 1.410 . S
C1499 C1507 1.503 . S
C1500 C1499 1.410 . S
C1500 C1501 1.392 . S
C1500 C1503 1.511 . S
C1501 C1497 1.376 . S
C1501 C1500 1.392 . S
C1501 H1513 0.929 . S
C1502 C1498 1.531 . S
C1502 H1514 0.960 . S
C1502 H1515 0.962 . S
C1502 H1516 0.960 . S
C1503 C1500 1.511 . S
C1503 H1517 0.961 . S
C1503 H1518 0.961 . S
C1503 H1519 0.961 . S
C1504 C1505 1.370 . S
C1504 C1506 1.363 . S
C1504 H1520 0.931 . S
C1505 C1504 1.370 . S
C1505 C1509 1.408 . S
C1506 C1504 1.363 . S
C1506 C1507 1.370 . S
C1506 C1510 1.524 . S
C1507 C1499 1.503 . S
C1507 C1506 1.370 . S
C1507 C1508 1.403 . S
C1508 C1507 1.403 . S
C1508 C1509 1.404 . S
C1508 C1511 1.539 . S
C1509 C1505 1.408 . S
C1509 C1508 1.404 . S
C1509 H1521 0.930 . S
C1510 C1506 1.524 . S
C1510 H1522 0.956 . S
C1510 H1523 0.961 . S
C1510 H1524 0.961 . S
C1511 C1508 1.539 . S
C1511 H1525 0.958 . S
C1511 H1526 0.961 . S
C1511 H1527 0.960 . S
H1512 C1496 0.931 . S
H1513 C1501 0.929 . S
H1514 C1502 0.960 . S
H1515 C1502 0.962 . S
H1516 C1502 0.960 . S
H1517 C1503 0.961 . S
H1518 C1503 0.961 . S
H1519 C1503 0.961 . S
H1520 C1504 0.931 . S
H1521 C1509 0.930 . S
H1522 C1510 0.956 . S
H1523 C1510 0.961 . S
H1524 C1510 0.961 . S
H1525 C1511 0.958 . S
H1526 C1511 0.961 . S
H1527 C1511 0.960 . S
C1528 C1529 1.391 . S
C1528 C1530 1.394 . S
C1528 H1544 0.931 . S
C1529 C1528 1.391 . S
C1529 C1533 1.376 . S
C1530 C1528 1.394 . S
C1530 C1531 1.369 . S
C1530 C1534 1.531 . S
C1531 C1530 1.369 . S
C1531 C1532 1.410 . S
C1531 C1539 1.503 . S
C1532 C1531 1.410 . S
C1532 C1533 1.392 . S
C1532 C1535 1.511 . S
C1533 C1529 1.376 . S
C1533 C1532 1.392 . S
C1533 H1545 0.929 . S
C1534 C1530 1.531 . S
C1534 H1546 0.960 . S
C1534 H1547 0.962 . S
C1534 H1548 0.960 . S
C1535 C1532 1.511 . S
C1535 H1549 0.961 . S
C1535 H1550 0.961 . S
C1535 H1551 0.961 . S
C1536 C1537 1.370 . S
C1536 C1538 1.363 . S
C1536 H1552 0.931 . S
C1537 C1536 1.370 . S
C1537 C1541 1.408 . S
C1538 C1536 1.363 . S
C1538 C1539 1.370 . S
C1538 C1542 1.524 . S
C1539 C1531 1.503 . S
C1539 C1538 1.370 . S
C1539 C1540 1.403 . S
C1540 C1539 1.403 . S
C1540 C1541 1.404 . S
C1540 C1543 1.539 . S
C1541 C1537 1.408 . S
C1541 C1540 1.404 . S
C1541 H1553 0.930 . S
C1542 C1538 1.524 . S
C1542 H1554 0.956 . S
C1542 H1555 0.961 . S
C1542 H1556 0.961 . S
C1543 C1540 1.539 . S
C1543 H1557 0.958 . S
C1543 H1558 0.961 . S
C1543 H1559 0.960 . S
H1544 C1528 0.931 . S
H1545 C1533 0.929 . S
H1546 C1534 0.960 . S
H1547 C1534 0.962 . S
H1548 C1534 0.960 . S
H1549 C1535 0.961 . S
H1550 C1535 0.961 . S
H1551 C1535 0.961 . S
H1552 C1536 0.931 . S
H1553 C1541 0.930 . S
H1554 C1542 0.956 . S
H1555 C1542 0.961 . S
H1556 C1542 0.961 . S
H1557 C1543 0.958 . S
H1558 C1543 0.961 . S
H1559 C1543 0.960 . S
C1560 C1561 1.391 . S
C1560 C1562 1.394 . S
C1560 H1576 0.931 . S
C1561 C1560 1.391 . S
C1561 C1565 1.376 . S
C1562 C1560 1.394 . S
C1562 C1563 1.369 . S
C1562 C1566 1.531 . S
C1563 C1562 1.369 . S
C1563 C1564 1.410 . S
C1563 C1571 1.503 . S
C1564 C1563 1.410 . S
C1564 C1565 1.392 . S
C1564 C1567 1.511 . S
C1565 C1561 1.376 . S
C1565 C1564 1.392 . S
C1565 H1577 0.929 . S
C1566 C1562 1.531 . S
C1566 H1578 0.960 . S
C1566 H1579 0.962 . S
C1566 H1580 0.960 . S
C1567 C1564 1.511 . S
C1567 H1581 0.961 . S
C1567 H1582 0.961 . S
C1567 H1583 0.961 . S
C1568 C1569 1.370 . S
C1568 C1570 1.363 . S
C1568 H1584 0.931 . S
C1569 C1568 1.370 . S
C1569 C1573 1.408 . S
C1570 C1568 1.363 . S
C1570 C1571 1.370 . S
C1570 C1574 1.524 . S
C1571 C1563 1.503 . S
C1571 C1570 1.370 . S
C1571 C1572 1.403 . S
C1572 C1571 1.403 . S
C1572 C1573 1.404 . S
C1572 C1575 1.539 . S
C1573 C1569 1.408 . S
C1573 C1572 1.404 . S
C1573 H1585 0.930 . S
C1574 C1570 1.524 . S
C1574 H1586 0.956 . S
C1574 H1587 0.961 . S
C1574 H1588 0.961 . S
C1575 C1572 1.539 . S
C1575 H1589 0.958 . S
C1575 H1590 0.961 . S
C1575 H1591 0.960 . S
H1576 C1560 0.931 . S
H1577 C1565 0.929 . S
H1578 C1566 0.960 . S
H1579 C1566 0.962 . S
H1580 C1566 0.960 . S
H1581 C1567 0.961 . S
H1582 C1567 0.961 . S
H1583 C1567 0.961 . S
H1584 C1568 0.931 . S
H1585 C1573 0.930 . S
H1586 C1574 0.956 . S
H1587 C1574 0.961 . S
H1588 C1574 0.961 . S
H1589 C1575 0.958 . S
H1590 C1575 0.961 . S
H1591 C1575 0.960 . S
C1592 C1593 1.391 . S
C1592 C1594 1.394 . S
C1592 H1608 0.931 . S
C1593 C1592 1.391 . S
C1593 C1597 1.376 . S
C1594 C1592 1.394 . S
C1594 C1595 1.369 . S
C1594 C1598 1.531 . S
C1595 C1594 1.369 . S
C1595 C1596 1.410 . S
C1595 C1603 1.503 . S
C1596 C1595 1.410 . S
C1596 C1597 1.392 . S
C1596 C1599 1.511 . S
C1597 C1593 1.376 . S
C1597 C1596 1.392 . S
C1597 H1609 0.929 . S
C1598 C1594 1.531 . S
C1598 H1610 0.960 . S
C1598 H1611 0.962 . S
C1598 H1612 0.960 . S
C1599 C1596 1.511 . S
C1599 H1613 0.961 . S
C1599 H1614 0.961 . S
C1599 H1615 0.961 . S
C1600 C1601 1.370 . S
C1600 C1602 1.363 . S
C1600 H1616 0.931 . S
C1601 C1600 1.370 . S
C1601 C1605 1.408 . S
C1602 C1600 1.363 . S
C1602 C1603 1.370 . S
C1602 C1606 1.524 . S
C1603 C1595 1.503 . S
C1603 C1602 1.370 . S
C1603 C1604 1.403 . S
C1604 C1603 1.403 . S
C1604 C1605 1.404 . S
C1604 C1607 1.539 . S
C1605 C1601 1.408 . S
C1605 C1604 1.404 . S
C1605 H1617 0.930 . S
C1606 C1602 1.524 . S
C1606 H1618 0.956 . S
C1606 H1619 0.961 . S
C1606 H1620 0.961 . S
C1607 C1604 1.539 . S
C1607 H1621 0.958 . S
C1607 H1622 0.961 . S
C1607 H1623 0.960 . S
H1608 C1592 0.931 . S
H1609 C1597 0.929 . S
H1610 C1598 0.960 . S
H1611 C1598 0.962 . S
H1612 C1598 0.960 . S
H1613 C1599 0.961 . S
H1614 C1599 0.961 . S
H1615 C1599 0.961 . S
H1616 C1600 0.931 . S
H1617 C1605 0.930 . S
H1618 C1606 0.956 . S
H1619 C1606 0.961 . S
H1620 C1606 0.961 . S
H1621 C1607 0.958 . S
H1622 C1607 0.961 . S
H1623 C1607 0.960 . S
C1624 C1625 1.391 . S
C1624 C1626 1.394 . S
C1624 H1640 0.931 . S
C1625 C1624 1.391 . S
C1625 C1629 1.376 . S
C1626 C1624 1.394 . S
C1626 C1627 1.369 . S
C1626 C1630 1.531 . S
C1627 C1626 1.369 . S
C1627 C1628 1.410 . S
C1627 C1635 1.503 . S
C1628 C1627 1.410 . S
C1628 C1629 1.392 . S
C1628 C1631 1.511 . S
C1629 C1625 1.376 . S
C1629 C1628 1.392 . S
C1629 H1641 0.929 . S
C1630 C1626 1.531 . S
C1630 H1642 0.960 . S
C1630 H1643 0.962 . S
C1630 H1644 0.960 . S
C1631 C1628 1.511 . S
C1631 H1645 0.961 . S
C1631 H1646 0.961 . S
C1631 H1647 0.961 . S
C1632 C1633 1.370 . S
C1632 C1634 1.363 . S
C1632 H1648 0.931 . S
C1633 C1632 1.370 . S
C1633 C1637 1.408 . S
C1634 C1632 1.363 . S
C1634 C1635 1.370 . S
C1634 C1638 1.524 . S
C1635 C1627 1.503 . S
C1635 C1634 1.370 . S
C1635 C1636 1.403 . S
C1636 C1635 1.403 . S
C1636 C1637 1.404 . S
C1636 C1639 1.539 . S
C1637 C1633 1.408 . S
C1637 C1636 1.404 . S
C1637 H1649 0.930 . S
C1638 C1634 1.524 . S
C1638 H1650 0.956 . S
C1638 H1651 0.961 . S
C1638 H1652 0.961 . S
C1639 C1636 1.539 . S
C1639 H1653 0.958 . S
C1639 H1654 0.961 . S
C1639 H1655 0.960 . S
H1640 C1624 0.931 . S
H1641 C1629 0.929 . S
H1642 C1630 0.960 . S
H1643 C1630 0.962 . S
H1644 C1630 0.960 . S
H1645 C1631 0.961 . S
H1646 C1631 0.961 . S
H1647 C1631 0.961 . S
H1648 C1632 0.931 . S
H1649 C1637 0.930 . S
H1650 C1638 0.956 . S
H1651 C1638 0.961 . S
H1652 C1638 0.961 . S
H1653 C1639 0.958 . S
H1654 C1639 0.961 . S
H1655 C1639 0.960 . S
C1656 C1657 1.391 . S
C1656 C1658 1.394 . S
C1656 H1672 0.931 . S
C1657 C1656 1.391 . S
C1657 C1661 1.376 . S
C1658 C1656 1.394 . S
C1658 C1659 1.369 . S
C1658 C1662 1.531 . S
C1659 C1658 1.369 . S
C1659 C1660 1.410 . S
C1659 C1667 1.503 . S
C1660 C1659 1.410 . S
C1660 C1661 1.392 . S
C1660 C1663 1.511 . S
C1661 C1657 1.376 . S
C1661 C1660 1.392 . S
C1661 H1673 0.929 . S
C1662 C1658 1.531 . S
C1662 H1674 0.960 . S
C1662 H1675 0.962 . S
C1662 H1676 0.960 . S
C1663 C1660 1.511 . S
C1663 H1677 0.961 . S
C1663 H1678 0.961 . S
C1663 H1679 0.961 . S
C1664 C1665 1.370 . S
C1664 C1666 1.363 . S
C1664 H1680 0.931 . S
C1665 C1664 1.370 . S
C1665 C1669 1.408 . S
C1666 C1664 1.363 . S
C1666 C1667 1.370 . S
C1666 C1670 1.524 . S
C1667 C1659 1.503 . S
C1667 C1666 1.370 . S
C1667 C1668 1.403 . S
C1668 C1667 1.403 . S
C1668 C1669 1.404 . S
C1668 C1671 1.539 . S
C1669 C1665 1.408 . S
C1669 C1668 1.404 . S
C1669 H1681 0.930 . S
C1670 C1666 1.524 . S
C1670 H1682 0.956 . S
C1670 H1683 0.961 . S
C1670 H1684 0.961 . S
C1671 C1668 1.539 . S
C1671 H1685 0.958 . S
C1671 H1686 0.961 . S
C1671 H1687 0.960 . S
H1672 C1656 0.931 . S
H1673 C1661 0.929 . S
H1674 C1662 0.960 . S
H1675 C1662 0.962 . S
H1676 C1662 0.960 . S
H1677 C1663 0.961 . S
H1678 C1663 0.961 . S
H1679 C1663 0.961 . S
H1680 C1664 0.931 . S
H1681 C1669 0.930 . S
H1682 C1670 0.956 . S
H1683 C1670 0.961 . S
H1684 C1670 0.961 . S
H1685 C1671 0.958 . S
H1686 C1671 0.961 . S
H1687 C1671 0.960 . S
C1688 C1689 1.391 . S
C1688 C1690 1.394 . S
C1688 H1704 0.931 . S
C1689 C1688 1.391 . S
C1689 C1693 1.376 1_545 S
C1690 C1688 1.394 . S
C1690 C1691 1.369 . S
C1690 C1694 1.531 . S
C1691 C1690 1.369 . S
C1691 C1692 1.410 1_545 S
C1691 C1699 1.503 . S
C1692 C1691 1.410 1_565 S
C1692 C1693 1.392 . S
C1692 C1695 1.511 . S
C1693 C1689 1.376 1_565 S
C1693 C1692 1.392 . S
C1693 H1705 0.929 . S
C1694 C1690 1.531 . S
C1694 H1706 0.960 . S
C1694 H1707 0.962 . S
C1694 H1708 0.960 . S
C1695 C1692 1.511 . S
C1695 H1709 0.961 . S
C1695 H1710 0.961 . S
C1695 H1711 0.961 . S
C1696 C1697 1.370 . S
C1696 C1698 1.363 . S
C1696 H1712 0.931 . S
C1697 C1696 1.370 . S
C1697 C1701 1.408 1_565 S
C1698 C1696 1.363 . S
C1698 C1699 1.370 1_565 S
C1698 C1702 1.524 . S
C1699 C1691 1.503 . S
C1699 C1698 1.370 1_545 S
C1699 C1700 1.403 . S
C1700 C1699 1.403 . S
C1700 C1701 1.404 . S
C1700 C1703 1.539 . S
C1701 C1697 1.408 1_545 S
C1701 C1700 1.404 . S
C1701 H1713 0.930 . S
C1702 C1698 1.524 . S
C1702 H1714 0.956 . S
C1702 H1715 0.961 . S
C1702 H1716 0.961 . S
C1703 C1700 1.539 . S
C1703 H1717 0.958 . S
C1703 H1718 0.961 . S
C1703 H1719 0.960 . S
H1704 C1688 0.931 . S
H1705 C1693 0.929 . S
H1706 C1694 0.960 . S
H1707 C1694 0.962 . S
H1708 C1694 0.960 . S
H1709 C1695 0.961 . S
H1710 C1695 0.961 . S
H1711 C1695 0.961 . S
H1712 C1696 0.931 . S
H1713 C1701 0.930 . S
H1714 C1702 0.956 . S
H1715 C1702 0.961 . S
H1716 C1702 0.961 . S
H1717 C1703 0.958 . S
H1718 C1703 0.961 . S
H1719 C1703 0.960 . S
C1720 C1721 1.391 . S
C1720 C1722 1.394 1_455 S
C1720 H1736 0.931 . S
C1721 C1720 1.391 . S
C1721 C1725 1.376 1_455 S
C1722 C1720 1.394 1_655 S
C1722 C1723 1.369 . S
C1722 C1726 1.531 . S
C1723 C1722 1.369 . S
C1723 C1724 1.410 . S
C1723 C1731 1.503 . S
C1724 C1723 1.410 . S
C1724 C1725 1.392 . S
C1724 C1727 1.511 . S
C1725 C1721 1.376 1_655 S
C1725 C1724 1.392 . S
C1725 H1737 0.929 . S
C1726 C1722 1.531 . S
C1726 H1738 0.960 . S
C1726 H1739 0.962 1_655 S
C1726 H1740 0.960 . S
C1727 C1724 1.511 . S
C1727 H1741 0.961 . S
C1727 H1742 0.961 . S
C1727 H1743 0.961 . S
C1728 C1729 1.370 1_455 S
C1728 C1730 1.363 . S
C1728 H1744 0.931 . S
C1729 C1728 1.370 1_655 S
C1729 C1733 1.408 . S
C1730 C1728 1.363 . S
C1730 C1731 1.370 1_455 S
C1730 C1734 1.524 . S
C1731 C1723 1.503 . S
C1731 C1730 1.370 1_655 S
C1731 C1732 1.403 . S
C1732 C1731 1.403 . S
C1732 C1733 1.404 . S
C1732 C1735 1.539 . S
C1733 C1729 1.408 . S
C1733 C1732 1.404 . S
C1733 H1745 0.930 . S
C1734 C1730 1.524 . S
C1734 H1746 0.956 . S
C1734 H1747 0.961 . S
C1734 H1748 0.961 . S
C1735 C1732 1.539 . S
C1735 H1749 0.958 . S
C1735 H1750 0.961 . S
C1735 H1751 0.960 . S
H1736 C1720 0.931 . S
H1737 C1725 0.929 . S
H1738 C1726 0.960 . S
H1739 C1726 0.962 1_455 S
H1740 C1726 0.960 . S
H1741 C1727 0.961 . S
H1742 C1727 0.961 . S
H1743 C1727 0.961 . S
H1744 C1728 0.931 . S
H1745 C1733 0.930 . S
H1746 C1734 0.956 . S
H1747 C1734 0.961 . S
H1748 C1734 0.961 . S
H1749 C1735 0.958 . S
H1750 C1735 0.961 . S
H1751 C1735 0.960 . S
C1752 C1753 1.391 . S
C1752 C1754 1.394 . S
C1752 H1768 0.931 . S
C1753 C1752 1.391 . S
C1753 C1757 1.376 . S
C1754 C1752 1.394 . S
C1754 C1755 1.369 . S
C1754 C1758 1.531 . S
C1755 C1754 1.369 . S
C1755 C1756 1.410 . S
C1755 C1763 1.503 . S
C1756 C1755 1.410 . S
C1756 C1757 1.392 . S
C1756 C1759 1.511 . S
C1757 C1753 1.376 . S
C1757 C1756 1.392 . S
C1757 H1769 0.929 . S
C1758 C1754 1.531 . S
C1758 H1770 0.960 . S
C1758 H1771 0.962 . S
C1758 H1772 0.960 . S
C1759 C1756 1.511 . S
C1759 H1773 0.961 . S
C1759 H1774 0.961 . S
C1759 H1775 0.961 . S
C1760 C1761 1.370 . S
C1760 C1762 1.363 . S
C1760 H1776 0.931 . S
C1761 C1760 1.370 . S
C1761 C1765 1.408 . S
C1762 C1760 1.363 . S
C1762 C1763 1.370 . S
C1762 C1766 1.524 . S
C1763 C1755 1.503 . S
C1763 C1762 1.370 . S
C1763 C1764 1.403 . S
C1764 C1763 1.403 . S
C1764 C1765 1.404 . S
C1764 C1767 1.539 . S
C1765 C1761 1.408 . S
C1765 C1764 1.404 . S
C1765 H1777 0.930 . S
C1766 C1762 1.524 . S
C1766 H1778 0.956 . S
C1766 H1779 0.961 . S
C1766 H1780 0.961 . S
C1767 C1764 1.539 . S
C1767 H1781 0.958 . S
C1767 H1782 0.961 . S
C1767 H1783 0.960 . S
H1768 C1752 0.931 . S
H1769 C1757 0.929 . S
H1770 C1758 0.960 . S
H1771 C1758 0.962 . S
H1772 C1758 0.960 . S
H1773 C1759 0.961 . S
H1774 C1759 0.961 . S
H1775 C1759 0.961 . S
H1776 C1760 0.931 . S
H1777 C1765 0.930 . S
H1778 C1766 0.956 . S
H1779 C1766 0.961 . S
H1780 C1766 0.961 . S
H1781 C1767 0.958 . S
H1782 C1767 0.961 . S
H1783 C1767 0.960 . S
C1784 C1785 1.391 1_545 S
C1784 C1786 1.394 . S
C1784 H1800 0.931 . S
C1785 C1784 1.391 1_565 S
C1785 C1789 1.376 . S
C1786 C1784 1.394 . S
C1786 C1787 1.369 1_545 S
C1786 C1790 1.531 . S
C1787 C1786 1.369 1_565 S
C1787 C1788 1.410 . S
C1787 C1795 1.503 . S
C1788 C1787 1.410 . S
C1788 C1789 1.392 . S
C1788 C1791 1.511 . S
C1789 C1785 1.376 . S
C1789 C1788 1.392 . S
C1789 H1801 0.929 . S
C1790 C1786 1.531 . S
C1790 H1802 0.960 . S
C1790 H1803 0.962 . S
C1790 H1804 0.960 . S
C1791 C1788 1.511 . S
C1791 H1805 0.961 . S
C1791 H1806 0.961 . S
C1791 H1807 0.961 . S
C1792 C1793 1.370 . S
C1792 C1794 1.363 . S
C1792 H1808 0.931 . S
C1793 C1792 1.370 . S
C1793 C1797 1.408 1_545 S
C1794 C1792 1.363 . S
C1794 C1795 1.370 1_545 S
C1794 C1798 1.524 . S
C1795 C1787 1.503 . S
C1795 C1794 1.370 1_565 S
C1795 C1796 1.403 . S
C1796 C1795 1.403 . S
C1796 C1797 1.404 . S
C1796 C1799 1.539 . S
C1797 C1793 1.408 1_565 S
C1797 C1796 1.404 . S
C1797 H1809 0.930 . S
C1798 C1794 1.524 . S
C1798 H1810 0.956 . S
C1798 H1811 0.961 . S
C1798 H1812 0.961 . S
C1799 C1796 1.539 . S
C1799 H1813 0.958 . S
C1799 H1814 0.961 . S
C1799 H1815 0.960 . S
H1800 C1784 0.931 . S
H1801 C1789 0.929 . S
H1802 C1790 0.960 . S
H1803 C1790 0.962 . S
H1804 C1790 0.960 . S
H1805 C1791 0.961 . S
H1806 C1791 0.961 . S
H1807 C1791 0.961 . S
H1808 C1792 0.931 . S
H1809 C1797 0.930 . S
H1810 C1798 0.956 . S
H1811 C1798 0.961 . S
H1812 C1798 0.961 . S
H1813 C1799 0.958 . S
H1814 C1799 0.961 . S
H1815 C1799 0.960 . S
C1816 C1817 1.391 1_455 S
C1816 C1818 1.394 . S
C1816 H1832 0.931 . S
C1817 C1816 1.391 1_655 S
C1817 C1821 1.376 . S
C1818 C1816 1.394 . S
C1818 C1819 1.369 1_455 S
C1818 C1822 1.531 . S
C1819 C1818 1.369 1_655 S
C1819 C1820 1.410 . S
C1819 C1827 1.503 . S
C1820 C1819 1.410 . S
C1820 C1821 1.392 . S
C1820 C1823 1.511 . S
C1821 C1817 1.376 . S
C1821 C1820 1.392 . S
C1821 H1833 0.929 . S
C1822 C1818 1.531 . S
C1822 H1834 0.960 . S
C1822 H1835 0.962 . S
C1822 H1836 0.960 . S
C1823 C1820 1.511 . S
C1823 H1837 0.961 . S
C1823 H1838 0.961 . S
C1823 H1839 0.961 . S
C1824 C1825 1.370 . S
C1824 C1826 1.363 . S
C1824 H1840 0.931 . S
C1825 C1824 1.370 . S
C1825 C1829 1.408 1_455 S
C1826 C1824 1.363 . S
C1826 C1827 1.370 1_455 S
C1826 C1830 1.524 . S
C1827 C1819 1.503 . S
C1827 C1826 1.370 1_655 S
C1827 C1828 1.403 . S
C1828 C1827 1.403 . S
C1828 C1829 1.404 . S
C1828 C1831 1.539 . S
C1829 C1825 1.408 1_655 S
C1829 C1828 1.404 . S
C1829 H1841 0.930 . S
C1830 C1826 1.524 . S
C1830 H1842 0.956 . S
C1830 H1843 0.961 . S
C1830 H1844 0.961 . S
C1831 C1828 1.539 . S
C1831 H1845 0.958 . S
C1831 H1846 0.961 . S
C1831 H1847 0.960 . S
H1832 C1816 0.931 . S
H1833 C1821 0.929 . S
H1834 C1822 0.960 . S
H1835 C1822 0.962 . S
H1836 C1822 0.960 . S
H1837 C1823 0.961 . S
H1838 C1823 0.961 . S
H1839 C1823 0.961 . S
H1840 C1824 0.931 . S
H1841 C1829 0.930 . S
H1842 C1830 0.956 . S
H1843 C1830 0.961 . S
H1844 C1830 0.961 . S
H1845 C1831 0.958 . S
H1846 C1831 0.961 . S
H1847 C1831 0.960 . S
C1848 C1849 1.391 . S
C1848 C1850 1.394 . S
C1848 H1864 0.931 . S
C1849 C1848 1.391 . S
C1849 C1853 1.376 . S
C1850 C1848 1.394 . S
C1850 C1851 1.369 . S
C1850 C1854 1.531 . S
C1851 C1850 1.369 . S
C1851 C1852 1.410 . S
C1851 C1859 1.503 . S
C1852 C1851 1.410 . S
C1852 C1853 1.392 . S
C1852 C1855 1.511 . S
C1853 C1849 1.376 . S
C1853 C1852 1.392 . S
C1853 H1865 0.929 . S
C1854 C1850 1.531 . S
C1854 H1866 0.960 . S
C1854 H1867 0.962 . S
C1854 H1868 0.960 . S
C1855 C1852 1.511 . S
C1855 H1869 0.961 . S
C1855 H1870 0.961 . S
C1855 H1871 0.961 . S
C1856 C1857 1.370 . S
C1856 C1858 1.363 . S
C1856 H1872 0.931 . S
C1857 C1856 1.370 . S
C1857 C1861 1.408 . S
C1858 C1856 1.363 . S
C1858 C1859 1.370 . S
C1858 C1862 1.524 . S
C1859 C1851 1.503 . S
C1859 C1858 1.370 . S
C1859 C1860 1.403 . S
C1860 C1859 1.403 . S
C1860 C1861 1.404 . S
C1860 C1863 1.539 . S
C1861 C1857 1.408 . S
C1861 C1860 1.404 . S
C1861 H1873 0.930 . S
C1862 C1858 1.524 . S
C1862 H1874 0.956 . S
C1862 H1875 0.961 . S
C1862 H1876 0.961 . S
C1863 C1860 1.539 . S
C1863 H1877 0.958 . S
C1863 H1878 0.961 . S
C1863 H1879 0.960 . S
H1864 C1848 0.931 . S
H1865 C1853 0.929 . S
H1866 C1854 0.960 . S
H1867 C1854 0.962 . S
H1868 C1854 0.960 . S
H1869 C1855 0.961 . S
H1870 C1855 0.961 . S
H1871 C1855 0.961 . S
H1872 C1856 0.931 . S
H1873 C1861 0.930 . S
H1874 C1862 0.956 . S
H1875 C1862 0.961 . S
H1876 C1862 0.961 . S
H1877 C1863 0.958 . S
H1878 C1863 0.961 . S
H1879 C1863 0.960 . S
C1880 C1881 1.391 . S
C1880 C1882 1.394 . S
C1880 H1896 0.931 . S
C1881 C1880 1.391 . S
C1881 C1885 1.376 . S
C1882 C1880 1.394 . S
C1882 C1883 1.369 . S
C1882 C1886 1.531 . S
C1883 C1882 1.369 . S
C1883 C1884 1.410 . S
C1883 C1891 1.503 . S
C1884 C1883 1.410 . S
C1884 C1885 1.392 . S
C1884 C1887 1.511 . S
C1885 C1881 1.376 . S
C1885 C1884 1.392 . S
C1885 H1897 0.929 . S
C1886 C1882 1.531 . S
C1886 H1898 0.960 . S
C1886 H1899 0.962 . S
C1886 H1900 0.960 . S
C1887 C1884 1.511 . S
C1887 H1901 0.961 . S
C1887 H1902 0.961 . S
C1887 H1903 0.961 . S
C1888 C1889 1.370 . S
C1888 C1890 1.363 . S
C1888 H1904 0.931 . S
C1889 C1888 1.370 . S
C1889 C1893 1.408 . S
C1890 C1888 1.363 . S
C1890 C1891 1.370 . S
C1890 C1894 1.524 . S
C1891 C1883 1.503 . S
C1891 C1890 1.370 . S
C1891 C1892 1.403 . S
C1892 C1891 1.403 . S
C1892 C1893 1.404 . S
C1892 C1895 1.539 . S
C1893 C1889 1.408 . S
C1893 C1892 1.404 . S
C1893 H1905 0.930 . S
C1894 C1890 1.524 . S
C1894 H1906 0.956 . S
C1894 H1907 0.961 . S
C1894 H1908 0.961 . S
C1895 C1892 1.539 . S
C1895 H1909 0.958 . S
C1895 H1910 0.961 . S
C1895 H1911 0.960 . S
H1896 C1880 0.931 . S
H1897 C1885 0.929 . S
H1898 C1886 0.960 . S
H1899 C1886 0.962 . S
H1900 C1886 0.960 . S
H1901 C1887 0.961 . S
H1902 C1887 0.961 . S
H1903 C1887 0.961 . S
H1904 C1888 0.931 . S
H1905 C1893 0.930 . S
H1906 C1894 0.956 . S
H1907 C1894 0.961 . S
H1908 C1894 0.961 . S
H1909 C1895 0.958 . S
H1910 C1895 0.961 . S
H1911 C1895 0.960 . S
C1912 C1913 1.391 . S
C1912 C1914 1.394 . S
C1912 H1928 0.931 . S
C1913 C1912 1.391 . S
C1913 C1917 1.376 . S
C1914 C1912 1.394 . S
C1914 C1915 1.369 . S
C1914 C1918 1.531 . S
C1915 C1914 1.369 . S
C1915 C1916 1.410 . S
C1915 C1923 1.503 . S
C1916 C1915 1.410 . S
C1916 C1917 1.392 . S
C1916 C1919 1.511 . S
C1917 C1913 1.376 . S
C1917 C1916 1.392 . S
C1917 H1929 0.929 . S
C1918 C1914 1.531 . S
C1918 H1930 0.960 . S
C1918 H1931 0.962 . S
C1918 H1932 0.960 . S
C1919 C1916 1.511 . S
C1919 H1933 0.961 . S
C1919 H1934 0.961 . S
C1919 H1935 0.961 . S
C1920 C1921 1.370 . S
C1920 C1922 1.363 . S
C1920 H1936 0.931 . S
C1921 C1920 1.370 . S
C1921 C1925 1.408 . S
C1922 C1920 1.363 . S
C1922 C1923 1.370 . S
C1922 C1926 1.524 . S
C1923 C1915 1.503 . S
C1923 C1922 1.370 . S
C1923 C1924 1.403 . S
C1924 C1923 1.403 . S
C1924 C1925 1.404 . S
C1924 C1927 1.539 . S
C1925 C1921 1.408 . S
C1925 C1924 1.404 . S
C1925 H1937 0.930 . S
C1926 C1922 1.524 . S
C1926 H1938 0.956 . S
C1926 H1939 0.961 . S
C1926 H1940 0.961 . S
C1927 C1924 1.539 . S
C1927 H1941 0.958 . S
C1927 H1942 0.961 . S
C1927 H1943 0.960 . S
H1928 C1912 0.931 . S
H1929 C1917 0.929 . S
H1930 C1918 0.960 . S
H1931 C1918 0.962 . S
H1932 C1918 0.960 . S
H1933 C1919 0.961 . S
H1934 C1919 0.961 . S
H1935 C1919 0.961 . S
H1936 C1920 0.931 . S
H1937 C1925 0.930 . S
H1938 C1926 0.956 . S
H1939 C1926 0.961 . S
H1940 C1926 0.961 . S
H1941 C1927 0.958 . S
H1942 C1927 0.961 . S
H1943 C1927 0.960 . S
C1944 C1945 1.391 . S
C1944 C1946 1.394 . S
C1944 H1960 0.931 . S
C1945 C1944 1.391 . S
C1945 C1949 1.376 . S
C1946 C1944 1.394 . S
C1946 C1947 1.369 . S
C1946 C1950 1.531 . S
C1947 C1946 1.369 . S
C1947 C1948 1.410 . S
C1947 C1955 1.503 . S
C1948 C1947 1.410 . S
C1948 C1949 1.392 . S
C1948 C1951 1.511 . S
C1949 C1945 1.376 . S
C1949 C1948 1.392 . S
C1949 H1961 0.929 . S
C1950 C1946 1.531 . S
C1950 H1962 0.960 . S
C1950 H1963 0.962 . S
C1950 H1964 0.960 . S
C1951 C1948 1.511 . S
C1951 H1965 0.961 . S
C1951 H1966 0.961 . S
C1951 H1967 0.961 . S
C1952 C1953 1.370 . S
C1952 C1954 1.363 . S
C1952 H1968 0.931 . S
C1953 C1952 1.370 . S
C1953 C1957 1.408 . S
C1954 C1952 1.363 . S
C1954 C1955 1.370 . S
C1954 C1958 1.524 . S
C1955 C1947 1.503 . S
C1955 C1954 1.370 . S
C1955 C1956 1.403 . S
C1956 C1955 1.403 . S
C1956 C1957 1.404 . S
C1956 C1959 1.539 . S
C1957 C1953 1.408 . S
C1957 C1956 1.404 . S
C1957 H1969 0.930 . S
C1958 C1954 1.524 . S
C1958 H1970 0.956 . S
C1958 H1971 0.961 . S
C1958 H1972 0.961 . S
C1959 C1956 1.539 . S
C1959 H1973 0.958 . S
C1959 H1974 0.961 . S
C1959 H1975 0.960 . S
H1960 C1944 0.931 . S
H1961 C1949 0.929 . S
H1962 C1950 0.960 . S
H1963 C1950 0.962 . S
H1964 C1950 0.960 . S
H1965 C1951 0.961 . S
H1966 C1951 0.961 . S
H1967 C1951 0.961 . S
H1968 C1952 0.931 . S
H1969 C1957 0.930 . S
H1970 C1958 0.956 . S
H1971 C1958 0.961 . S
H1972 C1958 0.961 . S
H1973 C1959 0.958 . S
H1974 C1959 0.961 . S
H1975 C1959 0.960 . S
C1976 C1977 1.391 . S
C1976 C1978 1.394 . S
C1976 H1992 0.931 . S
C1977 C1976 1.391 . S
C1977 C1981 1.376 . S
C1978 C1976 1.394 . S
C1978 C1979 1.369 . S
C1978 C1982 1.531 . S
C1979 C1978 1.369 . S
C1979 C1980 1.410 . S
C1979 C1987 1.503 . S
C1980 C1979 1.410 . S
C1980 C1981 1.392 . S
C1980 C1983 1.511 . S
C1981 C1977 1.376 . S
C1981 C1980 1.392 . S
C1981 H1993 0.929 . S
C1982 C1978 1.531 . S
C1982 H1994 0.960 . S
C1982 H1995 0.962 . S
C1982 H1996 0.960 . S
C1983 C1980 1.511 . S
C1983 H1997 0.961 . S
C1983 H1998 0.961 . S
C1983 H1999 0.961 . S
C1984 C1985 1.370 . S
C1984 C1986 1.363 . S
C1984 H2000 0.931 . S
C1985 C1984 1.370 . S
C1985 C1989 1.408 . S
C1986 C1984 1.363 . S
C1986 C1987 1.370 . S
C1986 C1990 1.524 . S
C1987 C1979 1.503 . S
C1987 C1986 1.370 . S
C1987 C1988 1.403 . S
C1988 C1987 1.403 . S
C1988 C1989 1.404 . S
C1988 C1991 1.539 . S
C1989 C1985 1.408 . S
C1989 C1988 1.404 . S
C1989 H2001 0.930 . S
C1990 C1986 1.524 . S
C1990 H2002 0.956 . S
C1990 H2003 0.961 . S
C1990 H2004 0.961 . S
C1991 C1988 1.539 . S
C1991 H2005 0.958 . S
C1991 H2006 0.961 . S
C1991 H2007 0.960 . S
H1992 C1976 0.931 . S
H1993 C1981 0.929 . S
H1994 C1982 0.960 . S
H1995 C1982 0.962 . S
H1996 C1982 0.960 . S
H1997 C1983 0.961 . S
H1998 C1983 0.961 . S
H1999 C1983 0.961 . S
H2000 C1984 0.931 . S
H2001 C1989 0.930 . S
H2002 C1990 0.956 . S
H2003 C1990 0.961 . S
H2004 C1990 0.961 . S
H2005 C1991 0.958 . S
H2006 C1991 0.961 . S
H2007 C1991 0.960 . S
C2008 C2009 1.391 . S
C2008 C2010 1.394 . S
C2008 H2024 0.931 . S
C2009 C2008 1.391 . S
C2009 C2013 1.376 . S
C2010 C2008 1.394 . S
C2010 C2011 1.369 . S
C2010 C2014 1.531 . S
C2011 C2010 1.369 . S
C2011 C2012 1.410 . S
C2011 C2019 1.503 . S
C2012 C2011 1.410 . S
C2012 C2013 1.392 . S
C2012 C2015 1.511 . S
C2013 C2009 1.376 . S
C2013 C2012 1.392 . S
C2013 H2025 0.929 . S
C2014 C2010 1.531 . S
C2014 H2026 0.960 . S
C2014 H2027 0.962 . S
C2014 H2028 0.960 . S
C2015 C2012 1.511 . S
C2015 H2029 0.961 . S
C2015 H2030 0.961 . S
C2015 H2031 0.961 . S
C2016 C2017 1.370 . S
C2016 C2018 1.363 . S
C2016 H2032 0.931 . S
C2017 C2016 1.370 . S
C2017 C2021 1.408 . S
C2018 C2016 1.363 . S
C2018 C2019 1.370 . S
C2018 C2022 1.524 . S
C2019 C2011 1.503 . S
C2019 C2018 1.370 . S
C2019 C2020 1.403 . S
C2020 C2019 1.403 . S
C2020 C2021 1.404 . S
C2020 C2023 1.539 . S
C2021 C2017 1.408 . S
C2021 C2020 1.404 . S
C2021 H2033 0.930 . S
C2022 C2018 1.524 . S
C2022 H2034 0.956 . S
C2022 H2035 0.961 . S
C2022 H2036 0.961 . S
C2023 C2020 1.539 . S
C2023 H2037 0.958 . S
C2023 H2038 0.961 . S
C2023 H2039 0.960 . S
H2024 C2008 0.931 . S
H2025 C2013 0.929 . S
H2026 C2014 0.960 . S
H2027 C2014 0.962 . S
H2028 C2014 0.960 . S
H2029 C2015 0.961 . S
H2030 C2015 0.961 . S
H2031 C2015 0.961 . S
H2032 C2016 0.931 . S
H2033 C2021 0.930 . S
H2034 C2022 0.956 . S
H2035 C2022 0.961 . S
H2036 C2022 0.961 . S
H2037 C2023 0.958 . S
H2038 C2023 0.961 . S
H2039 C2023 0.960 . S
C2040 C2041 1.391 . S
C2040 C2042 1.394 . S
C2040 H2056 0.931 . S
C2041 C2040 1.391 . S
C2041 C2045 1.376 . S
C2042 C2040 1.394 . S
C2042 C2043 1.369 . S
C2042 C2046 1.531 . S
C2043 C2042 1.369 . S
C2043 C2044 1.410 . S
C2043 C2051 1.503 . S
C2044 C2043 1.410 . S
C2044 C2045 1.392 . S
C2044 C2047 1.511 . S
C2045 C2041 1.376 . S
C2045 C2044 1.392 . S
C2045 H2057 0.929 . S
C2046 C2042 1.531 . S
C2046 H2058 0.960 . S
C2046 H2059 0.962 . S
C2046 H2060 0.960 . S
C2047 C2044 1.511 . S
C2047 H2061 0.961 . S
C2047 H2062 0.961 . S
C2047 H2063 0.961 . S
C2048 C2049 1.370 . S
C2048 C2050 1.363 . S
C2048 H2064 0.931 . S
C2049 C2048 1.370 . S
C2049 C2053 1.408 . S
C2050 C2048 1.363 . S
C2050 C2051 1.370 . S
C2050 C2054 1.524 . S
C2051 C2043 1.503 . S
C2051 C2050 1.370 . S
C2051 C2052 1.403 . S
C2052 C2051 1.403 . S
C2052 C2053 1.404 . S
C2052 C2055 1.539 . S
C2053 C2049 1.408 . S
C2053 C2052 1.404 . S
C2053 H2065 0.930 . S
C2054 C2050 1.524 . S
C2054 H2066 0.956 . S
C2054 H2067 0.961 . S
C2054 H2068 0.961 . S
C2055 C2052 1.539 . S
C2055 H2069 0.958 . S
C2055 H2070 0.961 . S
C2055 H2071 0.960 . S
H2056 C2040 0.931 . S
H2057 C2045 0.929 . S
H2058 C2046 0.960 . S
H2059 C2046 0.962 . S
H2060 C2046 0.960 . S
H2061 C2047 0.961 . S
H2062 C2047 0.961 . S
H2063 C2047 0.961 . S
H2064 C2048 0.931 . S
H2065 C2053 0.930 . S
H2066 C2054 0.956 . S
H2067 C2054 0.961 . S
H2068 C2054 0.961 . S
H2069 C2055 0.958 . S
H2070 C2055 0.961 . S
H2071 C2055 0.960 . S
C2072 C2073 1.391 . S
C2072 C2074 1.394 . S
C2072 H2088 0.931 . S
C2073 C2072 1.391 . S
C2073 C2077 1.376 . S
C2074 C2072 1.394 . S
C2074 C2075 1.369 . S
C2074 C2078 1.531 . S
C2075 C2074 1.369 . S
C2075 C2076 1.410 . S
C2075 C2083 1.503 . S
C2076 C2075 1.410 . S
C2076 C2077 1.392 . S
C2076 C2079 1.511 . S
C2077 C2073 1.376 . S
C2077 C2076 1.392 . S
C2077 H2089 0.929 . S
C2078 C2074 1.531 . S
C2078 H2090 0.960 . S
C2078 H2091 0.962 . S
C2078 H2092 0.960 . S
C2079 C2076 1.511 . S
C2079 H2093 0.961 . S
C2079 H2094 0.961 . S
C2079 H2095 0.961 . S
C2080 C2081 1.370 . S
C2080 C2082 1.363 . S
C2080 H2096 0.931 . S
C2081 C2080 1.370 . S
C2081 C2085 1.408 . S
C2082 C2080 1.363 . S
C2082 C2083 1.370 . S
C2082 C2086 1.524 . S
C2083 C2075 1.503 . S
C2083 C2082 1.370 . S
C2083 C2084 1.403 . S
C2084 C2083 1.403 . S
C2084 C2085 1.404 . S
C2084 C2087 1.539 . S
C2085 C2081 1.408 . S
C2085 C2084 1.404 . S
C2085 H2097 0.930 . S
C2086 C2082 1.524 . S
C2086 H2098 0.956 . S
C2086 H2099 0.961 . S
C2086 H2100 0.961 . S
C2087 C2084 1.539 . S
C2087 H2101 0.958 . S
C2087 H2102 0.961 . S
C2087 H2103 0.960 . S
H2088 C2072 0.931 . S
H2089 C2077 0.929 . S
H2090 C2078 0.960 . S
H2091 C2078 0.962 . S
H2092 C2078 0.960 . S
H2093 C2079 0.961 . S
H2094 C2079 0.961 . S
H2095 C2079 0.961 . S
H2096 C2080 0.931 . S
H2097 C2085 0.930 . S
H2098 C2086 0.956 . S
H2099 C2086 0.961 . S
H2100 C2086 0.961 . S
H2101 C2087 0.958 . S
H2102 C2087 0.961 . S
H2103 C2087 0.960 . S
C2104 C2105 1.391 . S
C2104 C2106 1.394 . S
C2104 H2120 0.931 . S
C2105 C2104 1.391 . S
C2105 C2109 1.376 . S
C2106 C2104 1.394 . S
C2106 C2107 1.369 . S
C2106 C2110 1.531 . S
C2107 C2106 1.369 . S
C2107 C2108 1.410 . S
C2107 C2115 1.503 . S
C2108 C2107 1.410 . S
C2108 C2109 1.392 . S
C2108 C2111 1.511 . S
C2109 C2105 1.376 . S
C2109 C2108 1.392 . S
C2109 H2121 0.929 . S
C2110 C2106 1.531 . S
C2110 H2122 0.960 . S
C2110 H2123 0.962 . S
C2110 H2124 0.960 . S
C2111 C2108 1.511 . S
C2111 H2125 0.961 . S
C2111 H2126 0.961 . S
C2111 H2127 0.961 . S
C2112 C2113 1.370 . S
C2112 C2114 1.363 . S
C2112 H2128 0.931 . S
C2113 C2112 1.370 . S
C2113 C2117 1.408 . S
C2114 C2112 1.363 . S
C2114 C2115 1.370 . S
C2114 C2118 1.524 . S
C2115 C2107 1.503 . S
C2115 C2114 1.370 . S
C2115 C2116 1.403 . S
C2116 C2115 1.403 . S
C2116 C2117 1.404 . S
C2116 C2119 1.539 . S
C2117 C2113 1.408 . S
C2117 C2116 1.404 . S
C2117 H2129 0.930 . S
C2118 C2114 1.524 . S
C2118 H2130 0.956 . S
C2118 H2131 0.961 . S
C2118 H2132 0.961 . S
C2119 C2116 1.539 . S
C2119 H2133 0.958 . S
C2119 H2134 0.961 . S
C2119 H2135 0.960 . S
H2120 C2104 0.931 . S
H2121 C2109 0.929 . S
H2122 C2110 0.960 . S
H2123 C2110 0.962 . S
H2124 C2110 0.960 . S
H2125 C2111 0.961 . S
H2126 C2111 0.961 . S
H2127 C2111 0.961 . S
H2128 C2112 0.931 . S
H2129 C2117 0.930 . S
H2130 C2118 0.956 . S
H2131 C2118 0.961 . S
H2132 C2118 0.961 . S
H2133 C2119 0.958 . S
H2134 C2119 0.961 . S
H2135 C2119 0.960 . S
C2136 C2137 1.391 . S
C2136 C2138 1.394 . S
C2136 H2152 0.931 . S
C2137 C2136 1.391 . S
C2137 C2141 1.376 . S
C2138 C2136 1.394 . S
C2138 C2139 1.369 . S
C2138 C2142 1.531 . S
C2139 C2138 1.369 . S
C2139 C2140 1.410 . S
C2139 C2147 1.503 . S
C2140 C2139 1.410 . S
C2140 C2141 1.392 . S
C2140 C2143 1.511 . S
C2141 C2137 1.376 . S
C2141 C2140 1.392 . S
C2141 H2153 0.929 . S
C2142 C2138 1.531 . S
C2142 H2154 0.960 . S
C2142 H2155 0.962 . S
C2142 H2156 0.960 . S
C2143 C2140 1.511 . S
C2143 H2157 0.961 . S
C2143 H2158 0.961 . S
C2143 H2159 0.961 . S
C2144 C2145 1.370 . S
C2144 C2146 1.363 . S
C2144 H2160 0.931 . S
C2145 C2144 1.370 . S
C2145 C2149 1.408 . S
C2146 C2144 1.363 . S
C2146 C2147 1.370 . S
C2146 C2150 1.524 . S
C2147 C2139 1.503 . S
C2147 C2146 1.370 . S
C2147 C2148 1.403 . S
C2148 C2147 1.403 . S
C2148 C2149 1.404 . S
C2148 C2151 1.539 . S
C2149 C2145 1.408 . S
C2149 C2148 1.404 . S
C2149 H2161 0.930 . S
C2150 C2146 1.524 . S
C2150 H2162 0.956 . S
C2150 H2163 0.961 . S
C2150 H2164 0.961 . S
C2151 C2148 1.539 . S
C2151 H2165 0.958 . S
C2151 H2166 0.961 . S
C2151 H2167 0.960 . S
H2152 C2136 0.931 . S
H2153 C2141 0.929 . S
H2154 C2142 0.960 . S
H2155 C2142 0.962 . S
H2156 C2142 0.960 . S
H2157 C2143 0.961 . S
H2158 C2143 0.961 . S
H2159 C2143 0.961 . S
H2160 C2144 0.931 . S
H2161 C2149 0.930 . S
H2162 C2150 0.956 . S
H2163 C2150 0.961 . S
H2164 C2150 0.961 . S
H2165 C2151 0.958 . S
H2166 C2151 0.961 . S
H2167 C2151 0.960 . S
C2168 C2169 1.391 . S
C2168 C2170 1.394 . S
C2168 H2184 0.931 . S
C2169 C2168 1.391 . S
C2169 C2173 1.376 . S
C2170 C2168 1.394 . S
C2170 C2171 1.369 . S
C2170 C2174 1.531 . S
C2171 C2170 1.369 . S
C2171 C2172 1.410 . S
C2171 C2179 1.503 . S
C2172 C2171 1.410 . S
C2172 C2173 1.392 . S
C2172 C2175 1.511 . S
C2173 C2169 1.376 . S
C2173 C2172 1.392 . S
C2173 H2185 0.929 . S
C2174 C2170 1.531 . S
C2174 H2186 0.960 . S
C2174 H2187 0.962 . S
C2174 H2188 0.960 . S
C2175 C2172 1.511 . S
C2175 H2189 0.961 . S
C2175 H2190 0.961 . S
C2175 H2191 0.961 . S
C2176 C2177 1.370 . S
C2176 C2178 1.363 . S
C2176 H2192 0.931 . S
C2177 C2176 1.370 . S
C2177 C2181 1.408 . S
C2178 C2176 1.363 . S
C2178 C2179 1.370 . S
C2178 C2182 1.524 . S
C2179 C2171 1.503 . S
C2179 C2178 1.370 . S
C2179 C2180 1.403 . S
C2180 C2179 1.403 . S
C2180 C2181 1.404 . S
C2180 C2183 1.539 . S
C2181 C2177 1.408 . S
C2181 C2180 1.404 . S
C2181 H2193 0.930 . S
C2182 C2178 1.524 . S
C2182 H2194 0.956 . S
C2182 H2195 0.961 . S
C2182 H2196 0.961 . S
C2183 C2180 1.539 . S
C2183 H2197 0.958 . S
C2183 H2198 0.961 . S
C2183 H2199 0.960 . S
H2184 C2168 0.931 . S
H2185 C2173 0.929 . S
H2186 C2174 0.960 . S
H2187 C2174 0.962 . S
H2188 C2174 0.960 . S
H2189 C2175 0.961 . S
H2190 C2175 0.961 . S
H2191 C2175 0.961 . S
H2192 C2176 0.931 . S
H2193 C2181 0.930 . S
H2194 C2182 0.956 . S
H2195 C2182 0.961 . S
H2196 C2182 0.961 . S
H2197 C2183 0.958 . S
H2198 C2183 0.961 . S
H2199 C2183 0.960 . S
C2200 C2201 1.391 . S
C2200 C2202 1.394 . S
C2200 H2216 0.931 . S
C2201 C2200 1.391 . S
C2201 C2205 1.376 . S
C2202 C2200 1.394 . S
C2202 C2203 1.369 . S
C2202 C2206 1.531 . S
C2203 C2202 1.369 . S
C2203 C2204 1.410 . S
C2203 C2211 1.503 . S
C2204 C2203 1.410 . S
C2204 C2205 1.392 . S
C2204 C2207 1.511 . S
C2205 C2201 1.376 . S
C2205 C2204 1.392 . S
C2205 H2217 0.929 . S
C2206 C2202 1.531 . S
C2206 H2218 0.960 . S
C2206 H2219 0.962 . S
C2206 H2220 0.960 . S
C2207 C2204 1.511 . S
C2207 H2221 0.961 . S
C2207 H2222 0.961 . S
C2207 H2223 0.961 . S
C2208 C2209 1.370 . S
C2208 C2210 1.363 . S
C2208 H2224 0.931 . S
C2209 C2208 1.370 . S
C2209 C2213 1.408 . S
C2210 C2208 1.363 . S
C2210 C2211 1.370 . S
C2210 C2214 1.524 . S
C2211 C2203 1.503 . S
C2211 C2210 1.370 . S
C2211 C2212 1.403 . S
C2212 C2211 1.403 . S
C2212 C2213 1.404 . S
C2212 C2215 1.539 . S
C2213 C2209 1.408 . S
C2213 C2212 1.404 . S
C2213 H2225 0.930 . S
C2214 C2210 1.524 . S
C2214 H2226 0.956 . S
C2214 H2227 0.961 . S
C2214 H2228 0.961 . S
C2215 C2212 1.539 . S
C2215 H2229 0.958 . S
C2215 H2230 0.961 . S
C2215 H2231 0.960 . S
H2216 C2200 0.931 . S
H2217 C2205 0.929 . S
H2218 C2206 0.960 . S
H2219 C2206 0.962 . S
H2220 C2206 0.960 . S
H2221 C2207 0.961 . S
H2222 C2207 0.961 . S
H2223 C2207 0.961 . S
H2224 C2208 0.931 . S
H2225 C2213 0.930 . S
H2226 C2214 0.956 . S
H2227 C2214 0.961 . S
H2228 C2214 0.961 . S
H2229 C2215 0.958 . S
H2230 C2215 0.961 . S
H2231 C2215 0.960 . S
C2232 C2233 1.391 . S
C2232 C2234 1.394 . S
C2232 H2248 0.931 . S
C2233 C2232 1.391 . S
C2233 C2237 1.376 . S
C2234 C2232 1.394 . S
C2234 C2235 1.369 . S
C2234 C2238 1.531 . S
C2235 C2234 1.369 . S
C2235 C2236 1.410 . S
C2235 C2243 1.503 . S
C2236 C2235 1.410 . S
C2236 C2237 1.392 . S
C2236 C2239 1.511 . S
C2237 C2233 1.376 . S
C2237 C2236 1.392 . S
C2237 H2249 0.929 . S
C2238 C2234 1.531 . S
C2238 H2250 0.960 . S
C2238 H2251 0.962 . S
C2238 H2252 0.960 . S
C2239 C2236 1.511 . S
C2239 H2253 0.961 . S
C2239 H2254 0.961 . S
C2239 H2255 0.961 . S
C2240 C2241 1.370 . S
C2240 C2242 1.363 . S
C2240 H2256 0.931 . S
C2241 C2240 1.370 . S
C2241 C2245 1.408 . S
C2242 C2240 1.363 . S
C2242 C2243 1.370 . S
C2242 C2246 1.524 . S
C2243 C2235 1.503 . S
C2243 C2242 1.370 . S
C2243 C2244 1.403 . S
C2244 C2243 1.403 . S
C2244 C2245 1.404 . S
C2244 C2247 1.539 . S
C2245 C2241 1.408 . S
C2245 C2244 1.404 . S
C2245 H2257 0.930 . S
C2246 C2242 1.524 . S
C2246 H2258 0.956 . S
C2246 H2259 0.961 . S
C2246 H2260 0.961 . S
C2247 C2244 1.539 . S
C2247 H2261 0.958 . S
C2247 H2262 0.961 . S
C2247 H2263 0.960 . S
H2248 C2232 0.931 . S
H2249 C2237 0.929 . S
H2250 C2238 0.960 . S
H2251 C2238 0.962 . S
H2252 C2238 0.960 . S
H2253 C2239 0.961 . S
H2254 C2239 0.961 . S
H2255 C2239 0.961 . S
H2256 C2240 0.931 . S
H2257 C2245 0.930 . S
H2258 C2246 0.956 . S
H2259 C2246 0.961 . S
H2260 C2246 0.961 . S
H2261 C2247 0.958 . S
H2262 C2247 0.961 . S
H2263 C2247 0.960 . S
C2264 C2265 1.391 . S
C2264 C2266 1.394 . S
C2264 H2280 0.931 . S
C2265 C2264 1.391 . S
C2265 C2269 1.376 . S
C2266 C2264 1.394 . S
C2266 C2267 1.369 . S
C2266 C2270 1.531 . S
C2267 C2266 1.369 . S
C2267 C2268 1.410 . S
C2267 C2275 1.503 . S
C2268 C2267 1.410 . S
C2268 C2269 1.392 . S
C2268 C2271 1.511 . S
C2269 C2265 1.376 . S
C2269 C2268 1.392 . S
C2269 H2281 0.929 . S
C2270 C2266 1.531 . S
C2270 H2282 0.960 . S
C2270 H2283 0.962 . S
C2270 H2284 0.960 . S
C2271 C2268 1.511 . S
C2271 H2285 0.961 . S
C2271 H2286 0.961 . S
C2271 H2287 0.961 . S
C2272 C2273 1.370 . S
C2272 C2274 1.363 . S
C2272 H2288 0.931 . S
C2273 C2272 1.370 . S
C2273 C2277 1.408 . S
C2274 C2272 1.363 . S
C2274 C2275 1.370 . S
C2274 C2278 1.524 . S
C2275 C2267 1.503 . S
C2275 C2274 1.370 . S
C2275 C2276 1.403 . S
C2276 C2275 1.403 . S
C2276 C2277 1.404 . S
C2276 C2279 1.539 . S
C2277 C2273 1.408 . S
C2277 C2276 1.404 . S
C2277 H2289 0.930 . S
C2278 C2274 1.524 . S
C2278 H2290 0.956 . S
C2278 H2291 0.961 . S
C2278 H2292 0.961 . S
C2279 C2276 1.539 . S
C2279 H2293 0.958 . S
C2279 H2294 0.961 . S
C2279 H2295 0.960 . S
H2280 C2264 0.931 . S
H2281 C2269 0.929 . S
H2282 C2270 0.960 . S
H2283 C2270 0.962 . S
H2284 C2270 0.960 . S
H2285 C2271 0.961 . S
H2286 C2271 0.961 . S
H2287 C2271 0.961 . S
H2288 C2272 0.931 . S
H2289 C2277 0.930 . S
H2290 C2278 0.956 . S
H2291 C2278 0.961 . S
H2292 C2278 0.961 . S
H2293 C2279 0.958 . S
H2294 C2279 0.961 . S
H2295 C2279 0.960 . S
C2296 C2297 1.391 . S
C2296 C2298 1.394 . S
C2296 H2312 0.931 . S
C2297 C2296 1.391 . S
C2297 C2301 1.376 . S
C2298 C2296 1.394 . S
C2298 C2299 1.369 . S
C2298 C2302 1.531 . S
C2299 C2298 1.369 . S
C2299 C2300 1.410 . S
C2299 C2307 1.503 . S
C2300 C2299 1.410 . S
C2300 C2301 1.392 . S
C2300 C2303 1.511 . S
C2301 C2297 1.376 . S
C2301 C2300 1.392 . S
C2301 H2313 0.929 . S
C2302 C2298 1.531 . S
C2302 H2314 0.960 . S
C2302 H2315 0.962 . S
C2302 H2316 0.960 . S
C2303 C2300 1.511 . S
C2303 H2317 0.961 . S
C2303 H2318 0.961 . S
C2303 H2319 0.961 . S
C2304 C2305 1.370 . S
C2304 C2306 1.363 . S
C2304 H2320 0.931 . S
C2305 C2304 1.370 . S
C2305 C2309 1.408 . S
C2306 C2304 1.363 . S
C2306 C2307 1.370 . S
C2306 C2310 1.524 . S
C2307 C2299 1.503 . S
C2307 C2306 1.370 . S
C2307 C2308 1.403 . S
C2308 C2307 1.403 . S
C2308 C2309 1.404 . S
C2308 C2311 1.539 . S
C2309 C2305 1.408 . S
C2309 C2308 1.404 . S
C2309 H2321 0.930 . S
C2310 C2306 1.524 . S
C2310 H2322 0.956 . S
C2310 H2323 0.961 . S
C2310 H2324 0.961 . S
C2311 C2308 1.539 . S
C2311 H2325 0.958 . S
C2311 H2326 0.961 . S
C2311 H2327 0.960 . S
H2312 C2296 0.931 . S
H2313 C2301 0.929 . S
H2314 C2302 0.960 . S
H2315 C2302 0.962 . S
H2316 C2302 0.960 . S
H2317 C2303 0.961 . S
H2318 C2303 0.961 . S
H2319 C2303 0.961 . S
H2320 C2304 0.931 . S
H2321 C2309 0.930 . S
H2322 C2310 0.956 . S
H2323 C2310 0.961 . S
H2324 C2310 0.961 . S
H2325 C2311 0.958 . S
H2326 C2311 0.961 . S
H2327 C2311 0.960 . S
C2328 C2329 1.391 . S
C2328 C2330 1.394 . S
C2328 H2344 0.931 . S
C2329 C2328 1.391 . S
C2329 C2333 1.376 . S
C2330 C2328 1.394 . S
C2330 C2331 1.369 . S
C2330 C2334 1.531 . S
C2331 C2330 1.369 . S
C2331 C2332 1.410 . S
C2331 C2339 1.503 . S
C2332 C2331 1.410 . S
C2332 C2333 1.392 . S
C2332 C2335 1.511 . S
C2333 C2329 1.376 . S
C2333 C2332 1.392 . S
C2333 H2345 0.929 . S
C2334 C2330 1.531 . S
C2334 H2346 0.960 . S
C2334 H2347 0.962 . S
C2334 H2348 0.960 . S
C2335 C2332 1.511 . S
C2335 H2349 0.961 . S
C2335 H2350 0.961 . S
C2335 H2351 0.961 . S
C2336 C2337 1.370 . S
C2336 C2338 1.363 . S
C2336 H2352 0.931 . S
C2337 C2336 1.370 . S
C2337 C2341 1.408 . S
C2338 C2336 1.363 . S
C2338 C2339 1.370 . S
C2338 C2342 1.524 . S
C2339 C2331 1.503 . S
C2339 C2338 1.370 . S
C2339 C2340 1.403 . S
C2340 C2339 1.403 . S
C2340 C2341 1.404 . S
C2340 C2343 1.539 . S
C2341 C2337 1.408 . S
C2341 C2340 1.404 . S
C2341 H2353 0.930 . S
C2342 C2338 1.524 . S
C2342 H2354 0.956 . S
C2342 H2355 0.961 . S
C2342 H2356 0.961 . S
C2343 C2340 1.539 . S
C2343 H2357 0.958 . S
C2343 H2358 0.961 . S
C2343 H2359 0.960 . S
H2344 C2328 0.931 . S
H2345 C2333 0.929 . S
H2346 C2334 0.960 . S
H2347 C2334 0.962 . S
H2348 C2334 0.960 . S
H2349 C2335 0.961 . S
H2350 C2335 0.961 . S
H2351 C2335 0.961 . S
H2352 C2336 0.931 . S
H2353 C2341 0.930 . S
H2354 C2342 0.956 . S
H2355 C2342 0.961 . S
H2356 C2342 0.961 . S
H2357 C2343 0.958 . S
H2358 C2343 0.961 . S
H2359 C2343 0.960 . S
C2360 C2361 1.391 . S
C2360 C2362 1.394 . S
C2360 H2376 0.931 . S
C2361 C2360 1.391 . S
C2361 C2365 1.376 . S
C2362 C2360 1.394 . S
C2362 C2363 1.369 . S
C2362 C2366 1.531 . S
C2363 C2362 1.369 . S
C2363 C2364 1.410 . S
C2363 C2371 1.503 . S
C2364 C2363 1.410 . S
C2364 C2365 1.392 . S
C2364 C2367 1.511 . S
C2365 C2361 1.376 . S
C2365 C2364 1.392 . S
C2365 H2377 0.929 . S
C2366 C2362 1.531 . S
C2366 H2378 0.960 . S
C2366 H2379 0.962 . S
C2366 H2380 0.960 . S
C2367 C2364 1.511 . S
C2367 H2381 0.961 . S
C2367 H2382 0.961 . S
C2367 H2383 0.961 . S
C2368 C2369 1.370 . S
C2368 C2370 1.363 . S
C2368 H2384 0.931 . S
C2369 C2368 1.370 . S
C2369 C2373 1.408 . S
C2370 C2368 1.363 . S
C2370 C2371 1.370 . S
C2370 C2374 1.524 . S
C2371 C2363 1.503 . S
C2371 C2370 1.370 . S
C2371 C2372 1.403 . S
C2372 C2371 1.403 . S
C2372 C2373 1.404 . S
C2372 C2375 1.539 . S
C2373 C2369 1.408 . S
C2373 C2372 1.404 . S
C2373 H2385 0.930 . S
C2374 C2370 1.524 . S
C2374 H2386 0.956 . S
C2374 H2387 0.961 . S
C2374 H2388 0.961 . S
C2375 C2372 1.539 . S
C2375 H2389 0.958 . S
C2375 H2390 0.961 . S
C2375 H2391 0.960 . S
H2376 C2360 0.931 . S
H2377 C2365 0.929 . S
H2378 C2366 0.960 . S
H2379 C2366 0.962 . S
H2380 C2366 0.960 . S
H2381 C2367 0.961 . S
H2382 C2367 0.961 . S
H2383 C2367 0.961 . S
H2384 C2368 0.931 . S
H2385 C2373 0.930 . S
H2386 C2374 0.956 . S
H2387 C2374 0.961 . S
H2388 C2374 0.961 . S
H2389 C2375 0.958 . S
H2390 C2375 0.961 . S
H2391 C2375 0.960 . S
C2392 C2393 1.391 . S
C2392 C2394 1.394 . S
C2392 H2408 0.931 . S
C2393 C2392 1.391 . S
C2393 C2397 1.376 . S
C2394 C2392 1.394 . S
C2394 C2395 1.369 . S
C2394 C2398 1.531 . S
C2395 C2394 1.369 . S
C2395 C2396 1.410 . S
C2395 C2403 1.503 . S
C2396 C2395 1.410 . S
C2396 C2397 1.392 . S
C2396 C2399 1.511 . S
C2397 C2393 1.376 . S
C2397 C2396 1.392 . S
C2397 H2409 0.929 . S
C2398 C2394 1.531 . S
C2398 H2410 0.960 . S
C2398 H2411 0.962 . S
C2398 H2412 0.960 . S
C2399 C2396 1.511 . S
C2399 H2413 0.961 . S
C2399 H2414 0.961 . S
C2399 H2415 0.961 . S
C2400 C2401 1.370 . S
C2400 C2402 1.363 . S
C2400 H2416 0.931 . S
C2401 C2400 1.370 . S
C2401 C2405 1.408 . S
C2402 C2400 1.363 . S
C2402 C2403 1.370 . S
C2402 C2406 1.524 . S
C2403 C2395 1.503 . S
C2403 C2402 1.370 . S
C2403 C2404 1.403 . S
C2404 C2403 1.403 . S
C2404 C2405 1.404 . S
C2404 C2407 1.539 . S
C2405 C2401 1.408 . S
C2405 C2404 1.404 . S
C2405 H2417 0.930 . S
C2406 C2402 1.524 . S
C2406 H2418 0.956 . S
C2406 H2419 0.961 . S
C2406 H2420 0.961 . S
C2407 C2404 1.539 . S
C2407 H2421 0.958 . S
C2407 H2422 0.961 . S
C2407 H2423 0.960 . S
H2408 C2392 0.931 . S
H2409 C2397 0.929 . S
H2410 C2398 0.960 . S
H2411 C2398 0.962 . S
H2412 C2398 0.960 . S
H2413 C2399 0.961 . S
H2414 C2399 0.961 . S
H2415 C2399 0.961 . S
H2416 C2400 0.931 . S
H2417 C2405 0.930 . S
H2418 C2406 0.956 . S
H2419 C2406 0.961 . S
H2420 C2406 0.961 . S
H2421 C2407 0.958 . S
H2422 C2407 0.961 . S
H2423 C2407 0.960 . S
C2424 C2425 1.391 . S
C2424 C2426 1.394 . S
C2424 H2440 0.931 . S
C2425 C2424 1.391 . S
C2425 C2429 1.376 . S
C2426 C2424 1.394 . S
C2426 C2427 1.369 . S
C2426 C2430 1.531 . S
C2427 C2426 1.369 . S
C2427 C2428 1.410 . S
C2427 C2435 1.503 . S
C2428 C2427 1.410 . S
C2428 C2429 1.392 . S
C2428 C2431 1.511 . S
C2429 C2425 1.376 . S
C2429 C2428 1.392 . S
C2429 H2441 0.929 . S
C2430 C2426 1.531 . S
C2430 H2442 0.960 . S
C2430 H2443 0.962 . S
C2430 H2444 0.960 . S
C2431 C2428 1.511 . S
C2431 H2445 0.961 . S
C2431 H2446 0.961 . S
C2431 H2447 0.961 . S
C2432 C2433 1.370 . S
C2432 C2434 1.363 . S
C2432 H2448 0.931 . S
C2433 C2432 1.370 . S
C2433 C2437 1.408 . S
C2434 C2432 1.363 . S
C2434 C2435 1.370 . S
C2434 C2438 1.524 . S
C2435 C2427 1.503 . S
C2435 C2434 1.370 . S
C2435 C2436 1.403 . S
C2436 C2435 1.403 . S
C2436 C2437 1.404 . S
C2436 C2439 1.539 . S
C2437 C2433 1.408 . S
C2437 C2436 1.404 . S
C2437 H2449 0.930 . S
C2438 C2434 1.524 . S
C2438 H2450 0.956 . S
C2438 H2451 0.961 . S
C2438 H2452 0.961 . S
C2439 C2436 1.539 . S
C2439 H2453 0.958 . S
C2439 H2454 0.961 . S
C2439 H2455 0.960 . S
H2440 C2424 0.931 . S
H2441 C2429 0.929 . S
H2442 C2430 0.960 . S
H2443 C2430 0.962 . S
H2444 C2430 0.960 . S
H2445 C2431 0.961 . S
H2446 C2431 0.961 . S
H2447 C2431 0.961 . S
H2448 C2432 0.931 . S
H2449 C2437 0.930 . S
H2450 C2438 0.956 . S
H2451 C2438 0.961 . S
H2452 C2438 0.961 . S
H2453 C2439 0.958 . S
H2454 C2439 0.961 . S
H2455 C2439 0.960 . S
C2456 C2457 1.391 . S
C2456 C2458 1.394 . S
C2456 H2472 0.931 . S
C2457 C2456 1.391 . S
C2457 C2461 1.376 . S
C2458 C2456 1.394 . S
C2458 C2459 1.369 . S
C2458 C2462 1.531 . S
C2459 C2458 1.369 . S
C2459 C2460 1.410 . S
C2459 C2467 1.503 . S
C2460 C2459 1.410 . S
C2460 C2461 1.392 . S
C2460 C2463 1.511 . S
C2461 C2457 1.376 . S
C2461 C2460 1.392 . S
C2461 H2473 0.929 . S
C2462 C2458 1.531 . S
C2462 H2474 0.960 . S
C2462 H2475 0.962 . S
C2462 H2476 0.960 . S
C2463 C2460 1.511 . S
C2463 H2477 0.961 . S
C2463 H2478 0.961 . S
C2463 H2479 0.961 . S
C2464 C2465 1.370 . S
C2464 C2466 1.363 . S
C2464 H2480 0.931 . S
C2465 C2464 1.370 . S
C2465 C2469 1.408 . S
C2466 C2464 1.363 . S
C2466 C2467 1.370 . S
C2466 C2470 1.524 . S
C2467 C2459 1.503 . S
C2467 C2466 1.370 . S
C2467 C2468 1.403 . S
C2468 C2467 1.403 . S
C2468 C2469 1.404 . S
C2468 C2471 1.539 . S
C2469 C2465 1.408 . S
C2469 C2468 1.404 . S
C2469 H2481 0.930 . S
C2470 C2466 1.524 . S
C2470 H2482 0.956 . S
C2470 H2483 0.961 . S
C2470 H2484 0.961 . S
C2471 C2468 1.539 . S
C2471 H2485 0.958 . S
C2471 H2486 0.961 . S
C2471 H2487 0.960 . S
H2472 C2456 0.931 . S
H2473 C2461 0.929 . S
H2474 C2462 0.960 . S
H2475 C2462 0.962 . S
H2476 C2462 0.960 . S
H2477 C2463 0.961 . S
H2478 C2463 0.961 . S
H2479 C2463 0.961 . S
H2480 C2464 0.931 . S
H2481 C2469 0.930 . S
H2482 C2470 0.956 . S
H2483 C2470 0.961 . S
H2484 C2470 0.961 . S
H2485 C2471 0.958 . S
H2486 C2471 0.961 . S
H2487 C2471 0.960 . S
C2488 C2489 1.391 . S
C2488 C2490 1.394 . S
C2488 H2504 0.931 . S
C2489 C2488 1.391 . S
C2489 C2493 1.376 . S
C2490 C2488 1.394 . S
C2490 C2491 1.369 . S
C2490 C2494 1.531 . S
C2491 C2490 1.369 . S
C2491 C2492 1.410 . S
C2491 C2499 1.503 . S
C2492 C2491 1.410 . S
C2492 C2493 1.392 . S
C2492 C2495 1.511 . S
C2493 C2489 1.376 . S
C2493 C2492 1.392 . S
C2493 H2505 0.929 . S
C2494 C2490 1.531 . S
C2494 H2506 0.960 . S
C2494 H2507 0.962 . S
C2494 H2508 0.960 . S
C2495 C2492 1.511 . S
C2495 H2509 0.961 . S
C2495 H2510 0.961 . S
C2495 H2511 0.961 . S
C2496 C2497 1.370 . S
C2496 C2498 1.363 . S
C2496 H2512 0.931 . S
C2497 C2496 1.370 . S
C2497 C2501 1.408 . S
C2498 C2496 1.363 . S
C2498 C2499 1.370 . S
C2498 C2502 1.524 . S
C2499 C2491 1.503 . S
C2499 C2498 1.370 . S
C2499 C2500 1.403 . S
C2500 C2499 1.403 . S
C2500 C2501 1.404 . S
C2500 C2503 1.539 . S
C2501 C2497 1.408 . S
C2501 C2500 1.404 . S
C2501 H2513 0.930 . S
C2502 C2498 1.524 . S
C2502 H2514 0.956 . S
C2502 H2515 0.961 . S
C2502 H2516 0.961 . S
C2503 C2500 1.539 . S
C2503 H2517 0.958 . S
C2503 H2518 0.961 . S
C2503 H2519 0.960 . S
H2504 C2488 0.931 . S
H2505 C2493 0.929 . S
H2506 C2494 0.960 . S
H2507 C2494 0.962 . S
H2508 C2494 0.960 . S
H2509 C2495 0.961 . S
H2510 C2495 0.961 . S
H2511 C2495 0.961 . S
H2512 C2496 0.931 . S
H2513 C2501 0.930 . S
H2514 C2502 0.956 . S
H2515 C2502 0.961 . S
H2516 C2502 0.961 . S
H2517 C2503 0.958 . S
H2518 C2503 0.961 . S
H2519 C2503 0.960 . S
C2520 C2521 1.391 . S
C2520 C2522 1.394 . S
C2520 H2536 0.931 . S
C2521 C2520 1.391 . S
C2521 C2525 1.376 . S
C2522 C2520 1.394 . S
C2522 C2523 1.369 . S
C2522 C2526 1.531 . S
C2523 C2522 1.369 . S
C2523 C2524 1.410 . S
C2523 C2531 1.503 . S
C2524 C2523 1.410 . S
C2524 C2525 1.392 . S
C2524 C2527 1.511 . S
C2525 C2521 1.376 . S
C2525 C2524 1.392 . S
C2525 H2537 0.929 . S
C2526 C2522 1.531 . S
C2526 H2538 0.960 . S
C2526 H2539 0.962 . S
C2526 H2540 0.960 . S
C2527 C2524 1.511 . S
C2527 H2541 0.961 . S
C2527 H2542 0.961 . S
C2527 H2543 0.961 . S
C2528 C2529 1.370 . S
C2528 C2530 1.363 . S
C2528 H2544 0.931 . S
C2529 C2528 1.370 . S
C2529 C2533 1.408 . S
C2530 C2528 1.363 . S
C2530 C2531 1.370 . S
C2530 C2534 1.524 . S
C2531 C2523 1.503 . S
C2531 C2530 1.370 . S
C2531 C2532 1.403 . S
C2532 C2531 1.403 . S
C2532 C2533 1.404 . S
C2532 C2535 1.539 . S
C2533 C2529 1.408 . S
C2533 C2532 1.404 . S
C2533 H2545 0.930 . S
C2534 C2530 1.524 . S
C2534 H2546 0.956 . S
C2534 H2547 0.961 . S
C2534 H2548 0.961 . S
C2535 C2532 1.539 . S
C2535 H2549 0.958 . S
C2535 H2550 0.961 . S
C2535 H2551 0.960 . S
H2536 C2520 0.931 . S
H2537 C2525 0.929 . S
H2538 C2526 0.960 . S
H2539 C2526 0.962 . S
H2540 C2526 0.960 . S
H2541 C2527 0.961 . S
H2542 C2527 0.961 . S
H2543 C2527 0.961 . S
H2544 C2528 0.931 . S
H2545 C2533 0.930 . S
H2546 C2534 0.956 . S
H2547 C2534 0.961 . S
H2548 C2534 0.961 . S
H2549 C2535 0.958 . S
H2550 C2535 0.961 . S
H2551 C2535 0.960 . S
C2552 C2553 1.391 . S
C2552 C2554 1.394 . S
C2552 H2568 0.931 . S
C2553 C2552 1.391 . S
C2553 C2557 1.376 . S
C2554 C2552 1.394 . S
C2554 C2555 1.369 . S
C2554 C2558 1.531 . S
C2555 C2554 1.369 . S
C2555 C2556 1.410 . S
C2555 C2563 1.503 . S
C2556 C2555 1.410 . S
C2556 C2557 1.392 . S
C2556 C2559 1.511 . S
C2557 C2553 1.376 . S
C2557 C2556 1.392 . S
C2557 H2569 0.929 . S
C2558 C2554 1.531 . S
C2558 H2570 0.960 . S
C2558 H2571 0.962 . S
C2558 H2572 0.960 . S
C2559 C2556 1.511 . S
C2559 H2573 0.961 . S
C2559 H2574 0.961 . S
C2559 H2575 0.961 . S
C2560 C2561 1.370 . S
C2560 C2562 1.363 . S
C2560 H2576 0.931 . S
C2561 C2560 1.370 . S
C2561 C2565 1.408 . S
C2562 C2560 1.363 . S
C2562 C2563 1.370 . S
C2562 C2566 1.524 . S
C2563 C2555 1.503 . S
C2563 C2562 1.370 . S
C2563 C2564 1.403 . S
C2564 C2563 1.403 . S
C2564 C2565 1.404 . S
C2564 C2567 1.539 . S
C2565 C2561 1.408 . S
C2565 C2564 1.404 . S
C2565 H2577 0.930 . S
C2566 C2562 1.524 . S
C2566 H2578 0.956 . S
C2566 H2579 0.961 . S
C2566 H2580 0.961 . S
C2567 C2564 1.539 . S
C2567 H2581 0.958 . S
C2567 H2582 0.961 . S
C2567 H2583 0.960 . S
H2568 C2552 0.931 . S
H2569 C2557 0.929 . S
H2570 C2558 0.960 . S
H2571 C2558 0.962 . S
H2572 C2558 0.960 . S
H2573 C2559 0.961 . S
H2574 C2559 0.961 . S
H2575 C2559 0.961 . S
H2576 C2560 0.931 . S
H2577 C2565 0.930 . S
H2578 C2566 0.956 . S
H2579 C2566 0.961 . S
H2580 C2566 0.961 . S
H2581 C2567 0.958 . S
H2582 C2567 0.961 . S
H2583 C2567 0.960 . S
C2584 C2585 1.391 . S
C2584 C2586 1.394 . S
C2584 H2600 0.931 . S
C2585 C2584 1.391 . S
C2585 C2589 1.376 . S
C2586 C2584 1.394 . S
C2586 C2587 1.369 . S
C2586 C2590 1.531 . S
C2587 C2586 1.369 . S
C2587 C2588 1.410 . S
C2587 C2595 1.503 . S
C2588 C2587 1.410 . S
C2588 C2589 1.392 . S
C2588 C2591 1.511 . S
C2589 C2585 1.376 . S
C2589 C2588 1.392 . S
C2589 H2601 0.929 . S
C2590 C2586 1.531 . S
C2590 H2602 0.960 . S
C2590 H2603 0.962 . S
C2590 H2604 0.960 . S
C2591 C2588 1.511 . S
C2591 H2605 0.961 . S
C2591 H2606 0.961 . S
C2591 H2607 0.961 . S
C2592 C2593 1.370 . S
C2592 C2594 1.363 . S
C2592 H2608 0.931 . S
C2593 C2592 1.370 . S
C2593 C2597 1.408 . S
C2594 C2592 1.363 . S
C2594 C2595 1.370 . S
C2594 C2598 1.524 . S
C2595 C2587 1.503 . S
C2595 C2594 1.370 . S
C2595 C2596 1.403 . S
C2596 C2595 1.403 . S
C2596 C2597 1.404 . S
C2596 C2599 1.539 . S
C2597 C2593 1.408 . S
C2597 C2596 1.404 . S
C2597 H2609 0.930 . S
C2598 C2594 1.524 . S
C2598 H2610 0.956 . S
C2598 H2611 0.961 . S
C2598 H2612 0.961 . S
C2599 C2596 1.539 . S
C2599 H2613 0.958 . S
C2599 H2614 0.961 . S
C2599 H2615 0.960 . S
H2600 C2584 0.931 . S
H2601 C2589 0.929 . S
H2602 C2590 0.960 . S
H2603 C2590 0.962 . S
H2604 C2590 0.960 . S
H2605 C2591 0.961 . S
H2606 C2591 0.961 . S
H2607 C2591 0.961 . S
H2608 C2592 0.931 . S
H2609 C2597 0.930 . S
H2610 C2598 0.956 . S
H2611 C2598 0.961 . S
H2612 C2598 0.961 . S
H2613 C2599 0.958 . S
H2614 C2599 0.961 . S
H2615 C2599 0.960 . S
C2616 C2617 1.391 . S
C2616 C2618 1.394 . S
C2616 H2632 0.931 . S
C2617 C2616 1.391 . S
C2617 C2621 1.376 . S
C2618 C2616 1.394 . S
C2618 C2619 1.369 . S
C2618 C2622 1.531 1_455 S
C2619 C2618 1.369 . S
C2619 C2620 1.410 . S
C2619 C2627 1.503 1_455 S
C2620 C2619 1.410 . S
C2620 C2621 1.392 . S
C2620 C2623 1.511 . S
C2621 C2617 1.376 . S
C2621 C2620 1.392 . S
C2621 H2633 0.929 . S
C2622 C2618 1.531 1_655 S
C2622 H2634 0.960 . S
C2622 H2635 0.962 . S
C2622 H2636 0.960 . S
C2623 C2620 1.511 . S
C2623 H2637 0.961 . S
C2623 H2638 0.961 . S
C2623 H2639 0.961 . S
C2624 C2625 1.370 . S
C2624 C2626 1.363 . S
C2624 H2640 0.931 . S
C2625 C2624 1.370 . S
C2625 C2629 1.408 . S
C2626 C2624 1.363 . S
C2626 C2627 1.370 . S
C2626 C2630 1.524 1_655 S
C2627 C2619 1.503 1_655 S
C2627 C2626 1.370 . S
C2627 C2628 1.403 . S
C2628 C2627 1.403 . S
C2628 C2629 1.404 . S
C2628 C2631 1.539 . S
C2629 C2625 1.408 . S
C2629 C2628 1.404 . S
C2629 H2641 0.930 . S
C2630 C2626 1.524 1_455 S
C2630 H2642 0.956 . S
C2630 H2643 0.961 . S
C2630 H2644 0.961 . S
C2631 C2628 1.539 . S
C2631 H2645 0.958 . S
C2631 H2646 0.961 . S
C2631 H2647 0.960 . S
H2632 C2616 0.931 . S
H2633 C2621 0.929 . S
H2634 C2622 0.960 . S
H2635 C2622 0.962 . S
H2636 C2622 0.960 . S
H2637 C2623 0.961 . S
H2638 C2623 0.961 . S
H2639 C2623 0.961 . S
H2640 C2624 0.931 . S
H2641 C2629 0.930 . S
H2642 C2630 0.956 . S
H2643 C2630 0.961 . S
H2644 C2630 0.961 . S
H2645 C2631 0.958 . S
H2646 C2631 0.961 . S
H2647 C2631 0.960 . S
C2648 C2649 1.391 . S
C2648 C2650 1.394 . S
C2648 H2664 0.931 . S
C2649 C2648 1.391 . S
C2649 C2653 1.376 . S
C2650 C2648 1.394 . S
C2650 C2651 1.369 . S
C2650 C2654 1.531 . S
C2651 C2650 1.369 . S
C2651 C2652 1.410 . S
C2651 C2659 1.503 . S
C2652 C2651 1.410 . S
C2652 C2653 1.392 . S
C2652 C2655 1.511 . S
C2653 C2649 1.376 . S
C2653 C2652 1.392 . S
C2653 H2665 0.929 . S
C2654 C2650 1.531 . S
C2654 H2666 0.960 . S
C2654 H2667 0.962 . S
C2654 H2668 0.960 . S
C2655 C2652 1.511 . S
C2655 H2669 0.961 . S
C2655 H2670 0.961 . S
C2655 H2671 0.961 . S
C2656 C2657 1.370 . S
C2656 C2658 1.363 . S
C2656 H2672 0.931 . S
C2657 C2656 1.370 . S
C2657 C2661 1.408 . S
C2658 C2656 1.363 . S
C2658 C2659 1.370 . S
C2658 C2662 1.524 . S
C2659 C2651 1.503 . S
C2659 C2658 1.370 . S
C2659 C2660 1.403 . S
C2660 C2659 1.403 . S
C2660 C2661 1.404 . S
C2660 C2663 1.539 . S
C2661 C2657 1.408 . S
C2661 C2660 1.404 . S
C2661 H2673 0.930 . S
C2662 C2658 1.524 . S
C2662 H2674 0.956 . S
C2662 H2675 0.961 . S
C2662 H2676 0.961 . S
C2663 C2660 1.539 . S
C2663 H2677 0.958 . S
C2663 H2678 0.961 . S
C2663 H2679 0.960 . S
H2664 C2648 0.931 . S
H2665 C2653 0.929 . S
H2666 C2654 0.960 . S
H2667 C2654 0.962 . S
H2668 C2654 0.960 . S
H2669 C2655 0.961 . S
H2670 C2655 0.961 . S
H2671 C2655 0.961 . S
H2672 C2656 0.931 . S
H2673 C2661 0.930 . S
H2674 C2662 0.956 . S
H2675 C2662 0.961 . S
H2676 C2662 0.961 . S
H2677 C2663 0.958 . S
H2678 C2663 0.961 . S
H2679 C2663 0.960 . S
C2680 C2681 1.391 . S
C2680 C2682 1.394 . S
C2680 H2696 0.931 . S
C2681 C2680 1.391 . S
C2681 C2685 1.376 . S
C2682 C2680 1.394 . S
C2682 C2683 1.369 . S
C2682 C2686 1.531 1_545 S
C2683 C2682 1.369 . S
C2683 C2684 1.410 . S
C2683 C2691 1.503 1_545 S
C2684 C2683 1.410 . S
C2684 C2685 1.392 . S
C2684 C2687 1.511 . S
C2685 C2681 1.376 . S
C2685 C2684 1.392 . S
C2685 H2697 0.929 . S
C2686 C2682 1.531 1_565 S
C2686 H2698 0.960 . S
C2686 H2699 0.962 1_565 S
C2686 H2700 0.960 . S
C2687 C2684 1.511 . S
C2687 H2701 0.961 . S
C2687 H2702 0.961 . S
C2687 H2703 0.961 1_545 S
C2688 C2689 1.370 . S
C2688 C2690 1.363 . S
C2688 H2704 0.931 . S
C2689 C2688 1.370 . S
C2689 C2693 1.408 . S
C2690 C2688 1.363 . S
C2690 C2691 1.370 . S
C2690 C2694 1.524 1_565 S
C2691 C2683 1.503 1_565 S
C2691 C2690 1.370 . S
C2691 C2692 1.403 . S
C2692 C2691 1.403 . S
C2692 C2693 1.404 . S
C2692 C2695 1.539 . S
C2693 C2689 1.408 . S
C2693 C2692 1.404 . S
C2693 H2705 0.930 . S
C2694 C2690 1.524 1_545 S
C2694 H2706 0.956 . S
C2694 H2707 0.961 . S
C2694 H2708 0.961 . S
C2695 C2692 1.539 . S
C2695 H2709 0.958 . S
C2695 H2710 0.961 . S
C2695 H2711 0.960 . S
H2696 C2680 0.931 . S
H2697 C2685 0.929 . S
H2698 C2686 0.960 . S
H2699 C2686 0.962 1_545 S
H2700 C2686 0.960 . S
H2701 C2687 0.961 . S
H2702 C2687 0.961 . S
H2703 C2687 0.961 1_565 S
H2704 C2688 0.931 . S
H2705 C2693 0.930 . S
H2706 C2694 0.956 . S
H2707 C2694 0.961 . S
H2708 C2694 0.961 . S
H2709 C2695 0.958 . S
H2710 C2695 0.961 . S
H2711 C2695 0.960 . S
C2712 C2713 1.391 1_556 S
C2712 C2714 1.394 . S
C2712 H2728 0.931 . S
C2713 C2712 1.391 1_554 S
C2713 C2717 1.376 . S
C2714 C2712 1.394 . S
C2714 C2715 1.336 1_556 S
C2714 C2718 1.531 . S
C2715 C2714 1.336 1_554 S
C2715 C2716 1.465 . S
C2715 C2723 1.487 1_544 S
C2716 C2715 1.465 . S
C2716 C2717 1.392 . S
C2716 C2719 1.511 . S
C2717 C2713 1.376 . S
C2717 C2716 1.392 . S
C2717 H2729 0.929 . S
C2718 C2714 1.531 . S
C2718 H2730 0.960 . S
C2718 H2731 0.962 1_545 S
C2718 H2732 0.960 . S
C2719 C2716 1.511 . S
C2719 H2733 0.961 . S
C2719 H2734 0.961 . S
C2719 H2735 0.961 . S
C2720 C2721 1.370 . S
C2720 C2722 1.362 1_556 S
C2720 H2736 0.931 . S
C2721 C2720 1.370 . S
C2721 C2725 1.408 . S
C2722 C2720 1.362 1_554 S
C2722 C2723 1.369 1_554 S
C2722 C2726 1.526 . S
C2723 C2715 1.487 1_566 S
C2723 C2722 1.369 1_556 S
C2723 C2724 1.403 1_565 S
C2724 C2723 1.403 1_545 S
C2724 C2725 1.404 1_545 S
C2724 C2727 1.539 . S
C2725 C2721 1.408 . S
C2725 C2724 1.404 1_565 S
C2725 H2737 0.930 . S
C2726 C2722 1.526 . S
C2726 H2738 0.956 . S
C2726 H2739 0.961 . S
C2726 H2740 0.961 . S
C2727 C2724 1.539 . S
C2727 H2741 0.958 . S
C2727 H2742 0.961 . S
C2727 H2743 0.960 . S
H2728 C2712 0.931 . S
H2729 C2717 0.929 . S
H2730 C2718 0.960 . S
H2731 C2718 0.962 1_565 S
H2732 C2718 0.960 . S
H2733 C2719 0.961 . S
H2734 C2719 0.961 . S
H2735 C2719 0.961 . S
H2736 C2720 0.931 . S
H2737 C2725 0.930 . S
H2738 C2726 0.956 . S
H2739 C2726 0.961 . S
H2740 C2726 0.961 . S
H2741 C2727 0.958 . S
H2742 C2727 0.961 . S
H2743 C2727 0.960 . S
C2744 C2745 1.391 1_556 S
C2744 C2746 1.394 . S
C2744 H2760 0.931 . S
C2745 C2744 1.391 1_554 S
C2745 C2749 1.376 . S
C2746 C2744 1.394 . S
C2746 C2747 1.369 1_556 S
C2746 C2750 1.531 . S
C2747 C2746 1.369 1_554 S
C2747 C2748 1.410 . S
C2747 C2755 1.503 1_654 S
C2748 C2747 1.410 . S
C2748 C2749 1.392 . S
C2748 C2751 1.511 1_655 S
C2749 C2745 1.376 . S
C2749 C2748 1.392 . S
C2749 H2761 0.929 . S
C2750 C2746 1.531 . S
C2750 H2762 0.960 . S
C2750 H2763 0.962 . S
C2750 H2764 0.960 . S
C2751 C2748 1.511 1_455 S
C2751 H2765 0.961 . S
C2751 H2766 0.961 . S
C2751 H2767 0.963 1_455 S
C2752 C2753 1.370 . S
C2752 C2754 1.363 . S
C2752 H2768 0.931 . S
C2753 C2752 1.370 . S
C2753 C2757 1.408 . S
C2754 C2752 1.363 . S
C2754 C2755 1.370 . S
C2754 C2758 1.524 . S
C2755 C2747 1.503 1_456 S
C2755 C2754 1.370 . S
C2755 C2756 1.409 . S
C2756 C2755 1.409 . S
C2756 C2757 1.427 . S
C2756 C2759 1.510 1_456 S
C2757 C2753 1.408 . S
C2757 C2756 1.427 . S
C2757 H2769 0.930 . S
C2758 C2754 1.524 . S
C2758 H2770 0.956 . S
C2758 H2771 0.943 1_556 S
C2758 H2772 0.961 . S
C2759 C2756 1.510 1_654 S
C2759 H2773 0.926 1_554 S
C2759 H2774 0.961 . S
C2759 H2775 0.960 . S
H2760 C2744 0.931 . S
H2761 C2749 0.929 . S
H2762 C2750 0.960 . S
H2763 C2750 0.962 . S
H2764 C2750 0.960 . S
H2765 C2751 0.961 . S
H2766 C2751 0.961 . S
H2767 C2751 0.963 1_655 S
H2768 C2752 0.931 . S
H2769 C2757 0.930 . S
H2770 C2758 0.956 . S
H2771 C2758 0.943 1_554 S
H2772 C2758 0.961 . S
H2773 C2759 0.926 1_556 S
H2774 C2759 0.961 . S
H2775 C2759 0.960 . S
C2776 C2777 1.391 . S
C2776 C2778 1.394 . S
C2776 H2792 0.931 . S
C2777 C2776 1.391 . S
C2777 C2781 1.376 1_556 S
C2778 C2776 1.394 . S
C2778 C2779 1.369 . S
C2778 C2782 1.531 . S
C2779 C2778 1.369 . S
C2779 C2780 1.410 1_556 S
C2779 C2787 1.503 1_556 S
C2780 C2779 1.410 1_554 S
C2780 C2781 1.392 . S
C2780 C2783 1.511 . S
C2781 C2777 1.376 1_554 S
C2781 C2780 1.392 . S
C2781 H2793 0.929 . S
C2782 C2778 1.531 . S
C2782 H2794 0.960 . S
C2782 H2795 0.962 . S
C2782 H2796 0.960 . S
C2783 C2780 1.511 . S
C2783 H2797 0.961 . S
C2783 H2798 0.961 . S
C2783 H2799 0.961 . S
C2784 C2785 1.370 . S
C2784 C2786 1.363 . S
C2784 H2800 0.931 . S
C2785 C2784 1.370 . S
C2785 C2789 1.408 . S
C2786 C2784 1.363 . S
C2786 C2787 1.370 . S
C2786 C2790 1.524 . S
C2787 C2779 1.503 1_554 S
C2787 C2786 1.370 . S
C2787 C2788 1.403 . S
C2788 C2787 1.403 . S
C2788 C2789 1.404 . S
C2788 C2791 1.539 . S
C2789 C2785 1.408 . S
C2789 C2788 1.404 . S
C2789 H2801 0.930 . S
C2790 C2786 1.524 . S
C2790 H2802 0.956 1_554 S
C2790 H2803 0.961 . S
C2790 H2804 0.961 . S
C2791 C2788 1.539 . S
C2791 H2805 0.958 1_554 S
C2791 H2806 0.961 . S
C2791 H2807 0.960 . S
H2792 C2776 0.931 . S
H2793 C2781 0.929 . S
H2794 C2782 0.960 . S
H2795 C2782 0.962 . S
H2796 C2782 0.960 . S
H2797 C2783 0.961 . S
H2798 C2783 0.961 . S
H2799 C2783 0.961 . S
H2800 C2784 0.931 . S
H2801 C2789 0.930 . S
H2802 C2790 0.956 1_556 S
H2803 C2790 0.961 . S
H2804 C2790 0.961 . S
H2805 C2791 0.958 1_556 S
H2806 C2791 0.961 . S
H2807 C2791 0.960 . S
C505 C12 1.020 . S
C513 C18 1.072 . S
C537 C26 1.032 . S
C545 C32 1.080 . S
C569 C4 1.086 . S
C577 C40 1.017 . S
C601 C54 1.056 . S
C609 C74 1.083 . S
C633 C68 1.052 . S
C641 C46 1.080 . S
C665 C60 1.092 . S
C673 C82 1.013 . S
C697 C96 0.960 . S
C705 C102 1.062 . S
C729 C116 1.051 . S
C737 C110 0.984 . S
C761 C88 1.038 . S
C769 C124 0.968 . S
C793 C158 1.056 . S
C801 C138 0.981 . S
C825 C152 1.064 . S
C833 C130 1.084 . S
C857 C166 0.995 . S
C865 C144 1.068 . S
C889 C186 1.040 . S
C897 C180 0.968 . S
C921 C194 1.007 . S
C929 C200 1.070 . S
C953 C208 0.927 . S
C961 C172 1.059 . S
C985 C222 0.999 . S
C993 C242 1.068 . S
C1017 C236 0.998 . S
C1025 C214 1.074 . S
C1049 C250 1.044 . S
C1057 C228 1.082 . S
C1081 C270 1.066 . S
C1089 C264 0.997 . S
C1113 C278 1.056 . S
C1121 C284 1.083 . S
C1145 C256 1.058 . S
C1153 C292 0.991 . S
C1177 C326 1.066 . S
C1185 C306 0.998 . S
C1209 C320 1.013 . S
C1217 C298 1.075 . S
C1241 C312 1.101 . S
C1249 C334 1.024 . S
C1273 C354 1.090 . S
C1281 C348 1.020 . S
C1305 C362 1.010 . S
C1313 C368 1.070 . S
C1337 C376 1.027 . S
C1345 C340 1.079 . S
C1369 C410 1.057 . S
C1377 C390 0.981 . S
C1401 C404 1.017 . S
C1409 C382 1.077 . S
C1433 C396 1.037 . S
C1441 C418 0.966 . S
C1465 C432 0.929 . S
C1473 C438 1.058 . S
C1497 C446 1.033 . S
C1505 C452 1.079 . S
C1529 C460 0.942 . S
C1537 C424 1.062 . S
C1561 C494 1.064 . S
C1569 C474 0.989 . S
C1593 C466 1.081 . S
C1601 C488 1.011 . S
C1625 C502 0.948 . S
C1633 C480 1.063 . S
C1657 C53 1.445 . S
C1665 C11 1.469 . S
C1689 C25 1.511 . S
C1697 C67 1.495 . S
C1721 C81 1.477 . S
C1729 C39 1.485 . S
C1753 C137 1.501 . S
C1761 C95 1.486 . S
C1785 C109 1.497 . S
C1793 C151 1.483 . S
C1817 C165 1.513 . S
C1825 C123 1.494 . S
C1849 C179 1.489 . S
C1857 C221 1.490 . S
C1881 C193 1.458 . S
C1889 C235 1.477 . S
C1913 C207 1.446 . S
C1921 C249 1.469 . S
C1945 C305 1.447 . S
C1953 C263 1.469 . S
C1977 C319 1.486 . S
C1985 C277 1.492 . S
C2009 C291 1.457 . S
C2017 C333 1.480 . S
C2041 C389 1.445 . S
C2049 C347 1.469 . S
C2073 C403 1.509 . S
C2081 C361 1.494 . S
C2105 C375 1.514 . S
C2113 C417 1.498 . S
C2137 C431 1.513 . S
C2145 C473 1.495 . S
C2169 C487 1.471 . S
C2177 C445 1.473 . S
C2201 C459 1.499 . S
C2209 C501 1.484 . S
C2233 C5 1.679 . S
C2241 C257 1.697 . S
C2265 C19 1.715 . S
C2273 C271 1.684 . S
C2297 C33 1.715 . S
C2305 C285 1.684 . S
C2329 C467 1.704 . S
C2337 C47 1.687 . S
C2361 C481 1.667 . S
C2369 C61 1.705 . S
C2393 C75 1.707 . S
C2401 C495 1.686 . S
C2425 C89 1.684 . S
C2433 C341 1.695 . S
C2457 C355 1.716 . S
C2465 C103 1.684 . S
C2489 C369 1.683 . S
C2497 C117 1.696 . S
C2521 C215 1.666 . S
C2529 C131 1.703 . S
C2553 C229 1.677 . S
C2561 C145 1.701 . S
C2585 C243 1.715 . S
C2593 C159 1.683 . S
C2617 C425 1.670 . S
C2625 C173 1.702 . S
C2649 C187 1.712 . S
C2657 C439 1.684 . S
C2681 C201 1.665 . S
C2689 C453 1.705 . S
C2713 C299 1.715 . S
C2721 C383 1.683 . S
C2745 C313 1.712 . S
C2753 C397 1.687 . S
C2777 C411 1.716 . S
C2785 C327 1.684 . S
