# Generated by pormake.
# Topology unb, (4)-cn, num edge types: 1
# Building blocks:
#     Node 0, Type 0, BuildingBlock: NAHDIM_clean_sbu_0, # of connection points: 4
#     Node 1, Type 0, BuildingBlock: NAHDIM_clean_sbu_0, # of connection points: 4
#     Node 2, Type 0, BuildingBlock: NAHDIM_clean_sbu_0, # of connection points: 4
#     Node 3, Type 0, BuildingBlock: NAHDIM_clean_sbu_0, # of connection points: 4
#     Node 4, Type 0, BuildingBlock: NAHDIM_clean_sbu_0, # of connection points: 4
#     Node 5, Type 0, BuildingBlock: NAHDIM_clean_sbu_0, # of connection points: 4
#     Node 6, Type 0, BuildingBlock: NAHDIM_clean_sbu_0, # of connection points: 4
#     Node 7, Type 0, BuildingBlock: NAHDIM_clean_sbu_0, # of connection points: 4
#     Node 8, Type 0, BuildingBlock: NAHDIM_clean_sbu_0, # of connection points: 4
#     Node 9, Type 0, BuildingBlock: NAHDIM_clean_sbu_0, # of connection points: 4
#     Node 10, Type 0, BuildingBlock: NAHDIM_clean_sbu_0, # of connection points: 4
#     Node 11, Type 0, BuildingBlock: NAHDIM_clean_sbu_0, # of connection points: 4
#     Node 12, Type 0, BuildingBlock: NAHDIM_clean_sbu_0, # of connection points: 4
#     Node 13, Type 0, BuildingBlock: NAHDIM_clean_sbu_0, # of connection points: 4
#     Node 14, Type 0, BuildingBlock: NAHDIM_clean_sbu_0, # of connection points: 4
#     Node 15, Type 0, BuildingBlock: NAHDIM_clean_sbu_0, # of connection points: 4
#     Node 16, Type 0, BuildingBlock: NAHDIM_clean_sbu_0, # of connection points: 4
#     Node 17, Type 0, BuildingBlock: NAHDIM_clean_sbu_0, # of connection points: 4
#     Edge 18, Type (0, 0), BuildingBlock: XUDNAN_clean_linker_2, # of connection points: 2
#     Edge 19, Type (0, 0), BuildingBlock: XUDNAN_clean_linker_2, # of connection points: 2
#     Edge 20, Type (0, 0), BuildingBlock: XUDNAN_clean_linker_2, # of connection points: 2
#     Edge 21, Type (0, 0), BuildingBlock: XUDNAN_clean_linker_2, # of connection points: 2
#     Edge 22, Type (0, 0), BuildingBlock: XUDNAN_clean_linker_2, # of connection points: 2
#     Edge 23, Type (0, 0), BuildingBlock: XUDNAN_clean_linker_2, # of connection points: 2
#     Edge 24, Type (0, 0), BuildingBlock: XUDNAN_clean_linker_2, # of connection points: 2
#     Edge 25, Type (0, 0), BuildingBlock: XUDNAN_clean_linker_2, # of connection points: 2
#     Edge 26, Type (0, 0), BuildingBlock: XUDNAN_clean_linker_2, # of connection points: 2
#     Edge 27, Type (0, 0), BuildingBlock: XUDNAN_clean_linker_2, # of connection points: 2
#     Edge 28, Type (0, 0), BuildingBlock: XUDNAN_clean_linker_2, # of connection points: 2
#     Edge 29, Type (0, 0), BuildingBlock: XUDNAN_clean_linker_2, # of connection points: 2
#     Edge 30, Type (0, 0), BuildingBlock: XUDNAN_clean_linker_2, # of connection points: 2
#     Edge 31, Type (0, 0), BuildingBlock: XUDNAN_clean_linker_2, # of connection points: 2
#     Edge 32, Type (0, 0), BuildingBlock: XUDNAN_clean_linker_2, # of connection points: 2
#     Edge 33, Type (0, 0), BuildingBlock: XUDNAN_clean_linker_2, # of connection points: 2
#     Edge 34, Type (0, 0), BuildingBlock: XUDNAN_clean_linker_2, # of connection points: 2
#     Edge 35, Type (0, 0), BuildingBlock: XUDNAN_clean_linker_2, # of connection points: 2
#     Edge 36, Type (0, 0), BuildingBlock: XUDNAN_clean_linker_2, # of connection points: 2
#     Edge 37, Type (0, 0), BuildingBlock: XUDNAN_clean_linker_2, # of connection points: 2
#     Edge 38, Type (0, 0), BuildingBlock: XUDNAN_clean_linker_2, # of connection points: 2
#     Edge 39, Type (0, 0), BuildingBlock: XUDNAN_clean_linker_2, # of connection points: 2
#     Edge 40, Type (0, 0), BuildingBlock: XUDNAN_clean_linker_2, # of connection points: 2
#     Edge 41, Type (0, 0), BuildingBlock: XUDNAN_clean_linker_2, # of connection points: 2
#     Edge 42, Type (0, 0), BuildingBlock: XUDNAN_clean_linker_2, # of connection points: 2
#     Edge 43, Type (0, 0), BuildingBlock: XUDNAN_clean_linker_2, # of connection points: 2
#     Edge 44, Type (0, 0), BuildingBlock: XUDNAN_clean_linker_2, # of connection points: 2
#     Edge 45, Type (0, 0), BuildingBlock: XUDNAN_clean_linker_2, # of connection points: 2
#     Edge 46, Type (0, 0), BuildingBlock: XUDNAN_clean_linker_2, # of connection points: 2
#     Edge 47, Type (0, 0), BuildingBlock: XUDNAN_clean_linker_2, # of connection points: 2
#     Edge 48, Type (0, 0), BuildingBlock: XUDNAN_clean_linker_2, # of connection points: 2
#     Edge 49, Type (0, 0), BuildingBlock: XUDNAN_clean_linker_2, # of connection points: 2
#     Edge 50, Type (0, 0), BuildingBlock: XUDNAN_clean_linker_2, # of connection points: 2
#     Edge 51, Type (0, 0), BuildingBlock: XUDNAN_clean_linker_2, # of connection points: 2
#     Edge 52, Type (0, 0), BuildingBlock: XUDNAN_clean_linker_2, # of connection points: 2
#     Edge 53, Type (0, 0), BuildingBlock: XUDNAN_clean_linker_2, # of connection points: 2
# Relax obj value: 0.066
# Max RMSD: 0.063
# Mean RMSD: 0.063
data_MOF--net-unb--node1-NAHDIM_clean_sbu_0--edge1-XUDNAN_clean_linker_2
_symmetry_space_group_name_H-M    P1
_symmetry_Int_Tables_number       1
_symmetry_cell_setting            triclinic
loop_
_symmetry_equiv_pos_as_xyz
'x, y, z'
_cell_length_a     64.639172
_cell_length_b     64.62058
_cell_length_c     25.71939
_cell_angle_alpha  89.978977
_cell_angle_beta   90.015851
_cell_angle_gamma 119.9858
loop_
_atom_site_label
_atom_site_type_symbol
_atom_site_fract_x
_atom_site_fract_y
_atom_site_fract_z
_atom_type_partial_charge
C0 C 0.14844 0.28162 0.18622 0.0
O1 O 0.13649 0.28981 0.1604 0.0
O2 O 0.14783 0.22894 0.0687 0.0
Zn3 Zn 0.13879 0.25333 0.0929 0.0
O4 O 0.10269 0.2382 0.09224 0.0
C5 C 0.1572 0.27845 0.99557 0.0
O6 O 0.15254 0.25728 0.97932 0.0
O7 O 0.15165 0.26557 0.16534 0.0
C8 C 0.09129 0.23403 0.04957 0.0
O9 O 0.10326 0.2403 0.00569 0.0
C10 C 0.13237 0.20684 0.06533 0.0
O11 O 0.11048 0.19944 0.08135 0.0
O12 O 0.15299 0.2811 0.04269 0.0
C13 C 0.71899 0.86718 0.16651 0.0
O14 O 0.70731 0.87189 0.13098 0.0
O15 O 0.76338 0.91206 0.06458 0.0
Zn16 Zn 0.75066 0.8771 0.08036 0.0
O17 O 0.77608 0.86845 0.06506 0.0
C18 C 0.72568 0.86208 0.98371 0.0
O19 O 0.74687 0.87765 0.96562 0.0
O20 O 0.73884 0.86881 0.15444 0.0
C21 C 0.77101 0.84821 0.04653 0.0
O22 O 0.7485 0.83198 0.03926 0.0
C23 C 0.78536 0.92643 0.05539 0.0
O24 O 0.80071 0.91882 0.05964 0.0
O25 O 0.72291 0.85852 0.03242 0.0
C26 C 0.16385 0.8711 0.19235 0.0
O27 O 0.17502 0.89291 0.17351 0.0
O28 O 0.09944 0.84642 0.09622 0.0
Zn29 Zn 0.13542 0.86245 0.09892 0.0
O30 O 0.14882 0.8981 0.09016 0.0
C31 C 0.13164 0.82729 0.02709 0.0
O32 O 0.11387 0.81381 0.05839 0.0
O33 O 0.14626 0.85486 0.1672 0.0
C34 C 0.15749 0.90905 0.04752 0.0
O35 O 0.15847 0.89707 0.00726 0.0
C36 C 0.09013 0.84848 0.05432 0.0
O37 O 0.10424 0.8618 0.01665 0.0
O38 O 0.1449 0.8493 0.03799 0.0
C39 C 0.27529 0.14007 0.79679 0.0
O40 O 0.28605 0.15677 0.83217 0.0
O41 O 0.22336 0.13082 0.89567 0.0
Zn42 Zn 0.24441 0.11632 0.88356 0.0
O43 O 0.22655 0.08138 0.90436 0.0
C44 C 0.2735 0.14519 0.96978 0.0
O45 O 0.25655 0.15063 0.9746 0.0
O46 O 0.25643 0.12082 0.80927 0.0
C47 C 0.21942 0.07734 0.95134 0.0
O48 O 0.22312 0.09547 0.98084 0.0
C49 C 0.20071 0.11838 0.8944 0.0
O50 O 0.19059 0.09586 0.88033 0.0
O51 O 0.27248 0.13171 0.93267 0.0
C52 C 0.85816 0.14363 0.81122 0.0
O53 O 0.83972 0.12438 0.83027 0.0
O54 O 0.86016 0.10501 0.91228 0.0
Zn55 Zn 0.88072 0.14098 0.90669 0.0
O56 O 0.91524 0.1522 0.92535 0.0
C57 C 0.85422 0.1437 0.9955 0.0
O58 O 0.84309 0.12027 0.99343 0.0
O59 O 0.87775 0.15335 0.83633 0.0
C60 C 0.91915 0.15015 0.97309 0.0
O61 O 0.90087 0.13968 0.00493 0.0
C62 C 0.86808 0.0909 0.92146 0.0
O63 O 0.89126 0.09941 0.92319 0.0
O64 O 0.86982 0.15582 0.96124 0.0
C65 C 0.84014 0.6975 0.86709 0.0
O66 O 0.82595 0.69226 0.9075 0.0
O67 O 0.90536 0.75061 0.95223 0.0
Zn68 Zn 0.87038 0.73614 0.9348 0.0
O69 O 0.85995 0.76091 0.93208 0.0
C70 C 0.85869 0.72714 0.04029 0.0
O71 O 0.87336 0.75034 0.04003 0.0
O72 O 0.86082 0.71598 0.86903 0.0
C73 C 0.87303 0.78252 0.94629 0.0
O74 O 0.89535 0.79018 0.95926 0.0
C75 C 0.92418 0.76575 0.92868 0.0
O76 O 0.92246 0.77416 0.88336 0.0
O77 O 0.85381 0.71582 0.99746 0.0
C78 C 0.80601 0.62075 0.52258 0.0
O79 O 0.82251 0.63466 0.48916 0.0
O80 O 0.80018 0.57384 0.41043 0.0
Zn81 Zn 0.78283 0.59158 0.43073 0.0
O82 O 0.74753 0.5704 0.41686 0.0
C83 C 0.79299 0.61682 0.33536 0.0
O84 O 0.78203 0.59476 0.31796 0.0
O85 O 0.78802 0.60156 0.50645 0.0
C86 C 0.73412 0.57819 0.40054 0.0
O87 O 0.743 0.60132 0.39502 0.0
C88 C 0.78999 0.55562 0.38089 0.0
O89 O 0.76771 0.54762 0.36695 0.0
O90 O 0.79544 0.62041 0.38414 0.0
C91 C 0.37395 0.18714 0.4802 0.0
O92 O 0.39415 0.20693 0.48928 0.0
O93 O 0.41469 0.22605 0.38105 0.0
Zn94 Zn 0.39595 0.18995 0.37964 0.0
O95 O 0.41858 0.1773 0.38977 0.0
C96 C 0.36441 0.18427 0.29482 0.0
O97 O 0.35811 0.19632 0.32584 0.0
O98 O 0.37079 0.17695 0.43626 0.0
C99 C 0.42809 0.17283 0.35129 0.0
O100 O 0.42318 0.17669 0.30392 0.0
C101 C 0.42201 0.23839 0.33957 0.0
O102 O 0.4173 0.22748 0.29441 0.0
O103 O 0.37994 0.17908 0.31016 0.0
C104 C 0.80947 0.19413 0.49469 0.0
O105 O 0.79024 0.17606 0.47453 0.0
O106 O 0.7734 0.20208 0.38854 0.0
Zn107 Zn 0.80906 0.22138 0.40258 0.0
O108 O 0.81957 0.25659 0.39869 0.0
C109 C 0.8186 0.19331 0.32826 0.0
O110 O 0.80035 0.17503 0.3507 0.0
O111 O 0.81925 0.21423 0.47162 0.0
C112 C 0.82945 0.26876 0.35795 0.0
O113 O 0.83279 0.25823 0.31778 0.0
C114 C 0.76731 0.20094 0.34107 0.0
O115 O 0.78393 0.2124 0.30591 0.0
O116 O 0.82583 0.21421 0.34564 0.0
C117 C 0.95719 0.51403 0.15127 0.0
O118 O 0.9542 0.5285 0.1822 0.0
O119 O 0.90244 0.4919 0.23027 0.0
Zn120 Zn 0.9274 0.48164 0.2293 0.0
O121 O 0.91013 0.44598 0.24138 0.0
C122 C 0.96283 0.48972 0.30818 0.0
O123 O 0.96634 0.47466 0.28049 0.0
O124 O 0.94711 0.49198 0.16297 0.0
C125 C 0.89848 0.44007 0.28389 0.0
O126 O 0.89855 0.45691 0.31264 0.0
C127 C 0.90517 0.5093 0.25843 0.0
O128 O 0.92536 0.52197 0.28359 0.0
O129 O 0.94823 0.496 0.29204 0.0
C130 C 0.50181 0.45941 0.14032 0.0
O131 O 0.48642 0.4364 0.14265 0.0
O132 O 0.5056 0.41912 0.24615 0.0
Zn133 Zn 0.52048 0.45513 0.24391 0.0
O134 O 0.55535 0.46955 0.26246 0.0
C135 C 0.5126 0.47319 0.34234 0.0
O136 O 0.53533 0.48097 0.35112 0.0
O137 O 0.517 0.46931 0.17664 0.0
C138 C 0.57047 0.49178 0.26207 0.0
O139 O 0.56367 0.50691 0.24712 0.0
C140 C 0.50895 0.41275 0.29079 0.0
O141 O 0.52178 0.42944 0.32488 0.0
O142 O 0.5033 0.46269 0.29972 0.0
C143 C 0.53855 0.04746 0.17959 0.0
O144 O 0.56084 0.06366 0.1699 0.0
O145 O 0.58115 0.09316 0.26605 0.0
Zn146 Zn 0.54584 0.07162 0.28118 0.0
O147 O 0.52934 0.09106 0.29372 0.0
C148 C 0.55717 0.0588 0.38243 0.0
O149 O 0.57732 0.07908 0.37792 0.0
O150 O 0.52917 0.04806 0.22264 0.0
C151 C 0.52725 0.09688 0.33991 0.0
O152 O 0.53639 0.09076 0.37845 0.0
C153 C 0.59351 0.11288 0.28985 0.0
O154 O 0.58297 0.12012 0.3229 0.0
O155 O 0.54183 0.05198 0.34598 0.0
C156 C 0.47131 0.93432 0.88748 0.0
O157 O 0.45004 0.91542 0.88164 0.0
O158 O 0.49284 0.90835 0.75941 0.0
Zn159 Zn 0.47574 0.9263 0.77773 0.0
O160 O 0.43965 0.90542 0.77433 0.0
C161 C 0.49115 0.94944 0.67861 0.0
O162 O 0.48615 0.92795 0.66404 0.0
O163 O 0.48558 0.9417 0.849 0.0
C164 C 0.42712 0.90075 0.73323 0.0
O165 O 0.43776 0.90922 0.68846 0.0
C166 C 0.48358 0.88634 0.74803 0.0
O167 O 0.4604 0.87219 0.75242 0.0
O168 O 0.48744 0.953 0.72544 0.0
C169 C 0.04764 0.54898 0.82348 0.0
O170 O 0.05149 0.56553 0.78899 0.0
O171 O 0.09227 0.56794 0.71907 0.0
Zn172 Zn 0.06756 0.53451 0.74111 0.0
O173 O 0.08059 0.51192 0.73508 0.0
C174 C 0.0466 0.51993 0.64201 0.0
O175 O 0.06702 0.52061 0.63425 0.0
O176 O 0.05347 0.53339 0.8124 0.0
C177 C 0.10276 0.51895 0.73152 0.0
O178 O 0.11833 0.54182 0.73629 0.0
C179 C 0.10631 0.58575 0.74683 0.0
O180 O 0.10636 0.58332 0.79754 0.0
O181 O 0.04189 0.52457 0.68705 0.0
C182 C 0.46667 0.53398 0.84455 0.0
O183 O 0.47269 0.55644 0.83765 0.0
O184 O 0.41507 0.5229 0.73212 0.0
Zn185 Zn 0.44956 0.53108 0.74011 0.0
O186 O 0.4728 0.56648 0.73296 0.0
C187 C 0.44042 0.49944 0.65263 0.0
O188 O 0.41798 0.49141 0.66509 0.0
O189 O 0.45559 0.51906 0.80838 0.0
C190 C 0.47613 0.57797 0.69073 0.0
O191 O 0.46312 0.56697 0.64974 0.0
C192 C 0.40816 0.53752 0.71954 0.0
O193 O 0.42382 0.56044 0.71736 0.0
O194 O 0.45682 0.51559 0.68037 0.0
C195 C 0.62071 0.81005 0.48316 0.0
O196 O 0.6015 0.81192 0.4775 0.0
O197 O 0.58297 0.8103 0.58738 0.0
Zn198 Zn 0.60161 0.79287 0.58737 0.0
O199 O 0.58048 0.75695 0.59278 0.0
C200 C 0.61074 0.79642 0.69611 0.0
O201 O 0.58745 0.78236 0.69651 0.0
O202 O 0.624 0.80215 0.52581 0.0
C203 C 0.5907 0.74606 0.61108 0.0
O204 O 0.61377 0.75826 0.62031 0.0
C205 C 0.56217 0.80185 0.60666 0.0
O206 O 0.55072 0.77958 0.62278 0.0
O207 O 0.62142 0.80369 0.65275 0.0
C208 C 0.19413 0.80702 0.51367 0.0
O209 O 0.17839 0.7842 0.51873 0.0
O210 O 0.19861 0.76628 0.60954 0.0
Zn211 Zn 0.2125 0.80216 0.6157 0.0
O212 O 0.24736 0.8174 0.6373 0.0
C213 C 0.17271 0.79294 0.68236 0.0
O214 O 0.16098 0.77463 0.65108 0.0
O215 O 0.20975 0.81748 0.54903 0.0
C216 C 0.25316 0.82181 0.68503 0.0
O217 O 0.23643 0.81683 0.71978 0.0
C218 C 0.19765 0.75533 0.65146 0.0
O219 O 0.20636 0.76782 0.69423 0.0
O220 O 0.19454 0.80776 0.67308 0.0
C221 C 0.20116 0.36554 0.52235 0.0
O222 O 0.21452 0.36409 0.55908 0.0
O223 O 0.23604 0.42423 0.59804 0.0
Zn224 Zn 0.20091 0.39949 0.59481 0.0
O225 O 0.1801 0.41478 0.6018 0.0
C226 C 0.20252 0.38965 0.70102 0.0
O227 O 0.21487 0.41309 0.70053 0.0
O228 O 0.1931 0.37975 0.52861 0.0
C229 C 0.18707 0.43462 0.62489 0.0
O230 O 0.20904 0.44662 0.64254 0.0
C231 C 0.24633 0.44441 0.5754 0.0
O232 O 0.23398 0.45012 0.54386 0.0
O233 O 0.19425 0.37858 0.65835 0.0
H234 H 0.17469 0.36451 0.43713 0.0
H235 H 0.21495 0.33284 0.49957 0.0
H236 H 0.20572 0.30787 0.42099 0.0
H237 H 0.12799 0.31098 0.3777 0.0
H238 H 0.12543 0.32625 0.32155 0.0
H239 H 0.13518 0.34169 0.38277 0.0
H240 H 0.17362 0.37483 0.33887 0.0
H241 H 0.16397 0.3595 0.27751 0.0
H242 H 0.19268 0.36676 0.30372 0.0
H243 H 0.19204 0.28615 0.33548 0.0
H244 H 0.17525 0.26968 0.249 0.0
H245 H 0.14405 0.31554 0.24192 0.0
C246 C 0.18157 0.35233 0.43433 0.0
C247 C 0.19556 0.35067 0.47471 0.0
C248 C 0.20421 0.33448 0.46931 0.0
C249 C 0.19905 0.32019 0.42476 0.0
C250 C 0.18522 0.32224 0.38578 0.0
C251 C 0.17662 0.33792 0.39005 0.0
C252 C 0.16224 0.33672 0.34239 0.0
C253 C 0.13616 0.32841 0.35699 0.0
C254 C 0.17383 0.36089 0.31395 0.0
C255 C 0.16411 0.31793 0.31071 0.0
C256 C 0.17741 0.30979 0.33646 0.0
C257 C 0.18159 0.2924 0.31495 0.0
C258 C 0.17196 0.28314 0.26577 0.0
C259 C 0.15831 0.29127 0.23852 0.0
C260 C 0.15439 0.30891 0.2616 0.0
H261 H 0.619 0.82729 0.3865 0.0
H262 H 0.6632 0.81019 0.48427 0.0
H263 H 0.69349 0.82356 0.41465 0.0
H264 H 0.63189 0.80791 0.26593 0.0
H265 H 0.63208 0.83153 0.22825 0.0
H266 H 0.61399 0.82074 0.28597 0.0
H267 H 0.63479 0.86377 0.32317 0.0
H268 H 0.653 0.87467 0.26563 0.0
H269 H 0.66689 0.8803 0.32878 0.0
H270 H 0.7191 0.83894 0.33412 0.0
H271 H 0.73752 0.85423 0.24814 0.0
H272 H 0.67647 0.86111 0.20327 0.0
C273 C 0.63503 0.82633 0.39335 0.0
C274 C 0.6387 0.81769 0.44096 0.0
C275 C 0.65995 0.81672 0.44817 0.0
C276 C 0.67729 0.82431 0.40887 0.0
C277 C 0.67314 0.83281 0.36252 0.0
C278 C 0.65251 0.8338 0.35453 0.0
C279 C 0.6523 0.8435 0.30103 0.0
C280 C 0.63132 0.8248 0.26837 0.0
C281 C 0.65172 0.86695 0.30491 0.0
C282 C 0.67604 0.8478 0.28014 0.0
C283 C 0.68782 0.84158 0.31621 0.0
C284 C 0.71003 0.84388 0.30557 0.0
C285 C 0.72037 0.85261 0.25663 0.0
C286 C 0.70849 0.8589 0.21889 0.0
C287 C 0.68607 0.85652 0.23119 0.0
H288 H 0.16462 0.79006 0.42792 0.0
H289 H 0.22184 0.85506 0.49605 0.0
H290 H 0.22025 0.87819 0.42144 0.0
H291 H 0.18398 0.8053 0.29417 0.0
H292 H 0.15405 0.79201 0.26869 0.0
H293 H 0.15974 0.7804 0.32732 0.0
H294 H 0.12821 0.78662 0.37615 0.0
H295 H 0.12246 0.79829 0.31772 0.0
H296 H 0.13094 0.81578 0.37656 0.0
H297 H 0.21232 0.89445 0.34024 0.0
H298 H 0.19886 0.90278 0.25723 0.0
H299 H 0.14673 0.82736 0.24088 0.0
C300 C 0.17685 0.80915 0.42715 0.0
C301 C 0.19337 0.82072 0.46802 0.0
C302 C 0.20906 0.84574 0.46531 0.0
C303 C 0.20829 0.85907 0.42306 0.0
C304 C 0.19178 0.84715 0.3836 0.0
C305 C 0.17638 0.82276 0.3851 0.0
C306 C 0.16037 0.81438 0.33747 0.0
C307 C 0.16481 0.797 0.305 0.0
C308 C 0.13393 0.80311 0.35292 0.0
C309 C 0.16903 0.83792 0.30925 0.0
C310 C 0.18721 0.85656 0.33655 0.0
C311 C 0.19813 0.87999 0.31846 0.0
C312 C 0.19034 0.88453 0.27117 0.0
C313 C 0.17173 0.86575 0.24235 0.0
C314 C 0.16097 0.84213 0.2619 0.0
H315 H 0.37496 0.20466 0.578 0.0
H316 H 0.33073 0.14557 0.47508 0.0
H317 H 0.30013 0.12751 0.54394 0.0
H318 H 0.36195 0.17041 0.69437 0.0
H319 H 0.36169 0.19296 0.73511 0.0
H320 H 0.37973 0.20153 0.67719 0.0
H321 H 0.35876 0.22432 0.64424 0.0
H322 H 0.34064 0.21582 0.70211 0.0
H323 H 0.32665 0.20879 0.63899 0.0
H324 H 0.27479 0.11527 0.62543 0.0
H325 H 0.25672 0.1101 0.71262 0.0
H326 H 0.31749 0.17744 0.76138 0.0
C327 C 0.35881 0.18797 0.56976 0.0
C328 C 0.35528 0.17655 0.52105 0.0
C329 C 0.33386 0.15469 0.51203 0.0
C330 C 0.31636 0.14428 0.55092 0.0
C331 C 0.32047 0.15597 0.59857 0.0
C332 C 0.34115 0.17737 0.60804 0.0
C333 C 0.34139 0.18615 0.66275 0.0
C334 C 0.36244 0.18785 0.6942 0.0
C335 C 0.34188 0.21019 0.66195 0.0
C336 C 0.31771 0.16626 0.68276 0.0
C337 C 0.30587 0.14903 0.64518 0.0
C338 C 0.28386 0.12872 0.65507 0.0
C339 C 0.27374 0.12593 0.70474 0.0
C340 C 0.28562 0.14337 0.74388 0.0
C341 C 0.30784 0.16382 0.73235 0.0
H342 H 0.79152 0.15501 0.5597 0.0
H343 H 0.85273 0.22591 0.53716 0.0
H344 H 0.87212 0.22028 0.61416 0.0
H345 H 0.79142 0.15744 0.6999 0.0
H346 H 0.78273 0.12644 0.70805 0.0
H347 H 0.77373 0.13593 0.65073 0.0
H348 H 0.79319 0.1175 0.59287 0.0
H349 H 0.80236 0.10806 0.65004 0.0
H350 H 0.82422 0.12654 0.60222 0.0
H351 H 0.88533 0.20675 0.69256 0.0
H352 H 0.89033 0.18717 0.77014 0.0
H353 H 0.82019 0.12547 0.74335 0.0
C354 C 0.80899 0.16937 0.57097 0.0
C355 C 0.8206 0.1909 0.5422 0.0
C356 C 0.84342 0.20927 0.5585 0.0
C357 C 0.85464 0.20622 0.60215 0.0
C358 C 0.84279 0.18475 0.62937 0.0
C359 C 0.8204 0.1667 0.61472 0.0
C360 C 0.8114 0.14555 0.65136 0.0
C361 C 0.78847 0.14109 0.67916 0.0
C362 C 0.80757 0.12309 0.62238 0.0
C363 C 0.83224 0.15454 0.68885 0.0
C364 C 0.85022 0.17713 0.67522 0.0
C365 C 0.87133 0.18908 0.70371 0.0
C366 C 0.87404 0.17778 0.74766 0.0
C367 C 0.85566 0.15479 0.76298 0.0
C368 C 0.83457 0.14305 0.73281 0.0
H369 H 0.86202 0.70568 0.77106 0.0
H370 H 0.79926 0.65443 0.85684 0.0
H371 H 0.78453 0.62881 0.77912 0.0
H372 H 0.83193 0.70014 0.65073 0.0
H373 H 0.85605 0.70293 0.61061 0.0
H374 H 0.86231 0.71691 0.67363 0.0
H375 H 0.88454 0.69445 0.69996 0.0
H376 H 0.87835 0.6804 0.63698 0.0
H377 H 0.86938 0.66234 0.69502 0.0
H378 H 0.77604 0.60901 0.69203 0.0
H379 H 0.774 0.59673 0.60054 0.0
H380 H 0.84192 0.66085 0.57022 0.0
C381 C 0.84527 0.68899 0.7736 0.0
C382 C 0.83184 0.68207 0.82021 0.0
C383 C 0.80989 0.66017 0.82168 0.0
C384 C 0.80137 0.64543 0.77773 0.0
C385 C 0.81494 0.65281 0.7324 0.0
C386 C 0.8364 0.67407 0.72989 0.0
C387 C 0.84711 0.67807 0.67582 0.0
C388 C 0.84948 0.70086 0.65126 0.0
C389 C 0.87128 0.67885 0.67704 0.0
C390 C 0.82824 0.65582 0.64836 0.0
C391 C 0.80991 0.64145 0.68184 0.0
C392 C 0.79031 0.62008 0.66544 0.0
C393 C 0.78933 0.61325 0.61334 0.0
C394 C 0.80779 0.62778 0.57805 0.0
C395 C 0.82753 0.64929 0.59613 0.0
H396 H 0.97181 0.4907 0.08322 0.0
H397 H 0.97599 0.55897 0.11132 0.0
H398 H 0.00024 0.57529 0.03218 0.0
H399 H 0.03231 0.51524 0.03434 0.0
H400 H 0.02426 0.49227 0.98599 0.0
H401 H 0.00725 0.48573 0.04525 0.0
H402 H 0.96849 0.47148 0.99177 0.0
H403 H 0.98537 0.47793 0.93237 0.0
H404 H 0.96706 0.49123 0.9442 0.0
H405 H 0.02277 0.58403 0.9489 0.0
H406 H 0.04312 0.58493 0.86716 0.0
H407 H 0.0258 0.51159 0.89313 0.0
C408 C 0.97784 0.50908 0.07272 0.0
C409 C 0.97192 0.52352 0.10357 0.0
C410 C 0.98027 0.54752 0.08851 0.0
C411 C 0.99408 0.55699 0.04354 0.0
C412 C 0.99958 0.54233 0.01405 0.0
C413 C 0.99185 0.51893 0.028 0.0
C414 C 0.00034 0.50709 0.98914 0.0
C415 C 0.01704 0.49965 0.01525 0.0
C416 C 0.97904 0.48567 0.96281 0.0
C417 C 0.01385 0.52745 0.95104 0.0
C418 C 0.01311 0.54757 0.96623 0.0
C419 C 0.02361 0.56844 0.93673 0.0
C420 C 0.0351 0.56875 0.89028 0.0
C421 C 0.03616 0.54839 0.8738 0.0
C422 C 0.02552 0.52753 0.90495 0.0
H423 H 0.47461 0.44481 0.05058 0.0
H424 H 0.52543 0.5081 0.13564 0.0
H425 H 0.52157 0.53354 0.06968 0.0
H426 H 0.49539 0.4701 0.92146 0.0
H427 H 0.46586 0.45529 0.89352 0.0
H428 H 0.47271 0.44181 0.9472 0.0
H429 H 0.43744 0.43972 0.99938 0.0
H430 H 0.43058 0.45333 0.946 0.0
H431 H 0.43612 0.46663 0.00976 0.0
H432 H 0.51114 0.55223 0.99755 0.0
H433 H 0.49692 0.56335 0.91944 0.0
H434 H 0.45377 0.4884 0.87799 0.0
C435 C 0.48502 0.46402 0.05515 0.0
C436 C 0.5003 0.47441 0.09847 0.0
C437 C 0.51365 0.49965 0.10286 0.0
C438 C 0.51154 0.5143 0.06564 0.0
C439 C 0.49616 0.50352 0.02385 0.0
C440 C 0.48332 0.479 0.01793 0.0
C441 C 0.46826 0.47214 0.96885 0.0
C442 C 0.47602 0.45907 0.93049 0.0
C443 C 0.44151 0.45707 0.98179 0.0
C444 C 0.47449 0.49665 0.94856 0.0
C445 C 0.49054 0.51444 0.98115 0.0
C446 C 0.49869 0.53849 0.9715 0.0
C447 C 0.49042 0.54461 0.92703 0.0
C448 C 0.47426 0.52678 0.8924 0.0
C449 C 0.46618 0.50245 0.90355 0.0
H450 H 0.55215 0.0416 0.08167 0.0
H451 H 0.49341 0.00934 0.19173 0.0
H452 H 0.47041 0.97655 0.1299 0.0
H453 H 0.5158 0.0275 0.9666 0.0
H454 H 0.53533 0.0215 0.92739 0.0
H455 H 0.54734 0.04235 0.98057 0.0
H456 H 0.56559 0.0181 0.01992 0.0
H457 H 0.55354 0.99712 0.96696 0.0
H458 H 0.5465 0.98671 0.03313 0.0
H459 H 0.45376 0.94717 0.05657 0.0
H460 H 0.44399 0.92392 0.97528 0.0
H461 H 0.51331 0.9753 0.91217 0.0
C462 C 0.53445 0.02765 0.09281 0.0
C463 C 0.52463 0.02807 0.14169 0.0
C464 C 0.50136 0.00947 0.15458 0.0
C465 C 0.48815 0.99072 0.11975 0.0
C466 C 0.49839 0.99079 0.07207 0.0
C467 C 0.52096 0.00881 0.05841 0.0
C468 C 0.52765 0.00476 0.00437 0.0
C469 C 0.53176 0.02524 0.96757 0.0
C470 C 0.54962 0.00148 0.00624 0.0
C471 C 0.5053 0.98168 0.98982 0.0
C472 C 0.4887 0.9739 0.02953 0.0
C473 C 0.46662 0.95308 0.02518 0.0
C474 C 0.46125 0.93997 0.97881 0.0
C475 C 0.47786 0.94773 0.93724 0.0
C476 C 0.50024 0.96882 0.94319 0.0
H477 H 0.15784 0.27672 0.88913 0.0
H478 H 0.17663 0.32589 0.01888 0.0
H479 H 0.19102 0.35966 0.95734 0.0
H480 H 0.20746 0.31504 0.80572 0.0
H481 H 0.18984 0.30566 0.74709 0.0
H482 H 0.18182 0.28544 0.80134 0.0
H483 H 0.13934 0.28012 0.80184 0.0
H484 H 0.14722 0.30035 0.74765 0.0
H485 H 0.13594 0.3061 0.8067 0.0
H486 H 0.2033 0.38791 0.88221 0.0
H487 H 0.21134 0.40892 0.7983 0.0
H488 H 0.18329 0.34126 0.71688 0.0
C489 C 0.16516 0.29461 0.90464 0.0
C490 C 0.16625 0.29872 0.95883 0.0
C491 C 0.17564 0.32234 0.97753 0.0
C492 C 0.1839 0.34163 0.94291 0.0
C493 C 0.18247 0.33694 0.88975 0.0
C494 C 0.17324 0.31403 0.87064 0.0
C495 C 0.17301 0.31381 0.8117 0.0
C496 C 0.18899 0.30444 0.79021 0.0
C497 C 0.14735 0.29923 0.79076 0.0
C498 C 0.18354 0.34021 0.80066 0.0
C499 C 0.18902 0.35322 0.84627 0.0
C500 C 0.19907 0.37793 0.84623 0.0
C501 C 0.20359 0.38969 0.7983 0.0
C502 C 0.1979 0.37673 0.75098 0.0
C503 C 0.18775 0.35164 0.75236 0.0
H504 H 0.65878 0.8271 0.70982 0.0
H505 H 0.59327 0.78116 0.794 0.0
H506 H 0.61569 0.79245 0.87657 0.0
H507 H 0.69766 0.81505 0.7888 0.0
H508 H 0.72225 0.8453 0.78562 0.0
H509 H 0.7011 0.83337 0.73295 0.0
H510 H 0.69277 0.8685 0.74202 0.0
H511 H 0.7139 0.88055 0.79468 0.0
H512 H 0.68364 0.87419 0.8041 0.0
H513 H 0.64508 0.80885 0.94995 0.0
H514 H 0.67941 0.82979 0.00937 0.0
H515 H 0.72567 0.8652 0.87734 0.0
C516 C 0.64914 0.81936 0.74558 0.0
C517 C 0.62427 0.80324 0.74545 0.0
C518 C 0.61232 0.79358 0.79313 0.0
C519 C 0.62489 0.79984 0.84024 0.0
C520 C 0.64938 0.8158 0.839 0.0
C521 C 0.66139 0.82546 0.79297 0.0
C522 C 0.68771 0.84246 0.80248 0.0
C523 C 0.70308 0.8335 0.77589 0.0
C524 C 0.69492 0.86793 0.78477 0.0
C525 C 0.68859 0.84088 0.86107 0.0
C526 C 0.66631 0.82535 0.88136 0.0
C527 C 0.66263 0.82105 0.93455 0.0
C528 C 0.68224 0.83302 0.96796 0.0
C529 C 0.70523 0.84914 0.94803 0.0
C530 C 0.70835 0.853 0.89382 0.0
H531 H 0.16796 0.84912 0.95562 0.0
H532 H 0.10111 0.78365 0.98494 0.0
H533 H 0.10376 0.76838 0.89886 0.0
H534 H 0.15837 0.85411 0.82046 0.0
H535 H 0.18899 0.86489 0.80201 0.0
H536 H 0.1821 0.87076 0.86629 0.0
H537 H 0.20479 0.85108 0.90684 0.0
H538 H 0.21194 0.84535 0.8427 0.0
H539 H 0.19678 0.8211 0.88818 0.0
H540 H 0.11289 0.76068 0.80864 0.0
H541 H 0.12967 0.75966 0.72315 0.0
H542 H 0.19106 0.82966 0.7532 0.0
C543 C 0.15395 0.83151 0.94408 0.0
C544 C 0.13432 0.8176 0.97705 0.0
C545 C 0.11638 0.79463 0.96049 0.0
C546 C 0.11766 0.78582 0.91154 0.0
C547 C 0.13706 0.80011 0.87972 0.0
C548 C 0.15503 0.82235 0.89548 0.0
C549 C 0.17413 0.83393 0.85407 0.0
C550 C 0.17599 0.85731 0.83456 0.0
C551 C 0.19834 0.8381 0.87415 0.0
C552 C 0.16402 0.81475 0.81255 0.0
C553 C 0.14254 0.79548 0.82798 0.0
C554 C 0.12974 0.77563 0.79614 0.0
C555 C 0.13938 0.77527 0.74754 0.0
C556 C 0.16167 0.79457 0.73143 0.0
C557 C 0.17397 0.81463 0.76433 0.0
H558 H 0.32932 0.19067 0.25094 0.0
H559 H 0.37716 0.16328 0.21849 0.0
H560 H 0.36091 0.15275 0.12955 0.0
H561 H 0.27931 0.14564 0.18234 0.0
H562 H 0.26955 0.16561 0.15858 0.0
H563 H 0.28581 0.17204 0.2188 0.0
H564 H 0.31713 0.21366 0.18334 0.0
H565 H 0.30101 0.20728 0.12283 0.0
H566 H 0.33214 0.21571 0.12287 0.0
H567 H 0.33863 0.14403 0.04521 0.0
H568 H 0.31064 0.13615 0.97264 0.0
H569 H 0.2774 0.16924 0.06026 0.0
C570 C 0.33647 0.18257 0.22508 0.0
C571 C 0.35452 0.17782 0.24167 0.0
C572 C 0.3633 0.16707 0.2067 0.0
C573 C 0.35426 0.16111 0.15601 0.0
C574 C 0.33649 0.16605 0.1409 0.0
C575 C 0.32763 0.17647 0.17441 0.0
C576 C 0.30789 0.17905 0.14914 0.0
C577 C 0.28424 0.16472 0.17899 0.0
C578 C 0.31498 0.2055 0.14425 0.0
C579 C 0.30682 0.16815 0.09643 0.0
C580 C 0.3236 0.16095 0.0923 0.0
C581 C 0.3255 0.14971 0.04784 0.0
C582 C 0.30953 0.14533 0.00683 0.0
C583 C 0.29185 0.15211 0.01071 0.0
C584 C 0.29081 0.164 0.05587 0.0
H585 H 0.82355 0.12319 0.07769 0.0
H586 H 0.87826 0.19161 0.01683 0.0
H587 H 0.87572 0.21148 0.09644 0.0
H588 H 0.78804 0.14535 0.14016 0.0
H589 H 0.78048 0.12542 0.19491 0.0
H590 H 0.7862 0.11674 0.13241 0.0
H591 H 0.81867 0.10965 0.17401 0.0
H592 H 0.81325 0.11859 0.23651 0.0
H593 H 0.84294 0.13354 0.20937 0.0
H594 H 0.86838 0.22372 0.18353 0.0
H595 H 0.85456 0.22807 0.26996 0.0
H596 H 0.80443 0.15171 0.27408 0.0
C597 C 0.83484 0.14238 0.08082 0.0
C598 C 0.85111 0.15584 0.04099 0.0
C599 C 0.86561 0.18092 0.04673 0.0
C600 C 0.86438 0.19237 0.0919 0.0
C601 C 0.8485 0.1785 0.13081 0.0
C602 C 0.83381 0.15411 0.12557 0.0
C603 C 0.8183 0.14338 0.17324 0.0
C604 C 0.79168 0.13206 0.15934 0.0
C605 C 0.82362 0.12522 0.19985 0.0
C606 C 0.82666 0.16557 0.20618 0.0
C607 C 0.84415 0.1856 0.18103 0.0
C608 C 0.85464 0.20818 0.20358 0.0
C609 C 0.84671 0.21044 0.25279 0.0
C610 C 0.82841 0.19022 0.27884 0.0
C611 C 0.81851 0.16748 0.25531 0.0
H612 H 0.83076 0.67878 0.05675 0.0
H613 H 0.86486 0.74714 0.13663 0.0
H614 H 0.8503 0.72644 0.22053 0.0
H615 H 0.77815 0.64959 0.14024 0.0
H616 H 0.77698 0.62115 0.13805 0.0
H617 H 0.78902 0.64142 0.08384 0.0
H618 H 0.82834 0.64004 0.09022 0.0
H619 H 0.81644 0.61982 0.14447 0.0
H620 H 0.8444 0.64739 0.15097 0.0
H621 H 0.83369 0.69836 0.29616 0.0
H622 H 0.81593 0.66466 0.35817 0.0
H623 H 0.79264 0.61471 0.22903 0.0
C624 C 0.83497 0.68941 0.09181 0.0
C625 C 0.84893 0.71458 0.09009 0.0
C626 C 0.85418 0.72783 0.13693 0.0
C627 C 0.84597 0.71625 0.18483 0.0
C628 C 0.83247 0.69142 0.18525 0.0
C629 C 0.82693 0.67814 0.14001 0.0
C630 C 0.81276 0.65163 0.15143 0.0
C631 C 0.78774 0.64029 0.12694 0.0
C632 C 0.8263 0.63899 0.1332 0.0
C633 C 0.81151 0.6521 0.21016 0.0
C634 C 0.82287 0.67522 0.2289 0.0
C635 C 0.82459 0.68016 0.28197 0.0
C636 C 0.81448 0.66091 0.31687 0.0
C637 C 0.80286 0.63706 0.29848 0.0
C638 C 0.80129 0.63272 0.24436 0.0
H639 H 0.99968 0.48569 0.35043 0.0
H640 H 0.94938 0.50983 0.3848 0.0
H641 H 0.96463 0.51921 0.47463 0.0
H642 H 0.99642 0.45837 0.473 0.0
H643 H 0.02781 0.46798 0.4757 0.0
H644 H 0.01314 0.46329 0.41373 0.0
H645 H 0.0439 0.50655 0.38602 0.0
H646 H 0.0588 0.5113 0.44772 0.0
H647 H 0.04844 0.53118 0.42675 0.0
H648 H 0.98405 0.52429 0.5618 0.0
H649 H 0.00912 0.52841 0.63802 0.0
H650 H 0.04772 0.50243 0.54588 0.0
C651 C 0.99197 0.49307 0.37677 0.0
C652 C 0.97333 0.49698 0.36064 0.0
C653 C 0.96377 0.50677 0.39621 0.0
C654 C 0.97221 0.51205 0.44742 0.0
C655 C 0.99038 0.50767 0.46229 0.0
C656 C 0.00038 0.49872 0.42788 0.0
C657 C 0.02006 0.49613 0.4535 0.0
C658 C 0.01398 0.46988 0.45401 0.0
C659 C 0.04423 0.51226 0.42692 0.0
C660 C 0.01941 0.50487 0.50775 0.0
C661 C 0.00203 0.51124 0.51215 0.0
C662 C 0.99783 0.51949 0.55879 0.0
C663 C 0.01207 0.52166 0.6019 0.0
C664 C 0.03041 0.51582 0.5978 0.0
C665 C 0.03392 0.50714 0.55015 0.0
H666 H 0.48503 0.51163 0.61664 0.0
H667 H 0.40962 0.46942 0.5786 0.0
H668 H 0.41992 0.45832 0.49472 0.0
H669 H 0.50545 0.53451 0.48976 0.0
H670 H 0.53245 0.53291 0.49433 0.0
H671 H 0.5192 0.53698 0.55219 0.0
H672 H 0.51732 0.49948 0.5935 0.0
H673 H 0.53075 0.49541 0.53594 0.0
H674 H 0.50257 0.47146 0.55901 0.0
H675 H 0.43846 0.45323 0.41354 0.0
H676 H 0.46387 0.45236 0.34297 0.0
H677 H 0.5271 0.4974 0.43481 0.0
C678 C 0.47066 0.4999 0.5909 0.0
C679 C 0.44652 0.4914 0.60418 0.0
C680 C 0.42825 0.4761 0.56934 0.0
C681 C 0.43391 0.46975 0.52154 0.0
C682 C 0.4579 0.47874 0.50934 0.0
C683 C 0.47597 0.4933 0.54319 0.0
C684 C 0.50031 0.5006 0.52067 0.0
C685 C 0.51522 0.52787 0.51383 0.0
C686 C 0.51351 0.49117 0.55428 0.0
C687 C 0.4931 0.48799 0.4687 0.0
C688 C 0.46857 0.47556 0.46284 0.0
C689 C 0.45769 0.4628 0.41777 0.0
C690 C 0.47229 0.46249 0.37783 0.0
C691 C 0.49747 0.47478 0.3834 0.0
C692 C 0.50792 0.48777 0.42941 0.0
H693 H 0.48711 0.94747 0.57279 0.0
H694 H 0.5209 0.99651 0.70132 0.0
H695 H 0.54231 0.02971 0.63905 0.0
H696 H 0.53631 0.97286 0.48509 0.0
H697 H 0.51841 0.96875 0.42811 0.0
H698 H 0.50578 0.94878 0.48262 0.0
H699 H 0.47139 0.95836 0.48795 0.0
H700 H 0.48379 0.97818 0.43314 0.0
H701 H 0.47842 0.98901 0.49331 0.0
H702 H 0.56187 0.05683 0.56292 0.0
H703 H 0.57441 0.07742 0.47819 0.0
H704 H 0.52559 0.01132 0.3994 0.0
C705 C 0.49896 0.96523 0.58774 0.0
C706 C 0.50252 0.9695 0.64171 0.0
C707 C 0.51791 0.99295 0.66004 0.0
C708 C 0.53023 0.01186 0.62502 0.0
C709 C 0.52658 0.007 0.57197 0.0
C710 C 0.51099 0.98437 0.55339 0.0
C711 C 0.50965 0.98413 0.4946 0.0
C712 C 0.51804 0.96765 0.47125 0.0
C713 C 0.48431 0.97701 0.47618 0.0
C714 C 0.52716 0.01011 0.48299 0.0
C715 C 0.53695 0.02292 0.52814 0.0
C716 C 0.55417 0.04707 0.52731 0.0
C717 C 0.56127 0.05855 0.47902 0.0
C718 C 0.55088 0.04594 0.43241 0.0
C719 C 0.53368 0.0214 0.43452 0.0
H720 H 0.17646 0.21516 0.03238 0.0
H721 H 0.10166 0.16018 0.04025 0.0
H722 H 0.11085 0.13226 0.99436 0.0
H723 H 0.18824 0.20031 0.90516 0.0
H724 H 0.21777 0.20599 0.92133 0.0
H725 H 0.20544 0.22192 0.95458 0.0
H726 H 0.2124 0.20737 0.04333 0.0
H727 H 0.2249 0.19155 0.01038 0.0
H728 H 0.20015 0.17582 0.05439 0.0
H729 H 0.12788 0.11036 0.94681 0.0
H730 H 0.15213 0.0951 0.90589 0.0
H731 H 0.21602 0.16395 0.93005 0.0
C732 C 0.16201 0.19723 0.02457 0.0
C733 C 0.13832 0.18989 0.03992 0.0
C734 C 0.11996 0.16624 0.02904 0.0
C735 C 0.12497 0.15025 0.00278 0.0
C736 C 0.14845 0.1581 0.9878 0.0
C737 C 0.16672 0.18095 0.99864 0.0
C738 C 0.19048 0.18467 0.97919 0.0
C739 C 0.2011 0.20439 0.93759 0.0
C740 C 0.20801 0.19017 0.02453 0.0
C741 C 0.18268 0.16033 0.95583 0.0
C742 C 0.15834 0.14534 0.9609 0.0
C743 C 0.14697 0.12192 0.94262 0.0
C744 C 0.16091 0.11344 0.91929 0.0
C745 C 0.18599 0.1283 0.91466 0.0
C746 C 0.19689 0.15214 0.93277 0.0
H747 H 0.87914 0.05694 0.95279 0.0
H748 H 0.81919 0.06816 0.92479 0.0
H749 H 0.79152 0.02738 0.95639 0.0
H750 H 0.84929 0.99449 0.91446 0.0
H751 H 0.86365 0.98647 0.96425 0.0
H752 H 0.87857 0.01623 0.93756 0.0
H753 H 0.88326 0.03371 0.03031 0.0
H754 H 0.86815 0.00401 0.05723 0.0
H755 H 0.85714 0.02419 0.07032 0.0
H756 H 0.77049 0.98593 0.99434 0.0
H757 H 0.75746 0.94604 0.0315 0.0
H758 H 0.83116 0.96196 0.03449 0.0
C759 C 0.86017 0.05076 0.95269 0.0
C760 C 0.85135 0.06577 0.93616 0.0
C761 C 0.8264 0.05699 0.93709 0.0
C762 C 0.81052 0.03387 0.95511 0.0
C763 C 0.81986 0.01972 0.97197 0.0
C764 C 0.84408 0.02775 0.97057 0.0
C765 C 0.84954 0.0091 0.99159 0.0
C766 C 0.86093 0.0011 0.94944 0.0
C767 C 0.86546 0.01831 0.04025 0.0
C768 C 0.82461 0.98934 0.00513 0.0
C769 C 0.80775 0.99584 0.99368 0.0
C770 C 0.78352 0.98061 0.00329 0.0
C771 C 0.77631 0.95801 0.02459 0.0
C772 C 0.79327 0.95083 0.03592 0.0
C773 C 0.81774 0.96686 0.02626 0.0
H774 H 0.96858 0.80055 0.89438 0.0
H775 H 0.93268 0.75226 0.02331 0.0
H776 H 0.97094 0.76871 0.06993 0.0
H777 H 0.02279 0.79732 0.90033 0.0
H778 H 0.04195 0.82841 0.88447 0.0
H779 H 0.01168 0.81272 0.86086 0.0
H780 H 0.00387 0.84457 0.90322 0.0
H781 H 0.03408 0.86026 0.92725 0.0
H782 H 0.00942 0.85077 0.97173 0.0
H783 H 0.01288 0.79067 0.10357 0.0
H784 H 0.05617 0.81562 0.11997 0.0
H785 H 0.06498 0.8495 0.9694 0.0
C786 C 0.96878 0.79334 0.93228 0.0
C787 C 0.94756 0.77509 0.95507 0.0
C788 C 0.94864 0.76622 0.00488 0.0
C789 C 0.9703 0.77548 0.03183 0.0
C790 C 0.9908 0.7936 0.00855 0.0
C791 C 0.9903 0.80238 0.95982 0.0
C792 C 0.01498 0.82187 0.94364 0.0
C793 C 0.02334 0.81464 0.89441 0.0
C794 C 0.01561 0.84578 0.93602 0.0
C795 C 0.02938 0.82258 0.99083 0.0
C796 C 0.01507 0.80621 0.02791 0.0
C797 C 0.0243 0.80356 0.07482 0.0
C798 C 0.0489 0.81785 0.08384 0.0
C799 C 0.06399 0.83453 0.04604 0.0
C800 C 0.05395 0.83695 0.99914 0.0
H801 H 0.82561 0.76941 0.94213 0.0
H802 H 0.89602 0.82977 0.97398 0.0
H803 H 0.87765 0.85376 0.99987 0.0
H804 H 0.79877 0.80403 0.89237 0.0
H805 H 0.77033 0.78446 0.92234 0.0
H806 H 0.78924 0.77288 0.90182 0.0
H807 H 0.78788 0.75697 0.99501 0.0
H808 H 0.7692 0.7687 0.01597 0.0
H809 H 0.79691 0.77735 0.0492 0.0
H810 H 0.85143 0.87022 0.02824 0.0
H811 H 0.81938 0.87834 0.05419 0.0
H812 H 0.76619 0.807 0.00458 0.0
C813 C 0.83724 0.78782 0.95352 0.0
C814 C 0.86229 0.79774 0.9558 0.0
C815 C 0.87679 0.8218 0.97173 0.0
C816 C 0.86653 0.83557 0.98655 0.0
C817 C 0.84174 0.82505 0.9851 0.0
C818 C 0.82729 0.80177 0.96862 0.0
C819 C 0.80111 0.79431 0.97301 0.0
C820 C 0.78917 0.78859 0.91918 0.0
C821 C 0.78802 0.77308 0.01054 0.0
C822 C 0.80308 0.81689 0.99536 0.0
C823 C 0.82665 0.83446 0.00178 0.0
C824 C 0.8329 0.85666 0.02301 0.0
C825 C 0.81456 0.86107 0.0378 0.0
C826 C 0.79026 0.84331 0.03146 0.0
C827 C 0.78457 0.82097 0.00989 0.0
H828 H 0.17677 0.93786 0.96177 0.0
H829 H 0.15657 0.93866 0.12251 0.0
H830 H 0.16938 0.98145 0.11434 0.0
H831 H 0.22934 0.99614 0.96258 0.0
H832 H 0.22499 0.0033 0.89721 0.0
H833 H 0.21402 0.97264 0.91548 0.0
H834 H 0.17153 0.96178 0.88524 0.0
H835 H 0.18234 0.99243 0.86705 0.0
H836 H 0.15774 0.97776 0.91185 0.0
H837 H 0.18432 0.02397 0.08909 0.0
H838 H 0.20143 0.06385 0.04927 0.0
H839 H 0.21211 0.03574 0.90466 0.0
C840 C 0.17504 0.94702 0.99531 0.0
C841 C 0.16563 0.93486 0.04282 0.0
C842 C 0.16371 0.94755 0.08572 0.0
C843 C 0.17091 0.97186 0.08145 0.0
C844 C 0.17999 0.98325 0.03404 0.0
C845 C 0.18216 0.9713 0.99175 0.0
C846 C 0.19273 0.98784 0.94539 0.0
C847 C 0.21669 0.99011 0.92924 0.0
C848 C 0.17502 0.97945 0.89969 0.0
C849 C 0.19623 0.01098 0.96831 0.0
C850 C 0.18869 0.00787 0.01945 0.0
C851 C 0.19028 0.02663 0.04907 0.0
C852 C 0.20003 0.04924 0.02601 0.0
C853 C 0.20812 0.05297 0.97378 0.0
C854 C 0.20601 0.03347 0.94456 0.0
H855 H 0.96171 0.17397 0.91937 0.0
H856 H 0.93227 0.15005 0.07391 0.0
H857 H 0.97295 0.16899 0.11018 0.0
H858 H 0.01265 0.16521 0.93569 0.0
H859 H 0.03248 0.19139 0.89855 0.0
H860 H 0.00097 0.17551 0.88445 0.0
H861 H 0.99958 0.21458 0.89725 0.0
H862 H 0.03105 0.23053 0.91171 0.0
H863 H 0.01009 0.23086 0.95744 0.0
H864 H 0.01674 0.19151 0.13045 0.0
H865 H 0.06083 0.21464 0.13241 0.0
H866 H 0.0619 0.22361 0.96488 0.0
C867 C 0.96382 0.17258 0.96077 0.0
C868 C 0.94375 0.16051 0.99374 0.0
C869 C 0.94732 0.15915 0.04776 0.0
C870 C 0.97038 0.1699 0.06884 0.0
C871 C 0.98975 0.18188 0.03543 0.0
C872 C 0.98676 0.18316 0.98253 0.0
C873 C 0.01064 0.1972 0.95531 0.0
C874 C 0.0144 0.18138 0.9162 0.0
C875 C 0.01297 0.21962 0.92888 0.0
C876 C 0.02745 0.2037 0.00124 0.0
C877 C 0.01504 0.19472 0.0471 0.0
C878 C 0.02668 0.19857 0.09475 0.0
C879 C 0.05173 0.21178 0.0955 0.0
C880 C 0.06485 0.22094 0.04885 0.0
C881 C 0.05243 0.21685 0.00124 0.0
H882 H 0.83738 0.56942 0.39541 0.0
H883 H 0.77317 0.5175 0.31475 0.0
H884 H 0.79585 0.50075 0.2728 0.0
H885 H 0.87811 0.58019 0.29082 0.0
H886 H 0.90178 0.58276 0.33224 0.0
H887 H 0.88048 0.59057 0.35679 0.0
H888 H 0.8701 0.56068 0.43293 0.0
H889 H 0.89152 0.55293 0.40887 0.0
H890 H 0.86093 0.52993 0.419 0.0
H891 H 0.82558 0.48993 0.23844 0.0
H892 H 0.85994 0.48459 0.21767 0.0
H893 H 0.90469 0.54351 0.32059 0.0
C894 C 0.82804 0.55443 0.3692 0.0
C895 C 0.80347 0.54479 0.35844 0.0
C896 C 0.79197 0.52521 0.32372 0.0
C897 C 0.80471 0.51558 0.29954 0.0
C898 C 0.82895 0.52569 0.31047 0.0
C899 C 0.84048 0.54457 0.3447 0.0
C900 C 0.86664 0.55205 0.34985 0.0
C901 C 0.8827 0.57793 0.33131 0.0
C902 C 0.87264 0.54869 0.40599 0.0
C903 C 0.86798 0.53442 0.31317 0.0
C904 C 0.84607 0.51943 0.29071 0.0
C905 C 0.84285 0.50156 0.25579 0.0
C906 C 0.86249 0.49872 0.24412 0.0
C907 C 0.88503 0.51364 0.26739 0.0
C908 C 0.88775 0.53185 0.30195 0.0
H909 H 0.48356 0.37229 0.23007 0.0
H910 H 0.50878 0.39573 0.38752 0.0
H911 H 0.48934 0.35395 0.41647 0.0
H912 H 0.4264 0.32263 0.26502 0.0
H913 H 0.42625 0.30327 0.21439 0.0
H914 H 0.4423 0.33517 0.20515 0.0
H915 H 0.48104 0.33397 0.18602 0.0
H916 H 0.46508 0.30205 0.19505 0.0
H917 H 0.49157 0.32051 0.23268 0.0
H918 H 0.4663 0.31005 0.42986 0.0
H919 H 0.4425 0.26607 0.42549 0.0
H920 H 0.43301 0.27036 0.2594 0.0
C921 C 0.48504 0.3686 0.27055 0.0
C922 C 0.4977 0.38734 0.30645 0.0
C923 C 0.49925 0.38175 0.35913 0.0
C924 C 0.48822 0.35803 0.37611 0.0
C925 C 0.4758 0.34001 0.33997 0.0
C926 C 0.47425 0.3449 0.28823 0.0
C927 C 0.45989 0.32199 0.2576 0.0
C928 C 0.43737 0.3207 0.23417 0.0
C929 C 0.47532 0.31949 0.21534 0.0
C930 C 0.45357 0.3036 0.30034 0.0
C931 C 0.46284 0.31443 0.34756 0.0
C932 C 0.45903 0.3013 0.39305 0.0
C933 C 0.44544 0.27633 0.39021 0.0
C934 C 0.43599 0.26477 0.34213 0.0
C935 C 0.44015 0.27866 0.29667 0.0
H936 H 0.6255 0.14048 0.36449 0.0
H937 H 0.62077 0.11332 0.2081 0.0
H938 H 0.6649 0.13328 0.20412 0.0
H939 H 0.67921 0.19764 0.3475 0.0
H940 H 0.69078 0.19725 0.41105 0.0
H941 H 0.659 0.18197 0.40025 0.0
H942 H 0.65556 0.1427 0.43483 0.0
H943 H 0.68734 0.15781 0.44547 0.0
H944 H 0.67326 0.13141 0.40543 0.0
H945 H 0.70936 0.15671 0.21687 0.0
H946 H 0.75115 0.18012 0.24679 0.0
H947 H 0.72681 0.18949 0.39751 0.0
C948 C 0.63378 0.13902 0.32913 0.0
C949 C 0.61982 0.12567 0.28624 0.0
C950 C 0.63122 0.12362 0.24118 0.0
C951 C 0.65622 0.13488 0.23861 0.0
C952 C 0.66946 0.14775 0.28177 0.0
C953 C 0.65865 0.14971 0.32635 0.0
C954 C 0.6769 0.16361 0.36819 0.0
C955 C 0.67644 0.18648 0.38257 0.0
C956 C 0.67303 0.14794 0.41632 0.0
C957 C 0.69974 0.16935 0.34006 0.0
C958 C 0.69503 0.16022 0.29009 0.0
C959 C 0.71325 0.16381 0.25599 0.0
C960 C 0.73692 0.17717 0.27331 0.0
C961 C 0.74215 0.18647 0.32451 0.0
C962 C 0.72328 0.18233 0.35839 0.0
H963 H 0.50474 0.11177 0.27052 0.0
H964 H 0.52006 0.11107 0.43478 0.0
H965 H 0.49728 0.13124 0.45501 0.0
H966 H 0.50876 0.17003 0.27058 0.0
H967 H 0.48458 0.16115 0.225 0.0
H968 H 0.50275 0.14724 0.22292 0.0
H969 H 0.46483 0.10559 0.23218 0.0
H970 H 0.44655 0.11937 0.23438 0.0
H971 H 0.44495 0.09987 0.2863 0.0
H972 H 0.47168 0.15004 0.45832 0.0
H973 H 0.44544 0.16707 0.44397 0.0
H974 H 0.44698 0.15616 0.27769 0.0
C975 C 0.50344 0.11601 0.31068 0.0
C976 C 0.51421 0.10982 0.35103 0.0
C977 C 0.51199 0.11561 0.40313 0.0
C978 C 0.49909 0.12709 0.41509 0.0
C979 C 0.48854 0.13277 0.37456 0.0
C980 C 0.49062 0.12754 0.32339 0.0
C981 C 0.47718 0.13529 0.28737 0.0
C982 C 0.49435 0.15458 0.24922 0.0
C983 C 0.45719 0.11374 0.25836 0.0
C984 C 0.46707 0.14546 0.3264 0.0
C985 C 0.47387 0.14384 0.37646 0.0
C986 C 0.46633 0.15154 0.41927 0.0
C987 C 0.45139 0.16115 0.41072 0.0
C988 C 0.44419 0.16302 0.35973 0.0
C989 C 0.45227 0.15513 0.31712 0.0
H990 H 0.855 0.30048 0.28042 0.0
H991 H 0.82182 0.2954 0.43028 0.0
H992 H 0.83518 0.33847 0.42633 0.0
H993 H 0.9067 0.35782 0.30169 0.0
H994 H 0.90818 0.36768 0.23553 0.0
H995 H 0.89549 0.33634 0.24949 0.0
H996 H 0.85646 0.32744 0.20236 0.0
H997 H 0.86901 0.35876 0.18828 0.0
H998 H 0.84096 0.34282 0.22235 0.0
H999 H 0.85233 0.38193 0.40653 0.0
H1000 H 0.87279 0.4232 0.37341 0.0
H1001 H 0.8953 0.40025 0.23653 0.0
C1002 C 0.85044 0.30837 0.31237 0.0
C1003 C 0.8373 0.29454 0.35566 0.0
C1004 C 0.83186 0.30562 0.39675 0.0
C1005 C 0.83934 0.33006 0.39481 0.0
C1006 C 0.85228 0.34316 0.35161 0.0
C1007 C 0.85784 0.33274 0.31118 0.0
C1008 C 0.87236 0.35093 0.26969 0.0
C1009 C 0.89715 0.35333 0.26378 0.0
C1010 C 0.85889 0.34461 0.21759 0.0
C1011 C 0.87414 0.37325 0.29316 0.0
C1012 C 0.86235 0.36832 0.34033 0.0
C1013 C 0.8616 0.38602 0.36963 0.0
C1014 C 0.8733 0.40943 0.35039 0.0
C1015 C 0.88567 0.415 0.3023 0.0
C1016 C 0.88597 0.39658 0.27332 0.0
H1017 H 0.60645 0.53832 0.275 0.0
H1018 H 0.5895 0.46482 0.29675 0.0
H1019 H 0.62925 0.47899 0.33536 0.0
H1020 H 0.66866 0.56211 0.24131 0.0
H1021 H 0.67846 0.58985 0.27539 0.0
H1022 H 0.64877 0.57392 0.24857 0.0
H1023 H 0.63109 0.5734 0.33931 0.0
H1024 H 0.66072 0.58919 0.36648 0.0
H1025 H 0.6387 0.56102 0.39397 0.0
H1026 H 0.67047 0.50094 0.37293 0.0
H1027 H 0.71101 0.52934 0.40442 0.0
H1028 H 0.70125 0.58862 0.3586 0.0
C1029 C 0.61113 0.5252 0.28755 0.0
C1030 C 0.59482 0.50045 0.28275 0.0
C1031 C 0.60166 0.48387 0.29992 0.0
C1032 C 0.62421 0.49173 0.322 0.0
C1033 C 0.63973 0.51622 0.32667 0.0
C1034 C 0.63358 0.53272 0.30975 0.0
C1035 C 0.65359 0.55803 0.31956 0.0
C1036 C 0.66292 0.57178 0.26814 0.0
C1037 C 0.64553 0.57118 0.35706 0.0
C1038 C 0.67192 0.55314 0.34467 0.0
C1039 C 0.66354 0.52891 0.34846 0.0
C1040 C 0.67725 0.51998 0.37016 0.0
C1041 C 0.70024 0.53627 0.38804 0.0
C1042 C 0.70933 0.56122 0.3841 0.0
C1043 C 0.69483 0.56967 0.36236 0.0
H1044 H 0.51865 0.79034 0.64949 0.0
H1045 H 0.58458 0.85017 0.59139 0.0
H1046 H 0.57121 0.87792 0.62028 0.0
H1047 H 0.48003 0.81499 0.61397 0.0
H1048 H 0.46178 0.80319 0.67131 0.0
H1049 H 0.4759 0.78782 0.64323 0.0
H1050 H 0.49586 0.78978 0.73186 0.0
H1051 H 0.48206 0.8054 0.76004 0.0
H1052 H 0.51404 0.81835 0.76271 0.0
H1053 H 0.5526 0.89944 0.66198 0.0
H1054 H 0.52799 0.91335 0.7062 0.0
H1055 H 0.47321 0.83975 0.73486 0.0
C1056 C 0.53011 0.80924 0.64207 0.0
C1057 C 0.55271 0.81804 0.61819 0.0
C1058 C 0.56719 0.84294 0.60945 0.0
C1059 C 0.55979 0.85889 0.62587 0.0
C1060 C 0.53774 0.84968 0.65047 0.0
C1061 C 0.52291 0.82544 0.65785 0.0
C1062 C 0.50023 0.82033 0.68606 0.0
C1063 C 0.47818 0.80572 0.65157 0.0
C1064 C 0.49793 0.80772 0.73826 0.0
C1065 C 0.50485 0.84554 0.69418 0.0
C1066 C 0.52666 0.86216 0.6735 0.0
C1067 C 0.53537 0.88661 0.67783 0.0
C1068 C 0.5213 0.89432 0.70337 0.0
C1069 C 0.49864 0.87764 0.72397 0.0
C1070 C 0.49038 0.85292 0.71927 0.0
H1071 H 0.18856 0.72748 0.73792 0.0
H1072 H 0.17828 0.72339 0.57062 0.0
H1073 H 0.15577 0.67925 0.57632 0.0
H1074 H 0.1952 0.67492 0.75189 0.0
H1075 H 0.17911 0.66622 0.81256 0.0
H1076 H 0.19579 0.69731 0.79463 0.0
H1077 H 0.1577 0.70065 0.80535 0.0
H1078 H 0.1409 0.6696 0.82323 0.0
H1079 H 0.13108 0.68058 0.76972 0.0
H1080 H 0.13272 0.63566 0.60117 0.0
H1081 H 0.11034 0.5961 0.64283 0.0
H1082 H 0.13546 0.62897 0.7942 0.0
C1083 C 0.18187 0.71736 0.70228 0.0
C1084 C 0.1853 0.72891 0.65372 0.0
C1085 C 0.17596 0.71494 0.6082 0.0
C1086 C 0.16319 0.68987 0.61107 0.0
C1087 C 0.15995 0.6791 0.65971 0.0
C1088 C 0.16905 0.69242 0.70448 0.0
C1089 C 0.16215 0.67661 0.75224 0.0
C1090 C 0.18439 0.6789 0.77942 0.0
C1091 C 0.14706 0.68219 0.78983 0.0
C1092 C 0.14743 0.65226 0.7275 0.0
C1093 C 0.14653 0.65407 0.67407 0.0
C1094 C 0.13344 0.63404 0.64293 0.0
C1095 C 0.12076 0.61162 0.66704 0.0
C1096 C 0.12114 0.60937 0.72186 0.0
C1097 C 0.1349 0.63002 0.75224 0.0
H1098 H 0.37128 0.49111 0.71877 0.0
H1099 H 0.38976 0.56302 0.67303 0.0
H1100 H 0.35055 0.54705 0.63 0.0
H1101 H 0.34132 0.46223 0.60311 0.0
H1102 H 0.31846 0.43581 0.635 0.0
H1103 H 0.34747 0.45294 0.6645 0.0
H1104 H 0.32808 0.45765 0.74856 0.0
H1105 H 0.29898 0.44026 0.71958 0.0
H1106 H 0.30829 0.46971 0.74446 0.0
H1107 H 0.31015 0.52279 0.58714 0.0
H1108 H 0.27021 0.49256 0.5552 0.0
H1109 H 0.27819 0.43681 0.63055 0.0
C1110 C 0.367 0.50358 0.70036 0.0
C1111 C 0.38363 0.52835 0.69934 0.0
C1112 C 0.3773 0.54399 0.67458 0.0
C1113 C 0.3551 0.53508 0.64978 0.0
C1114 C 0.33937 0.5105 0.65041 0.0
C1115 C 0.34492 0.49502 0.67569 0.0
C1116 C 0.32497 0.46937 0.67043 0.0
C1117 C 0.33358 0.4542 0.64154 0.0
C1118 C 0.31446 0.45862 0.72394 0.0
C1119 C 0.3074 0.47281 0.63794 0.0
C1120 C 0.31606 0.49663 0.6265 0.0
C1121 C 0.30311 0.50409 0.59617 0.0
C1122 C 0.28051 0.48678 0.57794 0.0
C1123 C 0.27105 0.46233 0.59041 0.0
C1124 C 0.28487 0.45536 0.62043 0.0
H1125 H 0.19768 0.47855 0.66206 0.0
H1126 H 0.13834 0.41032 0.61286 0.0
H1127 H 0.11017 0.42412 0.63675 0.0
H1128 H 0.16922 0.48718 0.77186 0.0
H1129 H 0.18239 0.51893 0.76222 0.0
H1130 H 0.19791 0.50385 0.74057 0.0
H1131 H 0.20034 0.52005 0.64722 0.0
H1132 H 0.18504 0.53537 0.66869 0.0
H1133 H 0.17335 0.51475 0.61499 0.0
H1134 H 0.08843 0.44499 0.66908 0.0
H1135 H 0.07493 0.47235 0.70079 0.0
H1136 H 0.1487 0.52718 0.72696 0.0
C1137 C 0.17877 0.46651 0.65605 0.0
C1138 C 0.17021 0.44332 0.63568 0.0
C1139 C 0.14532 0.42819 0.62824 0.0
C1140 C 0.12918 0.43583 0.64191 0.0
C1141 C 0.13822 0.45869 0.6626 0.0
C1142 C 0.16246 0.4739 0.66909 0.0
C1143 C 0.16762 0.49769 0.69148 0.0
C1144 C 0.18001 0.50216 0.74469 0.0
C1145 C 0.18246 0.51817 0.65331 0.0
C1146 C 0.14248 0.49347 0.69686 0.0
C1147 C 0.12577 0.47082 0.6803 0.0
C1148 C 0.10137 0.46279 0.68196 0.0
C1149 C 0.09388 0.47845 0.70027 0.0
C1150 C 0.11075 0.50194 0.71638 0.0
C1151 C 0.13535 0.50937 0.71493 0.0
H1152 H 0.47986 0.61234 0.62225 0.0
H1153 H 0.51598 0.60033 0.75112 0.0
H1154 H 0.54937 0.64175 0.74316 0.0
H1155 H 0.53171 0.6501 0.54622 0.0
H1156 H 0.52118 0.6699 0.52567 0.0
H1157 H 0.5001 0.63917 0.54073 0.0
H1158 H 0.47939 0.65272 0.60784 0.0
H1159 H 0.50032 0.6835 0.59277 0.0
H1160 H 0.49687 0.67308 0.65895 0.0
H1161 H 0.57959 0.68339 0.71866 0.0
H1162 H 0.6032 0.72452 0.68546 0.0
H1163 H 0.54655 0.71103 0.57636 0.0
C1164 C 0.49481 0.61847 0.64876 0.0
C1165 C 0.49544 0.60313 0.68712 0.0
C1166 C 0.51513 0.61183 0.72155 0.0
C1167 C 0.53422 0.63527 0.71719 0.0
C1168 C 0.53315 0.6499 0.67875 0.0
C1169 C 0.51383 0.64203 0.64565 0.0
C1170 C 0.51688 0.66175 0.60895 0.0
C1171 C 0.51751 0.65481 0.55202 0.0
C1172 C 0.4972 0.66814 0.61767 0.0
C1173 C 0.54106 0.68184 0.62629 0.0
C1174 C 0.55019 0.67445 0.6662 0.0
C1175 C 0.57256 0.68946 0.68772 0.0
C1176 C 0.58588 0.71275 0.66838 0.0
C1177 C 0.57667 0.72096 0.62843 0.0
C1178 C 0.55394 0.70526 0.60715 0.0
H1179 H 0.29363 0.84084 0.62408 0.0
H1180 H 0.26955 0.82599 0.78444 0.0
H1181 H 0.31124 0.84316 0.81374 0.0
H1182 H 0.34209 0.82814 0.6365 0.0
H1183 H 0.36179 0.85212 0.59393 0.0
H1184 H 0.32992 0.83784 0.58512 0.0
H1185 H 0.33213 0.8789 0.59253 0.0
H1186 H 0.36399 0.89329 0.60128 0.0
H1187 H 0.34584 0.89726 0.64898 0.0
H1188 H 0.35544 0.86234 0.82607 0.0
H1189 H 0.39943 0.88366 0.82067 0.0
H1190 H 0.39502 0.88679 0.65257 0.0
C1191 C 0.29712 0.84107 0.66532 0.0
C1192 C 0.27829 0.83201 0.70194 0.0
C1193 C 0.28365 0.83285 0.75561 0.0
C1194 C 0.30728 0.8425 0.77269 0.0
C1195 C 0.3254 0.85134 0.73567 0.0
C1196 C 0.32066 0.85082 0.68313 0.0
C1197 C 0.34354 0.86224 0.65164 0.0
C1198 C 0.34438 0.84399 0.61462 0.0
C1199 C 0.34654 0.88423 0.62187 0.0
C1200 C 0.36184 0.86934 0.69474 0.0
C1201 C 0.35099 0.86274 0.74286 0.0
C1202 C 0.36417 0.86758 0.7886 0.0
C1203 C 0.38916 0.87968 0.78511 0.0
C1204 C 0.40072 0.88693 0.73623 0.0
C1205 C 0.38676 0.88149 0.69053 0.0
loop_
_geom_bond_atom_site_label_1
_geom_bond_atom_site_label_2
_geom_bond_distance
_geom_bond_site_symmetry_2
_ccdc_geom_bond_type
C0 O1 1.160 . S
C0 O7 1.185 . S
O1 C0 1.160 . S
O2 Zn3 1.899 . S
O2 C10 1.284 . S
Zn3 O2 1.899 . S
Zn3 O4 2.032 . S
Zn3 O7 2.086 . S
Zn3 O12 1.977 . S
O4 Zn3 2.032 . S
O4 C8 1.278 . S
C5 O6 1.203 . S
C5 O12 1.267 1_556 S
O6 C5 1.203 . S
O7 C0 1.185 . S
O7 Zn3 2.086 . S
C8 O4 1.278 . S
C8 O9 1.211 1_554 S
O9 C8 1.211 1_556 S
C10 O2 1.284 . S
C10 O11 1.273 . S
O11 C10 1.273 . S
O12 Zn3 1.977 . S
O12 C5 1.267 1_554 S
C13 O14 1.160 . S
C13 O20 1.185 . S
O14 C13 1.160 . S
O15 Zn16 1.899 . S
O15 C23 1.284 . S
Zn16 O15 1.899 . S
Zn16 O17 2.032 . S
Zn16 O20 2.086 . S
Zn16 O25 1.977 . S
O17 Zn16 2.032 . S
O17 C21 1.278 . S
C18 O19 1.203 . S
C18 O25 1.267 1_556 S
O19 C18 1.203 . S
O20 C13 1.185 . S
O20 Zn16 2.086 . S
C21 O17 1.278 . S
C21 O22 1.211 1_554 S
O22 C21 1.211 1_556 S
C23 O15 1.284 . S
C23 O24 1.273 . S
O24 C23 1.273 . S
O25 Zn16 1.977 . S
O25 C18 1.267 1_554 S
C26 O27 1.160 . S
C26 O33 1.185 . S
O27 C26 1.160 . S
O28 Zn29 1.899 . S
O28 C36 1.284 . S
Zn29 O28 1.899 . S
Zn29 O30 2.032 . S
Zn29 O33 2.086 . S
Zn29 O38 1.977 . S
O30 Zn29 2.032 . S
O30 C34 1.278 . S
C31 O32 1.203 . S
C31 O38 1.267 1_556 S
O32 C31 1.203 . S
O33 C26 1.185 . S
O33 Zn29 2.086 . S
C34 O30 1.278 . S
C34 O35 1.211 1_554 S
O35 C34 1.211 1_556 S
C36 O28 1.284 . S
C36 O37 1.273 . S
O37 C36 1.273 . S
O38 Zn29 1.977 . S
O38 C31 1.267 1_554 S
C39 O40 1.160 . S
C39 O46 1.185 . S
O40 C39 1.160 . S
O41 Zn42 1.899 . S
O41 C49 1.284 . S
Zn42 O41 1.899 . S
Zn42 O43 2.032 . S
Zn42 O46 2.086 . S
Zn42 O51 1.977 . S
O43 Zn42 2.032 . S
O43 C47 1.278 . S
C44 O45 1.203 . S
C44 O51 1.267 1_554 S
O45 C44 1.203 . S
O46 C39 1.185 . S
O46 Zn42 2.086 . S
C47 O43 1.278 . S
C47 O48 1.211 1_556 S
O48 C47 1.211 1_554 S
C49 O41 1.284 . S
C49 O50 1.273 . S
O50 C49 1.273 . S
O51 Zn42 1.977 . S
O51 C44 1.267 1_556 S
C52 O53 1.160 . S
C52 O59 1.185 . S
O53 C52 1.160 . S
O54 Zn55 1.899 . S
O54 C62 1.284 . S
Zn55 O54 1.899 . S
Zn55 O56 2.032 . S
Zn55 O59 2.086 . S
Zn55 O64 1.977 . S
O56 Zn55 2.032 . S
O56 C60 1.278 . S
C57 O58 1.203 . S
C57 O64 1.267 1_554 S
O58 C57 1.203 . S
O59 C52 1.185 . S
O59 Zn55 2.086 . S
C60 O56 1.278 . S
C60 O61 1.211 1_556 S
O61 C60 1.211 1_554 S
C62 O54 1.284 . S
C62 O63 1.273 . S
O63 C62 1.273 . S
O64 Zn55 1.977 . S
O64 C57 1.267 1_556 S
C65 O66 1.160 . S
C65 O72 1.185 . S
O66 C65 1.160 . S
O67 Zn68 1.899 . S
O67 C75 1.284 . S
Zn68 O67 1.899 . S
Zn68 O69 2.032 . S
Zn68 O72 2.086 . S
Zn68 O77 1.977 . S
O69 Zn68 2.032 . S
O69 C73 1.278 . S
C70 O71 1.203 . S
C70 O77 1.267 1_554 S
O71 C70 1.203 . S
O72 C65 1.185 . S
O72 Zn68 2.086 . S
C73 O69 1.278 . S
C73 O74 1.211 1_556 S
O74 C73 1.211 1_554 S
C75 O67 1.284 . S
C75 O76 1.273 . S
O76 C75 1.273 . S
O77 Zn68 1.977 . S
O77 C70 1.267 1_556 S
C78 O79 1.160 . S
C78 O85 1.185 . S
O79 C78 1.160 . S
O80 Zn81 1.899 . S
O80 C88 1.284 . S
Zn81 O80 1.899 . S
Zn81 O82 2.032 . S
Zn81 O85 2.086 . S
Zn81 O90 1.977 . S
O82 Zn81 2.032 . S
O82 C86 1.278 . S
C83 O84 1.203 . S
C83 O90 1.267 . S
O84 C83 1.203 . S
O85 C78 1.185 . S
O85 Zn81 2.086 . S
C86 O82 1.278 . S
C86 O87 1.211 . S
O87 C86 1.211 . S
C88 O80 1.284 . S
C88 O89 1.273 . S
O89 C88 1.273 . S
O90 Zn81 1.977 . S
O90 C83 1.267 . S
C91 O92 1.160 . S
C91 O98 1.185 . S
O92 C91 1.160 . S
O93 Zn94 1.899 . S
O93 C101 1.284 . S
Zn94 O93 1.899 . S
Zn94 O95 2.032 . S
Zn94 O98 2.086 . S
Zn94 O103 1.977 . S
O95 Zn94 2.032 . S
O95 C99 1.278 . S
C96 O97 1.203 . S
C96 O103 1.267 . S
O97 C96 1.203 . S
O98 C91 1.185 . S
O98 Zn94 2.086 . S
C99 O95 1.278 . S
C99 O100 1.211 . S
O100 C99 1.211 . S
C101 O93 1.284 . S
C101 O102 1.273 . S
O102 C101 1.273 . S
O103 Zn94 1.977 . S
O103 C96 1.267 . S
C104 O105 1.160 . S
C104 O111 1.185 . S
O105 C104 1.160 . S
O106 Zn107 1.899 . S
O106 C114 1.284 . S
Zn107 O106 1.899 . S
Zn107 O108 2.032 . S
Zn107 O111 2.086 . S
Zn107 O116 1.977 . S
O108 Zn107 2.032 . S
O108 C112 1.278 . S
C109 O110 1.203 . S
C109 O116 1.267 . S
O110 C109 1.203 . S
O111 C104 1.185 . S
O111 Zn107 2.086 . S
C112 O108 1.278 . S
C112 O113 1.211 . S
O113 C112 1.211 . S
C114 O106 1.284 . S
C114 O115 1.273 . S
O115 C114 1.273 . S
O116 Zn107 1.977 . S
O116 C109 1.267 . S
C117 O118 1.160 . S
C117 O124 1.185 . S
O118 C117 1.160 . S
O119 Zn120 1.899 . S
O119 C127 1.284 . S
Zn120 O119 1.899 . S
Zn120 O121 2.032 . S
Zn120 O124 2.086 . S
Zn120 O129 1.977 . S
O121 Zn120 2.032 . S
O121 C125 1.278 . S
C122 O123 1.203 . S
C122 O129 1.267 . S
O123 C122 1.203 . S
O124 C117 1.185 . S
O124 Zn120 2.086 . S
C125 O121 1.278 . S
C125 O126 1.211 . S
O126 C125 1.211 . S
C127 O119 1.284 . S
C127 O128 1.273 . S
O128 C127 1.273 . S
O129 Zn120 1.977 . S
O129 C122 1.267 . S
C130 O131 1.160 . S
C130 O137 1.185 . S
O131 C130 1.160 . S
O132 Zn133 1.899 . S
O132 C140 1.284 . S
Zn133 O132 1.899 . S
Zn133 O134 2.032 . S
Zn133 O137 2.086 . S
Zn133 O142 1.977 . S
O134 Zn133 2.032 . S
O134 C138 1.278 . S
C135 O136 1.203 . S
C135 O142 1.267 . S
O136 C135 1.203 . S
O137 C130 1.185 . S
O137 Zn133 2.086 . S
C138 O134 1.278 . S
C138 O139 1.211 . S
O139 C138 1.211 . S
C140 O132 1.284 . S
C140 O141 1.273 . S
O141 C140 1.273 . S
O142 Zn133 1.977 . S
O142 C135 1.267 . S
C143 O144 1.160 . S
C143 O150 1.185 . S
O144 C143 1.160 . S
O145 Zn146 1.899 . S
O145 C153 1.284 . S
Zn146 O145 1.899 . S
Zn146 O147 2.032 . S
Zn146 O150 2.086 . S
Zn146 O155 1.977 . S
O147 Zn146 2.032 . S
O147 C151 1.278 . S
C148 O149 1.203 . S
C148 O155 1.267 . S
O149 C148 1.203 . S
O150 C143 1.185 . S
O150 Zn146 2.086 . S
C151 O147 1.278 . S
C151 O152 1.211 . S
O152 C151 1.211 . S
C153 O145 1.284 . S
C153 O154 1.273 . S
O154 C153 1.273 . S
O155 Zn146 1.977 . S
O155 C148 1.267 . S
C156 O157 1.160 . S
C156 O163 1.185 . S
O157 C156 1.160 . S
O158 Zn159 1.899 . S
O158 C166 1.284 . S
Zn159 O158 1.899 . S
Zn159 O160 2.032 . S
Zn159 O163 2.086 . S
Zn159 O168 1.977 . S
O160 Zn159 2.032 . S
O160 C164 1.278 . S
C161 O162 1.203 . S
C161 O168 1.267 . S
O162 C161 1.203 . S
O163 C156 1.185 . S
O163 Zn159 2.086 . S
C164 O160 1.278 . S
C164 O165 1.211 . S
O165 C164 1.211 . S
C166 O158 1.284 . S
C166 O167 1.273 . S
O167 C166 1.273 . S
O168 Zn159 1.977 . S
O168 C161 1.267 . S
C169 O170 1.160 . S
C169 O176 1.185 . S
O170 C169 1.160 . S
O171 Zn172 1.899 . S
O171 C179 1.284 . S
Zn172 O171 1.899 . S
Zn172 O173 2.032 . S
Zn172 O176 2.086 . S
Zn172 O181 1.977 . S
O173 Zn172 2.032 . S
O173 C177 1.278 . S
C174 O175 1.203 . S
C174 O181 1.267 . S
O175 C174 1.203 . S
O176 C169 1.185 . S
O176 Zn172 2.086 . S
C177 O173 1.278 . S
C177 O178 1.211 . S
O178 C177 1.211 . S
C179 O171 1.284 . S
C179 O180 1.273 . S
O180 C179 1.273 . S
O181 Zn172 1.977 . S
O181 C174 1.267 . S
C182 O183 1.160 . S
C182 O189 1.185 . S
O183 C182 1.160 . S
O184 Zn185 1.899 . S
O184 C192 1.284 . S
Zn185 O184 1.899 . S
Zn185 O186 2.032 . S
Zn185 O189 2.086 . S
Zn185 O194 1.977 . S
O186 Zn185 2.032 . S
O186 C190 1.278 . S
C187 O188 1.203 . S
C187 O194 1.267 . S
O188 C187 1.203 . S
O189 C182 1.185 . S
O189 Zn185 2.086 . S
C190 O186 1.278 . S
C190 O191 1.211 . S
O191 C190 1.211 . S
C192 O184 1.284 . S
C192 O193 1.273 . S
O193 C192 1.273 . S
O194 Zn185 1.977 . S
O194 C187 1.267 . S
C195 O196 1.160 . S
C195 O202 1.185 . S
O196 C195 1.160 . S
O197 Zn198 1.899 . S
O197 C205 1.284 . S
Zn198 O197 1.899 . S
Zn198 O199 2.032 . S
Zn198 O202 2.086 . S
Zn198 O207 1.977 . S
O199 Zn198 2.032 . S
O199 C203 1.278 . S
C200 O201 1.203 . S
C200 O207 1.267 . S
O201 C200 1.203 . S
O202 C195 1.185 . S
O202 Zn198 2.086 . S
C203 O199 1.278 . S
C203 O204 1.211 . S
O204 C203 1.211 . S
C205 O197 1.284 . S
C205 O206 1.273 . S
O206 C205 1.273 . S
O207 Zn198 1.977 . S
O207 C200 1.267 . S
C208 O209 1.160 . S
C208 O215 1.185 . S
O209 C208 1.160 . S
O210 Zn211 1.899 . S
O210 C218 1.284 . S
Zn211 O210 1.899 . S
Zn211 O212 2.032 . S
Zn211 O215 2.086 . S
Zn211 O220 1.977 . S
O212 Zn211 2.032 . S
O212 C216 1.278 . S
C213 O214 1.203 . S
C213 O220 1.267 . S
O214 C213 1.203 . S
O215 C208 1.185 . S
O215 Zn211 2.086 . S
C216 O212 1.278 . S
C216 O217 1.211 . S
O217 C216 1.211 . S
C218 O210 1.284 . S
C218 O219 1.273 . S
O219 C218 1.273 . S
O220 Zn211 1.977 . S
O220 C213 1.267 . S
C221 O222 1.160 . S
C221 O228 1.185 . S
O222 C221 1.160 . S
O223 Zn224 1.899 . S
O223 C231 1.284 . S
Zn224 O223 1.899 . S
Zn224 O225 2.032 . S
Zn224 O228 2.086 . S
Zn224 O233 1.977 . S
O225 Zn224 2.032 . S
O225 C229 1.278 . S
C226 O227 1.203 . S
C226 O233 1.267 . S
O227 C226 1.203 . S
O228 C221 1.185 . S
O228 Zn224 2.086 . S
C229 O225 1.278 . S
C229 O230 1.211 . S
O230 C229 1.211 . S
C231 O223 1.284 . S
C231 O232 1.273 . S
O232 C231 1.273 . S
O233 Zn224 1.977 . S
O233 C226 1.267 . S
H234 C246 0.930 . S
H235 C248 0.930 . S
H236 C249 0.930 . S
H237 C253 0.959 . S
H238 C253 0.959 . S
H239 C253 0.961 . S
H240 C254 0.960 . S
H241 C254 0.961 . S
H242 C254 0.959 . S
H243 C257 0.929 . S
H244 C258 0.931 . S
H245 C260 0.930 . S
C246 H234 0.930 . S
C246 C247 1.399 . S
C246 C251 1.399 . S
C247 C246 1.399 . S
C247 C248 1.376 . S
C248 H235 0.930 . S
C248 C247 1.376 . S
C248 C249 1.388 . S
C249 H236 0.930 . S
C249 C248 1.388 . S
C249 C250 1.390 . S
C250 C249 1.390 . S
C250 C251 1.394 . S
C250 C256 1.465 . S
C251 C246 1.399 . S
C251 C250 1.394 . S
C251 C252 1.516 . S
C252 C251 1.516 . S
C252 C253 1.502 . S
C252 C254 1.561 . S
C252 C255 1.526 . S
C253 H237 0.959 . S
C253 H238 0.959 . S
C253 H239 0.961 . S
C253 C252 1.502 . S
C254 H240 0.960 . S
C254 H241 0.961 . S
C254 H242 0.959 . S
C254 C252 1.561 . S
C255 C252 1.526 . S
C255 C256 1.396 . S
C255 C260 1.390 . S
C256 C250 1.465 . S
C256 C255 1.396 . S
C256 C257 1.399 . S
C257 H243 0.929 . S
C257 C256 1.399 . S
C257 C258 1.385 . S
C258 H244 0.931 . S
C258 C257 1.385 . S
C258 C259 1.389 . S
C259 C258 1.389 . S
C259 C260 1.387 . S
C260 H245 0.930 . S
C260 C255 1.390 . S
C260 C259 1.387 . S
H261 C273 0.930 . S
H262 C275 0.930 . S
H263 C276 0.930 . S
H264 C280 0.959 . S
H265 C280 0.959 . S
H266 C280 0.961 . S
H267 C281 0.960 . S
H268 C281 0.961 . S
H269 C281 0.959 . S
H270 C284 0.929 . S
H271 C285 0.931 . S
H272 C287 0.930 . S
C273 H261 0.930 . S
C273 C274 1.399 . S
C273 C278 1.399 . S
C274 C273 1.399 . S
C274 C275 1.376 . S
C275 H262 0.930 . S
C275 C274 1.376 . S
C275 C276 1.388 . S
C276 H263 0.930 . S
C276 C275 1.388 . S
C276 C277 1.390 . S
C277 C276 1.390 . S
C277 C278 1.394 . S
C277 C283 1.465 . S
C278 C273 1.399 . S
C278 C277 1.394 . S
C278 C279 1.516 . S
C279 C278 1.516 . S
C279 C280 1.502 . S
C279 C281 1.561 . S
C279 C282 1.526 . S
C280 H264 0.959 . S
C280 H265 0.959 . S
C280 H266 0.961 . S
C280 C279 1.502 . S
C281 H267 0.960 . S
C281 H268 0.961 . S
C281 H269 0.959 . S
C281 C279 1.561 . S
C282 C279 1.526 . S
C282 C283 1.396 . S
C282 C287 1.390 . S
C283 C277 1.465 . S
C283 C282 1.396 . S
C283 C284 1.399 . S
C284 H270 0.929 . S
C284 C283 1.399 . S
C284 C285 1.385 . S
C285 H271 0.931 . S
C285 C284 1.385 . S
C285 C286 1.389 . S
C286 C285 1.389 . S
C286 C287 1.387 . S
C287 H272 0.930 . S
C287 C282 1.390 . S
C287 C286 1.387 . S
H288 C300 0.930 . S
H289 C302 0.930 . S
H290 C303 0.930 . S
H291 C307 0.959 . S
H292 C307 0.959 . S
H293 C307 0.961 . S
H294 C308 0.960 . S
H295 C308 0.961 . S
H296 C308 0.959 . S
H297 C311 0.929 . S
H298 C312 0.931 . S
H299 C314 0.930 . S
C300 H288 0.930 . S
C300 C301 1.399 . S
C300 C305 1.399 . S
C301 C300 1.399 . S
C301 C302 1.376 . S
C302 H289 0.930 . S
C302 C301 1.376 . S
C302 C303 1.388 . S
C303 H290 0.930 . S
C303 C302 1.388 . S
C303 C304 1.390 . S
C304 C303 1.390 . S
C304 C305 1.394 . S
C304 C310 1.465 . S
C305 C300 1.399 . S
C305 C304 1.394 . S
C305 C306 1.516 . S
C306 C305 1.516 . S
C306 C307 1.502 . S
C306 C308 1.561 . S
C306 C309 1.526 . S
C307 H291 0.959 . S
C307 H292 0.959 . S
C307 H293 0.961 . S
C307 C306 1.502 . S
C308 H294 0.960 . S
C308 H295 0.961 . S
C308 H296 0.959 . S
C308 C306 1.561 . S
C309 C306 1.526 . S
C309 C310 1.396 . S
C309 C314 1.390 . S
C310 C304 1.465 . S
C310 C309 1.396 . S
C310 C311 1.399 . S
C311 H297 0.929 . S
C311 C310 1.399 . S
C311 C312 1.385 . S
C312 H298 0.931 . S
C312 C311 1.385 . S
C312 C313 1.389 . S
C313 C312 1.389 . S
C313 C314 1.387 . S
C314 H299 0.930 . S
C314 C309 1.390 . S
C314 C313 1.387 . S
H315 C327 0.930 . S
H316 C329 0.930 . S
H317 C330 0.930 . S
H318 C334 0.959 . S
H319 C334 0.959 . S
H320 C334 0.961 . S
H321 C335 0.960 . S
H322 C335 0.961 . S
H323 C335 0.959 . S
H324 C338 0.929 . S
H325 C339 0.931 . S
H326 C341 0.930 . S
C327 H315 0.930 . S
C327 C328 1.399 . S
C327 C332 1.399 . S
C328 C327 1.399 . S
C328 C329 1.376 . S
C329 H316 0.930 . S
C329 C328 1.376 . S
C329 C330 1.388 . S
C330 H317 0.930 . S
C330 C329 1.388 . S
C330 C331 1.390 . S
C331 C330 1.390 . S
C331 C332 1.394 . S
C331 C337 1.465 . S
C332 C327 1.399 . S
C332 C331 1.394 . S
C332 C333 1.516 . S
C333 C332 1.516 . S
C333 C334 1.502 . S
C333 C335 1.561 . S
C333 C336 1.526 . S
C334 H318 0.959 . S
C334 H319 0.959 . S
C334 H320 0.961 . S
C334 C333 1.502 . S
C335 H321 0.960 . S
C335 H322 0.961 . S
C335 H323 0.959 . S
C335 C333 1.561 . S
C336 C333 1.526 . S
C336 C337 1.396 . S
C336 C341 1.390 . S
C337 C331 1.465 . S
C337 C336 1.396 . S
C337 C338 1.399 . S
C338 H324 0.929 . S
C338 C337 1.399 . S
C338 C339 1.385 . S
C339 H325 0.931 . S
C339 C338 1.385 . S
C339 C340 1.389 . S
C340 C339 1.389 . S
C340 C341 1.387 . S
C341 H326 0.930 . S
C341 C336 1.390 . S
C341 C340 1.387 . S
H342 C354 0.930 . S
H343 C356 0.930 . S
H344 C357 0.930 . S
H345 C361 0.959 . S
H346 C361 0.959 . S
H347 C361 0.961 . S
H348 C362 0.960 . S
H349 C362 0.961 . S
H350 C362 0.959 . S
H351 C365 0.929 . S
H352 C366 0.931 . S
H353 C368 0.930 . S
C354 H342 0.930 . S
C354 C355 1.399 . S
C354 C359 1.399 . S
C355 C354 1.399 . S
C355 C356 1.376 . S
C356 H343 0.930 . S
C356 C355 1.376 . S
C356 C357 1.388 . S
C357 H344 0.930 . S
C357 C356 1.388 . S
C357 C358 1.390 . S
C358 C357 1.390 . S
C358 C359 1.394 . S
C358 C364 1.465 . S
C359 C354 1.399 . S
C359 C358 1.394 . S
C359 C360 1.516 . S
C360 C359 1.516 . S
C360 C361 1.502 . S
C360 C362 1.561 . S
C360 C363 1.526 . S
C361 H345 0.959 . S
C361 H346 0.959 . S
C361 H347 0.961 . S
C361 C360 1.502 . S
C362 H348 0.960 . S
C362 H349 0.961 . S
C362 H350 0.959 . S
C362 C360 1.561 . S
C363 C360 1.526 . S
C363 C364 1.396 . S
C363 C368 1.390 . S
C364 C358 1.465 . S
C364 C363 1.396 . S
C364 C365 1.399 . S
C365 H351 0.929 . S
C365 C364 1.399 . S
C365 C366 1.385 . S
C366 H352 0.931 . S
C366 C365 1.385 . S
C366 C367 1.389 . S
C367 C366 1.389 . S
C367 C368 1.387 . S
C368 H353 0.930 . S
C368 C363 1.390 . S
C368 C367 1.387 . S
H369 C381 0.930 . S
H370 C383 0.930 . S
H371 C384 0.930 . S
H372 C388 0.959 . S
H373 C388 0.959 . S
H374 C388 0.961 . S
H375 C389 0.960 . S
H376 C389 0.961 . S
H377 C389 0.959 . S
H378 C392 0.929 . S
H379 C393 0.931 . S
H380 C395 0.930 . S
C381 H369 0.930 . S
C381 C382 1.399 . S
C381 C386 1.399 . S
C382 C381 1.399 . S
C382 C383 1.376 . S
C383 H370 0.930 . S
C383 C382 1.376 . S
C383 C384 1.388 . S
C384 H371 0.930 . S
C384 C383 1.388 . S
C384 C385 1.390 . S
C385 C384 1.390 . S
C385 C386 1.394 . S
C385 C391 1.465 . S
C386 C381 1.399 . S
C386 C385 1.394 . S
C386 C387 1.516 . S
C387 C386 1.516 . S
C387 C388 1.502 . S
C387 C389 1.561 . S
C387 C390 1.526 . S
C388 H372 0.959 . S
C388 H373 0.959 . S
C388 H374 0.961 . S
C388 C387 1.502 . S
C389 H375 0.960 . S
C389 H376 0.961 . S
C389 H377 0.959 . S
C389 C387 1.561 . S
C390 C387 1.526 . S
C390 C391 1.396 . S
C390 C395 1.390 . S
C391 C385 1.465 . S
C391 C390 1.396 . S
C391 C392 1.399 . S
C392 H378 0.929 . S
C392 C391 1.399 . S
C392 C393 1.385 . S
C393 H379 0.931 . S
C393 C392 1.385 . S
C393 C394 1.389 . S
C394 C393 1.389 . S
C394 C395 1.387 . S
C395 H380 0.930 . S
C395 C390 1.390 . S
C395 C394 1.387 . S
H396 C408 0.930 . S
H397 C410 0.930 . S
H398 C411 0.930 . S
H399 C415 0.959 . S
H400 C415 0.959 1_556 S
H401 C415 0.961 . S
H402 C416 0.960 . S
H403 C416 0.961 . S
H404 C416 0.959 . S
H405 C419 0.929 . S
H406 C420 0.931 . S
H407 C422 0.930 . S
C408 H396 0.930 . S
C408 C409 1.399 . S
C408 C413 1.399 . S
C409 C408 1.399 . S
C409 C410 1.376 . S
C410 H397 0.930 . S
C410 C409 1.376 . S
C410 C411 1.388 . S
C411 H398 0.930 . S
C411 C410 1.388 . S
C411 C412 1.390 . S
C412 C411 1.390 . S
C412 C413 1.394 . S
C412 C418 1.465 1_654 S
C413 C408 1.399 . S
C413 C412 1.394 . S
C413 C414 1.516 1_554 S
C414 C413 1.516 1_556 S
C414 C415 1.502 1_656 S
C414 C416 1.561 . S
C414 C417 1.526 1_655 S
C415 H399 0.959 . S
C415 H400 0.959 1_554 S
C415 H401 0.961 . S
C415 C414 1.502 1_454 S
C416 H402 0.960 . S
C416 H403 0.961 . S
C416 H404 0.959 . S
C416 C414 1.561 . S
C417 C414 1.526 1_455 S
C417 C418 1.396 . S
C417 C422 1.390 . S
C418 C412 1.465 1_456 S
C418 C417 1.396 . S
C418 C419 1.399 . S
C419 H405 0.929 . S
C419 C418 1.399 . S
C419 C420 1.385 . S
C420 H406 0.931 . S
C420 C419 1.385 . S
C420 C421 1.389 . S
C421 C420 1.389 . S
C421 C422 1.387 . S
C422 H407 0.930 . S
C422 C417 1.390 . S
C422 C421 1.387 . S
H423 C435 0.930 . S
H424 C437 0.930 . S
H425 C438 0.930 . S
H426 C442 0.959 . S
H427 C442 0.959 . S
H428 C442 0.961 . S
H429 C443 0.960 . S
H430 C443 0.961 . S
H431 C443 0.959 . S
H432 C446 0.929 1_554 S
H433 C447 0.931 . S
H434 C449 0.930 . S
C435 H423 0.930 . S
C435 C436 1.399 . S
C435 C440 1.399 . S
C436 C435 1.399 . S
C436 C437 1.376 . S
C437 H424 0.930 . S
C437 C436 1.376 . S
C437 C438 1.388 . S
C438 H425 0.930 . S
C438 C437 1.388 . S
C438 C439 1.390 . S
C439 C438 1.390 . S
C439 C440 1.394 . S
C439 C445 1.465 1_554 S
C440 C435 1.399 . S
C440 C439 1.394 . S
C440 C441 1.516 1_554 S
C441 C440 1.516 1_556 S
C441 C442 1.502 . S
C441 C443 1.561 . S
C441 C444 1.526 . S
C442 H426 0.959 . S
C442 H427 0.959 . S
C442 H428 0.961 . S
C442 C441 1.502 . S
C443 H429 0.960 . S
C443 H430 0.961 . S
C443 H431 0.959 . S
C443 C441 1.561 . S
C444 C441 1.526 . S
C444 C445 1.396 . S
C444 C449 1.390 . S
C445 C439 1.465 1_556 S
C445 C444 1.396 . S
C445 C446 1.399 . S
C446 H432 0.929 1_556 S
C446 C445 1.399 . S
C446 C447 1.385 . S
C447 H433 0.931 . S
C447 C446 1.385 . S
C447 C448 1.389 . S
C448 C447 1.389 . S
C448 C449 1.387 . S
C449 H434 0.930 . S
C449 C444 1.390 . S
C449 C448 1.387 . S
H450 C462 0.930 . S
H451 C464 0.930 . S
H452 C465 0.930 . S
H453 C469 0.959 . S
H454 C469 0.959 . S
H455 C469 0.961 . S
H456 C470 0.960 . S
H457 C470 0.961 . S
H458 C470 0.959 . S
H459 C473 0.929 1_554 S
H460 C474 0.931 . S
H461 C476 0.930 . S
C462 H450 0.930 . S
C462 C463 1.399 . S
C462 C467 1.399 . S
C463 C462 1.399 . S
C463 C464 1.376 . S
C464 H451 0.930 . S
C464 C463 1.376 . S
C464 C465 1.388 1_545 S
C465 H452 0.930 . S
C465 C464 1.388 1_565 S
C465 C466 1.390 . S
C466 C465 1.390 . S
C466 C467 1.394 1_565 S
C466 C472 1.465 1_554 S
C467 C462 1.399 . S
C467 C466 1.394 1_545 S
C467 C468 1.516 1_554 S
C468 C467 1.516 1_556 S
C468 C469 1.502 . S
C468 C470 1.561 . S
C468 C471 1.526 1_545 S
C469 H453 0.959 . S
C469 H454 0.959 . S
C469 H455 0.961 . S
C469 C468 1.502 . S
C470 H456 0.960 . S
C470 H457 0.961 . S
C470 H458 0.959 . S
C470 C468 1.561 . S
C471 C468 1.526 1_565 S
C471 C472 1.396 . S
C471 C476 1.390 . S
C472 C466 1.465 1_556 S
C472 C471 1.396 . S
C472 C473 1.399 . S
C473 H459 0.929 1_556 S
C473 C472 1.399 . S
C473 C474 1.385 . S
C474 H460 0.931 . S
C474 C473 1.385 . S
C474 C475 1.389 . S
C475 C474 1.389 . S
C475 C476 1.387 . S
C476 H461 0.930 . S
C476 C471 1.390 . S
C476 C475 1.387 . S
H477 C489 0.930 . S
H478 C491 0.930 . S
H479 C492 0.930 . S
H480 C496 0.959 . S
H481 C496 0.959 . S
H482 C496 0.961 . S
H483 C497 0.960 . S
H484 C497 0.961 . S
H485 C497 0.959 . S
H486 C500 0.929 . S
H487 C501 0.931 . S
H488 C503 0.930 . S
C489 H477 0.930 . S
C489 C490 1.399 . S
C489 C494 1.399 . S
C490 C489 1.399 . S
C490 C491 1.376 . S
C491 H478 0.930 . S
C491 C490 1.376 . S
C491 C492 1.388 . S
C492 H479 0.930 . S
C492 C491 1.388 . S
C492 C493 1.390 . S
C493 C492 1.390 . S
C493 C494 1.394 . S
C493 C499 1.465 . S
C494 C489 1.399 . S
C494 C493 1.394 . S
C494 C495 1.516 . S
C495 C494 1.516 . S
C495 C496 1.502 . S
C495 C497 1.561 . S
C495 C498 1.526 . S
C496 H480 0.959 . S
C496 H481 0.959 . S
C496 H482 0.961 . S
C496 C495 1.502 . S
C497 H483 0.960 . S
C497 H484 0.961 . S
C497 H485 0.959 . S
C497 C495 1.561 . S
C498 C495 1.526 . S
C498 C499 1.396 . S
C498 C503 1.390 . S
C499 C493 1.465 . S
C499 C498 1.396 . S
C499 C500 1.399 . S
C500 H486 0.929 . S
C500 C499 1.399 . S
C500 C501 1.385 . S
C501 H487 0.931 . S
C501 C500 1.385 . S
C501 C502 1.389 . S
C502 C501 1.389 . S
C502 C503 1.387 . S
C503 H488 0.930 . S
C503 C498 1.390 . S
C503 C502 1.387 . S
H504 C516 0.930 . S
H505 C518 0.930 . S
H506 C519 0.930 . S
H507 C523 0.959 . S
H508 C523 0.959 . S
H509 C523 0.961 . S
H510 C524 0.960 . S
H511 C524 0.961 . S
H512 C524 0.959 . S
H513 C527 0.929 . S
H514 C528 0.931 . S
H515 C530 0.930 . S
C516 H504 0.930 . S
C516 C517 1.399 . S
C516 C521 1.399 . S
C517 C516 1.399 . S
C517 C518 1.376 . S
C518 H505 0.930 . S
C518 C517 1.376 . S
C518 C519 1.388 . S
C519 H506 0.930 . S
C519 C518 1.388 . S
C519 C520 1.390 . S
C520 C519 1.390 . S
C520 C521 1.394 . S
C520 C526 1.465 . S
C521 C516 1.399 . S
C521 C520 1.394 . S
C521 C522 1.516 . S
C522 C521 1.516 . S
C522 C523 1.502 . S
C522 C524 1.561 . S
C522 C525 1.526 . S
C523 H507 0.959 . S
C523 H508 0.959 . S
C523 H509 0.961 . S
C523 C522 1.502 . S
C524 H510 0.960 . S
C524 H511 0.961 . S
C524 H512 0.959 . S
C524 C522 1.561 . S
C525 C522 1.526 . S
C525 C526 1.396 . S
C525 C530 1.390 . S
C526 C520 1.465 . S
C526 C525 1.396 . S
C526 C527 1.399 . S
C527 H513 0.929 . S
C527 C526 1.399 . S
C527 C528 1.385 . S
C528 H514 0.931 . S
C528 C527 1.385 . S
C528 C529 1.389 . S
C529 C528 1.389 . S
C529 C530 1.387 . S
C530 H515 0.930 . S
C530 C525 1.390 . S
C530 C529 1.387 . S
H531 C543 0.930 . S
H532 C545 0.930 . S
H533 C546 0.930 . S
H534 C550 0.959 . S
H535 C550 0.959 . S
H536 C550 0.961 . S
H537 C551 0.960 . S
H538 C551 0.961 . S
H539 C551 0.959 . S
H540 C554 0.929 . S
H541 C555 0.931 . S
H542 C557 0.930 . S
C543 H531 0.930 . S
C543 C544 1.399 . S
C543 C548 1.399 . S
C544 C543 1.399 . S
C544 C545 1.376 . S
C545 H532 0.930 . S
C545 C544 1.376 . S
C545 C546 1.388 . S
C546 H533 0.930 . S
C546 C545 1.388 . S
C546 C547 1.390 . S
C547 C546 1.390 . S
C547 C548 1.394 . S
C547 C553 1.465 . S
C548 C543 1.399 . S
C548 C547 1.394 . S
C548 C549 1.516 . S
C549 C548 1.516 . S
C549 C550 1.502 . S
C549 C551 1.561 . S
C549 C552 1.526 . S
C550 H534 0.959 . S
C550 H535 0.959 . S
C550 H536 0.961 . S
C550 C549 1.502 . S
C551 H537 0.960 . S
C551 H538 0.961 . S
C551 H539 0.959 . S
C551 C549 1.561 . S
C552 C549 1.526 . S
C552 C553 1.396 . S
C552 C557 1.390 . S
C553 C547 1.465 . S
C553 C552 1.396 . S
C553 C554 1.399 . S
C554 H540 0.929 . S
C554 C553 1.399 . S
C554 C555 1.385 . S
C555 H541 0.931 . S
C555 C554 1.385 . S
C555 C556 1.389 . S
C556 C555 1.389 . S
C556 C557 1.387 . S
C557 H542 0.930 . S
C557 C552 1.390 . S
C557 C556 1.387 . S
H558 C570 0.930 . S
H559 C572 0.930 . S
H560 C573 0.930 . S
H561 C577 0.959 . S
H562 C577 0.959 . S
H563 C577 0.961 . S
H564 C578 0.960 . S
H565 C578 0.961 . S
H566 C578 0.959 . S
H567 C581 0.929 . S
H568 C582 0.931 . S
H569 C584 0.930 . S
C570 H558 0.930 . S
C570 C571 1.399 . S
C570 C575 1.399 . S
C571 C570 1.399 . S
C571 C572 1.376 . S
C572 H559 0.930 . S
C572 C571 1.376 . S
C572 C573 1.388 . S
C573 H560 0.930 . S
C573 C572 1.388 . S
C573 C574 1.390 . S
C574 C573 1.390 . S
C574 C575 1.394 . S
C574 C580 1.465 . S
C575 C570 1.399 . S
C575 C574 1.394 . S
C575 C576 1.516 . S
C576 C575 1.516 . S
C576 C577 1.502 . S
C576 C578 1.561 . S
C576 C579 1.526 . S
C577 H561 0.959 . S
C577 H562 0.959 . S
C577 H563 0.961 . S
C577 C576 1.502 . S
C578 H564 0.960 . S
C578 H565 0.961 . S
C578 H566 0.959 . S
C578 C576 1.561 . S
C579 C576 1.526 . S
C579 C580 1.396 . S
C579 C584 1.390 . S
C580 C574 1.465 . S
C580 C579 1.396 . S
C580 C581 1.399 . S
C581 H567 0.929 . S
C581 C580 1.399 . S
C581 C582 1.385 . S
C582 H568 0.931 . S
C582 C581 1.385 . S
C582 C583 1.389 . S
C583 C582 1.389 . S
C583 C584 1.387 . S
C584 H569 0.930 . S
C584 C579 1.390 . S
C584 C583 1.387 . S
H585 C597 0.930 . S
H586 C599 0.930 . S
H587 C600 0.930 . S
H588 C604 0.959 . S
H589 C604 0.959 . S
H590 C604 0.961 . S
H591 C605 0.960 . S
H592 C605 0.961 . S
H593 C605 0.959 . S
H594 C608 0.929 . S
H595 C609 0.931 . S
H596 C611 0.930 . S
C597 H585 0.930 . S
C597 C598 1.399 . S
C597 C602 1.399 . S
C598 C597 1.399 . S
C598 C599 1.376 . S
C599 H586 0.930 . S
C599 C598 1.376 . S
C599 C600 1.388 . S
C600 H587 0.930 . S
C600 C599 1.388 . S
C600 C601 1.390 . S
C601 C600 1.390 . S
C601 C602 1.394 . S
C601 C607 1.465 . S
C602 C597 1.399 . S
C602 C601 1.394 . S
C602 C603 1.516 . S
C603 C602 1.516 . S
C603 C604 1.502 . S
C603 C605 1.561 . S
C603 C606 1.526 . S
C604 H588 0.959 . S
C604 H589 0.959 . S
C604 H590 0.961 . S
C604 C603 1.502 . S
C605 H591 0.960 . S
C605 H592 0.961 . S
C605 H593 0.959 . S
C605 C603 1.561 . S
C606 C603 1.526 . S
C606 C607 1.396 . S
C606 C611 1.390 . S
C607 C601 1.465 . S
C607 C606 1.396 . S
C607 C608 1.399 . S
C608 H594 0.929 . S
C608 C607 1.399 . S
C608 C609 1.385 . S
C609 H595 0.931 . S
C609 C608 1.385 . S
C609 C610 1.389 . S
C610 C609 1.389 . S
C610 C611 1.387 . S
C611 H596 0.930 . S
C611 C606 1.390 . S
C611 C610 1.387 . S
H612 C624 0.930 . S
H613 C626 0.930 . S
H614 C627 0.930 . S
H615 C631 0.959 . S
H616 C631 0.959 . S
H617 C631 0.961 . S
H618 C632 0.960 . S
H619 C632 0.961 . S
H620 C632 0.959 . S
H621 C635 0.929 . S
H622 C636 0.931 . S
H623 C638 0.930 . S
C624 H612 0.930 . S
C624 C625 1.399 . S
C624 C629 1.399 . S
C625 C624 1.399 . S
C625 C626 1.376 . S
C626 H613 0.930 . S
C626 C625 1.376 . S
C626 C627 1.388 . S
C627 H614 0.930 . S
C627 C626 1.388 . S
C627 C628 1.390 . S
C628 C627 1.390 . S
C628 C629 1.394 . S
C628 C634 1.465 . S
C629 C624 1.399 . S
C629 C628 1.394 . S
C629 C630 1.516 . S
C630 C629 1.516 . S
C630 C631 1.502 . S
C630 C632 1.561 . S
C630 C633 1.526 . S
C631 H615 0.959 . S
C631 H616 0.959 . S
C631 H617 0.961 . S
C631 C630 1.502 . S
C632 H618 0.960 . S
C632 H619 0.961 . S
C632 H620 0.959 . S
C632 C630 1.561 . S
C633 C630 1.526 . S
C633 C634 1.396 . S
C633 C638 1.390 . S
C634 C628 1.465 . S
C634 C633 1.396 . S
C634 C635 1.399 . S
C635 H621 0.929 . S
C635 C634 1.399 . S
C635 C636 1.385 . S
C636 H622 0.931 . S
C636 C635 1.385 . S
C636 C637 1.389 . S
C637 C636 1.389 . S
C637 C638 1.387 . S
C638 H623 0.930 . S
C638 C633 1.390 . S
C638 C637 1.387 . S
H639 C651 0.930 . S
H640 C653 0.930 . S
H641 C654 0.930 . S
H642 C658 0.959 . S
H643 C658 0.959 . S
H644 C658 0.961 . S
H645 C659 0.960 . S
H646 C659 0.961 . S
H647 C659 0.959 . S
H648 C662 0.929 . S
H649 C663 0.931 . S
H650 C665 0.930 . S
C651 H639 0.930 . S
C651 C652 1.399 . S
C651 C656 1.399 . S
C652 C651 1.399 . S
C652 C653 1.376 . S
C653 H640 0.930 . S
C653 C652 1.376 . S
C653 C654 1.388 . S
C654 H641 0.930 . S
C654 C653 1.388 . S
C654 C655 1.390 . S
C655 C654 1.390 . S
C655 C656 1.394 . S
C655 C661 1.465 . S
C656 C651 1.399 . S
C656 C655 1.394 . S
C656 C657 1.516 1_655 S
C657 C656 1.516 1_455 S
C657 C658 1.502 . S
C657 C659 1.561 . S
C657 C660 1.526 . S
C658 H642 0.959 . S
C658 H643 0.959 . S
C658 H644 0.961 . S
C658 C657 1.502 . S
C659 H645 0.960 . S
C659 H646 0.961 . S
C659 H647 0.959 . S
C659 C657 1.561 . S
C660 C657 1.526 . S
C660 C661 1.396 1_455 S
C660 C665 1.390 . S
C661 C655 1.465 . S
C661 C660 1.396 1_655 S
C661 C662 1.399 . S
C662 H648 0.929 . S
C662 C661 1.399 . S
C662 C663 1.385 1_655 S
C663 H649 0.931 . S
C663 C662 1.385 1_455 S
C663 C664 1.389 . S
C664 C663 1.389 . S
C664 C665 1.387 . S
C665 H650 0.930 . S
C665 C660 1.390 . S
C665 C664 1.387 . S
H666 C678 0.930 . S
H667 C680 0.930 . S
H668 C681 0.930 . S
H669 C685 0.959 . S
H670 C685 0.959 . S
H671 C685 0.961 . S
H672 C686 0.960 . S
H673 C686 0.961 . S
H674 C686 0.959 . S
H675 C689 0.929 . S
H676 C690 0.931 . S
H677 C692 0.930 . S
C678 H666 0.930 . S
C678 C679 1.399 . S
C678 C683 1.399 . S
C679 C678 1.399 . S
C679 C680 1.376 . S
C680 H667 0.930 . S
C680 C679 1.376 . S
C680 C681 1.388 . S
C681 H668 0.930 . S
C681 C680 1.388 . S
C681 C682 1.390 . S
C682 C681 1.390 . S
C682 C683 1.394 . S
C682 C688 1.465 . S
C683 C678 1.399 . S
C683 C682 1.394 . S
C683 C684 1.516 . S
C684 C683 1.516 . S
C684 C685 1.502 . S
C684 C686 1.561 . S
C684 C687 1.526 . S
C685 H669 0.959 . S
C685 H670 0.959 . S
C685 H671 0.961 . S
C685 C684 1.502 . S
C686 H672 0.960 . S
C686 H673 0.961 . S
C686 H674 0.959 . S
C686 C684 1.561 . S
C687 C684 1.526 . S
C687 C688 1.396 . S
C687 C692 1.390 . S
C688 C682 1.465 . S
C688 C687 1.396 . S
C688 C689 1.399 . S
C689 H675 0.929 . S
C689 C688 1.399 . S
C689 C690 1.385 . S
C690 H676 0.931 . S
C690 C689 1.385 . S
C690 C691 1.389 . S
C691 C690 1.389 . S
C691 C692 1.387 . S
C692 H677 0.930 . S
C692 C687 1.390 . S
C692 C691 1.387 . S
H693 C705 0.930 . S
H694 C707 0.930 . S
H695 C708 0.930 . S
H696 C712 0.959 . S
H697 C712 0.959 . S
H698 C712 0.961 . S
H699 C713 0.960 . S
H700 C713 0.961 . S
H701 C713 0.959 . S
H702 C716 0.929 . S
H703 C717 0.931 . S
H704 C719 0.930 . S
C705 H693 0.930 . S
C705 C706 1.399 . S
C705 C710 1.399 . S
C706 C705 1.399 . S
C706 C707 1.376 . S
C707 H694 0.930 . S
C707 C706 1.376 . S
C707 C708 1.388 1_565 S
C708 H695 0.930 . S
C708 C707 1.388 1_545 S
C708 C709 1.404 . S
C709 C708 1.404 . S
C709 C710 1.354 1_545 S
C709 C715 1.486 . S
C710 C705 1.399 . S
C710 C709 1.354 1_565 S
C710 C711 1.516 . S
C711 C710 1.516 . S
C711 C712 1.502 . S
C711 C713 1.561 . S
C711 C714 1.526 1_565 S
C712 H696 0.959 . S
C712 H697 0.959 . S
C712 H698 0.961 . S
C712 C711 1.502 . S
C713 H699 0.960 . S
C713 H700 0.961 . S
C713 H701 0.959 . S
C713 C711 1.561 . S
C714 C711 1.526 1_545 S
C714 C715 1.396 . S
C714 C719 1.390 . S
C715 C709 1.486 . S
C715 C714 1.396 . S
C715 C716 1.399 . S
C716 H702 0.929 . S
C716 C715 1.399 . S
C716 C717 1.385 . S
C717 H703 0.931 . S
C717 C716 1.385 . S
C717 C718 1.389 . S
C718 C717 1.389 . S
C718 C719 1.387 . S
C719 H704 0.930 . S
C719 C714 1.390 . S
C719 C718 1.387 . S
H720 C732 0.930 1_556 S
H721 C734 0.930 . S
H722 C735 0.930 . S
H723 C739 0.959 . S
H724 C739 0.959 . S
H725 C739 0.961 . S
H726 C740 0.960 . S
H727 C740 0.961 . S
H728 C740 0.959 1_554 S
H729 C743 0.929 . S
H730 C744 0.931 . S
H731 C746 0.930 . S
C732 H720 0.930 1_554 S
C732 C733 1.399 . S
C732 C737 1.398 1_554 S
C733 C732 1.399 . S
C733 C734 1.376 . S
C734 H721 0.930 . S
C734 C733 1.376 . S
C734 C735 1.388 . S
C735 H722 0.930 . S
C735 C734 1.388 . S
C735 C736 1.390 . S
C736 C735 1.390 . S
C736 C737 1.389 1_554 S
C736 C742 1.465 . S
C737 C732 1.398 1_556 S
C737 C736 1.389 1_556 S
C737 C738 1.521 . S
C738 C737 1.521 . S
C738 C739 1.502 . S
C738 C740 1.561 . S
C738 C741 1.526 . S
C739 H723 0.959 . S
C739 H724 0.959 . S
C739 H725 0.961 . S
C739 C738 1.502 . S
C740 H726 0.960 . S
C740 H727 0.961 . S
C740 H728 0.959 1_556 S
C740 C738 1.561 . S
C741 C738 1.526 . S
C741 C742 1.396 1_556 S
C741 C746 1.390 . S
C742 C736 1.465 . S
C742 C741 1.396 1_554 S
C742 C743 1.399 . S
C743 H729 0.929 . S
C743 C742 1.399 . S
C743 C744 1.385 . S
C744 H730 0.931 . S
C744 C743 1.385 . S
C744 C745 1.389 1_554 S
C745 C744 1.389 1_556 S
C745 C746 1.387 . S
C746 H731 0.930 . S
C746 C741 1.390 . S
C746 C745 1.387 . S
H747 C759 0.930 . S
H748 C761 0.930 . S
H749 C762 0.930 . S
H750 C766 0.959 . S
H751 C766 0.939 1_565 S
H752 C766 0.961 . S
H753 C767 0.960 . S
H754 C767 0.961 . S
H755 C767 0.959 . S
H756 C770 0.929 . S
H757 C771 0.931 . S
H758 C773 0.930 . S
C759 H747 0.930 . S
C759 C760 1.399 1_554 S
C759 C764 1.399 . S
C760 C759 1.399 1_556 S
C760 C761 1.376 . S
C761 H748 0.930 . S
C761 C760 1.376 . S
C761 C762 1.388 . S
C762 H749 0.930 . S
C762 C761 1.388 . S
C762 C763 1.390 . S
C763 C762 1.390 . S
C763 C764 1.394 1_556 S
C763 C769 1.465 1_545 S
C764 C759 1.399 . S
C764 C763 1.394 1_554 S
C764 C765 1.516 . S
C765 C764 1.516 . S
C765 C766 1.502 . S
C765 C767 1.561 . S
C765 C768 1.526 1_545 S
C766 H750 0.959 . S
C766 H751 0.939 1_545 S
C766 H752 0.961 . S
C766 C765 1.502 . S
C767 H753 0.960 . S
C767 H754 0.961 . S
C767 H755 0.959 . S
C767 C765 1.561 . S
C768 C765 1.526 1_565 S
C768 C769 1.396 1_554 S
C768 C773 1.390 . S
C769 C763 1.465 1_565 S
C769 C768 1.396 1_556 S
C769 C770 1.399 . S
C770 H756 0.929 . S
C770 C769 1.399 . S
C770 C771 1.385 . S
C771 H757 0.931 . S
C771 C770 1.385 . S
C771 C772 1.389 1_556 S
C772 C771 1.389 1_554 S
C772 C773 1.387 . S
C773 H758 0.930 . S
C773 C768 1.390 . S
C773 C772 1.387 . S
H774 C786 0.930 . S
H775 C788 0.930 . S
H776 C789 0.930 . S
H777 C793 0.959 . S
H778 C793 0.959 . S
H779 C793 0.961 1_655 S
H780 C794 0.960 . S
H781 C794 0.961 1_455 S
H782 C794 0.959 . S
H783 C797 0.929 . S
H784 C798 0.931 . S
H785 C800 0.930 . S
C786 H774 0.930 . S
C786 C787 1.399 . S
C786 C791 1.399 . S
C787 C786 1.399 . S
C787 C788 1.376 . S
C788 H775 0.930 . S
C788 C787 1.376 . S
C788 C789 1.388 1_556 S
C789 H776 0.930 . S
C789 C788 1.388 1_554 S
C789 C790 1.390 . S
C790 C789 1.390 . S
C790 C791 1.394 1_554 S
C790 C796 1.465 1_655 S
C791 C786 1.399 . S
C791 C790 1.394 1_556 S
C791 C792 1.516 1_655 S
C792 C791 1.516 1_455 S
C792 C793 1.502 . S
C792 C794 1.561 1_456 S
C792 C795 1.526 1_556 S
C793 H777 0.959 . S
C793 H778 0.959 . S
C793 H779 0.961 1_455 S
C793 C792 1.502 . S
C794 H780 0.960 . S
C794 H781 0.961 1_655 S
C794 H782 0.959 . S
C794 C792 1.561 1_654 S
C795 C792 1.526 1_554 S
C795 C796 1.396 . S
C795 C800 1.390 . S
C796 C790 1.465 1_455 S
C796 C795 1.396 . S
C796 C797 1.399 . S
C797 H783 0.929 . S
C797 C796 1.399 . S
C797 C798 1.385 . S
C798 H784 0.931 . S
C798 C797 1.385 . S
C798 C799 1.389 . S
C799 C798 1.389 . S
C799 C800 1.387 . S
C800 H785 0.930 . S
C800 C795 1.390 . S
C800 C799 1.387 . S
H801 C813 0.930 . S
H802 C815 0.930 . S
H803 C816 0.929 . S
H804 C820 0.959 1_554 S
H805 C820 0.959 . S
H806 C820 0.961 . S
H807 C821 0.960 . S
H808 C821 0.961 . S
H809 C821 0.959 . S
H810 C824 0.929 . S
H811 C825 0.931 . S
H812 C827 0.930 . S
C813 H801 0.930 . S
C813 C814 1.399 . S
C813 C818 1.399 . S
C814 C813 1.399 . S
C814 C815 1.376 . S
C815 H802 0.930 . S
C815 C814 1.376 . S
C815 C816 1.389 1_556 S
C816 H803 0.929 . S
C816 C815 1.389 1_554 S
C816 C817 1.390 1_554 S
C817 C816 1.390 1_556 S
C817 C818 1.394 . S
C817 C823 1.465 1_556 S
C818 C813 1.399 . S
C818 C817 1.394 . S
C818 C819 1.516 . S
C819 C818 1.516 . S
C819 C820 1.502 . S
C819 C821 1.561 . S
C819 C822 1.515 1_556 S
C820 H804 0.959 1_556 S
C820 H805 0.959 . S
C820 H806 0.961 . S
C820 C819 1.502 . S
C821 H807 0.960 . S
C821 H808 0.961 . S
C821 H809 0.959 . S
C821 C819 1.561 . S
C822 C819 1.515 1_554 S
C822 C823 1.402 . S
C822 C827 1.395 . S
C823 C817 1.465 1_554 S
C823 C822 1.402 . S
C823 C824 1.399 . S
C824 H810 0.929 . S
C824 C823 1.399 . S
C824 C825 1.385 . S
C825 H811 0.931 . S
C825 C824 1.385 . S
C825 C826 1.389 . S
C826 C825 1.389 . S
C826 C827 1.387 . S
C827 H812 0.930 . S
C827 C822 1.395 . S
C827 C826 1.387 . S
H828 C840 0.930 . S
H829 C842 0.930 . S
H830 C843 0.930 . S
H831 C847 0.959 . S
H832 C847 0.959 . S
H833 C847 0.961 . S
H834 C848 0.960 . S
H835 C848 0.961 . S
H836 C848 0.959 . S
H837 C851 0.929 . S
H838 C852 0.931 . S
H839 C854 0.930 . S
C840 H828 0.930 . S
C840 C841 1.399 1_556 S
C840 C845 1.399 . S
C841 C840 1.399 1_554 S
C841 C842 1.376 . S
C842 H829 0.930 . S
C842 C841 1.376 . S
C842 C843 1.388 . S
C843 H830 0.930 . S
C843 C842 1.388 . S
C843 C844 1.390 . S
C844 C843 1.390 . S
C844 C845 1.394 1_554 S
C844 C850 1.465 1_565 S
C845 C840 1.399 . S
C845 C844 1.394 1_556 S
C845 C846 1.516 . S
C846 C845 1.516 . S
C846 C847 1.502 . S
C846 C848 1.561 . S
C846 C849 1.526 1_565 S
C847 H831 0.959 . S
C847 H832 0.959 . S
C847 H833 0.961 . S
C847 C846 1.502 . S
C848 H834 0.960 . S
C848 H835 0.961 . S
C848 H836 0.959 . S
C848 C846 1.561 . S
C849 C846 1.526 1_545 S
C849 C850 1.396 1_556 S
C849 C854 1.390 . S
C850 C844 1.465 1_545 S
C850 C849 1.396 1_554 S
C850 C851 1.399 . S
C851 H837 0.929 . S
C851 C850 1.399 . S
C851 C852 1.385 . S
C852 H838 0.931 . S
C852 C851 1.385 . S
C852 C853 1.389 1_554 S
C853 C852 1.389 1_556 S
C853 C854 1.387 . S
C854 H839 0.930 . S
C854 C849 1.390 . S
C854 C853 1.387 . S
H855 C867 0.930 . S
H856 C869 0.930 . S
H857 C870 0.930 . S
H858 C874 0.959 . S
H859 C874 0.959 . S
H860 C874 0.961 . S
H861 C875 0.960 1_655 S
H862 C875 0.961 . S
H863 C875 0.959 1_554 S
H864 C878 0.929 . S
H865 C879 0.931 . S
H866 C881 0.930 1_556 S
C867 H855 0.930 . S
C867 C868 1.399 . S
C867 C872 1.399 . S
C868 C867 1.399 . S
C868 C869 1.376 1_556 S
C869 H856 0.930 . S
C869 C868 1.376 1_554 S
C869 C870 1.388 . S
C870 H857 0.930 . S
C870 C869 1.388 . S
C870 C871 1.390 . S
C871 C870 1.390 . S
C871 C872 1.394 1_554 S
C871 C877 1.465 1_655 S
C872 C867 1.399 . S
C872 C871 1.394 1_556 S
C872 C873 1.516 1_655 S
C873 C872 1.516 1_455 S
C873 C874 1.502 . S
C873 C875 1.561 . S
C873 C876 1.526 . S
C874 H858 0.959 . S
C874 H859 0.959 . S
C874 H860 0.961 . S
C874 C873 1.502 . S
C875 H861 0.960 1_455 S
C875 H862 0.961 . S
C875 H863 0.959 1_556 S
C875 C873 1.561 . S
C876 C873 1.526 . S
C876 C877 1.396 1_556 S
C876 C881 1.390 1_556 S
C877 C871 1.465 1_455 S
C877 C876 1.396 1_554 S
C877 C878 1.399 . S
C878 H864 0.929 . S
C878 C877 1.399 . S
C878 C879 1.385 . S
C879 H865 0.931 . S
C879 C878 1.385 . S
C879 C880 1.389 . S
C880 C879 1.389 . S
C880 C881 1.387 . S
C881 H866 0.930 1_554 S
C881 C876 1.390 1_554 S
C881 C880 1.387 . S
H882 C894 0.930 . S
H883 C896 0.930 . S
H884 C897 0.930 . S
H885 C901 0.959 . S
H886 C901 0.959 . S
H887 C901 0.961 . S
H888 C902 0.960 . S
H889 C902 0.961 . S
H890 C902 0.959 . S
H891 C905 0.929 . S
H892 C906 0.931 . S
H893 C908 0.930 . S
C894 H882 0.930 . S
C894 C895 1.399 . S
C894 C899 1.399 . S
C895 C894 1.399 . S
C895 C896 1.376 . S
C896 H883 0.930 . S
C896 C895 1.376 . S
C896 C897 1.388 . S
C897 H884 0.930 . S
C897 C896 1.388 . S
C897 C898 1.390 . S
C898 C897 1.390 . S
C898 C899 1.394 . S
C898 C904 1.465 . S
C899 C894 1.399 . S
C899 C898 1.394 . S
C899 C900 1.516 . S
C900 C899 1.516 . S
C900 C901 1.502 . S
C900 C902 1.561 . S
C900 C903 1.526 . S
C901 H885 0.959 . S
C901 H886 0.959 . S
C901 H887 0.961 . S
C901 C900 1.502 . S
C902 H888 0.960 . S
C902 H889 0.961 . S
C902 H890 0.959 . S
C902 C900 1.561 . S
C903 C900 1.526 . S
C903 C904 1.396 . S
C903 C908 1.390 . S
C904 C898 1.465 . S
C904 C903 1.396 . S
C904 C905 1.399 . S
C905 H891 0.929 . S
C905 C904 1.399 . S
C905 C906 1.385 . S
C906 H892 0.931 . S
C906 C905 1.385 . S
C906 C907 1.389 . S
C907 C906 1.389 . S
C907 C908 1.387 . S
C908 H893 0.930 . S
C908 C903 1.390 . S
C908 C907 1.387 . S
H909 C921 0.930 . S
H910 C923 0.930 . S
H911 C924 0.930 . S
H912 C928 0.959 . S
H913 C928 0.959 . S
H914 C928 0.961 . S
H915 C929 0.960 . S
H916 C929 0.961 . S
H917 C929 0.959 . S
H918 C932 0.929 . S
H919 C933 0.931 . S
H920 C935 0.930 . S
C921 H909 0.930 . S
C921 C922 1.399 . S
C921 C926 1.399 . S
C922 C921 1.399 . S
C922 C923 1.376 . S
C923 H910 0.930 . S
C923 C922 1.376 . S
C923 C924 1.388 . S
C924 H911 0.930 . S
C924 C923 1.388 . S
C924 C925 1.390 . S
C925 C924 1.390 . S
C925 C926 1.394 . S
C925 C931 1.465 . S
C926 C921 1.399 . S
C926 C925 1.394 . S
C926 C927 1.516 . S
C927 C926 1.516 . S
C927 C928 1.502 . S
C927 C929 1.561 . S
C927 C930 1.526 . S
C928 H912 0.959 . S
C928 H913 0.959 . S
C928 H914 0.961 . S
C928 C927 1.502 . S
C929 H915 0.960 . S
C929 H916 0.961 . S
C929 H917 0.959 . S
C929 C927 1.561 . S
C930 C927 1.526 . S
C930 C931 1.396 . S
C930 C935 1.390 . S
C931 C925 1.465 . S
C931 C930 1.396 . S
C931 C932 1.399 . S
C932 H918 0.929 . S
C932 C931 1.399 . S
C932 C933 1.385 . S
C933 H919 0.931 . S
C933 C932 1.385 . S
C933 C934 1.389 . S
C934 C933 1.389 . S
C934 C935 1.387 . S
C935 H920 0.930 . S
C935 C930 1.390 . S
C935 C934 1.387 . S
H936 C948 0.930 . S
H937 C950 0.930 . S
H938 C951 0.930 . S
H939 C955 0.959 . S
H940 C955 0.959 . S
H941 C955 0.961 . S
H942 C956 0.960 . S
H943 C956 0.961 . S
H944 C956 0.959 . S
H945 C959 0.929 . S
H946 C960 0.931 . S
H947 C962 0.930 . S
C948 H936 0.930 . S
C948 C949 1.399 . S
C948 C953 1.399 . S
C949 C948 1.399 . S
C949 C950 1.376 . S
C950 H937 0.930 . S
C950 C949 1.376 . S
C950 C951 1.388 . S
C951 H938 0.930 . S
C951 C950 1.388 . S
C951 C952 1.390 . S
C952 C951 1.390 . S
C952 C953 1.394 . S
C952 C958 1.465 . S
C953 C948 1.399 . S
C953 C952 1.394 . S
C953 C954 1.516 . S
C954 C953 1.516 . S
C954 C955 1.502 . S
C954 C956 1.561 . S
C954 C957 1.526 . S
C955 H939 0.959 . S
C955 H940 0.959 . S
C955 H941 0.961 . S
C955 C954 1.502 . S
C956 H942 0.960 . S
C956 H943 0.961 . S
C956 H944 0.959 . S
C956 C954 1.561 . S
C957 C954 1.526 . S
C957 C958 1.396 . S
C957 C962 1.390 . S
C958 C952 1.465 . S
C958 C957 1.396 . S
C958 C959 1.399 . S
C959 H945 0.929 . S
C959 C958 1.399 . S
C959 C960 1.385 . S
C960 H946 0.931 . S
C960 C959 1.385 . S
C960 C961 1.389 . S
C961 C960 1.389 . S
C961 C962 1.387 . S
C962 H947 0.930 . S
C962 C957 1.390 . S
C962 C961 1.387 . S
H963 C975 0.930 . S
H964 C977 0.930 . S
H965 C978 0.930 . S
H966 C982 0.959 . S
H967 C982 0.959 . S
H968 C982 0.961 . S
H969 C983 0.960 . S
H970 C983 0.961 . S
H971 C983 0.959 . S
H972 C986 0.929 . S
H973 C987 0.931 . S
H974 C989 0.930 . S
C975 H963 0.930 . S
C975 C976 1.399 . S
C975 C980 1.399 . S
C976 C975 1.399 . S
C976 C977 1.376 . S
C977 H964 0.930 . S
C977 C976 1.376 . S
C977 C978 1.388 . S
C978 H965 0.930 . S
C978 C977 1.388 . S
C978 C979 1.390 . S
C979 C978 1.390 . S
C979 C980 1.394 . S
C979 C985 1.465 . S
C980 C975 1.399 . S
C980 C979 1.394 . S
C980 C981 1.516 . S
C981 C980 1.516 . S
C981 C982 1.502 . S
C981 C983 1.561 . S
C981 C984 1.526 . S
C982 H966 0.959 . S
C982 H967 0.959 . S
C982 H968 0.961 . S
C982 C981 1.502 . S
C983 H969 0.960 . S
C983 H970 0.961 . S
C983 H971 0.959 . S
C983 C981 1.561 . S
C984 C981 1.526 . S
C984 C985 1.396 . S
C984 C989 1.390 . S
C985 C979 1.465 . S
C985 C984 1.396 . S
C985 C986 1.399 . S
C986 H972 0.929 . S
C986 C985 1.399 . S
C986 C987 1.385 . S
C987 H973 0.931 . S
C987 C986 1.385 . S
C987 C988 1.389 . S
C988 C987 1.389 . S
C988 C989 1.387 . S
C989 H974 0.930 . S
C989 C984 1.390 . S
C989 C988 1.387 . S
H990 C1002 0.930 . S
H991 C1004 0.930 . S
H992 C1005 0.930 . S
H993 C1009 0.959 . S
H994 C1009 0.959 . S
H995 C1009 0.961 . S
H996 C1010 0.960 . S
H997 C1010 0.961 . S
H998 C1010 0.959 . S
H999 C1013 0.929 . S
H1000 C1014 0.931 . S
H1001 C1016 0.930 . S
C1002 H990 0.930 . S
C1002 C1003 1.399 . S
C1002 C1007 1.399 . S
C1003 C1002 1.399 . S
C1003 C1004 1.376 . S
C1004 H991 0.930 . S
C1004 C1003 1.376 . S
C1004 C1005 1.388 . S
C1005 H992 0.930 . S
C1005 C1004 1.388 . S
C1005 C1006 1.390 . S
C1006 C1005 1.390 . S
C1006 C1007 1.394 . S
C1006 C1012 1.465 . S
C1007 C1002 1.399 . S
C1007 C1006 1.394 . S
C1007 C1008 1.516 . S
C1008 C1007 1.516 . S
C1008 C1009 1.502 . S
C1008 C1010 1.561 . S
C1008 C1011 1.526 . S
C1009 H993 0.959 . S
C1009 H994 0.959 . S
C1009 H995 0.961 . S
C1009 C1008 1.502 . S
C1010 H996 0.960 . S
C1010 H997 0.961 . S
C1010 H998 0.959 . S
C1010 C1008 1.561 . S
C1011 C1008 1.526 . S
C1011 C1012 1.396 . S
C1011 C1016 1.390 . S
C1012 C1006 1.465 . S
C1012 C1011 1.396 . S
C1012 C1013 1.399 . S
C1013 H999 0.929 . S
C1013 C1012 1.399 . S
C1013 C1014 1.385 . S
C1014 H1000 0.931 . S
C1014 C1013 1.385 . S
C1014 C1015 1.389 . S
C1015 C1014 1.389 . S
C1015 C1016 1.387 . S
C1016 H1001 0.930 . S
C1016 C1011 1.390 . S
C1016 C1015 1.387 . S
H1017 C1029 0.930 . S
H1018 C1031 0.930 . S
H1019 C1032 0.930 . S
H1020 C1036 0.959 . S
H1021 C1036 0.959 . S
H1022 C1036 0.961 . S
H1023 C1037 0.960 . S
H1024 C1037 0.961 . S
H1025 C1037 0.959 . S
H1026 C1040 0.929 . S
H1027 C1041 0.931 . S
H1028 C1043 0.930 . S
C1029 H1017 0.930 . S
C1029 C1030 1.399 . S
C1029 C1034 1.399 . S
C1030 C1029 1.399 . S
C1030 C1031 1.376 . S
C1031 H1018 0.930 . S
C1031 C1030 1.376 . S
C1031 C1032 1.388 . S
C1032 H1019 0.930 . S
C1032 C1031 1.388 . S
C1032 C1033 1.390 . S
C1033 C1032 1.390 . S
C1033 C1034 1.394 . S
C1033 C1039 1.465 . S
C1034 C1029 1.399 . S
C1034 C1033 1.394 . S
C1034 C1035 1.516 . S
C1035 C1034 1.516 . S
C1035 C1036 1.502 . S
C1035 C1037 1.561 . S
C1035 C1038 1.526 . S
C1036 H1020 0.959 . S
C1036 H1021 0.959 . S
C1036 H1022 0.961 . S
C1036 C1035 1.502 . S
C1037 H1023 0.960 . S
C1037 H1024 0.961 . S
C1037 H1025 0.959 . S
C1037 C1035 1.561 . S
C1038 C1035 1.526 . S
C1038 C1039 1.396 . S
C1038 C1043 1.390 . S
C1039 C1033 1.465 . S
C1039 C1038 1.396 . S
C1039 C1040 1.399 . S
C1040 H1026 0.929 . S
C1040 C1039 1.399 . S
C1040 C1041 1.385 . S
C1041 H1027 0.931 . S
C1041 C1040 1.385 . S
C1041 C1042 1.389 . S
C1042 C1041 1.389 . S
C1042 C1043 1.387 . S
C1043 H1028 0.930 . S
C1043 C1038 1.390 . S
C1043 C1042 1.387 . S
H1044 C1056 0.930 . S
H1045 C1058 0.930 . S
H1046 C1059 0.930 . S
H1047 C1063 0.959 . S
H1048 C1063 0.959 . S
H1049 C1063 0.961 . S
H1050 C1064 0.960 . S
H1051 C1064 0.961 . S
H1052 C1064 0.959 . S
H1053 C1067 0.929 . S
H1054 C1068 0.931 . S
H1055 C1070 0.930 . S
C1056 H1044 0.930 . S
C1056 C1057 1.399 . S
C1056 C1061 1.399 . S
C1057 C1056 1.399 . S
C1057 C1058 1.376 . S
C1058 H1045 0.930 . S
C1058 C1057 1.376 . S
C1058 C1059 1.388 . S
C1059 H1046 0.930 . S
C1059 C1058 1.388 . S
C1059 C1060 1.390 . S
C1060 C1059 1.390 . S
C1060 C1061 1.394 . S
C1060 C1066 1.465 . S
C1061 C1056 1.399 . S
C1061 C1060 1.394 . S
C1061 C1062 1.516 . S
C1062 C1061 1.516 . S
C1062 C1063 1.502 . S
C1062 C1064 1.561 . S
C1062 C1065 1.526 . S
C1063 H1047 0.959 . S
C1063 H1048 0.959 . S
C1063 H1049 0.961 . S
C1063 C1062 1.502 . S
C1064 H1050 0.960 . S
C1064 H1051 0.961 . S
C1064 H1052 0.959 . S
C1064 C1062 1.561 . S
C1065 C1062 1.526 . S
C1065 C1066 1.396 . S
C1065 C1070 1.390 . S
C1066 C1060 1.465 . S
C1066 C1065 1.396 . S
C1066 C1067 1.399 . S
C1067 H1053 0.929 . S
C1067 C1066 1.399 . S
C1067 C1068 1.385 . S
C1068 H1054 0.931 . S
C1068 C1067 1.385 . S
C1068 C1069 1.389 . S
C1069 C1068 1.389 . S
C1069 C1070 1.387 . S
C1070 H1055 0.930 . S
C1070 C1065 1.390 . S
C1070 C1069 1.387 . S
H1071 C1083 0.930 . S
H1072 C1085 0.930 . S
H1073 C1086 0.930 . S
H1074 C1090 0.959 . S
H1075 C1090 0.959 . S
H1076 C1090 0.961 . S
H1077 C1091 0.960 . S
H1078 C1091 0.961 . S
H1079 C1091 0.959 . S
H1080 C1094 0.929 . S
H1081 C1095 0.931 . S
H1082 C1097 0.930 . S
C1083 H1071 0.930 . S
C1083 C1084 1.399 . S
C1083 C1088 1.399 . S
C1084 C1083 1.399 . S
C1084 C1085 1.376 . S
C1085 H1072 0.930 . S
C1085 C1084 1.376 . S
C1085 C1086 1.388 . S
C1086 H1073 0.930 . S
C1086 C1085 1.388 . S
C1086 C1087 1.390 . S
C1087 C1086 1.390 . S
C1087 C1088 1.394 . S
C1087 C1093 1.465 . S
C1088 C1083 1.399 . S
C1088 C1087 1.394 . S
C1088 C1089 1.516 . S
C1089 C1088 1.516 . S
C1089 C1090 1.502 . S
C1089 C1091 1.561 . S
C1089 C1092 1.526 . S
C1090 H1074 0.959 . S
C1090 H1075 0.959 . S
C1090 H1076 0.961 . S
C1090 C1089 1.502 . S
C1091 H1077 0.960 . S
C1091 H1078 0.961 . S
C1091 H1079 0.959 . S
C1091 C1089 1.561 . S
C1092 C1089 1.526 . S
C1092 C1093 1.396 . S
C1092 C1097 1.390 . S
C1093 C1087 1.465 . S
C1093 C1092 1.396 . S
C1093 C1094 1.399 . S
C1094 H1080 0.929 . S
C1094 C1093 1.399 . S
C1094 C1095 1.385 . S
C1095 H1081 0.931 . S
C1095 C1094 1.385 . S
C1095 C1096 1.389 . S
C1096 C1095 1.389 . S
C1096 C1097 1.387 . S
C1097 H1082 0.930 . S
C1097 C1092 1.390 . S
C1097 C1096 1.387 . S
H1098 C1110 0.930 . S
H1099 C1112 0.930 . S
H1100 C1113 0.930 . S
H1101 C1117 0.959 . S
H1102 C1117 0.959 . S
H1103 C1117 0.961 . S
H1104 C1118 0.960 . S
H1105 C1118 0.961 . S
H1106 C1118 0.959 . S
H1107 C1121 0.929 . S
H1108 C1122 0.931 . S
H1109 C1124 0.930 . S
C1110 H1098 0.930 . S
C1110 C1111 1.399 . S
C1110 C1115 1.399 . S
C1111 C1110 1.399 . S
C1111 C1112 1.376 . S
C1112 H1099 0.930 . S
C1112 C1111 1.376 . S
C1112 C1113 1.388 . S
C1113 H1100 0.930 . S
C1113 C1112 1.388 . S
C1113 C1114 1.390 . S
C1114 C1113 1.390 . S
C1114 C1115 1.394 . S
C1114 C1120 1.465 . S
C1115 C1110 1.399 . S
C1115 C1114 1.394 . S
C1115 C1116 1.516 . S
C1116 C1115 1.516 . S
C1116 C1117 1.502 . S
C1116 C1118 1.561 . S
C1116 C1119 1.526 . S
C1117 H1101 0.959 . S
C1117 H1102 0.959 . S
C1117 H1103 0.961 . S
C1117 C1116 1.502 . S
C1118 H1104 0.960 . S
C1118 H1105 0.961 . S
C1118 H1106 0.959 . S
C1118 C1116 1.561 . S
C1119 C1116 1.526 . S
C1119 C1120 1.396 . S
C1119 C1124 1.390 . S
C1120 C1114 1.465 . S
C1120 C1119 1.396 . S
C1120 C1121 1.399 . S
C1121 H1107 0.929 . S
C1121 C1120 1.399 . S
C1121 C1122 1.385 . S
C1122 H1108 0.931 . S
C1122 C1121 1.385 . S
C1122 C1123 1.389 . S
C1123 C1122 1.389 . S
C1123 C1124 1.387 . S
C1124 H1109 0.930 . S
C1124 C1119 1.390 . S
C1124 C1123 1.387 . S
H1125 C1137 0.930 . S
H1126 C1139 0.930 . S
H1127 C1140 0.930 . S
H1128 C1144 0.959 . S
H1129 C1144 0.959 . S
H1130 C1144 0.961 . S
H1131 C1145 0.960 . S
H1132 C1145 0.961 . S
H1133 C1145 0.959 . S
H1134 C1148 0.929 . S
H1135 C1149 0.931 . S
H1136 C1151 0.930 . S
C1137 H1125 0.930 . S
C1137 C1138 1.399 . S
C1137 C1142 1.399 . S
C1138 C1137 1.399 . S
C1138 C1139 1.376 . S
C1139 H1126 0.930 . S
C1139 C1138 1.376 . S
C1139 C1140 1.388 . S
C1140 H1127 0.930 . S
C1140 C1139 1.388 . S
C1140 C1141 1.390 . S
C1141 C1140 1.390 . S
C1141 C1142 1.394 . S
C1141 C1147 1.465 . S
C1142 C1137 1.399 . S
C1142 C1141 1.394 . S
C1142 C1143 1.516 . S
C1143 C1142 1.516 . S
C1143 C1144 1.502 . S
C1143 C1145 1.561 . S
C1143 C1146 1.526 . S
C1144 H1128 0.959 . S
C1144 H1129 0.959 . S
C1144 H1130 0.961 . S
C1144 C1143 1.502 . S
C1145 H1131 0.960 . S
C1145 H1132 0.961 . S
C1145 H1133 0.959 . S
C1145 C1143 1.561 . S
C1146 C1143 1.526 . S
C1146 C1147 1.396 . S
C1146 C1151 1.390 . S
C1147 C1141 1.465 . S
C1147 C1146 1.396 . S
C1147 C1148 1.399 . S
C1148 H1134 0.929 . S
C1148 C1147 1.399 . S
C1148 C1149 1.385 . S
C1149 H1135 0.931 . S
C1149 C1148 1.385 . S
C1149 C1150 1.389 . S
C1150 C1149 1.389 . S
C1150 C1151 1.387 . S
C1151 H1136 0.930 . S
C1151 C1146 1.390 . S
C1151 C1150 1.387 . S
H1152 C1164 0.930 . S
H1153 C1166 0.930 . S
H1154 C1167 0.930 . S
H1155 C1171 0.959 . S
H1156 C1171 0.959 . S
H1157 C1171 0.961 . S
H1158 C1172 0.960 . S
H1159 C1172 0.961 . S
H1160 C1172 0.959 . S
H1161 C1175 0.929 . S
H1162 C1176 0.931 . S
H1163 C1178 0.930 . S
C1164 H1152 0.930 . S
C1164 C1165 1.399 . S
C1164 C1169 1.399 . S
C1165 C1164 1.399 . S
C1165 C1166 1.376 . S
C1166 H1153 0.930 . S
C1166 C1165 1.376 . S
C1166 C1167 1.388 . S
C1167 H1154 0.930 . S
C1167 C1166 1.388 . S
C1167 C1168 1.390 . S
C1168 C1167 1.390 . S
C1168 C1169 1.394 . S
C1168 C1174 1.465 . S
C1169 C1164 1.399 . S
C1169 C1168 1.394 . S
C1169 C1170 1.516 . S
C1170 C1169 1.516 . S
C1170 C1171 1.502 . S
C1170 C1172 1.561 . S
C1170 C1173 1.526 . S
C1171 H1155 0.959 . S
C1171 H1156 0.959 . S
C1171 H1157 0.961 . S
C1171 C1170 1.502 . S
C1172 H1158 0.960 . S
C1172 H1159 0.961 . S
C1172 H1160 0.959 . S
C1172 C1170 1.561 . S
C1173 C1170 1.526 . S
C1173 C1174 1.396 . S
C1173 C1178 1.390 . S
C1174 C1168 1.465 . S
C1174 C1173 1.396 . S
C1174 C1175 1.399 . S
C1175 H1161 0.929 . S
C1175 C1174 1.399 . S
C1175 C1176 1.385 . S
C1176 H1162 0.931 . S
C1176 C1175 1.385 . S
C1176 C1177 1.389 . S
C1177 C1176 1.389 . S
C1177 C1178 1.387 . S
C1178 H1163 0.930 . S
C1178 C1173 1.390 . S
C1178 C1177 1.387 . S
H1179 C1191 0.930 . S
H1180 C1193 0.930 . S
H1181 C1194 0.930 . S
H1182 C1198 0.959 . S
H1183 C1198 0.959 . S
H1184 C1198 0.961 . S
H1185 C1199 0.960 . S
H1186 C1199 0.961 . S
H1187 C1199 0.959 . S
H1188 C1202 0.929 . S
H1189 C1203 0.931 . S
H1190 C1205 0.930 . S
C1191 H1179 0.930 . S
C1191 C1192 1.399 . S
C1191 C1196 1.399 . S
C1192 C1191 1.399 . S
C1192 C1193 1.376 . S
C1193 H1180 0.930 . S
C1193 C1192 1.376 . S
C1193 C1194 1.388 . S
C1194 H1181 0.930 . S
C1194 C1193 1.388 . S
C1194 C1195 1.390 . S
C1195 C1194 1.390 . S
C1195 C1196 1.394 . S
C1195 C1201 1.465 . S
C1196 C1191 1.399 . S
C1196 C1195 1.394 . S
C1196 C1197 1.516 . S
C1197 C1196 1.516 . S
C1197 C1198 1.502 . S
C1197 C1199 1.561 . S
C1197 C1200 1.526 . S
C1198 H1182 0.959 . S
C1198 H1183 0.959 . S
C1198 H1184 0.961 . S
C1198 C1197 1.502 . S
C1199 H1185 0.960 . S
C1199 H1186 0.961 . S
C1199 H1187 0.959 . S
C1199 C1197 1.561 . S
C1200 C1197 1.526 . S
C1200 C1201 1.396 . S
C1200 C1205 1.390 . S
C1201 C1195 1.465 . S
C1201 C1200 1.396 . S
C1201 C1202 1.399 . S
C1202 H1188 0.929 . S
C1202 C1201 1.399 . S
C1202 C1203 1.385 . S
C1203 H1189 0.931 . S
C1203 C1202 1.385 . S
C1203 C1204 1.389 . S
C1204 C1203 1.389 . S
C1204 C1205 1.387 . S
C1205 H1190 0.930 . S
C1205 C1200 1.390 . S
C1205 C1204 1.387 . S
C247 C221 1.822 . S
C259 C0 1.817 . S
C274 C195 1.836 . S
C286 C13 1.838 . S
C301 C208 1.806 . S
C313 C26 1.812 . S
C328 C91 1.833 . S
C340 C39 1.836 . S
C355 C104 1.838 . S
C367 C52 1.838 . S
C382 C65 1.838 . S
C394 C78 1.836 . S
C409 C117 1.797 . S
C421 C169 1.796 . S
C436 C130 1.813 . S
C448 C182 1.819 . S
C463 C143 1.810 . S
C475 C156 1.816 . S
C490 C5 0.900 . S
C502 C226 0.833 . S
C517 C200 0.812 . S
C529 C18 0.906 . S
C544 C31 0.868 . S
C556 C213 0.827 . S
C571 C96 0.826 . S
C583 C44 0.903 . S
C598 C57 0.870 . S
C610 C109 0.871 . S
C625 C70 0.811 . S
C637 C83 0.889 . S
C652 C122 0.816 . S
C664 C174 0.906 . S
C679 C187 0.844 . S
C691 C135 0.848 . S
C706 C161 0.902 . S
C718 C148 0.830 . S
C733 C10 1.467 . S
C745 C49 1.440 . S
C760 C62 1.480 . S
C772 C23 1.454 . S
C787 C75 1.461 . S
C799 C36 1.478 . S
C814 C73 1.404 . S
C826 C21 1.415 . S
C841 C34 1.463 . S
C853 C47 1.381 . S
C868 C60 1.379 . S
C880 C8 1.463 . S
C895 C88 1.441 . S
C907 C127 1.474 . S
C922 C140 1.440 . S
C934 C101 1.472 . S
C949 C153 1.479 . S
C961 C114 1.450 . S
C976 C151 1.389 . S
C988 C99 1.432 . S
C1003 C112 1.460 . S
C1015 C125 1.389 . S
C1030 C138 1.393 . S
C1042 C86 1.456 . S
C1057 C205 1.467 . S
C1069 C166 1.474 . S
C1084 C218 1.478 . S
C1096 C179 1.461 . S
C1111 C192 1.472 . S
C1123 C231 1.441 . S
C1138 C229 1.416 . S
C1150 C177 1.404 . S
C1165 C190 1.456 . S
C1177 C203 1.395 . S
C1192 C216 1.374 . S
C1204 C164 1.453 . S
