# Generated by pormake.
# Topology vcu, (8)-cn, num edge types: 1
# Building blocks:
#     Node 0, Type 0, BuildingBlock: TAGTUT_clean_sbu_3, # of connection points: 8
#     Node 1, Type 0, BuildingBlock: TAGTUT_clean_sbu_3, # of connection points: 8
#     Node 2, Type 0, BuildingBlock: TAGTUT_clean_sbu_3, # of connection points: 8
#     Node 3, Type 0, BuildingBlock: TAGTUT_clean_sbu_3, # of connection points: 8
#     Node 4, Type 0, BuildingBlock: TAGTUT_clean_sbu_3, # of connection points: 8
#     Node 5, Type 0, BuildingBlock: TAGTUT_clean_sbu_3, # of connection points: 8
#     Node 6, Type 0, BuildingBlock: TAGTUT_clean_sbu_3, # of connection points: 8
#     Node 7, Type 0, BuildingBlock: TAGTUT_clean_sbu_3, # of connection points: 8
#     Edge 8, Type (0, 0), BuildingBlock: AJUNOK_clean_linker_0, # of connection points: 2
#     Edge 9, Type (0, 0), BuildingBlock: AJUNOK_clean_linker_0, # of connection points: 2
#     Edge 10, Type (0, 0), BuildingBlock: AJUNOK_clean_linker_0, # of connection points: 2
#     Edge 11, Type (0, 0), BuildingBlock: AJUNOK_clean_linker_0, # of connection points: 2
#     Edge 12, Type (0, 0), BuildingBlock: AJUNOK_clean_linker_0, # of connection points: 2
#     Edge 13, Type (0, 0), BuildingBlock: AJUNOK_clean_linker_0, # of connection points: 2
#     Edge 14, Type (0, 0), BuildingBlock: AJUNOK_clean_linker_0, # of connection points: 2
#     Edge 15, Type (0, 0), BuildingBlock: AJUNOK_clean_linker_0, # of connection points: 2
#     Edge 16, Type (0, 0), BuildingBlock: AJUNOK_clean_linker_0, # of connection points: 2
#     Edge 17, Type (0, 0), BuildingBlock: AJUNOK_clean_linker_0, # of connection points: 2
#     Edge 18, Type (0, 0), BuildingBlock: AJUNOK_clean_linker_0, # of connection points: 2
#     Edge 19, Type (0, 0), BuildingBlock: AJUNOK_clean_linker_0, # of connection points: 2
#     Edge 20, Type (0, 0), BuildingBlock: AJUNOK_clean_linker_0, # of connection points: 2
#     Edge 21, Type (0, 0), BuildingBlock: AJUNOK_clean_linker_0, # of connection points: 2
#     Edge 22, Type (0, 0), BuildingBlock: AJUNOK_clean_linker_0, # of connection points: 2
#     Edge 23, Type (0, 0), BuildingBlock: AJUNOK_clean_linker_0, # of connection points: 2
#     Edge 24, Type (0, 0), BuildingBlock: AJUNOK_clean_linker_0, # of connection points: 2
#     Edge 25, Type (0, 0), BuildingBlock: AJUNOK_clean_linker_0, # of connection points: 2
#     Edge 26, Type (0, 0), BuildingBlock: AJUNOK_clean_linker_0, # of connection points: 2
#     Edge 27, Type (0, 0), BuildingBlock: AJUNOK_clean_linker_0, # of connection points: 2
#     Edge 28, Type (0, 0), BuildingBlock: AJUNOK_clean_linker_0, # of connection points: 2
#     Edge 29, Type (0, 0), BuildingBlock: AJUNOK_clean_linker_0, # of connection points: 2
#     Edge 30, Type (0, 0), BuildingBlock: AJUNOK_clean_linker_0, # of connection points: 2
#     Edge 31, Type (0, 0), BuildingBlock: AJUNOK_clean_linker_0, # of connection points: 2
#     Edge 32, Type (0, 0), BuildingBlock: AJUNOK_clean_linker_0, # of connection points: 2
#     Edge 33, Type (0, 0), BuildingBlock: AJUNOK_clean_linker_0, # of connection points: 2
#     Edge 34, Type (0, 0), BuildingBlock: AJUNOK_clean_linker_0, # of connection points: 2
#     Edge 35, Type (0, 0), BuildingBlock: AJUNOK_clean_linker_0, # of connection points: 2
#     Edge 36, Type (0, 0), BuildingBlock: AJUNOK_clean_linker_0, # of connection points: 2
#     Edge 37, Type (0, 0), BuildingBlock: AJUNOK_clean_linker_0, # of connection points: 2
#     Edge 38, Type (0, 0), BuildingBlock: AJUNOK_clean_linker_0, # of connection points: 2
#     Edge 39, Type (0, 0), BuildingBlock: AJUNOK_clean_linker_0, # of connection points: 2
# Relax obj value: 0.226
# Max RMSD: 0.292
# Mean RMSD: 0.290
data_MOF--net-vcu--node1-TAGTUT_clean_sbu_3--edge1-AJUNOK_clean_linker_0
_symmetry_space_group_name_H-M    P1
_symmetry_Int_Tables_number       1
_symmetry_cell_setting            triclinic
loop_
_symmetry_equiv_pos_as_xyz
'x, y, z'
_cell_length_a     14.809297
_cell_length_b     25.422774
_cell_length_c     38.133331
_cell_angle_alpha  90.262083
_cell_angle_beta   90.143625
_cell_angle_gamma 90.51786
loop_
_atom_site_label
_atom_site_type_symbol
_atom_site_fract_x
_atom_site_fract_y
_atom_site_fract_z
_atom_type_partial_charge
C0 C 0.4542 0.38704 0.31118 0.0
C1 C 0.69986 0.3421 0.38761 0.0
C2 C 0.51671 0.24125 0.44626 0.0
Mg3 Mg 0.24893 0.4065 0.32149 0.0
Mg4 Mg 0.19493 0.46211 0.39527 0.0
O5 O 0.23538 0.4008 0.37382 0.0
Mg6 Mg 0.36042 0.38289 0.38734 0.0
O7 O 0.48668 0.36071 0.39547 0.0
Mg8 Mg 0.49922 0.29528 0.36601 0.0
Mg9 Mg 0.53957 0.35872 0.43879 0.0
C10 C 0.23979 0.38884 0.45768 0.0
O11 O 0.39484 0.46195 0.41521 0.0
O12 O 0.09364 0.40806 0.32227 0.0
O13 O 0.47203 0.42517 0.46002 0.0
O14 O 0.25743 0.49969 0.3202 0.0
O15 O 0.06446 0.4526 0.3723 0.0
O16 O 0.26413 0.52957 0.37497 0.0
O17 O 0.34319 0.30098 0.36586 0.0
O18 O 0.2481 0.31174 0.32152 0.0
C19 C 0.29406 0.28165 0.34178 0.0
C20 C 0.03849 0.42727 0.34486 0.0
O21 O 0.29652 0.3616 0.43975 0.0
O22 O 0.65242 0.30987 0.36901 0.0
O23 O 0.21358 0.43473 0.44846 0.0
O24 O 0.50831 0.23924 0.41301 0.0
O25 O 0.66997 0.36465 0.41536 0.0
O26 O 0.5203 0.28493 0.46248 0.0
O27 O 0.40014 0.40725 0.3328 0.0
O28 O 0.49839 0.34589 0.31818 0.0
C29 C 0.27125 0.53734 0.34214 0.0
C30 C 0.42944 0.46359 0.44626 0.0
C31 C 0.08081 0.01502 0.93318 0.0
C32 C 0.30076 0.92703 0.8508 0.0
C33 C 0.45866 0.07539 0.85998 0.0
Mg34 Mg 0.01031 0.12968 0.93514 0.0
Mg35 Mg 0.00183 0.20069 0.86339 0.0
O36 O 0.0764 0.16588 0.89669 0.0
Mg37 Mg 0.15177 0.10589 0.8796 0.0
O38 O 0.22261 0.04394 0.8654 0.0
Mg39 Mg 0.28731 0.02529 0.90923 0.0
Mg40 Mg 0.28748 0.041 0.82347 0.0
C41 C 0.1825 0.205 0.82984 0.0
O42 O 0.06868 0.09117 0.83011 0.0
O43 O 0.96873 0.21367 0.94909 0.0
O44 O 0.1755 0.06491 0.79148 0.0
O45 O 0.87895 0.12047 0.90445 0.0
O46 O 0.97169 0.26312 0.89984 0.0
O47 O 0.87758 0.15952 0.85277 0.0
O48 O 0.24467 0.11021 0.92779 0.0
O49 O 0.14173 0.13559 0.96671 0.0
C50 C 0.22283 0.1229 0.95909 0.0
C51 C 0.96014 0.25779 0.93304 0.0
O52 O 0.22765 0.17326 0.8494 0.0
O53 O 0.30533 0.94337 0.88277 0.0
O54 O 0.10082 0.19424 0.82215 0.0
O55 O 0.41843 0.05661 0.88665 0.0
O56 O 0.29882 0.95845 0.82482 0.0
O57 O 0.41835 0.07847 0.83044 0.0
O58 O 0.06342 0.05284 0.91275 0.0
O59 O 0.15871 0.99447 0.93374 0.0
C60 C 0.83892 0.13157 0.8759 0.0
C61 C 0.09389 0.07683 0.79937 0.0
C62 C 0.78943 0.20935 0.63427 0.0
C63 C 0.53485 0.06445 0.62236 0.0
C64 C 0.76841 0.95399 0.63335 0.0
Mg65 Mg -0.00496 0.1991 0.61322 0.0
Mg66 Mg 0.03314 0.13987 0.5402 0.0
O67 O 0.9903 0.13147 0.58513 0.0
Mg68 Mg 0.86282 0.1084 0.59062 0.0
O69 O 0.73649 0.08935 0.60085 0.0
Mg70 Mg 0.7408 0.08451 0.65338 0.0
Mg71 Mg 0.69894 0.02778 0.57817 0.0
C72 C 0.93896 0.02849 0.53299 0.0
O73 O 0.80738 0.12898 0.53666 0.0
O74 O 0.1487 0.18846 0.61099 0.0
O75 O 0.7263 0.05522 0.52548 0.0
O76 O 0.00578 0.25382 0.56609 0.0
O77 O 0.1681 0.14585 0.55956 0.0
O78 O 0.99249 0.2104 0.51617 0.0
O79 O 0.89431 0.08612 0.64701 0.0
O80 O 0.98914 0.15071 0.66179 0.0
C81 C 0.9433 0.10991 0.6694 0.0
C82 C 0.19867 0.16451 0.58864 0.0
O83 O 0.90067 0.0295 0.56335 0.0
O84 O 0.58577 0.08283 0.647 0.0
O85 O 0.98084 0.06795 0.51977 0.0
O86 O 0.75026 0.99135 0.6549 0.0
O87 O 0.56481 0.03655 0.5969 0.0
O88 O 0.76523 0.96149 0.60039 0.0
O89 O 0.84035 0.19015 0.61101 0.0
O90 O 0.7408 0.17902 0.65363 0.0
C91 C 0.00194 0.25339 0.5328 0.0
C92 C 0.75176 0.10203 0.51755 0.0
C93 C 0.72604 0.35821 0.02466 0.0
C94 C 0.45815 0.22374 0.05283 0.0
C95 C 0.33329 0.35834 0.10085 0.0
Mg96 Mg 0.78637 0.46677 0.0652 0.0
Mg97 Mg 0.78736 0.46258 0.15101 0.0
O98 O 0.72003 0.45392 0.10993 0.0
Mg99 Mg 0.64837 0.38865 0.10041 0.0
O100 O 0.57218 0.32397 0.08722 0.0
Mg101 Mg 0.51066 0.35189 0.04504 0.0
Mg102 Mg 0.49516 0.28895 0.11994 0.0
C103 C 0.59474 0.42673 0.17905 0.0
O104 O 0.72447 0.32896 0.13583 0.0
O105 O 0.80284 0.55329 0.08598 0.0
O106 O 0.59399 0.30851 0.1604 0.0
O107 O 0.9211 0.44172 0.08885 0.0
O108 O 0.79806 0.545 0.14463 0.0
O109 O 0.91885 0.42585 0.146 0.0
O110 O 0.56217 0.4332 0.06136 0.0
O111 O 0.65714 0.49161 0.03864 0.0
C112 C 0.57986 0.46963 0.03963 0.0
C113 C 0.79867 0.57336 0.11703 0.0
O114 O 0.56561 0.41037 0.14906 0.0
O115 O 0.46729 0.26656 0.03542 0.0
O116 O 0.67743 0.44008 0.18491 0.0
O117 O 0.375 0.36812 0.07237 0.0
O118 O 0.46961 0.22133 0.08621 0.0
O119 O 0.36842 0.32933 0.12413 0.0
O120 O 0.7433 0.37857 0.05445 0.0
O121 O 0.64771 0.33956 0.01733 0.0
C122 C 0.96076 0.42721 0.1168 0.0
C123 C 0.676 0.29727 0.15441 0.0
C124 C 0.74066 0.63954 0.53213 0.0
C125 C 0.46575 0.76672 0.54965 0.0
C126 C 0.3628 0.64833 0.61909 0.0
Mg127 Mg 0.81302 0.54453 0.5826 0.0
Mg128 Mg 0.8076 0.55058 0.6697 0.0
O129 O 0.75028 0.56524 0.62689 0.0
Mg130 Mg 0.67628 0.62718 0.61189 0.0
O131 O 0.59681 0.68403 0.59276 0.0
Mg132 Mg 0.52764 0.64231 0.55695 0.0
Mg133 Mg 0.52212 0.72415 0.62233 0.0
C134 C 0.62163 0.60152 0.69377 0.0
O135 O 0.75099 0.699 0.63943 0.0
O136 O 0.83322 0.46087 0.60685 0.0
O137 O 0.63078 0.74688 0.65747 0.0
O138 O 0.94673 0.57414 0.60652 0.0
O139 O 0.81207 0.46562 0.66495 0.0
O140 O 0.94228 0.58495 0.66464 0.0
O141 O 0.58618 0.56975 0.5809 0.0
O142 O 0.68401 0.51463 0.55756 0.0
C143 C 0.60555 0.53443 0.55858 0.0
C144 C 0.82398 0.43865 0.63695 0.0
O145 O 0.59994 0.61752 0.66298 0.0
O146 O 0.47894 0.72079 0.5369 0.0
O147 O 0.69771 0.58042 0.70153 0.0
O148 O 0.39814 0.63404 0.59009 0.0
O149 O 0.47628 0.77789 0.58223 0.0
O150 O 0.40412 0.68045 0.63939 0.0
O151 O 0.76675 0.62902 0.56334 0.0
O152 O 0.65744 0.64822 0.52511 0.0
C153 C 0.98462 0.58728 0.63546 0.0
C154 C 0.71639 0.73947 0.6552 0.0
C155 C 0.70596 0.88018 0.02207 0.0
C156 C 0.97715 0.74853 0.04259 0.0
C157 C 0.08969 0.86924 0.10909 0.0
Mg158 Mg 0.63513 0.97554 0.07479 0.0
Mg159 Mg 0.64548 0.95998 0.16185 0.0
O160 O 0.70181 0.95475 0.11798 0.0
Mg161 Mg 0.77445 0.89472 0.10151 0.0
O162 O 0.85381 0.83675 0.08248 0.0
Mg163 Mg 0.92254 0.87718 0.04682 0.0
Mg164 Mg 0.92547 0.7967 0.11398 0.0
C165 C 0.83305 0.91121 0.18363 0.0
O166 O 0.69534 0.82651 0.12775 0.0
O167 O 0.61798 0.05723 0.1027 0.0
O168 O 0.8216 0.80143 0.15336 0.0
O169 O 0.50072 0.94289 0.09841 0.0
O170 O 0.64135 0.04389 0.16035 0.0
O171 O 0.51073 0.92697 0.15595 0.0
O172 O 0.86312 0.95161 0.07122 0.0
O173 O 0.76358 0.00784 0.05016 0.0
C174 C 0.84366 0.99014 0.05155 0.0
C175 C 0.63038 0.07457 0.13419 0.0
O176 O 0.85579 0.90358 0.15164 0.0
O177 O 0.97013 0.79462 0.02897 0.0
O178 O 0.75435 0.92639 0.19327 0.0
O179 O 0.05485 0.88575 0.08051 0.0
O180 O 0.95943 0.73892 0.0749 0.0
O181 O 0.04914 0.83573 0.12812 0.0
O182 O 0.68246 0.89218 0.05339 0.0
O183 O 0.78902 0.87097 0.01453 0.0
C184 C 0.46608 0.92696 0.12724 0.0
C185 C 0.74053 0.79158 0.14435 0.0
C186 C 0.24143 0.84958 0.44439 0.0
C187 C 0.96387 0.72216 0.42624 0.0
C188 C 0.86183 0.84159 0.35765 0.0
Mg189 Mg 0.31595 0.94531 0.39488 0.0
Mg190 Mg 0.30924 0.94192 0.30783 0.0
O191 O 0.25173 0.92589 0.3504 0.0
Mg192 Mg 0.17562 0.86368 0.3648 0.0
O193 O 0.09496 0.80637 0.38343 0.0
Mg194 Mg 0.02785 0.84705 0.41988 0.0
Mg195 Mg 0.01936 0.76599 0.35371 0.0
C196 C 0.12113 0.89137 0.283 0.0
O197 O 0.24828 0.7925 0.3368 0.0
O198 O 0.33802 0.02951 0.37176 0.0
O199 O 0.1275 0.74382 0.31856 0.0
O200 O 0.44838 0.9161 0.37065 0.0
O201 O 0.3151 0.02697 0.31368 0.0
O202 O 0.44313 0.90737 0.3124 0.0
O203 O 0.0877 0.92043 0.39676 0.0
O204 O 0.18857 0.97487 0.42018 0.0
C205 C 0.10933 0.95529 0.41934 0.0
C206 C 0.32764 0.05289 0.34218 0.0
O207 O 0.09864 0.87457 0.31355 0.0
O208 O 0.97799 0.76799 0.43922 0.0
O209 O 0.19806 0.91256 0.27575 0.0
O210 O 0.89809 0.85555 0.38672 0.0
O211 O 0.97346 0.71148 0.39358 0.0
O212 O 0.90187 0.80973 0.33712 0.0
O213 O 0.26682 0.86062 0.4132 0.0
O214 O 0.15819 0.84074 0.45162 0.0
C215 C 0.4856 0.90387 0.34156 0.0
C216 C 0.21323 0.75177 0.32102 0.0
C217 C 0.34229 0.52261 0.92655 0.0
C218 C 0.1324 0.42777 0.84509 0.0
C219 C 0.96559 0.57564 0.85131 0.0
Mg220 Mg 0.41658 0.63833 0.92881 0.0
Mg221 Mg 0.42893 0.7088 0.8576 0.0
O222 O 0.35087 0.67404 0.89008 0.0
Mg223 Mg 0.27325 0.61215 0.87281 0.0
O224 O 0.20263 0.54899 0.85807 0.0
Mg225 Mg 0.13728 0.5301 0.90189 0.0
Mg226 Mg 0.14094 0.54201 0.81495 0.0
C227 C 0.24241 0.70922 0.82467 0.0
O228 O 0.35544 0.59904 0.82374 0.0
O229 O 0.46531 0.72167 0.94365 0.0
O230 O 0.25117 0.57449 0.78292 0.0
O231 O 0.55004 0.627 0.89864 0.0
O232 O 0.46915 0.77078 0.8944 0.0
O233 O 0.54919 0.66444 0.84631 0.0
O234 O 0.17932 0.61675 0.9199 0.0
O235 O 0.28179 0.6464 0.9585 0.0
C236 C 0.2006 0.63264 0.9507 0.0
C237 C 0.47996 0.76536 0.92768 0.0
O238 O 0.19617 0.6753 0.84214 0.0
O239 O 0.12171 0.44635 0.87632 0.0
O240 O 0.32498 0.70045 0.81768 0.0
O241 O 0.00588 0.5595 0.8787 0.0
O242 O 0.13853 0.45761 0.8182 0.0
O243 O 0.00558 0.57572 0.8216 0.0
O244 O 0.35996 0.56161 0.90709 0.0
O245 O 0.26469 0.50114 0.92686 0.0
C246 C 0.58849 0.63702 0.86948 0.0
C247 C 0.33117 0.58949 0.79203 0.0
C248 C 0.88156 0.43953 0.36375 0.0
C249 C 0.94422 0.40896 0.34534 0.0
C250 C 0.80322 0.41701 0.37732 0.0
C251 C 0.78368 0.36323 0.37252 0.0
H252 H 0.89635 0.48037 0.36994 0.0
H253 H 0.75825 0.44198 0.39218 0.0
S254 S 0.91861 0.26777 0.32163 0.0
N255 N 0.97727 0.32327 0.31976 0.0
N256 N 0.82707 0.28128 0.34452 0.0
C257 C 0.8413 0.33317 0.35146 0.0
C258 C 0.92215 0.35606 0.33785 0.0
C259 C 0.60798 0.10496 0.83491 0.0
C260 C 0.55484 0.09145 0.86415 0.0
C261 C 0.70023 0.11735 0.83866 0.0
C262 C 0.74272 0.11623 0.87173 0.0
H263 H 0.5785 0.10552 0.80889 0.0
H264 H 0.73855 0.12758 0.81547 0.0
S265 S 0.63287 0.08638 0.95705 0.0
N266 N 0.55168 0.08003 0.92769 0.0
N267 N 0.72353 0.10265 0.93449 0.0
C268 C 0.69007 0.10333 0.9012 0.0
C269 C 0.59659 0.09121 0.89749 0.0
C270 C 0.34661 0.12821 0.5727 0.0
C271 C 0.28974 0.14761 0.599 0.0
C272 C 0.42282 0.09946 0.58101 0.0
C273 C 0.44736 0.08977 0.61608 0.0
H274 H 0.33058 0.13364 0.5452 0.0
H275 H 0.46389 0.08575 0.55939 0.0
S276 S 0.32549 0.13526 0.69514 0.0
N277 N 0.26459 0.15695 0.66194 0.0
N278 N 0.41222 0.10451 0.6775 0.0
C279 C 0.39403 0.11108 0.64287 0.0
C280 C 0.31448 0.13982 0.63437 0.0
C281 C 0.09624 0.37693 0.1378 0.0
C282 C 0.0576 0.41283 0.11432 0.0
C283 C 0.18601 0.36038 0.13377 0.0
C284 C 0.24075 0.37934 0.10623 0.0
H285 H 0.05615 0.36031 0.1588 0.0
H286 H 0.21182 0.33151 0.15193 0.0
S287 S 0.17486 0.47933 0.04036 0.0
N288 N 0.08358 0.47048 0.06441 0.0
N289 N 0.25127 0.43969 0.05698 0.0
C290 C 0.20386 0.41706 0.08353 0.0
C291 C 0.11268 0.43369 0.08754 0.0
C292 C 0.22679 0.59387 0.60402 0.0
C293 C 0.26881 0.63024 0.62692 0.0
C294 C 0.13565 0.58018 0.6075 0.0
C295 C 0.08198 0.60155 0.63432 0.0
H296 H 0.26385 0.57647 0.5825 0.0
H297 H 0.10692 0.55261 0.58871 0.0
S298 S 0.158 0.6971 0.70209 0.0
N299 N 0.24862 0.68694 0.67791 0.0
N300 N 0.07752 0.65956 0.685 0.0
C301 C 0.12312 0.63646 0.65826 0.0
C302 C 0.21628 0.65119 0.65442 0.0
C303 C 0.34368 0.85954 0.11948 0.0
C304 C 0.36969 0.91155 0.12724 0.0
C305 C 0.25218 0.84588 0.11482 0.0
C306 C 0.18396 0.88384 0.11782 0.0
H307 H 0.39453 0.82961 0.11603 0.0
H308 H 0.23488 0.80572 0.10769 0.0
S309 S 0.21646 0.02379 0.1424 0.0
N310 N 0.31999 0.00017 0.14054 0.0
N311 N 0.14792 0.97412 0.13267 0.0
C312 C 0.20885 0.93529 0.12739 0.0
C313 C 0.30191 0.94925 0.1319 0.0
C314 C 0.72776 0.89589 0.37313 0.0
C315 C 0.76831 0.85991 0.34994 0.0
C316 C 0.63714 0.90991 0.36968 0.0
C317 C 0.58248 0.8893 0.34259 0.0
H318 H 0.76559 0.91274 0.39485 0.0
H319 H 0.60959 0.93714 0.38871 0.0
S320 S 0.65456 0.79503 0.27397 0.0
N321 N 0.74567 0.80441 0.29837 0.0
N322 N 0.57558 0.8324 0.29135 0.0
C323 C 0.62217 0.85478 0.31837 0.0
C324 C 0.71481 0.83971 0.32218 0.0
C325 C 0.81224 0.59935 0.8264 0.0
C326 C 0.87043 0.59376 0.85544 0.0
C327 C 0.72086 0.61319 0.83085 0.0
C328 C 0.6842 0.62134 0.86453 0.0
H329 H 0.83695 0.59225 0.8001 0.0
H330 H 0.6784 0.61682 0.80783 0.0
S331 S 0.80961 0.61733 0.94897 0.0
N332 N 0.88509 0.60192 0.91903 0.0
N333 N 0.71502 0.62667 0.9271 0.0
C334 C 0.74217 0.61709 0.89362 0.0
C335 C 0.83472 0.6037 0.88916 0.0
C336 C 0.5547 0.46071 0.23773 0.0
C337 C 0.53413 0.42684 0.20942 0.0
C338 C 0.51869 0.45146 0.27088 0.0
C339 C 0.46151 0.40826 0.27627 0.0
H340 H 0.60458 0.49186 0.23495 0.0
H341 H 0.54257 0.47492 0.29289 0.0
S342 S 0.37065 0.31551 0.21006 0.0
N343 N 0.43946 0.35474 0.18809 0.0
N344 N 0.37358 0.33682 0.25098 0.0
C345 C 0.43165 0.37824 0.24774 0.0
C346 C 0.4674 0.38789 0.21392 0.0
C347 C 0.97451 0.12031 0.7652 0.0
C348 C 0.02817 0.07606 0.77094 0.0
C349 C 0.93563 0.12834 0.73235 0.0
C350 C 0.94773 0.09154 0.70524 0.0
H351 H 0.97047 0.15133 0.78465 0.0
H352 H 0.90348 0.16566 0.72712 0.0
S353 S 0.06052 0.96283 0.71091 0.0
N354 N 0.07621 0.9903 0.74983 0.0
N355 N 0.00018 0.00504 0.68808 0.0
C356 C 0.98911 0.04364 0.71243 0.0
C357 C 0.03045 0.03595 0.74553 0.0
C358 C 0.53612 0.55537 0.73997 0.0
C359 C 0.55112 0.60118 0.72033 0.0
C360 C 0.46215 0.55147 0.76241 0.0
C361 C 0.4012 0.59305 0.76551 0.0
H362 H 0.5805 0.52193 0.73735 0.0
H363 H 0.45264 0.51584 0.77752 0.0
S364 S 0.4189 0.72381 0.72348 0.0
N365 N 0.50558 0.69065 0.70804 0.0
N366 N 0.36389 0.68267 0.74937 0.0
C367 C 0.41659 0.63947 0.74666 0.0
C368 C 0.49251 0.64367 0.72418 0.0
C369 C 0.967 0.9458 0.21418 0.0
C370 C 0.90335 0.90518 0.20993 0.0
C371 C 0.03972 0.94009 0.2371 0.0
C372 C 0.05076 0.89345 0.2562 0.0
H373 H 0.96044 0.98215 0.19968 0.0
H374 H 0.0863 0.97285 0.24053 0.0
S375 S 0.91071 0.77256 0.24955 0.0
N376 N 0.85976 0.8153 0.22385 0.0
N377 N -0.00143 0.80409 0.26654 0.0
C378 C 0.98944 0.85183 0.25114 0.0
C379 C 0.91496 0.8578 0.22798 0.0
C380 C 0.66973 0.12727 0.46276 0.0
C381 C 0.684 0.13263 0.4989 0.0
C382 C 0.60533 0.15842 0.44578 0.0
C383 C 0.55326 0.1952 0.46471 0.0
H384 H 0.71104 0.10079 0.44745 0.0
H385 H 0.6017 0.15659 0.41743 0.0
S386 S 0.55171 0.21338 0.56126 0.0
N387 N 0.63157 0.16985 0.55397 0.0
N388 N 0.50947 0.22738 0.52234 0.0
C389 C 0.56031 0.19591 0.50143 0.0
C390 C 0.62646 0.16508 0.51846 0.0
C391 C 0.88156 0.32932 0.01232 0.0
C392 C 0.79961 0.34943 -7e-05 0.0
C393 C 0.94116 0.30485 0.98924 0.0
C394 C 0.92079 0.30086 0.95328 0.0
H395 H 0.89534 0.32756 0.04021 0.0
H396 H -0.00093 0.28468 1e-05 0.0
S397 S 0.72682 0.36092 0.90736 0.0
N398 N 0.70978 0.37383 0.94929 0.0
N399 N 0.82284 0.32847 0.90559 0.0
C400 C 0.84582 0.32782 0.94012 0.0
C401 C 0.78445 0.35188 0.96368 0.0
C402 C 0.10223 0.33255 0.532 0.0
C403 C 0.04244 0.29819 0.51386 0.0
C404 C 0.16675 0.36264 0.51397 0.0
C405 C 0.17307 0.35889 0.47749 0.0
H406 H 0.10395 0.33345 0.5604 0.0
H407 H 0.21375 0.38724 0.5286 0.0
S408 S 0.02013 0.28541 0.41731 0.0
N409 N 0.98434 0.27007 0.45698 0.0
N410 N 0.10617 0.32623 0.42327 0.0
C411 C 0.10863 0.32895 0.4589 0.0
C412 C 0.0427 0.29887 0.47706 0.0
C413 C 0.44118 0.17085 -0.00133 0.0
C414 C 0.41645 0.17943 0.0338 0.0
C415 C 0.38113 0.14687 0.97501 0.0
C416 C 0.29394 0.13177 0.98571 0.0
H417 H 0.50372 0.18733 0.98866 0.0
H418 H 0.3999 0.1452 0.94759 0.0
S419 S 0.20466 0.13569 0.07652 0.0
N420 N 0.30624 0.16266 0.07953 0.0
N421 N 0.19199 0.11874 0.03494 0.0
C422 C 0.2729 0.13439 0.02165 0.0
C423 C 0.33485 0.15784 0.04583 0.0
C424 C 0.27783 0.83718 0.5074 0.0
C425 C 0.30841 0.8419 0.47256 0.0
C426 C 0.33463 0.81955 0.53397 0.0
C427 C 0.42293 0.80432 0.52632 0.0
H428 H 0.20773 0.8439 0.51392 0.0
H429 H 0.30632 0.81255 0.55974 0.0
S430 S 0.54039 0.81511 0.44099 0.0
N431 N 0.43714 0.83613 0.43307 0.0
N432 N 0.54261 0.79996 0.48306 0.0
C433 C 0.45697 0.81254 0.49247 0.0
C434 C 0.39986 0.83201 0.46549 0.0
C435 C 0.00031 0.70574 0.98465 0.0
C436 C 0.01755 0.70699 0.02091 0.0
C437 C 0.05456 0.67632 0.96201 0.0
C438 C 0.12888 0.64838 0.97498 0.0
H439 H 0.94799 0.7301 0.97348 0.0
H440 H 0.04306 0.67936 0.93402 0.0
S441 S 0.19389 0.63242 0.06814 0.0
N442 N 0.10617 0.67207 0.06918 0.0
N443 N 0.21007 0.61811 0.02635 0.0
C444 C 0.14187 0.64559 0.01137 0.0
C445 C 0.08549 0.67459 0.03449 0.0
C446 C 0.83115 0.66992 0.44221 0.0
C447 C 0.92069 0.68415 0.44941 0.0
C448 C 0.7747 0.65255 0.46903 0.0
C449 C 0.80678 0.64698 0.50365 0.0
H450 H 0.80188 0.67764 0.41668 0.0
H451 H 0.70387 0.64678 0.46287 0.0
S452 S 0.04196 0.67094 0.53393 0.0
N453 N 0.04285 0.68672 0.49195 0.0
N454 N 0.93791 0.65082 0.54235 0.0
C455 C 0.89918 0.65581 0.51021 0.0
C456 C 0.95601 0.6751 0.48299 0.0
C457 C 0.6033 0.83097 0.93699 0.0
C458 C 0.52196 0.80808 0.94841 0.0
C459 C 0.65961 0.85847 0.96052 0.0
C460 C 0.63584 0.86445 -0.00392 0.0
H461 H 0.62739 0.82366 0.91062 0.0
H462 H 0.72481 0.87214 0.95128 0.0
S463 S 0.42026 0.82045 0.03656 0.0
N464 N 0.41384 0.79931 -0.00435 0.0
N465 N 0.51806 0.85178 0.0399 0.0
C466 C 0.54977 0.8466 0.00666 0.0
C467 C 0.49329 0.81806 0.98279 0.0
C468 C 0.31774 0.13986 0.30989 0.0
C469 C 0.31811 0.11152 0.34179 0.0
C470 C 0.30441 0.19485 0.30917 0.0
C471 C 0.29008 0.2233 0.34032 0.0
H472 H 0.32909 0.11956 0.28529 0.0
H473 H 0.30873 0.21535 0.28438 0.0
S474 S 0.27566 0.16836 0.43027 0.0
N475 N 0.29702 0.11708 0.40507 0.0
N476 N 0.27081 0.21899 0.40349 0.0
C477 C 0.28696 0.19527 0.37208 0.0
C478 C 0.3014 0.1399 0.37291 0.0
C479 C 0.20069 0.28653 0.86526 0.0
C480 C 0.1992 0.26215 0.83207 0.0
C481 C 0.17771 0.33978 0.86933 0.0
C482 C 0.15223 0.37073 0.84035 0.0
H483 H 0.21287 0.2634 0.88857 0.0
H484 H 0.17853 0.35646 0.89551 0.0
S485 S 0.14234 0.32525 0.74756 0.0
N486 N 0.17422 0.27297 0.76972 0.0
N487 N 0.13161 0.3727 0.77691 0.0
C488 C 0.15463 0.34709 0.80681 0.0
C489 C 0.1783 0.29308 0.8028 0.0
C490 C 0.81787 0.35112 0.6067 0.0
C491 C 0.81646 0.37991 0.63829 0.0
C492 C 0.80496 0.29661 0.60613 0.0
C493 C 0.79013 0.26768 0.63706 0.0
H494 H 0.82852 0.37073 0.58188 0.0
H495 H 0.80745 0.27675 0.58094 0.0
S496 S 0.7816 0.32275 0.72703 0.0
N497 N 0.79911 0.37455 0.70183 0.0
N498 N 0.7758 0.27144 0.70034 0.0
C499 C 0.78781 0.29541 0.66893 0.0
C500 C 0.8011 0.3515 0.66964 0.0
C501 C 0.67594 0.16394 0.11231 0.0
C502 C 0.64643 0.13168 0.14009 0.0
C503 C 0.69734 0.21729 0.11781 0.0
C504 C 0.68983 0.24027 0.15128 0.0
H505 H 0.68186 0.14806 0.08601 0.0
H506 H 0.7138 0.2414 0.09531 0.0
S507 S 0.61804 0.17356 0.23289 0.0
N508 N 0.61362 0.127 0.20259 0.0
N509 N 0.65324 0.22708 0.21254 0.0
C510 C 0.66371 0.20818 0.17939 0.0
C511 C 0.64184 0.15407 0.1739 0.0
C512 C 0.81634 0.80758 0.62995 0.0
C513 C 0.76994 0.78869 0.65955 0.0
C514 C 0.8226 0.86181 0.62316 0.0
C515 C 0.78432 0.89927 0.64602 0.0
H516 H 0.83724 0.7805 0.60956 0.0
H517 H 0.85136 0.87412 0.59839 0.0
S518 S 0.67886 0.87005 0.73201 0.0
N519 N 0.70207 0.81165 0.71534 0.0
N520 N 0.71568 0.91345 0.70315 0.0
C521 C 0.75046 0.88106 0.67827 0.0
C522 C 0.74341 0.82579 0.68498 0.0
C523 C 0.76851 0.64904 0.15683 0.0
C524 C 0.77793 0.62995 0.12221 0.0
C525 C 0.74263 0.7006 0.16371 0.0
C526 C 0.72557 0.73578 0.13641 0.0
H527 H 0.7828 0.62434 0.17919 0.0
H528 H 0.74258 0.71424 0.19071 0.0
S529 S 0.73383 0.70615 0.04111 0.0
N530 N 0.76179 0.65028 0.0601 0.0
N531 N 0.71504 0.74822 0.07336 0.0
C532 C 0.73025 0.71718 0.10165 0.0
C533 C 0.75663 0.6642 0.09448 0.0
C534 C 0.32194 0.6306 0.35302 0.0
C535 C 0.28529 0.59256 0.32984 0.0
C536 C 0.31363 0.68476 0.3465 0.0
C537 C 0.26658 0.70297 0.31689 0.0
H538 H 0.35114 0.6186 0.37777 0.0
H539 H 0.3338 0.71206 0.36704 0.0
S540 S 0.17722 0.62037 0.24407 0.0
N541 N 0.2162 0.57752 0.27267 0.0
N542 N 0.19845 0.67909 0.26106 0.0
C543 C 0.24076 0.66557 0.29133 0.0
C544 C 0.25016 0.6104 0.29772 0.0
C545 C 0.23251 0.78447 0.86494 0.0
C546 C 0.22545 0.76492 0.83051 0.0
C547 C 0.25912 0.83663 0.87136 0.0
C548 C 0.27936 0.87099 0.84353 0.0
H549 H 0.22468 0.75824 0.88708 0.0
H550 H 0.26537 0.84966 0.89835 0.0
S551 S 0.26179 0.83867 0.74833 0.0
N552 N 0.23358 0.78367 0.76848 0.0
N553 N 0.28333 0.88175 0.77982 0.0
C554 C 0.26748 0.85219 0.80885 0.0
C555 C 0.23992 0.79929 0.80255 0.0
C556 C 0.45563 0.52742 0.52807 0.0
C557 C 0.55025 0.53131 0.52635 0.0
C558 C 0.40454 0.51794 0.49752 0.0
C559 C 0.44707 0.5129 0.4647 0.0
H560 H 0.42199 0.52713 0.55327 0.0
H561 H 0.33423 0.50658 0.50033 0.0
S562 S 0.68831 0.53397 0.44513 0.0
N563 N 0.68165 0.53838 0.48825 0.0
N564 N 0.58346 0.52655 0.43121 0.0
C565 C 0.53783 0.52827 0.46212 0.0
C566 C 0.59097 0.53397 0.49304 0.0
C567 C 0.87046 0.01025 0.98869 0.0
C568 C 0.90547 0.00215 0.02256 0.0
C569 C 0.92757 0.01304 0.9596 0.0
C570 C 0.02124 0.00719 0.96344 0.0
H571 H 0.79828 0.01262 0.98439 0.0
H572 H 0.8982 0.01922 0.93391 0.0
S573 S 0.14687 0.99185 0.04693 0.0
N574 N 0.03966 0.99346 0.05868 0.0
N575 N 0.14723 -0.00262 0.00389 0.0
C576 C 0.05721 0.00056 -0.00274 0.0
C577 C -0.00078 -0.00153 0.02687 0.0
C578 C 0.91205 0.97428 0.48137 0.0
C579 C 0.95636 0.97979 0.51395 0.0
C580 C 0.96099 0.96336 0.45065 0.0
C581 C 0.05543 0.95866 0.45186 0.0
H582 H 0.84218 0.986 0.47882 0.0
H583 H 0.92608 0.96329 0.42564 0.0
S584 S 0.19772 0.9576 0.53228 0.0
N585 N 0.09421 0.96696 0.5467 0.0
N586 N 0.18835 0.95151 0.4893 0.0
C587 C 0.09774 0.95687 0.48497 0.0
C588 C 0.04679 0.96455 0.51612 0.0
C589 C 0.48472 0.53286 0.0081 0.0
C590 C 0.51632 0.48141 0.01141 0.0
C591 C 0.42885 0.5464 0.98012 0.0
C592 C 0.40453 0.50903 0.95444 0.0
H593 H 0.50289 0.56265 0.02735 0.0
H594 H 0.40323 0.58588 0.97927 0.0
S595 S 0.47359 0.37024 0.94965 0.0
N596 N 0.52299 0.39399 0.98524 0.0
N597 N 0.41557 0.41952 0.93336 0.0
C598 C 0.43547 0.45776 0.95731 0.0
C599 C 0.49252 0.44394 0.98561 0.0
loop_
_geom_bond_atom_site_label_1
_geom_bond_atom_site_label_2
_geom_bond_distance
_geom_bond_site_symmetry_2
_ccdc_geom_bond_type
C0 O27 1.312 . S
C0 O28 1.208 . S
C1 O22 1.331 . S
C1 O25 1.244 . S
C2 O24 1.264 . S
C2 O26 1.273 . S
Mg3 O5 1.936 . S
Mg3 O12 2.081 . S
Mg3 O14 2.023 . S
Mg3 O18 2.031 . S
Mg3 O27 2.291 . S
Mg4 O5 1.963 . S
Mg4 O15 1.942 . S
Mg4 O16 1.955 . S
Mg4 O23 1.986 . S
O5 Mg3 1.936 . S
O5 Mg4 1.963 . S
O5 Mg6 1.915 . S
Mg6 O5 1.915 . S
Mg6 O7 1.915 . S
Mg6 O11 2.013 . S
Mg6 O17 2.114 . S
Mg6 O21 2.013 . S
Mg6 O27 2.114 . S
O7 Mg6 1.915 . S
O7 Mg8 1.936 . S
O7 Mg9 1.963 . S
Mg8 O7 1.936 . S
Mg8 O17 2.291 . S
Mg8 O22 2.081 . S
Mg8 O24 2.023 . S
Mg8 O28 2.031 . S
Mg9 O7 1.963 . S
Mg9 O13 1.986 . S
Mg9 O25 1.942 . S
Mg9 O26 1.955 . S
C10 O21 1.191 . S
C10 O23 1.307 . S
O11 Mg6 2.013 . S
O11 C30 1.191 . S
O12 Mg3 2.081 . S
O12 C20 1.331 . S
O13 Mg9 1.986 . S
O13 C30 1.307 . S
O14 Mg3 2.023 . S
O14 C29 1.264 . S
O15 Mg4 1.942 . S
O15 C20 1.244 . S
O16 Mg4 1.955 . S
O16 C29 1.273 . S
O17 Mg6 2.114 . S
O17 Mg8 2.291 . S
O17 C19 1.312 . S
O18 Mg3 2.031 . S
O18 C19 1.208 . S
C19 O17 1.312 . S
C19 O18 1.208 . S
C20 O12 1.331 . S
C20 O15 1.244 . S
O21 Mg6 2.013 . S
O21 C10 1.191 . S
O22 C1 1.331 . S
O22 Mg8 2.081 . S
O23 Mg4 1.986 . S
O23 C10 1.307 . S
O24 C2 1.264 . S
O24 Mg8 2.023 . S
O25 C1 1.244 . S
O25 Mg9 1.942 . S
O26 C2 1.273 . S
O26 Mg9 1.955 . S
O27 C0 1.312 . S
O27 Mg3 2.291 . S
O27 Mg6 2.114 . S
O28 C0 1.208 . S
O28 Mg8 2.031 . S
C29 O14 1.264 . S
C29 O16 1.273 . S
C30 O11 1.191 . S
C30 O13 1.307 . S
C31 O58 1.312 . S
C31 O59 1.208 . S
C32 O53 1.331 . S
C32 O56 1.244 1_565 S
C33 O55 1.264 . S
C33 O57 1.273 . S
Mg34 O36 1.936 1_655 S
Mg34 O43 2.081 . S
Mg34 O45 2.023 . S
Mg34 O49 2.031 1_655 S
Mg34 O58 2.291 1_655 S
Mg35 O36 1.963 1_655 S
Mg35 O46 1.942 . S
Mg35 O47 1.955 . S
Mg35 O54 1.986 1_655 S
O36 Mg34 1.936 1_455 S
O36 Mg35 1.963 1_455 S
O36 Mg37 1.915 . S
Mg37 O36 1.915 . S
Mg37 O38 1.915 . S
Mg37 O42 2.013 . S
Mg37 O48 2.114 . S
Mg37 O52 2.013 . S
Mg37 O58 2.114 . S
O38 Mg37 1.915 . S
O38 Mg39 1.936 . S
O38 Mg40 1.963 . S
Mg39 O38 1.936 . S
Mg39 O48 2.291 . S
Mg39 O53 2.081 1_545 S
Mg39 O55 2.023 . S
Mg39 O59 2.031 . S
Mg40 O38 1.963 . S
Mg40 O44 1.986 . S
Mg40 O56 1.942 . S
Mg40 O57 1.955 . S
C41 O52 1.191 . S
C41 O54 1.307 . S
O42 Mg37 2.013 . S
O42 C61 1.191 . S
O43 Mg34 2.081 . S
O43 C51 1.331 . S
O44 Mg40 1.986 . S
O44 C61 1.307 . S
O45 Mg34 2.023 . S
O45 C60 1.264 . S
O46 Mg35 1.942 . S
O46 C51 1.244 . S
O47 Mg35 1.955 . S
O47 C60 1.273 . S
O48 Mg37 2.114 . S
O48 Mg39 2.291 . S
O48 C50 1.312 . S
O49 Mg34 2.031 1_455 S
O49 C50 1.208 . S
C50 O48 1.312 . S
C50 O49 1.208 . S
C51 O43 1.331 . S
C51 O46 1.244 . S
O52 Mg37 2.013 . S
O52 C41 1.191 . S
O53 C32 1.331 . S
O53 Mg39 2.081 1_565 S
O54 Mg35 1.986 1_455 S
O54 C41 1.307 . S
O55 C33 1.264 . S
O55 Mg39 2.023 . S
O56 C32 1.244 1_545 S
O56 Mg40 1.942 . S
O57 C33 1.273 . S
O57 Mg40 1.955 . S
O58 C31 1.312 . S
O58 Mg34 2.291 1_455 S
O58 Mg37 2.114 . S
O59 C31 1.208 . S
O59 Mg39 2.031 . S
C60 O45 1.264 . S
C60 O47 1.273 . S
C61 O42 1.191 . S
C61 O44 1.307 . S
C62 O89 1.312 . S
C62 O90 1.208 . S
C63 O84 1.331 . S
C63 O87 1.244 . S
C64 O86 1.262 1_565 S
C64 O88 1.273 1_565 S
Mg65 O67 1.936 . S
Mg65 O74 2.081 . S
Mg65 O76 2.023 . S
Mg65 O80 2.031 . S
Mg65 O89 2.291 1_455 S
Mg66 O67 1.963 . S
Mg66 O77 1.942 . S
Mg66 O78 1.955 . S
Mg66 O85 1.986 . S
O67 Mg65 1.936 . S
O67 Mg66 1.963 . S
O67 Mg68 1.915 1_455 S
Mg68 O67 1.915 1_655 S
Mg68 O69 1.915 . S
Mg68 O73 2.013 . S
Mg68 O79 2.114 . S
Mg68 O83 2.013 . S
Mg68 O89 2.114 . S
O69 Mg68 1.915 . S
O69 Mg70 1.936 . S
O69 Mg71 1.963 . S
Mg70 O69 1.936 . S
Mg70 O79 2.291 . S
Mg70 O84 2.081 . S
Mg70 O86 2.023 . S
Mg70 O90 2.031 . S
Mg71 O69 1.963 . S
Mg71 O75 1.986 . S
Mg71 O87 1.942 . S
Mg71 O88 1.955 . S
C72 O83 1.191 . S
C72 O85 1.307 1_655 S
O73 Mg68 2.013 . S
O73 C92 1.191 . S
O74 Mg65 2.081 . S
O74 C82 1.331 . S
O75 Mg71 1.986 . S
O75 C92 1.307 . S
O76 Mg65 2.023 . S
O76 C91 1.264 . S
O77 Mg66 1.942 . S
O77 C82 1.244 . S
O78 Mg66 1.955 . S
O78 C91 1.273 . S
O79 Mg68 2.114 . S
O79 Mg70 2.291 . S
O79 C81 1.312 . S
O80 Mg65 2.031 . S
O80 C81 1.208 1_455 S
C81 O79 1.312 . S
C81 O80 1.208 1_655 S
C82 O74 1.331 . S
C82 O77 1.244 . S
O83 Mg68 2.013 . S
O83 C72 1.191 . S
O84 C63 1.331 . S
O84 Mg70 2.081 . S
O85 Mg66 1.986 . S
O85 C72 1.307 1_455 S
O86 C64 1.262 1_545 S
O86 Mg70 2.023 . S
O87 C63 1.244 . S
O87 Mg71 1.942 . S
O88 C64 1.273 1_545 S
O88 Mg71 1.955 . S
O89 C62 1.312 . S
O89 Mg65 2.291 1_655 S
O89 Mg68 2.114 . S
O90 C62 1.208 . S
O90 Mg70 2.031 . S
C91 O76 1.264 . S
C91 O78 1.273 . S
C92 O73 1.191 . S
C92 O75 1.307 . S
C93 O120 1.312 . S
C93 O121 1.208 . S
C94 O115 1.331 . S
C94 O118 1.244 . S
C95 O117 1.264 . S
C95 O119 1.273 . S
Mg96 O98 1.936 . S
Mg96 O105 2.081 . S
Mg96 O107 2.023 . S
Mg96 O111 2.031 . S
Mg96 O120 2.291 . S
Mg97 O98 1.963 . S
Mg97 O108 1.942 . S
Mg97 O109 1.955 . S
Mg97 O116 1.986 . S
O98 Mg96 1.936 . S
O98 Mg97 1.963 . S
O98 Mg99 1.915 . S
Mg99 O98 1.915 . S
Mg99 O100 1.915 . S
Mg99 O104 2.013 . S
Mg99 O110 2.114 . S
Mg99 O114 2.013 . S
Mg99 O120 2.114 . S
O100 Mg99 1.915 . S
O100 Mg101 1.936 . S
O100 Mg102 1.963 . S
Mg101 O100 1.936 . S
Mg101 O110 2.291 . S
Mg101 O115 2.081 . S
Mg101 O117 2.023 . S
Mg101 O121 2.031 . S
Mg102 O100 1.963 . S
Mg102 O106 1.986 . S
Mg102 O118 1.942 . S
Mg102 O119 1.955 . S
C103 O114 1.191 . S
C103 O116 1.307 . S
O104 Mg99 2.013 . S
O104 C123 1.191 . S
O105 Mg96 2.081 . S
O105 C113 1.331 . S
O106 Mg102 1.986 . S
O106 C123 1.307 . S
O107 Mg96 2.023 . S
O107 C122 1.264 . S
O108 Mg97 1.942 . S
O108 C113 1.244 . S
O109 Mg97 1.955 . S
O109 C122 1.273 . S
O110 Mg99 2.114 . S
O110 Mg101 2.291 . S
O110 C112 1.312 . S
O111 Mg96 2.031 . S
O111 C112 1.208 . S
C112 O110 1.312 . S
C112 O111 1.208 . S
C113 O105 1.331 . S
C113 O108 1.244 . S
O114 Mg99 2.013 . S
O114 C103 1.191 . S
O115 C94 1.331 . S
O115 Mg101 2.081 . S
O116 Mg97 1.986 . S
O116 C103 1.307 . S
O117 C95 1.264 . S
O117 Mg101 2.023 . S
O118 C94 1.244 . S
O118 Mg102 1.942 . S
O119 C95 1.273 . S
O119 Mg102 1.955 . S
O120 C93 1.312 . S
O120 Mg96 2.291 . S
O120 Mg99 2.114 . S
O121 C93 1.208 . S
O121 Mg101 2.031 . S
C122 O107 1.264 . S
C122 O109 1.273 . S
C123 O104 1.191 . S
C123 O106 1.307 . S
C124 O151 1.312 . S
C124 O152 1.208 . S
C125 O146 1.331 . S
C125 O149 1.244 . S
C126 O148 1.264 . S
C126 O150 1.273 . S
Mg127 O129 1.936 . S
Mg127 O136 2.081 . S
Mg127 O138 2.023 . S
Mg127 O142 2.031 . S
Mg127 O151 2.291 . S
Mg128 O129 1.963 . S
Mg128 O139 1.942 . S
Mg128 O140 1.955 . S
Mg128 O147 1.986 . S
O129 Mg127 1.936 . S
O129 Mg128 1.963 . S
O129 Mg130 1.915 . S
Mg130 O129 1.915 . S
Mg130 O131 1.915 . S
Mg130 O135 2.013 . S
Mg130 O141 2.114 . S
Mg130 O145 2.013 . S
Mg130 O151 2.114 . S
O131 Mg130 1.915 . S
O131 Mg132 1.936 . S
O131 Mg133 1.963 . S
Mg132 O131 1.936 . S
Mg132 O141 2.291 . S
Mg132 O146 2.081 . S
Mg132 O148 2.023 . S
Mg132 O152 2.031 . S
Mg133 O131 1.963 . S
Mg133 O137 1.986 . S
Mg133 O149 1.942 . S
Mg133 O150 1.955 . S
C134 O145 1.191 . S
C134 O147 1.307 . S
O135 Mg130 2.013 . S
O135 C154 1.191 . S
O136 Mg127 2.081 . S
O136 C144 1.331 . S
O137 Mg133 1.986 . S
O137 C154 1.307 . S
O138 Mg127 2.023 . S
O138 C153 1.264 . S
O139 Mg128 1.942 . S
O139 C144 1.244 . S
O140 Mg128 1.955 . S
O140 C153 1.273 . S
O141 Mg130 2.114 . S
O141 Mg132 2.291 . S
O141 C143 1.312 . S
O142 Mg127 2.031 . S
O142 C143 1.208 . S
C143 O141 1.312 . S
C143 O142 1.208 . S
C144 O136 1.331 . S
C144 O139 1.244 . S
O145 Mg130 2.013 . S
O145 C134 1.191 . S
O146 C125 1.331 . S
O146 Mg132 2.081 . S
O147 Mg128 1.986 . S
O147 C134 1.307 . S
O148 C126 1.264 . S
O148 Mg132 2.023 . S
O149 C125 1.244 . S
O149 Mg133 1.942 . S
O150 C126 1.273 . S
O150 Mg133 1.955 . S
O151 C124 1.312 . S
O151 Mg127 2.291 . S
O151 Mg130 2.114 . S
O152 C124 1.208 . S
O152 Mg132 2.031 . S
C153 O138 1.264 . S
C153 O140 1.273 . S
C154 O135 1.191 . S
C154 O137 1.307 . S
C155 O182 1.312 . S
C155 O183 1.208 . S
C156 O177 1.331 . S
C156 O180 1.244 . S
C157 O179 1.264 . S
C157 O181 1.273 . S
Mg158 O160 1.936 . S
Mg158 O167 2.081 1_565 S
Mg158 O169 2.023 . S
Mg158 O173 2.031 . S
Mg158 O182 2.291 . S
Mg159 O160 1.963 . S
Mg159 O170 1.942 . S
Mg159 O171 1.955 . S
Mg159 O178 1.986 . S
O160 Mg158 1.936 . S
O160 Mg159 1.963 . S
O160 Mg161 1.915 . S
Mg161 O160 1.915 . S
Mg161 O162 1.915 . S
Mg161 O166 2.013 . S
Mg161 O172 2.114 . S
Mg161 O176 2.013 . S
Mg161 O182 2.114 . S
O162 Mg161 1.915 . S
O162 Mg163 1.936 1_655 S
O162 Mg164 1.963 1_655 S
Mg163 O162 1.936 1_455 S
Mg163 O172 2.291 1_455 S
Mg163 O177 2.081 . S
Mg163 O179 2.023 . S
Mg163 O183 2.031 1_455 S
Mg164 O162 1.963 1_455 S
Mg164 O168 1.986 1_455 S
Mg164 O180 1.942 . S
Mg164 O181 1.955 . S
C165 O176 1.191 . S
C165 O178 1.307 . S
O166 Mg161 2.013 . S
O166 C185 1.191 . S
O167 Mg158 2.081 1_545 S
O167 C175 1.331 . S
O168 Mg164 1.986 1_655 S
O168 C185 1.307 . S
O169 Mg158 2.023 . S
O169 C184 1.264 . S
O170 Mg159 1.942 . S
O170 C175 1.244 1_565 S
O171 Mg159 1.955 . S
O171 C184 1.273 . S
O172 Mg161 2.114 . S
O172 Mg163 2.291 1_655 S
O172 C174 1.312 . S
O173 Mg158 2.031 . S
O173 C174 1.208 . S
C174 O172 1.312 . S
C174 O173 1.208 . S
C175 O167 1.331 . S
C175 O170 1.244 1_545 S
O176 Mg161 2.013 . S
O176 C165 1.191 . S
O177 C156 1.331 . S
O177 Mg163 2.081 . S
O178 Mg159 1.986 . S
O178 C165 1.307 . S
O179 C157 1.264 . S
O179 Mg163 2.023 . S
O180 C156 1.244 . S
O180 Mg164 1.942 . S
O181 C157 1.273 . S
O181 Mg164 1.955 . S
O182 C155 1.312 . S
O182 Mg158 2.291 . S
O182 Mg161 2.114 . S
O183 C155 1.208 . S
O183 Mg163 2.031 1_655 S
C184 O169 1.264 . S
C184 O171 1.273 . S
C185 O166 1.191 . S
C185 O168 1.307 . S
C186 O213 1.312 . S
C186 O214 1.208 . S
C187 O208 1.331 . S
C187 O211 1.244 . S
C188 O210 1.264 . S
C188 O212 1.273 . S
Mg189 O191 1.936 . S
Mg189 O198 2.081 1_565 S
Mg189 O200 2.023 . S
Mg189 O204 2.031 . S
Mg189 O213 2.291 . S
Mg190 O191 1.963 . S
Mg190 O201 1.942 . S
Mg190 O202 1.955 . S
Mg190 O209 1.986 . S
O191 Mg189 1.936 . S
O191 Mg190 1.963 . S
O191 Mg192 1.915 . S
Mg192 O191 1.915 . S
Mg192 O193 1.915 . S
Mg192 O197 2.013 . S
Mg192 O203 2.114 . S
Mg192 O207 2.013 . S
Mg192 O213 2.114 . S
O193 Mg192 1.915 . S
O193 Mg194 1.936 1_455 S
O193 Mg195 1.963 1_455 S
Mg194 O193 1.936 1_655 S
Mg194 O203 2.291 1_655 S
Mg194 O208 2.081 . S
Mg194 O210 2.023 . S
Mg194 O214 2.031 1_655 S
Mg195 O193 1.963 1_655 S
Mg195 O199 1.986 1_655 S
Mg195 O211 1.942 . S
Mg195 O212 1.955 . S
C196 O207 1.191 . S
C196 O209 1.307 . S
O197 Mg192 2.013 . S
O197 C216 1.191 . S
O198 Mg189 2.081 1_545 S
O198 C206 1.331 . S
O199 Mg195 1.986 1_455 S
O199 C216 1.307 . S
O200 Mg189 2.023 . S
O200 C215 1.264 . S
O201 Mg190 1.942 . S
O201 C206 1.244 1_565 S
O202 Mg190 1.955 . S
O202 C215 1.273 . S
O203 Mg192 2.114 . S
O203 Mg194 2.291 1_455 S
O203 C205 1.312 . S
O204 Mg189 2.031 . S
O204 C205 1.208 . S
C205 O203 1.312 . S
C205 O204 1.208 . S
C206 O198 1.331 . S
C206 O201 1.244 1_545 S
O207 Mg192 2.013 . S
O207 C196 1.191 . S
O208 C187 1.331 . S
O208 Mg194 2.081 . S
O209 Mg190 1.986 . S
O209 C196 1.307 . S
O210 C188 1.264 . S
O210 Mg194 2.023 . S
O211 C187 1.244 . S
O211 Mg195 1.942 . S
O212 C188 1.273 . S
O212 Mg195 1.955 . S
O213 C186 1.312 . S
O213 Mg189 2.291 . S
O213 Mg192 2.114 . S
O214 C186 1.208 . S
O214 Mg194 2.031 1_455 S
C215 O200 1.264 . S
C215 O202 1.273 . S
C216 O197 1.191 . S
C216 O199 1.307 . S
C217 O244 1.312 . S
C217 O245 1.208 . S
C218 O239 1.331 . S
C218 O242 1.244 . S
C219 O241 1.264 . S
C219 O243 1.273 . S
Mg220 O222 1.936 . S
Mg220 O229 2.081 . S
Mg220 O231 2.023 . S
Mg220 O235 2.031 . S
Mg220 O244 2.291 . S
Mg221 O222 1.963 . S
Mg221 O232 1.942 . S
Mg221 O233 1.955 . S
Mg221 O240 1.986 . S
O222 Mg220 1.936 . S
O222 Mg221 1.963 . S
O222 Mg223 1.915 . S
Mg223 O222 1.915 . S
Mg223 O224 1.915 . S
Mg223 O228 2.013 . S
Mg223 O234 2.114 . S
Mg223 O238 2.013 . S
Mg223 O244 2.114 . S
O224 Mg223 1.915 . S
O224 Mg225 1.936 . S
O224 Mg226 1.963 . S
Mg225 O224 1.936 . S
Mg225 O234 2.291 . S
Mg225 O239 2.081 . S
Mg225 O241 2.023 . S
Mg225 O245 2.031 . S
Mg226 O224 1.963 . S
Mg226 O230 1.986 . S
Mg226 O242 1.942 . S
Mg226 O243 1.955 . S
C227 O238 1.191 . S
C227 O240 1.307 . S
O228 Mg223 2.013 . S
O228 C247 1.191 . S
O229 Mg220 2.081 . S
O229 C237 1.331 . S
O230 Mg226 1.986 . S
O230 C247 1.307 . S
O231 Mg220 2.023 . S
O231 C246 1.264 . S
O232 Mg221 1.942 . S
O232 C237 1.244 . S
O233 Mg221 1.955 . S
O233 C246 1.273 . S
O234 Mg223 2.114 . S
O234 Mg225 2.291 . S
O234 C236 1.312 . S
O235 Mg220 2.031 . S
O235 C236 1.208 . S
C236 O234 1.312 . S
C236 O235 1.208 . S
C237 O229 1.331 . S
C237 O232 1.244 . S
O238 Mg223 2.013 . S
O238 C227 1.191 . S
O239 C218 1.331 . S
O239 Mg225 2.081 . S
O240 Mg221 1.986 . S
O240 C227 1.307 . S
O241 C219 1.264 . S
O241 Mg225 2.023 . S
O242 C218 1.244 . S
O242 Mg226 1.942 . S
O243 C219 1.273 . S
O243 Mg226 1.955 . S
O244 C217 1.312 . S
O244 Mg220 2.291 . S
O244 Mg223 2.114 . S
O245 C217 1.208 . S
O245 Mg225 2.031 . S
C246 O231 1.264 . S
C246 O233 1.273 . S
C247 O228 1.191 . S
C247 O230 1.307 . S
C248 C249 1.369 . S
C248 C250 1.419 . S
C248 H252 0.930 . S
C249 C248 1.369 . S
C249 C258 1.429 . S
C250 C248 1.419 . S
C250 C251 1.363 . S
C250 H253 0.929 . S
C251 C250 1.363 . S
C251 C257 1.428 . S
H252 C248 0.930 . S
H253 C250 0.929 . S
S254 N255 1.613 . S
S254 N256 1.610 . S
N255 S254 1.613 . S
N255 C258 1.350 . S
N256 S254 1.610 . S
N256 C257 1.351 . S
C257 C251 1.428 . S
C257 N256 1.351 . S
C257 C258 1.434 . S
C258 C249 1.429 . S
C258 N255 1.350 . S
C258 C257 1.434 . S
C259 C260 1.369 . S
C259 C261 1.419 . S
C259 H263 0.930 . S
C260 C259 1.369 . S
C260 C269 1.429 . S
C261 C259 1.419 . S
C261 C262 1.363 . S
C261 H264 0.929 . S
C262 C261 1.363 . S
C262 C268 1.428 . S
H263 C259 0.930 . S
H264 C261 0.929 . S
S265 N266 1.613 . S
S265 N267 1.610 . S
N266 S265 1.613 . S
N266 C269 1.350 . S
N267 S265 1.610 . S
N267 C268 1.351 . S
C268 C262 1.428 . S
C268 N267 1.351 . S
C268 C269 1.434 . S
C269 C260 1.429 . S
C269 N266 1.350 . S
C269 C268 1.434 . S
C270 C271 1.369 . S
C270 C272 1.419 . S
C270 H274 0.930 . S
C271 C270 1.369 . S
C271 C280 1.429 . S
C272 C270 1.419 . S
C272 C273 1.363 . S
C272 H275 0.929 . S
C273 C272 1.363 . S
C273 C279 1.428 . S
H274 C270 0.930 . S
H275 C272 0.929 . S
S276 N277 1.613 . S
S276 N278 1.610 . S
N277 S276 1.613 . S
N277 C280 1.350 . S
N278 S276 1.610 . S
N278 C279 1.351 . S
C279 C273 1.428 . S
C279 N278 1.351 . S
C279 C280 1.434 . S
C280 C271 1.429 . S
C280 N277 1.350 . S
C280 C279 1.434 . S
C281 C282 1.376 . S
C281 C283 1.419 . S
C281 H285 0.930 . S
C282 C281 1.376 . S
C282 C291 1.433 . S
C283 C281 1.419 . S
C283 C284 1.363 . S
C283 H286 0.929 . S
C284 C283 1.363 . S
C284 C290 1.428 . S
H285 C281 0.930 . S
H286 C283 0.929 . S
S287 N288 1.613 1_455 S
S287 N289 1.610 . S
N288 S287 1.613 1_655 S
N288 C291 1.350 1_655 S
N289 S287 1.610 . S
N289 C290 1.351 . S
C290 C284 1.428 . S
C290 N289 1.351 . S
C290 C291 1.434 . S
C291 C282 1.433 . S
C291 N288 1.350 1_455 S
C291 C290 1.434 . S
C292 C293 1.369 . S
C292 C294 1.419 . S
C292 H296 0.930 . S
C293 C292 1.369 . S
C293 C302 1.429 . S
C294 C292 1.419 . S
C294 C295 1.363 . S
C294 H297 0.929 . S
C295 C294 1.363 . S
C295 C301 1.428 . S
H296 C292 0.930 . S
H297 C294 0.929 . S
S298 N299 1.613 . S
S298 N300 1.610 . S
N299 S298 1.613 . S
N299 C302 1.350 . S
N300 S298 1.610 . S
N300 C301 1.351 . S
C301 C295 1.428 . S
C301 N300 1.351 . S
C301 C302 1.434 . S
C302 C293 1.429 . S
C302 N299 1.350 . S
C302 C301 1.434 . S
C303 C304 1.369 . S
C303 C305 1.419 . S
C303 H307 0.930 . S
C304 C303 1.369 . S
C304 C313 1.429 . S
C305 C303 1.419 . S
C305 C306 1.363 . S
C305 H308 0.929 . S
C306 C305 1.363 . S
C306 C312 1.428 . S
H307 C303 0.930 . S
H308 C305 0.929 . S
S309 N310 1.613 . S
S309 N311 1.610 . S
N310 S309 1.613 . S
N310 C313 1.350 . S
N311 S309 1.610 . S
N311 C312 1.351 . S
C312 C306 1.428 . S
C312 N311 1.351 . S
C312 C313 1.434 . S
C313 C304 1.429 . S
C313 N310 1.350 . S
C313 C312 1.434 . S
C314 C315 1.369 . S
C314 C316 1.419 . S
C314 H318 0.930 . S
C315 C314 1.369 . S
C315 C324 1.429 . S
C316 C314 1.419 . S
C316 C317 1.363 . S
C316 H319 0.929 . S
C317 C316 1.363 . S
C317 C323 1.428 . S
H318 C314 0.930 . S
H319 C316 0.929 . S
S320 N321 1.613 . S
S320 N322 1.610 . S
N321 S320 1.613 . S
N321 C324 1.350 . S
N322 S320 1.610 . S
N322 C323 1.351 . S
C323 C317 1.428 . S
C323 N322 1.351 . S
C323 C324 1.434 . S
C324 C315 1.429 . S
C324 N321 1.350 . S
C324 C323 1.434 . S
C325 C326 1.365 1_655 S
C325 C327 1.419 . S
C325 H329 0.930 . S
C326 C325 1.365 1_455 S
C326 C335 1.425 1_455 S
C327 C325 1.419 . S
C327 C328 1.363 . S
C327 H330 0.929 . S
C328 C327 1.363 . S
C328 C334 1.428 . S
H329 C325 0.930 . S
H330 C327 0.929 . S
S331 N332 1.613 . S
S331 N333 1.610 . S
N332 S331 1.613 . S
N332 C335 1.350 . S
N333 S331 1.610 . S
N333 C334 1.351 . S
C334 C328 1.428 . S
C334 N333 1.351 . S
C334 C335 1.434 . S
C335 C326 1.425 1_655 S
C335 N332 1.350 . S
C335 C334 1.434 . S
C336 C337 1.369 . S
C336 C338 1.419 . S
C336 H340 0.930 . S
C337 C336 1.369 . S
C337 C346 1.429 . S
C338 C336 1.419 . S
C338 C339 1.363 . S
C338 H341 0.929 . S
C339 C338 1.363 . S
C339 C345 1.428 . S
H340 C336 0.930 . S
H341 C338 0.929 . S
S342 N343 1.613 . S
S342 N344 1.610 . S
N343 S342 1.613 . S
N343 C346 1.350 . S
N344 S342 1.610 . S
N344 C345 1.351 . S
C345 C339 1.428 . S
C345 N344 1.351 . S
C345 C346 1.434 . S
C346 C337 1.429 . S
C346 N343 1.350 . S
C346 C345 1.434 . S
C347 C348 1.369 . S
C347 C349 1.419 . S
C347 H351 0.930 . S
C348 C347 1.369 . S
C348 C357 1.429 1_455 S
C349 C347 1.419 . S
C349 C350 1.363 1_455 S
C349 H352 0.929 . S
C350 C349 1.363 1_655 S
C350 C356 1.428 . S
H351 C347 0.930 . S
H352 C349 0.929 . S
S353 N354 1.613 1_565 S
S353 N355 1.610 1_565 S
N354 S353 1.613 1_545 S
N354 C357 1.350 . S
N355 S353 1.610 1_545 S
N355 C356 1.351 . S
C356 C350 1.428 . S
C356 N355 1.351 . S
C356 C357 1.434 . S
C357 C348 1.429 1_655 S
C357 N354 1.350 . S
C357 C356 1.434 . S
C358 C359 1.369 . S
C358 C360 1.419 . S
C358 H362 0.930 . S
C359 C358 1.369 . S
C359 C368 1.429 . S
C360 C358 1.419 . S
C360 C361 1.363 . S
C360 H363 0.929 . S
C361 C360 1.363 . S
C361 C367 1.428 . S
H362 C358 0.930 . S
H363 C360 0.929 . S
S364 N365 1.613 . S
S364 N366 1.610 . S
N365 S364 1.613 . S
N365 C368 1.350 . S
N366 S364 1.610 . S
N366 C367 1.351 . S
C367 C361 1.428 . S
C367 N366 1.351 . S
C367 C368 1.434 . S
C368 C359 1.429 . S
C368 N365 1.350 . S
C368 C367 1.434 . S
C369 C370 1.369 1_455 S
C369 C371 1.419 . S
C369 H373 0.930 . S
C370 C369 1.369 1_655 S
C370 C379 1.429 . S
C371 C369 1.419 . S
C371 C372 1.363 . S
C371 H374 0.929 . S
C372 C371 1.363 . S
C372 C378 1.428 1_455 S
H373 C369 0.930 . S
H374 C371 0.929 . S
S375 N376 1.613 . S
S375 N377 1.610 . S
N376 S375 1.613 . S
N376 C379 1.350 . S
N377 S375 1.610 . S
N377 C378 1.351 . S
C378 C372 1.428 1_655 S
C378 N377 1.351 . S
C378 C379 1.434 . S
C379 C370 1.429 . S
C379 N376 1.350 . S
C379 C378 1.434 . S
C380 C381 1.369 . S
C380 C382 1.419 . S
C380 H384 0.930 . S
C381 C380 1.369 . S
C381 C390 1.429 . S
C382 C380 1.419 . S
C382 C383 1.363 . S
C382 H385 0.929 . S
C383 C382 1.363 . S
C383 C389 1.428 . S
H384 C380 0.930 . S
H385 C382 0.929 . S
S386 N387 1.613 . S
S386 N388 1.610 . S
N387 S386 1.613 . S
N387 C390 1.350 . S
N388 S386 1.610 . S
N388 C389 1.351 . S
C389 C383 1.428 . S
C389 N388 1.351 . S
C389 C390 1.434 . S
C390 C381 1.429 . S
C390 N387 1.350 . S
C390 C389 1.434 . S
C391 C392 1.369 . S
C391 C393 1.419 . S
C391 H395 0.930 . S
C392 C391 1.369 . S
C392 C401 1.429 1_554 S
C393 C391 1.419 . S
C393 C394 1.363 1_554 S
C393 H396 0.929 . S
C394 C393 1.363 1_556 S
C394 C400 1.428 . S
H395 C391 0.930 . S
H396 C393 0.929 . S
S397 N398 1.613 . S
S397 N399 1.610 . S
N398 S397 1.613 . S
N398 C401 1.350 . S
N399 S397 1.610 . S
N399 C400 1.351 . S
C400 C394 1.428 . S
C400 N399 1.351 . S
C400 C401 1.434 . S
C401 C392 1.429 1_556 S
C401 N398 1.350 . S
C401 C400 1.434 . S
C402 C403 1.369 . S
C402 C404 1.419 . S
C402 H406 0.930 . S
C403 C402 1.369 . S
C403 C412 1.429 . S
C404 C402 1.419 . S
C404 C405 1.363 . S
C404 H407 0.929 . S
C405 C404 1.363 . S
C405 C411 1.428 . S
H406 C402 0.930 . S
H407 C404 0.929 . S
S408 N409 1.613 . S
S408 N410 1.610 . S
N409 S408 1.613 . S
N409 C412 1.350 . S
N410 S408 1.610 . S
N410 C411 1.351 . S
C411 C405 1.428 . S
C411 N410 1.351 . S
C411 C412 1.434 . S
C412 C403 1.429 . S
C412 N409 1.350 . S
C412 C411 1.434 . S
C413 C414 1.369 . S
C413 C415 1.419 . S
C413 H417 0.930 . S
C414 C413 1.369 . S
C414 C423 1.429 . S
C415 C413 1.419 . S
C415 C416 1.363 1_554 S
C415 H418 0.929 . S
C416 C415 1.363 1_556 S
C416 C422 1.428 . S
H417 C413 0.930 . S
H418 C415 0.929 . S
S419 N420 1.613 1_556 S
S419 N421 1.610 . S
N420 S419 1.613 1_554 S
N420 C423 1.350 . S
N421 S419 1.610 . S
N421 C422 1.351 . S
C422 C416 1.428 . S
C422 N421 1.351 . S
C422 C423 1.434 1_556 S
C423 C414 1.429 . S
C423 N420 1.350 . S
C423 C422 1.434 1_554 S
C424 C425 1.369 . S
C424 C426 1.419 . S
C424 H428 0.930 . S
C425 C424 1.369 . S
C425 C434 1.429 . S
C426 C424 1.419 . S
C426 C427 1.363 . S
C426 H429 0.929 . S
C427 C426 1.363 . S
C427 C433 1.428 . S
H428 C424 0.930 . S
H429 C426 0.929 . S
S430 N431 1.613 . S
S430 N432 1.610 . S
N431 S430 1.613 . S
N431 C434 1.350 . S
N432 S430 1.610 . S
N432 C433 1.351 . S
C433 C427 1.428 . S
C433 N432 1.351 . S
C433 C434 1.434 . S
C434 C425 1.429 . S
C434 N431 1.350 . S
C434 C433 1.434 . S
C435 C436 1.355 1_556 S
C435 C437 1.427 . S
C435 H439 0.935 . S
C436 C435 1.355 1_554 S
C436 C445 1.429 . S
C437 C435 1.427 . S
C437 C438 1.363 . S
C437 H440 0.929 . S
C438 C437 1.363 . S
C438 C444 1.428 1_556 S
H439 C435 0.935 . S
H440 C437 0.929 . S
S441 N442 1.613 . S
S441 N443 1.610 . S
N442 S441 1.613 . S
N442 C445 1.350 . S
N443 S441 1.610 . S
N443 C444 1.351 . S
C444 C438 1.428 1_554 S
C444 N443 1.351 . S
C444 C445 1.434 . S
C445 C436 1.429 . S
C445 N442 1.350 . S
C445 C444 1.434 . S
C446 C447 1.369 . S
C446 C448 1.419 . S
C446 H450 0.930 . S
C447 C446 1.369 . S
C447 C456 1.429 . S
C448 C446 1.419 . S
C448 C449 1.363 . S
C448 H451 0.929 . S
C449 C448 1.363 . S
C449 C455 1.428 . S
H450 C446 0.930 . S
H451 C448 0.929 . S
S452 N453 1.613 . S
S452 N454 1.610 . S
N453 S452 1.613 . S
N453 C456 1.350 . S
N454 S452 1.610 . S
N454 C455 1.351 . S
C455 C449 1.428 . S
C455 N454 1.351 . S
C455 C456 1.434 . S
C456 C447 1.429 . S
C456 N453 1.350 . S
C456 C455 1.434 . S
C457 C458 1.369 . S
C457 C459 1.419 1_556 S
C457 H461 0.930 . S
C458 C457 1.369 . S
C458 C467 1.429 . S
C459 C457 1.419 1_554 S
C459 C460 1.363 . S
C459 H462 0.929 . S
C460 C459 1.363 . S
C460 C466 1.427 1_554 S
H461 C457 0.930 . S
H462 C459 0.929 . S
S463 N464 1.613 . S
S463 N465 1.610 1_556 S
N464 S463 1.613 . S
N464 C467 1.350 . S
N465 S463 1.610 1_554 S
N465 C466 1.350 1_554 S
C466 C460 1.427 1_556 S
C466 N465 1.350 1_556 S
C466 C467 1.437 . S
C467 C458 1.429 . S
C467 N464 1.350 . S
C467 C466 1.437 . S
C468 C469 1.369 . S
C468 C470 1.419 . S
C468 H472 0.930 . S
C469 C468 1.369 . S
C469 C478 1.429 . S
C470 C468 1.419 . S
C470 C471 1.363 . S
C470 H473 0.929 . S
C471 C470 1.363 . S
C471 C477 1.428 . S
H472 C468 0.930 . S
H473 C470 0.929 . S
S474 N475 1.613 . S
S474 N476 1.610 . S
N475 S474 1.613 . S
N475 C478 1.350 . S
N476 S474 1.610 . S
N476 C477 1.351 . S
C477 C471 1.428 . S
C477 N476 1.351 . S
C477 C478 1.434 . S
C478 C469 1.429 . S
C478 N475 1.350 . S
C478 C477 1.434 . S
C479 C480 1.369 . S
C479 C481 1.419 . S
C479 H483 0.930 . S
C480 C479 1.369 . S
C480 C489 1.429 . S
C481 C479 1.419 . S
C481 C482 1.363 . S
C481 H484 0.929 . S
C482 C481 1.363 . S
C482 C488 1.428 . S
H483 C479 0.930 . S
H484 C481 0.929 . S
S485 N486 1.613 1_655 S
S485 N487 1.610 1_655 S
N486 S485 1.613 1_455 S
N486 C489 1.350 . S
N487 S485 1.610 1_455 S
N487 C488 1.351 . S
C488 C482 1.428 . S
C488 N487 1.351 . S
C488 C489 1.434 . S
C489 C480 1.429 . S
C489 N486 1.350 . S
C489 C488 1.434 . S
C490 C491 1.369 . S
C490 C492 1.419 . S
C490 H494 0.930 . S
C491 C490 1.369 . S
C491 C500 1.429 . S
C492 C490 1.419 . S
C492 C493 1.363 . S
C492 H495 0.929 . S
C493 C492 1.363 . S
C493 C499 1.428 . S
H494 C490 0.930 . S
H495 C492 0.929 . S
S496 N497 1.613 . S
S496 N498 1.610 . S
N497 S496 1.613 . S
N497 C500 1.350 . S
N498 S496 1.610 . S
N498 C499 1.351 . S
C499 C493 1.428 . S
C499 N498 1.351 . S
C499 C500 1.434 . S
C500 C491 1.429 . S
C500 N497 1.350 . S
C500 C499 1.434 . S
C501 C502 1.369 . S
C501 C503 1.419 . S
C501 H505 0.930 . S
C502 C501 1.369 . S
C502 C511 1.429 . S
C503 C501 1.419 . S
C503 C504 1.363 . S
C503 H506 0.929 . S
C504 C503 1.363 . S
C504 C510 1.428 . S
H505 C501 0.930 . S
H506 C503 0.929 . S
S507 N508 1.613 . S
S507 N509 1.610 . S
N508 S507 1.613 . S
N508 C511 1.350 . S
N509 S507 1.610 . S
N509 C510 1.351 . S
C510 C504 1.428 . S
C510 N509 1.351 . S
C510 C511 1.434 . S
C511 C502 1.429 . S
C511 N508 1.350 . S
C511 C510 1.434 . S
C512 C513 1.369 . S
C512 C514 1.419 . S
C512 H516 0.930 . S
C513 C512 1.369 . S
C513 C522 1.429 . S
C514 C512 1.419 . S
C514 C515 1.363 . S
C514 H517 0.929 . S
C515 C514 1.363 . S
C515 C521 1.428 . S
H516 C512 0.930 . S
H517 C514 0.929 . S
S518 N519 1.613 . S
S518 N520 1.610 . S
N519 S518 1.613 . S
N519 C522 1.350 . S
N520 S518 1.610 . S
N520 C521 1.351 . S
C521 C515 1.428 . S
C521 N520 1.351 . S
C521 C522 1.434 . S
C522 C513 1.429 . S
C522 N519 1.350 . S
C522 C521 1.434 . S
C523 C524 1.369 . S
C523 C525 1.419 . S
C523 H527 0.930 . S
C524 C523 1.369 . S
C524 C533 1.429 . S
C525 C523 1.419 . S
C525 C526 1.363 . S
C525 H528 0.929 . S
C526 C525 1.363 . S
C526 C532 1.428 . S
H527 C523 0.930 . S
H528 C525 0.929 . S
S529 N530 1.613 . S
S529 N531 1.610 . S
N530 S529 1.613 . S
N530 C533 1.350 . S
N531 S529 1.610 . S
N531 C532 1.351 . S
C532 C526 1.428 . S
C532 N531 1.351 . S
C532 C533 1.434 . S
C533 C524 1.429 . S
C533 N530 1.350 . S
C533 C532 1.434 . S
C534 C535 1.369 . S
C534 C536 1.419 . S
C534 H538 0.930 . S
C535 C534 1.369 . S
C535 C544 1.429 . S
C536 C534 1.419 . S
C536 C537 1.363 . S
C536 H539 0.929 . S
C537 C536 1.363 . S
C537 C543 1.428 . S
H538 C534 0.930 . S
H539 C536 0.929 . S
S540 N541 1.613 . S
S540 N542 1.610 . S
N541 S540 1.613 . S
N541 C544 1.350 . S
N542 S540 1.610 . S
N542 C543 1.351 . S
C543 C537 1.428 . S
C543 N542 1.351 . S
C543 C544 1.434 . S
C544 C535 1.429 . S
C544 N541 1.350 . S
C544 C543 1.434 . S
C545 C546 1.369 . S
C545 C547 1.419 . S
C545 H549 0.930 . S
C546 C545 1.369 . S
C546 C555 1.429 . S
C547 C545 1.419 . S
C547 C548 1.363 . S
C547 H550 0.929 . S
C548 C547 1.363 . S
C548 C554 1.428 . S
H549 C545 0.930 . S
H550 C547 0.929 . S
S551 N552 1.613 . S
S551 N553 1.610 . S
N552 S551 1.613 . S
N552 C555 1.350 . S
N553 S551 1.610 . S
N553 C554 1.351 . S
C554 C548 1.428 . S
C554 N553 1.351 . S
C554 C555 1.434 . S
C555 C546 1.429 . S
C555 N552 1.350 . S
C555 C554 1.434 . S
C556 C557 1.369 . S
C556 C558 1.419 . S
C556 H560 0.930 . S
C557 C556 1.369 . S
C557 C566 1.429 . S
C558 C556 1.419 . S
C558 C559 1.363 . S
C558 H561 0.929 . S
C559 C558 1.363 . S
C559 C565 1.428 . S
H560 C556 0.930 . S
H561 C558 0.929 . S
S562 N563 1.613 . S
S562 N564 1.610 . S
N563 S562 1.613 . S
N563 C566 1.350 . S
N564 S562 1.610 . S
N564 C565 1.351 . S
C565 C559 1.428 . S
C565 N564 1.351 . S
C565 C566 1.434 . S
C566 C557 1.429 . S
C566 N563 1.350 . S
C566 C565 1.434 . S
C567 C568 1.369 1_545 S
C567 C569 1.419 1_554 S
C567 H571 0.930 . S
C568 C567 1.369 1_565 S
C568 C577 1.429 1_655 S
C569 C567 1.419 1_556 S
C569 C570 1.363 1_655 S
C569 H572 0.929 . S
C570 C569 1.363 1_455 S
C570 C576 1.428 1_545 S
H571 C567 0.930 . S
H572 C569 0.929 . S
S573 N574 1.613 1_556 S
S573 N575 1.610 . S
N574 S573 1.613 1_554 S
N574 C577 1.350 . S
N575 S573 1.610 . S
N575 C576 1.351 . S
C576 C570 1.428 1_565 S
C576 N575 1.351 . S
C576 C577 1.434 1_556 S
C577 C568 1.429 1_455 S
C577 N574 1.350 . S
C577 C576 1.434 1_554 S
C578 C579 1.369 1_565 S
C578 C580 1.419 . S
C578 H582 0.930 . S
C579 C578 1.369 1_545 S
C579 C588 1.429 1_655 S
C580 C578 1.419 . S
C580 C581 1.363 1_655 S
C580 H583 0.929 . S
C581 C580 1.363 1_455 S
C581 C587 1.428 1_565 S
H582 C578 0.930 . S
H583 C580 0.929 . S
S584 N585 1.613 . S
S584 N586 1.610 . S
N585 S584 1.613 . S
N585 C588 1.350 . S
N586 S584 1.610 . S
N586 C587 1.351 . S
C587 C581 1.428 1_545 S
C587 N586 1.351 . S
C587 C588 1.434 . S
C588 C579 1.429 1_455 S
C588 N585 1.350 . S
C588 C587 1.434 . S
C589 C590 1.369 . S
C589 C591 1.419 1_554 S
C589 H593 0.930 . S
C590 C589 1.369 . S
C590 C599 1.429 . S
C591 C589 1.419 1_556 S
C591 C592 1.363 . S
C591 H594 0.929 . S
C592 C591 1.363 . S
C592 C598 1.428 . S
H593 C589 0.930 . S
H594 C591 0.929 . S
S595 N596 1.613 1_556 S
S595 N597 1.610 . S
N596 S595 1.613 1_554 S
N596 C599 1.350 . S
N597 S595 1.610 . S
N597 C598 1.351 . S
C598 C592 1.428 . S
C598 N597 1.351 . S
C598 C599 1.434 1_556 S
C599 C590 1.429 . S
C599 N596 1.350 . S
C599 C598 1.434 1_554 S
C249 C20 1.074 1_655 S
C251 C1 1.087 . S
C260 C33 1.601 . S
C262 C60 1.603 . S
C271 C82 1.087 . S
C273 C63 1.074 . S
C282 C122 1.590 1_455 S
C284 C95 1.604 . S
C293 C126 1.607 . S
C295 C153 1.597 1_455 S
C304 C184 1.594 . S
C306 C157 1.609 . S
C315 C188 1.608 . S
C317 C215 1.596 . S
C326 C219 1.607 . S
C328 C246 1.604 . S
C337 C103 1.472 . S
C339 C0 1.481 . S
C348 C61 1.470 . S
C350 C81 1.483 . S
C359 C134 1.367 . S
C361 C247 1.356 . S
C370 C165 1.354 . S
C372 C196 1.369 . S
C381 C92 1.312 . S
C383 C2 1.234 . S
C392 C93 1.318 . S
C394 C51 1.147 . S
C403 C91 1.231 . S
C405 C10 1.315 . S
C414 C94 1.144 . S
C416 C50 1.318 . S
C425 C186 1.284 . S
C427 C125 1.113 . S
C436 C156 1.136 . S
C438 C236 1.299 . S
C447 C187 1.125 . S
C449 C124 1.281 . S
C458 C237 1.144 . S
C460 C155 1.298 . S
C469 C206 1.877 . S
C471 C19 1.908 . S
C480 C41 1.713 . S
C482 C218 1.794 . S
C491 C144 1.880 . S
C493 C62 1.907 . S
C502 C175 1.791 . S
C504 C123 1.712 . S
C513 C154 1.927 . S
C515 C64 2.000 . S
C524 C113 1.794 . S
C526 C185 1.721 . S
C535 C29 1.999 . S
C537 C216 1.927 . S
C546 C227 1.724 . S
C548 C32 1.798 . S
C557 C143 1.367 . S
C559 C30 1.354 . S
C568 C174 1.414 . S
C570 C31 1.410 . S
C579 C72 1.338 . S
C581 C205 1.373 . S
C590 C112 1.403 . S
C592 C217 1.418 . S
