# Generated by pormake.
# Topology ums, (4)-cn, num edge types: 1
# Building blocks:
#     Node 0, Type 0, BuildingBlock: TATPOV_clean_sbu_0, # of connection points: 4
#     Node 1, Type 0, BuildingBlock: TATPOV_clean_sbu_0, # of connection points: 4
#     Node 2, Type 0, BuildingBlock: TATPOV_clean_sbu_0, # of connection points: 4
#     Node 3, Type 0, BuildingBlock: TATPOV_clean_sbu_0, # of connection points: 4
#     Node 4, Type 0, BuildingBlock: TATPOV_clean_sbu_0, # of connection points: 4
#     Node 5, Type 0, BuildingBlock: TATPOV_clean_sbu_0, # of connection points: 4
#     Node 6, Type 0, BuildingBlock: TATPOV_clean_sbu_0, # of connection points: 4
#     Node 7, Type 0, BuildingBlock: TATPOV_clean_sbu_0, # of connection points: 4
#     Node 8, Type 0, BuildingBlock: TATPOV_clean_sbu_0, # of connection points: 4
#     Node 9, Type 0, BuildingBlock: TATPOV_clean_sbu_0, # of connection points: 4
#     Node 10, Type 0, BuildingBlock: TATPOV_clean_sbu_0, # of connection points: 4
#     Node 11, Type 0, BuildingBlock: TATPOV_clean_sbu_0, # of connection points: 4
#     Node 12, Type 0, BuildingBlock: TATPOV_clean_sbu_0, # of connection points: 4
#     Node 13, Type 0, BuildingBlock: TATPOV_clean_sbu_0, # of connection points: 4
#     Node 14, Type 0, BuildingBlock: TATPOV_clean_sbu_0, # of connection points: 4
#     Node 15, Type 0, BuildingBlock: TATPOV_clean_sbu_0, # of connection points: 4
#     Node 16, Type 0, BuildingBlock: TATPOV_clean_sbu_0, # of connection points: 4
#     Node 17, Type 0, BuildingBlock: TATPOV_clean_sbu_0, # of connection points: 4
#     Node 18, Type 0, BuildingBlock: TATPOV_clean_sbu_0, # of connection points: 4
#     Node 19, Type 0, BuildingBlock: TATPOV_clean_sbu_0, # of connection points: 4
#     Node 20, Type 0, BuildingBlock: TATPOV_clean_sbu_0, # of connection points: 4
#     Node 21, Type 0, BuildingBlock: TATPOV_clean_sbu_0, # of connection points: 4
#     Node 22, Type 0, BuildingBlock: TATPOV_clean_sbu_0, # of connection points: 4
#     Node 23, Type 0, BuildingBlock: TATPOV_clean_sbu_0, # of connection points: 4
#     Node 24, Type 0, BuildingBlock: TATPOV_clean_sbu_0, # of connection points: 4
#     Node 25, Type 0, BuildingBlock: TATPOV_clean_sbu_0, # of connection points: 4
#     Node 26, Type 0, BuildingBlock: TATPOV_clean_sbu_0, # of connection points: 4
#     Node 27, Type 0, BuildingBlock: TATPOV_clean_sbu_0, # of connection points: 4
#     Node 28, Type 0, BuildingBlock: TATPOV_clean_sbu_0, # of connection points: 4
#     Node 29, Type 0, BuildingBlock: TATPOV_clean_sbu_0, # of connection points: 4
#     Node 30, Type 0, BuildingBlock: TATPOV_clean_sbu_0, # of connection points: 4
#     Node 31, Type 0, BuildingBlock: TATPOV_clean_sbu_0, # of connection points: 4
#     Node 32, Type 0, BuildingBlock: TATPOV_clean_sbu_0, # of connection points: 4
#     Node 33, Type 0, BuildingBlock: TATPOV_clean_sbu_0, # of connection points: 4
#     Node 34, Type 0, BuildingBlock: TATPOV_clean_sbu_0, # of connection points: 4
#     Node 35, Type 0, BuildingBlock: TATPOV_clean_sbu_0, # of connection points: 4
#     Edge 36, Type (0, 0), BuildingBlock: ZUJKAS_clean_linker_0, # of connection points: 2
#     Edge 37, Type (0, 0), BuildingBlock: ZUJKAS_clean_linker_0, # of connection points: 2
#     Edge 38, Type (0, 0), BuildingBlock: ZUJKAS_clean_linker_0, # of connection points: 2
#     Edge 39, Type (0, 0), BuildingBlock: ZUJKAS_clean_linker_0, # of connection points: 2
#     Edge 40, Type (0, 0), BuildingBlock: ZUJKAS_clean_linker_0, # of connection points: 2
#     Edge 41, Type (0, 0), BuildingBlock: ZUJKAS_clean_linker_0, # of connection points: 2
#     Edge 42, Type (0, 0), BuildingBlock: ZUJKAS_clean_linker_0, # of connection points: 2
#     Edge 43, Type (0, 0), BuildingBlock: ZUJKAS_clean_linker_0, # of connection points: 2
#     Edge 44, Type (0, 0), BuildingBlock: ZUJKAS_clean_linker_0, # of connection points: 2
#     Edge 45, Type (0, 0), BuildingBlock: ZUJKAS_clean_linker_0, # of connection points: 2
#     Edge 46, Type (0, 0), BuildingBlock: ZUJKAS_clean_linker_0, # of connection points: 2
#     Edge 47, Type (0, 0), BuildingBlock: ZUJKAS_clean_linker_0, # of connection points: 2
#     Edge 48, Type (0, 0), BuildingBlock: ZUJKAS_clean_linker_0, # of connection points: 2
#     Edge 49, Type (0, 0), BuildingBlock: ZUJKAS_clean_linker_0, # of connection points: 2
#     Edge 50, Type (0, 0), BuildingBlock: ZUJKAS_clean_linker_0, # of connection points: 2
#     Edge 51, Type (0, 0), BuildingBlock: ZUJKAS_clean_linker_0, # of connection points: 2
#     Edge 52, Type (0, 0), BuildingBlock: ZUJKAS_clean_linker_0, # of connection points: 2
#     Edge 53, Type (0, 0), BuildingBlock: ZUJKAS_clean_linker_0, # of connection points: 2
#     Edge 54, Type (0, 0), BuildingBlock: ZUJKAS_clean_linker_0, # of connection points: 2
#     Edge 55, Type (0, 0), BuildingBlock: ZUJKAS_clean_linker_0, # of connection points: 2
#     Edge 56, Type (0, 0), BuildingBlock: ZUJKAS_clean_linker_0, # of connection points: 2
#     Edge 57, Type (0, 0), BuildingBlock: ZUJKAS_clean_linker_0, # of connection points: 2
#     Edge 58, Type (0, 0), BuildingBlock: ZUJKAS_clean_linker_0, # of connection points: 2
#     Edge 59, Type (0, 0), BuildingBlock: ZUJKAS_clean_linker_0, # of connection points: 2
#     Edge 60, Type (0, 0), BuildingBlock: ZUJKAS_clean_linker_0, # of connection points: 2
#     Edge 61, Type (0, 0), BuildingBlock: ZUJKAS_clean_linker_0, # of connection points: 2
#     Edge 62, Type (0, 0), BuildingBlock: ZUJKAS_clean_linker_0, # of connection points: 2
#     Edge 63, Type (0, 0), BuildingBlock: ZUJKAS_clean_linker_0, # of connection points: 2
#     Edge 64, Type (0, 0), BuildingBlock: ZUJKAS_clean_linker_0, # of connection points: 2
#     Edge 65, Type (0, 0), BuildingBlock: ZUJKAS_clean_linker_0, # of connection points: 2
#     Edge 66, Type (0, 0), BuildingBlock: ZUJKAS_clean_linker_0, # of connection points: 2
#     Edge 67, Type (0, 0), BuildingBlock: ZUJKAS_clean_linker_0, # of connection points: 2
#     Edge 68, Type (0, 0), BuildingBlock: ZUJKAS_clean_linker_0, # of connection points: 2
#     Edge 69, Type (0, 0), BuildingBlock: ZUJKAS_clean_linker_0, # of connection points: 2
#     Edge 70, Type (0, 0), BuildingBlock: ZUJKAS_clean_linker_0, # of connection points: 2
#     Edge 71, Type (0, 0), BuildingBlock: ZUJKAS_clean_linker_0, # of connection points: 2
#     Edge 72, Type (0, 0), BuildingBlock: ZUJKAS_clean_linker_0, # of connection points: 2
#     Edge 73, Type (0, 0), BuildingBlock: ZUJKAS_clean_linker_0, # of connection points: 2
#     Edge 74, Type (0, 0), BuildingBlock: ZUJKAS_clean_linker_0, # of connection points: 2
#     Edge 75, Type (0, 0), BuildingBlock: ZUJKAS_clean_linker_0, # of connection points: 2
#     Edge 76, Type (0, 0), BuildingBlock: ZUJKAS_clean_linker_0, # of connection points: 2
#     Edge 77, Type (0, 0), BuildingBlock: ZUJKAS_clean_linker_0, # of connection points: 2
#     Edge 78, Type (0, 0), BuildingBlock: ZUJKAS_clean_linker_0, # of connection points: 2
#     Edge 79, Type (0, 0), BuildingBlock: ZUJKAS_clean_linker_0, # of connection points: 2
#     Edge 80, Type (0, 0), BuildingBlock: ZUJKAS_clean_linker_0, # of connection points: 2
#     Edge 81, Type (0, 0), BuildingBlock: ZUJKAS_clean_linker_0, # of connection points: 2
#     Edge 82, Type (0, 0), BuildingBlock: ZUJKAS_clean_linker_0, # of connection points: 2
#     Edge 83, Type (0, 0), BuildingBlock: ZUJKAS_clean_linker_0, # of connection points: 2
#     Edge 84, Type (0, 0), BuildingBlock: ZUJKAS_clean_linker_0, # of connection points: 2
#     Edge 85, Type (0, 0), BuildingBlock: ZUJKAS_clean_linker_0, # of connection points: 2
#     Edge 86, Type (0, 0), BuildingBlock: ZUJKAS_clean_linker_0, # of connection points: 2
#     Edge 87, Type (0, 0), BuildingBlock: ZUJKAS_clean_linker_0, # of connection points: 2
#     Edge 88, Type (0, 0), BuildingBlock: ZUJKAS_clean_linker_0, # of connection points: 2
#     Edge 89, Type (0, 0), BuildingBlock: ZUJKAS_clean_linker_0, # of connection points: 2
#     Edge 90, Type (0, 0), BuildingBlock: ZUJKAS_clean_linker_0, # of connection points: 2
#     Edge 91, Type (0, 0), BuildingBlock: ZUJKAS_clean_linker_0, # of connection points: 2
#     Edge 92, Type (0, 0), BuildingBlock: ZUJKAS_clean_linker_0, # of connection points: 2
#     Edge 93, Type (0, 0), BuildingBlock: ZUJKAS_clean_linker_0, # of connection points: 2
#     Edge 94, Type (0, 0), BuildingBlock: ZUJKAS_clean_linker_0, # of connection points: 2
#     Edge 95, Type (0, 0), BuildingBlock: ZUJKAS_clean_linker_0, # of connection points: 2
#     Edge 96, Type (0, 0), BuildingBlock: ZUJKAS_clean_linker_0, # of connection points: 2
#     Edge 97, Type (0, 0), BuildingBlock: ZUJKAS_clean_linker_0, # of connection points: 2
#     Edge 98, Type (0, 0), BuildingBlock: ZUJKAS_clean_linker_0, # of connection points: 2
#     Edge 99, Type (0, 0), BuildingBlock: ZUJKAS_clean_linker_0, # of connection points: 2
#     Edge 100, Type (0, 0), BuildingBlock: ZUJKAS_clean_linker_0, # of connection points: 2
#     Edge 101, Type (0, 0), BuildingBlock: ZUJKAS_clean_linker_0, # of connection points: 2
#     Edge 102, Type (0, 0), BuildingBlock: ZUJKAS_clean_linker_0, # of connection points: 2
#     Edge 103, Type (0, 0), BuildingBlock: ZUJKAS_clean_linker_0, # of connection points: 2
#     Edge 104, Type (0, 0), BuildingBlock: ZUJKAS_clean_linker_0, # of connection points: 2
#     Edge 105, Type (0, 0), BuildingBlock: ZUJKAS_clean_linker_0, # of connection points: 2
#     Edge 106, Type (0, 0), BuildingBlock: ZUJKAS_clean_linker_0, # of connection points: 2
#     Edge 107, Type (0, 0), BuildingBlock: ZUJKAS_clean_linker_0, # of connection points: 2
# Relax obj value: 0.122
# Max RMSD: 0.106
# Mean RMSD: 0.106
data_MOF--net-ums--node1-TATPOV_clean_sbu_0--edge1-ZUJKAS_clean_linker_0
_symmetry_space_group_name_H-M    P1
_symmetry_Int_Tables_number       1
_symmetry_cell_setting            triclinic
loop_
_symmetry_equiv_pos_as_xyz
'x, y, z'
_cell_length_a     131.0816
_cell_length_b     131.09773
_cell_length_c     30.417884
_cell_angle_alpha  90.010557
_cell_angle_beta   89.993854
_cell_angle_gamma 119.99803
loop_
_atom_site_label
_atom_site_type_symbol
_atom_site_fract_x
_atom_site_fract_y
_atom_site_fract_z
_atom_type_partial_charge
Zn0 Zn 0.16947 0.28322 0.20568 0.0
Zn1 Zn 0.17782 0.2689 0.21446 0.0
O2 O 0.19205 0.28462 0.19132 0.0
O3 O 0.18525 0.29692 0.19221 0.0
O4 O 0.18515 0.25879 0.22605 0.0
O5 O 0.16317 0.28037 0.26691 0.0
O6 O 0.17091 0.269 0.27566 0.0
C7 C 0.19364 0.29497 0.18548 0.0
C8 C 0.15856 0.26327 0.14739 0.0
O9 O 0.1648 0.2599 0.16812 0.0
O10 O 0.15936 0.27308 0.1562 0.0
C11 C 0.18514 0.25132 0.19932 0.0
O12 O 0.18006 0.24983 0.16079 0.0
C13 C 0.16518 0.27371 0.29101 0.0
Zn14 Zn 0.72846 0.89189 0.27287 0.0
Zn15 Zn 0.74365 0.91332 0.24764 0.0
O16 O 0.72732 0.91176 0.23502 0.0
O17 O 0.71472 0.89355 0.25425 0.0
O18 O 0.75525 0.93053 0.23736 0.0
O19 O 0.73395 0.8945 0.33526 0.0
O20 O 0.74844 0.91128 0.31065 0.0
C21 C 0.71673 0.90329 0.23827 0.0
C22 C 0.7438 0.89314 0.20113 0.0
O23 O 0.74751 0.90417 0.2024 0.0
O24 O 0.73617 0.88627 0.22858 0.0
C25 C 0.75351 0.93728 0.21232 0.0
O26 O 0.74381 0.93286 0.18881 0.0
C27 C 0.74373 0.90376 0.34149 0.0
Zn28 Zn 0.11106 0.83518 0.20864 0.0
Zn29 Zn 0.08849 0.82773 0.21972 0.0
O30 O 0.0892 0.81276 0.2006 0.0
O31 O 0.10819 0.81898 0.19824 0.0
O32 O 0.0712 0.82152 0.23079 0.0
O33 O 0.1149 0.84214 0.26907 0.0
O34 O 0.096 0.83554 0.27921 0.0
C35 C 0.09766 0.81071 0.19442 0.0
C36 C 0.10207 0.84578 0.14865 0.0
O37 O 0.09261 0.84003 0.17072 0.0
O38 O 0.11101 0.84483 0.15724 0.0
C39 C 0.06331 0.81377 0.20607 0.0
O40 O 0.06651 0.80981 0.17217 0.0
C41 C 0.10657 0.84101 0.29337 0.0
Zn42 Zn 0.28135 0.17869 0.22719 0.0
Zn43 Zn 0.264 0.18234 0.2465 0.0
O44 O 0.27923 0.19782 0.26499 0.0
O45 O 0.29364 0.19474 0.24597 0.0
O46 O 0.25131 0.18662 0.25339 0.0
O47 O 0.27684 0.17518 0.16409 0.0
O48 O 0.26139 0.17672 0.18159 0.0
C49 C 0.29023 0.20136 0.26274 0.0
C50 C 0.26538 0.1629 0.29432 0.0
O51 O 0.25994 0.16862 0.28903 0.0
O52 O 0.27453 0.16555 0.27193 0.0
C53 C 0.25104 0.19305 0.28413 0.0
O54 O 0.25899 0.19661 0.31546 0.0
C55 C 0.26715 0.17441 0.15343 0.0
Zn56 Zn 0.82984 0.10771 0.25277 0.0
Zn57 Zn 0.82148 0.08533 0.27074 0.0
O58 O 0.80724 0.08792 0.28074 0.0
O59 O 0.81441 0.10671 0.26623 0.0
O60 O 0.81419 0.06773 0.27653 0.0
O61 O 0.8344 0.10639 0.19121 0.0
O62 O 0.82976 0.0884 0.2101 0.0
C63 C 0.80591 0.09691 0.27856 0.0
C64 C 0.84104 0.10331 0.32755 0.0
O65 O 0.83342 0.09253 0.32085 0.0
O66 O 0.84149 0.11124 0.30237 0.0
C67 C 0.82 0.06269 0.26626 0.0
O68 O 0.83108 0.06917 0.25441 0.0
C69 C 0.83412 0.09683 0.18247 0.0
Zn70 Zn 0.89582 0.72095 0.23078 0.0
Zn71 Zn 0.91669 0.73646 0.2628 0.0
O72 O 0.9156 0.72018 0.26964 0.0
O73 O 0.89841 0.70736 0.24201 0.0
O74 O 0.93358 0.74744 0.27963 0.0
O75 O 0.89947 0.72884 0.17185 0.0
O76 O 0.91587 0.74279 0.20138 0.0
C77 C 0.90794 0.70956 0.26048 0.0
C78 C 0.89511 0.73383 0.30848 0.0
O79 O 0.90631 0.73872 0.30755 0.0
O80 O 0.88894 0.72632 0.27941 0.0
C81 C 0.93874 0.7585 0.27328 0.0
O82 O 0.93259 0.76322 0.25874 0.0
C83 C 0.90878 0.73875 0.16903 0.0
Zn84 Zn 0.83376 0.71928 0.78804 0.0
Zn85 Zn 0.82857 0.73605 0.78535 0.0
O86 O 0.81391 0.72207 0.81517 0.0
O87 O 0.81933 0.70875 0.8227 0.0
O88 O 0.82349 0.74812 0.77752 0.0
O89 O 0.83438 0.7182 0.72249 0.0
O90 O 0.83273 0.73407 0.72146 0.0
C91 C 0.81191 0.71207 0.82911 0.0
C92 C 0.85054 0.74036 0.83416 0.0
O93 O 0.84336 0.74396 0.82507 0.0
O94 O 0.84851 0.73039 0.8206 0.0
C95 C 0.81896 0.75115 0.8082 0.0
O96 O 0.81794 0.74663 0.84761 0.0
C97 C 0.8345 0.72656 0.70133 0.0
Zn98 Zn 0.27985 0.11438 0.7334 0.0
Zn99 Zn 0.26339 0.09263 0.75051 0.0
O100 O 0.27892 0.0938 0.77392 0.0
O101 O 0.29244 0.11215 0.76076 0.0
O102 O 0.25127 0.07535 0.75592 0.0
O103 O 0.27708 0.11266 0.66853 0.0
O104 O 0.26171 0.09546 0.6845 0.0
C105 C 0.28959 0.10214 0.77642 0.0
C106 C 0.26155 0.11247 0.79297 0.0
O107 O 0.25757 0.10141 0.78992 0.0
O108 O 0.27062 0.1196 0.77136 0.0
C109 C 0.25229 0.06818 0.78119 0.0
O110 O 0.26135 0.07215 0.80789 0.0
C111 C 0.26781 0.10347 0.65655 0.0
Zn112 Zn 0.89138 0.16425 0.81621 0.0
Zn113 Zn 0.91325 0.17284 0.79567 0.0
O114 O 0.91178 0.1876 0.81119 0.0
O115 O 0.89264 0.18002 0.81725 0.0
O116 O 0.93023 0.18003 0.77747 0.0
O117 O 0.88598 0.15422 0.76212 0.0
O118 O 0.90444 0.16341 0.74021 0.0
C119 C 0.90288 0.18893 0.81698 0.0
C120 C 0.90319 0.15708 0.87611 0.0
O121 O 0.91148 0.16194 0.84803 0.0
O122 O 0.89388 0.15761 0.87171 0.0
C123 C 0.93855 0.18666 0.8033 0.0
O124 O 0.93598 0.18864 0.843 0.0
C125 C 0.89361 0.15597 0.73319 0.0
Zn126 Zn 0.72811 0.83141 0.71734 0.0
Zn127 Zn 0.74261 0.82332 0.72824 0.0
O128 O 0.7268 0.80855 0.70913 0.0
O129 O 0.71445 0.8153 0.70804 0.0
O130 O 0.75322 0.81656 0.73936 0.0
O131 O 0.73158 0.83858 0.77738 0.0
O132 O 0.74281 0.83077 0.78844 0.0
C133 C 0.71638 0.80682 0.70392 0.0
C134 C 0.74751 0.84164 0.65734 0.0
O135 O 0.7511 0.83582 0.67968 0.0
O136 O 0.73766 0.84079 0.66554 0.0
C137 C 0.75777 0.81362 0.70848 0.0
O138 O 0.75562 0.81513 0.66751 0.0
C139 C 0.73823 0.83676 0.80232 0.0
Zn140 Zn 0.17145 0.89815 0.76661 0.0
Zn141 Zn 0.1771 0.91969 0.74199 0.0
O142 O 0.1925 0.91885 0.73467 0.0
O143 O 0.18776 0.9011 0.75723 0.0
O144 O 0.18234 0.93683 0.73138 0.0
O145 O 0.16626 0.90005 0.8263 0.0
O146 O 0.16923 0.91722 0.80312 0.0
C147 C 0.19532 0.91099 0.74182 0.0
C148 C 0.15879 0.89918 0.68914 0.0
O149 O 0.16496 0.91031 0.69418 0.0
O150 O 0.15991 0.89234 0.71568 0.0
C151 C 0.19154 0.94387 0.71002 0.0
O152 O 0.19775 0.93981 0.69069 0.0
C153 C 0.16568 0.90928 0.83265 0.0
Zn154 Zn 0.10575 0.27622 0.76224 0.0
Zn155 Zn 0.08475 0.26021 0.73605 0.0
O156 O 0.08524 0.27614 0.72579 0.0
O157 O 0.10311 0.2895 0.7458 0.0
O158 O 0.06773 0.2482 0.72498 0.0
O159 O 0.1033 0.27018 0.82382 0.0
O160 O 0.08701 0.25519 0.79834 0.0
C161 C 0.09317 0.28692 0.73009 0.0
C162 C 0.10566 0.2619 0.68863 0.0
O163 O 0.09451 0.25746 0.68984 0.0
O164 O 0.11215 0.26956 0.7167 0.0
C165 C 0.06119 0.24948 0.69731 0.0
O166 O 0.06581 0.25875 0.6715 0.0
C167 C 0.09443 0.26006 0.82937 0.0
Zn168 Zn 0.82929 0.60121 0.49767 0.0
Zn169 Zn 0.83817 0.5877 0.51722 0.0
O170 O 0.85261 0.60367 0.49736 0.0
O171 O 0.84516 0.61529 0.48883 0.0
O172 O 0.8454 0.57778 0.53412 0.0
O173 O 0.82134 0.59815 0.55628 0.0
O174 O 0.82993 0.58804 0.57478 0.0
C175 C 0.85397 0.61379 0.48861 0.0
C176 C 0.82054 0.58092 0.44217 0.0
O177 O 0.82633 0.57806 0.46808 0.0
O178 O 0.82088 0.59069 0.4465 0.0
C179 C 0.85472 0.57903 0.51619 0.0
O180 O 0.85977 0.58687 0.4848 0.0
C181 C 0.82332 0.59227 0.58451 0.0
Zn182 Zn 0.38944 0.22599 0.53987 0.0
Zn183 Zn 0.40415 0.24823 0.5533 0.0
O184 O 0.38864 0.24767 0.53281 0.0
O185 O 0.37602 0.22868 0.52919 0.0
O186 O 0.41485 0.26543 0.5666 0.0
O187 O 0.39227 0.22152 0.59947 0.0
O188 O 0.40384 0.24039 0.61276 0.0
C189 C 0.37821 0.2392 0.52572 0.0
C190 C 0.40922 0.2352 0.48155 0.0
O191 O 0.41288 0.24449 0.50472 0.0
O192 O 0.39922 0.22629 0.48882 0.0
C193 C 0.41705 0.27332 0.53794 0.0
O194 O 0.41245 0.27013 0.49849 0.0
C195 C 0.39896 0.22969 0.6254 0.0
Zn196 Zn 0.76917 0.166 0.58366 0.0
Zn197 Zn 0.74761 0.15944 0.56002 0.0
O198 O 0.74952 0.14495 0.54559 0.0
O199 O 0.76789 0.15089 0.56344 0.0
O200 O 0.73024 0.1533 0.55167 0.0
O201 O 0.7668 0.16855 0.64669 0.0
O202 O 0.74987 0.16614 0.62337 0.0
C203 C 0.75816 0.14307 0.54764 0.0
C204 C 0.76726 0.18015 0.51352 0.0
O205 O 0.75628 0.17262 0.51489 0.0
O206 O 0.7743 0.17947 0.54036 0.0
C207 C 0.72369 0.14524 0.52477 0.0
O208 O 0.72844 0.14095 0.49784 0.0
C209 C 0.7575 0.16895 0.65378 0.0
Zn210 Zn 0.93273 0.49007 0.696 0.0
Zn211 Zn 0.92004 0.50013 0.67676 0.0
O212 O 0.93612 0.51403 0.69801 0.0
O213 O 0.94592 0.50526 0.7187 0.0
O214 O 0.91064 0.50796 0.66022 0.0
O215 O 0.93229 0.48528 0.63322 0.0
O216 O 0.92078 0.49256 0.6181 0.0
C217 C 0.94529 0.51453 0.71468 0.0
C218 C 0.91115 0.4801 0.74401 0.0
O219 O 0.90978 0.48793 0.72441 0.0
O220 O 0.92014 0.47915 0.73699 0.0
C221 C 0.91247 0.51759 0.67735 0.0
O222 O 0.92059 0.5226 0.70786 0.0
C223 C 0.92611 0.48714 0.60597 0.0
Zn224 Zn 0.49537 0.44228 0.58074 0.0
Zn225 Zn 0.4904 0.42098 0.60152 0.0
O226 O 0.47483 0.42121 0.61241 0.0
O227 O 0.47927 0.43929 0.59618 0.0
O228 O 0.48535 0.4038 0.60817 0.0
O229 O 0.49973 0.4412 0.51878 0.0
O230 O 0.49835 0.42454 0.54003 0.0
C231 C 0.47189 0.42912 0.6099 0.0
C232 C 0.50901 0.44099 0.65425 0.0
O233 O 0.50247 0.42988 0.65007 0.0
O234 O 0.50792 0.44791 0.62805 0.0
C235 C 0.47756 0.39693 0.6353 0.0
O236 O 0.473 0.40124 0.66304 0.0
C237 C 0.50119 0.43254 0.51106 0.0
Zn238 Zn 0.55292 0.05201 0.62684 0.0
Zn239 Zn 0.5753 0.06748 0.61486 0.0
O240 O 0.57514 0.05223 0.63632 0.0
O241 O 0.55627 0.03906 0.639 0.0
O242 O 0.59243 0.07848 0.60115 0.0
O243 O 0.54862 0.05438 0.56613 0.0
O244 O 0.5674 0.06704 0.55539 0.0
C245 C 0.5669 0.04168 0.64329 0.0
C246 C 0.56168 0.07207 0.68499 0.0
O247 O 0.57117 0.07591 0.66299 0.0
O248 O 0.5529 0.06203 0.67697 0.0
C249 C 0.60061 0.08061 0.62841 0.0
O250 O 0.59784 0.07574 0.66757 0.0
C251 C 0.55681 0.06159 0.54137 0.0
Zn252 Zn 0.48961 0.05025 0.07009 0.0
Zn253 Zn 0.48424 0.06645 0.09402 0.0
O254 O 0.4689 0.05042 0.10396 0.0
O255 O 0.47328 0.03708 0.08218 0.0
O256 O 0.47876 0.07804 0.10672 0.0
O257 O 0.49435 0.05703 0.00956 0.0
O258 O 0.49137 0.07131 0.0316 0.0
C259 C 0.46592 0.03964 0.09805 0.0
C260 C 0.50301 0.06456 0.14521 0.0
O261 O 0.49687 0.06955 0.14014 0.0
O262 O 0.5016 0.05632 0.11959 0.0
C263 C 0.48407 0.08855 0.09221 0.0
O264 O 0.49395 0.09234 0.07026 0.0
C265 C 0.49477 0.06673 0.00226 0.0
Zn266 Zn 0.94511 0.44086 0.12091 0.0
Zn267 Zn 0.93108 0.41887 0.14571 0.0
O268 O 0.94791 0.42142 0.15398 0.0
O269 O 0.95956 0.43979 0.13383 0.0
O270 O 0.92074 0.40143 0.15546 0.0
O271 O 0.93829 0.43823 0.06028 0.0
O272 O 0.92523 0.42071 0.08464 0.0
C273 C 0.95825 0.43019 0.14867 0.0
C274 C 0.93029 0.43808 0.19702 0.0
O275 O 0.92695 0.42716 0.19369 0.0
O276 O 0.93757 0.4454 0.16966 0.0
C277 C 0.90971 0.39647 0.14879 0.0
O278 O 0.90503 0.40304 0.13938 0.0
C279 C 0.92891 0.42852 0.05461 0.0
Zn280 Zn 0.55769 0.50767 0.13688 0.0
Zn281 Zn 0.57977 0.51512 0.12137 0.0
O282 O 0.57903 0.53024 0.13735 0.0
O283 O 0.56003 0.52386 0.14078 0.0
O284 O 0.59693 0.52193 0.10633 0.0
O285 O 0.55273 0.49872 0.08036 0.0
O286 O 0.57149 0.5063 0.06418 0.0
C287 C 0.57054 0.53228 0.14244 0.0
C288 C 0.56773 0.49867 0.19848 0.0
O289 O 0.57666 0.50367 0.17319 0.0
O290 O 0.55877 0.4997 0.19142 0.0
C291 C 0.60221 0.51602 0.10539 0.0
O292 O 0.59639 0.50478 0.11565 0.0
C293 C 0.56067 0.49987 0.05382 0.0
Zn294 Zn 0.38957 0.16555 0.10183 0.0
Zn295 Zn 0.40438 0.15893 0.07681 0.0
O296 O 0.3879 0.1443 0.06495 0.0
O297 O 0.37555 0.15016 0.08498 0.0
O298 O 0.41545 0.15272 0.06608 0.0
O299 O 0.39543 0.16888 0.16367 0.0
O300 O 0.4096 0.16607 0.13924 0.0
C301 C 0.37736 0.14231 0.06886 0.0
C302 C 0.40458 0.17905 0.02856 0.0
O303 O 0.40826 0.17171 0.03057 0.0
O304 O 0.39707 0.17851 0.05612 0.0
C305 C 0.41387 0.14421 0.09069 0.0
O306 O 0.40518 0.14004 0.11922 0.0
C307 C 0.40514 0.16925 0.16982 0.0
Zn308 Zn 0.82958 0.2262 0.03211 0.0
Zn309 Zn 0.83756 0.24885 0.04269 0.0
O310 O 0.85242 0.24794 0.02373 0.0
O311 O 0.84576 0.22886 0.0225 0.0
O312 O 0.84395 0.26611 0.05488 0.0
O313 O 0.82247 0.22242 0.09223 0.0
O314 O 0.83002 0.24145 0.10259 0.0
C315 C 0.85421 0.2393 0.01841 0.0
C316 C 0.81931 0.23534 0.97185 0.0
O317 O 0.82516 0.24481 0.99376 0.0
O318 O 0.8201 0.22633 0.98054 0.0
C319 C 0.85221 0.2743 0.03276 0.0
O320 O 0.85673 0.27155 -0.00065 0.0
C321 C 0.82416 0.23091 0.11682 0.0
Zn322 Zn 0.77123 0.60232 0.07607 0.0
Zn323 Zn 0.74963 0.58746 0.04913 0.0
O324 O 0.75102 0.60397 0.04554 0.0
O325 O 0.76903 0.61625 0.06796 0.0
O326 O 0.73241 0.57626 0.03702 0.0
O327 O 0.76869 0.59459 0.13481 0.0
O328 O 0.75162 0.58095 0.10866 0.0
C329 C 0.75923 0.61447 0.0534 0.0
C330 C 0.76996 0.58941 0.99604 0.0
O331 O 0.75886 0.58512 -0.00031 0.0
O332 O 0.77687 0.59654 0.02472 0.0
C333 C 0.726 0.57885 0.01361 0.0
O334 O 0.73084 0.58904 0.99317 0.0
C335 C 0.75934 0.58478 0.13909 0.0
Zn336 Zn 0.50115 0.93925 0.91191 0.0
Zn337 Zn 0.50734 0.92374 0.88954 0.0
O338 O 0.52278 0.93997 0.88466 0.0
O339 O 0.51748 0.95282 0.90361 0.0
O340 O 0.51281 0.91194 0.88158 0.0
O341 O 0.49533 0.93219 0.97119 0.0
O342 O 0.49841 0.91802 0.9488 0.0
C343 C 0.52535 0.95063 0.89057 0.0
C344 C 0.48956 0.92575 0.8329 0.0
O345 O 0.49606 0.92118 0.83853 0.0
O346 O 0.48997 0.9333 0.86001 0.0
C347 C 0.52194 0.9139 0.86018 0.0
O348 O 0.52797 0.92391 0.83896 0.0
C349 C 0.49447 0.92226 0.97748 0.0
Zn350 Zn 0.06613 0.55793 0.86747 0.0
Zn351 Zn 0.07983 0.58064 0.87156 0.0
O352 O 0.06447 0.5785 0.84285 0.0
O353 O 0.05394 0.55935 0.8329 0.0
O354 O 0.08957 0.59828 0.87724 0.0
O355 O 0.06504 0.55626 0.93278 0.0
O356 O 0.0784 0.57505 0.93608 0.0
C357 C 0.05523 0.56951 0.8282 0.0
C358 C 0.08817 0.56563 0.82397 0.0
O359 O 0.08981 0.57588 0.83262 0.0
O360 O 0.07885 0.55658 0.8367 0.0
C361 C 0.09832 0.60338 0.90315 0.0
O362 O 0.10159 0.59699 0.92595 0.0
C363 C 0.07197 0.56521 0.95518 0.0
Zn364 Zn 0.4379 0.49257 0.92475 0.0
Zn365 Zn 0.41616 0.48687 0.90508 0.0
O366 O 0.41737 0.47203 0.88953 0.0
O367 O 0.43542 0.47675 0.90779 0.0
O368 O 0.39883 0.48096 0.89725 0.0
O369 O 0.43649 0.49642 0.98734 0.0
O370 O 0.41905 0.49354 0.96849 0.0
C371 C 0.4255 0.46939 0.89196 0.0
C372 C 0.43581 0.50659 0.85417 0.0
O373 O 0.42475 0.50003 0.85985 0.0
O374 O 0.44299 0.5052 0.87785 0.0
C375 C 0.39413 0.48698 0.90901 0.0
O376 O 0.40086 0.49769 0.92424 0.0
C377 C 0.42725 0.49672 0.99682 0.0
Zn378 Zn 0.61205 0.83445 0.91807 0.0
Zn379 Zn 0.59783 0.84216 0.93685 0.0
O380 O 0.6142 0.85575 0.95709 0.0
O381 O 0.62578 0.84837 0.94585 0.0
O382 O 0.58743 0.84933 0.94309 0.0
O383 O 0.60945 0.83386 0.85337 0.0
O384 O 0.59485 0.83672 0.87155 0.0
C385 C 0.62433 0.85664 0.95991 0.0
C386 C 0.59355 0.81969 0.9794 0.0
O387 O 0.59131 0.82809 0.97927 0.0
O388 O 0.60148 0.82005 0.95456 0.0
C389 C 0.57693 0.84403 0.92851 0.0
O390 O 0.57263 0.83337 0.91221 0.0
C391 C 0.60031 0.8342 0.84274 0.0
Zn392 Zn 0.16323 0.77255 0.91544 0.0
Zn393 Zn 0.15808 0.75197 0.94825 0.0
O394 O 0.14266 0.75265 0.95528 0.0
O395 O 0.14719 0.77006 0.92947 0.0
O396 O 0.15285 0.73511 0.96382 0.0
O397 O 0.1669 0.76886 0.85561 0.0
O398 O 0.16556 0.75314 0.88708 0.0
C399 C 0.1398 0.76045 0.94732 0.0
C400 C 0.1771 0.77366 0.99254 0.0
O401 O 0.17038 0.76251 0.99364 0.0
O402 O 0.17611 0.77967 0.96188 0.0
C403 C 0.14476 0.72769 0.93876 0.0
O404 O 0.14061 0.73164 0.90788 0.0
C405 C 0.16812 0.7599 0.85385 0.0
Zn406 Zn 0.22454 0.39311 0.87201 0.0
Zn407 Zn 0.24513 0.40972 0.90038 0.0
O408 O 0.24498 0.39416 0.91512 0.0
O409 O 0.22724 0.38037 0.89556 0.0
O410 O 0.26181 0.42234 0.91425 0.0
O411 O 0.22819 0.39819 0.80929 0.0
O412 O 0.24378 0.41384 0.83561 0.0
C413 C 0.23714 0.3833 0.91257 0.0
C414 C 0.22324 0.40817 0.93929 0.0
O415 O 0.23436 0.41251 0.94158 0.0
O416 O 0.21724 0.40032 0.91104 0.0
C417 C 0.26829 0.42117 0.94254 0.0
O418 O 0.26381 0.41161 0.96686 0.0
C419 C 0.23701 0.40832 0.8035 0.0
Zn420 Zn 0.1595 0.38154 0.40056 0.0
Zn421 Zn 0.15322 0.39766 0.40843 0.0
O422 O 0.13921 0.38259 0.43576 0.0
O423 O 0.14438 0.36915 0.42702 0.0
O424 O 0.14745 0.4093 0.41012 0.0
O425 O 0.1614 0.38358 0.33548 0.0
O426 O 0.15693 0.39758 0.34222 0.0
C427 C 0.13704 0.37202 0.44059 0.0
C428 C 0.17525 0.40125 0.45543 0.0
O429 O 0.1682 0.40503 0.44684 0.0
O430 O 0.17337 0.39151 0.43967 0.0
C431 C 0.15319 0.41927 0.39141 0.0
O432 O 0.16329 0.42217 0.37244 0.0
C433 C 0.16002 0.39159 0.31834 0.0
Zn434 Zn 0.61668 0.7764 0.42645 0.0
Zn435 Zn 0.59961 0.75462 0.43688 0.0
O436 O 0.61463 0.75437 0.45808 0.0
O437 O 0.62882 0.77259 0.44712 0.0
O438 O 0.58726 0.73741 0.43661 0.0
O439 O 0.61366 0.77676 0.36248 0.0
O440 O 0.59864 0.75892 0.37204 0.0
C441 C 0.62553 0.76221 0.45979 0.0
C442 C 0.59859 0.7739 0.48806 0.0
O443 O 0.5939 0.76291 0.4799 0.0
O444 O 0.60817 0.78117 0.46954 0.0
C445 C 0.58116 0.7311 0.4687 0.0
O446 O 0.58255 0.73589 0.50779 0.0
C447 C 0.60468 0.76779 0.34729 0.0
Zn448 Zn 0.2225 0.83538 0.47774 0.0
Zn449 Zn 0.24449 0.84055 0.46981 0.0
O450 O 0.24576 0.85539 0.50013 0.0
O451 O 0.22717 0.8502 0.51121 0.0
O452 O 0.26146 0.84542 0.45867 0.0
O453 O 0.21981 0.83413 0.41268 0.0
O454 O 0.2376 0.83655 0.40691 0.0
C455 C 0.23801 0.85758 0.51555 0.0
C456 C 0.22739 0.81877 0.52159 0.0
O457 O 0.238 0.82578 0.50979 0.0
O458 O 0.21931 0.8209 0.51084 0.0
C459 C 0.26918 0.84868 0.48881 0.0
O460 O 0.26601 0.84854 0.52989 0.0
C461 C 0.2279 0.83438 0.38921 0.0
Zn462 Zn 0.06664 0.50203 0.42876 0.0
Zn463 Zn 0.08184 0.49657 0.39566 0.0
O464 O 0.06554 0.48139 0.38812 0.0
O465 O 0.05286 0.48627 0.41338 0.0
O466 O 0.09347 0.49137 0.37915 0.0
O467 O 0.07384 0.5053 0.48873 0.0
O468 O 0.08812 0.50382 0.4571 0.0
C469 C 0.05493 0.47878 0.39542 0.0
C470 C 0.07987 0.51623 0.35328 0.0
O471 O 0.08396 0.50923 0.35142 0.0
O472 O 0.07285 0.51525 0.38381 0.0
C473 C 0.09116 0.48284 0.35344 0.0
O474 O 0.08092 0.47743 0.33342 0.0
C475 C 0.08399 0.50643 0.49044 0.0
Zn476 Zn 0.50129 0.56116 0.38539 0.0
Zn477 Zn 0.50564 0.58286 0.39243 0.0
O478 O 0.52175 0.58427 0.37514 0.0
O479 O 0.51816 0.56601 0.37764 0.0
O480 O 0.51021 0.59982 0.40232 0.0
O481 O 0.49399 0.55689 0.44504 0.0
O482 O 0.4981 0.57525 0.45225 0.0
C483 C 0.52532 0.57686 0.37196 0.0
C484 C 0.48892 0.56721 0.32142 0.0
O485 O 0.49335 0.57692 0.34236 0.0
O486 O 0.49138 0.55936 0.33222 0.0
C487 C 0.51593 0.60772 0.37372 0.0
O488 O 0.51841 0.60465 0.33584 0.0
C489 C 0.49379 0.56486 0.46774 0.0
Zn490 Zn 0.43722 0.93572 0.34166 0.0
Zn491 Zn 0.41555 0.9213 0.36189 0.0
O492 O 0.41579 0.93678 0.34313 0.0
O493 O 0.43472 0.94944 0.33699 0.0
O494 O 0.39869 0.9108 0.38051 0.0
O495 O 0.44324 0.9326 0.39735 0.0
O496 O 0.42478 0.9219 0.41819 0.0
C497 C 0.42418 0.94726 0.33617 0.0
C498 C 0.42655 0.91598 0.2837 0.0
O499 O 0.41807 0.91225 0.31108 0.0
O500 O 0.43547 0.92613 0.28803 0.0
C501 C 0.39025 0.90671 0.35307 0.0
O502 O 0.39259 0.90922 0.31116 0.0
C503 C 0.43575 0.92638 0.42621 0.0
H504 H 0.23477 0.18882 0.21999 0.0
H505 H 0.22265 0.19802 0.21142 0.0
H506 H 0.23615 0.21663 0.33368 0.0
H507 H 0.24851 0.20763 0.3422 0.0
H508 H 0.20532 0.19828 0.26336 0.0
H509 H 0.24417 0.24318 0.24607 0.0
H510 H 0.24535 0.23006 0.24386 0.0
H511 H 0.24387 0.2357 0.29589 0.0
C512 C 0.23512 0.1948 0.24529 0.0
C513 C 0.24273 0.1976 0.28156 0.0
C514 C 0.22817 0.20004 0.24032 0.0
C515 C 0.22868 0.20818 0.27144 0.0
C516 C 0.23583 0.21057 0.30876 0.0
H517 H 0.19733 0.25311 0.27465 0.0
H518 H 0.20725 0.24214 0.29411 0.0
C519 C 0.24283 0.20536 0.3137 0.0
C520 C 0.22201 0.21442 0.26388 0.0
H521 H 0.22546 0.2417 0.2462 0.0
C522 C 0.20971 0.20777 0.25967 0.0
C523 C 0.22778 0.22681 0.25891 0.0
C524 C 0.24102 0.23437 0.261 0.0
C525 C 0.203 0.21319 0.2509 0.0
C526 C 0.20879 0.22556 0.24565 0.0
C527 C 0.22106 0.23222 0.25035 0.0
C528 C 0.20232 0.23179 0.23442 0.0
C529 C 0.18978 0.20567 0.24779 0.0
C530 C 0.19633 0.22966 0.19422 0.0
C531 C 0.19067 0.23594 0.18289 0.0
C532 C 0.19094 0.2445 0.21152 0.0
C533 C 0.19693 0.24657 0.25184 0.0
C534 C 0.2026 0.24032 0.26306 0.0
H535 H 0.18653 0.19692 0.26342 0.0
H536 H 0.18539 0.21009 0.26362 0.0
H537 H 0.18717 0.20422 0.21265 0.0
H538 H 0.1962 0.22328 0.17128 0.0
H539 H 0.18618 0.23415 0.15155 0.0
H540 H 0.79705 0.04672 0.28598 0.0
H541 H 0.78697 0.02534 0.27692 0.0
H542 H 0.8193 0.02777 0.23176 0.0
H543 H 0.82946 0.04919 0.24027 0.0
H544 H 0.79994 0.01402 0.17754 0.0
H545 H 0.7896 0.00085 0.35242 0.0
H546 H 0.78489 0.01086 0.33414 0.0
H547 H 0.80035 0.01563 0.33593 0.0
C548 C 0.80206 0.04271 0.27456 0.0
C549 C 0.81407 0.04967 0.26393 0.0
C550 C 0.79629 0.03048 0.26956 0.0
C551 C 0.80242 0.02497 0.25412 0.0
C552 C 0.81442 0.03186 0.24387 0.0
H553 H 0.77415 0.94918 0.25814 0.0
H554 H 0.78678 0.97049 0.26548 0.0
C555 C 0.82022 0.0441 0.24889 0.0
C556 C 0.79618 0.01206 0.24694 0.0
H557 H 0.77992 0.98569 0.29908 0.0
C558 C 0.79562 0.00781 0.20413 0.0
C559 C 0.79068 0.00399 0.28177 0.0
C560 C 0.79148 0.00803 0.32874 0.0
C561 C 0.78945 0.99568 0.19502 0.0
C562 C 0.78356 0.98764 0.22958 0.0
C563 C 0.78437 0.99189 0.27256 0.0
C564 C 0.7764 0.97477 0.222 0.0
C565 C 0.78936 0.99159 0.14859 0.0
C566 C 0.76641 0.9701 0.19481 0.0
C567 C 0.75918 0.95791 0.19041 0.0
C568 C 0.76175 0.95016 0.21345 0.0
C569 C 0.7719 0.95488 0.23993 0.0
C570 C 0.77913 0.96706 0.24424 0.0
H571 H 0.79678 0.99843 0.12894 0.0
H572 H 0.7899 0.98341 0.14824 0.0
H573 H 0.78102 0.98971 0.13231 0.0
H574 H 0.76402 0.97588 0.17799 0.0
H575 H 0.7514 0.95457 0.16995 0.0
H576 H 0.95283 0.78223 0.2598 0.0
H577 H 0.97435 0.7933 0.25461 0.0
H578 H 0.97557 0.76182 0.28551 0.0
H579 H 0.95415 0.75077 0.29181 0.0
H580 H 0.99321 0.78134 0.32619 0.0
H581 H 0.99119 0.7898 0.1483 0.0
H582 H 0.98395 0.7952 0.18358 0.0
H583 H 0.97836 0.77961 0.17927 0.0
C584 C 0.95769 0.7777 0.26606 0.0
C585 C 0.95175 0.76558 0.27571 0.0
C586 C 0.96998 0.78402 0.26278 0.0
C587 C 0.97653 0.77832 0.26864 0.0
C588 C 0.97068 0.76638 0.28056 0.0
H589 H 0.04435 0.79556 0.16553 0.0
H590 H 0.02351 0.78755 0.18278 0.0
C591 C 0.95842 0.76007 0.28411 0.0
C592 C 0.98941 0.78454 0.26045 0.0
H593 H 0.01008 0.79801 0.18001 0.0
C594 C 0.99693 0.78505 0.29432 0.0
C595 C 0.9942 0.7892 0.2186 0.0
C596 C 0.98652 0.78836 0.18018 0.0
C597 C 0.00909 0.79001 0.28741 0.0
C598 C 0.01389 0.79482 0.24573 0.0
C599 C 0.00639 0.7944 0.212 0.0
C600 C 0.02659 0.79981 0.23565 0.0
C601 C 0.01662 0.78969 0.32432 0.0
C602 C 0.03524 0.80946 0.25931 0.0
C603 C 0.04718 0.81402 0.24972 0.0
C604 C 0.05067 0.80909 0.21591 0.0
C605 C 0.04197 0.79956 0.19178 0.0
C606 C 0.03005 0.79497 0.20157 0.0
H607 H 0.01124 0.78313 0.34989 0.0
H608 H 0.02327 0.78752 0.31175 0.0
H609 H 0.02135 0.79847 0.34022 0.0
H610 H 0.03276 0.81351 0.28505 0.0
H611 H 0.05366 0.82142 0.2687 0.0
H612 H 0.80819 0.75898 0.86525 0.0
H613 H 0.79884 0.77065 0.84771 0.0
H614 H 0.8093 0.77262 0.7122 0.0
H615 H 0.81861 0.76093 0.72921 0.0
H616 H 0.80864 0.79373 0.80706 0.0
H617 H 0.77297 0.75813 0.70792 0.0
H618 H 0.78204 0.75543 0.74543 0.0
H619 H 0.78771 0.76195 0.69266 0.0
C620 C 0.80856 0.76194 0.83175 0.0
C621 C 0.81406 0.75893 0.79856 0.0
C622 C 0.80323 0.76862 0.82183 0.0
C623 C 0.80324 0.77233 0.77856 0.0
C624 C 0.80904 0.76966 0.74566 0.0
H625 H 0.76938 0.80696 0.65074 0.0
H626 H 0.78113 0.7977 0.66783 0.0
C627 C 0.81439 0.76302 0.75552 0.0
C628 C 0.79697 0.77876 0.7676 0.0
H629 H 0.77373 0.7765 0.70893 0.0
C630 C 0.801 0.78998 0.78567 0.0
C631 C 0.78702 0.77383 0.73961 0.0
C632 C 0.78208 0.76163 0.72049 0.0
C633 C 0.79542 0.79649 0.77599 0.0
C634 C 0.78541 0.79152 0.74825 0.0
C635 C 0.78142 0.78031 0.73008 0.0
C636 C 0.77876 0.79766 0.73825 0.0
C637 C 0.80044 0.80872 0.79486 0.0
C638 C 0.77347 0.80064 0.77214 0.0
C639 C 0.76678 0.80597 0.76251 0.0
C640 C 0.76515 0.8083 0.71871 0.0
C641 C 0.77047 0.8053 0.68481 0.0
C642 C 0.77718 0.8 0.69451 0.0
H643 H 0.80982 0.81247 0.80445 0.0
H644 H 0.79977 0.81476 0.77097 0.0
H645 H 0.7954 0.80832 0.82476 0.0
H646 H 0.77432 0.79866 0.80604 0.0
H647 H 0.76275 0.8081 0.7894 0.0
H648 H 0.23202 0.05709 0.73258 0.0
H649 H 0.21936 0.03591 0.72083 0.0
H650 H 0.24148 0.02913 0.80676 0.0
H651 H 0.254 0.05024 0.81954 0.0
H652 H 0.2254 0.02112 0.68361 0.0
H653 H 0.20922 0.00576 0.85224 0.0
H654 H 0.21641 0.02112 0.83701 0.0
H655 H 0.22499 0.01426 0.85007 0.0
C656 C 0.23409 0.05108 0.74954 0.0
C657 C 0.24401 0.05536 0.77708 0.0
C658 C 0.22685 0.03898 0.74271 0.0
C659 C 0.22938 0.03092 0.76333 0.0
C660 C 0.23918 0.03516 0.79134 0.0
H661 H 0.21277 0.96167 0.68105 0.0
H662 H 0.22091 0.98281 0.6912 0.0
C663 C 0.24638 0.04725 0.79842 0.0
C664 C 0.22228 0.01815 0.75323 0.0
H665 H 0.20732 0.99099 0.80092 0.0
C666 C 0.22132 0.01454 0.70922 0.0
C667 C 0.21679 0.00956 0.78652 0.0
C668 C 0.21679 0.01287 0.83404 0.0
C669 C 0.21542 0.00256 0.69778 0.0
C670 C 0.21059 0.99396 0.73137 0.0
C671 C 0.21115 0.99758 0.7752 0.0
C672 C 0.20529 0.98119 0.72213 0.0
C673 C 0.21441 0.99925 0.64981 0.0
C674 C 0.19384 0.9732 0.73657 0.0
C675 C 0.1892 0.96108 0.73129 0.0
C676 C 0.19595 0.95671 0.71152 0.0
C677 C 0.2073 0.96474 0.69609 0.0
C678 C 0.21195 0.97685 0.70165 0.0
H679 H 0.21499 0.0064 0.62845 0.0
H680 H 0.22179 0.99779 0.64084 0.0
H681 H 0.20599 0.99105 0.64284 0.0
H682 H 0.18855 0.97635 0.7526 0.0
H683 H 0.18043 0.95514 0.74356 0.0
H684 H 0.04883 0.23025 0.75006 0.0
H685 H 0.02752 0.21858 0.75899 0.0
H686 H 0.02288 0.23875 0.65696 0.0
H687 H 0.04427 0.25065 0.64826 0.0
H688 H 0.01096 0.23761 0.73171 0.0
H689 H 0.0015 0.19285 0.68597 0.0
H690 H 0.01293 0.19956 0.72648 0.0
H691 H 0.01523 0.20592 0.67241 0.0
C692 C 0.04329 0.2321 0.72894 0.0
C693 C 0.04827 0.24143 0.69852 0.0
C694 C 0.03108 0.22535 0.73391 0.0
C695 C 0.02359 0.22769 0.7083 0.0
C696 C 0.02851 0.23675 0.67692 0.0
H697 H 0.94677 0.18512 0.72223 0.0
H698 H 0.96722 0.19517 0.69679 0.0
C699 C 0.04074 0.24353 0.67195 0.0
C700 C 0.01075 0.22142 0.71723 0.0
H701 H 0.98657 0.19403 0.72769 0.0
C702 C 0.00559 0.22809 0.73033 0.0
C703 C 0.00373 0.20901 0.715 0.0
C704 C 0.0086 0.20142 0.69876 0.0
C705 C 0.99371 0.22266 0.74274 0.0
C706 C 0.98686 0.21022 0.74286 0.0
C707 C 0.99188 0.20356 0.72819 0.0
C708 C 0.9745 0.20398 0.75861 0.0
C709 C 0.98859 0.23031 0.75554 0.0
C710 C 0.97185 0.20544 0.80205 0.0
C711 C 0.96018 0.19974 0.81669 0.0
C712 C 0.95094 0.19239 0.78822 0.0
C713 C 0.95366 0.19075 0.74497 0.0
C714 C 0.96534 0.19647 0.73036 0.0
H715 H 0.99385 0.23935 0.74194 0.0
H716 H 0.97936 0.22645 0.74392 0.0
H717 H 0.98863 0.23102 0.79189 0.0
H718 H 0.97881 0.211 0.82468 0.0
H719 H 0.95841 0.20114 0.85027 0.0
H720 H 0.84508 0.55992 0.57104 0.0
H721 H 0.85425 0.54883 0.59806 0.0
H722 H 0.88577 0.57154 0.52473 0.0
H723 H 0.87654 0.58244 0.49649 0.0
H724 H 0.88 0.54896 0.51673 0.0
H725 H 0.87888 0.55926 0.69284 0.0
H726 H 0.86461 0.55218 0.66758 0.0
H727 H 0.87567 0.56659 0.64942 0.0
C728 C 0.85396 0.56255 0.56066 0.0
C729 C 0.86011 0.57211 0.53181 0.0
C730 C 0.85922 0.55625 0.57637 0.0
C731 C 0.87079 0.55951 0.56418 0.0
C732 C 0.87685 0.56891 0.53477 0.0
H733 H 0.91705 0.5399 0.69537 0.0
H734 H 0.90676 0.54975 0.66706 0.0
C735 C 0.87156 0.57513 0.51867 0.0
C736 C 0.87657 0.55309 0.58165 0.0
H737 H 0.88456 0.54507 0.67669 0.0
C738 C 0.88102 0.54813 0.55171 0.0
C739 C 0.87805 0.55215 0.6273 0.0
C740 C 0.87416 0.55793 0.66115 0.0
C741 C 0.88685 0.54221 0.5661 0.0
C742 C 0.88797 0.54093 0.61177 0.0
C743 C 0.88358 0.54594 0.64171 0.0
C744 C 0.89403 0.53477 0.62924 0.0
C745 C 0.89203 0.5377 0.53218 0.0
C746 C 0.89018 0.52301 0.61799 0.0
C747 C 0.89613 0.51739 0.63376 0.0
C748 C 0.90592 0.52337 0.6617 0.0
C749 C 0.90954 0.53504 0.6739 0.0
C750 C 0.90367 0.54069 0.65775 0.0
H751 H 0.89337 0.54226 0.50013 0.0
H752 H 0.90062 0.53886 0.54332 0.0
H753 H 0.8859 0.52816 0.5267 0.0
H754 H 0.88256 0.51816 0.59703 0.0
H755 H 0.89304 0.50835 0.62411 0.0
H756 H 0.42324 0.29238 0.48488 0.0
H757 H 0.43459 0.31322 0.50487 0.0
H758 H 0.43836 0.30372 0.63712 0.0
H759 H 0.42716 0.28286 0.61735 0.0
H760 H 0.4289 0.32463 0.56878 0.0
H761 H 0.47218 0.32832 0.60404 0.0
H762 H 0.46062 0.31602 0.57451 0.0
H763 H 0.46001 0.31674 0.63338 0.0
C764 C 0.42657 0.29471 0.51813 0.0
C765 C 0.42431 0.28595 0.54949 0.0
C766 C 0.43304 0.30662 0.5295 0.0
C767 C 0.43743 0.31001 0.57232 0.0
C768 C 0.43525 0.3013 0.60366 0.0
H769 H 0.45954 0.37946 0.68287 0.0
H770 H 0.45009 0.35819 0.67082 0.0
C771 C 0.42879 0.28938 0.59233 0.0
C772 C 0.44382 0.32265 0.5846 0.0
H773 H 0.47017 0.34484 0.6224 0.0
C774 C 0.43792 0.32906 0.5805 0.0
C775 C 0.45562 0.3284 0.59955 0.0
C776 C 0.46254 0.32207 0.60281 0.0
C777 C 0.44349 0.34107 0.59109 0.0
C778 C 0.45521 0.34678 0.60692 0.0
C779 C 0.46114 0.34039 0.61078 0.0
C780 C 0.46161 0.35952 0.61746 0.0
C781 C 0.43688 0.34763 0.58419 0.0
C782 C 0.47153 0.36726 0.59274 0.0
C783 C 0.47699 0.37941 0.5997 0.0
C784 C 0.47265 0.38403 0.63165 0.0
C785 C 0.46306 0.3762 0.65781 0.0
C786 C 0.4576 0.36405 0.65082 0.0
H787 H 0.42907 0.34268 0.56261 0.0
H788 H 0.43375 0.34896 0.61641 0.0
H789 H 0.44268 0.35642 0.56939 0.0
H790 H 0.4748 0.36394 0.567 0.0
H791 H 0.4844 0.38518 0.57911 0.0
H792 H 0.70687 0.1267 0.47715 0.0
H793 H 0.68551 0.11651 0.48786 0.0
H794 H 0.68984 0.14098 0.59079 0.0
H795 H 0.71112 0.15132 0.57991 0.0
H796 H 0.67408 0.1055 0.56363 0.0
H797 H 0.66314 0.13989 0.51919 0.0
H798 H 0.67699 0.14094 0.50463 0.0
H799 H 0.67475 0.14483 0.55906 0.0
C800 C 0.70327 0.13004 0.50153 0.0
C801 C 0.71072 0.13982 0.5277 0.0
C802 C 0.69106 0.12419 0.50766 0.0
C803 C 0.68607 0.12806 0.5398 0.0
C804 C 0.69346 0.13799 0.56517 0.0
H805 H 0.62026 0.08683 0.67819 0.0
H806 H 0.64086 0.09839 0.65531 0.0
C807 C 0.70565 0.14385 0.55906 0.0
C808 C 0.67327 0.12117 0.54937 0.0
H809 H 0.64847 0.12335 0.55954 0.0
C810 C 0.66846 0.10937 0.56234 0.0
C811 C 0.66592 0.1262 0.5473 0.0
C812 C 0.67042 0.13862 0.53137 0.0
C813 C 0.65658 0.10256 0.57446 0.0
C814 C 0.64936 0.10775 0.57439 0.0
C815 C 0.65407 0.11944 0.56016 0.0
C816 C 0.63689 0.10115 0.58879 0.0
C817 C 0.65184 0.08983 0.58693 0.0
C818 C 0.62784 0.09921 0.55944 0.0
C819 C 0.61606 0.09268 0.57249 0.0
C820 C 0.61311 0.08801 0.61527 0.0
C821 C 0.62221 0.09023 0.64493 0.0
C822 C 0.634 0.09677 0.63184 0.0
H823 H 0.65747 0.08639 0.57399 0.0
H824 H 0.65163 0.08906 0.62329 0.0
H825 H 0.64273 0.0842 0.57439 0.0
H826 H 0.6299 0.10258 0.52615 0.0
H827 H 0.60927 0.09118 0.54885 0.0
H828 H 0.49117 0.10997 0.05398 0.0
H829 H 0.48093 0.12129 0.05501 0.0
H830 H 0.45412 0.09514 0.13903 0.0
H831 H 0.46428 0.08379 0.13836 0.0
H832 H 0.45728 0.11247 0.02561 0.0
H833 H 0.46304 0.1267 0.20001 0.0
H834 H 0.47217 0.12176 0.17378 0.0
H835 H 0.45763 0.11124 0.19252 0.0
C836 C 0.48319 0.10671 0.07321 0.0
C837 C 0.47854 0.09597 0.09609 0.0
C838 C 0.47734 0.11318 0.07366 0.0
C839 C 0.46684 0.1091 0.09742 0.0
C840 C 0.46232 0.09853 0.12108 0.0
H841 H 0.41176 0.1252 0.13509 0.0
H842 H 0.42522 0.11742 0.13442 0.0
C843 C 0.46812 0.09203 0.12048 0.0
C844 C 0.46015 0.11544 0.09524 0.0
H845 H 0.44863 0.12864 0.15884 0.0
C846 C 0.45549 0.11615 0.05458 0.0
C847 C 0.45784 0.12018 0.13314 0.0
C848 C 0.46301 0.12005 0.1773 0.0
C849 C 0.44815 0.12106 0.05111 0.0
C850 C 0.44562 0.12558 0.08923 0.0
C851 C 0.45055 0.12514 0.12969 0.0
C852 C 0.43745 0.13032 0.0884 0.0
C853 C 0.44277 0.12092 0.00708 0.0
C854 C 0.43987 0.14018 0.06274 0.0
C855 C 0.43213 0.14463 0.06281 0.0
C856 C 0.4219 0.13934 0.08892 0.0
C857 C 0.41954 0.12948 0.11459 0.0
C858 C 0.42724 0.12503 0.11434 0.0
H859 H 0.44334 0.11469 0.98377 0.0
H860 H 0.43338 0.11843 0.01073 0.0
H861 H 0.44757 0.12985 0.99241 0.0
H862 H 0.44782 0.14454 0.04312 0.0
H863 H 0.43424 0.15229 0.04294 0.0
H864 H 0.84462 0.28294 0.09925 0.0
H865 H 0.85294 0.30346 0.12212 0.0
H866 H 0.87913 0.31433 0.01987 0.0
H867 H 0.87077 0.29386 0.99629 0.0
H868 H 0.87534 0.31875 0.15201 0.0
H869 H 0.86585 0.33624 0.00116 0.0
H870 H 0.85909 0.32066 0.01222 0.0
H871 H 0.87382 0.32866 0.99059 0.0
C872 C 0.8521 0.2897 0.08136 0.0
C873 C 0.857 0.28676 0.04578 0.0
C874 C 0.85684 0.30142 0.09455 0.0
C875 C 0.86655 0.31044 0.07234 0.0
C876 C 0.87148 0.30754 0.03688 0.0
H877 H 0.91715 0.38044 0.15739 0.0
H878 H 0.90586 0.35931 0.14283 0.0
C879 C 0.86673 0.29582 0.02359 0.0
C880 C 0.87177 0.32282 0.08722 0.0
H881 H 0.87923 0.35043 0.05229 0.0
C882 C 0.87611 0.32567 0.13035 0.0
C883 C 0.8726 0.33181 0.05914 0.0
C884 C 0.86749 0.3292 0.01334 0.0
C885 C 0.8816 0.33733 0.14572 0.0
C886 C 0.88295 0.34639 0.11692 0.0
C887 C 0.87828 0.34349 0.07424 0.0
C888 C 0.88948 0.35899 0.12972 0.0
C889 C 0.88584 0.33981 0.1927 0.0
C890 C 0.88404 0.36587 0.127 0.0
C891 C 0.8905 0.37799 0.13498 0.0
C892 C 0.90254 0.38347 0.14559 0.0
C893 C 0.90788 0.3765 0.14953 0.0
C894 C 0.90142 0.36439 0.14144 0.0
H895 H 0.88106 0.33184 0.21363 0.0
H896 H 0.89534 0.34259 0.19368 0.0
H897 H 0.88471 0.34698 0.20697 0.0
H898 H 0.87485 0.36189 0.11786 0.0
H899 H 0.88612 0.3831 0.13162 0.0
H900 H 0.61574 0.53812 0.07166 0.0
H901 H 0.63643 0.54771 0.05007 0.0
H902 H 0.63791 0.51683 0.08883 0.0
H903 H 0.61708 0.50702 0.10949 0.0
H904 H 0.65528 0.55325 0.1008 0.0
H905 H 0.6527 0.52302 0.9681 0.0
H906 H 0.63979 0.52262 0.99081 0.0
H907 H 0.64676 0.51574 0.01952 0.0
C908 C 0.62043 0.53332 0.07537 0.0
C909 C 0.61475 0.52178 0.09221 0.0
C910 C 0.63226 0.53882 0.06295 0.0
C911 C 0.63868 0.53293 0.06715 0.0
C912 C 0.63306 0.52144 0.08422 0.0
H913 H 0.71322 0.55685 0.04957 0.0
H914 H 0.69184 0.54535 0.05933 0.0
C915 C 0.62118 0.51588 0.09635 0.0
C916 C 0.65139 0.5391 0.05569 0.0
H917 H 0.67195 0.53744 0.99163 0.0
C918 C 0.65889 0.54983 0.07671 0.0
C919 C 0.6561 0.53461 0.02426 0.0
C920 C 0.64841 0.52342 -0.00096 0.0
C921 C 0.671 0.55611 0.06759 0.0
C922 C 0.67571 0.55159 0.03645 0.0
C923 C 0.66826 0.54086 0.01547 0.0
C924 C 0.68842 0.5579 0.026 0.0
C925 C 0.67873 0.56747 0.09179 0.0
C926 C 0.69349 0.56858 0.00289 0.0
C927 C 0.70569 0.57516 0.99706 0.0
C928 C 0.71302 0.57118 0.01449 0.0
C929 C 0.70783 0.5602 0.03594 0.0
C930 C 0.69562 0.5536 0.0415 0.0
H931 H 0.67408 0.56876 0.11992 0.0
H932 H 0.68679 0.56766 0.10422 0.0
H933 H 0.68153 0.57499 0.06882 0.0
H934 H 0.68802 0.57198 0.99043 0.0
H935 H 0.70939 0.58356 0.98032 0.0
H936 H 0.51169 0.89256 0.90196 0.0
H937 H 0.52 0.87971 0.91324 0.0
H938 H 0.55071 0.90354 0.83829 0.0
H939 H 0.54242 0.91639 0.82627 0.0
H940 H 0.54224 0.8798 0.81835 0.0
H941 H 0.54725 0.88777 -0.00153 0.0
H942 H 0.53258 0.88245 0.97814 0.0
H943 H 0.54425 0.89669 0.96139 0.0
C944 C 0.52018 0.89504 0.88756 0.0
C945 C 0.52644 0.90557 0.8635 0.0
C946 C 0.52494 0.88771 0.89429 0.0
C947 C 0.53607 0.8908 0.87737 0.0
C948 C 0.54214 0.90105 0.85189 0.0
H949 H 0.58391 0.86665 0.95332 0.0
H950 H 0.57347 0.87751 0.94134 0.0
C951 C 0.53738 0.90838 0.84505 0.0
C952 C 0.54151 0.88348 0.88686 0.0
H953 H 0.55164 0.87354 0.97051 0.0
C954 C 0.54428 0.8784 0.8516 0.0
C955 C 0.5443 0.88182 0.93026 0.0
C956 C 0.54206 0.88754 0.96927 0.0
C957 C 0.54971 0.87163 0.85856 0.0
C958 C 0.55226 0.86975 0.90203 0.0
C959 C 0.54955 0.87489 0.93727 0.0
C960 C 0.55818 0.86287 0.91145 0.0
C961 C 0.55295 0.8668 0.81925 0.0
C962 C 0.5529 0.85094 0.89972 0.0
C963 C 0.55884 0.8447 0.90647 0.0
C964 C 0.57016 0.85027 0.92531 0.0
C965 C 0.57522 0.8621 0.9386 0.0
C966 C 0.56928 0.86833 0.93177 0.0
H967 H 0.55299 0.87135 0.78836 0.0
H968 H 0.56176 0.86769 0.82364 0.0
H969 H 0.54639 0.85731 0.8155 0.0
H970 H 0.54423 0.84649 0.88487 0.0
H971 H 0.55465 0.83559 0.89612 0.0
H972 H 0.11669 0.61708 0.95838 0.0
H973 H 0.12542 0.63823 0.97245 0.0
H974 H 0.10196 0.63998 0.87729 0.0
H975 H 0.09314 0.61891 0.86321 0.0
H976 H 0.1364 0.65767 0.91312 0.0
H977 H 0.09636 0.65412 0.9896 0.0
H978 H 0.09835 0.64156 0.98201 0.0
H979 H 0.0937 0.64711 0.93681 0.0
C980 C 0.11341 0.62197 0.94034 0.0
C981 C 0.10416 0.61628 0.90989 0.0
C982 C 0.11841 0.63405 0.94846 0.0
C983 C 0.11417 0.6406 0.92652 0.0
C984 C 0.10518 0.63502 0.89525 0.0
H985 H 0.12687 0.71005 0.89259 0.0
H986 H 0.12017 0.68905 0.89499 0.0
C987 C 0.1002 0.62298 0.88707 0.0
C988 C 0.11914 0.6533 0.93589 0.0
H989 H 0.11132 0.6734 0.968 0.0
C990 C 0.13099 0.66113 0.92572 0.0
C991 C 0.11205 0.65774 0.95262 0.0
C992 C 0.09944 0.64969 0.96632 0.0
C993 C 0.13578 0.67337 0.92959 0.0
C994 C 0.12855 0.67782 0.9446 0.0
C995 C 0.11683 0.66996 0.95638 0.0
C996 C 0.13264 0.69059 0.94479 0.0
C997 C 0.14837 0.68147 0.91564 0.0
C998 C 0.14177 0.69841 0.97256 0.0
C999 C 0.14565 0.71049 0.97133 0.0
C1000 C 0.14042 0.71491 0.9423 0.0
C1001 C 0.13112 0.70698 0.91522 0.0
C1002 C 0.12726 0.69495 0.91656 0.0
H1003 H 0.15212 0.67669 0.89791 0.0
H1004 H 0.14897 0.68858 0.89405 0.0
H1005 H 0.15385 0.68566 0.94518 0.0
H1006 H 0.14591 0.69518 0.99507 0.0
H1007 H 0.1528 0.71637 0.99268 0.0
H1008 H 0.28028 0.44215 0.89866 0.0
H1009 H 0.30162 0.4551 0.89413 0.0
H1010 H 0.30666 0.43243 0.9833 0.0
H1011 H 0.28532 0.41954 0.98876 0.0
H1012 H 0.32174 0.45614 6e-05 0.0
H1013 H 0.32221 0.44592 0.82306 0.0
H1014 H 0.31283 0.45182 0.8364 0.0
H1015 H 0.30946 0.43767 0.85753 0.0
C1016 C 0.28591 0.43997 0.91769 0.0
C1017 C 0.2811 0.42973 0.94372 0.0
C1018 C 0.29812 0.44735 0.91484 0.0
C1019 C 0.30572 0.44458 0.93759 0.0
C1020 C 0.30094 0.43468 0.96523 0.0
H1021 H 0.37773 0.46446 0.8861 0.0
H1022 H 0.35635 0.45499 0.89283 0.0
C1023 C 0.28873 0.42733 0.96831 0.0
C1024 C 0.31866 0.45169 0.93139 0.0
H1025 H 0.34035 0.45997 0.85437 0.0
C1026 C 0.32582 0.45703 0.96821 0.0
C1027 C 0.32395 0.45269 0.88985 0.0
C1028 C 0.31675 0.44664 0.84948 0.0
C1029 C 0.33816 0.46332 0.96466 0.0
C1030 C 0.34344 0.46447 0.923 0.0
C1031 C 0.33627 0.45917 0.88617 0.0
C1032 C 0.35641 0.47052 0.91732 0.0
C1033 C 0.34543 0.46834 0.00578 0.0
C1034 C 0.36354 0.48248 0.92788 0.0
C1035 C 0.3758 0.48793 0.92422 0.0
C1036 C 0.38113 0.48153 0.90958 0.0
C1037 C 0.37392 0.46965 0.89759 0.0
C1038 C 0.36169 0.46422 0.90141 0.0
H1039 H 0.34017 0.46435 0.03602 0.0
H1040 H 0.35311 0.46693 0.00589 0.0
H1041 H 0.34879 0.47797 0.00702 0.0
H1042 H 0.35962 0.48758 0.93928 0.0
H1043 H 0.38109 0.49711 0.93345 0.0
H1044 H 0.11323 0.49224 0.3889 0.0
H1045 H 0.12576 0.48335 0.39139 0.0
H1046 H 0.09997 0.45373 0.31626 0.0
H1047 H 0.08749 0.46265 0.31283 0.0
H1048 H 0.12006 0.46262 0.43 0.0
H1049 H 0.13019 0.46099 0.25432 0.0
H1050 H 0.12418 0.46988 0.27409 0.0
H1051 H 0.11468 0.45437 0.2645 0.0
C1052 C 0.11031 0.48393 0.37222 0.0
C1053 C 0.09935 0.47815 0.35069 0.0
C1054 C 0.11748 0.47886 0.37374 0.0
C1055 C 0.11386 0.46793 0.35366 0.0
C1056 C 0.10307 0.46229 0.33117 0.0
H1057 H 0.13195 0.41533 0.4227 0.0
H1058 H 0.12326 0.42791 0.41446 0.0
C1059 C 0.09591 0.46738 0.32945 0.0
C1060 C 0.12089 0.46199 0.35937 0.0
H1061 H 0.13371 0.44875 0.30334 0.0
C1062 C 0.12315 0.4597 0.40229 0.0
C1063 C 0.12505 0.45831 0.32324 0.0
C1064 C 0.12351 0.46111 0.27646 0.0
C1065 C 0.12912 0.45349 0.41006 0.0
C1066 C 0.13272 0.44925 0.37393 0.0
C1067 C 0.13082 0.45189 0.33101 0.0
C1068 C 0.13819 0.4418 0.37995 0.0
C1069 C 0.13155 0.45156 0.45692 0.0
C1070 C 0.14939 0.44533 0.36258 0.0
C1071 C 0.15436 0.43811 0.36697 0.0
C1072 C 0.14819 0.42719 0.38862 0.0
C1073 C 0.13699 0.42372 0.40612 0.0
C1074 C 0.13202 0.43093 0.40163 0.0
H1075 H 0.13147 0.45819 0.47948 0.0
H1076 H 0.12459 0.44272 0.46795 0.0
H1077 H 0.1402 0.45198 0.4598 0.0
H1078 H 0.15427 0.45367 0.34554 0.0
H1079 H 0.16299 0.44104 0.35299 0.0
H1080 H 0.51403 0.61716 0.45151 0.0
H1081 H 0.52296 0.63802 0.47067 0.0
H1082 H 0.53746 0.64762 0.34006 0.0
H1083 H 0.52852 0.62681 0.32045 0.0
H1084 H 0.54722 0.65444 0.46852 0.0
H1085 H 0.52236 0.66821 0.35959 0.0
H1086 H 0.51729 0.65296 0.37244 0.0
H1087 H 0.52853 0.66048 0.3316 0.0
C1088 C 0.51899 0.6237 0.42664 0.0
C1089 C 0.52055 0.62031 0.3844 0.0
C1090 C 0.5241 0.63562 0.43771 0.0
C1091 C 0.53075 0.64436 0.40666 0.0
C1092 C 0.53217 0.64102 0.36427 0.0
H1093 H 0.57708 0.71865 0.39252 0.0
H1094 H 0.56412 0.69759 0.38116 0.0
C1095 C 0.5271 0.62911 0.3532 0.0
C1096 C 0.53689 0.65697 0.41932 0.0
H1097 H 0.53995 0.6836 0.39186 0.0
C1098 C 0.54554 0.66082 0.45221 0.0
C1099 C 0.53467 0.66523 0.39794 0.0
C1100 C 0.52513 0.66152 0.3637 0.0
C1101 C 0.55241 0.6728 0.46299 0.0
C1102 C 0.55038 0.68112 0.44083 0.0
C1103 C 0.5415 0.67722 0.40878 0.0
C1104 C 0.55789 0.69397 0.44832 0.0
C1105 C 0.5621 0.67651 0.49657 0.0
C1106 C 0.55856 0.69898 0.4898 0.0
C1107 C 0.56604 0.71108 0.49654 0.0
C1108 C 0.5729 0.71836 0.4618 0.0
C1109 C 0.57196 0.71332 0.42009 0.0
C1110 C 0.56453 0.70126 0.41346 0.0
H1111 H 0.56418 0.66941 0.50327 0.0
H1112 H 0.57027 0.68447 0.48539 0.0
H1113 H 0.55929 0.67867 0.52792 0.0
H1114 H 0.55333 0.69354 0.51696 0.0
H1115 H 0.56649 0.71469 0.52897 0.0
H1116 H 0.38237 0.90109 0.4378 0.0
H1117 H 0.36195 0.88991 0.46318 0.0
H1118 H 0.3498 0.88514 0.32901 0.0
H1119 H 0.37018 0.89624 0.30321 0.0
H1120 H 0.34418 0.89568 0.44755 0.0
H1121 H 0.33184 0.85159 0.38067 0.0
H1122 H 0.34697 0.86319 0.38664 0.0
H1123 H 0.33829 0.86334 0.3412 0.0
C1124 C 0.37537 0.89758 0.41361 0.0
C1125 C 0.37791 0.89955 0.36843 0.0
C1126 C 0.36371 0.8912 0.42821 0.0
C1127 C 0.35439 0.88658 0.39796 0.0
C1128 C 0.35688 0.88845 0.35286 0.0
H1129 H 0.27871 0.85152 0.4067 0.0
H1130 H 0.2995 0.86039 0.3872 0.0
C1131 C 0.36854 0.89486 0.3382 0.0
C1132 C 0.34203 0.88032 0.41366 0.0
H1133 H 0.31623 0.8541 0.40807 0.0
C1134 C 0.33808 0.88656 0.4393 0.0
C1135 C 0.33412 0.86843 0.40269 0.0
C1136 C 0.33801 0.86119 0.37661 0.0
C1137 C 0.32632 0.88134 0.45319 0.0
C1138 C 0.31836 0.86947 0.4419 0.0
C1139 C 0.32235 0.86318 0.41673 0.0
C1140 C 0.30574 0.86358 0.4544 0.0
C1141 C 0.32242 0.88871 0.47849 0.0
C1142 C 0.30232 0.8622 0.49874 0.0
C1143 C 0.29042 0.85717 0.51006 0.0
C1144 C 0.28172 0.85334 0.4772 0.0
C1145 C 0.28517 0.8544 0.43286 0.0
C1146 C 0.29706 0.85946 0.42161 0.0
H1147 H 0.32878 0.89828 0.47511 0.0
H1148 H 0.31364 0.88696 0.46717 0.0
H1149 H 0.32175 0.88643 0.5139 0.0
H1150 H 0.30886 0.86509 0.52459 0.0
H1151 H 0.28806 0.8564 0.54451 0.0
H1152 H 0.10359 0.26902 0.90943 0.0
H1153 H 0.10775 0.25899 0.96806 0.0
H1154 H 0.0888 0.2261 0.89793 0.0
H1155 H 0.08457 0.23617 0.83863 0.0
H1156 H 0.09479 0.23808 0.02328 0.0
H1157 H 0.12399 0.23436 0.89846 0.0
H1158 H 0.11767 0.24359 0.88809 0.0
H1159 H 0.10844 0.22787 0.88805 0.0
C1160 C 0.09998 0.25959 0.90708 0.0
C1161 C 0.09391 0.25341 0.86925 0.0
C1162 C 0.10233 0.25384 0.94068 0.0
C1163 C 0.09874 0.24184 0.93697 0.0
C1164 C 0.09172 0.23538 0.90117 0.0
H1165 H 0.14375 0.23927 0.14732 0.0
H1166 H 0.1271 0.2281 0.09645 0.0
C1167 C 0.08926 0.24114 0.86751 0.0
C1168 C 0.10415 0.23702 0.96703 0.0
H1169 H 0.12964 0.23604 0.97221 0.0
C1170 C 0.10208 0.23704 0.01227 0.0
C1171 C 0.11363 0.23561 0.95245 0.0
C1172 C 0.11615 0.23534 0.90416 0.0
C1173 C 0.11013 0.23725 0.04317 0.0
C1174 C 0.12046 0.2375 0.02819 0.0
C1175 C 0.12169 0.23586 0.9834 0.0
C1176 C 0.13125 0.24314 0.05529 0.0
C1177 C 0.10835 0.23873 0.09122 0.0
C1178 C 0.13917 0.25512 0.04801 0.0
C1179 C 0.14845 0.26145 0.07688 0.0
C1180 C 0.1501 0.25589 0.11334 0.0
C1181 C 0.14267 0.2437 0.11917 0.0
C1182 C 0.13317 0.23734 0.09039 0.0
H1183 H 0.09939 0.23728 0.09797 0.0
H1184 H 0.10973 0.23245 0.11123 0.0
H1185 H 0.11493 0.24778 0.1019 0.0
H1186 H 0.1378 0.25973 0.02114 0.0
H1187 H 0.15409 0.27082 0.07161 0.0
H1188 H 0.74295 0.87198 0.20191 0.0
H1189 H 0.74609 0.86202 0.14002 0.0
H1190 H 0.75573 0.89241 0.05828 0.0
H1191 H 0.75297 0.90258 0.12059 0.0
H1192 H 0.73277 0.8562 0.06969 0.0
H1193 H 0.77914 0.88318 0.0169 0.0
H1194 H 0.77405 0.88506 0.06984 0.0
H1195 H 0.77213 0.89189 0.02157 0.0
C1196 C 0.74602 0.87666 0.17103 0.0
C1197 C 0.74762 0.88802 0.16593 0.0
C1198 C 0.74784 0.87096 0.13573 0.0
C1199 C 0.75122 0.87648 0.09454 0.0
C1200 C 0.7534 0.88807 0.08996 0.0
H1201 H 0.72867 0.84863 0.842 0.0
H1202 H 0.73279 0.85734 0.91506 0.0
C1203 C 0.75174 0.89385 0.12553 0.0
C1204 C 0.75068 0.86952 0.05529 0.0
H1205 H 0.76542 0.87016 0.96177 0.0
C1206 C 0.74002 0.85915 0.04661 0.0
C1207 C 0.76015 0.87327 0.02529 0.0
C1208 C 0.77205 0.8839 0.03411 0.0
C1209 C 0.73833 0.8528 0.0077 0.0
C1210 C 0.74748 0.85704 0.97628 0.0
C1211 C 0.75838 0.86701 0.98585 0.0
C1212 C 0.74538 0.85187 0.93178 0.0
C1213 C 0.72665 0.84177 -4e-05 0.0
C1214 C 0.75127 0.84608 0.91677 0.0
C1215 C 0.74892 0.84103 0.87474 0.0
C1216 C 0.74072 0.84183 0.84714 0.0
C1217 C 0.73499 0.84779 0.86237 0.0
C1218 C 0.73731 0.85276 0.90418 0.0
H1219 H 0.72196 0.83792 0.03135 0.0
H1220 H 0.72098 0.84398 0.97962 0.0
H1221 H 0.72782 0.83504 0.98214 0.0
H1222 H 0.75757 0.84537 0.93769 0.0
H1223 H 0.75353 0.83656 0.86385 0.0
H1224 H 0.09616 0.86301 0.15274 0.0
H1225 H 0.10231 0.87941 0.10034 0.0
H1226 H 0.11669 0.86342 0.01512 0.0
H1227 H 0.11093 0.84738 0.06754 0.0
H1228 H 0.12745 0.89346 0.07885 0.0
H1229 H 0.10017 0.8756 0.92974 0.0
H1230 H 0.09503 0.86943 0.9839 0.0
H1231 H 0.10419 0.86547 0.95256 0.0
C1232 C 0.10029 0.86286 0.12206 0.0
C1233 C 0.10309 0.854 0.11385 0.0
C1234 C 0.1038 0.87221 0.09233 0.0
C1235 C 0.10981 0.87253 0.05367 0.0
C1236 C 0.11186 0.86322 0.04433 0.0
H1237 H 0.16596 0.90107 0.91397 0.0
H1238 H 0.15188 0.89719 0.97284 0.0
C1239 C 0.10862 0.8541 0.07432 0.0
C1240 C 0.1158 0.88324 0.02622 0.0
H1241 H 0.12098 0.8902 0.91766 0.0
C1242 C 0.1258 0.89303 0.04376 0.0
C1243 C 0.11354 0.88278 0.98067 0.0
C1244 C 0.10256 0.87279 0.96066 0.0
C1245 C 0.13444 0.90151 0.01608 0.0
C1246 C 0.13297 0.90007 0.97007 0.0
C1247 C 0.12219 0.89123 0.95299 0.0
C1248 C 0.1432 0.90542 0.93993 0.0
C1249 C 0.14551 0.91136 0.03611 0.0
C1250 C 0.14322 0.91164 0.90233 0.0
C1251 C 0.15142 0.91401 0.86872 0.0
C1252 C 0.15944 0.90988 0.87193 0.0
C1253 C 0.15988 0.90437 0.9108 0.0
C1254 C 0.15188 0.90222 0.94459 0.0
H1255 H 0.14364 0.91394 0.06862 0.0
H1256 H 0.15193 0.90831 0.04135 0.0
H1257 H 0.1496 0.91921 0.01431 0.0
H1258 H 0.13648 0.91404 0.8979 0.0
H1259 H 0.15082 0.91817 0.8388 0.0
H1260 H 0.24492 0.09402 0.63069 0.0
H1261 H 0.23804 0.09811 0.56133 0.0
H1262 H 0.27374 0.11639 0.513 0.0
H1263 H 0.28068 0.11262 0.58234 0.0
H1264 H 0.24904 0.12371 0.53776 0.0
H1265 H 0.25238 0.09646 0.40548 0.0
H1266 H 0.24986 0.0919 0.46249 0.0
H1267 H 0.26442 0.10239 0.44391 0.0
C1268 C 0.25123 0.09853 0.6046 0.0
C1269 C 0.26334 0.10305 0.61177 0.0
C1270 C 0.24729 0.10089 0.56516 0.0
C1271 C 0.25539 0.10748 0.5321 0.0
C1272 C 0.26735 0.11115 0.53794 0.0
H1273 H 0.2776 0.15267 0.32447 0.0
H1274 H 0.27169 0.13738 0.37964 0.0
C1275 C 0.27131 0.10903 0.57756 0.0
C1276 C 0.25195 0.11236 0.49492 0.0
H1277 H 0.25405 0.11486 0.38342 0.0
C1278 C 0.24976 0.12159 0.50383 0.0
C1279 C 0.25293 0.10953 0.451 0.0
C1280 C 0.25492 0.09946 0.43996 0.0
C1281 C 0.24972 0.12887 0.47005 0.0
C1282 C 0.25158 0.12658 0.42616 0.0
C1283 C 0.25268 0.11665 0.41707 0.0
C1284 C 0.25447 0.13537 0.39068 0.0
C1285 C 0.24874 0.13951 0.48217 0.0
C1286 C 0.24671 0.13934 0.37816 0.0
C1287 C 0.25018 0.14833 0.34684 0.0
C1288 C 0.26137 0.15331 0.32709 0.0
C1289 C 0.26892 0.14905 0.33893 0.0
C1290 C 0.26553 0.14023 0.3704 0.0
H1291 H 0.24932 0.14105 0.51824 0.0
H1292 H 0.2558 0.14755 0.46601 0.0
H1293 H 0.24012 0.1382 0.47082 0.0
H1294 H 0.23804 0.13555 0.39275 0.0
H1295 H 0.24412 0.15134 0.33803 0.0
H1296 H 0.83905 0.09011 0.40039 0.0
H1297 H 0.84998 0.09729 0.46961 0.0
H1298 H 0.87129 0.13167 0.41223 0.0
H1299 H 0.86046 0.12466 0.34321 0.0
H1300 H 0.88103 0.11708 0.48184 0.0
H1301 H 0.84618 0.12775 0.52754 0.0
H1302 H 0.8426 0.11466 0.49637 0.0
H1303 H 0.85084 0.12884 0.47108 0.0
C1304 C 0.84625 0.09911 0.40217 0.0
C1305 C 0.84879 0.10686 0.36655 0.0
C1306 C 0.85249 0.10318 0.44163 0.0
C1307 C 0.8614 0.11498 0.4457 0.0
C1308 C 0.86447 0.12251 0.40942 0.0
H1309 H 0.90561 0.16074 0.65497 0.0
H1310 H 0.89837 0.15 0.58548 0.0
C1311 C 0.85821 0.1185 0.37016 0.0
C1312 C 0.86634 0.11995 0.48915 0.0
H1313 H 0.86194 0.13359 0.57634 0.0
C1314 C 0.87687 0.12063 0.50284 0.0
C1315 C 0.86082 0.12454 0.51606 0.0
C1316 C 0.84947 0.12396 0.50236 0.0
C1317 C 0.88207 0.12585 0.54325 0.0
C1318 C 0.87667 0.13069 0.5698 0.0
C1319 C 0.86607 0.12988 0.55597 0.0
C1320 C 0.88168 0.13661 0.6123 0.0
C1321 C 0.89316 0.12599 0.55738 0.0
C1322 C 0.87467 0.13274 0.65021 0.0
C1323 C 0.87866 0.13897 0.68946 0.0
C1324 C 0.88981 0.14919 0.69177 0.0
C1325 C 0.897 0.15288 0.65417 0.0
C1326 C 0.89292 0.14669 0.61458 0.0
H1327 H 0.89424 0.11912 0.54006 0.0
H1328 H 0.90089 0.13468 0.54928 0.0
H1329 H 0.89318 0.12458 0.59337 0.0
H1330 H 0.86597 0.125 0.64919 0.0
H1331 H 0.87295 0.13582 0.71796 0.0
H1332 H 0.83556 0.7108 0.64583 0.0
H1333 H 0.84572 0.71501 0.57525 0.0
H1334 H 0.85293 0.75087 0.58167 0.0
H1335 H 0.84258 0.74669 0.65229 0.0
H1336 H 0.84736 0.74079 0.49545 0.0
H1337 H 0.88202 0.73507 0.57651 0.0
H1338 H 0.86753 0.72258 0.58338 0.0
H1339 H 0.87101 0.73653 0.60704 0.0
C1340 C 0.8391 0.71952 0.6319 0.0
C1341 C 0.83841 0.72846 0.65495 0.0
C1342 C 0.84495 0.72193 0.59167 0.0
C1343 C 0.85034 0.73332 0.57396 0.0
C1344 C 0.84892 0.74204 0.59511 0.0
H1345 H 0.90509 0.74936 0.37715 0.0
H1346 H 0.89489 0.7519 0.44008 0.0
C1347 C 0.84298 0.73963 0.63536 0.0
C1348 C 0.85809 0.73621 0.53507 0.0
H1349 H 0.88216 0.73529 0.49803 0.0
C1350 C 0.85505 0.73973 0.49601 0.0
C1351 C 0.86831 0.73516 0.5363 0.0
C1352 C 0.8725 0.73225 0.57818 0.0
C1353 C 0.8616 0.74154 0.45733 0.0
C1354 C 0.87128 0.73956 0.45777 0.0
C1355 C 0.87468 0.7367 0.49753 0.0
C1356 C 0.87739 0.73935 0.41704 0.0
C1357 C 0.85804 0.74546 0.4164 0.0
C1358 C 0.87095 0.73152 0.38309 0.0
C1359 C 0.87672 0.73009 0.34715 0.0
C1360 C 0.8891 0.73633 0.34463 0.0
C1361 C 0.89555 0.74441 0.37811 0.0
C1362 C 0.88974 0.74588 0.41404 0.0
H1363 H 0.85368 0.75062 0.42475 0.0
H1364 H 0.86574 0.75091 0.39498 0.0
H1365 H 0.85162 0.73759 0.39759 0.0
H1366 H 0.86146 0.72612 0.3852 0.0
H1367 H 0.87146 0.72377 0.3221 0.0
H1368 H 0.86721 0.73479 0.85603 0.0
H1369 H 0.88317 0.74456 0.90797 0.0
H1370 H 0.87435 0.77188 0.92687 0.0
H1371 H 0.85779 0.76175 0.87525 0.0
H1372 H 0.90284 0.76596 0.91511 0.0
H1373 H 0.8713 0.7595 0.05029 0.0
H1374 H 0.8661 0.75286 0.99712 0.0
H1375 H 0.87223 0.76845 0.00405 0.0
C1376 C 0.86862 0.74291 0.87085 0.0
C1377 C 0.86105 0.74736 0.86206 0.0
C1378 C 0.87787 0.74857 0.9004 0.0
C1379 C 0.87989 0.75888 0.92186 0.0
C1380 C 0.87281 0.7638 0.91135 0.0
H1381 H 0.91615 0.76221 0.16695 0.0
H1382 H 0.91347 0.77284 0.10548 0.0
C1383 C 0.86339 0.75803 0.88175 0.0
C1384 C 0.88866 0.7634 0.95804 0.0
H1385 H 0.88932 0.76144 0.06971 0.0
C1386 C 0.90004 0.76539 0.94902 0.0
C1387 C 0.88509 0.76284 0.00236 0.0
C1388 C 0.87302 0.76077 0.01437 0.0
C1389 C 0.90727 0.76523 0.9827 0.0
C1390 C 0.90305 0.7632 0.0263 0.0
C1391 C 0.89245 0.76291 0.03602 0.0
C1392 C 0.9077 0.75838 0.05962 0.0
C1393 C 0.91888 0.76617 0.97109 0.0
C1394 C 0.90559 0.74686 0.05373 0.0
C1395 C 0.90683 0.74073 0.0888 0.0
C1396 C 0.91041 0.74609 0.13015 0.0
C1397 C 0.91351 0.75796 0.13514 0.0
C1398 C 0.91197 0.76402 0.10018 0.0
H1399 H 0.92255 0.77129 0.94033 0.0
H1400 H 0.92538 0.7704 -0.00193 0.0
H1401 H 0.91752 0.7572 0.96576 0.0
H1402 H 0.90208 0.74228 0.02292 0.0
H1403 H 0.90434 0.73157 0.08429 0.0
H1404 H 0.24301 0.10039 0.85012 0.0
H1405 H 0.23595 0.10888 0.90604 0.0
H1406 H 0.2612 0.14379 0.86114 0.0
H1407 H 0.26798 0.13547 0.80499 0.0
H1408 H 0.24878 0.12164 0.97128 0.0
H1409 H 0.23423 0.14878 0.88404 0.0
H1410 H 0.23603 0.13762 0.85613 0.0
H1411 H 0.24838 0.15232 0.86309 0.0
C1412 C 0.24683 0.10986 0.85153 0.0
C1413 C 0.25612 0.11725 0.82331 0.0
C1414 C 0.24277 0.1147 0.8834 0.0
C1415 C 0.24788 0.12698 0.88736 0.0
C1416 C 0.25682 0.1343 0.85798 0.0
H1417 H 0.27888 0.17463 0.07963 0.0
H1418 H 0.2705 0.16245 0.01426 0.0
C1419 C 0.26082 0.1295 0.82617 0.0
C1420 C 0.24548 0.13235 0.9261 0.0
H1421 H 0.24428 0.15687 0.95567 0.0
C1422 C 0.24732 0.12906 0.96796 0.0
C1423 C 0.24346 0.14197 0.92212 0.0
C1424 C 0.24028 0.14526 0.87884 0.0
C1425 C 0.24849 0.13589 0.00506 0.0
C1426 C 0.2479 0.14629 1e-05 0.0
C1427 C 0.2449 0.14897 0.95917 0.0
C1428 C 0.25241 0.15528 0.03496 0.0
C1429 C 0.25132 0.13251 0.04889 0.0
C1430 C 0.24493 0.1556 0.06717 0.0
C1431 C 0.24971 0.16266 0.10459 0.0
C1432 C 0.262 0.16931 0.11023 0.0
C1433 C 0.26938 0.16955 0.07629 0.0
C1434 C 0.26462 0.16262 0.03893 0.0
H1435 H 0.2495 0.12327 0.04904 0.0
H1436 H 0.2608 0.13842 0.05636 0.0
H1437 H 0.24613 0.13359 0.07546 0.0
H1438 H 0.23547 0.14992 0.06455 0.0
H1439 H 0.24381 0.16226 0.13037 0.0
H1440 H 0.83702 0.10808 0.10475 0.0
H1441 H 0.85161 0.1115 0.04839 0.0
H1442 H 0.86117 0.08873 0.11721 0.0
H1443 H 0.84633 0.0851 0.17369 0.0
H1444 H 0.87986 0.1123 0.1046 0.0
H1445 H 0.85685 0.0934 0.94814 0.0
H1446 H 0.85025 0.10056 0.97717 0.0
H1447 H 0.85002 0.08787 0.00111 0.0
C1448 C 0.84192 0.10346 0.10703 0.0
C1449 C 0.84057 0.09635 0.14353 0.0
C1450 C 0.85022 0.10537 0.07471 0.0
C1451 C 0.85742 0.1003 0.07847 0.0
C1452 C 0.85561 0.09261 0.11351 0.0
H1453 H 0.90598 0.13798 0.8675 0.0
H1454 H 0.89865 0.1216 0.92017 0.0
C1455 C 0.84711 0.09052 0.14559 0.0
C1456 C 0.86792 0.10476 0.04988 0.0
H1457 H 0.87542 0.11217 0.94274 0.0
C1458 C 0.87901 0.11194 0.06908 0.0
C1459 C 0.86689 0.10412 0.00364 0.0
C1460 C 0.85536 0.09596 0.98132 0.0
C1461 C 0.88873 0.11966 0.04334 0.0
C1462 C 0.88722 0.12021 -0.00242 0.0
C1463 C 0.87657 0.11188 0.97795 0.0
C1464 C 0.89514 0.13083 0.9716 0.0
C1465 C 0.90025 0.12779 0.06572 0.0
C1466 C 0.89608 0.1416 0.98378 0.0
C1467 C 0.9001 0.15084 0.95373 0.0
C1468 C 0.9034 0.14952 0.91124 0.0
C1469 C 0.90368 0.13925 0.90047 0.0
C1470 C 0.89944 0.12988 0.9304 0.0
H1471 H 0.90156 0.12344 0.0948 0.0
H1472 H 0.90782 0.13062 0.04295 0.0
H1473 H 0.90011 0.13573 0.07755 0.0
H1474 H 0.89257 0.14249 0.01489 0.0
H1475 H 0.89965 0.15862 0.9624 0.0
H1476 H 0.73479 0.89486 0.42193 0.0
H1477 H 0.74504 0.89136 0.48163 0.0
H1478 H 0.77785 0.91037 0.41103 0.0
H1479 H 0.76759 0.91404 0.351 0.0
H1480 H 0.77121 0.88708 0.42862 0.0
H1481 H 0.76845 0.90826 0.58102 0.0
H1482 H 0.75465 0.90166 0.55243 0.0
H1483 H 0.76754 0.91356 0.52708 0.0
C1484 C 0.74427 0.8987 0.41989 0.0
C1485 C 0.75038 0.90466 0.38181 0.0
C1486 C 0.75015 0.89676 0.45418 0.0
C1487 C 0.76224 0.90068 0.45095 0.0
C1488 C 0.76855 0.90739 0.41435 0.0
H1489 H 0.76961 0.86059 0.66536 0.0
H1490 H 0.77896 0.87722 0.61351 0.0
C1491 C 0.76268 0.90951 0.38019 0.0
C1492 C 0.7674 0.89567 0.48138 0.0
H1493 H 0.76609 0.88846 0.5896 0.0
C1494 C 0.77056 0.88771 0.46397 0.0
C1495 C 0.7668 0.89662 0.52745 0.0
C1496 C 0.7643 0.9056 0.54804 0.0
C1497 C 0.77154 0.8796 0.49115 0.0
C1498 C 0.76924 0.87945 0.53657 0.0
C1499 C 0.76769 0.88845 0.55461 0.0
C1500 C 0.76558 0.86876 0.56342 0.0
C1501 C 0.77406 0.87062 0.4706 0.0
C1502 C 0.75515 0.85846 0.55193 0.0
C1503 C 0.74976 0.84914 0.58153 0.0
C1504 C 0.75481 0.84988 0.62283 0.0
C1505 C 0.76571 0.85978 0.63323 0.0
C1506 C 0.77101 0.86927 0.60381 0.0
H1507 H 0.7797 0.87429 0.44097 0.0
H1508 H 0.77846 0.86762 0.49424 0.0
H1509 H 0.76564 0.86287 0.46008 0.0
H1510 H 0.75065 0.85797 0.52143 0.0
H1511 H 0.74127 0.84164 0.57321 0.0
H1512 H 0.09273 0.84625 0.34581 0.0
H1513 H 0.09861 0.85776 0.41424 0.0
H1514 H 0.13253 0.85998 0.40779 0.0
H1515 H 0.12689 0.84882 0.33947 0.0
H1516 H 0.10575 0.85431 0.49442 0.0
H1517 H 0.14176 0.89429 0.41804 0.0
H1518 H 0.13071 0.88224 0.38593 0.0
H1519 H 0.14337 0.88177 0.40636 0.0
C1520 C 0.10141 0.84914 0.35921 0.0
C1521 C 0.1094 0.84675 0.337 0.0
C1522 C 0.10476 0.85574 0.39814 0.0
C1523 C 0.11613 0.86002 0.4153 0.0
C1524 C 0.12386 0.85711 0.3943 0.0
H1525 H 0.14698 0.87622 0.66352 0.0
H1526 H 0.13472 0.86781 0.59892 0.0
C1527 C 0.12058 0.85064 0.35541 0.0
C1528 C 0.12004 0.86738 0.45549 0.0
H1529 H 0.14343 0.89231 0.49656 0.0
C1530 C 0.11386 0.86273 0.49483 0.0
C1531 C 0.13041 0.87856 0.45584 0.0
C1532 C 0.13686 0.88456 0.41413 0.0
C1533 C 0.11832 0.86851 0.53507 0.0
C1534 C 0.1294 0.87903 0.53595 0.0
C1535 C 0.13505 0.88415 0.49614 0.0
C1536 C 0.13591 0.88412 0.57749 0.0
C1537 C 0.11122 0.86315 0.57625 0.0
C1538 C 0.14098 0.89621 0.58656 0.0
C1539 C 0.14827 0.90115 0.62329 0.0
C1540 C 0.1506 0.89406 0.65153 0.0
C1541 C 0.14532 0.88194 0.64272 0.0
C1542 C 0.13816 0.87706 0.60595 0.0
H1543 H 0.10163 0.85843 0.56895 0.0
H1544 H 0.1134 0.8566 0.5897 0.0
H1545 H 0.1131 0.86993 0.60177 0.0
H1546 H 0.13947 0.90186 0.56478 0.0
H1547 H 0.1522 0.91052 0.62919 0.0
H1548 H 0.09702 0.25353 0.60646 0.0
H1549 H 0.10804 0.2522 0.54392 0.0
H1550 H 0.1381 0.26208 0.62787 0.0
H1551 H 0.12728 0.26381 0.68999 0.0
H1552 H 0.14397 0.27616 0.56006 0.0
H1553 H 0.1189 0.23039 0.499 0.0
H1554 H 0.10966 0.2368 0.50434 0.0
H1555 H 0.11631 0.23461 0.55257 0.0
C1556 C 0.10586 0.25511 0.61176 0.0
C1557 C 0.11134 0.25889 0.65293 0.0
C1558 C 0.11214 0.25428 0.57605 0.0
C1559 C 0.12388 0.25695 0.58124 0.0
C1560 C 0.12906 0.25997 0.62307 0.0
H1561 H 0.16526 0.25789 0.35026 0.0
H1562 H 0.15631 0.2532 0.42383 0.0
C1563 C 0.12287 0.26098 0.65852 0.0
C1564 C 0.13126 0.25829 0.54231 0.0
H1565 H 0.13206 0.24504 0.4467 0.0
C1566 C 0.14147 0.26926 0.53575 0.0
C1567 C 0.1281 0.24927 0.51074 0.0
C1568 C 0.11771 0.23707 0.51725 0.0
C1569 C 0.14823 0.27165 0.49752 0.0
C1570 C 0.14457 0.26294 0.46451 0.0
C1571 C 0.13476 0.25175 0.47195 0.0
C1572 C 0.15016 0.26572 0.42063 0.0
C1573 C 0.1591 0.2836 0.49235 0.0
C1574 C 0.14956 0.27423 0.39464 0.0
C1575 C 0.15464 0.27693 0.35299 0.0
C1576 C 0.16038 0.27112 0.33624 0.0
C1577 C 0.16098 0.26257 0.36235 0.0
C1578 C 0.15584 0.25985 0.40423 0.0
H1579 H 0.16268 0.28778 0.52477 0.0
H1580 H 0.1661 0.28298 0.474 0.0
H1581 H 0.1568 0.28945 0.47374 0.0
H1582 H 0.14504 0.27871 0.40645 0.0
H1583 H 0.15395 0.28351 0.33377 0.0
H1584 H 0.80258 0.55839 0.45343 0.0
H1585 H 0.78599 0.54766 0.40237 0.0
H1586 H 0.80403 0.57497 0.30553 0.0
H1587 H 0.82032 0.58566 0.35635 0.0
H1588 H 0.77366 0.55858 0.37814 0.0
H1589 H 0.78787 0.54602 0.22779 0.0
H1590 H 0.79533 0.54803 0.27985 0.0
H1591 H 0.79911 0.56044 0.24428 0.0
C1592 C 0.80318 0.56176 0.42043 0.0
C1593 C 0.81268 0.57278 0.40846 0.0
C1594 C 0.79371 0.55566 0.39141 0.0
C1595 C 0.79382 0.56043 0.34991 0.0
C1596 C 0.80384 0.57094 0.33684 0.0
H1597 H 0.76791 0.59199 0.22115 0.0
H1598 H 0.77096 0.58052 0.2771 0.0
C1599 C 0.81314 0.5771 0.36596 0.0
C1600 C 0.78289 0.55622 0.32391 0.0
H1601 H 0.77518 0.55497 0.21637 0.0
C1602 C 0.77369 0.55726 0.34294 0.0
C1603 C 0.78269 0.55419 0.27822 0.0
C1604 C 0.79174 0.55197 0.25653 0.0
C1605 C 0.76541 0.5582 0.31661 0.0
C1606 C 0.76648 0.55818 0.2704 0.0
C1607 C 0.7745 0.55525 0.25185 0.0
C1608 C 0.76177 0.56399 0.24169 0.0
C1609 C 0.75627 0.56026 0.33834 0.0
C1610 C 0.75534 0.55847 0.20353 0.0
C1611 C 0.75349 0.56506 0.17148 0.0
C1612 C 0.75834 0.57728 0.17682 0.0
C1613 C 0.76408 0.58258 0.21628 0.0
C1614 C 0.76574 0.57599 0.24845 0.0
H1615 H 0.75342 0.55547 0.37014 0.0
H1616 H 0.76015 0.56979 0.34544 0.0
H1617 H 0.74843 0.5574 0.31695 0.0
H1618 H 0.75234 0.54926 0.19746 0.0
H1619 H 0.74913 0.56079 0.14111 0.0
H1620 H 0.3966 0.17113 0.24873 0.0
H1621 H 0.40753 0.18539 0.3062 0.0
H1622 H 0.44012 0.19561 0.23818 0.0
H1623 H 0.42914 0.18126 0.17998 0.0
H1624 H 0.42757 0.19157 0.36282 0.0
H1625 H 0.43608 0.22511 0.23348 0.0
H1626 H 0.42559 0.20977 0.22414 0.0
H1627 H 0.44106 0.21469 0.22559 0.0
C1628 C 0.40612 0.17614 0.24662 0.0
C1629 C 0.412 0.17521 0.20959 0.0
C1630 C 0.41238 0.18427 0.27956 0.0
C1631 C 0.42461 0.19169 0.27602 0.0
C1632 C 0.43066 0.19004 0.24122 0.0
H1633 H 0.43236 0.24094 0.48662 0.0
H1634 H 0.4423 0.23397 0.43603 0.0
C1635 C 0.42439 0.18179 0.2082 0.0
C1636 C 0.4303 0.20212 0.30518 0.0
H1637 H 0.43523 0.23025 0.30635 0.0
C1638 C 0.42979 0.20022 0.3507 0.0
C1639 C 0.43324 0.2134 0.28909 0.0
C1640 C 0.43404 0.21596 0.24045 0.0
C1641 C 0.43063 0.20882 0.38035 0.0
C1642 C 0.43205 0.21954 0.3638 0.0
C1643 C 0.43412 0.222 0.31878 0.0
C1644 C 0.42786 0.22629 0.3896 0.0
C1645 C 0.42856 0.20583 0.42862 0.0
C1646 C 0.41678 0.22478 0.37901 0.0
C1647 C 0.41114 0.22862 0.40765 0.0
C1648 C 0.41654 0.23422 0.44713 0.0
C1649 C 0.42809 0.23673 0.45605 0.0
C1650 C 0.43372 0.2327 0.42744 0.0
H1651 H 0.42772 0.19714 0.43612 0.0
H1652 H 0.43599 0.21268 0.44808 0.0
H1653 H 0.42039 0.20566 0.43942 0.0
H1654 H 0.41209 0.21983 0.35004 0.0
H1655 H 0.40223 0.22659 0.40019 0.0
H1656 H 0.82376 0.24641 0.17684 0.0
H1657 H 0.81477 0.24176 0.25036 0.0
H1658 H 0.80391 0.20515 0.23061 0.0
H1659 H 0.81281 0.20963 0.15783 0.0
H1660 H 0.79007 0.22442 0.27352 0.0
H1661 H 0.82284 0.21468 0.34813 0.0
H1662 H 0.8257 0.22317 0.29825 0.0
H1663 H 0.81713 0.20735 0.29653 0.0
C1664 C 0.81951 0.23738 0.18831 0.0
C1665 C 0.81906 0.2284 0.16157 0.0
C1666 C 0.81435 0.23475 0.23015 0.0
C1667 C 0.80881 0.22314 0.24587 0.0
C1668 C 0.80829 0.21419 0.21918 0.0
H1669 H 0.75789 0.17957 0.43256 0.0
H1670 H 0.76803 0.19263 0.37052 0.0
C1671 C 0.81337 0.21678 0.17753 0.0
C1672 C 0.80346 0.22014 0.2901 0.0
H1673 H 0.80432 0.20687 0.3851 0.0
C1674 C 0.79327 0.22078 0.2984 0.0
C1675 C 0.80778 0.21557 0.32256 0.0
C1676 C 0.81903 0.21524 0.31619 0.0
C1677 C 0.78687 0.21631 0.33758 0.0
C1678 C 0.79072 0.21091 0.36863 0.0
C1679 C 0.8013 0.21092 0.36122 0.0
C1680 C 0.78365 0.20446 0.40763 0.0
C1681 C 0.77601 0.21726 0.345 0.0
C1682 C 0.78897 0.20682 0.44922 0.0
C1683 C 0.78331 0.19923 0.48436 0.0
C1684 C 0.77216 0.18919 0.47869 0.0
C1685 C 0.76645 0.18728 0.43792 0.0
C1686 C 0.77221 0.1948 0.4025 0.0
H1687 H 0.77659 0.22492 0.32713 0.0
H1688 H 0.76821 0.2092 0.33225 0.0
H1689 H 0.77461 0.21813 0.38049 0.0
H1690 H 0.79778 0.21421 0.45394 0.0
H1691 H 0.78787 0.20098 0.51556 0.0
H1692 H 0.89229 0.45863 0.728 0.0
H1693 H 0.88426 0.44238 0.78099 0.0
H1694 H 0.90436 0.46689 0.88412 0.0
H1695 H 0.912 0.483 0.83156 0.0
H1696 H 0.89936 0.43728 0.81161 0.0
H1697 H 0.87806 0.44319 0.95644 0.0
H1698 H 0.87912 0.45068 0.9053 0.0
H1699 H 0.89086 0.45711 0.94532 0.0
C1700 C 0.89431 0.46058 0.76258 0.0
C1701 C 0.90261 0.47202 0.77607 0.0
C1702 C 0.88981 0.4513 0.7928 0.0
C1703 C 0.89367 0.45335 0.83672 0.0
C1704 C 0.90095 0.46503 0.85088 0.0
H1705 H 0.93598 0.4399 0.97633 0.0
H1706 H 0.92351 0.44105 0.91955 0.0
C1707 C 0.90537 0.47429 0.82076 0.0
C1708 C 0.89289 0.44362 0.86421 0.0
H1709 H 0.89279 0.43668 0.97226 0.0
C1710 C 0.89745 0.43681 0.84649 0.0
C1711 C 0.89019 0.44267 0.90958 0.0
C1712 C 0.88416 0.44873 0.92997 0.0
C1713 C 0.90087 0.43042 0.87372 0.0
C1714 C 0.89987 0.43102 0.91973 0.0
C1715 C 0.89383 0.43646 0.93695 0.0
C1716 C 0.90706 0.42836 0.95007 0.0
C1717 C 0.90634 0.42382 0.85319 0.0
C1718 C 0.90197 0.4207 0.98585 0.0
C1719 C 0.90914 0.41997 0.01841 0.0
C1720 C 0.92147 0.42711 0.01604 0.0
C1721 C 0.92651 0.43429 0.97902 0.0
C1722 C 0.91938 0.4349 0.94638 0.0
H1723 H 0.90248 0.42038 0.82026 0.0
H1724 H 0.91592 0.42992 0.84868 0.0
H1725 H 0.90512 0.41636 0.8742 0.0
H1726 H 0.89248 0.41567 0.98948 0.0
H1727 H 0.90501 0.41442 0.0468 0.0
H1728 H 0.53848 0.48408 0.02691 0.0
H1729 H 0.53238 0.47365 0.95721 0.0
H1730 H 0.56857 0.49067 0.91433 0.0
H1731 H 0.57487 0.50112 0.9849 0.0
H1732 H 0.5362 0.48448 0.87601 0.0
H1733 H 0.55584 0.45547 0.88479 0.0
H1734 H 0.55398 0.46252 0.93271 0.0
H1735 H 0.56569 0.4709 0.89462 0.0
C1736 C 0.5452 0.4856 0.00288 0.0
C1737 C 0.55718 0.49349 0.01142 0.0
C1738 C 0.54168 0.47959 0.96308 0.0
C1739 C 0.55002 0.4813 0.93084 0.0
C1740 C 0.56201 0.48908 0.93916 0.0
H1741 H 0.52789 0.46311 0.66003 0.0
H1742 H 0.53955 0.47277 0.72537 0.0
C1743 C 0.56558 0.4951 0.9793 0.0
C1744 C 0.5459 0.47549 0.88766 0.0
H1745 H 0.5457 0.4547 0.8193 0.0
C1746 C 0.53833 0.47802 0.86348 0.0
C1747 C 0.54862 0.46699 0.87177 0.0
C1748 C 0.5564 0.4637 0.89734 0.0
C1749 C 0.53325 0.47218 0.82407 0.0
C1750 C 0.53605 0.46376 0.80783 0.0
C1751 C 0.54368 0.46125 0.83177 0.0
C1752 C 0.53073 0.45731 0.76662 0.0
C1753 C 0.52466 0.47483 0.8008 0.0
C1754 C 0.52238 0.44524 0.76766 0.0
C1755 C 0.51574 0.43964 0.73015 0.0
C1756 C 0.51734 0.44609 0.69134 0.0
C1757 C 0.52632 0.45796 0.68968 0.0
C1758 C 0.53301 0.46349 0.72692 0.0
H1759 H 0.52145 0.47944 0.82258 0.0
H1760 H 0.52909 0.48061 0.77213 0.0
H1761 H 0.51694 0.46661 0.78855 0.0
H1762 H 0.52054 0.44033 0.79809 0.0
H1763 H 0.5089 0.43048 0.73233 0.0
H1764 H 0.56387 0.09378 0.67643 0.0
H1765 H 0.55624 0.10278 0.72845 0.0
H1766 H 0.54843 0.07492 0.82124 0.0
H1767 H 0.55572 0.06588 0.76931 0.0
H1768 H 0.53229 0.08934 0.75364 0.0
H1769 H 0.56058 0.10407 0.90085 0.0
H1770 H 0.56597 0.10293 0.84734 0.0
H1771 H 0.55835 0.09013 0.88199 0.0
C1772 C 0.56096 0.08991 0.70872 0.0
C1773 C 0.56042 0.07923 0.71931 0.0
C1774 C 0.55658 0.09501 0.73824 0.0
C1775 C 0.55192 0.08961 0.77892 0.0
C1776 C 0.55223 0.0794 0.79051 0.0
H1777 H 0.49552 0.05766 0.92304 0.0
H1778 H 0.50923 0.06799 0.86332 0.0
C1779 C 0.55635 0.07421 0.76083 0.0
C1780 C 0.54473 0.093 0.80608 0.0
H1781 H 0.53927 0.09497 0.91427 0.0
C1782 C 0.53399 0.09105 0.78854 0.0
C1783 C 0.54699 0.09544 0.85138 0.0
C1784 C 0.55868 0.09839 0.87137 0.0
C1785 C 0.52489 0.08989 0.81612 0.0
C1786 C 0.52661 0.09065 0.86211 0.0
C1787 C 0.53787 0.09421 0.87899 0.0
C1788 C 0.51654 0.08527 0.89298 0.0
C1789 C 0.51321 0.08694 0.7961 0.0
C1790 C 0.51587 0.09158 0.92907 0.0
C1791 C 0.5079 0.08566 0.96324 0.0
C1792 C 0.50075 0.07332 0.96212 0.0
C1793 C 0.50093 0.06717 0.92469 0.0
C1794 C 0.50871 0.07309 0.89038 0.0
H1795 H 0.51444 0.09091 0.76287 0.0
H1796 H 0.50772 0.07724 0.79242 0.0
H1797 H 0.50839 0.09006 0.81711 0.0
H1798 H 0.52193 0.10096 0.93191 0.0
H1799 H 0.50801 0.0906 0.99195 0.0
H1800 H 0.5101 0.083 0.2031 0.0
H1801 H 0.52312 0.08747 0.26679 0.0
H1802 H 0.52753 0.05782 0.23511 0.0
H1803 H 0.51496 0.05356 0.17116 0.0
H1804 H 0.51925 0.07435 0.33607 0.0
H1805 H 0.56076 0.08155 0.26316 0.0
H1806 H 0.54924 0.08144 0.23031 0.0
H1807 H 0.54887 0.06785 0.24368 0.0
C1808 C 0.51402 0.07757 0.20933 0.0
C1809 C 0.51148 0.06793 0.18203 0.0
C1810 C 0.52148 0.08015 0.24566 0.0
C1811 C 0.52652 0.07313 0.25528 0.0
C1812 C 0.52411 0.06362 0.22765 0.0
H1813 H 0.53638 0.04861 0.49637 0.0
H1814 H 0.53048 0.05351 0.42726 0.0
C1815 C 0.51677 0.06111 0.19124 0.0
C1816 C 0.53314 0.07477 0.29671 0.0
H1817 H 0.55689 0.07392 0.33852 0.0
C1818 C 0.52762 0.07453 0.33653 0.0
C1819 C 0.5442 0.07528 0.2976 0.0
C1820 C 0.55115 0.07669 0.2563 0.0
C1821 C 0.53238 0.07385 0.37694 0.0
C1822 C 0.54274 0.07304 0.37746 0.0
C1823 C 0.54878 0.07425 0.33801 0.0
C1824 C 0.5468 0.06993 0.41809 0.0
C1825 C 0.52607 0.07373 0.41864 0.0
C1826 C 0.5582 0.07723 0.43466 0.0
C1827 C 0.56169 0.07434 0.47407 0.0
C1828 C 0.55382 0.06412 0.49737 0.0
C1829 C 0.5426 0.05662 0.47958 0.0
C1830 C 0.53918 0.05946 0.44022 0.0
H1831 H 0.52111 0.07848 0.41415 0.0
H1832 H 0.51963 0.06448 0.42747 0.0
H1833 H 0.53232 0.07781 0.44641 0.0
H1834 H 0.56427 0.08528 0.4177 0.0
H1835 H 0.5704 0.08028 0.48694 0.0
H1836 H 0.92049 0.42709 0.27507 0.0
H1837 H 0.91672 0.43585 0.33968 0.0
H1838 H 0.92718 0.46781 0.26673 0.0
H1839 H 0.93125 0.45926 0.20259 0.0
H1840 H 0.93928 0.47208 0.34104 0.0
H1841 H 0.89183 0.44368 0.37764 0.0
H1842 H 0.89926 0.43539 0.37196 0.0
H1843 H 0.89819 0.44328 0.32542 0.0
C1844 C 0.92174 0.43589 0.27256 0.0
C1845 C 0.92628 0.44253 0.23394 0.0
C1846 C 0.9195 0.44086 0.30941 0.0
C1847 C 0.92157 0.45246 0.3079 0.0
C1848 C 0.92551 0.45885 0.26859 0.0
H1849 H 0.91236 0.4878 0.53891 0.0
H1850 H 0.91059 0.4801 0.46392 0.0
C1851 C 0.92786 0.45395 0.23201 0.0
C1852 C 0.92114 0.45846 0.34855 0.0
H1853 H 0.90399 0.45598 0.43698 0.0
C1854 C 0.93149 0.46865 0.3616 0.0
C1855 C 0.91095 0.45407 0.37518 0.0
C1856 C 0.8994 0.44357 0.36162 0.0
C1857 C 0.9321 0.47426 0.40146 0.0
C1858 C 0.92216 0.46943 0.42937 0.0
C1859 C 0.91162 0.45958 0.41555 0.0
C1860 C 0.92295 0.47395 0.47444 0.0
C1861 C 0.94347 0.48518 0.41381 0.0
C1862 C 0.93036 0.4729 0.50497 0.0
C1863 C 0.93141 0.47726 0.54746 0.0
C1864 C 0.925 0.48274 0.56043 0.0
C1865 C 0.91746 0.48369 0.52985 0.0
C1866 C 0.9164 0.47927 0.48714 0.0
H1867 H 0.94896 0.48957 0.38442 0.0
H1868 H 0.94173 0.49159 0.43144 0.0
H1869 H 0.9486 0.4827 0.43593 0.0
H1870 H 0.93536 0.46868 0.49588 0.0
H1871 H 0.93725 0.47631 0.57014 0.0
H1872 H 0.51519 0.42271 0.49967 0.0
H1873 H 0.53025 0.42803 0.44243 0.0
H1874 H 0.51773 0.44893 0.37751 0.0
H1875 H 0.50278 0.44369 0.43413 0.0
H1876 H 0.5256 0.43645 0.31932 0.0
H1877 H 0.55783 0.46296 0.45043 0.0
H1878 H 0.54831 0.44735 0.4578 0.0
H1879 H 0.54223 0.45693 0.45879 0.0
C1880 C 0.51541 0.4281 0.47232 0.0
C1881 C 0.50792 0.43292 0.47156 0.0
C1882 C 0.52406 0.43119 0.43987 0.0
C1883 C 0.52521 0.43902 0.40621 0.0
C1884 C 0.51701 0.4429 0.40328 0.0
H1885 H 0.5588 0.49728 0.27934 0.0
H1886 H 0.55237 0.481 0.33093 0.0
C1887 C 0.50848 0.43992 0.43571 0.0
C1888 C 0.53571 0.44468 0.37746 0.0
H1889 H 0.56311 0.46907 0.37769 0.0
C1890 C 0.53401 0.44328 0.33187 0.0
C1891 C 0.54667 0.45355 0.39415 0.0
C1892 C 0.54897 0.45538 0.44293 0.0
C1893 C 0.54247 0.45136 0.30261 0.0
C1894 C 0.55286 0.46104 0.31963 0.0
C1895 C 0.55514 0.46162 0.36487 0.0
C1896 C 0.55947 0.47193 0.29343 0.0
C1897 C 0.53966 0.45028 0.25414 0.0
C1898 C 0.56615 0.47254 0.25639 0.0
C1899 C 0.56999 0.482 0.22695 0.0
C1900 C 0.56702 0.49079 0.23422 0.0
C1901 C 0.56119 0.4906 0.27309 0.0
C1902 C 0.55752 0.48131 0.30257 0.0
H1903 H 0.53113 0.44227 0.24638 0.0
H1904 H 0.53929 0.45813 0.24271 0.0
H1905 H 0.54672 0.44989 0.23538 0.0
H1906 H 0.56778 0.4654 0.24896 0.0
H1907 H 0.5744 0.48193 0.19692 0.0
H1908 H 0.41286 0.24459 0.69121 0.0
H1909 H 0.41662 0.23902 0.76396 0.0
H1910 H 0.39429 0.20233 0.73145 0.0
H1911 H 0.39036 0.20773 0.6596 0.0
H1912 H 0.38923 0.20879 0.81229 0.0
H1913 H 0.43696 0.22382 0.79449 0.0
H1914 H 0.43247 0.23445 0.78268 0.0
H1915 H 0.4276 0.22181 0.74787 0.0
C1916 C 0.40876 0.23535 0.69963 0.0
C1917 C 0.40129 0.22662 0.66963 0.0
C1918 C 0.41099 0.23218 0.74101 0.0
C1919 C 0.40583 0.22026 0.75276 0.0
C1920 C 0.39838 0.21158 0.72291 0.0
H1921 H 0.41382 0.17824 0.94872 0.0
H1922 H 0.41584 0.19024 0.88396 0.0
C1923 C 0.39614 0.21471 0.68183 0.0
C1924 C 0.40764 0.21662 0.79671 0.0
H1925 H 0.42794 0.21482 0.8617 0.0
C1926 C 0.39771 0.21021 0.82335 0.0
C1927 C 0.41871 0.2184 0.81062 0.0
C1928 C 0.42956 0.22492 0.78244 0.0
C1929 C 0.39845 0.20525 0.86311 0.0
C1930 C 0.40951 0.207 0.87715 0.0
C1931 C 0.41951 0.2136 0.85093 0.0
C1932 C 0.41055 0.20138 0.91773 0.0
C1933 C 0.38727 0.19774 0.88878 0.0
C1934 C 0.40745 0.20406 0.95844 0.0
C1935 C 0.40615 0.19716 0.99521 0.0
C1936 C 0.40811 0.18757 0.99201 0.0
C1937 C 0.41221 0.18555 0.95212 0.0
C1938 C 0.41339 0.19239 0.91514 0.0
H1939 H 0.37927 0.19513 0.86865 0.0
H1940 H 0.38699 0.18963 0.90117 0.0
H1941 H 0.38697 0.2028 0.9175 0.0
H1942 H 0.40546 0.21112 0.96123 0.0
H1943 H 0.40316 0.19905 0.02571 0.0
H1944 H 0.76692 0.16904 0.73331 0.0
H1945 H 0.77043 0.18263 0.79363 0.0
H1946 H 0.75056 0.19592 0.72589 0.0
H1947 H 0.74689 0.18215 0.66525 0.0
H1948 H 0.77389 0.21291 0.74271 0.0
H1949 H 0.75339 0.18837 0.89488 0.0
H1950 H 0.76018 0.18151 0.86514 0.0
H1951 H 0.74802 0.18225 0.84085 0.0
C1952 C 0.7629 0.17452 0.73203 0.0
C1953 C 0.75668 0.17459 0.69458 0.0
C1954 C 0.76485 0.18225 0.76667 0.0
C1955 C 0.76069 0.19024 0.76441 0.0
C1956 C 0.75374 0.18974 0.72845 0.0
H1957 H 0.79991 0.2377 0.98011 0.0
H1958 H 0.78331 0.23008 0.92804 0.0
C1959 C 0.75162 0.18185 0.69395 0.0
C1960 C 0.76561 0.20034 0.79519 0.0
H1961 H 0.77288 0.20615 0.90341 0.0
C1962 C 0.77334 0.21156 0.77802 0.0
C1963 C 0.76477 0.19868 0.84121 0.0
C1964 C 0.75603 0.18706 0.86157 0.0
C1965 C 0.78133 0.2207 0.80533 0.0
C1966 C 0.78158 0.2185 0.85065 0.0
C1967 C 0.77281 0.2078 0.86849 0.0
C1968 C 0.79218 0.22577 0.87762 0.0
C1969 C 0.79005 0.23233 0.785 0.0
C1970 C 0.80272 0.22612 0.86601 0.0
C1971 C 0.81204 0.23026 0.89572 0.0
C1972 C 0.81105 0.2343 0.93725 0.0
C1973 C 0.8009 0.23483 0.94779 0.0
C1974 C 0.79143 0.23045 0.91825 0.0
H1975 H 0.78625 0.23421 0.75554 0.0
H1976 H 0.79287 0.23967 0.80886 0.0
H1977 H 0.79795 0.23196 0.77428 0.0
H1978 H 0.8034 0.2223 0.83533 0.0
H1979 H 0.81973 0.22961 0.88733 0.0
H1980 H 0.79253 0.59407 0.9852 0.0
H1981 H 0.80162 0.59217 0.91804 0.0
H1982 H 0.76817 0.57716 0.85133 0.0
H1983 H 0.75889 0.57886 0.91881 0.0
H1984 H 0.78233 0.56647 0.82985 0.0
H1985 H 0.80691 0.61532 0.81666 0.0
H1986 H 0.80884 0.60959 0.86766 0.0
H1987 H 0.79461 0.60752 0.85355 0.0
C1988 C 0.78705 0.59023 0.95644 0.0
C1989 C 0.77501 0.58678 0.95712 0.0
C1990 C 0.79227 0.58915 0.91811 0.0
C1991 C 0.7856 0.58473 0.87964 0.0
C1992 C 0.77346 0.58064 0.88076 0.0
H1993 H 0.80808 0.59928 0.61267 0.0
H1994 H 0.79902 0.59644 0.68476 0.0
C1995 C 0.76818 0.58164 0.91928 0.0
C1996 C 0.7915 0.58532 0.83752 0.0
H1997 H 0.81115 0.60485 0.76373 0.0
C1998 C 0.78867 0.57484 0.81534 0.0
C1999 C 0.79966 0.59627 0.81865 0.0
C2000 C 0.80264 0.60783 0.84006 0.0
C2001 C 0.79381 0.57505 0.77454 0.0
C2002 C 0.80204 0.58601 0.75595 0.0
C2003 C 0.8049 0.59646 0.77833 0.0
C2004 C 0.80719 0.58701 0.71181 0.0
C2005 C 0.79016 0.5636 0.75102 0.0
C2006 C 0.81482 0.58264 0.70313 0.0
C2007 C 0.82006 0.58425 0.66165 0.0
C2008 C 0.81778 0.59032 0.62844 0.0
C2009 C 0.81007 0.5946 0.63743 0.0
C2010 C 0.80486 0.59297 0.67864 0.0
H2011 H 0.78214 0.55614 0.76578 0.0
H2012 H 0.78844 0.56431 0.71572 0.0
H2013 H 0.79741 0.56157 0.753 0.0
H2014 H 0.81688 0.57818 0.72859 0.0
H2015 H 0.82596 0.58086 0.65578 0.0
H2016 H 0.45822 0.93249 0.44796 0.0
H2017 H 0.4655 0.92975 0.51794 0.0
H2018 H 0.43031 0.91309 0.57124 0.0
H2019 H 0.42282 0.91563 0.50051 0.0
H2020 H 0.46406 0.93935 0.59618 0.0
H2021 H 0.4422 0.89057 0.60786 0.0
H2022 H 0.44322 0.89811 0.55693 0.0
H2023 H 0.43255 0.89637 0.59769 0.0
C2024 C 0.45196 0.92817 0.47436 0.0
C2025 C 0.43993 0.92433 0.46869 0.0
C2026 C 0.45616 0.92658 0.51434 0.0
C2027 C 0.44844 0.92112 0.5496 0.0
C2028 C 0.43638 0.91713 0.54412 0.0
H2029 H 0.47216 0.93098 0.81916 0.0
H2030 H 0.46119 0.92855 0.75156 0.0
C2031 C 0.43213 0.91867 0.50385 0.0
C2032 C 0.4533 0.92047 0.59274 0.0
H2033 H 0.45324 0.90151 0.66996 0.0
C2034 C 0.46168 0.93108 0.61232 0.0
C2035 C 0.45026 0.90965 0.6134 0.0
C2036 C 0.44164 0.898 0.59284 0.0
C2037 C 0.46711 0.93118 0.65204 0.0
C2038 C 0.46391 0.9204 0.67323 0.0
C2039 C 0.45558 0.90976 0.65367 0.0
C2040 C 0.46925 0.92017 0.71573 0.0
C2041 C 0.47641 0.94285 0.67064 0.0
C2042 C 0.47704 0.91577 0.71843 0.0
C2043 C 0.48333 0.9171 0.75724 0.0
C2044 C 0.48192 0.92287 0.79372 0.0
C2045 C 0.47359 0.92664 0.79148 0.0
C2046 C 0.46729 0.92526 0.75291 0.0
H2047 H 0.47977 0.94996 0.64555 0.0
H2048 H 0.47255 0.94543 0.69796 0.0
H2049 H 0.48395 0.9422 0.68392 0.0
H2050 H 0.47862 0.91179 0.68998 0.0
H2051 H 0.48964 0.91406 0.75802 0.0
H2052 H 0.08974 0.54588 0.81916 0.0
H2053 H 0.09995 0.54101 0.76456 0.0
H2054 H 0.1162 0.57642 0.71315 0.0
H2055 H 0.10543 0.58127 0.76767 0.0
H2056 H 0.10543 0.562 0.65133 0.0
H2057 H 0.13012 0.54387 0.7313 0.0
H2058 H 0.11611 0.53709 0.75806 0.0
H2059 H 0.12566 0.55289 0.76136 0.0
C2060 C 0.0957 0.55277 0.797 0.0
C2061 C 0.09659 0.5639 0.79714 0.0
C2062 C 0.10176 0.55001 0.76611 0.0
C2063 C 0.10904 0.55837 0.73486 0.0
C2064 C 0.11071 0.56984 0.73712 0.0
H2065 H 0.10781 0.52135 0.49082 0.0
H2066 H 0.11904 0.53586 0.5483 0.0
C2067 C 0.10455 0.5726 0.76821 0.0
C2068 C 0.1125 0.55416 0.69528 0.0
H2069 H 0.11737 0.53175 0.66675 0.0
C2070 C 0.10862 0.55583 0.6543 0.0
C2071 C 0.11684 0.54621 0.69842 0.0
C2072 C 0.12253 0.54506 0.73973 0.0
C2073 C 0.1073 0.54854 0.61852 0.0
C2074 C 0.10983 0.53934 0.6241 0.0
C2075 C 0.11519 0.53867 0.66297 0.0
C2076 C 0.10451 0.52913 0.59415 0.0
C2077 C 0.10197 0.54985 0.57644 0.0
C2078 C 0.09283 0.52033 0.60191 0.0
C2079 C 0.08638 0.51219 0.56919 0.0
C2080 C 0.09157 0.51264 0.52837 0.0
C2081 C 0.10363 0.52075 0.52218 0.0
C2082 C 0.11005 0.52905 0.55485 0.0
H2083 H 0.10203 0.55835 0.57506 0.0
H2084 H 0.10684 0.54927 0.54761 0.0
H2085 H 0.0927 0.54257 0.57388 0.0
H2086 H 0.08842 0.52032 0.63208 0.0
H2087 H 0.07712 0.50603 0.57481 0.0
H2088 H 0.42358 0.51329 0.79882 0.0
H2089 H 0.4315 0.52679 0.73603 0.0
H2090 H 0.46635 0.53308 0.76574 0.0
H2091 H 0.45868 0.52003 0.8288 0.0
H2092 H 0.46684 0.55313 0.73963 0.0
H2093 H 0.4401 0.51628 0.62403 0.0
H2094 H 0.43202 0.51961 0.66361 0.0
H2095 H 0.44117 0.51382 0.68169 0.0
C2096 C 0.43295 0.51766 0.79219 0.0
C2097 C 0.44047 0.51545 0.81848 0.0
C2098 C 0.43745 0.52534 0.75624 0.0
C2099 C 0.44948 0.53077 0.74575 0.0
C2100 C 0.45704 0.52898 0.77317 0.0
H2101 H 0.48879 0.5457 0.51714 0.0
H2102 H 0.47741 0.53923 0.58483 0.0
C2103 C 0.4526 0.52145 0.80917 0.0
C2104 C 0.45429 0.5376 0.70465 0.0
H2105 H 0.45431 0.5341 0.59352 0.0
C2106 C 0.46399 0.54907 0.70754 0.0
C2107 C 0.45056 0.53223 0.66289 0.0
C2108 C 0.44046 0.51979 0.65759 0.0
C2109 C 0.47052 0.55505 0.6701 0.0
C2110 C 0.46708 0.54946 0.62869 0.0
C2111 C 0.45692 0.53833 0.62545 0.0
C2112 C 0.47466 0.55416 0.58927 0.0
C2113 C 0.48147 0.56692 0.67547 0.0
C2114 C 0.4771 0.56485 0.56975 0.0
C2115 C 0.48378 0.56867 0.53102 0.0
C2116 C 0.48793 0.56175 0.51111 0.0
C2117 C 0.48567 0.5512 0.53147 0.0
C2118 C 0.47913 0.54747 0.57012 0.0
H2119 H 0.4839 0.56919 0.71056 0.0
H2120 H 0.48901 0.56714 0.658 0.0
H2121 H 0.47995 0.5738 0.66082 0.0
H2122 H 0.4736 0.57007 0.58372 0.0
H2123 H 0.48531 0.57679 0.51586 0.0
H2124 H 0.58635 0.79668 0.96487 0.0
H2125 H 0.58139 0.78147 0.02053 0.0
H2126 H 0.5844 0.806 0.12143 0.0
H2127 H 0.5886 0.82094 0.06542 0.0
H2128 H 0.59653 0.78322 0.07509 0.0
H2129 H 0.55882 0.77702 0.17433 0.0
H2130 H 0.56209 0.78429 0.12156 0.0
H2131 H 0.56913 0.79247 0.17087 0.0
C2132 C 0.58547 0.79863 -0.00119 0.0
C2133 C 0.58787 0.80994 0.01106 0.0
C2134 C 0.58265 0.78995 0.03061 0.0
C2135 C 0.58248 0.79252 0.07534 0.0
C2136 C 0.58413 0.80363 0.0872 0.0
H2137 H 0.61702 0.78396 0.2841 0.0
H2138 H 0.60976 0.78669 0.2142 0.0
C2139 C 0.58663 0.81222 0.05519 0.0
C2140 C 0.58283 0.78459 0.10948 0.0
H2141 H 0.57404 0.77483 0.21423 0.0
C2142 C 0.59133 0.7811 0.10493 0.0
C2143 C 0.57596 0.78155 0.14826 0.0
C2144 C 0.5659 0.78393 0.15371 0.0
C2145 C 0.59383 0.77563 0.1394 0.0
C2146 C 0.58796 0.77391 0.17998 0.0
C2147 C 0.57872 0.77638 0.18333 0.0
C2148 C 0.59243 0.77129 0.22057 0.0
C2149 C 0.60311 0.77218 0.13256 0.0
C2150 C 0.58508 0.76173 0.24766 0.0
C2151 C 0.58922 0.76016 0.2881 0.0
C2152 C 0.60072 0.76823 0.30218 0.0
C2153 C 0.60813 0.77757 0.27427 0.0
C2154 C 0.60401 0.7791 0.23407 0.0
H2155 H 0.60339 0.76982 0.09766 0.0
H2156 H 0.61189 0.77978 0.14076 0.0
H2157 H 0.60152 0.76462 0.15368 0.0
H2158 H 0.57608 0.75566 0.23794 0.0
H2159 H 0.58328 0.75292 0.30904 0.0
H2160 H 0.2074 0.82721 0.34459 0.0
H2161 H 0.20222 0.81838 0.27187 0.0
H2162 H 0.23752 0.82452 0.25443 0.0
H2163 H 0.24273 0.8331 0.3283 0.0
H2164 H 0.21016 0.8261 0.19084 0.0
H2165 H 0.21803 0.78938 0.23385 0.0
H2166 H 0.21797 0.79935 0.27455 0.0
H2167 H 0.23058 0.80388 0.23965 0.0
C2168 C 0.21414 0.82681 0.32528 0.0
C2169 C 0.22545 0.83075 0.34254 0.0
C2170 C 0.21114 0.82174 0.28361 0.0
C2171 C 0.2194 0.82055 0.2581 0.0
C2172 C 0.23092 0.82507 0.27406 0.0
H2173 H 0.19699 0.79518 0.98913 0.0
H2174 H 0.20923 0.8068 0.05084 0.0
C2175 C 0.23391 0.83008 0.3161 0.0
C2176 C 0.21563 0.81421 0.21555 0.0
H2177 H 0.21107 0.7893 0.16248 0.0
C2178 C 0.21046 0.81811 0.1844 0.0
C2179 C 0.2159 0.8037 0.20757 0.0
C2180 C 0.22082 0.79874 0.24075 0.0
C2181 C 0.20518 0.81162 0.14619 0.0
C2182 C 0.20547 0.80113 0.13809 0.0
C2183 C 0.21095 0.79739 0.16861 0.0
C2184 C 0.19934 0.79349 0.09982 0.0
C2185 C 0.19881 0.81577 0.11615 0.0
C2186 C 0.19024 0.78184 0.10646 0.0
C2187 C 0.18339 0.77507 0.07106 0.0
C2188 C 0.18548 0.77991 0.02859 0.0
C2189 C 0.19506 0.7913 0.02166 0.0
C2190 C 0.20202 0.79797 0.0569 0.0
H2191 H 0.19684 0.82214 0.13279 0.0
H2192 H 0.20444 0.82026 0.08723 0.0
H2193 H 0.19039 0.80825 0.10426 0.0
H2194 H 0.18807 0.77817 0.1393 0.0
H2195 H 0.17607 0.76631 0.07735 0.0
H2196 H 0.20306 0.40884 0.92642 0.0
H2197 H 0.19083 0.41086 0.98244 0.0
H2198 H 0.21652 0.41579 0.08142 0.0
H2199 H 0.22905 0.41445 0.02502 0.0
H2200 H 0.18044 0.39608 0.04257 0.0
H2201 H 0.20751 0.43833 0.12695 0.0
H2202 H 0.21188 0.43509 0.07489 0.0
H2203 H 0.21548 0.43054 0.12583 0.0
C2204 C 0.20624 0.41072 0.95998 0.0
C2205 C 0.21697 0.41146 0.97152 0.0
C2206 C 0.19925 0.41187 0.99198 0.0
C2207 C 0.20274 0.41357 0.03627 0.0
C2208 C 0.21374 0.41485 0.04743 0.0
H2209 H 0.16518 0.37946 0.25842 0.0
H2210 H 0.17352 0.38585 0.18564 0.0
C2211 C 0.22088 0.41398 0.01521 0.0
C2212 C 0.19422 0.41218 0.07127 0.0
H2213 H 0.19243 0.42241 0.17249 0.0
C2214 C 0.18299 0.40204 0.07038 0.0
C2215 C 0.19731 0.42002 0.10728 0.0
C2216 C 0.20866 0.43167 0.10845 0.0
C2217 C 0.17523 0.39905 0.10595 0.0
C2218 C 0.17892 0.40615 0.1441 0.0
C2219 C 0.18969 0.41681 0.14358 0.0
C2220 C 0.17259 0.40188 0.18644 0.0
C2221 C 0.16329 0.38807 0.10277 0.0
C2222 C 0.16935 0.40882 0.21152 0.0
C2223 C 0.16464 0.40521 0.25376 0.0
C2224 C 0.16323 0.39467 0.27163 0.0
C2225 C 0.16611 0.3876 0.24571 0.0
C2226 C 0.17081 0.3912 0.2038 0.0
H2227 H 0.16005 0.38649 0.0683 0.0
H2228 H 0.16402 0.38035 0.11325 0.0
H2229 H 0.1567 0.38865 0.12393 0.0
H2230 H 0.17075 0.41714 0.19886 0.0
H2231 H 0.16257 0.41089 0.27301 0.0
H2232 H 0.2325 0.39833 0.72273 0.0
H2233 H 0.22914 0.40638 0.65556 0.0
H2234 H 0.23978 0.43929 0.72181 0.0
H2235 H 0.24347 0.43131 0.78922 0.0
H2236 H 0.21593 0.42667 0.69028 0.0
H2237 H 0.24719 0.43157 0.55923 0.0
H2238 H 0.24246 0.41838 0.59081 0.0
H2239 H 0.25079 0.43252 0.61708 0.0
C2240 C 0.2346 0.40744 0.72243 0.0
C2241 C 0.23821 0.4142 0.76101 0.0
C2242 C 0.23274 0.41206 0.68399 0.0
C2243 C 0.2343 0.42346 0.68365 0.0
C2244 C 0.23869 0.43053 0.72131 0.0
H2245 H 0.18362 0.42333 0.49175 0.0
H2246 H 0.20027 0.43352 0.54283 0.0
C2247 C 0.24081 0.42598 0.75968 0.0
C2248 C 0.22898 0.42671 0.64732 0.0
H2249 H 0.22709 0.42529 0.53563 0.0
C2250 C 0.21854 0.42683 0.65633 0.0
C2251 C 0.23249 0.42699 0.6033 0.0
C2252 C 0.24392 0.42748 0.59199 0.0
C2253 C 0.21074 0.42563 0.6225 0.0
C2254 C 0.21366 0.42459 0.57855 0.0
C2255 C 0.22479 0.42596 0.56935 0.0
C2256 C 0.20452 0.41954 0.5438 0.0
C2257 C 0.19892 0.42421 0.63456 0.0
C2258 C 0.20167 0.40853 0.52629 0.0
C2259 C 0.19233 0.4028 0.49704 0.0
C2260 C 0.18554 0.4079 0.48464 0.0
C2261 C 0.18861 0.41912 0.50106 0.0
C2262 C 0.19809 0.42493 0.53028 0.0
H2263 H 0.19758 0.42393 0.6707 0.0
H2264 H 0.19826 0.43174 0.62124 0.0
H2265 H 0.19169 0.41599 0.62005 0.0
H2266 H 0.20645 0.40416 0.53637 0.0
H2267 H 0.19029 0.39421 0.485 0.0
H2268 H 0.57696 0.82192 0.82093 0.0
H2269 H 0.56861 0.80975 0.75476 0.0
H2270 H 0.60354 0.82379 0.70115 0.0
H2271 H 0.61193 0.83574 0.7671 0.0
H2272 H 0.57963 0.8181 0.64094 0.0
H2273 H 0.58085 0.78321 0.74173 0.0
H2274 H 0.57595 0.7928 0.76416 0.0
H2275 H 0.59131 0.79843 0.75364 0.0
C2276 C 0.5828 0.82273 0.79427 0.0
C2277 C 0.5951 0.82969 0.79913 0.0
C2278 C 0.57802 0.81575 0.75668 0.0
C2279 C 0.5855 0.81587 0.72345 0.0
C2280 C 0.59766 0.82363 0.72655 0.0
H2281 H 0.60628 0.7968 0.50763 0.0
H2282 H 0.59849 0.80472 0.56123 0.0
C2283 C 0.60243 0.83044 0.76419 0.0
C2284 C 0.58117 0.80683 0.68865 0.0
H2285 H 0.58136 0.78155 0.66466 0.0
C2286 C 0.5796 0.8099 0.64614 0.0
C2287 C 0.58092 0.79606 0.69577 0.0
C2288 C 0.58229 0.79232 0.74126 0.0
C2289 C 0.57886 0.80293 0.60989 0.0
C2290 C 0.58019 0.79296 0.61646 0.0
C2291 C 0.58046 0.78925 0.65948 0.0
C2292 C 0.58374 0.78783 0.58016 0.0
C2293 C 0.5773 0.8067 0.56473 0.0
C2294 C 0.57827 0.77559 0.57357 0.0
C2295 C 0.58289 0.77094 0.54302 0.0
C2296 C 0.59311 0.77847 0.51902 0.0
C2297 C 0.59839 0.7907 0.52537 0.0
C2298 C 0.59382 0.7953 0.55569 0.0
H2299 H 0.57149 0.8106 0.56615 0.0
H2300 H 0.58598 0.81359 0.5521 0.0
H2301 H 0.57349 0.7992 0.54127 0.0
H2302 H 0.5706 0.76965 0.59267 0.0
H2303 H 0.57861 0.76148 0.53889 0.0
H2304 H 0.16541 0.76401 0.7686 0.0
H2305 H 0.17863 0.76648 0.70788 0.0
H2306 H 0.19824 0.75602 0.79228 0.0
H2307 H 0.1847 0.75315 0.85311 0.0
H2308 H 0.21063 0.77995 0.75595 0.0
H2309 H 0.188 0.74647 0.62679 0.0
H2310 H 0.17865 0.75129 0.65127 0.0
H2311 H 0.18411 0.74368 0.68441 0.0
C2312 C 0.17224 0.76177 0.77369 0.0
C2313 C 0.17407 0.75841 0.81537 0.0
C2314 C 0.17976 0.76313 0.73897 0.0
C2315 C 0.18935 0.76134 0.74554 0.0
C2316 C 0.19078 0.75727 0.78645 0.0
H2317 H 0.24203 0.81193 0.56134 0.0
H2318 H 0.23608 0.79536 0.6126 0.0
C2319 C 0.18305 0.75563 0.82105 0.0
C2320 C 0.19889 0.76609 0.71247 0.0
H2321 H 0.20206 0.7663 0.60138 0.0
C2322 C 0.20907 0.7768 0.72228 0.0
C2323 C 0.19686 0.76185 0.66892 0.0
C2324 C 0.18636 0.75011 0.65723 0.0
C2325 C 0.21634 0.78421 0.68868 0.0
C2326 C 0.21342 0.78061 0.64435 0.0
C2327 C 0.20422 0.76913 0.6353 0.0
C2328 C 0.21743 0.78939 0.60827 0.0
C2329 C 0.22617 0.79636 0.70069 0.0
C2330 C 0.20893 0.79118 0.58735 0.0
C2331 C 0.21225 0.80045 0.5581 0.0
C2332 C 0.22421 0.80826 0.54903 0.0
C2333 C 0.23276 0.80613 0.56806 0.0
C2334 C 0.22938 0.79671 0.59744 0.0
H2335 H 0.22666 0.79803 0.73666 0.0
H2336 H 0.23472 0.79739 0.68996 0.0
H2337 H 0.22494 0.80318 0.68377 0.0
H2338 H 0.19966 0.7857 0.59516 0.0
H2339 H 0.20539 0.80168 0.5437 0.0
H2340 H 0.0879 0.58147 0.0133 0.0
H2341 H 0.09148 0.57783 0.08939 0.0
H2342 H 0.06297 0.54195 0.07927 0.0
H2343 H 0.05914 0.54554 0.00444 0.0
H2344 H 0.06309 0.5517 0.15783 0.0
H2345 H 0.10772 0.55901 0.11764 0.0
H2346 H 0.10527 0.57113 0.10758 0.0
H2347 H 0.09748 0.55788 0.0757 0.0
C2348 C 0.08229 0.57287 0.02761 0.0
C2349 C 0.07332 0.56376 0.00266 0.0
C2350 C 0.08442 0.57078 0.07091 0.0
C2351 C 0.07765 0.55955 0.0896 0.0
C2352 C 0.06834 0.55066 0.06543 0.0
H2353 H 0.08636 0.51563 0.26842 0.0
H2354 H 0.08748 0.52854 0.20822 0.0
C2355 C 0.06618 0.55274 0.02252 0.0
C2356 C 0.08035 0.55662 0.13348 0.0
H2357 H 0.1003 0.55174 0.18791 0.0
C2358 C 0.0713 0.55187 0.16482 0.0
C2359 C 0.09104 0.55677 0.14212 0.0
C2360 C 0.10093 0.56138 0.10899 0.0
C2361 C 0.07233 0.54665 0.20348 0.0
C2362 C 0.08293 0.54657 0.21177 0.0
C2363 C 0.09223 0.55187 0.18149 0.0
C2364 C 0.08401 0.53997 0.24928 0.0
C2365 C 0.06177 0.54059 0.23348 0.0
C2366 C 0.08219 0.5424 0.29254 0.0
C2367 C 0.08131 0.53491 0.32675 0.0
C2368 C 0.08255 0.52504 0.31843 0.0
C2369 C 0.08534 0.52316 0.27573 0.0
C2370 C 0.08599 0.53054 0.24136 0.0
H2371 H 0.05355 0.53911 0.21714 0.0
H2372 H 0.06043 0.53195 0.24471 0.0
H2373 H 0.0632 0.54618 0.26283 0.0
H2374 H 0.08099 0.54984 0.29959 0.0
H2375 H 0.07935 0.53668 0.35954 0.0
H2376 H 0.43802 0.4974 0.07386 0.0
H2377 H 0.44198 0.51099 0.13471 0.0
H2378 H 0.42072 0.52351 0.07267 0.0
H2379 H 0.41653 0.50969 0.01167 0.0
H2380 H 0.4448 0.54089 0.08746 0.0
H2381 H 0.4245 0.51565 0.23915 0.0
H2382 H 0.43124 0.50914 0.20696 0.0
H2383 H 0.41891 0.50992 0.18489 0.0
C2384 C 0.43383 0.50273 0.07396 0.0
C2385 C 0.42701 0.50253 0.03805 0.0
C2386 C 0.43605 0.51046 0.10886 0.0
C2387 C 0.43158 0.5182 0.10833 0.0
C2388 C 0.42414 0.51751 0.07387 0.0
H2389 H 0.46876 0.5685 0.3224 0.0
H2390 H 0.45252 0.5592 0.26882 0.0
C2391 C 0.42173 0.50959 0.03918 0.0
C2392 C 0.43649 0.52821 0.13951 0.0
H2393 H 0.44322 0.53396 0.24821 0.0
C2394 C 0.44414 0.53949 0.12274 0.0
C2395 C 0.43554 0.52642 0.18546 0.0
C2396 C 0.427 0.51463 0.20521 0.0
C2397 C 0.45184 0.54868 0.15052 0.0
C2398 C 0.45184 0.54648 0.19595 0.0
C2399 C 0.44326 0.53561 0.21324 0.0
C2400 C 0.46205 0.55415 0.22401 0.0
C2401 C 0.46054 0.56041 0.13076 0.0
C2402 C 0.47277 0.55454 0.216 0.0
C2403 C 0.48187 0.5596 0.24663 0.0
C2404 C 0.48048 0.56454 0.28544 0.0
C2405 C 0.47007 0.5649 0.29223 0.0
C2406 C 0.4608 0.55957 0.26187 0.0
H2407 H 0.4572 0.56195 0.09936 0.0
H2408 H 0.46249 0.56773 0.15384 0.0
H2409 H 0.4689 0.5605 0.12369 0.0
H2410 H 0.47383 0.55023 0.18739 0.0
H2411 H 0.48979 0.55913 0.24103 0.0
H2412 H 0.48215 0.89818 0.98491 0.0
H2413 H 0.46692 0.8867 0.03993 0.0
H2414 H 0.47548 0.91878 0.10872 0.0
H2415 H 0.49058 0.9302 0.05441 0.0
H2416 H 0.46972 0.89842 0.16436 0.0
H2417 H 0.43663 0.88973 0.03304 0.0
H2418 H 0.44763 0.88549 0.02529 0.0
H2419 H 0.45188 0.90079 0.02528 0.0
C2420 C 0.48101 0.90271 0.01257 0.0
C2421 C 0.48745 0.91509 0.01518 0.0
C2422 C 0.47227 0.89615 0.04374 0.0
C2423 C 0.46999 0.90192 0.07797 0.0
C2424 C 0.4771 0.91416 0.08252 0.0
H2425 H 0.43347 0.92238 0.20017 0.0
H2426 H 0.43996 0.91253 0.14895 0.0
C2427 C 0.48571 0.92069 0.05138 0.0
C2428 C 0.45941 0.89582 0.10617 0.0
H2429 H 0.43103 0.89016 0.10577 0.0
C2430 C 0.46108 0.89608 0.15177 0.0
C2431 C 0.44815 0.8927 0.08941 0.0
C2432 C 0.44586 0.89213 0.04061 0.0
C2433 C 0.45225 0.89485 0.18101 0.0
C2434 C 0.4415 0.89326 0.16392 0.0
C2435 C 0.4393 0.8914 0.11866 0.0
C2436 C 0.43442 0.89709 0.18968 0.0
C2437 C 0.45504 0.89673 0.22948 0.0
C2438 C 0.42848 0.89135 0.22841 0.0
C2439 C 0.42464 0.89699 0.25776 0.0
C2440 C 0.42682 0.90842 0.24857 0.0
C2441 C 0.43172 0.91358 0.20793 0.0
C2442 C 0.43541 0.90794 0.17864 0.0
H2443 H 0.46392 0.89807 0.23715 0.0
H2444 H 0.45464 0.90456 0.24108 0.0
H2445 H 0.44842 0.88897 0.2482 0.0
H2446 H 0.42755 0.88293 0.23729 0.0
H2447 H 0.42095 0.89289 0.28912 0.0
H2448 H 0.25658 0.38594 0.95765 0.0
H2449 H 0.25783 0.37096 0.00192 0.0
H2450 H 0.2226 0.34522 0.96164 0.0
H2451 H 0.22152 0.35979 0.9164 0.0
H2452 H 0.24612 0.36106 0.07037 0.0
H2453 H 0.23617 0.32455 0.95938 0.0
H2454 H 0.24034 0.33901 0.93844 0.0
H2455 H 0.22506 0.32837 0.94935 0.0
C2456 C 0.24926 0.37698 0.95723 0.0
C2457 C 0.23893 0.3741 0.9336 0.0
C2458 C 0.24998 0.36842 0.9826 0.0
C2459 C 0.2404 0.35684 0.98471 0.0
C2460 C 0.23031 0.35391 0.95958 0.0
H2461 H 0.20026 0.31811 0.18091 0.0
H2462 H 0.21603 0.33325 0.13782 0.0
C2463 C 0.22964 0.36237 0.934 0.0
C2464 C 0.23993 0.34826 0.01785 0.0
H2465 H 0.22631 0.31856 0.03338 0.0
C2466 C 0.24217 0.3518 0.06206 0.0
C2467 C 0.23529 0.33619 0.00763 0.0
C2468 C 0.23424 0.33189 0.96096 0.0
C2469 C 0.23835 0.34348 0.09615 0.0
C2470 C 0.2317 0.33134 0.08579 0.0
C2471 C 0.231 0.32785 0.0417 0.0
C2472 C 0.22356 0.32252 0.11822 0.0
C2473 C 0.24094 0.34784 0.14296 0.0
C2474 C 0.22233 0.31125 0.1217 0.0
C2475 C 0.21302 0.30235 0.14598 0.0
C2476 C 0.20475 0.30459 0.16681 0.0
C2477 C 0.20643 0.31604 0.16524 0.0
C2478 C 0.21562 0.32483 0.14097 0.0
H2479 H 0.24995 0.3556 0.14548 0.0
H2480 H 0.23469 0.35077 0.15326 0.0
H2481 H 0.24021 0.34093 0.16594 0.0
H2482 H 0.22828 0.3092 0.10414 0.0
H2483 H 0.21194 0.29361 0.14645 0.0
H2484 H 0.69365 0.88621 0.2358 0.0
H2485 H 0.67832 0.88551 0.18931 0.0
H2486 H 0.70158 0.9214 0.14868 0.0
H2487 H 0.71736 0.92198 0.19394 0.0
H2488 H 0.66622 0.89638 0.17887 0.0
H2489 H 0.69508 0.9053 0.03245 0.0
H2490 H 0.69937 0.90308 0.0862 0.0
H2491 H 0.70001 0.91676 0.07295 0.0
C2492 C 0.69554 0.89406 0.21753 0.0
C2493 C 0.70686 0.90407 0.21786 0.0
C2494 C 0.68669 0.89365 0.19097 0.0
C2495 C 0.68885 0.90328 0.1644 0.0
C2496 C 0.6998 0.91372 0.16776 0.0
H2497 H 0.62492 0.87612 -0.00247 0.0
H2498 H 0.64076 0.89126 0.04295 0.0
C2499 C 0.70878 0.91408 0.19399 0.0
C2500 C 0.67994 0.90162 0.13058 0.0
H2501 H 0.67511 0.89778 0.01993 0.0
C2502 C 0.66817 0.89691 0.14401 0.0
C2503 C 0.68251 0.90239 0.08503 0.0
C2504 C 0.69489 0.90708 0.06807 0.0
C2505 C 0.65884 0.8918 0.11372 0.0
C2506 C 0.66139 0.89183 0.06846 0.0
C2507 C 0.67319 0.8977 0.05466 0.0
C2508 C 0.65226 0.8839 0.03647 0.0
C2509 C 0.64636 0.8855 0.13095 0.0
C2510 C 0.65369 0.87513 0.0158 0.0
C2511 C 0.64483 0.86668 0.98934 0.0
C2512 C 0.63421 0.86669 0.98307 0.0
C2513 C 0.63295 0.8758 0.00201 0.0
C2514 C 0.64196 0.88441 0.02828 0.0
H2515 H 0.64603 0.88481 0.16738 0.0
H2516 H 0.64187 0.8904 0.12099 0.0
H2517 H 0.64136 0.87647 0.11703 0.0
H2518 H 0.66154 0.87453 0.02148 0.0
H2519 H 0.64617 0.85987 0.97517 0.0
H2520 H 0.12209 0.74178 0.99264 0.0
H2521 H 0.10573 0.74164 0.03222 0.0
H2522 H 0.11653 0.77642 0.9824 0.0
H2523 H 0.13229 0.77635 0.94155 0.0
H2524 H 0.10771 0.75435 0.09683 0.0
H2525 H 0.08261 0.76426 0.97869 0.0
H2526 H 0.09254 0.75931 0.96062 0.0
H2527 H 0.0977 0.77483 0.96818 0.0
C2528 C 0.12069 0.74921 0.98896 0.0
C2529 C 0.12857 0.75911 0.96415 0.0
C2530 C 0.11134 0.74913 0.01168 0.0
C2531 C 0.10971 0.75895 0.01005 0.0
C2532 C 0.11722 0.76853 0.98328 0.0
H2533 H 0.1133 0.80295 0.19379 0.0
H2534 H 0.11172 0.78612 0.15512 0.0
C2535 C 0.12642 0.76855 0.96022 0.0
C2536 C 0.10174 0.7603 0.04147 0.0
H2537 H 0.0869 0.77539 0.05041 0.0
C2538 C 0.1028 0.75856 0.08646 0.0
C2539 C 0.0948 0.76531 0.02869 0.0
C2540 C 0.09175 0.76587 0.98129 0.0
C2541 C 0.0986 0.76323 0.11862 0.0
C2542 C 0.09368 0.77021 0.10546 0.0
C2543 C 0.09107 0.77043 0.0608 0.0
C2544 C 0.09353 0.77912 0.13538 0.0
C2545 C 0.10012 0.76117 0.16636 0.0
C2546 C 0.08386 0.78098 0.13727 0.0
C2547 C 0.08483 0.79088 0.15905 0.0
C2548 C 0.09553 0.7991 0.17881 0.0
C2549 C 0.10493 0.79682 0.17885 0.0
C2550 C 0.10398 0.78705 0.15714 0.0
H2551 H 0.09839 0.75205 0.17124 0.0
H2552 H 0.10937 0.76724 0.17642 0.0
H2553 H 0.09412 0.7626 0.18802 0.0
H2554 H 0.07574 0.77506 0.12039 0.0
H2555 H 0.07745 0.79242 0.1583 0.0
H2556 H 0.3139 0.21036 0.26493 0.0
H2557 H 0.32792 0.22536 0.31362 0.0
H2558 H 0.3012 0.23307 0.358 0.0
H2559 H 0.2867 0.21728 0.31067 0.0
H2560 H 0.33769 0.24773 0.32949 0.0
H2561 H 0.30867 0.22403 0.47219 0.0
H2562 H 0.30495 0.21801 0.41757 0.0
H2563 H 0.3034 0.23045 0.43257 0.0
C2564 C 0.31095 0.21529 0.28456 0.0
C2565 C 0.29907 0.21237 0.28472 0.0
C2566 C 0.31906 0.22399 0.31237 0.0
C2567 C 0.3156 0.23017 0.34069 0.0
C2568 C 0.30401 0.22815 0.33771 0.0
H2569 H 0.37931 0.26034 0.50569 0.0
H2570 H 0.36394 0.26288 0.46949 0.0
C2571 C 0.29576 0.2192 0.31027 0.0
C2572 C 0.32396 0.2375 0.37598 0.0
H2573 H 0.32859 0.23585 0.48552 0.0
C2574 C 0.33568 0.24537 0.36386 0.0
C2575 C 0.32129 0.23466 0.42105 0.0
C2576 C 0.30893 0.22631 0.43687 0.0
C2577 C 0.34498 0.24891 0.394 0.0
C2578 C 0.34238 0.24491 0.43802 0.0
C2579 C 0.33055 0.23869 0.45155 0.0
C2580 C 0.35124 0.24421 0.46655 0.0
C2581 C 0.35747 0.25573 0.37716 0.0
C2582 C 0.349 0.23299 0.4794 0.0
C2583 C 0.35757 0.23156 0.50075 0.0
C2584 C 0.36874 0.2413 0.50949 0.0
C2585 C 0.37083 0.25265 0.49901 0.0
C2586 C 0.36209 0.2541 0.47796 0.0
H2587 H 0.35786 0.2571 0.34101 0.0
H2588 H 0.36208 0.26451 0.39313 0.0
H2589 H 0.36232 0.25105 0.38521 0.0
H2590 H 0.34074 0.22519 0.4711 0.0
H2591 H 0.35555 0.22269 0.50866 0.0
H2592 H 0.77553 0.13751 0.5433 0.0
H2593 H 0.77632 0.12298 0.49648 0.0
H2594 H 0.74022 0.10988 0.45745 0.0
H2595 H 0.73954 0.12497 0.50314 0.0
H2596 H 0.76548 0.09997 0.48812 0.0
H2597 H 0.75592 0.11885 0.34014 0.0
H2598 H 0.7583 0.12569 0.39336 0.0
H2599 H 0.74461 0.11254 0.38127 0.0
C2600 C 0.76767 0.13148 0.52527 0.0
C2601 C 0.75755 0.13259 0.52635 0.0
C2602 C 0.76812 0.1231 0.4985 0.0
C2603 C 0.75844 0.1155 0.47242 0.0
C2604 C 0.74794 0.11588 0.47619 0.0
H2605 H 0.78607 0.07801 0.31409 0.0
H2606 H 0.77042 0.07877 0.35566 0.0
C2607 C 0.74752 0.12444 0.50268 0.0
C2608 C 0.76003 0.10808 0.43913 0.0
H2609 H 0.76342 0.10633 0.32855 0.0
C2610 C 0.76483 0.10115 0.45314 0.0
C2611 C 0.75907 0.10956 0.39345 0.0
C2612 C 0.75427 0.1171 0.37593 0.0
C2613 C 0.76986 0.09676 0.42323 0.0
C2614 C 0.76961 0.09892 0.37769 0.0
C2615 C 0.76366 0.10474 0.36343 0.0
C2616 C 0.77741 0.09747 0.34577 0.0
C2617 C 0.77633 0.09084 0.44119 0.0
C2618 C 0.78601 0.10747 0.32352 0.0
C2619 C 0.79472 0.107 0.29895 0.0
C2620 C 0.79518 0.09652 0.29638 0.0
C2621 C 0.78606 0.08626 0.31585 0.0
C2622 C 0.77717 0.08671 0.34003 0.0
H2623 H 0.77729 0.09162 0.47752 0.0
H2624 H 0.77139 0.08133 0.43284 0.0
H2625 H 0.78526 0.09473 0.42652 0.0
H2626 H 0.78639 0.11588 0.3271 0.0
H2627 H 0.80151 0.11507 0.2841 0.0
H2628 H 0.92578 0.71039 0.31099 0.0
H2629 H 0.92549 0.69386 0.34973 0.0
H2630 H 0.89239 0.66996 0.28751 0.0
H2631 H 0.89289 0.68616 0.24771 0.0
H2632 H 0.91093 0.68214 0.40935 0.0
H2633 H 0.90562 0.64898 0.28894 0.0
H2634 H 0.91072 0.66403 0.2727 0.0
H2635 H 0.89515 0.65332 0.27394 0.0
C2636 C 0.91867 0.70155 0.30441 0.0
C2637 C 0.90929 0.69963 0.27658 0.0
C2638 C 0.91851 0.6921 0.32664 0.0
C2639 C 0.90899 0.68058 0.32137 0.0
C2640 C 0.90004 0.67863 0.29136 0.0
H2641 H 0.86017 0.63682 0.48443 0.0
H2642 H 0.87762 0.65285 0.45144 0.0
C2643 C 0.90026 0.688 0.26892 0.0
C2644 C 0.90706 0.67098 0.35232 0.0
H2645 H 0.8926 0.64097 0.35595 0.0
C2646 C 0.90733 0.67318 0.39764 0.0
C2647 C 0.90279 0.65925 0.33792 0.0
C2648 C 0.90372 0.65634 0.29067 0.0
C2649 C 0.90191 0.6639 0.42789 0.0
C2650 C 0.89572 0.65217 0.41225 0.0
C2651 C 0.89697 0.64996 0.36797 0.0
C2652 C 0.88613 0.64261 0.43838 0.0
C2653 C 0.90222 0.66682 0.47601 0.0
C2654 C 0.88492 0.63136 0.44183 0.0
C2655 C 0.87473 0.62201 0.46046 0.0
C2656 C 0.86555 0.62376 0.47526 0.0
C2657 C 0.86704 0.63513 0.4733 0.0
C2658 C 0.87714 0.6444 0.45489 0.0
H2659 H 0.9109 0.6745 0.48481 0.0
H2660 H 0.89543 0.66931 0.48282 0.0
H2661 H 0.90055 0.65926 0.49731 0.0
H2662 H 0.89168 0.62974 0.42883 0.0
H2663 H 0.87381 0.61333 0.46135 0.0
H2664 H 0.78857 0.703 0.80835 0.0
H2665 H 0.77165 0.68739 0.84909 0.0
H2666 H 0.79528 0.68865 0.95041 0.0
H2667 H 0.81201 0.70383 0.90962 0.0
H2668 H 0.77146 0.66563 0.86786 0.0
H2669 H 0.7667 0.6857 0.02027 0.0
H2670 H 0.77312 0.69408 0.97059 0.0
H2671 H 0.78185 0.69078 0.00731 0.0
C2672 C 0.79002 0.70013 0.83995 0.0
C2673 C 0.80151 0.70454 0.85608 0.0
C2674 C 0.7804 0.69125 0.86312 0.0
C2675 C 0.78221 0.68701 0.90312 0.0
C2676 C 0.79365 0.69197 0.92018 0.0
H2677 H 0.77448 0.63757 0.07091 0.0
H2678 H 0.77541 0.65453 0.03489 0.0
C2679 C 0.80321 0.70058 0.89674 0.0
C2680 C 0.77278 0.67618 0.924 0.0
H2681 H 0.76231 0.66531 0.02619 0.0
C2682 C 0.76902 0.66548 0.90204 0.0
C2683 C 0.76962 0.67605 0.96846 0.0
C2684 C 0.77294 0.68729 0.99291 0.0
C2685 C 0.7635 0.65472 0.92483 0.0
C2686 C 0.76142 0.6547 0.97059 0.0
C2687 C 0.76396 0.66531 0.99125 0.0
C2688 C 0.75914 0.6445 -0.00133 0.0
C2689 C 0.76111 0.64368 0.90065 0.0
C2690 C 0.74934 0.63322 0.99218 0.0
C2691 C 0.74885 0.62338 0.01255 0.0
C2692 C 0.75811 0.62473 0.03993 0.0
C2693 C 0.76728 0.63617 0.04955 0.0
C2694 C 0.7678 0.64592 0.02907 0.0
H2695 H 0.76461 0.64553 0.86654 0.0
H2696 H 0.76514 0.63915 0.91835 0.0
H2697 H 0.75147 0.63755 0.89885 0.0
H2698 H 0.7424 0.63195 0.96971 0.0
H2699 H 0.74159 0.6147 0.00481 0.0
H2700 H 0.37734 0.12341 0.02864 0.0
H2701 H 0.36158 0.10838 0.98277 0.0
H2702 H 0.33944 0.12301 0.01494 0.0
H2703 H 0.35466 0.13738 0.06235 0.0
H2704 H 0.32633 0.1004 0.00502 0.0
H2705 H 0.3574 0.11767 0.86324 0.0
H2706 H 0.36101 0.1107 0.90641 0.0
H2707 H 0.36143 0.12442 0.91667 0.0
C2708 C 0.36899 0.1232 0.02674 0.0
C2709 C 0.36736 0.13176 0.0485 0.0
C2710 C 0.36003 0.11468 0.00012 0.0
C2711 C 0.34944 0.11479 0.99402 0.0
C2712 C 0.34752 0.12273 0.01866 0.0
H2713 H 0.31221 0.119 0.7929 0.0
H2714 H 0.32605 0.11805 0.84289 0.0
C2715 C 0.35631 0.13104 0.04577 0.0
C2716 C 0.34076 0.10774 0.95918 0.0
H2717 H 0.33749 0.10642 0.84758 0.0
C2718 C 0.32876 0.10151 0.97053 0.0
C2719 C 0.34394 0.10907 0.91412 0.0
C2720 C 0.35662 0.11587 0.89914 0.0
C2721 C 0.31989 0.09783 0.93844 0.0
C2722 C 0.32312 0.09997 0.89352 0.0
C2723 C 0.33505 0.10489 0.88204 0.0
C2724 C 0.31484 0.09962 0.85925 0.0
C2725 C 0.30728 0.09272 0.9533 0.0
C2726 C 0.30395 0.08947 0.85048 0.0
C2727 C 0.2958 0.09005 0.82211 0.0
C2728 C 0.29852 0.10074 0.80154 0.0
C2729 C 0.30973 0.11063 0.80827 0.0
C2730 C 0.31773 0.11008 0.83687 0.0
H2731 H 0.30655 0.0933 0.9895 0.0
H2732 H 0.30315 0.09737 0.93729 0.0
H2733 H 0.30219 0.08329 0.94389 0.0
H2734 H 0.30163 0.0812 0.86636 0.0
H2735 H 0.28728 0.08225 0.81729 0.0
H2736 H 0.92299 0.2096 0.84017 0.0
H2737 H 0.9239 0.22762 0.86862 0.0
H2738 H 0.88653 0.21218 0.84662 0.0
H2739 H 0.88566 0.19462 0.81713 0.0
H2740 H 0.89804 0.23553 0.82944 0.0
H2741 H 0.91235 0.22724 0.99181 0.0
H2742 H 0.92176 0.2302 0.94489 0.0
H2743 H 0.90797 0.21662 0.94797 0.0
C2744 C 0.91505 0.21021 0.84054 0.0
C2745 C 0.90421 0.2006 0.82715 0.0
C2746 C 0.91556 0.22046 0.85712 0.0
C2747 C 0.90523 0.22117 0.8607 0.0
C2748 C 0.89463 0.21189 0.84436 0.0
H2749 H 0.86149 0.22331 0.02195 0.0
H2750 H 0.87848 0.2243 0.98647 0.0
C2751 C 0.89413 0.20177 0.82773 0.0
C2752 C 0.90472 0.23069 0.88538 0.0
H2753 H 0.90224 0.23758 0.99153 0.0
C2754 C 0.8993 0.23635 0.86478 0.0
C2755 C 0.90657 0.23191 0.9314 0.0
C2756 C 0.91245 0.22618 0.9556 0.0
C2757 C 0.89408 0.2416 0.88943 0.0
C2758 C 0.89467 0.2415 0.93591 0.0
C2759 C 0.90168 0.23749 0.95593 0.0
C2760 C 0.88571 0.24225 0.96354 0.0
C2761 C 0.88683 0.2459 0.86574 0.0
C2762 C 0.88428 0.25219 0.96411 0.0
C2763 C 0.87434 0.25159 0.98426 0.0
C2764 C 0.86579 0.24106 0.00416 0.0
C2765 C 0.8678 0.23151 0.00636 0.0
C2766 C 0.8776 0.23209 0.98628 0.0
H2767 H 0.88664 0.24455 0.82962 0.0
H2768 H 0.87763 0.24124 0.87811 0.0
H2769 H 0.89058 0.25545 0.87196 0.0
H2770 H 0.89055 0.26022 0.9476 0.0
H2771 H 0.87307 0.25913 0.98232 0.0
H2772 H 0.69317 0.79995 0.70415 0.0
H2773 H 0.67729 0.78299 0.66855 0.0
H2774 H 0.70092 0.77013 0.63586 0.0
H2775 H 0.71723 0.78765 0.67055 0.0
H2776 H 0.6901 0.76999 0.56621 0.0
H2777 H 0.65525 0.74945 0.68842 0.0
H2778 H 0.66019 0.76484 0.692 0.0
H2779 H 0.67026 0.75957 0.70453 0.0
C2780 C 0.69501 0.79342 0.6903 0.0
C2781 C 0.70652 0.79524 0.68979 0.0
C2782 C 0.68581 0.78355 0.67044 0.0
C2783 C 0.68776 0.77506 0.65014 0.0
C2784 C 0.69914 0.77648 0.65167 0.0
H2785 H 0.62197 0.7425 0.50564 0.0
H2786 H 0.63683 0.74024 0.54696 0.0
C2787 C 0.70845 0.78649 0.67154 0.0
C2788 C 0.67835 0.76609 0.62141 0.0
H2789 H 0.64845 0.75226 0.61345 0.0
C2790 C 0.68099 0.76571 0.57689 0.0
C2791 C 0.66642 0.75991 0.63495 0.0
C2792 C 0.66294 0.75837 0.68278 0.0
C2793 C 0.67204 0.76102 0.54508 0.0
C2794 C 0.66027 0.75711 0.558 0.0
C2795 C 0.6575 0.75571 0.603 0.0
C2796 C 0.6515 0.75704 0.52672 0.0
C2797 C 0.67541 0.76105 0.49767 0.0
C2798 C 0.65476 0.76711 0.5011 0.0
C2799 C 0.64637 0.76838 0.47748 0.0
C2800 C 0.6344 0.7597 0.47939 0.0
C2801 C 0.63112 0.74934 0.50344 0.0
C2802 C 0.63961 0.74804 0.52708 0.0
H2803 H 0.6823 0.75851 0.4952 0.0
H2804 H 0.66773 0.75491 0.4773 0.0
H2805 H 0.67923 0.77009 0.48413 0.0
H2806 H 0.66372 0.77441 0.50131 0.0
H2807 H 0.64925 0.77647 0.45931 0.0
H2808 H 0.21203 0.92846 0.68896 0.0
H2809 H 0.22838 0.92802 0.65139 0.0
H2810 H 0.22035 0.89625 0.72147 0.0
H2811 H 0.20448 0.89688 0.75998 0.0
H2812 H 0.24382 0.90969 0.70695 0.0
H2813 H 0.21895 0.90477 0.55187 0.0
H2814 H 0.22432 0.91825 0.58212 0.0
H2815 H 0.21279 0.90472 0.60485 0.0
C2816 C 0.21399 0.92159 0.69724 0.0
C2817 C 0.20677 0.91255 0.72673 0.0
C2818 C 0.22327 0.92129 0.67545 0.0
C2819 C 0.22537 0.9119 0.68259 0.0
C2820 C 0.21887 0.90355 0.71508 0.0
H2821 H 0.23105 0.8585 0.59761 0.0
H2822 H 0.23323 0.87575 0.63655 0.0
C2823 C 0.20972 0.90388 0.73697 0.0
C2824 C 0.23304 0.90958 0.65322 0.0
H2825 H 0.23243 0.89821 0.55159 0.0
C2826 C 0.2416 0.90753 0.67256 0.0
C2827 C 0.23025 0.90684 0.60813 0.0
C2828 C 0.22106 0.90868 0.58534 0.0
C2829 C 0.24644 0.90168 0.64948 0.0
C2830 C 0.24267 0.89784 0.60606 0.0
C2831 C 0.23526 0.90115 0.58501 0.0
C2832 C 0.24385 0.88818 0.58606 0.0
C2833 C 0.25486 0.89884 0.67279 0.0
C2834 C 0.24925 0.88947 0.54491 0.0
C2835 C 0.24815 0.87956 0.52283 0.0
C2836 C 0.24136 0.8683 0.54123 0.0
C2837 C 0.23637 0.86713 0.583 0.0
C2838 C 0.23769 0.87698 0.60535 0.0
H2839 H 0.25987 0.90546 0.69867 0.0
H2840 H 0.24979 0.89011 0.68894 0.0
H2841 H 0.26117 0.89847 0.64933 0.0
H2842 H 0.25387 0.89802 0.52919 0.0
H2843 H 0.25194 0.8806 0.49035 0.0
H2844 H 0.13029 0.34902 0.45416 0.0
H2845 H 0.11513 0.33519 0.50293 0.0
H2846 H 0.10449 0.36074 0.53204 0.0
H2847 H 0.1202 0.37503 0.48383 0.0
H2848 H 0.10673 0.35203 0.60483 0.0
H2849 H 0.08079 0.31399 0.49908 0.0
H2850 H 0.09586 0.31813 0.49027 0.0
H2851 H 0.09082 0.32829 0.47627 0.0
C2852 C 0.12463 0.35171 0.47015 0.0
C2853 C 0.12653 0.36319 0.46514 0.0
C2854 C 0.11579 0.34367 0.49777 0.0
C2855 C 0.10842 0.34676 0.52054 0.0
C2856 C 0.10998 0.35809 0.51447 0.0
H2857 H 0.07373 0.28506 0.68759 0.0
H2858 H 0.07301 0.30033 0.64349 0.0
C2859 C 0.11894 0.36624 0.48686 0.0
C2860 C 0.10033 0.33858 0.55468 0.0
H2861 H 0.0845 0.30912 0.57491 0.0
C2862 C 0.10153 0.34267 0.59812 0.0
C2863 C 0.09304 0.3264 0.54632 0.0
C2864 C 0.08996 0.32152 0.50027 0.0
C2865 C 0.097 0.33476 0.63355 0.0
C2866 C 0.09162 0.32251 0.62536 0.0
C2867 C 0.08899 0.31849 0.58174 0.0
C2868 C 0.09073 0.31402 0.65987 0.0
C2869 C 0.09853 0.33969 0.67941 0.0
C2870 C 0.10073 0.31666 0.68506 0.0
C2871 C 0.10108 0.30805 0.71075 0.0
C2872 C 0.09155 0.29644 0.71106 0.0
C2873 C 0.08124 0.29391 0.688 0.0
C2874 C 0.08083 0.30264 0.66268 0.0
H2875 H 0.09707 0.34734 0.67962 0.0
H2876 H 0.09237 0.33301 0.70313 0.0
H2877 H 0.10772 0.34296 0.69048 0.0
H2878 H 0.10866 0.32518 0.6826 0.0
H2879 H 0.10918 0.31035 0.728 0.0
H2880 H 0.03918 0.55438 0.77009 0.0
H2881 H 0.02153 0.55404 0.74396 0.0
H2882 H 0.03155 0.58648 0.81285 0.0
H2883 H 0.04947 0.58686 0.83951 0.0
H2884 H 0.0095 0.569 0.83471 0.0
H2885 H 0.01262 0.57099 0.65464 0.0
H2886 H 0.01706 0.5609 0.67403 0.0
H2887 H 0.02548 0.57623 0.68934 0.0
C2888 C 0.0378 0.5616 0.77895 0.0
C2889 C 0.04566 0.5706 0.8071 0.0
C2890 C 0.02775 0.56148 0.76349 0.0
C2891 C 0.02529 0.57035 0.77575 0.0
C2892 C 0.03336 0.57964 0.80248 0.0
H2893 H 0.95238 0.53682 0.68356 0.0
H2894 H 0.97109 0.5549 0.70026 0.0
C2895 C 0.04358 0.57985 0.81766 0.0
C2896 C 0.01342 0.56858 0.7661 0.0
H2897 H 0.9928 0.55691 0.68491 0.0
C2898 C 0.0059 0.5668 0.80172 0.0
C2899 C 0.0087 0.56602 0.72307 0.0
C2900 C 0.01646 0.56878 0.68313 0.0
C2901 C 0.99364 0.56095 0.79601 0.0
C2902 C 0.98886 0.55664 0.75388 0.0
C2903 C 0.99643 0.55997 0.71746 0.0
C2904 C 0.97671 0.54661 0.74856 0.0
C2905 C 0.98589 0.55859 0.83572 0.0
C2906 C 0.97367 0.53603 0.77028 0.0
C2907 C 0.9632 0.52578 0.76045 0.0
C2908 C 0.95547 0.52585 0.72868 0.0
C2909 C 0.95817 0.53655 0.70835 0.0
C2910 C 0.96883 0.54686 0.71784 0.0
H2911 H 0.99011 0.56598 0.85956 0.0
H2912 H 0.97712 0.55728 0.82646 0.0
H2913 H 0.98463 0.55053 0.85256 0.0
H2914 H 0.97972 0.53552 0.79323 0.0
H2915 H 0.96134 0.51769 0.7768 0.0
H2916 H 0.40639 0.45224 0.84646 0.0
H2917 H 0.40602 0.43671 0.80029 0.0
H2918 H 0.4415 0.44735 0.84103 0.0
H2919 H 0.4417 0.46224 0.8883 0.0
H2920 H 0.41794 0.43968 0.7319 0.0
H2921 H 0.42962 0.41348 0.83756 0.0
H2922 H 0.42482 0.42307 0.86062 0.0
H2923 H 0.44024 0.42848 0.84926 0.0
C2924 C 0.41394 0.45096 0.84669 0.0
C2925 C 0.4241 0.45854 0.87094 0.0
C2926 C 0.41373 0.4421 0.82016 0.0
C2927 C 0.42367 0.44067 0.81742 0.0
C2928 C 0.43354 0.44788 0.84343 0.0
H2929 H 0.46406 0.44478 0.61408 0.0
H2930 H 0.44824 0.44348 0.65881 0.0
C2931 C 0.4337 0.45658 0.87022 0.0
C2932 C 0.42468 0.43317 0.78283 0.0
H2933 H 0.43952 0.41844 0.76361 0.0
C2934 C 0.4223 0.43469 0.73902 0.0
C2935 C 0.42987 0.42615 0.79144 0.0
C2936 C 0.43111 0.4226 0.83742 0.0
C2937 C 0.4264 0.43077 0.70388 0.0
C2938 C 0.43352 0.4257 0.71275 0.0
C2939 C 0.43447 0.42273 0.75637 0.0
C2940 C 0.44165 0.4254 0.67919 0.0
C2941 C 0.42346 0.4326 0.65766 0.0
C2942 C 0.44343 0.4157 0.67546 0.0
C2943 C 0.45283 0.41655 0.65047 0.0
C2944 C 0.46059 0.42711 0.62875 0.0
C2945 C 0.45828 0.43649 0.63022 0.0
C2946 C 0.44906 0.4357 0.65554 0.0
H2947 H 0.41427 0.43088 0.65603 0.0
H2948 H 0.42932 0.44192 0.64794 0.0
H2949 H 0.42447 0.42676 0.63371 0.0
H2950 H 0.4379 0.40766 0.6935 0.0
H2951 H 0.45435 0.40915 0.65004 0.0
H2952 H 0.54371 0.94981 0.84975 0.0
H2953 H 0.56045 0.96611 0.81206 0.0
H2954 H 0.54902 0.98993 0.85825 0.0
H2955 H 0.53289 0.97402 0.89733 0.0
H2956 H 0.55882 0.97659 0.74631 0.0
H2957 H 0.58275 0.01208 0.86373 0.0
H2958 H 0.57288 0.99724 0.88225 0.0
H2959 H 0.56758 0.00743 0.87294 0.0
C2960 C 0.54506 0.95862 0.85319 0.0
C2961 C 0.53687 0.96057 0.8762 0.0
C2962 C 0.55463 0.96795 0.83152 0.0
C2963 C 0.55616 0.97937 0.83246 0.0
C2964 C 0.54839 0.98137 0.8579 0.0
H2965 H 0.55185 0.01815 0.64522 0.0
H2966 H 0.55394 0.00343 0.68555 0.0
C2967 C 0.53898 0.97215 0.8799 0.0
C2968 C 0.56425 0.98866 0.80117 0.0
H2969 H 0.57841 0.01855 0.79093 0.0
C2970 C 0.56348 0.98575 0.75635 0.0
C2971 C 0.57087 0.00067 0.81352 0.0
C2972 C 0.57366 0.00446 0.86088 0.0
C2973 C 0.5676 0.9945 0.72381 0.0
C2974 C 0.57212 0.0064 0.73635 0.0
C2975 C 0.57451 0.00941 0.78097 0.0
C2976 C 0.57199 0.01517 0.70565 0.0
C2977 C 0.56637 0.99081 0.67626 0.0
C2978 C 0.58141 0.02685 0.70343 0.0
C2979 C 0.58013 0.03547 0.68063 0.0
C2980 C 0.56937 0.03254 0.66021 0.0
C2981 C 0.56025 0.02074 0.66063 0.0
C2982 C 0.5615 0.01222 0.68331 0.0
H2983 H 0.56842 0.98359 0.67224 0.0
H2984 H 0.55712 0.98731 0.66557 0.0
H2985 H 0.57229 0.99825 0.65453 0.0
H2986 H 0.58955 0.02939 0.72076 0.0
H2987 H 0.58731 0.0445 0.68107 0.0
H2988 H 0.45746 0.01609 0.09078 0.0
H2989 H 0.44147 0.00051 0.1316 0.0
H2990 H 0.43216 0.02536 0.18431 0.0
H2991 H 0.44876 0.04131 0.14464 0.0
H2992 H 0.43395 0.01416 0.24793 0.0
H2993 H 0.40734 0.97975 0.1299 0.0
H2994 H 0.42222 0.9838 0.11756 0.0
H2995 H 0.41752 0.99457 0.11191 0.0
C2996 C 0.45187 0.01827 0.11011 0.0
C2997 C 0.45452 0.03001 0.11481 0.0
C2998 C 0.44254 0.00924 0.13312 0.0
C2999 C 0.43538 0.01163 0.1607 0.0
C3000 C 0.43749 0.02324 0.1631 0.0
H3001 H 0.40361 0.94557 0.30499 0.0
H3002 H 0.40157 0.96143 0.27058 0.0
C3003 C 0.44697 0.03236 0.14032 0.0
C3004 C 0.42734 0.00239 0.19221 0.0
H3005 H 0.41199 0.97245 0.20002 0.0
C3006 C 0.42878 0.00507 0.23731 0.0
C3007 C 0.42006 0.99051 0.17919 0.0
C3008 C 0.41661 0.98707 0.1319 0.0
C3009 C 0.42466 0.99613 0.26908 0.0
C3010 C 0.41945 0.98425 0.2553 0.0
C3011 C 0.4164 0.98156 0.21082 0.0
C3012 C 0.41953 0.97506 0.28381 0.0
C3013 C 0.42664 0.99956 0.31696 0.0
C3014 C 0.43019 0.97745 0.3035 0.0
C3015 C 0.43133 0.9685 0.3232 0.0
C3016 C 0.42192 0.95684 0.32315 0.0
C3017 C 0.41101 0.95448 0.30567 0.0
C3018 C 0.40985 0.96353 0.2859 0.0
H3019 H 0.42505 0.007 0.32314 0.0
H3020 H 0.42079 0.9921 0.33875 0.0
H3021 H 0.43596 0.00265 0.32566 0.0
H3022 H 0.43793 0.98611 0.30122 0.0
H3023 H 0.43985 0.97065 0.33644 0.0
H3024 H 0.03158 0.47153 0.40198 0.0
H3025 H 0.01556 0.4561 0.36044 0.0
H3026 H 0.03921 0.44535 0.30678 0.0
H3027 H 0.05559 0.46131 0.34728 0.0
H3028 H 0.02806 0.44799 0.24344 0.0
H3029 H 0.99414 0.42192 0.36483 0.0
H3030 H 0.99867 0.437 0.37568 0.0
H3031 H 0.00916 0.43194 0.38111 0.0
C3032 C 0.03339 0.46574 0.38226 0.0
C3033 C 0.04493 0.46776 0.37771 0.0
C3034 C 0.02412 0.45676 0.35877 0.0
C3035 C 0.02606 0.44936 0.33085 0.0
C3036 C 0.03745 0.45089 0.32826 0.0
H3037 H 0.95918 0.41186 0.18915 0.0
H3038 H 0.97617 0.41281 0.22678 0.0
C3039 C 0.04681 0.46 0.35153 0.0
C3040 C 0.01657 0.44145 0.29991 0.0
H3041 H 0.98662 0.42528 0.29408 0.0
C3042 C 0.01903 0.44271 0.25463 0.0
C3043 C 0.00479 0.43414 0.31389 0.0
C3044 C 0.00161 0.43108 0.36162 0.0
C3045 C 0.00994 0.43807 0.22337 0.0
C3046 C 0.99808 0.43244 0.23778 0.0
C3047 C 0.99567 0.42992 0.28274 0.0
C3048 C 0.98832 0.43088 0.20838 0.0
C3049 C 0.01318 0.43969 0.17528 0.0
C3050 C 0.98949 0.4406 0.18468 0.0
C3051 C 0.97989 0.44004 0.1628 0.0
C3052 C 0.96874 0.42982 0.16483 0.0
C3053 C 0.96764 0.41987 0.18689 0.0
C3054 C 0.97735 0.42041 0.20851 0.0
H3055 H 0.0211 0.43886 0.16956 0.0
H3056 H 0.00588 0.43316 0.15438 0.0
H3057 H 0.01542 0.44869 0.16494 0.0
H3058 H 0.99769 0.44892 0.18512 0.0
H3059 H 0.98109 0.44789 0.14632 0.0
H3060 H 0.55454 0.53961 0.14217 0.0
H3061 H 0.55642 0.55722 0.17495 0.0
H3062 H 0.59314 0.56984 0.2023 0.0
H3063 H 0.59115 0.55168 0.17052 0.0
H3064 H 0.58352 0.57123 0.27284 0.0
H3065 H 0.56818 0.59057 0.14982 0.0
H3066 H 0.55755 0.57521 0.14889 0.0
H3067 H 0.5727 0.5801 0.13441 0.0
C3068 C 0.56312 0.54621 0.15417 0.0
C3069 C 0.57266 0.54416 0.15415 0.0
C3070 C 0.56424 0.55645 0.17241 0.0
C3071 C 0.57499 0.56507 0.19047 0.0
C3072 C 0.58478 0.56339 0.18822 0.0
H3073 H 0.54133 0.59719 0.32915 0.0
H3074 H 0.55918 0.60041 0.29062 0.0
C3075 C 0.58363 0.55302 0.17 0.0
C3076 C 0.57508 0.57451 0.21801 0.0
H3077 H 0.55917 0.58847 0.22585 0.0
C3078 C 0.5786 0.57541 0.26214 0.0
C3079 C 0.56928 0.58062 0.20433 0.0
C3080 C 0.56688 0.58167 0.15655 0.0
C3081 C 0.57467 0.58045 0.29381 0.0
C3082 C 0.56663 0.58416 0.28124 0.0
C3083 C 0.56489 0.58516 0.23622 0.0
C3084 C 0.55796 0.58414 0.31292 0.0
C3085 C 0.57851 0.58095 0.34086 0.0
C3086 C 0.55153 0.57416 0.3395 0.0
C3087 C 0.54148 0.57238 0.3616 0.0
C3088 C 0.53741 0.58041 0.35716 0.0
C3089 C 0.54425 0.59085 0.33323 0.0
C3090 C 0.55444 0.59268 0.3111 0.0
H3091 H 0.58805 0.58385 0.34216 0.0
H3092 H 0.57688 0.58706 0.361 0.0
H3093 H 0.57371 0.572 0.35547 0.0
H3094 H 0.55369 0.56721 0.34059 0.0
H3095 H 0.53646 0.56428 0.37994 0.0
loop_
_geom_bond_atom_site_label_1
_geom_bond_atom_site_label_2
_geom_bond_distance
_geom_bond_site_symmetry_2
_ccdc_geom_bond_type
Zn0 O3 2.031 . S
Zn0 O5 2.049 . S
Zn0 O10 2.067 . S
Zn1 O2 1.962 . S
Zn1 O4 1.986 . S
Zn1 O6 1.996 . S
Zn1 O9 1.943 . S
O2 Zn1 1.962 . S
O2 C7 1.254 . S
O3 Zn0 2.031 . S
O3 C7 1.269 . S
O4 Zn1 1.986 . S
O4 C11 1.262 . S
O5 Zn0 2.049 . S
O5 C13 1.260 . S
O6 Zn1 1.996 . S
O6 C13 1.257 . S
C7 O2 1.254 . S
C7 O3 1.269 . S
C8 O9 1.249 . S
C8 O10 1.270 . S
O9 Zn1 1.943 . S
O9 C8 1.249 . S
O10 Zn0 2.067 . S
O10 C8 1.270 . S
C11 O4 1.262 . S
C11 O12 1.232 . S
O12 C11 1.232 . S
C13 O5 1.260 . S
C13 O6 1.257 . S
Zn14 O17 2.031 . S
Zn14 O19 2.049 . S
Zn14 O24 2.067 . S
Zn15 O16 1.962 . S
Zn15 O18 1.986 . S
Zn15 O20 1.996 . S
Zn15 O23 1.943 . S
O16 Zn15 1.962 . S
O16 C21 1.254 . S
O17 Zn14 2.031 . S
O17 C21 1.269 . S
O18 Zn15 1.986 . S
O18 C25 1.262 . S
O19 Zn14 2.049 . S
O19 C27 1.260 . S
O20 Zn15 1.996 . S
O20 C27 1.257 . S
C21 O16 1.254 . S
C21 O17 1.269 . S
C22 O23 1.249 . S
C22 O24 1.270 . S
O23 Zn15 1.943 . S
O23 C22 1.249 . S
O24 Zn14 2.067 . S
O24 C22 1.270 . S
C25 O18 1.262 . S
C25 O26 1.232 . S
O26 C25 1.232 . S
C27 O19 1.260 . S
C27 O20 1.257 . S
Zn28 O31 2.031 . S
Zn28 O33 2.049 . S
Zn28 O38 2.067 . S
Zn29 O30 1.962 . S
Zn29 O32 1.986 . S
Zn29 O34 1.996 . S
Zn29 O37 1.943 . S
O30 Zn29 1.962 . S
O30 C35 1.254 . S
O31 Zn28 2.031 . S
O31 C35 1.269 . S
O32 Zn29 1.986 . S
O32 C39 1.262 . S
O33 Zn28 2.049 . S
O33 C41 1.260 . S
O34 Zn29 1.996 . S
O34 C41 1.257 . S
C35 O30 1.254 . S
C35 O31 1.269 . S
C36 O37 1.249 . S
C36 O38 1.270 . S
O37 Zn29 1.943 . S
O37 C36 1.249 . S
O38 Zn28 2.067 . S
O38 C36 1.270 . S
C39 O32 1.262 . S
C39 O40 1.232 . S
O40 C39 1.232 . S
C41 O33 1.260 . S
C41 O34 1.257 . S
Zn42 O45 2.031 . S
Zn42 O47 2.049 . S
Zn42 O52 2.067 . S
Zn43 O44 1.962 . S
Zn43 O46 1.986 . S
Zn43 O48 1.996 . S
Zn43 O51 1.943 . S
O44 Zn43 1.962 . S
O44 C49 1.254 . S
O45 Zn42 2.031 . S
O45 C49 1.269 . S
O46 Zn43 1.986 . S
O46 C53 1.262 . S
O47 Zn42 2.049 . S
O47 C55 1.260 . S
O48 Zn43 1.996 . S
O48 C55 1.257 . S
C49 O44 1.254 . S
C49 O45 1.269 . S
C50 O51 1.249 . S
C50 O52 1.270 . S
O51 Zn43 1.943 . S
O51 C50 1.249 . S
O52 Zn42 2.067 . S
O52 C50 1.270 . S
C53 O46 1.262 . S
C53 O54 1.232 . S
O54 C53 1.232 . S
C55 O47 1.260 . S
C55 O48 1.257 . S
Zn56 O59 2.031 . S
Zn56 O61 2.049 . S
Zn56 O66 2.067 . S
Zn57 O58 1.962 . S
Zn57 O60 1.986 . S
Zn57 O62 1.996 . S
Zn57 O65 1.943 . S
O58 Zn57 1.962 . S
O58 C63 1.254 . S
O59 Zn56 2.031 . S
O59 C63 1.269 . S
O60 Zn57 1.986 . S
O60 C67 1.262 . S
O61 Zn56 2.049 . S
O61 C69 1.260 . S
O62 Zn57 1.996 . S
O62 C69 1.257 . S
C63 O58 1.254 . S
C63 O59 1.269 . S
C64 O65 1.249 . S
C64 O66 1.270 . S
O65 Zn57 1.943 . S
O65 C64 1.249 . S
O66 Zn56 2.067 . S
O66 C64 1.270 . S
C67 O60 1.262 . S
C67 O68 1.232 . S
O68 C67 1.232 . S
C69 O61 1.260 . S
C69 O62 1.257 . S
Zn70 O73 2.031 . S
Zn70 O75 2.049 . S
Zn70 O80 2.067 . S
Zn71 O72 1.962 . S
Zn71 O74 1.986 . S
Zn71 O76 1.996 . S
Zn71 O79 1.943 . S
O72 Zn71 1.962 . S
O72 C77 1.254 . S
O73 Zn70 2.031 . S
O73 C77 1.269 . S
O74 Zn71 1.986 . S
O74 C81 1.262 . S
O75 Zn70 2.049 . S
O75 C83 1.260 . S
O76 Zn71 1.996 . S
O76 C83 1.257 . S
C77 O72 1.254 . S
C77 O73 1.269 . S
C78 O79 1.249 . S
C78 O80 1.270 . S
O79 Zn71 1.943 . S
O79 C78 1.249 . S
O80 Zn70 2.067 . S
O80 C78 1.270 . S
C81 O74 1.262 . S
C81 O82 1.232 . S
O82 C81 1.232 . S
C83 O75 1.260 . S
C83 O76 1.257 . S
Zn84 O87 2.031 . S
Zn84 O89 2.049 . S
Zn84 O94 2.067 . S
Zn85 O86 1.962 . S
Zn85 O88 1.986 . S
Zn85 O90 1.996 . S
Zn85 O93 1.943 . S
O86 Zn85 1.962 . S
O86 C91 1.254 . S
O87 Zn84 2.031 . S
O87 C91 1.269 . S
O88 Zn85 1.986 . S
O88 C95 1.262 . S
O89 Zn84 2.049 . S
O89 C97 1.260 . S
O90 Zn85 1.996 . S
O90 C97 1.257 . S
C91 O86 1.254 . S
C91 O87 1.269 . S
C92 O93 1.249 . S
C92 O94 1.270 . S
O93 Zn85 1.943 . S
O93 C92 1.249 . S
O94 Zn84 2.067 . S
O94 C92 1.270 . S
C95 O88 1.262 . S
C95 O96 1.232 . S
O96 C95 1.232 . S
C97 O89 1.260 . S
C97 O90 1.257 . S
Zn98 O101 2.031 . S
Zn98 O103 2.049 . S
Zn98 O108 2.067 . S
Zn99 O100 1.962 . S
Zn99 O102 1.986 . S
Zn99 O104 1.996 . S
Zn99 O107 1.943 . S
O100 Zn99 1.962 . S
O100 C105 1.254 . S
O101 Zn98 2.031 . S
O101 C105 1.269 . S
O102 Zn99 1.986 . S
O102 C109 1.262 . S
O103 Zn98 2.049 . S
O103 C111 1.260 . S
O104 Zn99 1.996 . S
O104 C111 1.257 . S
C105 O100 1.254 . S
C105 O101 1.269 . S
C106 O107 1.249 . S
C106 O108 1.270 . S
O107 Zn99 1.943 . S
O107 C106 1.249 . S
O108 Zn98 2.067 . S
O108 C106 1.270 . S
C109 O102 1.262 . S
C109 O110 1.232 . S
O110 C109 1.232 . S
C111 O103 1.260 . S
C111 O104 1.257 . S
Zn112 O115 2.031 . S
Zn112 O117 2.049 . S
Zn112 O122 2.067 . S
Zn113 O114 1.962 . S
Zn113 O116 1.986 . S
Zn113 O118 1.996 . S
Zn113 O121 1.943 . S
O114 Zn113 1.962 . S
O114 C119 1.254 . S
O115 Zn112 2.031 . S
O115 C119 1.269 . S
O116 Zn113 1.986 . S
O116 C123 1.262 . S
O117 Zn112 2.049 . S
O117 C125 1.260 . S
O118 Zn113 1.996 . S
O118 C125 1.257 . S
C119 O114 1.254 . S
C119 O115 1.269 . S
C120 O121 1.249 . S
C120 O122 1.270 . S
O121 Zn113 1.943 . S
O121 C120 1.249 . S
O122 Zn112 2.067 . S
O122 C120 1.270 . S
C123 O116 1.262 . S
C123 O124 1.232 . S
O124 C123 1.232 . S
C125 O117 1.260 . S
C125 O118 1.257 . S
Zn126 O129 2.031 . S
Zn126 O131 2.049 . S
Zn126 O136 2.067 . S
Zn127 O128 1.962 . S
Zn127 O130 1.986 . S
Zn127 O132 1.996 . S
Zn127 O135 1.943 . S
O128 Zn127 1.962 . S
O128 C133 1.254 . S
O129 Zn126 2.031 . S
O129 C133 1.269 . S
O130 Zn127 1.986 . S
O130 C137 1.262 . S
O131 Zn126 2.049 . S
O131 C139 1.260 . S
O132 Zn127 1.996 . S
O132 C139 1.257 . S
C133 O128 1.254 . S
C133 O129 1.269 . S
C134 O135 1.249 . S
C134 O136 1.270 . S
O135 Zn127 1.943 . S
O135 C134 1.249 . S
O136 Zn126 2.067 . S
O136 C134 1.270 . S
C137 O130 1.262 . S
C137 O138 1.232 . S
O138 C137 1.232 . S
C139 O131 1.260 . S
C139 O132 1.257 . S
Zn140 O143 2.031 . S
Zn140 O145 2.049 . S
Zn140 O150 2.067 . S
Zn141 O142 1.962 . S
Zn141 O144 1.986 . S
Zn141 O146 1.996 . S
Zn141 O149 1.943 . S
O142 Zn141 1.962 . S
O142 C147 1.254 . S
O143 Zn140 2.031 . S
O143 C147 1.269 . S
O144 Zn141 1.986 . S
O144 C151 1.262 . S
O145 Zn140 2.049 . S
O145 C153 1.260 . S
O146 Zn141 1.996 . S
O146 C153 1.257 . S
C147 O142 1.254 . S
C147 O143 1.269 . S
C148 O149 1.249 . S
C148 O150 1.270 . S
O149 Zn141 1.943 . S
O149 C148 1.249 . S
O150 Zn140 2.067 . S
O150 C148 1.270 . S
C151 O144 1.262 . S
C151 O152 1.232 . S
O152 C151 1.232 . S
C153 O145 1.260 . S
C153 O146 1.257 . S
Zn154 O157 2.031 . S
Zn154 O159 2.049 . S
Zn154 O164 2.067 . S
Zn155 O156 1.962 . S
Zn155 O158 1.986 . S
Zn155 O160 1.996 . S
Zn155 O163 1.943 . S
O156 Zn155 1.962 . S
O156 C161 1.254 . S
O157 Zn154 2.031 . S
O157 C161 1.269 . S
O158 Zn155 1.986 . S
O158 C165 1.262 . S
O159 Zn154 2.049 . S
O159 C167 1.260 . S
O160 Zn155 1.996 . S
O160 C167 1.257 . S
C161 O156 1.254 . S
C161 O157 1.269 . S
C162 O163 1.249 . S
C162 O164 1.270 . S
O163 Zn155 1.943 . S
O163 C162 1.249 . S
O164 Zn154 2.067 . S
O164 C162 1.270 . S
C165 O158 1.262 . S
C165 O166 1.232 . S
O166 C165 1.232 . S
C167 O159 1.260 . S
C167 O160 1.257 . S
Zn168 O171 2.031 . S
Zn168 O173 2.049 . S
Zn168 O178 2.067 . S
Zn169 O170 1.962 . S
Zn169 O172 1.986 . S
Zn169 O174 1.996 . S
Zn169 O177 1.943 . S
O170 Zn169 1.962 . S
O170 C175 1.254 . S
O171 Zn168 2.031 . S
O171 C175 1.269 . S
O172 Zn169 1.986 . S
O172 C179 1.262 . S
O173 Zn168 2.049 . S
O173 C181 1.260 . S
O174 Zn169 1.996 . S
O174 C181 1.257 . S
C175 O170 1.254 . S
C175 O171 1.269 . S
C176 O177 1.249 . S
C176 O178 1.270 . S
O177 Zn169 1.943 . S
O177 C176 1.249 . S
O178 Zn168 2.067 . S
O178 C176 1.270 . S
C179 O172 1.262 . S
C179 O180 1.232 . S
O180 C179 1.232 . S
C181 O173 1.260 . S
C181 O174 1.257 . S
Zn182 O185 2.031 . S
Zn182 O187 2.049 . S
Zn182 O192 2.067 . S
Zn183 O184 1.962 . S
Zn183 O186 1.986 . S
Zn183 O188 1.996 . S
Zn183 O191 1.943 . S
O184 Zn183 1.962 . S
O184 C189 1.254 . S
O185 Zn182 2.031 . S
O185 C189 1.269 . S
O186 Zn183 1.986 . S
O186 C193 1.262 . S
O187 Zn182 2.049 . S
O187 C195 1.260 . S
O188 Zn183 1.996 . S
O188 C195 1.257 . S
C189 O184 1.254 . S
C189 O185 1.269 . S
C190 O191 1.249 . S
C190 O192 1.270 . S
O191 Zn183 1.943 . S
O191 C190 1.249 . S
O192 Zn182 2.067 . S
O192 C190 1.270 . S
C193 O186 1.262 . S
C193 O194 1.232 . S
O194 C193 1.232 . S
C195 O187 1.260 . S
C195 O188 1.257 . S
Zn196 O199 2.031 . S
Zn196 O201 2.049 . S
Zn196 O206 2.067 . S
Zn197 O198 1.962 . S
Zn197 O200 1.986 . S
Zn197 O202 1.996 . S
Zn197 O205 1.943 . S
O198 Zn197 1.962 . S
O198 C203 1.254 . S
O199 Zn196 2.031 . S
O199 C203 1.269 . S
O200 Zn197 1.986 . S
O200 C207 1.262 . S
O201 Zn196 2.049 . S
O201 C209 1.260 . S
O202 Zn197 1.996 . S
O202 C209 1.257 . S
C203 O198 1.254 . S
C203 O199 1.269 . S
C204 O205 1.249 . S
C204 O206 1.270 . S
O205 Zn197 1.943 . S
O205 C204 1.249 . S
O206 Zn196 2.067 . S
O206 C204 1.270 . S
C207 O200 1.262 . S
C207 O208 1.232 . S
O208 C207 1.232 . S
C209 O201 1.260 . S
C209 O202 1.257 . S
Zn210 O213 2.031 . S
Zn210 O215 2.049 . S
Zn210 O220 2.067 . S
Zn211 O212 1.962 . S
Zn211 O214 1.986 . S
Zn211 O216 1.996 . S
Zn211 O219 1.943 . S
O212 Zn211 1.962 . S
O212 C217 1.254 . S
O213 Zn210 2.031 . S
O213 C217 1.269 . S
O214 Zn211 1.986 . S
O214 C221 1.262 . S
O215 Zn210 2.049 . S
O215 C223 1.260 . S
O216 Zn211 1.996 . S
O216 C223 1.257 . S
C217 O212 1.254 . S
C217 O213 1.269 . S
C218 O219 1.249 . S
C218 O220 1.270 . S
O219 Zn211 1.943 . S
O219 C218 1.249 . S
O220 Zn210 2.067 . S
O220 C218 1.270 . S
C221 O214 1.262 . S
C221 O222 1.232 . S
O222 C221 1.232 . S
C223 O215 1.260 . S
C223 O216 1.257 . S
Zn224 O227 2.031 . S
Zn224 O229 2.049 . S
Zn224 O234 2.067 . S
Zn225 O226 1.962 . S
Zn225 O228 1.986 . S
Zn225 O230 1.996 . S
Zn225 O233 1.943 . S
O226 Zn225 1.962 . S
O226 C231 1.254 . S
O227 Zn224 2.031 . S
O227 C231 1.269 . S
O228 Zn225 1.986 . S
O228 C235 1.262 . S
O229 Zn224 2.049 . S
O229 C237 1.260 . S
O230 Zn225 1.996 . S
O230 C237 1.257 . S
C231 O226 1.254 . S
C231 O227 1.269 . S
C232 O233 1.249 . S
C232 O234 1.270 . S
O233 Zn225 1.943 . S
O233 C232 1.249 . S
O234 Zn224 2.067 . S
O234 C232 1.270 . S
C235 O228 1.262 . S
C235 O236 1.232 . S
O236 C235 1.232 . S
C237 O229 1.260 . S
C237 O230 1.257 . S
Zn238 O241 2.031 . S
Zn238 O243 2.049 . S
Zn238 O248 2.067 . S
Zn239 O240 1.962 . S
Zn239 O242 1.986 . S
Zn239 O244 1.996 . S
Zn239 O247 1.943 . S
O240 Zn239 1.962 . S
O240 C245 1.254 . S
O241 Zn238 2.031 . S
O241 C245 1.269 . S
O242 Zn239 1.986 . S
O242 C249 1.262 . S
O243 Zn238 2.049 . S
O243 C251 1.260 . S
O244 Zn239 1.996 . S
O244 C251 1.257 . S
C245 O240 1.254 . S
C245 O241 1.269 . S
C246 O247 1.249 . S
C246 O248 1.270 . S
O247 Zn239 1.943 . S
O247 C246 1.249 . S
O248 Zn238 2.067 . S
O248 C246 1.270 . S
C249 O242 1.262 . S
C249 O250 1.232 . S
O250 C249 1.232 . S
C251 O243 1.260 . S
C251 O244 1.257 . S
Zn252 O255 2.031 . S
Zn252 O257 2.049 . S
Zn252 O262 2.067 . S
Zn253 O254 1.962 . S
Zn253 O256 1.986 . S
Zn253 O258 1.996 . S
Zn253 O261 1.943 . S
O254 Zn253 1.962 . S
O254 C259 1.254 . S
O255 Zn252 2.031 . S
O255 C259 1.269 . S
O256 Zn253 1.986 . S
O256 C263 1.262 . S
O257 Zn252 2.049 . S
O257 C265 1.260 . S
O258 Zn253 1.996 . S
O258 C265 1.257 . S
C259 O254 1.254 . S
C259 O255 1.269 . S
C260 O261 1.249 . S
C260 O262 1.270 . S
O261 Zn253 1.943 . S
O261 C260 1.249 . S
O262 Zn252 2.067 . S
O262 C260 1.270 . S
C263 O256 1.262 . S
C263 O264 1.232 . S
O264 C263 1.232 . S
C265 O257 1.260 . S
C265 O258 1.257 . S
Zn266 O269 2.031 . S
Zn266 O271 2.049 . S
Zn266 O276 2.067 . S
Zn267 O268 1.962 . S
Zn267 O270 1.986 . S
Zn267 O272 1.996 . S
Zn267 O275 1.943 . S
O268 Zn267 1.962 . S
O268 C273 1.254 . S
O269 Zn266 2.031 . S
O269 C273 1.269 . S
O270 Zn267 1.986 . S
O270 C277 1.262 . S
O271 Zn266 2.049 . S
O271 C279 1.260 . S
O272 Zn267 1.996 . S
O272 C279 1.257 . S
C273 O268 1.254 . S
C273 O269 1.269 . S
C274 O275 1.249 . S
C274 O276 1.270 . S
O275 Zn267 1.943 . S
O275 C274 1.249 . S
O276 Zn266 2.067 . S
O276 C274 1.270 . S
C277 O270 1.262 . S
C277 O278 1.232 . S
O278 C277 1.232 . S
C279 O271 1.260 . S
C279 O272 1.257 . S
Zn280 O283 2.031 . S
Zn280 O285 2.049 . S
Zn280 O290 2.067 . S
Zn281 O282 1.962 . S
Zn281 O284 1.986 . S
Zn281 O286 1.996 . S
Zn281 O289 1.943 . S
O282 Zn281 1.962 . S
O282 C287 1.254 . S
O283 Zn280 2.031 . S
O283 C287 1.269 . S
O284 Zn281 1.986 . S
O284 C291 1.262 . S
O285 Zn280 2.049 . S
O285 C293 1.260 . S
O286 Zn281 1.996 . S
O286 C293 1.257 . S
C287 O282 1.254 . S
C287 O283 1.269 . S
C288 O289 1.249 . S
C288 O290 1.270 . S
O289 Zn281 1.943 . S
O289 C288 1.249 . S
O290 Zn280 2.067 . S
O290 C288 1.270 . S
C291 O284 1.262 . S
C291 O292 1.232 . S
O292 C291 1.232 . S
C293 O285 1.260 . S
C293 O286 1.257 . S
Zn294 O297 2.031 1_554 S
Zn294 O299 2.049 . S
Zn294 O304 2.067 1_554 S
Zn295 O296 1.962 . S
Zn295 O298 1.986 . S
Zn295 O300 1.996 . S
Zn295 O303 1.943 1_554 S
O296 Zn295 1.962 . S
O296 C301 1.254 1_554 S
O297 Zn294 2.031 1_556 S
O297 C301 1.269 . S
O298 Zn295 1.986 . S
O298 C305 1.262 . S
O299 Zn294 2.049 . S
O299 C307 1.260 . S
O300 Zn295 1.996 . S
O300 C307 1.257 . S
C301 O296 1.254 1_556 S
C301 O297 1.269 . S
C302 O303 1.249 . S
C302 O304 1.270 . S
O303 Zn295 1.943 1_556 S
O303 C302 1.249 . S
O304 Zn294 2.067 1_556 S
O304 C302 1.270 . S
C305 O298 1.262 . S
C305 O306 1.232 1_554 S
O306 C305 1.232 1_556 S
C307 O299 1.260 . S
C307 O300 1.257 . S
Zn308 O311 2.031 1_554 S
Zn308 O313 2.049 . S
Zn308 O318 2.067 1_554 S
Zn309 O310 1.962 . S
Zn309 O312 1.986 . S
Zn309 O314 1.996 . S
Zn309 O317 1.943 1_554 S
O310 Zn309 1.962 . S
O310 C315 1.254 1_554 S
O311 Zn308 2.031 1_556 S
O311 C315 1.269 . S
O312 Zn309 1.986 . S
O312 C319 1.262 . S
O313 Zn308 2.049 . S
O313 C321 1.260 . S
O314 Zn309 1.996 . S
O314 C321 1.257 . S
C315 O310 1.254 1_556 S
C315 O311 1.269 . S
C316 O317 1.249 . S
C316 O318 1.270 . S
O317 Zn309 1.943 1_556 S
O317 C316 1.249 . S
O318 Zn308 2.067 1_556 S
O318 C316 1.270 . S
C319 O312 1.262 . S
C319 O320 1.232 1_554 S
O320 C319 1.232 1_556 S
C321 O313 1.260 . S
C321 O314 1.257 . S
Zn322 O325 2.031 1_554 S
Zn322 O327 2.049 . S
Zn322 O332 2.067 1_554 S
Zn323 O324 1.962 . S
Zn323 O326 1.986 . S
Zn323 O328 1.996 . S
Zn323 O331 1.943 1_554 S
O324 Zn323 1.962 . S
O324 C329 1.254 1_554 S
O325 Zn322 2.031 1_556 S
O325 C329 1.269 . S
O326 Zn323 1.986 . S
O326 C333 1.262 . S
O327 Zn322 2.049 . S
O327 C335 1.260 . S
O328 Zn323 1.996 . S
O328 C335 1.257 . S
C329 O324 1.254 1_556 S
C329 O325 1.269 . S
C330 O331 1.249 . S
C330 O332 1.270 . S
O331 Zn323 1.943 1_556 S
O331 C330 1.249 . S
O332 Zn322 2.067 1_556 S
O332 C330 1.270 . S
C333 O326 1.262 . S
C333 O334 1.232 1_554 S
O334 C333 1.232 1_556 S
C335 O327 1.260 . S
C335 O328 1.257 . S
Zn336 O339 2.031 . S
Zn336 O341 2.049 . S
Zn336 O346 2.067 . S
Zn337 O338 1.962 . S
Zn337 O340 1.986 . S
Zn337 O342 1.996 . S
Zn337 O345 1.943 . S
O338 Zn337 1.962 . S
O338 C343 1.254 . S
O339 Zn336 2.031 . S
O339 C343 1.269 . S
O340 Zn337 1.986 . S
O340 C347 1.262 . S
O341 Zn336 2.049 . S
O341 C349 1.260 . S
O342 Zn337 1.996 . S
O342 C349 1.257 . S
C343 O338 1.254 . S
C343 O339 1.269 . S
C344 O345 1.249 . S
C344 O346 1.270 . S
O345 Zn337 1.943 . S
O345 C344 1.249 . S
O346 Zn336 2.067 . S
O346 C344 1.270 . S
C347 O340 1.262 . S
C347 O348 1.232 . S
O348 C347 1.232 . S
C349 O341 1.260 . S
C349 O342 1.257 . S
Zn350 O353 2.031 . S
Zn350 O355 2.049 . S
Zn350 O360 2.067 . S
Zn351 O352 1.962 . S
Zn351 O354 1.986 . S
Zn351 O356 1.996 . S
Zn351 O359 1.943 . S
O352 Zn351 1.962 . S
O352 C357 1.254 . S
O353 Zn350 2.031 . S
O353 C357 1.269 . S
O354 Zn351 1.986 . S
O354 C361 1.262 . S
O355 Zn350 2.049 . S
O355 C363 1.260 . S
O356 Zn351 1.996 . S
O356 C363 1.257 . S
C357 O352 1.254 . S
C357 O353 1.269 . S
C358 O359 1.249 . S
C358 O360 1.270 . S
O359 Zn351 1.943 . S
O359 C358 1.249 . S
O360 Zn350 2.067 . S
O360 C358 1.270 . S
C361 O354 1.262 . S
C361 O362 1.232 . S
O362 C361 1.232 . S
C363 O355 1.260 . S
C363 O356 1.257 . S
Zn364 O367 2.031 . S
Zn364 O369 2.049 . S
Zn364 O374 2.067 . S
Zn365 O366 1.962 . S
Zn365 O368 1.986 . S
Zn365 O370 1.996 . S
Zn365 O373 1.943 . S
O366 Zn365 1.962 . S
O366 C371 1.254 . S
O367 Zn364 2.031 . S
O367 C371 1.269 . S
O368 Zn365 1.986 . S
O368 C375 1.262 . S
O369 Zn364 2.049 . S
O369 C377 1.260 . S
O370 Zn365 1.996 . S
O370 C377 1.257 . S
C371 O366 1.254 . S
C371 O367 1.269 . S
C372 O373 1.249 . S
C372 O374 1.270 . S
O373 Zn365 1.943 . S
O373 C372 1.249 . S
O374 Zn364 2.067 . S
O374 C372 1.270 . S
C375 O368 1.262 . S
C375 O376 1.232 . S
O376 C375 1.232 . S
C377 O369 1.260 . S
C377 O370 1.257 . S
Zn378 O381 2.031 1_556 S
Zn378 O383 2.049 . S
Zn378 O388 2.067 1_556 S
Zn379 O380 1.962 . S
Zn379 O382 1.986 . S
Zn379 O384 1.996 . S
Zn379 O387 1.943 1_556 S
O380 Zn379 1.962 . S
O380 C385 1.254 1_556 S
O381 Zn378 2.031 1_554 S
O381 C385 1.269 . S
O382 Zn379 1.986 . S
O382 C389 1.262 . S
O383 Zn378 2.049 . S
O383 C391 1.260 . S
O384 Zn379 1.996 . S
O384 C391 1.257 . S
C385 O380 1.254 1_554 S
C385 O381 1.269 . S
C386 O387 1.249 . S
C386 O388 1.270 . S
O387 Zn379 1.943 1_554 S
O387 C386 1.249 . S
O388 Zn378 2.067 1_554 S
O388 C386 1.270 . S
C389 O382 1.262 . S
C389 O390 1.232 1_556 S
O390 C389 1.232 1_554 S
C391 O383 1.260 . S
C391 O384 1.257 . S
Zn392 O395 2.031 1_556 S
Zn392 O397 2.049 . S
Zn392 O402 2.067 1_556 S
Zn393 O394 1.962 . S
Zn393 O396 1.986 . S
Zn393 O398 1.996 . S
Zn393 O401 1.943 1_556 S
O394 Zn393 1.962 . S
O394 C399 1.254 1_556 S
O395 Zn392 2.031 1_554 S
O395 C399 1.269 . S
O396 Zn393 1.986 . S
O396 C403 1.262 . S
O397 Zn392 2.049 . S
O397 C405 1.260 . S
O398 Zn393 1.996 . S
O398 C405 1.257 . S
C399 O394 1.254 1_554 S
C399 O395 1.269 . S
C400 O401 1.249 . S
C400 O402 1.270 . S
O401 Zn393 1.943 1_554 S
O401 C400 1.249 . S
O402 Zn392 2.067 1_554 S
O402 C400 1.270 . S
C403 O396 1.262 . S
C403 O404 1.232 1_556 S
O404 C403 1.232 1_554 S
C405 O397 1.260 . S
C405 O398 1.257 . S
Zn406 O409 2.031 1_556 S
Zn406 O411 2.049 . S
Zn406 O416 2.067 1_556 S
Zn407 O408 1.962 . S
Zn407 O410 1.986 . S
Zn407 O412 1.996 . S
Zn407 O415 1.943 1_556 S
O408 Zn407 1.962 . S
O408 C413 1.254 1_556 S
O409 Zn406 2.031 1_554 S
O409 C413 1.269 . S
O410 Zn407 1.986 . S
O410 C417 1.262 . S
O411 Zn406 2.049 . S
O411 C419 1.260 . S
O412 Zn407 1.996 . S
O412 C419 1.257 . S
C413 O408 1.254 1_554 S
C413 O409 1.269 . S
C414 O415 1.249 . S
C414 O416 1.270 . S
O415 Zn407 1.943 1_554 S
O415 C414 1.249 . S
O416 Zn406 2.067 1_554 S
O416 C414 1.270 . S
C417 O410 1.262 . S
C417 O418 1.232 1_556 S
O418 C417 1.232 1_554 S
C419 O411 1.260 . S
C419 O412 1.257 . S
Zn420 O423 2.031 . S
Zn420 O425 2.049 . S
Zn420 O430 2.067 . S
Zn421 O422 1.962 . S
Zn421 O424 1.986 . S
Zn421 O426 1.996 . S
Zn421 O429 1.943 . S
O422 Zn421 1.962 . S
O422 C427 1.254 . S
O423 Zn420 2.031 . S
O423 C427 1.269 . S
O424 Zn421 1.986 . S
O424 C431 1.262 . S
O425 Zn420 2.049 . S
O425 C433 1.260 . S
O426 Zn421 1.996 . S
O426 C433 1.257 . S
C427 O422 1.254 . S
C427 O423 1.269 . S
C428 O429 1.249 . S
C428 O430 1.270 . S
O429 Zn421 1.943 . S
O429 C428 1.249 . S
O430 Zn420 2.067 . S
O430 C428 1.270 . S
C431 O424 1.262 . S
C431 O432 1.232 . S
O432 C431 1.232 . S
C433 O425 1.260 . S
C433 O426 1.257 . S
Zn434 O437 2.031 . S
Zn434 O439 2.049 . S
Zn434 O444 2.067 . S
Zn435 O436 1.962 . S
Zn435 O438 1.986 . S
Zn435 O440 1.996 . S
Zn435 O443 1.943 . S
O436 Zn435 1.962 . S
O436 C441 1.254 . S
O437 Zn434 2.031 . S
O437 C441 1.269 . S
O438 Zn435 1.986 . S
O438 C445 1.262 . S
O439 Zn434 2.049 . S
O439 C447 1.260 . S
O440 Zn435 1.996 . S
O440 C447 1.257 . S
C441 O436 1.254 . S
C441 O437 1.269 . S
C442 O443 1.249 . S
C442 O444 1.270 . S
O443 Zn435 1.943 . S
O443 C442 1.249 . S
O444 Zn434 2.067 . S
O444 C442 1.270 . S
C445 O438 1.262 . S
C445 O446 1.232 . S
O446 C445 1.232 . S
C447 O439 1.260 . S
C447 O440 1.257 . S
Zn448 O451 2.031 . S
Zn448 O453 2.049 . S
Zn448 O458 2.067 . S
Zn449 O450 1.962 . S
Zn449 O452 1.986 . S
Zn449 O454 1.996 . S
Zn449 O457 1.943 . S
O450 Zn449 1.962 . S
O450 C455 1.254 . S
O451 Zn448 2.031 . S
O451 C455 1.269 . S
O452 Zn449 1.986 . S
O452 C459 1.262 . S
O453 Zn448 2.049 . S
O453 C461 1.260 . S
O454 Zn449 1.996 . S
O454 C461 1.257 . S
C455 O450 1.254 . S
C455 O451 1.269 . S
C456 O457 1.249 . S
C456 O458 1.270 . S
O457 Zn449 1.943 . S
O457 C456 1.249 . S
O458 Zn448 2.067 . S
O458 C456 1.270 . S
C459 O452 1.262 . S
C459 O460 1.232 . S
O460 C459 1.232 . S
C461 O453 1.260 . S
C461 O454 1.257 . S
Zn462 O465 2.031 . S
Zn462 O467 2.049 . S
Zn462 O472 2.067 . S
Zn463 O464 1.962 . S
Zn463 O466 1.986 . S
Zn463 O468 1.996 . S
Zn463 O471 1.943 . S
O464 Zn463 1.962 . S
O464 C469 1.254 . S
O465 Zn462 2.031 . S
O465 C469 1.269 . S
O466 Zn463 1.986 . S
O466 C473 1.262 . S
O467 Zn462 2.049 . S
O467 C475 1.260 . S
O468 Zn463 1.996 . S
O468 C475 1.257 . S
C469 O464 1.254 . S
C469 O465 1.269 . S
C470 O471 1.249 . S
C470 O472 1.270 . S
O471 Zn463 1.943 . S
O471 C470 1.249 . S
O472 Zn462 2.067 . S
O472 C470 1.270 . S
C473 O466 1.262 . S
C473 O474 1.232 . S
O474 C473 1.232 . S
C475 O467 1.260 . S
C475 O468 1.257 . S
Zn476 O479 2.031 . S
Zn476 O481 2.049 . S
Zn476 O486 2.067 . S
Zn477 O478 1.962 . S
Zn477 O480 1.986 . S
Zn477 O482 1.996 . S
Zn477 O485 1.943 . S
O478 Zn477 1.962 . S
O478 C483 1.254 . S
O479 Zn476 2.031 . S
O479 C483 1.269 . S
O480 Zn477 1.986 . S
O480 C487 1.262 . S
O481 Zn476 2.049 . S
O481 C489 1.260 . S
O482 Zn477 1.996 . S
O482 C489 1.257 . S
C483 O478 1.254 . S
C483 O479 1.269 . S
C484 O485 1.249 . S
C484 O486 1.270 . S
O485 Zn477 1.943 . S
O485 C484 1.249 . S
O486 Zn476 2.067 . S
O486 C484 1.270 . S
C487 O480 1.262 . S
C487 O488 1.232 . S
O488 C487 1.232 . S
C489 O481 1.260 . S
C489 O482 1.257 . S
Zn490 O493 2.031 . S
Zn490 O495 2.049 . S
Zn490 O500 2.067 . S
Zn491 O492 1.962 . S
Zn491 O494 1.986 . S
Zn491 O496 1.996 . S
Zn491 O499 1.943 . S
O492 Zn491 1.962 . S
O492 C497 1.254 . S
O493 Zn490 2.031 . S
O493 C497 1.269 . S
O494 Zn491 1.986 . S
O494 C501 1.262 . S
O495 Zn490 2.049 . S
O495 C503 1.260 . S
O496 Zn491 1.996 . S
O496 C503 1.257 . S
C497 O492 1.254 . S
C497 O493 1.269 . S
C498 O499 1.249 . S
C498 O500 1.270 . S
O499 Zn491 1.943 . S
O499 C498 1.249 . S
O500 Zn490 2.067 . S
O500 C498 1.270 . S
C501 O494 1.262 . S
C501 O502 1.232 . S
O502 C501 1.232 . S
C503 O495 1.260 . S
C503 O496 1.257 . S
H504 C512 0.929 . S
H505 C514 0.930 . S
H506 C516 0.930 . S
H507 C519 0.929 . S
H508 C522 0.930 . S
H509 C524 0.960 . S
H510 C524 0.960 . S
H511 C524 0.960 . S
C512 H504 0.929 . S
C512 C513 1.377 . S
C512 C514 1.384 . S
C513 C512 1.377 . S
C513 C519 1.390 . S
C514 H505 0.930 . S
C514 C512 1.384 . S
C514 C515 1.372 . S
C515 C514 1.372 . S
C515 C516 1.400 . S
C515 C520 1.490 . S
C516 H506 0.930 . S
C516 C515 1.400 . S
C516 C519 1.386 . S
H517 C533 0.930 . S
H518 C534 0.931 . S
C519 H507 0.929 . S
C519 C513 1.390 . S
C519 C516 1.386 . S
C520 C515 1.490 . S
C520 C522 1.395 . S
C520 C523 1.403 . S
H521 C527 0.930 . S
C522 H508 0.930 . S
C522 C520 1.395 . S
C522 C525 1.403 . S
C523 C520 1.403 . S
C523 C524 1.524 . S
C523 C527 1.400 . S
C524 H509 0.960 . S
C524 H510 0.960 . S
C524 H511 0.960 . S
C524 C523 1.524 . S
C525 C522 1.403 . S
C525 C526 1.392 . S
C525 C529 1.495 . S
C526 C525 1.392 . S
C526 C527 1.385 . S
C526 C528 1.478 . S
C527 H521 0.930 . S
C527 C523 1.400 . S
C527 C526 1.385 . S
C528 C526 1.478 . S
C528 C530 1.381 . S
C528 C534 1.383 . S
C529 C525 1.495 . S
C529 H535 0.959 . S
C529 H536 0.961 . S
C529 H537 0.960 . S
C530 C528 1.381 . S
C530 C531 1.394 . S
C530 H538 0.930 . S
C531 C530 1.394 . S
C531 C532 1.383 . S
C531 H539 0.929 . S
C532 C531 1.383 . S
C532 C533 1.377 . S
C533 H517 0.930 . S
C533 C532 1.377 . S
C533 C534 1.379 . S
C534 H518 0.931 . S
C534 C528 1.383 . S
C534 C533 1.379 . S
H535 C529 0.959 . S
H536 C529 0.961 . S
H537 C529 0.960 . S
H538 C530 0.930 . S
H539 C531 0.929 . S
H540 C548 0.929 . S
H541 C550 0.930 . S
H542 C552 0.930 . S
H543 C555 0.929 . S
H544 C558 0.930 . S
H545 C560 0.960 . S
H546 C560 0.960 . S
H547 C560 0.960 . S
C548 H540 0.929 . S
C548 C549 1.377 . S
C548 C550 1.384 . S
C549 C548 1.377 . S
C549 C555 1.390 . S
C550 H541 0.930 . S
C550 C548 1.384 . S
C550 C551 1.372 . S
C551 C550 1.372 . S
C551 C552 1.400 . S
C551 C556 1.490 . S
C552 H542 0.930 . S
C552 C551 1.400 . S
C552 C555 1.386 . S
H553 C569 0.930 . S
H554 C570 0.931 . S
C555 H543 0.929 . S
C555 C549 1.390 . S
C555 C552 1.386 . S
C556 C551 1.490 . S
C556 C558 1.395 . S
C556 C559 1.403 . S
H557 C563 0.930 . S
C558 H544 0.930 . S
C558 C556 1.395 . S
C558 C561 1.403 1_545 S
C559 C556 1.403 . S
C559 C560 1.524 . S
C559 C563 1.400 1_545 S
C560 H545 0.960 . S
C560 H546 0.960 . S
C560 H547 0.960 . S
C560 C559 1.524 . S
C561 C558 1.403 1_565 S
C561 C562 1.392 . S
C561 C565 1.495 . S
C562 C561 1.392 . S
C562 C563 1.385 . S
C562 C564 1.478 . S
C563 H557 0.930 . S
C563 C559 1.400 1_565 S
C563 C562 1.385 . S
C564 C562 1.478 . S
C564 C566 1.381 . S
C564 C570 1.383 . S
C565 C561 1.495 . S
C565 H571 0.959 . S
C565 H572 0.961 . S
C565 H573 0.960 . S
C566 C564 1.381 . S
C566 C567 1.394 . S
C566 H574 0.930 . S
C567 C566 1.394 . S
C567 C568 1.383 . S
C567 H575 0.929 . S
C568 C567 1.383 . S
C568 C569 1.377 . S
C569 H553 0.930 . S
C569 C568 1.377 . S
C569 C570 1.379 . S
C570 H554 0.931 . S
C570 C564 1.383 . S
C570 C569 1.379 . S
H571 C565 0.959 . S
H572 C565 0.961 . S
H573 C565 0.960 . S
H574 C566 0.930 . S
H575 C567 0.929 . S
H576 C584 0.929 . S
H577 C586 0.930 . S
H578 C588 0.930 . S
H579 C591 0.929 . S
H580 C594 0.930 . S
H581 C596 0.960 . S
H582 C596 0.960 . S
H583 C596 0.960 . S
C584 H576 0.929 . S
C584 C585 1.377 . S
C584 C586 1.384 . S
C585 C584 1.377 . S
C585 C591 1.390 . S
C586 H577 0.930 . S
C586 C584 1.384 . S
C586 C587 1.372 . S
C587 C586 1.372 . S
C587 C588 1.400 . S
C587 C592 1.490 . S
C588 H578 0.930 . S
C588 C587 1.400 . S
C588 C591 1.386 . S
H589 C605 0.930 . S
H590 C606 0.931 . S
C591 H579 0.929 . S
C591 C585 1.390 . S
C591 C588 1.386 . S
C592 C587 1.490 . S
C592 C594 1.395 . S
C592 C595 1.403 . S
H593 C599 0.930 . S
C594 H580 0.930 . S
C594 C592 1.395 . S
C594 C597 1.403 1_655 S
C595 C592 1.403 . S
C595 C596 1.524 . S
C595 C599 1.400 1_655 S
C596 H581 0.960 . S
C596 H582 0.960 . S
C596 H583 0.960 . S
C596 C595 1.524 . S
C597 C594 1.403 1_455 S
C597 C598 1.392 . S
C597 C601 1.495 . S
C598 C597 1.392 . S
C598 C599 1.385 . S
C598 C600 1.478 . S
C599 H593 0.930 . S
C599 C595 1.400 1_455 S
C599 C598 1.385 . S
C600 C598 1.478 . S
C600 C602 1.381 . S
C600 C606 1.383 . S
C601 C597 1.495 . S
C601 H607 0.959 . S
C601 H608 0.961 . S
C601 H609 0.960 . S
C602 C600 1.381 . S
C602 C603 1.394 . S
C602 H610 0.930 . S
C603 C602 1.394 . S
C603 C604 1.383 . S
C603 H611 0.929 . S
C604 C603 1.383 . S
C604 C605 1.377 . S
C605 H589 0.930 . S
C605 C604 1.377 . S
C605 C606 1.379 . S
C606 H590 0.931 . S
C606 C600 1.383 . S
C606 C605 1.379 . S
H607 C601 0.959 . S
H608 C601 0.961 . S
H609 C601 0.960 . S
H610 C602 0.930 . S
H611 C603 0.929 . S
H612 C620 0.929 . S
H613 C622 0.930 . S
H614 C624 0.930 . S
H615 C627 0.929 . S
H616 C630 0.930 . S
H617 C632 0.960 . S
H618 C632 0.960 . S
H619 C632 0.960 . S
C620 H612 0.929 . S
C620 C621 1.377 . S
C620 C622 1.384 . S
C621 C620 1.377 . S
C621 C627 1.390 . S
C622 H613 0.930 . S
C622 C620 1.384 . S
C622 C623 1.372 . S
C623 C622 1.372 . S
C623 C624 1.400 . S
C623 C628 1.490 . S
C624 H614 0.930 . S
C624 C623 1.400 . S
C624 C627 1.386 . S
H625 C641 0.930 . S
H626 C642 0.931 . S
C627 H615 0.929 . S
C627 C621 1.390 . S
C627 C624 1.386 . S
C628 C623 1.490 . S
C628 C630 1.395 . S
C628 C631 1.403 . S
H629 C635 0.930 . S
C630 H616 0.930 . S
C630 C628 1.395 . S
C630 C633 1.403 . S
C631 C628 1.403 . S
C631 C632 1.524 . S
C631 C635 1.400 . S
C632 H617 0.960 . S
C632 H618 0.960 . S
C632 H619 0.960 . S
C632 C631 1.524 . S
C633 C630 1.403 . S
C633 C634 1.392 . S
C633 C637 1.495 . S
C634 C633 1.392 . S
C634 C635 1.385 . S
C634 C636 1.478 . S
C635 H629 0.930 . S
C635 C631 1.400 . S
C635 C634 1.385 . S
C636 C634 1.478 . S
C636 C638 1.381 . S
C636 C642 1.383 . S
C637 C633 1.495 . S
C637 H643 0.959 . S
C637 H644 0.961 . S
C637 H645 0.960 . S
C638 C636 1.381 . S
C638 C639 1.394 . S
C638 H646 0.930 . S
C639 C638 1.394 . S
C639 C640 1.383 . S
C639 H647 0.929 . S
C640 C639 1.383 . S
C640 C641 1.377 . S
C641 H625 0.930 . S
C641 C640 1.377 . S
C641 C642 1.379 . S
C642 H626 0.931 . S
C642 C636 1.383 . S
C642 C641 1.379 . S
H643 C637 0.959 . S
H644 C637 0.961 . S
H645 C637 0.960 . S
H646 C638 0.930 . S
H647 C639 0.929 . S
H648 C656 0.929 . S
H649 C658 0.930 . S
H650 C660 0.930 . S
H651 C663 0.929 . S
H652 C666 0.930 . S
H653 C668 0.960 1_565 S
H654 C668 0.960 . S
H655 C668 0.960 . S
C656 H648 0.929 . S
C656 C657 1.377 . S
C656 C658 1.384 . S
C657 C656 1.377 . S
C657 C663 1.390 . S
C658 H649 0.930 . S
C658 C656 1.384 . S
C658 C659 1.372 . S
C659 C658 1.372 . S
C659 C660 1.400 . S
C659 C664 1.490 . S
C660 H650 0.930 . S
C660 C659 1.400 . S
C660 C663 1.386 . S
H661 C677 0.930 . S
H662 C678 0.931 . S
C663 H651 0.929 . S
C663 C657 1.390 . S
C663 C660 1.386 . S
C664 C659 1.490 . S
C664 C666 1.395 . S
C664 C667 1.403 . S
H665 C671 0.930 . S
C666 H652 0.930 . S
C666 C664 1.395 . S
C666 C669 1.403 1_545 S
C667 C664 1.403 . S
C667 C668 1.524 . S
C667 C671 1.400 1_545 S
C668 H653 0.960 1_545 S
C668 H654 0.960 . S
C668 H655 0.960 . S
C668 C667 1.524 . S
C669 C666 1.403 1_565 S
C669 C670 1.392 . S
C669 C673 1.495 . S
C670 C669 1.392 . S
C670 C671 1.385 . S
C670 C672 1.478 . S
C671 H665 0.930 . S
C671 C667 1.400 1_565 S
C671 C670 1.385 . S
C672 C670 1.478 . S
C672 C674 1.381 . S
C672 C678 1.383 . S
C673 C669 1.495 . S
C673 H679 0.959 1_565 S
C673 H680 0.961 . S
C673 H681 0.960 . S
C674 C672 1.381 . S
C674 C675 1.394 . S
C674 H682 0.930 . S
C675 C674 1.394 . S
C675 C676 1.383 . S
C675 H683 0.929 . S
C676 C675 1.383 . S
C676 C677 1.377 . S
C677 H661 0.930 . S
C677 C676 1.377 . S
C677 C678 1.379 . S
C678 H662 0.931 . S
C678 C672 1.383 . S
C678 C677 1.379 . S
H679 C673 0.959 1_545 S
H680 C673 0.961 . S
H681 C673 0.960 . S
H682 C674 0.930 . S
H683 C675 0.929 . S
H684 C692 0.929 . S
H685 C694 0.930 . S
H686 C696 0.930 . S
H687 C699 0.929 . S
H688 C702 0.930 . S
H689 C704 0.960 . S
H690 C704 0.960 . S
H691 C704 0.960 . S
C692 H684 0.929 . S
C692 C693 1.377 . S
C692 C694 1.384 . S
C693 C692 1.377 . S
C693 C699 1.390 . S
C694 H685 0.930 . S
C694 C692 1.384 . S
C694 C695 1.372 . S
C695 C694 1.372 . S
C695 C696 1.400 . S
C695 C700 1.490 . S
C696 H686 0.930 . S
C696 C695 1.400 . S
C696 C699 1.386 . S
H697 C713 0.930 . S
H698 C714 0.931 . S
C699 H687 0.929 . S
C699 C693 1.390 . S
C699 C696 1.386 . S
C700 C695 1.490 . S
C700 C702 1.395 . S
C700 C703 1.403 . S
H701 C707 0.930 . S
C702 H688 0.930 . S
C702 C700 1.395 . S
C702 C705 1.403 1_455 S
C703 C700 1.403 . S
C703 C704 1.524 . S
C703 C707 1.400 1_455 S
C704 H689 0.960 . S
C704 H690 0.960 . S
C704 H691 0.960 . S
C704 C703 1.524 . S
C705 C702 1.403 1_655 S
C705 C706 1.392 . S
C705 C709 1.495 . S
C706 C705 1.392 . S
C706 C707 1.385 . S
C706 C708 1.478 . S
C707 H701 0.930 . S
C707 C703 1.400 1_655 S
C707 C706 1.385 . S
C708 C706 1.478 . S
C708 C710 1.381 . S
C708 C714 1.383 . S
C709 C705 1.495 . S
C709 H715 0.959 . S
C709 H716 0.961 . S
C709 H717 0.960 . S
C710 C708 1.381 . S
C710 C711 1.394 . S
C710 H718 0.930 . S
C711 C710 1.394 . S
C711 C712 1.383 . S
C711 H719 0.929 . S
C712 C711 1.383 . S
C712 C713 1.377 . S
C713 H697 0.930 . S
C713 C712 1.377 . S
C713 C714 1.379 . S
C714 H698 0.931 . S
C714 C708 1.383 . S
C714 C713 1.379 . S
H715 C709 0.959 . S
H716 C709 0.961 . S
H717 C709 0.960 . S
H718 C710 0.930 . S
H719 C711 0.929 . S
H720 C728 0.929 . S
H721 C730 0.930 . S
H722 C732 0.930 . S
H723 C735 0.929 . S
H724 C738 0.930 . S
H725 C740 0.960 . S
H726 C740 0.960 . S
H727 C740 0.960 . S
C728 H720 0.929 . S
C728 C729 1.377 . S
C728 C730 1.384 . S
C729 C728 1.377 . S
C729 C735 1.390 . S
C730 H721 0.930 . S
C730 C728 1.384 . S
C730 C731 1.372 . S
C731 C730 1.372 . S
C731 C732 1.400 . S
C731 C736 1.490 . S
C732 H722 0.930 . S
C732 C731 1.400 . S
C732 C735 1.386 . S
H733 C749 0.930 . S
H734 C750 0.931 . S
C735 H723 0.929 . S
C735 C729 1.390 . S
C735 C732 1.386 . S
C736 C731 1.490 . S
C736 C738 1.395 . S
C736 C739 1.403 . S
H737 C743 0.930 . S
C738 H724 0.930 . S
C738 C736 1.395 . S
C738 C741 1.403 . S
C739 C736 1.403 . S
C739 C740 1.524 . S
C739 C743 1.400 . S
C740 H725 0.960 . S
C740 H726 0.960 . S
C740 H727 0.960 . S
C740 C739 1.524 . S
C741 C738 1.403 . S
C741 C742 1.392 . S
C741 C745 1.495 . S
C742 C741 1.392 . S
C742 C743 1.385 . S
C742 C744 1.478 . S
C743 H737 0.930 . S
C743 C739 1.400 . S
C743 C742 1.385 . S
C744 C742 1.478 . S
C744 C746 1.381 . S
C744 C750 1.383 . S
C745 C741 1.495 . S
C745 H751 0.959 . S
C745 H752 0.961 . S
C745 H753 0.960 . S
C746 C744 1.381 . S
C746 C747 1.394 . S
C746 H754 0.930 . S
C747 C746 1.394 . S
C747 C748 1.383 . S
C747 H755 0.929 . S
C748 C747 1.383 . S
C748 C749 1.377 . S
C749 H733 0.930 . S
C749 C748 1.377 . S
C749 C750 1.379 . S
C750 H734 0.931 . S
C750 C744 1.383 . S
C750 C749 1.379 . S
H751 C745 0.959 . S
H752 C745 0.961 . S
H753 C745 0.960 . S
H754 C746 0.930 . S
H755 C747 0.929 . S
H756 C764 0.929 . S
H757 C766 0.930 . S
H758 C768 0.930 . S
H759 C771 0.929 . S
H760 C774 0.930 . S
H761 C776 0.960 . S
H762 C776 0.960 . S
H763 C776 0.960 . S
C764 H756 0.929 . S
C764 C765 1.377 . S
C764 C766 1.384 . S
C765 C764 1.377 . S
C765 C771 1.390 . S
C766 H757 0.930 . S
C766 C764 1.384 . S
C766 C767 1.372 . S
C767 C766 1.372 . S
C767 C768 1.400 . S
C767 C772 1.490 . S
C768 H758 0.930 . S
C768 C767 1.400 . S
C768 C771 1.386 . S
H769 C785 0.930 . S
H770 C786 0.931 . S
C771 H759 0.929 . S
C771 C765 1.390 . S
C771 C768 1.386 . S
C772 C767 1.490 . S
C772 C774 1.395 . S
C772 C775 1.403 . S
H773 C779 0.930 . S
C774 H760 0.930 . S
C774 C772 1.395 . S
C774 C777 1.403 . S
C775 C772 1.403 . S
C775 C776 1.524 . S
C775 C779 1.400 . S
C776 H761 0.960 . S
C776 H762 0.960 . S
C776 H763 0.960 . S
C776 C775 1.524 . S
C777 C774 1.403 . S
C777 C778 1.392 . S
C777 C781 1.495 . S
C778 C777 1.392 . S
C778 C779 1.385 . S
C778 C780 1.478 . S
C779 H773 0.930 . S
C779 C775 1.400 . S
C779 C778 1.385 . S
C780 C778 1.478 . S
C780 C782 1.381 . S
C780 C786 1.383 . S
C781 C777 1.495 . S
C781 H787 0.959 . S
C781 H788 0.961 . S
C781 H789 0.960 . S
C782 C780 1.381 . S
C782 C783 1.394 . S
C782 H790 0.930 . S
C783 C782 1.394 . S
C783 C784 1.383 . S
C783 H791 0.929 . S
C784 C783 1.383 . S
C784 C785 1.377 . S
C785 H769 0.930 . S
C785 C784 1.377 . S
C785 C786 1.379 . S
C786 H770 0.931 . S
C786 C780 1.383 . S
C786 C785 1.379 . S
H787 C781 0.959 . S
H788 C781 0.961 . S
H789 C781 0.960 . S
H790 C782 0.930 . S
H791 C783 0.929 . S
H792 C800 0.929 . S
H793 C802 0.930 . S
H794 C804 0.930 . S
H795 C807 0.929 . S
H796 C810 0.930 . S
H797 C812 0.960 . S
H798 C812 0.960 . S
H799 C812 0.960 . S
C800 H792 0.929 . S
C800 C801 1.377 . S
C800 C802 1.384 . S
C801 C800 1.377 . S
C801 C807 1.390 . S
C802 H793 0.930 . S
C802 C800 1.384 . S
C802 C803 1.372 . S
C803 C802 1.372 . S
C803 C804 1.400 . S
C803 C808 1.490 . S
C804 H794 0.930 . S
C804 C803 1.400 . S
C804 C807 1.386 . S
H805 C821 0.930 . S
H806 C822 0.931 . S
C807 H795 0.929 . S
C807 C801 1.390 . S
C807 C804 1.386 . S
C808 C803 1.490 . S
C808 C810 1.395 . S
C808 C811 1.403 . S
H809 C815 0.930 . S
C810 H796 0.930 . S
C810 C808 1.395 . S
C810 C813 1.403 . S
C811 C808 1.403 . S
C811 C812 1.524 . S
C811 C815 1.400 . S
C812 H797 0.960 . S
C812 H798 0.960 . S
C812 H799 0.960 . S
C812 C811 1.524 . S
C813 C810 1.403 . S
C813 C814 1.392 . S
C813 C817 1.495 . S
C814 C813 1.392 . S
C814 C815 1.385 . S
C814 C816 1.478 . S
C815 H809 0.930 . S
C815 C811 1.400 . S
C815 C814 1.385 . S
C816 C814 1.478 . S
C816 C818 1.381 . S
C816 C822 1.383 . S
C817 C813 1.495 . S
C817 H823 0.959 . S
C817 H824 0.961 . S
C817 H825 0.960 . S
C818 C816 1.381 . S
C818 C819 1.394 . S
C818 H826 0.930 . S
C819 C818 1.394 . S
C819 C820 1.383 . S
C819 H827 0.929 . S
C820 C819 1.383 . S
C820 C821 1.377 . S
C821 H805 0.930 . S
C821 C820 1.377 . S
C821 C822 1.379 . S
C822 H806 0.931 . S
C822 C816 1.383 . S
C822 C821 1.379 . S
H823 C817 0.959 . S
H824 C817 0.961 . S
H825 C817 0.960 . S
H826 C818 0.930 . S
H827 C819 0.929 . S
H828 C836 0.929 . S
H829 C838 0.930 . S
H830 C840 0.930 . S
H831 C843 0.929 . S
H832 C846 0.930 . S
H833 C848 0.960 . S
H834 C848 0.960 . S
H835 C848 0.960 . S
C836 H828 0.929 . S
C836 C837 1.377 . S
C836 C838 1.384 . S
C837 C836 1.377 . S
C837 C843 1.390 . S
C838 H829 0.930 . S
C838 C836 1.384 . S
C838 C839 1.372 . S
C839 C838 1.372 . S
C839 C840 1.400 . S
C839 C844 1.490 . S
C840 H830 0.930 . S
C840 C839 1.400 . S
C840 C843 1.386 . S
H841 C857 0.930 1_556 S
H842 C858 0.931 . S
C843 H831 0.929 . S
C843 C837 1.390 . S
C843 C840 1.386 . S
C844 C839 1.490 . S
C844 C846 1.395 . S
C844 C847 1.403 . S
H845 C851 0.930 . S
C846 H832 0.930 . S
C846 C844 1.395 . S
C846 C849 1.403 . S
C847 C844 1.403 . S
C847 C848 1.524 . S
C847 C851 1.400 . S
C848 H833 0.960 . S
C848 H834 0.960 . S
C848 H835 0.960 . S
C848 C847 1.524 . S
C849 C846 1.403 . S
C849 C850 1.392 . S
C849 C853 1.495 . S
C850 C849 1.392 . S
C850 C851 1.385 . S
C850 C852 1.478 . S
C851 H845 0.930 . S
C851 C847 1.400 . S
C851 C850 1.385 . S
C852 C850 1.478 . S
C852 C854 1.381 . S
C852 C858 1.383 . S
C853 C849 1.495 . S
C853 H859 0.959 . S
C853 H860 0.961 . S
C853 H861 0.960 . S
C854 C852 1.381 . S
C854 C855 1.394 . S
C854 H862 0.930 . S
C855 C854 1.394 . S
C855 C856 1.383 . S
C855 H863 0.929 . S
C856 C855 1.383 . S
C856 C857 1.377 . S
C857 H841 0.930 1_554 S
C857 C856 1.377 . S
C857 C858 1.379 . S
C858 H842 0.931 . S
C858 C852 1.383 . S
C858 C857 1.379 . S
H859 C853 0.959 . S
H860 C853 0.961 . S
H861 C853 0.960 . S
H862 C854 0.930 . S
H863 C855 0.929 . S
H864 C872 0.929 . S
H865 C874 0.930 . S
H866 C876 0.930 . S
H867 C879 0.929 1_556 S
H868 C882 0.930 . S
H869 C884 0.970 . S
H870 C884 0.959 1_554 S
H871 C884 0.971 . S
C872 H864 0.929 . S
C872 C873 1.377 . S
C872 C874 1.384 . S
C873 C872 1.377 . S
C873 C879 1.390 . S
C874 H865 0.930 . S
C874 C872 1.384 . S
C874 C875 1.372 . S
C875 C874 1.372 . S
C875 C876 1.400 . S
C875 C880 1.490 . S
C876 H866 0.930 . S
C876 C875 1.400 . S
C876 C879 1.386 . S
H877 C893 0.930 . S
H878 C894 0.931 . S
C879 H867 0.929 1_554 S
C879 C873 1.390 . S
C879 C876 1.386 . S
C880 C875 1.490 . S
C880 C882 1.395 . S
C880 C883 1.403 . S
H881 C887 0.930 . S
C882 H868 0.930 . S
C882 C880 1.395 . S
C882 C885 1.403 . S
C883 C880 1.403 . S
C883 C884 1.505 1_554 S
C883 C887 1.400 . S
C884 H869 0.970 . S
C884 H870 0.959 1_556 S
C884 H871 0.971 . S
C884 C883 1.505 1_556 S
C885 C882 1.403 . S
C885 C886 1.392 . S
C885 C889 1.495 . S
C886 C885 1.392 . S
C886 C887 1.385 . S
C886 C888 1.478 . S
C887 H881 0.930 . S
C887 C883 1.400 . S
C887 C886 1.385 . S
C888 C886 1.478 . S
C888 C890 1.381 . S
C888 C894 1.383 . S
C889 C885 1.495 . S
C889 H895 0.959 . S
C889 H896 0.961 . S
C889 H897 0.960 . S
C890 C888 1.381 . S
C890 C891 1.394 . S
C890 H898 0.930 . S
C891 C890 1.394 . S
C891 C892 1.383 . S
C891 H899 0.929 . S
C892 C891 1.383 . S
C892 C893 1.377 . S
C893 H877 0.930 . S
C893 C892 1.377 . S
C893 C894 1.379 . S
C894 H878 0.931 . S
C894 C888 1.383 . S
C894 C893 1.379 . S
H895 C889 0.959 . S
H896 C889 0.961 . S
H897 C889 0.960 . S
H898 C890 0.930 . S
H899 C891 0.929 . S
H900 C908 0.929 . S
H901 C910 0.930 . S
H902 C912 0.930 . S
H903 C915 0.929 . S
H904 C918 0.930 . S
H905 C920 0.960 . S
H906 C920 0.960 . S
H907 C920 0.960 . S
C908 H900 0.929 . S
C908 C909 1.377 . S
C908 C910 1.384 . S
C909 C908 1.377 . S
C909 C915 1.390 . S
C910 H901 0.930 . S
C910 C908 1.384 . S
C910 C911 1.372 . S
C911 C910 1.372 . S
C911 C912 1.400 . S
C911 C916 1.490 . S
C912 H902 0.930 . S
C912 C911 1.400 . S
C912 C915 1.386 . S
H913 C929 0.930 . S
H914 C930 0.931 . S
C915 H903 0.929 . S
C915 C909 1.390 . S
C915 C912 1.386 . S
C916 C911 1.490 . S
C916 C918 1.395 . S
C916 C919 1.403 . S
H917 C923 0.930 . S
C918 H904 0.930 . S
C918 C916 1.395 . S
C918 C921 1.403 . S
C919 C916 1.403 . S
C919 C920 1.524 . S
C919 C923 1.400 . S
C920 H905 0.960 . S
C920 H906 0.960 . S
C920 H907 0.960 . S
C920 C919 1.524 . S
C921 C918 1.403 . S
C921 C922 1.392 . S
C921 C925 1.495 . S
C922 C921 1.392 . S
C922 C923 1.385 . S
C922 C924 1.478 . S
C923 H917 0.930 . S
C923 C919 1.400 . S
C923 C922 1.385 . S
C924 C922 1.478 . S
C924 C926 1.381 . S
C924 C930 1.383 . S
C925 C921 1.495 . S
C925 H931 0.959 . S
C925 H932 0.961 . S
C925 H933 0.960 1_554 S
C926 C924 1.381 . S
C926 C927 1.394 . S
C926 H934 0.930 1_554 S
C927 C926 1.394 . S
C927 C928 1.383 . S
C927 H935 0.929 1_554 S
C928 C927 1.383 . S
C928 C929 1.377 . S
C929 H913 0.930 . S
C929 C928 1.377 . S
C929 C930 1.379 . S
C930 H914 0.931 . S
C930 C924 1.383 . S
C930 C929 1.379 . S
H931 C925 0.959 . S
H932 C925 0.961 . S
H933 C925 0.960 1_556 S
H934 C926 0.930 1_556 S
H935 C927 0.929 1_556 S
H936 C944 0.929 . S
H937 C946 0.930 . S
H938 C948 0.930 . S
H939 C951 0.929 . S
H940 C954 0.930 . S
H941 C956 0.960 . S
H942 C956 0.960 . S
H943 C956 0.960 . S
C944 H936 0.929 . S
C944 C945 1.377 . S
C944 C946 1.384 . S
C945 C944 1.377 . S
C945 C951 1.390 . S
C946 H937 0.930 . S
C946 C944 1.384 . S
C946 C947 1.372 . S
C947 C946 1.372 . S
C947 C948 1.400 . S
C947 C952 1.490 . S
C948 H938 0.930 . S
C948 C947 1.400 . S
C948 C951 1.386 . S
H949 C965 0.930 . S
H950 C966 0.931 . S
C951 H939 0.929 . S
C951 C945 1.390 . S
C951 C948 1.386 . S
C952 C947 1.490 . S
C952 C954 1.395 . S
C952 C955 1.403 . S
H953 C959 0.930 . S
C954 H940 0.930 . S
C954 C952 1.395 . S
C954 C957 1.403 . S
C955 C952 1.403 . S
C955 C956 1.524 . S
C955 C959 1.400 . S
C956 H941 0.960 . S
C956 H942 0.960 . S
C956 H943 0.960 . S
C956 C955 1.524 . S
C957 C954 1.403 . S
C957 C958 1.392 . S
C957 C961 1.495 . S
C958 C957 1.392 . S
C958 C959 1.385 . S
C958 C960 1.478 . S
C959 H953 0.930 . S
C959 C955 1.400 . S
C959 C958 1.385 . S
C960 C958 1.478 . S
C960 C962 1.381 . S
C960 C966 1.383 . S
C961 C957 1.495 . S
C961 H967 0.959 . S
C961 H968 0.961 . S
C961 H969 0.960 . S
C962 C960 1.381 . S
C962 C963 1.394 . S
C962 H970 0.930 1_556 S
C963 C962 1.394 . S
C963 C964 1.383 . S
C963 H971 0.929 1_556 S
C964 C963 1.383 . S
C964 C965 1.377 . S
C965 H949 0.930 . S
C965 C964 1.377 . S
C965 C966 1.379 . S
C966 H950 0.931 . S
C966 C960 1.383 . S
C966 C965 1.379 . S
H967 C961 0.959 . S
H968 C961 0.961 . S
H969 C961 0.960 . S
H970 C962 0.930 1_554 S
H971 C963 0.929 1_554 S
H972 C980 0.929 . S
H973 C982 0.930 . S
H974 C984 0.930 . S
H975 C987 0.929 . S
H976 C990 0.930 . S
H977 C992 0.960 1_554 S
H978 C992 0.960 . S
H979 C992 0.960 . S
C980 H972 0.929 . S
C980 C981 1.377 . S
C980 C982 1.384 . S
C981 C980 1.377 . S
C981 C987 1.390 . S
C982 H973 0.930 . S
C982 C980 1.384 . S
C982 C983 1.372 . S
C983 C982 1.372 . S
C983 C984 1.400 . S
C983 C988 1.490 . S
C984 H974 0.930 . S
C984 C983 1.400 . S
C984 C987 1.386 . S
H985 C1001 0.930 . S
H986 C1002 0.931 . S
C987 H975 0.929 . S
C987 C981 1.390 . S
C987 C984 1.386 . S
C988 C983 1.490 . S
C988 C990 1.395 . S
C988 C991 1.403 . S
H989 C995 0.930 . S
C990 H976 0.930 . S
C990 C988 1.395 . S
C990 C993 1.403 . S
C991 C988 1.403 . S
C991 C992 1.524 . S
C991 C995 1.400 . S
C992 H977 0.960 1_556 S
C992 H978 0.960 . S
C992 H979 0.960 . S
C992 C991 1.524 . S
C993 C990 1.403 . S
C993 C994 1.392 . S
C993 C997 1.495 . S
C994 C993 1.392 . S
C994 C995 1.385 . S
C994 C996 1.478 . S
C995 H989 0.930 . S
C995 C991 1.400 . S
C995 C994 1.385 . S
C996 C994 1.478 . S
C996 C998 1.381 . S
C996 C1002 1.383 . S
C997 C993 1.495 . S
C997 H1003 0.959 . S
C997 H1004 0.961 . S
C997 H1005 0.960 . S
C998 C996 1.381 . S
C998 C999 1.394 . S
C998 H1006 0.930 . S
C999 C998 1.394 . S
C999 C1000 1.383 . S
C999 H1007 0.929 . S
C1000 C999 1.383 . S
C1000 C1001 1.377 . S
C1001 H985 0.930 . S
C1001 C1000 1.377 . S
C1001 C1002 1.379 . S
C1002 H986 0.931 . S
C1002 C996 1.383 . S
C1002 C1001 1.379 . S
H1003 C997 0.959 . S
H1004 C997 0.961 . S
H1005 C997 0.960 . S
H1006 C998 0.930 . S
H1007 C999 0.929 . S
H1008 C1016 0.929 . S
H1009 C1018 0.930 . S
H1010 C1020 0.930 . S
H1011 C1023 0.929 . S
H1012 C1026 0.930 . S
H1013 C1028 0.960 . S
H1014 C1028 0.960 . S
H1015 C1028 0.960 . S
C1016 H1008 0.929 . S
C1016 C1017 1.377 . S
C1016 C1018 1.384 . S
C1017 C1016 1.377 . S
C1017 C1023 1.390 . S
C1018 H1009 0.930 . S
C1018 C1016 1.384 . S
C1018 C1019 1.372 . S
C1019 C1018 1.372 . S
C1019 C1020 1.400 . S
C1019 C1024 1.490 . S
C1020 H1010 0.930 . S
C1020 C1019 1.400 . S
C1020 C1023 1.386 . S
H1021 C1037 0.930 . S
H1022 C1038 0.931 . S
C1023 H1011 0.929 . S
C1023 C1017 1.390 . S
C1023 C1020 1.386 . S
C1024 C1019 1.490 . S
C1024 C1026 1.395 . S
C1024 C1027 1.403 . S
H1025 C1031 0.930 . S
C1026 H1012 0.930 . S
C1026 C1024 1.395 . S
C1026 C1029 1.403 . S
C1027 C1024 1.403 . S
C1027 C1028 1.524 . S
C1027 C1031 1.400 . S
C1028 H1013 0.960 . S
C1028 H1014 0.960 . S
C1028 H1015 0.960 . S
C1028 C1027 1.524 . S
C1029 C1026 1.403 . S
C1029 C1030 1.392 . S
C1029 C1033 1.495 . S
C1030 C1029 1.392 . S
C1030 C1031 1.385 . S
C1030 C1032 1.478 . S
C1031 H1025 0.930 . S
C1031 C1027 1.400 . S
C1031 C1030 1.385 . S
C1032 C1030 1.478 . S
C1032 C1034 1.381 . S
C1032 C1038 1.383 . S
C1033 C1029 1.495 . S
C1033 H1039 0.959 . S
C1033 H1040 0.961 . S
C1033 H1041 0.960 . S
C1034 C1032 1.381 . S
C1034 C1035 1.394 . S
C1034 H1042 0.930 . S
C1035 C1034 1.394 . S
C1035 C1036 1.383 . S
C1035 H1043 0.929 . S
C1036 C1035 1.383 . S
C1036 C1037 1.377 . S
C1037 H1021 0.930 . S
C1037 C1036 1.377 . S
C1037 C1038 1.379 . S
C1038 H1022 0.931 . S
C1038 C1032 1.383 . S
C1038 C1037 1.379 . S
H1039 C1033 0.959 . S
H1040 C1033 0.961 . S
H1041 C1033 0.960 . S
H1042 C1034 0.930 . S
H1043 C1035 0.929 . S
H1044 C1052 0.929 . S
H1045 C1054 0.930 . S
H1046 C1056 0.930 . S
H1047 C1059 0.929 . S
H1048 C1062 0.930 . S
H1049 C1064 0.960 . S
H1050 C1064 0.960 . S
H1051 C1064 0.960 . S
C1052 H1044 0.929 . S
C1052 C1053 1.377 . S
C1052 C1054 1.384 . S
C1053 C1052 1.377 . S
C1053 C1059 1.390 . S
C1054 H1045 0.930 . S
C1054 C1052 1.384 . S
C1054 C1055 1.372 . S
C1055 C1054 1.372 . S
C1055 C1056 1.400 . S
C1055 C1060 1.490 . S
C1056 H1046 0.930 . S
C1056 C1055 1.400 . S
C1056 C1059 1.386 . S
H1057 C1073 0.930 . S
H1058 C1074 0.931 . S
C1059 H1047 0.929 . S
C1059 C1053 1.390 . S
C1059 C1056 1.386 . S
C1060 C1055 1.490 . S
C1060 C1062 1.395 . S
C1060 C1063 1.403 . S
H1061 C1067 0.930 . S
C1062 H1048 0.930 . S
C1062 C1060 1.395 . S
C1062 C1065 1.403 . S
C1063 C1060 1.403 . S
C1063 C1064 1.524 . S
C1063 C1067 1.400 . S
C1064 H1049 0.960 . S
C1064 H1050 0.960 . S
C1064 H1051 0.960 . S
C1064 C1063 1.524 . S
C1065 C1062 1.403 . S
C1065 C1066 1.392 . S
C1065 C1069 1.495 . S
C1066 C1065 1.392 . S
C1066 C1067 1.385 . S
C1066 C1068 1.478 . S
C1067 H1061 0.930 . S
C1067 C1063 1.400 . S
C1067 C1066 1.385 . S
C1068 C1066 1.478 . S
C1068 C1070 1.381 . S
C1068 C1074 1.383 . S
C1069 C1065 1.495 . S
C1069 H1075 0.959 . S
C1069 H1076 0.961 . S
C1069 H1077 0.960 . S
C1070 C1068 1.381 . S
C1070 C1071 1.394 . S
C1070 H1078 0.930 . S
C1071 C1070 1.394 . S
C1071 C1072 1.383 . S
C1071 H1079 0.929 . S
C1072 C1071 1.383 . S
C1072 C1073 1.377 . S
C1073 H1057 0.930 . S
C1073 C1072 1.377 . S
C1073 C1074 1.379 . S
C1074 H1058 0.931 . S
C1074 C1068 1.383 . S
C1074 C1073 1.379 . S
H1075 C1069 0.959 . S
H1076 C1069 0.961 . S
H1077 C1069 0.960 . S
H1078 C1070 0.930 . S
H1079 C1071 0.929 . S
H1080 C1088 0.929 . S
H1081 C1090 0.930 . S
H1082 C1092 0.930 . S
H1083 C1095 0.929 . S
H1084 C1098 0.930 . S
H1085 C1100 0.960 . S
H1086 C1100 0.960 . S
H1087 C1100 0.960 . S
C1088 H1080 0.929 . S
C1088 C1089 1.377 . S
C1088 C1090 1.384 . S
C1089 C1088 1.377 . S
C1089 C1095 1.390 . S
C1090 H1081 0.930 . S
C1090 C1088 1.384 . S
C1090 C1091 1.372 . S
C1091 C1090 1.372 . S
C1091 C1092 1.400 . S
C1091 C1096 1.490 . S
C1092 H1082 0.930 . S
C1092 C1091 1.400 . S
C1092 C1095 1.386 . S
H1093 C1109 0.930 . S
H1094 C1110 0.931 . S
C1095 H1083 0.929 . S
C1095 C1089 1.390 . S
C1095 C1092 1.386 . S
C1096 C1091 1.490 . S
C1096 C1098 1.395 . S
C1096 C1099 1.403 . S
H1097 C1103 0.930 . S
C1098 H1084 0.930 . S
C1098 C1096 1.395 . S
C1098 C1101 1.403 . S
C1099 C1096 1.403 . S
C1099 C1100 1.524 . S
C1099 C1103 1.400 . S
C1100 H1085 0.960 . S
C1100 H1086 0.960 . S
C1100 H1087 0.960 . S
C1100 C1099 1.524 . S
C1101 C1098 1.403 . S
C1101 C1102 1.392 . S
C1101 C1105 1.495 . S
C1102 C1101 1.392 . S
C1102 C1103 1.385 . S
C1102 C1104 1.478 . S
C1103 H1097 0.930 . S
C1103 C1099 1.400 . S
C1103 C1102 1.385 . S
C1104 C1102 1.478 . S
C1104 C1106 1.381 . S
C1104 C1110 1.383 . S
C1105 C1101 1.495 . S
C1105 H1111 0.959 . S
C1105 H1112 0.961 . S
C1105 H1113 0.960 . S
C1106 C1104 1.381 . S
C1106 C1107 1.394 . S
C1106 H1114 0.930 . S
C1107 C1106 1.394 . S
C1107 C1108 1.383 . S
C1107 H1115 0.929 . S
C1108 C1107 1.383 . S
C1108 C1109 1.377 . S
C1109 H1093 0.930 . S
C1109 C1108 1.377 . S
C1109 C1110 1.379 . S
C1110 H1094 0.931 . S
C1110 C1104 1.383 . S
C1110 C1109 1.379 . S
H1111 C1105 0.959 . S
H1112 C1105 0.961 . S
H1113 C1105 0.960 . S
H1114 C1106 0.930 . S
H1115 C1107 0.929 . S
H1116 C1124 0.929 . S
H1117 C1126 0.930 . S
H1118 C1128 0.930 . S
H1119 C1131 0.929 . S
H1120 C1134 0.930 . S
H1121 C1136 0.960 . S
H1122 C1136 0.960 . S
H1123 C1136 0.960 . S
C1124 H1116 0.929 . S
C1124 C1125 1.377 . S
C1124 C1126 1.384 . S
C1125 C1124 1.377 . S
C1125 C1131 1.390 . S
C1126 H1117 0.930 . S
C1126 C1124 1.384 . S
C1126 C1127 1.372 . S
C1127 C1126 1.372 . S
C1127 C1128 1.400 . S
C1127 C1132 1.490 . S
C1128 H1118 0.930 . S
C1128 C1127 1.400 . S
C1128 C1131 1.386 . S
H1129 C1145 0.930 . S
H1130 C1146 0.931 . S
C1131 H1119 0.929 . S
C1131 C1125 1.390 . S
C1131 C1128 1.386 . S
C1132 C1127 1.490 . S
C1132 C1134 1.395 . S
C1132 C1135 1.403 . S
H1133 C1139 0.930 . S
C1134 H1120 0.930 . S
C1134 C1132 1.395 . S
C1134 C1137 1.403 . S
C1135 C1132 1.403 . S
C1135 C1136 1.524 . S
C1135 C1139 1.400 . S
C1136 H1121 0.960 . S
C1136 H1122 0.960 . S
C1136 H1123 0.960 . S
C1136 C1135 1.524 . S
C1137 C1134 1.403 . S
C1137 C1138 1.392 . S
C1137 C1141 1.495 . S
C1138 C1137 1.392 . S
C1138 C1139 1.385 . S
C1138 C1140 1.478 . S
C1139 H1133 0.930 . S
C1139 C1135 1.400 . S
C1139 C1138 1.385 . S
C1140 C1138 1.478 . S
C1140 C1142 1.381 . S
C1140 C1146 1.383 . S
C1141 C1137 1.495 . S
C1141 H1147 0.959 . S
C1141 H1148 0.961 . S
C1141 H1149 0.960 . S
C1142 C1140 1.381 . S
C1142 C1143 1.394 . S
C1142 H1150 0.930 . S
C1143 C1142 1.394 . S
C1143 C1144 1.383 . S
C1143 H1151 0.929 . S
C1144 C1143 1.383 . S
C1144 C1145 1.377 . S
C1145 H1129 0.930 . S
C1145 C1144 1.377 . S
C1145 C1146 1.379 . S
C1146 H1130 0.931 . S
C1146 C1140 1.383 . S
C1146 C1145 1.379 . S
H1147 C1141 0.959 . S
H1148 C1141 0.961 . S
H1149 C1141 0.960 . S
H1150 C1142 0.930 . S
H1151 C1143 0.929 . S
H1152 C1160 0.929 . S
H1153 C1162 0.930 . S
H1154 C1164 0.930 . S
H1155 C1167 0.929 . S
H1156 C1170 0.930 . S
H1157 C1172 0.960 . S
H1158 C1172 0.960 . S
H1159 C1172 0.960 . S
C1160 H1152 0.929 . S
C1160 C1161 1.377 . S
C1160 C1162 1.384 . S
C1161 C1160 1.377 . S
C1161 C1167 1.390 . S
C1162 H1153 0.930 . S
C1162 C1160 1.384 . S
C1162 C1163 1.372 . S
C1163 C1162 1.372 . S
C1163 C1164 1.400 . S
C1163 C1168 1.490 . S
C1164 H1154 0.930 . S
C1164 C1163 1.400 . S
C1164 C1167 1.386 . S
H1165 C1181 0.930 . S
H1166 C1182 0.931 . S
C1167 H1155 0.929 . S
C1167 C1161 1.390 . S
C1167 C1164 1.386 . S
C1168 C1163 1.490 . S
C1168 C1170 1.395 . S
C1168 C1171 1.403 . S
H1169 C1175 0.930 . S
C1170 H1156 0.930 . S
C1170 C1168 1.395 . S
C1170 C1173 1.403 . S
C1171 C1168 1.403 . S
C1171 C1172 1.524 . S
C1171 C1175 1.400 . S
C1172 H1157 0.960 . S
C1172 H1158 0.960 . S
C1172 H1159 0.960 . S
C1172 C1171 1.524 . S
C1173 C1170 1.403 . S
C1173 C1174 1.392 . S
C1173 C1177 1.495 . S
C1174 C1173 1.392 . S
C1174 C1175 1.385 . S
C1174 C1176 1.478 1_556 S
C1175 H1169 0.930 . S
C1175 C1171 1.400 . S
C1175 C1174 1.385 . S
C1176 C1174 1.478 1_554 S
C1176 C1178 1.381 . S
C1176 C1182 1.383 . S
C1177 C1173 1.495 . S
C1177 H1183 0.959 . S
C1177 H1184 0.961 1_556 S
C1177 H1185 0.960 . S
C1178 C1176 1.381 . S
C1178 C1179 1.394 . S
C1178 H1186 0.930 1_554 S
C1179 C1178 1.394 . S
C1179 C1180 1.383 . S
C1179 H1187 0.929 . S
C1180 C1179 1.383 . S
C1180 C1181 1.377 . S
C1181 H1165 0.930 . S
C1181 C1180 1.377 . S
C1181 C1182 1.379 . S
C1182 H1166 0.931 . S
C1182 C1176 1.383 . S
C1182 C1181 1.379 . S
H1183 C1177 0.959 . S
H1184 C1177 0.961 1_554 S
H1185 C1177 0.960 . S
H1186 C1178 0.930 1_556 S
H1187 C1179 0.929 . S
H1188 C1196 0.929 . S
H1189 C1198 0.930 . S
H1190 C1200 0.930 1_556 S
H1191 C1203 0.929 . S
H1192 C1206 0.930 1_554 S
H1193 C1208 0.960 . S
H1194 C1208 0.960 . S
H1195 C1208 0.960 . S
C1196 H1188 0.929 . S
C1196 C1197 1.377 . S
C1196 C1198 1.384 . S
C1197 C1196 1.377 . S
C1197 C1203 1.390 . S
C1198 H1189 0.930 . S
C1198 C1196 1.384 . S
C1198 C1199 1.372 . S
C1199 C1198 1.372 . S
C1199 C1200 1.400 . S
C1199 C1204 1.490 1_554 S
C1200 H1190 0.930 1_554 S
C1200 C1199 1.400 . S
C1200 C1203 1.386 . S
H1201 C1217 0.930 . S
H1202 C1218 0.931 . S
C1203 H1191 0.929 . S
C1203 C1197 1.390 . S
C1203 C1200 1.386 . S
C1204 C1199 1.490 1_556 S
C1204 C1206 1.395 . S
C1204 C1207 1.403 . S
H1205 C1211 0.930 . S
C1206 H1192 0.930 1_556 S
C1206 C1204 1.395 . S
C1206 C1209 1.403 . S
C1207 C1204 1.403 . S
C1207 C1208 1.524 . S
C1207 C1211 1.400 . S
C1208 H1193 0.960 . S
C1208 H1194 0.960 . S
C1208 H1195 0.960 . S
C1208 C1207 1.524 . S
C1209 C1206 1.403 . S
C1209 C1210 1.392 . S
C1209 C1213 1.495 . S
C1210 C1209 1.392 . S
C1210 C1211 1.385 . S
C1210 C1212 1.478 . S
C1211 H1205 0.930 . S
C1211 C1207 1.400 . S
C1211 C1210 1.385 . S
C1212 C1210 1.478 . S
C1212 C1214 1.381 . S
C1212 C1218 1.383 . S
C1213 C1209 1.495 . S
C1213 H1219 0.959 . S
C1213 H1220 0.961 . S
C1213 H1221 0.960 . S
C1214 C1212 1.381 . S
C1214 C1215 1.394 . S
C1214 H1222 0.930 . S
C1215 C1214 1.394 . S
C1215 C1216 1.383 . S
C1215 H1223 0.929 . S
C1216 C1215 1.383 . S
C1216 C1217 1.377 . S
C1217 H1201 0.930 . S
C1217 C1216 1.377 . S
C1217 C1218 1.379 . S
C1218 H1202 0.931 . S
C1218 C1212 1.383 . S
C1218 C1217 1.379 . S
H1219 C1213 0.959 . S
H1220 C1213 0.961 . S
H1221 C1213 0.960 . S
H1222 C1214 0.930 . S
H1223 C1215 0.929 . S
H1224 C1232 0.929 . S
H1225 C1234 0.930 . S
H1226 C1236 0.930 1_556 S
H1227 C1239 0.929 . S
H1228 C1242 0.930 1_554 S
H1229 C1244 0.960 . S
H1230 C1244 0.960 . S
H1231 C1244 0.960 . S
C1232 H1224 0.929 . S
C1232 C1233 1.377 . S
C1232 C1234 1.384 . S
C1233 C1232 1.377 . S
C1233 C1239 1.390 . S
C1234 H1225 0.930 . S
C1234 C1232 1.384 . S
C1234 C1235 1.372 . S
C1235 C1234 1.372 . S
C1235 C1236 1.400 . S
C1235 C1240 1.490 1_554 S
C1236 H1226 0.930 1_554 S
C1236 C1235 1.400 . S
C1236 C1239 1.386 . S
H1237 C1253 0.930 . S
H1238 C1254 0.931 . S
C1239 H1227 0.929 . S
C1239 C1233 1.390 . S
C1239 C1236 1.386 . S
C1240 C1235 1.490 1_556 S
C1240 C1242 1.395 . S
C1240 C1243 1.403 . S
H1241 C1247 0.930 . S
C1242 H1228 0.930 1_556 S
C1242 C1240 1.395 . S
C1242 C1245 1.403 . S
C1243 C1240 1.403 . S
C1243 C1244 1.524 . S
C1243 C1247 1.400 . S
C1244 H1229 0.960 . S
C1244 H1230 0.960 . S
C1244 H1231 0.960 . S
C1244 C1243 1.524 . S
C1245 C1242 1.403 . S
C1245 C1246 1.392 . S
C1245 C1249 1.495 . S
C1246 C1245 1.392 . S
C1246 C1247 1.385 . S
C1246 C1248 1.478 . S
C1247 H1241 0.930 . S
C1247 C1243 1.400 . S
C1247 C1246 1.385 . S
C1248 C1246 1.478 . S
C1248 C1250 1.381 . S
C1248 C1254 1.383 . S
C1249 C1245 1.495 . S
C1249 H1255 0.959 . S
C1249 H1256 0.961 . S
C1249 H1257 0.960 . S
C1250 C1248 1.381 . S
C1250 C1251 1.394 . S
C1250 H1258 0.930 . S
C1251 C1250 1.394 . S
C1251 C1252 1.383 . S
C1251 H1259 0.929 . S
C1252 C1251 1.383 . S
C1252 C1253 1.377 . S
C1253 H1237 0.930 . S
C1253 C1252 1.377 . S
C1253 C1254 1.379 . S
C1254 H1238 0.931 . S
C1254 C1248 1.383 . S
C1254 C1253 1.379 . S
H1255 C1249 0.959 . S
H1256 C1249 0.961 . S
H1257 C1249 0.960 . S
H1258 C1250 0.930 . S
H1259 C1251 0.929 . S
H1260 C1268 0.929 . S
H1261 C1270 0.930 . S
H1262 C1272 0.930 . S
H1263 C1275 0.929 . S
H1264 C1278 0.930 . S
H1265 C1280 0.960 . S
H1266 C1280 0.960 . S
H1267 C1280 0.960 . S
C1268 H1260 0.929 . S
C1268 C1269 1.377 . S
C1268 C1270 1.384 . S
C1269 C1268 1.377 . S
C1269 C1275 1.390 . S
C1270 H1261 0.930 . S
C1270 C1268 1.384 . S
C1270 C1271 1.372 . S
C1271 C1270 1.372 . S
C1271 C1272 1.400 . S
C1271 C1276 1.490 . S
C1272 H1262 0.930 . S
C1272 C1271 1.400 . S
C1272 C1275 1.386 . S
H1273 C1289 0.930 . S
H1274 C1290 0.931 . S
C1275 H1263 0.929 . S
C1275 C1269 1.390 . S
C1275 C1272 1.386 . S
C1276 C1271 1.490 . S
C1276 C1278 1.395 . S
C1276 C1279 1.403 . S
H1277 C1283 0.930 . S
C1278 H1264 0.930 . S
C1278 C1276 1.395 . S
C1278 C1281 1.403 . S
C1279 C1276 1.403 . S
C1279 C1280 1.524 . S
C1279 C1283 1.400 . S
C1280 H1265 0.960 . S
C1280 H1266 0.960 . S
C1280 H1267 0.960 . S
C1280 C1279 1.524 . S
C1281 C1278 1.403 . S
C1281 C1282 1.392 . S
C1281 C1285 1.495 . S
C1282 C1281 1.392 . S
C1282 C1283 1.385 . S
C1282 C1284 1.478 . S
C1283 H1277 0.930 . S
C1283 C1279 1.400 . S
C1283 C1282 1.385 . S
C1284 C1282 1.478 . S
C1284 C1286 1.381 . S
C1284 C1290 1.383 . S
C1285 C1281 1.495 . S
C1285 H1291 0.959 . S
C1285 H1292 0.961 . S
C1285 H1293 0.960 . S
C1286 C1284 1.381 . S
C1286 C1287 1.394 . S
C1286 H1294 0.930 . S
C1287 C1286 1.394 . S
C1287 C1288 1.383 . S
C1287 H1295 0.929 . S
C1288 C1287 1.383 . S
C1288 C1289 1.377 . S
C1289 H1273 0.930 . S
C1289 C1288 1.377 . S
C1289 C1290 1.379 . S
C1290 H1274 0.931 . S
C1290 C1284 1.383 . S
C1290 C1289 1.379 . S
H1291 C1285 0.959 . S
H1292 C1285 0.961 . S
H1293 C1285 0.960 . S
H1294 C1286 0.930 . S
H1295 C1287 0.929 . S
H1296 C1304 0.929 . S
H1297 C1306 0.930 . S
H1298 C1308 0.930 . S
H1299 C1311 0.929 . S
H1300 C1314 0.930 . S
H1301 C1316 0.960 . S
H1302 C1316 0.960 . S
H1303 C1316 0.960 . S
C1304 H1296 0.929 . S
C1304 C1305 1.377 . S
C1304 C1306 1.384 . S
C1305 C1304 1.377 . S
C1305 C1311 1.390 . S
C1306 H1297 0.930 . S
C1306 C1304 1.384 . S
C1306 C1307 1.372 . S
C1307 C1306 1.372 . S
C1307 C1308 1.400 . S
C1307 C1312 1.490 . S
C1308 H1298 0.930 . S
C1308 C1307 1.400 . S
C1308 C1311 1.386 . S
H1309 C1325 0.930 . S
H1310 C1326 0.931 . S
C1311 H1299 0.929 . S
C1311 C1305 1.390 . S
C1311 C1308 1.386 . S
C1312 C1307 1.490 . S
C1312 C1314 1.395 . S
C1312 C1315 1.403 . S
H1313 C1319 0.930 . S
C1314 H1300 0.930 . S
C1314 C1312 1.395 . S
C1314 C1317 1.403 . S
C1315 C1312 1.403 . S
C1315 C1316 1.524 . S
C1315 C1319 1.400 . S
C1316 H1301 0.960 . S
C1316 H1302 0.960 . S
C1316 H1303 0.960 . S
C1316 C1315 1.524 . S
C1317 C1314 1.403 . S
C1317 C1318 1.392 . S
C1317 C1321 1.495 . S
C1318 C1317 1.392 . S
C1318 C1319 1.385 . S
C1318 C1320 1.478 . S
C1319 H1313 0.930 . S
C1319 C1315 1.400 . S
C1319 C1318 1.385 . S
C1320 C1318 1.478 . S
C1320 C1322 1.381 . S
C1320 C1326 1.383 . S
C1321 C1317 1.495 . S
C1321 H1327 0.959 . S
C1321 H1328 0.961 . S
C1321 H1329 0.960 . S
C1322 C1320 1.381 . S
C1322 C1323 1.394 . S
C1322 H1330 0.930 . S
C1323 C1322 1.394 . S
C1323 C1324 1.383 . S
C1323 H1331 0.929 . S
C1324 C1323 1.383 . S
C1324 C1325 1.377 . S
C1325 H1309 0.930 . S
C1325 C1324 1.377 . S
C1325 C1326 1.379 . S
C1326 H1310 0.931 . S
C1326 C1320 1.383 . S
C1326 C1325 1.379 . S
H1327 C1321 0.959 . S
H1328 C1321 0.961 . S
H1329 C1321 0.960 . S
H1330 C1322 0.930 . S
H1331 C1323 0.929 . S
H1332 C1340 0.929 . S
H1333 C1342 0.930 . S
H1334 C1344 0.930 . S
H1335 C1347 0.929 . S
H1336 C1350 0.930 . S
H1337 C1352 0.960 . S
H1338 C1352 0.960 . S
H1339 C1352 0.960 . S
C1340 H1332 0.929 . S
C1340 C1341 1.377 . S
C1340 C1342 1.384 . S
C1341 C1340 1.377 . S
C1341 C1347 1.390 . S
C1342 H1333 0.930 . S
C1342 C1340 1.384 . S
C1342 C1343 1.372 . S
C1343 C1342 1.372 . S
C1343 C1344 1.400 . S
C1343 C1348 1.490 . S
C1344 H1334 0.930 . S
C1344 C1343 1.400 . S
C1344 C1347 1.386 . S
H1345 C1361 0.930 . S
H1346 C1362 0.931 . S
C1347 H1335 0.929 . S
C1347 C1341 1.390 . S
C1347 C1344 1.386 . S
C1348 C1343 1.490 . S
C1348 C1350 1.395 . S
C1348 C1351 1.403 . S
H1349 C1355 0.930 . S
C1350 H1336 0.930 . S
C1350 C1348 1.395 . S
C1350 C1353 1.403 . S
C1351 C1348 1.403 . S
C1351 C1352 1.524 . S
C1351 C1355 1.400 . S
C1352 H1337 0.960 . S
C1352 H1338 0.960 . S
C1352 H1339 0.960 . S
C1352 C1351 1.524 . S
C1353 C1350 1.403 . S
C1353 C1354 1.392 . S
C1353 C1357 1.495 . S
C1354 C1353 1.392 . S
C1354 C1355 1.385 . S
C1354 C1356 1.478 . S
C1355 H1349 0.930 . S
C1355 C1351 1.400 . S
C1355 C1354 1.385 . S
C1356 C1354 1.478 . S
C1356 C1358 1.381 . S
C1356 C1362 1.383 . S
C1357 C1353 1.495 . S
C1357 H1363 0.959 . S
C1357 H1364 0.961 . S
C1357 H1365 0.960 . S
C1358 C1356 1.381 . S
C1358 C1359 1.394 . S
C1358 H1366 0.930 . S
C1359 C1358 1.394 . S
C1359 C1360 1.383 . S
C1359 H1367 0.929 . S
C1360 C1359 1.383 . S
C1360 C1361 1.377 . S
C1361 H1345 0.930 . S
C1361 C1360 1.377 . S
C1361 C1362 1.379 . S
C1362 H1346 0.931 . S
C1362 C1356 1.383 . S
C1362 C1361 1.379 . S
H1363 C1357 0.959 . S
H1364 C1357 0.961 . S
H1365 C1357 0.960 . S
H1366 C1358 0.930 . S
H1367 C1359 0.929 . S
H1368 C1376 0.929 . S
H1369 C1378 0.930 . S
H1370 C1380 0.930 1_554 S
H1371 C1383 0.929 . S
H1372 C1386 0.930 1_556 S
H1373 C1388 0.960 . S
H1374 C1388 0.960 . S
H1375 C1388 0.960 . S
C1376 H1368 0.929 . S
C1376 C1377 1.377 . S
C1376 C1378 1.384 . S
C1377 C1376 1.377 . S
C1377 C1383 1.390 . S
C1378 H1369 0.930 . S
C1378 C1376 1.384 . S
C1378 C1379 1.372 . S
C1379 C1378 1.372 . S
C1379 C1380 1.400 . S
C1379 C1384 1.490 1_556 S
C1380 H1370 0.930 1_556 S
C1380 C1379 1.400 . S
C1380 C1383 1.386 . S
H1381 C1397 0.930 . S
H1382 C1398 0.931 . S
C1383 H1371 0.929 . S
C1383 C1377 1.390 . S
C1383 C1380 1.386 . S
C1384 C1379 1.490 1_554 S
C1384 C1386 1.395 . S
C1384 C1387 1.403 . S
H1385 C1391 0.930 . S
C1386 H1372 0.930 1_554 S
C1386 C1384 1.395 . S
C1386 C1389 1.403 . S
C1387 C1384 1.403 . S
C1387 C1388 1.524 . S
C1387 C1391 1.400 . S
C1388 H1373 0.960 . S
C1388 H1374 0.960 . S
C1388 H1375 0.960 . S
C1388 C1387 1.524 . S
C1389 C1386 1.403 . S
C1389 C1390 1.392 . S
C1389 C1393 1.495 . S
C1390 C1389 1.392 . S
C1390 C1391 1.385 . S
C1390 C1392 1.478 . S
C1391 H1385 0.930 . S
C1391 C1387 1.400 . S
C1391 C1390 1.385 . S
C1392 C1390 1.478 . S
C1392 C1394 1.381 . S
C1392 C1398 1.383 . S
C1393 C1389 1.495 . S
C1393 H1399 0.959 . S
C1393 H1400 0.961 . S
C1393 H1401 0.960 . S
C1394 C1392 1.381 . S
C1394 C1395 1.394 . S
C1394 H1402 0.930 . S
C1395 C1394 1.394 . S
C1395 C1396 1.383 . S
C1395 H1403 0.929 . S
C1396 C1395 1.383 . S
C1396 C1397 1.377 . S
C1397 H1381 0.930 . S
C1397 C1396 1.377 . S
C1397 C1398 1.379 . S
C1398 H1382 0.931 . S
C1398 C1392 1.383 . S
C1398 C1397 1.379 . S
H1399 C1393 0.959 . S
H1400 C1393 0.961 . S
H1401 C1393 0.960 . S
H1402 C1394 0.930 . S
H1403 C1395 0.929 . S
H1404 C1412 0.929 . S
H1405 C1414 0.930 . S
H1406 C1416 0.930 . S
H1407 C1419 0.929 . S
H1408 C1422 0.930 . S
H1409 C1424 0.960 . S
H1410 C1424 0.960 . S
H1411 C1424 0.960 . S
C1412 H1404 0.929 . S
C1412 C1413 1.377 . S
C1412 C1414 1.384 . S
C1413 C1412 1.377 . S
C1413 C1419 1.390 . S
C1414 H1405 0.930 . S
C1414 C1412 1.384 . S
C1414 C1415 1.372 . S
C1415 C1414 1.372 . S
C1415 C1416 1.400 . S
C1415 C1420 1.490 1_556 S
C1416 H1406 0.930 . S
C1416 C1415 1.400 . S
C1416 C1419 1.386 . S
H1417 C1433 0.930 . S
H1418 C1434 0.931 . S
C1419 H1407 0.929 . S
C1419 C1413 1.390 . S
C1419 C1416 1.386 . S
C1420 C1415 1.490 1_554 S
C1420 C1422 1.395 . S
C1420 C1423 1.403 . S
H1421 C1427 0.930 . S
C1422 H1408 0.930 . S
C1422 C1420 1.395 . S
C1422 C1425 1.403 . S
C1423 C1420 1.403 . S
C1423 C1424 1.524 1_554 S
C1423 C1427 1.400 . S
C1424 H1409 0.960 . S
C1424 H1410 0.960 . S
C1424 H1411 0.960 . S
C1424 C1423 1.524 1_556 S
C1425 C1422 1.403 . S
C1425 C1426 1.392 . S
C1425 C1429 1.495 . S
C1426 C1425 1.392 . S
C1426 C1427 1.385 . S
C1426 C1428 1.478 . S
C1427 H1421 0.930 . S
C1427 C1423 1.400 . S
C1427 C1426 1.385 . S
C1428 C1426 1.478 . S
C1428 C1430 1.381 . S
C1428 C1434 1.383 . S
C1429 C1425 1.495 . S
C1429 H1435 0.959 . S
C1429 H1436 0.961 . S
C1429 H1437 0.960 . S
C1430 C1428 1.381 . S
C1430 C1431 1.394 . S
C1430 H1438 0.930 . S
C1431 C1430 1.394 . S
C1431 C1432 1.383 . S
C1431 H1439 0.929 . S
C1432 C1431 1.383 . S
C1432 C1433 1.377 . S
C1433 H1417 0.930 . S
C1433 C1432 1.377 . S
C1433 C1434 1.379 . S
C1434 H1418 0.931 . S
C1434 C1428 1.383 . S
C1434 C1433 1.379 . S
H1435 C1429 0.959 . S
H1436 C1429 0.961 . S
H1437 C1429 0.960 . S
H1438 C1430 0.930 . S
H1439 C1431 0.929 . S
H1440 C1448 0.929 . S
H1441 C1450 0.930 . S
H1442 C1452 0.930 . S
H1443 C1455 0.929 . S
H1444 C1458 0.930 . S
H1445 C1460 0.960 . S
H1446 C1460 0.960 . S
H1447 C1460 0.960 . S
C1448 H1440 0.929 . S
C1448 C1449 1.377 . S
C1448 C1450 1.384 . S
C1449 C1448 1.377 . S
C1449 C1455 1.390 . S
C1450 H1441 0.930 . S
C1450 C1448 1.384 . S
C1450 C1451 1.372 . S
C1451 C1450 1.372 . S
C1451 C1452 1.400 . S
C1451 C1456 1.490 . S
C1452 H1442 0.930 . S
C1452 C1451 1.400 . S
C1452 C1455 1.386 . S
H1453 C1469 0.930 . S
H1454 C1470 0.931 . S
C1455 H1443 0.929 . S
C1455 C1449 1.390 . S
C1455 C1452 1.386 . S
C1456 C1451 1.490 . S
C1456 C1458 1.395 . S
C1456 C1459 1.403 . S
H1457 C1463 0.930 1_556 S
C1458 H1444 0.930 . S
C1458 C1456 1.395 . S
C1458 C1461 1.403 . S
C1459 C1456 1.403 . S
C1459 C1460 1.524 . S
C1459 C1463 1.400 . S
C1460 H1445 0.960 . S
C1460 H1446 0.960 . S
C1460 H1447 0.960 . S
C1460 C1459 1.524 . S
C1461 C1458 1.403 . S
C1461 C1462 1.392 . S
C1461 C1465 1.495 . S
C1462 C1461 1.392 . S
C1462 C1463 1.385 . S
C1462 C1464 1.478 1_554 S
C1463 H1457 0.930 1_554 S
C1463 C1459 1.400 . S
C1463 C1462 1.385 . S
C1464 C1462 1.478 1_556 S
C1464 C1466 1.381 . S
C1464 C1470 1.383 . S
C1465 C1461 1.495 . S
C1465 H1471 0.959 . S
C1465 H1472 0.961 . S
C1465 H1473 0.960 . S
C1466 C1464 1.381 . S
C1466 C1467 1.394 . S
C1466 H1474 0.940 . S
C1467 C1466 1.394 . S
C1467 C1468 1.383 . S
C1467 H1475 0.929 . S
C1468 C1467 1.383 . S
C1468 C1469 1.377 . S
C1469 H1453 0.930 . S
C1469 C1468 1.377 . S
C1469 C1470 1.379 . S
C1470 H1454 0.931 . S
C1470 C1464 1.383 . S
C1470 C1469 1.379 . S
H1471 C1465 0.959 . S
H1472 C1465 0.961 . S
H1473 C1465 0.960 . S
H1474 C1466 0.940 . S
H1475 C1467 0.929 . S
H1476 C1484 0.929 . S
H1477 C1486 0.930 . S
H1478 C1488 0.930 . S
H1479 C1491 0.929 . S
H1480 C1494 0.930 . S
H1481 C1496 0.960 . S
H1482 C1496 0.960 . S
H1483 C1496 0.960 . S
C1484 H1476 0.929 . S
C1484 C1485 1.377 . S
C1484 C1486 1.384 . S
C1485 C1484 1.377 . S
C1485 C1491 1.390 . S
C1486 H1477 0.930 . S
C1486 C1484 1.384 . S
C1486 C1487 1.372 . S
C1487 C1486 1.372 . S
C1487 C1488 1.400 . S
C1487 C1492 1.490 . S
C1488 H1478 0.930 . S
C1488 C1487 1.400 . S
C1488 C1491 1.386 . S
H1489 C1505 0.930 . S
H1490 C1506 0.931 . S
C1491 H1479 0.929 . S
C1491 C1485 1.390 . S
C1491 C1488 1.386 . S
C1492 C1487 1.490 . S
C1492 C1494 1.395 . S
C1492 C1495 1.403 . S
H1493 C1499 0.930 . S
C1494 H1480 0.930 . S
C1494 C1492 1.395 . S
C1494 C1497 1.403 . S
C1495 C1492 1.403 . S
C1495 C1496 1.524 . S
C1495 C1499 1.400 . S
C1496 H1481 0.960 . S
C1496 H1482 0.960 . S
C1496 H1483 0.960 . S
C1496 C1495 1.524 . S
C1497 C1494 1.403 . S
C1497 C1498 1.392 . S
C1497 C1501 1.495 . S
C1498 C1497 1.392 . S
C1498 C1499 1.385 . S
C1498 C1500 1.478 . S
C1499 H1493 0.930 . S
C1499 C1495 1.400 . S
C1499 C1498 1.385 . S
C1500 C1498 1.478 . S
C1500 C1502 1.381 . S
C1500 C1506 1.383 . S
C1501 C1497 1.495 . S
C1501 H1507 0.959 . S
C1501 H1508 0.961 . S
C1501 H1509 0.960 . S
C1502 C1500 1.381 . S
C1502 C1503 1.394 . S
C1502 H1510 0.930 . S
C1503 C1502 1.394 . S
C1503 C1504 1.383 . S
C1503 H1511 0.929 . S
C1504 C1503 1.383 . S
C1504 C1505 1.377 . S
C1505 H1489 0.930 . S
C1505 C1504 1.377 . S
C1505 C1506 1.379 . S
C1506 H1490 0.931 . S
C1506 C1500 1.383 . S
C1506 C1505 1.379 . S
H1507 C1501 0.959 . S
H1508 C1501 0.961 . S
H1509 C1501 0.960 . S
H1510 C1502 0.930 . S
H1511 C1503 0.929 . S
H1512 C1520 0.929 . S
H1513 C1522 0.930 . S
H1514 C1524 0.930 . S
H1515 C1527 0.929 . S
H1516 C1530 0.930 . S
H1517 C1532 0.960 . S
H1518 C1532 0.960 . S
H1519 C1532 0.960 . S
C1520 H1512 0.929 . S
C1520 C1521 1.377 . S
C1520 C1522 1.384 . S
C1521 C1520 1.377 . S
C1521 C1527 1.390 . S
C1522 H1513 0.930 . S
C1522 C1520 1.384 . S
C1522 C1523 1.372 . S
C1523 C1522 1.372 . S
C1523 C1524 1.400 . S
C1523 C1528 1.490 . S
C1524 H1514 0.930 . S
C1524 C1523 1.400 . S
C1524 C1527 1.386 . S
H1525 C1541 0.930 . S
H1526 C1542 0.931 . S
C1527 H1515 0.929 . S
C1527 C1521 1.390 . S
C1527 C1524 1.386 . S
C1528 C1523 1.490 . S
C1528 C1530 1.395 . S
C1528 C1531 1.403 . S
H1529 C1535 0.930 . S
C1530 H1516 0.930 . S
C1530 C1528 1.395 . S
C1530 C1533 1.403 . S
C1531 C1528 1.403 . S
C1531 C1532 1.524 . S
C1531 C1535 1.400 . S
C1532 H1517 0.960 . S
C1532 H1518 0.960 . S
C1532 H1519 0.960 . S
C1532 C1531 1.524 . S
C1533 C1530 1.403 . S
C1533 C1534 1.392 . S
C1533 C1537 1.495 . S
C1534 C1533 1.392 . S
C1534 C1535 1.385 . S
C1534 C1536 1.478 . S
C1535 H1529 0.930 . S
C1535 C1531 1.400 . S
C1535 C1534 1.385 . S
C1536 C1534 1.478 . S
C1536 C1538 1.381 . S
C1536 C1542 1.383 . S
C1537 C1533 1.495 . S
C1537 H1543 0.959 . S
C1537 H1544 0.961 . S
C1537 H1545 0.960 . S
C1538 C1536 1.381 . S
C1538 C1539 1.394 . S
C1538 H1546 0.930 . S
C1539 C1538 1.394 . S
C1539 C1540 1.383 . S
C1539 H1547 0.929 . S
C1540 C1539 1.383 . S
C1540 C1541 1.377 . S
C1541 H1525 0.930 . S
C1541 C1540 1.377 . S
C1541 C1542 1.379 . S
C1542 H1526 0.931 . S
C1542 C1536 1.383 . S
C1542 C1541 1.379 . S
H1543 C1537 0.959 . S
H1544 C1537 0.961 . S
H1545 C1537 0.960 . S
H1546 C1538 0.930 . S
H1547 C1539 0.929 . S
H1548 C1556 0.929 . S
H1549 C1558 0.930 . S
H1550 C1560 0.930 . S
H1551 C1563 0.929 . S
H1552 C1566 0.930 . S
H1553 C1568 0.960 . S
H1554 C1568 0.960 . S
H1555 C1568 0.960 . S
C1556 H1548 0.929 . S
C1556 C1557 1.377 . S
C1556 C1558 1.384 . S
C1557 C1556 1.377 . S
C1557 C1563 1.390 . S
C1558 H1549 0.930 . S
C1558 C1556 1.384 . S
C1558 C1559 1.372 . S
C1559 C1558 1.372 . S
C1559 C1560 1.400 . S
C1559 C1564 1.490 . S
C1560 H1550 0.930 . S
C1560 C1559 1.400 . S
C1560 C1563 1.386 . S
H1561 C1577 0.930 . S
H1562 C1578 0.931 . S
C1563 H1551 0.929 . S
C1563 C1557 1.390 . S
C1563 C1560 1.386 . S
C1564 C1559 1.490 . S
C1564 C1566 1.395 . S
C1564 C1567 1.403 . S
H1565 C1571 0.930 . S
C1566 H1552 0.930 . S
C1566 C1564 1.395 . S
C1566 C1569 1.403 . S
C1567 C1564 1.403 . S
C1567 C1568 1.524 . S
C1567 C1571 1.400 . S
C1568 H1553 0.960 . S
C1568 H1554 0.960 . S
C1568 H1555 0.960 . S
C1568 C1567 1.524 . S
C1569 C1566 1.403 . S
C1569 C1570 1.392 . S
C1569 C1573 1.495 . S
C1570 C1569 1.392 . S
C1570 C1571 1.385 . S
C1570 C1572 1.478 . S
C1571 H1565 0.930 . S
C1571 C1567 1.400 . S
C1571 C1570 1.385 . S
C1572 C1570 1.478 . S
C1572 C1574 1.381 . S
C1572 C1578 1.383 . S
C1573 C1569 1.495 . S
C1573 H1579 0.959 . S
C1573 H1580 0.961 . S
C1573 H1581 0.960 . S
C1574 C1572 1.381 . S
C1574 C1575 1.394 . S
C1574 H1582 0.930 . S
C1575 C1574 1.394 . S
C1575 C1576 1.383 . S
C1575 H1583 0.929 . S
C1576 C1575 1.383 . S
C1576 C1577 1.377 . S
C1577 H1561 0.930 . S
C1577 C1576 1.377 . S
C1577 C1578 1.379 . S
C1578 H1562 0.931 . S
C1578 C1572 1.383 . S
C1578 C1577 1.379 . S
H1579 C1573 0.959 . S
H1580 C1573 0.961 . S
H1581 C1573 0.960 . S
H1582 C1574 0.930 . S
H1583 C1575 0.929 . S
H1584 C1592 0.929 . S
H1585 C1594 0.930 . S
H1586 C1596 0.930 . S
H1587 C1599 0.929 . S
H1588 C1602 0.930 . S
H1589 C1604 0.960 . S
H1590 C1604 0.960 . S
H1591 C1604 0.960 . S
C1592 H1584 0.929 . S
C1592 C1593 1.377 . S
C1592 C1594 1.384 . S
C1593 C1592 1.377 . S
C1593 C1599 1.390 . S
C1594 H1585 0.930 . S
C1594 C1592 1.384 . S
C1594 C1595 1.372 . S
C1595 C1594 1.372 . S
C1595 C1596 1.400 . S
C1595 C1600 1.490 . S
C1596 H1586 0.930 . S
C1596 C1595 1.400 . S
C1596 C1599 1.386 . S
H1597 C1613 0.930 . S
H1598 C1614 0.931 . S
C1599 H1587 0.929 . S
C1599 C1593 1.390 . S
C1599 C1596 1.386 . S
C1600 C1595 1.490 . S
C1600 C1602 1.395 . S
C1600 C1603 1.403 . S
H1601 C1607 0.930 . S
C1602 H1588 0.930 . S
C1602 C1600 1.395 . S
C1602 C1605 1.403 . S
C1603 C1600 1.403 . S
C1603 C1604 1.524 . S
C1603 C1607 1.400 . S
C1604 H1589 0.960 . S
C1604 H1590 0.960 . S
C1604 H1591 0.960 . S
C1604 C1603 1.524 . S
C1605 C1602 1.403 . S
C1605 C1606 1.392 . S
C1605 C1609 1.495 . S
C1606 C1605 1.392 . S
C1606 C1607 1.385 . S
C1606 C1608 1.478 . S
C1607 H1601 0.930 . S
C1607 C1603 1.400 . S
C1607 C1606 1.385 . S
C1608 C1606 1.478 . S
C1608 C1610 1.381 . S
C1608 C1614 1.383 . S
C1609 C1605 1.495 . S
C1609 H1615 0.959 . S
C1609 H1616 0.961 . S
C1609 H1617 0.960 . S
C1610 C1608 1.381 . S
C1610 C1611 1.394 . S
C1610 H1618 0.930 . S
C1611 C1610 1.394 . S
C1611 C1612 1.383 . S
C1611 H1619 0.929 . S
C1612 C1611 1.383 . S
C1612 C1613 1.377 . S
C1613 H1597 0.930 . S
C1613 C1612 1.377 . S
C1613 C1614 1.379 . S
C1614 H1598 0.931 . S
C1614 C1608 1.383 . S
C1614 C1613 1.379 . S
H1615 C1609 0.959 . S
H1616 C1609 0.961 . S
H1617 C1609 0.960 . S
H1618 C1610 0.930 . S
H1619 C1611 0.929 . S
H1620 C1628 0.929 . S
H1621 C1630 0.930 . S
H1622 C1632 0.930 . S
H1623 C1635 0.929 . S
H1624 C1638 0.930 . S
H1625 C1640 0.960 . S
H1626 C1640 0.960 . S
H1627 C1640 0.960 . S
C1628 H1620 0.929 . S
C1628 C1629 1.377 . S
C1628 C1630 1.384 . S
C1629 C1628 1.377 . S
C1629 C1635 1.390 . S
C1630 H1621 0.930 . S
C1630 C1628 1.384 . S
C1630 C1631 1.372 . S
C1631 C1630 1.372 . S
C1631 C1632 1.400 . S
C1631 C1636 1.490 . S
C1632 H1622 0.930 . S
C1632 C1631 1.400 . S
C1632 C1635 1.386 . S
H1633 C1649 0.930 . S
H1634 C1650 0.931 . S
C1635 H1623 0.929 . S
C1635 C1629 1.390 . S
C1635 C1632 1.386 . S
C1636 C1631 1.490 . S
C1636 C1638 1.395 . S
C1636 C1639 1.403 . S
H1637 C1643 0.930 . S
C1638 H1624 0.930 . S
C1638 C1636 1.395 . S
C1638 C1641 1.403 . S
C1639 C1636 1.403 . S
C1639 C1640 1.524 . S
C1639 C1643 1.400 . S
C1640 H1625 0.960 . S
C1640 H1626 0.960 . S
C1640 H1627 0.960 . S
C1640 C1639 1.524 . S
C1641 C1638 1.403 . S
C1641 C1642 1.392 . S
C1641 C1645 1.495 . S
C1642 C1641 1.392 . S
C1642 C1643 1.385 . S
C1642 C1644 1.478 . S
C1643 H1637 0.930 . S
C1643 C1639 1.400 . S
C1643 C1642 1.385 . S
C1644 C1642 1.478 . S
C1644 C1646 1.381 . S
C1644 C1650 1.383 . S
C1645 C1641 1.495 . S
C1645 H1651 0.959 . S
C1645 H1652 0.961 . S
C1645 H1653 0.960 . S
C1646 C1644 1.381 . S
C1646 C1647 1.394 . S
C1646 H1654 0.930 . S
C1647 C1646 1.394 . S
C1647 C1648 1.383 . S
C1647 H1655 0.929 . S
C1648 C1647 1.383 . S
C1648 C1649 1.377 . S
C1649 H1633 0.930 . S
C1649 C1648 1.377 . S
C1649 C1650 1.379 . S
C1650 H1634 0.931 . S
C1650 C1644 1.383 . S
C1650 C1649 1.379 . S
H1651 C1645 0.959 . S
H1652 C1645 0.961 . S
H1653 C1645 0.960 . S
H1654 C1646 0.930 . S
H1655 C1647 0.929 . S
H1656 C1664 0.929 . S
H1657 C1666 0.930 . S
H1658 C1668 0.930 . S
H1659 C1671 0.929 . S
H1660 C1674 0.930 . S
H1661 C1676 0.960 . S
H1662 C1676 0.960 . S
H1663 C1676 0.960 . S
C1664 H1656 0.929 . S
C1664 C1665 1.377 . S
C1664 C1666 1.384 . S
C1665 C1664 1.377 . S
C1665 C1671 1.390 . S
C1666 H1657 0.930 . S
C1666 C1664 1.384 . S
C1666 C1667 1.372 . S
C1667 C1666 1.372 . S
C1667 C1668 1.400 . S
C1667 C1672 1.490 . S
C1668 H1658 0.930 . S
C1668 C1667 1.400 . S
C1668 C1671 1.386 . S
H1669 C1685 0.930 . S
H1670 C1686 0.931 . S
C1671 H1659 0.929 . S
C1671 C1665 1.390 . S
C1671 C1668 1.386 . S
C1672 C1667 1.490 . S
C1672 C1674 1.395 . S
C1672 C1675 1.403 . S
H1673 C1679 0.930 . S
C1674 H1660 0.930 . S
C1674 C1672 1.395 . S
C1674 C1677 1.403 . S
C1675 C1672 1.403 . S
C1675 C1676 1.524 . S
C1675 C1679 1.400 . S
C1676 H1661 0.960 . S
C1676 H1662 0.960 . S
C1676 H1663 0.960 . S
C1676 C1675 1.524 . S
C1677 C1674 1.403 . S
C1677 C1678 1.392 . S
C1677 C1681 1.495 . S
C1678 C1677 1.392 . S
C1678 C1679 1.385 . S
C1678 C1680 1.478 . S
C1679 H1673 0.930 . S
C1679 C1675 1.400 . S
C1679 C1678 1.385 . S
C1680 C1678 1.478 . S
C1680 C1682 1.381 . S
C1680 C1686 1.383 . S
C1681 C1677 1.495 . S
C1681 H1687 0.959 . S
C1681 H1688 0.961 . S
C1681 H1689 0.960 . S
C1682 C1680 1.381 . S
C1682 C1683 1.394 . S
C1682 H1690 0.930 . S
C1683 C1682 1.394 . S
C1683 C1684 1.383 . S
C1683 H1691 0.929 . S
C1684 C1683 1.383 . S
C1684 C1685 1.377 . S
C1685 H1669 0.930 . S
C1685 C1684 1.377 . S
C1685 C1686 1.379 . S
C1686 H1670 0.931 . S
C1686 C1680 1.383 . S
C1686 C1685 1.379 . S
H1687 C1681 0.959 . S
H1688 C1681 0.961 . S
H1689 C1681 0.960 . S
H1690 C1682 0.930 . S
H1691 C1683 0.929 . S
H1692 C1700 0.929 . S
H1693 C1702 0.930 . S
H1694 C1704 0.930 . S
H1695 C1707 0.929 . S
H1696 C1710 0.930 . S
H1697 C1712 0.960 . S
H1698 C1712 0.960 . S
H1699 C1712 0.960 . S
C1700 H1692 0.929 . S
C1700 C1701 1.377 . S
C1700 C1702 1.384 . S
C1701 C1700 1.377 . S
C1701 C1707 1.390 . S
C1702 H1693 0.930 . S
C1702 C1700 1.384 . S
C1702 C1703 1.372 . S
C1703 C1702 1.372 . S
C1703 C1704 1.400 . S
C1703 C1708 1.490 . S
C1704 H1694 0.930 . S
C1704 C1703 1.400 . S
C1704 C1707 1.386 . S
H1705 C1721 0.930 . S
H1706 C1722 0.931 . S
C1707 H1695 0.929 . S
C1707 C1701 1.390 . S
C1707 C1704 1.386 . S
C1708 C1703 1.490 . S
C1708 C1710 1.395 . S
C1708 C1711 1.403 . S
H1709 C1715 0.930 . S
C1710 H1696 0.930 . S
C1710 C1708 1.395 . S
C1710 C1713 1.403 . S
C1711 C1708 1.403 . S
C1711 C1712 1.524 . S
C1711 C1715 1.400 . S
C1712 H1697 0.960 . S
C1712 H1698 0.960 . S
C1712 H1699 0.960 . S
C1712 C1711 1.524 . S
C1713 C1710 1.403 . S
C1713 C1714 1.392 . S
C1713 C1717 1.495 . S
C1714 C1713 1.392 . S
C1714 C1715 1.385 . S
C1714 C1716 1.478 . S
C1715 H1709 0.930 . S
C1715 C1711 1.400 . S
C1715 C1714 1.385 . S
C1716 C1714 1.478 . S
C1716 C1718 1.381 . S
C1716 C1722 1.383 . S
C1717 C1713 1.495 . S
C1717 H1723 0.959 . S
C1717 H1724 0.961 . S
C1717 H1725 0.960 . S
C1718 C1716 1.381 . S
C1718 C1719 1.394 1_556 S
C1718 H1726 0.930 . S
C1719 C1718 1.394 1_554 S
C1719 C1720 1.383 . S
C1719 H1727 0.929 . S
C1720 C1719 1.383 . S
C1720 C1721 1.377 . S
C1721 H1705 0.930 . S
C1721 C1720 1.377 . S
C1721 C1722 1.379 1_554 S
C1722 H1706 0.931 . S
C1722 C1716 1.383 . S
C1722 C1721 1.379 1_556 S
H1723 C1717 0.959 . S
H1724 C1717 0.961 . S
H1725 C1717 0.960 . S
H1726 C1718 0.930 . S
H1727 C1719 0.929 . S
H1728 C1736 0.929 . S
H1729 C1738 0.930 . S
H1730 C1740 0.930 . S
H1731 C1743 0.929 . S
H1732 C1746 0.930 . S
H1733 C1748 0.960 . S
H1734 C1748 0.960 . S
H1735 C1748 0.960 . S
C1736 H1728 0.929 . S
C1736 C1737 1.377 . S
C1736 C1738 1.384 . S
C1737 C1736 1.377 . S
C1737 C1743 1.390 . S
C1738 H1729 0.930 . S
C1738 C1736 1.384 . S
C1738 C1739 1.372 1_554 S
C1739 C1738 1.372 1_556 S
C1739 C1740 1.400 . S
C1739 C1744 1.490 . S
C1740 H1730 0.930 . S
C1740 C1739 1.400 . S
C1740 C1743 1.386 1_556 S
H1741 C1757 0.930 . S
H1742 C1758 0.931 . S
C1743 H1731 0.929 . S
C1743 C1737 1.390 . S
C1743 C1740 1.386 1_554 S
C1744 C1739 1.490 . S
C1744 C1746 1.395 . S
C1744 C1747 1.403 . S
H1745 C1751 0.930 . S
C1746 H1732 0.930 . S
C1746 C1744 1.395 . S
C1746 C1749 1.403 . S
C1747 C1744 1.403 . S
C1747 C1748 1.524 . S
C1747 C1751 1.400 . S
C1748 H1733 0.960 . S
C1748 H1734 0.960 . S
C1748 H1735 0.960 . S
C1748 C1747 1.524 . S
C1749 C1746 1.403 . S
C1749 C1750 1.392 . S
C1749 C1753 1.495 . S
C1750 C1749 1.392 . S
C1750 C1751 1.385 . S
C1750 C1752 1.478 . S
C1751 H1745 0.930 . S
C1751 C1747 1.400 . S
C1751 C1750 1.385 . S
C1752 C1750 1.478 . S
C1752 C1754 1.381 . S
C1752 C1758 1.383 . S
C1753 C1749 1.495 . S
C1753 H1759 0.959 . S
C1753 H1760 0.961 . S
C1753 H1761 0.960 . S
C1754 C1752 1.381 . S
C1754 C1755 1.394 . S
C1754 H1762 0.930 . S
C1755 C1754 1.394 . S
C1755 C1756 1.383 . S
C1755 H1763 0.929 . S
C1756 C1755 1.383 . S
C1756 C1757 1.377 . S
C1757 H1741 0.930 . S
C1757 C1756 1.377 . S
C1757 C1758 1.379 . S
C1758 H1742 0.931 . S
C1758 C1752 1.383 . S
C1758 C1757 1.379 . S
H1759 C1753 0.959 . S
H1760 C1753 0.961 . S
H1761 C1753 0.960 . S
H1762 C1754 0.930 . S
H1763 C1755 0.929 . S
H1764 C1772 0.929 . S
H1765 C1774 0.930 . S
H1766 C1776 0.930 . S
H1767 C1779 0.929 . S
H1768 C1782 0.930 . S
H1769 C1784 0.960 . S
H1770 C1784 0.960 . S
H1771 C1784 0.960 . S
C1772 H1764 0.929 . S
C1772 C1773 1.377 . S
C1772 C1774 1.384 . S
C1773 C1772 1.377 . S
C1773 C1779 1.390 . S
C1774 H1765 0.930 . S
C1774 C1772 1.384 . S
C1774 C1775 1.372 . S
C1775 C1774 1.372 . S
C1775 C1776 1.400 . S
C1775 C1780 1.490 . S
C1776 H1766 0.930 . S
C1776 C1775 1.400 . S
C1776 C1779 1.386 . S
H1777 C1793 0.930 . S
H1778 C1794 0.931 . S
C1779 H1767 0.929 . S
C1779 C1773 1.390 . S
C1779 C1776 1.386 . S
C1780 C1775 1.490 . S
C1780 C1782 1.395 . S
C1780 C1783 1.403 . S
H1781 C1787 0.930 . S
C1782 H1768 0.930 . S
C1782 C1780 1.395 . S
C1782 C1785 1.403 . S
C1783 C1780 1.403 . S
C1783 C1784 1.524 . S
C1783 C1787 1.400 . S
C1784 H1769 0.960 . S
C1784 H1770 0.960 . S
C1784 H1771 0.960 . S
C1784 C1783 1.524 . S
C1785 C1782 1.403 . S
C1785 C1786 1.392 . S
C1785 C1789 1.495 . S
C1786 C1785 1.392 . S
C1786 C1787 1.385 . S
C1786 C1788 1.478 . S
C1787 H1781 0.930 . S
C1787 C1783 1.400 . S
C1787 C1786 1.385 . S
C1788 C1786 1.478 . S
C1788 C1790 1.381 . S
C1788 C1794 1.383 . S
C1789 C1785 1.495 . S
C1789 H1795 0.959 . S
C1789 H1796 0.961 . S
C1789 H1797 0.960 . S
C1790 C1788 1.381 . S
C1790 C1791 1.394 1_556 S
C1790 H1798 0.930 . S
C1791 C1790 1.394 1_554 S
C1791 C1792 1.383 . S
C1791 H1799 0.929 . S
C1792 C1791 1.383 . S
C1792 C1793 1.377 . S
C1793 H1777 0.930 . S
C1793 C1792 1.377 . S
C1793 C1794 1.379 1_554 S
C1794 H1778 0.931 . S
C1794 C1788 1.383 . S
C1794 C1793 1.379 1_556 S
H1795 C1789 0.959 . S
H1796 C1789 0.961 . S
H1797 C1789 0.960 . S
H1798 C1790 0.930 . S
H1799 C1791 0.929 . S
H1800 C1808 0.929 . S
H1801 C1810 0.930 . S
H1802 C1812 0.930 . S
H1803 C1815 0.929 . S
H1804 C1818 0.930 . S
H1805 C1820 0.960 . S
H1806 C1820 0.960 . S
H1807 C1820 0.960 . S
C1808 H1800 0.929 . S
C1808 C1809 1.377 . S
C1808 C1810 1.384 . S
C1809 C1808 1.377 . S
C1809 C1815 1.390 . S
C1810 H1801 0.930 . S
C1810 C1808 1.384 . S
C1810 C1811 1.372 . S
C1811 C1810 1.372 . S
C1811 C1812 1.400 . S
C1811 C1816 1.490 . S
C1812 H1802 0.930 . S
C1812 C1811 1.400 . S
C1812 C1815 1.386 . S
H1813 C1829 0.930 . S
H1814 C1830 0.931 . S
C1815 H1803 0.929 . S
C1815 C1809 1.390 . S
C1815 C1812 1.386 . S
C1816 C1811 1.490 . S
C1816 C1818 1.395 . S
C1816 C1819 1.403 . S
H1817 C1823 0.930 . S
C1818 H1804 0.930 . S
C1818 C1816 1.395 . S
C1818 C1821 1.403 . S
C1819 C1816 1.403 . S
C1819 C1820 1.524 . S
C1819 C1823 1.400 . S
C1820 H1805 0.960 . S
C1820 H1806 0.960 . S
C1820 H1807 0.960 . S
C1820 C1819 1.524 . S
C1821 C1818 1.403 . S
C1821 C1822 1.392 . S
C1821 C1825 1.495 . S
C1822 C1821 1.392 . S
C1822 C1823 1.385 . S
C1822 C1824 1.478 . S
C1823 H1817 0.930 . S
C1823 C1819 1.400 . S
C1823 C1822 1.385 . S
C1824 C1822 1.478 . S
C1824 C1826 1.381 . S
C1824 C1830 1.383 . S
C1825 C1821 1.495 . S
C1825 H1831 0.959 . S
C1825 H1832 0.961 . S
C1825 H1833 0.960 . S
C1826 C1824 1.381 . S
C1826 C1827 1.394 . S
C1826 H1834 0.930 . S
C1827 C1826 1.394 . S
C1827 C1828 1.383 . S
C1827 H1835 0.929 . S
C1828 C1827 1.383 . S
C1828 C1829 1.377 . S
C1829 H1813 0.930 . S
C1829 C1828 1.377 . S
C1829 C1830 1.379 . S
C1830 H1814 0.931 . S
C1830 C1824 1.383 . S
C1830 C1829 1.379 . S
H1831 C1825 0.959 . S
H1832 C1825 0.961 . S
H1833 C1825 0.960 . S
H1834 C1826 0.930 . S
H1835 C1827 0.929 . S
H1836 C1844 0.929 . S
H1837 C1846 0.930 . S
H1838 C1848 0.930 . S
H1839 C1851 0.929 . S
H1840 C1854 0.930 . S
H1841 C1856 0.960 . S
H1842 C1856 0.960 . S
H1843 C1856 0.960 . S
C1844 H1836 0.929 . S
C1844 C1845 1.377 . S
C1844 C1846 1.384 . S
C1845 C1844 1.377 . S
C1845 C1851 1.390 . S
C1846 H1837 0.930 . S
C1846 C1844 1.384 . S
C1846 C1847 1.372 . S
C1847 C1846 1.372 . S
C1847 C1848 1.400 . S
C1847 C1852 1.490 . S
C1848 H1838 0.930 . S
C1848 C1847 1.400 . S
C1848 C1851 1.386 . S
H1849 C1865 0.930 . S
H1850 C1866 0.931 . S
C1851 H1839 0.929 . S
C1851 C1845 1.390 . S
C1851 C1848 1.386 . S
C1852 C1847 1.490 . S
C1852 C1854 1.395 . S
C1852 C1855 1.403 . S
H1853 C1859 0.930 . S
C1854 H1840 0.930 . S
C1854 C1852 1.395 . S
C1854 C1857 1.403 . S
C1855 C1852 1.403 . S
C1855 C1856 1.524 . S
C1855 C1859 1.400 . S
C1856 H1841 0.960 . S
C1856 H1842 0.960 . S
C1856 H1843 0.960 . S
C1856 C1855 1.524 . S
C1857 C1854 1.403 . S
C1857 C1858 1.392 . S
C1857 C1861 1.495 . S
C1858 C1857 1.392 . S
C1858 C1859 1.385 . S
C1858 C1860 1.478 . S
C1859 H1853 0.930 . S
C1859 C1855 1.400 . S
C1859 C1858 1.385 . S
C1860 C1858 1.478 . S
C1860 C1862 1.381 . S
C1860 C1866 1.383 . S
C1861 C1857 1.495 . S
C1861 H1867 0.959 . S
C1861 H1868 0.961 . S
C1861 H1869 0.960 . S
C1862 C1860 1.381 . S
C1862 C1863 1.394 . S
C1862 H1870 0.930 . S
C1863 C1862 1.394 . S
C1863 C1864 1.383 . S
C1863 H1871 0.929 . S
C1864 C1863 1.383 . S
C1864 C1865 1.377 . S
C1865 H1849 0.930 . S
C1865 C1864 1.377 . S
C1865 C1866 1.379 . S
C1866 H1850 0.931 . S
C1866 C1860 1.383 . S
C1866 C1865 1.379 . S
H1867 C1861 0.959 . S
H1868 C1861 0.961 . S
H1869 C1861 0.960 . S
H1870 C1862 0.930 . S
H1871 C1863 0.929 . S
H1872 C1880 0.929 . S
H1873 C1882 0.930 . S
H1874 C1884 0.930 . S
H1875 C1887 0.929 . S
H1876 C1890 0.930 . S
H1877 C1892 0.960 . S
H1878 C1892 0.960 . S
H1879 C1892 0.960 . S
C1880 H1872 0.929 . S
C1880 C1881 1.377 . S
C1880 C1882 1.384 . S
C1881 C1880 1.377 . S
C1881 C1887 1.390 . S
C1882 H1873 0.930 . S
C1882 C1880 1.384 . S
C1882 C1883 1.372 . S
C1883 C1882 1.372 . S
C1883 C1884 1.400 . S
C1883 C1888 1.490 . S
C1884 H1874 0.930 . S
C1884 C1883 1.400 . S
C1884 C1887 1.386 . S
H1885 C1901 0.930 . S
H1886 C1902 0.931 . S
C1887 H1875 0.929 . S
C1887 C1881 1.390 . S
C1887 C1884 1.386 . S
C1888 C1883 1.490 . S
C1888 C1890 1.395 . S
C1888 C1891 1.403 . S
H1889 C1895 0.930 . S
C1890 H1876 0.930 . S
C1890 C1888 1.395 . S
C1890 C1893 1.403 . S
C1891 C1888 1.403 . S
C1891 C1892 1.524 . S
C1891 C1895 1.400 . S
C1892 H1877 0.960 . S
C1892 H1878 0.960 . S
C1892 H1879 0.960 . S
C1892 C1891 1.524 . S
C1893 C1890 1.403 . S
C1893 C1894 1.392 . S
C1893 C1897 1.495 . S
C1894 C1893 1.392 . S
C1894 C1895 1.385 . S
C1894 C1896 1.478 . S
C1895 H1889 0.930 . S
C1895 C1891 1.400 . S
C1895 C1894 1.385 . S
C1896 C1894 1.478 . S
C1896 C1898 1.381 . S
C1896 C1902 1.383 . S
C1897 C1893 1.495 . S
C1897 H1903 0.959 . S
C1897 H1904 0.961 . S
C1897 H1905 0.960 . S
C1898 C1896 1.381 . S
C1898 C1899 1.394 . S
C1898 H1906 0.930 . S
C1899 C1898 1.394 . S
C1899 C1900 1.383 . S
C1899 H1907 0.929 . S
C1900 C1899 1.383 . S
C1900 C1901 1.377 . S
C1901 H1885 0.930 . S
C1901 C1900 1.377 . S
C1901 C1902 1.379 . S
C1902 H1886 0.931 . S
C1902 C1896 1.383 . S
C1902 C1901 1.379 . S
H1903 C1897 0.959 . S
H1904 C1897 0.961 . S
H1905 C1897 0.960 . S
H1906 C1898 0.930 . S
H1907 C1899 0.929 . S
H1908 C1916 0.929 . S
H1909 C1918 0.930 . S
H1910 C1920 0.930 . S
H1911 C1923 0.929 . S
H1912 C1926 0.930 . S
H1913 C1928 0.960 . S
H1914 C1928 0.960 . S
H1915 C1928 0.960 . S
C1916 H1908 0.929 . S
C1916 C1917 1.377 . S
C1916 C1918 1.384 . S
C1917 C1916 1.377 . S
C1917 C1923 1.390 . S
C1918 H1909 0.930 . S
C1918 C1916 1.384 . S
C1918 C1919 1.372 . S
C1919 C1918 1.372 . S
C1919 C1920 1.400 . S
C1919 C1924 1.490 . S
C1920 H1910 0.930 . S
C1920 C1919 1.400 . S
C1920 C1923 1.386 . S
H1921 C1937 0.930 . S
H1922 C1938 0.931 . S
C1923 H1911 0.929 . S
C1923 C1917 1.390 . S
C1923 C1920 1.386 . S
C1924 C1919 1.490 . S
C1924 C1926 1.395 . S
C1924 C1927 1.403 . S
H1925 C1931 0.930 . S
C1926 H1912 0.930 . S
C1926 C1924 1.395 . S
C1926 C1929 1.403 . S
C1927 C1924 1.403 . S
C1927 C1928 1.524 . S
C1927 C1931 1.400 . S
C1928 H1913 0.960 . S
C1928 H1914 0.960 . S
C1928 H1915 0.960 . S
C1928 C1927 1.524 . S
C1929 C1926 1.403 . S
C1929 C1930 1.392 . S
C1929 C1933 1.495 . S
C1930 C1929 1.392 . S
C1930 C1931 1.385 . S
C1930 C1932 1.478 . S
C1931 H1925 0.930 . S
C1931 C1927 1.400 . S
C1931 C1930 1.385 . S
C1932 C1930 1.478 . S
C1932 C1934 1.381 . S
C1932 C1938 1.383 . S
C1933 C1929 1.495 . S
C1933 H1939 0.959 . S
C1933 H1940 0.961 . S
C1933 H1941 0.960 . S
C1934 C1932 1.381 . S
C1934 C1935 1.394 . S
C1934 H1942 0.930 . S
C1935 C1934 1.394 . S
C1935 C1936 1.383 . S
C1935 H1943 0.929 . S
C1936 C1935 1.383 . S
C1936 C1937 1.377 . S
C1937 H1921 0.930 . S
C1937 C1936 1.377 . S
C1937 C1938 1.379 . S
C1938 H1922 0.931 . S
C1938 C1932 1.383 . S
C1938 C1937 1.379 . S
H1939 C1933 0.959 . S
H1940 C1933 0.961 . S
H1941 C1933 0.960 . S
H1942 C1934 0.930 . S
H1943 C1935 0.929 . S
H1944 C1952 0.929 . S
H1945 C1954 0.930 . S
H1946 C1956 0.930 . S
H1947 C1959 0.929 . S
H1948 C1962 0.930 . S
H1949 C1964 0.960 . S
H1950 C1964 0.960 . S
H1951 C1964 0.960 . S
C1952 H1944 0.929 . S
C1952 C1953 1.377 . S
C1952 C1954 1.384 . S
C1953 C1952 1.377 . S
C1953 C1959 1.390 . S
C1954 H1945 0.930 . S
C1954 C1952 1.384 . S
C1954 C1955 1.372 . S
C1955 C1954 1.372 . S
C1955 C1956 1.400 . S
C1955 C1960 1.490 . S
C1956 H1946 0.930 . S
C1956 C1955 1.400 . S
C1956 C1959 1.386 . S
H1957 C1973 0.930 . S
H1958 C1974 0.931 . S
C1959 H1947 0.929 . S
C1959 C1953 1.390 . S
C1959 C1956 1.386 . S
C1960 C1955 1.490 . S
C1960 C1962 1.395 . S
C1960 C1963 1.403 . S
H1961 C1967 0.930 . S
C1962 H1948 0.930 . S
C1962 C1960 1.395 . S
C1962 C1965 1.403 . S
C1963 C1960 1.403 . S
C1963 C1964 1.524 . S
C1963 C1967 1.400 . S
C1964 H1949 0.960 . S
C1964 H1950 0.960 . S
C1964 H1951 0.960 . S
C1964 C1963 1.524 . S
C1965 C1962 1.403 . S
C1965 C1966 1.392 . S
C1965 C1969 1.495 . S
C1966 C1965 1.392 . S
C1966 C1967 1.385 . S
C1966 C1968 1.478 . S
C1967 H1961 0.930 . S
C1967 C1963 1.400 . S
C1967 C1966 1.385 . S
C1968 C1966 1.478 . S
C1968 C1970 1.381 . S
C1968 C1974 1.383 . S
C1969 C1965 1.495 . S
C1969 H1975 0.959 . S
C1969 H1976 0.961 . S
C1969 H1977 0.960 . S
C1970 C1968 1.381 . S
C1970 C1971 1.394 . S
C1970 H1978 0.930 . S
C1971 C1970 1.394 . S
C1971 C1972 1.383 . S
C1971 H1979 0.929 . S
C1972 C1971 1.383 . S
C1972 C1973 1.377 . S
C1973 H1957 0.930 . S
C1973 C1972 1.377 . S
C1973 C1974 1.379 . S
C1974 H1958 0.931 . S
C1974 C1968 1.383 . S
C1974 C1973 1.379 . S
H1975 C1969 0.959 . S
H1976 C1969 0.961 . S
H1977 C1969 0.960 . S
H1978 C1970 0.930 . S
H1979 C1971 0.929 . S
H1980 C1988 0.929 . S
H1981 C1990 0.930 . S
H1982 C1992 0.930 . S
H1983 C1995 0.929 . S
H1984 C1998 0.930 . S
H1985 C2000 0.960 . S
H1986 C2000 0.960 . S
H1987 C2000 0.960 . S
C1988 H1980 0.929 . S
C1988 C1989 1.377 . S
C1988 C1990 1.384 . S
C1989 C1988 1.377 . S
C1989 C1995 1.390 . S
C1990 H1981 0.930 . S
C1990 C1988 1.384 . S
C1990 C1991 1.372 . S
C1991 C1990 1.372 . S
C1991 C1992 1.400 . S
C1991 C1996 1.490 . S
C1992 H1982 0.930 . S
C1992 C1991 1.400 . S
C1992 C1995 1.386 . S
H1993 C2009 0.930 . S
H1994 C2010 0.931 . S
C1995 H1983 0.929 . S
C1995 C1989 1.390 . S
C1995 C1992 1.386 . S
C1996 C1991 1.490 . S
C1996 C1998 1.395 . S
C1996 C1999 1.403 . S
H1997 C2003 0.930 . S
C1998 H1984 0.930 . S
C1998 C1996 1.395 . S
C1998 C2001 1.403 . S
C1999 C1996 1.403 . S
C1999 C2000 1.524 . S
C1999 C2003 1.400 . S
C2000 H1985 0.960 . S
C2000 H1986 0.960 . S
C2000 H1987 0.960 . S
C2000 C1999 1.524 . S
C2001 C1998 1.403 . S
C2001 C2002 1.392 . S
C2001 C2005 1.495 . S
C2002 C2001 1.392 . S
C2002 C2003 1.385 . S
C2002 C2004 1.478 . S
C2003 H1997 0.930 . S
C2003 C1999 1.400 . S
C2003 C2002 1.385 . S
C2004 C2002 1.478 . S
C2004 C2006 1.381 . S
C2004 C2010 1.383 . S
C2005 C2001 1.495 . S
C2005 H2011 0.959 . S
C2005 H2012 0.961 . S
C2005 H2013 0.960 . S
C2006 C2004 1.381 . S
C2006 C2007 1.394 . S
C2006 H2014 0.930 . S
C2007 C2006 1.394 . S
C2007 C2008 1.383 . S
C2007 H2015 0.929 . S
C2008 C2007 1.383 . S
C2008 C2009 1.377 . S
C2009 H1993 0.930 . S
C2009 C2008 1.377 . S
C2009 C2010 1.379 . S
C2010 H1994 0.931 . S
C2010 C2004 1.383 . S
C2010 C2009 1.379 . S
H2011 C2005 0.959 . S
H2012 C2005 0.961 . S
H2013 C2005 0.960 . S
H2014 C2006 0.930 . S
H2015 C2007 0.929 . S
H2016 C2024 0.929 . S
H2017 C2026 0.930 . S
H2018 C2028 0.930 . S
H2019 C2031 0.929 . S
H2020 C2034 0.930 . S
H2021 C2036 0.960 . S
H2022 C2036 0.960 . S
H2023 C2036 0.960 . S
C2024 H2016 0.929 . S
C2024 C2025 1.377 . S
C2024 C2026 1.384 . S
C2025 C2024 1.377 . S
C2025 C2031 1.390 . S
C2026 H2017 0.930 . S
C2026 C2024 1.384 . S
C2026 C2027 1.372 . S
C2027 C2026 1.372 . S
C2027 C2028 1.400 . S
C2027 C2032 1.490 . S
C2028 H2018 0.930 . S
C2028 C2027 1.400 . S
C2028 C2031 1.386 . S
H2029 C2045 0.930 . S
H2030 C2046 0.931 . S
C2031 H2019 0.929 . S
C2031 C2025 1.390 . S
C2031 C2028 1.386 . S
C2032 C2027 1.490 . S
C2032 C2034 1.395 . S
C2032 C2035 1.403 . S
H2033 C2039 0.930 . S
C2034 H2020 0.930 . S
C2034 C2032 1.395 . S
C2034 C2037 1.403 . S
C2035 C2032 1.403 . S
C2035 C2036 1.524 . S
C2035 C2039 1.400 . S
C2036 H2021 0.960 . S
C2036 H2022 0.960 . S
C2036 H2023 0.960 . S
C2036 C2035 1.524 . S
C2037 C2034 1.403 . S
C2037 C2038 1.392 . S
C2037 C2041 1.495 . S
C2038 C2037 1.392 . S
C2038 C2039 1.385 . S
C2038 C2040 1.478 . S
C2039 H2033 0.930 . S
C2039 C2035 1.400 . S
C2039 C2038 1.385 . S
C2040 C2038 1.478 . S
C2040 C2042 1.381 . S
C2040 C2046 1.383 . S
C2041 C2037 1.495 . S
C2041 H2047 0.959 . S
C2041 H2048 0.961 . S
C2041 H2049 0.960 . S
C2042 C2040 1.381 . S
C2042 C2043 1.394 . S
C2042 H2050 0.930 . S
C2043 C2042 1.394 . S
C2043 C2044 1.383 . S
C2043 H2051 0.929 . S
C2044 C2043 1.383 . S
C2044 C2045 1.377 . S
C2045 H2029 0.930 . S
C2045 C2044 1.377 . S
C2045 C2046 1.379 . S
C2046 H2030 0.931 . S
C2046 C2040 1.383 . S
C2046 C2045 1.379 . S
H2047 C2041 0.959 . S
H2048 C2041 0.961 . S
H2049 C2041 0.960 . S
H2050 C2042 0.930 . S
H2051 C2043 0.929 . S
H2052 C2060 0.929 . S
H2053 C2062 0.930 . S
H2054 C2064 0.930 . S
H2055 C2067 0.929 . S
H2056 C2070 0.930 . S
H2057 C2072 0.960 . S
H2058 C2072 0.960 . S
H2059 C2072 0.960 . S
C2060 H2052 0.929 . S
C2060 C2061 1.377 . S
C2060 C2062 1.384 . S
C2061 C2060 1.377 . S
C2061 C2067 1.390 . S
C2062 H2053 0.930 . S
C2062 C2060 1.384 . S
C2062 C2063 1.372 . S
C2063 C2062 1.372 . S
C2063 C2064 1.400 . S
C2063 C2068 1.490 . S
C2064 H2054 0.930 . S
C2064 C2063 1.400 . S
C2064 C2067 1.386 . S
H2065 C2081 0.930 . S
H2066 C2082 0.931 . S
C2067 H2055 0.929 . S
C2067 C2061 1.390 . S
C2067 C2064 1.386 . S
C2068 C2063 1.490 . S
C2068 C2070 1.395 . S
C2068 C2071 1.403 . S
H2069 C2075 0.930 . S
C2070 H2056 0.930 . S
C2070 C2068 1.395 . S
C2070 C2073 1.403 . S
C2071 C2068 1.403 . S
C2071 C2072 1.524 . S
C2071 C2075 1.400 . S
C2072 H2057 0.960 . S
C2072 H2058 0.960 . S
C2072 H2059 0.960 . S
C2072 C2071 1.524 . S
C2073 C2070 1.403 . S
C2073 C2074 1.392 . S
C2073 C2077 1.495 . S
C2074 C2073 1.392 . S
C2074 C2075 1.385 . S
C2074 C2076 1.478 . S
C2075 H2069 0.930 . S
C2075 C2071 1.400 . S
C2075 C2074 1.385 . S
C2076 C2074 1.478 . S
C2076 C2078 1.381 . S
C2076 C2082 1.383 . S
C2077 C2073 1.495 . S
C2077 H2083 0.959 . S
C2077 H2084 0.961 . S
C2077 H2085 0.960 . S
C2078 C2076 1.381 . S
C2078 C2079 1.394 . S
C2078 H2086 0.930 . S
C2079 C2078 1.394 . S
C2079 C2080 1.383 . S
C2079 H2087 0.929 . S
C2080 C2079 1.383 . S
C2080 C2081 1.377 . S
C2081 H2065 0.930 . S
C2081 C2080 1.377 . S
C2081 C2082 1.379 . S
C2082 H2066 0.931 . S
C2082 C2076 1.383 . S
C2082 C2081 1.379 . S
H2083 C2077 0.959 . S
H2084 C2077 0.961 . S
H2085 C2077 0.960 . S
H2086 C2078 0.930 . S
H2087 C2079 0.929 . S
H2088 C2096 0.929 . S
H2089 C2098 0.930 . S
H2090 C2100 0.930 . S
H2091 C2103 0.929 . S
H2092 C2106 0.930 . S
H2093 C2108 0.960 . S
H2094 C2108 0.960 . S
H2095 C2108 0.960 . S
C2096 H2088 0.929 . S
C2096 C2097 1.377 . S
C2096 C2098 1.384 . S
C2097 C2096 1.377 . S
C2097 C2103 1.390 . S
C2098 H2089 0.930 . S
C2098 C2096 1.384 . S
C2098 C2099 1.372 . S
C2099 C2098 1.372 . S
C2099 C2100 1.400 . S
C2099 C2104 1.490 . S
C2100 H2090 0.930 . S
C2100 C2099 1.400 . S
C2100 C2103 1.386 . S
H2101 C2117 0.930 . S
H2102 C2118 0.931 . S
C2103 H2091 0.929 . S
C2103 C2097 1.390 . S
C2103 C2100 1.386 . S
C2104 C2099 1.490 . S
C2104 C2106 1.395 . S
C2104 C2107 1.403 . S
H2105 C2111 0.930 . S
C2106 H2092 0.930 . S
C2106 C2104 1.395 . S
C2106 C2109 1.403 . S
C2107 C2104 1.403 . S
C2107 C2108 1.524 . S
C2107 C2111 1.400 . S
C2108 H2093 0.960 . S
C2108 H2094 0.960 . S
C2108 H2095 0.960 . S
C2108 C2107 1.524 . S
C2109 C2106 1.403 . S
C2109 C2110 1.392 . S
C2109 C2113 1.495 . S
C2110 C2109 1.392 . S
C2110 C2111 1.385 . S
C2110 C2112 1.478 . S
C2111 H2105 0.930 . S
C2111 C2107 1.400 . S
C2111 C2110 1.385 . S
C2112 C2110 1.478 . S
C2112 C2114 1.381 . S
C2112 C2118 1.383 . S
C2113 C2109 1.495 . S
C2113 H2119 0.959 . S
C2113 H2120 0.961 . S
C2113 H2121 0.960 . S
C2114 C2112 1.381 . S
C2114 C2115 1.394 . S
C2114 H2122 0.930 . S
C2115 C2114 1.394 . S
C2115 C2116 1.383 . S
C2115 H2123 0.929 . S
C2116 C2115 1.383 . S
C2116 C2117 1.377 . S
C2117 H2101 0.930 . S
C2117 C2116 1.377 . S
C2117 C2118 1.379 . S
C2118 H2102 0.931 . S
C2118 C2112 1.383 . S
C2118 C2117 1.379 . S
H2119 C2113 0.959 . S
H2120 C2113 0.961 . S
H2121 C2113 0.960 . S
H2122 C2114 0.930 . S
H2123 C2115 0.929 . S
H2124 C2132 0.929 . S
H2125 C2134 0.930 . S
H2126 C2136 0.930 . S
H2127 C2139 0.929 . S
H2128 C2142 0.930 . S
H2129 C2144 0.960 . S
H2130 C2144 0.960 . S
H2131 C2144 0.960 . S
C2132 H2124 0.929 . S
C2132 C2133 1.377 . S
C2132 C2134 1.384 . S
C2133 C2132 1.377 . S
C2133 C2139 1.390 . S
C2134 H2125 0.930 . S
C2134 C2132 1.384 . S
C2134 C2135 1.372 . S
C2135 C2134 1.372 . S
C2135 C2136 1.400 . S
C2135 C2140 1.490 . S
C2136 H2126 0.930 . S
C2136 C2135 1.400 . S
C2136 C2139 1.386 . S
H2137 C2153 0.930 . S
H2138 C2154 0.931 . S
C2139 H2127 0.929 . S
C2139 C2133 1.390 . S
C2139 C2136 1.386 . S
C2140 C2135 1.490 . S
C2140 C2142 1.395 . S
C2140 C2143 1.403 . S
H2141 C2147 0.930 . S
C2142 H2128 0.930 . S
C2142 C2140 1.395 . S
C2142 C2145 1.403 . S
C2143 C2140 1.403 . S
C2143 C2144 1.524 . S
C2143 C2147 1.400 . S
C2144 H2129 0.960 . S
C2144 H2130 0.960 . S
C2144 H2131 0.960 . S
C2144 C2143 1.524 . S
C2145 C2142 1.403 . S
C2145 C2146 1.392 . S
C2145 C2149 1.495 . S
C2146 C2145 1.392 . S
C2146 C2147 1.385 . S
C2146 C2148 1.478 . S
C2147 H2141 0.930 . S
C2147 C2143 1.400 . S
C2147 C2146 1.385 . S
C2148 C2146 1.478 . S
C2148 C2150 1.381 . S
C2148 C2154 1.383 . S
C2149 C2145 1.495 . S
C2149 H2155 0.959 . S
C2149 H2156 0.961 . S
C2149 H2157 0.960 . S
C2150 C2148 1.381 . S
C2150 C2151 1.394 . S
C2150 H2158 0.930 . S
C2151 C2150 1.394 . S
C2151 C2152 1.383 . S
C2151 H2159 0.929 . S
C2152 C2151 1.383 . S
C2152 C2153 1.377 . S
C2153 H2137 0.930 . S
C2153 C2152 1.377 . S
C2153 C2154 1.379 . S
C2154 H2138 0.931 . S
C2154 C2148 1.383 . S
C2154 C2153 1.379 . S
H2155 C2149 0.959 . S
H2156 C2149 0.961 . S
H2157 C2149 0.960 . S
H2158 C2150 0.930 . S
H2159 C2151 0.929 . S
H2160 C2168 0.929 . S
H2161 C2170 0.930 . S
H2162 C2172 0.930 . S
H2163 C2175 0.929 . S
H2164 C2178 0.930 . S
H2165 C2180 0.960 . S
H2166 C2180 0.960 . S
H2167 C2180 0.960 . S
C2168 H2160 0.929 . S
C2168 C2169 1.377 . S
C2168 C2170 1.384 . S
C2169 C2168 1.377 . S
C2169 C2175 1.390 . S
C2170 H2161 0.930 . S
C2170 C2168 1.384 . S
C2170 C2171 1.372 . S
C2171 C2170 1.372 . S
C2171 C2172 1.400 . S
C2171 C2176 1.490 . S
C2172 H2162 0.930 . S
C2172 C2171 1.400 . S
C2172 C2175 1.386 . S
H2173 C2189 0.930 . S
H2174 C2190 0.931 . S
C2175 H2163 0.929 . S
C2175 C2169 1.390 . S
C2175 C2172 1.386 . S
C2176 C2171 1.490 . S
C2176 C2178 1.395 . S
C2176 C2179 1.403 . S
H2177 C2183 0.930 . S
C2178 H2164 0.930 . S
C2178 C2176 1.395 . S
C2178 C2181 1.403 . S
C2179 C2176 1.403 . S
C2179 C2180 1.524 . S
C2179 C2183 1.400 . S
C2180 H2165 0.960 . S
C2180 H2166 0.960 . S
C2180 H2167 0.960 . S
C2180 C2179 1.524 . S
C2181 C2178 1.403 . S
C2181 C2182 1.392 . S
C2181 C2185 1.495 . S
C2182 C2181 1.392 . S
C2182 C2183 1.385 . S
C2182 C2184 1.478 . S
C2183 H2177 0.930 . S
C2183 C2179 1.400 . S
C2183 C2182 1.385 . S
C2184 C2182 1.478 . S
C2184 C2186 1.381 . S
C2184 C2190 1.383 . S
C2185 C2181 1.495 . S
C2185 H2191 0.959 . S
C2185 H2192 0.961 . S
C2185 H2193 0.960 . S
C2186 C2184 1.381 . S
C2186 C2187 1.394 . S
C2186 H2194 0.930 . S
C2187 C2186 1.394 . S
C2187 C2188 1.383 . S
C2187 H2195 0.929 . S
C2188 C2187 1.383 . S
C2188 C2189 1.377 . S
C2189 H2173 0.930 . S
C2189 C2188 1.377 . S
C2189 C2190 1.379 . S
C2190 H2174 0.931 . S
C2190 C2184 1.383 . S
C2190 C2189 1.379 . S
H2191 C2185 0.959 . S
H2192 C2185 0.961 . S
H2193 C2185 0.960 . S
H2194 C2186 0.930 . S
H2195 C2187 0.929 . S
H2196 C2204 0.929 . S
H2197 C2206 0.930 . S
H2198 C2208 0.930 . S
H2199 C2211 0.929 . S
H2200 C2214 0.930 . S
H2201 C2216 0.960 . S
H2202 C2216 0.960 . S
H2203 C2216 0.960 . S
C2204 H2196 0.929 . S
C2204 C2205 1.377 . S
C2204 C2206 1.384 . S
C2205 C2204 1.377 . S
C2205 C2211 1.390 . S
C2206 H2197 0.930 . S
C2206 C2204 1.384 . S
C2206 C2207 1.372 . S
C2207 C2206 1.372 . S
C2207 C2208 1.400 . S
C2207 C2212 1.490 . S
C2208 H2198 0.930 . S
C2208 C2207 1.400 . S
C2208 C2211 1.386 . S
H2209 C2225 0.930 . S
H2210 C2226 0.931 . S
C2211 H2199 0.929 . S
C2211 C2205 1.390 . S
C2211 C2208 1.386 . S
C2212 C2207 1.490 . S
C2212 C2214 1.395 . S
C2212 C2215 1.403 . S
H2213 C2219 0.930 . S
C2214 H2200 0.930 . S
C2214 C2212 1.395 . S
C2214 C2217 1.403 . S
C2215 C2212 1.403 . S
C2215 C2216 1.524 . S
C2215 C2219 1.400 . S
C2216 H2201 0.960 . S
C2216 H2202 0.960 . S
C2216 H2203 0.960 . S
C2216 C2215 1.524 . S
C2217 C2214 1.403 . S
C2217 C2218 1.392 . S
C2217 C2221 1.495 . S
C2218 C2217 1.392 . S
C2218 C2219 1.385 . S
C2218 C2220 1.478 . S
C2219 H2213 0.930 . S
C2219 C2215 1.400 . S
C2219 C2218 1.385 . S
C2220 C2218 1.478 . S
C2220 C2222 1.381 . S
C2220 C2226 1.383 . S
C2221 C2217 1.495 . S
C2221 H2227 0.959 . S
C2221 H2228 0.961 . S
C2221 H2229 0.960 . S
C2222 C2220 1.381 . S
C2222 C2223 1.394 . S
C2222 H2230 0.930 . S
C2223 C2222 1.394 . S
C2223 C2224 1.383 . S
C2223 H2231 0.929 . S
C2224 C2223 1.383 . S
C2224 C2225 1.377 . S
C2225 H2209 0.930 . S
C2225 C2224 1.377 . S
C2225 C2226 1.379 . S
C2226 H2210 0.931 . S
C2226 C2220 1.383 . S
C2226 C2225 1.379 . S
H2227 C2221 0.959 . S
H2228 C2221 0.961 . S
H2229 C2221 0.960 . S
H2230 C2222 0.930 . S
H2231 C2223 0.929 . S
H2232 C2240 0.929 . S
H2233 C2242 0.930 . S
H2234 C2244 0.930 . S
H2235 C2247 0.929 . S
H2236 C2250 0.930 . S
H2237 C2252 0.960 . S
H2238 C2252 0.960 . S
H2239 C2252 0.960 . S
C2240 H2232 0.929 . S
C2240 C2241 1.377 . S
C2240 C2242 1.384 . S
C2241 C2240 1.377 . S
C2241 C2247 1.390 . S
C2242 H2233 0.930 . S
C2242 C2240 1.384 . S
C2242 C2243 1.372 . S
C2243 C2242 1.372 . S
C2243 C2244 1.400 . S
C2243 C2248 1.490 . S
C2244 H2234 0.930 . S
C2244 C2243 1.400 . S
C2244 C2247 1.386 . S
H2245 C2261 0.930 . S
H2246 C2262 0.931 . S
C2247 H2235 0.929 . S
C2247 C2241 1.390 . S
C2247 C2244 1.386 . S
C2248 C2243 1.490 . S
C2248 C2250 1.395 . S
C2248 C2251 1.403 . S
H2249 C2255 0.930 . S
C2250 H2236 0.930 . S
C2250 C2248 1.395 . S
C2250 C2253 1.403 . S
C2251 C2248 1.403 . S
C2251 C2252 1.524 . S
C2251 C2255 1.400 . S
C2252 H2237 0.960 . S
C2252 H2238 0.960 . S
C2252 H2239 0.960 . S
C2252 C2251 1.524 . S
C2253 C2250 1.403 . S
C2253 C2254 1.392 . S
C2253 C2257 1.495 . S
C2254 C2253 1.392 . S
C2254 C2255 1.385 . S
C2254 C2256 1.478 . S
C2255 H2249 0.930 . S
C2255 C2251 1.400 . S
C2255 C2254 1.385 . S
C2256 C2254 1.478 . S
C2256 C2258 1.381 . S
C2256 C2262 1.383 . S
C2257 C2253 1.495 . S
C2257 H2263 0.959 . S
C2257 H2264 0.961 . S
C2257 H2265 0.960 . S
C2258 C2256 1.381 . S
C2258 C2259 1.394 . S
C2258 H2266 0.930 . S
C2259 C2258 1.394 . S
C2259 C2260 1.383 . S
C2259 H2267 0.929 . S
C2260 C2259 1.383 . S
C2260 C2261 1.377 . S
C2261 H2245 0.930 . S
C2261 C2260 1.377 . S
C2261 C2262 1.379 . S
C2262 H2246 0.931 . S
C2262 C2256 1.383 . S
C2262 C2261 1.379 . S
H2263 C2257 0.959 . S
H2264 C2257 0.961 . S
H2265 C2257 0.960 . S
H2266 C2258 0.930 . S
H2267 C2259 0.929 . S
H2268 C2276 0.929 . S
H2269 C2278 0.930 . S
H2270 C2280 0.930 . S
H2271 C2283 0.929 . S
H2272 C2286 0.930 . S
H2273 C2288 0.960 . S
H2274 C2288 0.960 . S
H2275 C2288 0.960 . S
C2276 H2268 0.929 . S
C2276 C2277 1.377 . S
C2276 C2278 1.384 . S
C2277 C2276 1.377 . S
C2277 C2283 1.390 . S
C2278 H2269 0.930 . S
C2278 C2276 1.384 . S
C2278 C2279 1.372 . S
C2279 C2278 1.372 . S
C2279 C2280 1.400 . S
C2279 C2284 1.490 . S
C2280 H2270 0.930 . S
C2280 C2279 1.400 . S
C2280 C2283 1.386 . S
H2281 C2297 0.930 . S
H2282 C2298 0.931 . S
C2283 H2271 0.929 . S
C2283 C2277 1.390 . S
C2283 C2280 1.386 . S
C2284 C2279 1.490 . S
C2284 C2286 1.395 . S
C2284 C2287 1.403 . S
H2285 C2291 0.930 . S
C2286 H2272 0.930 . S
C2286 C2284 1.395 . S
C2286 C2289 1.403 . S
C2287 C2284 1.403 . S
C2287 C2288 1.524 . S
C2287 C2291 1.400 . S
C2288 H2273 0.960 . S
C2288 H2274 0.960 . S
C2288 H2275 0.960 . S
C2288 C2287 1.524 . S
C2289 C2286 1.403 . S
C2289 C2290 1.392 . S
C2289 C2293 1.495 . S
C2290 C2289 1.392 . S
C2290 C2291 1.385 . S
C2290 C2292 1.478 . S
C2291 H2285 0.930 . S
C2291 C2287 1.400 . S
C2291 C2290 1.385 . S
C2292 C2290 1.478 . S
C2292 C2294 1.381 . S
C2292 C2298 1.383 . S
C2293 C2289 1.495 . S
C2293 H2299 0.959 . S
C2293 H2300 0.961 . S
C2293 H2301 0.960 . S
C2294 C2292 1.381 . S
C2294 C2295 1.394 . S
C2294 H2302 0.930 . S
C2295 C2294 1.394 . S
C2295 C2296 1.383 . S
C2295 H2303 0.929 . S
C2296 C2295 1.383 . S
C2296 C2297 1.377 . S
C2297 H2281 0.930 . S
C2297 C2296 1.377 . S
C2297 C2298 1.379 . S
C2298 H2282 0.931 . S
C2298 C2292 1.383 . S
C2298 C2297 1.379 . S
H2299 C2293 0.959 . S
H2300 C2293 0.961 . S
H2301 C2293 0.960 . S
H2302 C2294 0.930 . S
H2303 C2295 0.929 . S
H2304 C2312 0.929 . S
H2305 C2314 0.930 . S
H2306 C2316 0.930 . S
H2307 C2319 0.929 . S
H2308 C2322 0.930 . S
H2309 C2324 0.960 . S
H2310 C2324 0.960 . S
H2311 C2324 0.960 . S
C2312 H2304 0.929 . S
C2312 C2313 1.377 . S
C2312 C2314 1.384 . S
C2313 C2312 1.377 . S
C2313 C2319 1.390 . S
C2314 H2305 0.930 . S
C2314 C2312 1.384 . S
C2314 C2315 1.372 . S
C2315 C2314 1.372 . S
C2315 C2316 1.400 . S
C2315 C2320 1.490 . S
C2316 H2306 0.930 . S
C2316 C2315 1.400 . S
C2316 C2319 1.386 . S
H2317 C2333 0.930 . S
H2318 C2334 0.931 . S
C2319 H2307 0.929 . S
C2319 C2313 1.390 . S
C2319 C2316 1.386 . S
C2320 C2315 1.490 . S
C2320 C2322 1.395 . S
C2320 C2323 1.403 . S
H2321 C2327 0.930 . S
C2322 H2308 0.930 . S
C2322 C2320 1.395 . S
C2322 C2325 1.403 . S
C2323 C2320 1.403 . S
C2323 C2324 1.524 . S
C2323 C2327 1.400 . S
C2324 H2309 0.960 . S
C2324 H2310 0.960 . S
C2324 H2311 0.960 . S
C2324 C2323 1.524 . S
C2325 C2322 1.403 . S
C2325 C2326 1.392 . S
C2325 C2329 1.495 . S
C2326 C2325 1.392 . S
C2326 C2327 1.385 . S
C2326 C2328 1.478 . S
C2327 H2321 0.930 . S
C2327 C2323 1.400 . S
C2327 C2326 1.385 . S
C2328 C2326 1.478 . S
C2328 C2330 1.381 . S
C2328 C2334 1.383 . S
C2329 C2325 1.495 . S
C2329 H2335 0.959 . S
C2329 H2336 0.961 . S
C2329 H2337 0.960 . S
C2330 C2328 1.381 . S
C2330 C2331 1.394 . S
C2330 H2338 0.930 . S
C2331 C2330 1.394 . S
C2331 C2332 1.383 . S
C2331 H2339 0.929 . S
C2332 C2331 1.383 . S
C2332 C2333 1.377 . S
C2333 H2317 0.930 . S
C2333 C2332 1.377 . S
C2333 C2334 1.379 . S
C2334 H2318 0.931 . S
C2334 C2328 1.383 . S
C2334 C2333 1.379 . S
H2335 C2329 0.959 . S
H2336 C2329 0.961 . S
H2337 C2329 0.960 . S
H2338 C2330 0.930 . S
H2339 C2331 0.929 . S
H2340 C2348 0.928 1_554 S
H2341 C2350 0.930 . S
H2342 C2352 0.930 . S
H2343 C2355 0.929 . S
H2344 C2358 0.930 . S
H2345 C2360 0.960 . S
H2346 C2360 0.960 . S
H2347 C2360 0.960 . S
C2348 H2340 0.928 1_556 S
C2348 C2349 1.393 . S
C2348 C2350 1.370 1_556 S
C2349 C2348 1.393 . S
C2349 C2355 1.390 . S
C2350 H2341 0.930 . S
C2350 C2348 1.370 1_554 S
C2350 C2351 1.372 . S
C2351 C2350 1.372 . S
C2351 C2352 1.400 1_554 S
C2351 C2356 1.490 . S
C2352 H2342 0.930 . S
C2352 C2351 1.400 1_556 S
C2352 C2355 1.386 . S
H2353 C2369 0.930 . S
H2354 C2370 0.931 . S
C2355 H2343 0.929 . S
C2355 C2349 1.390 . S
C2355 C2352 1.386 . S
C2356 C2351 1.490 . S
C2356 C2358 1.395 . S
C2356 C2359 1.403 . S
H2357 C2363 0.930 . S
C2358 H2344 0.930 . S
C2358 C2356 1.395 . S
C2358 C2361 1.403 . S
C2359 C2356 1.403 . S
C2359 C2360 1.524 . S
C2359 C2363 1.400 . S
C2360 H2345 0.960 . S
C2360 H2346 0.960 . S
C2360 H2347 0.960 . S
C2360 C2359 1.524 . S
C2361 C2358 1.403 . S
C2361 C2362 1.392 . S
C2361 C2365 1.495 . S
C2362 C2361 1.392 . S
C2362 C2363 1.385 . S
C2362 C2364 1.478 . S
C2363 H2357 0.930 . S
C2363 C2359 1.400 . S
C2363 C2362 1.385 . S
C2364 C2362 1.478 . S
C2364 C2366 1.381 . S
C2364 C2370 1.383 . S
C2365 C2361 1.495 . S
C2365 H2371 0.959 . S
C2365 H2372 0.961 . S
C2365 H2373 0.960 . S
C2366 C2364 1.381 . S
C2366 C2367 1.394 . S
C2366 H2374 0.930 . S
C2367 C2366 1.394 . S
C2367 C2368 1.383 . S
C2367 H2375 0.929 . S
C2368 C2367 1.383 . S
C2368 C2369 1.377 . S
C2369 H2353 0.930 . S
C2369 C2368 1.377 . S
C2369 C2370 1.379 . S
C2370 H2354 0.931 . S
C2370 C2364 1.383 . S
C2370 C2369 1.379 . S
H2371 C2365 0.959 . S
H2372 C2365 0.961 . S
H2373 C2365 0.960 . S
H2374 C2366 0.930 . S
H2375 C2367 0.929 . S
H2376 C2384 0.929 . S
H2377 C2386 0.930 . S
H2378 C2388 0.930 . S
H2379 C2391 0.929 . S
H2380 C2394 0.930 . S
H2381 C2396 0.960 . S
H2382 C2396 0.960 . S
H2383 C2396 0.960 . S
C2384 H2376 0.929 . S
C2384 C2385 1.377 . S
C2384 C2386 1.384 1_556 S
C2385 C2384 1.377 . S
C2385 C2391 1.390 . S
C2386 H2377 0.930 . S
C2386 C2384 1.384 1_554 S
C2386 C2387 1.372 . S
C2387 C2386 1.372 . S
C2387 C2388 1.400 . S
C2387 C2392 1.490 . S
C2388 H2378 0.930 . S
C2388 C2387 1.400 . S
C2388 C2391 1.386 1_554 S
H2389 C2405 0.930 . S
H2390 C2406 0.931 . S
C2391 H2379 0.929 . S
C2391 C2385 1.390 . S
C2391 C2388 1.386 1_556 S
C2392 C2387 1.490 . S
C2392 C2394 1.395 . S
C2392 C2395 1.403 . S
H2393 C2399 0.930 . S
C2394 H2380 0.930 . S
C2394 C2392 1.395 . S
C2394 C2397 1.403 . S
C2395 C2392 1.403 . S
C2395 C2396 1.524 . S
C2395 C2399 1.400 . S
C2396 H2381 0.960 . S
C2396 H2382 0.960 . S
C2396 H2383 0.960 . S
C2396 C2395 1.524 . S
C2397 C2394 1.403 . S
C2397 C2398 1.392 . S
C2397 C2401 1.495 . S
C2398 C2397 1.392 . S
C2398 C2399 1.385 . S
C2398 C2400 1.478 . S
C2399 H2393 0.930 . S
C2399 C2395 1.400 . S
C2399 C2398 1.385 . S
C2400 C2398 1.478 . S
C2400 C2402 1.381 . S
C2400 C2406 1.383 . S
C2401 C2397 1.495 . S
C2401 H2407 0.959 . S
C2401 H2408 0.961 . S
C2401 H2409 0.960 . S
C2402 C2400 1.381 . S
C2402 C2403 1.394 . S
C2402 H2410 0.930 . S
C2403 C2402 1.394 . S
C2403 C2404 1.383 . S
C2403 H2411 0.929 . S
C2404 C2403 1.383 . S
C2404 C2405 1.377 . S
C2405 H2389 0.930 . S
C2405 C2404 1.377 . S
C2405 C2406 1.379 . S
C2406 H2390 0.931 . S
C2406 C2400 1.383 . S
C2406 C2405 1.379 . S
H2407 C2401 0.959 . S
H2408 C2401 0.961 . S
H2409 C2401 0.960 . S
H2410 C2402 0.930 . S
H2411 C2403 0.929 . S
H2412 C2420 0.929 . S
H2413 C2422 0.930 . S
H2414 C2424 0.930 . S
H2415 C2427 0.929 . S
H2416 C2430 0.930 . S
H2417 C2432 0.960 . S
H2418 C2432 0.960 . S
H2419 C2432 0.960 . S
C2420 H2412 0.929 . S
C2420 C2421 1.377 . S
C2420 C2422 1.384 1_556 S
C2421 C2420 1.377 . S
C2421 C2427 1.390 . S
C2422 H2413 0.930 . S
C2422 C2420 1.384 1_554 S
C2422 C2423 1.372 . S
C2423 C2422 1.372 . S
C2423 C2424 1.400 1_554 S
C2423 C2428 1.490 . S
C2424 H2414 0.930 . S
C2424 C2423 1.400 1_556 S
C2424 C2427 1.386 . S
H2425 C2441 0.930 . S
H2426 C2442 0.931 . S
C2427 H2415 0.929 . S
C2427 C2421 1.390 . S
C2427 C2424 1.386 . S
C2428 C2423 1.490 . S
C2428 C2430 1.395 . S
C2428 C2431 1.403 . S
H2429 C2435 0.930 . S
C2430 H2416 0.930 . S
C2430 C2428 1.395 . S
C2430 C2433 1.403 . S
C2431 C2428 1.403 . S
C2431 C2432 1.524 . S
C2431 C2435 1.400 . S
C2432 H2417 0.960 . S
C2432 H2418 0.960 . S
C2432 H2419 0.960 . S
C2432 C2431 1.524 . S
C2433 C2430 1.403 . S
C2433 C2434 1.392 . S
C2433 C2437 1.495 . S
C2434 C2433 1.392 . S
C2434 C2435 1.385 . S
C2434 C2436 1.478 . S
C2435 H2429 0.930 . S
C2435 C2431 1.400 . S
C2435 C2434 1.385 . S
C2436 C2434 1.478 . S
C2436 C2438 1.381 . S
C2436 C2442 1.383 . S
C2437 C2433 1.495 . S
C2437 H2443 0.959 . S
C2437 H2444 0.961 . S
C2437 H2445 0.960 . S
C2438 C2436 1.381 . S
C2438 C2439 1.394 . S
C2438 H2446 0.930 . S
C2439 C2438 1.394 . S
C2439 C2440 1.383 . S
C2439 H2447 0.929 . S
C2440 C2439 1.383 . S
C2440 C2441 1.377 . S
C2441 H2425 0.930 . S
C2441 C2440 1.377 . S
C2441 C2442 1.379 . S
C2442 H2426 0.931 . S
C2442 C2436 1.383 . S
C2442 C2441 1.379 . S
H2443 C2437 0.959 . S
H2444 C2437 0.961 . S
H2445 C2437 0.960 . S
H2446 C2438 0.930 . S
H2447 C2439 0.929 . S
H2448 C2456 0.929 . S
H2449 C2458 0.930 . S
H2450 C2460 0.930 1_556 S
H2451 C2463 0.929 . S
H2452 C2466 0.930 . S
H2453 C2468 0.960 1_556 S
H2454 C2468 0.960 . S
H2455 C2468 0.960 1_556 S
C2456 H2448 0.929 . S
C2456 C2457 1.377 . S
C2456 C2458 1.384 . S
C2457 C2456 1.377 . S
C2457 C2463 1.390 1_554 S
C2458 H2449 0.930 . S
C2458 C2456 1.384 . S
C2458 C2459 1.372 . S
C2459 C2458 1.372 . S
C2459 C2460 1.400 . S
C2459 C2464 1.490 . S
C2460 H2450 0.930 1_554 S
C2460 C2459 1.400 . S
C2460 C2463 1.386 1_554 S
H2461 C2477 0.930 . S
H2462 C2478 0.931 . S
C2463 H2451 0.929 . S
C2463 C2457 1.390 1_556 S
C2463 C2460 1.386 1_556 S
C2464 C2459 1.490 . S
C2464 C2466 1.395 . S
C2464 C2467 1.403 . S
H2465 C2471 0.930 . S
C2466 H2452 0.930 . S
C2466 C2464 1.395 . S
C2466 C2469 1.403 . S
C2467 C2464 1.403 . S
C2467 C2468 1.524 . S
C2467 C2471 1.400 . S
C2468 H2453 0.960 1_554 S
C2468 H2454 0.960 . S
C2468 H2455 0.960 1_554 S
C2468 C2467 1.524 . S
C2469 C2466 1.403 . S
C2469 C2470 1.392 . S
C2469 C2473 1.495 . S
C2470 C2469 1.392 . S
C2470 C2471 1.385 . S
C2470 C2472 1.478 . S
C2471 H2465 0.930 . S
C2471 C2467 1.400 . S
C2471 C2470 1.385 . S
C2472 C2470 1.478 . S
C2472 C2474 1.381 . S
C2472 C2478 1.383 . S
C2473 C2469 1.495 . S
C2473 H2479 0.959 . S
C2473 H2480 0.961 . S
C2473 H2481 0.960 . S
C2474 C2472 1.381 . S
C2474 C2475 1.394 . S
C2474 H2482 0.930 . S
C2475 C2474 1.394 . S
C2475 C2476 1.383 . S
C2475 H2483 0.929 . S
C2476 C2475 1.383 . S
C2476 C2477 1.377 . S
C2477 H2461 0.930 . S
C2477 C2476 1.377 . S
C2477 C2478 1.379 . S
C2478 H2462 0.931 . S
C2478 C2472 1.383 . S
C2478 C2477 1.379 . S
H2479 C2473 0.959 . S
H2480 C2473 0.961 . S
H2481 C2473 0.960 . S
H2482 C2474 0.930 . S
H2483 C2475 0.929 . S
H2484 C2492 0.929 . S
H2485 C2494 0.930 . S
H2486 C2496 0.930 . S
H2487 C2499 0.929 . S
H2488 C2502 0.930 . S
H2489 C2504 0.960 1_556 S
H2490 C2504 0.960 . S
H2491 C2504 0.960 . S
C2492 H2484 0.929 . S
C2492 C2493 1.377 . S
C2492 C2494 1.384 . S
C2493 C2492 1.377 . S
C2493 C2499 1.390 . S
C2494 H2485 0.930 . S
C2494 C2492 1.384 . S
C2494 C2495 1.372 . S
C2495 C2494 1.372 . S
C2495 C2496 1.400 . S
C2495 C2500 1.490 . S
C2496 H2486 0.930 . S
C2496 C2495 1.400 . S
C2496 C2499 1.386 . S
H2497 C2513 0.930 . S
H2498 C2514 0.931 . S
C2499 H2487 0.929 . S
C2499 C2493 1.390 . S
C2499 C2496 1.386 . S
C2500 C2495 1.490 . S
C2500 C2502 1.395 . S
C2500 C2503 1.403 . S
H2501 C2507 0.930 . S
C2502 H2488 0.930 . S
C2502 C2500 1.395 . S
C2502 C2505 1.403 . S
C2503 C2500 1.403 . S
C2503 C2504 1.524 . S
C2503 C2507 1.400 . S
C2504 H2489 0.960 1_554 S
C2504 H2490 0.960 . S
C2504 H2491 0.960 . S
C2504 C2503 1.524 . S
C2505 C2502 1.403 . S
C2505 C2506 1.392 . S
C2505 C2509 1.495 . S
C2506 C2505 1.392 . S
C2506 C2507 1.385 . S
C2506 C2508 1.478 . S
C2507 H2501 0.930 . S
C2507 C2503 1.400 . S
C2507 C2506 1.385 . S
C2508 C2506 1.478 . S
C2508 C2510 1.381 . S
C2508 C2514 1.383 . S
C2509 C2505 1.495 . S
C2509 H2515 0.959 . S
C2509 H2516 0.961 . S
C2509 H2517 0.960 . S
C2510 C2508 1.381 . S
C2510 C2511 1.394 . S
C2510 H2518 0.930 . S
C2511 C2510 1.394 . S
C2511 C2512 1.383 . S
C2511 H2519 0.929 . S
C2512 C2511 1.383 . S
C2512 C2513 1.377 . S
C2513 H2497 0.930 . S
C2513 C2512 1.377 . S
C2513 C2514 1.379 . S
C2514 H2498 0.931 . S
C2514 C2508 1.383 . S
C2514 C2513 1.379 . S
H2515 C2509 0.959 . S
H2516 C2509 0.961 . S
H2517 C2509 0.960 . S
H2518 C2510 0.930 . S
H2519 C2511 0.929 . S
H2520 C2528 0.929 . S
H2521 C2530 0.930 . S
H2522 C2532 0.930 1_556 S
H2523 C2535 0.929 . S
H2524 C2538 0.930 . S
H2525 C2540 0.960 . S
H2526 C2540 0.960 . S
H2527 C2540 0.958 1_556 S
C2528 H2520 0.929 . S
C2528 C2529 1.377 . S
C2528 C2530 1.384 . S
C2529 C2528 1.377 . S
C2529 C2535 1.390 1_554 S
C2530 H2521 0.930 . S
C2530 C2528 1.384 . S
C2530 C2531 1.372 . S
C2531 C2530 1.372 . S
C2531 C2532 1.400 . S
C2531 C2536 1.490 . S
C2532 H2522 0.930 1_554 S
C2532 C2531 1.400 . S
C2532 C2535 1.386 1_554 S
H2533 C2549 0.930 . S
H2534 C2550 0.931 . S
C2535 H2523 0.929 . S
C2535 C2529 1.390 1_556 S
C2535 C2532 1.386 1_556 S
C2536 C2531 1.490 . S
C2536 C2538 1.395 . S
C2536 C2539 1.403 . S
H2537 C2543 0.930 . S
C2538 H2524 0.930 . S
C2538 C2536 1.395 . S
C2538 C2541 1.403 . S
C2539 C2536 1.403 . S
C2539 C2540 1.524 . S
C2539 C2543 1.400 . S
C2540 H2525 0.960 . S
C2540 H2526 0.960 . S
C2540 H2527 0.958 1_554 S
C2540 C2539 1.524 . S
C2541 C2538 1.403 . S
C2541 C2542 1.392 . S
C2541 C2545 1.495 . S
C2542 C2541 1.392 . S
C2542 C2543 1.385 . S
C2542 C2544 1.478 . S
C2543 H2537 0.930 . S
C2543 C2539 1.400 . S
C2543 C2542 1.385 . S
C2544 C2542 1.478 . S
C2544 C2546 1.381 . S
C2544 C2550 1.383 . S
C2545 C2541 1.495 . S
C2545 H2551 0.959 . S
C2545 H2552 0.961 . S
C2545 H2553 0.960 . S
C2546 C2544 1.381 . S
C2546 C2547 1.394 . S
C2546 H2554 0.930 . S
C2547 C2546 1.394 . S
C2547 C2548 1.383 . S
C2547 H2555 0.929 . S
C2548 C2547 1.383 . S
C2548 C2549 1.377 . S
C2549 H2533 0.930 . S
C2549 C2548 1.377 . S
C2549 C2550 1.379 . S
C2550 H2534 0.931 . S
C2550 C2544 1.383 . S
C2550 C2549 1.379 . S
H2551 C2545 0.959 . S
H2552 C2545 0.961 . S
H2553 C2545 0.960 . S
H2554 C2546 0.930 . S
H2555 C2547 0.929 . S
H2556 C2564 0.929 . S
H2557 C2566 0.930 . S
H2558 C2568 0.930 . S
H2559 C2571 0.929 . S
H2560 C2574 0.930 . S
H2561 C2576 0.960 . S
H2562 C2576 0.960 . S
H2563 C2576 0.960 . S
C2564 H2556 0.929 . S
C2564 C2565 1.377 . S
C2564 C2566 1.384 . S
C2565 C2564 1.377 . S
C2565 C2571 1.390 . S
C2566 H2557 0.930 . S
C2566 C2564 1.384 . S
C2566 C2567 1.372 . S
C2567 C2566 1.372 . S
C2567 C2568 1.400 . S
C2567 C2572 1.490 . S
C2568 H2558 0.930 . S
C2568 C2567 1.400 . S
C2568 C2571 1.386 . S
H2569 C2585 0.930 . S
H2570 C2586 0.931 . S
C2571 H2559 0.929 . S
C2571 C2565 1.390 . S
C2571 C2568 1.386 . S
C2572 C2567 1.490 . S
C2572 C2574 1.395 . S
C2572 C2575 1.403 . S
H2573 C2579 0.930 . S
C2574 H2560 0.930 . S
C2574 C2572 1.395 . S
C2574 C2577 1.403 . S
C2575 C2572 1.403 . S
C2575 C2576 1.524 . S
C2575 C2579 1.400 . S
C2576 H2561 0.960 . S
C2576 H2562 0.960 . S
C2576 H2563 0.960 . S
C2576 C2575 1.524 . S
C2577 C2574 1.403 . S
C2577 C2578 1.392 . S
C2577 C2581 1.495 . S
C2578 C2577 1.392 . S
C2578 C2579 1.385 . S
C2578 C2580 1.478 . S
C2579 H2573 0.930 . S
C2579 C2575 1.400 . S
C2579 C2578 1.385 . S
C2580 C2578 1.478 . S
C2580 C2582 1.381 . S
C2580 C2586 1.383 . S
C2581 C2577 1.495 . S
C2581 H2587 0.959 . S
C2581 H2588 0.961 . S
C2581 H2589 0.960 . S
C2582 C2580 1.381 . S
C2582 C2583 1.394 . S
C2582 H2590 0.930 . S
C2583 C2582 1.394 . S
C2583 C2584 1.383 . S
C2583 H2591 0.929 . S
C2584 C2583 1.383 . S
C2584 C2585 1.377 . S
C2585 H2569 0.930 . S
C2585 C2584 1.377 . S
C2585 C2586 1.379 . S
C2586 H2570 0.931 . S
C2586 C2580 1.383 . S
C2586 C2585 1.379 . S
H2587 C2581 0.959 . S
H2588 C2581 0.961 . S
H2589 C2581 0.960 . S
H2590 C2582 0.930 . S
H2591 C2583 0.929 . S
H2592 C2600 0.929 . S
H2593 C2602 0.930 . S
H2594 C2604 0.930 . S
H2595 C2607 0.929 . S
H2596 C2610 0.930 . S
H2597 C2612 0.960 . S
H2598 C2612 0.960 . S
H2599 C2612 0.960 . S
C2600 H2592 0.929 . S
C2600 C2601 1.377 . S
C2600 C2602 1.384 . S
C2601 C2600 1.377 . S
C2601 C2607 1.390 . S
C2602 H2593 0.930 . S
C2602 C2600 1.384 . S
C2602 C2603 1.372 . S
C2603 C2602 1.372 . S
C2603 C2604 1.400 . S
C2603 C2608 1.490 . S
C2604 H2594 0.930 . S
C2604 C2603 1.400 . S
C2604 C2607 1.386 . S
H2605 C2621 0.930 . S
H2606 C2622 0.931 . S
C2607 H2595 0.929 . S
C2607 C2601 1.390 . S
C2607 C2604 1.386 . S
C2608 C2603 1.490 . S
C2608 C2610 1.395 . S
C2608 C2611 1.403 . S
H2609 C2615 0.930 . S
C2610 H2596 0.930 . S
C2610 C2608 1.395 . S
C2610 C2613 1.403 . S
C2611 C2608 1.403 . S
C2611 C2612 1.524 . S
C2611 C2615 1.400 . S
C2612 H2597 0.960 . S
C2612 H2598 0.960 . S
C2612 H2599 0.960 . S
C2612 C2611 1.524 . S
C2613 C2610 1.403 . S
C2613 C2614 1.392 . S
C2613 C2617 1.495 . S
C2614 C2613 1.392 . S
C2614 C2615 1.385 . S
C2614 C2616 1.478 . S
C2615 H2609 0.930 . S
C2615 C2611 1.400 . S
C2615 C2614 1.385 . S
C2616 C2614 1.478 . S
C2616 C2618 1.381 . S
C2616 C2622 1.383 . S
C2617 C2613 1.495 . S
C2617 H2623 0.959 . S
C2617 H2624 0.961 . S
C2617 H2625 0.960 . S
C2618 C2616 1.381 . S
C2618 C2619 1.394 . S
C2618 H2626 0.930 . S
C2619 C2618 1.394 . S
C2619 C2620 1.383 . S
C2619 H2627 0.929 . S
C2620 C2619 1.383 . S
C2620 C2621 1.377 . S
C2621 H2605 0.930 . S
C2621 C2620 1.377 . S
C2621 C2622 1.379 . S
C2622 H2606 0.931 . S
C2622 C2616 1.383 . S
C2622 C2621 1.379 . S
H2623 C2617 0.959 . S
H2624 C2617 0.961 . S
H2625 C2617 0.960 . S
H2626 C2618 0.930 . S
H2627 C2619 0.929 . S
H2628 C2636 0.929 . S
H2629 C2638 0.930 . S
H2630 C2640 0.930 . S
H2631 C2643 0.929 . S
H2632 C2646 0.930 . S
H2633 C2648 0.960 . S
H2634 C2648 0.960 . S
H2635 C2648 0.960 . S
C2636 H2628 0.929 . S
C2636 C2637 1.377 . S
C2636 C2638 1.384 . S
C2637 C2636 1.377 . S
C2637 C2643 1.390 . S
C2638 H2629 0.930 . S
C2638 C2636 1.384 . S
C2638 C2639 1.372 . S
C2639 C2638 1.372 . S
C2639 C2640 1.400 . S
C2639 C2644 1.490 . S
C2640 H2630 0.930 . S
C2640 C2639 1.400 . S
C2640 C2643 1.386 . S
H2641 C2657 0.930 . S
H2642 C2658 0.931 . S
C2643 H2631 0.929 . S
C2643 C2637 1.390 . S
C2643 C2640 1.386 . S
C2644 C2639 1.490 . S
C2644 C2646 1.395 . S
C2644 C2647 1.403 . S
H2645 C2651 0.930 . S
C2646 H2632 0.930 . S
C2646 C2644 1.395 . S
C2646 C2649 1.403 . S
C2647 C2644 1.403 . S
C2647 C2648 1.524 . S
C2647 C2651 1.400 . S
C2648 H2633 0.960 . S
C2648 H2634 0.960 . S
C2648 H2635 0.960 . S
C2648 C2647 1.524 . S
C2649 C2646 1.403 . S
C2649 C2650 1.392 . S
C2649 C2653 1.495 . S
C2650 C2649 1.392 . S
C2650 C2651 1.385 . S
C2650 C2652 1.478 . S
C2651 H2645 0.930 . S
C2651 C2647 1.400 . S
C2651 C2650 1.385 . S
C2652 C2650 1.478 . S
C2652 C2654 1.381 . S
C2652 C2658 1.383 . S
C2653 C2649 1.495 . S
C2653 H2659 0.959 . S
C2653 H2660 0.961 . S
C2653 H2661 0.960 . S
C2654 C2652 1.381 . S
C2654 C2655 1.394 . S
C2654 H2662 0.930 . S
C2655 C2654 1.394 . S
C2655 C2656 1.383 . S
C2655 H2663 0.929 . S
C2656 C2655 1.383 . S
C2656 C2657 1.377 . S
C2657 H2641 0.930 . S
C2657 C2656 1.377 . S
C2657 C2658 1.379 . S
C2658 H2642 0.931 . S
C2658 C2652 1.383 . S
C2658 C2657 1.379 . S
H2659 C2653 0.959 . S
H2660 C2653 0.961 . S
H2661 C2653 0.960 . S
H2662 C2654 0.930 . S
H2663 C2655 0.929 . S
H2664 C2672 0.929 . S
H2665 C2674 0.930 . S
H2666 C2676 0.930 . S
H2667 C2679 0.929 . S
H2668 C2682 0.930 . S
H2669 C2684 0.960 1_554 S
H2670 C2684 0.960 . S
H2671 C2684 0.960 . S
C2672 H2664 0.929 . S
C2672 C2673 1.377 . S
C2672 C2674 1.384 . S
C2673 C2672 1.377 . S
C2673 C2679 1.390 . S
C2674 H2665 0.930 . S
C2674 C2672 1.384 . S
C2674 C2675 1.372 . S
C2675 C2674 1.372 . S
C2675 C2676 1.400 . S
C2675 C2680 1.490 . S
C2676 H2666 0.930 . S
C2676 C2675 1.400 . S
C2676 C2679 1.386 . S
H2677 C2693 0.930 1_554 S
H2678 C2694 0.931 . S
C2679 H2667 0.929 . S
C2679 C2673 1.390 . S
C2679 C2676 1.386 . S
C2680 C2675 1.490 . S
C2680 C2682 1.395 . S
C2680 C2683 1.403 . S
H2681 C2687 0.930 . S
C2682 H2668 0.930 . S
C2682 C2680 1.395 . S
C2682 C2685 1.403 . S
C2683 C2680 1.403 . S
C2683 C2684 1.524 . S
C2683 C2687 1.400 . S
C2684 H2669 0.960 1_556 S
C2684 H2670 0.960 . S
C2684 H2671 0.960 . S
C2684 C2683 1.524 . S
C2685 C2682 1.403 . S
C2685 C2686 1.392 . S
C2685 C2689 1.495 . S
C2686 C2685 1.392 . S
C2686 C2687 1.385 . S
C2686 C2688 1.478 . S
C2687 H2681 0.930 . S
C2687 C2683 1.400 . S
C2687 C2686 1.385 . S
C2688 C2686 1.478 . S
C2688 C2690 1.381 . S
C2688 C2694 1.383 . S
C2689 C2685 1.495 . S
C2689 H2695 0.959 . S
C2689 H2696 0.961 . S
C2689 H2697 0.960 . S
C2690 C2688 1.381 . S
C2690 C2691 1.394 . S
C2690 H2698 0.930 . S
C2691 C2690 1.394 . S
C2691 C2692 1.383 . S
C2691 H2699 0.929 . S
C2692 C2691 1.383 . S
C2692 C2693 1.377 . S
C2693 H2677 0.930 1_556 S
C2693 C2692 1.377 . S
C2693 C2694 1.379 . S
C2694 H2678 0.931 . S
C2694 C2688 1.383 . S
C2694 C2693 1.379 . S
H2695 C2689 0.959 . S
H2696 C2689 0.961 . S
H2697 C2689 0.960 . S
H2698 C2690 0.930 . S
H2699 C2691 0.929 . S
H2700 C2708 0.929 . S
H2701 C2710 0.930 1_554 S
H2702 C2712 0.930 . S
H2703 C2715 0.929 . S
H2704 C2718 0.930 . S
H2705 C2720 0.960 . S
H2706 C2720 0.960 . S
H2707 C2720 0.960 . S
C2708 H2700 0.929 . S
C2708 C2709 1.377 1_554 S
C2708 C2710 1.384 1_554 S
C2709 C2708 1.377 1_556 S
C2709 C2715 1.390 . S
C2710 H2701 0.930 1_556 S
C2710 C2708 1.384 1_556 S
C2710 C2711 1.372 . S
C2711 C2710 1.372 . S
C2711 C2712 1.400 . S
C2711 C2716 1.490 . S
C2712 H2702 0.930 . S
C2712 C2711 1.400 . S
C2712 C2715 1.386 . S
H2713 C2729 0.930 . S
H2714 C2730 0.931 . S
C2715 H2703 0.929 . S
C2715 C2709 1.390 . S
C2715 C2712 1.386 . S
C2716 C2711 1.490 . S
C2716 C2718 1.395 . S
C2716 C2719 1.403 . S
H2717 C2723 0.930 . S
C2718 H2704 0.930 . S
C2718 C2716 1.395 . S
C2718 C2721 1.403 . S
C2719 C2716 1.403 . S
C2719 C2720 1.524 . S
C2719 C2723 1.400 . S
C2720 H2705 0.960 . S
C2720 H2706 0.960 . S
C2720 H2707 0.960 . S
C2720 C2719 1.524 . S
C2721 C2718 1.403 . S
C2721 C2722 1.392 . S
C2721 C2725 1.495 . S
C2722 C2721 1.392 . S
C2722 C2723 1.385 . S
C2722 C2724 1.478 . S
C2723 H2717 0.930 . S
C2723 C2719 1.400 . S
C2723 C2722 1.385 . S
C2724 C2722 1.478 . S
C2724 C2726 1.381 . S
C2724 C2730 1.383 . S
C2725 C2721 1.495 . S
C2725 H2731 0.959 . S
C2725 H2732 0.961 . S
C2725 H2733 0.960 . S
C2726 C2724 1.381 . S
C2726 C2727 1.394 . S
C2726 H2734 0.930 . S
C2727 C2726 1.394 . S
C2727 C2728 1.383 . S
C2727 H2735 0.929 . S
C2728 C2727 1.383 . S
C2728 C2729 1.377 . S
C2729 H2713 0.930 . S
C2729 C2728 1.377 . S
C2729 C2730 1.379 . S
C2730 H2714 0.931 . S
C2730 C2724 1.383 . S
C2730 C2729 1.379 . S
H2731 C2725 0.959 . S
H2732 C2725 0.961 . S
H2733 C2725 0.960 . S
H2734 C2726 0.930 . S
H2735 C2727 0.929 . S
H2736 C2744 0.929 . S
H2737 C2746 0.930 . S
H2738 C2748 0.930 . S
H2739 C2751 0.929 . S
H2740 C2754 0.930 . S
H2741 C2756 0.960 . S
H2742 C2756 0.960 . S
H2743 C2756 0.960 . S
C2744 H2736 0.929 . S
C2744 C2745 1.377 . S
C2744 C2746 1.384 . S
C2745 C2744 1.377 . S
C2745 C2751 1.390 . S
C2746 H2737 0.930 . S
C2746 C2744 1.384 . S
C2746 C2747 1.372 . S
C2747 C2746 1.372 . S
C2747 C2748 1.400 . S
C2747 C2752 1.490 . S
C2748 H2738 0.930 . S
C2748 C2747 1.400 . S
C2748 C2751 1.386 . S
H2749 C2765 0.930 . S
H2750 C2766 0.931 1_554 S
C2751 H2739 0.929 . S
C2751 C2745 1.390 . S
C2751 C2748 1.386 . S
C2752 C2747 1.490 . S
C2752 C2754 1.395 . S
C2752 C2755 1.403 . S
H2753 C2759 0.930 . S
C2754 H2740 0.930 . S
C2754 C2752 1.395 . S
C2754 C2757 1.403 . S
C2755 C2752 1.403 . S
C2755 C2756 1.524 . S
C2755 C2759 1.400 . S
C2756 H2741 0.960 . S
C2756 H2742 0.960 . S
C2756 H2743 0.960 . S
C2756 C2755 1.524 . S
C2757 C2754 1.403 . S
C2757 C2758 1.392 . S
C2757 C2761 1.495 . S
C2758 C2757 1.392 . S
C2758 C2759 1.385 . S
C2758 C2760 1.478 . S
C2759 H2753 0.930 . S
C2759 C2755 1.400 . S
C2759 C2758 1.385 . S
C2760 C2758 1.478 . S
C2760 C2762 1.381 . S
C2760 C2766 1.383 . S
C2761 C2757 1.495 . S
C2761 H2767 0.959 . S
C2761 H2768 0.961 . S
C2761 H2769 0.960 . S
C2762 C2760 1.381 . S
C2762 C2763 1.394 . S
C2762 H2770 0.930 . S
C2763 C2762 1.394 . S
C2763 C2764 1.383 . S
C2763 H2771 0.929 . S
C2764 C2763 1.383 . S
C2764 C2765 1.377 1_556 S
C2765 H2749 0.930 . S
C2765 C2764 1.377 1_554 S
C2765 C2766 1.379 1_554 S
C2766 H2750 0.931 1_556 S
C2766 C2760 1.383 . S
C2766 C2765 1.379 1_556 S
H2767 C2761 0.959 . S
H2768 C2761 0.961 . S
H2769 C2761 0.960 . S
H2770 C2762 0.930 . S
H2771 C2763 0.929 . S
H2772 C2780 0.929 . S
H2773 C2782 0.930 . S
H2774 C2784 0.930 . S
H2775 C2787 0.929 . S
H2776 C2790 0.930 . S
H2777 C2792 0.960 . S
H2778 C2792 0.960 . S
H2779 C2792 0.960 . S
C2780 H2772 0.929 . S
C2780 C2781 1.377 . S
C2780 C2782 1.384 . S
C2781 C2780 1.377 . S
C2781 C2787 1.390 . S
C2782 H2773 0.930 . S
C2782 C2780 1.384 . S
C2782 C2783 1.372 . S
C2783 C2782 1.372 . S
C2783 C2784 1.400 . S
C2783 C2788 1.490 . S
C2784 H2774 0.930 . S
C2784 C2783 1.400 . S
C2784 C2787 1.386 . S
H2785 C2801 0.930 . S
H2786 C2802 0.931 . S
C2787 H2775 0.929 . S
C2787 C2781 1.390 . S
C2787 C2784 1.386 . S
C2788 C2783 1.490 . S
C2788 C2790 1.395 . S
C2788 C2791 1.403 . S
H2789 C2795 0.930 . S
C2790 H2776 0.930 . S
C2790 C2788 1.395 . S
C2790 C2793 1.403 . S
C2791 C2788 1.403 . S
C2791 C2792 1.524 . S
C2791 C2795 1.400 . S
C2792 H2777 0.960 . S
C2792 H2778 0.960 . S
C2792 H2779 0.960 . S
C2792 C2791 1.524 . S
C2793 C2790 1.403 . S
C2793 C2794 1.392 . S
C2793 C2797 1.495 . S
C2794 C2793 1.392 . S
C2794 C2795 1.385 . S
C2794 C2796 1.478 . S
C2795 H2789 0.930 . S
C2795 C2791 1.400 . S
C2795 C2794 1.385 . S
C2796 C2794 1.478 . S
C2796 C2798 1.381 . S
C2796 C2802 1.383 . S
C2797 C2793 1.495 . S
C2797 H2803 0.959 . S
C2797 H2804 0.961 . S
C2797 H2805 0.960 . S
C2798 C2796 1.381 . S
C2798 C2799 1.394 . S
C2798 H2806 0.930 . S
C2799 C2798 1.394 . S
C2799 C2800 1.383 . S
C2799 H2807 0.929 . S
C2800 C2799 1.383 . S
C2800 C2801 1.377 . S
C2801 H2785 0.930 . S
C2801 C2800 1.377 . S
C2801 C2802 1.379 . S
C2802 H2786 0.931 . S
C2802 C2796 1.383 . S
C2802 C2801 1.379 . S
H2803 C2797 0.959 . S
H2804 C2797 0.961 . S
H2805 C2797 0.960 . S
H2806 C2798 0.930 . S
H2807 C2799 0.929 . S
H2808 C2816 0.929 . S
H2809 C2818 0.930 . S
H2810 C2820 0.930 . S
H2811 C2823 0.929 . S
H2812 C2826 0.930 . S
H2813 C2828 0.960 . S
H2814 C2828 0.960 . S
H2815 C2828 0.960 . S
C2816 H2808 0.929 . S
C2816 C2817 1.377 . S
C2816 C2818 1.384 . S
C2817 C2816 1.377 . S
C2817 C2823 1.390 . S
C2818 H2809 0.930 . S
C2818 C2816 1.384 . S
C2818 C2819 1.372 . S
C2819 C2818 1.372 . S
C2819 C2820 1.400 . S
C2819 C2824 1.490 . S
C2820 H2810 0.930 . S
C2820 C2819 1.400 . S
C2820 C2823 1.386 . S
H2821 C2837 0.930 . S
H2822 C2838 0.931 . S
C2823 H2811 0.929 . S
C2823 C2817 1.390 . S
C2823 C2820 1.386 . S
C2824 C2819 1.490 . S
C2824 C2826 1.395 . S
C2824 C2827 1.403 . S
H2825 C2831 0.930 . S
C2826 H2812 0.930 . S
C2826 C2824 1.395 . S
C2826 C2829 1.403 . S
C2827 C2824 1.403 . S
C2827 C2828 1.524 . S
C2827 C2831 1.400 . S
C2828 H2813 0.960 . S
C2828 H2814 0.960 . S
C2828 H2815 0.960 . S
C2828 C2827 1.524 . S
C2829 C2826 1.403 . S
C2829 C2830 1.392 . S
C2829 C2833 1.495 . S
C2830 C2829 1.392 . S
C2830 C2831 1.385 . S
C2830 C2832 1.478 . S
C2831 H2825 0.930 . S
C2831 C2827 1.400 . S
C2831 C2830 1.385 . S
C2832 C2830 1.478 . S
C2832 C2834 1.381 . S
C2832 C2838 1.383 . S
C2833 C2829 1.495 . S
C2833 H2839 0.959 . S
C2833 H2840 0.961 . S
C2833 H2841 0.960 . S
C2834 C2832 1.381 . S
C2834 C2835 1.394 . S
C2834 H2842 0.930 . S
C2835 C2834 1.394 . S
C2835 C2836 1.383 . S
C2835 H2843 0.929 . S
C2836 C2835 1.383 . S
C2836 C2837 1.377 . S
C2837 H2821 0.930 . S
C2837 C2836 1.377 . S
C2837 C2838 1.379 . S
C2838 H2822 0.931 . S
C2838 C2832 1.383 . S
C2838 C2837 1.379 . S
H2839 C2833 0.959 . S
H2840 C2833 0.961 . S
H2841 C2833 0.960 . S
H2842 C2834 0.930 . S
H2843 C2835 0.929 . S
H2844 C2852 0.929 . S
H2845 C2854 0.930 . S
H2846 C2856 0.930 . S
H2847 C2859 0.929 . S
H2848 C2862 0.930 . S
H2849 C2864 0.960 . S
H2850 C2864 0.960 . S
H2851 C2864 0.960 . S
C2852 H2844 0.929 . S
C2852 C2853 1.377 . S
C2852 C2854 1.384 . S
C2853 C2852 1.377 . S
C2853 C2859 1.390 . S
C2854 H2845 0.930 . S
C2854 C2852 1.384 . S
C2854 C2855 1.372 . S
C2855 C2854 1.372 . S
C2855 C2856 1.400 . S
C2855 C2860 1.490 . S
C2856 H2846 0.930 . S
C2856 C2855 1.400 . S
C2856 C2859 1.386 . S
H2857 C2873 0.930 . S
H2858 C2874 0.931 . S
C2859 H2847 0.929 . S
C2859 C2853 1.390 . S
C2859 C2856 1.386 . S
C2860 C2855 1.490 . S
C2860 C2862 1.395 . S
C2860 C2863 1.403 . S
H2861 C2867 0.930 . S
C2862 H2848 0.930 . S
C2862 C2860 1.395 . S
C2862 C2865 1.403 . S
C2863 C2860 1.403 . S
C2863 C2864 1.524 . S
C2863 C2867 1.400 . S
C2864 H2849 0.960 . S
C2864 H2850 0.960 . S
C2864 H2851 0.960 . S
C2864 C2863 1.524 . S
C2865 C2862 1.403 . S
C2865 C2866 1.392 . S
C2865 C2869 1.495 . S
C2866 C2865 1.392 . S
C2866 C2867 1.385 . S
C2866 C2868 1.478 . S
C2867 H2861 0.930 . S
C2867 C2863 1.400 . S
C2867 C2866 1.385 . S
C2868 C2866 1.478 . S
C2868 C2870 1.381 . S
C2868 C2874 1.383 . S
C2869 C2865 1.495 . S
C2869 H2875 0.959 . S
C2869 H2876 0.961 . S
C2869 H2877 0.960 . S
C2870 C2868 1.381 . S
C2870 C2871 1.394 . S
C2870 H2878 0.930 . S
C2871 C2870 1.394 . S
C2871 C2872 1.383 . S
C2871 H2879 0.929 . S
C2872 C2871 1.383 . S
C2872 C2873 1.377 . S
C2873 H2857 0.930 . S
C2873 C2872 1.377 . S
C2873 C2874 1.379 . S
C2874 H2858 0.931 . S
C2874 C2868 1.383 . S
C2874 C2873 1.379 . S
H2875 C2869 0.959 . S
H2876 C2869 0.961 . S
H2877 C2869 0.960 . S
H2878 C2870 0.930 . S
H2879 C2871 0.929 . S
H2880 C2888 0.929 . S
H2881 C2890 0.930 . S
H2882 C2892 0.930 . S
H2883 C2895 0.929 . S
H2884 C2898 0.930 . S
H2885 C2900 0.960 . S
H2886 C2900 0.960 . S
H2887 C2900 0.960 . S
C2888 H2880 0.929 . S
C2888 C2889 1.377 . S
C2888 C2890 1.384 . S
C2889 C2888 1.377 . S
C2889 C2895 1.390 . S
C2890 H2881 0.930 . S
C2890 C2888 1.384 . S
C2890 C2891 1.372 . S
C2891 C2890 1.372 . S
C2891 C2892 1.400 . S
C2891 C2896 1.490 . S
C2892 H2882 0.930 . S
C2892 C2891 1.400 . S
C2892 C2895 1.386 . S
H2893 C2909 0.930 . S
H2894 C2910 0.931 . S
C2895 H2883 0.929 . S
C2895 C2889 1.390 . S
C2895 C2892 1.386 . S
C2896 C2891 1.490 . S
C2896 C2898 1.395 . S
C2896 C2899 1.403 . S
H2897 C2903 0.930 . S
C2898 H2884 0.930 . S
C2898 C2896 1.395 . S
C2898 C2901 1.403 1_455 S
C2899 C2896 1.403 . S
C2899 C2900 1.524 . S
C2899 C2903 1.400 1_455 S
C2900 H2885 0.960 . S
C2900 H2886 0.960 . S
C2900 H2887 0.960 . S
C2900 C2899 1.524 . S
C2901 C2898 1.403 1_655 S
C2901 C2902 1.392 . S
C2901 C2905 1.495 . S
C2902 C2901 1.392 . S
C2902 C2903 1.385 . S
C2902 C2904 1.478 . S
C2903 H2897 0.930 . S
C2903 C2899 1.400 1_655 S
C2903 C2902 1.385 . S
C2904 C2902 1.478 . S
C2904 C2906 1.381 . S
C2904 C2910 1.383 . S
C2905 C2901 1.495 . S
C2905 H2911 0.959 . S
C2905 H2912 0.961 . S
C2905 H2913 0.960 . S
C2906 C2904 1.381 . S
C2906 C2907 1.394 . S
C2906 H2914 0.930 . S
C2907 C2906 1.394 . S
C2907 C2908 1.383 . S
C2907 H2915 0.929 . S
C2908 C2907 1.383 . S
C2908 C2909 1.377 . S
C2909 H2893 0.930 . S
C2909 C2908 1.377 . S
C2909 C2910 1.379 . S
C2910 H2894 0.931 . S
C2910 C2904 1.383 . S
C2910 C2909 1.379 . S
H2911 C2905 0.959 . S
H2912 C2905 0.961 . S
H2913 C2905 0.960 . S
H2914 C2906 0.930 . S
H2915 C2907 0.929 . S
H2916 C2924 0.929 . S
H2917 C2926 0.930 . S
H2918 C2928 0.930 . S
H2919 C2931 0.929 . S
H2920 C2934 0.930 . S
H2921 C2936 0.960 . S
H2922 C2936 0.960 . S
H2923 C2936 0.960 . S
C2924 H2916 0.929 . S
C2924 C2925 1.377 . S
C2924 C2926 1.384 . S
C2925 C2924 1.377 . S
C2925 C2931 1.390 . S
C2926 H2917 0.930 . S
C2926 C2924 1.384 . S
C2926 C2927 1.372 . S
C2927 C2926 1.372 . S
C2927 C2928 1.400 . S
C2927 C2932 1.490 . S
C2928 H2918 0.930 . S
C2928 C2927 1.400 . S
C2928 C2931 1.386 . S
H2929 C2945 0.930 . S
H2930 C2946 0.931 . S
C2931 H2919 0.929 . S
C2931 C2925 1.390 . S
C2931 C2928 1.386 . S
C2932 C2927 1.490 . S
C2932 C2934 1.395 . S
C2932 C2935 1.403 . S
H2933 C2939 0.930 . S
C2934 H2920 0.930 . S
C2934 C2932 1.395 . S
C2934 C2937 1.403 . S
C2935 C2932 1.403 . S
C2935 C2936 1.524 . S
C2935 C2939 1.400 . S
C2936 H2921 0.960 . S
C2936 H2922 0.960 . S
C2936 H2923 0.960 . S
C2936 C2935 1.524 . S
C2937 C2934 1.403 . S
C2937 C2938 1.392 . S
C2937 C2941 1.495 . S
C2938 C2937 1.392 . S
C2938 C2939 1.385 . S
C2938 C2940 1.478 . S
C2939 H2933 0.930 . S
C2939 C2935 1.400 . S
C2939 C2938 1.385 . S
C2940 C2938 1.478 . S
C2940 C2942 1.381 . S
C2940 C2946 1.383 . S
C2941 C2937 1.495 . S
C2941 H2947 0.959 . S
C2941 H2948 0.961 . S
C2941 H2949 0.960 . S
C2942 C2940 1.381 . S
C2942 C2943 1.394 . S
C2942 H2950 0.930 . S
C2943 C2942 1.394 . S
C2943 C2944 1.383 . S
C2943 H2951 0.929 . S
C2944 C2943 1.383 . S
C2944 C2945 1.377 . S
C2945 H2929 0.930 . S
C2945 C2944 1.377 . S
C2945 C2946 1.379 . S
C2946 H2930 0.931 . S
C2946 C2940 1.383 . S
C2946 C2945 1.379 . S
H2947 C2941 0.959 . S
H2948 C2941 0.961 . S
H2949 C2941 0.960 . S
H2950 C2942 0.930 . S
H2951 C2943 0.929 . S
H2952 C2960 0.929 . S
H2953 C2962 0.930 . S
H2954 C2964 0.930 . S
H2955 C2967 0.929 . S
H2956 C2970 0.930 . S
H2957 C2972 0.960 . S
H2958 C2972 0.960 . S
H2959 C2972 0.960 . S
C2960 H2952 0.929 . S
C2960 C2961 1.377 . S
C2960 C2962 1.384 . S
C2961 C2960 1.377 . S
C2961 C2967 1.390 . S
C2962 H2953 0.930 . S
C2962 C2960 1.384 . S
C2962 C2963 1.372 . S
C2963 C2962 1.372 . S
C2963 C2964 1.400 . S
C2963 C2968 1.490 . S
C2964 H2954 0.930 . S
C2964 C2963 1.400 . S
C2964 C2967 1.386 . S
H2965 C2981 0.930 . S
H2966 C2982 0.931 . S
C2967 H2955 0.929 . S
C2967 C2961 1.390 . S
C2967 C2964 1.386 . S
C2968 C2963 1.490 . S
C2968 C2970 1.395 . S
C2968 C2971 1.403 . S
H2969 C2975 0.930 . S
C2970 H2956 0.930 . S
C2970 C2968 1.395 . S
C2970 C2973 1.403 1_565 S
C2971 C2968 1.403 . S
C2971 C2972 1.524 . S
C2971 C2975 1.400 1_565 S
C2972 H2957 0.960 . S
C2972 H2958 0.960 . S
C2972 H2959 0.960 . S
C2972 C2971 1.524 . S
C2973 C2970 1.403 1_545 S
C2973 C2974 1.392 . S
C2973 C2977 1.495 . S
C2974 C2973 1.392 . S
C2974 C2975 1.385 . S
C2974 C2976 1.478 . S
C2975 H2969 0.930 . S
C2975 C2971 1.400 1_545 S
C2975 C2974 1.385 . S
C2976 C2974 1.478 . S
C2976 C2978 1.381 . S
C2976 C2982 1.383 . S
C2977 C2973 1.495 . S
C2977 H2983 0.959 . S
C2977 H2984 0.961 . S
C2977 H2985 0.960 . S
C2978 C2976 1.381 . S
C2978 C2979 1.394 . S
C2978 H2986 0.930 . S
C2979 C2978 1.394 . S
C2979 C2980 1.383 . S
C2979 H2987 0.929 . S
C2980 C2979 1.383 . S
C2980 C2981 1.377 . S
C2981 H2965 0.930 . S
C2981 C2980 1.377 . S
C2981 C2982 1.379 . S
C2982 H2966 0.931 . S
C2982 C2976 1.383 . S
C2982 C2981 1.379 . S
H2983 C2977 0.959 . S
H2984 C2977 0.961 . S
H2985 C2977 0.960 . S
H2986 C2978 0.930 . S
H2987 C2979 0.929 . S
H2988 C2996 0.929 . S
H2989 C2998 0.930 . S
H2990 C3000 0.930 . S
H2991 C3003 0.929 . S
H2992 C3006 0.930 . S
H2993 C3008 0.960 1_565 S
H2994 C3008 0.960 . S
H2995 C3008 0.960 . S
C2996 H2988 0.929 . S
C2996 C2997 1.377 . S
C2996 C2998 1.384 . S
C2997 C2996 1.377 . S
C2997 C3003 1.390 . S
C2998 H2989 0.930 . S
C2998 C2996 1.384 . S
C2998 C2999 1.372 . S
C2999 C2998 1.372 . S
C2999 C3000 1.400 . S
C2999 C3004 1.490 . S
C3000 H2990 0.930 . S
C3000 C2999 1.400 . S
C3000 C3003 1.386 . S
H3001 C3017 0.930 . S
H3002 C3018 0.931 . S
C3003 H2991 0.929 . S
C3003 C2997 1.390 . S
C3003 C3000 1.386 . S
C3004 C2999 1.490 . S
C3004 C3006 1.395 . S
C3004 C3007 1.403 . S
H3005 C3011 0.930 . S
C3006 H2992 0.930 . S
C3006 C3004 1.395 . S
C3006 C3009 1.403 1_545 S
C3007 C3004 1.403 . S
C3007 C3008 1.524 . S
C3007 C3011 1.400 1_545 S
C3008 H2993 0.960 1_545 S
C3008 H2994 0.960 . S
C3008 H2995 0.960 . S
C3008 C3007 1.524 . S
C3009 C3006 1.403 1_565 S
C3009 C3010 1.392 . S
C3009 C3013 1.495 . S
C3010 C3009 1.392 . S
C3010 C3011 1.385 . S
C3010 C3012 1.478 . S
C3011 H3005 0.930 . S
C3011 C3007 1.400 1_565 S
C3011 C3010 1.385 . S
C3012 C3010 1.478 . S
C3012 C3014 1.381 . S
C3012 C3018 1.383 . S
C3013 C3009 1.495 . S
C3013 H3019 0.959 1_565 S
C3013 H3020 0.961 . S
C3013 H3021 0.960 . S
C3014 C3012 1.381 . S
C3014 C3015 1.394 . S
C3014 H3022 0.930 . S
C3015 C3014 1.394 . S
C3015 C3016 1.383 . S
C3015 H3023 0.929 . S
C3016 C3015 1.383 . S
C3016 C3017 1.377 . S
C3017 H3001 0.930 . S
C3017 C3016 1.377 . S
C3017 C3018 1.379 . S
C3018 H3002 0.931 . S
C3018 C3012 1.383 . S
C3018 C3017 1.379 . S
H3019 C3013 0.959 1_545 S
H3020 C3013 0.961 . S
H3021 C3013 0.960 . S
H3022 C3014 0.930 . S
H3023 C3015 0.929 . S
H3024 C3032 0.929 . S
H3025 C3034 0.930 . S
H3026 C3036 0.930 . S
H3027 C3039 0.929 . S
H3028 C3042 0.930 . S
H3029 C3044 0.960 1_655 S
H3030 C3044 0.960 . S
H3031 C3044 0.960 . S
C3032 H3024 0.929 . S
C3032 C3033 1.377 . S
C3032 C3034 1.384 . S
C3033 C3032 1.377 . S
C3033 C3039 1.390 . S
C3034 H3025 0.930 . S
C3034 C3032 1.384 . S
C3034 C3035 1.372 . S
C3035 C3034 1.372 . S
C3035 C3036 1.400 . S
C3035 C3040 1.490 . S
C3036 H3026 0.930 . S
C3036 C3035 1.400 . S
C3036 C3039 1.386 . S
H3037 C3053 0.930 . S
H3038 C3054 0.931 . S
C3039 H3027 0.929 . S
C3039 C3033 1.390 . S
C3039 C3036 1.386 . S
C3040 C3035 1.490 . S
C3040 C3042 1.395 . S
C3040 C3043 1.403 . S
H3041 C3047 0.930 . S
C3042 H3028 0.930 . S
C3042 C3040 1.395 . S
C3042 C3045 1.403 1_455 S
C3043 C3040 1.403 . S
C3043 C3044 1.524 . S
C3043 C3047 1.400 1_455 S
C3044 H3029 0.960 1_455 S
C3044 H3030 0.960 . S
C3044 H3031 0.960 . S
C3044 C3043 1.524 . S
C3045 C3042 1.403 1_655 S
C3045 C3046 1.392 . S
C3045 C3049 1.495 . S
C3046 C3045 1.392 . S
C3046 C3047 1.385 . S
C3046 C3048 1.478 . S
C3047 H3041 0.930 . S
C3047 C3043 1.400 1_655 S
C3047 C3046 1.385 . S
C3048 C3046 1.478 . S
C3048 C3050 1.381 . S
C3048 C3054 1.383 . S
C3049 C3045 1.495 . S
C3049 H3055 0.924 1_655 S
C3049 H3056 0.961 . S
C3049 H3057 0.960 . S
C3050 C3048 1.381 . S
C3050 C3051 1.394 . S
C3050 H3058 0.930 . S
C3051 C3050 1.394 . S
C3051 C3052 1.383 . S
C3051 H3059 0.929 . S
C3052 C3051 1.383 . S
C3052 C3053 1.377 . S
C3053 H3037 0.930 . S
C3053 C3052 1.377 . S
C3053 C3054 1.379 . S
C3054 H3038 0.931 . S
C3054 C3048 1.383 . S
C3054 C3053 1.379 . S
H3055 C3049 0.924 1_455 S
H3056 C3049 0.961 . S
H3057 C3049 0.960 . S
H3058 C3050 0.930 . S
H3059 C3051 0.929 . S
H3060 C3068 0.929 . S
H3061 C3070 0.930 . S
H3062 C3072 0.930 . S
H3063 C3075 0.929 . S
H3064 C3078 0.930 . S
H3065 C3080 0.960 . S
H3066 C3080 0.960 . S
H3067 C3080 0.960 . S
C3068 H3060 0.929 . S
C3068 C3069 1.377 . S
C3068 C3070 1.384 . S
C3069 C3068 1.377 . S
C3069 C3075 1.390 . S
C3070 H3061 0.930 . S
C3070 C3068 1.384 . S
C3070 C3071 1.372 . S
C3071 C3070 1.372 . S
C3071 C3072 1.400 . S
C3071 C3076 1.490 . S
C3072 H3062 0.930 . S
C3072 C3071 1.400 . S
C3072 C3075 1.386 . S
H3073 C3089 0.930 . S
H3074 C3090 0.931 . S
C3075 H3063 0.929 . S
C3075 C3069 1.390 . S
C3075 C3072 1.386 . S
C3076 C3071 1.490 . S
C3076 C3078 1.395 . S
C3076 C3079 1.403 . S
H3077 C3083 0.930 . S
C3078 H3064 0.930 . S
C3078 C3076 1.395 . S
C3078 C3081 1.403 . S
C3079 C3076 1.403 . S
C3079 C3080 1.524 . S
C3079 C3083 1.400 . S
C3080 H3065 0.960 . S
C3080 H3066 0.960 . S
C3080 H3067 0.960 . S
C3080 C3079 1.524 . S
C3081 C3078 1.403 . S
C3081 C3082 1.392 . S
C3081 C3085 1.495 . S
C3082 C3081 1.392 . S
C3082 C3083 1.385 . S
C3082 C3084 1.478 . S
C3083 H3077 0.930 . S
C3083 C3079 1.400 . S
C3083 C3082 1.385 . S
C3084 C3082 1.478 . S
C3084 C3086 1.381 . S
C3084 C3090 1.383 . S
C3085 C3081 1.495 . S
C3085 H3091 0.959 . S
C3085 H3092 0.961 . S
C3085 H3093 0.960 . S
C3086 C3084 1.381 . S
C3086 C3087 1.394 . S
C3086 H3094 0.930 . S
C3087 C3086 1.394 . S
C3087 C3088 1.383 . S
C3087 H3095 0.929 . S
C3088 C3087 1.383 . S
C3088 C3089 1.377 . S
C3089 H3073 0.930 . S
C3089 C3088 1.377 . S
C3089 C3090 1.379 . S
C3090 H3074 0.931 . S
C3090 C3084 1.383 . S
C3090 C3089 1.379 . S
H3091 C3085 0.959 . S
H3092 C3085 0.961 . S
H3093 C3085 0.960 . S
H3094 C3086 0.930 . S
H3095 C3087 0.929 . S
C513 C53 1.144 . S
C532 C11 1.159 . S
C549 C67 1.144 . S
C568 C25 1.158 . S
C585 C81 1.149 . S
C604 C39 1.136 . S
C621 C95 1.145 . S
C640 C137 1.152 . S
C657 C109 1.149 . S
C676 C151 1.154 . S
C693 C165 1.145 . S
C712 C123 1.131 . S
C729 C179 1.149 . S
C748 C221 1.144 . S
C765 C193 1.147 . S
C784 C235 1.137 . S
C801 C207 1.147 . S
C820 C249 1.133 . S
C837 C263 1.148 . S
C856 C305 1.159 . S
C873 C319 1.149 . S
C892 C277 1.143 . S
C909 C291 1.148 . S
C928 C333 1.136 . S
C945 C347 1.145 . S
C964 C389 1.159 . S
C981 C361 1.149 . S
C1000 C403 1.139 . S
C1017 C417 1.146 . S
C1036 C375 1.150 . S
C1053 C473 1.150 . S
C1072 C431 1.143 . S
C1089 C487 1.149 . S
C1108 C445 1.141 . S
C1125 C501 1.146 . S
C1144 C459 1.130 . S
C1161 C167 1.134 . S
C1180 C8 1.161 . S
C1197 C22 1.188 . S
C1216 C139 1.118 . S
C1233 C36 1.191 . S
C1252 C153 1.147 . S
C1269 C111 1.146 . S
C1288 C50 1.202 . S
C1305 C64 1.191 . S
C1324 C125 1.180 . S
C1341 C97 1.129 . S
C1360 C78 1.166 . S
C1377 C92 1.184 . S
C1396 C83 1.174 . S
C1413 C106 1.188 . S
C1432 C55 1.105 . S
C1449 C69 1.131 . S
C1468 C120 1.216 . S
C1485 C27 1.129 . S
C1504 C134 1.218 . S
C1521 C41 1.137 . S
C1540 C148 1.167 . S
C1557 C162 1.193 . S
C1576 C13 1.087 . S
C1593 C176 1.194 . S
C1612 C335 1.182 . S
C1629 C307 1.127 . S
C1648 C190 1.155 . S
C1665 C321 1.138 . S
C1684 C204 1.201 . S
C1701 C218 1.194 . S
C1720 C279 1.175 . S
C1737 C293 1.133 . S
C1756 C232 1.157 . S
C1773 C246 1.193 . S
C1792 C265 1.160 . S
C1809 C260 1.188 . S
C1828 C251 1.105 . S
C1845 C274 1.194 . S
C1864 C223 1.090 . S
C1881 C237 1.147 . S
C1900 C288 1.153 . S
C1917 C195 1.146 . S
C1936 C302 1.168 . S
C1953 C209 1.141 . S
C1972 C316 1.190 . S
C1989 C330 1.182 . S
C2008 C181 1.146 . S
C2025 C503 1.139 . S
C2044 C344 1.175 . S
C2061 C358 1.183 . S
C2080 C475 1.092 . S
C2097 C372 1.193 . S
C2116 C489 1.182 . S
C2133 C386 1.184 . S
C2152 C447 1.101 . S
C2169 C461 1.141 . S
C2188 C400 1.180 . S
C2205 C414 1.184 . S
C2224 C433 1.099 . S
C2241 C419 1.144 . S
C2260 C428 1.179 . S
C2277 C391 1.145 . S
C2296 C442 1.151 . S
C2313 C405 1.141 . S
C2332 C456 1.188 . S
C2349 C363 1.147 . S
C2368 C470 1.158 . S
C2385 C377 1.138 . S
C2404 C484 1.200 . S
C2421 C349 1.147 . S
C2440 C498 1.150 . S
C2457 C413 1.382 . S
C2476 C7 1.362 . S
C2493 C21 1.375 . S
C2512 C385 1.375 . S
C2529 C399 1.382 . S
C2548 C35 1.357 . S
C2565 C49 1.376 . S
C2584 C189 1.366 . S
C2601 C203 1.374 . S
C2620 C63 1.386 . S
C2637 C77 1.382 . S
C2656 C175 1.376 . S
C2673 C91 1.382 . S
C2692 C329 1.370 . S
C2709 C301 1.382 . S
C2728 C105 1.358 . S
C2745 C119 1.381 . S
C2764 C315 1.356 . S
C2781 C133 1.375 . S
C2800 C441 1.394 . S
C2817 C147 1.382 . S
C2836 C455 1.377 . S
C2853 C427 1.374 . S
C2872 C161 1.390 . S
C2889 C357 1.375 . S
C2908 C217 1.373 . S
C2925 C371 1.378 . S
C2944 C231 1.391 . S
C2961 C343 1.376 . S
C2980 C245 1.395 . S
C2997 C259 1.374 . S
C3016 C497 1.374 . S
C3033 C469 1.377 . S
C3052 C273 1.359 . S
C3069 C287 1.380 . S
C3088 C483 1.354 . S
