# Generated by pormake.
# Topology sra, (4)-cn, num edge types: 1
# Building blocks:
#     Node 0, Type 0, BuildingBlock: QUQFOY_clean_sbu_1, # of connection points: 4
#     Node 1, Type 0, BuildingBlock: QUQFOY_clean_sbu_1, # of connection points: 4
#     Node 2, Type 0, BuildingBlock: QUQFOY_clean_sbu_1, # of connection points: 4
#     Node 3, Type 0, BuildingBlock: QUQFOY_clean_sbu_1, # of connection points: 4
#     Node 4, Type 0, BuildingBlock: QUQFOY_clean_sbu_1, # of connection points: 4
#     Node 5, Type 0, BuildingBlock: QUQFOY_clean_sbu_1, # of connection points: 4
#     Node 6, Type 0, BuildingBlock: QUQFOY_clean_sbu_1, # of connection points: 4
#     Node 7, Type 0, BuildingBlock: QUQFOY_clean_sbu_1, # of connection points: 4
#     Edge 8, Type (0, 0), BuildingBlock: KIFKEQ_clean_linker_1, # of connection points: 2
#     Edge 9, Type (0, 0), BuildingBlock: KIFKEQ_clean_linker_1, # of connection points: 2
#     Edge 10, Type (0, 0), BuildingBlock: KIFKEQ_clean_linker_1, # of connection points: 2
#     Edge 11, Type (0, 0), BuildingBlock: KIFKEQ_clean_linker_1, # of connection points: 2
#     Edge 12, Type (0, 0), BuildingBlock: KIFKEQ_clean_linker_1, # of connection points: 2
#     Edge 13, Type (0, 0), BuildingBlock: KIFKEQ_clean_linker_1, # of connection points: 2
#     Edge 14, Type (0, 0), BuildingBlock: KIFKEQ_clean_linker_1, # of connection points: 2
#     Edge 15, Type (0, 0), BuildingBlock: KIFKEQ_clean_linker_1, # of connection points: 2
#     Edge 16, Type (0, 0), BuildingBlock: KIFKEQ_clean_linker_1, # of connection points: 2
#     Edge 17, Type (0, 0), BuildingBlock: KIFKEQ_clean_linker_1, # of connection points: 2
#     Edge 18, Type (0, 0), BuildingBlock: KIFKEQ_clean_linker_1, # of connection points: 2
#     Edge 19, Type (0, 0), BuildingBlock: KIFKEQ_clean_linker_1, # of connection points: 2
#     Edge 20, Type (0, 0), BuildingBlock: KIFKEQ_clean_linker_1, # of connection points: 2
#     Edge 21, Type (0, 0), BuildingBlock: KIFKEQ_clean_linker_1, # of connection points: 2
#     Edge 22, Type (0, 0), BuildingBlock: KIFKEQ_clean_linker_1, # of connection points: 2
#     Edge 23, Type (0, 0), BuildingBlock: KIFKEQ_clean_linker_1, # of connection points: 2
# Relax obj value: 0.042
# Max RMSD: 0.079
# Mean RMSD: 0.079
data_MOF--net-sra--node1-QUQFOY_clean_sbu_1--edge1-KIFKEQ_clean_linker_1
_symmetry_space_group_name_H-M    P1
_symmetry_Int_Tables_number       1
_symmetry_cell_setting            triclinic
loop_
_symmetry_equiv_pos_as_xyz
'x, y, z'
_cell_length_a     28.732298
_cell_length_b     54.200379
_cell_length_c     34.289862
_cell_angle_alpha  89.971861
_cell_angle_beta   90.010546
_cell_angle_gamma 90.279466
loop_
_atom_site_label
_atom_site_type_symbol
_atom_site_fract_x
_atom_site_fract_y
_atom_site_fract_z
_atom_type_partial_charge
O0 O 0.96983 0.10815 0.15875 0.0
Cd1 Cd 0.02973 0.11537 0.1277 0.0
Cd2 Cd 0.06655 0.11827 0.19879 0.0
O3 O 1.00333 0.10305 0.21606 0.0
O4 O 0.02258 0.10021 0.07498 0.0
O5 O 0.07295 0.08704 0.11916 0.0
C6 C 0.05391 0.08449 0.08527 0.0
C7 C 0.13878 0.10318 0.21922 0.0
C8 C 0.9671 0.10244 0.19465 0.0
C9 C 0.06031 0.16523 0.15132 0.0
O10 O 0.06662 0.1553 0.18451 0.0
O11 O 0.04868 0.15203 0.12224 0.0
O12 O 0.11213 0.11521 0.24269 0.0
O13 O 0.12327 0.0986 0.18462 0.0
O14 O 0.13325 0.41212 0.16742 0.0
Cd15 Cd 0.07707 0.40226 0.13331 0.0
Cd16 Cd 0.03705 0.39677 0.20308 0.0
O17 O 0.0985 0.41127 0.22474 0.0
O18 O 0.0918 0.41666 0.08137 0.0
O19 O 0.03229 0.42885 0.11738 0.0
C20 C 0.05745 0.43156 0.08643 0.0
C21 C 0.96428 0.41166 0.22173 0.0
C22 C 0.13452 0.41528 0.20412 0.0
C23 C 0.04943 0.351 0.15397 0.0
O24 O 0.03829 0.36025 0.1867 0.0
O25 O 0.06398 0.36485 0.12655 0.0
O26 O 0.98939 0.39872 0.24519 0.0
O27 O 0.98149 0.41709 0.18797 0.0
O28 O 0.96608 0.90801 0.85011 0.0
Cd29 Cd 0.02646 0.90098 0.88037 0.0
Cd30 Cd 0.06217 0.89849 0.80883 0.0
O31 O 0.99872 0.91361 0.79252 0.0
O32 O 0.02044 0.916 0.93329 0.0
O33 O 0.06999 0.92944 0.88849 0.0
C34 C 0.05166 0.93185 0.92265 0.0
C35 C 0.13437 0.91386 0.78811 0.0
C36 C 0.96281 0.91389 0.81432 0.0
C37 C 0.05627 0.85132 0.85583 0.0
O38 O 0.06214 0.86138 0.82267 0.0
O39 O 0.04525 0.86437 0.88518 0.0
O40 O 0.10732 0.90195 0.76461 0.0
O41 O 0.11925 0.91819 0.82288 0.0
O42 O 0.13804 0.60798 0.84653 0.0
Cd43 Cd 0.07882 0.6153 0.87819 0.0
Cd44 Cd 0.04221 0.61828 0.8074 0.0
O45 O 0.10481 0.60319 0.7891 0.0
O46 O 0.09106 0.60102 0.93066 0.0
O47 O 0.03568 0.5872 0.89133 0.0
C48 C 0.05857 0.58512 0.92359 0.0
C49 C 0.96958 0.60295 0.78801 0.0
C50 C 0.14091 0.60248 0.8106 0.0
C51 C 0.04992 0.66525 0.85485 0.0
O52 O 0.04292 0.65534 0.82173 0.0
O53 O 0.06151 0.65203 0.88388 0.0
O54 O 0.99586 0.6151 0.7642 0.0
O55 O 0.98565 0.59842 0.82245 0.0
O56 O 0.4641 0.60803 0.65591 0.0
Cd57 Cd 0.52503 0.61503 0.62628 0.0
Cd58 Cd 0.55972 0.61766 0.69821 0.0
O59 O 0.49585 0.60241 0.71381 0.0
O60 O 0.5195 0.59987 0.5734 0.0
O61 O 0.56812 0.58654 0.6188 0.0
C62 C 0.5502 0.58402 0.58449 0.0
C63 C 0.63143 0.60229 0.71947 0.0
C64 C 0.46025 0.60211 0.69165 0.0
C65 C 0.55502 0.66479 0.65103 0.0
O66 O 0.5603 0.65476 0.68428 0.0
O67 O 0.54435 0.65167 0.62158 0.0
O68 O 0.60439 0.6142 0.74277 0.0
O69 O 0.61657 0.59798 0.68459 0.0
O70 O 0.64086 0.90789 0.65811 0.0
Cd71 Cd 0.58057 0.90077 0.62762 0.0
Cd72 Cd 0.54459 0.89788 0.69903 0.0
O73 O 0.60812 0.91306 0.71569 0.0
O74 O 0.58739 0.91578 0.57472 0.0
O75 O 0.53749 0.92917 0.61906 0.0
C76 C 0.55627 0.9316 0.58505 0.0
C77 C 0.47254 0.91322 0.71944 0.0
C78 C 0.64408 0.91359 0.69397 0.0
C79 C 0.55035 0.85088 0.65175 0.0
O80 O 0.54429 0.86081 0.68496 0.0
O81 O 0.56164 0.86409 0.62255 0.0
O82 O 0.49918 0.90124 0.74301 0.0
O83 O 0.48797 0.9176 0.68474 0.0
O84 O 0.45998 0.40973 0.35124 0.0
Cd85 Cd 0.52069 0.40089 0.38039 0.0
Cd86 Cd 0.55316 0.39809 0.3078 0.0
O87 O 0.49099 0.4144 0.29279 0.0
O88 O 0.5163 0.41531 0.43392 0.0
O89 O 0.56567 0.42866 0.38897 0.0
C90 C 0.54791 0.43095 0.42334 0.0
C91 C 0.62587 0.41282 0.28766 0.0
C92 C 0.45604 0.41564 0.31548 0.0
C93 C 0.54533 0.35078 0.35335 0.0
O94 O 0.54953 0.36101 0.32017 0.0
O95 O 0.53818 0.36378 0.38363 0.0
O96 O 0.59838 0.40159 0.26368 0.0
O97 O 0.61108 0.41664 0.32267 0.0
O98 O 0.64455 0.10814 0.34989 0.0
Cd99 Cd 0.58306 0.11495 0.37914 0.0
Cd100 Cd 0.55064 0.11685 0.30711 0.0
O101 O 0.61295 0.10016 0.29263 0.0
O102 O 0.5883 0.10032 0.43248 0.0
O103 O 0.54044 0.08608 0.38705 0.0
C104 C 0.55797 0.08407 0.42157 0.0
C105 C 0.47748 0.10239 0.28726 0.0
C106 C 0.64853 0.10092 0.31475 0.0
C107 C 0.55638 0.1644 0.35229 0.0
O108 O 0.55424 0.15412 0.31901 0.0
O109 O 0.56243 0.15145 0.38279 0.0
O110 O 0.50527 0.11322 0.26305 0.0
O111 O 0.49226 0.09871 0.32232 0.0
H112 H 1.01609 0.3171 0.20563 0.0
H113 H 0.08017 0.32319 0.09194 0.0
H114 H 0.02052 0.27248 0.20174 0.0
H115 H 0.08495 0.27811 0.08831 0.0
H116 H 0.03915 0.19414 0.08779 0.0
H117 H 0.03592 0.23927 0.08531 0.0
H118 H 0.08508 0.24282 0.20418 0.0
H119 H 0.08789 0.19809 0.20693 0.0
C120 C 0.03097 0.30894 0.17967 0.0
C121 C 0.04819 0.3238 0.14925 0.0
C122 C 0.03376 0.28332 0.17757 0.0
C123 C 0.05383 0.27179 0.14503 0.0
C124 C 0.06933 0.2865 0.11378 0.0
C125 C 0.06663 0.31229 0.1159 0.0
C126 C 0.04975 0.20459 0.11323 0.0
C127 C 0.06328 0.19247 0.14771 0.0
C128 C 0.04796 0.23042 0.11175 0.0
C129 C 0.0595 0.24456 0.14476 0.0
C130 C 0.07495 0.23243 0.17855 0.0
C131 C 0.07682 0.20674 0.18002 0.0
H132 H 0.03297 0.82209 0.91849 0.0
H133 H 0.08571 0.81882 0.80056 0.0
H134 H 0.03008 0.777 0.92069 0.0
H135 H 0.08358 0.77405 0.80308 0.0
H136 H 0.02008 0.69812 0.80022 0.0
H137 H 0.02265 0.74287 0.80321 0.0
H138 H 0.07806 0.73919 0.92017 0.0
H139 H 0.07475 0.69411 0.91749 0.0
C140 C 0.04453 0.81179 0.89326 0.0
C141 C 0.05915 0.82409 0.85921 0.0
C142 C 0.04293 0.78596 0.89456 0.0
C143 C 0.05589 0.77195 0.86184 0.0
C144 C 0.07226 0.78429 0.82846 0.0
C145 C 0.0738 0.81 0.82713 0.0
C146 C 0.03253 0.70677 0.82674 0.0
C147 C 0.04755 0.69248 0.85851 0.0
C148 C 0.03432 0.73247 0.82834 0.0
C149 C 0.05131 0.7446 0.86168 0.0
C150 C 0.06473 0.73039 0.89408 0.0
C151 C 0.06289 0.70457 0.89251 0.0
H152 H 0.53213 0.69392 0.5883 0.0
H153 H 0.58436 0.69742 0.7064 0.0
H154 H 0.52937 0.73899 0.5861 0.0
H155 H 0.58243 0.74218 0.70387 0.0
H156 H 0.5202 0.81803 0.70653 0.0
H157 H 0.52221 0.77328 0.70366 0.0
H158 H 0.57714 0.77693 0.58654 0.0
H159 H 0.57432 0.82199 0.58908 0.0
C160 C 0.54362 0.70427 0.61357 0.0
C161 C 0.55806 0.69203 0.64766 0.0
C162 C 0.5421 0.7301 0.61227 0.0
C163 C 0.55498 0.74417 0.64503 0.0
C164 C 0.57116 0.73189 0.67846 0.0
C165 C 0.5726 0.70619 0.6798 0.0
C166 C 0.5324 0.80937 0.68 0.0
C167 C 0.54744 0.82365 0.64814 0.0
C168 C 0.53388 0.78366 0.67847 0.0
C169 C 0.5506 0.77152 0.64512 0.0
C170 C 0.564 0.78572 0.61263 0.0
C171 C 0.56244 0.81154 0.61413 0.0
H172 H 0.5674 0.32142 0.41618 0.0
H173 H 0.52402 0.31861 0.29571 0.0
H174 H 0.57064 0.27626 0.41775 0.0
H175 H 0.52447 0.27401 0.29771 0.0
H176 H 0.57709 0.19702 0.29494 0.0
H177 H 0.57596 0.2416 0.29756 0.0
H178 H 0.52879 0.23843 0.41726 0.0
H179 H 0.53268 0.19333 0.41509 0.0
C180 C 0.5582 0.31113 0.3902 0.0
C181 C 0.54619 0.32353 0.35566 0.0
C182 C 0.55971 0.28526 0.39112 0.0
C183 C 0.54845 0.27132 0.35768 0.0
C184 C 0.53492 0.28394 0.32369 0.0
C185 C 0.53436 0.30962 0.32257 0.0
C186 C 0.56633 0.20579 0.32183 0.0
C187 C 0.5545 0.19164 0.35468 0.0
C188 C 0.56539 0.23147 0.32331 0.0
C189 C 0.55148 0.24383 0.35743 0.0
C190 C 0.54003 0.22964 0.39056 0.0
C191 C 0.5419 0.20379 0.38928 0.0
H192 H 0.43578 0.10915 0.21642 0.0
H193 H 0.40888 0.0824 0.333 0.0
H194 H 0.35357 0.10465 0.2006 0.0
H195 H 0.32659 0.07748 0.31691 0.0
H196 H 0.20627 0.08178 0.17426 0.0
H197 H 0.28841 0.07653 0.19044 0.0
H198 H 0.26295 0.10593 0.30552 0.0
H199 H 0.18095 0.11076 0.28963 0.0
C200 C 0.41248 0.10186 0.23847 0.0
C201 C 0.42888 0.09633 0.27607 0.0
C202 C 0.36529 0.09915 0.22932 0.0
C203 C 0.33333 0.09085 0.25756 0.0
C204 C 0.35013 0.08426 0.29465 0.0
C205 C 0.39737 0.08694 0.30379 0.0
C206 C 0.21807 0.08672 0.20324 0.0
C207 C 0.18708 0.09684 0.23057 0.0
C208 C 0.26523 0.08387 0.21242 0.0
C209 C 0.28242 0.09098 0.24918 0.0
C210 C 0.25092 0.10001 0.27707 0.0
C211 C 0.20385 0.10291 0.26788 0.0
H212 H 0.69374 0.43384 0.33291 0.0
H213 H 0.6677 0.40581 0.21696 0.0
H214 H 0.77596 0.43904 0.31689 0.0
H215 H 0.74989 0.41061 0.20122 0.0
H216 H 0.89783 0.4331 0.17557 0.0
H217 H 0.81548 0.43881 0.19089 0.0
H218 H 0.839 0.40995 0.30666 0.0
H219 H 0.92101 0.40463 0.29164 0.0
C220 C 0.70541 0.4291 0.30384 0.0
C221 C 0.67422 0.41921 0.27632 0.0
C222 C 0.75259 0.43196 0.29474 0.0
C223 C 0.76963 0.42503 0.2579 0.0
C224 C 0.73794 0.41635 0.22975 0.0
C225 C 0.69079 0.41346 0.23886 0.0
C226 C 0.88553 0.42839 0.20451 0.0
C227 C 0.91592 0.41825 0.2323 0.0
C228 C 0.8383 0.43152 0.2132 0.0
C229 C 0.82055 0.4247 0.24992 0.0
C230 C 0.85149 0.41566 0.27824 0.0
C231 C 0.89856 0.41246 0.26953 0.0
H232 H 0.20261 0.93486 0.83315 0.0
H233 H 0.17592 0.90681 0.71734 0.0
H234 H 0.28482 0.93996 0.81684 0.0
H235 H 0.258 0.91153 0.70129 0.0
H236 H 0.40498 0.93436 0.6742 0.0
H237 H 0.3229 0.9398 0.69042 0.0
H238 H 0.34866 0.91135 0.80609 0.0
H239 H 0.4306 0.9063 0.79014 0.0
C240 C 0.21412 0.93011 0.80404 0.0
C241 C 0.18272 0.92027 0.77663 0.0
C242 C 0.26132 0.93289 0.79478 0.0
C243 C 0.27816 0.92597 0.75786 0.0
C244 C 0.24626 0.91728 0.72987 0.0
C245 C 0.19914 0.91445 0.73915 0.0
C246 C 0.39327 0.92967 0.70331 0.0
C247 C 0.42432 0.91974 0.73079 0.0
C248 C 0.34615 0.93264 0.71252 0.0
C249 C 0.32905 0.92583 0.74946 0.0
C250 C 0.36063 0.91703 0.7775 0.0
C251 C 0.40766 0.914 0.76826 0.0
H252 H 0.69915 0.58061 0.67517 0.0
H253 H 0.67295 0.60986 0.79022 0.0
H254 H 0.78114 0.57542 0.6918 0.0
H255 H 0.75488 0.60507 0.80657 0.0
H256 H 0.9017 0.58243 0.83412 0.0
H257 H 0.81938 0.57693 0.81822 0.0
H258 H 0.8454 0.60408 0.70174 0.0
H259 H 0.92745 0.60918 0.71736 0.0
C260 C 0.71071 0.58561 0.70419 0.0
C261 C 0.67953 0.59583 0.73126 0.0
C262 C 0.75779 0.58278 0.71363 0.0
C263 C 0.77475 0.59003 0.7504 0.0
C264 C 0.74302 0.59907 0.77812 0.0
C265 C 0.696 0.60195 0.76865 0.0
C266 C 0.88997 0.58681 0.80491 0.0
C267 C 0.92112 0.5964 0.77708 0.0
C268 C 0.84272 0.58381 0.79588 0.0
C269 C 0.82565 0.59022 0.75879 0.0
C270 C 0.85732 0.59869 0.73046 0.0
C271 C 0.90443 0.60176 0.7395 0.0
H272 H 0.66506 0.93136 0.76693 0.0
H273 H 0.72866 0.9076 0.65923 0.0
H274 H 0.74206 0.93642 0.79597 0.0
H275 H 0.80508 0.91156 0.68854 0.0
H276 H 0.94182 0.93208 0.74167 0.0
H277 H 0.86482 0.937 0.71275 0.0
H278 H 0.8018 0.91112 0.81981 0.0
H279 H 0.87825 0.9073 0.84902 0.0
C280 C 0.69545 0.92732 0.7494 0.0
C281 C 0.69061 0.91894 0.71083 0.0
C282 C 0.73964 0.93006 0.76611 0.0
C283 C 0.78004 0.92421 0.7448 0.0
C284 C 0.77506 0.91662 0.7058 0.0
C285 C 0.731 0.91416 0.68899 0.0
C286 C 0.91144 0.92778 0.75916 0.0
C287 C 0.91628 0.91916 0.79759 0.0
C288 C 0.86724 0.93044 0.7425 0.0
C289 C 0.82684 0.92426 0.76374 0.0
C290 C 0.83183 0.91643 0.80262 0.0
C291 C 0.87589 0.91406 0.81937 0.0
H292 H 0.43806 0.58316 0.76361 0.0
H293 H 0.37623 0.60934 0.65654 0.0
H294 H 0.36067 0.57818 0.79187 0.0
H295 H 0.2994 0.60548 0.68515 0.0
H296 H 0.16143 0.58555 0.73704 0.0
H297 H 0.23838 0.5804 0.70807 0.0
H298 H 0.30187 0.60363 0.81643 0.0
H299 H 0.22556 0.60765 0.84561 0.0
C300 C 0.40797 0.58776 0.74604 0.0
C301 C 0.41342 0.59679 0.7079 0.0
C302 C 0.36354 0.58506 0.76232 0.0
C303 C 0.32353 0.59165 0.74102 0.0
C304 C 0.3291 0.59986 0.70238 0.0
C305 C 0.37339 0.60226 0.68598 0.0
C306 C 0.1919 0.58921 0.75478 0.0
C307 C 0.18725 0.59714 0.79358 0.0
C308 C 0.23608 0.58642 0.73811 0.0
C309 C 0.27661 0.59176 0.75973 0.0
C310 C 0.27175 0.59893 0.79892 0.0
C311 C 0.22774 0.60144 0.81566 0.0
H312 H 0.73268 0.10912 0.34952 0.0
H313 H 0.67064 0.08086 0.2437 0.0
H314 H 0.80945 0.10551 0.32069 0.0
H315 H 0.74789 0.07624 0.21526 0.0
H316 H 0.88208 0.10688 0.15997 0.0
H317 H 0.80598 0.10246 0.1897 0.0
H318 H 0.87053 0.08032 0.29803 0.0
H319 H 0.94718 0.08576 0.26849 0.0
C320 C 0.73546 0.10164 0.32035 0.0
C321 C 0.69538 0.09552 0.2988 0.0
C322 C 0.77969 0.0994 0.30383 0.0
C323 C 0.78511 0.09074 0.26544 0.0
C324 C 0.74509 0.08347 0.24459 0.0
C325 C 0.70075 0.08595 0.261 0.0
C326 C 0.88017 0.10082 0.19003 0.0
C327 C 0.92086 0.09689 0.21192 0.0
C328 C 0.8363 0.09809 0.20708 0.0
C329 C 0.83184 0.09111 0.24642 0.0
C330 C 0.87256 0.08617 0.26787 0.0
C331 C 0.91655 0.08913 0.25088 0.0
H332 H 0.16122 0.40633 0.27922 0.0
H333 H 0.20945 0.43813 0.17099 0.0
H334 H 0.23888 0.41072 0.30669 0.0
H335 H 0.28663 0.44382 0.19898 0.0
H336 H 0.42847 0.4149 0.23937 0.0
H337 H 0.35004 0.41907 0.21409 0.0
H338 H 0.29991 0.43519 0.33022 0.0
H339 H 0.37838 0.42973 0.35572 0.0
C340 C 0.18818 0.41488 0.26166 0.0
C341 C 0.17939 0.42163 0.22283 0.0
C342 C 0.23281 0.41753 0.27746 0.0
C343 C 0.2695 0.42738 0.25497 0.0
C344 C 0.25973 0.43554 0.21688 0.0
C345 C 0.21535 0.43247 0.20089 0.0
C346 C 0.40083 0.41967 0.25944 0.0
C347 C 0.4096 0.42177 0.29959 0.0
C348 C 0.35569 0.42222 0.2449 0.0
C349 C 0.31822 0.42734 0.27007 0.0
C350 C 0.32756 0.4307 0.31003 0.0
C351 C 0.37264 0.42776 0.32465 0.0
H352 H 0.03389 0.07859 0.00802 0.0
H353 H 0.09742 0.04178 0.10617 0.0
H354 H 0.04264 0.04124 0.96893 0.0
H355 H 0.10559 1.0043 0.06707 0.0
H356 H 0.0328 0.93769 1.00012 0.0
H357 H 0.04266 0.97504 0.03916 0.0
H358 H 0.10478 0.01208 0.94046 0.0
H359 H 0.09549 0.97462 0.9014 0.0
C360 C 0.05034 0.06265 0.02106 0.0
C361 C 0.06478 0.06308 0.0602 0.0
C362 C 0.05553 0.04131 0.99863 0.0
C363 C 0.07463 0.01988 0.01506 0.0
C364 C 0.09053 0.02055 0.05379 0.0
C365 C 0.08604 0.04203 0.07606 0.0
C366 C 0.0493 0.95366 0.98694 0.0
C367 C 0.06317 0.95326 0.94765 0.0
C368 C 0.05513 0.97499 0.00934 0.0
C369 C 0.07431 0.99645 0.99274 0.0
C370 C 0.08966 0.99581 0.95387 0.0
C371 C 0.08453 0.97434 0.93162 0.0
H372 H 0.98669 0.55147 0.92325 0.0
H373 H 0.11441 0.57035 0.9831 0.0
H374 H 0.98067 0.51355 0.96231 0.0
H375 H 0.10867 0.53245 0.02107 0.0
H376 H 0.11615 0.44738 0.02943 0.0
H377 H 0.1109 0.48512 0.99113 0.0
H378 H 0.97823 0.50141 0.0437 0.0
H379 H 0.98369 0.46364 0.08313 0.0
C380 C 1.01308 0.54771 0.94499 0.0
C381 C 0.05112 0.56386 0.95 0.0
C382 C 1.00955 0.52608 0.96728 0.0
C383 C 0.04445 0.52012 0.99429 0.0
C384 C 0.08153 0.53663 1.00017 0.0
C385 C 0.08464 0.55836 0.97852 0.0
C386 C 0.08547 0.45874 0.03256 0.0
C387 C 0.05043 0.45257 0.0595 0.0
C388 C 0.08265 0.48039 0.01073 0.0
C389 C 0.04438 0.49614 0.01482 0.0
C390 C 1.00805 0.48947 0.04014 0.0
C391 C 1.01124 0.46792 0.06263 0.0
H392 H 0.59355 0.47324 0.40241 0.0
H393 H 0.52877 0.43695 0.50078 0.0
H394 H 0.6032 0.51072 0.4413 0.0
H395 H 0.53896 0.47434 0.53966 0.0
H396 H 0.59273 0.54127 0.60661 0.0
H397 H 0.60135 0.50356 0.56813 0.0
H398 H 0.54124 0.54025 0.4685 0.0
H399 H 0.53208 0.57783 0.50695 0.0
C400 C 0.58225 0.47309 0.43255 0.0
C401 C 0.56013 0.45219 0.44849 0.0
C402 C 0.58758 0.49458 0.45469 0.0
C403 C 0.57165 0.49545 0.49339 0.0
C404 C 0.55187 0.47413 0.50998 0.0
C405 C 0.54586 0.45277 0.48767 0.0
C406 C 0.58209 0.54141 0.57631 0.0
C407 C 0.56148 0.56247 0.55984 0.0
C408 C 0.58683 0.5198 0.55439 0.0
C409 C 0.57184 0.51899 0.51542 0.0
C410 C 0.55344 0.54042 0.49839 0.0
C411 C 0.548 0.56189 0.52046 0.0
H412 H 0.51274 0.97434 0.60574 0.0
H413 H 0.5763 0.93743 0.50778 0.0
H414 H 0.5045 0.01177 0.56645 0.0
H415 H 0.56755 0.97472 0.46853 0.0
H416 H 0.5149 0.04107 0.40044 0.0
H417 H 0.50579 1.00369 0.43972 0.0
H418 H 0.56676 0.04117 0.53847 0.0
H419 H 0.57638 0.07847 0.49921 0.0
C420 C 0.52413 0.97406 0.57563 0.0
C421 C 0.5454 0.95299 0.55988 0.0
C422 C 0.51961 0.99551 0.55326 0.0
C423 C 0.53551 0.99614 0.51453 0.0
C424 C 0.55465 0.97469 0.49821 0.0
C425 C 0.55985 0.95338 0.52074 0.0
C426 C 0.52566 0.04147 0.43072 0.0
C427 C 0.54661 0.06267 0.4467 0.0
C428 C 0.52063 0.02003 0.45309 0.0
C429 C 0.53571 0.01953 0.49205 0.0
C430 C 0.5545 0.0411 0.50859 0.0
C431 C 0.5602 0.06241 0.48606 0.0
loop_
_geom_bond_atom_site_label_1
_geom_bond_atom_site_label_2
_geom_bond_distance
_geom_bond_site_symmetry_2
_ccdc_geom_bond_type
O0 Cd1 2.223 . S
O0 C8 1.315 . S
Cd1 O0 2.223 . S
Cd1 O4 2.297 . S
Cd1 O5 2.439 1_655 S
Cd1 O11 2.240 1_655 S
Cd2 O3 2.240 1_455 S
Cd2 O10 2.223 . S
Cd2 O12 2.297 . S
Cd2 O13 2.439 . S
O3 Cd2 2.240 1_655 S
O3 C8 1.279 . S
O4 Cd1 2.297 . S
O4 C6 1.247 1_655 S
O5 Cd1 2.439 1_455 S
O5 C6 1.208 . S
C6 O4 1.247 1_455 S
C6 O5 1.208 . S
C7 O12 1.247 . S
C7 O13 1.208 . S
C8 O0 1.315 . S
C8 O3 1.279 . S
C9 O10 1.315 . S
C9 O11 1.279 . S
O10 Cd2 2.223 . S
O10 C9 1.315 . S
O11 Cd1 2.240 1_455 S
O11 C9 1.279 . S
O12 Cd2 2.297 . S
O12 C7 1.247 . S
O13 Cd2 2.439 . S
O13 C7 1.208 . S
O14 Cd15 2.223 . S
O14 C22 1.315 . S
Cd15 O14 2.223 . S
Cd15 O18 2.297 . S
Cd15 O19 2.439 . S
Cd15 O25 2.240 . S
Cd16 O17 2.240 . S
Cd16 O24 2.223 . S
Cd16 O26 2.297 1_455 S
Cd16 O27 2.439 1_455 S
O17 Cd16 2.240 . S
O17 C22 1.279 . S
O18 Cd15 2.297 . S
O18 C20 1.247 . S
O19 Cd15 2.439 . S
O19 C20 1.208 . S
C20 O18 1.247 . S
C20 O19 1.208 . S
C21 O26 1.247 . S
C21 O27 1.208 . S
C22 O14 1.315 . S
C22 O17 1.279 . S
C23 O24 1.315 . S
C23 O25 1.279 . S
O24 Cd16 2.223 . S
O24 C23 1.315 . S
O25 Cd15 2.240 . S
O25 C23 1.279 . S
O26 Cd16 2.297 1_655 S
O26 C21 1.247 . S
O27 Cd16 2.439 1_655 S
O27 C21 1.208 . S
O28 Cd29 2.223 . S
O28 C36 1.315 . S
Cd29 O28 2.223 . S
Cd29 O32 2.297 . S
Cd29 O33 2.439 1_655 S
Cd29 O39 2.240 1_655 S
Cd30 O31 2.240 1_455 S
Cd30 O38 2.223 . S
Cd30 O40 2.297 . S
Cd30 O41 2.439 . S
O31 Cd30 2.240 1_655 S
O31 C36 1.279 . S
O32 Cd29 2.297 . S
O32 C34 1.247 1_655 S
O33 Cd29 2.439 1_455 S
O33 C34 1.208 . S
C34 O32 1.247 1_455 S
C34 O33 1.208 . S
C35 O40 1.247 . S
C35 O41 1.208 . S
C36 O28 1.315 . S
C36 O31 1.279 . S
C37 O38 1.315 . S
C37 O39 1.279 . S
O38 Cd30 2.223 . S
O38 C37 1.315 . S
O39 Cd29 2.240 1_455 S
O39 C37 1.279 . S
O40 Cd30 2.297 . S
O40 C35 1.247 . S
O41 Cd30 2.439 . S
O41 C35 1.208 . S
O42 Cd43 2.223 . S
O42 C50 1.315 . S
Cd43 O42 2.223 . S
Cd43 O46 2.297 . S
Cd43 O47 2.439 . S
Cd43 O53 2.240 . S
Cd44 O45 2.240 . S
Cd44 O52 2.223 . S
Cd44 O54 2.297 1_455 S
Cd44 O55 2.439 1_455 S
O45 Cd44 2.240 . S
O45 C50 1.279 . S
O46 Cd43 2.297 . S
O46 C48 1.247 . S
O47 Cd43 2.439 . S
O47 C48 1.208 . S
C48 O46 1.247 . S
C48 O47 1.208 . S
C49 O54 1.247 . S
C49 O55 1.208 . S
C50 O42 1.315 . S
C50 O45 1.279 . S
C51 O52 1.315 . S
C51 O53 1.279 . S
O52 Cd44 2.223 . S
O52 C51 1.315 . S
O53 Cd43 2.240 . S
O53 C51 1.279 . S
O54 Cd44 2.297 1_655 S
O54 C49 1.247 . S
O55 Cd44 2.439 1_655 S
O55 C49 1.208 . S
O56 Cd57 2.223 . S
O56 C64 1.315 . S
Cd57 O56 2.223 . S
Cd57 O60 2.297 . S
Cd57 O61 2.439 . S
Cd57 O67 2.240 . S
Cd58 O59 2.240 . S
Cd58 O66 2.223 . S
Cd58 O68 2.297 . S
Cd58 O69 2.439 . S
O59 Cd58 2.240 . S
O59 C64 1.279 . S
O60 Cd57 2.297 . S
O60 C62 1.247 . S
O61 Cd57 2.439 . S
O61 C62 1.208 . S
C62 O60 1.247 . S
C62 O61 1.208 . S
C63 O68 1.247 . S
C63 O69 1.208 . S
C64 O56 1.315 . S
C64 O59 1.279 . S
C65 O66 1.315 . S
C65 O67 1.279 . S
O66 Cd58 2.223 . S
O66 C65 1.315 . S
O67 Cd57 2.240 . S
O67 C65 1.279 . S
O68 Cd58 2.297 . S
O68 C63 1.247 . S
O69 Cd58 2.439 . S
O69 C63 1.208 . S
O70 Cd71 2.223 . S
O70 C78 1.315 . S
Cd71 O70 2.223 . S
Cd71 O74 2.297 . S
Cd71 O75 2.439 . S
Cd71 O81 2.240 . S
Cd72 O73 2.240 . S
Cd72 O80 2.223 . S
Cd72 O82 2.297 . S
Cd72 O83 2.439 . S
O73 Cd72 2.240 . S
O73 C78 1.279 . S
O74 Cd71 2.297 . S
O74 C76 1.247 . S
O75 Cd71 2.439 . S
O75 C76 1.208 . S
C76 O74 1.247 . S
C76 O75 1.208 . S
C77 O82 1.247 . S
C77 O83 1.208 . S
C78 O70 1.315 . S
C78 O73 1.279 . S
C79 O80 1.315 . S
C79 O81 1.279 . S
O80 Cd72 2.223 . S
O80 C79 1.315 . S
O81 Cd71 2.240 . S
O81 C79 1.279 . S
O82 Cd72 2.297 . S
O82 C77 1.247 . S
O83 Cd72 2.439 . S
O83 C77 1.208 . S
O84 Cd85 2.223 . S
O84 C92 1.315 . S
Cd85 O84 2.223 . S
Cd85 O88 2.297 . S
Cd85 O89 2.439 . S
Cd85 O95 2.240 . S
Cd86 O87 2.240 . S
Cd86 O94 2.223 . S
Cd86 O96 2.297 . S
Cd86 O97 2.439 . S
O87 Cd86 2.240 . S
O87 C92 1.279 . S
O88 Cd85 2.297 . S
O88 C90 1.247 . S
O89 Cd85 2.439 . S
O89 C90 1.208 . S
C90 O88 1.247 . S
C90 O89 1.208 . S
C91 O96 1.247 . S
C91 O97 1.208 . S
C92 O84 1.315 . S
C92 O87 1.279 . S
C93 O94 1.315 . S
C93 O95 1.279 . S
O94 Cd86 2.223 . S
O94 C93 1.315 . S
O95 Cd85 2.240 . S
O95 C93 1.279 . S
O96 Cd86 2.297 . S
O96 C91 1.247 . S
O97 Cd86 2.439 . S
O97 C91 1.208 . S
O98 Cd99 2.223 . S
O98 C106 1.315 . S
Cd99 O98 2.223 . S
Cd99 O102 2.297 . S
Cd99 O103 2.439 . S
Cd99 O109 2.240 . S
Cd100 O101 2.240 . S
Cd100 O108 2.223 . S
Cd100 O110 2.297 . S
Cd100 O111 2.439 . S
O101 Cd100 2.240 . S
O101 C106 1.279 . S
O102 Cd99 2.297 . S
O102 C104 1.247 . S
O103 Cd99 2.439 . S
O103 C104 1.208 . S
C104 O102 1.247 . S
C104 O103 1.208 . S
C105 O110 1.247 . S
C105 O111 1.208 . S
C106 O98 1.315 . S
C106 O101 1.279 . S
C107 O108 1.315 . S
C107 O109 1.279 . S
O108 Cd100 2.223 . S
O108 C107 1.315 . S
O109 Cd99 2.240 . S
O109 C107 1.279 . S
O110 Cd100 2.297 . S
O110 C105 1.247 . S
O111 Cd100 2.439 . S
O111 C105 1.208 . S
H112 C120 0.950 . S
H113 C125 0.950 1_655 S
H114 C122 0.950 . S
H115 C124 0.950 1_655 S
H116 C126 0.950 . S
H117 C128 0.950 . S
H118 C130 0.950 . S
H119 C131 0.950 . S
C120 H112 0.950 . S
C120 C121 1.386 . S
C120 C122 1.391 . S
C121 C120 1.386 . S
C121 C125 1.393 . S
C122 H114 0.950 . S
C122 C120 1.391 . S
C122 C123 1.400 . S
C123 C122 1.400 . S
C123 C124 1.398 . S
C123 C129 1.491 . S
C124 H115 0.950 1_455 S
C124 C123 1.398 . S
C124 C125 1.391 . S
C125 H113 0.950 1_455 S
C125 C121 1.393 . S
C125 C124 1.391 . S
C126 H116 0.950 . S
C126 C127 1.386 1_655 S
C126 C128 1.391 . S
C127 C126 1.386 1_455 S
C127 C131 1.393 . S
C128 H117 0.950 . S
C128 C126 1.391 . S
C128 C129 1.400 1_655 S
C129 C123 1.491 . S
C129 C128 1.400 1_455 S
C129 C130 1.398 . S
C130 H118 0.950 . S
C130 C129 1.398 . S
C130 C131 1.391 . S
C131 H119 0.950 . S
C131 C127 1.393 . S
C131 C130 1.391 . S
H132 C140 0.950 . S
H133 C145 0.950 . S
H134 C142 0.950 . S
H135 C144 0.950 . S
H136 C146 0.950 . S
H137 C148 0.950 . S
H138 C150 0.933 1_655 S
H139 C151 0.950 1_655 S
C140 H132 0.950 . S
C140 C141 1.386 1_655 S
C140 C142 1.391 . S
C141 C140 1.386 1_455 S
C141 C145 1.393 . S
C142 H134 0.950 . S
C142 C140 1.391 . S
C142 C143 1.400 1_655 S
C143 C142 1.400 1_455 S
C143 C144 1.398 . S
C143 C149 1.491 . S
C144 H135 0.950 . S
C144 C143 1.398 . S
C144 C145 1.391 . S
C145 H133 0.950 . S
C145 C141 1.393 . S
C145 C144 1.391 . S
C146 H136 0.950 . S
C146 C147 1.386 . S
C146 C148 1.391 . S
C147 C146 1.386 . S
C147 C151 1.393 . S
C148 H137 0.950 . S
C148 C146 1.391 . S
C148 C149 1.400 . S
C149 C143 1.491 . S
C149 C148 1.400 . S
C149 C150 1.413 . S
C150 H138 0.933 1_455 S
C150 C149 1.413 . S
C150 C151 1.393 . S
C151 H139 0.950 1_455 S
C151 C147 1.393 . S
C151 C150 1.393 . S
H152 C160 0.950 . S
H153 C165 0.950 . S
H154 C162 0.950 . S
H155 C164 0.950 . S
H156 C166 0.950 . S
H157 C168 0.950 . S
H158 C170 0.950 . S
H159 C171 0.950 . S
C160 H152 0.950 . S
C160 C161 1.386 . S
C160 C162 1.391 . S
C161 C160 1.386 . S
C161 C165 1.393 . S
C162 H154 0.950 . S
C162 C160 1.391 . S
C162 C163 1.400 . S
C163 C162 1.400 . S
C163 C164 1.398 . S
C163 C169 1.491 . S
C164 H155 0.950 . S
C164 C163 1.398 . S
C164 C165 1.391 . S
C165 H153 0.950 . S
C165 C161 1.393 . S
C165 C164 1.391 . S
C166 H156 0.950 . S
C166 C167 1.386 . S
C166 C168 1.391 . S
C167 C166 1.386 . S
C167 C171 1.393 . S
C168 H157 0.950 . S
C168 C166 1.391 . S
C168 C169 1.400 . S
C169 C163 1.491 . S
C169 C168 1.400 . S
C169 C170 1.398 . S
C170 H158 0.950 . S
C170 C169 1.398 . S
C170 C171 1.391 . S
C171 H159 0.950 . S
C171 C167 1.393 . S
C171 C170 1.391 . S
H172 C180 0.950 . S
H173 C185 0.950 . S
H174 C182 0.950 . S
H175 C184 0.950 . S
H176 C186 0.950 . S
H177 C188 0.950 . S
H178 C190 0.950 . S
H179 C191 0.950 . S
C180 H172 0.950 . S
C180 C181 1.386 . S
C180 C182 1.391 . S
C181 C180 1.386 . S
C181 C185 1.393 . S
C182 H174 0.950 . S
C182 C180 1.391 . S
C182 C183 1.400 . S
C183 C182 1.400 . S
C183 C184 1.398 . S
C183 C189 1.491 . S
C184 H175 0.950 . S
C184 C183 1.398 . S
C184 C185 1.391 . S
C185 H173 0.950 . S
C185 C181 1.393 . S
C185 C184 1.391 . S
C186 H176 0.950 . S
C186 C187 1.386 . S
C186 C188 1.391 . S
C187 C186 1.386 . S
C187 C191 1.393 . S
C188 H177 0.950 . S
C188 C186 1.391 . S
C188 C189 1.400 . S
C189 C183 1.491 . S
C189 C188 1.400 . S
C189 C190 1.398 . S
C190 H178 0.950 . S
C190 C189 1.398 . S
C190 C191 1.391 . S
C191 H179 0.950 . S
C191 C187 1.393 . S
C191 C190 1.391 . S
H192 C200 0.950 . S
H193 C205 0.950 . S
H194 C202 0.950 . S
H195 C204 0.950 . S
H196 C206 0.950 . S
H197 C208 0.950 . S
H198 C210 0.950 . S
H199 C211 0.950 . S
C200 H192 0.950 . S
C200 C201 1.386 . S
C200 C202 1.391 . S
C201 C200 1.386 . S
C201 C205 1.393 . S
C202 H194 0.950 . S
C202 C200 1.391 . S
C202 C203 1.400 . S
C203 C202 1.400 . S
C203 C204 1.398 . S
C203 C209 1.491 . S
C204 H195 0.950 . S
C204 C203 1.398 . S
C204 C205 1.391 . S
C205 H193 0.950 . S
C205 C201 1.393 . S
C205 C204 1.391 . S
C206 H196 0.950 . S
C206 C207 1.386 . S
C206 C208 1.391 . S
C207 C206 1.386 . S
C207 C211 1.393 . S
C208 H197 0.950 . S
C208 C206 1.391 . S
C208 C209 1.400 . S
C209 C203 1.491 . S
C209 C208 1.400 . S
C209 C210 1.398 . S
C210 H198 0.950 . S
C210 C209 1.398 . S
C210 C211 1.391 . S
C211 H199 0.950 . S
C211 C207 1.393 . S
C211 C210 1.391 . S
H212 C220 0.950 . S
H213 C225 0.950 . S
H214 C222 0.950 . S
H215 C224 0.950 . S
H216 C226 0.950 . S
H217 C228 0.950 . S
H218 C230 0.950 . S
H219 C231 0.950 . S
C220 H212 0.950 . S
C220 C221 1.386 . S
C220 C222 1.391 . S
C221 C220 1.386 . S
C221 C225 1.393 . S
C222 H214 0.950 . S
C222 C220 1.391 . S
C222 C223 1.400 . S
C223 C222 1.400 . S
C223 C224 1.398 . S
C223 C229 1.491 . S
C224 H215 0.950 . S
C224 C223 1.398 . S
C224 C225 1.391 . S
C225 H213 0.950 . S
C225 C221 1.393 . S
C225 C224 1.391 . S
C226 H216 0.950 . S
C226 C227 1.386 . S
C226 C228 1.391 . S
C227 C226 1.386 . S
C227 C231 1.393 . S
C228 H217 0.950 . S
C228 C226 1.391 . S
C228 C229 1.400 . S
C229 C223 1.491 . S
C229 C228 1.400 . S
C229 C230 1.398 . S
C230 H218 0.950 . S
C230 C229 1.398 . S
C230 C231 1.391 . S
C231 H219 0.950 . S
C231 C227 1.393 . S
C231 C230 1.391 . S
H232 C240 0.950 . S
H233 C245 0.950 . S
H234 C242 0.950 . S
H235 C244 0.950 . S
H236 C246 0.950 . S
H237 C248 0.950 . S
H238 C250 0.950 . S
H239 C251 0.950 . S
C240 H232 0.950 . S
C240 C241 1.386 . S
C240 C242 1.391 . S
C241 C240 1.386 . S
C241 C245 1.393 . S
C242 H234 0.950 . S
C242 C240 1.391 . S
C242 C243 1.400 . S
C243 C242 1.400 . S
C243 C244 1.398 . S
C243 C249 1.491 . S
C244 H235 0.950 . S
C244 C243 1.398 . S
C244 C245 1.391 . S
C245 H233 0.950 . S
C245 C241 1.393 . S
C245 C244 1.391 . S
C246 H236 0.950 . S
C246 C247 1.386 . S
C246 C248 1.391 . S
C247 C246 1.386 . S
C247 C251 1.393 . S
C248 H237 0.950 . S
C248 C246 1.391 . S
C248 C249 1.400 . S
C249 C243 1.491 . S
C249 C248 1.400 . S
C249 C250 1.398 . S
C250 H238 0.950 . S
C250 C249 1.398 . S
C250 C251 1.391 . S
C251 H239 0.950 . S
C251 C247 1.393 . S
C251 C250 1.391 . S
H252 C260 0.950 . S
H253 C265 0.950 . S
H254 C262 0.950 . S
H255 C264 0.950 . S
H256 C266 0.950 . S
H257 C268 0.950 . S
H258 C270 0.950 . S
H259 C271 0.950 . S
C260 H252 0.950 . S
C260 C261 1.386 . S
C260 C262 1.391 . S
C261 C260 1.386 . S
C261 C265 1.393 . S
C262 H254 0.950 . S
C262 C260 1.391 . S
C262 C263 1.400 . S
C263 C262 1.400 . S
C263 C264 1.398 . S
C263 C269 1.491 . S
C264 H255 0.950 . S
C264 C263 1.398 . S
C264 C265 1.391 . S
C265 H253 0.950 . S
C265 C261 1.393 . S
C265 C264 1.391 . S
C266 H256 0.950 . S
C266 C267 1.386 . S
C266 C268 1.391 . S
C267 C266 1.386 . S
C267 C271 1.393 . S
C268 H257 0.950 . S
C268 C266 1.391 . S
C268 C269 1.400 . S
C269 C263 1.491 . S
C269 C268 1.400 . S
C269 C270 1.398 . S
C270 H258 0.950 . S
C270 C269 1.398 . S
C270 C271 1.391 . S
C271 H259 0.950 . S
C271 C267 1.393 . S
C271 C270 1.391 . S
H272 C280 0.950 . S
H273 C285 0.950 . S
H274 C282 0.950 . S
H275 C284 0.950 . S
H276 C286 0.950 . S
H277 C288 0.950 . S
H278 C290 0.950 . S
H279 C291 0.950 . S
C280 H272 0.950 . S
C280 C281 1.386 . S
C280 C282 1.391 . S
C281 C280 1.386 . S
C281 C285 1.393 . S
C282 H274 0.950 . S
C282 C280 1.391 . S
C282 C283 1.400 . S
C283 C282 1.400 . S
C283 C284 1.398 . S
C283 C289 1.491 . S
C284 H275 0.950 . S
C284 C283 1.398 . S
C284 C285 1.391 . S
C285 H273 0.950 . S
C285 C281 1.393 . S
C285 C284 1.391 . S
C286 H276 0.950 . S
C286 C287 1.386 . S
C286 C288 1.391 . S
C287 C286 1.386 . S
C287 C291 1.393 . S
C288 H277 0.950 . S
C288 C286 1.391 . S
C288 C289 1.400 . S
C289 C283 1.491 . S
C289 C288 1.400 . S
C289 C290 1.398 . S
C290 H278 0.950 . S
C290 C289 1.398 . S
C290 C291 1.391 . S
C291 H279 0.950 . S
C291 C287 1.393 . S
C291 C290 1.391 . S
H292 C300 0.950 . S
H293 C305 0.950 . S
H294 C302 0.950 . S
H295 C304 0.950 . S
H296 C306 0.950 . S
H297 C308 0.950 . S
H298 C310 0.950 . S
H299 C311 0.950 . S
C300 H292 0.950 . S
C300 C301 1.386 . S
C300 C302 1.391 . S
C301 C300 1.386 . S
C301 C305 1.393 . S
C302 H294 0.950 . S
C302 C300 1.391 . S
C302 C303 1.400 . S
C303 C302 1.400 . S
C303 C304 1.398 . S
C303 C309 1.491 . S
C304 H295 0.950 . S
C304 C303 1.398 . S
C304 C305 1.391 . S
C305 H293 0.950 . S
C305 C301 1.393 . S
C305 C304 1.391 . S
C306 H296 0.950 . S
C306 C307 1.386 . S
C306 C308 1.391 . S
C307 C306 1.386 . S
C307 C311 1.393 . S
C308 H297 0.950 . S
C308 C306 1.391 . S
C308 C309 1.400 . S
C309 C303 1.491 . S
C309 C308 1.400 . S
C309 C310 1.398 . S
C310 H298 0.950 . S
C310 C309 1.398 . S
C310 C311 1.391 . S
C311 H299 0.950 . S
C311 C307 1.393 . S
C311 C310 1.391 . S
H312 C320 0.950 . S
H313 C325 0.950 . S
H314 C322 0.950 . S
H315 C324 0.950 . S
H316 C326 0.950 . S
H317 C328 0.950 . S
H318 C330 0.950 . S
H319 C331 0.950 . S
C320 H312 0.950 . S
C320 C321 1.386 . S
C320 C322 1.391 . S
C321 C320 1.386 . S
C321 C325 1.393 . S
C322 H314 0.950 . S
C322 C320 1.391 . S
C322 C323 1.400 . S
C323 C322 1.400 . S
C323 C324 1.398 . S
C323 C329 1.491 . S
C324 H315 0.950 . S
C324 C323 1.398 . S
C324 C325 1.391 . S
C325 H313 0.950 . S
C325 C321 1.393 . S
C325 C324 1.391 . S
C326 H316 0.950 . S
C326 C327 1.386 . S
C326 C328 1.391 . S
C327 C326 1.386 . S
C327 C331 1.393 . S
C328 H317 0.950 . S
C328 C326 1.391 . S
C328 C329 1.400 . S
C329 C323 1.491 . S
C329 C328 1.400 . S
C329 C330 1.398 . S
C330 H318 0.950 . S
C330 C329 1.398 . S
C330 C331 1.391 . S
C331 H319 0.950 . S
C331 C327 1.393 . S
C331 C330 1.391 . S
H332 C340 0.950 . S
H333 C345 0.950 . S
H334 C342 0.950 . S
H335 C344 0.950 . S
H336 C346 0.950 . S
H337 C348 0.950 . S
H338 C350 0.950 . S
H339 C351 0.950 . S
C340 H332 0.950 . S
C340 C341 1.386 . S
C340 C342 1.391 . S
C341 C340 1.386 . S
C341 C345 1.393 . S
C342 H334 0.950 . S
C342 C340 1.391 . S
C342 C343 1.400 . S
C343 C342 1.400 . S
C343 C344 1.398 . S
C343 C349 1.491 . S
C344 H335 0.950 . S
C344 C343 1.398 . S
C344 C345 1.391 . S
C345 H333 0.950 . S
C345 C341 1.393 . S
C345 C344 1.391 . S
C346 H336 0.950 . S
C346 C347 1.386 . S
C346 C348 1.391 . S
C347 C346 1.386 . S
C347 C351 1.393 . S
C348 H337 0.950 . S
C348 C346 1.391 . S
C348 C349 1.400 . S
C349 C343 1.491 . S
C349 C348 1.400 . S
C349 C350 1.398 . S
C350 H338 0.950 . S
C350 C349 1.398 . S
C350 C351 1.391 . S
C351 H339 0.950 . S
C351 C347 1.393 . S
C351 C350 1.391 . S
H352 C360 0.950 . S
H353 C365 0.950 . S
H354 C362 0.948 1_656 S
H355 C364 0.950 1_565 S
H356 C366 0.950 . S
H357 C368 0.950 1_554 S
H358 C370 0.950 1_545 S
H359 C371 0.950 . S
C360 H352 0.950 . S
C360 C361 1.386 . S
C360 C362 1.391 . S
C361 C360 1.386 . S
C361 C365 1.393 . S
C362 H354 0.948 1_454 S
C362 C360 1.391 . S
C362 C363 1.400 . S
C363 C362 1.400 . S
C363 C364 1.398 . S
C363 C369 1.491 1_544 S
C364 H355 0.950 1_545 S
C364 C363 1.398 . S
C364 C365 1.391 . S
C365 H353 0.950 . S
C365 C361 1.393 . S
C365 C364 1.391 . S
C366 H356 0.950 . S
C366 C367 1.386 . S
C366 C368 1.391 . S
C367 C366 1.386 . S
C367 C371 1.393 1_455 S
C368 H357 0.950 1_556 S
C368 C366 1.391 . S
C368 C369 1.400 . S
C369 C363 1.491 1_566 S
C369 C368 1.400 . S
C369 C370 1.398 1_455 S
C370 H358 0.950 1_565 S
C370 C369 1.398 1_655 S
C370 C371 1.391 . S
C371 H359 0.950 . S
C371 C367 1.393 1_655 S
C371 C370 1.391 . S
H372 C380 0.950 1_655 S
H373 C385 0.950 . S
H374 C382 0.950 1_655 S
H375 C384 0.950 . S
H376 C386 0.950 . S
H377 C388 0.950 . S
H378 C390 0.950 1_655 S
H379 C391 0.950 1_655 S
C380 H372 0.950 1_455 S
C380 C381 1.386 . S
C380 C382 1.391 . S
C381 C380 1.386 . S
C381 C385 1.393 . S
C382 H374 0.950 1_455 S
C382 C380 1.391 . S
C382 C383 1.400 . S
C383 C382 1.400 . S
C383 C384 1.398 . S
C383 C389 1.491 1_556 S
C384 H375 0.950 . S
C384 C383 1.398 . S
C384 C385 1.391 . S
C385 H373 0.950 . S
C385 C381 1.393 . S
C385 C384 1.391 . S
C386 H376 0.950 . S
C386 C387 1.386 . S
C386 C388 1.391 . S
C387 C386 1.386 . S
C387 C391 1.393 . S
C388 H377 0.950 . S
C388 C386 1.391 . S
C388 C389 1.400 . S
C389 C383 1.491 1_554 S
C389 C388 1.400 . S
C389 C390 1.398 . S
C390 H378 0.950 1_455 S
C390 C389 1.398 . S
C390 C391 1.391 . S
C391 H379 0.950 1_455 S
C391 C387 1.393 . S
C391 C390 1.391 . S
H392 C400 0.950 . S
H393 C405 0.950 . S
H394 C402 0.950 . S
H395 C404 0.950 . S
H396 C406 0.950 . S
H397 C408 0.950 . S
H398 C410 0.950 . S
H399 C411 0.950 . S
C400 H392 0.950 . S
C400 C401 1.386 . S
C400 C402 1.391 . S
C401 C400 1.386 . S
C401 C405 1.393 . S
C402 H394 0.950 . S
C402 C400 1.391 . S
C402 C403 1.400 . S
C403 C402 1.400 . S
C403 C404 1.398 . S
C403 C409 1.491 . S
C404 H395 0.950 . S
C404 C403 1.398 . S
C404 C405 1.391 . S
C405 H393 0.950 . S
C405 C401 1.393 . S
C405 C404 1.391 . S
C406 H396 0.950 . S
C406 C407 1.386 . S
C406 C408 1.391 . S
C407 C406 1.386 . S
C407 C411 1.393 . S
C408 H397 0.950 . S
C408 C406 1.391 . S
C408 C409 1.400 . S
C409 C403 1.491 . S
C409 C408 1.400 . S
C409 C410 1.398 . S
C410 H398 0.950 . S
C410 C409 1.398 . S
C410 C411 1.391 . S
C411 H399 0.950 . S
C411 C407 1.393 . S
C411 C410 1.391 . S
H412 C420 0.950 . S
H413 C425 0.950 . S
H414 C422 0.950 1_545 S
H415 C424 0.950 . S
H416 C426 0.950 . S
H417 C428 0.950 1_565 S
H418 C430 0.950 . S
H419 C431 0.950 . S
C420 H412 0.950 . S
C420 C421 1.386 . S
C420 C422 1.391 . S
C421 C420 1.386 . S
C421 C425 1.393 . S
C422 H414 0.950 1_565 S
C422 C420 1.391 . S
C422 C423 1.400 . S
C423 C422 1.400 . S
C423 C424 1.398 . S
C423 C429 1.491 1_565 S
C424 H415 0.950 . S
C424 C423 1.398 . S
C424 C425 1.391 . S
C425 H413 0.950 . S
C425 C421 1.393 . S
C425 C424 1.391 . S
C426 H416 0.950 . S
C426 C427 1.386 . S
C426 C428 1.391 . S
C427 C426 1.386 . S
C427 C431 1.393 . S
C428 H417 0.950 1_545 S
C428 C426 1.391 . S
C428 C429 1.400 . S
C429 C423 1.491 1_545 S
C429 C428 1.400 . S
C429 C430 1.398 . S
C430 H418 0.950 . S
C430 C429 1.398 . S
C430 C431 1.391 . S
C431 H419 0.950 . S
C431 C427 1.393 . S
C431 C430 1.391 . S
C121 C23 1.475 . S
C127 C9 1.486 . S
C141 C37 1.478 . S
C147 C51 1.494 . S
C161 C65 1.483 . S
C167 C79 1.497 . S
C181 C93 1.490 . S
C187 C107 1.497 . S
C201 C105 1.282 . S
C207 C7 1.284 . S
C221 C91 1.288 . S
C227 C21 1.295 . S
C241 C35 1.283 . S
C247 C77 1.288 . S
C261 C63 1.282 . S
C267 C49 1.286 . S
C281 C78 1.693 . S
C287 C36 1.692 . S
C301 C64 1.688 . S
C307 C50 1.688 . S
C321 C106 1.696 . S
C327 C8 1.696 . S
C341 C22 1.686 . S
C347 C92 1.686 . S
C361 C6 1.509 . S
C367 C34 1.506 . S
C381 C48 1.515 . S
C387 C20 1.515 . S
C401 C90 1.501 . S
C407 C62 1.504 . S
C421 C76 1.510 . S
C427 C104 1.513 . S
