# Generated by pormake.
# Topology umk, (4)-cn, num edge types: 1
# Building blocks:
#     Node 0, Type 0, BuildingBlock: QUQFOY_clean_sbu_3, # of connection points: 4
#     Node 1, Type 0, BuildingBlock: QUQFOY_clean_sbu_3, # of connection points: 4
#     Node 2, Type 0, BuildingBlock: QUQFOY_clean_sbu_3, # of connection points: 4
#     Node 3, Type 0, BuildingBlock: QUQFOY_clean_sbu_3, # of connection points: 4
#     Node 4, Type 0, BuildingBlock: QUQFOY_clean_sbu_3, # of connection points: 4
#     Node 5, Type 0, BuildingBlock: QUQFOY_clean_sbu_3, # of connection points: 4
#     Node 6, Type 0, BuildingBlock: QUQFOY_clean_sbu_3, # of connection points: 4
#     Node 7, Type 0, BuildingBlock: QUQFOY_clean_sbu_3, # of connection points: 4
#     Node 8, Type 0, BuildingBlock: QUQFOY_clean_sbu_3, # of connection points: 4
#     Node 9, Type 0, BuildingBlock: QUQFOY_clean_sbu_3, # of connection points: 4
#     Node 10, Type 0, BuildingBlock: QUQFOY_clean_sbu_3, # of connection points: 4
#     Node 11, Type 0, BuildingBlock: QUQFOY_clean_sbu_3, # of connection points: 4
#     Node 12, Type 0, BuildingBlock: QUQFOY_clean_sbu_3, # of connection points: 4
#     Node 13, Type 0, BuildingBlock: QUQFOY_clean_sbu_3, # of connection points: 4
#     Node 14, Type 0, BuildingBlock: QUQFOY_clean_sbu_3, # of connection points: 4
#     Node 15, Type 0, BuildingBlock: QUQFOY_clean_sbu_3, # of connection points: 4
#     Node 16, Type 0, BuildingBlock: QUQFOY_clean_sbu_3, # of connection points: 4
#     Node 17, Type 0, BuildingBlock: QUQFOY_clean_sbu_3, # of connection points: 4
#     Node 18, Type 0, BuildingBlock: QUQFOY_clean_sbu_3, # of connection points: 4
#     Node 19, Type 0, BuildingBlock: QUQFOY_clean_sbu_3, # of connection points: 4
#     Node 20, Type 0, BuildingBlock: QUQFOY_clean_sbu_3, # of connection points: 4
#     Node 21, Type 0, BuildingBlock: QUQFOY_clean_sbu_3, # of connection points: 4
#     Node 22, Type 0, BuildingBlock: QUQFOY_clean_sbu_3, # of connection points: 4
#     Node 23, Type 0, BuildingBlock: QUQFOY_clean_sbu_3, # of connection points: 4
#     Edge 24, Type (0, 0), BuildingBlock: OJICUG_clean_linker_0, # of connection points: 2
#     Edge 25, Type (0, 0), BuildingBlock: OJICUG_clean_linker_0, # of connection points: 2
#     Edge 26, Type (0, 0), BuildingBlock: OJICUG_clean_linker_0, # of connection points: 2
#     Edge 27, Type (0, 0), BuildingBlock: OJICUG_clean_linker_0, # of connection points: 2
#     Edge 28, Type (0, 0), BuildingBlock: OJICUG_clean_linker_0, # of connection points: 2
#     Edge 29, Type (0, 0), BuildingBlock: OJICUG_clean_linker_0, # of connection points: 2
#     Edge 30, Type (0, 0), BuildingBlock: OJICUG_clean_linker_0, # of connection points: 2
#     Edge 31, Type (0, 0), BuildingBlock: OJICUG_clean_linker_0, # of connection points: 2
#     Edge 32, Type (0, 0), BuildingBlock: OJICUG_clean_linker_0, # of connection points: 2
#     Edge 33, Type (0, 0), BuildingBlock: OJICUG_clean_linker_0, # of connection points: 2
#     Edge 34, Type (0, 0), BuildingBlock: OJICUG_clean_linker_0, # of connection points: 2
#     Edge 35, Type (0, 0), BuildingBlock: OJICUG_clean_linker_0, # of connection points: 2
#     Edge 36, Type (0, 0), BuildingBlock: OJICUG_clean_linker_0, # of connection points: 2
#     Edge 37, Type (0, 0), BuildingBlock: OJICUG_clean_linker_0, # of connection points: 2
#     Edge 38, Type (0, 0), BuildingBlock: OJICUG_clean_linker_0, # of connection points: 2
#     Edge 39, Type (0, 0), BuildingBlock: OJICUG_clean_linker_0, # of connection points: 2
#     Edge 40, Type (0, 0), BuildingBlock: OJICUG_clean_linker_0, # of connection points: 2
#     Edge 41, Type (0, 0), BuildingBlock: OJICUG_clean_linker_0, # of connection points: 2
#     Edge 42, Type (0, 0), BuildingBlock: OJICUG_clean_linker_0, # of connection points: 2
#     Edge 43, Type (0, 0), BuildingBlock: OJICUG_clean_linker_0, # of connection points: 2
#     Edge 44, Type (0, 0), BuildingBlock: OJICUG_clean_linker_0, # of connection points: 2
#     Edge 45, Type (0, 0), BuildingBlock: OJICUG_clean_linker_0, # of connection points: 2
#     Edge 46, Type (0, 0), BuildingBlock: OJICUG_clean_linker_0, # of connection points: 2
#     Edge 47, Type (0, 0), BuildingBlock: OJICUG_clean_linker_0, # of connection points: 2
#     Edge 48, Type (0, 0), BuildingBlock: OJICUG_clean_linker_0, # of connection points: 2
#     Edge 49, Type (0, 0), BuildingBlock: OJICUG_clean_linker_0, # of connection points: 2
#     Edge 50, Type (0, 0), BuildingBlock: OJICUG_clean_linker_0, # of connection points: 2
#     Edge 51, Type (0, 0), BuildingBlock: OJICUG_clean_linker_0, # of connection points: 2
#     Edge 52, Type (0, 0), BuildingBlock: OJICUG_clean_linker_0, # of connection points: 2
#     Edge 53, Type (0, 0), BuildingBlock: OJICUG_clean_linker_0, # of connection points: 2
#     Edge 54, Type (0, 0), BuildingBlock: OJICUG_clean_linker_0, # of connection points: 2
#     Edge 55, Type (0, 0), BuildingBlock: OJICUG_clean_linker_0, # of connection points: 2
#     Edge 56, Type (0, 0), BuildingBlock: OJICUG_clean_linker_0, # of connection points: 2
#     Edge 57, Type (0, 0), BuildingBlock: OJICUG_clean_linker_0, # of connection points: 2
#     Edge 58, Type (0, 0), BuildingBlock: OJICUG_clean_linker_0, # of connection points: 2
#     Edge 59, Type (0, 0), BuildingBlock: OJICUG_clean_linker_0, # of connection points: 2
#     Edge 60, Type (0, 0), BuildingBlock: OJICUG_clean_linker_0, # of connection points: 2
#     Edge 61, Type (0, 0), BuildingBlock: OJICUG_clean_linker_0, # of connection points: 2
#     Edge 62, Type (0, 0), BuildingBlock: OJICUG_clean_linker_0, # of connection points: 2
#     Edge 63, Type (0, 0), BuildingBlock: OJICUG_clean_linker_0, # of connection points: 2
#     Edge 64, Type (0, 0), BuildingBlock: OJICUG_clean_linker_0, # of connection points: 2
#     Edge 65, Type (0, 0), BuildingBlock: OJICUG_clean_linker_0, # of connection points: 2
#     Edge 66, Type (0, 0), BuildingBlock: OJICUG_clean_linker_0, # of connection points: 2
#     Edge 67, Type (0, 0), BuildingBlock: OJICUG_clean_linker_0, # of connection points: 2
#     Edge 68, Type (0, 0), BuildingBlock: OJICUG_clean_linker_0, # of connection points: 2
#     Edge 69, Type (0, 0), BuildingBlock: OJICUG_clean_linker_0, # of connection points: 2
#     Edge 70, Type (0, 0), BuildingBlock: OJICUG_clean_linker_0, # of connection points: 2
#     Edge 71, Type (0, 0), BuildingBlock: OJICUG_clean_linker_0, # of connection points: 2
# Relax obj value: 0.057
# Max RMSD: 0.043
# Mean RMSD: 0.043
data_MOF--net-umk--node1-QUQFOY_clean_sbu_3--edge1-OJICUG_clean_linker_0
_symmetry_space_group_name_H-M    P1
_symmetry_Int_Tables_number       1
_symmetry_cell_setting            triclinic
loop_
_symmetry_equiv_pos_as_xyz
'x, y, z'
_cell_length_a     51.761171
_cell_length_b     51.406621
_cell_length_c     33.795689
_cell_angle_alpha  90.025891
_cell_angle_beta   90.045646
_cell_angle_gamma 120.37062
loop_
_atom_site_label
_atom_site_type_symbol
_atom_site_fract_x
_atom_site_fract_y
_atom_site_fract_z
_atom_type_partial_charge
C0 C 0.32185 0.45297 0.14745 0.0
O1 O 0.34939 0.46841 0.1384 0.0
Cd2 Cd 0.37305 0.49288 0.07851 0.0
O3 O 0.30146 0.4468 0.1217 0.0
Cd4 Cd 0.30479 0.45589 0.04795 0.0
C5 C 0.35068 0.42813 0.02663 0.0
O6 O 0.3421 0.50934 0.0515 0.0
O7 O 0.33377 0.49049 -0.00693 0.0
O8 O 0.26264 0.46396 0.04332 0.0
C9 C 0.34697 0.51373 0.01482 0.0
O10 O 0.37178 0.45371 0.03806 0.0
C11 C 0.24761 0.44304 0.01866 0.0
O12 O 0.32331 0.42084 0.03075 0.0
O13 O 0.2579 0.42606 0.00943 0.0
C14 C 0.85488 0.3391 0.64209 0.0
O15 O 0.86322 0.36592 0.63156 0.0
Cd16 Cd 0.85936 0.38521 0.56957 0.0
O17 O 0.84335 0.31738 0.61723 0.0
Cd18 Cd 0.83593 0.31622 0.5432 0.0
C19 C 0.90843 0.36922 0.52346 0.0
O20 O 0.81306 0.34759 0.54456 0.0
O21 O 0.82375 0.33928 0.48663 0.0
O22 O 0.79311 0.26467 0.54978 0.0
C23 C 0.81227 0.35118 0.50774 0.0
O24 O 0.90062 0.38836 0.5322 0.0
C25 C 0.79875 0.25482 0.51842 0.0
O26 O 0.89057 0.34104 0.52864 0.0
O27 O 0.82265 0.2729 0.50021 0.0
C28 C 0.48775 0.83993 0.1462 0.0
O29 O 0.46641 0.84506 0.14112 0.0
Cd30 Cd 0.45087 0.85833 0.08281 0.0
O31 O 0.50401 0.84041 0.11746 0.0
Cd32 Cd 0.50403 0.84639 0.04325 0.0
C33 C 0.52035 0.9189 0.05334 0.0
O34 O 0.4502 0.82187 0.0412 0.0
O35 O 0.47081 0.83909 -0.01485 0.0
O36 O 0.51552 0.80588 0.04515 0.0
C37 C 0.44687 0.82557 0.00511 0.0
O38 O 0.49335 0.90707 0.06518 0.0
C39 C 0.53102 0.81341 0.01372 0.0
O40 O 0.53164 0.90249 0.04485 0.0
O41 O 0.53543 0.83738 -0.00324 0.0
C42 C 0.62312 0.49469 0.64471 0.0
O43 O 0.59636 0.47384 0.63835 0.0
Cd44 Cd 0.56981 0.45843 0.57797 0.0
O45 O 0.64038 0.51037 0.61643 0.0
Cd46 Cd 0.63589 0.50932 0.54155 0.0
C47 C 0.5821 0.52833 0.54524 0.0
O48 O 0.6051 0.45482 0.53893 0.0
O49 O 0.609 0.47651 0.48354 0.0
O50 O 0.6873 0.51915 0.54321 0.0
C51 C 0.5985 0.45206 0.50266 0.0
O52 O 0.56536 0.50116 0.55654 0.0
C53 C 0.69552 0.53409 0.51123 0.0
O54 O 0.61011 0.5391 0.5398 0.0
O55 O 0.67662 0.53926 0.49439 0.0
C56 C 0.08628 0.63508 0.14245 0.0
O57 O 0.07787 0.60817 0.13221 0.0
Cd58 Cd 0.08118 0.58815 0.0705 0.0
O59 O 0.09768 0.65662 0.11739 0.0
Cd60 Cd 0.10474 0.65736 0.04341 0.0
C61 C 0.03217 0.60436 0.02422 0.0
O62 O 0.12705 0.62553 0.04465 0.0
O63 O 0.11619 0.63397 -0.01316 0.0
O64 O 0.14812 0.70841 0.05001 0.0
C65 C 0.12749 0.62182 0.0078 0.0
O66 O 0.03997 0.58529 0.03333 0.0
C67 C 0.14298 0.7184 0.01841 0.0
O68 O 0.05004 0.6326 0.02904 0.0
O69 O 0.11892 0.70073 0.00011 0.0
C70 C 0.46026 0.132 0.64611 0.0
O71 O 0.48341 0.13025 0.63916 0.0
Cd72 Cd 0.49395 0.11346 0.58003 0.0
O73 O 0.4413 0.12736 0.61885 0.0
Cd74 Cd 0.44043 0.12036 0.54455 0.0
C75 C 0.4237 0.04962 0.56061 0.0
O76 O 0.49431 0.14686 0.53256 0.0
O77 O 0.46778 0.114 0.48885 0.0
O78 O 0.43112 0.1622 0.54251 0.0
C79 C 0.4935 0.13455 0.49992 0.0
O80 O 0.45142 0.06262 0.56957 0.0
C81 C 0.4146 0.15359 0.51199 0.0
O82 O 0.4115 0.06509 0.55166 0.0
O83 O 0.40863 0.12845 0.49708 0.0
C84 C 0.49088 0.64058 0.81046 0.0
O85 O 0.46879 0.61446 0.81733 0.0
Cd86 Cd 0.4529 0.58802 0.87772 0.0
O87 O 0.50775 0.6575 0.83828 0.0
Cd88 Cd 0.50743 0.65427 0.91294 0.0
C89 C 0.52147 0.5968 0.9092 0.0
O90 O 0.45345 0.62535 0.9173 0.0
O91 O 0.47566 0.62915 0.97215 0.0
O92 O 0.51796 0.70609 0.9091 0.0
C93 C 0.45114 0.61891 0.9536 0.0
O94 O 0.49421 0.58141 0.89821 0.0
C95 C 0.53394 0.71528 0.94012 0.0
O96 O 0.53401 0.62526 0.91458 0.0
O97 O 0.53945 0.69662 0.95733 0.0
C98 C 0.85218 0.51109 0.31102 0.0
O99 O 0.86176 0.49374 0.32142 0.0
Cd100 Cd 0.85921 0.47112 0.38346 0.0
O101 O 0.84011 0.52033 0.33609 0.0
Cd102 Cd 0.83392 0.51402 0.41041 0.0
C103 C 0.90721 0.53753 0.42911 0.0
O104 O 0.81225 0.45939 0.40871 0.0
O105 O 0.82325 0.47866 0.46663 0.0
O106 O 0.79054 0.52124 0.4051 0.0
C107 C 0.81184 0.45507 0.44551 0.0
O108 O 0.90019 0.5106 0.4207 0.0
C109 C 0.79594 0.53613 0.43708 0.0
O110 O 0.88857 0.54656 0.42395 0.0
O111 O 0.81991 0.54235 0.45513 0.0
C112 C 0.31311 0.84068 0.80868 0.0
O113 O 0.33976 0.84604 0.81262 0.0
Cd114 Cd 0.36978 0.85924 0.87003 0.0
O115 O 0.2978 0.84088 0.8382 0.0
Cd116 Cd 0.30546 0.84715 0.91222 0.0
C117 C 0.36164 0.91972 0.9011 0.0
O118 O 0.33488 0.82271 0.91258 0.0
O119 O 0.33213 0.83983 0.96907 0.0
O120 O 0.2531 0.80704 0.91214 0.0
C121 C 0.34229 0.82637 0.94857 0.0
O122 O 0.37668 0.90802 0.88845 0.0
C123 C 0.24612 0.81473 0.94427 0.0
O124 O 0.33405 0.9032 0.91036 0.0
O125 O 0.26637 0.83858 0.96084 0.0
C126 C 0.43356 0.33237 0.31193 0.0
O127 O 0.45199 0.35953 0.32139 0.0
Cd128 Cd 0.4773 0.38048 0.38187 0.0
O129 O 0.42451 0.31113 0.33732 0.0
Cd130 Cd 0.43292 0.31151 0.41094 0.0
C131 C 0.41346 0.36432 0.43156 0.0
O132 O 0.48707 0.34371 0.40654 0.0
O133 O 0.46994 0.3355 0.46554 0.0
O134 O 0.42446 0.26011 0.40496 0.0
C135 C 0.49262 0.34772 0.4431 0.0
O136 O 0.44011 0.38356 0.42139 0.0
C137 C 0.40998 0.2507 0.43714 0.0
O138 O 0.40318 0.33611 0.42688 0.0
O139 O 0.40447 0.26889 0.45558 0.0
C140 C 0.09015 0.46181 0.80745 0.0
O141 O 0.07964 0.47842 0.81761 0.0
Cd142 Cd 0.08095 0.50105 0.87929 0.0
O143 O 0.10293 0.45348 0.83268 0.0
Cd144 Cd 0.10901 0.46055 0.90686 0.0
C145 C 0.03548 0.4347 0.92692 0.0
O146 O 0.12767 0.51449 0.90675 0.0
O147 O 0.11536 0.49381 0.96394 0.0
O148 O 0.15828 0.466 0.90847 0.0
C149 C 0.12678 0.51783 0.94364 0.0
O150 O 0.04129 0.46099 0.91699 0.0
C151 C 0.15219 0.44526 0.93344 0.0
O152 O 0.05484 0.42652 0.92246 0.0
O153 O 0.125 0.42944 0.94409 0.0
C154 C 0.63348 0.13091 0.30744 0.0
O155 O 0.60816 0.12854 0.31305 0.0
Cd156 Cd 0.57986 0.11165 0.37143 0.0
O157 O 0.64755 0.12694 0.33563 0.0
Cd158 Cd 0.63996 0.12035 0.40974 0.0
C159 C 0.58726 0.04898 0.39365 0.0
O160 O 0.61158 0.14607 0.41933 0.0
O161 O 0.60499 0.11373 0.46389 0.0
O162 O 0.69085 0.16295 0.41239 0.0
C163 C 0.59969 0.13392 0.45188 0.0
O164 O 0.57225 0.06135 0.38346 0.0
C165 C 0.69856 0.15516 0.44378 0.0
O166 O 0.61479 0.06506 0.40338 0.0
O167 O 0.67942 0.13012 0.459 0.0
C168 C 0.62257 0.49408 0.81007 0.0
O169 O 0.59583 0.4731 0.81615 0.0
Cd170 Cd 0.56902 0.45787 0.87634 0.0
O171 O 0.63963 0.5098 0.83852 0.0
Cd172 Cd 0.63491 0.50859 0.91328 0.0
C173 C 0.58152 0.52792 0.90891 0.0
O174 O 0.60379 0.45405 0.91636 0.0
O175 O 0.60781 0.47633 0.97137 0.0
O176 O 0.68612 0.51801 0.91188 0.0
C177 C 0.59712 0.45169 0.95259 0.0
O178 O 0.56475 0.50076 0.89751 0.0
C179 C 0.69448 0.53322 0.94369 0.0
O180 O 0.60949 0.5386 0.91464 0.0
O181 O 0.67572 0.53865 0.96036 0.0
C182 C 0.08684 0.63466 0.30989 0.0
O183 O 0.07828 0.60768 0.31989 0.0
Cd184 Cd 0.08211 0.58776 0.38141 0.0
O185 O 0.09861 0.65613 0.33507 0.0
Cd186 Cd 0.10613 0.65651 0.40888 0.0
C187 C 0.03347 0.60387 0.42847 0.0
O188 O 0.12858 0.62475 0.40674 0.0
O189 O 0.1179 0.63278 0.46487 0.0
O190 O 0.14959 0.70757 0.4022 0.0
C191 C 0.12935 0.62098 0.44352 0.0
O192 O 0.04111 0.58468 0.41927 0.0
C193 C 0.14463 0.71757 0.43393 0.0
O194 O 0.05148 0.63207 0.42362 0.0
O195 O 0.12068 0.69989 0.45236 0.0
C196 C 0.45978 0.13121 0.81113 0.0
O197 O 0.48254 0.12874 0.81794 0.0
Cd198 Cd 0.49454 0.11387 0.8776 0.0
O199 O 0.44139 0.12772 0.83862 0.0
Cd200 Cd 0.44111 0.12138 0.91299 0.0
C201 C 0.42508 0.05043 0.90117 0.0
O202 O 0.49521 0.14864 0.923 0.0
O203 O 0.47005 0.11732 0.96868 0.0
O204 O 0.43082 0.16258 0.91449 0.0
C205 C 0.49541 0.13754 0.95618 0.0
O206 O 0.45271 0.06342 0.8918 0.0
C207 C 0.41489 0.15422 0.9455 0.0
O208 O 0.41256 0.06588 0.90832 0.0
O209 O 0.40971 0.12949 0.96091 0.0
C210 C 0.32242 0.45343 0.314 0.0
O211 O 0.34997 0.47023 0.32238 0.0
Cd212 Cd 0.37316 0.4954 0.38224 0.0
O213 O 0.30217 0.44607 0.3403 0.0
Cd214 Cd 0.30523 0.45502 0.41408 0.0
C215 C 0.35435 0.43071 0.43237 0.0
O216 O 0.33969 0.50921 0.40803 0.0
O217 O 0.33158 0.49269 0.46742 0.0
O218 O 0.25474 0.448 0.40958 0.0
C219 C 0.34438 0.51514 0.44445 0.0
O220 O 0.37452 0.457 0.42177 0.0
C221 C 0.24597 0.43485 0.4428 0.0
O222 O 0.32663 0.42212 0.42857 0.0
O223 O 0.26409 0.42956 0.46151 0.0
C224 C 0.85568 0.33924 0.80998 0.0
O225 O 0.86452 0.36612 0.82081 0.0
Cd226 Cd 0.86093 0.38511 0.88323 0.0
O227 O 0.8439 0.31747 0.83468 0.0
Cd228 Cd 0.83703 0.31645 0.90874 0.0
C229 C 0.9097 0.36857 0.92864 0.0
O230 O 0.81423 0.34798 0.90789 0.0
O231 O 0.82528 0.33964 0.96562 0.0
O232 O 0.79423 0.26493 0.90204 0.0
C233 C 0.81357 0.35144 0.94477 0.0
O234 O 0.90209 0.38797 0.92067 0.0
C235 C 0.79999 0.25505 0.93327 0.0
O236 O 0.89165 0.34051 0.9228 0.0
O237 O 0.8239 0.27315 0.95153 0.0
C238 C 0.48642 0.83612 0.31053 0.0
O239 O 0.46297 0.8373 0.31751 0.0
Cd240 Cd 0.45248 0.8541 0.37665 0.0
O241 O 0.50551 0.84112 0.33773 0.0
Cd242 Cd 0.50643 0.84754 0.41194 0.0
C243 C 0.52287 0.91814 0.39564 0.0
O244 O 0.45259 0.82086 0.42391 0.0
O245 O 0.4789 0.85338 0.46806 0.0
O246 O 0.51568 0.80567 0.41247 0.0
C247 C 0.45322 0.83298 0.45663 0.0
O248 O 0.49513 0.90499 0.38671 0.0
C249 C 0.53263 0.81411 0.44257 0.0
O250 O 0.53516 0.9028 0.4048 0.0
O251 O 0.53873 0.83912 0.45808 0.0
C252 C 0.43198 0.33251 0.14487 0.0
O253 O 0.44934 0.35978 0.13494 0.0
Cd254 Cd 0.47369 0.38033 0.07385 0.0
O255 O 0.4236 0.31115 0.11974 0.0
Cd256 Cd 0.43142 0.31165 0.04605 0.0
C257 C 0.40937 0.36222 0.02469 0.0
O258 O 0.4856 0.34476 0.05 0.0
O259 O 0.46799 0.33616 -0.00883 0.0
O260 O 0.42396 0.26067 0.05214 0.0
C261 C 0.49083 0.34856 0.01337 0.0
O262 O 0.43603 0.38218 0.03382 0.0
C263 C 0.40942 0.25098 0.02 0.0
O264 O 0.39988 0.33429 0.03049 0.0
O265 O 0.40349 0.26883 0.0015 0.0
C266 C 0.09023 0.46135 0.63973 0.0
O267 O 0.08077 0.47885 0.6296 0.0
Cd268 Cd 0.0832 0.50156 0.56765 0.0
O269 O 0.10206 0.452 0.61445 0.0
Cd270 Cd 0.10802 0.45831 0.54015 0.0
C271 C 0.03478 0.43517 0.52212 0.0
O272 O 0.12992 0.51291 0.54192 0.0
O273 O 0.11872 0.49365 0.484 0.0
O274 O 0.15109 0.45078 0.54588 0.0
C275 C 0.13023 0.51723 0.50513 0.0
O276 O 0.04198 0.46212 0.5307 0.0
C277 C 0.14597 0.43618 0.51369 0.0
O278 O 0.05333 0.42598 0.52693 0.0
O279 O 0.12224 0.43025 0.49521 0.0
C280 C 0.6339 0.13039 0.14323 0.0
O281 O 0.60846 0.12767 0.13726 0.0
Cd282 Cd 0.58086 0.1125 0.07813 0.0
O283 O 0.64851 0.12712 0.11515 0.0
Cd284 Cd 0.64141 0.12093 0.04089 0.0
C285 C 0.5873 0.04965 0.0531 0.0
O286 O 0.61399 0.14769 0.03228 0.0
O287 O 0.60734 0.1163 -0.01367 0.0
O288 O 0.69273 0.16279 0.03917 0.0
C289 C 0.60223 0.13639 -0.0007 0.0
O290 O 0.57259 0.06235 0.06322 0.0
C291 C 0.70017 0.15516 0.00742 0.0
O292 O 0.6152 0.06539 0.04527 0.0
O293 O 0.6807 0.13047 -0.00831 0.0
C294 C 0.4913 0.6405 0.64495 0.0
O295 O 0.46935 0.6143 0.63795 0.0
Cd296 Cd 0.45335 0.58833 0.5772 0.0
O297 O 0.50798 0.65758 0.61719 0.0
Cd298 Cd 0.50755 0.65441 0.54249 0.0
C299 C 0.5216 0.59683 0.54525 0.0
O300 O 0.45356 0.62614 0.53892 0.0
O301 O 0.47483 0.62954 0.48351 0.0
O302 O 0.51899 0.70657 0.54701 0.0
C303 C 0.45061 0.61981 0.50257 0.0
O304 O 0.49436 0.58135 0.55619 0.0
C305 C 0.53472 0.71559 0.51582 0.0
O306 O 0.53407 0.6253 0.54022 0.0
O307 O 0.53962 0.69666 0.4982 0.0
C308 C 0.85176 0.51055 0.1431 0.0
O309 O 0.86155 0.49338 0.13264 0.0
Cd310 Cd 0.85891 0.47065 0.07054 0.0
O311 O 0.83937 0.51948 0.11811 0.0
Cd312 Cd 0.83287 0.51289 0.0439 0.0
C313 C 0.90609 0.53703 0.02459 0.0
O314 O 0.81173 0.45828 0.04524 0.0
O315 O 0.82235 0.47773 -0.01255 0.0
O316 O 0.78933 0.51978 0.04931 0.0
C317 C 0.81131 0.45409 0.00839 0.0
O318 O 0.89941 0.5102 0.03291 0.0
C319 C 0.79479 0.53491 0.01757 0.0
O320 O 0.88729 0.54581 0.03009 0.0
O321 O 0.8188 0.54131 -0.00043 0.0
C322 C 0.31154 0.83689 0.64533 0.0
O323 O 0.33657 0.8385 0.64021 0.0
Cd324 Cd 0.36548 0.85546 0.58231 0.0
O325 O 0.29811 0.84146 0.61685 0.0
Cd326 Cd 0.30613 0.84779 0.54285 0.0
C327 C 0.35908 0.91878 0.56028 0.0
O328 O 0.33403 0.82151 0.53381 0.0
O329 O 0.34159 0.85422 0.48935 0.0
O330 O 0.25491 0.80585 0.53965 0.0
C331 C 0.34648 0.8338 0.50156 0.0
O332 O 0.3738 0.90615 0.57075 0.0
C333 C 0.24752 0.81422 0.50849 0.0
O334 O 0.3317 0.90296 0.54984 0.0
O335 O 0.2671 0.83915 0.49347 0.0
C336 C 0.29333 0.44761 0.21007 0.0
C337 C 0.31468 0.44379 0.1892 0.0
H338 H 0.27873 0.45336 0.2674 0.0
C339 C 0.33372 0.43671 0.21019 0.0
H340 H 0.27851 0.45324 0.19448 0.0
C341 C 0.33386 0.43681 0.25133 0.0
C342 C 0.31491 0.44391 0.27241 0.0
H343 H 0.35015 0.43334 0.19477 0.0
H344 H 0.35042 0.43357 0.26666 0.0
C345 C 0.29344 0.44766 0.25169 0.0
C346 C 0.83578 0.30931 0.70525 0.0
C347 C 0.85822 0.3341 0.68432 0.0
H348 H 0.81733 0.29127 0.76263 0.0
C349 C 0.88224 0.35727 0.7053 0.0
H350 H 0.817 0.29119 0.68967 0.0
C351 C 0.88243 0.35732 0.74641 0.0
C352 C 0.8586 0.3342 0.76762 0.0
H353 H 0.90009 0.37642 0.68989 0.0
H354 H 0.90043 0.3765 0.76165 0.0
C355 C 0.83597 0.30936 0.74688 0.0
C356 C 0.46676 0.80898 0.24766 0.0
C357 C 0.49144 0.83052 0.2694 0.0
H358 H 0.44683 0.79484 0.19052 0.0
C359 C 0.5179 0.85077 0.24944 0.0
H360 H 0.44616 0.79313 0.26249 0.0
C361 C 0.51827 0.85176 0.20792 0.0
C362 C 0.49222 0.83241 0.18652 0.0
H363 H 0.53708 0.86777 0.26574 0.0
H364 H 0.5377 0.8695 0.19292 0.0
C365 C 0.46715 0.80993 0.20655 0.0
C366 C 0.64079 0.52526 0.74843 0.0
C367 C 0.63332 0.49861 0.769 0.0
H368 H 0.6439 0.54517 0.69127 0.0
C369 C 0.62913 0.4733 0.74786 0.0
H370 H 0.64363 0.54488 0.76424 0.0
C371 C 0.62932 0.47348 0.7067 0.0
C372 C 0.63368 0.49896 0.68588 0.0
H373 H 0.6232 0.45248 0.76316 0.0
H374 H 0.62351 0.45278 0.69111 0.0
C375 C 0.64096 0.52544 0.70682 0.0
C376 C 0.1064 0.66473 0.24709 0.0
C377 C 0.08355 0.64015 0.26786 0.0
H378 H 0.1252 0.68264 0.18981 0.0
C379 C 0.05917 0.6175 0.24679 0.0
H380 H 0.12546 0.68244 0.26276 0.0
C381 C 0.05902 0.61762 0.20568 0.0
C382 C 0.08325 0.6404 0.18462 0.0
H383 H 0.04105 0.59853 0.26211 0.0
H384 H 0.04079 0.59874 0.19031 0.0
C385 C 0.10625 0.66485 0.20547 0.0
C386 C 0.48059 0.15959 0.74949 0.0
C387 C 0.45543 0.13784 0.77017 0.0
H388 H 0.50134 0.17515 0.69314 0.0
C389 C 0.42908 0.11855 0.74922 0.0
H390 H 0.5011 0.17475 0.7651 0.0
C391 C 0.42921 0.11878 0.70764 0.0
C392 C 0.4557 0.13828 0.68716 0.0
H393 H 0.40953 0.1014 0.76468 0.0
H394 H 0.40975 0.10179 0.69179 0.0
C395 C 0.48072 0.15982 0.70836 0.0
C396 C 0.47061 0.64711 0.70696 0.0
C397 C 0.49568 0.65082 0.68621 0.0
H398 H 0.44999 0.64177 0.76337 0.0
C399 C 0.52188 0.65776 0.7071 0.0
H400 H 0.45018 0.64173 0.69137 0.0
C401 C 0.52178 0.6578 0.74868 0.0
C402 C 0.49546 0.65088 0.7692 0.0
H403 H 0.54132 0.66032 0.69153 0.0
H404 H 0.54114 0.66038 0.76453 0.0
C405 C 0.4705 0.64714 0.74807 0.0
C406 C 0.87934 0.52193 0.24758 0.0
C407 C 0.85479 0.51923 0.26872 0.0
H408 H 0.89773 0.52199 0.19113 0.0
C409 C 0.83134 0.51941 0.24788 0.0
H410 H 0.89792 0.52228 0.26289 0.0
C411 C 0.83122 0.51924 0.20623 0.0
C412 C 0.85455 0.51888 0.18537 0.0
H413 H 0.81211 0.51726 0.26358 0.0
H414 H 0.81192 0.51698 0.19059 0.0
C415 C 0.87922 0.52176 0.20646 0.0
C416 C 0.30054 0.80863 0.70772 0.0
C417 C 0.29969 0.83134 0.68583 0.0
H418 H 0.30455 0.79353 0.76506 0.0
C419 C 0.29541 0.85292 0.70557 0.0
H420 H 0.30395 0.79185 0.69302 0.0
C421 C 0.29583 0.85393 0.74709 0.0
C422 C 0.30035 0.83324 0.76871 0.0
H423 H 0.29514 0.87089 0.68917 0.0
H424 H 0.29589 0.87264 0.76193 0.0
C425 C 0.30085 0.80957 0.74886 0.0
C426 C 0.42098 0.34831 0.24948 0.0
C427 C 0.42411 0.32641 0.27015 0.0
H428 H 0.42025 0.36678 0.19328 0.0
C429 C 0.4236 0.30258 0.24903 0.0
H430 H 0.42092 0.3667 0.26511 0.0
C431 C 0.42324 0.30264 0.20743 0.0
C432 C 0.4234 0.32653 0.18694 0.0
H433 H 0.42611 0.2855 0.2644 0.0
H434 H 0.42547 0.28558 0.1915 0.0
C435 C 0.4206 0.34836 0.20836 0.0
C436 C 0.0627 0.44952 0.70291 0.0
C437 C 0.08763 0.45303 0.68193 0.0
H438 H 0.04386 0.44882 0.75925 0.0
C439 C 0.11142 0.45363 0.7029 0.0
H440 H 0.04389 0.4486 0.68746 0.0
C441 C 0.11143 0.4538 0.74455 0.0
C442 C 0.08765 0.45337 0.76525 0.0
H443 H 0.13095 0.45644 0.6873 0.0
H444 H 0.13096 0.45672 0.7603 0.0
C445 C 0.0627 0.44967 0.74403 0.0
C446 C 0.64327 0.15969 0.24571 0.0
C447 C 0.64525 0.13733 0.26688 0.0
H448 H 0.639 0.17533 0.18893 0.0
C449 C 0.65104 0.117 0.24644 0.0
H450 H 0.6388 0.17557 0.26094 0.0
C451 C 0.65113 0.11685 0.20488 0.0
C452 C 0.64546 0.13704 0.18391 0.0
H453 H 0.65227 0.09934 0.26228 0.0
H454 H 0.65243 0.09907 0.18942 0.0
C455 C 0.64338 0.15955 0.20457 0.0
C456 C 0.20364 0.46996 0.96067 0.0
C457 C 0.17646 0.44324 0.95354 0.0
H458 H 0.24679 0.49063 -0.01203 0.0
C459 C 0.17253 0.41583 0.9681 0.0
H460 H 0.20718 0.49146 0.95025 0.0
C461 C 0.19577 0.41528 -0.01106 0.0
C462 C 0.22255 0.4423 -0.00309 0.0
H463 H 0.15167 0.39496 0.96315 0.0
H464 H 0.19262 0.39398 -0.00046 0.0
C465 C 0.22619 0.46955 -0.01736 0.0
C466 C 0.75155 0.19724 0.44125 0.0
C467 C 0.72698 0.17632 0.46372 0.0
H468 H 0.79411 0.23799 0.44125 0.0
C469 C 0.72826 0.17895 0.50516 0.0
H470 H 0.7511 0.19569 0.40926 0.0
C471 C 0.75259 0.20365 0.5235 0.0
C472 C 0.77635 0.22563 0.50075 0.0
H473 H 0.70949 0.16322 0.52313 0.0
H474 H 0.75214 0.2063 0.55525 0.0
C475 C 0.7762 0.22142 0.45963 0.0
C476 C 0.54154 0.77108 0.01806 0.0
C477 C 0.5395 0.79276 -0.00489 0.0
H478 H 0.54252 0.72991 0.01838 0.0
C479 C 0.54093 0.79143 0.9537 0.0
H480 H 0.54058 0.77164 0.05005 0.0
C481 C 0.54137 0.76718 0.93554 0.0
C482 C 0.54119 0.7443 0.95851 0.0
H483 H 0.53929 0.80777 0.93526 0.0
H484 H 0.54017 0.76547 0.90357 0.0
C485 C 0.54279 0.74727 -9e-05 0.0
C486 C 0.72601 0.54117 0.45057 0.0
C487 C 0.72403 0.54122 0.49205 0.0
H488 H 0.75038 0.53919 0.40042 0.0
C489 C 0.7479 0.54378 0.51484 0.0
H490 H 0.70783 0.539 0.43228 0.0
C491 C 0.77255 0.54461 0.49658 0.0
C492 C 0.77339 0.54203 0.45524 0.0
H493 H 0.74694 0.54387 0.54686 0.0
H494 H 0.78995 0.54521 0.51506 0.0
C495 C 0.75029 0.54116 0.43233 0.0
C496 C 0.21524 0.79249 0.00512 0.0
C497 C 0.21714 0.79454 0.96365 0.0
H498 H 0.19009 0.76641 0.05525 0.0
C499 C 0.1924 0.77405 0.94095 0.0
H500 H 0.23405 0.80792 0.02334 0.0
C501 C 0.16699 0.75077 0.95923 0.0
C502 C 0.16618 0.74704 0.0005 0.0
H503 H 0.19326 0.77518 0.90892 0.0
H504 H 0.14894 0.7344 0.94076 0.0
C505 C 0.19012 0.7687 0.02339 0.0
C506 C 0.40302 0.1951 0.51504 0.0
C507 C 0.40623 0.17398 0.49245 0.0
H508 H 0.4006 0.23542 0.515 0.0
C509 C 0.40605 0.17572 0.45097 0.0
H510 H 0.40308 0.19422 0.54707 0.0
C511 C 0.4054 0.19979 0.43254 0.0
C512 C 0.40411 0.22202 0.45529 0.0
H513 H 0.4087 0.15982 0.43289 0.0
H514 H 0.40736 0.2018 0.40063 0.0
C515 C 0.40154 0.21864 0.49662 0.0
C516 C 0.77148 0.54373 0.95825 0.0
C517 C 0.77228 0.54094 -0.00044 0.0
H518 H 0.74589 0.54322 0.90803 0.0
C519 C 0.74921 0.54001 0.02252 0.0
H520 H 0.78888 0.5444 0.93975 0.0
C521 C 0.72495 0.54013 0.00434 0.0
C522 C 0.72298 0.54035 0.96287 0.0
H523 H 0.74928 0.5379 0.05441 0.0
H524 H 0.70676 0.53789 0.02264 0.0
C525 C 0.74685 0.54301 0.94005 0.0
C526 C 0.19187 0.76786 0.42897 0.0
C527 C 0.16788 0.74626 0.45179 0.0
H528 H 0.2358 0.80718 0.42923 0.0
C529 C 0.16861 0.75011 0.49303 0.0
H530 H 0.1919 0.76547 0.39713 0.0
C531 C 0.19396 0.77347 0.51137 0.0
C532 C 0.2187 0.79394 0.48878 0.0
H533 H 0.15054 0.73381 0.51145 0.0
H534 H 0.19475 0.77471 0.54339 0.0
C535 C 0.21694 0.79177 0.44731 0.0
C536 C 0.40651 0.17648 0.00648 0.0
C537 C 0.40638 0.17449 0.96501 0.0
H538 H 0.40784 0.20269 0.05671 0.0
C539 C 0.40267 0.19526 0.94236 0.0
H540 H 0.40955 0.16085 0.02461 0.0
C541 C 0.401 0.21873 0.9607 0.0
C542 C 0.40386 0.22236 0.002 0.0
H543 H 0.40247 0.19418 0.91033 0.0
H544 H 0.39966 0.23524 0.94228 0.0
C545 C 0.40565 0.20047 0.02483 0.0
C546 C 0.17011 0.42796 0.45476 0.0
C547 C 0.16851 0.43005 0.49608 0.0
H548 H 0.19618 0.42816 0.40534 0.0
C549 C 0.19079 0.42999 0.51974 0.0
H550 H 0.15333 0.42813 0.43575 0.0
C551 C 0.21496 0.4293 0.50232 0.0
C552 C 0.21769 0.42949 0.46091 0.0
H553 H 0.19011 0.43157 0.55165 0.0
H554 H 0.23243 0.43052 0.52127 0.0
C555 C 0.19467 0.42809 0.43731 0.0
C556 C 0.77778 0.22139 -0.00821 0.0
C557 C 0.77774 0.22577 0.95074 0.0
H558 H 0.75289 0.19544 0.04204 0.0
C559 C 0.75395 0.20385 0.9279 0.0
H560 H 0.79574 0.2379 0.01021 0.0
C561 C 0.72972 0.17906 0.94614 0.0
C562 C 0.72857 0.17628 -0.01245 0.0
H563 H 0.75338 0.20662 0.8962 0.0
H564 H 0.71089 0.1634 0.92812 0.0
C565 C 0.75323 0.19711 0.01007 0.0
C566 C 0.54247 0.79214 0.50266 0.0
C567 C 0.54113 0.79353 0.46126 0.0
H568 H 0.54135 0.76594 0.5527 0.0
C569 C 0.54303 0.77179 0.43826 0.0
H570 H 0.5409 0.80853 0.52109 0.0
C571 C 0.54404 0.74784 0.45631 0.0
C572 C 0.5423 0.74477 0.49768 0.0
H573 H 0.5421 0.7724 0.40626 0.0
H574 H 0.54366 0.73046 0.43776 0.0
C575 C 0.54265 0.76773 0.52074 0.0
C576 C 0.38623 0.4169 -0.00725 0.0
C577 C 0.35925 0.40615 0.0135 0.0
H578 H 0.423 0.41063 -0.02083 0.0
C579 C 0.34525 0.37689 0.02945 0.0
H580 H 0.39735 0.43929 -0.02007 0.0
C581 C 0.36008 0.36034 0.02906 0.0
C582 C 0.38896 0.37303 0.01275 0.0
H583 H 0.32452 0.36819 0.04582 0.0
H584 H 0.35042 0.33924 0.0451 0.0
C585 C 0.40093 0.4005 -0.00765 0.0
C586 C -0.01328 0.42582 0.49339 0.0
C587 C 0.00315 0.41416 0.51147 0.0
H588 H 0.94357 0.42014 0.48217 0.0
C589 C -0.01219 0.38438 0.52578 0.0
H590 H -0.00203 0.44854 0.48162 0.0
C591 C 0.95634 0.36795 0.52611 0.0
C592 C 0.94006 0.38121 0.51212 0.0
H593 H -5e-05 0.37487 0.53995 0.0
H594 H 0.94495 0.34616 0.54053 0.0
C595 C 0.95555 0.40954 0.4937 0.0
C596 C 0.52372 0.96891 0.05541 0.0
C597 C 0.5383 0.95231 0.05072 0.0
H598 H 0.52745 0.01193 0.05962 0.0
C599 C 0.56954 0.96806 0.04507 0.0
H600 H 0.49968 0.95773 0.05942 0.0
C601 C 0.5858 -0.0002 0.0452 0.0
C602 C 0.57103 0.0162 0.05098 0.0
H603 H 0.58144 0.95594 0.04132 0.0
H604 H 0.60987 0.01142 0.04144 0.0
C605 C 0.53977 0.00024 0.05555 0.0
C606 C 0.53677 0.53267 0.53626 0.0
C607 C 0.56805 0.54712 0.53999 0.0
H608 H 0.498 0.53694 0.53431 0.0
C609 C 0.58464 0.57885 0.54142 0.0
H610 H 0.52326 0.50833 0.53435 0.0
C611 C 0.5699 0.59556 0.54142 0.0
C612 C 0.53841 0.58071 0.53999 0.0
H613 H 0.6088 0.59063 0.54419 0.0
H614 H 0.583 0.61986 0.5442 0.0
C615 C 0.52222 0.54917 0.53624 0.0
C616 C 0.95257 0.5882 0.02785 0.0
C617 C 0.93746 0.55844 0.0134 0.0
H618 H -0.0047 0.62678 0.04228 0.0
C619 C 0.95402 0.54723 -0.00541 0.0
H620 H 0.94032 0.59736 0.04255 0.0
C621 C -0.01482 0.56393 -0.00563 0.0
C622 C 0.0005 0.59221 0.01299 0.0
H623 H 0.94294 0.52453 -0.0173 0.0
H624 H -0.00268 0.55365 -0.01764 0.0
C625 C -0.01598 0.60505 0.02766 0.0
C626 C 0.37589 -0.0002 0.54919 0.0
C627 C 0.40616 0.01614 0.56083 0.0
H628 H 0.33704 0.95607 0.53976 0.0
C629 C 0.42025 0.00011 0.57254 0.0
H630 H 0.36436 0.01145 0.53999 0.0
C631 C 0.40478 0.96875 0.57242 0.0
C632 C 0.37464 0.95225 0.56057 0.0
H633 H 0.44348 0.01176 0.58179 0.0
H634 H 0.4167 0.95748 0.58157 0.0
C635 C 0.36025 0.9681 0.54904 0.0
C636 C 0.52185 0.549 0.91767 0.0
C637 C 0.53816 0.58056 0.91427 0.0
H638 H 0.52269 0.50807 0.91924 0.0
C639 C 0.56965 0.59532 0.91305 0.0
H640 H 0.49763 0.53685 0.91944 0.0
C641 C 0.58428 0.57851 0.91298 0.0
C642 C 0.56757 0.54678 0.91409 0.0
H643 H 0.58283 0.61963 0.91055 0.0
H644 H 0.60844 0.59022 0.91043 0.0
C645 C 0.53629 0.53241 0.91756 0.0
C646 C 0.95405 0.58845 0.42561 0.0
C647 C 0.93877 0.55869 0.43999 0.0
H648 H -0.00311 0.62677 0.41099 0.0
C649 C 0.95523 0.5472 0.45841 0.0
H650 H 0.94188 0.59783 0.41119 0.0
C651 C -0.01359 0.56363 0.45834 0.0
C652 C 0.00186 0.59192 0.43984 0.0
H653 H 0.94404 0.5245 0.47024 0.0
H654 H -0.00157 0.55313 0.47008 0.0
C655 C -0.01448 0.60502 0.42553 0.0
C656 C 0.42347 0.00123 0.89848 0.0
C657 C 0.40803 0.01698 0.90323 0.0
H658 H 0.42121 0.95886 0.89456 0.0
C659 C 0.37684 0.00038 0.90927 0.0
H660 H 0.44751 0.01308 0.89419 0.0
C661 C 0.36146 0.96866 0.90953 0.0
C662 C 0.37707 0.95311 0.90371 0.0
H663 H 0.36429 0.01184 0.91318 0.0
H664 H 0.3374 0.95638 0.91349 0.0
C665 C 0.40828 0.9699 0.89872 0.0
C666 C 0.39246 0.42106 0.46212 0.0
C667 C 0.36433 0.40948 0.44404 0.0
H668 H 0.42979 0.41516 0.47327 0.0
C669 C 0.3495 0.37959 0.43009 0.0
H670 H 0.40424 0.4439 0.47355 0.0
C671 C 0.36428 0.36297 0.42989 0.0
C672 C 0.39394 0.37619 0.44366 0.0
H673 H 0.32783 0.37017 0.41588 0.0
H674 H 0.35366 0.34114 0.41552 0.0
C675 C 0.40709 0.40459 0.46197 0.0
C676 C -0.01182 0.42439 0.95875 0.0
C677 C 0.00437 0.41318 0.93897 0.0
H678 H 0.94515 0.4184 0.97181 0.0
C679 C -0.01108 0.38368 0.92371 0.0
H680 H -0.00044 0.44693 0.97116 0.0
C681 C 0.95745 0.36719 0.92404 0.0
C682 C 0.94133 0.38014 0.93963 0.0
H683 H 0.0009 0.37459 0.90814 0.0
H684 H 0.9459 0.34572 0.90878 0.0
C685 C 0.95701 0.40805 0.95909 0.0
C686 C 0.57074 0.96813 0.40602 0.0
C687 C 0.54035 0.95162 0.39495 0.0
H688 H 0.60965 0.012 0.4144 0.0
C689 C 0.5261 0.96748 0.38319 0.0
H690 H 0.58239 0.9566 0.41523 0.0
C691 C 0.54153 -0.00117 0.38269 0.0
C692 C 0.5718 0.01552 0.39396 0.0
H693 H 0.50277 0.95571 0.37436 0.0
H694 H 0.52948 0.00996 0.37352 0.0
C695 C 0.58634 -0.00017 0.40555 0.0
C696 C 0.41985 0.58822 0.01072 0.0
C697 C 0.42291 0.59413 0.96994 0.0
H698 H 0.39307 0.55834 0.05701 0.0
C699 C 0.39962 0.57463 0.94437 0.0
H700 H 0.43739 0.6029 0.0311 0.0
C701 C 0.37452 0.54883 0.95907 0.0
C702 C 0.37194 0.54239 -0.00032 0.0
H703 H 0.40128 0.57859 0.91276 0.0
H704 H 0.35741 0.53364 0.93856 0.0
C705 C 0.39446 0.56273 0.02551 0.0
C706 C 0.80658 0.37902 0.45076 0.0
C707 C 0.80734 0.37512 0.49178 0.0
H708 H 0.80682 0.40714 0.40392 0.0
C709 C 0.80624 0.39609 0.51745 0.0
H710 H 0.80724 0.36315 0.43028 0.0
C711 C 0.80637 0.42149 0.5024 0.0
C712 C 0.80717 0.42619 0.46139 0.0
H713 H 0.80674 0.3937 0.54924 0.0
H714 H 0.80686 0.43794 0.52289 0.0
C715 C 0.80628 0.4042 0.43571 0.0
C716 C 0.37185 0.8215 0.00361 0.0
C717 C 0.36718 0.82265 0.96293 0.0
H718 H 0.40026 0.82053 0.0488 0.0
C719 C 0.38771 0.82224 0.93602 0.0
H720 H 0.35628 0.82159 0.02495 0.0
C721 C 0.41333 0.82244 0.94963 0.0
C722 C 0.41846 0.82222 -0.00964 0.0
H723 H 0.38466 0.823 0.90443 0.0
H724 H 0.42937 0.8233 0.92833 0.0
C725 C 0.39703 0.82086 0.01719 0.0
C726 C 0.52849 0.37511 0.49827 0.0
C727 C 0.52181 0.37219 0.45769 0.0
H728 H 0.55839 0.40242 0.54423 0.0
C729 C 0.54211 0.39442 0.43154 0.0
H730 H 0.51333 0.35828 0.51906 0.0
C731 C 0.56768 0.41997 0.44597 0.0
C732 C 0.5737 0.4235 0.48673 0.0
H733 H 0.53757 0.3928 0.40006 0.0
H734 H 0.58229 0.43733 0.42533 0.0
C735 C 0.55433 0.40039 0.51262 0.0
C736 C 0.13303 0.56901 0.93507 0.0
C737 C 0.13113 0.54635 0.96031 0.0
H738 H 0.13335 0.61073 0.93039 0.0
C739 C 0.13116 0.55033 0.00141 0.0
H740 H 0.13313 0.56665 0.90323 0.0
C741 C 0.13172 0.57581 0.01694 0.0
C742 C 0.13178 0.59756 -0.00838 0.0
H743 H 0.1299 0.53333 0.02155 0.0
H744 H 0.13069 0.57774 0.04874 0.0
C745 C 0.13314 0.59426 0.95058 0.0
C746 C 0.52035 0.10745 0.48309 0.0
C747 C 0.52044 0.13474 0.48589 0.0
H748 H 0.54586 0.08602 0.47145 0.0
C749 C 0.54708 0.162 0.47878 0.0
H750 H 0.50016 0.0862 0.48921 0.0
C751 C 0.57311 0.16186 0.46787 0.0
C752 C 0.57308 0.13457 0.46571 0.0
H753 H 0.54764 0.18328 0.48132 0.0
H754 H 0.59331 0.18303 0.46149 0.0
C755 C 0.54654 0.10739 0.47359 0.0
C756 C 0.52646 0.37529 0.9578 0.0
C757 C 0.52 0.37276 -0.00159 0.0
H758 H 0.55631 0.40199 0.91153 0.0
C759 C 0.54061 0.39507 0.02431 0.0
H760 H 0.51105 0.35838 0.9372 0.0
C761 C 0.56629 0.4203 0.00958 0.0
C762 C 0.57213 0.42343 0.96878 0.0
H763 H 0.53625 0.39376 0.0558 0.0
H764 H 0.58116 0.43773 0.03002 0.0
C765 C 0.55242 0.40024 0.94315 0.0
C766 C 0.13538 0.57611 0.43342 0.0
C767 C 0.13442 0.59708 0.45924 0.0
H768 H 0.13475 0.53427 0.42776 0.0
C769 C 0.13549 0.59325 0.50022 0.0
H770 H 0.13464 0.57846 0.40166 0.0
C771 C 0.13592 0.56811 0.51512 0.0
C772 C 0.13486 0.5461 0.48933 0.0
H773 H 0.13496 0.60913 0.5208 0.0
H774 H 0.1356 0.56521 0.5469 0.0
C775 C 0.13538 0.55075 0.44834 0.0
C776 C 0.57527 0.16448 -0.01326 0.0
C777 C 0.57558 0.13731 -0.01374 0.0
H778 H 0.54933 0.18592 0.97672 0.0
C779 C 0.5492 0.11033 0.97696 0.0
H780 H 0.59533 0.18547 -0.00574 0.0
C781 C 0.52283 0.11044 0.96877 0.0
C782 C 0.52258 0.1376 0.96879 0.0
H783 H 0.54874 0.08902 0.97708 0.0
H784 H 0.50276 0.08935 0.96157 0.0
C785 C 0.54905 0.16471 -0.02282 0.0
C786 C 0.41824 0.5888 0.44607 0.0
C787 C 0.42178 0.59555 0.48666 0.0
H788 H 0.39057 0.55828 0.4007 0.0
C789 C 0.39828 0.57727 0.51264 0.0
H790 H 0.4359 0.60256 0.42536 0.0
C791 C 0.37257 0.5517 0.49868 0.0
C792 C 0.36958 0.54422 0.45836 0.0
H793 H 0.40027 0.58191 0.54411 0.0
H794 H 0.35539 0.53734 0.51961 0.0
C795 C 0.39225 0.5635 0.43199 0.0
C796 C 0.80661 0.39585 0.93574 0.0
C797 C 0.80824 0.37503 0.96112 0.0
H798 H 0.80635 0.43728 0.93084 0.0
C799 C 0.80753 0.37874 0.00219 0.0
H800 H 0.80705 0.3936 0.90392 0.0
C801 C 0.80675 0.4036 0.01759 0.0
C802 C 0.80711 0.42546 -0.00781 0.0
H803 H 0.80859 0.36299 0.02246 0.0
H804 H 0.80735 0.40642 0.0494 0.0
C805 C 0.80626 0.42092 0.95113 0.0
C806 C 0.42661 0.8602 0.47444 0.0
C807 C 0.42617 0.83282 0.47033 0.0
H808 H 0.40125 0.88181 0.48618 0.0
C809 C 0.39911 0.80557 0.4754 0.0
H810 H 0.44713 0.88149 0.46989 0.0
C811 C 0.37295 0.80576 0.48545 0.0
C812 C 0.37332 0.83317 0.48876 0.0
H813 H 0.39828 0.78421 0.47181 0.0
H814 H 0.35239 0.78455 0.49018 0.0
C815 C 0.40032 0.86037 0.48307 0.0
loop_
_geom_bond_atom_site_label_1
_geom_bond_atom_site_label_2
_geom_bond_distance
_geom_bond_site_symmetry_2
_ccdc_geom_bond_type
C0 O1 1.306 . S
C0 O3 1.160 . S
O1 C0 1.306 . S
O1 Cd2 2.228 . S
Cd2 O1 2.228 . S
Cd2 O6 2.273 . S
Cd2 O10 2.277 . S
O3 C0 1.160 . S
O3 Cd4 2.203 . S
Cd4 O3 2.203 . S
Cd4 O6 2.411 . S
Cd4 O7 2.333 . S
Cd4 O8 2.352 . S
Cd4 O12 2.277 . S
Cd4 O13 2.356 . S
C5 O10 1.209 . S
C5 O12 1.226 . S
O6 Cd2 2.273 . S
O6 Cd4 2.411 . S
O6 C9 1.320 . S
O7 Cd4 2.333 . S
O7 C9 1.214 . S
O8 Cd4 2.352 . S
O8 C11 1.258 . S
C9 O6 1.320 . S
C9 O7 1.214 . S
O10 Cd2 2.277 . S
O10 C5 1.209 . S
C11 O8 1.258 . S
C11 O13 1.282 . S
O12 Cd4 2.277 . S
O12 C5 1.226 . S
O13 Cd4 2.356 . S
O13 C11 1.282 . S
C14 O15 1.306 . S
C14 O17 1.160 . S
O15 C14 1.306 . S
O15 Cd16 2.228 . S
Cd16 O15 2.228 . S
Cd16 O20 2.273 . S
Cd16 O24 2.277 . S
O17 C14 1.160 . S
O17 Cd18 2.203 . S
Cd18 O17 2.203 . S
Cd18 O20 2.411 . S
Cd18 O21 2.333 . S
Cd18 O22 2.352 . S
Cd18 O26 2.277 . S
Cd18 O27 2.356 . S
C19 O24 1.209 . S
C19 O26 1.226 . S
O20 Cd16 2.273 . S
O20 Cd18 2.411 . S
O20 C23 1.320 . S
O21 Cd18 2.333 . S
O21 C23 1.214 . S
O22 Cd18 2.352 . S
O22 C25 1.258 . S
C23 O20 1.320 . S
C23 O21 1.214 . S
O24 Cd16 2.277 . S
O24 C19 1.209 . S
C25 O22 1.258 . S
C25 O27 1.282 . S
O26 Cd18 2.277 . S
O26 C19 1.226 . S
O27 Cd18 2.356 . S
O27 C25 1.282 . S
C28 O29 1.306 . S
C28 O31 1.160 . S
O29 C28 1.306 . S
O29 Cd30 2.228 . S
Cd30 O29 2.228 . S
Cd30 O34 2.273 . S
Cd30 O38 2.277 . S
O31 C28 1.160 . S
O31 Cd32 2.203 . S
Cd32 O31 2.203 . S
Cd32 O34 2.411 . S
Cd32 O35 2.333 . S
Cd32 O36 2.352 . S
Cd32 O40 2.277 . S
Cd32 O41 2.356 . S
C33 O38 1.209 . S
C33 O40 1.226 . S
O34 Cd30 2.273 . S
O34 Cd32 2.411 . S
O34 C37 1.320 . S
O35 Cd32 2.333 . S
O35 C37 1.214 . S
O36 Cd32 2.352 . S
O36 C39 1.258 . S
C37 O34 1.320 . S
C37 O35 1.214 . S
O38 Cd30 2.277 . S
O38 C33 1.209 . S
C39 O36 1.258 . S
C39 O41 1.282 . S
O40 Cd32 2.277 . S
O40 C33 1.226 . S
O41 Cd32 2.356 . S
O41 C39 1.282 . S
C42 O43 1.306 . S
C42 O45 1.160 . S
O43 C42 1.306 . S
O43 Cd44 2.228 . S
Cd44 O43 2.228 . S
Cd44 O48 2.273 . S
Cd44 O52 2.277 . S
O45 C42 1.160 . S
O45 Cd46 2.203 . S
Cd46 O45 2.203 . S
Cd46 O48 2.411 . S
Cd46 O49 2.333 . S
Cd46 O50 2.352 . S
Cd46 O54 2.277 . S
Cd46 O55 2.356 . S
C47 O52 1.209 . S
C47 O54 1.226 . S
O48 Cd44 2.273 . S
O48 Cd46 2.411 . S
O48 C51 1.320 . S
O49 Cd46 2.333 . S
O49 C51 1.214 . S
O50 Cd46 2.352 . S
O50 C53 1.258 . S
C51 O48 1.320 . S
C51 O49 1.214 . S
O52 Cd44 2.277 . S
O52 C47 1.209 . S
C53 O50 1.258 . S
C53 O55 1.282 . S
O54 Cd46 2.277 . S
O54 C47 1.226 . S
O55 Cd46 2.356 . S
O55 C53 1.282 . S
C56 O57 1.306 . S
C56 O59 1.160 . S
O57 C56 1.306 . S
O57 Cd58 2.228 . S
Cd58 O57 2.228 . S
Cd58 O62 2.273 . S
Cd58 O66 2.277 . S
O59 C56 1.160 . S
O59 Cd60 2.203 . S
Cd60 O59 2.203 . S
Cd60 O62 2.411 . S
Cd60 O63 2.333 . S
Cd60 O64 2.352 . S
Cd60 O68 2.277 . S
Cd60 O69 2.356 . S
C61 O66 1.209 . S
C61 O68 1.226 . S
O62 Cd58 2.273 . S
O62 Cd60 2.411 . S
O62 C65 1.320 . S
O63 Cd60 2.333 . S
O63 C65 1.214 . S
O64 Cd60 2.352 . S
O64 C67 1.258 . S
C65 O62 1.320 . S
C65 O63 1.214 . S
O66 Cd58 2.277 . S
O66 C61 1.209 . S
C67 O64 1.258 . S
C67 O69 1.282 . S
O68 Cd60 2.277 . S
O68 C61 1.226 . S
O69 Cd60 2.356 . S
O69 C67 1.282 . S
C70 O71 1.306 . S
C70 O73 1.160 . S
O71 C70 1.306 . S
O71 Cd72 2.228 . S
Cd72 O71 2.228 . S
Cd72 O76 2.273 . S
Cd72 O80 2.277 . S
O73 C70 1.160 . S
O73 Cd74 2.203 . S
Cd74 O73 2.203 . S
Cd74 O76 2.411 . S
Cd74 O77 2.333 . S
Cd74 O78 2.352 . S
Cd74 O82 2.277 . S
Cd74 O83 2.356 . S
C75 O80 1.209 . S
C75 O82 1.226 . S
O76 Cd72 2.273 . S
O76 Cd74 2.411 . S
O76 C79 1.320 . S
O77 Cd74 2.333 . S
O77 C79 1.214 . S
O78 Cd74 2.352 . S
O78 C81 1.258 . S
C79 O76 1.320 . S
C79 O77 1.214 . S
O80 Cd72 2.277 . S
O80 C75 1.209 . S
C81 O78 1.258 . S
C81 O83 1.282 . S
O82 Cd74 2.277 . S
O82 C75 1.226 . S
O83 Cd74 2.356 . S
O83 C81 1.282 . S
C84 O85 1.306 . S
C84 O87 1.160 . S
O85 C84 1.306 . S
O85 Cd86 2.228 . S
Cd86 O85 2.228 . S
Cd86 O90 2.273 . S
Cd86 O94 2.277 . S
O87 C84 1.160 . S
O87 Cd88 2.203 . S
Cd88 O87 2.203 . S
Cd88 O90 2.411 . S
Cd88 O91 2.333 . S
Cd88 O92 2.352 . S
Cd88 O96 2.277 . S
Cd88 O97 2.356 . S
C89 O94 1.209 . S
C89 O96 1.226 . S
O90 Cd86 2.273 . S
O90 Cd88 2.411 . S
O90 C93 1.320 . S
O91 Cd88 2.333 . S
O91 C93 1.214 . S
O92 Cd88 2.352 . S
O92 C95 1.258 . S
C93 O90 1.320 . S
C93 O91 1.214 . S
O94 Cd86 2.277 . S
O94 C89 1.209 . S
C95 O92 1.258 . S
C95 O97 1.282 . S
O96 Cd88 2.277 . S
O96 C89 1.226 . S
O97 Cd88 2.356 . S
O97 C95 1.282 . S
C98 O99 1.306 . S
C98 O101 1.160 . S
O99 C98 1.306 . S
O99 Cd100 2.228 . S
Cd100 O99 2.228 . S
Cd100 O104 2.273 . S
Cd100 O108 2.277 . S
O101 C98 1.160 . S
O101 Cd102 2.203 . S
Cd102 O101 2.203 . S
Cd102 O104 2.411 . S
Cd102 O105 2.333 . S
Cd102 O106 2.352 . S
Cd102 O110 2.277 . S
Cd102 O111 2.356 . S
C103 O108 1.209 . S
C103 O110 1.226 . S
O104 Cd100 2.273 . S
O104 Cd102 2.411 . S
O104 C107 1.320 . S
O105 Cd102 2.333 . S
O105 C107 1.214 . S
O106 Cd102 2.352 . S
O106 C109 1.258 . S
C107 O104 1.320 . S
C107 O105 1.214 . S
O108 Cd100 2.277 . S
O108 C103 1.209 . S
C109 O106 1.258 . S
C109 O111 1.282 . S
O110 Cd102 2.277 . S
O110 C103 1.226 . S
O111 Cd102 2.356 . S
O111 C109 1.282 . S
C112 O113 1.306 . S
C112 O115 1.160 . S
O113 C112 1.306 . S
O113 Cd114 2.228 . S
Cd114 O113 2.228 . S
Cd114 O118 2.273 . S
Cd114 O122 2.277 . S
O115 C112 1.160 . S
O115 Cd116 2.203 . S
Cd116 O115 2.203 . S
Cd116 O118 2.411 . S
Cd116 O119 2.333 . S
Cd116 O120 2.352 . S
Cd116 O124 2.277 . S
Cd116 O125 2.356 . S
C117 O122 1.209 . S
C117 O124 1.226 . S
O118 Cd114 2.273 . S
O118 Cd116 2.411 . S
O118 C121 1.320 . S
O119 Cd116 2.333 . S
O119 C121 1.214 . S
O120 Cd116 2.352 . S
O120 C123 1.258 . S
C121 O118 1.320 . S
C121 O119 1.214 . S
O122 Cd114 2.277 . S
O122 C117 1.209 . S
C123 O120 1.258 . S
C123 O125 1.282 . S
O124 Cd116 2.277 . S
O124 C117 1.226 . S
O125 Cd116 2.356 . S
O125 C123 1.282 . S
C126 O127 1.306 . S
C126 O129 1.160 . S
O127 C126 1.306 . S
O127 Cd128 2.228 . S
Cd128 O127 2.228 . S
Cd128 O132 2.273 . S
Cd128 O136 2.277 . S
O129 C126 1.160 . S
O129 Cd130 2.203 . S
Cd130 O129 2.203 . S
Cd130 O132 2.411 . S
Cd130 O133 2.333 . S
Cd130 O134 2.352 . S
Cd130 O138 2.277 . S
Cd130 O139 2.356 . S
C131 O136 1.209 . S
C131 O138 1.226 . S
O132 Cd128 2.273 . S
O132 Cd130 2.411 . S
O132 C135 1.320 . S
O133 Cd130 2.333 . S
O133 C135 1.214 . S
O134 Cd130 2.352 . S
O134 C137 1.258 . S
C135 O132 1.320 . S
C135 O133 1.214 . S
O136 Cd128 2.277 . S
O136 C131 1.209 . S
C137 O134 1.258 . S
C137 O139 1.282 . S
O138 Cd130 2.277 . S
O138 C131 1.226 . S
O139 Cd130 2.356 . S
O139 C137 1.282 . S
C140 O141 1.306 . S
C140 O143 1.160 . S
O141 C140 1.306 . S
O141 Cd142 2.228 . S
Cd142 O141 2.228 . S
Cd142 O146 2.273 . S
Cd142 O150 2.277 . S
O143 C140 1.160 . S
O143 Cd144 2.203 . S
Cd144 O143 2.203 . S
Cd144 O146 2.411 . S
Cd144 O147 2.333 . S
Cd144 O148 2.352 . S
Cd144 O152 2.277 . S
Cd144 O153 2.356 . S
C145 O150 1.209 . S
C145 O152 1.226 . S
O146 Cd142 2.273 . S
O146 Cd144 2.411 . S
O146 C149 1.320 . S
O147 Cd144 2.333 . S
O147 C149 1.214 . S
O148 Cd144 2.352 . S
O148 C151 1.258 . S
C149 O146 1.320 . S
C149 O147 1.214 . S
O150 Cd142 2.277 . S
O150 C145 1.209 . S
C151 O148 1.258 . S
C151 O153 1.282 . S
O152 Cd144 2.277 . S
O152 C145 1.226 . S
O153 Cd144 2.356 . S
O153 C151 1.282 . S
C154 O155 1.306 . S
C154 O157 1.160 . S
O155 C154 1.306 . S
O155 Cd156 2.228 . S
Cd156 O155 2.228 . S
Cd156 O160 2.273 . S
Cd156 O164 2.277 . S
O157 C154 1.160 . S
O157 Cd158 2.203 . S
Cd158 O157 2.203 . S
Cd158 O160 2.411 . S
Cd158 O161 2.333 . S
Cd158 O162 2.352 . S
Cd158 O166 2.277 . S
Cd158 O167 2.356 . S
C159 O164 1.209 . S
C159 O166 1.226 . S
O160 Cd156 2.273 . S
O160 Cd158 2.411 . S
O160 C163 1.320 . S
O161 Cd158 2.333 . S
O161 C163 1.214 . S
O162 Cd158 2.352 . S
O162 C165 1.258 . S
C163 O160 1.320 . S
C163 O161 1.214 . S
O164 Cd156 2.277 . S
O164 C159 1.209 . S
C165 O162 1.258 . S
C165 O167 1.282 . S
O166 Cd158 2.277 . S
O166 C159 1.226 . S
O167 Cd158 2.356 . S
O167 C165 1.282 . S
C168 O169 1.306 . S
C168 O171 1.160 . S
O169 C168 1.306 . S
O169 Cd170 2.228 . S
Cd170 O169 2.228 . S
Cd170 O174 2.273 . S
Cd170 O178 2.277 . S
O171 C168 1.160 . S
O171 Cd172 2.203 . S
Cd172 O171 2.203 . S
Cd172 O174 2.411 . S
Cd172 O175 2.333 . S
Cd172 O176 2.352 . S
Cd172 O180 2.277 . S
Cd172 O181 2.356 . S
C173 O178 1.209 . S
C173 O180 1.226 . S
O174 Cd170 2.273 . S
O174 Cd172 2.411 . S
O174 C177 1.320 . S
O175 Cd172 2.333 . S
O175 C177 1.214 . S
O176 Cd172 2.352 . S
O176 C179 1.258 . S
C177 O174 1.320 . S
C177 O175 1.214 . S
O178 Cd170 2.277 . S
O178 C173 1.209 . S
C179 O176 1.258 . S
C179 O181 1.282 . S
O180 Cd172 2.277 . S
O180 C173 1.226 . S
O181 Cd172 2.356 . S
O181 C179 1.282 . S
C182 O183 1.306 . S
C182 O185 1.160 . S
O183 C182 1.306 . S
O183 Cd184 2.228 . S
Cd184 O183 2.228 . S
Cd184 O188 2.273 . S
Cd184 O192 2.277 . S
O185 C182 1.160 . S
O185 Cd186 2.203 . S
Cd186 O185 2.203 . S
Cd186 O188 2.411 . S
Cd186 O189 2.333 . S
Cd186 O190 2.352 . S
Cd186 O194 2.277 . S
Cd186 O195 2.356 . S
C187 O192 1.209 . S
C187 O194 1.226 . S
O188 Cd184 2.273 . S
O188 Cd186 2.411 . S
O188 C191 1.320 . S
O189 Cd186 2.333 . S
O189 C191 1.214 . S
O190 Cd186 2.352 . S
O190 C193 1.258 . S
C191 O188 1.320 . S
C191 O189 1.214 . S
O192 Cd184 2.277 . S
O192 C187 1.209 . S
C193 O190 1.258 . S
C193 O195 1.282 . S
O194 Cd186 2.277 . S
O194 C187 1.226 . S
O195 Cd186 2.356 . S
O195 C193 1.282 . S
C196 O197 1.306 . S
C196 O199 1.160 . S
O197 C196 1.306 . S
O197 Cd198 2.228 . S
Cd198 O197 2.228 . S
Cd198 O202 2.273 . S
Cd198 O206 2.277 . S
O199 C196 1.160 . S
O199 Cd200 2.203 . S
Cd200 O199 2.203 . S
Cd200 O202 2.411 . S
Cd200 O203 2.333 . S
Cd200 O204 2.352 . S
Cd200 O208 2.277 . S
Cd200 O209 2.356 . S
C201 O206 1.209 . S
C201 O208 1.226 . S
O202 Cd198 2.273 . S
O202 Cd200 2.411 . S
O202 C205 1.320 . S
O203 Cd200 2.333 . S
O203 C205 1.214 . S
O204 Cd200 2.352 . S
O204 C207 1.258 . S
C205 O202 1.320 . S
C205 O203 1.214 . S
O206 Cd198 2.277 . S
O206 C201 1.209 . S
C207 O204 1.258 . S
C207 O209 1.282 . S
O208 Cd200 2.277 . S
O208 C201 1.226 . S
O209 Cd200 2.356 . S
O209 C207 1.282 . S
C210 O211 1.306 . S
C210 O213 1.160 . S
O211 C210 1.306 . S
O211 Cd212 2.228 . S
Cd212 O211 2.228 . S
Cd212 O216 2.273 . S
Cd212 O220 2.277 . S
O213 C210 1.160 . S
O213 Cd214 2.203 . S
Cd214 O213 2.203 . S
Cd214 O216 2.411 . S
Cd214 O217 2.333 . S
Cd214 O218 2.352 . S
Cd214 O222 2.277 . S
Cd214 O223 2.356 . S
C215 O220 1.209 . S
C215 O222 1.226 . S
O216 Cd212 2.273 . S
O216 Cd214 2.411 . S
O216 C219 1.320 . S
O217 Cd214 2.333 . S
O217 C219 1.214 . S
O218 Cd214 2.352 . S
O218 C221 1.258 . S
C219 O216 1.320 . S
C219 O217 1.214 . S
O220 Cd212 2.277 . S
O220 C215 1.209 . S
C221 O218 1.258 . S
C221 O223 1.282 . S
O222 Cd214 2.277 . S
O222 C215 1.226 . S
O223 Cd214 2.356 . S
O223 C221 1.282 . S
C224 O225 1.306 . S
C224 O227 1.160 . S
O225 C224 1.306 . S
O225 Cd226 2.228 . S
Cd226 O225 2.228 . S
Cd226 O230 2.273 . S
Cd226 O234 2.277 . S
O227 C224 1.160 . S
O227 Cd228 2.203 . S
Cd228 O227 2.203 . S
Cd228 O230 2.411 . S
Cd228 O231 2.333 . S
Cd228 O232 2.352 . S
Cd228 O236 2.277 . S
Cd228 O237 2.356 . S
C229 O234 1.209 . S
C229 O236 1.226 . S
O230 Cd226 2.273 . S
O230 Cd228 2.411 . S
O230 C233 1.320 . S
O231 Cd228 2.333 . S
O231 C233 1.214 . S
O232 Cd228 2.352 . S
O232 C235 1.258 . S
C233 O230 1.320 . S
C233 O231 1.214 . S
O234 Cd226 2.277 . S
O234 C229 1.209 . S
C235 O232 1.258 . S
C235 O237 1.282 . S
O236 Cd228 2.277 . S
O236 C229 1.226 . S
O237 Cd228 2.356 . S
O237 C235 1.282 . S
C238 O239 1.306 . S
C238 O241 1.160 . S
O239 C238 1.306 . S
O239 Cd240 2.228 . S
Cd240 O239 2.228 . S
Cd240 O244 2.273 . S
Cd240 O248 2.277 . S
O241 C238 1.160 . S
O241 Cd242 2.203 . S
Cd242 O241 2.203 . S
Cd242 O244 2.411 . S
Cd242 O245 2.333 . S
Cd242 O246 2.352 . S
Cd242 O250 2.277 . S
Cd242 O251 2.356 . S
C243 O248 1.209 . S
C243 O250 1.226 . S
O244 Cd240 2.273 . S
O244 Cd242 2.411 . S
O244 C247 1.320 . S
O245 Cd242 2.333 . S
O245 C247 1.214 . S
O246 Cd242 2.352 . S
O246 C249 1.258 . S
C247 O244 1.320 . S
C247 O245 1.214 . S
O248 Cd240 2.277 . S
O248 C243 1.209 . S
C249 O246 1.258 . S
C249 O251 1.282 . S
O250 Cd242 2.277 . S
O250 C243 1.226 . S
O251 Cd242 2.356 . S
O251 C249 1.282 . S
C252 O253 1.306 . S
C252 O255 1.160 . S
O253 C252 1.306 . S
O253 Cd254 2.228 . S
Cd254 O253 2.228 . S
Cd254 O258 2.273 . S
Cd254 O262 2.277 . S
O255 C252 1.160 . S
O255 Cd256 2.203 . S
Cd256 O255 2.203 . S
Cd256 O258 2.411 . S
Cd256 O259 2.333 . S
Cd256 O260 2.352 . S
Cd256 O264 2.277 . S
Cd256 O265 2.356 . S
C257 O262 1.209 . S
C257 O264 1.226 . S
O258 Cd254 2.273 . S
O258 Cd256 2.411 . S
O258 C261 1.320 . S
O259 Cd256 2.333 . S
O259 C261 1.214 . S
O260 Cd256 2.352 . S
O260 C263 1.258 . S
C261 O258 1.320 . S
C261 O259 1.214 . S
O262 Cd254 2.277 . S
O262 C257 1.209 . S
C263 O260 1.258 . S
C263 O265 1.282 . S
O264 Cd256 2.277 . S
O264 C257 1.226 . S
O265 Cd256 2.356 . S
O265 C263 1.282 . S
C266 O267 1.306 . S
C266 O269 1.160 . S
O267 C266 1.306 . S
O267 Cd268 2.228 . S
Cd268 O267 2.228 . S
Cd268 O272 2.273 . S
Cd268 O276 2.277 . S
O269 C266 1.160 . S
O269 Cd270 2.203 . S
Cd270 O269 2.203 . S
Cd270 O272 2.411 . S
Cd270 O273 2.333 . S
Cd270 O274 2.352 . S
Cd270 O278 2.277 . S
Cd270 O279 2.356 . S
C271 O276 1.209 . S
C271 O278 1.226 . S
O272 Cd268 2.273 . S
O272 Cd270 2.411 . S
O272 C275 1.320 . S
O273 Cd270 2.333 . S
O273 C275 1.214 . S
O274 Cd270 2.352 . S
O274 C277 1.258 . S
C275 O272 1.320 . S
C275 O273 1.214 . S
O276 Cd268 2.277 . S
O276 C271 1.209 . S
C277 O274 1.258 . S
C277 O279 1.282 . S
O278 Cd270 2.277 . S
O278 C271 1.226 . S
O279 Cd270 2.356 . S
O279 C277 1.282 . S
C280 O281 1.306 . S
C280 O283 1.160 . S
O281 C280 1.306 . S
O281 Cd282 2.228 . S
Cd282 O281 2.228 . S
Cd282 O286 2.273 . S
Cd282 O290 2.277 . S
O283 C280 1.160 . S
O283 Cd284 2.203 . S
Cd284 O283 2.203 . S
Cd284 O286 2.411 . S
Cd284 O287 2.333 . S
Cd284 O288 2.352 . S
Cd284 O292 2.277 . S
Cd284 O293 2.356 . S
C285 O290 1.209 . S
C285 O292 1.226 . S
O286 Cd282 2.273 . S
O286 Cd284 2.411 . S
O286 C289 1.320 . S
O287 Cd284 2.333 . S
O287 C289 1.214 . S
O288 Cd284 2.352 . S
O288 C291 1.258 . S
C289 O286 1.320 . S
C289 O287 1.214 . S
O290 Cd282 2.277 . S
O290 C285 1.209 . S
C291 O288 1.258 . S
C291 O293 1.282 . S
O292 Cd284 2.277 . S
O292 C285 1.226 . S
O293 Cd284 2.356 . S
O293 C291 1.282 . S
C294 O295 1.306 . S
C294 O297 1.160 . S
O295 C294 1.306 . S
O295 Cd296 2.228 . S
Cd296 O295 2.228 . S
Cd296 O300 2.273 . S
Cd296 O304 2.277 . S
O297 C294 1.160 . S
O297 Cd298 2.203 . S
Cd298 O297 2.203 . S
Cd298 O300 2.411 . S
Cd298 O301 2.333 . S
Cd298 O302 2.352 . S
Cd298 O306 2.277 . S
Cd298 O307 2.356 . S
C299 O304 1.209 . S
C299 O306 1.226 . S
O300 Cd296 2.273 . S
O300 Cd298 2.411 . S
O300 C303 1.320 . S
O301 Cd298 2.333 . S
O301 C303 1.214 . S
O302 Cd298 2.352 . S
O302 C305 1.258 . S
C303 O300 1.320 . S
C303 O301 1.214 . S
O304 Cd296 2.277 . S
O304 C299 1.209 . S
C305 O302 1.258 . S
C305 O307 1.282 . S
O306 Cd298 2.277 . S
O306 C299 1.226 . S
O307 Cd298 2.356 . S
O307 C305 1.282 . S
C308 O309 1.306 . S
C308 O311 1.160 . S
O309 C308 1.306 . S
O309 Cd310 2.228 . S
Cd310 O309 2.228 . S
Cd310 O314 2.273 . S
Cd310 O318 2.277 . S
O311 C308 1.160 . S
O311 Cd312 2.203 . S
Cd312 O311 2.203 . S
Cd312 O314 2.411 . S
Cd312 O315 2.333 . S
Cd312 O316 2.352 . S
Cd312 O320 2.277 . S
Cd312 O321 2.356 . S
C313 O318 1.209 . S
C313 O320 1.226 . S
O314 Cd310 2.273 . S
O314 Cd312 2.411 . S
O314 C317 1.320 . S
O315 Cd312 2.333 . S
O315 C317 1.214 . S
O316 Cd312 2.352 . S
O316 C319 1.258 . S
C317 O314 1.320 . S
C317 O315 1.214 . S
O318 Cd310 2.277 . S
O318 C313 1.209 . S
C319 O316 1.258 . S
C319 O321 1.282 . S
O320 Cd312 2.277 . S
O320 C313 1.226 . S
O321 Cd312 2.356 . S
O321 C319 1.282 . S
C322 O323 1.306 . S
C322 O325 1.160 . S
O323 C322 1.306 . S
O323 Cd324 2.228 . S
Cd324 O323 2.228 . S
Cd324 O328 2.273 . S
Cd324 O332 2.277 . S
O325 C322 1.160 . S
O325 Cd326 2.203 . S
Cd326 O325 2.203 . S
Cd326 O328 2.411 . S
Cd326 O329 2.333 . S
Cd326 O330 2.352 . S
Cd326 O334 2.277 . S
Cd326 O335 2.356 . S
C327 O332 1.209 . S
C327 O334 1.226 . S
O328 Cd324 2.273 . S
O328 Cd326 2.411 . S
O328 C331 1.320 . S
O329 Cd326 2.333 . S
O329 C331 1.214 . S
O330 Cd326 2.352 . S
O330 C333 1.258 . S
C331 O328 1.320 . S
C331 O329 1.214 . S
O332 Cd324 2.277 . S
O332 C327 1.209 . S
C333 O330 1.258 . S
C333 O335 1.282 . S
O334 Cd326 2.277 . S
O334 C327 1.226 . S
O335 Cd326 2.356 . S
O335 C333 1.282 . S
C336 C337 1.387 . S
C336 H340 0.950 . S
C336 C345 1.390 . S
C337 C336 1.387 . S
C337 C339 1.387 . S
H338 C345 0.950 . S
C339 C337 1.387 . S
C339 C341 1.390 . S
C339 H343 0.950 . S
H340 C336 0.950 . S
C341 C339 1.390 . S
C341 C342 1.387 . S
C341 H344 0.950 . S
C342 C341 1.387 . S
C342 C345 1.387 . S
H343 C339 0.950 . S
H344 C341 0.950 . S
C345 C336 1.390 . S
C345 H338 0.950 . S
C345 C342 1.387 . S
C346 C347 1.387 . S
C346 H350 0.950 . S
C346 C355 1.390 . S
C347 C346 1.387 . S
C347 C349 1.387 . S
H348 C355 0.950 . S
C349 C347 1.387 . S
C349 C351 1.390 . S
C349 H353 0.950 . S
H350 C346 0.950 . S
C351 C349 1.390 . S
C351 C352 1.387 . S
C351 H354 0.950 . S
C352 C351 1.387 . S
C352 C355 1.387 . S
H353 C349 0.950 . S
H354 C351 0.950 . S
C355 C346 1.390 . S
C355 H348 0.950 . S
C355 C352 1.387 . S
C356 C357 1.387 . S
C356 H360 0.950 . S
C356 C365 1.390 . S
C357 C356 1.387 . S
C357 C359 1.387 . S
H358 C365 0.950 . S
C359 C357 1.387 . S
C359 C361 1.390 . S
C359 H363 0.950 . S
H360 C356 0.950 . S
C361 C359 1.390 . S
C361 C362 1.387 . S
C361 H364 0.950 . S
C362 C361 1.387 . S
C362 C365 1.387 . S
H363 C359 0.950 . S
H364 C361 0.950 . S
C365 C356 1.390 . S
C365 H358 0.950 . S
C365 C362 1.387 . S
C366 C367 1.387 . S
C366 H370 0.950 . S
C366 C375 1.390 . S
C367 C366 1.387 . S
C367 C369 1.387 . S
H368 C375 0.950 . S
C369 C367 1.387 . S
C369 C371 1.390 . S
C369 H373 0.950 . S
H370 C366 0.950 . S
C371 C369 1.390 . S
C371 C372 1.387 . S
C371 H374 0.950 . S
C372 C371 1.387 . S
C372 C375 1.387 . S
H373 C369 0.950 . S
H374 C371 0.950 . S
C375 C366 1.390 . S
C375 H368 0.950 . S
C375 C372 1.387 . S
C376 C377 1.387 . S
C376 H380 0.950 . S
C376 C385 1.390 . S
C377 C376 1.387 . S
C377 C379 1.387 . S
H378 C385 0.950 . S
C379 C377 1.387 . S
C379 C381 1.390 . S
C379 H383 0.950 . S
H380 C376 0.950 . S
C381 C379 1.390 . S
C381 C382 1.387 . S
C381 H384 0.950 . S
C382 C381 1.387 . S
C382 C385 1.387 . S
H383 C379 0.950 . S
H384 C381 0.950 . S
C385 C376 1.390 . S
C385 H378 0.950 . S
C385 C382 1.387 . S
C386 C387 1.387 . S
C386 H390 0.950 . S
C386 C395 1.390 . S
C387 C386 1.387 . S
C387 C389 1.387 . S
H388 C395 0.950 . S
C389 C387 1.387 . S
C389 C391 1.390 . S
C389 H393 0.950 . S
H390 C386 0.950 . S
C391 C389 1.390 . S
C391 C392 1.387 . S
C391 H394 0.950 . S
C392 C391 1.387 . S
C392 C395 1.387 . S
H393 C389 0.950 . S
H394 C391 0.950 . S
C395 C386 1.390 . S
C395 H388 0.950 . S
C395 C392 1.387 . S
C396 C397 1.387 . S
C396 H400 0.950 . S
C396 C405 1.390 . S
C397 C396 1.387 . S
C397 C399 1.387 . S
H398 C405 0.950 . S
C399 C397 1.387 . S
C399 C401 1.390 . S
C399 H403 0.950 . S
H400 C396 0.950 . S
C401 C399 1.390 . S
C401 C402 1.387 . S
C401 H404 0.950 . S
C402 C401 1.387 . S
C402 C405 1.387 . S
H403 C399 0.950 . S
H404 C401 0.950 . S
C405 C396 1.390 . S
C405 H398 0.950 . S
C405 C402 1.387 . S
C406 C407 1.387 . S
C406 H410 0.950 . S
C406 C415 1.390 . S
C407 C406 1.387 . S
C407 C409 1.387 . S
H408 C415 0.950 . S
C409 C407 1.387 . S
C409 C411 1.390 . S
C409 H413 0.950 . S
H410 C406 0.950 . S
C411 C409 1.390 . S
C411 C412 1.387 . S
C411 H414 0.950 . S
C412 C411 1.387 . S
C412 C415 1.387 . S
H413 C409 0.950 . S
H414 C411 0.950 . S
C415 C406 1.390 . S
C415 H408 0.950 . S
C415 C412 1.387 . S
C416 C417 1.387 . S
C416 H420 0.950 . S
C416 C425 1.390 . S
C417 C416 1.387 . S
C417 C419 1.387 . S
H418 C425 0.950 . S
C419 C417 1.387 . S
C419 C421 1.390 . S
C419 H423 0.950 . S
H420 C416 0.950 . S
C421 C419 1.390 . S
C421 C422 1.387 . S
C421 H424 0.950 . S
C422 C421 1.387 . S
C422 C425 1.387 . S
H423 C419 0.950 . S
H424 C421 0.950 . S
C425 C416 1.390 . S
C425 H418 0.950 . S
C425 C422 1.387 . S
C426 C427 1.387 . S
C426 H430 0.950 . S
C426 C435 1.390 . S
C427 C426 1.387 . S
C427 C429 1.387 . S
H428 C435 0.950 . S
C429 C427 1.387 . S
C429 C431 1.390 . S
C429 H433 0.950 . S
H430 C426 0.950 . S
C431 C429 1.390 . S
C431 C432 1.387 . S
C431 H434 0.950 . S
C432 C431 1.387 . S
C432 C435 1.387 . S
H433 C429 0.950 . S
H434 C431 0.950 . S
C435 C426 1.390 . S
C435 H428 0.950 . S
C435 C432 1.387 . S
C436 C437 1.387 . S
C436 H440 0.950 . S
C436 C445 1.390 . S
C437 C436 1.387 . S
C437 C439 1.387 . S
H438 C445 0.950 . S
C439 C437 1.387 . S
C439 C441 1.390 . S
C439 H443 0.950 . S
H440 C436 0.950 . S
C441 C439 1.390 . S
C441 C442 1.387 . S
C441 H444 0.950 . S
C442 C441 1.387 . S
C442 C445 1.387 . S
H443 C439 0.950 . S
H444 C441 0.950 . S
C445 C436 1.390 . S
C445 H438 0.950 . S
C445 C442 1.387 . S
C446 C447 1.387 . S
C446 H450 0.950 . S
C446 C455 1.390 . S
C447 C446 1.387 . S
C447 C449 1.387 . S
H448 C455 0.950 . S
C449 C447 1.387 . S
C449 C451 1.390 . S
C449 H453 0.950 . S
H450 C446 0.950 . S
C451 C449 1.390 . S
C451 C452 1.387 . S
C451 H454 0.950 . S
C452 C451 1.387 . S
C452 C455 1.387 . S
H453 C449 0.950 . S
H454 C451 0.950 . S
C455 C446 1.390 . S
C455 H448 0.950 . S
C455 C452 1.387 . S
C456 C457 1.387 . S
C456 H460 0.950 . S
C456 C465 1.390 1_556 S
C457 C456 1.387 . S
C457 C459 1.387 . S
H458 C465 0.950 . S
C459 C457 1.387 . S
C459 C461 1.390 1_556 S
C459 H463 0.950 . S
H460 C456 0.950 . S
C461 C459 1.390 1_554 S
C461 C462 1.387 . S
C461 H464 0.950 . S
C462 C461 1.387 . S
C462 C465 1.387 . S
H463 C459 0.950 . S
H464 C461 0.950 . S
C465 C456 1.390 1_554 S
C465 H458 0.950 . S
C465 C462 1.387 . S
C466 C467 1.387 . S
C466 H470 0.950 . S
C466 C475 1.390 . S
C467 C466 1.387 . S
C467 C469 1.387 . S
H468 C475 0.950 . S
C469 C467 1.387 . S
C469 C471 1.390 . S
C469 H473 0.950 . S
H470 C466 0.950 . S
C471 C469 1.390 . S
C471 C472 1.387 . S
C471 H474 0.950 . S
C472 C471 1.387 . S
C472 C475 1.387 . S
H473 C469 0.950 . S
H474 C471 0.950 . S
C475 C466 1.390 . S
C475 H468 0.950 . S
C475 C472 1.387 . S
C476 C477 1.387 . S
C476 H480 0.950 . S
C476 C485 1.390 . S
C477 C476 1.387 . S
C477 C479 1.387 1_554 S
H478 C485 0.950 . S
C479 C477 1.387 1_556 S
C479 C481 1.390 . S
C479 H483 0.950 . S
H480 C476 0.950 . S
C481 C479 1.390 . S
C481 C482 1.387 . S
C481 H484 0.950 . S
C482 C481 1.387 . S
C482 C485 1.387 1_556 S
H483 C479 0.950 . S
H484 C481 0.950 . S
C485 C476 1.390 . S
C485 H478 0.950 . S
C485 C482 1.387 1_554 S
C486 C487 1.387 . S
C486 H490 0.950 . S
C486 C495 1.390 . S
C487 C486 1.387 . S
C487 C489 1.387 . S
H488 C495 0.950 . S
C489 C487 1.387 . S
C489 C491 1.390 . S
C489 H493 0.950 . S
H490 C486 0.950 . S
C491 C489 1.390 . S
C491 C492 1.387 . S
C491 H494 0.950 . S
C492 C491 1.387 . S
C492 C495 1.387 . S
H493 C489 0.950 . S
H494 C491 0.950 . S
C495 C486 1.390 . S
C495 H488 0.950 . S
C495 C492 1.387 . S
C496 C497 1.387 1_554 S
C496 H500 0.950 . S
C496 C505 1.390 . S
C497 C496 1.387 1_556 S
C497 C499 1.387 . S
H498 C505 0.950 . S
C499 C497 1.387 . S
C499 C501 1.390 . S
C499 H503 0.950 . S
H500 C496 0.950 . S
C501 C499 1.390 . S
C501 C502 1.387 1_556 S
C501 H504 0.950 . S
C502 C501 1.387 1_554 S
C502 C505 1.387 . S
H503 C499 0.950 . S
H504 C501 0.950 . S
C505 C496 1.390 . S
C505 H498 0.950 . S
C505 C502 1.387 . S
C506 C507 1.387 . S
C506 H510 0.950 . S
C506 C515 1.390 . S
C507 C506 1.387 . S
C507 C509 1.387 . S
H508 C515 0.950 . S
C509 C507 1.387 . S
C509 C511 1.390 . S
C509 H513 0.950 . S
H510 C506 0.950 . S
C511 C509 1.390 . S
C511 C512 1.387 . S
C511 H514 0.950 . S
C512 C511 1.387 . S
C512 C515 1.387 . S
H513 C509 0.950 . S
H514 C511 0.950 . S
C515 C506 1.390 . S
C515 H508 0.950 . S
C515 C512 1.387 . S
C516 C517 1.387 . S
C516 H520 0.950 . S
C516 C525 1.390 1_554 S
C517 C516 1.387 . S
C517 C519 1.387 . S
H518 C525 0.950 . S
C519 C517 1.387 . S
C519 C521 1.390 1_554 S
C519 H523 0.950 . S
H520 C516 0.950 . S
C521 C519 1.390 1_556 S
C521 C522 1.387 . S
C521 H524 0.950 . S
C522 C521 1.387 . S
C522 C525 1.387 . S
H523 C519 0.950 . S
H524 C521 0.950 . S
C525 C516 1.390 1_556 S
C525 H518 0.950 . S
C525 C522 1.387 . S
C526 C527 1.387 . S
C526 H530 0.950 . S
C526 C535 1.390 . S
C527 C526 1.387 . S
C527 C529 1.387 . S
H528 C535 0.950 . S
C529 C527 1.387 . S
C529 C531 1.390 . S
C529 H533 0.950 . S
H530 C526 0.950 . S
C531 C529 1.390 . S
C531 C532 1.387 . S
C531 H534 0.950 . S
C532 C531 1.387 . S
C532 C535 1.387 . S
H533 C529 0.950 . S
H534 C531 0.950 . S
C535 C526 1.390 . S
C535 H528 0.950 . S
C535 C532 1.387 . S
C536 C537 1.387 . S
C536 H540 0.950 . S
C536 C545 1.390 . S
C537 C536 1.387 . S
C537 C539 1.387 1_556 S
H538 C545 0.950 . S
C539 C537 1.387 1_554 S
C539 C541 1.390 . S
C539 H543 0.950 . S
H540 C536 0.950 . S
C541 C539 1.390 . S
C541 C542 1.387 . S
C541 H544 0.950 . S
C542 C541 1.387 . S
C542 C545 1.387 1_554 S
H543 C539 0.950 . S
H544 C541 0.950 . S
C545 C536 1.390 . S
C545 H538 0.950 . S
C545 C542 1.387 1_556 S
C546 C547 1.387 . S
C546 H550 0.950 . S
C546 C555 1.390 . S
C547 C546 1.387 . S
C547 C549 1.387 . S
H548 C555 0.950 . S
C549 C547 1.387 . S
C549 C551 1.390 . S
C549 H553 0.950 . S
H550 C546 0.950 . S
C551 C549 1.390 . S
C551 C552 1.387 . S
C551 H554 0.950 . S
C552 C551 1.387 . S
C552 C555 1.387 . S
H553 C549 0.950 . S
H554 C551 0.950 . S
C555 C546 1.390 . S
C555 H548 0.950 . S
C555 C552 1.387 . S
C556 C557 1.387 1_554 S
C556 H560 0.950 . S
C556 C565 1.390 . S
C557 C556 1.387 1_556 S
C557 C559 1.387 . S
H558 C565 0.950 . S
C559 C557 1.387 . S
C559 C561 1.390 . S
C559 H563 0.950 . S
H560 C556 0.950 . S
C561 C559 1.390 . S
C561 C562 1.387 1_556 S
C561 H564 0.950 . S
C562 C561 1.387 1_554 S
C562 C565 1.387 . S
H563 C559 0.950 . S
H564 C561 0.950 . S
C565 C556 1.390 . S
C565 H558 0.950 . S
C565 C562 1.387 . S
C566 C567 1.387 . S
C566 H570 0.950 . S
C566 C575 1.390 . S
C567 C566 1.387 . S
C567 C569 1.387 . S
H568 C575 0.950 . S
C569 C567 1.387 . S
C569 C571 1.390 . S
C569 H573 0.950 . S
H570 C566 0.950 . S
C571 C569 1.390 . S
C571 C572 1.387 . S
C571 H574 0.950 . S
C572 C571 1.387 . S
C572 C575 1.387 . S
H573 C569 0.950 . S
H574 C571 0.950 . S
C575 C566 1.390 . S
C575 H568 0.950 . S
C575 C572 1.387 . S
C576 C577 1.387 . S
C576 H580 0.950 . S
C576 C585 1.390 . S
C577 C576 1.387 . S
C577 C579 1.387 . S
H578 C585 0.950 . S
C579 C577 1.387 . S
C579 C581 1.390 . S
C579 H583 0.950 . S
H580 C576 0.950 . S
C581 C579 1.390 . S
C581 C582 1.387 . S
C581 H584 0.950 . S
C582 C581 1.387 . S
C582 C585 1.387 . S
H583 C579 0.950 . S
H584 C581 0.950 . S
C585 C576 1.390 . S
C585 H578 0.950 . S
C585 C582 1.387 . S
C586 C587 1.387 . S
C586 H590 0.950 . S
C586 C595 1.390 1_455 S
C587 C586 1.387 . S
C587 C589 1.387 . S
H588 C595 0.950 . S
C589 C587 1.387 . S
C589 C591 1.390 1_455 S
C589 H593 0.950 . S
H590 C586 0.950 . S
C591 C589 1.390 1_655 S
C591 C592 1.387 . S
C591 H594 0.950 . S
C592 C591 1.387 . S
C592 C595 1.387 . S
H593 C589 0.950 . S
H594 C591 0.950 . S
C595 C586 1.390 1_655 S
C595 H588 0.950 . S
C595 C592 1.387 . S
C596 C597 1.387 . S
C596 H600 0.950 . S
C596 C605 1.390 1_565 S
C597 C596 1.387 . S
C597 C599 1.387 . S
H598 C605 0.950 . S
C599 C597 1.387 . S
C599 C601 1.390 1_565 S
C599 H603 0.950 . S
H600 C596 0.950 . S
C601 C599 1.390 1_545 S
C601 C602 1.387 . S
C601 H604 0.950 . S
C602 C601 1.387 . S
C602 C605 1.387 . S
H603 C599 0.950 . S
H604 C601 0.950 . S
C605 C596 1.390 1_545 S
C605 H598 0.950 . S
C605 C602 1.387 . S
C606 C607 1.387 . S
C606 H610 0.950 . S
C606 C615 1.390 . S
C607 C606 1.387 . S
C607 C609 1.387 . S
H608 C615 0.950 . S
C609 C607 1.387 . S
C609 C611 1.390 . S
C609 H613 0.950 . S
H610 C606 0.950 . S
C611 C609 1.390 . S
C611 C612 1.387 . S
C611 H614 0.950 . S
C612 C611 1.387 . S
C612 C615 1.387 . S
H613 C609 0.950 . S
H614 C611 0.950 . S
C615 C606 1.390 . S
C615 H608 0.950 . S
C615 C612 1.387 . S
C616 C617 1.387 . S
C616 H620 0.950 . S
C616 C625 1.390 1_655 S
C617 C616 1.387 . S
C617 C619 1.387 . S
H618 C625 0.950 . S
C619 C617 1.387 . S
C619 C621 1.390 1_655 S
C619 H623 0.950 . S
H620 C616 0.950 . S
C621 C619 1.390 1_455 S
C621 C622 1.387 . S
C621 H624 0.950 . S
C622 C621 1.387 . S
C622 C625 1.387 . S
H623 C619 0.950 . S
H624 C621 0.950 . S
C625 C616 1.390 1_455 S
C625 H618 0.950 . S
C625 C622 1.387 . S
C626 C627 1.387 . S
C626 H630 0.950 . S
C626 C635 1.390 1_545 S
C627 C626 1.387 . S
C627 C629 1.387 . S
H628 C635 0.950 . S
C629 C627 1.387 . S
C629 C631 1.390 1_545 S
C629 H633 0.950 . S
H630 C626 0.950 . S
C631 C629 1.390 1_565 S
C631 C632 1.387 . S
C631 H634 0.950 . S
C632 C631 1.387 . S
C632 C635 1.387 . S
H633 C629 0.950 . S
H634 C631 0.950 . S
C635 C626 1.390 1_565 S
C635 H628 0.950 . S
C635 C632 1.387 . S
C636 C637 1.387 . S
C636 H640 0.950 . S
C636 C645 1.390 . S
C637 C636 1.387 . S
C637 C639 1.387 . S
H638 C645 0.950 . S
C639 C637 1.387 . S
C639 C641 1.390 . S
C639 H643 0.950 . S
H640 C636 0.950 . S
C641 C639 1.390 . S
C641 C642 1.387 . S
C641 H644 0.950 . S
C642 C641 1.387 . S
C642 C645 1.387 . S
H643 C639 0.950 . S
H644 C641 0.950 . S
C645 C636 1.390 . S
C645 H638 0.950 . S
C645 C642 1.387 . S
C646 C647 1.387 . S
C646 H650 0.950 . S
C646 C655 1.390 1_655 S
C647 C646 1.387 . S
C647 C649 1.387 . S
H648 C655 0.950 . S
C649 C647 1.387 . S
C649 C651 1.390 1_655 S
C649 H653 0.950 . S
H650 C646 0.950 . S
C651 C649 1.390 1_455 S
C651 C652 1.387 . S
C651 H654 0.950 . S
C652 C651 1.387 . S
C652 C655 1.387 . S
H653 C649 0.950 . S
H654 C651 0.950 . S
C655 C646 1.390 1_455 S
C655 H648 0.950 . S
C655 C652 1.387 . S
C656 C657 1.387 . S
C656 H660 0.950 . S
C656 C665 1.390 1_545 S
C657 C656 1.387 . S
C657 C659 1.387 . S
H658 C665 0.950 . S
C659 C657 1.387 . S
C659 C661 1.390 1_545 S
C659 H663 0.950 . S
H660 C656 0.950 . S
C661 C659 1.390 1_565 S
C661 C662 1.387 . S
C661 H664 0.950 . S
C662 C661 1.387 . S
C662 C665 1.387 . S
H663 C659 0.950 . S
H664 C661 0.950 . S
C665 C656 1.390 1_565 S
C665 H658 0.950 . S
C665 C662 1.387 . S
C666 C667 1.387 . S
C666 H670 0.950 . S
C666 C675 1.390 . S
C667 C666 1.387 . S
C667 C669 1.387 . S
H668 C675 0.950 . S
C669 C667 1.387 . S
C669 C671 1.390 . S
C669 H673 0.950 . S
H670 C666 0.950 . S
C671 C669 1.390 . S
C671 C672 1.387 . S
C671 H674 0.950 . S
C672 C671 1.387 . S
C672 C675 1.387 . S
H673 C669 0.950 . S
H674 C671 0.950 . S
C675 C666 1.390 . S
C675 H668 0.950 . S
C675 C672 1.387 . S
C676 C677 1.387 . S
C676 H680 0.950 . S
C676 C685 1.390 1_455 S
C677 C676 1.387 . S
C677 C679 1.387 . S
H678 C685 0.950 . S
C679 C677 1.387 . S
C679 C681 1.390 1_455 S
C679 H683 0.950 . S
H680 C676 0.950 . S
C681 C679 1.390 1_655 S
C681 C682 1.387 . S
C681 H684 0.950 . S
C682 C681 1.387 . S
C682 C685 1.387 . S
H683 C679 0.950 . S
H684 C681 0.950 . S
C685 C676 1.390 1_655 S
C685 H678 0.950 . S
C685 C682 1.387 . S
C686 C687 1.387 . S
C686 H690 0.950 . S
C686 C695 1.390 1_565 S
C687 C686 1.387 . S
C687 C689 1.387 . S
H688 C695 0.950 . S
C689 C687 1.387 . S
C689 C691 1.390 1_565 S
C689 H693 0.950 . S
H690 C686 0.950 . S
C691 C689 1.390 1_545 S
C691 C692 1.387 . S
C691 H694 0.950 . S
C692 C691 1.387 . S
C692 C695 1.387 . S
H693 C689 0.950 . S
H694 C691 0.950 . S
C695 C686 1.390 1_545 S
C695 H688 0.950 . S
C695 C692 1.387 . S
C696 C697 1.387 1_554 S
C696 H700 0.950 . S
C696 C705 1.390 . S
C697 C696 1.387 1_556 S
C697 C699 1.387 . S
H698 C705 0.950 . S
C699 C697 1.387 . S
C699 C701 1.390 . S
C699 H703 0.950 . S
H700 C696 0.950 . S
C701 C699 1.390 . S
C701 C702 1.387 1_556 S
C701 H704 0.950 . S
C702 C701 1.387 1_554 S
C702 C705 1.387 . S
H703 C699 0.950 . S
H704 C701 0.950 . S
C705 C696 1.390 . S
C705 H698 0.950 . S
C705 C702 1.387 . S
C706 C707 1.387 . S
C706 H710 0.950 . S
C706 C715 1.390 . S
C707 C706 1.387 . S
C707 C709 1.387 . S
H708 C715 0.950 . S
C709 C707 1.387 . S
C709 C711 1.390 . S
C709 H713 0.950 . S
H710 C706 0.950 . S
C711 C709 1.390 . S
C711 C712 1.387 . S
C711 H714 0.950 . S
C712 C711 1.387 . S
C712 C715 1.387 . S
H713 C709 0.950 . S
H714 C711 0.950 . S
C715 C706 1.390 . S
C715 H708 0.950 . S
C715 C712 1.387 . S
C716 C717 1.387 . S
C716 H720 0.950 . S
C716 C725 1.390 1_556 S
C717 C716 1.387 . S
C717 C719 1.387 . S
H718 C725 0.950 . S
C719 C717 1.387 . S
C719 C721 1.390 1_556 S
C719 H723 0.950 . S
H720 C716 0.950 . S
C721 C719 1.390 1_554 S
C721 C722 1.387 . S
C721 H724 0.950 . S
C722 C721 1.387 . S
C722 C725 1.387 . S
H723 C719 0.950 . S
H724 C721 0.950 . S
C725 C716 1.390 1_554 S
C725 H718 0.950 . S
C725 C722 1.387 . S
C726 C727 1.387 . S
C726 H730 0.950 . S
C726 C735 1.390 . S
C727 C726 1.387 . S
C727 C729 1.387 . S
H728 C735 0.950 . S
C729 C727 1.387 . S
C729 C731 1.390 . S
C729 H733 0.950 . S
H730 C726 0.950 . S
C731 C729 1.390 . S
C731 C732 1.387 . S
C731 H734 0.950 . S
C732 C731 1.387 . S
C732 C735 1.387 . S
H733 C729 0.950 . S
H734 C731 0.950 . S
C735 C726 1.390 . S
C735 H728 0.950 . S
C735 C732 1.387 . S
C736 C737 1.387 . S
C736 H740 0.950 . S
C736 C745 1.390 . S
C737 C736 1.387 . S
C737 C739 1.387 1_556 S
H738 C745 0.950 . S
C739 C737 1.387 1_554 S
C739 C741 1.390 . S
C739 H743 0.950 . S
H740 C736 0.950 . S
C741 C739 1.390 . S
C741 C742 1.387 . S
C741 H744 0.950 . S
C742 C741 1.387 . S
C742 C745 1.387 1_554 S
H743 C739 0.950 . S
H744 C741 0.950 . S
C745 C736 1.390 . S
C745 H738 0.950 . S
C745 C742 1.387 1_556 S
C746 C747 1.387 . S
C746 H750 0.950 . S
C746 C755 1.390 . S
C747 C746 1.387 . S
C747 C749 1.387 . S
H748 C755 0.950 . S
C749 C747 1.387 . S
C749 C751 1.390 . S
C749 H753 0.950 . S
H750 C746 0.950 . S
C751 C749 1.390 . S
C751 C752 1.387 . S
C751 H754 0.950 . S
C752 C751 1.387 . S
C752 C755 1.387 . S
H753 C749 0.950 . S
H754 C751 0.950 . S
C755 C746 1.390 . S
C755 H748 0.950 . S
C755 C752 1.387 . S
C756 C757 1.387 1_556 S
C756 H760 0.950 . S
C756 C765 1.390 . S
C757 C756 1.387 1_554 S
C757 C759 1.387 . S
H758 C765 0.950 . S
C759 C757 1.387 . S
C759 C761 1.390 . S
C759 H763 0.950 . S
H760 C756 0.950 . S
C761 C759 1.390 . S
C761 C762 1.387 1_554 S
C761 H764 0.950 . S
C762 C761 1.387 1_556 S
C762 C765 1.387 . S
H763 C759 0.950 . S
H764 C761 0.950 . S
C765 C756 1.390 . S
C765 H758 0.950 . S
C765 C762 1.387 . S
C766 C767 1.387 . S
C766 H770 0.950 . S
C766 C775 1.390 . S
C767 C766 1.387 . S
C767 C769 1.387 . S
H768 C775 0.950 . S
C769 C767 1.387 . S
C769 C771 1.390 . S
C769 H773 0.950 . S
H770 C766 0.950 . S
C771 C769 1.390 . S
C771 C772 1.387 . S
C771 H774 0.950 . S
C772 C771 1.387 . S
C772 C775 1.387 . S
H773 C769 0.950 . S
H774 C771 0.950 . S
C775 C766 1.390 . S
C775 H768 0.950 . S
C775 C772 1.387 . S
C776 C777 1.387 . S
C776 H780 0.950 . S
C776 C785 1.390 1_554 S
C777 C776 1.387 . S
C777 C779 1.387 . S
H778 C785 0.950 . S
C779 C777 1.387 . S
C779 C781 1.390 1_554 S
C779 H783 0.950 . S
H780 C776 0.950 . S
C781 C779 1.390 1_556 S
C781 C782 1.387 . S
C781 H784 0.950 . S
C782 C781 1.387 . S
C782 C785 1.387 . S
H783 C779 0.950 . S
H784 C781 0.950 . S
C785 C776 1.390 1_556 S
C785 H778 0.950 . S
C785 C782 1.387 . S
C786 C787 1.387 . S
C786 H790 0.950 . S
C786 C795 1.390 . S
C787 C786 1.387 . S
C787 C789 1.387 . S
H788 C795 0.950 . S
C789 C787 1.387 . S
C789 C791 1.390 . S
C789 H793 0.950 . S
H790 C786 0.950 . S
C791 C789 1.390 . S
C791 C792 1.387 . S
C791 H794 0.950 . S
C792 C791 1.387 . S
C792 C795 1.387 . S
H793 C789 0.950 . S
H794 C791 0.950 . S
C795 C786 1.390 . S
C795 H788 0.950 . S
C795 C792 1.387 . S
C796 C797 1.387 . S
C796 H800 0.950 . S
C796 C805 1.390 . S
C797 C796 1.387 . S
C797 C799 1.387 1_556 S
H798 C805 0.950 . S
C799 C797 1.387 1_554 S
C799 C801 1.390 . S
C799 H803 0.950 . S
H800 C796 0.950 . S
C801 C799 1.390 . S
C801 C802 1.387 . S
C801 H804 0.950 . S
C802 C801 1.387 . S
C802 C805 1.387 1_554 S
H803 C799 0.950 . S
H804 C801 0.950 . S
C805 C796 1.390 . S
C805 H798 0.950 . S
C805 C802 1.387 1_556 S
C806 C807 1.387 . S
C806 H810 0.950 . S
C806 C815 1.390 . S
C807 C806 1.387 . S
C807 C809 1.387 . S
H808 C815 0.950 . S
C809 C807 1.387 . S
C809 C811 1.390 . S
C809 H813 0.950 . S
H810 C806 0.950 . S
C811 C809 1.390 . S
C811 C812 1.387 . S
C811 H814 0.950 . S
C812 C811 1.387 . S
C812 C815 1.387 . S
H813 C809 0.950 . S
H814 C811 0.950 . S
C815 C806 1.390 . S
C815 H808 0.950 . S
C815 C812 1.387 . S
C337 C0 1.493 . S
C342 C210 1.495 . S
C347 C14 1.494 . S
C352 C224 1.494 . S
C357 C238 1.494 . S
C362 C28 1.494 . S
C367 C168 1.493 . S
C372 C42 1.495 . S
C377 C182 1.494 . S
C382 C56 1.494 . S
C387 C196 1.495 . S
C392 C70 1.493 . S
C397 C294 1.495 . S
C402 C84 1.493 . S
C407 C98 1.495 . S
C412 C308 1.493 . S
C417 C322 1.495 . S
C422 C112 1.493 . S
C427 C126 1.494 . S
C432 C252 1.494 . S
C437 C266 1.494 . S
C442 C140 1.494 . S
C447 C154 1.493 . S
C452 C280 1.495 . S
C457 C151 1.404 . S
C462 C11 1.404 . S
C467 C165 1.402 . S
C472 C25 1.402 . S
C477 C39 1.403 . S
C482 C95 1.402 . S
C487 C53 1.404 . S
C492 C109 1.404 . S
C497 C123 1.403 . S
C502 C67 1.403 . S
C507 C81 1.403 . S
C512 C137 1.403 . S
C517 C319 1.404 . S
C522 C179 1.404 . S
C527 C193 1.402 . S
C532 C333 1.402 . S
C537 C207 1.402 . S
C542 C263 1.402 . S
C547 C277 1.404 . S
C552 C221 1.404 . S
C557 C235 1.403 . S
C562 C291 1.403 . S
C567 C249 1.403 . S
C572 C305 1.403 . S
C577 C5 1.430 . S
C582 C257 1.429 . S
C587 C271 1.429 . S
C592 C19 1.430 . S
C597 C33 1.429 . S
C602 C285 1.430 . S
C607 C47 1.429 . S
C612 C299 1.430 . S
C617 C313 1.430 . S
C622 C61 1.429 . S
C627 C75 1.430 . S
C632 C327 1.429 . S
C637 C89 1.429 . S
C642 C173 1.430 . S
C647 C103 1.429 . S
C652 C187 1.430 . S
C657 C201 1.429 . S
C662 C117 1.430 . S
C667 C215 1.429 . S
C672 C131 1.430 . S
C677 C145 1.429 . S
C682 C229 1.430 . S
C687 C243 1.429 . S
C692 C159 1.430 . S
C697 C93 1.525 . S
C702 C9 1.525 . S
C707 C23 1.525 . S
C712 C107 1.525 . S
C717 C121 1.525 . S
C722 C37 1.525 . S
C727 C135 1.525 . S
C732 C51 1.525 . S
C737 C149 1.525 . S
C742 C65 1.525 . S
C747 C79 1.525 . S
C752 C163 1.525 . S
C757 C261 1.525 . S
C762 C177 1.525 . S
C767 C191 1.525 . S
C772 C275 1.525 . S
C777 C289 1.525 . S
C782 C205 1.525 . S
C787 C303 1.525 . S
C792 C219 1.525 . S
C797 C233 1.525 . S
C802 C317 1.525 . S
C807 C247 1.525 . S
C812 C331 1.525 . S
