# Generated by pormake.
# Topology sms, (6)-cn, num edge types: 1
# Building blocks:
#     Node 0, Type 0, BuildingBlock: OJICUG_clean_sbu_0, # of connection points: 6
#     Node 1, Type 0, BuildingBlock: OJICUG_clean_sbu_0, # of connection points: 6
#     Node 2, Type 0, BuildingBlock: OJICUG_clean_sbu_0, # of connection points: 6
#     Node 3, Type 0, BuildingBlock: OJICUG_clean_sbu_0, # of connection points: 6
#     Node 4, Type 0, BuildingBlock: OJICUG_clean_sbu_0, # of connection points: 6
#     Node 5, Type 0, BuildingBlock: OJICUG_clean_sbu_0, # of connection points: 6
#     Node 6, Type 0, BuildingBlock: OJICUG_clean_sbu_0, # of connection points: 6
#     Node 7, Type 0, BuildingBlock: OJICUG_clean_sbu_0, # of connection points: 6
#     Node 8, Type 0, BuildingBlock: OJICUG_clean_sbu_0, # of connection points: 6
#     Node 9, Type 0, BuildingBlock: OJICUG_clean_sbu_0, # of connection points: 6
#     Node 10, Type 0, BuildingBlock: OJICUG_clean_sbu_0, # of connection points: 6
#     Node 11, Type 0, BuildingBlock: OJICUG_clean_sbu_0, # of connection points: 6
#     Node 12, Type 0, BuildingBlock: OJICUG_clean_sbu_0, # of connection points: 6
#     Node 13, Type 0, BuildingBlock: OJICUG_clean_sbu_0, # of connection points: 6
#     Node 14, Type 0, BuildingBlock: OJICUG_clean_sbu_0, # of connection points: 6
#     Node 15, Type 0, BuildingBlock: OJICUG_clean_sbu_0, # of connection points: 6
#     Node 16, Type 0, BuildingBlock: OJICUG_clean_sbu_0, # of connection points: 6
#     Node 17, Type 0, BuildingBlock: OJICUG_clean_sbu_0, # of connection points: 6
#     Edge 18, Type (0, 0), BuildingBlock: OJICUG_clean_linker_0, # of connection points: 2
#     Edge 19, Type (0, 0), BuildingBlock: OJICUG_clean_linker_0, # of connection points: 2
#     Edge 20, Type (0, 0), BuildingBlock: OJICUG_clean_linker_0, # of connection points: 2
#     Edge 21, Type (0, 0), BuildingBlock: OJICUG_clean_linker_0, # of connection points: 2
#     Edge 22, Type (0, 0), BuildingBlock: OJICUG_clean_linker_0, # of connection points: 2
#     Edge 23, Type (0, 0), BuildingBlock: OJICUG_clean_linker_0, # of connection points: 2
#     Edge 24, Type (0, 0), BuildingBlock: OJICUG_clean_linker_0, # of connection points: 2
#     Edge 25, Type (0, 0), BuildingBlock: OJICUG_clean_linker_0, # of connection points: 2
#     Edge 26, Type (0, 0), BuildingBlock: OJICUG_clean_linker_0, # of connection points: 2
#     Edge 27, Type (0, 0), BuildingBlock: OJICUG_clean_linker_0, # of connection points: 2
#     Edge 28, Type (0, 0), BuildingBlock: OJICUG_clean_linker_0, # of connection points: 2
#     Edge 29, Type (0, 0), BuildingBlock: OJICUG_clean_linker_0, # of connection points: 2
#     Edge 30, Type (0, 0), BuildingBlock: OJICUG_clean_linker_0, # of connection points: 2
#     Edge 31, Type (0, 0), BuildingBlock: OJICUG_clean_linker_0, # of connection points: 2
#     Edge 32, Type (0, 0), BuildingBlock: OJICUG_clean_linker_0, # of connection points: 2
#     Edge 33, Type (0, 0), BuildingBlock: OJICUG_clean_linker_0, # of connection points: 2
#     Edge 34, Type (0, 0), BuildingBlock: OJICUG_clean_linker_0, # of connection points: 2
#     Edge 35, Type (0, 0), BuildingBlock: OJICUG_clean_linker_0, # of connection points: 2
#     Edge 36, Type (0, 0), BuildingBlock: OJICUG_clean_linker_0, # of connection points: 2
#     Edge 37, Type (0, 0), BuildingBlock: OJICUG_clean_linker_0, # of connection points: 2
#     Edge 38, Type (0, 0), BuildingBlock: OJICUG_clean_linker_0, # of connection points: 2
#     Edge 39, Type (0, 0), BuildingBlock: OJICUG_clean_linker_0, # of connection points: 2
#     Edge 40, Type (0, 0), BuildingBlock: OJICUG_clean_linker_0, # of connection points: 2
#     Edge 41, Type (0, 0), BuildingBlock: OJICUG_clean_linker_0, # of connection points: 2
#     Edge 42, Type (0, 0), BuildingBlock: OJICUG_clean_linker_0, # of connection points: 2
#     Edge 43, Type (0, 0), BuildingBlock: OJICUG_clean_linker_0, # of connection points: 2
#     Edge 44, Type (0, 0), BuildingBlock: OJICUG_clean_linker_0, # of connection points: 2
#     Edge 45, Type (0, 0), BuildingBlock: OJICUG_clean_linker_0, # of connection points: 2
#     Edge 46, Type (0, 0), BuildingBlock: OJICUG_clean_linker_0, # of connection points: 2
#     Edge 47, Type (0, 0), BuildingBlock: OJICUG_clean_linker_0, # of connection points: 2
#     Edge 48, Type (0, 0), BuildingBlock: OJICUG_clean_linker_0, # of connection points: 2
#     Edge 49, Type (0, 0), BuildingBlock: OJICUG_clean_linker_0, # of connection points: 2
#     Edge 50, Type (0, 0), BuildingBlock: OJICUG_clean_linker_0, # of connection points: 2
#     Edge 51, Type (0, 0), BuildingBlock: OJICUG_clean_linker_0, # of connection points: 2
#     Edge 52, Type (0, 0), BuildingBlock: OJICUG_clean_linker_0, # of connection points: 2
#     Edge 53, Type (0, 0), BuildingBlock: OJICUG_clean_linker_0, # of connection points: 2
#     Edge 54, Type (0, 0), BuildingBlock: OJICUG_clean_linker_0, # of connection points: 2
#     Edge 55, Type (0, 0), BuildingBlock: OJICUG_clean_linker_0, # of connection points: 2
#     Edge 56, Type (0, 0), BuildingBlock: OJICUG_clean_linker_0, # of connection points: 2
#     Edge 57, Type (0, 0), BuildingBlock: OJICUG_clean_linker_0, # of connection points: 2
#     Edge 58, Type (0, 0), BuildingBlock: OJICUG_clean_linker_0, # of connection points: 2
#     Edge 59, Type (0, 0), BuildingBlock: OJICUG_clean_linker_0, # of connection points: 2
#     Edge 60, Type (0, 0), BuildingBlock: OJICUG_clean_linker_0, # of connection points: 2
#     Edge 61, Type (0, 0), BuildingBlock: OJICUG_clean_linker_0, # of connection points: 2
#     Edge 62, Type (0, 0), BuildingBlock: OJICUG_clean_linker_0, # of connection points: 2
#     Edge 63, Type (0, 0), BuildingBlock: OJICUG_clean_linker_0, # of connection points: 2
#     Edge 64, Type (0, 0), BuildingBlock: OJICUG_clean_linker_0, # of connection points: 2
#     Edge 65, Type (0, 0), BuildingBlock: OJICUG_clean_linker_0, # of connection points: 2
#     Edge 66, Type (0, 0), BuildingBlock: OJICUG_clean_linker_0, # of connection points: 2
#     Edge 67, Type (0, 0), BuildingBlock: OJICUG_clean_linker_0, # of connection points: 2
#     Edge 68, Type (0, 0), BuildingBlock: OJICUG_clean_linker_0, # of connection points: 2
#     Edge 69, Type (0, 0), BuildingBlock: OJICUG_clean_linker_0, # of connection points: 2
#     Edge 70, Type (0, 0), BuildingBlock: OJICUG_clean_linker_0, # of connection points: 2
#     Edge 71, Type (0, 0), BuildingBlock: OJICUG_clean_linker_0, # of connection points: 2
# Relax obj value: 0.417
# Max RMSD: 0.152
# Mean RMSD: 0.152
data_MOF--net-sms--node1-OJICUG_clean_sbu_0--edge1-OJICUG_clean_linker_0
_symmetry_space_group_name_H-M    P1
_symmetry_Int_Tables_number       1
_symmetry_cell_setting            triclinic
loop_
_symmetry_equiv_pos_as_xyz
'x, y, z'
_cell_length_a     30.579253
_cell_length_b     30.667938
_cell_length_c     42.328194
_cell_angle_alpha  90.636854
_cell_angle_beta   89.601232
_cell_angle_gamma 119.60193
loop_
_atom_site_label
_atom_site_type_symbol
_atom_site_fract_x
_atom_site_fract_y
_atom_site_fract_z
_atom_type_partial_charge
Sc0 Sc 0.19291 0.41408 -0.00767 0.0
Sc1 Sc 0.15833 0.33924 0.06123 0.0
Sc2 Sc 0.175 0.45894 0.06488 0.0
O3 O 0.176 0.40424 0.03919 0.0
C4 C 0.27769 0.51328 0.02479 0.0
C5 C 0.23399 0.33986 0.00916 0.0
C6 C 0.22444 0.4142 0.11229 0.0
C7 C 0.09115 0.3094 -0.00095 0.0
C8 C 0.14173 0.4827 -0.00053 0.0
C9 C 0.08596 0.37095 0.09796 0.0
O10 O 0.26371 0.48133 0.00212 0.0
O11 O 0.20924 0.32466 0.03454 0.0
O12 O 0.20779 0.4435 0.10511 0.0
O13 O 0.12157 0.34754 0.98279 0.0
O14 O 0.14197 0.48238 0.02934 0.0
O15 O 0.10592 0.34343 0.09423 0.0
O16 O 0.15949 0.4604 0.98288 0.0
O17 O 0.09983 0.30132 0.02723 0.0
O18 O 0.10066 0.41102 0.08254 0.0
O19 O 0.23179 0.37184 0.9916 0.0
O20 O 0.24942 0.50994 0.04807 0.0
O21 O 0.2164 0.37628 0.09565 0.0
Sc22 Sc 0.56326 0.7842 0.99182 0.0
Sc23 Sc 0.63846 0.8205 0.061 0.0
Sc24 Sc 0.51815 0.80335 0.06392 0.0
O25 O 0.57315 0.80215 0.03864 0.0
C26 C 0.49461 0.83554 -0.00191 0.0
C27 C 0.66793 0.88631 -0.00152 0.0
C28 C 0.6062 0.89266 0.09747 0.0
C29 C 0.63803 0.74397 0.00952 0.0
C30 C 0.46389 0.70021 0.02407 0.0
C31 C 0.56295 0.75444 0.11174 0.0
O32 O 0.51659 0.81708 0.98183 0.0
O33 O 0.67617 0.87839 0.02683 0.0
O34 O 0.56586 0.87757 0.08199 0.0
O35 O 0.60578 0.74555 0.99172 0.0
O36 O 0.46706 0.72902 0.04701 0.0
O37 O 0.60144 0.76301 0.09551 0.0
O38 O 0.49603 0.71359 0.00162 0.0
O39 O 0.65339 0.76944 0.03474 0.0
O40 O 0.53335 0.7707 0.10428 0.0
O41 O 0.62979 0.85534 0.98217 0.0
O42 O 0.49513 0.83616 0.02798 0.0
O43 O 0.6341 0.8731 0.09375 0.0
Sc44 Sc 0.19388 0.78308 0.98945 0.0
Sc45 Sc 0.17772 0.80367 0.07074 0.0
Sc46 Sc 0.2418 0.73964 0.04882 0.0
O47 O 0.20434 0.7756 0.03628 0.0
C48 C 0.17555 0.67155 0.99138 0.0
C49 C 0.08962 0.76108 0.02058 0.0
C50 C 0.15417 0.6992 0.10009 0.0
C51 C 0.21643 0.88854 0.01853 0.0
C52 C 0.30656 0.80317 0.99011 0.0
C53 C 0.28387 0.82978 0.09871 0.0
O54 O 0.16897 0.70486 0.97811 0.0
O55 O 0.10597 0.77362 0.04853 0.0
O56 O 0.18693 0.69568 0.08341 0.0
O57 O 0.21502 0.86042 -0.0042 0.0
O58 O 0.30054 0.77994 0.01575 0.0
O59 O 0.24674 0.83736 0.09705 0.0
O60 O 0.27173 0.80735 0.9767 0.0
O61 O 0.20493 0.87375 0.04682 0.0
O62 O 0.28653 0.79578 0.08291 0.0
O63 O 0.11662 0.76229 -0.00276 0.0
O64 O 0.20112 0.67951 0.01634 0.0
O65 O 0.14685 0.73647 0.09871 0.0
Sc66 Sc 0.45747 0.17384 0.91726 0.0
Sc67 Sc 0.33799 0.15919 0.91931 0.0
Sc68 Sc 0.41227 0.19433 0.9888 0.0
O69 O 0.40275 0.17642 0.94203 0.0
C70 C 0.47908 0.14085 0.98329 0.0
C71 C 0.36904 0.08636 0.88273 0.0
C72 C 0.30696 0.09293 0.98167 0.0
C73 C 0.41518 0.22495 0.86913 0.0
C74 C 0.51333 0.27678 0.95744 0.0
C75 C 0.33862 0.23567 0.97086 0.0
O76 O 0.47841 0.13938 0.95339 0.0
O77 O 0.34188 0.10671 0.88637 0.0
O78 O 0.34498 0.12373 -0.00187 0.0
O79 O 0.44408 0.20796 0.87689 0.0
O80 O 0.48034 0.26435 0.97931 0.0
O81 O 0.32321 0.21037 0.94559 0.0
O82 O 0.50991 0.2475 0.93473 0.0
O83 O 0.37651 0.21687 0.88504 0.0
O84 O 0.37072 0.23382 0.98863 0.0
O85 O 0.40872 0.10015 0.89869 0.0
O86 O 0.45784 0.16048 -0.00086 0.0
O87 O 0.29918 0.10094 0.95322 0.0
Sc88 Sc 0.73388 0.24271 0.93758 0.0
Sc89 Sc 0.79796 0.17928 0.91424 0.0
Sc90 Sc 0.77997 0.19553 -0.00415 0.0
O91 O 0.77075 0.20573 0.94927 0.0
C92 C 0.79886 0.3074 -0.00369 0.0
C93 C 0.82232 0.2851 0.88683 0.0
C94 C 0.88489 0.21894 0.96528 0.0
C95 C 0.69267 0.15548 0.88583 0.0
C96 C 0.66752 0.17579 -0.00516 0.0
C97 C 0.75786 0.0916 0.96434 0.0
O98 O 0.77438 0.30112 0.97107 0.0
O99 O 0.82991 0.24798 0.88787 0.0
O100 O 0.85749 0.2171 0.98854 0.0
O101 O 0.68952 0.18841 0.90254 0.0
O102 O 0.70167 0.17003 0.00787 0.0
O103 O 0.76951 0.10775 0.93635 0.0
O104 O 0.67454 0.20118 0.97005 0.0
O105 O 0.72975 0.14779 0.88723 0.0
O106 O 0.75938 0.11863 0.98776 0.0
O107 O 0.78916 0.28795 0.90349 0.0
O108 O 0.80439 0.27306 0.00902 0.0
O109 O 0.86904 0.2074 0.93715 0.0
Sc110 Sc 0.80602 0.51905 0.92174 0.0
Sc111 Sc 0.81921 0.63784 0.9233 0.0
Sc112 Sc 0.78235 0.56372 -0.00759 0.0
O113 O 0.80199 0.57346 0.94596 0.0
C114 C 0.70119 0.46336 0.9602 0.0
C115 C 0.75525 0.55982 0.87237 0.0
C116 C 0.74117 0.63717 0.9734 0.0
C117 C 0.89484 0.60854 0.88831 0.0
C118 C 0.83614 0.49694 0.98809 0.0
C119 C 0.88354 0.66874 0.98689 0.0
O120 O 0.73229 0.46614 0.93893 0.0
O121 O 0.76396 0.59923 0.88759 0.0
O122 O 0.74456 0.60701 0.99203 0.0
O123 O 0.87954 0.56773 0.90299 0.0
O124 O 0.81363 0.51599 0.00318 0.0
O125 O 0.87505 0.67713 0.95871 0.0
O126 O 0.84191 0.50074 0.95843 0.0
O127 O 0.87474 0.63588 0.89219 0.0
O128 O 0.85359 0.6298 0.00271 0.0
O129 O 0.77116 0.53051 0.88104 0.0
O130 O 0.71181 0.49701 0.98148 0.0
O131 O 0.76527 0.65073 0.94772 0.0
Sc132 Sc 0.86277 0.74993 0.32834 0.0
Sc133 Sc 0.82317 0.67118 0.39513 0.0
Sc134 Sc 0.84827 0.79293 0.40233 0.0
O135 O 0.84537 0.73831 0.37483 0.0
C136 C 0.95016 0.84677 0.3625 0.0
C137 C 0.89696 0.6704 0.34225 0.0
C138 C 0.89345 0.74 0.44637 0.0
C139 C 0.75731 0.64699 0.33376 0.0
C140 C 0.81463 0.82028 0.33769 0.0
C141 C 0.75737 0.70798 0.4343 0.0
O142 O 0.93325 0.81784 0.33833 0.0
O143 O 0.86586 0.65027 0.36457 0.0
O144 O 0.87697 0.77029 0.44167 0.0
O145 O 0.79155 0.6827 0.31743 0.0
O146 O 0.82038 0.82277 0.36738 0.0
O147 O 0.77645 0.67965 0.43084 0.0
O148 O 0.82696 0.79444 0.32 0.0
O149 O 0.76243 0.63935 0.36271 0.0
O150 O 0.77231 0.74722 0.41801 0.0
O151 O 0.90393 0.70981 0.32857 0.0
O152 O 0.92417 0.84149 0.38732 0.0
O153 O 0.88468 0.7038 0.42774 0.0
Sc154 Sc 0.23317 0.12082 0.32949 0.0
Sc155 Sc 0.31193 0.16045 0.39672 0.0
Sc156 Sc 0.18958 0.13491 0.40335 0.0
O157 O 0.24464 0.13821 0.37608 0.0
C158 C 0.16212 0.16824 0.33865 0.0
C159 C 0.33622 0.22624 0.33554 0.0
C160 C 0.27482 0.22629 0.4357 0.0
C161 C 0.31295 0.08675 0.34374 0.0
C162 C 0.13619 0.03335 0.36295 0.0
C163 C 0.24223 0.08937 0.44725 0.0
O164 O 0.18819 0.15609 0.32106 0.0
O165 O 0.34401 0.2211 0.36448 0.0
O166 O 0.23497 0.21061 0.41965 0.0
O167 O 0.27364 0.08007 0.32977 0.0
O168 O 0.14121 0.05926 0.38782 0.0
O169 O 0.27902 0.09888 0.429 0.0
O170 O 0.16529 0.05031 0.33898 0.0
O171 O 0.33302 0.11767 0.36627 0.0
O172 O 0.212 0.10604 0.44267 0.0
O173 O 0.3004 0.19203 0.31904 0.0
O174 O 0.15967 0.16268 0.36834 0.0
O175 O 0.3034 0.20741 0.43235 0.0
Sc176 Sc 0.8619 0.1188 0.32786 0.0
Sc177 Sc 0.84255 0.1399 0.40863 0.0
Sc178 Sc 0.90621 0.07459 0.38867 0.0
O179 O 0.87006 0.11123 0.37501 0.0
C180 C 0.84215 0.00677 0.3307 0.0
C181 C 0.75645 0.09726 0.35678 0.0
C182 C 0.81689 0.03534 0.43876 0.0
C183 C 0.88446 0.22479 0.35634 0.0
C184 C 0.97394 0.13783 0.33073 0.0
C185 C 0.94751 0.16489 0.43826 0.0
O186 O 0.83742 0.04057 0.31655 0.0
O187 O 0.77153 0.11032 0.38497 0.0
O188 O 0.85011 0.03158 0.42276 0.0
O189 O 0.883 0.19619 0.33391 0.0
O190 O 0.96632 0.11396 0.35626 0.0
O191 O 0.91062 0.17285 0.43621 0.0
O192 O 0.94018 0.14299 0.31667 0.0
O193 O 0.87197 0.21037 0.38462 0.0
O194 O 0.95019 0.13078 0.42264 0.0
O195 O 0.78449 0.09806 0.3342 0.0
O196 O 0.86594 0.01436 0.35637 0.0
O197 O 0.80978 0.0727 0.43681 0.0
Sc198 Sc 0.12332 0.51176 0.24721 0.0
Sc199 Sc 0.00162 0.48946 0.25135 0.0
Sc200 Sc 0.07888 0.53208 0.31912 0.0
O201 O 0.06823 0.51167 0.27294 0.0
C202 C 0.1477 0.48129 0.31386 0.0
C203 C 0.03746 0.4207 0.21477 0.0
C204 C 0.9752 0.42691 0.31419 0.0
C205 C 0.07411 0.55762 0.20051 0.0
C206 C 0.17809 0.61589 0.28545 0.0
C207 C 0.00023 0.56628 0.30174 0.0
O208 O 0.15001 0.48345 0.28396 0.0
O209 O 0.00952 0.44034 0.21743 0.0
O210 O 0.01102 0.46176 0.33036 0.0
O211 O 0.10377 0.54077 0.20663 0.0
O212 O 0.14745 0.60164 0.30877 0.0
O213 O 0.98069 0.5344 0.27966 0.0
O214 O 0.17353 0.5876 0.26192 0.0
O215 O 0.03655 0.54912 0.21781 0.0
O216 O 0.03904 0.57334 0.31652 0.0
O217 O 0.07674 0.43585 0.23135 0.0
O218 O 0.12304 0.49689 0.33003 0.0
O219 O 0.96795 0.43062 0.28491 0.0
Sc220 Sc 0.40041 0.57921 0.26728 0.0
Sc221 Sc 0.46504 0.51566 0.24542 0.0
Sc222 Sc 0.44765 0.53514 0.32664 0.0
O223 O 0.43784 0.54323 0.27981 0.0
C224 C 0.46612 0.64671 0.32496 0.0
C225 C 0.48803 0.61984 0.21607 0.0
C226 C 0.55256 0.55809 0.29613 0.0
C227 C 0.3593 0.49014 0.21683 0.0
C228 C 0.33507 0.51487 0.32557 0.0
C229 C 0.42507 0.42995 0.29699 0.0
O230 O 0.441 0.63904 0.29984 0.0
O231 O 0.49608 0.58308 0.21781 0.0
O232 O 0.52504 0.55645 0.31925 0.0
O233 O 0.35604 0.52347 0.23302 0.0
O234 O 0.36959 0.51021 0.33898 0.0
O235 O 0.43701 0.44503 0.2688 0.0
O236 O 0.34154 0.53878 0.30019 0.0
O237 O 0.39651 0.48268 0.21857 0.0
O238 O 0.42672 0.45793 0.31987 0.0
O239 O 0.45505 0.62314 0.23263 0.0
O240 O 0.47226 0.6132 0.33833 0.0
O241 O 0.5367 0.54553 0.26807 0.0
Sc242 Sc 0.46873 0.85862 0.24696 0.0
Sc243 Sc 0.49136 0.98002 0.2518 0.0
Sc244 Sc 0.4487 0.90275 0.31911 0.0
O245 O 0.46897 0.91349 0.273 0.0
C246 C 0.36461 0.80369 0.285 0.0
C247 C 0.42354 0.90861 0.20037 0.0
C248 C 0.41468 0.98144 0.30228 0.0
C249 C 0.55966 0.9439 0.21481 0.0
C250 C 0.49952 0.83406 0.31346 0.0
C251 C 0.55389 0.00633 0.31477 0.0
O252 O 0.39261 0.80852 0.26129 0.0
O253 O 0.43155 0.94562 0.21809 0.0
O254 O 0.40707 0.94228 0.31658 0.0
O255 O 0.54491 0.9051 0.23154 0.0
O256 O 0.48443 0.85899 0.32981 0.0
O257 O 0.5504 0.01329 0.28544 0.0
O258 O 0.49684 0.83157 0.28358 0.0
O259 O 0.54008 0.97185 0.21764 0.0
O260 O 0.51894 0.97066 0.33074 0.0
O261 O 0.44008 0.87874 0.20646 0.0
O262 O 0.37917 0.83414 0.3085 0.0
O263 O 0.44681 0.00111 0.28045 0.0
Sc264 Sc 0.53475 0.08288 0.66242 0.0
Sc265 Sc 0.49133 0.00647 0.73014 0.0
Sc266 Sc 0.51112 0.12707 0.73351 0.0
O267 O 0.51301 0.07243 0.70833 0.0
C268 C 0.61657 0.18283 0.69661 0.0
C269 C 0.5698 0.00538 0.68108 0.0
C270 C 0.55691 0.07966 0.78171 0.0
C271 C 0.43038 0.97856 0.66639 0.0
C272 C 0.482 0.15027 0.66615 0.0
C273 C 0.42012 0.04064 0.76537 0.0
O274 O 0.60381 0.1516 0.67359 0.0
O275 O 0.53803 0.98654 0.70313 0.0
O276 O 0.54021 0.10908 0.77471 0.0
O277 O 0.46486 0.0148 0.65051 0.0
O278 O 0.48225 0.15198 0.69608 0.0
O279 O 0.44038 0.01329 0.76289 0.0
O280 O 0.49947 0.12669 0.65056 0.0
O281 O 0.43385 0.97168 0.69572 0.0
O282 O 0.43501 0.07974 0.7489 0.0
O283 O 0.57643 0.04336 0.66574 0.0
O284 O 0.58709 0.17825 0.71939 0.0
O285 O 0.54952 0.04224 0.76463 0.0
Sc286 Sc 0.90396 0.45377 0.66604 0.0
Sc287 Sc 0.97912 0.49202 0.73509 0.0
Sc288 Sc 0.85838 0.47429 0.73748 0.0
O289 O 0.91368 0.47283 0.71261 0.0
C290 C 0.83624 0.50602 0.67097 0.0
C291 C 0.0088 0.55625 0.67196 0.0
C292 C 0.94602 0.56382 0.7712 0.0
C293 C 0.97919 0.41478 0.68431 0.0
C294 C 0.80349 0.37059 0.69815 0.0
C295 C 0.90297 0.42555 0.78562 0.0
O296 O 0.85878 0.48763 0.65528 0.0
O297 O 0.01669 0.54998 0.70076 0.0
O298 O 0.90601 0.5488 0.75534 0.0
O299 O 0.94556 0.41457 0.667 0.0
O300 O 0.80685 0.39966 0.72097 0.0
O301 O 0.94175 0.43434 0.76957 0.0
O302 O 0.83595 0.38366 0.6759 0.0
O303 O -0.00451 0.44163 0.70895 0.0
O304 O 0.87347 0.44192 0.77809 0.0
O305 O 0.9711 0.52411 0.65582 0.0
O306 O 0.8356 0.50653 0.70089 0.0
O307 O 0.97396 0.54428 0.76773 0.0
Sc308 Sc 0.53574 0.4491 0.65573 0.0
Sc309 Sc 0.51881 0.46598 0.73736 0.0
Sc310 Sc 0.58076 0.40056 0.7138 0.0
O311 O 0.54494 0.43862 0.70227 0.0
C312 C 0.51546 0.33666 0.65506 0.0
C313 C 0.43163 0.42726 0.68636 0.0
C314 C 0.49271 0.35975 0.76483 0.0
C315 C 0.56008 0.55377 0.68746 0.0
C316 C 0.64752 0.46769 0.65664 0.0
C317 C 0.62311 0.48683 0.76597 0.0
O318 O 0.51098 0.37153 0.64219 0.0
O319 O 0.44792 0.43963 0.71436 0.0
O320 O 0.52551 0.35619 0.74819 0.0
O321 O 0.55676 0.52612 0.66396 0.0
O322 O 0.64005 0.44144 0.68109 0.0
O323 O 0.58665 0.49548 0.76459 0.0
O324 O 0.61389 0.47454 0.64393 0.0
O325 O 0.54922 0.53801 0.71558 0.0
O326 O 0.62591 0.45412 0.74885 0.0
O327 O 0.45846 0.42777 0.66313 0.0
O328 O 0.53933 0.34244 0.68048 0.0
O329 O 0.48551 0.39709 0.7635 0.0
Sc330 Sc 0.79559 0.85116 0.58428 0.0
Sc331 Sc 0.67299 0.82501 0.59063 0.0
Sc332 Sc 0.75122 0.86413 0.65819 0.0
O333 O 0.74018 0.84728 0.61146 0.0
C334 C 0.82265 0.81713 0.6489 0.0
C335 C 0.71073 0.7598 0.55159 0.0
C336 C 0.64845 0.7587 0.65168 0.0
C337 C 0.7426 0.89607 0.54004 0.0
C338 C 0.84807 0.95223 0.62519 0.0
C339 C 0.67173 0.89858 0.64354 0.0
O340 O 0.82534 0.82314 0.61925 0.0
O341 O 0.68176 0.77818 0.55515 0.0
O342 O 0.6842 0.79266 0.66834 0.0
O343 O 0.77334 0.88014 0.54495 0.0
O344 O 0.81891 0.93486 0.64909 0.0
O345 O 0.65196 0.86795 0.62085 0.0
O346 O 0.84341 0.92667 0.6002 0.0
O347 O 0.70568 0.88639 0.5582 0.0
O348 O 0.71053 0.90473 0.65793 0.0
O349 O 0.7507 0.77566 0.56755 0.0
O350 O 0.79643 0.82902 0.66656 0.0
O351 O 0.64073 0.76429 0.62281 0.0
Sc352 Sc 0.07536 0.90649 0.59661 0.0
Sc353 Sc 0.1394 0.84168 0.57648 0.0
Sc354 Sc 0.12207 0.86444 0.6573 0.0
O355 O 0.11238 0.87068 0.61018 0.0
C356 C 0.14026 0.97566 0.65412 0.0
C357 C 0.1639 0.9459 0.54614 0.0
C358 C 0.22695 0.88622 0.62707 0.0
C359 C 0.03386 0.81523 0.54745 0.0
C360 C 0.00931 0.84409 0.65517 0.0
C361 C 0.10011 0.75829 0.62987 0.0
O362 O 0.11508 0.96714 0.62894 0.0
O363 O 0.17048 0.90816 0.5476 0.0
O364 O 0.19945 0.88508 0.65009 0.0
O365 O 0.03159 0.85001 0.56255 0.0
O366 O 0.04401 0.84067 0.66939 0.0
O367 O 0.11209 0.77215 0.60143 0.0
O368 O 0.01577 0.86649 0.62915 0.0
O369 O 0.07052 0.80702 0.54981 0.0
O370 O 0.10102 0.7871 0.65197 0.0
O371 O 0.13131 0.95 0.56262 0.0
O372 O 0.14677 0.94272 0.66791 0.0
O373 O 0.21112 0.87294 0.59907 0.0
Sc374 Sc 0.13487 0.19032 0.58448 0.0
Sc375 Sc 0.15746 0.31169 0.59064 0.0
Sc376 Sc 0.12258 0.23482 0.65871 0.0
O377 O 0.1378 0.24548 0.61166 0.0
C378 C 0.03391 0.13812 0.62576 0.0
C379 C 0.08794 0.2403 0.53948 0.0
C380 C 0.08414 0.31176 0.64432 0.0
C381 C 0.2259 0.27673 0.55215 0.0
C382 C 0.16989 0.16362 0.64854 0.0
C383 C 0.22576 0.33837 0.65199 0.0
O384 O 0.05993 0.14185 0.60119 0.0
O385 O 0.09751 0.27763 0.55714 0.0
O386 O 0.08455 0.27782 0.66083 0.0
O387 O 0.20973 0.23609 0.56715 0.0
O388 O 0.15613 0.18811 0.66637 0.0
O389 O 0.21745 0.34694 0.62386 0.0
O390 O 0.16544 0.1625 0.61882 0.0
O391 O 0.20746 0.30556 0.55627 0.0
O392 O 0.19456 0.30065 0.66824 0.0
O393 O 0.10378 0.20984 0.54512 0.0
O394 O 0.05078 0.16822 0.6494 0.0
O395 O 0.1094 0.328 0.61917 0.0
C396 C 0.10917 0.58415 -0.00263 0.0
C397 C 0.15017 0.61959 0.97974 0.0
H398 H 0.073 0.51045 0.01695 0.0
C399 C 0.17724 0.60347 0.96069 0.0
H400 H 0.08826 0.59602 0.01258 0.0
C401 C 0.16817 0.55415 0.9629 0.0
C402 C 0.13283 0.52113 0.98482 0.0
H403 H 0.20957 0.63042 0.94736 0.0
H404 H 0.19377 0.5445 0.95101 0.0
C405 C 0.10059 0.53517 -3e-05 0.0
C406 C 0.40185 0.62068 -0.00394 0.0
C407 C 0.41984 0.64921 0.024 0.0
H408 H 0.34215 0.55467 0.97423 0.0
C409 C 0.39333 0.62999 0.05232 0.0
H410 H 0.42167 0.63453 0.97391 0.0
C411 C 0.3484 0.58484 0.05251 0.0
C412 C 0.32861 0.55756 0.02439 0.0
H413 H 0.40665 0.65046 0.07441 0.0
H414 H 0.32852 0.57197 0.07474 0.0
C415 C 0.35643 0.57505 -0.00375 0.0
C416 C 0.44313 0.87777 -0.00244 0.0
C417 C 0.45639 0.84454 0.98301 0.0
H418 H 0.38294 0.89148 0.00966 0.0
C419 C 0.42276 0.80877 0.96132 0.0
H420 H 0.46839 0.90576 0.0143 0.0
C421 C 0.37348 0.80027 0.95894 0.0
C422 C 0.35803 0.82826 0.97762 0.0
H423 H 0.43185 0.78247 0.94986 0.0
H424 H 0.34599 0.76757 0.94598 0.0
C425 C 0.39423 0.86978 -0.00525 0.0
C426 C 0.54897 0.16669 0.02157 0.0
C427 C 0.51702 0.13185 -0.00118 0.0
H428 H 0.62465 0.20802 0.03878 0.0
C429 C 0.53178 0.0998 0.98422 0.0
H430 H 0.53869 0.192 0.03319 0.0
C431 C 0.58074 0.10834 0.98809 0.0
C432 C 0.61548 0.14927 0.00629 0.0
H433 H 0.50783 0.07245 0.96674 0.0
H434 H 0.59339 0.08775 0.97318 0.0
C435 C 0.5983 0.1758 0.02497 0.0
C436 C 0.8063 0.42458 0.02443 0.0
C437 C 0.84328 0.45769 0.00329 0.0
H438 H 0.76308 0.34817 0.03934 0.0
C439 C 0.87636 0.44347 0.98952 0.0
H440 H 0.78016 0.43438 0.03541 0.0
C441 C 0.86707 0.39427 -0.0076 0.0
C442 C 0.8245 0.3588 0.00888 0.0
H443 H 0.90539 0.46829 0.9733 0.0
H444 H 0.88879 0.38233 0.97803 0.0
C445 C 0.79654 0.37509 0.02688 0.0
C446 C 0.63547 0.38811 0.93213 0.0
C447 C 0.65074 0.41824 0.95951 0.0
H448 H 0.58048 0.32092 0.90994 0.0
C449 C 0.61845 0.40339 0.98587 0.0
H450 H 0.65887 0.39872 0.91115 0.0
C451 C 0.57275 0.35799 0.98519 0.0
C452 C 0.55879 0.32699 0.95811 0.0
H453 H 0.62915 0.42595 0.00727 0.0
H454 H 0.5492 0.34655 0.00609 0.0
C455 C 0.59025 0.34327 0.93143 0.0
C456 C 0.77802 0.91879 0.33721 0.0
C457 C 0.81752 0.95491 0.31892 0.0
H458 H 0.74517 0.84547 0.35717 0.0
C459 C 0.84477 0.93989 0.29915 0.0
H460 H 0.75704 0.92981 0.35299 0.0
C461 C 0.8376 0.89121 0.30127 0.0
C462 C 0.80388 0.85779 0.32369 0.0
H463 H 0.87605 0.9674 0.28534 0.0
H464 H 0.86343 0.88247 0.28882 0.0
C465 C 0.77139 0.87054 0.33973 0.0
C466 C 0.02631 0.91146 0.33327 0.0
C467 C 0.00163 0.89022 0.36187 0.0
H468 H 0.08886 0.97401 0.31104 0.0
C469 C 0.02482 0.91347 0.39049 0.0
H470 H 0.00936 0.89425 0.31085 0.0
C471 C 0.06983 0.95864 0.39059 0.0
C472 C 0.09293 0.98184 0.36209 0.0
H473 H 0.00735 0.89758 0.41297 0.0
H474 H 0.08571 0.9762 0.41316 0.0
C475 C 0.07174 0.95705 0.33338 0.0
C476 C 0.09079 0.14402 0.30194 0.0
C477 C 0.12404 0.17817 0.32446 0.0
H478 H 0.01438 0.10442 0.28574 0.0
C479 C 0.11055 0.21015 0.34043 0.0
H480 H 0.10012 0.11858 0.28955 0.0
C481 C 0.06184 0.20266 0.33771 0.0
C482 C 0.02601 0.16279 0.3193 0.0
H483 H 0.13548 0.23666 0.35795 0.0
H484 H 0.05034 0.22334 0.35341 0.0
C485 C 0.04165 0.13596 0.29964 0.0
C486 C 0.26646 0.51596 0.35573 0.0
C487 C 0.28323 0.48877 0.33735 0.0
H488 H 0.20728 0.533 0.36348 0.0
C489 C 0.2482 0.44759 0.31944 0.0
H490 H 0.29306 0.54838 0.36928 0.0
C491 C 0.19946 0.43949 0.31541 0.0
C492 C 0.18514 0.47206 0.32971 0.0
H493 H 0.26057 0.42652 0.30476 0.0
H494 H 0.17534 0.41204 0.29803 0.0
C495 C 0.21726 0.5072 0.35222 0.0
C496 C 0.53296 0.73351 0.31841 0.0
C497 C 0.492 0.69875 0.33638 0.0
H498 H 0.56847 0.80609 0.29723 0.0
C499 C 0.46491 0.71559 0.35482 0.0
H500 H 0.55389 0.72107 0.30365 0.0
C501 C 0.47372 0.76466 0.35149 0.0
C502 C 0.50879 0.79661 0.32908 0.0
H503 H 0.4326 0.68916 0.36839 0.0
H504 H 0.44804 0.77473 0.36286 0.0
C505 C 0.54114 0.78214 0.31459 0.0
C506 C 0.24908 0.68636 0.25722 0.0
C507 C 0.22233 0.66702 0.28548 0.0
H508 H 0.31402 0.74456 0.2349 0.0
C509 C 0.24029 0.69561 0.31342 0.0
H510 H 0.23595 0.66588 0.23512 0.0
C511 C 0.28566 0.74134 0.31329 0.0
C512 C 0.31365 0.75908 0.28522 0.0
H513 H 0.22043 0.68178 0.33556 0.0
H514 H 0.29973 0.76169 0.33534 0.0
C515 C 0.29402 0.73168 0.25709 0.0
C516 C 0.43953 0.20138 0.66348 0.0
C517 C 0.47294 0.18747 0.64993 0.0
H518 H 0.42579 0.26198 0.67381 0.0
C519 C 0.5089 0.21984 0.62806 0.0
H520 H 0.4114 0.17707 0.68033 0.0
C521 C 0.51753 0.26885 0.62465 0.0
C522 C 0.48949 0.28526 0.64249 0.0
H523 H 0.53532 0.21019 0.61734 0.0
H524 H 0.55053 0.29561 0.61174 0.0
C525 C 0.44756 0.24997 0.65954 0.0
C526 C 0.6845 0.25654 0.72494 0.0
C527 C 0.66728 0.22782 0.69705 0.0
H528 H 0.74074 0.32317 0.74717 0.0
C529 C 0.69759 0.24438 0.66979 0.0
H530 H 0.66268 0.24465 0.74656 0.0
C531 C 0.74302 0.29006 0.67016 0.0
C532 C 0.75872 0.3198 0.69777 0.0
H533 H 0.68542 0.22301 0.64795 0.0
H534 H 0.76484 0.30285 0.64859 0.0
C535 C 0.72946 0.30179 0.72529 0.0
C536 C 0.7679 0.47978 0.63161 0.0
C537 C 0.79846 0.5145 0.65486 0.0
H538 H 0.693 0.43742 0.61333 0.0
C539 C 0.78236 0.54566 0.66918 0.0
H540 H 0.77931 0.45521 0.62017 0.0
C541 C 0.73328 0.53624 0.6645 0.0
C542 C 0.6998 0.4952 0.64587 0.0
H543 H 0.80528 0.5729 0.68703 0.0
H544 H 0.71947 0.55608 0.67916 0.0
C545 C 0.7184 0.46966 0.62748 0.0
C546 C 0.92089 0.77993 0.64949 0.0
C547 C 0.95769 0.81982 0.66743 0.0
H548 H 0.84691 0.74692 0.62985 0.0
C549 C 0.94324 0.84764 0.6871 0.0
H550 H 0.93144 0.75849 0.63379 0.0
C551 C 0.89443 0.84063 0.68512 0.0
C552 C 0.8603 0.80645 0.66297 0.0
H553 H 0.97124 0.8792 0.70064 0.0
H554 H 0.8861 0.86685 0.69742 0.0
C555 C 0.87253 0.77347 0.6471 0.0
C556 C 0.14607 0.09177 0.68428 0.0
C557 C 0.1801 0.12547 0.6621 0.0
H558 H 0.10668 0.01523 0.69952 0.0
C559 C 0.21206 0.11239 0.64564 0.0
H560 H 0.12065 0.10074 0.69705 0.0
C561 C 0.20449 0.06373 0.64747 0.0
C562 C 0.16481 0.02764 0.66564 0.0
H563 H 0.23852 0.13767 0.62838 0.0
H564 H 0.22511 0.05263 0.63143 0.0
C565 C 0.13805 0.04274 0.68577 0.0
C566 C 0.9584 0.07283 0.59794 0.0
C567 C 0.98224 0.09525 0.62656 0.0
H568 H 0.897 0.01069 0.57521 0.0
C569 C 0.95815 0.0735 0.6552 0.0
H570 H 0.97547 0.08925 0.57548 0.0
C571 C 0.91269 0.02795 0.65505 0.0
C572 C 0.89098 0.00383 0.62626 0.0
H573 H 0.97569 0.09015 0.6776 0.0
H574 H 0.89607 0.01041 0.67735 0.0
C575 C 0.91337 0.02773 0.59779 0.0
C576 C 0.06903 0.34952 0.15483 0.0
C577 C 0.05629 0.36504 0.12687 0.0
H578 H 0.07284 0.35523 0.20532 0.0
C579 C 0.02553 0.38702 0.12885 0.0
H580 H 0.09276 0.33249 0.15411 0.0
C581 C 0.01331 0.39919 0.15828 0.0
C582 C 0.03275 0.39064 0.18612 0.0
H583 H 0.01496 0.39909 0.10768 0.0
H584 H -0.00639 0.4204 0.15888 0.0
C585 C 0.05784 0.36276 0.18425 0.0
C586 C 0.56297 0.6858 0.14317 0.0
C587 C 0.55091 0.72421 0.14045 0.0
H588 H 0.55231 0.62203 0.16952 0.0
C589 C 0.52375 0.73171 0.16468 0.0
H590 H 0.58418 0.67955 0.1248 0.0
C591 C 0.50603 0.69943 0.1902 0.0
C592 C 0.51462 0.65854 0.19192 0.0
H593 H 0.51491 0.7618 0.16347 0.0
H594 H 0.48378 0.70549 0.20792 0.0
C595 C 0.54473 0.65296 0.16872 0.0
C596 C 0.352 0.9065 0.17086 0.0
C597 C 0.39296 0.89788 0.17179 0.0
H598 H 0.28462 0.89134 0.14663 0.0
C599 C 0.40158 0.87346 0.14631 0.0
H600 H 0.34483 0.92547 0.19025 0.0
C601 C 0.36762 0.85421 0.1215 0.0
C602 C 0.32409 0.8587 0.12177 0.0
H603 H 0.43361 0.86734 0.1462 0.0
H604 H 0.37439 0.83376 0.10285 0.0
C605 C 0.3176 0.88687 0.14596 0.0
C606 C 0.38529 0.02676 0.85104 0.0
C607 C 0.3635 0.05761 0.85337 0.0
H608 H 0.41874 -0.00468 0.8207 0.0
C609 C 0.34844 0.0712 0.82553 0.0
H610 H 0.397 0.01552 0.87209 0.0
C611 C 0.36199 0.06073 0.796 0.0
C612 C 0.38969 0.03548 0.79387 0.0
H613 H 0.33153 0.09501 0.82652 0.0
H614 H 0.35483 0.07634 0.77512 0.0
C615 C 0.39772 0.01522 0.82148 0.0
C616 C 0.86138 0.40022 0.83784 0.0
C617 C 0.88981 0.39405 0.81386 0.0
H618 H 0.81879 0.37142 0.87998 0.0
C619 C 0.90138 0.35523 0.81607 0.0
H620 H 0.85277 0.4305 0.83702 0.0
C621 C 0.88148 0.3208 0.84075 0.0
C622 C 0.85013 0.32511 0.8636 0.0
H623 H 0.92345 0.34989 0.79788 0.0
H624 H 0.88884 0.2897 0.8411 0.0
C625 C 0.84196 0.36632 0.8625 0.0
C626 C 0.65833 0.54539 0.81233 0.0
C627 C 0.66149 0.51195 0.79065 0.0
H628 H 0.68598 0.58709 0.8555 0.0
C629 C 0.69906 0.49876 0.79455 0.0
H630 H 0.63002 0.55655 0.80983 0.0
C631 C 0.73045 0.51574 0.8207 0.0
C632 C 0.72536 0.54671 0.84333 0.0
H633 H 0.70304 0.47361 0.77812 0.0
H634 H 0.75803 0.50364 0.82354 0.0
C635 C 0.69027 0.56285 0.83846 0.0
C636 C 0.96927 0.58262 0.82796 0.0
C637 C 0.95151 0.59348 0.80021 0.0
H638 H 0.96516 0.57931 0.87849 0.0
C639 C 0.92752 0.62236 0.80256 0.0
H640 H 0.98801 0.5605 0.827 0.0
C641 C 0.91547 0.63417 0.83219 0.0
C642 C 0.92612 0.61613 0.85986 0.0
H643 H 0.91376 0.6316 0.78159 0.0
H644 H 0.89246 0.65198 0.8331 0.0
C645 C 0.95612 0.59331 0.85757 0.0
C646 C 0.41586 0.29346 0.8371 0.0
C647 C 0.42819 0.25533 0.84039 0.0
H648 H 0.42671 0.35691 0.81034 0.0
C649 C 0.45626 0.24806 0.81664 0.0
H650 H 0.39394 0.29953 0.85504 0.0
C651 C 0.47452 0.28028 0.79108 0.0
C652 C 0.46556 0.32088 0.78883 0.0
H653 H 0.46534 0.21818 0.81824 0.0
H654 H 0.49747 0.27445 0.7738 0.0
C655 C 0.43462 0.32622 0.81153 0.0
C656 C 0.57896 0.11768 0.83513 0.0
C657 C 0.58681 0.09109 0.81065 0.0
H658 H 0.60559 0.15787 0.87846 0.0
C659 C 0.62583 0.07977 0.81312 0.0
H660 H 0.54838 0.12593 0.8341 0.0
C661 C 0.65909 0.09843 0.8386 0.0
C662 C 0.65337 0.12829 0.86194 0.0
H663 H 0.63236 0.05905 0.79455 0.0
H664 H 0.69055 0.09151 0.83916 0.0
C665 C 0.61175 0.1359 0.86058 0.0
C666 C 0.62917 0.91114 0.15424 0.0
C667 C 0.61227 0.92263 0.12636 0.0
H668 H 0.62553 0.90905 0.2048 0.0
C669 C 0.58955 0.95269 0.12843 0.0
H670 H 0.64676 0.88794 0.15346 0.0
C671 C 0.57829 0.96563 0.15793 0.0
C672 C 0.58849 0.94763 0.18578 0.0
H673 H 0.57635 0.96228 0.10734 0.0
H674 H 0.55658 0.98483 0.15865 0.0
C675 C 0.61682 0.92302 0.18374 0.0
C676 C 0.0976 0.6653 0.14755 0.0
C677 C 0.12595 0.65926 0.1233 0.0
H678 H 0.05815 0.63704 0.19134 0.0
C679 C 0.13059 0.61591 0.1227 0.0
H680 H 0.093 0.69812 0.1485 0.0
C681 C 0.11095 0.58146 0.14705 0.0
C682 C 0.08585 0.58928 0.17245 0.0
H683 H 0.15121 0.60941 0.10405 0.0
H684 H 0.11706 0.54952 0.14658 0.0
C685 C 0.0775 0.63035 0.17198 0.0
C686 C 0.32659 0.43338 0.16941 0.0
C687 C 0.32018 0.46259 0.19289 0.0
H688 H 0.30066 0.39464 0.12506 0.0
C689 C 0.27826 0.46973 0.19147 0.0
H690 H 0.35832 0.42689 0.17 0.0
C691 C 0.2459 0.45178 0.16581 0.0
C692 C 0.25442 0.42588 0.14121 0.0
H693 H 0.27158 0.49118 0.20946 0.0
H694 H 0.21505 0.45962 0.16475 0.0
C695 C 0.2937 0.41493 0.14372 0.0
C696 C 0.7302 0.70153 0.52087 0.0
C697 C 0.70599 0.73025 0.52275 0.0
H698 H 0.76398 0.67006 0.49076 0.0
C699 C 0.6876 0.74 0.4949 0.0
H700 H 0.74449 0.69324 0.54198 0.0
C701 C 0.6996 0.7276 0.46547 0.0
C702 C 0.72913 0.70425 0.46353 0.0
H703 H 0.6688 0.76209 0.49556 0.0
H704 H 0.68959 0.7402 0.44431 0.0
C705 C 0.74118 0.6881 0.49146 0.0
C706 C 0.2116 0.06651 0.50193 0.0
C707 C 0.23234 0.05719 0.47481 0.0
H708 H 0.17491 0.03918 0.54603 0.0
C709 C 0.23716 0.014 0.47315 0.0
H710 H 0.20831 0.10005 0.50396 0.0
C711 C 0.21739 0.97846 0.49729 0.0
C712 C 0.19293 0.98609 0.52328 0.0
H713 H 0.2531 0.00618 0.45237 0.0
H714 H 0.21874 0.94396 0.49474 0.0
C715 C 0.19234 0.03151 0.52597 0.0
C716 C 0.06582 0.20804 0.48492 0.0
C717 C 0.05677 0.23043 0.51131 0.0
H718 H 0.039 0.17111 0.44066 0.0
C719 C 0.01522 0.23819 0.51147 0.0
H720 H 0.09831 0.20269 0.48401 0.0
C721 C 0.98064 0.21957 0.48661 0.0
C722 C 0.98768 0.1934 0.46139 0.0
H723 H 0.00779 0.25565 0.53163 0.0
H724 H 0.94714 0.22309 0.48806 0.0
C725 C 0.0318 0.18997 0.46012 0.0
C726 C 0.24407 0.29839 0.49538 0.0
C727 C 0.25581 0.28223 0.52341 0.0
H728 H 0.24119 0.29311 0.44486 0.0
C729 C 0.28573 0.25927 0.52168 0.0
H730 H 0.22094 0.31609 0.49593 0.0
C731 C 0.29809 0.24688 0.49235 0.0
C732 C 0.27969 0.25629 0.46439 0.0
H733 H 0.29547 0.24662 0.54294 0.0
H734 H 0.31699 0.22489 0.49188 0.0
C735 C 0.25543 0.285 0.46606 0.0
C736 C 0.76402 0.00389 0.48791 0.0
C737 C 0.7884 -0.00427 0.46207 0.0
H738 H 0.72961 0.97781 0.53335 0.0
C739 C 0.7901 0.95082 0.46027 0.0
H740 H 0.76188 0.03803 0.48982 0.0
C741 C 0.77214 0.91701 0.485 0.0
C742 C 0.75157 0.92703 0.51195 0.0
H743 H 0.80755 0.94276 0.44037 0.0
H744 H 0.77627 0.88391 0.48362 0.0
C745 C 0.74552 0.96952 0.51274 0.0
C746 C 0.94882 0.78836 0.52617 0.0
C747 C -0.00644 0.78616 0.52449 0.0
H748 H 0.88169 0.77462 0.50266 0.0
C749 C 0.00114 0.7609 0.49893 0.0
H750 H 0.94127 0.8065 0.54591 0.0
C751 C 0.96651 0.74221 0.47408 0.0
C752 C 0.9243 0.7489 0.47463 0.0
H753 H 0.03517 0.75836 0.49716 0.0
H754 H 0.97447 0.72575 0.45361 0.0
C755 C 0.91465 0.77009 0.50144 0.0
C756 C 0.28536 0.29974 0.022 0.0
C757 C 0.26502 0.31767 -0.00075 0.0
H758 H 0.32563 0.26053 0.03076 0.0
C759 C 0.27215 0.31154 0.96707 0.0
H760 H 0.28065 0.30434 0.047 0.0
C761 C 0.29707 0.28571 0.9578 0.0
C762 C 0.31626 0.26664 0.98057 0.0
H763 H 0.25674 0.32494 0.94908 0.0
H764 H 0.30075 0.28008 0.93282 0.0
C765 C 0.31127 0.27494 0.01273 0.0
C766 C 0.75396 0.02546 -0.00098 0.0
C767 C 0.7417 0.03884 0.97027 0.0
H768 H 0.74211 0.96648 0.0299 0.0
C769 C 0.71178 0.00138 0.94833 0.0
H770 H 0.77797 0.05389 0.01597 0.0
C771 C 0.69049 0.95089 0.95639 0.0
C772 C 0.69961 0.93747 0.98629 0.0
H773 H 0.70234 0.0111 0.92583 0.0
H774 H 0.66475 0.92267 0.93996 0.0
C775 C 0.73365 0.97528 0.00681 0.0
C776 C 0.94885 0.6924 0.02887 0.0
C777 C 0.93468 0.70126 -0.00086 0.0
H778 H 0.01001 0.70497 0.05909 0.0
C779 C 0.97197 0.73559 0.97866 0.0
H780 H 0.92102 0.66646 0.04526 0.0
C781 C 0.02248 0.75631 0.98623 0.0
C782 C 0.03659 0.74423 0.01474 0.0
H783 H 0.96256 0.74388 0.9557 0.0
H784 H 0.05057 0.7805 0.9693 0.0
C785 C -0.00036 0.71416 0.03673 0.0
C786 C 0.6649 0.70321 0.96822 0.0
C787 C 0.66004 0.71248 0.00024 0.0
H788 H 0.69498 0.6723 0.93459 0.0
C789 C 0.67876 0.69354 0.0234 0.0
H790 H 0.65082 0.71742 0.94991 0.0
C791 C 0.70316 0.66698 0.01468 0.0
C792 C 0.71024 0.65986 0.98264 0.0
H793 H 0.6751 0.69982 0.04828 0.0
H794 H 0.71825 0.6538 0.03301 0.0
C795 C 0.6903 0.6776 0.95948 0.0
C796 C 0.22255 0.95343 0.98166 0.0
C797 C 0.23263 0.94104 0.01146 0.0
H798 H 0.23642 0.0114 0.94931 0.0
C799 C 0.26051 0.97927 0.03348 0.0
H800 H 0.20015 0.92446 0.96455 0.0
C801 C 0.28191 0.02947 0.0247 0.0
C802 C 0.27497 0.0419 -0.00605 0.0
H803 H 0.26829 0.97042 0.05675 0.0
H804 H 0.30601 0.0583 0.04139 0.0
C805 C 0.24303 0.00335 0.9731 0.0
C806 C 0.97501 0.26439 0.94921 0.0
C807 C 0.93783 0.23549 0.97141 0.0
H808 H 0.05379 0.3106 0.94046 0.0
C809 C 0.95165 0.22426 0.00034 0.0
H810 H 0.96493 0.27296 0.92655 0.0
C811 C 0.00209 0.24458 0.008 0.0
C812 C 0.03966 0.27758 0.98714 0.0
H813 H 0.92342 0.201 0.01748 0.0
H814 H 0.01131 0.23697 0.03121 0.0
C815 C 0.02574 0.28568 0.95712 0.0
C816 C 0.89699 0.59355 0.32413 0.0
C817 C 0.92404 0.64503 0.33095 0.0
H818 H 0.90032 0.52858 0.30879 0.0
C819 C 0.9766 0.6711 0.32788 0.0
H820 H 0.85638 0.5729 0.32637 0.0
C821 C 0.00192 0.64543 0.31878 0.0
C822 C 0.97464 0.59395 0.31165 0.0
H823 H -0.002 0.71085 0.33324 0.0
H824 H 0.04256 0.66579 0.31693 0.0
C825 C 0.92202 0.56836 0.31406 0.0
C826 C 0.37686 0.33881 0.28312 0.0
C827 C 0.40856 0.3774 0.30392 0.0
H828 H 0.3286 0.25971 0.2768 0.0
C829 C 0.42212 0.36549 0.3327 0.0
H830 H 0.36629 0.34743 0.26064 0.0
C831 C 0.40173 0.31579 0.34163 0.0
C832 C 0.36632 0.27693 0.32226 0.0
H833 H 0.44739 0.39476 0.34879 0.0
H834 H 0.41168 0.30824 0.36464 0.0
C835 C 0.35548 0.28875 0.29235 0.0
C836 C 0.61496 0.0256 0.35917 0.0
C837 C 0.60374 0.0373 0.32933 0.0
H838 H 0.67322 0.03619 0.39155 0.0
C839 C 0.64283 0.07434 0.3111 0.0
H840 H 0.58569 -0.00253 0.37386 0.0
C841 C 0.69243 0.09528 0.32086 0.0
C842 C 0.70387 0.08065 0.3494 0.0
H843 H 0.63564 0.08506 0.28825 0.0
H844 H 0.72205 0.12168 0.30555 0.0
C845 C 0.6649 0.04754 0.36927 0.0
C846 C 0.39011 0.08518 0.32764 0.0
C847 C 0.33799 0.05918 0.33263 0.0
H848 H 0.45494 0.08056 0.31332 0.0
C849 C 0.3107 0.00712 0.3275 0.0
H850 H 0.41175 0.12539 0.33141 0.0
C851 C 0.33565 0.98122 0.31811 0.0
C852 C 0.38774 0.00751 0.3127 0.0
H853 H 0.27042 0.98648 0.3314 0.0
H854 H 0.3143 0.94096 0.31461 0.0
C855 C 0.41467 0.05966 0.31724 0.0
C856 C 0.90835 0.33752 0.30976 0.0
C857 C 0.94446 0.37698 0.32846 0.0
H858 H 0.86171 0.25837 0.30399 0.0
C859 C 0.95544 0.36621 0.35866 0.0
H860 H 0.89824 0.34427 0.28657 0.0
C861 C 0.93358 0.3165 0.3688 0.0
C862 C 0.90123 0.2772 0.34865 0.0
H863 H 0.98287 0.39572 0.37371 0.0
H864 H 0.94434 0.30866 0.39146 0.0
C865 C 0.88747 0.28817 0.3196 0.0
C866 C 0.66808 0.58046 0.33931 0.0
C867 C 0.70648 0.61685 0.32034 0.0
H868 H 0.5891 0.53415 0.34654 0.0
C869 C 0.69392 0.62872 0.29099 0.0
H870 H 0.67626 0.56965 0.36184 0.0
C871 C 0.64351 0.60742 0.28206 0.0
C872 C 0.60541 0.57482 0.30262 0.0
H873 H 0.72262 0.65639 0.27578 0.0
H874 H 0.63424 0.61872 0.26008 0.0
C875 C 0.61805 0.56019 0.33072 0.0
C876 C 0.6741 0.97897 0.6578 0.0
C877 C 0.64694 0.92661 0.65411 0.0
H878 H 0.67023 0.04574 0.66842 0.0
C879 C 0.5949 0.90075 0.65934 0.0
H880 H 0.7143 -0.00052 0.65359 0.0
C881 C 0.57025 0.92672 0.66852 0.0
C882 C 0.59699 0.97913 0.67161 0.0
H883 H 0.57337 0.86034 0.65657 0.0
H884 H 0.53003 0.9059 0.67265 0.0
C885 C 0.64903 0.00528 0.666 0.0
C886 C 0.05505 0.66665 0.61709 0.0
C887 C 0.08396 0.70616 0.63809 0.0
H888 H 0.00839 0.58729 0.61132 0.0
C889 C 0.09453 0.69549 0.66827 0.0
H890 H 0.0468 0.67415 0.59357 0.0
C891 C 0.07354 0.64616 0.67825 0.0
C892 C 0.04066 0.60647 0.65842 0.0
H893 H 0.11766 0.72545 0.68464 0.0
H894 H 0.08064 0.63955 0.70227 0.0
C895 C 0.03319 0.61704 0.62727 0.0
C896 C 0.2908 0.36079 0.69406 0.0
C897 C 0.27727 0.36944 0.66406 0.0
H898 H 0.35128 0.37299 0.72482 0.0
C899 C 0.31508 0.40275 0.64346 0.0
H900 H 0.26253 0.33563 0.71053 0.0
C901 C 0.36541 0.42295 0.65135 0.0
C902 C 0.37885 0.41126 0.68025 0.0
H903 H 0.30616 0.41082 0.62029 0.0
H904 H 0.39386 0.44646 0.63439 0.0
C905 C 0.34143 0.38198 0.70221 0.0
C906 C 0.00621 0.37586 0.64217 0.0
C907 C 0.00239 0.3847 0.67441 0.0
H908 H 0.03583 0.34623 0.60741 0.0
C909 C 0.02318 0.36679 0.69687 0.0
H910 H -0.00933 0.38944 0.62438 0.0
C911 C 0.04816 0.34117 0.68716 0.0
C912 C 0.0538 0.33431 0.65486 0.0
H913 H 0.02048 0.37295 0.72189 0.0
H914 H 0.06463 0.32838 0.70484 0.0
C915 C 0.03223 0.35142 0.63247 0.0
C916 C 0.60943 0.64451 0.70226 0.0
C917 C 0.57683 0.60662 0.68137 0.0
H918 H 0.65813 0.72339 0.70928 0.0
C919 C 0.56213 0.61951 0.65337 0.0
H920 H 0.62083 0.63514 0.72417 0.0
C921 C 0.58224 0.66951 0.64522 0.0
C922 C 0.61852 0.70771 0.66456 0.0
H923 H 0.5361 0.59079 0.63727 0.0
H924 H 0.57137 0.67785 0.62276 0.0
C925 C 0.63052 0.69489 0.69379 0.0
C926 C 0.29254 0.88743 0.66105 0.0
C927 C 0.27982 0.90334 0.63354 0.0
H928 H 0.35081 0.89677 0.69212 0.0
C929 C 0.31781 0.93777 0.61364 0.0
H930 H 0.26364 0.85994 0.67628 0.0
C931 C 0.36813 0.95987 0.62292 0.0
C932 C 0.38063 0.94697 0.65193 0.0
H933 H 0.30842 0.95 0.59207 0.0
H934 H 0.3966 0.98917 0.60844 0.0
C935 C 0.34254 0.90845 0.66994 0.0
loop_
_geom_bond_atom_site_label_1
_geom_bond_atom_site_label_2
_geom_bond_distance
_geom_bond_site_symmetry_2
_ccdc_geom_bond_type
Sc0 O3 2.025 . S
Sc0 O10 2.105 . S
Sc0 O13 2.105 . S
Sc0 O16 2.105 . S
Sc0 O19 2.105 . S
Sc1 O3 2.025 . S
Sc1 O11 2.105 . S
Sc1 O15 2.105 . S
Sc1 O17 2.105 . S
Sc1 O21 2.105 . S
Sc2 O3 2.025 . S
Sc2 O12 2.105 . S
Sc2 O14 2.105 . S
Sc2 O18 2.105 . S
Sc2 O20 2.105 . S
O3 Sc0 2.025 . S
O3 Sc1 2.025 . S
O3 Sc2 2.025 . S
C4 O10 1.268 . S
C4 O20 1.268 . S
C5 O11 1.268 . S
C5 O19 1.268 . S
C6 O12 1.268 . S
C6 O21 1.268 . S
C7 O13 1.268 . S
C7 O17 1.268 . S
C8 O14 1.268 . S
C8 O16 1.268 . S
C9 O15 1.268 . S
C9 O18 1.268 . S
O10 Sc0 2.105 . S
O10 C4 1.268 . S
O11 Sc1 2.105 . S
O11 C5 1.268 . S
O12 Sc2 2.105 . S
O12 C6 1.268 . S
O13 Sc0 2.105 . S
O13 C7 1.268 . S
O14 Sc2 2.105 . S
O14 C8 1.268 . S
O15 Sc1 2.105 . S
O15 C9 1.268 . S
O16 Sc0 2.105 . S
O16 C8 1.268 . S
O17 Sc1 2.105 . S
O17 C7 1.268 . S
O18 Sc2 2.105 . S
O18 C9 1.268 . S
O19 Sc0 2.105 . S
O19 C5 1.268 . S
O20 Sc2 2.105 . S
O20 C4 1.268 . S
O21 Sc1 2.105 . S
O21 C6 1.268 . S
Sc22 O25 2.025 . S
Sc22 O32 2.105 . S
Sc22 O35 2.105 . S
Sc22 O38 2.105 . S
Sc22 O41 2.105 . S
Sc23 O25 2.025 . S
Sc23 O33 2.105 . S
Sc23 O37 2.105 . S
Sc23 O39 2.105 . S
Sc23 O43 2.105 . S
Sc24 O25 2.025 . S
Sc24 O34 2.105 . S
Sc24 O36 2.105 . S
Sc24 O40 2.105 . S
Sc24 O42 2.105 . S
O25 Sc22 2.025 . S
O25 Sc23 2.025 . S
O25 Sc24 2.025 . S
C26 O32 1.268 . S
C26 O42 1.268 . S
C27 O33 1.268 . S
C27 O41 1.268 . S
C28 O34 1.268 . S
C28 O43 1.268 . S
C29 O35 1.268 . S
C29 O39 1.268 . S
C30 O36 1.268 . S
C30 O38 1.268 . S
C31 O37 1.268 . S
C31 O40 1.268 . S
O32 Sc22 2.105 . S
O32 C26 1.268 . S
O33 Sc23 2.105 . S
O33 C27 1.268 . S
O34 Sc24 2.105 . S
O34 C28 1.268 . S
O35 Sc22 2.105 . S
O35 C29 1.268 . S
O36 Sc24 2.105 . S
O36 C30 1.268 . S
O37 Sc23 2.105 . S
O37 C31 1.268 . S
O38 Sc22 2.105 . S
O38 C30 1.268 . S
O39 Sc23 2.105 . S
O39 C29 1.268 . S
O40 Sc24 2.105 . S
O40 C31 1.268 . S
O41 Sc22 2.105 . S
O41 C27 1.268 . S
O42 Sc24 2.105 . S
O42 C26 1.268 . S
O43 Sc23 2.105 . S
O43 C28 1.268 . S
Sc44 O47 2.025 . S
Sc44 O54 2.105 . S
Sc44 O57 2.105 . S
Sc44 O60 2.105 . S
Sc44 O63 2.105 . S
Sc45 O47 2.025 . S
Sc45 O55 2.105 . S
Sc45 O59 2.105 . S
Sc45 O61 2.105 . S
Sc45 O65 2.105 . S
Sc46 O47 2.025 . S
Sc46 O56 2.105 . S
Sc46 O58 2.105 . S
Sc46 O62 2.105 . S
Sc46 O64 2.105 . S
O47 Sc44 2.025 . S
O47 Sc45 2.025 . S
O47 Sc46 2.025 . S
C48 O54 1.268 . S
C48 O64 1.268 . S
C49 O55 1.268 . S
C49 O63 1.268 . S
C50 O56 1.268 . S
C50 O65 1.268 . S
C51 O57 1.268 . S
C51 O61 1.268 . S
C52 O58 1.268 . S
C52 O60 1.268 . S
C53 O59 1.268 . S
C53 O62 1.268 . S
O54 Sc44 2.105 . S
O54 C48 1.268 . S
O55 Sc45 2.105 . S
O55 C49 1.268 . S
O56 Sc46 2.105 . S
O56 C50 1.268 . S
O57 Sc44 2.105 . S
O57 C51 1.268 . S
O58 Sc46 2.105 . S
O58 C52 1.268 . S
O59 Sc45 2.105 . S
O59 C53 1.268 . S
O60 Sc44 2.105 . S
O60 C52 1.268 . S
O61 Sc45 2.105 . S
O61 C51 1.268 . S
O62 Sc46 2.105 . S
O62 C53 1.268 . S
O63 Sc44 2.105 . S
O63 C49 1.268 . S
O64 Sc46 2.105 . S
O64 C48 1.268 . S
O65 Sc45 2.105 . S
O65 C50 1.268 . S
Sc66 O69 2.025 . S
Sc66 O76 2.105 . S
Sc66 O79 2.105 . S
Sc66 O82 2.105 . S
Sc66 O85 2.105 . S
Sc67 O69 2.025 . S
Sc67 O77 2.105 . S
Sc67 O81 2.105 . S
Sc67 O83 2.105 . S
Sc67 O87 2.105 . S
Sc68 O69 2.025 . S
Sc68 O78 2.105 . S
Sc68 O80 2.105 . S
Sc68 O84 2.105 . S
Sc68 O86 2.105 . S
O69 Sc66 2.025 . S
O69 Sc67 2.025 . S
O69 Sc68 2.025 . S
C70 O76 1.268 . S
C70 O86 1.268 . S
C71 O77 1.268 . S
C71 O85 1.268 . S
C72 O78 1.268 . S
C72 O87 1.268 . S
C73 O79 1.268 . S
C73 O83 1.268 . S
C74 O80 1.268 . S
C74 O82 1.268 . S
C75 O81 1.268 . S
C75 O84 1.268 . S
O76 Sc66 2.105 . S
O76 C70 1.268 . S
O77 Sc67 2.105 . S
O77 C71 1.268 . S
O78 Sc68 2.105 . S
O78 C72 1.268 . S
O79 Sc66 2.105 . S
O79 C73 1.268 . S
O80 Sc68 2.105 . S
O80 C74 1.268 . S
O81 Sc67 2.105 . S
O81 C75 1.268 . S
O82 Sc66 2.105 . S
O82 C74 1.268 . S
O83 Sc67 2.105 . S
O83 C73 1.268 . S
O84 Sc68 2.105 . S
O84 C75 1.268 . S
O85 Sc66 2.105 . S
O85 C71 1.268 . S
O86 Sc68 2.105 . S
O86 C70 1.268 . S
O87 Sc67 2.105 . S
O87 C72 1.268 . S
Sc88 O91 2.025 . S
Sc88 O98 2.105 . S
Sc88 O101 2.105 . S
Sc88 O104 2.105 . S
Sc88 O107 2.105 . S
Sc89 O91 2.025 . S
Sc89 O99 2.105 . S
Sc89 O103 2.105 . S
Sc89 O105 2.105 . S
Sc89 O109 2.105 . S
Sc90 O91 2.025 . S
Sc90 O100 2.105 . S
Sc90 O102 2.105 . S
Sc90 O106 2.105 . S
Sc90 O108 2.105 . S
O91 Sc88 2.025 . S
O91 Sc89 2.025 . S
O91 Sc90 2.025 . S
C92 O98 1.268 . S
C92 O108 1.268 . S
C93 O99 1.268 . S
C93 O107 1.268 . S
C94 O100 1.268 . S
C94 O109 1.268 . S
C95 O101 1.268 . S
C95 O105 1.268 . S
C96 O102 1.268 . S
C96 O104 1.268 . S
C97 O103 1.268 . S
C97 O106 1.268 . S
O98 Sc88 2.105 . S
O98 C92 1.268 . S
O99 Sc89 2.105 . S
O99 C93 1.268 . S
O100 Sc90 2.105 . S
O100 C94 1.268 . S
O101 Sc88 2.105 . S
O101 C95 1.268 . S
O102 Sc90 2.105 . S
O102 C96 1.268 . S
O103 Sc89 2.105 . S
O103 C97 1.268 . S
O104 Sc88 2.105 . S
O104 C96 1.268 . S
O105 Sc89 2.105 . S
O105 C95 1.268 . S
O106 Sc90 2.105 . S
O106 C97 1.268 . S
O107 Sc88 2.105 . S
O107 C93 1.268 . S
O108 Sc90 2.105 . S
O108 C92 1.268 . S
O109 Sc89 2.105 . S
O109 C94 1.268 . S
Sc110 O113 2.025 . S
Sc110 O120 2.105 . S
Sc110 O123 2.105 . S
Sc110 O126 2.105 . S
Sc110 O129 2.105 . S
Sc111 O113 2.025 . S
Sc111 O121 2.105 . S
Sc111 O125 2.105 . S
Sc111 O127 2.105 . S
Sc111 O131 2.105 . S
Sc112 O113 2.025 . S
Sc112 O122 2.105 . S
Sc112 O124 2.105 . S
Sc112 O128 2.105 . S
Sc112 O130 2.105 . S
O113 Sc110 2.025 . S
O113 Sc111 2.025 . S
O113 Sc112 2.025 . S
C114 O120 1.268 . S
C114 O130 1.268 . S
C115 O121 1.268 . S
C115 O129 1.268 . S
C116 O122 1.268 . S
C116 O131 1.268 . S
C117 O123 1.268 . S
C117 O127 1.268 . S
C118 O124 1.268 . S
C118 O126 1.268 . S
C119 O125 1.268 . S
C119 O128 1.268 . S
O120 Sc110 2.105 . S
O120 C114 1.268 . S
O121 Sc111 2.105 . S
O121 C115 1.268 . S
O122 Sc112 2.105 . S
O122 C116 1.268 . S
O123 Sc110 2.105 . S
O123 C117 1.268 . S
O124 Sc112 2.105 . S
O124 C118 1.268 . S
O125 Sc111 2.105 . S
O125 C119 1.268 . S
O126 Sc110 2.105 . S
O126 C118 1.268 . S
O127 Sc111 2.105 . S
O127 C117 1.268 . S
O128 Sc112 2.105 . S
O128 C119 1.268 . S
O129 Sc110 2.105 . S
O129 C115 1.268 . S
O130 Sc112 2.105 . S
O130 C114 1.268 . S
O131 Sc111 2.105 . S
O131 C116 1.268 . S
Sc132 O135 2.025 . S
Sc132 O142 2.105 . S
Sc132 O145 2.105 . S
Sc132 O148 2.105 . S
Sc132 O151 2.105 . S
Sc133 O135 2.025 . S
Sc133 O143 2.105 . S
Sc133 O147 2.105 . S
Sc133 O149 2.105 . S
Sc133 O153 2.105 . S
Sc134 O135 2.025 . S
Sc134 O144 2.105 . S
Sc134 O146 2.105 . S
Sc134 O150 2.105 . S
Sc134 O152 2.105 . S
O135 Sc132 2.025 . S
O135 Sc133 2.025 . S
O135 Sc134 2.025 . S
C136 O142 1.268 . S
C136 O152 1.268 . S
C137 O143 1.268 . S
C137 O151 1.268 . S
C138 O144 1.268 . S
C138 O153 1.268 . S
C139 O145 1.268 . S
C139 O149 1.268 . S
C140 O146 1.268 . S
C140 O148 1.268 . S
C141 O147 1.268 . S
C141 O150 1.268 . S
O142 Sc132 2.105 . S
O142 C136 1.268 . S
O143 Sc133 2.105 . S
O143 C137 1.268 . S
O144 Sc134 2.105 . S
O144 C138 1.268 . S
O145 Sc132 2.105 . S
O145 C139 1.268 . S
O146 Sc134 2.105 . S
O146 C140 1.268 . S
O147 Sc133 2.105 . S
O147 C141 1.268 . S
O148 Sc132 2.105 . S
O148 C140 1.268 . S
O149 Sc133 2.105 . S
O149 C139 1.268 . S
O150 Sc134 2.105 . S
O150 C141 1.268 . S
O151 Sc132 2.105 . S
O151 C137 1.268 . S
O152 Sc134 2.105 . S
O152 C136 1.268 . S
O153 Sc133 2.105 . S
O153 C138 1.268 . S
Sc154 O157 2.025 . S
Sc154 O164 2.105 . S
Sc154 O167 2.105 . S
Sc154 O170 2.105 . S
Sc154 O173 2.105 . S
Sc155 O157 2.025 . S
Sc155 O165 2.105 . S
Sc155 O169 2.105 . S
Sc155 O171 2.105 . S
Sc155 O175 2.105 . S
Sc156 O157 2.025 . S
Sc156 O166 2.105 . S
Sc156 O168 2.105 . S
Sc156 O172 2.105 . S
Sc156 O174 2.105 . S
O157 Sc154 2.025 . S
O157 Sc155 2.025 . S
O157 Sc156 2.025 . S
C158 O164 1.268 . S
C158 O174 1.268 . S
C159 O165 1.268 . S
C159 O173 1.268 . S
C160 O166 1.268 . S
C160 O175 1.268 . S
C161 O167 1.268 . S
C161 O171 1.268 . S
C162 O168 1.268 . S
C162 O170 1.268 . S
C163 O169 1.268 . S
C163 O172 1.268 . S
O164 Sc154 2.105 . S
O164 C158 1.268 . S
O165 Sc155 2.105 . S
O165 C159 1.268 . S
O166 Sc156 2.105 . S
O166 C160 1.268 . S
O167 Sc154 2.105 . S
O167 C161 1.268 . S
O168 Sc156 2.105 . S
O168 C162 1.268 . S
O169 Sc155 2.105 . S
O169 C163 1.268 . S
O170 Sc154 2.105 . S
O170 C162 1.268 . S
O171 Sc155 2.105 . S
O171 C161 1.268 . S
O172 Sc156 2.105 . S
O172 C163 1.268 . S
O173 Sc154 2.105 . S
O173 C159 1.268 . S
O174 Sc156 2.105 . S
O174 C158 1.268 . S
O175 Sc155 2.105 . S
O175 C160 1.268 . S
Sc176 O179 2.025 . S
Sc176 O186 2.105 . S
Sc176 O189 2.105 . S
Sc176 O192 2.105 . S
Sc176 O195 2.105 . S
Sc177 O179 2.025 . S
Sc177 O187 2.105 . S
Sc177 O191 2.105 . S
Sc177 O193 2.105 . S
Sc177 O197 2.105 . S
Sc178 O179 2.025 . S
Sc178 O188 2.105 . S
Sc178 O190 2.105 . S
Sc178 O194 2.105 . S
Sc178 O196 2.105 . S
O179 Sc176 2.025 . S
O179 Sc177 2.025 . S
O179 Sc178 2.025 . S
C180 O186 1.268 . S
C180 O196 1.268 . S
C181 O187 1.268 . S
C181 O195 1.268 . S
C182 O188 1.268 . S
C182 O197 1.268 . S
C183 O189 1.268 . S
C183 O193 1.268 . S
C184 O190 1.268 . S
C184 O192 1.268 . S
C185 O191 1.268 . S
C185 O194 1.268 . S
O186 Sc176 2.105 . S
O186 C180 1.268 . S
O187 Sc177 2.105 . S
O187 C181 1.268 . S
O188 Sc178 2.105 . S
O188 C182 1.268 . S
O189 Sc176 2.105 . S
O189 C183 1.268 . S
O190 Sc178 2.105 . S
O190 C184 1.268 . S
O191 Sc177 2.105 . S
O191 C185 1.268 . S
O192 Sc176 2.105 . S
O192 C184 1.268 . S
O193 Sc177 2.105 . S
O193 C183 1.268 . S
O194 Sc178 2.105 . S
O194 C185 1.268 . S
O195 Sc176 2.105 . S
O195 C181 1.268 . S
O196 Sc178 2.105 . S
O196 C180 1.268 . S
O197 Sc177 2.105 . S
O197 C182 1.268 . S
Sc198 O201 2.025 . S
Sc198 O208 2.105 . S
Sc198 O211 2.105 . S
Sc198 O214 2.105 . S
Sc198 O217 2.105 . S
Sc199 O201 2.025 . S
Sc199 O209 2.105 . S
Sc199 O213 2.105 1_455 S
Sc199 O215 2.105 . S
Sc199 O219 2.105 1_455 S
Sc200 O201 2.025 . S
Sc200 O210 2.105 . S
Sc200 O212 2.105 . S
Sc200 O216 2.105 . S
Sc200 O218 2.105 . S
O201 Sc198 2.025 . S
O201 Sc199 2.025 . S
O201 Sc200 2.025 . S
C202 O208 1.268 . S
C202 O218 1.268 . S
C203 O209 1.268 . S
C203 O217 1.268 . S
C204 O210 1.268 1_655 S
C204 O219 1.268 . S
C205 O211 1.268 . S
C205 O215 1.268 . S
C206 O212 1.268 . S
C206 O214 1.268 . S
C207 O213 1.268 . S
C207 O216 1.268 1_655 S
O208 Sc198 2.105 . S
O208 C202 1.268 . S
O209 Sc199 2.105 . S
O209 C203 1.268 . S
O210 Sc200 2.105 . S
O210 C204 1.268 1_455 S
O211 Sc198 2.105 . S
O211 C205 1.268 . S
O212 Sc200 2.105 . S
O212 C206 1.268 . S
O213 Sc199 2.105 1_655 S
O213 C207 1.268 . S
O214 Sc198 2.105 . S
O214 C206 1.268 . S
O215 Sc199 2.105 . S
O215 C205 1.268 . S
O216 Sc200 2.105 . S
O216 C207 1.268 1_455 S
O217 Sc198 2.105 . S
O217 C203 1.268 . S
O218 Sc200 2.105 . S
O218 C202 1.268 . S
O219 Sc199 2.105 1_655 S
O219 C204 1.268 . S
Sc220 O223 2.025 . S
Sc220 O230 2.105 . S
Sc220 O233 2.105 . S
Sc220 O236 2.105 . S
Sc220 O239 2.105 . S
Sc221 O223 2.025 . S
Sc221 O231 2.105 . S
Sc221 O235 2.105 . S
Sc221 O237 2.105 . S
Sc221 O241 2.105 . S
Sc222 O223 2.025 . S
Sc222 O232 2.105 . S
Sc222 O234 2.105 . S
Sc222 O238 2.105 . S
Sc222 O240 2.105 . S
O223 Sc220 2.025 . S
O223 Sc221 2.025 . S
O223 Sc222 2.025 . S
C224 O230 1.268 . S
C224 O240 1.268 . S
C225 O231 1.268 . S
C225 O239 1.268 . S
C226 O232 1.268 . S
C226 O241 1.268 . S
C227 O233 1.268 . S
C227 O237 1.268 . S
C228 O234 1.268 . S
C228 O236 1.268 . S
C229 O235 1.268 . S
C229 O238 1.268 . S
O230 Sc220 2.105 . S
O230 C224 1.268 . S
O231 Sc221 2.105 . S
O231 C225 1.268 . S
O232 Sc222 2.105 . S
O232 C226 1.268 . S
O233 Sc220 2.105 . S
O233 C227 1.268 . S
O234 Sc222 2.105 . S
O234 C228 1.268 . S
O235 Sc221 2.105 . S
O235 C229 1.268 . S
O236 Sc220 2.105 . S
O236 C228 1.268 . S
O237 Sc221 2.105 . S
O237 C227 1.268 . S
O238 Sc222 2.105 . S
O238 C229 1.268 . S
O239 Sc220 2.105 . S
O239 C225 1.268 . S
O240 Sc222 2.105 . S
O240 C224 1.268 . S
O241 Sc221 2.105 . S
O241 C226 1.268 . S
Sc242 O245 2.025 . S
Sc242 O252 2.105 . S
Sc242 O255 2.105 . S
Sc242 O258 2.105 . S
Sc242 O261 2.105 . S
Sc243 O245 2.025 . S
Sc243 O253 2.105 . S
Sc243 O257 2.105 1_565 S
Sc243 O259 2.105 . S
Sc243 O263 2.105 1_565 S
Sc244 O245 2.025 . S
Sc244 O254 2.105 . S
Sc244 O256 2.105 . S
Sc244 O260 2.105 . S
Sc244 O262 2.105 . S
O245 Sc242 2.025 . S
O245 Sc243 2.025 . S
O245 Sc244 2.025 . S
C246 O252 1.268 . S
C246 O262 1.268 . S
C247 O253 1.268 . S
C247 O261 1.268 . S
C248 O254 1.268 1_545 S
C248 O263 1.268 . S
C249 O255 1.268 . S
C249 O259 1.268 . S
C250 O256 1.268 . S
C250 O258 1.268 . S
C251 O257 1.268 . S
C251 O260 1.268 1_545 S
O252 Sc242 2.105 . S
O252 C246 1.268 . S
O253 Sc243 2.105 . S
O253 C247 1.268 . S
O254 Sc244 2.105 . S
O254 C248 1.268 1_565 S
O255 Sc242 2.105 . S
O255 C249 1.268 . S
O256 Sc244 2.105 . S
O256 C250 1.268 . S
O257 Sc243 2.105 1_545 S
O257 C251 1.268 . S
O258 Sc242 2.105 . S
O258 C250 1.268 . S
O259 Sc243 2.105 . S
O259 C249 1.268 . S
O260 Sc244 2.105 . S
O260 C251 1.268 1_565 S
O261 Sc242 2.105 . S
O261 C247 1.268 . S
O262 Sc244 2.105 . S
O262 C246 1.268 . S
O263 Sc243 2.105 1_545 S
O263 C248 1.268 . S
Sc264 O267 2.025 . S
Sc264 O274 2.105 . S
Sc264 O277 2.105 . S
Sc264 O280 2.105 . S
Sc264 O283 2.105 . S
Sc265 O267 2.025 . S
Sc265 O275 2.105 1_545 S
Sc265 O279 2.105 . S
Sc265 O281 2.105 1_545 S
Sc265 O285 2.105 . S
Sc266 O267 2.025 . S
Sc266 O276 2.105 . S
Sc266 O278 2.105 . S
Sc266 O282 2.105 . S
Sc266 O284 2.105 . S
O267 Sc264 2.025 . S
O267 Sc265 2.025 . S
O267 Sc266 2.025 . S
C268 O274 1.268 . S
C268 O284 1.268 . S
C269 O275 1.268 . S
C269 O283 1.268 1_565 S
C270 O276 1.268 . S
C270 O285 1.268 . S
C271 O277 1.268 1_565 S
C271 O281 1.268 . S
C272 O278 1.268 . S
C272 O280 1.268 . S
C273 O279 1.268 . S
C273 O282 1.268 . S
O274 Sc264 2.105 . S
O274 C268 1.268 . S
O275 Sc265 2.105 1_565 S
O275 C269 1.268 . S
O276 Sc266 2.105 . S
O276 C270 1.268 . S
O277 Sc264 2.105 . S
O277 C271 1.268 1_545 S
O278 Sc266 2.105 . S
O278 C272 1.268 . S
O279 Sc265 2.105 . S
O279 C273 1.268 . S
O280 Sc264 2.105 . S
O280 C272 1.268 . S
O281 Sc265 2.105 1_565 S
O281 C271 1.268 . S
O282 Sc266 2.105 . S
O282 C273 1.268 . S
O283 Sc264 2.105 . S
O283 C269 1.268 1_545 S
O284 Sc266 2.105 . S
O284 C268 1.268 . S
O285 Sc265 2.105 . S
O285 C270 1.268 . S
Sc286 O289 2.025 . S
Sc286 O296 2.105 . S
Sc286 O299 2.105 . S
Sc286 O302 2.105 . S
Sc286 O305 2.105 . S
Sc287 O289 2.025 . S
Sc287 O297 2.105 1_655 S
Sc287 O301 2.105 . S
Sc287 O303 2.105 1_655 S
Sc287 O307 2.105 . S
Sc288 O289 2.025 . S
Sc288 O298 2.105 . S
Sc288 O300 2.105 . S
Sc288 O304 2.105 . S
Sc288 O306 2.105 . S
O289 Sc286 2.025 . S
O289 Sc287 2.025 . S
O289 Sc288 2.025 . S
C290 O296 1.268 . S
C290 O306 1.268 . S
C291 O297 1.268 . S
C291 O305 1.268 1_455 S
C292 O298 1.268 . S
C292 O307 1.268 . S
C293 O299 1.268 1_455 S
C293 O303 1.268 . S
C294 O300 1.268 . S
C294 O302 1.268 . S
C295 O301 1.268 . S
C295 O304 1.268 . S
O296 Sc286 2.105 . S
O296 C290 1.268 . S
O297 Sc287 2.105 1_455 S
O297 C291 1.268 . S
O298 Sc288 2.105 . S
O298 C292 1.268 . S
O299 Sc286 2.105 . S
O299 C293 1.268 1_655 S
O300 Sc288 2.105 . S
O300 C294 1.268 . S
O301 Sc287 2.105 . S
O301 C295 1.268 . S
O302 Sc286 2.105 . S
O302 C294 1.268 . S
O303 Sc287 2.105 1_455 S
O303 C293 1.268 . S
O304 Sc288 2.105 . S
O304 C295 1.268 . S
O305 Sc286 2.105 . S
O305 C291 1.268 1_655 S
O306 Sc288 2.105 . S
O306 C290 1.268 . S
O307 Sc287 2.105 . S
O307 C292 1.268 . S
Sc308 O311 2.025 . S
Sc308 O318 2.105 . S
Sc308 O321 2.105 . S
Sc308 O324 2.105 . S
Sc308 O327 2.105 . S
Sc309 O311 2.025 . S
Sc309 O319 2.105 . S
Sc309 O323 2.105 . S
Sc309 O325 2.105 . S
Sc309 O329 2.105 . S
Sc310 O311 2.025 . S
Sc310 O320 2.105 . S
Sc310 O322 2.105 . S
Sc310 O326 2.105 . S
Sc310 O328 2.105 . S
O311 Sc308 2.025 . S
O311 Sc309 2.025 . S
O311 Sc310 2.025 . S
C312 O318 1.268 . S
C312 O328 1.268 . S
C313 O319 1.268 . S
C313 O327 1.268 . S
C314 O320 1.268 . S
C314 O329 1.268 . S
C315 O321 1.268 . S
C315 O325 1.268 . S
C316 O322 1.268 . S
C316 O324 1.268 . S
C317 O323 1.268 . S
C317 O326 1.268 . S
O318 Sc308 2.105 . S
O318 C312 1.268 . S
O319 Sc309 2.105 . S
O319 C313 1.268 . S
O320 Sc310 2.105 . S
O320 C314 1.268 . S
O321 Sc308 2.105 . S
O321 C315 1.268 . S
O322 Sc310 2.105 . S
O322 C316 1.268 . S
O323 Sc309 2.105 . S
O323 C317 1.268 . S
O324 Sc308 2.105 . S
O324 C316 1.268 . S
O325 Sc309 2.105 . S
O325 C315 1.268 . S
O326 Sc310 2.105 . S
O326 C317 1.268 . S
O327 Sc308 2.105 . S
O327 C313 1.268 . S
O328 Sc310 2.105 . S
O328 C312 1.268 . S
O329 Sc309 2.105 . S
O329 C314 1.268 . S
Sc330 O333 2.025 . S
Sc330 O340 2.105 . S
Sc330 O343 2.105 . S
Sc330 O346 2.105 . S
Sc330 O349 2.105 . S
Sc331 O333 2.025 . S
Sc331 O341 2.105 . S
Sc331 O345 2.105 . S
Sc331 O347 2.105 . S
Sc331 O351 2.105 . S
Sc332 O333 2.025 . S
Sc332 O342 2.105 . S
Sc332 O344 2.105 . S
Sc332 O348 2.105 . S
Sc332 O350 2.105 . S
O333 Sc330 2.025 . S
O333 Sc331 2.025 . S
O333 Sc332 2.025 . S
C334 O340 1.268 . S
C334 O350 1.268 . S
C335 O341 1.268 . S
C335 O349 1.268 . S
C336 O342 1.268 . S
C336 O351 1.268 . S
C337 O343 1.268 . S
C337 O347 1.268 . S
C338 O344 1.268 . S
C338 O346 1.268 . S
C339 O345 1.268 . S
C339 O348 1.268 . S
O340 Sc330 2.105 . S
O340 C334 1.268 . S
O341 Sc331 2.105 . S
O341 C335 1.268 . S
O342 Sc332 2.105 . S
O342 C336 1.268 . S
O343 Sc330 2.105 . S
O343 C337 1.268 . S
O344 Sc332 2.105 . S
O344 C338 1.268 . S
O345 Sc331 2.105 . S
O345 C339 1.268 . S
O346 Sc330 2.105 . S
O346 C338 1.268 . S
O347 Sc331 2.105 . S
O347 C337 1.268 . S
O348 Sc332 2.105 . S
O348 C339 1.268 . S
O349 Sc330 2.105 . S
O349 C335 1.268 . S
O350 Sc332 2.105 . S
O350 C334 1.268 . S
O351 Sc331 2.105 . S
O351 C336 1.268 . S
Sc352 O355 2.025 . S
Sc352 O362 2.105 . S
Sc352 O365 2.105 . S
Sc352 O368 2.105 . S
Sc352 O371 2.105 . S
Sc353 O355 2.025 . S
Sc353 O363 2.105 . S
Sc353 O367 2.105 . S
Sc353 O369 2.105 . S
Sc353 O373 2.105 . S
Sc354 O355 2.025 . S
Sc354 O364 2.105 . S
Sc354 O366 2.105 . S
Sc354 O370 2.105 . S
Sc354 O372 2.105 . S
O355 Sc352 2.025 . S
O355 Sc353 2.025 . S
O355 Sc354 2.025 . S
C356 O362 1.268 . S
C356 O372 1.268 . S
C357 O363 1.268 . S
C357 O371 1.268 . S
C358 O364 1.268 . S
C358 O373 1.268 . S
C359 O365 1.268 . S
C359 O369 1.268 . S
C360 O366 1.268 . S
C360 O368 1.268 . S
C361 O367 1.268 . S
C361 O370 1.268 . S
O362 Sc352 2.105 . S
O362 C356 1.268 . S
O363 Sc353 2.105 . S
O363 C357 1.268 . S
O364 Sc354 2.105 . S
O364 C358 1.268 . S
O365 Sc352 2.105 . S
O365 C359 1.268 . S
O366 Sc354 2.105 . S
O366 C360 1.268 . S
O367 Sc353 2.105 . S
O367 C361 1.268 . S
O368 Sc352 2.105 . S
O368 C360 1.268 . S
O369 Sc353 2.105 . S
O369 C359 1.268 . S
O370 Sc354 2.105 . S
O370 C361 1.268 . S
O371 Sc352 2.105 . S
O371 C357 1.268 . S
O372 Sc354 2.105 . S
O372 C356 1.268 . S
O373 Sc353 2.105 . S
O373 C358 1.268 . S
Sc374 O377 2.025 . S
Sc374 O384 2.105 . S
Sc374 O387 2.105 . S
Sc374 O390 2.105 . S
Sc374 O393 2.105 . S
Sc375 O377 2.025 . S
Sc375 O385 2.105 . S
Sc375 O389 2.105 . S
Sc375 O391 2.105 . S
Sc375 O395 2.105 . S
Sc376 O377 2.025 . S
Sc376 O386 2.105 . S
Sc376 O388 2.105 . S
Sc376 O392 2.105 . S
Sc376 O394 2.105 . S
O377 Sc374 2.025 . S
O377 Sc375 2.025 . S
O377 Sc376 2.025 . S
C378 O384 1.268 . S
C378 O394 1.268 . S
C379 O385 1.268 . S
C379 O393 1.268 . S
C380 O386 1.268 . S
C380 O395 1.268 . S
C381 O387 1.268 . S
C381 O391 1.268 . S
C382 O388 1.268 . S
C382 O390 1.268 . S
C383 O389 1.268 . S
C383 O392 1.268 . S
O384 Sc374 2.105 . S
O384 C378 1.268 . S
O385 Sc375 2.105 . S
O385 C379 1.268 . S
O386 Sc376 2.105 . S
O386 C380 1.268 . S
O387 Sc374 2.105 . S
O387 C381 1.268 . S
O388 Sc376 2.105 . S
O388 C382 1.268 . S
O389 Sc375 2.105 . S
O389 C383 1.268 . S
O390 Sc374 2.105 . S
O390 C382 1.268 . S
O391 Sc375 2.105 . S
O391 C381 1.268 . S
O392 Sc376 2.105 . S
O392 C383 1.268 . S
O393 Sc374 2.105 . S
O393 C379 1.268 . S
O394 Sc376 2.105 . S
O394 C378 1.268 . S
O395 Sc375 2.105 . S
O395 C380 1.268 . S
C396 C397 1.387 . S
C396 H400 0.950 . S
C396 C405 1.390 . S
C397 C396 1.387 . S
C397 C399 1.387 . S
H398 C405 0.950 . S
C399 C397 1.387 . S
C399 C401 1.390 . S
C399 H403 0.950 1_554 S
H400 C396 0.950 . S
C401 C399 1.390 . S
C401 C402 1.387 . S
C401 H404 0.950 1_554 S
C402 C401 1.387 . S
C402 C405 1.387 . S
H403 C399 0.950 1_556 S
H404 C401 0.950 1_556 S
C405 C396 1.390 . S
C405 H398 0.950 . S
C405 C402 1.387 . S
C406 C407 1.387 . S
C406 H410 0.950 1_554 S
C406 C415 1.390 . S
C407 C406 1.387 . S
C407 C409 1.387 . S
H408 C415 0.950 1_556 S
C409 C407 1.387 . S
C409 C411 1.390 . S
C409 H413 0.950 . S
H410 C406 0.950 1_556 S
C411 C409 1.390 . S
C411 C412 1.387 . S
C411 H414 0.950 . S
C412 C411 1.387 . S
C412 C415 1.387 . S
H413 C409 0.950 . S
H414 C411 0.950 . S
C415 C406 1.390 . S
C415 H408 0.950 1_554 S
C415 C412 1.387 . S
C416 C417 1.387 . S
C416 H420 0.950 . S
C416 C425 1.390 . S
C417 C416 1.387 . S
C417 C419 1.387 . S
H418 C425 0.950 . S
C419 C417 1.387 . S
C419 C421 1.390 . S
C419 H423 0.950 . S
H420 C416 0.950 . S
C421 C419 1.390 . S
C421 C422 1.387 . S
C421 H424 0.950 . S
C422 C421 1.387 . S
C422 C425 1.387 . S
H423 C419 0.950 . S
H424 C421 0.950 . S
C425 C416 1.390 . S
C425 H418 0.950 . S
C425 C422 1.387 . S
C426 C427 1.387 . S
C426 H430 0.950 . S
C426 C435 1.390 . S
C427 C426 1.387 . S
C427 C429 1.387 . S
H428 C435 0.950 . S
C429 C427 1.387 . S
C429 C431 1.390 . S
C429 H433 0.950 . S
H430 C426 0.950 . S
C431 C429 1.390 . S
C431 C432 1.387 . S
C431 H434 0.950 . S
C432 C431 1.387 . S
C432 C435 1.387 . S
H433 C429 0.950 . S
H434 C431 0.950 . S
C435 C426 1.390 . S
C435 H428 0.950 . S
C435 C432 1.387 . S
C436 C437 1.387 . S
C436 H440 0.950 1_556 S
C436 C445 1.390 . S
C437 C436 1.387 . S
C437 C439 1.387 . S
H438 C445 0.950 1_554 S
C439 C437 1.387 . S
C439 C441 1.390 . S
C439 H443 0.950 . S
H440 C436 0.950 1_554 S
C441 C439 1.390 . S
C441 C442 1.387 . S
C441 H444 0.950 . S
C442 C441 1.387 . S
C442 C445 1.387 . S
H443 C439 0.950 . S
H444 C441 0.950 . S
C445 C436 1.390 . S
C445 H438 0.950 1_556 S
C445 C442 1.387 . S
C446 C447 1.387 . S
C446 H450 0.950 . S
C446 C455 1.390 . S
C447 C446 1.387 . S
C447 C449 1.387 . S
H448 C455 0.950 . S
C449 C447 1.387 . S
C449 C451 1.390 . S
C449 H453 0.950 1_556 S
H450 C446 0.950 . S
C451 C449 1.390 . S
C451 C452 1.387 . S
C451 H454 0.950 1_556 S
C452 C451 1.387 . S
C452 C455 1.387 . S
H453 C449 0.950 1_554 S
H454 C451 0.950 1_554 S
C455 C446 1.390 . S
C455 H448 0.950 . S
C455 C452 1.387 . S
C456 C457 1.387 . S
C456 H460 0.950 . S
C456 C465 1.390 . S
C457 C456 1.387 . S
C457 C459 1.387 . S
H458 C465 0.950 . S
C459 C457 1.387 . S
C459 C461 1.390 . S
C459 H463 0.950 . S
H460 C456 0.950 . S
C461 C459 1.390 . S
C461 C462 1.387 . S
C461 H464 0.950 . S
C462 C461 1.387 . S
C462 C465 1.387 . S
H463 C459 0.950 . S
H464 C461 0.950 . S
C465 C456 1.390 . S
C465 H458 0.950 . S
C465 C462 1.387 . S
C466 C467 1.387 . S
C466 H470 0.950 . S
C466 C475 1.390 . S
C467 C466 1.387 . S
C467 C469 1.387 . S
H468 C475 0.950 . S
C469 C467 1.387 . S
C469 C471 1.390 . S
C469 H473 0.950 . S
H470 C466 0.950 . S
C471 C469 1.390 . S
C471 C472 1.387 . S
C471 H474 0.950 . S
C472 C471 1.387 . S
C472 C475 1.387 . S
H473 C469 0.950 . S
H474 C471 0.950 . S
C475 C466 1.390 . S
C475 H468 0.950 . S
C475 C472 1.387 . S
C476 C477 1.387 . S
C476 H480 0.950 . S
C476 C485 1.390 . S
C477 C476 1.387 . S
C477 C479 1.387 . S
H478 C485 0.950 . S
C479 C477 1.387 . S
C479 C481 1.390 . S
C479 H483 0.950 . S
H480 C476 0.950 . S
C481 C479 1.390 . S
C481 C482 1.387 . S
C481 H484 0.950 . S
C482 C481 1.387 . S
C482 C485 1.387 . S
H483 C479 0.950 . S
H484 C481 0.950 . S
C485 C476 1.390 . S
C485 H478 0.950 . S
C485 C482 1.387 . S
C486 C487 1.387 . S
C486 H490 0.950 . S
C486 C495 1.390 . S
C487 C486 1.387 . S
C487 C489 1.387 . S
H488 C495 0.950 . S
C489 C487 1.387 . S
C489 C491 1.390 . S
C489 H493 0.950 . S
H490 C486 0.950 . S
C491 C489 1.390 . S
C491 C492 1.387 . S
C491 H494 0.950 . S
C492 C491 1.387 . S
C492 C495 1.387 . S
H493 C489 0.950 . S
H494 C491 0.950 . S
C495 C486 1.390 . S
C495 H488 0.950 . S
C495 C492 1.387 . S
C496 C497 1.387 . S
C496 H500 0.950 . S
C496 C505 1.390 . S
C497 C496 1.387 . S
C497 C499 1.387 . S
H498 C505 0.950 . S
C499 C497 1.387 . S
C499 C501 1.390 . S
C499 H503 0.950 . S
H500 C496 0.950 . S
C501 C499 1.390 . S
C501 C502 1.387 . S
C501 H504 0.950 . S
C502 C501 1.387 . S
C502 C505 1.387 . S
H503 C499 0.950 . S
H504 C501 0.950 . S
C505 C496 1.390 . S
C505 H498 0.950 . S
C505 C502 1.387 . S
C506 C507 1.387 . S
C506 H510 0.950 . S
C506 C515 1.390 . S
C507 C506 1.387 . S
C507 C509 1.387 . S
H508 C515 0.950 . S
C509 C507 1.387 . S
C509 C511 1.390 . S
C509 H513 0.950 . S
H510 C506 0.950 . S
C511 C509 1.390 . S
C511 C512 1.387 . S
C511 H514 0.950 . S
C512 C511 1.387 . S
C512 C515 1.387 . S
H513 C509 0.950 . S
H514 C511 0.950 . S
C515 C506 1.390 . S
C515 H508 0.950 . S
C515 C512 1.387 . S
C516 C517 1.387 . S
C516 H520 0.950 . S
C516 C525 1.390 . S
C517 C516 1.387 . S
C517 C519 1.387 . S
H518 C525 0.950 . S
C519 C517 1.387 . S
C519 C521 1.390 . S
C519 H523 0.950 . S
H520 C516 0.950 . S
C521 C519 1.390 . S
C521 C522 1.387 . S
C521 H524 0.950 . S
C522 C521 1.387 . S
C522 C525 1.387 . S
H523 C519 0.950 . S
H524 C521 0.950 . S
C525 C516 1.390 . S
C525 H518 0.950 . S
C525 C522 1.387 . S
C526 C527 1.387 . S
C526 H530 0.950 . S
C526 C535 1.390 . S
C527 C526 1.387 . S
C527 C529 1.387 . S
H528 C535 0.950 . S
C529 C527 1.387 . S
C529 C531 1.390 . S
C529 H533 0.950 . S
H530 C526 0.950 . S
C531 C529 1.390 . S
C531 C532 1.387 . S
C531 H534 0.950 . S
C532 C531 1.387 . S
C532 C535 1.387 . S
H533 C529 0.950 . S
H534 C531 0.950 . S
C535 C526 1.390 . S
C535 H528 0.950 . S
C535 C532 1.387 . S
C536 C537 1.387 . S
C536 H540 0.950 . S
C536 C545 1.390 . S
C537 C536 1.387 . S
C537 C539 1.387 . S
H538 C545 0.950 . S
C539 C537 1.387 . S
C539 C541 1.390 . S
C539 H543 0.950 . S
H540 C536 0.950 . S
C541 C539 1.390 . S
C541 C542 1.387 . S
C541 H544 0.950 . S
C542 C541 1.387 . S
C542 C545 1.387 . S
H543 C539 0.950 . S
H544 C541 0.950 . S
C545 C536 1.390 . S
C545 H538 0.950 . S
C545 C542 1.387 . S
C546 C547 1.387 . S
C546 H550 0.950 . S
C546 C555 1.390 . S
C547 C546 1.387 . S
C547 C549 1.387 . S
H548 C555 0.950 . S
C549 C547 1.387 . S
C549 C551 1.390 . S
C549 H553 0.950 . S
H550 C546 0.950 . S
C551 C549 1.390 . S
C551 C552 1.387 . S
C551 H554 0.950 . S
C552 C551 1.387 . S
C552 C555 1.387 . S
H553 C549 0.950 . S
H554 C551 0.950 . S
C555 C546 1.390 . S
C555 H548 0.950 . S
C555 C552 1.387 . S
C556 C557 1.387 . S
C556 H560 0.950 . S
C556 C565 1.390 . S
C557 C556 1.387 . S
C557 C559 1.387 . S
H558 C565 0.950 . S
C559 C557 1.387 . S
C559 C561 1.390 . S
C559 H563 0.950 . S
H560 C556 0.950 . S
C561 C559 1.390 . S
C561 C562 1.387 . S
C561 H564 0.950 . S
C562 C561 1.387 . S
C562 C565 1.387 . S
H563 C559 0.950 . S
H564 C561 0.950 . S
C565 C556 1.390 . S
C565 H558 0.950 . S
C565 C562 1.387 . S
C566 C567 1.387 . S
C566 H570 0.950 . S
C566 C575 1.390 . S
C567 C566 1.387 . S
C567 C569 1.387 . S
H568 C575 0.950 . S
C569 C567 1.387 . S
C569 C571 1.390 . S
C569 H573 0.950 . S
H570 C566 0.950 . S
C571 C569 1.390 . S
C571 C572 1.387 . S
C571 H574 0.950 . S
C572 C571 1.387 . S
C572 C575 1.387 . S
H573 C569 0.950 . S
H574 C571 0.950 . S
C575 C566 1.390 . S
C575 H568 0.950 . S
C575 C572 1.387 . S
C576 C577 1.387 . S
C576 H580 0.950 . S
C576 C585 1.390 . S
C577 C576 1.387 . S
C577 C579 1.387 . S
H578 C585 0.950 . S
C579 C577 1.387 . S
C579 C581 1.390 . S
C579 H583 0.950 . S
H580 C576 0.950 . S
C581 C579 1.390 . S
C581 C582 1.387 . S
C581 H584 0.950 . S
C582 C581 1.387 . S
C582 C585 1.387 . S
H583 C579 0.950 . S
H584 C581 0.950 . S
C585 C576 1.390 . S
C585 H578 0.950 . S
C585 C582 1.387 . S
C586 C587 1.387 . S
C586 H590 0.950 . S
C586 C595 1.390 . S
C587 C586 1.387 . S
C587 C589 1.387 . S
H588 C595 0.950 . S
C589 C587 1.387 . S
C589 C591 1.390 . S
C589 H593 0.950 . S
H590 C586 0.950 . S
C591 C589 1.390 . S
C591 C592 1.387 . S
C591 H594 0.950 . S
C592 C591 1.387 . S
C592 C595 1.387 . S
H593 C589 0.950 . S
H594 C591 0.950 . S
C595 C586 1.390 . S
C595 H588 0.950 . S
C595 C592 1.387 . S
C596 C597 1.387 . S
C596 H600 0.950 . S
C596 C605 1.390 . S
C597 C596 1.387 . S
C597 C599 1.387 . S
H598 C605 0.950 . S
C599 C597 1.387 . S
C599 C601 1.390 . S
C599 H603 0.950 . S
H600 C596 0.950 . S
C601 C599 1.390 . S
C601 C602 1.387 . S
C601 H604 0.950 . S
C602 C601 1.387 . S
C602 C605 1.387 . S
H603 C599 0.950 . S
H604 C601 0.950 . S
C605 C596 1.390 . S
C605 H598 0.950 . S
C605 C602 1.387 . S
C606 C607 1.387 . S
C606 H610 0.950 . S
C606 C615 1.390 . S
C607 C606 1.387 . S
C607 C609 1.387 . S
H608 C615 0.950 . S
C609 C607 1.387 . S
C609 C611 1.390 . S
C609 H613 0.950 . S
H610 C606 0.950 . S
C611 C609 1.390 . S
C611 C612 1.387 . S
C611 H614 0.950 . S
C612 C611 1.387 . S
C612 C615 1.387 . S
H613 C609 0.950 . S
H614 C611 0.950 . S
C615 C606 1.390 . S
C615 H608 0.950 . S
C615 C612 1.387 . S
C616 C617 1.387 . S
C616 H620 0.950 . S
C616 C625 1.390 . S
C617 C616 1.387 . S
C617 C619 1.387 . S
H618 C625 0.950 . S
C619 C617 1.387 . S
C619 C621 1.390 . S
C619 H623 0.950 . S
H620 C616 0.950 . S
C621 C619 1.390 . S
C621 C622 1.387 . S
C621 H624 0.950 . S
C622 C621 1.387 . S
C622 C625 1.387 . S
H623 C619 0.950 . S
H624 C621 0.950 . S
C625 C616 1.390 . S
C625 H618 0.950 . S
C625 C622 1.387 . S
C626 C627 1.387 . S
C626 H630 0.950 . S
C626 C635 1.390 . S
C627 C626 1.387 . S
C627 C629 1.387 . S
H628 C635 0.950 . S
C629 C627 1.387 . S
C629 C631 1.390 . S
C629 H633 0.950 . S
H630 C626 0.950 . S
C631 C629 1.390 . S
C631 C632 1.387 . S
C631 H634 0.950 . S
C632 C631 1.387 . S
C632 C635 1.387 . S
H633 C629 0.950 . S
H634 C631 0.950 . S
C635 C626 1.390 . S
C635 H628 0.950 . S
C635 C632 1.387 . S
C636 C637 1.387 . S
C636 H640 0.950 . S
C636 C645 1.390 . S
C637 C636 1.387 . S
C637 C639 1.387 . S
H638 C645 0.950 . S
C639 C637 1.387 . S
C639 C641 1.390 . S
C639 H643 0.950 . S
H640 C636 0.950 . S
C641 C639 1.390 . S
C641 C642 1.387 . S
C641 H644 0.950 . S
C642 C641 1.387 . S
C642 C645 1.387 . S
H643 C639 0.950 . S
H644 C641 0.950 . S
C645 C636 1.390 . S
C645 H638 0.950 . S
C645 C642 1.387 . S
C646 C647 1.387 . S
C646 H650 0.950 . S
C646 C655 1.390 . S
C647 C646 1.387 . S
C647 C649 1.387 . S
H648 C655 0.950 . S
C649 C647 1.387 . S
C649 C651 1.390 . S
C649 H653 0.950 . S
H650 C646 0.950 . S
C651 C649 1.390 . S
C651 C652 1.387 . S
C651 H654 0.950 . S
C652 C651 1.387 . S
C652 C655 1.387 . S
H653 C649 0.950 . S
H654 C651 0.950 . S
C655 C646 1.390 . S
C655 H648 0.950 . S
C655 C652 1.387 . S
C656 C657 1.387 . S
C656 H660 0.950 . S
C656 C665 1.390 . S
C657 C656 1.387 . S
C657 C659 1.387 . S
H658 C665 0.950 . S
C659 C657 1.387 . S
C659 C661 1.390 . S
C659 H663 0.950 . S
H660 C656 0.950 . S
C661 C659 1.390 . S
C661 C662 1.387 . S
C661 H664 0.950 . S
C662 C661 1.387 . S
C662 C665 1.387 . S
H663 C659 0.950 . S
H664 C661 0.950 . S
C665 C656 1.390 . S
C665 H658 0.950 . S
C665 C662 1.387 . S
C666 C667 1.387 . S
C666 H670 0.950 . S
C666 C675 1.390 . S
C667 C666 1.387 . S
C667 C669 1.387 . S
H668 C675 0.950 . S
C669 C667 1.387 . S
C669 C671 1.390 . S
C669 H673 0.950 . S
H670 C666 0.950 . S
C671 C669 1.390 . S
C671 C672 1.387 . S
C671 H674 0.950 . S
C672 C671 1.387 . S
C672 C675 1.387 . S
H673 C669 0.950 . S
H674 C671 0.950 . S
C675 C666 1.390 . S
C675 H668 0.950 . S
C675 C672 1.387 . S
C676 C677 1.387 . S
C676 H680 0.950 . S
C676 C685 1.390 . S
C677 C676 1.387 . S
C677 C679 1.387 . S
H678 C685 0.950 . S
C679 C677 1.387 . S
C679 C681 1.390 . S
C679 H683 0.950 . S
H680 C676 0.950 . S
C681 C679 1.390 . S
C681 C682 1.387 . S
C681 H684 0.950 . S
C682 C681 1.387 . S
C682 C685 1.387 . S
H683 C679 0.950 . S
H684 C681 0.950 . S
C685 C676 1.390 . S
C685 H678 0.950 . S
C685 C682 1.387 . S
C686 C687 1.387 . S
C686 H690 0.950 . S
C686 C695 1.390 . S
C687 C686 1.387 . S
C687 C689 1.387 . S
H688 C695 0.950 . S
C689 C687 1.387 . S
C689 C691 1.390 . S
C689 H693 0.950 . S
H690 C686 0.950 . S
C691 C689 1.390 . S
C691 C692 1.387 . S
C691 H694 0.950 . S
C692 C691 1.387 . S
C692 C695 1.387 . S
H693 C689 0.950 . S
H694 C691 0.950 . S
C695 C686 1.390 . S
C695 H688 0.950 . S
C695 C692 1.387 . S
C696 C697 1.387 . S
C696 H700 0.950 . S
C696 C705 1.390 . S
C697 C696 1.387 . S
C697 C699 1.387 . S
H698 C705 0.950 . S
C699 C697 1.387 . S
C699 C701 1.390 . S
C699 H703 0.950 . S
H700 C696 0.950 . S
C701 C699 1.390 . S
C701 C702 1.387 . S
C701 H704 0.950 . S
C702 C701 1.387 . S
C702 C705 1.387 . S
H703 C699 0.950 . S
H704 C701 0.950 . S
C705 C696 1.390 . S
C705 H698 0.950 . S
C705 C702 1.387 . S
C706 C707 1.387 . S
C706 H710 0.950 . S
C706 C715 1.390 1_545 S
C707 C706 1.387 . S
C707 C709 1.387 . S
H708 C715 0.950 . S
C709 C707 1.387 . S
C709 C711 1.390 1_545 S
C709 H713 0.950 . S
H710 C706 0.950 . S
C711 C709 1.390 1_565 S
C711 C712 1.387 . S
C711 H714 0.950 . S
C712 C711 1.387 . S
C712 C715 1.387 . S
H713 C709 0.950 . S
H714 C711 0.950 . S
C715 C706 1.390 1_565 S
C715 H708 0.950 . S
C715 C712 1.387 . S
C716 C717 1.387 . S
C716 H720 0.950 . S
C716 C725 1.390 . S
C717 C716 1.387 . S
C717 C719 1.387 1_455 S
H718 C725 0.950 . S
C719 C717 1.387 1_655 S
C719 C721 1.390 . S
C719 H723 0.950 . S
H720 C716 0.950 . S
C721 C719 1.390 . S
C721 C722 1.387 . S
C721 H724 0.950 . S
C722 C721 1.387 . S
C722 C725 1.387 1_655 S
H723 C719 0.950 . S
H724 C721 0.950 . S
C725 C716 1.390 . S
C725 H718 0.950 . S
C725 C722 1.387 1_455 S
C726 C727 1.387 . S
C726 H730 0.950 . S
C726 C735 1.390 . S
C727 C726 1.387 . S
C727 C729 1.387 . S
H728 C735 0.950 . S
C729 C727 1.387 . S
C729 C731 1.390 . S
C729 H733 0.950 . S
H730 C726 0.950 . S
C731 C729 1.390 . S
C731 C732 1.387 . S
C731 H734 0.950 . S
C732 C731 1.387 . S
C732 C735 1.387 . S
H733 C729 0.950 . S
H734 C731 0.950 . S
C735 C726 1.390 . S
C735 H728 0.950 . S
C735 C732 1.387 . S
C736 C737 1.387 . S
C736 H740 0.950 . S
C736 C745 1.390 1_545 S
C737 C736 1.387 . S
C737 C739 1.387 . S
H738 C745 0.950 . S
C739 C737 1.387 . S
C739 C741 1.390 1_545 S
C739 H743 0.950 . S
H740 C736 0.950 . S
C741 C739 1.390 1_565 S
C741 C742 1.387 . S
C741 H744 0.950 . S
C742 C741 1.387 . S
C742 C745 1.387 . S
H743 C739 0.950 . S
H744 C741 0.950 . S
C745 C736 1.390 1_565 S
C745 H738 0.950 . S
C745 C742 1.387 . S
C746 C747 1.387 . S
C746 H750 0.950 . S
C746 C755 1.390 1_455 S
C747 C746 1.387 . S
C747 C749 1.387 . S
H748 C755 0.950 . S
C749 C747 1.387 . S
C749 C751 1.390 1_455 S
C749 H753 0.950 . S
H750 C746 0.950 . S
C751 C749 1.390 1_655 S
C751 C752 1.387 . S
C751 H754 0.950 . S
C752 C751 1.387 . S
C752 C755 1.387 . S
H753 C749 0.950 . S
H754 C751 0.950 . S
C755 C746 1.390 1_655 S
C755 H748 0.950 . S
C755 C752 1.387 . S
C756 C757 1.387 . S
C756 H760 0.950 . S
C756 C765 1.390 . S
C757 C756 1.387 . S
C757 C759 1.387 1_554 S
H758 C765 0.950 . S
C759 C757 1.387 1_556 S
C759 C761 1.390 . S
C759 H763 0.950 . S
H760 C756 0.950 . S
C761 C759 1.390 . S
C761 C762 1.387 . S
C761 H764 0.950 . S
C762 C761 1.387 . S
C762 C765 1.387 1_556 S
H763 C759 0.950 . S
H764 C761 0.950 . S
C765 C756 1.390 . S
C765 H758 0.950 . S
C765 C762 1.387 1_554 S
C766 C767 1.387 . S
C766 H770 0.950 . S
C766 C775 1.390 1_546 S
C767 C766 1.387 . S
C767 C769 1.387 . S
H768 C775 0.950 . S
C769 C767 1.387 . S
C769 C771 1.390 1_546 S
C769 H773 0.950 . S
H770 C766 0.950 . S
C771 C769 1.390 1_564 S
C771 C772 1.387 . S
C771 H774 0.950 . S
C772 C771 1.387 . S
C772 C775 1.387 . S
H773 C769 0.950 . S
H774 C771 0.950 . S
C775 C766 1.390 1_564 S
C775 H768 0.950 . S
C775 C772 1.387 . S
C776 C777 1.387 1_554 S
C776 H780 0.950 . S
C776 C785 1.390 1_655 S
C777 C776 1.387 1_556 S
C777 C779 1.387 . S
H778 C785 0.950 . S
C779 C777 1.387 . S
C779 C781 1.390 1_655 S
C779 H783 0.950 . S
H780 C776 0.950 . S
C781 C779 1.390 1_455 S
C781 C782 1.387 1_556 S
C781 H784 0.950 . S
C782 C781 1.387 1_554 S
C782 C785 1.387 . S
H783 C779 0.950 . S
H784 C781 0.950 . S
C785 C776 1.390 1_455 S
C785 H778 0.950 . S
C785 C782 1.387 . S
C786 C787 1.387 1_556 S
C786 H790 0.950 . S
C786 C795 1.390 . S
C787 C786 1.387 1_554 S
C787 C789 1.387 . S
H788 C795 0.950 . S
C789 C787 1.387 . S
C789 C791 1.390 . S
C789 H793 0.950 . S
H790 C786 0.950 . S
C791 C789 1.390 . S
C791 C792 1.387 1_554 S
C791 H794 0.950 . S
C792 C791 1.387 1_556 S
C792 C795 1.387 . S
H793 C789 0.950 . S
H794 C791 0.950 . S
C795 C786 1.390 . S
C795 H788 0.950 . S
C795 C792 1.387 . S
C796 C797 1.387 . S
C796 H800 0.950 . S
C796 C805 1.390 1_564 S
C797 C796 1.387 . S
C797 C799 1.387 . S
H798 C805 0.950 . S
C799 C797 1.387 . S
C799 C801 1.390 1_564 S
C799 H803 0.950 . S
H800 C796 0.950 . S
C801 C799 1.390 1_546 S
C801 C802 1.387 . S
C801 H804 0.950 . S
C802 C801 1.387 . S
C802 C805 1.387 . S
H803 C799 0.950 . S
H804 C801 0.950 . S
C805 C796 1.390 1_546 S
C805 H798 0.950 . S
C805 C802 1.387 . S
C806 C807 1.387 . S
C806 H810 0.950 . S
C806 C815 1.390 1_655 S
C807 C806 1.387 . S
C807 C809 1.387 1_556 S
H808 C815 0.950 . S
C809 C807 1.387 1_554 S
C809 C811 1.390 1_655 S
C809 H813 0.950 . S
H810 C806 0.950 . S
C811 C809 1.390 1_455 S
C811 C812 1.387 . S
C811 H814 0.950 . S
C812 C811 1.387 . S
C812 C815 1.387 1_554 S
H813 C809 0.950 . S
H814 C811 0.950 . S
C815 C806 1.390 1_455 S
C815 H808 0.950 . S
C815 C812 1.387 1_556 S
C816 C817 1.387 . S
C816 H820 0.950 . S
C816 C825 1.390 . S
C817 C816 1.387 . S
C817 C819 1.387 . S
H818 C825 0.950 . S
C819 C817 1.387 . S
C819 C821 1.390 . S
C819 H823 0.950 . S
H820 C816 0.950 . S
C821 C819 1.390 . S
C821 C822 1.387 . S
C821 H824 0.950 1_655 S
C822 C821 1.387 . S
C822 C825 1.387 . S
H823 C819 0.950 . S
H824 C821 0.950 1_455 S
C825 C816 1.390 . S
C825 H818 0.950 . S
C825 C822 1.387 . S
C826 C827 1.387 . S
C826 H830 0.950 . S
C826 C835 1.390 . S
C827 C826 1.387 . S
C827 C829 1.387 . S
H828 C835 0.950 . S
C829 C827 1.387 . S
C829 C831 1.390 . S
C829 H833 0.950 . S
H830 C826 0.950 . S
C831 C829 1.390 . S
C831 C832 1.387 . S
C831 H834 0.950 . S
C832 C831 1.387 . S
C832 C835 1.387 . S
H833 C829 0.950 . S
H834 C831 0.950 . S
C835 C826 1.390 . S
C835 H828 0.950 . S
C835 C832 1.387 . S
C836 C837 1.387 1_565 S
C836 H840 0.950 . S
C836 C845 1.390 1_565 S
C837 C836 1.387 1_545 S
C837 C839 1.387 . S
H838 C845 0.950 . S
C839 C837 1.387 . S
C839 C841 1.390 . S
C839 H843 0.950 . S
H840 C836 0.950 . S
C841 C839 1.390 . S
C841 C842 1.387 . S
C841 H844 0.950 . S
C842 C841 1.387 . S
C842 C845 1.387 . S
H843 C839 0.950 . S
H844 C841 0.950 . S
C845 C836 1.390 1_545 S
C845 H838 0.950 . S
C845 C842 1.387 . S
C846 C847 1.387 . S
C846 H850 0.950 . S
C846 C855 1.390 . S
C847 C846 1.387 . S
C847 C849 1.387 . S
H848 C855 0.950 . S
C849 C847 1.387 . S
C849 C851 1.390 1_545 S
C849 H853 0.950 . S
H850 C846 0.950 . S
C851 C849 1.390 1_565 S
C851 C852 1.387 1_565 S
C851 H854 0.950 . S
C852 C851 1.387 1_545 S
C852 C855 1.387 . S
H853 C849 0.950 . S
H854 C851 0.950 . S
C855 C846 1.390 . S
C855 H848 0.950 . S
C855 C852 1.387 . S
C856 C857 1.387 . S
C856 H860 0.950 . S
C856 C865 1.390 . S
C857 C856 1.387 . S
C857 C859 1.387 1_655 S
H858 C865 0.950 . S
C859 C857 1.387 1_455 S
C859 C861 1.390 1_455 S
C859 H863 0.950 . S
H860 C856 0.950 . S
C861 C859 1.390 1_655 S
C861 C862 1.387 . S
C861 H864 0.950 . S
C862 C861 1.387 . S
C862 C865 1.387 . S
H863 C859 0.950 . S
H864 C861 0.950 . S
C865 C856 1.390 . S
C865 H858 0.950 . S
C865 C862 1.387 . S
C866 C867 1.387 . S
C866 H870 0.950 . S
C866 C875 1.390 . S
C867 C866 1.387 . S
C867 C869 1.387 . S
H868 C875 0.950 . S
C869 C867 1.387 . S
C869 C871 1.390 . S
C869 H873 0.950 . S
H870 C866 0.950 . S
C871 C869 1.390 . S
C871 C872 1.387 . S
C871 H874 0.950 . S
C872 C871 1.387 . S
C872 C875 1.387 . S
H873 C869 0.950 . S
H874 C871 0.950 . S
C875 C866 1.390 . S
C875 H868 0.950 . S
C875 C872 1.387 . S
C876 C877 1.387 . S
C876 H880 0.950 . S
C876 C885 1.390 1_565 S
C877 C876 1.387 . S
C877 C879 1.387 . S
H878 C885 0.950 . S
C879 C877 1.387 . S
C879 C881 1.390 . S
C879 H883 0.950 . S
H880 C876 0.950 . S
C881 C879 1.390 . S
C881 C882 1.387 . S
C881 H884 0.950 . S
C882 C881 1.387 . S
C882 C885 1.387 1_565 S
H883 C879 0.950 . S
H884 C881 0.950 . S
C885 C876 1.390 1_545 S
C885 H878 0.950 . S
C885 C882 1.387 1_545 S
C886 C887 1.387 . S
C886 H890 0.950 . S
C886 C895 1.390 1_455 S
C887 C886 1.387 . S
C887 C889 1.387 . S
H888 C895 0.950 . S
C889 C887 1.387 . S
C889 C891 1.390 . S
C889 H893 0.950 . S
H890 C886 0.950 . S
C891 C889 1.390 . S
C891 C892 1.387 . S
C891 H894 0.950 . S
C892 C891 1.387 . S
C892 C895 1.387 1_455 S
H893 C889 0.950 . S
H894 C891 0.950 . S
C895 C886 1.390 1_655 S
C895 H888 0.950 . S
C895 C892 1.387 1_655 S
C896 C897 1.387 . S
C896 H900 0.950 . S
C896 C905 1.390 . S
C897 C896 1.387 . S
C897 C899 1.387 . S
H898 C905 0.950 . S
C899 C897 1.387 . S
C899 C901 1.390 . S
C899 H903 0.950 . S
H900 C896 0.950 . S
C901 C899 1.390 . S
C901 C902 1.387 . S
C901 H904 0.950 . S
C902 C901 1.387 . S
C902 C905 1.387 . S
H903 C899 0.950 . S
H904 C901 0.950 . S
C905 C896 1.390 . S
C905 H898 0.950 . S
C905 C902 1.387 . S
C906 C907 1.387 . S
C906 H910 0.950 1_455 S
C906 C915 1.390 . S
C907 C906 1.387 . S
C907 C909 1.387 . S
H908 C915 0.950 . S
C909 C907 1.387 . S
C909 C911 1.390 . S
C909 H913 0.950 . S
H910 C906 0.950 1_655 S
C911 C909 1.390 . S
C911 C912 1.387 . S
C911 H914 0.950 . S
C912 C911 1.387 . S
C912 C915 1.387 . S
H913 C909 0.950 . S
H914 C911 0.950 . S
C915 C906 1.390 . S
C915 H908 0.950 . S
C915 C912 1.387 . S
C916 C917 1.387 . S
C916 H920 0.950 . S
C916 C925 1.390 . S
C917 C916 1.387 . S
C917 C919 1.387 . S
H918 C925 0.950 . S
C919 C917 1.387 . S
C919 C921 1.390 . S
C919 H923 0.950 . S
H920 C916 0.950 . S
C921 C919 1.390 . S
C921 C922 1.387 . S
C921 H924 0.950 . S
C922 C921 1.387 . S
C922 C925 1.387 . S
H923 C919 0.950 . S
H924 C921 0.950 . S
C925 C916 1.390 . S
C925 H918 0.950 . S
C925 C922 1.387 . S
C926 C927 1.387 . S
C926 H930 0.950 . S
C926 C935 1.390 . S
C927 C926 1.387 . S
C927 C929 1.387 . S
H928 C935 0.950 . S
C929 C927 1.387 . S
C929 C931 1.390 1_565 S
C929 H933 0.950 . S
H930 C926 0.950 . S
C931 C929 1.390 1_545 S
C931 C932 1.387 1_545 S
C931 H934 0.950 . S
C932 C931 1.387 1_565 S
C932 C935 1.387 . S
H933 C929 0.950 . S
H934 C931 0.950 . S
C935 C926 1.390 . S
C935 H928 0.950 . S
C935 C932 1.387 . S
C397 C48 1.339 . S
C402 C8 1.343 . S
C407 C30 1.339 . S
C412 C4 1.343 . S
C417 C26 1.340 . S
C422 C52 1.341 . S
C427 C70 1.340 . S
C432 C96 1.341 . S
C437 C118 1.342 . S
C442 C92 1.339 . S
C447 C114 1.343 . S
C452 C74 1.339 . S
C457 C180 1.339 1_565 S
C462 C140 1.342 . S
C467 C136 1.343 1_455 S
C472 C162 1.339 1_565 S
C477 C158 1.341 . S
C482 C184 1.340 1_455 S
C487 C228 1.341 . S
C492 C202 1.340 . S
C497 C224 1.342 . S
C502 C250 1.339 . S
C507 C206 1.339 . S
C512 C246 1.343 . S
C517 C272 1.342 . S
C522 C312 1.339 . S
C527 C268 1.339 . S
C532 C294 1.343 . S
C537 C290 1.341 . S
C542 C316 1.340 . S
C547 C360 1.340 1_655 S
C552 C334 1.341 . S
C557 C382 1.342 . S
C562 C356 1.339 1_545 S
C567 C378 1.343 1_655 S
C572 C338 1.339 1_545 S
C577 C9 1.193 . S
C582 C203 1.191 . S
C587 C31 1.192 . S
C592 C225 1.192 . S
C597 C247 1.189 . S
C602 C53 1.192 . S
C607 C71 1.190 . S
C612 C273 1.193 . S
C617 C295 1.190 . S
C622 C93 1.190 . S
C627 C317 1.191 . S
C632 C115 1.190 . S
C637 C292 1.191 . S
C642 C117 1.193 . S
C647 C73 1.190 . S
C652 C314 1.190 . S
C657 C270 1.190 . S
C662 C95 1.190 . S
C667 C28 1.192 . S
C672 C249 1.192 . S
C677 C50 1.190 . S
C682 C205 1.190 . S
C687 C227 1.191 . S
C692 C6 1.193 . S
C697 C335 1.190 . S
C702 C141 1.193 . S
C707 C163 1.190 . S
C712 C357 1.190 . S
C717 C379 1.193 . S
C722 C185 1.190 . S
C727 C381 1.189 . S
C732 C160 1.191 . S
C737 C182 1.190 . S
C742 C337 1.190 . S
C747 C359 1.191 . S
C752 C138 1.190 . S
C757 C5 1.381 . S
C762 C75 1.380 . S
C767 C97 1.381 . S
C772 C27 1.381 . S
C777 C119 1.380 . S
C782 C49 1.381 . S
C787 C29 1.381 . S
C792 C116 1.381 . S
C797 C51 1.381 . S
C802 C72 1.381 . S
C807 C94 1.381 . S
C812 C7 1.381 . S
C817 C137 1.381 . S
C822 C207 1.381 . S
C827 C229 1.381 . S
C832 C159 1.381 . S
C837 C251 1.380 . S
C842 C181 1.381 . S
C847 C161 1.381 . S
C852 C248 1.380 . S
C857 C204 1.381 . S
C862 C183 1.381 . S
C867 C139 1.380 . S
C872 C226 1.381 . S
C877 C339 1.381 . S
C882 C269 1.380 . S
C887 C361 1.381 . S
C892 C291 1.381 . S
C897 C383 1.381 . S
C902 C313 1.380 . S
C907 C293 1.380 . S
C912 C380 1.381 . S
C917 C315 1.381 . S
C922 C336 1.381 . S
C927 C358 1.381 . S
C932 C271 1.380 . S
