# Generated by pormake.
# Topology wjy, (5)-cn, num edge types: 1
# Building blocks:
#     Node 0, Type 0, BuildingBlock: BEQFEK_clean_sbu_0, # of connection points: 5
#     Node 1, Type 0, BuildingBlock: BEQFEK_clean_sbu_0, # of connection points: 5
#     Node 2, Type 0, BuildingBlock: BEQFEK_clean_sbu_0, # of connection points: 5
#     Node 3, Type 0, BuildingBlock: BEQFEK_clean_sbu_0, # of connection points: 5
#     Node 4, Type 0, BuildingBlock: BEQFEK_clean_sbu_0, # of connection points: 5
#     Node 5, Type 0, BuildingBlock: BEQFEK_clean_sbu_0, # of connection points: 5
#     Node 6, Type 0, BuildingBlock: BEQFEK_clean_sbu_0, # of connection points: 5
#     Node 7, Type 0, BuildingBlock: BEQFEK_clean_sbu_0, # of connection points: 5
#     Node 8, Type 0, BuildingBlock: BEQFEK_clean_sbu_0, # of connection points: 5
#     Node 9, Type 0, BuildingBlock: BEQFEK_clean_sbu_0, # of connection points: 5
#     Node 10, Type 0, BuildingBlock: BEQFEK_clean_sbu_0, # of connection points: 5
#     Node 11, Type 0, BuildingBlock: BEQFEK_clean_sbu_0, # of connection points: 5
#     Edge 12, Type (0, 0), BuildingBlock: XIVTED_clean_linker_0, # of connection points: 2
#     Edge 13, Type (0, 0), BuildingBlock: XIVTED_clean_linker_0, # of connection points: 2
#     Edge 14, Type (0, 0), BuildingBlock: XIVTED_clean_linker_0, # of connection points: 2
#     Edge 15, Type (0, 0), BuildingBlock: XIVTED_clean_linker_0, # of connection points: 2
#     Edge 16, Type (0, 0), BuildingBlock: XIVTED_clean_linker_0, # of connection points: 2
#     Edge 17, Type (0, 0), BuildingBlock: XIVTED_clean_linker_0, # of connection points: 2
#     Edge 18, Type (0, 0), BuildingBlock: XIVTED_clean_linker_0, # of connection points: 2
#     Edge 19, Type (0, 0), BuildingBlock: XIVTED_clean_linker_0, # of connection points: 2
#     Edge 20, Type (0, 0), BuildingBlock: XIVTED_clean_linker_0, # of connection points: 2
#     Edge 21, Type (0, 0), BuildingBlock: XIVTED_clean_linker_0, # of connection points: 2
#     Edge 22, Type (0, 0), BuildingBlock: XIVTED_clean_linker_0, # of connection points: 2
#     Edge 23, Type (0, 0), BuildingBlock: XIVTED_clean_linker_0, # of connection points: 2
#     Edge 24, Type (0, 0), BuildingBlock: XIVTED_clean_linker_0, # of connection points: 2
#     Edge 25, Type (0, 0), BuildingBlock: XIVTED_clean_linker_0, # of connection points: 2
#     Edge 26, Type (0, 0), BuildingBlock: XIVTED_clean_linker_0, # of connection points: 2
#     Edge 27, Type (0, 0), BuildingBlock: XIVTED_clean_linker_0, # of connection points: 2
#     Edge 28, Type (0, 0), BuildingBlock: XIVTED_clean_linker_0, # of connection points: 2
#     Edge 29, Type (0, 0), BuildingBlock: XIVTED_clean_linker_0, # of connection points: 2
#     Edge 30, Type (0, 0), BuildingBlock: XIVTED_clean_linker_0, # of connection points: 2
#     Edge 31, Type (0, 0), BuildingBlock: XIVTED_clean_linker_0, # of connection points: 2
#     Edge 32, Type (0, 0), BuildingBlock: XIVTED_clean_linker_0, # of connection points: 2
#     Edge 33, Type (0, 0), BuildingBlock: XIVTED_clean_linker_0, # of connection points: 2
#     Edge 34, Type (0, 0), BuildingBlock: XIVTED_clean_linker_0, # of connection points: 2
#     Edge 35, Type (0, 0), BuildingBlock: XIVTED_clean_linker_0, # of connection points: 2
#     Edge 36, Type (0, 0), BuildingBlock: XIVTED_clean_linker_0, # of connection points: 2
#     Edge 37, Type (0, 0), BuildingBlock: XIVTED_clean_linker_0, # of connection points: 2
#     Edge 38, Type (0, 0), BuildingBlock: XIVTED_clean_linker_0, # of connection points: 2
#     Edge 39, Type (0, 0), BuildingBlock: XIVTED_clean_linker_0, # of connection points: 2
#     Edge 40, Type (0, 0), BuildingBlock: XIVTED_clean_linker_0, # of connection points: 2
#     Edge 41, Type (0, 0), BuildingBlock: XIVTED_clean_linker_0, # of connection points: 2
# Relax obj value: 0.134
# Max RMSD: 0.159
# Mean RMSD: 0.159
data_MOF--net-wjy--node1-BEQFEK_clean_sbu_0--edge1-XIVTED_clean_linker_0
_symmetry_space_group_name_H-M    P1
_symmetry_Int_Tables_number       1
_symmetry_cell_setting            triclinic
loop_
_symmetry_equiv_pos_as_xyz
'x, y, z'
_cell_length_a     73.855976
_cell_length_b     73.883192
_cell_length_c     19.125003
_cell_angle_alpha  90.029657
_cell_angle_beta   89.978168
_cell_angle_gamma 120.00229
loop_
_atom_site_label
_atom_site_type_symbol
_atom_site_fract_x
_atom_site_fract_y
_atom_site_fract_z
_atom_type_partial_charge
Co0 Co 0.45125 0.10622 0.17289 0.0
Co1 Co 0.46939 0.11531 0.02306 0.0
C2 C 0.4329 0.07306 0.06833 0.0
O3 O 0.43194 0.07888 0.13024 0.0
O4 O 0.44671 0.08545 0.02528 0.0
C5 C 0.43022 0.10077 0.31388 0.0
O6 O 0.41099 0.08849 0.29216 0.0
C7 C 0.46336 0.11845 0.87449 0.0
C8 C 0.49574 0.1343 0.83434 0.0
C9 C 0.47505 0.12581 0.8135 0.0
N10 N 0.47657 0.1225 0.92819 0.0
N11 N 0.4959 0.13207 0.90405 0.0
C12 C 0.44006 0.10727 0.88242 0.0
H13 H 0.43521 0.10061 0.93535 0.0
H14 H 0.43442 0.11851 0.87509 0.0
H15 H 0.43256 0.0947 0.84268 0.0
C16 C 0.447 0.14331 0.14311 0.0
N17 N 0.45182 0.12866 0.12404 0.0
N18 N 0.46049 0.13322 0.06176 0.0
C19 C 0.46189 0.1512 0.03964 0.0
C20 C 0.45324 0.15808 0.09025 0.0
C21 C 0.4385 0.14412 0.21332 0.0
H22 H 0.44995 0.14598 0.25424 0.0
H23 H 0.42387 0.12915 0.22305 0.0
H24 H 0.43531 0.15724 0.21739 0.0
O25 O 0.47974 0.11007 0.17854 0.0
O26 O 0.49419 0.11825 0.0735 0.0
H27 H 0.48696 0.16236 0.96545 0.0
H28 H 0.47429 0.17791 0.96964 0.0
C29 C 0.4718 0.16184 0.97219 0.0
H30 H 0.46143 0.15278 0.9283 0.0
H31 H 0.50916 0.13684 0.93502 0.0
O32 O 0.44538 0.10765 0.2713 0.0
C33 C 0.49524 0.11503 0.13834 0.0
Co34 Co 0.34227 0.45272 0.32881 0.0
Co35 Co 0.35517 0.47308 0.18097 0.0
C36 C 0.36163 0.43744 0.22887 0.0
O37 O 0.35216 0.43459 0.28698 0.0
O38 O 0.36409 0.4519 0.18712 0.0
C39 C 0.34353 0.44061 0.46626 0.0
O40 O 0.36008 0.4406 0.44108 0.0
C41 C 0.35264 0.46769 0.03113 0.0
C42 C 0.36281 0.4993 0.99026 0.0
C43 C 0.35578 0.47883 0.96982 0.0
N44 N 0.35766 0.48091 0.08527 0.0
N45 N 0.36386 0.49984 0.06069 0.0
C46 C 0.34305 0.44453 0.0391 0.0
H47 H 0.33435 0.43931 0.08921 0.0
H48 H 0.3323 0.43613 -0.00494 0.0
H49 H 0.35565 0.4405 0.03976 0.0
C50 C 0.30155 0.44777 0.28542 0.0
N51 N 0.32159 0.45331 0.27265 0.0
N52 N 0.32706 0.46221 0.21081 0.0
C53 C 0.31068 0.4628 0.18235 0.0
C54 C 0.29396 0.45365 0.22859 0.0
C55 C 0.29082 0.43907 0.35371 0.0
H56 H 0.29907 0.45079 0.39551 0.0
H57 H 0.29181 0.42496 0.3668 0.0
H58 H 0.2742 0.43504 0.35252 0.0
O59 O 0.36617 0.48156 0.34197 0.0
O60 O 0.37444 0.49735 0.23871 0.0
H61 H 0.32399 0.48889 0.11244 0.0
H62 H 0.29617 0.47161 0.10055 0.0
C63 C 0.3112 0.47236 0.11286 0.0
H64 H 0.31443 0.46387 0.07145 0.0
H65 H 0.36847 0.51301 0.09194 0.0
O66 O 0.33196 0.44377 0.42482 0.0
C67 C 0.37717 0.49767 0.30457 0.0
Co68 Co 0.893 0.34434 0.52027 0.0
Co69 Co 0.88288 0.35101 0.3679 0.0
C70 C 0.92489 0.35653 0.40958 0.0
O71 O 0.91962 0.35105 0.47284 0.0
O72 O 0.91225 0.35742 0.36655 0.0
C73 C 0.89812 0.3275 0.65842 0.0
O74 O 0.90031 0.31247 0.63043 0.0
C75 C 0.87974 0.34195 0.21887 0.0
C76 C 0.86499 0.35949 0.1784 0.0
C77 C 0.87347 0.3473 0.15786 0.0
N78 N 0.87505 0.35046 0.27306 0.0
N79 N 0.86602 0.36073 0.24866 0.0
C80 C 0.89151 0.33039 0.22538 0.0
H81 H 0.9065 0.33886 0.19641 0.0
H82 H 0.89447 0.32847 0.28087 0.0
H83 H 0.88233 0.31461 0.20209 0.0
C84 C 0.85329 0.30358 0.49989 0.0
N85 N 0.86901 0.32205 0.4768 0.0
N86 N 0.86508 0.3249 0.41183 0.0
C87 C 0.84702 0.3082 0.39103 0.0
C88 C 0.83885 0.29415 0.44622 0.0
C89 C 0.85096 0.29622 0.57395 0.0
H90 H 0.85608 0.30962 0.61016 0.0
H91 H 0.86095 0.28914 0.58234 0.0
H92 H 0.83453 0.28437 0.58611 0.0
O93 O 0.88987 0.3693 0.52266 0.0
O94 O 0.8812 0.37401 0.41621 0.0
H95 H 0.83499 0.31863 0.30805 0.0
H96 H 0.82357 0.2905 0.31161 0.0
C97 C 0.83809 0.30568 0.31901 0.0
H98 H 0.84962 0.30647 0.2805 0.0
H99 H 0.86127 0.36922 0.27971 0.0
O100 O 0.89503 0.33971 0.62018 0.0
C101 C 0.88492 0.37933 0.48024 0.0
Co102 Co 0.54537 0.89132 0.67144 0.0
Co103 Co 0.52868 0.8817 0.51898 0.0
C104 C 0.56466 0.92378 0.56242 0.0
O105 O 0.56486 0.91808 0.62507 0.0
O106 O 0.55129 0.91135 0.51852 0.0
C107 C 0.56752 0.89672 0.80936 0.0
O108 O 0.5847 0.89882 0.78138 0.0
C109 C 0.53528 0.87921 0.37053 0.0
C110 C 0.50318 0.86383 0.32805 0.0
C111 C 0.52401 0.87274 0.3089 0.0
N112 N 0.52175 0.87418 0.42383 0.0
N113 N 0.50256 0.86481 0.39827 0.0
C114 C 0.55856 0.89157 0.37852 0.0
H115 H 0.56311 0.89327 0.43437 0.0
H116 H 0.56596 0.8837 0.35126 0.0
H117 H 0.56459 0.90721 0.35447 0.0
C118 C 0.54766 0.85244 0.64868 0.0
N119 N 0.54425 0.86783 0.62676 0.0
N120 N 0.5375 0.86405 0.56173 0.0
C121 C 0.53678 0.84636 0.53976 0.0
C122 C 0.54314 0.83837 0.5942 0.0
C123 C 0.55296 0.85006 0.72235 0.0
H124 H 0.54471 0.85503 0.75928 0.0
H125 H 0.57004 0.8601 0.73022 0.0
H126 H 0.54853 0.83364 0.73394 0.0
O127 O 0.51708 0.88757 0.67401 0.0
O128 O 0.50361 0.87924 0.5676 0.0
H129 H 0.51469 0.83466 0.4556 0.0
H130 H 0.53144 0.82328 0.45938 0.0
C131 C 0.5307 0.83774 0.46725 0.0
H132 H 0.54163 0.84944 0.4295 0.0
H133 H 0.48911 0.85971 0.42851 0.0
O134 O 0.55212 0.89346 0.77126 0.0
C135 C 0.50198 0.88257 0.63204 0.0
Co136 Co 0.65429 0.54306 0.82348 0.0
Co137 Co 0.6417 0.52293 0.67503 0.0
C138 C 0.63478 0.55822 0.72364 0.0
O139 O 0.64417 0.56099 0.78186 0.0
O140 O 0.63253 0.54392 0.68138 0.0
C141 C 0.65339 0.55599 0.96083 0.0
O142 O 0.63735 0.55691 0.93529 0.0
C143 C 0.64451 0.52827 0.52495 0.0
C144 C 0.63456 0.49662 0.48472 0.0
C145 C 0.6416 0.51705 0.46385 0.0
N146 N 0.63939 0.51512 0.57931 0.0
N147 N 0.6333 0.49617 0.55509 0.0
C148 C 0.65401 0.55143 0.53263 0.0
H149 H 0.66242 0.55669 0.58323 0.0
H150 H 0.665 0.5598 0.48912 0.0
H151 H 0.64139 0.55542 0.53204 0.0
C152 C 0.69522 0.54857 0.78023 0.0
N153 N 0.67513 0.5428 0.76734 0.0
N154 N 0.66981 0.53398 0.70531 0.0
C155 C 0.68635 0.53367 0.67689 0.0
C156 C 0.703 0.54293 0.72332 0.0
C157 C 0.70585 0.5573 0.84866 0.0
H158 H 0.69767 0.54552 0.8903 0.0
H159 H 0.70463 0.57128 0.8619 0.0
H160 H 0.72252 0.56154 0.84757 0.0
O161 O 0.63059 0.51411 0.83587 0.0
O162 O 0.62246 0.4985 0.73227 0.0
H163 H 0.67331 0.50775 0.60618 0.0
H164 H 0.70114 0.52515 0.59514 0.0
C165 C 0.68605 0.5243 0.60719 0.0
H166 H 0.68289 0.53286 0.56592 0.0
H167 H 0.62867 0.48305 0.58657 0.0
O168 O 0.66442 0.55193 0.91981 0.0
C169 C 0.61969 0.49804 0.79813 0.0
Co170 Co 0.10423 0.65348 0.02078 0.0
Co171 Co 0.11481 0.64697 0.86893 0.0
C172 C 0.07238 0.64068 0.91024 0.0
O173 O 0.07752 0.64623 0.97353 0.0
O174 O 0.08521 0.64 0.8674 0.0
C175 C 0.09786 0.66923 0.15971 0.0
O176 O 0.09352 0.68295 0.13259 0.0
C177 C 0.11862 0.65719 0.72112 0.0
C178 C 0.13195 0.63861 0.67821 0.0
C179 C 0.12432 0.65166 0.65916 0.0
N180 N 0.12268 0.64784 0.77415 0.0
N181 N 0.13093 0.63699 0.74836 0.0
C182 C 0.10774 0.66957 0.72968 0.0
H183 H 0.10368 0.67007 0.7851 0.0
H184 H 0.11818 0.68587 0.71227 0.0
H185 H 0.09345 0.66276 0.69679 0.0
C186 C 0.14257 0.69519 -0.00117 0.0
N187 N 0.12771 0.67611 0.97683 0.0
N188 N 0.13206 0.67322 0.91241 0.0
C189 C 0.14965 0.69042 0.89119 0.0
C190 C 0.15674 0.70492 0.94491 0.0
C191 C 0.14341 0.70371 0.0704 0.0
H192 H 0.14132 0.6919 0.11018 0.0
H193 H 0.13044 0.70707 0.07602 0.0
H194 H 0.1584 0.71836 0.0798 0.0
O195 O 0.10803 0.62886 0.02321 0.0
O196 O 0.11706 0.62433 0.91707 0.0
H197 H 0.16049 0.67759 0.8118 0.0
H198 H 0.17687 0.70545 0.824 0.0
C199 C 0.16049 0.6923 0.82318 0.0
H200 H 0.15201 0.69513 0.78069 0.0
H201 H 0.13505 0.62781 0.77833 0.0
O202 O 0.10234 0.65811 0.12078 0.0
C203 C 0.11332 0.61901 0.98106 0.0
Co204 Co 0.89397 0.55047 0.62565 0.0
Co205 Co 0.88339 0.53268 0.77682 0.0
C206 C 0.92581 0.5691 0.73597 0.0
O207 O 0.92071 0.56981 0.67286 0.0
O208 O 0.91296 0.55543 0.77827 0.0
C209 C 0.89968 0.5724 0.48617 0.0
O210 O 0.90393 0.5905 0.51269 0.0
C211 C 0.87982 0.53855 0.9255 0.0
C212 C 0.86617 0.50641 0.9665 0.0
C213 C 0.87402 0.52703 0.98684 0.0
N214 N 0.87557 0.52536 0.87158 0.0
N215 N 0.86716 0.50613 0.89627 0.0
C216 C 0.89076 0.56185 0.91827 0.0
H217 H 0.89503 0.56668 0.86317 0.0
H218 H 0.88025 0.56764 0.93567 0.0
H219 H 0.90492 0.56916 0.95181 0.0
C220 C 0.85537 0.55332 0.64884 0.0
N221 N 0.87044 0.54936 0.67042 0.0
N222 N 0.86585 0.54137 0.73383 0.0
C223 C 0.84769 0.53985 0.75438 0.0
C224 C 0.84052 0.54747 0.70142 0.0
C225 C 0.8542 0.56067 0.57704 0.0
H226 H 0.85695 0.55132 0.53758 0.0
H227 H 0.86659 0.57725 0.57137 0.0
H228 H 0.83879 0.55937 0.56708 0.0
O229 O 0.8903 0.52205 0.62202 0.0
O230 O 0.88137 0.50811 0.72767 0.0
H231 H 0.83622 0.51558 0.83151 0.0
H232 H 0.82148 0.5291 0.82625 0.0
C233 C 0.8373 0.53094 0.82306 0.0
H234 H 0.84691 0.5416 0.86559 0.0
H235 H 0.86287 0.49294 0.86545 0.0
O236 O 0.89557 0.55703 0.52572 0.0
C237 C 0.88512 0.50679 0.66348 0.0
Co238 Co 0.34137 0.88966 0.81405 0.0
Co239 Co 0.35262 0.88234 0.96437 0.0
C240 C 0.35778 0.92391 0.9177 0.0
O241 O 0.35042 0.91751 0.85669 0.0
O242 O 0.35944 0.91187 0.96152 0.0
C243 C 0.34176 0.90377 0.67695 0.0
O244 O 0.35737 0.92115 0.70203 0.0
C245 C 0.34861 0.88322 0.1145 0.0
C246 C 0.3615 0.86381 0.15332 0.0
C247 C 0.35276 0.87568 0.17493 0.0
N248 N 0.35474 0.87631 0.05953 0.0
N249 N 0.36249 0.86475 0.08289 0.0
C250 C 0.33694 0.89487 0.10851 0.0
H251 H 0.32993 0.8928 0.05573 0.0
H252 H 0.32444 0.88936 0.14872 0.0
H253 H 0.34784 0.91171 0.11757 0.0
C254 C 0.30086 0.85239 0.85172 0.0
N255 N 0.32046 0.86746 0.86749 0.0
N256 N 0.32516 0.86427 0.93087 0.0
C257 C 0.30863 0.84711 0.9579 0.0
C258 C 0.29265 0.83895 0.90857 0.0
C259 C 0.29118 0.84998 0.78107 0.0
H260 H 0.30181 0.84965 0.74071 0.0
H261 H 0.28933 0.86372 0.77029 0.0
H262 H 0.27581 0.83546 0.77679 0.0
O263 O 0.36581 0.88573 0.80241 0.0
O264 O 0.37356 0.87925 0.9081 0.0
H265 H 0.32077 0.83527 0.0359 0.0
H266 H 0.29287 0.82512 0.04283 0.0
C267 C 0.30809 0.83906 0.03019 0.0
H268 H 0.31082 0.85137 0.06861 0.0
H269 H 0.36834 0.85742 0.05084 0.0
O270 O 0.33143 0.88852 0.71801 0.0
C271 C 0.37694 0.88148 0.84245 0.0
Co272 Co 0.45146 0.34233 -0.00178 0.0
Co273 Co 0.47199 0.3536 0.14601 0.0
C274 C 0.43705 0.36164 0.10112 0.0
O275 O 0.4339 0.35258 0.04209 0.0
O276 O 0.45139 0.36334 0.14206 0.0
C277 C 0.44035 0.34504 0.86033 0.0
O278 O 0.44171 0.36224 0.88537 0.0
C279 C 0.46658 0.35056 0.29571 0.0
C280 C 0.49794 0.35948 0.3364 0.0
C281 C 0.47763 0.35324 0.35692 0.0
N282 N 0.47971 0.35515 0.24151 0.0
N283 N 0.49848 0.36055 0.26596 0.0
C284 C 0.44354 0.34198 0.28796 0.0
H285 H 0.43794 0.33317 0.23818 0.0
H286 H 0.43485 0.33157 0.33237 0.0
H287 H 0.44032 0.35513 0.28671 0.0
C288 C 0.44572 0.301 0.03605 0.0
N289 N 0.45147 0.32093 0.05164 0.0
N290 N 0.46044 0.32568 0.11348 0.0
C291 C 0.46081 0.30889 0.13922 0.0
C292 C 0.45149 0.29269 0.09105 0.0
C293 C 0.43717 0.29117 0.96644 0.0
H294 H 0.42315 0.29244 0.95425 0.0
H295 H 0.43302 0.27454 0.96492 0.0
H296 H 0.44904 0.29988 0.92549 0.0
O297 O 0.48058 0.36574 0.98618 0.0
O298 O 0.49652 0.3729 0.08917 0.0
H299 H 0.4872 0.32086 0.20769 0.0
H300 H 0.46897 0.29318 0.21858 0.0
C301 C 0.47044 0.30861 0.20776 0.0
H302 H 0.46257 0.31222 0.25035 0.0
H303 H 0.51156 0.36475 0.23465 0.0
O304 O 0.44231 0.33273 0.90188 0.0
C305 C 0.49683 0.37613 0.02364 0.0
Co306 Co 0.10407 0.44891 0.13475 0.0
Co307 Co 0.11503 0.46645 0.28618 0.0
C308 C 0.07254 0.43005 0.24608 0.0
O309 O 0.0775 0.42948 0.18267 0.0
O310 O 0.08547 0.44367 0.28834 0.0
C311 C 0.09799 0.42692 -0.0046 0.0
O312 O 0.09447 0.40908 0.02219 0.0
C313 C 0.11887 0.46011 0.43413 0.0
C314 C 0.13238 0.49206 0.47683 0.0
C315 C 0.12465 0.47137 0.49602 0.0
N316 N 0.12303 0.47352 0.38097 0.0
N317 N 0.13137 0.49263 0.40666 0.0
C318 C 0.10795 0.43685 0.42576 0.0
H319 H 0.10402 0.43226 0.37031 0.0
H320 H 0.11829 0.43093 0.44375 0.0
H321 H 0.09357 0.42944 0.45827 0.0
C322 C 0.14273 0.44595 0.1559 0.0
N323 N 0.12775 0.44995 0.17825 0.0
N324 N 0.13247 0.45782 0.24182 0.0
C325 C 0.15062 0.45921 0.26171 0.0
C326 C 0.15764 0.45163 0.20815 0.0
C327 C 0.14378 0.43868 0.08382 0.0
H328 H 0.14045 0.44772 0.04479 0.0
H329 H 0.13174 0.42195 0.07869 0.0
H330 H 0.15934 0.44047 0.07279 0.0
O331 O 0.1078 0.47735 0.13222 0.0
O332 O 0.11695 0.49113 0.23806 0.0
H333 H 0.16213 0.48318 0.33999 0.0
H334 H 0.17695 0.46978 0.33293 0.0
C335 C 0.1611 0.46788 0.33047 0.0
H336 H 0.15159 0.45703 0.37272 0.0
H337 H 0.13556 0.50593 0.37659 0.0
O338 O 0.10198 0.44233 0.03462 0.0
C339 C 0.11309 0.49256 0.17408 0.0
Co340 Co 0.6556 0.10856 0.32579 0.0
Co341 Co 0.64397 0.11531 0.47614 0.0
C342 C 0.63951 0.0741 0.42775 0.0
O343 O 0.6468 0.08065 0.36681 0.0
O344 O 0.63763 0.08593 0.47198 0.0
C345 C 0.65732 0.09525 0.18798 0.0
O346 O 0.64264 0.07705 0.21134 0.0
C347 C 0.64978 0.11485 0.62467 0.0
C348 C 0.6343 0.13135 0.6682 0.0
C349 C 0.6451 0.1212 0.68674 0.0
N350 N 0.64199 0.12076 0.57178 0.0
N351 N 0.63272 0.13063 0.59788 0.0
C352 C 0.66297 0.10489 0.61501 0.0
H353 H 0.66974 0.10793 0.56161 0.0
H354 H 0.6757 0.1109 0.65442 0.0
H355 H 0.65316 0.08778 0.62228 0.0
C356 C 0.69605 0.14539 0.36563 0.0
N357 N 0.67631 0.13046 0.38032 0.0
N358 N 0.67139 0.13363 0.44343 0.0
C359 C 0.68789 0.1507 0.47108 0.0
C360 C 0.70406 0.15863 0.42281 0.0
C361 C 0.70677 0.1471 0.29756 0.0
H362 H 0.69952 0.15194 0.25621 0.0
H363 H 0.70456 0.1316 0.28284 0.0
H364 H 0.72373 0.15866 0.3005 0.0
O365 O 0.63098 0.1123 0.31493 0.0
O366 O 0.62288 0.11834 0.42077 0.0
H367 H 0.67258 0.16011 0.54598 0.0
H368 H 0.70069 0.17663 0.54395 0.0
C369 C 0.6876 0.1603 0.53972 0.0
H370 H 0.68902 0.15101 0.58266 0.0
H371 H 0.62538 0.13687 0.5678 0.0
O372 O 0.66598 0.11056 0.22998 0.0
C373 C 0.61965 0.11627 0.35503 0.0
Co374 Co 0.54578 0.65354 0.4948 0.0
Co375 Co 0.52649 0.64448 0.64355 0.0
C376 C 0.56134 0.63613 0.59993 0.0
O377 O 0.56406 0.64456 0.53996 0.0
O378 O 0.54711 0.63465 0.64108 0.0
C379 C 0.56756 0.66957 0.35356 0.0
O380 O 0.58646 0.68225 0.3773 0.0
C381 C 0.53309 0.65344 0.79183 0.0
C382 C 0.50113 0.63559 0.83493 0.0
C383 C 0.52191 0.6482 0.85391 0.0
N384 N 0.51955 0.64441 0.7389 0.0
N385 N 0.50044 0.63392 0.76478 0.0
C386 C 0.55635 0.66552 0.78276 0.0
H387 H 0.56085 0.66409 0.72869 0.0
H388 H 0.56214 0.68231 0.7929 0.0
H389 H 0.56395 0.66003 0.82062 0.0
C390 C 0.55076 0.69533 0.52441 0.0
N391 N 0.54571 0.67579 0.54311 0.0
N392 N 0.53743 0.67187 0.60611 0.0
C393 C 0.53698 0.68886 0.62954 0.0
C394 C 0.54558 0.7043 0.57885 0.0
C395 C 0.55957 0.70483 0.45474 0.0
H396 H 0.54889 0.69477 0.41282 0.0
H397 H 0.57481 0.70554 0.44762 0.0
H398 H 0.56195 0.72084 0.45005 0.0
O399 O 0.51678 0.62977 0.48853 0.0
O400 O 0.50125 0.62409 0.59165 0.0
H401 H 0.51158 0.67443 0.70256 0.0
H402 H 0.52269 0.70237 0.69426 0.0
C403 C 0.52629 0.68948 0.6953 0.0
H404 H 0.53667 0.69196 0.7405 0.0
H405 H 0.48702 0.62517 0.73479 0.0
O406 O 0.55249 0.65927 0.3953 0.0
C407 C 0.50068 0.61986 0.52691 0.0
H408 H 0.4176 0.25344 0.08228 0.0
H409 H 0.48667 0.19744 0.08837 0.0
H410 H 0.48468 0.28654 0.10223 0.0
H411 H 0.41937 0.16347 0.09573 0.0
H412 H 0.48618 0.23034 0.08942 0.0
H413 H 0.41765 0.22022 0.08301 0.0
C414 C 0.4323 0.25362 0.08689 0.0
C415 C 0.45114 0.27257 0.09249 0.0
C416 C 0.47149 0.21573 0.09084 0.0
C417 C 0.45144 0.23493 0.09321 0.0
C418 C 0.4718 0.19702 0.08998 0.0
C419 C 0.45303 0.17792 0.09144 0.0
C420 C 0.45224 0.21528 0.09304 0.0
C421 C 0.43414 0.17801 0.09438 0.0
C422 C 0.43236 0.23474 0.08748 0.0
C423 C 0.46983 0.27215 0.0984 0.0
N424 N 0.43419 0.19645 0.09483 0.0
N425 N 0.46952 0.25363 0.09847 0.0
H426 H 0.16314 0.41802 0.1928 0.0
H427 H 0.28809 0.4869 0.21504 0.0
H428 H 0.19698 0.48496 0.21648 0.0
H429 H 0.25457 0.41972 0.22998 0.0
H430 H 0.2548 0.48638 0.20514 0.0
H431 H 0.19647 0.41808 0.19498 0.0
C432 C 0.17766 0.4327 0.1981 0.0
C433 C 0.17751 0.45148 0.20526 0.0
C434 C 0.25465 0.47172 0.21055 0.0
C435 C 0.21543 0.45178 0.20768 0.0
C436 C 0.27362 0.47204 0.21602 0.0
C437 C 0.2739 0.45332 0.22314 0.0
C438 C 0.23583 0.45251 0.21202 0.0
C439 C 0.25486 0.43446 0.2247 0.0
C440 C 0.1966 0.43276 0.19963 0.0
C441 C 0.19657 0.47016 0.21168 0.0
N442 N 0.23652 0.4345 0.21903 0.0
N443 N 0.21479 0.46984 0.21291 0.0
H444 H 0.73528 0.16823 0.51678 0.0
H445 H 0.80059 0.2878 0.40755 0.0
H446 H 0.71812 0.19328 0.34202 0.0
H447 H 0.83106 0.25583 0.4921 0.0
H448 H 0.76767 0.25448 0.40265 0.0
H449 H 0.76845 0.20157 0.52686 0.0
C450 C 0.73862 0.18079 0.48055 0.0
C451 C 0.72424 0.17818 0.42822 0.0
C452 C 0.78157 0.25478 0.42223 0.0
C453 C 0.76149 0.21611 0.44027 0.0
C454 C 0.80032 0.27371 0.42485 0.0
C455 C 0.81859 0.27439 0.44862 0.0
C456 C 0.781 0.23648 0.44524 0.0
C457 C 0.81729 0.25587 0.47293 0.0
C458 C 0.75743 0.19969 0.48624 0.0
C459 C 0.72901 0.19478 0.38261 0.0
N460 N 0.79876 0.23758 0.47061 0.0
N461 N 0.7472 0.21315 0.39 0.0
H462 H 0.52386 0.71623 0.49448 0.0
H463 H 0.57494 0.83244 0.6388 0.0
H464 H 0.56776 0.73746 0.66524 0.0
H465 H 0.51256 0.79953 0.55367 0.0
H466 H 0.57601 0.79972 0.63621 0.0
H467 H 0.52321 0.74911 0.49999 0.0
C468 C 0.53349 0.72798 0.53261 0.0
C469 C 0.54598 0.72442 0.57919 0.0
C470 C 0.56212 0.79973 0.6181 0.0
C471 C 0.54536 0.76177 0.5859 0.0
C472 C 0.56149 0.81831 0.61969 0.0
C473 C 0.54378 0.81867 0.59527 0.0
C474 C 0.54501 0.78155 0.59103 0.0
C475 C 0.52673 0.79999 0.57113 0.0
C476 C 0.53302 0.74659 0.53611 0.0
C477 C 0.55803 0.73985 0.62835 0.0
N478 N 0.52784 0.78221 0.56888 0.0
N479 N 0.55755 0.75801 0.63022 0.0
H480 H 0.70955 0.51012 0.70921 0.0
H481 H 0.83438 0.58073 0.6876 0.0
H482 H 0.74212 0.57727 0.72517 0.0
H483 H 0.80145 0.51373 0.70934 0.0
H484 H 0.80075 0.58005 0.6903 0.0
H485 H 0.74315 0.51127 0.69916 0.0
C486 C 0.72388 0.52511 0.71038 0.0
C487 C 0.72325 0.54363 0.71782 0.0
C488 C 0.80088 0.5655 0.69442 0.0
C489 C 0.76166 0.54517 0.70654 0.0
C490 C 0.82 0.5659 0.69259 0.0
C491 C 0.82049 0.54728 0.69901 0.0
C492 C 0.78223 0.54629 0.70204 0.0
C493 C 0.80159 0.52842 0.70509 0.0
C494 C 0.74302 0.52579 0.70483 0.0
C495 C 0.74211 0.56268 0.71963 0.0
N496 N 0.78321 0.52839 0.70661 0.0
N497 N 0.76062 0.56298 0.71388 0.0
H498 H 0.25395 0.83369 0.88199 0.0
H499 H 0.19193 0.71629 0.02075 0.0
H500 H 0.28495 0.80016 0.94657 0.0
H501 H 0.16539 0.73928 0.86844 0.0
H502 H 0.22518 0.74949 0.01305 0.0
H503 H 0.2201 0.80127 0.89312 0.0
C504 C 0.25358 0.81948 0.89836 0.0
C505 C 0.27216 0.81954 0.91384 0.0
C506 C 0.21204 0.7473 0.98167 0.0
C507 C 0.23376 0.78276 0.92813 0.0
C508 C 0.19313 0.72851 0.98646 0.0
C509 C 0.1761 0.72534 0.94547 0.0
C510 C 0.21372 0.763 0.93621 0.0
C511 C 0.17829 0.74137 0.90103 0.0
C512 C 0.23434 0.80108 0.90491 0.0
C513 C 0.27092 0.80081 0.93534 0.0
N514 N 0.19679 0.75963 0.89771 0.0
N515 N 0.25203 0.78319 0.94238 0.0
H516 H 0.49559 0.12422 0.69846 0.0
H517 H 0.40346 0.08945 0.42746 0.0
H518 H 0.43874 0.12321 0.75923 0.0
H519 H 0.46881 0.12418 0.37014 0.0
H520 H 0.41385 0.09687 0.55135 0.0
H521 H 0.48393 0.11924 0.57754 0.0
C522 C 0.48061 0.12286 0.68675 0.0
C523 C 0.46789 0.1235 0.74001 0.0
C524 C 0.42576 0.10292 0.51109 0.0
C525 C 0.45438 0.11759 0.60139 0.0
C526 C 0.41988 0.09868 0.44072 0.0
C527 C 0.43527 0.10598 0.38843 0.0
C528 C 0.4471 0.1142 0.52846 0.0
C529 C 0.45634 0.11799 0.40842 0.0
C530 C 0.47397 0.11999 0.61765 0.0
C531 C 0.44867 0.12176 0.72113 0.0
N532 N 0.46161 0.1215 0.47672 0.0
N533 N 0.44237 0.11866 0.65327 0.0
H534 H 0.31863 0.45224 0.53654 0.0
H535 H 0.36564 0.45103 0.91189 0.0
H536 H 0.36327 0.43157 0.56986 0.0
H537 H 0.33792 0.48886 0.86325 0.0
H538 H 0.35939 0.4381 0.79147 0.0
H539 H 0.31955 0.45944 0.66169 0.0
C540 C 0.32834 0.44885 0.5703 0.0
C541 C 0.34107 0.44149 0.54263 0.0
C542 C 0.35455 0.44912 0.80728 0.0
C543 C 0.34226 0.44982 0.68557 0.0
C544 C 0.35798 0.45639 0.87601 0.0
C545 C 0.35205 0.47083 0.89748 0.0
C546 C 0.34504 0.45629 0.75983 0.0
C547 C 0.34272 0.47773 0.84853 0.0
C548 C 0.32897 0.45313 0.6416 0.0
C549 C 0.35335 0.43742 0.58889 0.0
N550 N 0.33942 0.47033 0.78192 0.0
N551 N 0.35374 0.44176 0.65808 0.0
H552 H 0.888 0.298 0.76206 0.0
H553 H 0.88966 0.37631 0.05542 0.0
H554 H 0.90725 0.3629 0.72783 0.0
H555 H 0.86719 0.31105 0.09539 0.0
H556 H 0.89827 0.37169 0.9362 0.0
H557 H 0.88321 0.30258 0.88693 0.0
C558 C 0.89152 0.31323 0.78101 0.0
C559 C 0.89781 0.33004 0.7347 0.0
C560 C 0.8916 0.35835 0.97103 0.0
C561 C 0.89226 0.33534 0.8761 0.0
C562 C 0.88658 0.36099 0.03893 0.0
C563 C 0.87806 0.34413 0.08542 0.0
C564 C 0.88785 0.33861 0.94908 0.0
C565 C 0.87437 0.3246 0.06171 0.0
C566 C 0.88866 0.31581 0.85196 0.0
C567 C 0.90209 0.34944 0.76161 0.0
N568 N 0.87926 0.32233 -0.00507 0.0
N569 N 0.89913 0.35151 0.83029 0.0
H570 H 0.54319 0.90859 0.87762 0.0
H571 H 0.55366 0.86554 0.24917 0.0
H572 H 0.58541 0.88512 0.91372 0.0
H573 H 0.51235 0.88955 0.20494 0.0
H574 H 0.56753 0.87453 0.12994 0.0
H575 H 0.53435 0.90443 0.00094 0.0
C576 C 0.55075 0.9027 0.91191 0.0
C577 C 0.56489 0.89698 0.88552 0.0
C578 C 0.55558 0.87799 0.14657 0.0
C579 C 0.55457 0.89184 0.02715 0.0
C580 C 0.5478 0.87304 0.21469 0.0
C581 C 0.53218 0.87724 0.23701 0.0
C582 C 0.54754 0.88708 0.10074 0.0
C583 C 0.52442 0.88609 0.18958 0.0
C584 C 0.54567 0.90029 0.98241 0.0
C585 C 0.57443 0.8897 0.93226 0.0
N586 N 0.53221 0.89076 0.12375 0.0
N587 N 0.56889 0.88707 0.00103 0.0
H588 H 0.63475 0.5667 0.06376 0.0
H589 H 0.65933 0.50635 0.35879 0.0
H590 H 0.67677 0.54271 0.03202 0.0
H591 H 0.63244 0.54515 0.40383 0.0
H592 H 0.66543 0.5191 0.23802 0.0
H593 H 0.63401 0.55946 0.18873 0.0
C594 C 0.64407 0.5602 0.08321 0.0
C595 C 0.65569 0.55514 0.03731 0.0
C596 C 0.65842 0.52501 0.27454 0.0
C597 C 0.65461 0.54645 0.17995 0.0
C598 C 0.65481 0.51763 0.3432 0.0
C599 C 0.64562 0.52492 0.39132 0.0
C600 C 0.65238 0.53946 0.25363 0.0
C601 C 0.63999 0.53949 0.36867 0.0
C602 C 0.64361 0.55603 0.15454 0.0
C603 C 0.66753 0.54681 0.06545 0.0
N604 N 0.64334 0.54619 0.30128 0.0
N605 N 0.66644 0.54244 0.13484 0.0
H606 H 0.08963 0.63385 0.22686 0.0
H607 H 0.12931 0.68791 0.59966 0.0
H608 H 0.10719 0.69815 0.26488 0.0
H609 H 0.10911 0.62336 0.55424 0.0
H610 H 0.11987 0.69213 0.48045 0.0
H611 H 0.09454 0.62965 0.34984 0.0
C612 C 0.0944 0.64709 0.26149 0.0
C613 C 0.09821 0.66644 0.23574 0.0
C614 C 0.11735 0.67702 0.49688 0.0
C615 C 0.1042 0.66184 0.37712 0.0
C616 C 0.12258 0.67455 0.56506 0.0
C617 C 0.11962 0.65514 0.58715 0.0
C618 C 0.10924 0.65996 0.45072 0.0
C619 C 0.11167 0.6386 0.53928 0.0
C620 C 0.09723 0.6447 0.33184 0.0
C621 C 0.10409 0.68298 0.28294 0.0
N622 N 0.10673 0.64138 0.47347 0.0
N623 N 0.10717 0.68039 0.3516 0.0
H624 H 0.88853 0.513 0.09104 0.0
H625 H 0.89223 0.5933 0.38048 0.0
H626 H 0.86945 0.55834 0.0482 0.0
H627 H 0.90491 0.54314 0.41925 0.0
H628 H 0.88703 0.58354 0.25588 0.0
H629 H 0.89708 0.52608 0.21027 0.0
C630 C 0.88616 0.52575 0.10682 0.0
C631 C 0.87861 0.53483 0.05939 0.0
C632 C 0.89109 0.57482 0.29184 0.0
C633 C 0.88837 0.54998 0.196 0.0
C634 C 0.89419 0.58046 0.36263 0.0
C635 C 0.8988 0.56888 0.41012 0.0
C636 C 0.89282 0.55763 0.26902 0.0
C637 C 0.90109 0.55233 0.38459 0.0
C638 C 0.89114 0.53331 0.17481 0.0
C639 C 0.87587 0.55135 0.08244 0.0
N640 N 0.89801 0.54719 0.31603 0.0
N641 N 0.88073 0.55842 0.14933 0.0
H642 H 0.35953 0.9329 0.57295 0.0
H643 H 0.33665 0.84752 0.28144 0.0
H644 H 0.31874 0.8668 0.60735 0.0
H645 H 0.36076 0.91263 0.23354 0.0
H646 H 0.33063 0.85431 0.40233 0.0
H647 H 0.36004 0.92601 0.44815 0.0
C648 C 0.35043 0.91699 0.55412 0.0
C649 C 0.33926 0.90039 0.60068 0.0
C650 C 0.337 0.86706 0.36509 0.0
C651 C 0.34009 0.89236 0.45843 0.0
C652 C 0.34056 0.8632 0.29645 0.0
C653 C 0.3489 0.87948 0.24757 0.0
C654 C 0.34226 0.88742 0.38503 0.0
C655 C 0.3538 0.89956 0.26931 0.0
C656 C 0.35076 0.91306 0.48293 0.0
C657 C 0.32767 0.88007 0.57339 0.0
N658 N 0.35053 0.903 0.33662 0.0
N659 N 0.32864 0.87659 0.50415 0.0
H660 H 0.45164 0.36562 0.41377 0.0
H661 H 0.44921 0.31797 0.79091 0.0
H662 H 0.48617 0.33452 0.46457 0.0
H663 H 0.43371 0.36638 0.75607 0.0
H664 H 0.45616 0.31804 0.66591 0.0
H665 H 0.43893 0.36064 0.53433 0.0
C666 C 0.45631 0.35749 0.45017 0.0
C667 C 0.46976 0.35023 0.42929 0.0
C668 C 0.45104 0.32849 0.68564 0.0
C669 C 0.45546 0.34465 0.56702 0.0
C670 C 0.44691 0.32836 0.75686 0.0
C671 C 0.44106 0.34236 0.78404 0.0
C672 C 0.44911 0.34254 0.64127 0.0
C673 C 0.43835 0.35546 0.7374 0.0
C674 C 0.44917 0.35478 0.51896 0.0
C675 C 0.47581 0.34032 0.47885 0.0
N676 N 0.44251 0.35532 0.66827 0.0
N677 N 0.46854 0.33773 0.54551 0.0
H678 H 0.12985 0.44026 0.5556 0.0
H679 H 0.08952 0.45395 0.9283 0.0
H680 H 0.10937 0.48439 0.60105 0.0
H681 H 0.10775 0.40771 0.89006 0.0
H682 H 0.09458 0.46325 0.80543 0.0
H683 H 0.12043 0.42656 0.67475 0.0
C684 C 0.12306 0.44683 0.5902 0.0
C685 C 0.11999 0.46322 0.56811 0.0
C686 C 0.09738 0.45097 0.82339 0.0
C687 C 0.10965 0.44798 0.70455 0.0
C688 C 0.09446 0.44562 0.89366 0.0
C689 C 0.09842 0.43017 0.91935 0.0
C690 C 0.10457 0.44098 0.7781 0.0
C691 C 0.10453 0.41971 0.8721 0.0
C692 C 0.11785 0.43912 0.65837 0.0
C693 C 0.112 0.47176 0.61602 0.0
N694 N 0.10768 0.42549 0.80354 0.0
N695 N 0.10707 0.46402 0.68183 0.0
H696 H 0.64085 0.08505 0.74043 0.0
H697 H 0.67995 0.13282 0.12146 0.0
H698 H 0.65941 0.14859 0.79573 0.0
H699 H 0.64184 0.06661 0.08155 0.0
H700 H 0.6799 0.13948 -0.00349 0.0
H701 H 0.64801 0.07889 0.86018 0.0
C702 C 0.6468 0.09781 0.77752 0.0
C703 C 0.64983 0.11744 0.75825 0.0
C704 C 0.67175 0.1235 0.01512 0.0
C705 C 0.65776 0.11043 0.89515 0.0
C706 C 0.67186 0.11964 0.08636 0.0
C707 C 0.66059 0.09911 0.11209 0.0
C708 C 0.66047 0.10672 0.96927 0.0
C709 C 0.65052 0.08269 0.06404 0.0
C710 C 0.65071 0.09423 0.84591 0.0
C711 C 0.6569 0.13324 0.80881 0.0
N712 N 0.65055 0.08686 -0.00514 0.0
N713 N 0.66068 0.12941 0.87511 0.0
H714 H 0.53587 0.63549 0.29255 0.0
H715 H 0.55499 0.68409 0.90933 0.0
H716 H 0.58871 0.69594 0.24327 0.0
H717 H 0.50681 0.62164 0.96375 0.0
H718 H 0.56824 0.68917 0.02921 0.0
H719 H 0.5259 0.63046 0.17056 0.0
C720 C 0.54545 0.64774 0.25579 0.0
C721 C 0.56306 0.66627 0.27813 0.0
C722 C 0.55488 0.67432 0.01462 0.0
C723 C 0.55156 0.66062 0.13742 0.0
C724 C 0.54741 0.67132 0.94603 0.0
C725 C 0.53002 0.65223 0.92616 0.0
C726 C 0.54475 0.65815 0.06354 0.0
C727 C 0.52026 0.6366 0.97679 0.0
C728 C 0.53974 0.64483 0.18589 0.0
C729 C 0.57502 0.68144 0.228 0.0
N730 N 0.52778 0.63989 0.04297 0.0
N731 N 0.56893 0.67837 0.15971 0.0
H732 H 0.53034 0.12027 0.06971 0.0
H733 H 0.58886 0.12004 0.42277 0.0
H734 H 0.50429 0.11414 0.27638 0.0
H735 H 0.61052 0.11638 0.21629 0.0
H736 H 0.55937 0.12126 0.3697 0.0
H737 H 0.56149 0.12216 0.1223 0.0
C738 C 0.53118 0.1194 0.12605 0.0
C739 C 0.51459 0.11692 0.16856 0.0
C740 C 0.57062 0.12024 0.33603 0.0
C741 C 0.55019 0.11912 0.22908 0.0
C742 C 0.58749 0.11959 0.36633 0.0
C743 C 0.60216 0.11799 0.32405 0.0
C744 C 0.56842 0.11939 0.26288 0.0
C745 C 0.59956 0.11749 0.2511 0.0
C746 C 0.54895 0.12044 0.15605 0.0
C747 C 0.51659 0.1159 0.24136 0.0
N748 N 0.58301 0.11815 0.2229 0.0
N749 N 0.53402 0.11699 0.2692 0.0
H750 H 0.3849 0.50532 0.44476 0.0
H751 H 0.49221 0.61188 0.38783 0.0
H752 H 0.40758 0.5336 0.24238 0.0
H753 H 0.46494 0.58966 0.59172 0.0
H754 H 0.46114 0.58334 0.33426 0.0
H755 H 0.41376 0.53601 0.49987 0.0
C756 C 0.39588 0.51802 0.41182 0.0
C757 C 0.39385 0.51679 0.33864 0.0
C758 C 0.46186 0.58473 0.3907 0.0
C759 C 0.42702 0.55197 0.40171 0.0
C760 C 0.47965 0.60102 0.42148 0.0
C761 C 0.48127 0.60312 0.49457 0.0
C762 C 0.44554 0.57022 0.43311 0.0
C763 C 0.46438 0.58863 0.53522 0.0
C764 C 0.41234 0.53556 0.44346 0.0
C765 C 0.40852 0.5338 0.29889 0.0
N766 N 0.44727 0.57269 0.50394 0.0
N767 N 0.42455 0.5506 0.33091 0.0
H768 H 0.88574 0.39083 0.61644 0.0
H769 H 0.88682 0.49679 0.52679 0.0
H770 H 0.88086 0.40904 0.40585 0.0
H771 H 0.88001 0.47246 0.73638 0.0
H772 H 0.88544 0.46527 0.4815 0.0
H773 H 0.88447 0.42105 0.66091 0.0
C774 C 0.88438 0.40118 0.57939 0.0
C775 C 0.88351 0.3974 0.5071 0.0
C776 C 0.88416 0.46677 0.53735 0.0
C777 C 0.88208 0.4322 0.55812 0.0
C778 C 0.885 0.48481 0.56341 0.0
C779 C 0.88362 0.48736 0.6357 0.0
C780 C 0.88209 0.45117 0.58382 0.0
C781 C 0.88116 0.47121 0.68035 0.0
C782 C 0.88359 0.41843 0.605 0.0
C783 C 0.8816 0.41133 0.46191 0.0
N784 N 0.8806 0.45387 0.6537 0.0
N785 N 0.88108 0.42819 0.48817 0.0
H786 H 0.40685 0.87641 0.91044 0.0
H787 H 0.46758 0.87817 0.56019 0.0
H788 H 0.38681 0.88236 0.70382 0.0
H789 H 0.49169 0.88247 0.76898 0.0
H790 H 0.43608 0.87623 0.61067 0.0
H791 H 0.4363 0.87501 0.85813 0.0
C792 C 0.40856 0.87733 0.8541 0.0
C793 C 0.39437 0.87963 0.81161 0.0
C794 C 0.44829 0.87755 0.64526 0.0
C795 C 0.42811 0.87805 0.75123 0.0
C796 C 0.46624 0.87862 0.61648 0.0
C797 C 0.48239 0.88062 0.66028 0.0
C798 C 0.44645 0.87834 0.71828 0.0
C799 C 0.47977 0.8811 0.73295 0.0
C800 C 0.42542 0.87657 0.82421 0.0
C801 C 0.39741 0.8807 0.73877 0.0
N802 N 0.46221 0.87999 0.75952 0.0
N803 N 0.41396 0.87995 0.71093 0.0
H804 H 0.50462 0.38376 0.88375 0.0
H805 H 0.61254 0.48992 0.93813 0.0
H806 H 0.53303 0.40612 0.08617 0.0
H807 H 0.58892 0.46237 0.73549 0.0
H808 H 0.58386 0.45917 0.99323 0.0
H809 H 0.53557 0.41216 0.82868 0.0
C810 C 0.5174 0.39458 0.91672 0.0
C811 C 0.51614 0.39259 0.98987 0.0
C812 C 0.58501 0.45978 0.93674 0.0
C813 C 0.55168 0.42529 0.9268 0.0
C814 C 0.60138 0.47737 0.90512 0.0
C815 C 0.6031 0.47882 0.83191 0.0
C816 C 0.57009 0.44353 0.89498 0.0
C817 C 0.58821 0.46197 0.79204 0.0
C818 C 0.53511 0.41079 0.8851 0.0
C819 C 0.53328 0.40705 0.02966 0.0
N820 N 0.57225 0.44511 0.82409 0.0
N821 N 0.55027 0.42288 -0.00237 0.0
H822 H 0.11849 0.52689 0.24791 0.0
H823 H 0.11813 0.58979 0.90664 0.0
H824 H 0.11138 0.5028 0.03779 0.0
H825 H 0.11227 0.60735 0.11726 0.0
H826 H 0.1195 0.55965 0.95366 0.0
H827 H 0.12003 0.55843 0.20065 0.0
C828 C 0.11733 0.52824 0.19191 0.0
C829 C 0.11468 0.51209 0.14688 0.0
C830 C 0.11795 0.57015 0.98949 0.0
C831 C 0.11651 0.54816 0.09242 0.0
C832 C 0.11722 0.58738 0.96268 0.0
C833 C 0.11496 0.60107 0.00795 0.0
C834 C 0.11657 0.56668 0.0621 0.0
C835 C 0.11387 0.59715 0.08022 0.0
C836 C 0.11817 0.54623 0.16496 0.0
C837 C 0.11329 0.51475 0.07465 0.0
N838 N 0.11469 0.58035 0.10497 0.0
N839 N 0.11421 0.53241 0.04974 0.0
H840 H 0.40788 0.03925 0.15062 0.0
H841 H 0.36514 0.95728 0.83397 0.0
H842 H 0.42479 0.0573 0.93519 0.0
H843 H 0.36823 0.94083 0.0484 0.0
H844 H 0.38058 0.99399 0.86993 0.0
H845 H 0.38646 0.00289 0.11306 0.0
C846 C 0.40693 0.03562 0.09539 0.0
C847 C 0.41835 0.05131 0.0461 0.0
C848 C 0.37764 0.98223 0.90902 0.0
C849 C 0.39383 0.00977 0.00282 0.0
C850 C 0.36877 0.96129 0.88863 0.0
C851 C 0.36539 0.9459 0.93824 0.0
C852 C 0.38286 0.9877 0.97954 0.0
C853 C 0.37049 0.95206 0.00832 0.0
C854 C 0.39476 0.01486 0.07402 0.0
C855 C 0.41646 0.04566 0.97512 0.0
N856 N 0.37897 0.97243 0.0268 0.0
N857 N 0.40451 0.02534 0.9556 0.0
H858 H 0.45053 0.39692 0.17781 0.0
H859 H 0.34705 0.39584 0.25607 0.0
H860 H 0.39595 0.34903 0.07163 0.0
H861 H 0.39807 0.45033 0.15994 0.0
H862 H 0.36421 0.37562 0.22373 0.0
H863 H 0.43086 0.41434 0.20929 0.0
C864 C 0.43434 0.38997 0.16172 0.0
C865 C 0.42483 0.37159 0.12175 0.0
C866 C 0.37145 0.39199 0.20977 0.0
C867 C 0.40231 0.39113 0.15913 0.0
C868 C 0.36182 0.4035 0.2284 0.0
C869 C 0.3712 0.42472 0.21044 0.0
C870 C 0.39081 0.40207 0.17535 0.0
C871 C 0.3903 0.43398 0.17436 0.0
C872 C 0.42323 0.39993 0.17955 0.0
C873 C 0.40384 0.36328 0.10201 0.0
N874 N 0.39965 0.42267 0.15891 0.0
N875 N 0.39312 0.37306 0.12144 0.0
H876 H 0.05878 0.42192 0.38132 0.0
H877 H 0.93881 0.3611 0.27498 0.0
H878 H 0.03749 0.40485 0.16852 0.0
H879 H 0.95988 0.36708 0.48868 0.0
H880 H 0.97476 0.3755 0.23523 0.0
H881 H 0.02286 0.40051 0.42192 0.0
C882 C 0.04657 0.41354 0.34308 0.0
C883 C 0.05114 0.41538 0.27124 0.0
C884 C 0.97154 0.37347 0.2908 0.0
C885 C 0.00988 0.3909 0.31758 0.0
C886 C 0.95099 0.36527 0.31362 0.0
C887 C 0.94633 0.36306 0.38539 0.0
C888 C 0.98767 0.37979 0.34002 0.0
C889 C 0.96276 0.36858 0.4329 0.0
C890 C 0.02605 0.40125 0.36641 0.0
C891 C 0.03469 0.40397 0.22431 0.0
N892 N 0.98275 0.37695 0.40939 0.0
N893 N 0.01475 0.39242 0.24826 0.0
H894 H 0.57315 0.93979 0.42963 0.0
H895 H 0.63039 0.05719 0.55865 0.0
H896 H 0.58955 0.95744 0.64559 0.0
H897 H 0.63157 0.04085 0.34264 0.0
H898 H 0.61569 0.02069 0.59094 0.0
H899 H 0.59468 0.97641 0.39578 0.0
C900 C 0.58142 0.95133 0.46992 0.0
C901 C 0.57937 0.94553 0.54071 0.0
C902 C 0.61938 0.02507 0.53655 0.0
C903 C 0.60388 0.98751 0.5022 0.0
C904 C 0.62778 0.04597 0.51797 0.0
C905 C 0.63222 0.05215 0.44774 0.0
C906 C 0.61496 0.01006 0.48446 0.0
C907 C 0.6284 0.0368 0.39741 0.0
C908 C 0.59376 0.97223 0.45046 0.0
C909 C 0.59059 0.96117 0.59048 0.0
N910 N 0.61973 0.01639 0.41665 0.0
N911 N 0.60214 0.98147 0.57034 0.0
H912 H 0.60226 0.64883 0.56801 0.0
H913 H 0.59816 0.54507 0.65561 0.0
H914 H 0.54856 0.60141 0.67911 0.0
H915 H 0.64918 0.59976 0.75093 0.0
H916 H 0.58124 0.5655 0.62797 0.0
H917 H 0.62182 0.63112 0.60149 0.0
C918 C 0.59465 0.63477 0.59945 0.0
C919 C 0.57382 0.62652 0.62098 0.0
C920 C 0.5962 0.57297 0.65461 0.0
C921 C 0.59572 0.60626 0.65743 0.0
C922 C 0.60587 0.56143 0.67016 0.0
C923 C 0.62503 0.57079 0.70578 0.0
C924 C 0.60605 0.59413 0.67284 0.0
C925 C 0.63433 0.59201 0.72382 0.0
C926 C 0.6058 0.62483 0.61869 0.0
C927 C 0.56463 0.60831 0.66181 0.0
N928 N 0.62483 0.60314 0.70644 0.0
N929 N 0.57553 0.59856 0.67773 0.0
H930 H 0.03756 0.63105 0.9889 0.0
H931 H 0.96079 0.59411 0.65777 0.0
H932 H 0.05835 0.63514 0.77542 0.0
H933 H 0.93981 0.57707 0.87088 0.0
H934 H 0.99673 0.61502 0.70045 0.0
H935 H 0.00172 0.61698 0.94644 0.0
C936 C 0.03464 0.62921 0.93313 0.0
C937 C 0.05095 0.63405 0.88574 0.0
C938 C 0.98421 0.60682 0.73782 0.0
C939 C 0.01003 0.61801 0.83688 0.0
C940 C 0.96369 0.59496 0.71352 0.0
C941 C 0.9473 0.58362 0.76072 0.0
C942 C 0.98832 0.60747 0.80982 0.0
C943 C 0.95199 0.58533 0.83247 0.0
C944 C 0.01418 0.62112 0.90895 0.0
C945 C 0.04623 0.63138 0.81397 0.0
N946 N 0.97206 0.59692 0.85476 0.0
N947 N 0.02621 0.62345 0.79179 0.0
loop_
_geom_bond_atom_site_label_1
_geom_bond_atom_site_label_2
_geom_bond_distance
_geom_bond_site_symmetry_2
_ccdc_geom_bond_type
Co0 O3 1.970 . S
Co0 N17 1.989 . S
Co0 O25 1.967 . S
Co0 O32 1.920 . S
Co1 O4 1.966 . S
Co1 N10 2.022 1_554 S
Co1 N18 1.993 . S
Co1 O26 1.941 . S
C2 O3 1.258 . S
C2 O4 1.263 . S
O3 Co0 1.970 . S
O3 C2 1.258 . S
O4 Co1 1.966 . S
O4 C2 1.263 . S
C5 O6 1.235 . S
C5 O32 1.289 . S
O6 C5 1.235 . S
C7 C9 1.400 . S
C7 N10 1.351 . S
C7 C12 1.501 . S
C8 C9 1.387 . S
C8 N11 1.341 . S
C9 C7 1.400 . S
C9 C8 1.387 . S
N10 Co1 2.022 1_556 S
N10 C7 1.351 . S
N10 N11 1.365 . S
N11 C8 1.341 . S
N11 N10 1.365 . S
N11 H31 0.862 . S
C12 C7 1.501 . S
C12 H13 0.961 . S
C12 H14 0.961 . S
C12 H15 0.960 . S
H13 C12 0.961 . S
H14 C12 0.961 . S
H15 C12 0.960 . S
C16 N17 1.342 . S
C16 C20 1.401 . S
C16 C21 1.499 . S
N17 Co0 1.989 . S
N17 C16 1.342 . S
N17 N18 1.388 . S
N18 Co1 1.993 . S
N18 N17 1.388 . S
N18 C19 1.346 . S
C19 N18 1.346 . S
C19 C20 1.396 . S
C19 C29 1.510 1_554 S
C20 C16 1.401 . S
C20 C19 1.396 . S
C21 C16 1.499 . S
C21 H22 0.959 . S
C21 H23 0.960 . S
C21 H24 0.961 . S
H22 C21 0.959 . S
H23 C21 0.960 . S
H24 C21 0.961 . S
O25 Co0 1.967 . S
O25 C33 1.258 . S
O26 Co1 1.941 . S
O26 C33 1.266 . S
H27 C29 0.959 . S
H28 C29 0.961 . S
C29 C19 1.510 1_556 S
C29 H27 0.959 . S
C29 H28 0.961 . S
C29 H30 0.960 . S
H30 C29 0.960 . S
H31 N11 0.862 . S
O32 Co0 1.920 . S
O32 C5 1.289 . S
C33 O25 1.258 . S
C33 O26 1.266 . S
Co34 O37 1.970 . S
Co34 N51 1.989 . S
Co34 O59 1.967 . S
Co34 O66 1.920 . S
Co35 O38 1.966 . S
Co35 N44 2.022 . S
Co35 N52 1.993 . S
Co35 O60 1.941 . S
C36 O37 1.258 . S
C36 O38 1.263 . S
O37 Co34 1.970 . S
O37 C36 1.258 . S
O38 Co35 1.966 . S
O38 C36 1.263 . S
C39 O40 1.235 . S
C39 O66 1.289 . S
O40 C39 1.235 . S
C41 C43 1.400 1_554 S
C41 N44 1.351 . S
C41 C46 1.501 . S
C42 C43 1.387 . S
C42 N45 1.341 1_556 S
C43 C41 1.400 1_556 S
C43 C42 1.387 . S
N44 Co35 2.022 . S
N44 C41 1.351 . S
N44 N45 1.365 . S
N45 C42 1.341 1_554 S
N45 N44 1.365 . S
N45 H65 0.862 . S
C46 C41 1.501 . S
C46 H47 0.961 . S
C46 H48 0.961 . S
C46 H49 0.960 . S
H47 C46 0.961 . S
H48 C46 0.961 . S
H49 C46 0.960 . S
C50 N51 1.342 . S
C50 C54 1.401 . S
C50 C55 1.499 . S
N51 Co34 1.989 . S
N51 C50 1.342 . S
N51 N52 1.388 . S
N52 Co35 1.993 . S
N52 N51 1.388 . S
N52 C53 1.346 . S
C53 N52 1.346 . S
C53 C54 1.396 . S
C53 C63 1.510 . S
C54 C50 1.401 . S
C54 C53 1.396 . S
C55 C50 1.499 . S
C55 H56 0.959 . S
C55 H57 0.960 . S
C55 H58 0.961 . S
H56 C55 0.959 . S
H57 C55 0.960 . S
H58 C55 0.961 . S
O59 Co34 1.967 . S
O59 C67 1.258 . S
O60 Co35 1.941 . S
O60 C67 1.266 . S
H61 C63 0.959 . S
H62 C63 0.961 . S
C63 C53 1.510 . S
C63 H61 0.959 . S
C63 H62 0.961 . S
C63 H64 0.960 . S
H64 C63 0.960 . S
H65 N45 0.862 . S
O66 Co34 1.920 . S
O66 C39 1.289 . S
C67 O59 1.258 . S
C67 O60 1.266 . S
Co68 O71 1.970 . S
Co68 N85 1.989 . S
Co68 O93 1.967 . S
Co68 O100 1.920 . S
Co69 O72 1.966 . S
Co69 N78 2.022 . S
Co69 N86 1.993 . S
Co69 O94 1.941 . S
C70 O71 1.258 . S
C70 O72 1.263 . S
O71 Co68 1.970 . S
O71 C70 1.258 . S
O72 Co69 1.966 . S
O72 C70 1.263 . S
C73 O74 1.235 . S
C73 O100 1.289 . S
O74 C73 1.235 . S
C75 C77 1.400 . S
C75 N78 1.351 . S
C75 C80 1.501 . S
C76 C77 1.387 . S
C76 N79 1.341 . S
C77 C75 1.400 . S
C77 C76 1.387 . S
N78 Co69 2.022 . S
N78 C75 1.351 . S
N78 N79 1.365 . S
N79 C76 1.341 . S
N79 N78 1.365 . S
N79 H99 0.862 . S
C80 C75 1.501 . S
C80 H81 0.961 . S
C80 H82 0.961 . S
C80 H83 0.960 . S
H81 C80 0.961 . S
H82 C80 0.961 . S
H83 C80 0.960 . S
C84 N85 1.342 . S
C84 C88 1.401 . S
C84 C89 1.499 . S
N85 Co68 1.989 . S
N85 C84 1.342 . S
N85 N86 1.388 . S
N86 Co69 1.993 . S
N86 N85 1.388 . S
N86 C87 1.346 . S
C87 N86 1.346 . S
C87 C88 1.396 . S
C87 C97 1.510 . S
C88 C84 1.401 . S
C88 C87 1.396 . S
C89 C84 1.499 . S
C89 H90 0.959 . S
C89 H91 0.960 . S
C89 H92 0.961 . S
H90 C89 0.959 . S
H91 C89 0.960 . S
H92 C89 0.961 . S
O93 Co68 1.967 . S
O93 C101 1.258 . S
O94 Co69 1.941 . S
O94 C101 1.266 . S
H95 C97 0.959 . S
H96 C97 0.961 . S
C97 C87 1.510 . S
C97 H95 0.959 . S
C97 H96 0.961 . S
C97 H98 0.960 . S
H98 C97 0.960 . S
H99 N79 0.862 . S
O100 Co68 1.920 . S
O100 C73 1.289 . S
C101 O93 1.258 . S
C101 O94 1.266 . S
Co102 O105 1.970 . S
Co102 N119 1.989 . S
Co102 O127 1.967 . S
Co102 O134 1.920 . S
Co103 O106 1.966 . S
Co103 N112 2.022 . S
Co103 N120 1.993 . S
Co103 O128 1.941 . S
C104 O105 1.258 . S
C104 O106 1.263 . S
O105 Co102 1.970 . S
O105 C104 1.258 . S
O106 Co103 1.966 . S
O106 C104 1.263 . S
C107 O108 1.235 . S
C107 O134 1.289 . S
O108 C107 1.235 . S
C109 C111 1.400 . S
C109 N112 1.351 . S
C109 C114 1.501 . S
C110 C111 1.387 . S
C110 N113 1.341 . S
C111 C109 1.400 . S
C111 C110 1.387 . S
N112 Co103 2.022 . S
N112 C109 1.351 . S
N112 N113 1.365 . S
N113 C110 1.341 . S
N113 N112 1.365 . S
N113 H133 0.862 . S
C114 C109 1.501 . S
C114 H115 0.961 . S
C114 H116 0.961 . S
C114 H117 0.960 . S
H115 C114 0.961 . S
H116 C114 0.961 . S
H117 C114 0.960 . S
C118 N119 1.342 . S
C118 C122 1.401 . S
C118 C123 1.499 . S
N119 Co102 1.989 . S
N119 C118 1.342 . S
N119 N120 1.388 . S
N120 Co103 1.993 . S
N120 N119 1.388 . S
N120 C121 1.346 . S
C121 N120 1.346 . S
C121 C122 1.396 . S
C121 C131 1.510 . S
C122 C118 1.401 . S
C122 C121 1.396 . S
C123 C118 1.499 . S
C123 H124 0.959 . S
C123 H125 0.960 . S
C123 H126 0.961 . S
H124 C123 0.959 . S
H125 C123 0.960 . S
H126 C123 0.961 . S
O127 Co102 1.967 . S
O127 C135 1.258 . S
O128 Co103 1.941 . S
O128 C135 1.266 . S
H129 C131 0.959 . S
H130 C131 0.961 . S
C131 C121 1.510 . S
C131 H129 0.959 . S
C131 H130 0.961 . S
C131 H132 0.960 . S
H132 C131 0.960 . S
H133 N113 0.862 . S
O134 Co102 1.920 . S
O134 C107 1.289 . S
C135 O127 1.258 . S
C135 O128 1.266 . S
Co136 O139 1.970 . S
Co136 N153 1.989 . S
Co136 O161 1.967 . S
Co136 O168 1.920 . S
Co137 O140 1.966 . S
Co137 N146 2.022 . S
Co137 N154 1.993 . S
Co137 O162 1.941 . S
C138 O139 1.258 . S
C138 O140 1.263 . S
O139 Co136 1.970 . S
O139 C138 1.258 . S
O140 Co137 1.966 . S
O140 C138 1.263 . S
C141 O142 1.235 . S
C141 O168 1.289 . S
O142 C141 1.235 . S
C143 C145 1.400 . S
C143 N146 1.351 . S
C143 C148 1.501 . S
C144 C145 1.387 . S
C144 N147 1.341 . S
C145 C143 1.400 . S
C145 C144 1.387 . S
N146 Co137 2.022 . S
N146 C143 1.351 . S
N146 N147 1.365 . S
N147 C144 1.341 . S
N147 N146 1.365 . S
N147 H167 0.862 . S
C148 C143 1.501 . S
C148 H149 0.961 . S
C148 H150 0.961 . S
C148 H151 0.960 . S
H149 C148 0.961 . S
H150 C148 0.961 . S
H151 C148 0.960 . S
C152 N153 1.342 . S
C152 C156 1.401 . S
C152 C157 1.499 . S
N153 Co136 1.989 . S
N153 C152 1.342 . S
N153 N154 1.388 . S
N154 Co137 1.993 . S
N154 N153 1.388 . S
N154 C155 1.346 . S
C155 N154 1.346 . S
C155 C156 1.396 . S
C155 C165 1.510 . S
C156 C152 1.401 . S
C156 C155 1.396 . S
C157 C152 1.499 . S
C157 H158 0.959 . S
C157 H159 0.960 . S
C157 H160 0.961 . S
H158 C157 0.959 . S
H159 C157 0.960 . S
H160 C157 0.961 . S
O161 Co136 1.967 . S
O161 C169 1.258 . S
O162 Co137 1.941 . S
O162 C169 1.266 . S
H163 C165 0.959 . S
H164 C165 0.961 . S
C165 C155 1.510 . S
C165 H163 0.959 . S
C165 H164 0.961 . S
C165 H166 0.960 . S
H166 C165 0.960 . S
H167 N147 0.862 . S
O168 Co136 1.920 . S
O168 C141 1.289 . S
C169 O161 1.258 . S
C169 O162 1.266 . S
Co170 O173 1.970 1_554 S
Co170 N187 1.989 1_554 S
Co170 O195 1.965 1_554 S
Co170 O202 1.920 . S
Co171 O174 1.966 . S
Co171 N180 2.022 . S
Co171 N188 1.993 . S
Co171 O196 1.941 . S
C172 O173 1.258 . S
C172 O174 1.263 . S
O173 Co170 1.970 1_556 S
O173 C172 1.258 . S
O174 Co171 1.966 . S
O174 C172 1.263 . S
C175 O176 1.235 . S
C175 O202 1.289 . S
O176 C175 1.235 . S
C177 C179 1.400 . S
C177 N180 1.351 . S
C177 C182 1.501 . S
C178 C179 1.387 . S
C178 N181 1.341 . S
C179 C177 1.400 . S
C179 C178 1.387 . S
N180 Co171 2.022 . S
N180 C177 1.351 . S
N180 N181 1.365 . S
N181 C178 1.341 . S
N181 N180 1.365 . S
N181 H201 0.862 . S
C182 C177 1.501 . S
C182 H183 0.961 . S
C182 H184 0.961 . S
C182 H185 0.960 . S
H183 C182 0.961 . S
H184 C182 0.961 . S
H185 C182 0.960 . S
C186 N187 1.342 . S
C186 C190 1.401 . S
C186 C191 1.499 1_556 S
N187 Co170 1.989 1_556 S
N187 C186 1.342 . S
N187 N188 1.388 . S
N188 Co171 1.993 . S
N188 N187 1.388 . S
N188 C189 1.346 . S
C189 N188 1.346 . S
C189 C190 1.396 . S
C189 C199 1.510 . S
C190 C186 1.401 . S
C190 C189 1.396 . S
C191 C186 1.499 1_554 S
C191 H192 0.959 . S
C191 H193 0.960 . S
C191 H194 0.961 . S
H192 C191 0.959 . S
H193 C191 0.960 . S
H194 C191 0.961 . S
O195 Co170 1.965 1_556 S
O195 C203 1.266 . S
O196 Co171 1.941 . S
O196 C203 1.266 . S
H197 C199 0.959 . S
H198 C199 0.961 . S
C199 C189 1.510 . S
C199 H197 0.959 . S
C199 H198 0.961 . S
C199 H200 0.960 . S
H200 C199 0.960 . S
H201 N181 0.862 . S
O202 Co170 1.920 . S
O202 C175 1.289 . S
C203 O195 1.266 . S
C203 O196 1.266 . S
Co204 O207 1.970 . S
Co204 N221 1.989 . S
Co204 O229 1.967 . S
Co204 O236 1.920 . S
Co205 O208 1.966 . S
Co205 N214 2.022 . S
Co205 N222 1.993 . S
Co205 O230 1.941 . S
C206 O207 1.258 . S
C206 O208 1.263 . S
O207 Co204 1.970 . S
O207 C206 1.258 . S
O208 Co205 1.966 . S
O208 C206 1.263 . S
C209 O210 1.235 . S
C209 O236 1.289 . S
O210 C209 1.235 . S
C211 C213 1.400 1_556 S
C211 N214 1.351 . S
C211 C216 1.501 . S
C212 C213 1.387 . S
C212 N215 1.341 1_554 S
C213 C211 1.400 1_554 S
C213 C212 1.387 . S
N214 Co205 2.022 . S
N214 C211 1.351 . S
N214 N215 1.365 . S
N215 C212 1.341 1_556 S
N215 N214 1.365 . S
N215 H235 0.862 . S
C216 C211 1.501 . S
C216 H217 0.961 . S
C216 H218 0.961 . S
C216 H219 0.960 . S
H217 C216 0.961 . S
H218 C216 0.961 . S
H219 C216 0.960 . S
C220 N221 1.342 . S
C220 C224 1.401 . S
C220 C225 1.499 . S
N221 Co204 1.989 . S
N221 C220 1.342 . S
N221 N222 1.388 . S
N222 Co205 1.993 . S
N222 N221 1.388 . S
N222 C223 1.346 . S
C223 N222 1.346 . S
C223 C224 1.396 . S
C223 C233 1.510 . S
C224 C220 1.401 . S
C224 C223 1.396 . S
C225 C220 1.499 . S
C225 H226 0.959 . S
C225 H227 0.960 . S
C225 H228 0.961 . S
H226 C225 0.959 . S
H227 C225 0.960 . S
H228 C225 0.961 . S
O229 Co204 1.967 . S
O229 C237 1.258 . S
O230 Co205 1.941 . S
O230 C237 1.266 . S
H231 C233 0.959 . S
H232 C233 0.961 . S
C233 C223 1.510 . S
C233 H231 0.959 . S
C233 H232 0.961 . S
C233 H234 0.960 . S
H234 C233 0.960 . S
H235 N215 0.862 . S
O236 Co204 1.920 . S
O236 C209 1.289 . S
C237 O229 1.258 . S
C237 O230 1.266 . S
Co238 O241 1.970 . S
Co238 N255 1.989 . S
Co238 O263 1.967 . S
Co238 O270 1.920 . S
Co239 O242 1.966 . S
Co239 N248 2.022 1_556 S
Co239 N256 1.993 . S
Co239 O264 1.941 . S
C240 O241 1.258 . S
C240 O242 1.263 . S
O241 Co238 1.970 . S
O241 C240 1.258 . S
O242 Co239 1.966 . S
O242 C240 1.263 . S
C243 O244 1.235 . S
C243 O270 1.289 . S
O244 C243 1.235 . S
C245 C247 1.400 . S
C245 N248 1.351 . S
C245 C250 1.501 . S
C246 C247 1.387 . S
C246 N249 1.341 . S
C247 C245 1.400 . S
C247 C246 1.387 . S
N248 Co239 2.022 1_554 S
N248 C245 1.351 . S
N248 N249 1.365 . S
N249 C246 1.341 . S
N249 N248 1.365 . S
N249 H269 0.862 . S
C250 C245 1.501 . S
C250 H251 0.961 . S
C250 H252 0.961 . S
C250 H253 0.960 . S
H251 C250 0.961 . S
H252 C250 0.961 . S
H253 C250 0.960 . S
C254 N255 1.342 . S
C254 C258 1.401 . S
C254 C259 1.499 . S
N255 Co238 1.989 . S
N255 C254 1.342 . S
N255 N256 1.388 . S
N256 Co239 1.993 . S
N256 N255 1.388 . S
N256 C257 1.346 . S
C257 N256 1.346 . S
C257 C258 1.396 . S
C257 C267 1.510 1_556 S
C258 C254 1.401 . S
C258 C257 1.396 . S
C259 C254 1.499 . S
C259 H260 0.959 . S
C259 H261 0.960 . S
C259 H262 0.961 . S
H260 C259 0.959 . S
H261 C259 0.960 . S
H262 C259 0.961 . S
O263 Co238 1.967 . S
O263 C271 1.258 . S
O264 Co239 1.941 . S
O264 C271 1.266 . S
H265 C267 0.959 . S
H266 C267 0.961 . S
C267 C257 1.510 1_554 S
C267 H265 0.959 . S
C267 H266 0.961 . S
C267 H268 0.960 . S
H268 C267 0.960 . S
H269 N249 0.862 . S
O270 Co238 1.920 . S
O270 C243 1.289 . S
C271 O263 1.258 . S
C271 O264 1.266 . S
Co272 O275 1.970 1_556 S
Co272 N289 1.989 1_556 S
Co272 O297 1.965 1_556 S
Co272 O304 1.920 . S
Co273 O276 1.966 . S
Co273 N282 2.022 . S
Co273 N290 1.993 . S
Co273 O298 1.941 . S
C274 O275 1.258 . S
C274 O276 1.263 . S
O275 Co272 1.970 1_554 S
O275 C274 1.258 . S
O276 Co273 1.966 . S
O276 C274 1.263 . S
C277 O278 1.235 . S
C277 O304 1.289 . S
O278 C277 1.235 . S
C279 C281 1.400 . S
C279 N282 1.351 . S
C279 C284 1.501 . S
C280 C281 1.387 . S
C280 N283 1.341 . S
C281 C279 1.400 . S
C281 C280 1.387 . S
N282 Co273 2.022 . S
N282 C279 1.351 . S
N282 N283 1.365 . S
N283 C280 1.341 . S
N283 N282 1.365 . S
N283 H303 0.862 . S
C284 C279 1.501 . S
C284 H285 0.961 . S
C284 H286 0.961 . S
C284 H287 0.960 . S
H285 C284 0.961 . S
H286 C284 0.961 . S
H287 C284 0.960 . S
C288 N289 1.342 . S
C288 C292 1.401 . S
C288 C293 1.499 1_554 S
N289 Co272 1.989 1_554 S
N289 C288 1.342 . S
N289 N290 1.388 . S
N290 Co273 1.993 . S
N290 N289 1.388 . S
N290 C291 1.346 . S
C291 N290 1.346 . S
C291 C292 1.396 . S
C291 C301 1.510 . S
C292 C288 1.401 . S
C292 C291 1.396 . S
C293 C288 1.499 1_556 S
C293 H294 0.959 . S
C293 H295 0.960 . S
C293 H296 0.961 . S
H294 C293 0.959 . S
H295 C293 0.960 . S
H296 C293 0.961 . S
O297 Co272 1.965 1_554 S
O297 C305 1.267 . S
O298 Co273 1.941 . S
O298 C305 1.266 . S
H299 C301 0.959 . S
H300 C301 0.961 . S
C301 C291 1.510 . S
C301 H299 0.959 . S
C301 H300 0.961 . S
C301 H302 0.960 . S
H302 C301 0.960 . S
H303 N283 0.862 . S
O304 Co272 1.920 . S
O304 C277 1.289 . S
C305 O297 1.267 . S
C305 O298 1.266 . S
Co306 O309 1.970 . S
Co306 N323 1.989 . S
Co306 O331 1.967 . S
Co306 O338 1.920 . S
Co307 O310 1.966 . S
Co307 N316 2.022 . S
Co307 N324 1.993 . S
Co307 O332 1.941 . S
C308 O309 1.258 . S
C308 O310 1.263 . S
O309 Co306 1.970 . S
O309 C308 1.258 . S
O310 Co307 1.966 . S
O310 C308 1.263 . S
C311 O312 1.235 . S
C311 O338 1.289 . S
O312 C311 1.235 . S
C313 C315 1.400 . S
C313 N316 1.351 . S
C313 C318 1.501 . S
C314 C315 1.387 . S
C314 N317 1.341 . S
C315 C313 1.400 . S
C315 C314 1.387 . S
N316 Co307 2.022 . S
N316 C313 1.351 . S
N316 N317 1.365 . S
N317 C314 1.341 . S
N317 N316 1.365 . S
N317 H337 0.862 . S
C318 C313 1.501 . S
C318 H319 0.961 . S
C318 H320 0.961 . S
C318 H321 0.960 . S
H319 C318 0.961 . S
H320 C318 0.961 . S
H321 C318 0.960 . S
C322 N323 1.342 . S
C322 C326 1.401 . S
C322 C327 1.499 . S
N323 Co306 1.989 . S
N323 C322 1.342 . S
N323 N324 1.388 . S
N324 Co307 1.993 . S
N324 N323 1.388 . S
N324 C325 1.346 . S
C325 N324 1.346 . S
C325 C326 1.396 . S
C325 C335 1.510 . S
C326 C322 1.401 . S
C326 C325 1.396 . S
C327 C322 1.499 . S
C327 H328 0.959 . S
C327 H329 0.960 . S
C327 H330 0.961 . S
H328 C327 0.959 . S
H329 C327 0.960 . S
H330 C327 0.961 . S
O331 Co306 1.967 . S
O331 C339 1.258 . S
O332 Co307 1.941 . S
O332 C339 1.266 . S
H333 C335 0.959 . S
H334 C335 0.961 . S
C335 C325 1.510 . S
C335 H333 0.959 . S
C335 H334 0.961 . S
C335 H336 0.960 . S
H336 C335 0.960 . S
H337 N317 0.862 . S
O338 Co306 1.920 . S
O338 C311 1.289 . S
C339 O331 1.258 . S
C339 O332 1.266 . S
Co340 O343 1.970 . S
Co340 N357 1.989 . S
Co340 O365 1.967 . S
Co340 O372 1.920 . S
Co341 O344 1.966 . S
Co341 N350 2.022 . S
Co341 N358 1.993 . S
Co341 O366 1.941 . S
C342 O343 1.258 . S
C342 O344 1.263 . S
O343 Co340 1.970 . S
O343 C342 1.258 . S
O344 Co341 1.966 . S
O344 C342 1.263 . S
C345 O346 1.235 . S
C345 O372 1.289 . S
O346 C345 1.235 . S
C347 C349 1.400 . S
C347 N350 1.351 . S
C347 C352 1.501 . S
C348 C349 1.387 . S
C348 N351 1.341 . S
C349 C347 1.400 . S
C349 C348 1.387 . S
N350 Co341 2.022 . S
N350 C347 1.351 . S
N350 N351 1.365 . S
N351 C348 1.341 . S
N351 N350 1.365 . S
N351 H371 0.862 . S
C352 C347 1.501 . S
C352 H353 0.961 . S
C352 H354 0.961 . S
C352 H355 0.960 . S
H353 C352 0.961 . S
H354 C352 0.961 . S
H355 C352 0.960 . S
C356 N357 1.342 . S
C356 C360 1.401 . S
C356 C361 1.499 . S
N357 Co340 1.989 . S
N357 C356 1.342 . S
N357 N358 1.388 . S
N358 Co341 1.993 . S
N358 N357 1.388 . S
N358 C359 1.346 . S
C359 N358 1.346 . S
C359 C360 1.396 . S
C359 C369 1.510 . S
C360 C356 1.401 . S
C360 C359 1.396 . S
C361 C356 1.499 . S
C361 H362 0.959 . S
C361 H363 0.960 . S
C361 H364 0.961 . S
H362 C361 0.959 . S
H363 C361 0.960 . S
H364 C361 0.961 . S
O365 Co340 1.967 . S
O365 C373 1.258 . S
O366 Co341 1.941 . S
O366 C373 1.266 . S
H367 C369 0.959 . S
H368 C369 0.961 . S
C369 C359 1.510 . S
C369 H367 0.959 . S
C369 H368 0.961 . S
C369 H370 0.960 . S
H370 C369 0.960 . S
H371 N351 0.862 . S
O372 Co340 1.920 . S
O372 C345 1.289 . S
C373 O365 1.258 . S
C373 O366 1.266 . S
Co374 O377 1.970 . S
Co374 N391 1.989 . S
Co374 O399 1.967 . S
Co374 O406 1.920 . S
Co375 O378 1.966 . S
Co375 N384 2.022 . S
Co375 N392 1.993 . S
Co375 O400 1.941 . S
C376 O377 1.258 . S
C376 O378 1.263 . S
O377 Co374 1.970 . S
O377 C376 1.258 . S
O378 Co375 1.966 . S
O378 C376 1.263 . S
C379 O380 1.235 . S
C379 O406 1.289 . S
O380 C379 1.235 . S
C381 C383 1.400 . S
C381 N384 1.351 . S
C381 C386 1.501 . S
C382 C383 1.387 . S
C382 N385 1.341 . S
C383 C381 1.400 . S
C383 C382 1.387 . S
N384 Co375 2.022 . S
N384 C381 1.351 . S
N384 N385 1.365 . S
N385 C382 1.341 . S
N385 N384 1.365 . S
N385 H405 0.862 . S
C386 C381 1.501 . S
C386 H387 0.961 . S
C386 H388 0.961 . S
C386 H389 0.960 . S
H387 C386 0.961 . S
H388 C386 0.961 . S
H389 C386 0.960 . S
C390 N391 1.342 . S
C390 C394 1.401 . S
C390 C395 1.499 . S
N391 Co374 1.989 . S
N391 C390 1.342 . S
N391 N392 1.388 . S
N392 Co375 1.993 . S
N392 N391 1.388 . S
N392 C393 1.346 . S
C393 N392 1.346 . S
C393 C394 1.396 . S
C393 C403 1.510 . S
C394 C390 1.401 . S
C394 C393 1.396 . S
C395 C390 1.499 . S
C395 H396 0.959 . S
C395 H397 0.960 . S
C395 H398 0.961 . S
H396 C395 0.959 . S
H397 C395 0.960 . S
H398 C395 0.961 . S
O399 Co374 1.967 . S
O399 C407 1.258 . S
O400 Co375 1.941 . S
O400 C407 1.266 . S
H401 C403 0.959 . S
H402 C403 0.961 . S
C403 C393 1.510 . S
C403 H401 0.959 . S
C403 H402 0.961 . S
C403 H404 0.960 . S
H404 C403 0.960 . S
H405 N385 0.862 . S
O406 Co374 1.920 . S
O406 C379 1.289 . S
C407 O399 1.258 . S
C407 O400 1.266 . S
H408 C414 0.930 . S
H409 C418 0.930 . S
H410 C423 0.929 . S
H411 C421 0.929 . S
H412 C416 0.929 . S
H413 C422 0.929 . S
C414 H408 0.930 . S
C414 C415 1.367 . S
C414 C422 1.378 . S
C415 C414 1.367 . S
C415 C423 1.433 . S
C416 H412 0.929 . S
C416 C418 1.378 . S
C416 C420 1.350 . S
C417 C420 1.463 . S
C417 C422 1.350 . S
C417 N425 1.427 . S
C418 H409 0.930 . S
C418 C416 1.378 . S
C418 C419 1.367 . S
C419 C418 1.367 . S
C419 C421 1.433 . S
C420 C416 1.350 . S
C420 C417 1.463 . S
C420 N424 1.427 . S
C421 H411 0.929 . S
C421 C419 1.433 . S
C421 N424 1.384 . S
C422 H413 0.929 . S
C422 C414 1.378 . S
C422 C417 1.350 . S
C423 H410 0.929 . S
C423 C415 1.433 . S
C423 N425 1.384 . S
N424 C420 1.427 . S
N424 C421 1.384 . S
N425 C417 1.427 . S
N425 C423 1.384 . S
H426 C432 0.930 . S
H427 C436 0.930 . S
H428 C441 0.929 . S
H429 C439 0.929 . S
H430 C434 0.929 . S
H431 C440 0.929 . S
C432 H426 0.930 . S
C432 C433 1.367 . S
C432 C440 1.378 . S
C433 C432 1.367 . S
C433 C441 1.433 . S
C434 H430 0.929 . S
C434 C436 1.378 . S
C434 C438 1.350 . S
C435 C438 1.463 . S
C435 C440 1.350 . S
C435 N443 1.427 . S
C436 H427 0.930 . S
C436 C434 1.378 . S
C436 C437 1.367 . S
C437 C436 1.367 . S
C437 C439 1.433 . S
C438 C434 1.350 . S
C438 C435 1.463 . S
C438 N442 1.427 . S
C439 H429 0.929 . S
C439 C437 1.433 . S
C439 N442 1.384 . S
C440 H431 0.929 . S
C440 C432 1.378 . S
C440 C435 1.350 . S
C441 H428 0.929 . S
C441 C433 1.433 . S
C441 N443 1.384 . S
N442 C438 1.427 . S
N442 C439 1.384 . S
N443 C435 1.427 . S
N443 C441 1.384 . S
H444 C450 0.930 . S
H445 C454 0.930 . S
H446 C459 0.929 . S
H447 C457 0.929 . S
H448 C452 0.929 . S
H449 C458 0.929 . S
C450 H444 0.930 . S
C450 C451 1.367 . S
C450 C458 1.378 . S
C451 C450 1.367 . S
C451 C459 1.433 . S
C452 H448 0.929 . S
C452 C454 1.378 . S
C452 C456 1.350 . S
C453 C456 1.463 . S
C453 C458 1.350 . S
C453 N461 1.427 . S
C454 H445 0.930 . S
C454 C452 1.378 . S
C454 C455 1.367 . S
C455 C454 1.367 . S
C455 C457 1.433 . S
C456 C452 1.350 . S
C456 C453 1.463 . S
C456 N460 1.427 . S
C457 H447 0.929 . S
C457 C455 1.433 . S
C457 N460 1.384 . S
C458 H449 0.929 . S
C458 C450 1.378 . S
C458 C453 1.350 . S
C459 H446 0.929 . S
C459 C451 1.433 . S
C459 N461 1.384 . S
N460 C456 1.427 . S
N460 C457 1.384 . S
N461 C453 1.427 . S
N461 C459 1.384 . S
H462 C468 0.930 . S
H463 C472 0.930 . S
H464 C477 0.929 . S
H465 C475 0.929 . S
H466 C470 0.929 . S
H467 C476 0.929 . S
C468 H462 0.930 . S
C468 C469 1.367 . S
C468 C476 1.378 . S
C469 C468 1.367 . S
C469 C477 1.433 . S
C470 H466 0.929 . S
C470 C472 1.378 . S
C470 C474 1.350 . S
C471 C474 1.463 . S
C471 C476 1.350 . S
C471 N479 1.427 . S
C472 H463 0.930 . S
C472 C470 1.378 . S
C472 C473 1.367 . S
C473 C472 1.367 . S
C473 C475 1.433 . S
C474 C470 1.350 . S
C474 C471 1.463 . S
C474 N478 1.427 . S
C475 H465 0.929 . S
C475 C473 1.433 . S
C475 N478 1.384 . S
C476 H467 0.929 . S
C476 C468 1.378 . S
C476 C471 1.350 . S
C477 H464 0.929 . S
C477 C469 1.433 . S
C477 N479 1.384 . S
N478 C474 1.427 . S
N478 C475 1.384 . S
N479 C471 1.427 . S
N479 C477 1.384 . S
H480 C486 0.930 . S
H481 C490 0.930 . S
H482 C495 0.929 . S
H483 C493 0.929 . S
H484 C488 0.929 . S
H485 C494 0.929 . S
C486 H480 0.930 . S
C486 C487 1.367 . S
C486 C494 1.378 . S
C487 C486 1.367 . S
C487 C495 1.433 . S
C488 H484 0.929 . S
C488 C490 1.378 . S
C488 C492 1.350 . S
C489 C492 1.463 . S
C489 C494 1.350 . S
C489 N497 1.427 . S
C490 H481 0.930 . S
C490 C488 1.378 . S
C490 C491 1.367 . S
C491 C490 1.367 . S
C491 C493 1.433 . S
C492 C488 1.350 . S
C492 C489 1.463 . S
C492 N496 1.427 . S
C493 H483 0.929 . S
C493 C491 1.433 . S
C493 N496 1.384 . S
C494 H485 0.929 . S
C494 C486 1.378 . S
C494 C489 1.350 . S
C495 H482 0.929 . S
C495 C487 1.433 . S
C495 N497 1.384 . S
N496 C492 1.427 . S
N496 C493 1.384 . S
N497 C489 1.427 . S
N497 C495 1.384 . S
H498 C504 0.930 . S
H499 C508 0.930 . S
H500 C513 0.929 . S
H501 C511 0.929 . S
H502 C506 0.929 . S
H503 C512 0.929 . S
C504 H498 0.930 . S
C504 C505 1.367 . S
C504 C512 1.378 . S
C505 C504 1.367 . S
C505 C513 1.433 . S
C506 H502 0.929 . S
C506 C508 1.378 . S
C506 C510 1.350 . S
C507 C510 1.463 . S
C507 C512 1.350 . S
C507 N515 1.427 . S
C508 H499 0.930 . S
C508 C506 1.378 . S
C508 C509 1.367 . S
C509 C508 1.367 . S
C509 C511 1.433 . S
C510 C506 1.350 . S
C510 C507 1.463 . S
C510 N514 1.427 . S
C511 H501 0.929 . S
C511 C509 1.433 . S
C511 N514 1.384 . S
C512 H503 0.929 . S
C512 C504 1.378 . S
C512 C507 1.350 . S
C513 H500 0.929 . S
C513 C505 1.433 . S
C513 N515 1.384 . S
N514 C510 1.427 . S
N514 C511 1.384 . S
N515 C507 1.427 . S
N515 C513 1.384 . S
H516 C522 0.930 . S
H517 C526 0.930 . S
H518 C531 0.929 . S
H519 C529 0.929 . S
H520 C524 0.929 . S
H521 C530 0.929 . S
C522 H516 0.930 . S
C522 C523 1.367 . S
C522 C530 1.378 . S
C523 C522 1.367 . S
C523 C531 1.433 . S
C524 H520 0.929 . S
C524 C526 1.378 . S
C524 C528 1.350 . S
C525 C528 1.463 . S
C525 C530 1.350 . S
C525 N533 1.427 . S
C526 H517 0.930 . S
C526 C524 1.378 . S
C526 C527 1.367 . S
C527 C526 1.367 . S
C527 C529 1.433 . S
C528 C524 1.350 . S
C528 C525 1.463 . S
C528 N532 1.427 . S
C529 H519 0.929 . S
C529 C527 1.433 . S
C529 N532 1.384 . S
C530 H521 0.929 . S
C530 C522 1.378 . S
C530 C525 1.350 . S
C531 H518 0.929 . S
C531 C523 1.433 . S
C531 N533 1.384 . S
N532 C528 1.427 . S
N532 C529 1.384 . S
N533 C525 1.427 . S
N533 C531 1.384 . S
H534 C540 0.930 . S
H535 C544 0.930 . S
H536 C549 0.929 . S
H537 C547 0.929 . S
H538 C542 0.929 . S
H539 C548 0.929 . S
C540 H534 0.930 . S
C540 C541 1.367 . S
C540 C548 1.378 . S
C541 C540 1.367 . S
C541 C549 1.433 . S
C542 H538 0.929 . S
C542 C544 1.378 . S
C542 C546 1.350 . S
C543 C546 1.463 . S
C543 C548 1.350 . S
C543 N551 1.427 . S
C544 H535 0.930 . S
C544 C542 1.378 . S
C544 C545 1.367 . S
C545 C544 1.367 . S
C545 C547 1.433 . S
C546 C542 1.350 . S
C546 C543 1.463 . S
C546 N550 1.427 . S
C547 H537 0.929 . S
C547 C545 1.433 . S
C547 N550 1.384 . S
C548 H539 0.929 . S
C548 C540 1.378 . S
C548 C543 1.350 . S
C549 H536 0.929 . S
C549 C541 1.433 . S
C549 N551 1.384 . S
N550 C546 1.427 . S
N550 C547 1.384 . S
N551 C543 1.427 . S
N551 C549 1.384 . S
H552 C558 0.930 . S
H553 C562 0.930 . S
H554 C567 0.929 . S
H555 C565 0.929 . S
H556 C560 0.929 . S
H557 C566 0.929 . S
C558 H552 0.930 . S
C558 C559 1.367 . S
C558 C566 1.378 . S
C559 C558 1.367 . S
C559 C567 1.433 . S
C560 H556 0.929 . S
C560 C562 1.378 1_556 S
C560 C564 1.350 . S
C561 C564 1.463 . S
C561 C566 1.350 . S
C561 N569 1.427 . S
C562 H553 0.930 . S
C562 C560 1.378 1_554 S
C562 C563 1.367 . S
C563 C562 1.367 . S
C563 C565 1.433 . S
C564 C560 1.350 . S
C564 C561 1.463 . S
C564 N568 1.427 . S
C565 H555 0.929 . S
C565 C563 1.433 . S
C565 N568 1.384 1_554 S
C566 H557 0.929 . S
C566 C558 1.378 . S
C566 C561 1.350 . S
C567 H554 0.929 . S
C567 C559 1.433 . S
C567 N569 1.384 . S
N568 C564 1.427 . S
N568 C565 1.384 1_556 S
N569 C561 1.427 . S
N569 C567 1.384 . S
H570 C576 0.930 . S
H571 C580 0.930 . S
H572 C585 0.929 . S
H573 C583 0.929 . S
H574 C578 0.929 . S
H575 C584 0.929 . S
C576 H570 0.930 . S
C576 C577 1.367 . S
C576 C584 1.378 . S
C577 C576 1.367 . S
C577 C585 1.433 . S
C578 H574 0.929 . S
C578 C580 1.378 . S
C578 C582 1.350 . S
C579 C582 1.463 . S
C579 C584 1.350 1_554 S
C579 N587 1.427 1_554 S
C580 H571 0.930 . S
C580 C578 1.378 . S
C580 C581 1.367 . S
C581 C580 1.367 . S
C581 C583 1.433 . S
C582 C578 1.350 . S
C582 C579 1.463 . S
C582 N586 1.427 . S
C583 H573 0.929 . S
C583 C581 1.433 . S
C583 N586 1.384 . S
C584 H575 0.929 . S
C584 C576 1.378 . S
C584 C579 1.350 1_556 S
C585 H572 0.929 . S
C585 C577 1.433 . S
C585 N587 1.384 . S
N586 C582 1.427 . S
N586 C583 1.384 . S
N587 C579 1.427 1_556 S
N587 C585 1.384 . S
H588 C594 0.930 . S
H589 C598 0.930 . S
H590 C603 0.929 . S
H591 C601 0.929 . S
H592 C596 0.929 . S
H593 C602 0.929 . S
C594 H588 0.930 . S
C594 C595 1.367 . S
C594 C602 1.378 . S
C595 C594 1.367 . S
C595 C603 1.433 . S
C596 H592 0.929 . S
C596 C598 1.378 . S
C596 C600 1.350 . S
C597 C600 1.463 . S
C597 C602 1.350 . S
C597 N605 1.427 . S
C598 H589 0.930 . S
C598 C596 1.378 . S
C598 C599 1.367 . S
C599 C598 1.367 . S
C599 C601 1.433 . S
C600 C596 1.350 . S
C600 C597 1.463 . S
C600 N604 1.427 . S
C601 H591 0.929 . S
C601 C599 1.433 . S
C601 N604 1.384 . S
C602 H593 0.929 . S
C602 C594 1.378 . S
C602 C597 1.350 . S
C603 H590 0.929 . S
C603 C595 1.433 . S
C603 N605 1.384 . S
N604 C600 1.427 . S
N604 C601 1.384 . S
N605 C597 1.427 . S
N605 C603 1.384 . S
H606 C612 0.930 . S
H607 C616 0.930 . S
H608 C621 0.929 . S
H609 C619 0.929 . S
H610 C614 0.929 . S
H611 C620 0.929 . S
C612 H606 0.930 . S
C612 C613 1.367 . S
C612 C620 1.378 . S
C613 C612 1.367 . S
C613 C621 1.433 . S
C614 H610 0.929 . S
C614 C616 1.378 . S
C614 C618 1.350 . S
C615 C618 1.463 . S
C615 C620 1.350 . S
C615 N623 1.427 . S
C616 H607 0.930 . S
C616 C614 1.378 . S
C616 C617 1.367 . S
C617 C616 1.367 . S
C617 C619 1.433 . S
C618 C614 1.350 . S
C618 C615 1.463 . S
C618 N622 1.427 . S
C619 H609 0.929 . S
C619 C617 1.433 . S
C619 N622 1.384 . S
C620 H611 0.929 . S
C620 C612 1.378 . S
C620 C615 1.350 . S
C621 H608 0.929 . S
C621 C613 1.433 . S
C621 N623 1.384 . S
N622 C618 1.427 . S
N622 C619 1.384 . S
N623 C615 1.427 . S
N623 C621 1.384 . S
H624 C630 0.930 . S
H625 C634 0.930 . S
H626 C639 0.929 . S
H627 C637 0.929 . S
H628 C632 0.929 . S
H629 C638 0.929 . S
C630 H624 0.930 . S
C630 C631 1.367 . S
C630 C638 1.378 . S
C631 C630 1.367 . S
C631 C639 1.433 . S
C632 H628 0.929 . S
C632 C634 1.378 . S
C632 C636 1.350 . S
C633 C636 1.463 . S
C633 C638 1.350 . S
C633 N641 1.427 . S
C634 H625 0.930 . S
C634 C632 1.378 . S
C634 C635 1.367 . S
C635 C634 1.367 . S
C635 C637 1.433 . S
C636 C632 1.350 . S
C636 C633 1.463 . S
C636 N640 1.427 . S
C637 H627 0.929 . S
C637 C635 1.433 . S
C637 N640 1.384 . S
C638 H629 0.929 . S
C638 C630 1.378 . S
C638 C633 1.350 . S
C639 H626 0.929 . S
C639 C631 1.433 . S
C639 N641 1.384 . S
N640 C636 1.427 . S
N640 C637 1.384 . S
N641 C633 1.427 . S
N641 C639 1.384 . S
H642 C648 0.930 . S
H643 C652 0.930 . S
H644 C657 0.929 . S
H645 C655 0.929 . S
H646 C650 0.929 . S
H647 C656 0.929 . S
C648 H642 0.930 . S
C648 C649 1.367 . S
C648 C656 1.378 . S
C649 C648 1.367 . S
C649 C657 1.433 . S
C650 H646 0.929 . S
C650 C652 1.378 . S
C650 C654 1.350 . S
C651 C654 1.463 . S
C651 C656 1.350 . S
C651 N659 1.427 . S
C652 H643 0.930 . S
C652 C650 1.378 . S
C652 C653 1.367 . S
C653 C652 1.367 . S
C653 C655 1.433 . S
C654 C650 1.350 . S
C654 C651 1.463 . S
C654 N658 1.427 . S
C655 H645 0.929 . S
C655 C653 1.433 . S
C655 N658 1.384 . S
C656 H647 0.929 . S
C656 C648 1.378 . S
C656 C651 1.350 . S
C657 H644 0.929 . S
C657 C649 1.433 . S
C657 N659 1.384 . S
N658 C654 1.427 . S
N658 C655 1.384 . S
N659 C651 1.427 . S
N659 C657 1.384 . S
H660 C666 0.930 . S
H661 C670 0.930 . S
H662 C675 0.929 . S
H663 C673 0.929 . S
H664 C668 0.929 . S
H665 C674 0.929 . S
C666 H660 0.930 . S
C666 C667 1.367 . S
C666 C674 1.378 . S
C667 C666 1.367 . S
C667 C675 1.433 . S
C668 H664 0.929 . S
C668 C670 1.378 . S
C668 C672 1.350 . S
C669 C672 1.463 . S
C669 C674 1.350 . S
C669 N677 1.427 . S
C670 H661 0.930 . S
C670 C668 1.378 . S
C670 C671 1.367 . S
C671 C670 1.367 . S
C671 C673 1.433 . S
C672 C668 1.350 . S
C672 C669 1.463 . S
C672 N676 1.427 . S
C673 H663 0.929 . S
C673 C671 1.433 . S
C673 N676 1.384 . S
C674 H665 0.929 . S
C674 C666 1.378 . S
C674 C669 1.350 . S
C675 H662 0.929 . S
C675 C667 1.433 . S
C675 N677 1.384 . S
N676 C672 1.427 . S
N676 C673 1.384 . S
N677 C669 1.427 . S
N677 C675 1.384 . S
H678 C684 0.930 . S
H679 C688 0.930 . S
H680 C693 0.929 . S
H681 C691 0.929 . S
H682 C686 0.929 . S
H683 C692 0.929 . S
C684 H678 0.930 . S
C684 C685 1.367 . S
C684 C692 1.378 . S
C685 C684 1.367 . S
C685 C693 1.433 . S
C686 H682 0.929 . S
C686 C688 1.378 . S
C686 C690 1.350 . S
C687 C690 1.463 . S
C687 C692 1.350 . S
C687 N695 1.427 . S
C688 H679 0.930 . S
C688 C686 1.378 . S
C688 C689 1.367 . S
C689 C688 1.367 . S
C689 C691 1.433 . S
C690 C686 1.350 . S
C690 C687 1.463 . S
C690 N694 1.427 . S
C691 H681 0.929 . S
C691 C689 1.433 . S
C691 N694 1.384 . S
C692 H683 0.929 . S
C692 C684 1.378 . S
C692 C687 1.350 . S
C693 H680 0.929 . S
C693 C685 1.433 . S
C693 N695 1.384 . S
N694 C690 1.427 . S
N694 C691 1.384 . S
N695 C687 1.427 . S
N695 C693 1.384 . S
H696 C702 0.930 . S
H697 C706 0.930 . S
H698 C711 0.929 . S
H699 C709 0.929 . S
H700 C704 0.929 . S
H701 C710 0.929 . S
C702 H696 0.930 . S
C702 C703 1.367 . S
C702 C710 1.378 . S
C703 C702 1.367 . S
C703 C711 1.433 . S
C704 H700 0.929 . S
C704 C706 1.378 . S
C704 C708 1.350 1_554 S
C705 C708 1.463 . S
C705 C710 1.350 . S
C705 N713 1.427 . S
C706 H697 0.930 . S
C706 C704 1.378 . S
C706 C707 1.367 . S
C707 C706 1.367 . S
C707 C709 1.433 . S
C708 C704 1.350 1_556 S
C708 C705 1.463 . S
C708 N712 1.427 1_556 S
C709 H699 0.929 . S
C709 C707 1.433 . S
C709 N712 1.384 . S
C710 H701 0.929 . S
C710 C702 1.378 . S
C710 C705 1.350 . S
C711 H698 0.929 . S
C711 C703 1.433 . S
C711 N713 1.384 . S
N712 C708 1.427 1_554 S
N712 C709 1.384 . S
N713 C705 1.427 . S
N713 C711 1.384 . S
H714 C720 0.930 . S
H715 C724 0.930 . S
H716 C729 0.929 . S
H717 C727 0.929 . S
H718 C722 0.929 . S
H719 C728 0.929 . S
C720 H714 0.930 . S
C720 C721 1.367 . S
C720 C728 1.378 . S
C721 C720 1.367 . S
C721 C729 1.433 . S
C722 H718 0.929 . S
C722 C724 1.378 1_554 S
C722 C726 1.350 . S
C723 C726 1.463 . S
C723 C728 1.350 . S
C723 N731 1.427 . S
C724 H715 0.930 . S
C724 C722 1.378 1_556 S
C724 C725 1.367 . S
C725 C724 1.367 . S
C725 C727 1.433 . S
C726 C722 1.350 . S
C726 C723 1.463 . S
C726 N730 1.427 . S
C727 H717 0.929 . S
C727 C725 1.433 . S
C727 N730 1.384 1_556 S
C728 H719 0.929 . S
C728 C720 1.378 . S
C728 C723 1.350 . S
C729 H716 0.929 . S
C729 C721 1.433 . S
C729 N731 1.384 . S
N730 C726 1.427 . S
N730 C727 1.384 1_554 S
N731 C723 1.427 . S
N731 C729 1.384 . S
H732 C738 0.930 . S
H733 C742 0.930 . S
H734 C747 0.929 . S
H735 C745 0.929 . S
H736 C740 0.929 . S
H737 C746 0.929 . S
C738 H732 0.930 . S
C738 C739 1.367 . S
C738 C746 1.378 . S
C739 C738 1.367 . S
C739 C747 1.433 . S
C740 H736 0.929 . S
C740 C742 1.378 . S
C740 C744 1.350 . S
C741 C744 1.463 . S
C741 C746 1.350 . S
C741 N749 1.427 . S
C742 H733 0.930 . S
C742 C740 1.378 . S
C742 C743 1.367 . S
C743 C742 1.367 . S
C743 C745 1.433 . S
C744 C740 1.350 . S
C744 C741 1.463 . S
C744 N748 1.427 . S
C745 H735 0.929 . S
C745 C743 1.433 . S
C745 N748 1.384 . S
C746 H737 0.929 . S
C746 C738 1.378 . S
C746 C741 1.350 . S
C747 H734 0.929 . S
C747 C739 1.433 . S
C747 N749 1.384 . S
N748 C744 1.427 . S
N748 C745 1.384 . S
N749 C741 1.427 . S
N749 C747 1.384 . S
H750 C756 0.930 . S
H751 C760 0.930 . S
H752 C765 0.929 . S
H753 C763 0.929 . S
H754 C758 0.929 . S
H755 C764 0.929 . S
C756 H750 0.930 . S
C756 C757 1.367 . S
C756 C764 1.378 . S
C757 C756 1.367 . S
C757 C765 1.433 . S
C758 H754 0.929 . S
C758 C760 1.378 . S
C758 C762 1.350 . S
C759 C762 1.463 . S
C759 C764 1.350 . S
C759 N767 1.427 . S
C760 H751 0.930 . S
C760 C758 1.378 . S
C760 C761 1.367 . S
C761 C760 1.367 . S
C761 C763 1.433 . S
C762 C758 1.350 . S
C762 C759 1.463 . S
C762 N766 1.427 . S
C763 H753 0.929 . S
C763 C761 1.433 . S
C763 N766 1.384 . S
C764 H755 0.929 . S
C764 C756 1.378 . S
C764 C759 1.350 . S
C765 H752 0.929 . S
C765 C757 1.433 . S
C765 N767 1.384 . S
N766 C762 1.427 . S
N766 C763 1.384 . S
N767 C759 1.427 . S
N767 C765 1.384 . S
H768 C774 0.930 . S
H769 C778 0.930 . S
H770 C783 0.929 . S
H771 C781 0.929 . S
H772 C776 0.929 . S
H773 C782 0.929 . S
C774 H768 0.930 . S
C774 C775 1.367 . S
C774 C782 1.378 . S
C775 C774 1.367 . S
C775 C783 1.433 . S
C776 H772 0.929 . S
C776 C778 1.378 . S
C776 C780 1.350 . S
C777 C780 1.463 . S
C777 C782 1.350 . S
C777 N785 1.427 . S
C778 H769 0.930 . S
C778 C776 1.378 . S
C778 C779 1.367 . S
C779 C778 1.367 . S
C779 C781 1.433 . S
C780 C776 1.350 . S
C780 C777 1.463 . S
C780 N784 1.427 . S
C781 H771 0.929 . S
C781 C779 1.433 . S
C781 N784 1.384 . S
C782 H773 0.929 . S
C782 C774 1.378 . S
C782 C777 1.350 . S
C783 H770 0.929 . S
C783 C775 1.433 . S
C783 N785 1.384 . S
N784 C780 1.427 . S
N784 C781 1.384 . S
N785 C777 1.427 . S
N785 C783 1.384 . S
H786 C792 0.930 . S
H787 C796 0.930 . S
H788 C801 0.929 . S
H789 C799 0.929 . S
H790 C794 0.929 . S
H791 C800 0.929 . S
C792 H786 0.930 . S
C792 C793 1.367 . S
C792 C800 1.378 . S
C793 C792 1.367 . S
C793 C801 1.433 . S
C794 H790 0.929 . S
C794 C796 1.378 . S
C794 C798 1.350 . S
C795 C798 1.463 . S
C795 C800 1.350 . S
C795 N803 1.427 . S
C796 H787 0.930 . S
C796 C794 1.378 . S
C796 C797 1.367 . S
C797 C796 1.367 . S
C797 C799 1.433 . S
C798 C794 1.350 . S
C798 C795 1.463 . S
C798 N802 1.427 . S
C799 H789 0.929 . S
C799 C797 1.433 . S
C799 N802 1.384 . S
C800 H791 0.929 . S
C800 C792 1.378 . S
C800 C795 1.350 . S
C801 H788 0.929 . S
C801 C793 1.433 . S
C801 N803 1.384 . S
N802 C798 1.427 . S
N802 C799 1.384 . S
N803 C795 1.427 . S
N803 C801 1.384 . S
H804 C810 0.930 . S
H805 C814 0.930 . S
H806 C819 0.929 . S
H807 C817 0.929 . S
H808 C812 0.929 . S
H809 C818 0.929 . S
C810 H804 0.930 . S
C810 C811 1.367 1_556 S
C810 C818 1.378 . S
C811 C810 1.367 1_554 S
C811 C819 1.433 . S
C812 H808 0.929 . S
C812 C814 1.378 . S
C812 C816 1.350 . S
C813 C816 1.463 . S
C813 C818 1.350 . S
C813 N821 1.439 . S
C814 H805 0.930 . S
C814 C812 1.378 . S
C814 C815 1.367 . S
C815 C814 1.367 . S
C815 C817 1.433 . S
C816 C812 1.350 . S
C816 C813 1.463 . S
C816 N820 1.427 . S
C817 H807 0.929 . S
C817 C815 1.433 . S
C817 N820 1.384 . S
C818 H809 0.929 . S
C818 C810 1.378 . S
C818 C813 1.350 . S
C819 H806 0.929 . S
C819 C811 1.433 . S
C819 N821 1.376 1_554 S
N820 C816 1.427 . S
N820 C817 1.384 . S
N821 C813 1.439 . S
N821 C819 1.376 1_556 S
H822 C828 0.930 . S
H823 C832 0.930 . S
H824 C837 0.929 . S
H825 C835 0.929 . S
H826 C830 0.929 1_556 S
H827 C836 0.929 . S
C828 H822 0.930 . S
C828 C829 1.367 . S
C828 C836 1.378 . S
C829 C828 1.367 . S
C829 C837 1.433 . S
C830 H826 0.929 1_554 S
C830 C832 1.378 1_554 S
C830 C834 1.350 . S
C831 C834 1.463 . S
C831 C836 1.350 . S
C831 N839 1.427 . S
C832 H823 0.930 . S
C832 C830 1.378 1_556 S
C832 C833 1.367 . S
C833 C832 1.367 . S
C833 C835 1.433 1_556 S
C834 C830 1.350 . S
C834 C831 1.463 . S
C834 N838 1.427 . S
C835 H825 0.929 . S
C835 C833 1.433 1_554 S
C835 N838 1.384 . S
C836 H827 0.929 . S
C836 C828 1.378 . S
C836 C831 1.350 . S
C837 H824 0.929 . S
C837 C829 1.433 . S
C837 N839 1.384 . S
N838 C834 1.427 . S
N838 C835 1.384 . S
N839 C831 1.427 . S
N839 C837 1.384 . S
H840 C846 0.930 . S
H841 C850 0.930 . S
H842 C855 0.929 . S
H843 C853 0.929 . S
H844 C848 0.929 . S
H845 C854 0.929 . S
C846 H840 0.930 . S
C846 C847 1.367 . S
C846 C854 1.378 . S
C847 C846 1.367 . S
C847 C855 1.433 1_554 S
C848 H844 0.929 . S
C848 C850 1.378 . S
C848 C852 1.350 . S
C849 C852 1.463 1_544 S
C849 C854 1.350 . S
C849 N857 1.427 1_554 S
C850 H841 0.930 . S
C850 C848 1.378 . S
C850 C851 1.367 . S
C851 C850 1.367 . S
C851 C853 1.433 1_556 S
C852 C848 1.350 . S
C852 C849 1.463 1_566 S
C852 N856 1.427 1_556 S
C853 H843 0.929 . S
C853 C851 1.433 1_554 S
C853 N856 1.384 . S
C854 H845 0.929 . S
C854 C846 1.378 . S
C854 C849 1.350 . S
C855 H842 0.929 . S
C855 C847 1.433 1_556 S
C855 N857 1.384 . S
N856 C852 1.427 1_554 S
N856 C853 1.384 . S
N857 C849 1.427 1_556 S
N857 C855 1.384 . S
H858 C864 0.930 . S
H859 C868 0.930 . S
H860 C873 0.929 . S
H861 C871 0.929 . S
H862 C866 0.929 . S
H863 C872 0.929 . S
C864 H858 0.930 . S
C864 C865 1.367 . S
C864 C872 1.378 . S
C865 C864 1.367 . S
C865 C873 1.433 . S
C866 H862 0.929 . S
C866 C868 1.378 . S
C866 C870 1.350 . S
C867 C870 1.463 . S
C867 C872 1.350 . S
C867 N875 1.427 . S
C868 H859 0.930 . S
C868 C866 1.378 . S
C868 C869 1.367 . S
C869 C868 1.367 . S
C869 C871 1.433 . S
C870 C866 1.350 . S
C870 C867 1.463 . S
C870 N874 1.427 . S
C871 H861 0.929 . S
C871 C869 1.433 . S
C871 N874 1.384 . S
C872 H863 0.929 . S
C872 C864 1.378 . S
C872 C867 1.350 . S
C873 H860 0.929 . S
C873 C865 1.433 . S
C873 N875 1.384 . S
N874 C870 1.427 . S
N874 C871 1.384 . S
N875 C867 1.427 . S
N875 C873 1.384 . S
H876 C882 0.930 . S
H877 C886 0.930 . S
H878 C891 0.929 . S
H879 C889 0.929 . S
H880 C884 0.929 . S
H881 C890 0.929 . S
C882 H876 0.930 . S
C882 C883 1.367 . S
C882 C890 1.378 . S
C883 C882 1.367 . S
C883 C891 1.433 . S
C884 H880 0.929 . S
C884 C886 1.378 . S
C884 C888 1.350 . S
C885 C888 1.463 1_455 S
C885 C890 1.350 . S
C885 N893 1.427 . S
C886 H877 0.930 . S
C886 C884 1.378 . S
C886 C887 1.367 . S
C887 C886 1.367 . S
C887 C889 1.433 . S
C888 C884 1.350 . S
C888 C885 1.463 1_655 S
C888 N892 1.427 . S
C889 H879 0.929 . S
C889 C887 1.433 . S
C889 N892 1.384 . S
C890 H881 0.929 . S
C890 C882 1.378 . S
C890 C885 1.350 . S
C891 H878 0.929 . S
C891 C883 1.433 . S
C891 N893 1.384 . S
N892 C888 1.427 . S
N892 C889 1.384 . S
N893 C885 1.427 . S
N893 C891 1.384 . S
H894 C900 0.930 . S
H895 C904 0.930 . S
H896 C909 0.929 . S
H897 C907 0.929 . S
H898 C902 0.929 . S
H899 C908 0.929 . S
C900 H894 0.930 . S
C900 C901 1.367 . S
C900 C908 1.378 . S
C901 C900 1.367 . S
C901 C909 1.433 . S
C902 H898 0.929 . S
C902 C904 1.378 . S
C902 C906 1.350 . S
C903 C906 1.463 1_565 S
C903 C908 1.350 . S
C903 N911 1.427 . S
C904 H895 0.930 . S
C904 C902 1.378 . S
C904 C905 1.367 . S
C905 C904 1.367 . S
C905 C907 1.433 . S
C906 C902 1.350 . S
C906 C903 1.463 1_545 S
C906 N910 1.427 . S
C907 H897 0.929 . S
C907 C905 1.433 . S
C907 N910 1.384 . S
C908 H899 0.929 . S
C908 C900 1.378 . S
C908 C903 1.350 . S
C909 H896 0.929 . S
C909 C901 1.433 . S
C909 N911 1.384 . S
N910 C906 1.427 . S
N910 C907 1.384 . S
N911 C903 1.427 . S
N911 C909 1.384 . S
H912 C918 0.930 . S
H913 C922 0.930 . S
H914 C927 0.929 . S
H915 C925 0.929 . S
H916 C920 0.929 . S
H917 C926 0.929 . S
C918 H912 0.930 . S
C918 C919 1.367 . S
C918 C926 1.378 . S
C919 C918 1.367 . S
C919 C927 1.433 . S
C920 H916 0.929 . S
C920 C922 1.378 . S
C920 C924 1.350 . S
C921 C924 1.463 . S
C921 C926 1.350 . S
C921 N929 1.427 . S
C922 H913 0.930 . S
C922 C920 1.378 . S
C922 C923 1.367 . S
C923 C922 1.367 . S
C923 C925 1.433 . S
C924 C920 1.350 . S
C924 C921 1.463 . S
C924 N928 1.427 . S
C925 H915 0.929 . S
C925 C923 1.433 . S
C925 N928 1.384 . S
C926 H917 0.929 . S
C926 C918 1.378 . S
C926 C921 1.350 . S
C927 H914 0.929 . S
C927 C919 1.433 . S
C927 N929 1.384 . S
N928 C924 1.427 . S
N928 C925 1.384 . S
N929 C921 1.427 . S
N929 C927 1.384 . S
H930 C936 0.930 . S
H931 C940 0.930 . S
H932 C945 0.929 . S
H933 C943 0.929 . S
H934 C938 0.929 . S
H935 C944 0.929 . S
C936 H930 0.930 . S
C936 C937 1.367 . S
C936 C944 1.378 . S
C937 C936 1.367 . S
C937 C945 1.433 . S
C938 H934 0.929 . S
C938 C940 1.378 . S
C938 C942 1.350 . S
C939 C942 1.463 1_455 S
C939 C944 1.350 . S
C939 N947 1.427 . S
C940 H931 0.930 . S
C940 C938 1.378 . S
C940 C941 1.367 . S
C941 C940 1.367 . S
C941 C943 1.433 . S
C942 C938 1.350 . S
C942 C939 1.463 1_655 S
C942 N946 1.427 . S
C943 H933 0.929 . S
C943 C941 1.433 . S
C943 N946 1.384 . S
C944 H935 0.929 . S
C944 C936 1.378 . S
C944 C939 1.350 . S
C945 H932 0.929 . S
C945 C937 1.433 . S
C945 N947 1.384 . S
N946 C942 1.427 . S
N946 C943 1.384 . S
N947 C939 1.427 . S
N947 C945 1.384 . S
C415 C292 1.515 . S
C419 C20 1.517 . S
C433 C326 1.515 . S
C437 C54 1.516 . S
C451 C360 1.515 . S
C455 C88 1.517 . S
C469 C394 1.517 . S
C473 C122 1.516 . S
C487 C156 1.517 . S
C491 C224 1.516 . S
C505 C258 1.515 . S
C509 C190 1.517 . S
C523 C9 1.235 . S
C527 C5 1.261 . S
C541 C39 1.256 . S
C545 C43 1.246 . S
C559 C73 1.261 . S
C563 C77 1.235 . S
C577 C107 1.256 . S
C581 C111 1.247 . S
C595 C141 1.261 1_554 S
C599 C145 1.237 . S
C613 C175 1.257 . S
C617 C179 1.247 . S
C631 C213 1.236 . S
C635 C209 1.260 . S
C649 C243 1.258 . S
C653 C247 1.244 . S
C667 C281 1.243 . S
C671 C277 1.257 . S
C685 C315 1.247 . S
C689 C311 1.256 1_556 S
C703 C349 1.247 . S
C707 C345 1.256 . S
C721 C379 1.257 . S
C725 C383 1.246 . S
C739 C33 1.612 . S
C743 C373 1.611 . S
C757 C67 1.607 . S
C761 C407 1.607 . S
C775 C101 1.607 . S
C779 C237 1.609 . S
C793 C271 1.612 . S
C797 C135 1.610 . S
C811 C305 1.607 . S
C815 C169 1.608 . S
C829 C339 1.614 . S
C833 C203 1.613 . S
C847 C2 1.579 . S
C851 C240 1.578 . S
C865 C274 1.575 . S
C869 C36 1.577 . S
C883 C308 1.574 . S
C887 C70 1.575 . S
C901 C104 1.573 . S
C905 C342 1.573 . S
C919 C376 1.576 . S
C923 C138 1.574 . S
C937 C172 1.579 . S
C941 C206 1.578 . S
