# Generated by pormake.
# Topology und, (4)-cn, num edge types: 1
# Building blocks:
#     Node 0, Type 0, BuildingBlock: GALJAG_clean_sbu_0, # of connection points: 4
#     Node 1, Type 0, BuildingBlock: GALJAG_clean_sbu_0, # of connection points: 4
#     Node 2, Type 0, BuildingBlock: GALJAG_clean_sbu_0, # of connection points: 4
#     Node 3, Type 0, BuildingBlock: GALJAG_clean_sbu_0, # of connection points: 4
#     Node 4, Type 0, BuildingBlock: GALJAG_clean_sbu_0, # of connection points: 4
#     Node 5, Type 0, BuildingBlock: GALJAG_clean_sbu_0, # of connection points: 4
#     Node 6, Type 0, BuildingBlock: GALJAG_clean_sbu_0, # of connection points: 4
#     Node 7, Type 0, BuildingBlock: GALJAG_clean_sbu_0, # of connection points: 4
#     Node 8, Type 0, BuildingBlock: GALJAG_clean_sbu_0, # of connection points: 4
#     Node 9, Type 0, BuildingBlock: GALJAG_clean_sbu_0, # of connection points: 4
#     Node 10, Type 0, BuildingBlock: GALJAG_clean_sbu_0, # of connection points: 4
#     Node 11, Type 0, BuildingBlock: GALJAG_clean_sbu_0, # of connection points: 4
#     Node 12, Type 0, BuildingBlock: GALJAG_clean_sbu_0, # of connection points: 4
#     Node 13, Type 0, BuildingBlock: GALJAG_clean_sbu_0, # of connection points: 4
#     Node 14, Type 0, BuildingBlock: GALJAG_clean_sbu_0, # of connection points: 4
#     Node 15, Type 0, BuildingBlock: GALJAG_clean_sbu_0, # of connection points: 4
#     Edge 16, Type (0, 0), BuildingBlock: AJUNOK_clean_linker_0, # of connection points: 2
#     Edge 17, Type (0, 0), BuildingBlock: AJUNOK_clean_linker_0, # of connection points: 2
#     Edge 18, Type (0, 0), BuildingBlock: AJUNOK_clean_linker_0, # of connection points: 2
#     Edge 19, Type (0, 0), BuildingBlock: AJUNOK_clean_linker_0, # of connection points: 2
#     Edge 20, Type (0, 0), BuildingBlock: AJUNOK_clean_linker_0, # of connection points: 2
#     Edge 21, Type (0, 0), BuildingBlock: AJUNOK_clean_linker_0, # of connection points: 2
#     Edge 22, Type (0, 0), BuildingBlock: AJUNOK_clean_linker_0, # of connection points: 2
#     Edge 23, Type (0, 0), BuildingBlock: AJUNOK_clean_linker_0, # of connection points: 2
#     Edge 24, Type (0, 0), BuildingBlock: AJUNOK_clean_linker_0, # of connection points: 2
#     Edge 25, Type (0, 0), BuildingBlock: AJUNOK_clean_linker_0, # of connection points: 2
#     Edge 26, Type (0, 0), BuildingBlock: AJUNOK_clean_linker_0, # of connection points: 2
#     Edge 27, Type (0, 0), BuildingBlock: AJUNOK_clean_linker_0, # of connection points: 2
#     Edge 28, Type (0, 0), BuildingBlock: AJUNOK_clean_linker_0, # of connection points: 2
#     Edge 29, Type (0, 0), BuildingBlock: AJUNOK_clean_linker_0, # of connection points: 2
#     Edge 30, Type (0, 0), BuildingBlock: AJUNOK_clean_linker_0, # of connection points: 2
#     Edge 31, Type (0, 0), BuildingBlock: AJUNOK_clean_linker_0, # of connection points: 2
#     Edge 32, Type (0, 0), BuildingBlock: AJUNOK_clean_linker_0, # of connection points: 2
#     Edge 33, Type (0, 0), BuildingBlock: AJUNOK_clean_linker_0, # of connection points: 2
#     Edge 34, Type (0, 0), BuildingBlock: AJUNOK_clean_linker_0, # of connection points: 2
#     Edge 35, Type (0, 0), BuildingBlock: AJUNOK_clean_linker_0, # of connection points: 2
#     Edge 36, Type (0, 0), BuildingBlock: AJUNOK_clean_linker_0, # of connection points: 2
#     Edge 37, Type (0, 0), BuildingBlock: AJUNOK_clean_linker_0, # of connection points: 2
#     Edge 38, Type (0, 0), BuildingBlock: AJUNOK_clean_linker_0, # of connection points: 2
#     Edge 39, Type (0, 0), BuildingBlock: AJUNOK_clean_linker_0, # of connection points: 2
#     Edge 40, Type (0, 0), BuildingBlock: AJUNOK_clean_linker_0, # of connection points: 2
#     Edge 41, Type (0, 0), BuildingBlock: AJUNOK_clean_linker_0, # of connection points: 2
#     Edge 42, Type (0, 0), BuildingBlock: AJUNOK_clean_linker_0, # of connection points: 2
#     Edge 43, Type (0, 0), BuildingBlock: AJUNOK_clean_linker_0, # of connection points: 2
#     Edge 44, Type (0, 0), BuildingBlock: AJUNOK_clean_linker_0, # of connection points: 2
#     Edge 45, Type (0, 0), BuildingBlock: AJUNOK_clean_linker_0, # of connection points: 2
#     Edge 46, Type (0, 0), BuildingBlock: AJUNOK_clean_linker_0, # of connection points: 2
#     Edge 47, Type (0, 0), BuildingBlock: AJUNOK_clean_linker_0, # of connection points: 2
# Relax obj value: 0.013
# Max RMSD: 0.034
# Mean RMSD: 0.034
data_MOF--net-und--node1-GALJAG_clean_sbu_0--edge1-AJUNOK_clean_linker_0
_symmetry_space_group_name_H-M    P1
_symmetry_Int_Tables_number       1
_symmetry_cell_setting            triclinic
loop_
_symmetry_equiv_pos_as_xyz
'x, y, z'
_cell_length_a     46.258136
_cell_length_b     46.283345
_cell_length_c     15.041699
_cell_angle_alpha  90.012921
_cell_angle_beta   89.953404
_cell_angle_gamma 89.987432
loop_
_atom_site_label
_atom_site_type_symbol
_atom_site_fract_x
_atom_site_fract_y
_atom_site_fract_z
_atom_type_partial_charge
In0 In 0.25811 0.34257 0.01512 0.0
O1 O 0.21206 0.36081 0.01122 0.0
O2 O 0.24384 0.38297 0.0881 0.0
C3 C 0.25474 0.29964 0.89485 0.0
C4 C 0.29795 0.37872 0.94655 0.0
C5 C 0.2619 0.30707 0.15606 0.0
O6 O 0.23391 0.31687 0.90813 0.0
O7 O 0.27715 0.30503 0.93935 0.0
O8 O 0.28395 0.31539 0.11385 0.0
O9 O 0.23836 0.31786 0.13068 0.0
C10 C 0.21797 0.3819 0.06162 0.0
O11 O 0.29887 0.37009 0.0263 0.0
O12 O 0.277 0.36902 0.90175 0.0
In13 In 0.91594 1.00261 0.23734 0.0
O14 O 0.89044 0.04429 0.26323 0.0
O15 O 0.88673 0.02438 0.13634 0.0
C16 C 0.95772 1.00091 0.36124 0.0
C17 C 0.87852 0.96169 0.29328 0.0
C18 C 0.95539 1.002 0.10641 0.0
O19 O 0.94269 0.02339 0.34791 0.0
O20 O 0.95069 0.97938 0.31467 0.0
O21 O 0.93865 0.98084 0.12053 0.0
O22 O 0.95127 0.02357 0.15616 0.0
C23 C 0.8793 0.04492 0.18648 0.0
O24 O 0.88934 0.96143 0.21604 0.0
O25 O 0.88657 0.9825 0.34139 0.0
In26 In 0.25483 0.66568 0.5032 0.0
O27 O 0.29992 0.64552 0.50591 0.0
O28 O 0.26844 0.63033 0.59876 0.0
C29 C 0.25487 0.70402 0.36919 0.0
C30 C 0.21549 0.62775 0.44239 0.0
C31 C 0.25632 0.70607 0.63156 0.0
O32 O 0.276 0.6872 0.38287 0.0
O33 O 0.23354 0.7002 0.42004 0.0
O34 O 0.23467 0.6896 0.62166 0.0
O35 O 0.27711 0.70097 0.57976 0.0
C36 C 0.29391 0.62845 0.56898 0.0
O37 O 0.2094 0.64604 0.50216 0.0
O38 O 0.24109 0.62889 0.41328 0.0
In39 In 0.59328 0.00733 0.73234 0.0
O40 O 0.61944 0.04876 0.71783 0.0
O41 O 0.62151 0.02648 0.84162 0.0
C42 C 0.55584 0.00782 0.59552 0.0
C43 C 0.63097 0.96595 0.68204 0.0
C44 C 0.55124 0.00941 0.85538 0.0
O45 O 0.57132 0.02949 0.61445 0.0
O46 O 0.56053 0.9858 0.64262 0.0
O47 O 0.56855 0.98823 0.85021 0.0
O48 O 0.55616 0.0296 0.80118 0.0
C49 C 0.6298 0.04777 0.79559 0.0
O50 O 0.61132 0.96115 0.73866 0.0
O51 O 0.63172 0.99141 0.65241 0.0
In52 In 0.75543 0.66543 -0.00283 0.0
O53 O 0.71415 0.63911 0.97283 0.0
O54 O 0.73447 0.63605 0.09934 0.0
C55 C 0.75733 0.70676 0.87222 0.0
C56 C 0.79736 0.62886 0.94288 0.0
C57 C 0.75312 0.70595 0.12458 0.0
O58 O 0.73527 0.69087 0.88287 0.0
O59 O 0.77846 0.70071 0.92182 0.0
O60 O 0.77498 0.6897 0.11507 0.0
O61 O 0.73243 0.70068 0.07249 0.0
C62 C 0.71388 0.62823 0.05 0.0
O63 O 0.79741 0.64017 0.01949 0.0
O64 O 0.77624 0.63598 0.89463 0.0
In65 In 0.09419 1.00231 0.73636 0.0
O66 O 0.11231 0.04839 0.74086 0.0
O67 O 0.13254 0.01777 0.6553 0.0
C68 C 0.05248 1.00087 0.86045 0.0
C69 C 0.13019 0.96213 0.80365 0.0
C70 C 0.05651 1.00154 0.60022 0.0
O71 O 0.06997 0.02187 0.85458 0.0
O72 O 0.05689 0.98067 0.80584 0.0
O73 O 0.07151 0.97965 0.6206 0.0
O74 O 0.06182 0.02382 0.64549 0.0
C75 C 0.13184 0.04336 0.68402 0.0
O76 O 0.12063 0.96075 0.72493 0.0
O77 O 0.12175 0.98382 0.84753 0.0
In78 In 0.75504 0.34403 0.49785 0.0
O79 O 0.70938 0.36321 0.50298 0.0
O80 O 0.74035 0.38257 0.41645 0.0
C81 C 0.75732 0.303 0.62358 0.0
C82 C 0.79599 0.37964 0.56204 0.0
C83 C 0.75271 0.30544 0.36435 0.0
O84 O 0.73645 0.32073 0.61901 0.0
O85 O 0.77702 0.30686 0.56678 0.0
O86 O 0.77529 0.3201 0.37969 0.0
O87 O 0.73144 0.31155 0.41321 0.0
C88 C 0.71478 0.38248 0.44567 0.0
O89 O 0.79716 0.36945 0.48392 0.0
O90 O 0.77419 0.37194 0.60677 0.0
In91 In 0.4153 0.00868 0.23252 0.0
O92 O 0.39686 0.96262 0.23846 0.0
O93 O 0.37561 0.99365 0.15696 0.0
C94 C 0.45746 0.01002 0.35512 0.0
C95 C 0.38015 0.05015 0.29706 0.0
C96 C 0.45239 0.00849 0.09453 0.0
O97 O 0.4396 0.9893 0.3508 0.0
O98 O 0.45311 0.0301 0.30012 0.0
O99 O 0.4373 0.03041 0.1138 0.0
O100 O 0.4474 0.98655 0.14167 0.0
C101 C 0.3764 0.96804 0.18536 0.0
O102 O 0.39006 0.05076 0.21864 0.0
O103 O 0.38811 0.02867 0.34278 0.0
In104 In 0.75435 0.84358 0.49819 0.0
O105 O 0.70804 0.86133 0.49955 0.0
O106 O 0.73994 0.88305 0.57648 0.0
C107 C 0.75357 0.80288 0.37091 0.0
C108 C 0.79524 0.87882 0.43098 0.0
C109 C 0.75573 0.80564 0.63375 0.0
O110 O 0.7336 0.82147 0.3784 0.0
O111 O 0.774 0.80562 0.42577 0.0
O112 O 0.77762 0.82042 0.61205 0.0
O113 O 0.7332 0.81125 0.59006 0.0
C114 C 0.71387 0.88172 0.55252 0.0
O115 O 0.79633 0.86929 0.50978 0.0
O116 O 0.77351 0.87067 0.38681 0.0
In117 In 0.41575 0.50473 0.75086 0.0
O118 O 0.39658 0.55048 0.7563 0.0
O119 O 0.37713 0.51951 0.67027 0.0
C120 C 0.45582 0.50289 0.87981 0.0
C121 C 0.37933 0.46353 0.80912 0.0
C122 C 0.45494 0.50455 0.61848 0.0
O123 O 0.43889 0.52426 0.8713 0.0
O124 O 0.45161 0.4826 0.82548 0.0
O125 O 0.44027 0.48244 0.63843 0.0
O126 O 0.44842 0.52698 0.66156 0.0
C127 C 0.37696 0.54494 0.7003 0.0
O128 O 0.39001 0.46321 0.73163 0.0
O129 O 0.38718 0.48456 0.85699 0.0
In130 In 0.75487 0.1658 -0.00189 0.0
O131 O 0.79694 0.14015 0.9823 0.0
O132 O 0.77393 0.13652 0.10424 0.0
C133 C 0.75642 0.20609 0.86981 0.0
C134 C 0.71409 0.12922 0.93589 0.0
C135 C 0.7534 0.20682 0.12433 0.0
O136 O 0.77775 0.18969 0.88544 0.0
O137 O 0.73434 0.20131 0.91692 0.0
O138 O 0.73188 0.19069 0.1085 0.0
O139 O 0.77568 0.20126 0.07896 0.0
C140 C 0.79576 0.12922 0.05928 0.0
O141 O 0.71287 0.13966 0.01354 0.0
O142 O 0.73588 0.1369 0.89143 0.0
In143 In 0.09539 0.50382 0.25086 0.0
O144 O 0.11612 0.45899 0.25048 0.0
O145 O 0.13122 0.49018 0.15671 0.0
C146 C 0.05676 0.5035 0.38458 0.0
C147 C 0.13274 0.54381 0.31096 0.0
C148 C 0.05566 0.50182 0.1206 0.0
O149 O 0.07348 0.48235 0.37012 0.0
O150 O 0.06078 0.52499 0.33468 0.0
O151 O 0.07192 0.52358 0.13103 0.0
O152 O 0.06058 0.4812 0.17304 0.0
C153 C 0.13333 0.46489 0.18761 0.0
O154 O 0.11414 0.54959 0.25187 0.0
O155 O 0.13221 0.51818 0.33977 0.0
In156 In 0.25588 0.16634 0.51154 0.0
O157 O 0.29849 0.1413 0.52346 0.0
O158 O 0.2765 0.14121 0.39903 0.0
C159 C 0.2533 0.20165 0.65308 0.0
C160 C 0.21508 0.12754 0.55693 0.0
C161 C 0.25728 0.20919 0.39216 0.0
O162 O 0.27625 0.18818 0.63272 0.0
O163 O 0.23181 0.19599 0.60462 0.0
O164 O 0.2401 0.18805 0.38371 0.0
O165 O 0.27363 0.20838 0.45903 0.0
C166 C 0.29804 0.13276 0.44342 0.0
O167 O 0.20951 0.14893 0.50748 0.0
O168 O 0.24107 0.12552 0.58132 0.0
In169 In 0.59388 0.50517 0.25107 0.0
O170 O 0.61309 0.4596 0.25007 0.0
O171 O 0.63225 0.49114 0.33485 0.0
C172 C 0.55318 0.50413 0.12412 0.0
C173 C 0.6296 0.54577 0.18464 0.0
C174 C 0.55507 0.50436 0.3844 0.0
O175 O 0.57137 0.48387 0.13317 0.0
O176 O 0.55648 0.5251 0.17675 0.0
O177 O 0.56842 0.52724 0.36327 0.0
O178 O 0.56256 0.48225 0.34141 0.0
C179 C 0.63217 0.46535 0.3076 0.0
O180 O 0.61919 0.54742 0.2624 0.0
O181 O 0.62203 0.52366 0.14124 0.0
In182 In 0.25473 0.84371 0.00409 0.0
O183 O 0.21216 0.86815 0.02053 0.0
O184 O 0.2349 0.87239 0.89787 0.0
C185 C 0.25637 0.80341 0.13274 0.0
C186 C 0.29381 0.88285 0.06061 0.0
C187 C 0.25496 0.80401 0.8741 0.0
O188 O 0.23379 0.81802 0.11715 0.0
O189 O 0.27808 0.81052 0.08714 0.0
O190 O 0.27535 0.82204 0.88342 0.0
O191 O 0.23423 0.80706 0.92791 0.0
C192 C 0.21314 0.8794 0.94388 0.0
O193 O 0.29969 0.86468 0.0004 0.0
O194 O 0.26854 0.88114 0.09168 0.0
In195 In 0.9171 0.50376 0.75102 0.0
O196 O 0.89117 0.5457 0.73255 0.0
O197 O 0.88921 0.52433 0.85758 0.0
C198 C 0.95785 0.50237 0.62376 0.0
C199 C 0.87929 0.46306 0.69622 0.0
C200 C 0.95794 0.50273 0.87749 0.0
O201 O 0.94287 0.52482 0.63843 0.0
O202 O 0.95118 0.48077 0.67053 0.0
O203 O 0.94105 0.48161 0.86446 0.0
O204 O 0.95333 0.52447 0.82886 0.0
C205 C 0.88126 0.54551 0.81101 0.0
O206 O 0.89095 0.46233 0.77222 0.0
O207 O 0.88665 0.48429 0.6487 0.0
C208 C 0.25357 0.28562 0.30557 0.0
C209 C 0.26249 0.2824 0.21698 0.0
C210 C 0.25197 0.26161 0.3622 0.0
C211 C 0.25806 0.23367 0.33054 0.0
H212 H 0.24793 0.30678 0.33113 0.0
H213 H 0.24554 0.26481 0.4308 0.0
S214 S 0.2814 0.21394 0.10312 0.0
N215 N 0.27741 0.24941 0.09992 0.0
N216 N 0.27314 0.20407 0.20566 0.0
C217 C 0.26657 0.23016 0.24186 0.0
C218 C 0.26907 0.25465 0.18506 0.0
C219 C 0.99164 0.0257 0.46549 0.0
C220 C 0.98288 1.00029 0.42209 0.0
C221 C 0.01594 0.02597 0.52094 0.0
C222 C 0.03247 1.00083 0.53533 0.0
H223 H 0.9797 0.04562 0.45654 0.0
H224 H 0.02159 0.04606 0.55355 0.0
S225 S 0.01884 0.92864 0.43672 0.0
N226 N 0.99282 0.94926 0.39664 0.0
N227 N 0.03844 0.94984 0.50108 0.0
C228 C 0.0241 0.9753 0.49186 0.0
C229 C 0.99931 0.975 0.43531 0.0
C230 C 0.23293 0.73622 0.74944 0.0
C231 C 0.25678 0.73082 0.69403 0.0
C232 C 0.23242 0.76021 0.80626 0.0
C233 C 0.25571 0.7798 0.80977 0.0
H234 H 0.21443 0.72187 0.74885 0.0
H235 H 0.2136 0.76329 0.84811 0.0
S236 S 0.32327 0.77564 0.67735 0.0
N237 N 0.30434 0.74723 0.64574 0.0
N238 N 0.30324 0.79226 0.75244 0.0
C239 C 0.27967 0.77475 0.75447 0.0
C240 C 0.28024 0.75026 0.69675 0.0
C241 C 0.495 0.98499 0.02281 0.0
C242 C 0.47639 0.009 0.02937 0.0
C243 C 0.51934 0.98545 0.96738 0.0
C244 C 0.526 0.00991 0.916 0.0
H245 H 0.49103 0.96572 0.06182 0.0
H246 H 0.53296 0.96643 0.96472 0.0
S247 S 0.4839 0.07827 0.90754 0.0
N248 N 0.46609 0.05779 0.97878 0.0
N249 N 0.51171 0.05872 0.87415 0.0
C250 C 0.50741 0.034 0.92116 0.0
C251 C 0.48264 0.03353 0.97786 0.0
C252 C 0.23207 0.77118 0.2431 0.0
C253 C 0.25682 0.77824 0.19349 0.0
C254 C 0.23151 0.74675 0.29795 0.0
C255 C 0.25563 0.72831 0.30518 0.0
H256 H 0.21292 0.78462 0.23963 0.0
H257 H 0.212 0.74246 0.33561 0.0
S258 S 0.32559 0.73671 0.18725 0.0
N259 N 0.30602 0.76447 0.15382 0.0
N260 N 0.30484 0.71855 0.2569 0.0
C261 C 0.28045 0.73492 0.25527 0.0
C262 C 0.28108 0.75989 0.19957 0.0
C263 C 0.48856 0.98583 0.46865 0.0
C264 C 0.48261 0.01018 0.41603 0.0
C265 C 0.51275 0.98506 0.52454 0.0
C266 C 0.53189 0.00865 0.53035 0.0
H267 H 0.4745 0.96713 0.4666 0.0
H268 H 0.5162 0.96588 0.56445 0.0
S269 S 0.5263 0.07748 0.40529 0.0
N270 N 0.49812 0.05844 0.37228 0.0
N271 N 0.54345 0.05695 0.47779 0.0
C272 C 0.52633 0.03308 0.47767 0.0
C273 C 0.50172 0.03386 0.42049 0.0
C274 C 0.27812 0.23405 0.76176 0.0
C275 C 0.25246 0.22506 0.72023 0.0
C276 C 0.27851 0.25817 0.81797 0.0
C277 C 0.25329 0.27436 0.83467 0.0
H278 H 0.29825 0.22277 0.74935 0.0
H279 H 0.29892 0.26434 0.84773 0.0
S280 S 0.18002 0.25875 0.74706 0.0
N281 N 0.20075 0.23343 0.70327 0.0
N282 N 0.20164 0.27884 0.80864 0.0
C283 C 0.22733 0.26524 0.79535 0.0
C284 C 0.22687 0.24056 0.73833 0.0
C285 C 0.0226 0.02418 0.97901 0.0
C286 C 0.02779 1.00039 0.92319 0.0
C287 C 0.99886 0.02462 0.03683 0.0
C288 C 0.97938 1.00127 0.04126 0.0
H289 H 0.03692 0.04269 0.97796 0.0
H290 H 0.99593 0.04339 0.07891 0.0
S291 S 0.98309 0.93383 0.90843 0.0
N292 N 0.01131 0.95285 0.87549 0.0
N293 N 0.96677 0.95375 0.98438 0.0
C294 C 0.98424 0.97736 0.98567 0.0
C295 C 0.00842 0.9769 0.92667 0.0
C296 C 0.73273 0.73938 0.76381 0.0
C297 C 0.75777 0.73189 0.81129 0.0
C298 C 0.73217 0.7637 0.70852 0.0
C299 C 0.75664 0.78149 0.69821 0.0
H300 H 0.71331 0.72643 0.7695 0.0
H301 H 0.71239 0.76834 0.6727 0.0
S302 S 0.82755 0.7717 0.80917 0.0
N303 N 0.80767 0.74454 0.84551 0.0
N304 N 0.80654 0.79017 0.74113 0.0
C305 C 0.78179 0.77442 0.74576 0.0
C306 C 0.78238 0.74963 0.8023 0.0
C307 C 0.77668 0.27364 0.25185 0.0
C308 C 0.75184 0.28104 0.30059 0.0
C309 C 0.77699 0.24943 0.1959 0.0
C310 C 0.75248 0.23162 0.18655 0.0
H311 H 0.79618 0.28646 0.25751 0.0
H312 H 0.79667 0.24471 0.15964 0.0
S313 S 0.68181 0.24163 0.29919 0.0
N314 N 0.7019 0.26863 0.3354 0.0
N315 N 0.7026 0.22318 0.23037 0.0
C316 C 0.72743 0.23882 0.23454 0.0
C317 C 0.72708 0.26352 0.29141 0.0
C318 C 0.73406 0.24989 0.80174 0.0
C319 C 0.7573 0.23027 0.80543 0.0
C320 C 0.73444 0.27358 0.74384 0.0
C321 C 0.75805 0.27855 0.68705 0.0
H322 H 0.71538 0.24709 0.84436 0.0
H323 H 0.71597 0.28797 0.74327 0.0
S324 S 0.82434 0.23345 0.67031 0.0
N325 N 0.80458 0.21733 0.74708 0.0
N326 N 0.80537 0.26175 0.6379 0.0
C327 C 0.78148 0.25908 0.68997 0.0
C328 C 0.7811 0.23497 0.74918 0.0
C329 C 0.77534 0.73482 0.24721 0.0
C330 C 0.75234 0.73049 0.18775 0.0
C331 C 0.77558 0.75845 0.30539 0.0
C332 C 0.7529 0.77876 0.30624 0.0
H333 H 0.79336 0.71988 0.24889 0.0
H334 H 0.79375 0.76071 0.35027 0.0
S335 S 0.68781 0.77764 0.16238 0.0
N336 N 0.70634 0.74875 0.13244 0.0
N337 N 0.70692 0.79314 0.24177 0.0
C338 C 0.7298 0.7748 0.24688 0.0
C339 C 0.7295 0.75066 0.18774 0.0
C340 C 0.51084 0.52751 0.05059 0.0
C341 C 0.52881 0.50314 0.06052 0.0
C342 C 0.48695 0.52709 0.99339 0.0
C343 C 0.48008 0.50227 0.94397 0.0
H344 H 0.51524 0.54718 0.0872 0.0
H345 H 0.474 0.54648 0.98723 0.0
S346 S 0.51955 0.43232 0.94861 0.0
N347 N 0.53763 0.45325 0.01784 0.0
N348 N 0.49277 0.45234 0.91044 0.0
C349 C 0.49768 0.47761 0.95397 0.0
C350 C 0.52205 0.47809 0.01211 0.0
C351 C 0.01581 0.52771 0.4631 0.0
C352 C 0.0325 0.50267 0.44884 0.0
C353 C 0.99148 0.52733 0.51861 0.0
C354 C 0.9828 0.50187 0.56192 0.0
H355 H 0.02146 0.54784 0.43073 0.0
H356 H 0.97949 0.54721 0.52787 0.0
S357 S 0.01883 0.43025 0.5458 0.0
N358 N 0.03849 0.45162 0.48205 0.0
N359 N 0.99277 0.45078 0.58626 0.0
C360 C 0.99928 0.47662 0.54821 0.0
C361 C 0.02414 0.47706 0.49185 0.0
C362 C 0.02555 0.52509 0.00258 0.0
C363 C 0.03124 0.50109 0.05701 0.0
C364 C 1.00161 0.52546 0.94555 0.0
C365 C 0.98243 0.50188 0.94074 0.0
H366 H 0.03954 0.54384 0.0044 0.0
H367 H 0.99822 0.54445 0.90473 0.0
S368 S 0.98761 0.43375 0.06959 0.0
N369 N 0.01565 0.453 0.10247 0.0
N370 N 0.97075 0.45385 0.99532 0.0
C371 C 0.98788 0.4777 0.99461 0.0
C372 C 0.01227 0.47728 0.05263 0.0
C373 C 0.49419 0.52975 0.53457 0.0
C374 C 0.47986 0.50388 0.55666 0.0
C375 C 0.51896 0.52971 0.48076 0.0
C376 C 0.5304 0.50377 0.4472 0.0
H377 H 0.48626 0.55029 0.5591 0.0
H378 H 0.52896 0.5502 0.46451 0.0
S379 S 0.50172 0.42997 0.48854 0.0
N380 N 0.4794 0.45154 0.54266 0.0
N381 N 0.52592 0.45135 0.442 0.0
C382 C 0.51646 0.47768 0.46964 0.0
C383 C 0.49118 0.47776 0.52408 0.0
C384 C 0.14755 0.41484 0.14252 0.0
C385 C 0.15487 0.44409 0.15386 0.0
C386 C 0.16783 0.3949 0.10959 0.0
C387 C 0.1963 0.40345 0.08991 0.0
H388 H 0.12593 0.4074 0.15823 0.0
H389 H 0.16142 0.37253 0.10176 0.0
S390 S 0.22627 0.47748 0.10966 0.0
N391 N 0.1923 0.48069 0.14204 0.0
N392 N 0.23073 0.44306 0.08404 0.0
C393 C 0.20387 0.4326 0.10163 0.0
C394 C 0.18305 0.45299 0.13259 0.0
C395 C 0.83351 0.9163 0.45149 0.0
C396 C 0.81717 0.89878 0.39409 0.0
C397 C 0.85332 0.9365 0.41807 0.0
C398 C 0.85799 0.93954 0.32603 0.0
H399 H 0.8305 0.91489 0.5228 0.0
H400 H 0.86508 0.94983 0.46491 0.0
S401 S 0.82175 0.89766 0.14776 0.0
N402 N 0.80751 0.88515 0.24081 0.0
N403 N 0.84524 0.92264 0.1781 0.0
C404 C 0.84233 0.92162 0.26795 0.0
C405 C 0.82178 0.90139 0.30195 0.0
C406 C 0.34381 0.61497 0.61781 0.0
C407 C 0.31476 0.60722 0.60403 0.0
C408 C 0.36375 0.59497 0.65217 0.0
C409 C 0.35542 0.56638 0.67077 0.0
H410 H 0.35106 0.6367 0.60293 0.0
H411 H 0.38597 0.60166 0.66191 0.0
S412 S 0.28203 0.53534 0.6447 0.0
N413 N 0.2786 0.56928 0.61248 0.0
N414 N 0.3163 0.53137 0.673 0.0
C415 C 0.3265 0.55838 0.65657 0.0
C416 C 0.30608 0.57891 0.62425 0.0
C417 C 0.67475 0.09257 0.95617 0.0
C418 C 0.69194 0.10943 0.89915 0.0
C419 C 0.65466 0.07269 0.92211 0.0
C420 C 0.65058 0.06944 0.82987 0.0
H421 H 0.67727 0.09426 0.02758 0.0
H422 H 0.64219 0.05982 0.96847 0.0
S423 S 0.68937 0.10946 0.65244 0.0
N424 N 0.70314 0.12205 0.74597 0.0
N425 N 0.66501 0.08527 0.68224 0.0
C426 C 0.66718 0.08667 0.77226 0.0
C427 C 0.68797 0.1065 0.80683 0.0
C428 C 0.14557 0.59368 0.36174 0.0
C429 C 0.154 0.5651 0.34328 0.0
C430 C 0.16545 0.6138 0.39585 0.0
C431 C 0.19455 0.60619 0.40951 0.0
H432 H 0.12337 0.60034 0.35141 0.0
H433 H 0.15814 0.63555 0.41006 0.0
S434 S 0.2275 0.53431 0.36927 0.0
N435 N 0.19322 0.5302 0.34125 0.0
N436 N 0.23081 0.56827 0.40144 0.0
C437 C 0.20327 0.57781 0.38993 0.0
C438 C 0.18292 0.55718 0.35782 0.0
C439 C 0.6801 0.95183 0.63017 0.0
C440 C 0.65164 0.94373 0.65149 0.0
C441 C 0.70012 0.9315 0.59883 0.0
C442 C 0.69211 0.90257 0.58478 0.0
H443 H 0.68706 0.97401 0.63869 0.0
H444 H 0.72194 0.93859 0.5842 0.0
S445 S 0.62011 0.87047 0.62903 0.0
N446 N 0.61646 0.90479 0.6572 0.0
N447 N 0.65384 0.86676 0.59456 0.0
C448 C 0.66364 0.89423 0.60482 0.0
C449 C 0.64346 0.91477 0.6393 0.0
C450 C 0.35526 0.43724 0.93388 0.0
C451 C 0.35905 0.44119 0.84186 0.0
C452 C 0.33589 0.41658 0.96706 0.0
C453 C 0.31917 0.39944 0.90948 0.0
H454 H 0.36744 0.45015 0.98083 0.0
H455 H 0.33364 0.41441 0.03844 0.0
S456 S 0.32096 0.40135 0.6628 0.0
N457 N 0.34469 0.42605 0.69355 0.0
N458 N 0.30786 0.38762 0.75579 0.0
C459 C 0.32276 0.40315 0.81726 0.0
C460 C 0.34283 0.42389 0.78347 0.0
C461 C 0.8349 0.09287 0.03415 0.0
C462 C 0.81782 0.10891 0.09365 0.0
C463 C 0.85483 0.07237 0.06503 0.0
C464 C 0.85889 0.06757 0.15662 0.0
H465 H 0.83239 0.09567 0.96306 0.0
H466 H 0.86716 0.06016 0.01661 0.0
S467 S 0.82051 0.10501 0.34004 0.0
N468 N 0.80675 0.11918 0.24863 0.0
N469 N 0.84473 0.08114 0.30656 0.0
C470 C 0.84251 0.08401 0.21691 0.0
C471 C 0.82182 0.10453 0.18545 0.0
C472 C 0.82325 0.60349 0.81941 0.0
C473 C 0.81997 0.60861 0.91121 0.0
C474 C 0.84372 0.58369 0.78724 0.0
C475 C 0.86126 0.56782 0.84578 0.0
H476 H 0.80983 0.61483 0.77183 0.0
H477 H 0.84526 0.58024 0.71615 0.0
S478 S 0.86193 0.57383 0.09193 0.0
N479 N 0.83676 0.59689 0.05997 0.0
N480 N 0.87475 0.55922 -0.00018 0.0
C481 C 0.85849 0.57299 0.93765 0.0
C482 C 0.83799 0.59351 0.97029 0.0
C483 C 0.20054 0.07735 0.59571 0.0
C484 C 0.19304 0.10662 0.58653 0.0
C485 C 0.18046 0.05706 0.62671 0.0
C486 C 0.15247 0.06547 0.65248 0.0
H487 H 0.22204 0.07003 0.57803 0.0
H488 H 0.18706 0.03465 0.63184 0.0
S489 S 0.12242 0.13969 0.64331 0.0
N490 N 0.15578 0.14311 0.60539 0.0
N491 N 0.11828 0.10509 0.66719 0.0
C492 C 0.14479 0.09474 0.6447 0.0
C493 C 0.16501 0.1153 0.61066 0.0
C494 C 0.70127 0.43181 0.39431 0.0
C495 C 0.693 0.40323 0.41322 0.0
C496 C 0.68131 0.45184 0.36083 0.0
C497 C 0.6527 0.44368 0.34203 0.0
H498 H 0.72327 0.43882 0.40637 0.0
H499 H 0.68846 0.47375 0.3482 0.0
S500 S 0.6204 0.37135 0.37832 0.0
N501 N 0.65425 0.36781 0.41155 0.0
N502 N 0.61702 0.40517 0.34476 0.0
C503 C 0.64423 0.4151 0.35962 0.0
C504 C 0.66432 0.39494 0.39635 0.0
C505 C 0.36399 0.91808 0.13439 0.0
C506 C 0.35509 0.94621 0.15684 0.0
C507 C 0.34415 0.89774 0.10134 0.0
C508 C 0.31467 0.90465 0.09259 0.0
H509 H 0.38653 0.91201 0.14031 0.0
H510 H 0.35182 0.87637 0.08383 0.0
S511 S 0.28045 0.9751 0.14499 0.0
N512 N 0.31501 0.97992 0.16817 0.0
N513 N 0.27755 0.94139 0.11012 0.0
C514 C 0.30549 0.93253 0.11653 0.0
C515 C 0.32576 0.95341 0.14759 0.0
C516 C 0.83428 0.41706 0.53969 0.0
C517 C 0.81795 0.39978 0.59785 0.0
C518 C 0.85405 0.43745 0.57229 0.0
C519 C 0.85869 0.44088 0.6642 0.0
H520 H 0.8313 0.41531 0.46846 0.0
H521 H 0.86584 0.45059 0.52496 0.0
S522 S 0.82232 0.3999 0.84424 0.0
N523 N 0.80816 0.38693 0.75173 0.0
N524 N 0.84584 0.42473 0.81281 0.0
C525 C 0.84301 0.42324 0.72301 0.0
C526 C 0.82249 0.40285 0.68988 0.0
C527 C 0.33686 0.09546 0.46068 0.0
C528 C 0.32018 0.11327 0.405 0.0
C529 C 0.35633 0.07524 0.42514 0.0
C530 C 0.36025 0.07246 0.33267 0.0
H531 H 0.3343 0.09658 0.53219 0.0
H532 H 0.36833 0.06161 0.47057 0.0
S533 S 0.32288 0.11513 0.15835 0.0
N534 N 0.3095 0.12747 0.25282 0.0
N535 N 0.34644 0.08992 0.18627 0.0
C536 C 0.3443 0.09072 0.27637 0.0
C537 C 0.32417 0.11099 0.31247 0.0
C538 C 0.66589 0.58517 0.20605 0.0
C539 C 0.64992 0.56749 0.14812 0.0
C540 C 0.68642 0.60479 0.17344 0.0
C541 C 0.69136 0.60792 0.08157 0.0
H542 H 0.663 0.58341 0.27732 0.0
H543 H 0.69852 0.61764 0.22075 0.0
S544 S 0.65437 0.56754 0.90164 0.0
N545 N 0.64001 0.55475 0.99417 0.0
N546 N 0.67812 0.59214 0.93299 0.0
C547 C 0.67505 0.59088 0.02276 0.0
C548 C 0.65449 0.57052 0.05601 0.0
C549 C 0.18773 0.90384 0.81808 0.0
C550 C 0.19093 0.89969 0.91025 0.0
C551 C 0.16755 0.92358 0.78411 0.0
C552 C 0.15027 0.94039 0.8411 0.0
H553 H 0.2009 0.8917 0.77165 0.0
H554 H 0.16595 0.92615 0.7127 0.0
S555 S 0.15003 0.93753 0.08773 0.0
N556 N 0.17469 0.9136 0.05793 0.0
N557 N 0.13727 0.9512 0.99427 0.0
C558 C 0.15314 0.93636 0.93341 0.0
C559 C 0.17332 0.91586 0.96795 0.0
loop_
_geom_bond_atom_site_label_1
_geom_bond_atom_site_label_2
_geom_bond_distance
_geom_bond_site_symmetry_2
_ccdc_geom_bond_type
In0 O1 2.294 1_554 S
In0 O2 2.326 . S
In0 O6 2.266 1_554 S
In0 O7 2.326 1_554 S
In0 O8 2.266 . S
In0 O9 2.326 . S
In0 O11 2.294 . S
In0 O12 2.326 1_554 S
O1 In0 2.294 1_556 S
O1 C10 1.240 1_556 S
O2 In0 2.326 . S
O2 C10 1.252 . S
C3 O6 1.252 . S
C3 O7 1.260 . S
C4 O11 1.240 1_556 S
C4 O12 1.252 . S
C5 O8 1.252 . S
C5 O9 1.260 . S
O6 In0 2.266 1_556 S
O6 C3 1.252 . S
O7 In0 2.326 1_556 S
O7 C3 1.260 . S
O8 In0 2.266 . S
O8 C5 1.252 . S
O9 In0 2.326 . S
O9 C5 1.260 . S
C10 O1 1.240 1_554 S
C10 O2 1.252 . S
O11 In0 2.294 . S
O11 C4 1.240 1_554 S
O12 In0 2.326 1_556 S
O12 C4 1.252 . S
In13 O14 2.294 . S
In13 O15 2.326 . S
In13 O19 2.266 . S
In13 O20 2.326 1_545 S
In13 O21 2.266 1_545 S
In13 O22 2.326 . S
In13 O24 2.294 1_545 S
In13 O25 2.326 1_545 S
O14 In13 2.294 . S
O14 C23 1.240 . S
O15 In13 2.326 . S
O15 C23 1.252 . S
C16 O19 1.253 . S
C16 O20 1.259 1_545 S
C17 O24 1.240 . S
C17 O25 1.252 . S
C18 O21 1.253 1_545 S
C18 O22 1.259 . S
O19 In13 2.266 . S
O19 C16 1.253 . S
O20 In13 2.326 1_565 S
O20 C16 1.259 1_565 S
O21 In13 2.266 1_565 S
O21 C18 1.253 1_565 S
O22 In13 2.326 . S
O22 C18 1.259 . S
C23 O14 1.240 . S
C23 O15 1.252 . S
O24 In13 2.294 1_565 S
O24 C17 1.240 . S
O25 In13 2.326 1_565 S
O25 C17 1.252 . S
In26 O27 2.294 . S
In26 O28 2.326 . S
In26 O32 2.266 . S
In26 O33 2.326 . S
In26 O34 2.266 . S
In26 O35 2.326 . S
In26 O37 2.294 . S
In26 O38 2.326 . S
O27 In26 2.294 . S
O27 C36 1.240 . S
O28 In26 2.326 . S
O28 C36 1.252 . S
C29 O32 1.252 . S
C29 O33 1.260 . S
C30 O37 1.240 . S
C30 O38 1.252 . S
C31 O34 1.252 . S
C31 O35 1.260 . S
O32 In26 2.266 . S
O32 C29 1.252 . S
O33 In26 2.326 . S
O33 C29 1.260 . S
O34 In26 2.266 . S
O34 C31 1.252 . S
O35 In26 2.326 . S
O35 C31 1.260 . S
C36 O27 1.240 . S
C36 O28 1.252 . S
O37 In26 2.294 . S
O37 C30 1.240 . S
O38 In26 2.326 . S
O38 C30 1.252 . S
In39 O40 2.294 . S
In39 O41 2.326 . S
In39 O45 2.266 . S
In39 O46 2.326 1_545 S
In39 O47 2.266 1_545 S
In39 O48 2.326 . S
In39 O50 2.294 1_545 S
In39 O51 2.326 1_545 S
O40 In39 2.294 . S
O40 C49 1.240 . S
O41 In39 2.326 . S
O41 C49 1.252 . S
C42 O45 1.253 . S
C42 O46 1.259 1_545 S
C43 O50 1.240 . S
C43 O51 1.252 . S
C44 O47 1.253 1_545 S
C44 O48 1.259 . S
O45 In39 2.266 . S
O45 C42 1.253 . S
O46 In39 2.326 1_565 S
O46 C42 1.259 1_565 S
O47 In39 2.266 1_565 S
O47 C44 1.253 1_565 S
O48 In39 2.326 . S
O48 C44 1.259 . S
C49 O40 1.240 . S
C49 O41 1.252 . S
O50 In39 2.294 1_565 S
O50 C43 1.240 . S
O51 In39 2.326 1_565 S
O51 C43 1.252 . S
In52 O53 2.294 1_554 S
In52 O54 2.326 . S
In52 O58 2.266 1_554 S
In52 O59 2.326 1_554 S
In52 O60 2.266 . S
In52 O61 2.326 . S
In52 O63 2.294 . S
In52 O64 2.326 1_554 S
O53 In52 2.294 1_556 S
O53 C62 1.240 1_556 S
O54 In52 2.326 . S
O54 C62 1.252 . S
C55 O58 1.252 . S
C55 O59 1.260 . S
C56 O63 1.240 1_556 S
C56 O64 1.252 . S
C57 O60 1.252 . S
C57 O61 1.260 . S
O58 In52 2.266 1_556 S
O58 C55 1.252 . S
O59 In52 2.326 1_556 S
O59 C55 1.260 . S
O60 In52 2.266 . S
O60 C57 1.252 . S
O61 In52 2.326 . S
O61 C57 1.260 . S
C62 O53 1.240 1_554 S
C62 O54 1.252 . S
O63 In52 2.294 . S
O63 C56 1.240 1_554 S
O64 In52 2.326 1_556 S
O64 C56 1.252 . S
In65 O66 2.294 . S
In65 O67 2.326 . S
In65 O71 2.266 . S
In65 O72 2.326 1_545 S
In65 O73 2.266 1_545 S
In65 O74 2.326 . S
In65 O76 2.294 1_545 S
In65 O77 2.326 1_545 S
O66 In65 2.294 . S
O66 C75 1.240 . S
O67 In65 2.326 . S
O67 C75 1.252 . S
C68 O71 1.253 . S
C68 O72 1.259 1_545 S
C69 O76 1.240 . S
C69 O77 1.252 . S
C70 O73 1.253 1_545 S
C70 O74 1.259 . S
O71 In65 2.266 . S
O71 C68 1.253 . S
O72 In65 2.326 1_565 S
O72 C68 1.259 1_565 S
O73 In65 2.266 1_565 S
O73 C70 1.253 1_565 S
O74 In65 2.326 . S
O74 C70 1.259 . S
C75 O66 1.240 . S
C75 O67 1.252 . S
O76 In65 2.294 1_565 S
O76 C69 1.240 . S
O77 In65 2.326 1_565 S
O77 C69 1.252 . S
In78 O79 2.294 . S
In78 O80 2.326 . S
In78 O84 2.266 . S
In78 O85 2.326 . S
In78 O86 2.266 . S
In78 O87 2.326 . S
In78 O89 2.294 . S
In78 O90 2.326 . S
O79 In78 2.294 . S
O79 C88 1.240 . S
O80 In78 2.326 . S
O80 C88 1.252 . S
C81 O84 1.252 . S
C81 O85 1.260 . S
C82 O89 1.240 . S
C82 O90 1.252 . S
C83 O86 1.252 . S
C83 O87 1.260 . S
O84 In78 2.266 . S
O84 C81 1.252 . S
O85 In78 2.326 . S
O85 C81 1.260 . S
O86 In78 2.266 . S
O86 C83 1.252 . S
O87 In78 2.326 . S
O87 C83 1.260 . S
C88 O79 1.240 . S
C88 O80 1.252 . S
O89 In78 2.294 . S
O89 C82 1.240 . S
O90 In78 2.326 . S
O90 C82 1.252 . S
In91 O92 2.294 1_545 S
In91 O93 2.326 1_545 S
In91 O97 2.266 1_545 S
In91 O98 2.326 . S
In91 O99 2.266 . S
In91 O100 2.326 1_545 S
In91 O102 2.294 . S
In91 O103 2.326 . S
O92 In91 2.294 1_565 S
O92 C101 1.240 . S
O93 In91 2.326 1_565 S
O93 C101 1.252 . S
C94 O97 1.253 1_545 S
C94 O98 1.259 . S
C95 O102 1.240 . S
C95 O103 1.252 . S
C96 O99 1.253 . S
C96 O100 1.259 1_545 S
O97 In91 2.266 1_565 S
O97 C94 1.253 1_565 S
O98 In91 2.326 . S
O98 C94 1.259 . S
O99 In91 2.266 . S
O99 C96 1.253 . S
O100 In91 2.326 1_565 S
O100 C96 1.259 1_565 S
C101 O92 1.240 . S
C101 O93 1.252 . S
O102 In91 2.294 . S
O102 C95 1.240 . S
O103 In91 2.326 . S
O103 C95 1.252 . S
In104 O105 2.294 . S
In104 O106 2.326 . S
In104 O110 2.266 . S
In104 O111 2.326 . S
In104 O112 2.266 . S
In104 O113 2.326 . S
In104 O115 2.294 . S
In104 O116 2.326 . S
O105 In104 2.294 . S
O105 C114 1.240 . S
O106 In104 2.326 . S
O106 C114 1.252 . S
C107 O110 1.252 . S
C107 O111 1.260 . S
C108 O115 1.240 . S
C108 O116 1.252 . S
C109 O112 1.252 . S
C109 O113 1.260 . S
O110 In104 2.266 . S
O110 C107 1.252 . S
O111 In104 2.326 . S
O111 C107 1.260 . S
O112 In104 2.266 . S
O112 C109 1.252 . S
O113 In104 2.326 . S
O113 C109 1.260 . S
C114 O105 1.240 . S
C114 O106 1.252 . S
O115 In104 2.294 . S
O115 C108 1.240 . S
O116 In104 2.326 . S
O116 C108 1.252 . S
In117 O118 2.294 . S
In117 O119 2.326 . S
In117 O123 2.266 . S
In117 O124 2.326 . S
In117 O125 2.266 . S
In117 O126 2.326 . S
In117 O128 2.294 . S
In117 O129 2.326 . S
O118 In117 2.294 . S
O118 C127 1.240 . S
O119 In117 2.326 . S
O119 C127 1.252 . S
C120 O123 1.252 . S
C120 O124 1.260 . S
C121 O128 1.240 . S
C121 O129 1.252 . S
C122 O125 1.252 . S
C122 O126 1.260 . S
O123 In117 2.266 . S
O123 C120 1.252 . S
O124 In117 2.326 . S
O124 C120 1.260 . S
O125 In117 2.266 . S
O125 C122 1.252 . S
O126 In117 2.326 . S
O126 C122 1.260 . S
C127 O118 1.240 . S
C127 O119 1.252 . S
O128 In117 2.294 . S
O128 C121 1.240 . S
O129 In117 2.326 . S
O129 C121 1.252 . S
In130 O131 2.294 1_554 S
In130 O132 2.326 . S
In130 O136 2.266 1_554 S
In130 O137 2.326 1_554 S
In130 O138 2.266 . S
In130 O139 2.326 . S
In130 O141 2.294 . S
In130 O142 2.326 1_554 S
O131 In130 2.294 1_556 S
O131 C140 1.240 1_556 S
O132 In130 2.326 . S
O132 C140 1.252 . S
C133 O136 1.252 . S
C133 O137 1.260 . S
C134 O141 1.240 1_556 S
C134 O142 1.252 . S
C135 O138 1.252 . S
C135 O139 1.260 . S
O136 In130 2.266 1_556 S
O136 C133 1.252 . S
O137 In130 2.326 1_556 S
O137 C133 1.260 . S
O138 In130 2.266 . S
O138 C135 1.252 . S
O139 In130 2.326 . S
O139 C135 1.260 . S
C140 O131 1.240 1_554 S
C140 O132 1.252 . S
O141 In130 2.294 . S
O141 C134 1.240 1_554 S
O142 In130 2.326 1_556 S
O142 C134 1.252 . S
In143 O144 2.294 . S
In143 O145 2.326 . S
In143 O149 2.266 . S
In143 O150 2.326 . S
In143 O151 2.266 . S
In143 O152 2.326 . S
In143 O154 2.294 . S
In143 O155 2.326 . S
O144 In143 2.294 . S
O144 C153 1.240 . S
O145 In143 2.326 . S
O145 C153 1.252 . S
C146 O149 1.252 . S
C146 O150 1.260 . S
C147 O154 1.240 . S
C147 O155 1.252 . S
C148 O151 1.252 . S
C148 O152 1.260 . S
O149 In143 2.266 . S
O149 C146 1.252 . S
O150 In143 2.326 . S
O150 C146 1.260 . S
O151 In143 2.266 . S
O151 C148 1.252 . S
O152 In143 2.326 . S
O152 C148 1.260 . S
C153 O144 1.240 . S
C153 O145 1.252 . S
O154 In143 2.294 . S
O154 C147 1.240 . S
O155 In143 2.326 . S
O155 C147 1.252 . S
In156 O157 2.294 . S
In156 O158 2.326 . S
In156 O162 2.266 . S
In156 O163 2.326 . S
In156 O164 2.266 . S
In156 O165 2.326 . S
In156 O167 2.294 . S
In156 O168 2.326 . S
O157 In156 2.294 . S
O157 C166 1.240 . S
O158 In156 2.326 . S
O158 C166 1.252 . S
C159 O162 1.252 . S
C159 O163 1.260 . S
C160 O167 1.240 . S
C160 O168 1.252 . S
C161 O164 1.252 . S
C161 O165 1.260 . S
O162 In156 2.266 . S
O162 C159 1.252 . S
O163 In156 2.326 . S
O163 C159 1.260 . S
O164 In156 2.266 . S
O164 C161 1.252 . S
O165 In156 2.326 . S
O165 C161 1.260 . S
C166 O157 1.240 . S
C166 O158 1.252 . S
O167 In156 2.294 . S
O167 C160 1.240 . S
O168 In156 2.326 . S
O168 C160 1.252 . S
In169 O170 2.294 . S
In169 O171 2.326 . S
In169 O175 2.266 . S
In169 O176 2.326 . S
In169 O177 2.266 . S
In169 O178 2.326 . S
In169 O180 2.294 . S
In169 O181 2.326 . S
O170 In169 2.294 . S
O170 C179 1.240 . S
O171 In169 2.326 . S
O171 C179 1.252 . S
C172 O175 1.252 . S
C172 O176 1.260 . S
C173 O180 1.240 . S
C173 O181 1.252 . S
C174 O177 1.252 . S
C174 O178 1.260 . S
O175 In169 2.266 . S
O175 C172 1.252 . S
O176 In169 2.326 . S
O176 C172 1.260 . S
O177 In169 2.266 . S
O177 C174 1.252 . S
O178 In169 2.326 . S
O178 C174 1.260 . S
C179 O170 1.240 . S
C179 O171 1.252 . S
O180 In169 2.294 . S
O180 C173 1.240 . S
O181 In169 2.326 . S
O181 C173 1.252 . S
In182 O183 2.294 . S
In182 O184 2.326 1_554 S
In182 O188 2.266 . S
In182 O189 2.326 . S
In182 O190 2.266 1_554 S
In182 O191 2.326 1_554 S
In182 O193 2.294 1_554 S
In182 O194 2.326 . S
O183 In182 2.294 . S
O183 C192 1.240 1_554 S
O184 In182 2.326 1_556 S
O184 C192 1.252 . S
C185 O188 1.252 . S
C185 O189 1.260 . S
C186 O193 1.240 1_554 S
C186 O194 1.252 . S
C187 O190 1.252 . S
C187 O191 1.260 . S
O188 In182 2.266 . S
O188 C185 1.252 . S
O189 In182 2.326 . S
O189 C185 1.260 . S
O190 In182 2.266 1_556 S
O190 C187 1.252 . S
O191 In182 2.326 1_556 S
O191 C187 1.260 . S
C192 O183 1.240 1_556 S
C192 O184 1.252 . S
O193 In182 2.294 1_556 S
O193 C186 1.240 1_556 S
O194 In182 2.326 . S
O194 C186 1.252 . S
In195 O196 2.294 . S
In195 O197 2.326 . S
In195 O201 2.266 . S
In195 O202 2.326 . S
In195 O203 2.266 . S
In195 O204 2.326 . S
In195 O206 2.294 . S
In195 O207 2.326 . S
O196 In195 2.294 . S
O196 C205 1.240 . S
O197 In195 2.326 . S
O197 C205 1.252 . S
C198 O201 1.252 . S
C198 O202 1.260 . S
C199 O206 1.240 . S
C199 O207 1.252 . S
C200 O203 1.252 . S
C200 O204 1.260 . S
O201 In195 2.266 . S
O201 C198 1.252 . S
O202 In195 2.326 . S
O202 C198 1.260 . S
O203 In195 2.266 . S
O203 C200 1.252 . S
O204 In195 2.326 . S
O204 C200 1.260 . S
C205 O196 1.240 . S
C205 O197 1.252 . S
O206 In195 2.294 . S
O206 C199 1.240 . S
O207 In195 2.326 . S
O207 C199 1.252 . S
C208 C209 1.369 . S
C208 C210 1.419 . S
C208 H212 0.930 . S
C209 C208 1.369 . S
C209 C218 1.429 . S
C210 C208 1.419 . S
C210 C211 1.363 . S
C210 H213 0.929 . S
C211 C210 1.363 . S
C211 C217 1.428 . S
H212 C208 0.930 . S
H213 C210 0.929 . S
S214 N215 1.613 . S
S214 N216 1.610 . S
N215 S214 1.613 . S
N215 C218 1.350 . S
N216 S214 1.610 . S
N216 C217 1.351 . S
C217 C211 1.428 . S
C217 N216 1.351 . S
C217 C218 1.434 . S
C218 C209 1.429 . S
C218 N215 1.350 . S
C218 C217 1.434 . S
C219 C220 1.372 . S
C219 C221 1.419 1_655 S
C219 H223 0.930 . S
C220 C219 1.372 . S
C220 C229 1.426 1_545 S
C221 C219 1.419 1_455 S
C221 C222 1.343 1_545 S
C221 H224 0.929 . S
C222 C221 1.343 1_565 S
C222 C228 1.449 . S
H223 C219 0.930 . S
H224 C221 0.929 . S
S225 N226 1.613 1_455 S
S225 N227 1.610 . S
N226 S225 1.613 1_655 S
N226 C229 1.350 . S
N227 S225 1.610 . S
N227 C228 1.351 . S
C228 C222 1.449 . S
C228 N227 1.351 . S
C228 C229 1.434 1_455 S
C229 C220 1.426 1_565 S
C229 N226 1.350 . S
C229 C228 1.434 1_655 S
C230 C231 1.369 . S
C230 C232 1.419 . S
C230 H234 0.930 . S
C231 C230 1.369 . S
C231 C240 1.429 . S
C232 C230 1.419 . S
C232 C233 1.363 . S
C232 H235 0.929 . S
C233 C232 1.363 . S
C233 C239 1.428 . S
H234 C230 0.930 . S
H235 C232 0.929 . S
S236 N237 1.613 . S
S236 N238 1.610 . S
N237 S236 1.613 . S
N237 C240 1.350 . S
N238 S236 1.610 . S
N238 C239 1.351 . S
C239 C233 1.428 . S
C239 N238 1.351 . S
C239 C240 1.434 . S
C240 C231 1.429 . S
C240 N237 1.350 . S
C240 C239 1.434 . S
C241 C242 1.358 1_565 S
C241 C243 1.419 . S
C241 H245 0.930 . S
C242 C241 1.358 1_545 S
C242 C251 1.440 1_554 S
C243 C241 1.419 . S
C243 C244 1.367 1_554 S
C243 H246 0.929 . S
C244 C243 1.367 1_556 S
C244 C250 1.425 1_565 S
H245 C241 0.930 . S
H246 C243 0.929 . S
S247 N248 1.613 . S
S247 N249 1.610 . S
N248 S247 1.613 . S
N248 C251 1.350 . S
N249 S247 1.610 . S
N249 C250 1.351 . S
C250 C244 1.425 1_545 S
C250 N249 1.351 . S
C250 C251 1.434 . S
C251 C242 1.440 1_556 S
C251 N248 1.350 . S
C251 C250 1.434 . S
C252 C253 1.369 . S
C252 C254 1.419 . S
C252 H256 0.930 . S
C253 C252 1.369 . S
C253 C262 1.429 . S
C254 C252 1.419 . S
C254 C255 1.363 . S
C254 H257 0.929 . S
C255 C254 1.363 . S
C255 C261 1.428 . S
H256 C252 0.930 . S
H257 C254 0.929 . S
S258 N259 1.613 . S
S258 N260 1.610 . S
N259 S258 1.613 . S
N259 C262 1.350 . S
N260 S258 1.610 . S
N260 C261 1.351 . S
C261 C255 1.428 . S
C261 N260 1.351 . S
C261 C262 1.434 . S
C262 C253 1.429 . S
C262 N259 1.350 . S
C262 C261 1.434 . S
C263 C264 1.373 . S
C263 C265 1.419 . S
C263 H267 0.930 . S
C264 C263 1.373 . S
C264 C273 1.425 1_565 S
C265 C263 1.419 . S
C265 C266 1.353 1_565 S
C265 H268 0.929 . S
C266 C265 1.353 1_545 S
C266 C272 1.438 . S
H267 C263 0.930 . S
H268 C265 0.929 . S
S269 N270 1.613 . S
S269 N271 1.610 . S
N270 S269 1.613 . S
N270 C273 1.350 . S
N271 S269 1.610 . S
N271 C272 1.351 . S
C272 C266 1.438 . S
C272 N271 1.351 . S
C272 C273 1.434 . S
C273 C264 1.425 1_545 S
C273 N270 1.350 . S
C273 C272 1.434 . S
C274 C275 1.369 . S
C274 C276 1.419 . S
C274 H278 0.930 . S
C275 C274 1.369 . S
C275 C284 1.429 . S
C276 C274 1.419 . S
C276 C277 1.363 . S
C276 H279 0.929 . S
C277 C276 1.363 . S
C277 C283 1.428 . S
H278 C274 0.930 . S
H279 C276 0.929 . S
S280 N281 1.613 . S
S280 N282 1.610 . S
N281 S280 1.613 . S
N281 C284 1.350 . S
N282 S280 1.610 . S
N282 C283 1.351 . S
C283 C277 1.428 . S
C283 N282 1.351 . S
C283 C284 1.434 . S
C284 C275 1.429 . S
C284 N281 1.350 . S
C284 C283 1.434 . S
C285 C286 1.377 1_554 S
C285 C287 1.390 1_455 S
C285 H289 0.930 . S
C286 C285 1.377 1_556 S
C286 C295 1.407 1_445 S
C287 C285 1.390 1_655 S
C287 C288 1.383 1_545 S
C287 H290 0.929 . S
C288 C287 1.383 1_565 S
C288 C294 1.438 1_554 S
H289 C285 0.930 . S
H290 C287 0.929 . S
S291 N292 1.613 . S
S291 N293 1.610 . S
N292 S291 1.613 . S
N292 C295 1.352 . S
N293 S291 1.610 . S
N293 C294 1.351 . S
C294 C288 1.438 1_556 S
C294 N293 1.351 . S
C294 C295 1.447 . S
C295 C286 1.407 1_665 S
C295 N292 1.352 . S
C295 C294 1.447 . S
C296 C297 1.369 . S
C296 C298 1.419 . S
C296 H300 0.930 . S
C297 C296 1.369 . S
C297 C306 1.429 . S
C298 C296 1.419 . S
C298 C299 1.363 . S
C298 H301 0.929 . S
C299 C298 1.363 . S
C299 C305 1.428 . S
H300 C296 0.930 . S
H301 C298 0.929 . S
S302 N303 1.613 . S
S302 N304 1.610 . S
N303 S302 1.613 . S
N303 C306 1.350 . S
N304 S302 1.610 . S
N304 C305 1.351 . S
C305 C299 1.428 . S
C305 N304 1.351 . S
C305 C306 1.434 . S
C306 C297 1.429 . S
C306 N303 1.350 . S
C306 C305 1.434 . S
C307 C308 1.369 . S
C307 C309 1.419 . S
C307 H311 0.930 . S
C308 C307 1.369 . S
C308 C317 1.429 . S
C309 C307 1.419 . S
C309 C310 1.363 . S
C309 H312 0.929 . S
C310 C309 1.363 . S
C310 C316 1.428 . S
H311 C307 0.930 . S
H312 C309 0.929 . S
S313 N314 1.613 . S
S313 N315 1.610 . S
N314 S313 1.613 . S
N314 C317 1.350 . S
N315 S313 1.610 . S
N315 C316 1.351 . S
C316 C310 1.428 . S
C316 N315 1.351 . S
C316 C317 1.434 . S
C317 C308 1.429 . S
C317 N314 1.350 . S
C317 C316 1.434 . S
C318 C319 1.369 . S
C318 C320 1.419 . S
C318 H322 0.930 . S
C319 C318 1.369 . S
C319 C328 1.429 . S
C320 C318 1.419 . S
C320 C321 1.363 . S
C320 H323 0.929 . S
C321 C320 1.363 . S
C321 C327 1.428 . S
H322 C318 0.930 . S
H323 C320 0.929 . S
S324 N325 1.613 . S
S324 N326 1.610 . S
N325 S324 1.613 . S
N325 C328 1.350 . S
N326 S324 1.610 . S
N326 C327 1.351 . S
C327 C321 1.428 . S
C327 N326 1.351 . S
C327 C328 1.434 . S
C328 C319 1.429 . S
C328 N325 1.350 . S
C328 C327 1.434 . S
C329 C330 1.369 . S
C329 C331 1.419 . S
C329 H333 0.930 . S
C330 C329 1.369 . S
C330 C339 1.429 . S
C331 C329 1.419 . S
C331 C332 1.363 . S
C331 H334 0.929 . S
C332 C331 1.363 . S
C332 C338 1.428 . S
H333 C329 0.930 . S
H334 C331 0.929 . S
S335 N336 1.613 . S
S335 N337 1.610 . S
N336 S335 1.613 . S
N336 C339 1.350 . S
N337 S335 1.610 . S
N337 C338 1.351 . S
C338 C332 1.428 . S
C338 N337 1.351 . S
C338 C339 1.434 . S
C339 C330 1.429 . S
C339 N336 1.350 . S
C339 C338 1.434 . S
C340 C341 1.369 1_556 S
C340 C342 1.419 . S
C340 H344 0.930 . S
C341 C340 1.369 1_554 S
C341 C350 1.429 . S
C342 C340 1.419 . S
C342 C343 1.363 . S
C342 H345 0.929 . S
C343 C342 1.363 . S
C343 C349 1.428 1_556 S
H344 C340 0.930 . S
H345 C342 0.929 . S
S346 N347 1.613 . S
S346 N348 1.610 . S
N347 S346 1.613 . S
N347 C350 1.350 . S
N348 S346 1.610 . S
N348 C349 1.351 . S
C349 C343 1.428 1_554 S
C349 N348 1.351 . S
C349 C350 1.434 . S
C350 C341 1.429 . S
C350 N347 1.350 . S
C350 C349 1.434 . S
C351 C352 1.369 . S
C351 C353 1.419 1_455 S
C351 H355 0.930 . S
C352 C351 1.369 . S
C352 C361 1.429 . S
C353 C351 1.419 1_655 S
C353 C354 1.363 . S
C353 H356 0.929 . S
C354 C353 1.363 . S
C354 C360 1.428 . S
H355 C351 0.930 . S
H356 C353 0.929 . S
S357 N358 1.639 . S
S357 N359 1.610 . S
N358 S357 1.639 . S
N358 C361 1.348 1_655 S
N359 S357 1.610 . S
N359 C360 1.351 . S
C360 C354 1.428 . S
C360 N359 1.351 . S
C360 C361 1.434 1_655 S
C361 C352 1.429 . S
C361 N358 1.348 1_455 S
C361 C360 1.434 1_455 S
C362 C363 1.369 1_556 S
C362 C364 1.419 . S
C362 H366 0.930 . S
C363 C362 1.369 1_554 S
C363 C372 1.429 1_455 S
C364 C362 1.419 . S
C364 C365 1.363 1_455 S
C364 H367 0.929 . S
C365 C364 1.363 1_655 S
C365 C371 1.428 1_556 S
H366 C362 0.930 . S
H367 C364 0.929 . S
S368 N369 1.613 . S
S368 N370 1.610 . S
N369 S368 1.613 . S
N369 C372 1.350 . S
N370 S368 1.610 . S
N370 C371 1.351 . S
C371 C365 1.428 1_554 S
C371 N370 1.351 . S
C371 C372 1.434 . S
C372 C363 1.429 1_655 S
C372 N369 1.350 . S
C372 C371 1.434 . S
C373 C374 1.369 . S
C373 C375 1.419 . S
C373 H377 0.930 . S
C374 C373 1.369 . S
C374 C383 1.429 . S
C375 C373 1.419 . S
C375 C376 1.363 . S
C375 H378 0.929 . S
C376 C375 1.363 . S
C376 C382 1.428 . S
H377 C373 0.930 . S
H378 C375 0.929 . S
S379 N380 1.613 . S
S379 N381 1.610 . S
N380 S379 1.613 . S
N380 C383 1.350 . S
N381 S379 1.610 . S
N381 C382 1.351 . S
C382 C376 1.428 . S
C382 N381 1.351 . S
C382 C383 1.434 . S
C383 C374 1.429 . S
C383 N380 1.350 . S
C383 C382 1.434 . S
C384 C385 1.369 . S
C384 C386 1.419 . S
C384 H388 0.930 . S
C385 C384 1.369 . S
C385 C394 1.429 . S
C386 C384 1.419 . S
C386 C387 1.363 . S
C386 H389 0.929 . S
C387 C386 1.363 . S
C387 C393 1.428 . S
H388 C384 0.930 . S
H389 C386 0.929 . S
S390 N391 1.613 . S
S390 N392 1.610 . S
N391 S390 1.613 . S
N391 C394 1.350 . S
N392 S390 1.610 . S
N392 C393 1.351 . S
C393 C387 1.428 . S
C393 N392 1.351 . S
C393 C394 1.434 . S
C394 C385 1.429 . S
C394 N391 1.350 . S
C394 C393 1.434 . S
C395 C396 1.369 . S
C395 C397 1.419 . S
C395 H399 0.930 . S
C396 C395 1.369 . S
C396 C405 1.429 . S
C397 C395 1.419 . S
C397 C398 1.363 . S
C397 H400 0.929 . S
C398 C397 1.363 . S
C398 C404 1.428 . S
H399 C395 0.930 . S
H400 C397 0.929 . S
S401 N402 1.613 . S
S401 N403 1.610 . S
N402 S401 1.613 . S
N402 C405 1.350 . S
N403 S401 1.610 . S
N403 C404 1.351 . S
C404 C398 1.428 . S
C404 N403 1.351 . S
C404 C405 1.434 . S
C405 C396 1.429 . S
C405 N402 1.350 . S
C405 C404 1.434 . S
C406 C407 1.369 . S
C406 C408 1.419 . S
C406 H410 0.930 . S
C407 C406 1.369 . S
C407 C416 1.429 . S
C408 C406 1.419 . S
C408 C409 1.363 . S
C408 H411 0.929 . S
C409 C408 1.363 . S
C409 C415 1.428 . S
H410 C406 0.930 . S
H411 C408 0.929 . S
S412 N413 1.613 . S
S412 N414 1.610 . S
N413 S412 1.613 . S
N413 C416 1.350 . S
N414 S412 1.610 . S
N414 C415 1.351 . S
C415 C409 1.428 . S
C415 N414 1.351 . S
C415 C416 1.434 . S
C416 C407 1.429 . S
C416 N413 1.350 . S
C416 C415 1.434 . S
C417 C418 1.369 . S
C417 C419 1.419 . S
C417 H421 0.930 1_556 S
C418 C417 1.369 . S
C418 C427 1.429 . S
C419 C417 1.419 . S
C419 C420 1.363 . S
C419 H422 0.929 . S
C420 C419 1.363 . S
C420 C426 1.428 . S
H421 C417 0.930 1_554 S
H422 C419 0.929 . S
S423 N424 1.613 . S
S423 N425 1.610 . S
N424 S423 1.613 . S
N424 C427 1.350 . S
N425 S423 1.610 . S
N425 C426 1.351 . S
C426 C420 1.428 . S
C426 N425 1.351 . S
C426 C427 1.434 . S
C427 C418 1.429 . S
C427 N424 1.350 . S
C427 C426 1.434 . S
C428 C429 1.369 . S
C428 C430 1.419 . S
C428 H432 0.930 . S
C429 C428 1.369 . S
C429 C438 1.429 . S
C430 C428 1.419 . S
C430 C431 1.363 . S
C430 H433 0.929 . S
C431 C430 1.363 . S
C431 C437 1.428 . S
H432 C428 0.930 . S
H433 C430 0.929 . S
S434 N435 1.613 . S
S434 N436 1.610 . S
N435 S434 1.613 . S
N435 C438 1.350 . S
N436 S434 1.610 . S
N436 C437 1.351 . S
C437 C431 1.428 . S
C437 N436 1.351 . S
C437 C438 1.434 . S
C438 C429 1.429 . S
C438 N435 1.350 . S
C438 C437 1.434 . S
C439 C440 1.369 . S
C439 C441 1.419 . S
C439 H443 0.930 . S
C440 C439 1.369 . S
C440 C449 1.429 . S
C441 C439 1.419 . S
C441 C442 1.363 . S
C441 H444 0.929 . S
C442 C441 1.363 . S
C442 C448 1.428 . S
H443 C439 0.930 . S
H444 C441 0.929 . S
S445 N446 1.613 . S
S445 N447 1.610 . S
N446 S445 1.613 . S
N446 C449 1.350 . S
N447 S445 1.610 . S
N447 C448 1.351 . S
C448 C442 1.428 . S
C448 N447 1.351 . S
C448 C449 1.434 . S
C449 C440 1.429 . S
C449 N446 1.350 . S
C449 C448 1.434 . S
C450 C451 1.369 . S
C450 C452 1.419 . S
C450 H454 0.930 . S
C451 C450 1.369 . S
C451 C460 1.429 . S
C452 C450 1.419 . S
C452 C453 1.363 . S
C452 H455 0.929 1_556 S
C453 C452 1.363 . S
C453 C459 1.428 . S
H454 C450 0.930 . S
H455 C452 0.929 1_554 S
S456 N457 1.613 . S
S456 N458 1.610 . S
N457 S456 1.613 . S
N457 C460 1.350 . S
N458 S456 1.610 . S
N458 C459 1.351 . S
C459 C453 1.428 . S
C459 N458 1.351 . S
C459 C460 1.434 . S
C460 C451 1.429 . S
C460 N457 1.350 . S
C460 C459 1.434 . S
C461 C462 1.369 . S
C461 C463 1.419 . S
C461 H465 0.930 1_554 S
C462 C461 1.369 . S
C462 C471 1.429 . S
C463 C461 1.419 . S
C463 C464 1.363 . S
C463 H466 0.929 . S
C464 C463 1.363 . S
C464 C470 1.428 . S
H465 C461 0.930 1_556 S
H466 C463 0.929 . S
S467 N468 1.613 . S
S467 N469 1.610 . S
N468 S467 1.613 . S
N468 C471 1.350 . S
N469 S467 1.610 . S
N469 C470 1.351 . S
C470 C464 1.428 . S
C470 N469 1.351 . S
C470 C471 1.434 . S
C471 C462 1.429 . S
C471 N468 1.350 . S
C471 C470 1.434 . S
C472 C473 1.369 . S
C472 C474 1.419 . S
C472 H476 0.930 . S
C473 C472 1.369 . S
C473 C482 1.429 . S
C474 C472 1.419 . S
C474 C475 1.363 . S
C474 H477 0.929 . S
C475 C474 1.363 . S
C475 C481 1.428 . S
H476 C472 0.930 . S
H477 C474 0.929 . S
S478 N479 1.613 . S
S478 N480 1.610 1_554 S
N479 S478 1.613 . S
N479 C482 1.350 1_554 S
N480 S478 1.610 1_556 S
N480 C481 1.351 . S
C481 C475 1.428 . S
C481 N480 1.351 . S
C481 C482 1.434 . S
C482 C473 1.429 . S
C482 N479 1.350 1_556 S
C482 C481 1.434 . S
C483 C484 1.369 . S
C483 C485 1.419 . S
C483 H487 0.930 . S
C484 C483 1.369 . S
C484 C493 1.429 . S
C485 C483 1.419 . S
C485 C486 1.363 . S
C485 H488 0.929 . S
C486 C485 1.363 . S
C486 C492 1.428 . S
H487 C483 0.930 . S
H488 C485 0.929 . S
S489 N490 1.613 . S
S489 N491 1.610 . S
N490 S489 1.613 . S
N490 C493 1.350 . S
N491 S489 1.610 . S
N491 C492 1.351 . S
C492 C486 1.428 . S
C492 N491 1.351 . S
C492 C493 1.434 . S
C493 C484 1.429 . S
C493 N490 1.350 . S
C493 C492 1.434 . S
C494 C495 1.369 . S
C494 C496 1.419 . S
C494 H498 0.930 . S
C495 C494 1.369 . S
C495 C504 1.429 . S
C496 C494 1.419 . S
C496 C497 1.363 . S
C496 H499 0.929 . S
C497 C496 1.363 . S
C497 C503 1.428 . S
H498 C494 0.930 . S
H499 C496 0.929 . S
S500 N501 1.613 . S
S500 N502 1.610 . S
N501 S500 1.613 . S
N501 C504 1.350 . S
N502 S500 1.610 . S
N502 C503 1.351 . S
C503 C497 1.428 . S
C503 N502 1.351 . S
C503 C504 1.434 . S
C504 C495 1.429 . S
C504 N501 1.350 . S
C504 C503 1.434 . S
C505 C506 1.369 . S
C505 C507 1.419 . S
C505 H509 0.930 . S
C506 C505 1.369 . S
C506 C515 1.429 . S
C507 C505 1.419 . S
C507 C508 1.363 . S
C507 H510 0.929 . S
C508 C507 1.363 . S
C508 C514 1.428 . S
H509 C505 0.930 . S
H510 C507 0.929 . S
S511 N512 1.613 . S
S511 N513 1.610 . S
N512 S511 1.613 . S
N512 C515 1.350 . S
N513 S511 1.610 . S
N513 C514 1.351 . S
C514 C508 1.428 . S
C514 N513 1.351 . S
C514 C515 1.434 . S
C515 C506 1.429 . S
C515 N512 1.350 . S
C515 C514 1.434 . S
C516 C517 1.369 . S
C516 C518 1.419 . S
C516 H520 0.930 . S
C517 C516 1.369 . S
C517 C526 1.429 . S
C518 C516 1.419 . S
C518 C519 1.363 . S
C518 H521 0.929 . S
C519 C518 1.363 . S
C519 C525 1.428 . S
H520 C516 0.930 . S
H521 C518 0.929 . S
S522 N523 1.613 . S
S522 N524 1.610 . S
N523 S522 1.613 . S
N523 C526 1.350 . S
N524 S522 1.610 . S
N524 C525 1.351 . S
C525 C519 1.428 . S
C525 N524 1.351 . S
C525 C526 1.434 . S
C526 C517 1.429 . S
C526 N523 1.350 . S
C526 C525 1.434 . S
C527 C528 1.369 . S
C527 C529 1.419 . S
C527 H531 0.930 . S
C528 C527 1.369 . S
C528 C537 1.429 . S
C529 C527 1.419 . S
C529 C530 1.363 . S
C529 H532 0.929 . S
C530 C529 1.363 . S
C530 C536 1.428 . S
H531 C527 0.930 . S
H532 C529 0.929 . S
S533 N534 1.613 . S
S533 N535 1.610 . S
N534 S533 1.613 . S
N534 C537 1.350 . S
N535 S533 1.610 . S
N535 C536 1.351 . S
C536 C530 1.428 . S
C536 N535 1.351 . S
C536 C537 1.434 . S
C537 C528 1.429 . S
C537 N534 1.350 . S
C537 C536 1.434 . S
C538 C539 1.369 . S
C538 C540 1.419 . S
C538 H542 0.930 . S
C539 C538 1.369 . S
C539 C548 1.429 . S
C540 C538 1.419 . S
C540 C541 1.363 . S
C540 H543 0.929 . S
C541 C540 1.363 . S
C541 C547 1.428 . S
H542 C538 0.930 . S
H543 C540 0.929 . S
S544 N545 1.613 . S
S544 N546 1.610 . S
N545 S544 1.613 . S
N545 C548 1.350 . S
N546 S544 1.610 . S
N546 C547 1.351 . S
C547 C541 1.428 . S
C547 N546 1.351 . S
C547 C548 1.434 . S
C548 C539 1.429 . S
C548 N545 1.350 . S
C548 C547 1.434 . S
C549 C550 1.369 . S
C549 C551 1.419 . S
C549 H553 0.930 . S
C550 C549 1.369 . S
C550 C559 1.429 . S
C551 C549 1.419 . S
C551 C552 1.363 . S
C551 H554 0.929 . S
C552 C551 1.363 . S
C552 C558 1.428 . S
H553 C549 0.930 . S
H554 C551 0.929 . S
S555 N556 1.613 . S
S555 N557 1.610 1_554 S
N556 S555 1.613 . S
N556 C559 1.350 1_554 S
N557 S555 1.610 1_556 S
N557 C558 1.351 . S
C558 C552 1.428 . S
C558 N557 1.351 . S
C558 C559 1.434 . S
C559 C550 1.429 . S
C559 N556 1.350 1_556 S
C559 C558 1.434 . S
C209 C5 1.473 . S
C211 C161 1.474 . S
C220 C16 1.474 . S
C222 C70 1.474 1_565 S
C231 C31 1.473 . S
C233 C187 1.476 . S
C242 C96 1.475 . S
C244 C44 1.473 1_565 S
C253 C185 1.473 . S
C255 C29 1.474 . S
C264 C94 1.473 1_565 S
C266 C42 1.475 . S
C275 C159 1.475 . S
C277 C3 1.475 . S
C286 C68 1.473 . S
C288 C18 1.475 1_565 S
C297 C55 1.473 . S
C299 C109 1.476 . S
C308 C83 1.473 . S
C310 C135 1.474 . S
C319 C133 1.475 . S
C321 C81 1.475 . S
C330 C57 1.473 . S
C332 C107 1.474 . S
C341 C172 1.474 . S
C343 C120 1.475 . S
C352 C146 1.474 . S
C354 C198 1.475 . S
C363 C148 1.473 . S
C365 C200 1.475 . S
C374 C122 1.473 . S
C376 C174 1.475 . S
C385 C153 1.544 . S
C387 C10 1.544 . S
C396 C108 1.544 . S
C398 C17 1.547 . S
C407 C36 1.543 . S
C409 C127 1.544 . S
C418 C134 1.543 . S
C420 C49 1.542 . S
C429 C147 1.544 . S
C431 C30 1.544 . S
C440 C43 1.544 . S
C442 C114 1.546 . S
C451 C121 1.544 . S
C453 C4 1.544 . S
C462 C140 1.543 . S
C464 C23 1.541 . S
C473 C56 1.544 . S
C475 C205 1.544 . S
C484 C160 1.543 . S
C486 C75 1.541 . S
C495 C88 1.544 . S
C497 C179 1.544 . S
C506 C101 1.544 . S
C508 C186 1.546 . S
C517 C82 1.543 . S
C519 C199 1.544 . S
C528 C166 1.544 . S
C530 C95 1.541 . S
C539 C173 1.544 . S
C541 C62 1.543 . S
C550 C192 1.544 . S
C552 C69 1.547 . S
