# Generated by pormake.
# Topology ftb, (5)-cn, num edge types: 1
# Building blocks:
#     Node 0, Type 0, BuildingBlock: BEQFEK_clean_sbu_0, # of connection points: 5
#     Node 1, Type 0, BuildingBlock: BEQFEK_clean_sbu_0, # of connection points: 5
#     Node 2, Type 0, BuildingBlock: BEQFEK_clean_sbu_0, # of connection points: 5
#     Node 3, Type 0, BuildingBlock: BEQFEK_clean_sbu_0, # of connection points: 5
#     Node 4, Type 0, BuildingBlock: BEQFEK_clean_sbu_0, # of connection points: 5
#     Node 5, Type 0, BuildingBlock: BEQFEK_clean_sbu_0, # of connection points: 5
#     Node 6, Type 0, BuildingBlock: BEQFEK_clean_sbu_0, # of connection points: 5
#     Node 7, Type 0, BuildingBlock: BEQFEK_clean_sbu_0, # of connection points: 5
#     Edge 8, Type (0, 0), BuildingBlock: ZUJKAS_clean_linker_0, # of connection points: 2
#     Edge 9, Type (0, 0), BuildingBlock: ZUJKAS_clean_linker_0, # of connection points: 2
#     Edge 10, Type (0, 0), BuildingBlock: ZUJKAS_clean_linker_0, # of connection points: 2
#     Edge 11, Type (0, 0), BuildingBlock: ZUJKAS_clean_linker_0, # of connection points: 2
#     Edge 12, Type (0, 0), BuildingBlock: ZUJKAS_clean_linker_0, # of connection points: 2
#     Edge 13, Type (0, 0), BuildingBlock: ZUJKAS_clean_linker_0, # of connection points: 2
#     Edge 14, Type (0, 0), BuildingBlock: ZUJKAS_clean_linker_0, # of connection points: 2
#     Edge 15, Type (0, 0), BuildingBlock: ZUJKAS_clean_linker_0, # of connection points: 2
#     Edge 16, Type (0, 0), BuildingBlock: ZUJKAS_clean_linker_0, # of connection points: 2
#     Edge 17, Type (0, 0), BuildingBlock: ZUJKAS_clean_linker_0, # of connection points: 2
#     Edge 18, Type (0, 0), BuildingBlock: ZUJKAS_clean_linker_0, # of connection points: 2
#     Edge 19, Type (0, 0), BuildingBlock: ZUJKAS_clean_linker_0, # of connection points: 2
#     Edge 20, Type (0, 0), BuildingBlock: ZUJKAS_clean_linker_0, # of connection points: 2
#     Edge 21, Type (0, 0), BuildingBlock: ZUJKAS_clean_linker_0, # of connection points: 2
#     Edge 22, Type (0, 0), BuildingBlock: ZUJKAS_clean_linker_0, # of connection points: 2
#     Edge 23, Type (0, 0), BuildingBlock: ZUJKAS_clean_linker_0, # of connection points: 2
#     Edge 24, Type (0, 0), BuildingBlock: ZUJKAS_clean_linker_0, # of connection points: 2
#     Edge 25, Type (0, 0), BuildingBlock: ZUJKAS_clean_linker_0, # of connection points: 2
#     Edge 26, Type (0, 0), BuildingBlock: ZUJKAS_clean_linker_0, # of connection points: 2
#     Edge 27, Type (0, 0), BuildingBlock: ZUJKAS_clean_linker_0, # of connection points: 2
# Relax obj value: 0.145
# Max RMSD: 0.206
# Mean RMSD: 0.206
data_MOF--net-ftb--node1-BEQFEK_clean_sbu_0--edge1-ZUJKAS_clean_linker_0
_symmetry_space_group_name_H-M    P1
_symmetry_Int_Tables_number       1
_symmetry_cell_setting            triclinic
loop_
_symmetry_equiv_pos_as_xyz
'x, y, z'
_cell_length_a     71.403589
_cell_length_b     19.612682
_cell_length_c     43.805421
_cell_angle_alpha  90.006577
_cell_angle_beta   93.153489
_cell_angle_gamma 90.022233
loop_
_atom_site_label
_atom_site_type_symbol
_atom_site_fract_x
_atom_site_fract_y
_atom_site_fract_z
_atom_type_partial_charge
Co0 Co 0.35334 0.05738 0.07367 0.0
Co1 Co 0.35504 0.00374 0.00607 0.0
C2 C 0.34542 0.91049 0.05612 0.0
O3 O 0.34717 0.95938 0.07524 0.0
O4 O 0.3484 0.91904 0.02791 0.0
C5 C 0.36289 0.05862 0.13855 0.0
O6 O 0.36832 0.99552 0.13426 0.0
C7 C 0.36005 0.93037 0.94762 0.0
C8 C 0.36353 0.01789 0.91663 0.0
C9 C 0.36281 0.94737 0.91735 0.0
N10 N 0.35912 0.98841 0.96387 0.0
N11 N 0.36118 0.04037 0.94515 0.0
C12 C 0.3593 0.86064 0.96132 0.0
H13 H 0.36651 0.86069 0.9844 0.0
H14 H 0.36598 0.82236 0.94677 0.0
H15 H 0.34443 0.84624 0.96378 0.0
C16 C 0.39162 0.10118 0.06216 0.0
N17 N 0.37523 0.07211 0.05292 0.0
N18 N 0.37648 0.04714 0.02524 0.0
C19 C 0.39401 0.05815 0.01626 0.0
C20 C 0.40411 0.09302 0.03935 0.0
C21 C 0.39512 0.13697 0.09212 0.0
H22 H 0.38266 0.16764 0.0974 0.0
H23 H 0.39761 0.0985 0.11045 0.0
H24 H 0.40751 0.17108 0.09176 0.0
O25 O 0.33188 0.10386 0.05317 0.0
O26 O 0.33243 0.06289 0.00601 0.0
H27 H 0.3978 0.06544 0.96838 0.0
H28 H 0.41695 0.02472 0.9897 0.0
C29 C 0.40146 0.03013 0.98756 0.0
H30 H 0.3951 0.97966 0.98222 0.0
H31 H 0.36096 0.09138 0.95191 0.0
O32 O 0.35617 0.09304 0.11593 0.0
C33 C 0.32483 0.09936 0.02595 0.0
Co34 Co 0.65061 0.06097 0.03659 0.0
Co35 Co 0.64864 0.99818 0.10248 0.0
C36 C 0.65309 0.90896 0.04901 0.0
O37 O 0.65296 0.9612 0.0317 0.0
O38 O 0.65119 0.91443 0.07769 0.0
C39 C 0.63835 0.07578 0.9734 0.0
O40 O 0.62822 0.02144 0.9785 0.0
C41 C 0.64399 0.91995 0.15989 0.0
C42 C 0.64257 0.00507 0.19277 0.0
C43 C 0.64216 0.93464 0.19068 0.0
N44 N 0.6451 0.97925 0.1446 0.0
N45 N 0.64436 0.02971 0.16447 0.0
C46 C 0.64657 0.85154 0.1456 0.0
H47 H 0.6576 0.85463 0.12883 0.0
H48 H 0.63327 0.83601 0.13324 0.0
H49 H 0.65071 0.81236 0.16292 0.0
C50 C 0.61391 0.11695 0.05208 0.0
N51 N 0.62984 0.08261 0.05946 0.0
N52 N 0.62842 0.05293 0.08618 0.0
C53 C 0.61119 0.06524 0.09603 0.0
C54 C 0.60151 0.10668 0.07487 0.0
C55 C 0.6098 0.1521 0.02213 0.0
H56 H 0.605 0.11385 0.00477 0.0
H57 H 0.59858 0.19075 0.02379 0.0
H58 H 0.62262 0.17739 0.01455 0.0
O59 O 0.6739 0.09504 0.05693 0.0
O60 O 0.67305 0.04689 0.10265 0.0
H61 H 0.60942 0.0623 0.14446 0.0
H62 H 0.58819 0.03708 0.1239 0.0
C63 C 0.60369 0.03411 0.1241 0.0
H64 H 0.6082 0.98011 0.1262 0.0
H65 H 0.64523 0.08119 0.15868 0.0
O66 O 0.64859 0.10136 0.99513 0.0
C67 C 0.68131 0.08329 0.08346 0.0
Co68 Co 0.35028 0.57999 0.56552 0.0
Co69 Co 0.34943 0.51884 0.49887 0.0
C70 C 0.34256 0.43161 0.55285 0.0
O71 O 0.34452 0.48258 0.57075 0.0
O72 O 0.34466 0.43733 0.52425 0.0
C73 C 0.34497 0.60416 0.62851 0.0
O74 O 0.33142 0.55953 0.62352 0.0
C75 C 0.35815 0.43855 0.44371 0.0
C76 C 0.34436 0.50302 0.40772 0.0
C77 C 0.35408 0.44252 0.41234 0.0
N78 N 0.35106 0.49425 0.45688 0.0
N79 N 0.34301 0.53273 0.43515 0.0
C80 C 0.3675 0.38101 0.461 0.0
H81 H 0.36518 0.38467 0.48572 0.0
H82 H 0.38282 0.38323 0.45812 0.0
H83 H 0.36222 0.33139 0.45186 0.0
C84 C 0.38793 0.62127 0.54872 0.0
N85 N 0.37123 0.59189 0.54177 0.0
N86 N 0.37097 0.56774 0.51373 0.0
C87 C 0.3875 0.58204 0.50169 0.0
C88 C 0.39878 0.61657 0.52346 0.0
C89 C 0.39384 0.6466 0.58005 0.0
H90 H 0.38987 0.60871 0.59734 0.0
H91 H 0.40917 0.6554 0.58286 0.0
H92 H 0.38634 0.69484 0.58447 0.0
O93 O 0.32768 0.62316 0.54611 0.0
O94 O 0.32668 0.57591 0.50002 0.0
H95 H 0.3805 0.57791 0.45357 0.0
H96 H 0.40519 0.58964 0.46321 0.0
C97 C 0.39225 0.56354 0.46989 0.0
H98 H 0.39425 0.50758 0.46848 0.0
H99 H 0.33619 0.57859 0.43913 0.0
O100 O 0.35492 0.62121 0.60657 0.0
C101 C 0.31964 0.61446 0.51973 0.0
Co102 Co 0.64386 0.56735 0.53722 0.0
Co103 Co 0.64249 0.51521 0.60512 0.0
C104 C 0.65036 0.42019 0.55438 0.0
O105 O 0.64884 0.46885 0.53517 0.0
O106 O 0.6481 0.42983 0.58275 0.0
C107 C 0.63674 0.56816 0.47175 0.0
O108 O 0.63315 0.50303 0.47528 0.0
C109 C 0.63616 0.43854 0.66191 0.0
C110 C 0.63593 0.52275 0.69544 0.0
C111 C 0.63432 0.4527 0.69266 0.0
N112 N 0.63869 0.49776 0.6472 0.0
N113 N 0.63865 0.54774 0.66744 0.0
C114 C 0.6348 0.37058 0.64646 0.0
H115 H 0.64912 0.35269 0.6419 0.0
H116 H 0.62672 0.37546 0.6242 0.0
H117 H 0.62796 0.33239 0.66087 0.0
C118 C 0.6059 0.61347 0.54927 0.0
N119 N 0.62226 0.58423 0.55848 0.0
N120 N 0.62128 0.56161 0.58662 0.0
C121 C 0.60404 0.57542 0.59618 0.0
C122 C 0.5938 0.60921 0.57289 0.0
C123 C 0.60147 0.63796 0.5173 0.0
H124 H 0.61166 0.67808 0.51157 0.0
H125 H 0.60301 0.59489 0.50123 0.0
H126 H 0.58703 0.65824 0.51399 0.0
O127 O 0.66596 0.61117 0.55757 0.0
O128 O 0.66548 0.5719 0.60503 0.0
H129 H 0.6052 0.58794 0.64459 0.0
H130 H 0.58234 0.56563 0.6288 0.0
C131 C 0.59755 0.5565 0.62698 0.0
H132 H 0.60078 0.5021 0.63178 0.0
H133 H 0.64048 0.59905 0.66208 0.0
O134 O 0.64127 0.60434 0.49509 0.0
C135 C 0.67317 0.60695 0.58472 0.0
Co136 Co 0.84586 0.08079 0.56155 0.0
Co137 Co 0.84653 0.01648 0.49599 0.0
C138 C 0.83813 0.93115 0.54909 0.0
O139 O 0.83984 0.98318 0.56643 0.0
O140 O 0.84066 0.93517 0.52056 0.0
C141 C 0.85426 0.08752 0.62618 0.0
O142 O 0.85873 0.02304 0.62303 0.0
C143 C 0.85137 0.93254 0.44088 0.0
C144 C 0.85181 0.01275 0.40547 0.0
C145 C 0.85257 0.94282 0.40966 0.0
N146 N 0.84985 0.99372 0.45438 0.0
N147 N 0.85013 0.04135 0.43307 0.0
C148 C 0.85253 0.86647 0.45792 0.0
H149 H 0.86047 0.87366 0.48018 0.0
H150 H 0.85948 0.8266 0.44458 0.0
H151 H 0.83815 0.8493 0.46254 0.0
C152 C 0.8846 0.11637 0.54829 0.0
N153 N 0.86758 0.09132 0.53973 0.0
N154 N 0.86826 0.06193 0.51283 0.0
C155 C 0.88595 0.06589 0.50372 0.0
C156 C 0.89683 0.10099 0.52578 0.0
C157 C 0.88952 0.1459 0.57921 0.0
H158 H 0.88951 0.10458 0.59649 0.0
H159 H 0.90355 0.1703 0.58034 0.0
H160 H 0.87882 0.18409 0.58496 0.0
O161 O 0.82407 0.12446 0.5405 0.0
O162 O 0.82377 0.07478 0.495 0.0
H163 H 0.8862 0.05918 0.45513 0.0
H164 H 0.90802 0.0348 0.47455 0.0
C165 C 0.89254 0.03261 0.47549 0.0
H166 H 0.88781 0.97872 0.47459 0.0
H167 H 0.84905 0.09347 0.43741 0.0
O168 O 0.84886 0.12188 0.60272 0.0
C169 C 0.8165 0.1148 0.5139 0.0
Co170 Co 0.14424 0.06707 0.53791 0.0
Co171 Co 0.14612 0.00667 0.60431 0.0
C172 C 0.15156 0.91773 0.551 0.0
O173 O 0.14944 0.96879 0.53316 0.0
O174 O 0.15013 0.92374 0.57976 0.0
C175 C 0.1495 0.08933 0.47528 0.0
O176 O 0.16325 0.04585 0.48099 0.0
C177 C 0.14026 0.92616 0.65988 0.0
C178 C 0.14704 0.00303 0.69572 0.0
C179 C 0.14166 0.93569 0.69137 0.0
N180 N 0.14472 0.98514 0.64642 0.0
N181 N 0.14876 0.03078 0.66796 0.0
C182 C 0.1338 0.86386 0.64263 0.0
H183 H 0.12667 0.87849 0.62045 0.0
H184 H 0.12409 0.83332 0.65608 0.0
H185 H 0.14616 0.83212 0.63786 0.0
C186 C 0.10664 0.1062 0.55517 0.0
N187 N 0.12376 0.08042 0.56223 0.0
N188 N 0.12421 0.05426 0.58989 0.0
C189 C 0.1072 0.06219 0.60132 0.0
C190 C 0.09553 0.09561 0.57975 0.0
C191 C 0.10051 0.1315 0.52394 0.0
H192 H 0.10929 0.17585 0.51814 0.0
H193 H 0.1028 0.09086 0.50692 0.0
H194 H 0.08553 0.14654 0.52226 0.0
O195 O 0.16717 0.1102 0.55588 0.0
O196 O 0.16929 0.06167 0.60171 0.0
H197 H 0.11158 0.0557 0.64989 0.0
H198 H 0.08733 0.04852 0.63651 0.0
C199 C 0.10192 0.03478 0.63155 0.0
H200 H 0.10343 0.97851 0.63164 0.0
H201 H 0.1527 0.08097 0.66367 0.0
O202 O 0.13921 0.10635 0.49677 0.0
C203 C 0.17588 0.1003 0.58159 0.0
Co204 Co 0.84406 0.56577 0.06483 0.0
Co205 Co 0.84733 0.50611 0.99888 0.0
C206 C 0.8412 0.41437 0.05062 0.0
O207 O 0.84109 0.46584 0.06838 0.0
O208 O 0.84375 0.42091 0.02218 0.0
C209 C 0.83668 0.57996 0.12769 0.0
O210 O 0.82495 0.5296 0.12145 0.0
C211 C 0.84948 0.43264 0.94019 0.0
C212 C 0.85877 0.51573 0.91044 0.0
C213 C 0.85395 0.44732 0.9104 0.0
N214 N 0.85189 0.48961 0.95704 0.0
N215 N 0.85732 0.53906 0.93905 0.0
C216 C 0.84117 0.36831 0.95188 0.0
H217 H 0.83069 0.38059 0.96882 0.0
H218 H 0.85244 0.33728 0.96345 0.0
H219 H 0.83426 0.33806 0.93304 0.0
C220 C 0.88194 0.61364 0.05425 0.0
N221 N 0.86563 0.58546 0.04403 0.0
N222 N 0.86771 0.55679 0.0173 0.0
C223 C 0.88574 0.56391 0.01011 0.0
C224 C 0.8953 0.60065 0.03321 0.0
C225 C 0.88486 0.64825 0.08459 0.0
H226 H 0.87288 0.68268 0.08832 0.0
H227 H 0.88543 0.60924 0.10298 0.0
H228 H 0.89806 0.67827 0.08596 0.0
O229 O 0.82144 0.6033 0.04375 0.0
O230 O 0.82314 0.55663 0.99787 0.0
H231 H 0.89407 0.55886 0.96407 0.0
H232 H 0.90923 0.51297 0.9909 0.0
C233 C 0.89439 0.52608 0.98472 0.0
H234 H 0.88652 0.47848 0.97931 0.0
H235 H 0.85982 0.58916 0.94629 0.0
O236 O 0.84627 0.60386 0.10657 0.0
C237 C 0.81457 0.59288 0.01676 0.0
Co238 Co 0.14741 0.56205 0.03539 0.0
Co239 Co 0.14552 0.50706 0.10254 0.0
C240 C 0.1558 0.4152 0.05264 0.0
O241 O 0.15412 0.46443 0.0337 0.0
O242 O 0.15259 0.42305 0.08079 0.0
C243 C 0.14124 0.56097 0.96983 0.0
O244 O 0.13914 0.4949 0.97316 0.0
C245 C 0.14032 0.43215 0.16026 0.0
C246 C 0.13592 0.51832 0.19162 0.0
C247 C 0.13708 0.44792 0.19045 0.0
N248 N 0.14112 0.49077 0.14444 0.0
N249 N 0.1385 0.54195 0.16336 0.0
C250 C 0.14151 0.36296 0.14612 0.0
H251 H 0.13423 0.36313 0.12309 0.0
H252 H 0.1351 0.32353 0.16042 0.0
H253 H 0.15646 0.35006 0.14347 0.0
C254 C 0.1083 0.59751 0.04528 0.0
N255 N 0.12515 0.57381 0.05548 0.0
N256 N 0.1239 0.54815 0.08301 0.0
C257 C 0.10598 0.5533 0.09097 0.0
C258 C 0.09553 0.58498 0.06732 0.0
C259 C 0.10451 0.63015 0.01467 0.0
H260 H 0.11606 0.66577 0.00991 0.0
H261 H 0.10391 0.59009 0.99676 0.0
H262 H 0.09106 0.6586 0.01363 0.0
O263 O 0.16851 0.61015 0.05635 0.0
O264 O 0.16793 0.56736 0.10316 0.0
H265 H 0.10142 0.5549 0.13873 0.0
H266 H 0.08325 0.51178 0.116 0.0
C267 C 0.09859 0.5208 0.11881 0.0
H268 H 0.10577 0.47149 0.1235 0.0
H269 H 0.13846 0.59317 0.1569 0.0
O270 O 0.14469 0.59804 0.99326 0.0
C271 C 0.17548 0.60498 0.08359 0.0
H272 H 0.38533 0.36278 0.40503 0.0
H273 H 0.39049 0.28341 0.363 0.0
H274 H 0.33572 0.33158 0.32238 0.0
H275 H 0.33034 0.40975 0.36439 0.0
H276 H 0.34559 0.18623 0.32509 0.0
H277 H 0.39885 0.35241 0.27374 0.0
H278 H 0.40221 0.33137 0.31367 0.0
H279 H 0.38291 0.38453 0.30092 0.0
C280 C 0.37424 0.3553 0.38753 0.0
C281 C 0.35734 0.39187 0.38818 0.0
C282 C 0.3773 0.31055 0.36338 0.0
C283 C 0.36349 0.30194 0.33962 0.0
C284 C 0.34651 0.33747 0.34056 0.0
H285 H 0.35466 0.18955 0.15394 0.0
H286 H 0.35699 0.24147 0.20461 0.0
C287 C 0.34351 0.38232 0.36449 0.0
C288 C 0.36671 0.25808 0.31296 0.0
H289 H 0.38919 0.25467 0.24622 0.0
C290 C 0.35534 0.20032 0.30804 0.0
C291 C 0.37933 0.27731 0.29075 0.0
C292 C 0.3915 0.33994 0.29474 0.0
C293 C 0.35581 0.16243 0.2809 0.0
C294 C 0.36807 0.18277 0.25831 0.0
C295 C 0.37989 0.23917 0.26371 0.0
C296 C 0.36744 0.15056 0.22773 0.0
C297 C 0.34252 0.10314 0.2759 0.0
C298 C 0.37274 0.08234 0.22393 0.0
C299 C 0.37139 0.05229 0.1949 0.0
C300 C 0.36473 0.09014 0.16926 0.0
C301 C 0.35975 0.1588 0.17319 0.0
C302 C 0.36113 0.18869 0.20212 0.0
H303 H 0.33194 0.10076 0.29354 0.0
H304 H 0.33507 0.10659 0.25301 0.0
H305 H 0.35061 0.05483 0.27678 0.0
H306 H 0.37788 0.05237 0.2434 0.0
H307 H 0.37544 -0.00059 0.19261 0.0
H308 H 0.62332 0.81229 0.19303 0.0
H309 H 0.62044 0.73883 0.23794 0.0
H310 H 0.65361 0.88105 0.293 0.0
H311 H 0.65704 0.95358 0.24825 0.0
H312 H 0.65627 0.6931 0.28468 0.0
H313 H 0.59774 0.84358 0.32989 0.0
H314 H 0.60151 0.83806 0.28949 0.0
H315 H 0.61673 0.88957 0.31387 0.0
C316 C 0.63042 0.82695 0.2145 0.0
C317 C 0.64077 0.88793 0.21699 0.0
C318 C 0.62859 0.78534 0.24014 0.0
C319 C 0.63685 0.80476 0.26859 0.0
C320 C 0.64716 0.86542 0.27114 0.0
H321 H 0.64326 0.70095 0.45696 0.0
H322 H 0.64212 0.75218 0.40612 0.0
C323 C 0.64907 0.90674 0.24559 0.0
C324 C 0.63453 0.76293 0.2961 0.0
H325 H 0.61206 0.76096 0.3628 0.0
C326 C 0.64643 0.70699 0.30164 0.0
C327 C 0.62175 0.78192 0.31804 0.0
C328 C 0.60858 0.84135 0.31267 0.0
C329 C 0.64641 0.67094 0.32935 0.0
C330 C 0.63391 0.69098 0.35169 0.0
C331 C 0.62161 0.74573 0.34562 0.0
C332 C 0.63424 0.65895 0.38232 0.0
C333 C 0.66035 0.61393 0.33508 0.0
C334 C 0.62995 0.58966 0.3858 0.0
C335 C 0.63066 0.56004 0.41489 0.0
C336 C 0.63556 0.59941 0.44097 0.0
C337 C 0.63951 0.66909 0.43737 0.0
C338 C 0.63883 0.69852 0.40833 0.0
H339 H 0.67149 0.61435 0.31835 0.0
H340 H 0.66706 0.61752 0.3585 0.0
H341 H 0.65293 0.56428 0.33307 0.0
H342 H 0.62603 0.55855 0.36604 0.0
H343 H 0.62742 0.50633 0.4169 0.0
H344 H 0.37106 0.70077 0.64612 0.0
H345 H 0.37634 0.75233 0.69676 0.0
H346 H 0.33216 0.62853 0.73086 0.0
H347 H 0.32684 0.57636 0.68044 0.0
H348 H 0.34945 0.82506 0.72882 0.0
H349 H 0.3761 0.60001 0.79469 0.0
H350 H 0.37547 0.60352 0.75344 0.0
H351 H 0.35442 0.58621 0.77275 0.0
C352 C 0.36254 0.68415 0.66444 0.0
C353 C 0.34852 0.63445 0.65925 0.0
C354 C 0.3656 0.71362 0.69334 0.0
C355 C 0.35482 0.69352 0.71762 0.0
C356 C 0.34088 0.64376 0.71257 0.0
H357 H 0.34189 0.83333 0.90279 0.0
H358 H 0.34115 0.76934 0.8547 0.0
C359 C 0.33777 0.61437 0.68367 0.0
C360 C 0.35742 0.72741 0.74777 0.0
H361 H 0.36866 0.69828 0.82345 0.0
C362 C 0.35379 0.79753 0.74949 0.0
C363 C 0.36296 0.69112 0.77466 0.0
C364 C 0.36763 0.61615 0.7739 0.0
C365 C 0.35517 0.83221 0.77752 0.0
C366 C 0.36073 0.796 0.80447 0.0
C367 C 0.36443 0.72586 0.80275 0.0
C368 C 0.36255 0.83027 0.83464 0.0
C369 C 0.35013 0.90694 0.77812 0.0
C370 C 0.37524 0.88425 0.83962 0.0
C371 C 0.37571 0.92068 0.86704 0.0
C372 C 0.36376 0.90299 0.8902 0.0
C373 C 0.35159 0.8471 0.88569 0.0
C374 C 0.35105 0.81087 0.85813 0.0
H375 H 0.34156 0.92237 0.75732 0.0
H376 H 0.34223 0.91937 0.79854 0.0
H377 H 0.36318 0.93778 0.7791 0.0
H378 H 0.3845 0.89918 0.82202 0.0
H379 H 0.38524 0.96349 0.86995 0.0
H380 H 0.61041 0.46378 0.7383 0.0
H381 H 0.6093 0.39268 0.7841 0.0
H382 H 0.65369 0.26688 0.75184 0.0
H383 H 0.65427 0.33643 0.70541 0.0
H384 H 0.62842 0.19051 0.77856 0.0
H385 H 0.64757 0.4096 0.85375 0.0
H386 H 0.6262 0.42402 0.83129 0.0
H387 H 0.64794 0.41458 0.81271 0.0
C388 C 0.61973 0.42033 0.74087 0.0
C389 C 0.63236 0.40524 0.71838 0.0
C390 C 0.61921 0.38013 0.76711 0.0
C391 C 0.63175 0.32552 0.77179 0.0
C392 C 0.64392 0.30891 0.74877 0.0
H393 H 0.66384 0.16244 0.95046 0.0
H394 H 0.66228 0.21824 0.90058 0.0
C395 C 0.6442 0.34842 0.72222 0.0
C396 C 0.63266 0.28732 0.80109 0.0
H397 H 0.6386 0.30793 0.87837 0.0
C398 C 0.63071 0.21608 0.8004 0.0
C399 C 0.63602 0.32061 0.82956 0.0
C400 C 0.63975 0.39628 0.83192 0.0
C401 C 0.63185 0.17727 0.82741 0.0
C402 C 0.63441 0.21094 0.85594 0.0
C403 C 0.63646 0.28212 0.85655 0.0
C404 C 0.63559 0.1737 0.88551 0.0
C405 C 0.63084 0.1006 0.82494 0.0
C406 C 0.62111 0.13 0.89374 0.0
C407 C 0.62214 0.09702 0.9221 0.0
C408 C 0.63745 0.10853 0.94301 0.0
C409 C 0.65183 0.15273 0.93485 0.0
C410 C 0.65096 0.18465 0.90634 0.0
H411 H 0.63469 0.08264 0.80206 0.0
H412 H 0.64027 0.07571 0.84259 0.0
H413 H 0.61625 0.08375 0.82823 0.0
H414 H 0.60884 0.12228 0.87849 0.0
H415 H 0.61075 0.06383 0.92793 0.0
H416 H 0.86435 0.02857 0.68131 0.0
H417 H 0.86387 0.08086 0.73206 0.0
H418 H 0.84518 0.27047 0.69096 0.0
H419 H 0.84548 0.21884 0.64028 0.0
H420 H 0.8833 0.19933 0.75489 0.0
H421 H 0.80604 0.22965 0.7545 0.0
H422 H 0.81727 0.17396 0.72823 0.0
H423 H 0.81629 0.26429 0.72132 0.0
C424 C 0.86015 0.08142 0.68307 0.0
C425 C 0.85482 0.11943 0.65679 0.0
C426 C 0.85989 0.11112 0.71206 0.0
C427 C 0.85417 0.17903 0.7152 0.0
C428 C 0.84926 0.21751 0.689 0.0
H429 H 0.84384 0.48308 0.85208 0.0
H430 H 0.84402 0.41214 0.80623 0.0
C431 C 0.84954 0.188 0.66006 0.0
C432 C 0.85353 0.2104 0.7458 0.0
H433 H 0.8241 0.28993 0.79317 0.0
C434 C 0.87035 0.21845 0.76351 0.0
C435 C 0.83658 0.23495 0.75688 0.0
C436 C 0.81798 0.2248 0.7394 0.0
C437 C 0.8708 0.25334 0.79152 0.0
C438 C 0.85391 0.27965 0.80217 0.0
C439 C 0.83701 0.26979 0.78485 0.0
C440 C 0.8536 0.32122 0.8303 0.0
C441 C 0.88941 0.26427 0.80885 0.0
C442 C 0.85877 0.2933 0.85903 0.0
C443 C 0.85874 0.33386 0.88529 0.0
C444 C 0.8533 0.40265 0.88319 0.0
C445 C 0.84803 0.43017 0.85439 0.0
C446 C 0.84807 0.38971 0.82821 0.0
H447 H 0.90143 0.25295 0.7946 0.0
H448 H 0.8907 0.31763 0.81719 0.0
H449 H 0.89038 0.23001 0.82903 0.0
H450 H 0.86293 0.24033 0.8611 0.0
H451 H 0.86336 0.31174 0.90705 0.0
H452 H 0.13879 0.49643 0.91427 0.0
H453 H 0.13835 0.54941 0.86354 0.0
H454 H 0.14007 0.74859 0.90532 0.0
H455 H 0.14079 0.69644 0.95592 0.0
H456 H 0.11312 0.64351 0.83525 0.0
H457 H 0.18472 0.75196 0.8507 0.0
H458 H 0.17615 0.68711 0.87564 0.0
H459 H 0.1699 0.77508 0.88081 0.0
C460 C 0.13905 0.55152 0.91263 0.0
C461 C 0.14004 0.59225 0.9391 0.0
C462 C 0.13879 0.58162 0.88366 0.0
C463 C 0.13956 0.65278 0.88078 0.0
C464 C 0.13993 0.69351 0.90712 0.0
H465 H 0.12754 0.96197 0.74626 0.0
H466 H 0.12621 0.88509 0.79008 0.0
C467 C 0.14027 0.66358 0.93601 0.0
C468 C 0.14 0.68507 0.85033 0.0
H469 H 0.16531 0.79613 0.809 0.0
C470 C 0.12463 0.67612 0.82929 0.0
C471 C 0.15514 0.72704 0.84256 0.0
C472 C 0.1725 0.73541 0.86349 0.0
C473 C 0.12365 0.71086 0.80121 0.0
C474 C 0.13836 0.75521 0.79424 0.0
C475 C 0.15402 0.76221 0.81469 0.0
C476 C 0.13733 0.79829 0.76667 0.0
C477 C 0.10671 0.702 0.77949 0.0
C478 C 0.14392 0.77432 0.7391 0.0
C479 C 0.14475 0.81815 0.71402 0.0
C480 C 0.13895 0.88641 0.71627 0.0
C481 C 0.13201 0.90956 0.74383 0.0
C482 C 0.13119 0.86581 0.76881 0.0
H483 H 0.09661 0.6643 0.78796 0.0
H484 H 0.09948 0.75176 0.77611 0.0
H485 H 0.11121 0.68502 0.75685 0.0
H486 H 0.14898 0.72247 0.73734 0.0
H487 H 0.15074 0.79936 0.69349 0.0
H488 H 0.83324 0.82234 0.40352 0.0
H489 H 0.83194 0.74567 0.3593 0.0
H490 H 0.87052 0.87597 0.31429 0.0
H491 H 0.87217 0.95197 0.35863 0.0
H492 H 0.81965 0.7873 0.29999 0.0
H493 H 0.89195 0.68391 0.30146 0.0
H494 H 0.88235 0.72278 0.33458 0.0
H495 H 0.89101 0.77511 0.30473 0.0
C496 C 0.84194 0.83334 0.38466 0.0
C497 C 0.85314 0.89229 0.38474 0.0
C498 C 0.84104 0.78989 0.35931 0.0
C499 C 0.85138 0.80459 0.33379 0.0
C500 C 0.86277 0.86288 0.33405 0.0
H501 H 0.85919 0.68539 0.14756 0.0
H502 H 0.86219 0.73427 0.19888 0.0
C503 C 0.86361 0.90643 0.35927 0.0
C504 C 0.84902 0.76283 0.30574 0.0
H505 H 0.87334 0.6717 0.25468 0.0
C506 C 0.8313 0.76107 0.29026 0.0
C507 C 0.86429 0.72908 0.29315 0.0
C508 C 0.88344 0.72715 0.30946 0.0
C509 C 0.8286 0.72888 0.26176 0.0
C510 C 0.84398 0.69657 0.24879 0.0
C511 C 0.86159 0.6967 0.26469 0.0
C512 C 0.84231 0.66527 0.21803 0.0
C513 C 0.80952 0.73234 0.24517 0.0
C514 C 0.83028 0.60975 0.21194 0.0
C515 C 0.82845 0.58185 0.18257 0.0
C516 C 0.83873 0.60876 0.15888 0.0
C517 C 0.85102 0.66363 0.16525 0.0
C518 C 0.85279 0.69153 0.19458 0.0
H519 H 0.80044 0.77164 0.25508 0.0
H520 H 0.81082 0.74385 0.22055 0.0
H521 H 0.80244 0.68225 0.24692 0.0
H522 H 0.82233 0.58801 0.22991 0.0
H523 H 0.81898 0.53928 0.17846 0.0
H524 H 0.12309 0.18349 0.45647 0.0
H525 H 0.11894 0.23696 0.40611 0.0
H526 H 0.16483 0.1183 0.37437 0.0
H527 H 0.16904 0.06414 0.42455 0.0
H528 H 0.14671 0.3133 0.37772 0.0
H529 H 0.12298 0.09169 0.30667 0.0
H530 H 0.12225 0.09224 0.34783 0.0
H531 H 0.14404 0.07778 0.33023 0.0
C532 C 0.1322 0.16829 0.43871 0.0
C533 C 0.14642 0.11961 0.44451 0.0
C534 C 0.12979 0.19885 0.40997 0.0
C535 C 0.14142 0.18089 0.38647 0.0
C536 C 0.15548 0.13185 0.39205 0.0
H537 H 0.15858 0.33557 0.20498 0.0
H538 H 0.15864 0.26837 0.25212 0.0
C539 C 0.15794 0.10132 0.42081 0.0
C540 C 0.13964 0.21675 0.35676 0.0
H541 H 0.13062 0.19282 0.28015 0.0
C542 C 0.14306 0.28714 0.35639 0.0
C543 C 0.13503 0.18218 0.32903 0.0
C544 C 0.1307 0.10688 0.32832 0.0
C545 C 0.14231 0.32389 0.32892 0.0
C546 C 0.1376 0.28947 0.30115 0.0
C547 C 0.13418 0.21901 0.3015 0.0
C548 C 0.13635 0.32598 0.27155 0.0
C549 C 0.14706 0.39892 0.32981 0.0
C550 C 0.12345 0.37925 0.26656 0.0
C551 C 0.12338 0.41751 0.23969 0.0
C552 C 0.13595 0.40231 0.21711 0.0
C553 C 0.14841 0.34734 0.22164 0.0
C554 C 0.14855 0.30928 0.24864 0.0
H555 H 0.15505 0.41319 0.35134 0.0
H556 H 0.15543 0.41342 0.31019 0.0
H557 H 0.13388 0.42903 0.32842 0.0
H558 H 0.11368 0.3921 0.28372 0.0
H559 H 0.11362 0.45961 0.23673 0.0
H560 H 0.57412 0.01201 0.06922 0.0
H561 H 0.54043 0.03148 0.06009 0.0
H562 H 0.54967 0.24891 0.0633 0.0
H563 H 0.58353 0.22921 0.07324 0.0
H564 H 0.5191 0.20637 0.09571 0.0
H565 H 0.51572 0.09798 0.97903 0.0
H566 H 0.52669 0.04048 0.00638 0.0
H567 H 0.53758 0.12121 0.99905 0.0
C568 C 0.56887 0.06386 0.0684 0.0
C569 C 0.58119 0.11923 0.07206 0.0
C570 C 0.54973 0.07497 0.06281 0.0
C571 C 0.54268 0.14161 0.06035 0.0
C572 C 0.55493 0.19714 0.06483 0.0
H573 H 0.42368 0.16284 0.99767 0.0
H574 H 0.45735 0.1903 0.00116 0.0
C575 C 0.57414 0.18596 0.07054 0.0
C576 C 0.52243 0.15232 0.05354 0.0
H577 H 0.48648 0.10243 0.00415 0.0
C578 C 0.51196 0.18484 0.07544 0.0
C579 C 0.51323 0.12581 0.02669 0.0
C580 C 0.52392 0.0951 0.00129 0.0
C581 C 0.49233 0.18683 0.07226 0.0
C582 C 0.48305 0.15423 0.04688 0.0
C583 C 0.49361 0.12645 0.02385 0.0
C584 C 0.4626 0.14215 0.04529 0.0
C585 C 0.48171 0.22239 0.09648 0.0
C586 C 0.45457 0.10503 0.06862 0.0
C587 C 0.43553 0.08938 0.06661 0.0
C588 C 0.42422 0.11008 0.04111 0.0
C589 C 0.43222 0.14652 0.01754 0.0
C590 C 0.45134 0.16244 0.0196 0.0
H591 H 0.49022 0.26397 0.1075 0.0
H592 H 0.46831 0.24418 0.08682 0.0
H593 H 0.47849 0.18516 0.11454 0.0
H594 H 0.46313 0.0868 0.08812 0.0
H595 H 0.4297 0.05998 0.08475 0.0
H596 H 0.41497 0.73853 0.5385 0.0
H597 H 0.4487 0.7635 0.54421 0.0
H598 H 0.46091 0.56202 0.5112 0.0
H599 H 0.42735 0.53638 0.50625 0.0
H600 H 0.47292 0.67863 0.58389 0.0
H601 H 0.49643 0.69209 0.46538 0.0
H602 H 0.47238 0.70658 0.47459 0.0
H603 H 0.4813 0.62117 0.47241 0.0
C604 C 0.42491 0.70017 0.53201 0.0
C605 C 0.41869 0.63555 0.52205 0.0
C606 C 0.44408 0.71451 0.53517 0.0
C607 C 0.45719 0.66478 0.52785 0.0
C608 C 0.45095 0.60143 0.51642 0.0
H609 H 0.56426 0.52591 0.58169 0.0
H610 H 0.53087 0.55334 0.57353 0.0
C611 C 0.43182 0.58687 0.51356 0.0
C612 C 0.47733 0.67517 0.53564 0.0
H613 H 0.5202 0.66991 0.5051 0.0
C614 C 0.48328 0.67825 0.56668 0.0
C615 C 0.49071 0.67487 0.51308 0.0
C616 C 0.48493 0.67412 0.47946 0.0
C617 C 0.50239 0.67663 0.57581 0.0
C618 C 0.51571 0.67198 0.55331 0.0
C619 C 0.50983 0.67319 0.52224 0.0
C620 C 0.53562 0.6587 0.56154 0.0
C621 C 0.50826 0.67719 0.6094 0.0
C622 C 0.54915 0.70935 0.55785 0.0
C623 C 0.56817 0.69406 0.56303 0.0
C624 C 0.5738 0.62776 0.57144 0.0
C625 C 0.56019 0.57764 0.57575 0.0
C626 C 0.5412 0.59313 0.57096 0.0
H627 H 0.49668 0.69379 0.62361 0.0
H628 H 0.51259 0.62499 0.6166 0.0
H629 H 0.52048 0.71151 0.61386 0.0
H630 H 0.54501 0.7601 0.55043 0.0
H631 H 0.57851 0.73332 0.55957 0.0
H632 H 0.06989 0.99517 0.58515 0.0
H633 H 0.03572 0.00496 0.57777 0.0
H634 H 0.04103 0.22241 0.56583 0.0
H635 H 0.0753 0.21237 0.5728 0.0
H636 H 0.00907 0.07949 0.60763 0.0
H637 H 0.01296 0.16157 0.48662 0.0
H638 H 0.03289 0.1272 0.50859 0.0
H639 H 0.02582 0.21408 0.51406 0.0
C640 C 0.06367 0.04509 0.58148 0.0
C641 C 0.07502 0.10309 0.57946 0.0
C642 C 0.04423 0.05064 0.57716 0.0
C643 C 0.03592 0.11422 0.57069 0.0
C644 C 0.04723 0.17273 0.57015 0.0
H645 H 0.91821 0.21563 0.52877 0.0
H646 H 0.95234 0.22242 0.5397 0.0
C647 C 0.0667 0.16711 0.57434 0.0
C648 C 0.0155 0.1184 0.56345 0.0
H649 H 0.9828 0.15619 0.50612 0.0
C650 C 0.00331 0.09646 0.58549 0.0
C651 C 0.00809 0.14038 0.53446 0.0
C652 C 0.02058 0.16161 0.50943 0.0
C653 C 0.98385 0.09574 0.57928 0.0
C654 C 0.97649 0.11689 0.55022 0.0
C655 C 0.9886 0.1401 0.52836 0.0
C656 C 0.95623 0.11309 0.54183 0.0
C657 C 0.97126 0.07236 0.6038 0.0
C658 C 0.9474 0.04941 0.53867 0.0
C659 C 0.92807 0.04557 0.53227 0.0
C660 C 0.9174 0.10536 0.5289 0.0
C661 C 0.9263 0.16905 0.53119 0.0
C662 C 0.94567 0.17291 0.53746 0.0
H663 H 0.9787 0.07194 0.62676 0.0
H664 H 0.95874 0.10576 0.60455 0.0
H665 H 0.96633 0.01978 0.59853 0.0
H666 H 0.95542 0.00278 0.54166 0.0
H667 H 0.92137 0.99601 0.53085 0.0
H668 H 0.91941 0.65386 0.99349 0.0
H669 H 0.95384 0.65771 0.99974 0.0
H670 H 0.95146 0.5678 0.08931 0.0
H671 H 0.91725 0.56239 0.08288 0.0
H672 H 0.97823 0.71953 0.04801 0.0
H673 H 0.98487 0.43769 0.04066 0.0
H674 H 0.96366 0.4824 0.02844 0.0
H675 H 0.96918 0.4677 0.0684 0.0
C676 C 0.92631 0.63548 0.01455 0.0
C677 C 0.9158 0.60838 0.03781 0.0
C678 C 0.94587 0.63785 0.01812 0.0
C679 C 0.95508 0.61254 0.04488 0.0
C680 C 0.94455 0.58707 0.06842 0.0
H681 H 0.0726 0.64422 0.10737 0.0
H682 H 0.03825 0.65424 0.10203 0.0
C683 C 0.92505 0.58468 0.06486 0.0
C684 C 0.97574 0.61015 0.04781 0.0
H685 H 0.01258 0.49959 0.05402 0.0
C686 C 0.9858 0.67159 0.04928 0.0
C687 C 0.98545 0.54737 0.0491 0.0
C688 C 0.97529 0.47994 0.04631 0.0
C689 C 0.00546 0.67183 0.05247 0.0
C690 C 0.01514 0.60899 0.05454 0.0
C691 C 0.00506 0.54764 0.05268 0.0
C692 C 0.0358 0.60535 0.05767 0.0
C693 C 0.01573 0.73908 0.05309 0.0
C694 C 0.04563 0.57341 0.0348 0.0
C695 C 0.06508 0.5672 0.03796 0.0
C696 C 0.07499 0.59279 0.06404 0.0
C697 C 0.06517 0.62443 0.08703 0.0
C698 C 0.04566 0.63063 0.08388 0.0
H699 H 0.0066 0.78147 0.0444 0.0
H700 H 0.02058 0.75113 0.07698 0.0
H701 H 0.02826 0.73648 0.03918 0.0
H702 H 0.03822 0.55301 0.01457 0.0
H703 H 0.07234 0.54144 0.02021 0.0
H704 H 0.17444 0.32044 0.08848 0.0
H705 H 0.19915 0.24551 0.07177 0.0
H706 H 0.18394 0.2944 0.97771 0.0
H707 H 0.15937 0.37053 0.99418 0.0
H708 H 0.20573 0.13718 0.02843 0.0
H709 H 0.23525 0.38924 0.99687 0.0
H710 H 0.21487 0.38194 0.01917 0.0
H711 H 0.21295 0.36625 0.97873 0.0
C712 C 0.17582 0.31325 0.06418 0.0
C713 C 0.16535 0.35291 0.04267 0.0
C714 C 0.18997 0.27035 0.05466 0.0
C715 C 0.19366 0.26618 0.02358 0.0
C716 C 0.18151 0.29818 0.00184 0.0
H717 H 0.30004 0.06992 0.97777 0.0
H718 H 0.26737 0.10809 0.97087 0.0
C719 C 0.16747 0.34155 0.01132 0.0
C720 C 0.21199 0.23977 0.01493 0.0
H721 H 0.25509 0.29487 0.99532 0.0
C722 C 0.21644 0.17111 0.02053 0.0
C723 C 0.22596 0.28478 0.00503 0.0
C724 C 0.22217 0.35977 0.99975 0.0
C725 C 0.23474 0.14676 0.01754 0.0
C726 C 0.24878 0.19241 0.0087 0.0
C727 C 0.24415 0.26021 0.00184 0.0
C728 C 0.26878 0.17337 0.0107 0.0
C729 C 0.23927 0.0736 0.02558 0.0
C730 C 0.28041 0.19954 0.03472 0.0
C731 C 0.29897 0.17805 0.03876 0.0
C732 C 0.30627 0.13032 0.01866 0.0
C733 C 0.29484 0.10692 0.99359 0.0
C734 C 0.27616 0.12814 0.98972 0.0
H735 H 0.22701 0.046 0.03412 0.0
H736 H 0.24393 0.04667 0.00505 0.0
H737 H 0.25097 0.07151 0.04335 0.0
H738 H 0.27491 0.2349 0.051 0.0
H739 H 0.30742 0.19725 0.05819 0.0
H740 H 0.79022 0.54691 0.97082 0.0
H741 H 0.75722 0.5795 0.96134 0.0
H742 H 0.76283 0.72667 0.03439 0.0
H743 H 0.79561 0.69418 0.04427 0.0
H744 H 0.729 0.57621 0.01152 0.0
H745 H 0.73778 0.82755 0.95616 0.0
H746 H 0.75527 0.76097 0.95562 0.0
H747 H 0.75347 0.81321 0.98905 0.0
C748 C 0.7845 0.58704 0.98451 0.0
C749 C 0.7955 0.61808 0.00831 0.0
C750 C 0.76565 0.6052 0.97916 0.0
C751 C 0.75772 0.65547 0.99713 0.0
C752 C 0.76881 0.68801 0.02018 0.0
H753 H 0.66856 0.80034 0.08016 0.0
H754 H 0.68948 0.71728 0.05908 0.0
C755 C 0.78752 0.66937 0.0258 0.0
C756 C 0.73763 0.67261 0.99333 0.0
H757 H 0.70924 0.81019 0.9815 0.0
C758 C 0.72446 0.62668 0.00418 0.0
C759 C 0.73178 0.73781 0.98321 0.0
C760 C 0.74527 0.78764 0.97006 0.0
C761 C 0.70584 0.64684 0.00779 0.0
C762 C 0.70049 0.71467 0.00072 0.0
C763 C 0.71328 0.75818 0.98712 0.0
C764 C 0.68324 0.74599 0.01184 0.0
C765 C 0.69235 0.59627 0.02036 0.0
C766 C 0.67196 0.78749 0.9923 0.0
C767 C 0.66016 0.83605 0.00441 0.0
C768 C 0.65948 0.84374 0.03627 0.0
C769 C 0.6688 0.79595 0.05554 0.0
C770 C 0.68075 0.74786 0.04343 0.0
H771 H 0.69553 0.54374 0.01268 0.0
H772 H 0.69391 0.59679 0.0457 0.0
H773 H 0.67758 0.60865 0.01322 0.0
H774 H 0.6736 0.78673 0.96785 0.0
H775 H 0.65292 0.87156 0.98893 0.0
H776 H 0.20088 0.56893 0.12975 0.0
H777 H 0.23367 0.60575 0.1363 0.0
H778 H 0.22503 0.74504 0.06073 0.0
H779 H 0.19237 0.7082 0.05372 0.0
H780 H 0.25968 0.59724 0.08329 0.0
H781 H 0.25265 0.85463 0.13435 0.0
H782 H 0.23526 0.78843 0.13785 0.0
H783 H 0.23626 0.83556 0.10283 0.0
C784 C 0.20584 0.60854 0.11497 0.0
C785 C 0.19405 0.63568 0.09117 0.0
C786 C 0.22459 0.62907 0.11864 0.0
C787 C 0.23166 0.67792 0.09898 0.0
C788 C 0.21972 0.70746 0.0762 0.0
H789 H 0.32731 0.81436 0.02016 0.0
H790 H 0.30262 0.73904 0.03642 0.0
C791 C 0.20109 0.6864 0.07225 0.0
C792 C 0.25179 0.69535 0.10059 0.0
H793 H 0.28133 0.83044 0.11119 0.0
C794 C 0.26458 0.64772 0.08998 0.0
C795 C 0.25806 0.76087 0.1096 0.0
C796 C 0.2449 0.81283 0.12206 0.0
C797 C 0.28337 0.66562 0.08632 0.0
C798 C 0.28934 0.73278 0.09333 0.0
C799 C 0.27676 0.77886 0.1058 0.0
C800 C 0.30768 0.75979 0.08473 0.0
C801 C 0.29651 0.61322 0.07421 0.0
C802 C 0.31934 0.79379 0.10657 0.0
C803 C 0.33341 0.83733 0.0973 0.0
C804 C 0.33591 0.84793 0.06602 0.0
C805 C 0.32573 0.80748 0.04442 0.0
C806 C 0.3116 0.76409 0.05372 0.0
H807 H 0.29199 0.56066 0.07976 0.0
H808 H 0.29641 0.61767 0.04894 0.0
H809 H 0.3111 0.62109 0.08366 0.0
H810 H 0.31657 0.79098 0.13061 0.0
H811 H 0.34119 0.86715 0.11454 0.0
H812 H 0.70636 0.03677 0.12832 0.0
H813 H 0.73934 0.07068 0.137 0.0
H814 H 0.73257 0.21843 0.06438 0.0
H815 H 0.69983 0.18471 0.05529 0.0
H816 H 0.76735 0.0722 0.08484 0.0
H817 H 0.75718 0.31796 0.1444 0.0
H818 H 0.74043 0.24882 0.14488 0.0
H819 H 0.74112 0.3033 0.11199 0.0
C820 C 0.71184 0.07715 0.1145 0.0
C821 C 0.70052 0.10816 0.0911 0.0
C822 C 0.73067 0.09606 0.1194 0.0
C823 C 0.73824 0.14696 0.10134 0.0
C824 C 0.72686 0.17918 0.0786 0.0
H825 H 0.8256 0.3078 0.01819 0.0
H826 H 0.80519 0.22164 0.03845 0.0
C827 C 0.70818 0.15985 0.07344 0.0
C828 C 0.7582 0.16586 0.10496 0.0
H829 H 0.78554 0.30572 0.11818 0.0
C830 C 0.77156 0.1225 0.09291 0.0
C831 C 0.76363 0.23081 0.116 0.0
C832 C 0.74989 0.27784 0.13033 0.0
C833 C 0.78994 0.14519 0.08905 0.0
C834 C 0.79481 0.21301 0.09707 0.0
C835 C 0.78186 0.25375 0.11183 0.0
C836 C 0.81164 0.24728 0.086 0.0
C837 C 0.80366 0.09736 0.07523 0.0
C838 C 0.82278 0.28841 0.10595 0.0
C839 C 0.83422 0.33877 0.09433 0.0
C840 C 0.83474 0.34853 0.06257 0.0
C841 C 0.82548 0.30165 0.04275 0.0
C842 C 0.81386 0.25181 0.05439 0.0
H843 H 0.80102 0.04388 0.08217 0.0
H844 H 0.80178 0.09977 0.04994 0.0
H845 H 0.81839 0.11093 0.0821 0.0
H846 H 0.82133 0.28569 0.13041 0.0
H847 H 0.8414 0.37366 0.11018 0.0
H848 H 0.15528 0.88401 0.49108 0.0
H849 H 0.17894 0.80714 0.47251 0.0
H850 H 0.19141 0.73564 0.56449 0.0
H851 H 0.16766 0.81143 0.58322 0.0
H852 H 0.21405 0.83982 0.49404 0.0
H853 H 0.20175 0.56616 0.51508 0.0
H854 H 0.18295 0.62804 0.51312 0.0
H855 H 0.1972 0.61672 0.54798 0.0
C856 C 0.16246 0.84975 0.50721 0.0
C857 C 0.15996 0.85519 0.53877 0.0
C858 C 0.17598 0.80576 0.4965 0.0
C859 C 0.18706 0.76619 0.51713 0.0
C860 C 0.18289 0.7651 0.54807 0.0
H861 H 0.30172 0.71125 0.55224 0.0
H862 H 0.26902 0.74733 0.54492 0.0
C863 C 0.16932 0.80891 0.55881 0.0
C864 C 0.20535 0.73976 0.50812 0.0
H865 H 0.23448 0.60229 0.51574 0.0
C866 C 0.21835 0.78736 0.49798 0.0
C867 C 0.21098 0.67147 0.51325 0.0
C868 C 0.1974 0.61756 0.52267 0.0
C869 C 0.23714 0.76961 0.49492 0.0
C870 C 0.24305 0.7028 0.50236 0.0
C871 C 0.22985 0.6538 0.51038 0.0
C872 C 0.26311 0.68484 0.50484 0.0
C873 C 0.25072 0.82313 0.48503 0.0
C874 C 0.27055 0.63854 0.48442 0.0
C875 C 0.28929 0.61834 0.48833 0.0
C876 C 0.30075 0.64332 0.51306 0.0
C877 C 0.2933 0.69112 0.53298 0.0
C878 C 0.27464 0.71179 0.52884 0.0
H879 H 0.24336 0.8664 0.47322 0.0
H880 H 0.25874 0.84342 0.50548 0.0
H881 H 0.2609 0.80089 0.46953 0.0
H882 H 0.26179 0.61727 0.46582 0.0
H883 H 0.29456 0.58114 0.47266 0.0
H884 H 0.65054 0.37153 0.49609 0.0
H885 H 0.67337 0.29143 0.47731 0.0
H886 H 0.69271 0.24631 0.57014 0.0
H887 H 0.66972 0.32525 0.58907 0.0
H888 H 0.70909 0.3298 0.48936 0.0
H889 H 0.70085 0.06483 0.52904 0.0
H890 H 0.68171 0.12526 0.5276 0.0
H891 H 0.69859 0.12428 0.55971 0.0
C892 C 0.65909 0.34228 0.51255 0.0
C893 C 0.65864 0.35576 0.54404 0.0
C894 C 0.67213 0.29646 0.50175 0.0
C895 C 0.68484 0.2633 0.52227 0.0
C896 C 0.68288 0.27054 0.55385 0.0
H897 H 0.80002 0.22264 0.54106 0.0
H898 H 0.76707 0.25631 0.53542 0.0
C899 C 0.66973 0.31605 0.56469 0.0
C900 C 0.70244 0.23485 0.51123 0.0
H901 H 0.73293 0.10184 0.52124 0.0
C902 C 0.71407 0.27916 0.49558 0.0
C903 C 0.70896 0.16887 0.51924 0.0
C904 C 0.69676 0.11789 0.53455 0.0
C905 C 0.73251 0.26113 0.48981 0.0
C906 C 0.73949 0.19746 0.50008 0.0
C907 C 0.7275 0.15101 0.51364 0.0
C908 C 0.75969 0.18177 0.50039 0.0
C909 C 0.7447 0.3115 0.47406 0.0
C910 C 0.76642 0.12972 0.48204 0.0
C911 C 0.78533 0.11096 0.4849 0.0
C912 C 0.79762 0.14314 0.50663 0.0
C913 C 0.7909 0.19697 0.52414 0.0
C914 C 0.7721 0.21623 0.52095 0.0
H915 H 0.73619 0.35018 0.46101 0.0
H916 H 0.7538 0.33851 0.49151 0.0
H917 H 0.75391 0.28498 0.45824 0.0
H918 H 0.75696 0.10255 0.46612 0.0
H919 H 0.79005 0.06887 0.47128 0.0
H920 H 0.19045 0.21757 0.55942 0.0
H921 H 0.22353 0.25016 0.56047 0.0
H922 H 0.23823 0.06941 0.61266 0.0
H923 H 0.20503 0.03909 0.61335 0.0
H924 H 0.26024 0.16544 0.63117 0.0
H925 H 0.25923 0.16688 0.50553 0.0
H926 H 0.24228 0.22687 0.51768 0.0
H927 H 0.23951 0.13729 0.52587 0.0
C928 C 0.20073 0.18557 0.57157 0.0
C929 C 0.19524 0.12576 0.58616 0.0
C930 C 0.21965 0.20361 0.57181 0.0
C931 C 0.23345 0.16074 0.58556 0.0
C932 C 0.22788 0.10284 0.60156 0.0
H933 H 0.34017 0.305 0.52606 0.0
H934 H 0.31817 0.21471 0.53835 0.0
C935 C 0.2089 0.08575 0.60205 0.0
C936 C 0.25364 0.17618 0.58276 0.0
H937 H 0.28424 0.2318 0.53136 0.0
C938 C 0.26561 0.17881 0.60927 0.0
C939 C 0.26103 0.19013 0.5541 0.0
C940 C 0.24986 0.17921 0.52421 0.0
C941 C 0.28427 0.20082 0.60813 0.0
C942 C 0.29082 0.22394 0.57998 0.0
C943 C 0.27931 0.21555 0.55318 0.0
C944 C 0.30807 0.26598 0.57809 0.0
C945 C 0.29661 0.19951 0.6372 0.0
C946 C 0.31069 0.32275 0.59739 0.0
C947 C 0.32368 0.37303 0.591 0.0
C948 C 0.33382 0.36911 0.56445 0.0
C949 C 0.33243 0.3097 0.54654 0.0
C950 C 0.31979 0.2582 0.55351 0.0
H951 H 0.29353 0.15368 0.65096 0.0
H952 H 0.31175 0.19932 0.63258 0.0
H953 H 0.29354 0.24477 0.65128 0.0
H954 H 0.30159 0.33165 0.61594 0.0
H955 H 0.32434 0.4181 0.60531 0.0
H956 H 0.69851 0.57449 0.63159 0.0
H957 H 0.73104 0.61428 0.63862 0.0
H958 H 0.72254 0.74654 0.56049 0.0
H959 H 0.69018 0.7068 0.55303 0.0
H960 H 0.75832 0.60555 0.58724 0.0
H961 H 0.74741 0.86501 0.63369 0.0
H962 H 0.73072 0.79654 0.63737 0.0
H963 H 0.73169 0.84192 0.60187 0.0
C964 C 0.70347 0.61298 0.61625 0.0
C965 C 0.6918 0.63755 0.59172 0.0
C966 C 0.72205 0.63525 0.62022 0.0
C967 C 0.72905 0.68324 0.60009 0.0
C968 C 0.71727 0.70969 0.57634 0.0
H969 H 0.82126 0.82577 0.51729 0.0
H970 H 0.79837 0.74756 0.53703 0.0
C971 C 0.69881 0.68692 0.57211 0.0
C972 C 0.74894 0.70365 0.60242 0.0
H973 H 0.77639 0.84494 0.61041 0.0
C974 C 0.76246 0.6574 0.593 0.0
C975 C 0.75424 0.77089 0.61031 0.0
C976 C 0.7403 0.82147 0.62165 0.0
C977 C 0.78097 0.67844 0.58906 0.0
C978 C 0.78588 0.74738 0.59448 0.0
C979 C 0.77265 0.79203 0.60617 0.0
C980 C 0.80351 0.77744 0.58436 0.0
C981 C 0.7949 0.62738 0.57816 0.0
C982 C 0.81461 0.81806 0.60452 0.0
C983 C 0.82759 0.86347 0.59323 0.0
C984 C 0.82957 0.86917 0.56155 0.0
C985 C 0.82004 0.82278 0.54179 0.0
C986 C 0.80698 0.77762 0.55311 0.0
H987 H 0.79147 0.57502 0.58578 0.0
H988 H 0.79431 0.62737 0.5528 0.0
H989 H 0.80943 0.6401 0.58662 0.0
H990 H 0.81217 0.8186 0.62872 0.0
H991 H 0.83491 0.89793 0.60911 0.0
loop_
_geom_bond_atom_site_label_1
_geom_bond_atom_site_label_2
_geom_bond_distance
_geom_bond_site_symmetry_2
_ccdc_geom_bond_type
Co0 O3 1.970 1_545 S
Co0 N17 1.989 . S
Co0 O25 1.967 . S
Co0 O32 1.920 . S
Co1 O4 1.966 1_545 S
Co1 N10 2.022 1_544 S
Co1 N18 1.993 . S
Co1 O26 1.942 . S
C2 O3 1.258 . S
C2 O4 1.263 . S
O3 Co0 1.970 1_565 S
O3 C2 1.258 . S
O4 Co1 1.966 1_565 S
O4 C2 1.263 . S
C5 O6 1.235 1_545 S
C5 O32 1.289 . S
O6 C5 1.235 1_565 S
C7 C9 1.400 . S
C7 N10 1.351 . S
C7 C12 1.501 . S
C8 C9 1.387 . S
C8 N11 1.341 1_565 S
C9 C7 1.400 . S
C9 C8 1.387 . S
N10 Co1 2.022 1_566 S
N10 C7 1.351 . S
N10 N11 1.365 1_565 S
N11 C8 1.341 1_545 S
N11 N10 1.365 1_545 S
N11 H31 0.862 . S
C12 C7 1.501 . S
C12 H13 0.961 . S
C12 H14 0.961 . S
C12 H15 0.960 . S
H13 C12 0.961 . S
H14 C12 0.961 . S
H15 C12 0.960 . S
C16 N17 1.342 . S
C16 C20 1.401 . S
C16 C21 1.499 . S
N17 Co0 1.989 . S
N17 C16 1.342 . S
N17 N18 1.388 . S
N18 Co1 1.993 . S
N18 N17 1.388 . S
N18 C19 1.346 . S
C19 N18 1.346 . S
C19 C20 1.396 . S
C19 C29 1.510 1_554 S
C20 C16 1.401 . S
C20 C19 1.396 . S
C21 C16 1.499 . S
C21 H22 0.959 . S
C21 H23 0.960 . S
C21 H24 0.961 . S
H22 C21 0.959 . S
H23 C21 0.960 . S
H24 C21 0.961 . S
O25 Co0 1.967 . S
O25 C33 1.258 . S
O26 Co1 1.942 . S
O26 C33 1.292 . S
H27 C29 0.959 . S
H28 C29 0.961 1_565 S
C29 C19 1.510 1_556 S
C29 H27 0.959 . S
C29 H28 0.961 1_545 S
C29 H30 0.960 1_545 S
H30 C29 0.960 1_565 S
H31 N11 0.862 . S
O32 Co0 1.920 . S
O32 C5 1.289 . S
C33 O25 1.258 . S
C33 O26 1.292 . S
Co34 O37 1.970 1_545 S
Co34 N51 1.989 . S
Co34 O59 1.967 . S
Co34 O66 1.920 1_554 S
Co35 O38 1.966 1_545 S
Co35 N44 2.022 1_545 S
Co35 N52 1.993 . S
Co35 O60 1.941 . S
C36 O37 1.258 . S
C36 O38 1.263 . S
O37 Co34 1.970 1_565 S
O37 C36 1.258 . S
O38 Co35 1.966 1_565 S
O38 C36 1.263 . S
C39 O40 1.235 1_545 S
C39 O66 1.289 . S
O40 C39 1.235 1_565 S
C41 C43 1.400 . S
C41 N44 1.351 . S
C41 C46 1.501 . S
C42 C43 1.387 . S
C42 N45 1.341 1_565 S
C43 C41 1.400 . S
C43 C42 1.387 . S
N44 Co35 2.022 1_565 S
N44 C41 1.351 . S
N44 N45 1.365 1_565 S
N45 C42 1.341 1_545 S
N45 N44 1.365 1_545 S
N45 H65 0.862 . S
C46 C41 1.501 . S
C46 H47 0.961 . S
C46 H48 0.961 . S
C46 H49 0.960 . S
H47 C46 0.961 . S
H48 C46 0.961 . S
H49 C46 0.960 . S
C50 N51 1.342 . S
C50 C54 1.401 . S
C50 C55 1.499 . S
N51 Co34 1.989 . S
N51 C50 1.342 . S
N51 N52 1.388 . S
N52 Co35 1.993 . S
N52 N51 1.388 . S
N52 C53 1.346 . S
C53 N52 1.346 . S
C53 C54 1.396 . S
C53 C63 1.510 . S
C54 C50 1.401 . S
C54 C53 1.396 . S
C55 C50 1.499 . S
C55 H56 0.959 1_554 S
C55 H57 0.951 1_554 S
C55 H58 0.961 . S
H56 C55 0.959 1_556 S
H57 C55 0.951 1_556 S
H58 C55 0.961 . S
O59 Co34 1.967 . S
O59 C67 1.258 . S
O60 Co35 1.941 . S
O60 C67 1.266 . S
H61 C63 0.959 . S
H62 C63 0.961 1_565 S
C63 C53 1.510 . S
C63 H61 0.959 . S
C63 H62 0.961 1_545 S
C63 H64 0.960 1_545 S
H64 C63 0.960 1_565 S
H65 N45 0.862 . S
O66 Co34 1.920 1_556 S
O66 C39 1.289 . S
C67 O59 1.258 . S
C67 O60 1.266 . S
Co68 O71 1.970 . S
Co68 N85 1.989 . S
Co68 O93 1.967 . S
Co68 O100 1.920 . S
Co69 O72 1.966 . S
Co69 N78 2.022 . S
Co69 N86 1.993 . S
Co69 O94 1.941 . S
C70 O71 1.258 . S
C70 O72 1.263 . S
O71 Co68 1.970 . S
O71 C70 1.258 . S
O72 Co69 1.966 . S
O72 C70 1.263 . S
C73 O74 1.235 . S
C73 O100 1.289 . S
O74 C73 1.235 . S
C75 C77 1.400 . S
C75 N78 1.351 . S
C75 C80 1.501 . S
C76 C77 1.387 . S
C76 N79 1.341 . S
C77 C75 1.400 . S
C77 C76 1.387 . S
N78 Co69 2.022 . S
N78 C75 1.351 . S
N78 N79 1.365 . S
N79 C76 1.341 . S
N79 N78 1.365 . S
N79 H99 0.862 . S
C80 C75 1.501 . S
C80 H81 0.961 . S
C80 H82 0.961 . S
C80 H83 0.960 . S
H81 C80 0.961 . S
H82 C80 0.961 . S
H83 C80 0.960 . S
C84 N85 1.342 . S
C84 C88 1.401 . S
C84 C89 1.499 . S
N85 Co68 1.989 . S
N85 C84 1.342 . S
N85 N86 1.388 . S
N86 Co69 1.993 . S
N86 N85 1.388 . S
N86 C87 1.346 . S
C87 N86 1.346 . S
C87 C88 1.396 . S
C87 C97 1.510 . S
C88 C84 1.401 . S
C88 C87 1.396 . S
C89 C84 1.499 . S
C89 H90 0.959 . S
C89 H91 0.960 . S
C89 H92 0.961 . S
H90 C89 0.959 . S
H91 C89 0.960 . S
H92 C89 0.961 . S
O93 Co68 1.967 . S
O93 C101 1.258 . S
O94 Co69 1.941 . S
O94 C101 1.266 . S
H95 C97 0.959 . S
H96 C97 0.961 . S
C97 C87 1.510 . S
C97 H95 0.959 . S
C97 H96 0.961 . S
C97 H98 0.960 . S
H98 C97 0.960 . S
H99 N79 0.862 . S
O100 Co68 1.920 . S
O100 C73 1.289 . S
C101 O93 1.258 . S
C101 O94 1.266 . S
Co102 O105 1.970 . S
Co102 N119 1.989 . S
Co102 O127 1.967 . S
Co102 O134 1.920 . S
Co103 O106 1.966 . S
Co103 N112 2.022 . S
Co103 N120 1.993 . S
Co103 O128 1.941 . S
C104 O105 1.258 . S
C104 O106 1.263 . S
O105 Co102 1.970 . S
O105 C104 1.258 . S
O106 Co103 1.966 . S
O106 C104 1.263 . S
C107 O108 1.235 . S
C107 O134 1.289 . S
O108 C107 1.235 . S
C109 C111 1.400 . S
C109 N112 1.351 . S
C109 C114 1.501 . S
C110 C111 1.387 . S
C110 N113 1.341 . S
C111 C109 1.400 . S
C111 C110 1.387 . S
N112 Co103 2.022 . S
N112 C109 1.351 . S
N112 N113 1.365 . S
N113 C110 1.341 . S
N113 N112 1.365 . S
N113 H133 0.862 . S
C114 C109 1.501 . S
C114 H115 0.961 . S
C114 H116 0.961 . S
C114 H117 0.960 . S
H115 C114 0.961 . S
H116 C114 0.961 . S
H117 C114 0.960 . S
C118 N119 1.342 . S
C118 C122 1.401 . S
C118 C123 1.499 . S
N119 Co102 1.989 . S
N119 C118 1.342 . S
N119 N120 1.388 . S
N120 Co103 1.993 . S
N120 N119 1.388 . S
N120 C121 1.346 . S
C121 N120 1.346 . S
C121 C122 1.396 . S
C121 C131 1.510 . S
C122 C118 1.401 . S
C122 C121 1.396 . S
C123 C118 1.499 . S
C123 H124 0.959 . S
C123 H125 0.960 . S
C123 H126 0.961 . S
H124 C123 0.959 . S
H125 C123 0.960 . S
H126 C123 0.961 . S
O127 Co102 1.967 . S
O127 C135 1.258 . S
O128 Co103 1.941 . S
O128 C135 1.266 . S
H129 C131 0.959 . S
H130 C131 0.961 . S
C131 C121 1.510 . S
C131 H129 0.959 . S
C131 H130 0.961 . S
C131 H132 0.960 . S
H132 C131 0.960 . S
H133 N113 0.862 . S
O134 Co102 1.920 . S
O134 C107 1.289 . S
C135 O127 1.258 . S
C135 O128 1.266 . S
Co136 O139 1.970 1_545 S
Co136 N153 1.989 . S
Co136 O161 1.967 . S
Co136 O168 1.920 . S
Co137 O140 1.966 1_545 S
Co137 N146 2.022 1_545 S
Co137 N154 1.993 . S
Co137 O162 1.941 . S
C138 O139 1.258 . S
C138 O140 1.263 . S
O139 Co136 1.970 1_565 S
O139 C138 1.258 . S
O140 Co137 1.966 1_565 S
O140 C138 1.263 . S
C141 O142 1.235 1_545 S
C141 O168 1.289 . S
O142 C141 1.235 1_565 S
C143 C145 1.400 . S
C143 N146 1.351 . S
C143 C148 1.501 . S
C144 C145 1.387 . S
C144 N147 1.341 1_565 S
C145 C143 1.400 . S
C145 C144 1.387 . S
N146 Co137 2.022 1_565 S
N146 C143 1.351 . S
N146 N147 1.365 1_565 S
N147 C144 1.341 1_545 S
N147 N146 1.365 1_545 S
N147 H167 0.862 . S
C148 C143 1.501 . S
C148 H149 0.961 . S
C148 H150 0.961 . S
C148 H151 0.960 . S
H149 C148 0.961 . S
H150 C148 0.961 . S
H151 C148 0.960 . S
C152 N153 1.342 . S
C152 C156 1.401 . S
C152 C157 1.499 . S
N153 Co136 1.989 . S
N153 C152 1.342 . S
N153 N154 1.388 . S
N154 Co137 1.993 . S
N154 N153 1.388 . S
N154 C155 1.346 . S
C155 N154 1.346 . S
C155 C156 1.396 . S
C155 C165 1.510 . S
C156 C152 1.401 . S
C156 C155 1.396 . S
C157 C152 1.499 . S
C157 H158 0.959 . S
C157 H159 0.960 . S
C157 H160 0.961 . S
H158 C157 0.959 . S
H159 C157 0.960 . S
H160 C157 0.961 . S
O161 Co136 1.967 . S
O161 C169 1.258 . S
O162 Co137 1.941 . S
O162 C169 1.266 . S
H163 C165 0.959 . S
H164 C165 0.961 1_565 S
C165 C155 1.510 . S
C165 H163 0.959 . S
C165 H164 0.961 1_545 S
C165 H166 0.960 1_545 S
H166 C165 0.960 1_565 S
H167 N147 0.862 . S
O168 Co136 1.920 . S
O168 C141 1.289 . S
C169 O161 1.258 . S
C169 O162 1.266 . S
Co170 O173 1.970 1_545 S
Co170 N187 1.989 . S
Co170 O195 1.967 . S
Co170 O202 1.920 . S
Co171 O174 1.966 1_545 S
Co171 N180 2.022 1_545 S
Co171 N188 1.993 . S
Co171 O196 1.941 . S
C172 O173 1.258 . S
C172 O174 1.263 . S
O173 Co170 1.970 1_565 S
O173 C172 1.258 . S
O174 Co171 1.966 1_565 S
O174 C172 1.263 . S
C175 O176 1.235 1_545 S
C175 O202 1.289 . S
O176 C175 1.235 1_565 S
C177 C179 1.400 . S
C177 N180 1.351 . S
C177 C182 1.501 . S
C178 C179 1.387 . S
C178 N181 1.341 1_565 S
C179 C177 1.400 . S
C179 C178 1.387 . S
N180 Co171 2.022 1_565 S
N180 C177 1.351 . S
N180 N181 1.365 1_565 S
N181 C178 1.341 1_545 S
N181 N180 1.365 1_545 S
N181 H201 0.862 . S
C182 C177 1.501 . S
C182 H183 0.961 . S
C182 H184 0.961 . S
C182 H185 0.960 . S
H183 C182 0.961 . S
H184 C182 0.961 . S
H185 C182 0.960 . S
C186 N187 1.342 . S
C186 C190 1.401 . S
C186 C191 1.499 . S
N187 Co170 1.989 . S
N187 C186 1.342 . S
N187 N188 1.388 . S
N188 Co171 1.993 . S
N188 N187 1.388 . S
N188 C189 1.346 . S
C189 N188 1.346 . S
C189 C190 1.396 . S
C189 C199 1.510 . S
C190 C186 1.401 . S
C190 C189 1.396 . S
C191 C186 1.499 . S
C191 H192 0.959 . S
C191 H193 0.960 . S
C191 H194 0.961 . S
H192 C191 0.959 . S
H193 C191 0.960 . S
H194 C191 0.961 . S
O195 Co170 1.967 . S
O195 C203 1.258 . S
O196 Co171 1.941 . S
O196 C203 1.266 . S
H197 C199 0.959 . S
H198 C199 0.961 1_565 S
C199 C189 1.510 . S
C199 H197 0.959 . S
C199 H198 0.961 1_545 S
C199 H200 0.960 1_545 S
H200 C199 0.960 1_565 S
H201 N181 0.862 . S
O202 Co170 1.920 . S
O202 C175 1.289 . S
C203 O195 1.258 . S
C203 O196 1.266 . S
Co204 O207 1.970 . S
Co204 N221 1.989 . S
Co204 O229 1.967 . S
Co204 O236 1.920 . S
Co205 O208 1.966 . S
Co205 N214 2.022 1_554 S
Co205 N222 1.993 . S
Co205 O230 1.942 . S
C206 O207 1.258 . S
C206 O208 1.263 . S
O207 Co204 1.970 . S
O207 C206 1.258 . S
O208 Co205 1.966 . S
O208 C206 1.263 . S
C209 O210 1.235 . S
C209 O236 1.289 . S
O210 C209 1.235 . S
C211 C213 1.400 . S
C211 N214 1.351 . S
C211 C216 1.501 . S
C212 C213 1.387 . S
C212 N215 1.341 . S
C213 C211 1.400 . S
C213 C212 1.387 . S
N214 Co205 2.022 1_556 S
N214 C211 1.351 . S
N214 N215 1.365 . S
N215 C212 1.341 . S
N215 N214 1.365 . S
N215 H235 0.862 . S
C216 C211 1.501 . S
C216 H217 0.961 . S
C216 H218 0.961 . S
C216 H219 0.960 . S
H217 C216 0.961 . S
H218 C216 0.961 . S
H219 C216 0.960 . S
C220 N221 1.342 . S
C220 C224 1.401 . S
C220 C225 1.499 . S
N221 Co204 1.989 . S
N221 C220 1.342 . S
N221 N222 1.388 . S
N222 Co205 1.993 . S
N222 N221 1.388 . S
N222 C223 1.346 . S
C223 N222 1.346 . S
C223 C224 1.396 . S
C223 C233 1.510 1_554 S
C224 C220 1.401 . S
C224 C223 1.396 . S
C225 C220 1.499 . S
C225 H226 0.959 . S
C225 H227 0.960 . S
C225 H228 0.961 . S
H226 C225 0.959 . S
H227 C225 0.960 . S
H228 C225 0.961 . S
O229 Co204 1.967 . S
O229 C237 1.258 . S
O230 Co205 1.942 . S
O230 C237 1.292 . S
H231 C233 0.959 . S
H232 C233 0.961 . S
C233 C223 1.510 1_556 S
C233 H231 0.959 . S
C233 H232 0.961 . S
C233 H234 0.960 . S
H234 C233 0.960 . S
H235 N215 0.862 . S
O236 Co204 1.920 . S
O236 C209 1.289 . S
C237 O229 1.258 . S
C237 O230 1.292 . S
Co238 O241 1.970 . S
Co238 N255 1.989 . S
Co238 O263 1.967 . S
Co238 O270 1.920 1_554 S
Co239 O242 1.966 . S
Co239 N248 2.022 . S
Co239 N256 1.993 . S
Co239 O264 1.941 . S
C240 O241 1.258 . S
C240 O242 1.263 . S
O241 Co238 1.970 . S
O241 C240 1.258 . S
O242 Co239 1.966 . S
O242 C240 1.263 . S
C243 O244 1.235 . S
C243 O270 1.289 . S
O244 C243 1.235 . S
C245 C247 1.400 . S
C245 N248 1.351 . S
C245 C250 1.501 . S
C246 C247 1.387 . S
C246 N249 1.341 . S
C247 C245 1.400 . S
C247 C246 1.387 . S
N248 Co239 2.022 . S
N248 C245 1.351 . S
N248 N249 1.365 . S
N249 C246 1.341 . S
N249 N248 1.365 . S
N249 H269 0.862 . S
C250 C245 1.501 . S
C250 H251 0.961 . S
C250 H252 0.961 . S
C250 H253 0.960 . S
H251 C250 0.961 . S
H252 C250 0.961 . S
H253 C250 0.960 . S
C254 N255 1.342 . S
C254 C258 1.401 . S
C254 C259 1.499 . S
N255 Co238 1.989 . S
N255 C254 1.342 . S
N255 N256 1.388 . S
N256 Co239 1.993 . S
N256 N255 1.388 . S
N256 C257 1.346 . S
C257 N256 1.346 . S
C257 C258 1.396 . S
C257 C267 1.510 . S
C258 C254 1.401 . S
C258 C257 1.396 . S
C259 C254 1.499 . S
C259 H260 0.959 1_554 S
C259 H261 0.951 1_554 S
C259 H262 0.961 . S
H260 C259 0.959 1_556 S
H261 C259 0.951 1_556 S
H262 C259 0.961 . S
O263 Co238 1.967 . S
O263 C271 1.258 . S
O264 Co239 1.941 . S
O264 C271 1.266 . S
H265 C267 0.959 . S
H266 C267 0.961 . S
C267 C257 1.510 . S
C267 H265 0.959 . S
C267 H266 0.961 . S
C267 H268 0.960 . S
H268 C267 0.960 . S
H269 N249 0.862 . S
O270 Co238 1.920 1_556 S
O270 C243 1.289 . S
C271 O263 1.258 . S
C271 O264 1.266 . S
H272 C280 0.929 . S
H273 C282 0.930 . S
H274 C284 0.930 . S
H275 C287 0.929 . S
H276 C290 0.930 . S
H277 C292 0.960 . S
H278 C292 0.960 . S
H279 C292 0.960 . S
C280 H272 0.929 . S
C280 C281 1.377 . S
C280 C282 1.384 . S
C281 C280 1.377 . S
C281 C287 1.390 . S
C282 H273 0.930 . S
C282 C280 1.384 . S
C282 C283 1.372 . S
C283 C282 1.372 . S
C283 C284 1.400 . S
C283 C288 1.490 . S
C284 H274 0.930 . S
C284 C283 1.400 . S
C284 C287 1.386 . S
H285 C301 0.930 . S
H286 C302 0.931 . S
C287 H275 0.929 . S
C287 C281 1.390 . S
C287 C284 1.386 . S
C288 C283 1.490 . S
C288 C290 1.395 . S
C288 C291 1.403 . S
H289 C295 0.930 . S
C290 H276 0.930 . S
C290 C288 1.395 . S
C290 C293 1.403 . S
C291 C288 1.403 . S
C291 C292 1.524 . S
C291 C295 1.400 . S
C292 H277 0.960 . S
C292 H278 0.960 . S
C292 H279 0.960 . S
C292 C291 1.524 . S
C293 C290 1.403 . S
C293 C294 1.392 . S
C293 C297 1.495 . S
C294 C293 1.392 . S
C294 C295 1.385 . S
C294 C296 1.478 . S
C295 H289 0.930 . S
C295 C291 1.400 . S
C295 C294 1.385 . S
C296 C294 1.478 . S
C296 C298 1.381 . S
C296 C302 1.383 . S
C297 C293 1.495 . S
C297 H303 0.959 . S
C297 H304 0.961 . S
C297 H305 0.960 . S
C298 C296 1.381 . S
C298 C299 1.394 . S
C298 H306 0.930 . S
C299 C298 1.394 . S
C299 C300 1.383 . S
C299 H307 0.929 . S
C300 C299 1.383 . S
C300 C301 1.377 . S
C301 H285 0.930 . S
C301 C300 1.377 . S
C301 C302 1.379 . S
C302 H286 0.931 . S
C302 C296 1.383 . S
C302 C301 1.379 . S
H303 C297 0.959 . S
H304 C297 0.961 . S
H305 C297 0.960 . S
H306 C298 0.930 . S
H307 C299 0.929 . S
H308 C316 0.929 . S
H309 C318 0.930 . S
H310 C320 0.930 . S
H311 C323 0.929 . S
H312 C326 0.930 . S
H313 C328 0.960 . S
H314 C328 0.960 . S
H315 C328 0.960 . S
C316 H308 0.929 . S
C316 C317 1.377 . S
C316 C318 1.384 . S
C317 C316 1.377 . S
C317 C323 1.390 . S
C318 H309 0.930 . S
C318 C316 1.384 . S
C318 C319 1.372 . S
C319 C318 1.372 . S
C319 C320 1.400 . S
C319 C324 1.490 . S
C320 H310 0.930 . S
C320 C319 1.400 . S
C320 C323 1.386 . S
H321 C337 0.930 . S
H322 C338 0.931 . S
C323 H311 0.929 . S
C323 C317 1.390 . S
C323 C320 1.386 . S
C324 C319 1.490 . S
C324 C326 1.395 . S
C324 C327 1.403 . S
H325 C331 0.930 . S
C326 H312 0.930 . S
C326 C324 1.395 . S
C326 C329 1.403 . S
C327 C324 1.403 . S
C327 C328 1.524 . S
C327 C331 1.400 . S
C328 H313 0.960 . S
C328 H314 0.960 . S
C328 H315 0.960 . S
C328 C327 1.524 . S
C329 C326 1.403 . S
C329 C330 1.392 . S
C329 C333 1.495 . S
C330 C329 1.392 . S
C330 C331 1.385 . S
C330 C332 1.478 . S
C331 H325 0.930 . S
C331 C327 1.400 . S
C331 C330 1.385 . S
C332 C330 1.478 . S
C332 C334 1.381 . S
C332 C338 1.383 . S
C333 C329 1.495 . S
C333 H339 0.959 . S
C333 H340 0.961 . S
C333 H341 0.960 . S
C334 C332 1.381 . S
C334 C335 1.394 . S
C334 H342 0.930 . S
C335 C334 1.394 . S
C335 C336 1.383 . S
C335 H343 0.929 . S
C336 C335 1.383 . S
C336 C337 1.377 . S
C337 H321 0.930 . S
C337 C336 1.377 . S
C337 C338 1.379 . S
C338 H322 0.931 . S
C338 C332 1.383 . S
C338 C337 1.379 . S
H339 C333 0.959 . S
H340 C333 0.961 . S
H341 C333 0.960 . S
H342 C334 0.930 . S
H343 C335 0.929 . S
H344 C352 0.929 . S
H345 C354 0.930 . S
H346 C356 0.930 . S
H347 C359 0.929 . S
H348 C362 0.930 . S
H349 C364 0.960 . S
H350 C364 0.960 . S
H351 C364 0.960 . S
C352 H344 0.929 . S
C352 C353 1.377 . S
C352 C354 1.384 . S
C353 C352 1.377 . S
C353 C359 1.390 . S
C354 H345 0.930 . S
C354 C352 1.384 . S
C354 C355 1.372 . S
C355 C354 1.372 . S
C355 C356 1.400 . S
C355 C360 1.490 . S
C356 H346 0.930 . S
C356 C355 1.400 . S
C356 C359 1.386 . S
H357 C373 0.930 . S
H358 C374 0.931 . S
C359 H347 0.929 . S
C359 C353 1.390 . S
C359 C356 1.386 . S
C360 C355 1.490 . S
C360 C362 1.395 . S
C360 C363 1.403 . S
H361 C367 0.930 . S
C362 H348 0.930 . S
C362 C360 1.395 . S
C362 C365 1.403 . S
C363 C360 1.403 . S
C363 C364 1.524 . S
C363 C367 1.400 . S
C364 H349 0.960 . S
C364 H350 0.960 . S
C364 H351 0.960 . S
C364 C363 1.524 . S
C365 C362 1.403 . S
C365 C366 1.392 . S
C365 C369 1.495 . S
C366 C365 1.392 . S
C366 C367 1.385 . S
C366 C368 1.478 . S
C367 H361 0.930 . S
C367 C363 1.400 . S
C367 C366 1.385 . S
C368 C366 1.478 . S
C368 C370 1.381 . S
C368 C374 1.383 . S
C369 C365 1.495 . S
C369 H375 0.959 . S
C369 H376 0.961 . S
C369 H377 0.960 . S
C370 C368 1.381 . S
C370 C371 1.394 . S
C370 H378 0.930 . S
C371 C370 1.394 . S
C371 C372 1.383 . S
C371 H379 0.929 . S
C372 C371 1.383 . S
C372 C373 1.377 . S
C373 H357 0.930 . S
C373 C372 1.377 . S
C373 C374 1.379 . S
C374 H358 0.931 . S
C374 C368 1.383 . S
C374 C373 1.379 . S
H375 C369 0.959 . S
H376 C369 0.961 . S
H377 C369 0.960 . S
H378 C370 0.930 . S
H379 C371 0.929 . S
H380 C388 0.929 . S
H381 C390 0.930 . S
H382 C392 0.930 . S
H383 C395 0.929 . S
H384 C398 0.930 . S
H385 C400 0.960 . S
H386 C400 0.960 . S
H387 C400 0.960 . S
C388 H380 0.929 . S
C388 C389 1.377 . S
C388 C390 1.384 . S
C389 C388 1.377 . S
C389 C395 1.390 . S
C390 H381 0.930 . S
C390 C388 1.384 . S
C390 C391 1.372 . S
C391 C390 1.372 . S
C391 C392 1.400 . S
C391 C396 1.490 . S
C392 H382 0.930 . S
C392 C391 1.400 . S
C392 C395 1.386 . S
H393 C409 0.930 . S
H394 C410 0.931 . S
C395 H383 0.929 . S
C395 C389 1.390 . S
C395 C392 1.386 . S
C396 C391 1.490 . S
C396 C398 1.395 . S
C396 C399 1.403 . S
H397 C403 0.930 . S
C398 H384 0.930 . S
C398 C396 1.395 . S
C398 C401 1.403 . S
C399 C396 1.403 . S
C399 C400 1.524 . S
C399 C403 1.400 . S
C400 H385 0.960 . S
C400 H386 0.960 . S
C400 H387 0.960 . S
C400 C399 1.524 . S
C401 C398 1.403 . S
C401 C402 1.392 . S
C401 C405 1.495 . S
C402 C401 1.392 . S
C402 C403 1.385 . S
C402 C404 1.478 . S
C403 H397 0.930 . S
C403 C399 1.400 . S
C403 C402 1.385 . S
C404 C402 1.478 . S
C404 C406 1.381 . S
C404 C410 1.383 . S
C405 C401 1.495 . S
C405 H411 0.959 . S
C405 H412 0.961 . S
C405 H413 0.960 . S
C406 C404 1.381 . S
C406 C407 1.394 . S
C406 H414 0.930 . S
C407 C406 1.394 . S
C407 C408 1.383 . S
C407 H415 0.929 . S
C408 C407 1.383 . S
C408 C409 1.377 . S
C409 H393 0.930 . S
C409 C408 1.377 . S
C409 C410 1.379 . S
C410 H394 0.931 . S
C410 C404 1.383 . S
C410 C409 1.379 . S
H411 C405 0.959 . S
H412 C405 0.961 . S
H413 C405 0.960 . S
H414 C406 0.930 . S
H415 C407 0.929 . S
H416 C424 0.929 . S
H417 C426 0.930 . S
H418 C428 0.930 . S
H419 C431 0.929 . S
H420 C434 0.930 . S
H421 C436 0.960 . S
H422 C436 0.960 . S
H423 C436 0.960 . S
C424 H416 0.929 . S
C424 C425 1.377 . S
C424 C426 1.384 . S
C425 C424 1.377 . S
C425 C431 1.390 . S
C426 H417 0.930 . S
C426 C424 1.384 . S
C426 C427 1.372 . S
C427 C426 1.372 . S
C427 C428 1.400 . S
C427 C432 1.490 . S
C428 H418 0.930 . S
C428 C427 1.400 . S
C428 C431 1.386 . S
H429 C445 0.930 . S
H430 C446 0.931 . S
C431 H419 0.929 . S
C431 C425 1.390 . S
C431 C428 1.386 . S
C432 C427 1.490 . S
C432 C434 1.395 . S
C432 C435 1.403 . S
H433 C439 0.930 . S
C434 H420 0.930 . S
C434 C432 1.395 . S
C434 C437 1.403 . S
C435 C432 1.403 . S
C435 C436 1.524 . S
C435 C439 1.400 . S
C436 H421 0.960 . S
C436 H422 0.960 . S
C436 H423 0.960 . S
C436 C435 1.524 . S
C437 C434 1.403 . S
C437 C438 1.392 . S
C437 C441 1.495 . S
C438 C437 1.392 . S
C438 C439 1.385 . S
C438 C440 1.478 . S
C439 H433 0.930 . S
C439 C435 1.400 . S
C439 C438 1.385 . S
C440 C438 1.478 . S
C440 C442 1.381 . S
C440 C446 1.383 . S
C441 C437 1.495 . S
C441 H447 0.959 . S
C441 H448 0.961 . S
C441 H449 0.960 . S
C442 C440 1.381 . S
C442 C443 1.394 . S
C442 H450 0.930 . S
C443 C442 1.394 . S
C443 C444 1.383 . S
C443 H451 0.929 . S
C444 C443 1.383 . S
C444 C445 1.377 . S
C445 H429 0.930 . S
C445 C444 1.377 . S
C445 C446 1.379 . S
C446 H430 0.931 . S
C446 C440 1.383 . S
C446 C445 1.379 . S
H447 C441 0.959 . S
H448 C441 0.961 . S
H449 C441 0.960 . S
H450 C442 0.930 . S
H451 C443 0.929 . S
H452 C460 0.929 . S
H453 C462 0.930 . S
H454 C464 0.930 . S
H455 C467 0.929 . S
H456 C470 0.930 . S
H457 C472 0.960 . S
H458 C472 0.960 . S
H459 C472 0.960 . S
C460 H452 0.929 . S
C460 C461 1.377 . S
C460 C462 1.384 . S
C461 C460 1.377 . S
C461 C467 1.390 . S
C462 H453 0.930 . S
C462 C460 1.384 . S
C462 C463 1.372 . S
C463 C462 1.372 . S
C463 C464 1.400 . S
C463 C468 1.490 . S
C464 H454 0.930 . S
C464 C463 1.400 . S
C464 C467 1.386 . S
H465 C481 0.930 . S
H466 C482 0.931 . S
C467 H455 0.929 . S
C467 C461 1.390 . S
C467 C464 1.386 . S
C468 C463 1.490 . S
C468 C470 1.395 . S
C468 C471 1.403 . S
H469 C475 0.930 . S
C470 H456 0.930 . S
C470 C468 1.395 . S
C470 C473 1.403 . S
C471 C468 1.403 . S
C471 C472 1.524 . S
C471 C475 1.400 . S
C472 H457 0.960 . S
C472 H458 0.960 . S
C472 H459 0.960 . S
C472 C471 1.524 . S
C473 C470 1.403 . S
C473 C474 1.392 . S
C473 C477 1.495 . S
C474 C473 1.392 . S
C474 C475 1.385 . S
C474 C476 1.478 . S
C475 H469 0.930 . S
C475 C471 1.400 . S
C475 C474 1.385 . S
C476 C474 1.478 . S
C476 C478 1.381 . S
C476 C482 1.383 . S
C477 C473 1.495 . S
C477 H483 0.959 . S
C477 H484 0.961 . S
C477 H485 0.960 . S
C478 C476 1.381 . S
C478 C479 1.394 . S
C478 H486 0.930 . S
C479 C478 1.394 . S
C479 C480 1.383 . S
C479 H487 0.929 . S
C480 C479 1.383 . S
C480 C481 1.377 . S
C481 H465 0.930 . S
C481 C480 1.377 . S
C481 C482 1.379 . S
C482 H466 0.931 . S
C482 C476 1.383 . S
C482 C481 1.379 . S
H483 C477 0.959 . S
H484 C477 0.961 . S
H485 C477 0.960 . S
H486 C478 0.930 . S
H487 C479 0.929 . S
H488 C496 0.929 . S
H489 C498 0.930 . S
H490 C500 0.930 . S
H491 C503 0.929 . S
H492 C506 0.930 . S
H493 C508 0.960 . S
H494 C508 0.960 . S
H495 C508 0.960 . S
C496 H488 0.929 . S
C496 C497 1.377 . S
C496 C498 1.384 . S
C497 C496 1.377 . S
C497 C503 1.390 . S
C498 H489 0.930 . S
C498 C496 1.384 . S
C498 C499 1.372 . S
C499 C498 1.372 . S
C499 C500 1.400 . S
C499 C504 1.490 . S
C500 H490 0.930 . S
C500 C499 1.400 . S
C500 C503 1.386 . S
H501 C517 0.930 . S
H502 C518 0.931 . S
C503 H491 0.929 . S
C503 C497 1.390 . S
C503 C500 1.386 . S
C504 C499 1.490 . S
C504 C506 1.395 . S
C504 C507 1.403 . S
H505 C511 0.930 . S
C506 H492 0.930 . S
C506 C504 1.395 . S
C506 C509 1.403 . S
C507 C504 1.403 . S
C507 C508 1.524 . S
C507 C511 1.400 . S
C508 H493 0.960 . S
C508 H494 0.960 . S
C508 H495 0.960 . S
C508 C507 1.524 . S
C509 C506 1.403 . S
C509 C510 1.392 . S
C509 C513 1.495 . S
C510 C509 1.392 . S
C510 C511 1.385 . S
C510 C512 1.478 . S
C511 H505 0.930 . S
C511 C507 1.400 . S
C511 C510 1.385 . S
C512 C510 1.478 . S
C512 C514 1.381 . S
C512 C518 1.383 . S
C513 C509 1.495 . S
C513 H519 0.959 . S
C513 H520 0.961 . S
C513 H521 0.960 . S
C514 C512 1.381 . S
C514 C515 1.394 . S
C514 H522 0.930 . S
C515 C514 1.394 . S
C515 C516 1.383 . S
C515 H523 0.929 . S
C516 C515 1.383 . S
C516 C517 1.377 . S
C517 H501 0.930 . S
C517 C516 1.377 . S
C517 C518 1.379 . S
C518 H502 0.931 . S
C518 C512 1.383 . S
C518 C517 1.379 . S
H519 C513 0.959 . S
H520 C513 0.961 . S
H521 C513 0.960 . S
H522 C514 0.930 . S
H523 C515 0.929 . S
H524 C532 0.929 . S
H525 C534 0.930 . S
H526 C536 0.930 . S
H527 C539 0.929 . S
H528 C542 0.930 . S
H529 C544 0.960 . S
H530 C544 0.960 . S
H531 C544 0.960 . S
C532 H524 0.929 . S
C532 C533 1.377 . S
C532 C534 1.384 . S
C533 C532 1.377 . S
C533 C539 1.390 . S
C534 H525 0.930 . S
C534 C532 1.384 . S
C534 C535 1.372 . S
C535 C534 1.372 . S
C535 C536 1.400 . S
C535 C540 1.490 . S
C536 H526 0.930 . S
C536 C535 1.400 . S
C536 C539 1.386 . S
H537 C553 0.930 . S
H538 C554 0.931 . S
C539 H527 0.929 . S
C539 C533 1.390 . S
C539 C536 1.386 . S
C540 C535 1.490 . S
C540 C542 1.395 . S
C540 C543 1.403 . S
H541 C547 0.930 . S
C542 H528 0.930 . S
C542 C540 1.395 . S
C542 C545 1.403 . S
C543 C540 1.403 . S
C543 C544 1.524 . S
C543 C547 1.400 . S
C544 H529 0.960 . S
C544 H530 0.960 . S
C544 H531 0.960 . S
C544 C543 1.524 . S
C545 C542 1.403 . S
C545 C546 1.392 . S
C545 C549 1.495 . S
C546 C545 1.392 . S
C546 C547 1.385 . S
C546 C548 1.478 . S
C547 H541 0.930 . S
C547 C543 1.400 . S
C547 C546 1.385 . S
C548 C546 1.478 . S
C548 C550 1.381 . S
C548 C554 1.383 . S
C549 C545 1.495 . S
C549 H555 0.959 . S
C549 H556 0.961 . S
C549 H557 0.960 . S
C550 C548 1.381 . S
C550 C551 1.394 . S
C550 H558 0.930 . S
C551 C550 1.394 . S
C551 C552 1.383 . S
C551 H559 0.929 . S
C552 C551 1.383 . S
C552 C553 1.377 . S
C553 H537 0.930 . S
C553 C552 1.377 . S
C553 C554 1.379 . S
C554 H538 0.931 . S
C554 C548 1.383 . S
C554 C553 1.379 . S
H555 C549 0.959 . S
H556 C549 0.961 . S
H557 C549 0.960 . S
H558 C550 0.930 . S
H559 C551 0.929 . S
H560 C568 0.929 1_565 S
H561 C570 0.930 1_565 S
H562 C572 0.930 . S
H563 C575 0.929 . S
H564 C578 0.930 . S
H565 C580 0.960 . S
H566 C580 0.949 1_565 S
H567 C580 0.960 . S
C568 H560 0.929 1_545 S
C568 C569 1.377 . S
C568 C570 1.384 . S
C569 C568 1.377 . S
C569 C575 1.390 . S
C570 H561 0.930 1_545 S
C570 C568 1.384 . S
C570 C571 1.372 . S
C571 C570 1.372 . S
C571 C572 1.400 . S
C571 C576 1.490 . S
C572 H562 0.930 . S
C572 C571 1.400 . S
C572 C575 1.386 . S
H573 C589 0.930 . S
H574 C590 0.931 . S
C575 H563 0.929 . S
C575 C569 1.390 . S
C575 C572 1.386 . S
C576 C571 1.490 . S
C576 C578 1.395 . S
C576 C579 1.403 . S
H577 C583 0.930 . S
C578 H564 0.930 . S
C578 C576 1.395 . S
C578 C581 1.403 . S
C579 C576 1.403 . S
C579 C580 1.524 1_554 S
C579 C583 1.400 . S
C580 H565 0.960 . S
C580 H566 0.949 1_545 S
C580 H567 0.960 . S
C580 C579 1.524 1_556 S
C581 C578 1.403 . S
C581 C582 1.392 . S
C581 C585 1.495 . S
C582 C581 1.392 . S
C582 C583 1.385 . S
C582 C584 1.478 . S
C583 H577 0.930 . S
C583 C579 1.400 . S
C583 C582 1.385 . S
C584 C582 1.478 . S
C584 C586 1.381 . S
C584 C590 1.383 . S
C585 C581 1.495 . S
C585 H591 0.959 . S
C585 H592 0.961 . S
C585 H593 0.960 . S
C586 C584 1.381 . S
C586 C587 1.394 . S
C586 H594 0.930 1_545 S
C587 C586 1.394 . S
C587 C588 1.383 . S
C587 H595 0.929 1_545 S
C588 C587 1.383 . S
C588 C589 1.377 . S
C589 H573 0.930 . S
C589 C588 1.377 . S
C589 C590 1.379 . S
C590 H574 0.931 . S
C590 C584 1.383 . S
C590 C589 1.379 . S
H591 C585 0.959 . S
H592 C585 0.961 . S
H593 C585 0.960 . S
H594 C586 0.930 1_565 S
H595 C587 0.929 1_565 S
H596 C604 0.929 . S
H597 C606 0.930 . S
H598 C608 0.930 . S
H599 C611 0.929 . S
H600 C614 0.930 . S
H601 C616 0.960 . S
H602 C616 0.960 . S
H603 C616 0.960 . S
C604 H596 0.929 . S
C604 C605 1.377 . S
C604 C606 1.384 . S
C605 C604 1.377 . S
C605 C611 1.390 . S
C606 H597 0.930 . S
C606 C604 1.384 . S
C606 C607 1.372 . S
C607 C606 1.372 . S
C607 C608 1.400 . S
C607 C612 1.490 . S
C608 H598 0.930 . S
C608 C607 1.400 . S
C608 C611 1.386 . S
H609 C625 0.930 . S
H610 C626 0.931 . S
C611 H599 0.929 . S
C611 C605 1.390 . S
C611 C608 1.386 . S
C612 C607 1.490 . S
C612 C614 1.395 . S
C612 C615 1.403 . S
H613 C619 0.930 . S
C614 H600 0.930 . S
C614 C612 1.395 . S
C614 C617 1.403 . S
C615 C612 1.403 . S
C615 C616 1.524 . S
C615 C619 1.400 . S
C616 H601 0.960 . S
C616 H602 0.960 . S
C616 H603 0.960 . S
C616 C615 1.524 . S
C617 C614 1.403 . S
C617 C618 1.392 . S
C617 C621 1.495 . S
C618 C617 1.392 . S
C618 C619 1.385 . S
C618 C620 1.478 . S
C619 H613 0.930 . S
C619 C615 1.400 . S
C619 C618 1.385 . S
C620 C618 1.478 . S
C620 C622 1.381 . S
C620 C626 1.383 . S
C621 C617 1.495 . S
C621 H627 0.959 . S
C621 H628 0.961 . S
C621 H629 0.960 . S
C622 C620 1.381 . S
C622 C623 1.394 . S
C622 H630 0.930 . S
C623 C622 1.394 . S
C623 C624 1.383 . S
C623 H631 0.929 . S
C624 C623 1.383 . S
C624 C625 1.377 . S
C625 H609 0.930 . S
C625 C624 1.377 . S
C625 C626 1.379 . S
C626 H610 0.931 . S
C626 C620 1.383 . S
C626 C625 1.379 . S
H627 C621 0.959 . S
H628 C621 0.961 . S
H629 C621 0.960 . S
H630 C622 0.930 . S
H631 C623 0.929 . S
H632 C640 0.929 . S
H633 C642 0.930 . S
H634 C644 0.930 . S
H635 C647 0.929 . S
H636 C650 0.930 1_565 S
H637 C652 0.960 . S
H638 C652 0.960 . S
H639 C652 0.960 . S
C640 H632 0.929 . S
C640 C641 1.377 1_565 S
C640 C642 1.384 . S
C641 C640 1.377 1_545 S
C641 C647 1.390 . S
C642 H633 0.930 . S
C642 C640 1.384 . S
C642 C643 1.372 1_565 S
C643 C642 1.372 1_545 S
C643 C644 1.400 . S
C643 C648 1.490 . S
C644 H634 0.930 . S
C644 C643 1.400 . S
C644 C647 1.386 . S
H645 C661 0.930 . S
H646 C662 0.931 . S
C647 H635 0.929 . S
C647 C641 1.390 . S
C647 C644 1.386 . S
C648 C643 1.490 . S
C648 C650 1.395 . S
C648 C651 1.403 . S
H649 C655 0.930 . S
C650 H636 0.930 1_545 S
C650 C648 1.395 . S
C650 C653 1.403 1_455 S
C651 C648 1.403 . S
C651 C652 1.524 . S
C651 C655 1.400 1_455 S
C652 H637 0.960 . S
C652 H638 0.960 . S
C652 H639 0.960 . S
C652 C651 1.524 . S
C653 C650 1.403 1_655 S
C653 C654 1.392 . S
C653 C657 1.495 1_545 S
C654 C653 1.392 . S
C654 C655 1.385 . S
C654 C656 1.478 . S
C655 H649 0.930 . S
C655 C651 1.400 1_655 S
C655 C654 1.385 . S
C656 C654 1.478 . S
C656 C658 1.381 1_545 S
C656 C662 1.383 . S
C657 C653 1.495 1_565 S
C657 H663 0.959 . S
C657 H664 0.960 . S
C657 H665 0.960 . S
C658 C656 1.381 1_565 S
C658 C659 1.394 . S
C658 H666 0.930 . S
C659 C658 1.394 . S
C659 C660 1.383 1_565 S
C659 H667 0.929 . S
C660 C659 1.383 1_545 S
C660 C661 1.377 . S
C661 H645 0.930 . S
C661 C660 1.377 . S
C661 C662 1.379 . S
C662 H646 0.931 . S
C662 C656 1.383 . S
C662 C661 1.379 . S
H663 C657 0.959 . S
H664 C657 0.960 . S
H665 C657 0.960 . S
H666 C658 0.930 . S
H667 C659 0.929 . S
H668 C676 0.929 1_556 S
H669 C678 0.930 1_556 S
H670 C680 0.930 . S
H671 C683 0.929 . S
H672 C686 0.930 . S
H673 C688 0.960 . S
H674 C688 0.960 . S
H675 C688 0.960 . S
C676 H668 0.929 1_554 S
C676 C677 1.377 . S
C676 C678 1.384 . S
C677 C676 1.377 . S
C677 C683 1.390 . S
C678 H669 0.930 1_554 S
C678 C676 1.384 . S
C678 C679 1.372 . S
C679 C678 1.372 . S
C679 C680 1.400 . S
C679 C684 1.490 . S
C680 H670 0.930 . S
C680 C679 1.400 . S
C680 C683 1.386 . S
H681 C697 0.930 . S
H682 C698 0.931 . S
C683 H671 0.929 . S
C683 C677 1.390 . S
C683 C680 1.386 . S
C684 C679 1.490 . S
C684 C686 1.395 . S
C684 C687 1.403 . S
H685 C691 0.930 . S
C686 H672 0.930 . S
C686 C684 1.395 . S
C686 C689 1.403 1_655 S
C687 C684 1.403 . S
C687 C688 1.524 . S
C687 C691 1.400 1_655 S
C688 H673 0.960 . S
C688 H674 0.960 . S
C688 H675 0.960 . S
C688 C687 1.524 . S
C689 C686 1.403 1_455 S
C689 C690 1.392 . S
C689 C693 1.495 . S
C690 C689 1.392 . S
C690 C691 1.385 . S
C690 C692 1.478 . S
C691 H685 0.930 . S
C691 C687 1.400 1_455 S
C691 C690 1.385 . S
C692 C690 1.478 . S
C692 C694 1.381 . S
C692 C698 1.383 . S
C693 C689 1.495 . S
C693 H699 0.959 1_554 S
C693 H700 0.961 . S
C693 H701 0.960 1_554 S
C694 C692 1.381 . S
C694 C695 1.394 . S
C694 H702 0.930 . S
C695 C694 1.394 . S
C695 C696 1.383 . S
C695 H703 0.929 . S
C696 C695 1.383 . S
C696 C697 1.377 . S
C697 H681 0.930 . S
C697 C696 1.377 . S
C697 C698 1.379 . S
C698 H682 0.931 . S
C698 C692 1.383 . S
C698 C697 1.379 . S
H699 C693 0.959 1_556 S
H700 C693 0.961 . S
H701 C693 0.960 1_556 S
H702 C694 0.930 . S
H703 C695 0.929 . S
H704 C712 0.929 . S
H705 C714 0.930 . S
H706 C716 0.930 . S
H707 C719 0.929 . S
H708 C722 0.930 . S
H709 C724 0.960 . S
H710 C724 0.960 . S
H711 C724 0.960 . S
C712 H704 0.929 . S
C712 C713 1.377 . S
C712 C714 1.384 . S
C713 C712 1.377 . S
C713 C719 1.390 . S
C714 H705 0.930 . S
C714 C712 1.384 . S
C714 C715 1.372 . S
C715 C714 1.372 . S
C715 C716 1.400 . S
C715 C720 1.490 . S
C716 H706 0.930 . S
C716 C715 1.400 . S
C716 C719 1.386 . S
H717 C733 0.930 . S
H718 C734 0.931 1_556 S
C719 H707 0.929 . S
C719 C713 1.390 . S
C719 C716 1.386 . S
C720 C715 1.490 . S
C720 C722 1.395 . S
C720 C723 1.403 . S
H721 C727 0.930 . S
C722 H708 0.930 . S
C722 C720 1.395 . S
C722 C725 1.403 . S
C723 C720 1.403 . S
C723 C724 1.524 . S
C723 C727 1.400 . S
C724 H709 0.960 . S
C724 H710 0.960 . S
C724 H711 0.960 . S
C724 C723 1.524 . S
C725 C722 1.403 . S
C725 C726 1.392 . S
C725 C729 1.495 . S
C726 C725 1.392 . S
C726 C727 1.385 . S
C726 C728 1.478 . S
C727 H721 0.930 . S
C727 C723 1.400 . S
C727 C726 1.385 . S
C728 C726 1.478 . S
C728 C730 1.381 . S
C728 C734 1.383 . S
C729 C725 1.495 . S
C729 H735 0.959 . S
C729 H736 0.961 . S
C729 H737 0.960 . S
C730 C728 1.381 . S
C730 C731 1.394 . S
C730 H738 0.930 . S
C731 C730 1.394 . S
C731 C732 1.383 . S
C731 H739 0.929 . S
C732 C731 1.383 . S
C732 C733 1.377 1_554 S
C733 H717 0.930 . S
C733 C732 1.377 1_556 S
C733 C734 1.379 1_556 S
C734 H718 0.931 1_554 S
C734 C728 1.383 . S
C734 C733 1.379 1_554 S
H735 C729 0.959 . S
H736 C729 0.961 . S
H737 C729 0.960 . S
H738 C730 0.930 . S
H739 C731 0.929 . S
H740 C748 0.929 1_556 S
H741 C750 0.930 1_556 S
H742 C752 0.930 . S
H743 C755 0.929 . S
H744 C758 0.930 . S
H745 C760 0.960 . S
H746 C760 0.960 1_556 S
H747 C760 0.960 . S
C748 H740 0.929 1_554 S
C748 C749 1.377 . S
C748 C750 1.384 . S
C749 C748 1.377 . S
C749 C755 1.390 . S
C750 H741 0.930 1_554 S
C750 C748 1.384 . S
C750 C751 1.372 . S
C751 C750 1.372 . S
C751 C752 1.400 . S
C751 C756 1.490 . S
C752 H742 0.930 . S
C752 C751 1.400 . S
C752 C755 1.386 . S
H753 C769 0.930 . S
H754 C770 0.931 . S
C755 H743 0.929 . S
C755 C749 1.390 . S
C755 C752 1.386 . S
C756 C751 1.490 . S
C756 C758 1.395 . S
C756 C759 1.403 . S
H757 C763 0.930 . S
C758 H744 0.930 . S
C758 C756 1.395 . S
C758 C761 1.403 . S
C759 C756 1.403 . S
C759 C760 1.524 . S
C759 C763 1.400 . S
C760 H745 0.960 . S
C760 H746 0.960 1_554 S
C760 H747 0.960 . S
C760 C759 1.524 . S
C761 C758 1.403 . S
C761 C762 1.392 . S
C761 C765 1.495 . S
C762 C761 1.392 . S
C762 C763 1.385 . S
C762 C764 1.478 . S
C763 H757 0.930 . S
C763 C759 1.400 . S
C763 C762 1.385 . S
C764 C762 1.478 . S
C764 C766 1.381 . S
C764 C770 1.383 . S
C765 C761 1.495 . S
C765 H771 0.959 . S
C765 H772 0.961 . S
C765 H773 0.960 . S
C766 C764 1.381 . S
C766 C767 1.394 . S
C766 H774 0.930 . S
C767 C766 1.394 . S
C767 C768 1.383 . S
C767 H775 0.929 . S
C768 C767 1.383 . S
C768 C769 1.377 . S
C769 H753 0.930 . S
C769 C768 1.377 . S
C769 C770 1.379 . S
C770 H754 0.931 . S
C770 C764 1.383 . S
C770 C769 1.379 . S
H771 C765 0.959 . S
H772 C765 0.961 . S
H773 C765 0.960 . S
H774 C766 0.930 . S
H775 C767 0.929 . S
H776 C784 0.929 . S
H777 C786 0.930 . S
H778 C788 0.930 . S
H779 C791 0.929 . S
H780 C794 0.930 . S
H781 C796 0.960 . S
H782 C796 0.960 . S
H783 C796 0.960 . S
C784 H776 0.929 . S
C784 C785 1.377 . S
C784 C786 1.384 . S
C785 C784 1.377 . S
C785 C791 1.390 . S
C786 H777 0.930 . S
C786 C784 1.384 . S
C786 C787 1.372 . S
C787 C786 1.372 . S
C787 C788 1.400 . S
C787 C792 1.490 . S
C788 H778 0.930 . S
C788 C787 1.400 . S
C788 C791 1.386 . S
H789 C805 0.930 . S
H790 C806 0.931 . S
C791 H779 0.929 . S
C791 C785 1.390 . S
C791 C788 1.386 . S
C792 C787 1.490 . S
C792 C794 1.395 . S
C792 C795 1.403 . S
H793 C799 0.930 . S
C794 H780 0.930 . S
C794 C792 1.395 . S
C794 C797 1.403 . S
C795 C792 1.403 . S
C795 C796 1.524 . S
C795 C799 1.400 . S
C796 H781 0.960 . S
C796 H782 0.960 . S
C796 H783 0.960 . S
C796 C795 1.524 . S
C797 C794 1.403 . S
C797 C798 1.392 . S
C797 C801 1.495 . S
C798 C797 1.392 . S
C798 C799 1.385 . S
C798 C800 1.478 . S
C799 H793 0.930 . S
C799 C795 1.400 . S
C799 C798 1.385 . S
C800 C798 1.478 . S
C800 C802 1.381 . S
C800 C806 1.383 . S
C801 C797 1.495 . S
C801 H807 0.959 . S
C801 H808 0.961 . S
C801 H809 0.960 . S
C802 C800 1.381 . S
C802 C803 1.394 . S
C802 H810 0.930 . S
C803 C802 1.394 . S
C803 C804 1.383 . S
C803 H811 0.929 . S
C804 C803 1.383 . S
C804 C805 1.377 . S
C805 H789 0.930 . S
C805 C804 1.377 . S
C805 C806 1.379 . S
C806 H790 0.931 . S
C806 C800 1.383 . S
C806 C805 1.379 . S
H807 C801 0.959 . S
H808 C801 0.961 . S
H809 C801 0.960 . S
H810 C802 0.930 . S
H811 C803 0.929 . S
H812 C820 0.929 . S
H813 C822 0.930 . S
H814 C824 0.930 . S
H815 C827 0.929 . S
H816 C830 0.930 . S
H817 C832 0.960 . S
H818 C832 0.960 . S
H819 C832 0.960 . S
C820 H812 0.929 . S
C820 C821 1.377 . S
C820 C822 1.384 . S
C821 C820 1.377 . S
C821 C827 1.390 . S
C822 H813 0.930 . S
C822 C820 1.384 . S
C822 C823 1.372 . S
C823 C822 1.372 . S
C823 C824 1.400 . S
C823 C828 1.490 . S
C824 H814 0.930 . S
C824 C823 1.400 . S
C824 C827 1.386 . S
H825 C841 0.930 . S
H826 C842 0.931 . S
C827 H815 0.929 . S
C827 C821 1.390 . S
C827 C824 1.386 . S
C828 C823 1.490 . S
C828 C830 1.395 . S
C828 C831 1.403 . S
H829 C835 0.930 . S
C830 H816 0.930 . S
C830 C828 1.395 . S
C830 C833 1.403 . S
C831 C828 1.403 . S
C831 C832 1.524 . S
C831 C835 1.400 . S
C832 H817 0.960 . S
C832 H818 0.960 . S
C832 H819 0.960 . S
C832 C831 1.524 . S
C833 C830 1.403 . S
C833 C834 1.392 . S
C833 C837 1.495 . S
C834 C833 1.392 . S
C834 C835 1.385 . S
C834 C836 1.478 . S
C835 H829 0.930 . S
C835 C831 1.400 . S
C835 C834 1.385 . S
C836 C834 1.478 . S
C836 C838 1.381 . S
C836 C842 1.383 . S
C837 C833 1.495 . S
C837 H843 0.959 . S
C837 H844 0.961 . S
C837 H845 0.960 . S
C838 C836 1.381 . S
C838 C839 1.394 . S
C838 H846 0.930 . S
C839 C838 1.394 . S
C839 C840 1.383 . S
C839 H847 0.929 . S
C840 C839 1.383 . S
C840 C841 1.377 . S
C841 H825 0.930 . S
C841 C840 1.377 . S
C841 C842 1.379 . S
C842 H826 0.931 . S
C842 C836 1.383 . S
C842 C841 1.379 . S
H843 C837 0.959 . S
H844 C837 0.961 . S
H845 C837 0.960 . S
H846 C838 0.930 . S
H847 C839 0.929 . S
H848 C856 0.929 . S
H849 C858 0.930 . S
H850 C860 0.930 . S
H851 C863 0.929 . S
H852 C866 0.930 . S
H853 C868 0.960 . S
H854 C868 0.960 . S
H855 C868 0.960 . S
C856 H848 0.929 . S
C856 C857 1.377 . S
C856 C858 1.384 . S
C857 C856 1.377 . S
C857 C863 1.390 . S
C858 H849 0.930 . S
C858 C856 1.384 . S
C858 C859 1.372 . S
C859 C858 1.372 . S
C859 C860 1.400 . S
C859 C864 1.490 . S
C860 H850 0.930 . S
C860 C859 1.400 . S
C860 C863 1.386 . S
H861 C877 0.930 . S
H862 C878 0.931 . S
C863 H851 0.929 . S
C863 C857 1.390 . S
C863 C860 1.386 . S
C864 C859 1.490 . S
C864 C866 1.395 . S
C864 C867 1.403 . S
H865 C871 0.930 . S
C866 H852 0.930 . S
C866 C864 1.395 . S
C866 C869 1.403 . S
C867 C864 1.403 . S
C867 C868 1.524 . S
C867 C871 1.400 . S
C868 H853 0.960 . S
C868 H854 0.960 . S
C868 H855 0.960 . S
C868 C867 1.524 . S
C869 C866 1.403 . S
C869 C870 1.392 . S
C869 C873 1.495 . S
C870 C869 1.392 . S
C870 C871 1.385 . S
C870 C872 1.478 . S
C871 H865 0.930 . S
C871 C867 1.400 . S
C871 C870 1.385 . S
C872 C870 1.478 . S
C872 C874 1.381 . S
C872 C878 1.383 . S
C873 C869 1.495 . S
C873 H879 0.959 . S
C873 H880 0.961 . S
C873 H881 0.960 . S
C874 C872 1.381 . S
C874 C875 1.394 . S
C874 H882 0.930 . S
C875 C874 1.394 . S
C875 C876 1.383 . S
C875 H883 0.929 . S
C876 C875 1.383 . S
C876 C877 1.377 . S
C877 H861 0.930 . S
C877 C876 1.377 . S
C877 C878 1.379 . S
C878 H862 0.931 . S
C878 C872 1.383 . S
C878 C877 1.379 . S
H879 C873 0.959 . S
H880 C873 0.961 . S
H881 C873 0.960 . S
H882 C874 0.930 . S
H883 C875 0.929 . S
H884 C892 0.929 . S
H885 C894 0.930 . S
H886 C896 0.930 . S
H887 C899 0.929 . S
H888 C902 0.930 . S
H889 C904 0.960 . S
H890 C904 0.960 . S
H891 C904 0.960 . S
C892 H884 0.929 . S
C892 C893 1.377 . S
C892 C894 1.384 . S
C893 C892 1.377 . S
C893 C899 1.390 . S
C894 H885 0.930 . S
C894 C892 1.384 . S
C894 C895 1.372 . S
C895 C894 1.372 . S
C895 C896 1.400 . S
C895 C900 1.490 . S
C896 H886 0.930 . S
C896 C895 1.400 . S
C896 C899 1.386 . S
H897 C913 0.930 . S
H898 C914 0.931 . S
C899 H887 0.929 . S
C899 C893 1.390 . S
C899 C896 1.386 . S
C900 C895 1.490 . S
C900 C902 1.395 . S
C900 C903 1.403 . S
H901 C907 0.930 . S
C902 H888 0.930 . S
C902 C900 1.395 . S
C902 C905 1.403 . S
C903 C900 1.403 . S
C903 C904 1.524 . S
C903 C907 1.400 . S
C904 H889 0.960 . S
C904 H890 0.960 . S
C904 H891 0.960 . S
C904 C903 1.524 . S
C905 C902 1.403 . S
C905 C906 1.392 . S
C905 C909 1.495 . S
C906 C905 1.392 . S
C906 C907 1.385 . S
C906 C908 1.478 . S
C907 H901 0.930 . S
C907 C903 1.400 . S
C907 C906 1.385 . S
C908 C906 1.478 . S
C908 C910 1.381 . S
C908 C914 1.383 . S
C909 C905 1.495 . S
C909 H915 0.959 . S
C909 H916 0.961 . S
C909 H917 0.960 . S
C910 C908 1.381 . S
C910 C911 1.394 . S
C910 H918 0.930 . S
C911 C910 1.394 . S
C911 C912 1.383 . S
C911 H919 0.929 . S
C912 C911 1.383 . S
C912 C913 1.377 . S
C913 H897 0.930 . S
C913 C912 1.377 . S
C913 C914 1.379 . S
C914 H898 0.931 . S
C914 C908 1.383 . S
C914 C913 1.379 . S
H915 C909 0.959 . S
H916 C909 0.961 . S
H917 C909 0.960 . S
H918 C910 0.930 . S
H919 C911 0.929 . S
H920 C928 0.929 . S
H921 C930 0.930 . S
H922 C932 0.930 . S
H923 C935 0.929 . S
H924 C938 0.930 . S
H925 C940 0.960 . S
H926 C940 0.960 . S
H927 C940 0.960 . S
C928 H920 0.929 . S
C928 C929 1.377 . S
C928 C930 1.384 . S
C929 C928 1.377 . S
C929 C935 1.390 . S
C930 H921 0.930 . S
C930 C928 1.384 . S
C930 C931 1.372 . S
C931 C930 1.372 . S
C931 C932 1.400 . S
C931 C936 1.490 . S
C932 H922 0.930 . S
C932 C931 1.400 . S
C932 C935 1.386 . S
H933 C949 0.930 . S
H934 C950 0.931 . S
C935 H923 0.929 . S
C935 C929 1.390 . S
C935 C932 1.386 . S
C936 C931 1.490 . S
C936 C938 1.395 . S
C936 C939 1.403 . S
H937 C943 0.930 . S
C938 H924 0.930 . S
C938 C936 1.395 . S
C938 C941 1.403 . S
C939 C936 1.403 . S
C939 C940 1.524 . S
C939 C943 1.400 . S
C940 H925 0.960 . S
C940 H926 0.960 . S
C940 H927 0.960 . S
C940 C939 1.524 . S
C941 C938 1.403 . S
C941 C942 1.392 . S
C941 C945 1.495 . S
C942 C941 1.392 . S
C942 C943 1.385 . S
C942 C944 1.478 . S
C943 H937 0.930 . S
C943 C939 1.400 . S
C943 C942 1.385 . S
C944 C942 1.478 . S
C944 C946 1.381 . S
C944 C950 1.383 . S
C945 C941 1.495 . S
C945 H951 0.959 . S
C945 H952 0.961 . S
C945 H953 0.960 . S
C946 C944 1.381 . S
C946 C947 1.394 . S
C946 H954 0.930 . S
C947 C946 1.394 . S
C947 C948 1.383 . S
C947 H955 0.929 . S
C948 C947 1.383 . S
C948 C949 1.377 . S
C949 H933 0.930 . S
C949 C948 1.377 . S
C949 C950 1.379 . S
C950 H934 0.931 . S
C950 C944 1.383 . S
C950 C949 1.379 . S
H951 C945 0.959 . S
H952 C945 0.961 . S
H953 C945 0.960 . S
H954 C946 0.930 . S
H955 C947 0.929 . S
H956 C964 0.929 . S
H957 C966 0.930 . S
H958 C968 0.930 . S
H959 C971 0.929 . S
H960 C974 0.930 . S
H961 C976 0.960 . S
H962 C976 0.960 . S
H963 C976 0.960 . S
C964 H956 0.929 . S
C964 C965 1.377 . S
C964 C966 1.384 . S
C965 C964 1.377 . S
C965 C971 1.390 . S
C966 H957 0.930 . S
C966 C964 1.384 . S
C966 C967 1.372 . S
C967 C966 1.372 . S
C967 C968 1.400 . S
C967 C972 1.490 . S
C968 H958 0.930 . S
C968 C967 1.400 . S
C968 C971 1.386 . S
H969 C985 0.930 . S
H970 C986 0.931 . S
C971 H959 0.929 . S
C971 C965 1.390 . S
C971 C968 1.386 . S
C972 C967 1.490 . S
C972 C974 1.395 . S
C972 C975 1.403 . S
H973 C979 0.930 . S
C974 H960 0.930 . S
C974 C972 1.395 . S
C974 C977 1.403 . S
C975 C972 1.403 . S
C975 C976 1.524 . S
C975 C979 1.400 . S
C976 H961 0.960 . S
C976 H962 0.960 . S
C976 H963 0.960 . S
C976 C975 1.524 . S
C977 C974 1.403 . S
C977 C978 1.392 . S
C977 C981 1.495 . S
C978 C977 1.392 . S
C978 C979 1.385 . S
C978 C980 1.478 . S
C979 H973 0.930 . S
C979 C975 1.400 . S
C979 C978 1.385 . S
C980 C978 1.478 . S
C980 C982 1.381 . S
C980 C986 1.383 . S
C981 C977 1.495 . S
C981 H987 0.959 . S
C981 H988 0.961 . S
C981 H989 0.960 . S
C982 C980 1.381 . S
C982 C983 1.394 . S
C982 H990 0.930 . S
C983 C982 1.394 . S
C983 C984 1.383 . S
C983 H991 0.929 . S
C984 C983 1.383 . S
C984 C985 1.377 . S
C985 H969 0.930 . S
C985 C984 1.377 . S
C985 C986 1.379 . S
C986 H970 0.931 . S
C986 C980 1.383 . S
C986 C985 1.379 . S
H987 C981 0.959 . S
H988 C981 0.961 . S
H989 C981 0.960 . S
H990 C982 0.930 . S
H991 C983 0.929 . S
C281 C77 1.488 . S
C300 C5 1.533 . S
C317 C43 1.493 . S
C336 C107 1.534 . S
C353 C73 1.534 . S
C372 C9 1.463 . S
C389 C111 1.488 . S
C408 C39 1.533 . S
C425 C141 1.535 . S
C444 C213 1.499 . S
C461 C243 1.535 . S
C480 C179 1.509 . S
C497 C145 1.494 . S
C516 C209 1.530 . S
C533 C175 1.534 . S
C552 C247 1.468 . S
C569 C54 1.383 . S
C588 C20 1.375 . S
C605 C88 1.389 . S
C624 C122 1.395 . S
C641 C190 1.383 . S
C660 C156 1.369 . S
C677 C224 1.385 . S
C696 C258 1.385 . S
C713 C240 0.584 . S
C732 C33 0.547 . S
C749 C237 0.618 . S
C768 C36 0.628 . S
C785 C271 0.621 . S
C804 C2 0.631 . S
C821 C67 0.616 . S
C840 C206 0.627 . S
C857 C172 0.592 . S
C876 C101 0.660 . S
C893 C104 0.596 . S
C912 C169 0.628 . S
C929 C203 0.616 . S
C948 C70 0.586 . S
C965 C135 0.620 . S
C984 C138 0.630 . S
