# Generated by pormake.
# Topology dmp, (4)-cn, num edge types: 1
# Building blocks:
#     Node 0, Type 0, BuildingBlock: ESEHIV_clean_sbu_0, # of connection points: 4
#     Node 1, Type 0, BuildingBlock: ESEHIV_clean_sbu_0, # of connection points: 4
#     Node 2, Type 0, BuildingBlock: ESEHIV_clean_sbu_0, # of connection points: 4
#     Node 3, Type 0, BuildingBlock: ESEHIV_clean_sbu_0, # of connection points: 4
#     Edge 4, Type (0, 0), BuildingBlock: FUNLAD_clean_linker_1, # of connection points: 2
#     Edge 5, Type (0, 0), BuildingBlock: FUNLAD_clean_linker_1, # of connection points: 2
#     Edge 6, Type (0, 0), BuildingBlock: FUNLAD_clean_linker_1, # of connection points: 2
#     Edge 7, Type (0, 0), BuildingBlock: FUNLAD_clean_linker_1, # of connection points: 2
#     Edge 8, Type (0, 0), BuildingBlock: FUNLAD_clean_linker_1, # of connection points: 2
#     Edge 9, Type (0, 0), BuildingBlock: FUNLAD_clean_linker_1, # of connection points: 2
#     Edge 10, Type (0, 0), BuildingBlock: FUNLAD_clean_linker_1, # of connection points: 2
#     Edge 11, Type (0, 0), BuildingBlock: FUNLAD_clean_linker_1, # of connection points: 2
# Relax obj value: 0.000
# Max RMSD: 0.010
# Mean RMSD: 0.010
data_MOF--net-dmp--node1-ESEHIV_clean_sbu_0--edge1-FUNLAD_clean_linker_1
_symmetry_space_group_name_H-M    P1
_symmetry_Int_Tables_number       1
_symmetry_cell_setting            triclinic
loop_
_symmetry_equiv_pos_as_xyz
'x, y, z'
_cell_length_a     40.339031
_cell_length_b     25.755965
_cell_length_c     6.1940674
_cell_angle_alpha  90.171187
_cell_angle_beta   89.87907
_cell_angle_gamma 99.079391
loop_
_atom_site_label
_atom_site_type_symbol
_atom_site_fract_x
_atom_site_fract_y
_atom_site_fract_z
_atom_type_partial_charge
Cu0 Cu 0.13875 0.26162 0.23936 0.0
N1 N 0.15998 0.22578 0.44557 0.0
N2 N 0.19027 0.16999 0.5968 0.0
C3 C 0.17343 0.18143 0.41878 0.0
C4 C 0.18728 0.20859 0.73945 0.0
C5 C 0.1687 0.24297 0.64548 0.0
O6 O 0.11918 0.20947 0.02786 0.0
C7 C 0.17037 0.36 0.04236 0.0
O8 O 0.14037 0.37257 0.01357 0.0
H9 H 0.1721 0.15961 0.26869 0.0
H10 H 0.1628 0.27897 0.71451 0.0
N11 N 0.1032 0.28929 0.36964 0.0
N12 N 0.06881 0.34054 0.5123 0.0
C13 C 0.10029 0.3382 0.43985 0.0
C14 C 0.07275 0.2604 0.39974 0.0
C15 C 0.05163 0.29171 0.48741 0.0
C16 C 0.09484 0.21762 0.90905 0.0
O17 O 0.08536 0.26405 0.91232 0.0
H18 H 0.12056 0.37113 0.43588 0.0
H19 H 0.06626 0.21931 0.35699 0.0
O20 O 0.17353 0.31576 0.12396 0.0
H21 H 0.19865 0.2125 0.89809 0.0
H22 H 0.02539 0.27973 0.52715 0.0
Cu23 Cu 0.39565 0.77883 0.19953 0.0
N24 N 0.37175 0.81775 0.38071 0.0
N25 N 0.33703 0.87383 0.47105 0.0
C26 C 0.35446 0.85509 0.31105 0.0
C27 C 0.34331 0.84708 0.6493 0.0
C28 C 0.36478 0.81229 0.59274 0.0
O29 O 0.41784 0.83118 -0.0043 0.0
C30 C 0.36283 0.6806 0.0001 0.0
O31 O 0.39175 0.66329 -0.00137 0.0
H32 H 0.35418 0.86767 0.14497 0.0
H33 H 0.37352 0.78353 0.6959 0.0
N34 N 0.42754 0.74826 0.35792 0.0
N35 N 0.45604 0.69057 0.51589 0.0
C36 C 0.42658 0.69824 0.42704 0.0
C37 C 0.45829 0.77316 0.41177 0.0
C38 C 0.47596 0.73784 0.50738 0.0
C39 C 0.44669 0.8331 0.90961 0.0
O40 O 0.46364 0.79411 0.93773 0.0
H41 H 0.40507 0.66766 0.40831 0.0
H42 H 0.46751 0.81413 0.37922 0.0
O43 O 0.36108 0.72693 0.06606 0.0
H44 H 0.33162 0.85022 0.8049 0.0
H45 H 0.50149 0.74662 0.56587 0.0
Cu46 Cu 0.90542 0.7796 0.64554 0.0
N47 N 0.87779 0.81688 0.81247 0.0
N48 N 0.84857 0.88149 0.89685 0.0
C49 C 0.87038 0.86447 0.75784 0.0
C50 C 0.84198 0.84311 0.04615 0.0
C51 C 0.85995 0.80338 -0.00675 0.0
O52 O 0.94038 0.83407 0.52892 0.0
C53 C 0.85316 0.70305 0.51108 0.0
O54 O 0.84516 0.70692 0.71544 0.0
H55 H 0.88029 0.88583 0.61539 0.0
H56 H 0.85896 0.76649 0.07628 0.0
N57 N 0.92722 0.73081 0.79205 0.0
N58 N 0.96006 0.66861 0.82027 0.0
C59 C 0.952 0.70856 0.70144 0.0
C60 C 0.91906 0.70351 0.97439 0.0
C61 C 0.93941 0.66529 -0.00661 0.0
C62 C 0.96513 0.8495 0.65424 0.0
O63 O 0.96669 0.82643 0.8416 0.0
H64 H 0.96267 0.71966 0.54451 0.0
H65 H 0.8984 0.70853 0.0781 0.0
O66 O 0.87803 0.73481 0.43669 0.0
H67 H 0.82494 0.84291 0.18129 0.0
H68 H 0.93773 0.63585 0.11886 0.0
Cu69 Cu 0.64946 0.27881 0.63742 0.0
N70 N 0.67975 0.25147 0.81941 0.0
N71 N 0.71183 0.19342 0.93255 0.0
C72 C 0.68349 0.20032 0.82884 0.0
C73 C 0.72641 0.24198 -0.006 0.0
C74 C 0.7065 0.27769 0.92435 0.0
O75 O 0.6211 0.21762 0.50854 0.0
C76 C 0.70597 0.3369 0.40465 0.0
O77 O 0.724 0.30168 0.46939 0.0
H78 H 0.66704 0.16906 0.74767 0.0
H79 H 0.71236 0.32007 0.93547 0.0
N80 N 0.62184 0.32037 0.78035 0.0
N81 N 0.58914 0.38272 0.81344 0.0
C82 C 0.6077 0.35765 0.67912 0.0
C83 C 0.61216 0.32223 0.98816 0.0
C84 C 0.5918 0.3606 0.00896 0.0
C85 C 0.59967 0.19127 0.63443 0.0
O86 O 0.59667 0.20871 0.83189 0.0
H87 H 0.61121 0.36654 0.50916 0.0
H88 H 0.61948 0.2977 0.11543 0.0
O89 O 0.67437 0.32929 0.43642 0.0
H90 H 0.7502 0.25122 0.07705 0.0
H91 H 0.58046 0.37183 0.15685 0.0
H92 H 0.30122 0.9113 0.2891 0.0
C93 C 0.31357 0.91009 0.44439 0.0
H94 H 0.3208 0.94366 0.75399 0.0
H95 H 0.2481 0.11314 0.15538 0.0
H96 H 0.29475 0.11517 0.90741 0.0
H97 H 0.33834 0.05964 0.96857 0.0
H98 H 0.33521 1.00129 0.27534 0.0
C99 C 0.30809 0.94439 0.59982 0.0
C100 C 0.28372 0.98225 0.57124 0.0
C101 C 0.28703 1.01864 0.39697 0.0
C102 C 0.26262 0.05238 0.36654 0.0
C103 C 0.26601 0.08702 0.18761 0.0
C104 C 0.29279 0.08882 0.04431 0.0
C105 C 0.31723 0.0574 0.07825 0.0
C106 C 0.31478 0.02328 0.2536 0.0
H107 H 0.22657 0.13176 0.77116 0.0
C108 C 0.21075 0.12948 0.62842 0.0
H109 H 0.19653 0.08678 0.34239 0.0
H110 H 0.27028 0.91948 0.92786 0.0
H111 H 0.22451 0.91973 0.18071 0.0
H112 H 0.18264 0.97875 0.1288 0.0
H113 H 0.18649 0.03814 0.82425 0.0
C114 C 0.21162 0.08972 0.48798 0.0
C115 C 0.23587 0.0519 0.51588 0.0
C116 C 0.23289 1.01642 0.69238 0.0
C117 C 0.25688 0.98185 0.72065 0.0
C118 C 0.25308 0.94688 0.89847 0.0
C119 C 0.22673 0.94632 0.04455 0.0
C120 C 0.2032 0.9796 0.01556 0.0
C121 C 0.20593 1.01393 0.84091 0.0
H122 H 0.22513 0.38498 0.0252 0.0
C123 C 0.20113 0.39802 -0.00195 0.0
H124 H 0.17701 0.46288 0.92563 0.0
H125 H 0.29962 0.62071 0.31604 0.0
H126 H 0.2565 0.62534 0.58344 0.0
H127 H 0.20168 0.56778 0.55893 0.0
H128 H 0.18986 0.5048 0.26732 0.0
C129 C 0.20076 0.44844 0.94353 0.0
C130 C 0.23251 0.48731 0.94011 0.0
C131 C 0.23847 0.52598 0.10505 0.0
C132 C 0.26981 0.56035 0.11531 0.0
C133 C 0.27581 0.59559 0.29236 0.0
C134 C 0.25133 0.59831 0.44906 0.0
C135 C 0.22051 0.5658 0.43564 0.0
C136 C 0.21407 0.52983 0.26688 0.0
H137 H 0.30865 0.66282 0.92809 0.0
C138 C 0.33111 0.64512 0.9521 0.0
H139 H 0.35031 0.57412 -0.00796 0.0
H140 H 0.22794 0.42173 0.58985 0.0
H141 H 0.27079 0.41761 0.31754 0.0
H142 H 0.32494 0.47722 0.33356 0.0
H143 H 0.33664 0.54143 0.62178 0.0
C144 C 0.32815 0.59245 0.96676 0.0
C145 C 0.2948 0.55744 0.95509 0.0
C146 C 0.28853 0.51931 0.78809 0.0
C147 C 0.25735 0.48448 0.77986 0.0
C148 C 0.25149 0.44805 0.60723 0.0
C149 C 0.27579 0.44548 0.4491 0.0
C150 C 0.30628 0.47906 0.45811 0.0
C151 C 0.3127 0.51567 0.62484 0.0
H152 H 0.70646 0.10794 0.9568 0.0
C153 C 0.7244 0.14416 0.95339 0.0
H154 H 0.77551 0.17752 0.94333 0.0
H155 H 0.84048 0.99369 0.33761 0.0
H156 H 0.85414 0.06239 0.60589 0.0
H157 H 0.83003 0.14443 0.58471 0.0
H158 H 0.79208 0.15835 0.29568 0.0
C159 C 0.75753 0.14145 0.9504 0.0
C160 C 0.77108 0.09046 0.96415 0.0
C161 C 0.79343 0.08285 0.13406 0.0
C162 C 0.80706 0.03513 0.14816 0.0
C163 C 0.82924 0.0289 0.31984 0.0
C164 C 0.83741 0.06811 0.47468 0.0
C165 C 0.82388 0.11434 0.4625 0.0
C166 C 0.80216 0.12185 0.29492 0.0
H167 H 0.84312 0.95581 0.74211 0.0
C168 C 0.83482 0.9299 0.87654 0.0
H169 H 0.80392 0.91986 0.15452 0.0
H170 H 0.73376 0.09434 0.59537 0.0
H171 H 0.71872 0.02435 0.33584 0.0
H172 H 0.73896 0.93946 0.37622 0.0
H173 H 0.77476 0.92438 0.67564 0.0
C174 C 0.81193 0.94399 0.01504 0.0
C175 C 0.79843 0.99471 -0.00718 0.0
C176 C 0.77613 1.00217 0.82257 0.0
C177 C 0.76304 0.05038 0.80539 0.0
C178 C 0.74276 0.05767 0.62492 0.0
C179 C 0.73418 1.01791 0.47283 0.0
C180 C 0.74572 0.97022 0.49497 0.0
C181 C 0.76644 0.96222 0.66722 0.0
H182 H 0.85038 0.64457 0.24282 0.0
C183 C 0.83775 0.65589 0.38654 0.0
H184 H 0.79938 0.63483 0.6145 0.0
H185 H 0.73658 0.44398 0.96792 0.0
H186 H 0.72308 0.51165 0.72628 0.0
H187 H 0.74471 0.6052 0.79474 0.0
H188 H 0.78145 0.63166 0.10013 0.0
C189 C 0.8112 0.62336 0.46807 0.0
C190 C 0.80181 0.567 0.40329 0.0
C191 C 0.78046 0.55214 0.22475 0.0
C192 C 0.76669 0.49816 0.1907 0.0
C193 C 0.7464 0.48445 0.00684 0.0
C194 C 0.73866 0.52287 0.86613 0.0
C195 C 0.75103 0.57556 0.90405 0.0
C196 C 0.77194 0.59025 0.08005 0.0
H197 H 0.70719 0.42159 0.34535 0.0
C198 C 0.72256 0.39052 0.34481 0.0
H199 H 0.77151 0.37231 0.3263 0.0
H200 H 0.84437 0.58127 0.74903 0.0
H201 H 0.85634 0.51449 -0.00123 0.0
H202 H 0.8305 0.42184 0.9517 0.0
H203 H 0.7928 0.39532 0.65483 0.0
C204 C 0.75611 0.4033 0.32292 0.0
C205 C 0.7734 0.45923 0.33946 0.0
C206 C 0.79594 0.474 0.51324 0.0
C207 C 0.81031 0.52769 0.54359 0.0
C208 C 0.83241 0.54123 0.71979 0.0
C209 C 0.83964 0.50327 0.86412 0.0
C210 C 0.82515 0.45111 0.83731 0.0
C211 C 0.80356 0.43642 0.66481 0.0
H212 H 0.04976 0.18139 0.73146 0.0
C213 C 0.07332 0.17364 0.79918 0.0
H214 H 0.10337 0.11536 0.86318 0.0
H215 H 0.95158 0.97342 0.85654 0.0
H216 H 0.94248 1.02136 0.18274 0.0
H217 H 0.98452 0.09541 0.30684 0.0
H218 H 0.03573 0.12208 0.10557 0.0
C219 C 0.0797 0.12397 0.80062 0.0
C220 C 0.05414 0.07915 0.72537 0.0
C221 C 1.02415 0.06399 0.84574 0.0
C222 C 1.00022 1.02043 0.7769 0.0
C223 C 0.97068 1.00601 0.9013 0.0
C224 C 0.96509 0.03321 0.08913 0.0
C225 C 0.98869 0.07502 0.15853 0.0
C226 C 1.01794 0.09023 0.03979 0.0
H227 H 1.0156 0.89492 0.67841 0.0
C228 C 0.99097 0.89536 0.60787 0.0
H229 H 0.95785 0.94408 0.48963 0.0
H230 H 0.10865 0.09757 0.45783 0.0
H231 H 0.11865 0.04733 0.13823 0.0
H232 H 0.07715 0.97182 0.01984 0.0
H233 H 0.0256 0.9454 0.22284 0.0
C234 C 0.98337 0.94143 0.53904 0.0
C235 C 1.00664 0.991 0.59149 0.0
C236 C 0.03652 1.00617 0.47123 0.0
C237 C 0.06029 0.0502 0.53829 0.0
C238 C 0.08987 0.06438 0.41466 0.0
C239 C 0.09586 0.03596 0.23071 0.0
C240 C 0.07255 0.9933 0.1645 0.0
C241 C 0.04317 0.97841 0.28266 0.0
H242 H 0.58984 0.11892 0.43136 0.0
C243 C 0.58201 0.13805 0.57502 0.0
H244 H 0.55179 0.13101 0.85463 0.0
H245 H 0.47011 0.91921 0.39269 0.0
H246 H 0.45575 0.97618 0.10746 0.0
H247 H 0.4831 0.06853 0.08459 0.0
H248 H 0.52438 0.10528 0.35052 0.0
C249 C 0.55881 0.1117 0.70898 0.0
C250 C 0.54627 0.05395 0.69473 0.0
C251 C 0.52219 0.03298 0.53811 0.0
C252 C 0.50609 0.97956 0.55259 0.0
C253 C 0.4824 0.9597 0.39275 0.0
C254 C 0.47416 0.99181 0.22705 0.0
C255 C 0.4895 0.04393 0.21459 0.0
C256 C 0.51319 0.06453 0.3681 0.0
H257 H 0.44844 0.91562 0.80948 0.0
C258 C 0.46282 0.88335 0.8122 0.0
H259 H 0.51021 0.86072 0.76345 0.0
H260 H 0.59345 0.08 0.00988 0.0
H261 H 0.60638 0.02448 0.30311 0.0
H262 H 0.57722 0.93325 0.33628 0.0
H263 H 0.53522 0.89682 0.07623 0.0
C264 C 0.49544 0.89247 0.75468 0.0
C265 C 0.51381 0.94731 0.72522 0.0
C266 C 0.53885 0.96785 0.87714 0.0
C267 C 0.55512 1.02094 0.86111 0.0
C268 C 0.57983 0.04032 0.01638 0.0
C269 C 0.58767 1.0088 0.18503 0.0
C270 C 0.57133 0.9574 0.2033 0.0
C271 C 0.54727 0.93693 0.05183 0.0
H272 H 0.99531 0.64066 0.5967 0.0
C273 C 0.98296 0.63378 0.75263 0.0
H274 H 0.97735 0.58507 0.02758 0.0
H275 H 0.02778 0.43251 0.2575 0.0
H276 H 0.97638 0.44223 0.07119 0.0
H277 H 0.93857 0.50037 0.21638 0.0
H278 H 0.95261 0.55068 0.54298 0.0
C279 C 0.98826 0.59165 0.86824 0.0
C280 C 1.00983 0.5535 0.7862 0.0
C281 C 1.0004 0.52254 0.59924 0.0
C282 C 1.02099 0.48614 0.52358 0.0
C283 C 1.0121 0.45837 0.329 0.0
C284 C 0.98276 0.46383 0.21949 0.0
C285 C 0.9616 0.4968 0.30051 0.0
C286 C 0.9702 0.52597 0.48748 0.0
H287 H 0.02831 0.37621 0.65184 0.0
C288 C 0.05394 0.38435 0.59101 0.0
H289 H 0.09447 0.44493 0.52182 0.0
H290 H 0.03521 0.60566 0.15001 0.0
H291 H 0.08462 0.59108 0.34934 0.0
H292 H 0.11861 0.52482 0.22767 0.0
H293 H 0.1035 0.47282 0.90493 0.0
C294 C 0.06881 0.43481 0.57853 0.0
C295 C 0.0498 0.47793 0.64231 0.0
C296 C 0.05911 0.50851 0.82951 0.0
C297 C 0.03923 0.54641 0.90096 0.0
C298 C 0.04922 0.57621 0.08896 0.0
C299 C 0.07758 0.56831 0.20475 0.0
C300 C 0.0967 0.53095 0.1364 0.0
C301 C 0.08773 0.50134 0.95101 0.0
H302 H 0.44421 0.60867 0.62153 0.0
C303 C 0.4644 0.64119 0.59277 0.0
H304 H 0.51675 0.66593 0.5909 0.0
H305 H 0.57224 0.50731 0.18368 0.0
H306 H 0.58317 0.5872 0.39608 0.0
H307 H 0.55901 0.66569 0.29286 0.0
H308 H 0.52322 0.66452 0.97877 0.0
C309 C 0.49653 0.63358 0.61854 0.0
C310 C 0.50667 0.58307 0.69443 0.0
C311 C 0.5267 0.58354 0.88309 0.0
C312 C 0.5404 0.53797 0.94404 0.0
C313 C 0.56099 0.54047 0.13019 0.0
C314 C 0.56757 0.58618 0.25368 0.0
C315 C 0.5539 0.63032 0.19584 0.0
C316 C 0.53355 0.62918 0.014 0.0
H317 H 0.57753 0.4437 0.595 0.0
C318 C 0.57206 0.42582 0.75263 0.0
H319 H 0.54389 0.42757 0.0393 0.0
H320 H 0.47216 0.56867 0.31115 0.0
H321 H 0.45925 0.48773 0.10863 0.0
H322 H 0.47869 0.40681 0.23276 0.0
H323 H 0.51181 0.40679 0.55869 0.0
C324 C 0.5495 0.44442 0.8806 0.0
C325 C 0.53382 0.49136 0.81827 0.0
C326 C 0.51264 0.49008 0.6345 0.0
C327 C 0.49975 0.5362 0.56949 0.0
C328 C 0.481 0.53446 0.37573 0.0
C329 C 0.47359 0.4882 0.25637 0.0
C330 C 0.48471 0.44274 0.32555 0.0
C331 C 0.50398 0.44341 0.51213 0.0
loop_
_geom_bond_atom_site_label_1
_geom_bond_atom_site_label_2
_geom_bond_distance
_geom_bond_site_symmetry_2
_ccdc_geom_bond_type
Cu0 N1 1.999 . S
Cu0 O6 1.974 . S
Cu0 N11 1.985 . S
Cu0 O20 1.959 . S
N1 Cu0 1.999 . S
N1 C3 1.263 . S
N1 C5 1.389 . S
N2 C3 1.358 . S
N2 C4 1.400 . S
C3 N1 1.263 . S
C3 N2 1.358 . S
C3 H9 0.930 . S
C4 N2 1.400 . S
C4 C5 1.351 . S
C4 H21 0.930 . S
C5 N1 1.389 . S
C5 C4 1.351 . S
C5 H10 0.930 . S
O6 Cu0 1.974 . S
O6 C16 1.282 . S
C7 O8 1.261 . S
C7 O20 1.251 . S
O8 C7 1.261 . S
H9 C3 0.930 . S
H10 C5 0.930 . S
N11 Cu0 1.985 . S
N11 C13 1.335 . S
N11 C14 1.390 . S
N12 C13 1.345 . S
N12 C15 1.336 . S
C13 N11 1.335 . S
C13 N12 1.345 . S
C13 H18 0.930 . S
C14 N11 1.390 . S
C14 C15 1.346 . S
C14 H19 0.930 . S
C15 N12 1.336 . S
C15 C14 1.346 . S
C15 H22 0.929 . S
C16 O6 1.282 . S
C16 O17 1.216 1_554 S
O17 C16 1.216 1_556 S
H18 C13 0.930 . S
H19 C14 0.930 . S
O20 Cu0 1.959 . S
O20 C7 1.251 . S
H21 C4 0.930 . S
H22 C15 0.929 . S
Cu23 N24 1.999 . S
Cu23 O29 1.974 . S
Cu23 N34 1.985 . S
Cu23 O43 1.959 . S
N24 Cu23 1.999 . S
N24 C26 1.263 . S
N24 C28 1.389 . S
N25 C26 1.358 . S
N25 C27 1.400 . S
C26 N24 1.263 . S
C26 N25 1.358 . S
C26 H32 0.930 . S
C27 N25 1.400 . S
C27 C28 1.351 . S
C27 H44 0.930 . S
C28 N24 1.389 . S
C28 C27 1.351 . S
C28 H33 0.930 . S
O29 Cu23 1.974 . S
O29 C39 1.282 . S
C30 O31 1.261 . S
C30 O43 1.251 . S
O31 C30 1.261 . S
H32 C26 0.930 . S
H33 C28 0.930 . S
N34 Cu23 1.985 . S
N34 C36 1.335 . S
N34 C37 1.390 . S
N35 C36 1.345 . S
N35 C38 1.336 . S
C36 N34 1.335 . S
C36 N35 1.345 . S
C36 H41 0.930 . S
C37 N34 1.390 . S
C37 C38 1.346 . S
C37 H42 0.930 . S
C38 N35 1.336 . S
C38 C37 1.346 . S
C38 H45 0.929 . S
C39 O29 1.282 . S
C39 O40 1.216 1_554 S
O40 C39 1.216 1_556 S
H41 C36 0.930 . S
H42 C37 0.930 . S
O43 Cu23 1.959 . S
O43 C30 1.251 . S
H44 C27 0.930 . S
H45 C38 0.929 . S
Cu46 N47 1.999 . S
Cu46 O52 1.974 . S
Cu46 N57 1.985 . S
Cu46 O66 1.959 . S
N47 Cu46 1.999 . S
N47 C49 1.263 . S
N47 C51 1.389 . S
N48 C49 1.358 . S
N48 C50 1.400 . S
C49 N47 1.263 . S
C49 N48 1.358 . S
C49 H55 0.930 . S
C50 N48 1.400 . S
C50 C51 1.351 . S
C50 H67 0.930 . S
C51 N47 1.389 . S
C51 C50 1.351 . S
C51 H56 0.930 . S
O52 Cu46 1.974 . S
O52 C62 1.282 . S
C53 O54 1.261 . S
C53 O66 1.251 . S
O54 C53 1.261 . S
H55 C49 0.930 . S
H56 C51 0.930 . S
N57 Cu46 1.985 . S
N57 C59 1.335 . S
N57 C60 1.390 . S
N58 C59 1.345 . S
N58 C61 1.336 . S
C59 N57 1.335 . S
C59 N58 1.345 . S
C59 H64 0.930 . S
C60 N57 1.390 . S
C60 C61 1.346 . S
C60 H65 0.930 . S
C61 N58 1.336 . S
C61 C60 1.346 . S
C61 H68 0.929 . S
C62 O52 1.282 . S
C62 O63 1.216 1_556 S
O63 C62 1.216 1_554 S
H64 C59 0.930 . S
H65 C60 0.930 . S
O66 Cu46 1.959 . S
O66 C53 1.251 . S
H67 C50 0.930 . S
H68 C61 0.929 . S
Cu69 N70 1.999 . S
Cu69 O75 1.974 . S
Cu69 N80 1.985 . S
Cu69 O89 1.959 . S
N70 Cu69 1.999 . S
N70 C72 1.263 . S
N70 C74 1.389 . S
N71 C72 1.358 . S
N71 C73 1.400 . S
C72 N70 1.263 . S
C72 N71 1.358 . S
C72 H78 0.930 . S
C73 N71 1.400 . S
C73 C74 1.351 . S
C73 H90 0.930 . S
C74 N70 1.389 . S
C74 C73 1.351 . S
C74 H79 0.930 . S
O75 Cu69 1.974 . S
O75 C85 1.282 . S
C76 O77 1.261 . S
C76 O89 1.251 . S
O77 C76 1.261 . S
H78 C72 0.930 . S
H79 C74 0.930 . S
N80 Cu69 1.985 . S
N80 C82 1.335 . S
N80 C83 1.390 . S
N81 C82 1.345 . S
N81 C84 1.336 . S
C82 N80 1.335 . S
C82 N81 1.345 . S
C82 H87 0.930 . S
C83 N80 1.390 . S
C83 C84 1.346 . S
C83 H88 0.930 . S
C84 N81 1.336 . S
C84 C83 1.346 . S
C84 H91 0.929 . S
C85 O75 1.282 . S
C85 O86 1.216 1_556 S
O86 C85 1.216 1_554 S
H87 C82 0.930 . S
H88 C83 0.930 . S
O89 Cu69 1.959 . S
O89 C76 1.251 . S
H90 C73 0.930 . S
H91 C84 0.929 . S
H92 C93 0.951 . S
C93 H92 0.951 . S
C93 C99 1.265 . S
H94 C99 0.950 . S
H95 C103 0.949 . S
H96 C104 0.950 . S
H97 C105 0.951 . S
H98 C106 0.951 . S
C99 C93 1.265 . S
C99 H94 0.950 . S
C99 C100 1.478 . S
C100 C99 1.478 . S
C100 C101 1.397 . S
C100 C117 1.394 . S
C101 C100 1.397 . S
C101 C102 1.438 1_565 S
C101 C106 1.429 1_554 S
C102 C101 1.438 1_545 S
C102 C103 1.428 1_554 S
C102 C115 1.394 . S
C103 H95 0.949 . S
C103 C102 1.428 1_556 S
C103 C104 1.345 . S
C104 H96 0.950 . S
C104 C103 1.345 . S
C104 C105 1.424 . S
C105 H97 0.951 . S
C105 C104 1.424 . S
C105 C106 1.347 1_545 S
C106 H98 0.951 . S
C106 C101 1.429 1_556 S
C106 C105 1.347 1_565 S
H107 C108 0.951 . S
C108 H107 0.951 . S
C108 C114 1.265 . S
H109 C114 0.950 . S
H110 C118 0.949 . S
H111 C119 0.950 . S
H112 C120 0.951 . S
H113 C121 0.951 . S
C114 C108 1.265 . S
C114 H109 0.950 . S
C114 C115 1.478 . S
C115 C102 1.394 . S
C115 C114 1.478 . S
C115 C116 1.397 . S
C116 C115 1.397 . S
C116 C117 1.438 1_545 S
C116 C121 1.429 . S
C117 C100 1.394 . S
C117 C116 1.438 1_565 S
C117 C118 1.428 . S
C118 H110 0.949 . S
C118 C117 1.428 . S
C118 C119 1.345 . S
C119 H111 0.950 . S
C119 C118 1.345 . S
C119 C120 1.424 . S
C120 H112 0.951 . S
C120 C119 1.424 . S
C120 C121 1.347 1_565 S
C121 H113 0.951 . S
C121 C116 1.429 . S
C121 C120 1.347 1_545 S
H122 C123 0.951 . S
C123 H122 0.951 . S
C123 C129 1.265 . S
H124 C129 0.950 . S
H125 C133 0.949 . S
H126 C134 0.950 . S
H127 C135 0.951 . S
H128 C136 0.951 . S
C129 C123 1.265 . S
C129 H124 0.950 . S
C129 C130 1.478 . S
C130 C129 1.478 . S
C130 C131 1.397 . S
C130 C147 1.394 . S
C131 C130 1.397 . S
C131 C132 1.438 . S
C131 C136 1.429 . S
C132 C131 1.438 . S
C132 C133 1.428 . S
C132 C145 1.394 . S
C133 H125 0.949 . S
C133 C132 1.428 . S
C133 C134 1.345 . S
C134 H126 0.950 . S
C134 C133 1.345 . S
C134 C135 1.424 . S
C135 H127 0.951 . S
C135 C134 1.424 . S
C135 C136 1.347 . S
C136 H128 0.951 . S
C136 C131 1.429 . S
C136 C135 1.347 . S
H137 C138 0.951 . S
C138 H137 0.951 . S
C138 C144 1.265 . S
H139 C144 0.950 . S
H140 C148 0.949 . S
H141 C149 0.950 . S
H142 C150 0.951 . S
H143 C151 0.951 . S
C144 C138 1.265 . S
C144 H139 0.950 . S
C144 C145 1.478 . S
C145 C132 1.394 . S
C145 C144 1.478 . S
C145 C146 1.397 . S
C146 C145 1.397 . S
C146 C147 1.438 . S
C146 C151 1.429 1_554 S
C147 C130 1.394 . S
C147 C146 1.438 . S
C147 C148 1.428 1_554 S
C148 H140 0.949 . S
C148 C147 1.428 1_556 S
C148 C149 1.345 . S
C149 H141 0.950 . S
C149 C148 1.345 . S
C149 C150 1.424 . S
C150 H142 0.951 . S
C150 C149 1.424 . S
C150 C151 1.347 . S
C151 H143 0.951 . S
C151 C146 1.429 1_556 S
C151 C150 1.347 . S
H152 C153 0.951 . S
C153 H152 0.951 . S
C153 C159 1.265 . S
H154 C159 0.950 . S
H155 C163 0.949 . S
H156 C164 0.950 . S
H157 C165 0.951 . S
H158 C166 0.951 . S
C159 C153 1.265 . S
C159 H154 0.950 . S
C159 C160 1.478 . S
C160 C159 1.478 . S
C160 C161 1.397 . S
C160 C177 1.394 . S
C161 C160 1.397 . S
C161 C162 1.438 1_545 S
C161 C166 1.429 1_556 S
C162 C161 1.438 1_565 S
C162 C163 1.428 1_556 S
C162 C175 1.394 . S
C163 H155 0.949 . S
C163 C162 1.428 1_554 S
C163 C164 1.345 1_565 S
C164 H156 0.950 . S
C164 C163 1.345 1_545 S
C164 C165 1.424 . S
C165 H157 0.951 . S
C165 C164 1.424 . S
C165 C166 1.347 . S
C166 H158 0.951 . S
C166 C161 1.429 1_554 S
C166 C165 1.347 . S
H167 C168 0.951 . S
C168 H167 0.951 . S
C168 C174 1.265 . S
H169 C174 0.950 . S
H170 C178 0.949 . S
H171 C179 0.950 . S
H172 C180 0.951 . S
H173 C181 0.951 . S
C174 C168 1.265 . S
C174 H169 0.950 . S
C174 C175 1.478 . S
C175 C162 1.394 . S
C175 C174 1.478 . S
C175 C176 1.397 . S
C176 C175 1.397 . S
C176 C177 1.438 1_565 S
C176 C181 1.429 . S
C177 C160 1.394 . S
C177 C176 1.438 1_545 S
C177 C178 1.428 . S
C178 H170 0.949 . S
C178 C177 1.428 . S
C178 C179 1.345 1_545 S
C179 H171 0.950 . S
C179 C178 1.345 1_565 S
C179 C180 1.424 . S
C180 H172 0.951 . S
C180 C179 1.424 . S
C180 C181 1.347 . S
C181 H173 0.951 . S
C181 C176 1.429 . S
C181 C180 1.347 . S
H182 C183 0.951 . S
C183 H182 0.951 . S
C183 C189 1.265 . S
H184 C189 0.950 . S
H185 C193 0.949 . S
H186 C194 0.950 . S
H187 C195 0.951 . S
H188 C196 0.951 . S
C189 C183 1.265 . S
C189 H184 0.950 . S
C189 C190 1.478 . S
C190 C189 1.478 . S
C190 C191 1.397 . S
C190 C207 1.394 . S
C191 C190 1.397 . S
C191 C192 1.438 . S
C191 C196 1.429 . S
C192 C191 1.438 . S
C192 C193 1.428 . S
C192 C205 1.394 . S
C193 H185 0.949 . S
C193 C192 1.428 . S
C193 C194 1.345 . S
C194 H186 0.950 . S
C194 C193 1.345 . S
C194 C195 1.424 . S
C195 H187 0.951 . S
C195 C194 1.424 . S
C195 C196 1.347 . S
C196 H188 0.951 . S
C196 C191 1.429 . S
C196 C195 1.347 . S
H197 C198 0.951 . S
C198 H197 0.951 . S
C198 C204 1.265 . S
H199 C204 0.950 . S
H200 C208 0.949 . S
H201 C209 0.950 . S
H202 C210 0.951 . S
H203 C211 0.951 . S
C204 C198 1.265 . S
C204 H199 0.950 . S
C204 C205 1.478 . S
C205 C192 1.394 . S
C205 C204 1.478 . S
C205 C206 1.397 . S
C206 C205 1.397 . S
C206 C207 1.438 . S
C206 C211 1.429 1_556 S
C207 C190 1.394 . S
C207 C206 1.438 . S
C207 C208 1.428 1_556 S
C208 H200 0.949 . S
C208 C207 1.428 1_554 S
C208 C209 1.345 . S
C209 H201 0.950 . S
C209 C208 1.345 . S
C209 C210 1.424 . S
C210 H202 0.951 . S
C210 C209 1.424 . S
C210 C211 1.347 . S
C211 H203 0.951 . S
C211 C206 1.429 1_554 S
C211 C210 1.347 . S
H212 C213 0.951 1_556 S
C213 H212 0.951 1_554 S
C213 C219 1.265 . S
H214 C219 0.950 . S
H215 C223 0.947 1_556 S
H216 C224 0.950 . S
H217 C225 0.951 . S
H218 C226 0.951 . S
C219 C213 1.265 . S
C219 H214 0.950 . S
C219 C220 1.478 . S
C220 C219 1.478 . S
C220 C221 1.397 1_455 S
C220 C237 1.394 . S
C221 C220 1.397 1_655 S
C221 C222 1.438 1_544 S
C221 C226 1.429 . S
C222 C221 1.438 1_566 S
C222 C223 1.428 1_556 S
C222 C235 1.394 . S
C223 H215 0.947 1_554 S
C223 C222 1.428 1_554 S
C223 C224 1.346 1_565 S
C224 H216 0.950 . S
C224 C223 1.346 1_545 S
C224 C225 1.424 . S
C225 H217 0.951 . S
C225 C224 1.424 . S
C225 C226 1.347 . S
C226 H218 0.951 . S
C226 C221 1.429 . S
C226 C225 1.347 . S
H227 C228 0.951 1_554 S
C228 H227 0.951 1_556 S
C228 C234 1.265 . S
H229 C234 0.950 . S
H230 C238 0.947 1_554 S
H231 C239 0.950 . S
H232 C240 0.951 . S
H233 C241 0.951 . S
C234 C228 1.265 . S
C234 H229 0.950 . S
C234 C235 1.478 . S
C235 C222 1.394 . S
C235 C234 1.478 . S
C235 C236 1.397 1_655 S
C236 C235 1.397 1_455 S
C236 C237 1.438 1_566 S
C236 C241 1.429 . S
C237 C220 1.394 . S
C237 C236 1.438 1_544 S
C237 C238 1.428 1_554 S
C238 H230 0.947 1_556 S
C238 C237 1.428 1_556 S
C238 C239 1.346 1_545 S
C239 H231 0.950 . S
C239 C238 1.346 1_565 S
C239 C240 1.424 . S
C240 H232 0.951 . S
C240 C239 1.424 . S
C240 C241 1.347 . S
C241 H233 0.951 . S
C241 C236 1.429 . S
C241 C240 1.347 . S
H242 C243 0.951 . S
C243 H242 0.951 . S
C243 C249 1.265 . S
H244 C249 0.950 . S
H245 C253 0.949 . S
H246 C254 0.950 . S
H247 C255 0.951 . S
H248 C256 0.951 . S
C249 C243 1.265 . S
C249 H244 0.950 . S
C249 C250 1.478 . S
C250 C249 1.478 . S
C250 C251 1.397 . S
C250 C267 1.394 1_556 S
C251 C250 1.397 . S
C251 C252 1.438 1_545 S
C251 C256 1.429 . S
C252 C251 1.438 1_565 S
C252 C253 1.428 . S
C252 C265 1.394 1_556 S
C253 H245 0.949 . S
C253 C252 1.428 . S
C253 C254 1.345 . S
C254 H246 0.950 . S
C254 C253 1.345 . S
C254 C255 1.424 1_565 S
C255 H247 0.951 . S
C255 C254 1.424 1_545 S
C255 C256 1.347 . S
C256 H248 0.951 . S
C256 C251 1.429 . S
C256 C255 1.347 . S
H257 C258 0.951 . S
C258 H257 0.951 . S
C258 C264 1.265 . S
H259 C264 0.950 . S
H260 C268 0.949 . S
H261 C269 0.950 . S
H262 C270 0.951 . S
H263 C271 0.951 . S
C264 C258 1.265 . S
C264 H259 0.950 . S
C264 C265 1.478 . S
C265 C252 1.394 1_554 S
C265 C264 1.478 . S
C265 C266 1.397 . S
C266 C265 1.397 . S
C266 C267 1.438 1_565 S
C266 C271 1.429 . S
C267 C250 1.394 1_554 S
C267 C266 1.438 1_545 S
C267 C268 1.428 . S
C268 H260 0.949 . S
C268 C267 1.428 . S
C268 C269 1.345 . S
C269 H261 0.950 . S
C269 C268 1.345 . S
C269 C270 1.424 1_545 S
C270 H262 0.951 . S
C270 C269 1.424 1_565 S
C270 C271 1.347 . S
C271 H263 0.951 . S
C271 C266 1.429 . S
C271 C270 1.347 . S
H272 C273 0.951 . S
C273 H272 0.951 . S
C273 C279 1.265 . S
H274 C279 0.950 . S
H275 C283 0.949 1_455 S
H276 C284 0.950 . S
H277 C285 0.951 . S
H278 C286 0.951 . S
C279 C273 1.265 . S
C279 H274 0.950 . S
C279 C280 1.478 . S
C280 C279 1.478 . S
C280 C281 1.397 . S
C280 C297 1.392 1_655 S
C281 C280 1.397 . S
C281 C282 1.440 . S
C281 C286 1.429 . S
C282 C281 1.440 . S
C282 C283 1.428 . S
C282 C295 1.392 1_655 S
C283 H275 0.949 1_655 S
C283 C282 1.428 . S
C283 C284 1.345 1_554 S
C284 H276 0.950 . S
C284 C283 1.345 1_556 S
C284 C285 1.424 . S
C285 H277 0.951 . S
C285 C284 1.424 . S
C285 C286 1.346 1_556 S
C286 H278 0.951 . S
C286 C281 1.429 . S
C286 C285 1.346 1_554 S
H287 C288 0.951 . S
C288 H287 0.951 . S
C288 C294 1.265 . S
H289 C294 0.950 . S
H290 C298 0.949 1_655 S
H291 C299 0.950 . S
H292 C300 0.951 . S
H293 C301 0.951 . S
C294 C288 1.265 . S
C294 H289 0.950 . S
C294 C295 1.478 . S
C295 C282 1.392 1_455 S
C295 C294 1.478 . S
C295 C296 1.397 . S
C296 C295 1.397 . S
C296 C297 1.440 . S
C296 C301 1.429 . S
C297 C280 1.392 1_455 S
C297 C296 1.440 . S
C297 C298 1.428 . S
C298 H290 0.949 1_455 S
C298 C297 1.428 . S
C298 C299 1.345 1_556 S
C299 H291 0.950 . S
C299 C298 1.345 1_554 S
C299 C300 1.424 . S
C300 H292 0.951 . S
C300 C299 1.424 . S
C300 C301 1.346 1_554 S
C301 H293 0.951 . S
C301 C296 1.429 . S
C301 C300 1.346 1_556 S
H302 C303 0.951 . S
C303 H302 0.951 . S
C303 C309 1.265 . S
H304 C309 0.950 . S
H305 C313 0.949 . S
H306 C314 0.950 . S
H307 C315 0.951 1_554 S
H308 C316 0.951 . S
C309 C303 1.265 . S
C309 H304 0.950 . S
C309 C310 1.478 . S
C310 C309 1.478 . S
C310 C311 1.397 . S
C310 C327 1.394 . S
C311 C310 1.397 . S
C311 C312 1.438 . S
C311 C316 1.429 . S
C312 C311 1.438 . S
C312 C313 1.428 . S
C312 C325 1.394 . S
C313 H305 0.949 . S
C313 C312 1.428 . S
C313 C314 1.345 1_556 S
C314 H306 0.950 . S
C314 C313 1.345 1_554 S
C314 C315 1.424 1_554 S
C315 H307 0.951 1_556 S
C315 C314 1.424 1_556 S
C315 C316 1.347 . S
C316 H308 0.951 . S
C316 C311 1.429 . S
C316 C315 1.347 . S
H317 C318 0.951 . S
C318 H317 0.951 . S
C318 C324 1.265 . S
H319 C324 0.950 . S
H320 C328 0.949 . S
H321 C329 0.950 . S
H322 C330 0.951 1_556 S
H323 C331 0.951 . S
C324 C318 1.265 . S
C324 H319 0.950 . S
C324 C325 1.478 . S
C325 C312 1.394 . S
C325 C324 1.478 . S
C325 C326 1.397 . S
C326 C325 1.397 . S
C326 C327 1.438 . S
C326 C331 1.429 . S
C327 C310 1.394 . S
C327 C326 1.438 . S
C327 C328 1.428 . S
C328 H320 0.949 . S
C328 C327 1.428 . S
C328 C329 1.345 1_554 S
C329 H321 0.950 . S
C329 C328 1.345 1_556 S
C329 C330 1.424 1_556 S
C330 H322 0.951 1_554 S
C330 C329 1.424 1_554 S
C330 C331 1.347 . S
C331 H323 0.951 . S
C331 C326 1.429 . S
C331 C330 1.347 . S
C93 N25 1.411 . S
C108 N2 1.421 . S
C123 C7 1.475 . S
C138 C30 1.471 . S
C153 N71 1.472 . S
C168 N48 1.460 . S
C183 C53 1.487 . S
C198 C76 1.487 . S
C213 C16 1.451 . S
C228 C62 1.451 . S
C243 C85 1.485 . S
C258 C39 1.485 . S
C273 N58 1.425 . S
C288 N12 1.425 . S
C303 N35 1.494 . S
C318 N81 1.494 . S
